
     RDKit          3D

 17 17  0  0  1  0  0  0  0  0999 V2000
    1.1115   -0.0836    0.0393 C   0  0  0  0  0  0  0  0  0  0  0  0
    0.5723    1.1892   -0.4188 N   0  0  0  0  0  0  0  0  0  0  0  0
   -0.9024    1.2144   -0.4263 C   0  0  1  0  0  0  0  0  0  0  0  0
   -1.4770    1.0253    0.9819 C   0  0  0  0  0  0  0  0  0  0  0  0
   -1.4182    2.5606   -0.9930 C   0  0  0  0  0  0  0  0  0  0  0  0
   -0.9798    2.8202   -2.4040 C   0  0  0  0  0  0  0  0  0  0  0  0
   -1.8300    3.0080   -3.4334 C   0  0  0  0  0  0  0  0  0  0  0  0
   -1.3520    3.2264   -4.7974 C   0  0  0  0  0  0  0  0  0  0  0  0
   -0.3409    2.4221   -5.3053 C   0  0  0  0  0  0  0  0  0  0  0  0
    0.1585    2.5872   -6.5890 C   0  0  0  0  0  0  0  0  0  0  0  0
    1.1680    1.8603   -7.1470 O   0  0  0  0  0  0  0  0  0  0  0  0
    1.8090    0.8255   -6.3784 C   0  0  0  0  0  0  0  0  0  0  0  0
    2.5923    1.3700   -5.1759 C   0  0  0  0  0  0  0  0  0  0  0  0
    0.8734   -0.3531   -6.0790 C   0  0  0  0  0  0  0  0  0  0  0  0
   -0.4301    3.5826   -7.3545 C   0  0  0  0  0  0  0  0  0  0  0  0
   -1.4421    4.3804   -6.9216 N   0  0  0  0  0  0  0  0  0  0  0  0
   -1.8776    4.1790   -5.6526 C   0  0  0  0  0  0  0  0  0  0  0  0
  1  2  1  0
  3  2  1  0
  3  4  1  1
  3  5  1  0
  5  6  1  0
  6  7  2  0
  7  8  1  0
  8  9  2  0
  8 17  1  0
  9 10  1  0
 10 11  1  0
 10 15  2  0
 11 12  1  0
 12 13  1  0
 12 14  1  0
 15 16  1  0
 16 17  2  0
M  END
>  <DRUGBANK_ID>  (1) 
DB16205

>  <COMMON_NAME>  (1) 
Ispronicline

>  <CAS_NUMBER>  (1) 
252870-53-4

>  <UNII>  (1) 
3E05NBH9V5

>  <SYNONYMS>  (1) 
Ispronicline

$$$$
