
     RDKit          3D

 13 13  0  0  1  0  0  0  0  0999 V2000
    1.0379    0.0330    0.0531 C   0  0  0  0  0  0  0  0  0  0  0  0
    0.5101    0.2908   -1.3700 C   0  0  2  0  0  0  0  0  0  0  0  0
    1.1495   -0.7224   -2.3268 C   0  0  2  0  0  0  0  0  0  0  0  0
    2.1609   -0.2135   -3.3407 C   0  0  1  0  0  0  0  0  0  0  0  0
    2.1814    1.2771   -3.6145 C   0  0  2  0  0  0  0  0  0  0  0  0
    1.3840    2.1565   -2.6635 C   0  0  0  0  0  0  0  0  0  0  0  0
    0.6650    1.7125   -1.6859 N   0  0  0  0  0  0  0  0  0  0  0  0
    1.5342    3.5110   -2.8746 N   0  0  0  0  0  0  0  0  0  0  0  0
    0.5991   -1.2225    0.5706 O   0  0  0  0  0  0  0  0  0  0  0  0
    0.1085   -1.4347   -3.0109 O   0  0  0  0  0  0  0  0  0  0  0  0
    3.4865   -0.6089   -2.9342 O   0  0  0  0  0  0  0  0  0  0  0  0
    1.7938    1.5356   -4.9631 O   0  0  0  0  0  0  0  0  0  0  0  0
    0.7585    4.3763   -2.1099 O   0  0  0  0  0  0  0  0  0  0  0  0
  2  1  1  1
  3  2  1  0
  3 10  1  6
  4  3  1  0
  4 11  1  1
  5  4  1  0
  5 12  1  6
  6  5  1  0
  7  2  1  0
  7  6  2  0
  8  6  1  0
  9  1  1  0
 13  8  1  0
M  END
>  <DRUGBANK_ID>  (1) 
DB02376

>  <SECONDARY_ACCESSION_NUMBERS>  (1) 
EXPT01630

>  <COMMON_NAME>  (1) 
D-gluconhydroximo-1,5-lactam

$$$$
