
     RDKit          3D

 31 34  0  0  0  0  0  0  0  0999 V2000
    1.0796    0.0155    0.1134 O   0  0  0  0  0  0  0  0  0  0  0  0
    2.3132   -0.0321    0.0212 N   0  0  0  0  0  0  0  0  0  0  0  0
    2.9516    0.0256   -1.0371 O   0  0  0  0  0  0  0  0  0  0  0  0
    3.0736   -0.2254    1.2587 C   0  0  0  0  0  0  0  0  0  0  0  0
    4.1298    0.6214    1.6141 C   0  0  0  0  0  0  0  0  0  0  0  0
    4.1951    2.2470    1.0148 S   0  0  0  0  0  0  0  0  0  0  0  0
    5.8344    2.7024    1.4320 C   0  0  0  0  0  0  0  0  0  0  0  0
    6.6016    2.0829    2.2631 N   0  0  0  0  0  0  0  0  0  0  0  0
    6.0901    1.1807    3.1092 C   0  0  0  0  0  0  0  0  0  0  0  0
    6.6154    1.0045    4.2201 O   0  0  0  0  0  0  0  0  0  0  0  0
    4.9079    0.3708    2.7451 C   0  0  0  0  0  0  0  0  0  0  0  0
    4.5078   -0.6064    3.6284 C   0  0  0  0  0  0  0  0  0  0  0  0
    3.3878   -1.3870    3.3398 C   0  0  0  0  0  0  0  0  0  0  0  0
    2.6809   -1.2240    2.1350 C   0  0  0  0  0  0  0  0  0  0  0  0
    2.9593   -2.4195    4.3312 C   0  0  0  0  0  0  0  0  0  0  0  0
    1.6900   -2.2090    4.7575 F   0  0  0  0  0  0  0  0  0  0  0  0
    2.9990   -3.6591    3.7852 F   0  0  0  0  0  0  0  0  0  0  0  0
    3.7431   -2.4539    5.4391 F   0  0  0  0  0  0  0  0  0  0  0  0
    6.3197    3.8388    0.8753 N   0  0  0  0  0  0  0  0  0  0  0  0
    7.5192    3.7133    0.0408 C   0  0  0  0  0  0  0  0  0  0  0  0
    8.1764    5.0776   -0.2167 C   0  0  0  0  0  0  0  0  0  0  0  0
    7.2494    6.0768   -0.8087 N   0  0  0  0  0  0  0  0  0  0  0  0
    7.0656    5.9985   -2.2840 C   0  0  0  0  0  0  0  0  0  0  0  0
    6.3856    4.7850   -3.0003 C   0  0  0  0  0  0  0  0  0  0  0  0
    4.8594    4.7571   -2.6849 C   0  0  0  0  0  0  0  0  0  0  0  0
    4.2412    3.3592   -2.6037 C   0  0  0  0  0  0  0  0  0  0  0  0
    5.1818    2.2003   -2.2442 C   0  0  0  0  0  0  0  0  0  0  0  0
    6.5211    2.1657   -2.9521 C   0  0  0  0  0  0  0  0  0  0  0  0
    7.2779    3.4927   -2.9939 C   0  0  0  0  0  0  0  0  0  0  0  0
    6.0079    6.0891   -0.0018 C   0  0  0  0  0  0  0  0  0  0  0  0
    5.3878    4.7168    0.1989 C   0  0  0  0  0  0  0  0  0  0  0  0
  1  2  1  0
  2  3  2  0
  2  4  1  0
  4  5  2  0
  4 14  1  0
  5  6  1  0
  5 11  1  0
  6  7  1  0
  7  8  2  0
  7 19  1  0
  8  9  1  0
  9 10  2  0
  9 11  1  0
 11 12  2  0
 12 13  1  0
 13 14  2  0
 13 15  1  0
 15 16  1  0
 15 17  1  0
 15 18  1  0
 19 20  1  0
 19 31  1  0
 20 21  1  0
 21 22  1  0
 22 23  1  0
 22 30  1  0
 23 24  1  0
 24 25  1  0
 24 29  1  0
 25 26  1  0
 26 27  1  0
 27 28  1  0
 28 29  1  0
 30 31  1  0
M  CHG  2   1  -1   2   1
M  END
>  <DRUGBANK_ID>  (1) 
DB14821

>  <COMMON_NAME>  (1) 
Macozinone

>  <CAS_NUMBER>  (1) 
1377239-83-2

>  <UNII>  (1) 
A3M1353L40

>  <SYNONYMS>  (1) 
Macozinone

$$$$
