
     RDKit          3D

 16 16  0  0  0  0  0  0  0  0999 V2000
    1.6373   -0.0954   -0.1861 C   0  0  1  0  0  0  0  0  0  0  0  0
    1.2890    0.9363    0.7309 O   0  0  0  0  0  0  0  0  0  0  0  0
    0.0822    1.6403    0.4187 C   0  0  1  0  0  0  0  0  0  0  0  0
   -1.1185    0.6829    0.3428 C   0  0  2  0  0  0  0  0  0  0  0  0
   -0.8087   -0.5079   -0.5812 C   0  0  1  0  0  0  0  0  0  0  0  0
    0.5293   -1.1625   -0.2083 C   0  0  2  0  0  0  0  0  0  0  0  0
    0.9010    2.9337    2.3654 O   0  0  0  0  0  0  0  0  0  0  0  0
    2.4263    2.1571    3.9750 O   0  0  0  0  0  0  0  0  0  0  0  0
   -0.0445    1.6025    4.0492 O   0  0  0  0  0  0  0  0  0  0  0  0
   -0.1941    2.7366    1.4713 C   0  0  0  0  0  0  0  0  0  0  0  0
   -2.2743    1.4053   -0.0804 O   0  0  0  0  0  0  0  0  0  0  0  0
   -1.8622   -1.4724   -0.5146 O   0  0  0  0  0  0  0  0  0  0  0  0
    1.9646    0.4601   -1.4393 O   0  0  0  0  0  0  0  0  0  0  0  0
    0.3777   -1.8111    1.0699 O   0  0  0  0  0  0  0  0  0  0  0  0
    1.3239    1.4671    3.1798 P   0  0  0  0  0  0  0  0  0  0  0  0
    1.7468    0.0006    3.9941 O   0  0  0  0  0  0  0  0  0  0  0  0
  1 13  1  6
  1  6  1  0
  2  1  1  0
  3  2  1  0
  3  4  1  0
  3 10  1  1
  4 11  1  6
  4  5  1  0
  5 12  1  1
  5  6  1  0
  6 14  1  1
  7 10  1  0
 15  7  1  0
 15  8  2  0
 15  9  1  0
 15 16  1  0
M  END
>  <DRUGBANK_ID>  (1) 
DB02900

>  <SECONDARY_ACCESSION_NUMBERS>  (1) 
EXPT02088

>  <COMMON_NAME>  (1) 
alpha-D-mannose 6-phosphate

>  <CAS_NUMBER>  (1) 
40436-60-0

>  <UNII>  (1) 
C77UQ006XD

>  <SYNONYMS>  (1) 
(6P)Mana; (6P)Manα; 6-H2PO3Manα; 6-O-phosphono-α-D-mannopyranose; alpha-D-Mannopyranose 6-phosphate; Man6P; α-D-mannose 6-phosphate

$$$$
