LPM
     RDKit          3D

 12 11  0  0  0  0  0  0  0  0999 V2000
    0.9531   -0.1217   -0.0229 C   0  0  0  0  0  0  0  0  0  0  0  0
    0.2320    0.8011   -0.3957 O   0  0  0  0  0  0  0  0  0  0  0  0
    0.3876   -1.2642    0.4382 N   0  0  0  0  0  0  0  0  0  0  0  0
    2.4650   -0.0860   -0.0187 C   0  0  0  0  0  0  0  0  0  0  0  0
    2.9924    1.2993   -0.4098 C   0  0  0  0  0  0  0  0  0  0  0  0
    2.5690    2.4051    0.5733 C   0  0  0  0  0  0  0  0  0  0  0  0
    3.1102    2.1732    1.9803 C   0  0  0  0  0  0  0  0  0  0  0  0
    4.6443    2.1430    2.0443 C   0  0  1  0  0  0  0  0  0  0  0  0
    5.3574    3.7773    1.6139 S   0  0  0  0  0  0  0  0  0  0  0  0
    5.1406    1.7087    3.4246 C   0  0  0  0  0  0  0  0  0  0  0  0
    4.6710    0.3110    3.8482 C   0  0  0  0  0  0  0  0  0  0  0  0
    5.2902   -1.0395    2.7881 S   0  0  0  0  0  0  0  0  0  0  0  0
  1  2  2  0
  1  3  1  0
  1  4  1  0
  4  5  1  0
  5  6  1  0
  6  7  1  0
  8  7  1  1
  8  9  1  0
  8 10  1  0
 10 11  1  0
 11 12  1  0
M  END
>  <DRUGBANK_ID>  (1) 
DB08120

>  <COMMON_NAME>  (1) 
6,8-DIMERCAPTO-OCTANOIC ACID AMIDE

$$$$
