
     RDKit          3D

 26 30  0  0  0  0  0  0  0  0999 V2000
   -0.7635    2.0844   -0.9160 C   0  0  0  0  0  0  0  0  0  0  0  0
   -0.6224   -0.2268   -0.3346 C   0  0  0  0  0  0  0  0  0  0  0  0
   -3.5060    3.8795    6.2308 C   0  0  0  0  0  0  0  0  0  0  0  0
   -1.4813    9.0388    2.5351 C   0  0  0  0  0  0  0  0  0  0  0  0
   -2.4178    3.8496    5.3075 C   0  0  0  0  0  0  0  0  0  0  0  0
   -1.5821    7.9660    3.4353 C   0  0  0  0  0  0  0  0  0  0  0  0
   -4.0084    5.1438    6.3966 C   0  0  0  0  0  0  0  0  0  0  0  0
   -0.7331    8.7047    1.4371 C   0  0  0  0  0  0  0  0  0  0  0  0
   -0.5154    2.9238    1.8593 C   0  0  0  0  0  0  0  0  0  0  0  0
    1.6906    2.2547    1.4918 C   0  0  0  0  0  0  0  0  0  0  0  0
    0.8017    2.9249    2.5295 C   0  0  1  0  0  0  0  0  0  0  0  0
   -1.2568    1.6341    1.5076 C   0  0  2  0  0  0  0  0  0  0  0  0
    0.9706    0.9395    1.1051 C   0  0  1  0  0  0  0  0  0  0  0  0
   -2.1389    5.1035    4.7670 C   0  0  0  0  0  0  0  0  0  0  0  0
   -1.1317    6.7659    2.9449 C   0  0  0  0  0  0  0  0  0  0  0  0
   -1.0770    0.5369    2.5013 C   0  0  1  0  0  0  0  0  0  0  0  0
    0.4247    0.0804    2.2996 C   0  0  2  0  0  0  0  0  0  0  0  0
    0.2941    4.9331    3.9248 C   0  0  0  0  0  0  0  0  0  0  0  0
   -1.3067    5.3580    3.5060 C   0  0  0  0  0  0  0  0  0  0  0  0
   -0.4143    1.1749    0.2740 N   0  0  0  0  0  0  0  0  0  0  0  0
    0.8405    5.4401    4.9474 O   0  0  0  0  0  0  0  0  0  0  0  0
   -2.3025    4.8217    2.6199 O   0  0  0  0  0  0  0  0  0  0  0  0
    1.1082    4.2610    3.0128 O   0  0  0  0  0  0  0  0  0  0  0  0
   -0.0676    0.6376    3.4923 O   0  0  0  0  0  0  0  0  0  0  0  0
   -3.2338    6.2552    5.4085 S   0  0  0  0  0  0  0  0  0  0  0  0
   -0.3167    7.0388    1.4350 S   0  0  0  0  0  0  0  0  0  0  0  0
  5  3  1  0
  6  4  1  0
  7  3  2  0
  8  4  2  0
 11  9  1  0
 11 10  1  0
 11 23  1  6
 12  9  1  1
 13 10  1  1
 14  5  2  0
 15  6  2  0
 16 12  1  0
 17 13  1  0
 17 16  1  0
 19 14  1  0
 19 15  1  0
 19 18  1  0
 20 12  1  0
 20 13  1  0
 20  1  1  0
 20  2  1  0
 21 18  2  0
 22 19  1  0
 23 18  1  0
 16 24  1  1
 17 24  1  1
 25  7  1  0
 25 14  1  0
 26  8  1  0
 26 15  1  0
M  CHG  1  20   1
M  END
>  <DRUGBANK_ID>  (1) 
DB01409

>  <COMMON_NAME>  (1) 
Tiotropium

>  <CAS_NUMBER>  (1) 
186691-13-4

>  <UNII>  (1) 
0EB439235F

$$$$
