
     RDKit          3D

 19 20  0  0  1  0  0  0  0  0999 V2000
    0.8845    0.1431   -0.4622 C   0  0  0  0  0  0  0  0  0  0  0  0
    0.2933   -1.2058    0.1908 C   0  0  0  0  0  0  0  0  0  0  0  0
    0.9044    0.0310   -2.0054 C   0  0  0  0  0  0  0  0  0  0  0  0
    0.9117   -2.6372   -0.1627 C   0  0  0  0  0  0  0  0  0  0  0  0
    1.4301   -1.0826   -2.6726 C   0  0  0  0  0  0  0  0  0  0  0  0
    2.3369   -2.9172    0.1420 N   0  0  0  0  0  0  0  0  0  0  0  0
    2.1599    0.5731    0.0318 O   0  0  0  0  0  0  0  0  0  0  0  0
    1.2780   -1.3742   -4.0310 C   0  0  0  0  0  0  0  0  0  0  0  0
    0.0836    1.3262    0.1412 C   0  0  0  0  0  0  0  0  0  0  0  0
    0.2587    0.9604   -2.8190 C   0  0  0  0  0  0  0  0  0  0  0  0
   -1.2369   -1.2391   -0.1574 C   0  0  0  0  0  0  0  0  0  0  0  0
    1.7697   -2.4788   -4.6615 O   0  0  0  0  0  0  0  0  0  0  0  0
   -0.0026    0.6487   -4.1650 C   0  0  0  0  0  0  0  0  0  0  0  0
    0.5201   -0.4835   -4.7673 C   0  0  0  0  0  0  0  0  0  0  0  0
    2.8871   -4.1459   -0.3976 C   0  0  0  0  0  0  0  0  0  0  0  0
    3.2877   -1.8492   -0.0684 C   0  0  0  0  0  0  0  0  0  0  0  0
    2.4375   -3.4459   -3.8470 C   0  0  0  0  0  0  0  0  0  0  0  0
   -1.4022    1.2997   -0.1121 C   0  0  0  0  0  0  0  0  0  0  0  0
   -2.0064   -0.0108    0.3457 C   0  0  0  0  0  0  0  0  0  0  0  0
  1  7  1  0
  2  1  1  0
  2  4  1  0
  3  1  1  0
  5  3  2  0
  6  4  1  0
  8  5  1  0
  9  1  1  0
 10  3  1  0
 11  2  1  0
 11 19  1  0
 12  8  1  0
 13 10  2  0
 13 14  1  0
 14  8  2  0
 15  6  1  0
 16  6  1  0
 17 12  1  0
 18  9  1  0
 19 18  1  0
M  END
>  <DRUGBANK_ID>  (1) 
DB00193

>  <SECONDARY_ACCESSION_NUMBERS>  (1) 
APRD00028

>  <COMMON_NAME>  (1) 
Tramadol

>  <CAS_NUMBER>  (1) 
27203-92-5

>  <UNII>  (1) 
39J1LGJ30J

>  <SYNONYMS>  (1) 
Tramadol; Tramadolum

$$$$
