
     RDKit          3D

 20  4  0  0  0  0  0  0  0  0999 V2000
   -0.0995   -1.1714   -2.4350 Na  0  0  0  0  0 15  0  0  0  0  0  0
   -2.1210    1.6626   -0.1024 Na  0  0  0  0  0 15  0  0  0  0  0  0
    2.6730   -3.7131   -0.4065 Na  0  0  0  0  0 15  0  0  0  0  0  0
    2.6281    0.5021    0.1182 O   0  0  0  0  0  0  0  0  0  0  0  0
    3.9554    1.4163    1.6382 O   0  0  0  0  0  0  0  0  0  0  0  0
    3.8983   -1.1892    0.8882 O   0  0  0  0  0  0  0  0  0  0  0  0
    5.0591    0.5332   -0.5720 O   0  0  0  0  0  0  0  0  0  0  0  0
    4.0741    0.3230    0.6518 P   0  0  0  0  0  0  0  0  0  0  0  0
    1.8490   -2.5725    2.2487 O   0  0  0  0  0  0  0  0  0  0  0  0
   -0.2873    0.8253   -2.5647 O   0  0  0  0  0  0  0  0  0  0  0  0
    0.0087    0.5681    0.3791 O   0  0  0  0  0  0  0  0  0  0  0  0
    2.6675    2.7454   -1.1347 O   0  0  0  0  0  0  0  0  0  0  0  0
    2.2316   -0.3111    2.3377 O   0  0  0  0  0  0  0  0  0  0  0  0
    1.0760   -2.2794    0.1658 O   0  0  0  0  0  0  0  0  0  0  0  0
    0.5813    1.1679    2.5502 O   0  0  0  0  0  0  0  0  0  0  0  0
   -0.2922   -1.1720    1.5612 O   0  0  0  0  0  0  0  0  0  0  0  0
   -0.9720   -2.0694   -0.8893 O   0  0  0  0  0  0  0  0  0  0  0  0
    0.4525    2.5763   -0.3140 O   0  0  0  0  0  0  0  0  0  0  0  0
    2.2827   -1.3976   -1.3445 O   0  0  0  0  0  0  0  0  0  0  0  0
    1.7594    0.7009   -1.9012 O   0  0  0  0  0  0  0  0  0  0  0  0
  8  4  1  0
  8  5  1  0
  8  6  1  0
  8  7  2  0
M  CHG  6   1   1   2   1   3   1   4  -1   5  -1   6  -1
M  END
>  <DRUGBANK_ID>  (1) 
DB14622

>  <COMMON_NAME>  (1) 
Sodium phosphate tribasic dodecahydrate

>  <CAS_NUMBER>  (1) 
10101-89-0

>  <UNII>  (1) 
B70850QPHR

>  <SYNONYMS>  (1) 
Phosphoric acid, trisodium salt, dodeahydrate; Phosphoric acid, trisodium salt, dodecahydrate; Sodium phosphate dodecahydrate; Sodium phosphate, tribasic, dodecahydrate; Trisodium phosphate; Trisodium phosphate dodecahydrate

$$$$
