
     RDKit          3D

 30 34  0  0  0  0  0  0  0  0999 V2000
   -0.6860   -1.3859   -0.0137 C   0  0  0  0  0  0  0  0  0  0  0  0
    0.6578   -1.3698   -0.0225 C   0  0  0  0  0  0  0  0  0  0  0  0
    1.0994    0.0433   -0.0075 C   0  0  0  0  0  0  0  0  0  0  0  0
   -0.0172    0.8026   -0.0228 N   0  0  0  0  0  0  0  0  0  0  0  0
   -1.1304    0.0310   -0.0180 C   0  0  0  0  0  0  0  0  0  0  0  0
   -2.2704    0.4425   -0.0086 O   0  0  0  0  0  0  0  0  0  0  0  0
    2.2391    0.4573    0.0154 O   0  0  0  0  0  0  0  0  0  0  0  0
   -1.5506   -2.5198    0.0301 C   0  0  0  0  0  0  0  0  0  0  0  0
   -2.4797   -2.8485   -0.9358 C   0  0  0  0  0  0  0  0  0  0  0  0
   -3.0472   -4.0502   -0.5893 N   0  0  0  0  0  0  0  0  0  0  0  0
   -4.0288   -4.7691   -1.3734 C   0  0  0  0  0  0  0  0  0  0  0  0
   -2.5212   -4.5045    0.6027 C   0  0  0  0  0  0  0  0  0  0  0  0
   -1.5673   -3.5656    1.0106 C   0  0  0  0  0  0  0  0  0  0  0  0
   -0.8555   -3.8160    2.2051 C   0  0  0  0  0  0  0  0  0  0  0  0
   -1.1121   -4.9757    2.9446 C   0  0  0  0  0  0  0  0  0  0  0  0
   -2.0755   -5.8839    2.5223 C   0  0  0  0  0  0  0  0  0  0  0  0
   -2.7971   -5.6656    1.3461 C   0  0  0  0  0  0  0  0  0  0  0  0
    1.5547   -3.4766   -0.9653 C   0  0  0  0  0  0  0  0  0  0  0  0
    2.4813   -4.4182   -0.5800 N   0  0  0  0  0  0  0  0  0  0  0  0
    1.5424   -2.4768   -0.0124 C   0  0  0  0  0  0  0  0  0  0  0  0
    2.4960   -2.8045    0.9904 C   0  0  0  0  0  0  0  0  0  0  0  0
    2.9759   -4.0762    0.6720 C   0  0  0  0  0  0  0  0  0  0  0  0
    3.8370   -4.7234    1.5711 C   0  0  0  0  0  0  0  0  0  0  0  0
    4.4269   -4.0459    2.6265 C   0  0  0  0  0  0  0  0  0  0  0  0
    3.9619   -2.7963    2.9591 C   0  0  0  0  0  0  0  0  0  0  0  0
    2.9577   -2.1950    2.1856 C   0  0  0  0  0  0  0  0  0  0  0  0
    2.8615   -5.5595   -1.4126 C   0  0  0  0  0  0  0  0  0  0  0  0
    4.3125   -5.5430   -1.9377 C   0  0  0  0  0  0  0  0  0  0  0  0
    5.3848   -5.6440   -0.8600 C   0  0  0  0  0  0  0  0  0  0  0  0
    5.2702   -6.9103   -0.1308 N   0  0  0  0  0  0  0  0  0  0  0  0
  1  8  1  0
  1  2  2  0
  2  3  1  0
  3  7  2  0
  3  4  1  0
  4  5  1  0
  5  1  1  0
  5  6  2  0
  8 13  1  0
  8  9  2  0
  9 10  1  0
 10 12  1  0
 10 11  1  0
 12 13  2  0
 13 14  1  0
 14 15  2  0
 15 16  1  0
 16 17  2  0
 17 12  1  0
 18 19  1  0
 19 22  1  0
 19 27  1  0
 20 18  2  0
 20  2  1  0
 21 20  1  0
 21 22  2  0
 22 23  1  0
 23 24  2  0
 24 25  1  0
 25 26  2  0
 26 21  1  0
 27 28  1  0
 28 29  1  0
 29 30  1  0
M  END
>  <DRUGBANK_ID>  (1) 
DB01946

>  <SECONDARY_ACCESSION_NUMBERS>  (1) 
EXPT00704

>  <COMMON_NAME>  (1) 
Bisindolylmaleimide VIII

>  <CAS_NUMBER>  (1) 
125313-65-7

>  <UNII>  (1) 
Y6197FQK8I

$$$$
