
     RDKit          3D

 18 19  0  0  0  0  0  0  0  0999 V2000
    1.0389    0.0421   -0.0609 C   0  0  0  0  0  0  0  0  0  0  0  0
    0.4959   -0.4143   -1.4147 C   0  0  0  0  0  0  0  0  0  0  0  0
    0.9814   -1.8274   -1.7222 C   0  0  0  0  0  0  0  0  0  0  0  0
   -1.0387   -0.3547   -1.4450 C   0  0  0  0  0  0  0  0  0  0  0  0
   -1.5938    1.0368   -1.1458 C   0  0  0  0  0  0  0  0  0  0  0  0
   -1.1511    2.0259   -2.1235 N   0  0  0  0  0  0  0  0  0  0  0  0
   -2.0361    2.6621   -2.9784 C   0  0  0  0  0  0  0  0  0  0  0  0
   -3.1236    3.2790   -2.5116 C   0  0  0  0  0  0  0  0  0  0  0  0
   -4.0955    3.9626   -3.3654 C   0  0  0  0  0  0  0  0  0  0  0  0
   -5.1301    4.3992   -2.8899 O   0  0  0  0  0  0  0  0  0  0  0  0
   -3.7638    4.0981   -4.7915 C   0  0  0  0  0  0  0  0  0  0  0  0
   -4.5738    4.9037   -5.5994 C   0  0  0  0  0  0  0  0  0  0  0  0
   -4.2751    5.0493   -6.9526 C   0  0  0  0  0  0  0  0  0  0  0  0
   -3.1957    4.3596   -7.5054 C   0  0  0  0  0  0  0  0  0  0  0  0
   -2.3900    3.5503   -6.6989 C   0  0  0  0  0  0  0  0  0  0  0  0
   -2.6578    3.4402   -5.3286 C   0  0  0  0  0  0  0  0  0  0  0  0
   -1.7541    2.6516   -4.4583 C   0  0  0  0  0  0  0  0  0  0  0  0
   -0.8128    2.0201   -4.9259 O   0  0  0  0  0  0  0  0  0  0  0  0
  1  2  1  0
  2  3  1  0
  2  4  1  0
  4  5  1  0
  5  6  1  0
  6  7  1  0
  7  8  2  0
  7 17  1  0
  8  9  1  0
  9 10  2  0
  9 11  1  0
 11 12  1  0
 11 16  2  0
 12 13  2  0
 13 14  1  0
 14 15  2  0
 15 16  1  0
 16 17  1  0
 17 18  2  0
M  END
>  <DRUGBANK_ID>  (1) 
DB18112

>  <COMMON_NAME>  (1) 
NT-102

>  <CAS_NUMBER>  (1) 
1607447-79-9

>  <UNII>  (1) 
CL92X4LP4N

>  <SYNONYMS>  (1) 
2-[(3-Methylbutyl)amino]-1,4-naphthalenedione

$$$$
