LKG
     RDKit          3D

 23 26  0  0  0  0  0  0  0  0999 V2000
    0.1249    0.6421   -0.0263 N   0  0  0  0  0  0  0  0  0  0  0  0
    1.4973   -1.0854   -0.0359 N   0  0  0  0  0  0  0  0  0  0  0  0
   -3.4203    1.3224   -0.0302 C   0  0  0  0  0  0  0  0  0  0  0  0
   -4.2996    1.1099    1.0360 C   0  0  0  0  0  0  0  0  0  0  0  0
   -5.4856    1.8407    1.1068 C   0  0  0  0  0  0  0  0  0  0  0  0
   -2.1013    0.6513   -0.0386 C   0  0  0  0  0  0  0  0  0  0  0  0
   -2.1367   -0.8417   -0.0057 C   0  0  0  0  0  0  0  0  0  0  0  0
    0.2302   -0.7336   -0.0124 C   0  0  0  0  0  0  0  0  0  0  0  0
    2.6682    2.8951    1.2253 C   0  0  0  0  0  0  0  0  0  0  0  0
    4.7496    2.5932    2.4597 C   0  0  0  0  0  0  0  0  0  0  0  0
    3.1836    4.3056    3.1309 C   0  0  0  0  0  0  0  0  0  0  0  0
    3.9008    2.2445    1.4106 C   0  0  0  0  0  0  0  0  0  0  0  0
    4.3833    3.6265    3.3111 C   0  0  0  0  0  0  0  0  0  0  0  0
    5.1783    4.0000    4.3539 O   0  0  0  0  0  0  0  0  0  0  0  0
    2.3068    3.9163    2.1146 C   0  0  0  0  0  0  0  0  0  0  0  0
    1.7913    2.5399    0.0401 C   0  0  0  0  0  0  0  0  0  0  0  0
    1.4194    1.0998   -0.0082 C   0  0  0  0  0  0  0  0  0  0  0  0
   -1.0256    1.3815   -0.0593 N   0  0  0  0  0  0  0  0  0  0  0  0
    2.2431    0.0658   -0.0599 N   0  0  0  0  0  0  0  0  0  0  0  0
   -0.9581   -1.4846    0.0042 C   0  0  0  0  0  0  0  0  0  0  0  0
   -3.7252    2.2528   -1.0281 C   0  0  0  0  0  0  0  0  0  0  0  0
   -4.8979    3.0033   -0.9333 C   0  0  0  0  0  0  0  0  0  0  0  0
   -5.7815    2.7887    0.1260 C   0  0  0  0  0  0  0  0  0  0  0  0
  1  8  1  0
  1 17  1  0
  1 18  1  0
  2  8  2  0
  2 19  1  0
  3  4  2  0
  3  6  1  0
  3 21  1  0
  4  5  1  0
  5 23  2  0
  6  7  1  0
  6 18  2  0
  7 20  2  0
  8 20  1  0
  9 12  1  0
  9 15  2  0
  9 16  1  0
 10 12  2  0
 10 13  1  0
 11 13  2  0
 11 15  1  0
 13 14  1  0
 16 17  1  0
 17 19  2  0
 21 22  2  0
 22 23  1  0
M  END
>  <DRUGBANK_ID>  (1) 
DB08111

>  <COMMON_NAME>  (1) 
4-[(6-phenyl[1,2,4]triazolo[4,3-b]pyridazin-3-yl)methyl]phenol

>  <UNII>  (1) 
S85YZ8U3Z6

$$$$
