XAO
     RDKit          3D

 17 17  0  0  0  0  0  0  0  0999 V2000
    1.0004   -0.0232   -0.1152 C   0  0  2  0  0  0  0  0  0  0  0  0
    0.6678   -1.0292   -1.1356 N   0  0  0  0  0  0  0  0  0  0  0  0
    0.4917   -0.4976    1.2972 C   0  0  1  0  0  0  0  0  0  0  0  0
    1.2799    0.0910    2.3431 O   0  0  0  0  0  0  0  0  0  0  0  0
   -1.0636   -0.3616    1.4807 C   0  0  1  0  0  0  0  0  0  0  0  0
   -1.7324   -1.3880    0.7196 O   0  0  0  0  0  0  0  0  0  0  0  0
   -1.6174   -0.4869    2.9090 C   0  0  0  0  0  0  0  0  0  0  0  0
   -1.3114    0.6741    3.8660 C   0  0  0  0  0  0  0  0  0  0  0  0
   -2.0768    1.9421    3.4916 C   0  0  0  0  0  0  0  0  0  0  0  0
   -1.7019    0.3495    5.2979 C   0  0  0  0  0  0  0  0  0  0  0  0
    0.5351    1.3805   -0.6150 C   0  0  0  0  0  0  0  0  0  0  0  0
    0.9927    2.5962    0.2381 C   0  0  0  0  0  0  0  0  0  0  0  0
    0.1346    2.7221    1.4771 C   0  0  0  0  0  0  0  0  0  0  0  0
    0.8014    3.9347   -0.5013 C   0  0  0  0  0  0  0  0  0  0  0  0
    0.5218    3.8319    2.4260 C   0  0  0  0  0  0  0  0  0  0  0  0
    1.0625    5.1497    0.4155 C   0  0  0  0  0  0  0  0  0  0  0  0
    0.2490    5.1288    1.7091 C   0  0  0  0  0  0  0  0  0  0  0  0
  1  2  1  6
  1  3  1  0
  1 11  1  0
  3  4  1  1
  3  5  1  0
  5  6  1  6
  5  7  1  0
  7  8  1  0
  8  9  1  0
  8 10  1  0
 11 12  1  0
 12 13  1  0
 12 14  1  0
 13 15  1  0
 14 16  1  0
 15 17  1  0
 16 17  1  0
M  END
>  <DRUGBANK_ID>  (1) 
DB08740

>  <COMMON_NAME>  (1) 
CYCLOHEXYLMETHYL-2,3-DIHYDROXY-5-METHYL-HEXYLAMIDE

$$$$
