
     RDKit          3D

 20 21  0  0  0  0  0  0  0  0999 V2000
    0.6441   -0.1326   -0.1726 C   0  0  0  0  0  0  0  0  0  0  0  0
    0.4829    1.7492   -1.8784 C   0  0  0  0  0  0  0  0  0  0  0  0
   -1.3773    1.3748   -0.2515 C   0  0  0  0  0  0  0  0  0  0  0  0
    1.8034    5.5982    4.0468 C   0  0  0  0  0  0  0  0  0  0  0  0
    2.6692    0.8412    3.1864 C   0  0  0  0  0  0  0  0  0  0  0  0
    1.9158    4.3155    4.5740 C   0  0  0  0  0  0  0  0  0  0  0  0
    2.5586    1.8811    4.3042 C   0  0  0  0  0  0  0  0  0  0  0  0
    2.1652    5.8756    2.7305 C   0  0  0  0  0  0  0  0  0  0  0  0
    3.9964    0.9898    2.4370 C   0  0  0  0  0  0  0  0  0  0  0  0
    2.1392    2.2612    0.3785 C   0  0  0  0  0  0  0  0  0  0  0  0
    2.5272    4.5805   -0.4152 C   0  0  0  0  0  0  0  0  0  0  0  0
    2.5771    3.3218    3.8356 C   0  0  0  0  0  0  0  0  0  0  0  0
    2.9336    3.1333   -0.5937 C   0  0  0  0  0  0  0  0  0  0  0  0
    2.8636    4.9038    1.9922 C   0  0  0  0  0  0  0  0  0  0  0  0
    3.2777    3.7427    2.7028 C   0  0  0  0  0  0  0  0  0  0  0  0
    0.1247    1.2911   -0.4693 C   0  0  0  0  0  0  0  0  0  0  0  0
    0.6991    2.2179    0.4709 N   0  0  0  0  0  0  0  0  0  0  0  0
    4.3550    2.9942   -0.5198 O   0  0  0  0  0  0  0  0  0  0  0  0
    3.2030    5.2374    0.7006 O   0  0  0  0  0  0  0  0  0  0  0  0
    4.6987    2.7050    2.2796 S   0  0  0  0  0  0  0  0  0  0  0  0
  6  4  2  0
  7  5  1  0
  8  4  1  0
  9  5  1  0
 12  6  1  0
 12  7  1  0
 13 10  1  0
 13 11  1  0
 14  8  2  0
 15 12  2  0
 15 14  1  0
 16  1  1  0
 16  2  1  0
 16  3  1  0
 17 10  1  0
 17 16  1  0
 18 13  1  0
 19 11  1  0
 19 14  1  0
 20  9  1  0
 20 15  1  0
M  END
>  <DRUGBANK_ID>  (1) 
DB13775

>  <COMMON_NAME>  (1) 
Tertatolol

>  <CAS_NUMBER>  (1) 
83688-84-0

>  <UNII>  (1) 
9ZO341YQXP

>  <SYNONYMS>  (1) 
Tertatolol

$$$$
