
     RDKit          3D

 24 27  0  0  1  0  0  0  0  0999 V2000
    1.5751    1.3673    1.0436 C   0  0  0  0  0  0  0  0  0  0  0  0
   -0.7782    3.2635   -2.1273 C   0  0  0  0  0  0  0  0  0  0  0  0
    5.1067    0.2273   -0.6758 C   0  0  0  0  0  0  0  0  0  0  0  0
    4.4590    0.0953    1.7107 C   0  0  0  0  0  0  0  0  0  0  0  0
    5.1468    2.8931   -0.3246 C   0  0  0  0  0  0  0  0  0  0  0  0
    4.5007    2.7401    1.7145 C   0  0  0  0  0  0  0  0  0  0  0  0
    1.6975    0.4577   -0.1739 C   0  0  2  0  0  0  0  0  0  0  0  0
   -1.6013    2.0613   -1.6689 C   0  0  2  0  0  0  0  0  0  0  0  0
    4.6679   -0.7656    0.4563 C   0  0  0  0  0  0  0  0  0  0  0  0
   -0.8664    1.3527   -0.5453 C   0  0  2  0  0  0  0  0  0  0  0  0
    0.3886    0.5320   -0.9419 C   0  0  2  0  0  0  0  0  0  0  0  0
    0.5308   -1.5577    0.0928 C   0  0  0  0  0  0  0  0  0  0  0  0
    1.7756   -1.0176    0.1313 C   0  0  0  0  0  0  0  0  0  0  0  0
   -1.4105    0.0233   -0.0012 C   0  0  0  0  0  0  0  0  0  0  0  0
    0.0880   -3.0356    0.4983 C   0  0  0  0  0  0  0  0  0  0  0  0
    4.7986    3.6874    0.7575 N   0  0  0  0  0  0  0  0  0  0  0  0
    5.0178    1.5345   -0.0307 N   0  0  0  0  0  0  0  0  0  0  0  0
    4.6696    1.4503    1.2306 N   0  0  0  0  0  0  0  0  0  0  0  0
   -0.3523   -0.6633   -0.5266 N   0  0  0  0  0  0  0  0  0  0  0  0
   -1.8288    1.2165   -2.7904 O   0  0  0  0  0  0  0  0  0  0  0  0
   -2.3324   -0.2233    0.7569 O   0  0  0  0  0  0  0  0  0  0  0  0
   -1.1221   -3.3172    0.2807 O   0  0  0  0  0  0  0  0  0  0  0  0
    0.9950   -3.7536    1.0110 O   0  0  0  0  0  0  0  0  0  0  0  0
    3.2684   -1.8989    0.1903 S   0  0  0  0  0  0  0  0  0  0  0  0
  7  1  1  1
  8  2  1  6
  8 20  1  0
  9  3  1  0
  9  4  1  0
 10  8  1  0
 11  7  1  0
 11 10  1  0
 13  7  1  0
 13 12  2  0
 10 14  1  6
 15 12  1  0
 16  5  2  0
 16  6  1  0
 17  3  1  0
 17  5  1  0
 18  4  1  0
 18  6  2  0
 18 17  1  0
 11 19  1  1
 19 12  1  0
 19 14  1  0
 21 14  2  0
 22 15  2  0
 23 15  1  0
 24  9  1  0
 24 13  1  0
M  CHG  2  18   1  23  -1
M  END
>  <DRUGBANK_ID>  (1) 
DB13028

>  <COMMON_NAME>  (1) 
Biapenem

>  <CAS_NUMBER>  (1) 
120410-24-4

>  <UNII>  (1) 
YR5U3L9ZH1

>  <SYNONYMS>  (1) 
Biapenem

$$$$
