387
     RDKit          3D

 21 23  0  0  1  0  0  0  0  0999 V2000
    0.9808    0.0585   -0.0546 O   0  0  0  0  0  0  0  0  0  0  0  0
   -0.9048   -0.7046    2.9398 N   0  0  0  0  0  0  0  0  0  0  0  0
    1.0347   -2.2402   -0.8379 C   0  0  0  0  0  0  0  0  0  0  0  0
    0.4692   -1.2543    0.2603 C   0  0  0  0  0  0  0  0  0  0  0  0
    0.5862   -3.6955   -0.6135 C   0  0  0  0  0  0  0  0  0  0  0  0
    2.5738   -2.2050   -0.9866 C   0  0  0  0  0  0  0  0  0  0  0  0
    0.9819   -1.6427    1.6855 C   0  0  0  0  0  0  0  0  0  0  0  0
    1.1016   -4.7052   -1.5991 C   0  0  0  0  0  0  0  0  0  0  0  0
    3.0659   -3.2354   -2.0067 C   0  0  0  0  0  0  0  0  0  0  0  0
    2.6045   -4.6485   -1.6694 C   0  0  0  0  0  0  0  0  0  0  0  0
    0.5428   -0.7057    2.8130 C   0  0  0  0  0  0  0  0  0  0  0  0
   -1.0783   -1.2119    0.2041 C   0  0  0  0  0  0  0  0  0  0  0  0
   -1.4458    0.5342    3.4730 C   0  0  0  0  0  0  0  0  0  0  0  0
   -1.4589   -1.8186    3.7056 C   0  0  0  0  0  0  0  0  0  0  0  0
   -1.4721    0.2419    4.9488 C   0  0  0  0  0  0  0  0  0  0  0  0
   -1.9715   -1.1941    4.9907 C   0  0  0  0  0  0  0  0  0  0  0  0
   -1.8488   -2.3653    0.4533 C   0  0  0  0  0  0  0  0  0  0  0  0
   -1.7936   -0.0027    0.1382 C   0  0  0  0  0  0  0  0  0  0  0  0
   -3.2345   -2.3824    0.4768 C   0  0  0  0  0  0  0  0  0  0  0  0
   -3.1811    0.0105    0.3418 C   0  0  0  0  0  0  0  0  0  0  0  0
   -3.9082   -1.1714    0.4602 C   0  0  0  0  0  0  0  0  0  0  0  0
  1  4  1  0
  2 11  1  0
  2 13  1  0
  2 14  1  0
  3  4  1  0
  3  5  1  0
  3  6  1  0
  4  7  1  0
  4 12  1  0
  5  8  1  0
  6  9  1  0
  7 11  1  0
  8 10  1  0
  9 10  1  0
 12 17  2  0
 12 18  1  0
 13 15  1  0
 14 16  1  0
 15 16  1  0
 17 19  1  0
 18 20  2  0
 19 21  2  0
 20 21  1  0
M  END
>  <DRUGBANK_ID>  (1) 
DB00387

>  <SECONDARY_ACCESSION_NUMBERS>  (1) 
APRD00383

>  <COMMON_NAME>  (1) 
Procyclidine

>  <CAS_NUMBER>  (1) 
77-37-2

>  <UNII>  (1) 
C6QE1Q1TKR

>  <SYNONYMS>  (1) 
1-cyclohexyl-1-phenyl-3-pyrrolidin-1-yl-propan-1-ol hydrochloride; 1-Cyclohexyl-1-phenyl-3-pyrrolidino-1-propanol; Prociclidina; Procyclidin; Procyclidine; Procyclidinum; Tricyclamol

$$$$
