
     RDKit          3D

 29 31  0  0  0  0  0  0  0  0999 V2000
    1.0221   -0.1455    0.0261 Cl  0  0  0  0  0  0  0  0  0  0  0  0
    9.0878   -0.5433   -1.7909 O   0  0  0  0  0  0  0  0  0  0  0  0
    8.2598   -0.5564    1.3507 N   0  0  0  0  0  0  0  0  0  0  0  0
    3.4445   -0.0445   -1.3043 C   0  0  0  0  0  0  0  0  0  0  0  0
    4.9435   -0.2182   -1.4667 C   0  0  0  0  0  0  0  0  0  0  0  0
    2.7822   -0.0715   -0.1039 C   0  0  0  0  0  0  0  0  0  0  0  0
    2.6706    0.0551   -2.5793 C   0  0  0  0  0  0  0  0  0  0  0  0
    3.3945   -0.0906    1.2362 C   0  0  0  0  0  0  0  0  0  0  0  0
    5.5869   -1.3577   -0.9634 C   0  0  0  0  0  0  0  0  0  0  0  0
    5.6993    0.6366   -2.3013 C   0  0  0  0  0  0  0  0  0  0  0  0
    1.6506    0.9945   -2.7654 C   0  0  0  0  0  0  0  0  0  0  0  0
    3.0828   -0.7201   -3.6777 C   0  0  0  0  0  0  0  0  0  0  0  0
    7.7161   -0.7345   -1.9997 C   0  0  0  0  0  0  0  0  0  0  0  0
    6.9446   -1.6386   -1.2505 C   0  0  0  0  0  0  0  0  0  0  0  0
    7.0616    0.3713   -2.5893 C   0  0  0  0  0  0  0  0  0  0  0  0
    3.0615   -1.0594    2.1946 C   0  0  0  0  0  0  0  0  0  0  0  0
    4.3351    0.8848    1.5851 C   0  0  0  0  0  0  0  0  0  0  0  0
    1.0105    1.1074   -3.9940 C   0  0  0  0  0  0  0  0  0  0  0  0
    2.5111   -0.5352   -4.9302 C   0  0  0  0  0  0  0  0  0  0  0  0
    3.7489   -1.1688    3.3985 C   0  0  0  0  0  0  0  0  0  0  0  0
    5.0008    0.7865    2.7994 C   0  0  0  0  0  0  0  0  0  0  0  0
    1.4521    0.3544   -5.0791 C   0  0  0  0  0  0  0  0  0  0  0  0
    4.7579   -0.2508    3.6877 C   0  0  0  0  0  0  0  0  0  0  0  0
    9.7715   -1.1670   -0.6605 C   0  0  0  0  0  0  0  0  0  0  0  0
    9.6165   -0.6472    0.8322 C   0  0  0  0  0  0  0  0  0  0  0  0
    8.0758   -0.5426    2.7853 C   0  0  0  0  0  0  0  0  0  0  0  0
    7.4937    0.4954    0.7057 C   0  0  0  0  0  0  0  0  0  0  0  0
    8.3944    0.8193    3.3740 C   0  0  0  0  0  0  0  0  0  0  0  0
    7.7669    1.9717    0.5315 C   0  0  0  0  0  0  0  0  0  0  0  0
  1  6  1  0
  2 13  1  0
  2 24  1  0
  3 25  1  0
  3 26  1  0
  3 27  1  0
  4  5  1  0
  4  6  2  0
  4  7  1  0
  5  9  2  0
  5 10  1  0
  6  8  1  0
  7 11  2  0
  7 12  1  0
  8 16  2  0
  8 17  1  0
  9 14  1  0
 10 15  2  0
 11 18  1  0
 12 19  2  0
 13 14  2  0
 13 15  1  0
 16 20  1  0
 17 21  2  0
 18 22  2  0
 19 22  1  0
 20 23  2  0
 21 23  1  0
 24 25  1  0
 26 28  1  0
 27 29  1  0
M  END
>  <DRUGBANK_ID>  (1) 
DB06735

>  <COMMON_NAME>  (1) 
Enclomiphene

>  <CAS_NUMBER>  (1) 
15690-57-0

>  <UNII>  (1) 
R6D2UI4FLS

>  <SYNONYMS>  (1) 
Enclomifene; Enclomifeno; Enclomifenum; Enclomiphene; trans-Clomifene; trans-Clomiphene

$$$$
