
     RDKit          3D

 10 10  0  0  1  0  0  0  0  0999 V2000
   -2.5207    0.0390    0.0781 C   0  0  0  0  0  0  0  0  0  0  0  0
   -1.0522   -0.0065   -0.3250 C   0  0  2  0  0  0  0  0  0  0  0  0
   -0.3631   -1.2787    0.1832 C   0  0  0  0  0  0  0  0  0  0  0  0
    1.1168   -1.2785   -0.2089 C   0  0  0  0  0  0  0  0  0  0  0  0
    1.8219    0.0102    0.2254 C   0  0  0  0  0  0  0  0  0  0  0  0
    1.0796    1.1968   -0.2168 N   0  0  0  0  0  0  0  0  0  0  0  0
   -0.3144    1.2215    0.2140 C   0  0  0  0  0  0  0  0  0  0  0  0
    1.7193    2.1682   -0.9691 C   0  0  0  0  0  0  0  0  0  0  0  0
    0.9549    3.3907   -1.4329 C   0  0  0  0  0  0  0  0  0  0  0  0
    2.9099    2.0707   -1.2857 O   0  0  0  0  0  0  0  0  0  0  0  0
  2  1  1  1
  2  3  1  0
  2  7  1  0
  3  4  1  0
  4  5  1  0
  5  6  1  0
  6  7  1  0
  6  8  1  0
  8  9  1  0
  8 10  2  0
M  END
>  <DRUGBANK_ID>  (1) 
DB01742

>  <SECONDARY_ACCESSION_NUMBERS>  (1) 
EXPT00079

>  <COMMON_NAME>  (1) 
(3r)-1-Acetyl-3-Methylpiperidine

$$$$
