
     RDKit          3D

 15 14  0  0  0  0  0  0  0  0999 V2000
    0.8999   -0.1363    0.1264 C   0  0  0  0  0  0  0  0  0  0  0  0
    0.2434    1.0369    0.6340 O   0  0  0  0  0  0  0  0  0  0  0  0
    0.8498    1.6401    1.6874 C   0  0  0  0  0  0  0  0  0  0  0  0
    1.7238    1.1294    2.3836 O   0  0  0  0  0  0  0  0  0  0  0  0
    0.3341    3.0463    1.8805 C   0  0  0  0  0  0  0  0  0  0  0  0
    0.9143    4.0638    0.9048 C   0  0  0  0  0  0  0  0  0  0  0  0
    0.4713    3.9568   -0.5377 C   0  0  0  0  0  0  0  0  0  0  0  0
   -0.3062    4.7809   -1.0074 O   0  0  0  0  0  0  0  0  0  0  0  0
    1.1992    2.7120   -1.5255 S   0  0  0  0  0  0  0  0  0  0  0  0
    0.0079    2.3262   -2.8632 C   0  0  0  0  0  0  0  0  0  0  0  0
   -1.5221    2.2679   -2.6712 C   0  0  0  0  0  0  0  0  0  0  0  0
   -2.1214    3.4779   -2.1498 N   0  0  0  0  0  0  0  0  0  0  0  0
   -2.7695    4.4049   -2.9280 C   0  0  0  0  0  0  0  0  0  0  0  0
   -3.0624    5.7171   -2.2323 C   0  0  0  0  0  0  0  0  0  0  0  0
   -3.1087    4.1964   -4.0879 O   0  0  0  0  0  0  0  0  0  0  0  0
  1  2  1  0
  2  3  1  0
  3  4  2  0
  3  5  1  0
  5  6  1  0
  6  7  1  0
  7  8  2  0
  7  9  1  0
  9 10  1  0
 10 11  1  0
 11 12  1  0
 12 13  1  0
 13 14  1  0
 13 15  2  0
M  END
>  <DRUGBANK_ID>  (1) 
DB18392

>  <COMMON_NAME>  (1) 
NV-354

>  <CAS_NUMBER>  (1) 
866465-21-6

>  <UNII>  (1) 
4GF65YYK2S

>  <SYNONYMS>  (1) 
Butanoic acid, 4-[[2-(acetylamino)ethyl]thio]-4-oxo-, methyl ester; Methyl 4-{[2-(acetamino)ethyl]sulfanyl}-4-oxobutanoate

$$$$
