734
     RDKit          3D

 30 34  0  0  0  0  0  0  0  0999 V2000
   -3.1037   -0.8167    0.0452 F   0  0  0  0  0  0  0  0  0  0  0  0
    1.7202   -1.2843    0.0499 O   0  0  0  0  0  0  0  0  0  0  0  0
    0.3986    3.9448   -1.3539 O   0  0  0  0  0  0  0  0  0  0  0  0
    3.8243    4.6677   -1.3477 N   0  0  0  0  0  0  0  0  0  0  0  0
   -0.0727    4.9827    0.7018 N   0  0  0  0  0  0  0  0  0  0  0  0
    2.7269   -0.3404    0.0717 N   0  0  0  0  0  0  0  0  0  0  0  0
    0.0118    7.3142    0.6689 N   0  0  0  0  0  0  0  0  0  0  0  0
    3.1445    2.0630    0.0479 C   0  0  0  0  0  0  0  0  0  0  0  0
    3.3498    3.3765    0.8265 C   0  0  0  0  0  0  0  0  0  0  0  0
    3.8342    2.1700   -1.3139 C   0  0  0  0  0  0  0  0  0  0  0  0
    3.2943    4.6560    0.0088 C   0  0  0  0  0  0  0  0  0  0  0  0
    3.4961    3.4435   -2.0841 C   0  0  0  0  0  0  0  0  0  0  0  0
    3.3528    5.8714   -2.0900 C   0  0  0  0  0  0  0  0  0  0  0  0
    2.1513    0.8879    0.0503 C   0  0  0  0  0  0  0  0  0  0  0  0
    1.8282    5.9867   -2.4369 C   0  0  0  0  0  0  0  0  0  0  0  0
    0.9089    6.1536   -1.2273 C   0  0  0  0  0  0  0  0  0  0  0  0
    0.7542    0.6965   -0.0733 C   0  0  0  0  0  0  0  0  0  0  0  0
   -0.4094    3.7697    1.4416 C   0  0  0  0  0  0  0  0  0  0  0  0
   -0.8214    3.8334    2.8947 C   0  0  0  0  0  0  0  0  0  0  0  0
   -0.3005    6.2019    1.2546 C   0  0  0  0  0  0  0  0  0  0  0  0
   -1.7139    5.0322    3.0494 C   0  0  0  0  0  0  0  0  0  0  0  0
   -0.9170    6.2610    2.6426 C   0  0  0  0  0  0  0  0  0  0  0  0
    0.3227    4.9224   -0.6470 C   0  0  0  0  0  0  0  0  0  0  0  0
    0.6557    7.2697   -0.5454 C   0  0  0  0  0  0  0  0  0  0  0  0
    0.5197   -0.6609    0.0015 C   0  0  0  0  0  0  0  0  0  0  0  0
   -0.3825    1.4580   -0.2520 C   0  0  0  0  0  0  0  0  0  0  0  0
    1.1020    8.5944   -1.0642 C   0  0  0  0  0  0  0  0  0  0  0  0
   -0.7605   -1.2344    0.0032 C   0  0  0  0  0  0  0  0  0  0  0  0
   -1.6770    0.9976   -0.1304 C   0  0  0  0  0  0  0  0  0  0  0  0
   -1.8508   -0.3539   -0.0140 C   0  0  0  0  0  0  0  0  0  0  0  0
  1 30  1  0
  2  6  1  0
  2 25  1  0
  3 23  2  0
  4 11  1  0
  4 12  1  0
  4 13  1  0
  5 18  1  0
  5 20  1  0
  5 23  1  0
  6 14  2  0
  7 20  2  0
  7 24  1  0
  8  9  1  0
  8 10  1  0
  8 14  1  0
  9 11  1  0
 10 12  1  0
 13 15  1  0
 14 17  1  0
 15 16  1  0
 16 23  1  0
 16 24  2  0
 17 25  2  0
 17 26  1  0
 18 19  1  0
 19 21  1  0
 20 22  1  0
 21 22  1  0
 24 27  1  0
 25 28  1  0
 26 29  2  0
 28 30  2  0
 29 30  1  0
M  END
>  <DRUGBANK_ID>  (1) 
DB00734

>  <SECONDARY_ACCESSION_NUMBERS>  (1) 
APRD00187

>  <COMMON_NAME>  (1) 
Risperidone

>  <CAS_NUMBER>  (1) 
106266-06-2

>  <UNII>  (1) 
L6UH7ZF8HC

>  <SYNONYMS>  (1) 
Risperidona; Risperidone; Risp√©ridone; Risperidonum

$$$$
