561
     RDKit          3D

 28 31  0  0  1  0  0  0  0  0999 V2000
    1.9647   -0.1598    0.0832 O   0  0  0  0  0  0  0  0  0  0  0  0
   -2.6765    6.1261   -1.8101 O   0  0  0  0  0  0  0  0  0  0  0  0
   -0.1219   -1.1490    0.0096 N   0  0  0  0  0  0  0  0  0  0  0  0
   -2.8197    3.1917   -1.5640 N   0  0  0  0  0  0  0  0  0  0  0  0
   -1.4895    0.7228   -0.2632 C   0  0  0  0  0  0  0  0  0  0  0  0
   -0.0754    1.2009    0.3345 C   0  0  0  0  0  0  0  0  0  0  0  0
   -1.5136   -0.7683    0.0702 C   0  0  0  0  0  0  0  0  0  0  0  0
   -2.8116    1.4471    0.0927 C   0  0  0  0  0  0  0  0  0  0  0  0
    0.7571   -0.0846    0.1375 C   0  0  0  0  0  0  0  0  0  0  0  0
   -0.0913    1.5509    1.8481 C   0  0  0  0  0  0  0  0  0  0  0  0
    0.6479    2.2801   -0.5479 C   0  0  0  0  0  0  0  0  0  0  0  0
   -2.7354    2.9461   -0.1189 C   0  0  0  0  0  0  0  0  0  0  0  0
    0.3539   -2.5112   -0.0037 C   0  0  0  0  0  0  0  0  0  0  0  0
    1.0989    1.9533    2.4616 C   0  0  0  0  0  0  0  0  0  0  0  0
    0.8072    2.0607   -1.9435 C   0  0  0  0  0  0  0  0  0  0  0  0
   -1.2402    1.6281    2.6438 C   0  0  0  0  0  0  0  0  0  0  0  0
    1.0267    3.5510   -0.0493 C   0  0  0  0  0  0  0  0  0  0  0  0
   -1.6698    3.9624   -2.0301 C   0  0  0  0  0  0  0  0  0  0  0  0
   -3.9727    4.0114   -1.9151 C   0  0  0  0  0  0  0  0  0  0  0  0
   -0.0697   -3.2522    1.2456 C   0  0  0  0  0  0  0  0  0  0  0  0
   -1.5228    5.3717   -1.4685 C   0  0  0  0  0  0  0  0  0  0  0  0
   -3.8439    5.4386   -1.3416 C   0  0  0  0  0  0  0  0  0  0  0  0
    1.0821    2.6167    3.6874 C   0  0  0  0  0  0  0  0  0  0  0  0
    1.2074    3.1060   -2.7940 C   0  0  0  0  0  0  0  0  0  0  0  0
   -1.3007    2.4067    3.7921 C   0  0  0  0  0  0  0  0  0  0  0  0
    1.4682    4.5718   -0.8929 C   0  0  0  0  0  0  0  0  0  0  0  0
   -0.1226    2.8769    4.3342 C   0  0  0  0  0  0  0  0  0  0  0  0
    1.5423    4.3554   -2.2664 C   0  0  0  0  0  0  0  0  0  0  0  0
  1  9  2  0
  2 21  1  0
  2 22  1  0
  3  7  1  0
  3  9  1  0
  3 13  1  0
  4 12  1  0
  4 18  1  0
  4 19  1  0
  5  6  1  0
  5  7  1  0
  5  8  1  0
  6  9  1  0
  6 10  1  0
  6 11  1  0
  8 12  1  0
 10 14  2  0
 10 16  1  0
 11 15  2  0
 11 17  1  0
 13 20  1  0
 14 23  1  0
 15 24  1  0
 16 25  2  0
 17 26  2  0
 18 21  1  0
 19 22  1  0
 23 27  2  0
 24 28  2  0
 25 27  1  0
 26 28  1  0
M  END
>  <DRUGBANK_ID>  (1) 
DB00561

>  <SECONDARY_ACCESSION_NUMBERS>  (1) 
APRD00935

>  <COMMON_NAME>  (1) 
Doxapram

>  <CAS_NUMBER>  (1) 
309-29-5

>  <UNII>  (1) 
94F3830Q73

>  <SYNONYMS>  (1) 
(Â±)-doxapram; 1-ethyl-4-(2-morpholinoethyl)-3,3-diphenyl-2-pyrrolidinone; Doxapram; Doxapramum

$$$$
