
     RDKit          3D

 31 35  0  0  1  0  0  0  0  0999 V2000
    2.0929    1.0065    0.0056 C   0  0  0  0  0  0  0  0  0  0  0  0
    0.8298    1.5542    0.0890 C   0  0  0  0  0  0  0  0  0  0  0  0
   -0.2127    0.6331    0.2640 C   0  0  0  0  0  0  0  0  0  0  0  0
   -0.0452   -0.7240    0.4789 C   0  0  0  0  0  0  0  0  0  0  0  0
    1.2719   -1.2649    0.4652 C   0  0  0  0  0  0  0  0  0  0  0  0
    2.2788   -0.3570    0.1183 C   0  0  0  0  0  0  0  0  0  0  0  0
    1.4944   -2.5842    0.6879 O   0  0  0  0  0  0  0  0  0  0  0  0
    2.5911   -3.3897    0.2030 C   0  0  2  0  0  0  0  0  0  0  0  0
    3.7337   -3.4026    1.1727 C   0  0  0  0  0  0  0  0  0  0  0  0
    4.6963   -2.4098    0.5783 C   0  0  0  0  0  0  0  0  0  0  0  0
    4.4711   -2.3771   -0.8437 O   0  0  0  0  0  0  0  0  0  0  0  0
    3.2424   -3.0682   -1.1397 C   0  0  0  0  0  0  0  0  0  0  0  0
   -1.3906   -1.2089    0.4308 C   0  0  0  0  0  0  0  0  0  0  0  0
   -2.2797   -0.2098    0.2999 N   0  0  0  0  0  0  0  0  0  0  0  0
   -1.5317    0.9450    0.1820 O   0  0  0  0  0  0  0  0  0  0  0  0
   -1.9368   -2.4348    0.2611 O   0  0  0  0  0  0  0  0  0  0  0  0
   -1.0560   -3.5125   -0.0682 C   0  0  0  0  0  0  0  0  0  0  0  0
   -0.2181   -3.4713   -1.4205 C   0  0  0  0  0  0  0  0  0  0  0  0
   -0.2384   -2.1912   -2.2631 C   0  0  0  0  0  0  0  0  0  0  0  0
   -1.6319   -1.9652   -2.7738 C   0  0  0  0  0  0  0  0  0  0  0  0
   -2.0235   -3.0488   -3.6725 N   0  0  0  0  0  0  0  0  0  0  0  0
   -1.7927   -4.3720   -3.0864 C   0  0  0  0  0  0  0  0  0  0  0  0
   -0.4703   -4.6185   -2.4091 C   0  0  0  0  0  0  0  0  0  0  0  0
   -3.4460   -2.8341   -4.0494 C   0  0  0  0  0  0  0  0  0  0  0  0
   -4.5556   -2.8620   -2.9219 C   0  0  0  0  0  0  0  0  0  0  0  0
   -4.5956   -4.1946   -2.1561 C   0  0  0  0  0  0  0  0  0  0  0  0
   -5.7418   -4.3481   -1.2031 C   0  0  0  0  0  0  0  0  0  0  0  0
   -6.9601   -4.1061   -1.8687 O   0  0  0  0  0  0  0  0  0  0  0  0
   -6.9975   -2.7997   -2.4449 C   0  0  0  0  0  0  0  0  0  0  0  0
   -5.9336   -2.6269   -3.5302 C   0  0  0  0  0  0  0  0  0  0  0  0
   -4.3639   -1.7345   -2.0553 O   0  0  0  0  0  0  0  0  0  0  0  0
  1  2  2  0
  1  6  1  0
  2  3  1  0
  3  4  2  0
  3 15  1  0
  4  5  1  0
  4 13  1  0
  5  6  2  0
  5  7  1  0
  8  7  1  1
  8  9  1  0
  8 12  1  0
  9 10  1  0
 10 11  1  0
 11 12  1  0
 13 14  2  0
 13 16  1  0
 14 15  1  0
 16 17  1  0
 17 18  1  0
 18 19  1  0
 18 23  1  0
 19 20  1  0
 20 21  1  0
 21 22  1  0
 21 24  1  0
 22 23  1  0
 24 25  1  0
 25 26  1  0
 25 30  1  0
 25 31  1  0
 26 27  1  0
 27 28  1  0
 28 29  1  0
 29 30  1  0
M  END
>  <DRUGBANK_ID>  (1) 
DB12675

>  <COMMON_NAME>  (1) 
PF-04995274

>  <CAS_NUMBER>  (1) 
1331782-27-4

>  <UNII>  (1) 
XI179PG9LV

$$$$
