
     RDKit          3D

 20 21  0  0  0  0  0  0  0  0999 V2000
   -0.7414   -0.8795    1.0110 C   0  0  0  0  0  0  0  0  0  0  0  0
    0.4084   -1.6649    0.8707 C   0  0  0  0  0  0  0  0  0  0  0  0
    1.5942   -1.2057    0.3368 C   0  0  0  0  0  0  0  0  0  0  0  0
    1.6695    0.1678    0.1168 C   0  0  0  0  0  0  0  0  0  0  0  0
    0.5111    0.9533    0.1882 C   0  0  0  0  0  0  0  0  0  0  0  0
   -0.6996    0.4391    0.5937 C   0  0  0  0  0  0  0  0  0  0  0  0
   -1.9927    1.5638    0.4713 Cl  0  0  0  0  0  0  0  0  0  0  0  0
    3.1037    1.0471   -0.2129 Cl  0  0  0  0  0  0  0  0  0  0  0  0
    2.6479   -2.2228    0.0185 C   0  0  0  0  0  0  0  0  0  0  0  0
    3.8003   -1.9162   -0.0257 O   0  0  0  0  0  0  0  0  0  0  0  0
    2.2773   -3.5982   -0.1740 N   0  0  0  0  0  0  0  0  0  0  0  0
    0.8874   -4.5438   -0.3865 S   0  0  0  0  0  0  0  0  0  0  0  0
    1.1330   -5.4543   -1.4806 O   0  0  0  0  0  0  0  0  0  0  0  0
    0.6483   -5.1115    0.9362 O   0  0  0  0  0  0  0  0  0  0  0  0
   -0.8570   -3.7545   -0.7850 C   0  0  0  0  0  0  0  0  0  0  0  0
   -2.0828   -4.2012   -0.2836 C   0  0  0  0  0  0  0  0  0  0  0  0
   -3.1450   -3.2733   -0.3911 C   0  0  0  0  0  0  0  0  0  0  0  0
   -2.7462   -2.1021   -0.9528 C   0  0  0  0  0  0  0  0  0  0  0  0
   -1.1772   -2.2653   -1.7007 S   0  0  0  0  0  0  0  0  0  0  0  0
   -3.9174   -0.6624   -0.5534 Br  0  0  0  0  0  0  0  0  0  0  0  0
  1  2  2  0
  1  6  1  0
  2  3  1  0
  3  4  2  0
  3  9  1  0
  4  5  1  0
  4  8  1  0
  5  6  2  0
  6  7  1  0
  9 10  2  0
  9 11  1  0
 11 12  1  0
 12 13  2  0
 12 14  2  0
 12 15  1  0
 15 16  2  0
 15 19  1  0
 16 17  1  0
 17 18  2  0
 18 19  1  0
 18 20  1  0
M  END
>  <DRUGBANK_ID>  (1) 
DB11941

>  <COMMON_NAME>  (1) 
Tasisulam

>  <CAS_NUMBER>  (1) 
519055-62-0

>  <UNII>  (1) 
1YC4W9MSLJ

>  <SYNONYMS>  (1) 
LY573636; Tasisulam

$$$$
