DPB
     RDKit          3D

 28 31  0  0  0  0  0  0  0  0999 V2000
   -5.5227   -1.3505   -0.1983 C   0  0  0  0  0  0  0  0  0  0  0  0
   -4.3460   -2.0935    0.0508 C   0  0  0  0  0  0  0  0  0  0  0  0
   -3.1052   -1.4625    0.0047 C   0  0  0  0  0  0  0  0  0  0  0  0
   -3.1647   -0.0694   -0.2205 C   0  0  0  0  0  0  0  0  0  0  0  0
   -4.2655    0.6107   -0.7129 C   0  0  0  0  0  0  0  0  0  0  0  0
   -5.4793   -0.0127   -0.6098 C   0  0  0  0  0  0  0  0  0  0  0  0
   -4.7260   -6.3119    2.4798 C   0  0  0  0  0  0  0  0  0  0  0  0
   -3.5988   -5.5520    2.8069 N   0  0  0  0  0  0  0  0  0  0  0  0
   -3.6339   -4.7238    3.9137 C   0  0  0  0  0  0  0  0  0  0  0  0
   -4.6543   -4.6563    4.7649 C   0  0  0  0  0  0  0  0  0  0  0  0
   -5.8935   -5.3775    4.4159 C   0  0  0  0  0  0  0  0  0  0  0  0
   -5.8611   -6.0150    3.2005 N   0  0  0  0  0  0  0  0  0  0  0  0
   -4.7589   -7.2118    1.6400 O   0  0  0  0  0  0  0  0  0  0  0  0
   -6.8562   -5.3931    5.1497 O   0  0  0  0  0  0  0  0  0  0  0  0
   -4.5886   -3.8952    6.0459 C   0  0  0  0  0  0  0  0  0  0  0  0
   -2.3315   -5.8346    2.1159 C   0  0  1  0  0  0  0  0  0  0  0  0
   -2.4724   -5.6027    0.6864 O   0  0  0  0  0  0  0  0  0  0  0  0
   -1.2032   -5.0974    0.2302 C   0  0  2  0  0  0  0  0  0  0  0  0
   -0.7875   -4.1428    1.3070 C   0  0  2  0  0  0  0  0  0  0  0  0
   -1.0868   -5.0083    2.5289 C   0  0  0  0  0  0  0  0  0  0  0  0
   -1.2220   -4.3707   -1.1008 C   0  0  0  0  0  0  0  0  0  0  0  0
   -1.7593   -3.0464   -1.1470 O   0  0  0  0  0  0  0  0  0  0  0  0
   -1.7268   -2.2326    0.0425 C   0  0  2  0  0  0  0  0  0  0  0  0
   -1.6078   -2.9586    1.3001 O   0  0  0  0  0  0  0  0  0  0  0  0
   -0.3487   -0.8240   -0.0183 P   0  0  0  0  0  0  0  0  0  0  0  0
   -0.7490    0.3056   -1.1216 O   0  0  0  0  0  0  0  0  0  0  0  0
   -0.0872   -0.1893    1.3152 O   0  0  0  0  0  0  0  0  0  0  0  0
    1.0224   -1.1008   -0.7917 O   0  0  0  0  0  0  0  0  0  0  0  0
  1  2  2  0
  1  6  1  0
  2  3  1  0
  3  4  2  0
  4  5  1  0
  5  6  2  0
  7  8  1  0
  7 12  1  0
  7 13  2  0
  8  9  1  0
  9 10  2  0
 10 11  1  0
 10 15  1  0
 11 12  1  0
 11 14  2  0
 16 17  1  0
 16 20  1  0
 16  8  1  1
 17 18  1  0
 18 19  1  0
 18 21  1  6
 19 20  1  1
 19 24  1  0
 21 22  1  0
 22 23  1  0
 23 24  1  0
 23 25  1  6
 23  3  1  0
 25 26  1  0
 25 27  2  0
 25 28  1  0
M  END
>  <DRUGBANK_ID>  (1) 
DB02217

>  <SECONDARY_ACCESSION_NUMBERS>  (1) 
EXPT01255

>  <COMMON_NAME>  (1) 
Dpb-T

$$$$
