
     RDKit          3D

 33 35  0  0  0  0  0  0  0  0999 V2000
   -2.5829   -0.3716   -0.0109 C   0  0  0  0  0  0  0  0  0  0  0  0
   -1.1148   -0.1402    0.0214 C   0  0  0  0  0  0  0  0  0  0  0  0
   -0.1136   -1.1007    0.0360 C   0  0  0  0  0  0  0  0  0  0  0  0
   -0.2646   -2.5912   -0.0148 C   0  0  0  0  0  0  0  0  0  0  0  0
    0.4501   -3.4555   -1.4672 S   0  0  0  0  0  0  0  0  0  0  0  0
   -0.3305   -2.6797   -2.8716 C   0  0  0  0  0  0  0  0  0  0  0  0
   -0.9633   -3.4117   -3.8690 C   0  0  0  0  0  0  0  0  0  0  0  0
   -1.4303   -2.7669   -5.0324 C   0  0  0  0  0  0  0  0  0  0  0  0
   -1.2711   -1.3743   -5.2311 C   0  0  0  0  0  0  0  0  0  0  0  0
   -1.7747   -0.9470   -6.4481 O   0  0  0  0  0  0  0  0  0  0  0  0
   -1.6757    0.4426   -6.7845 C   0  0  0  0  0  0  0  0  0  0  0  0
   -2.6093    1.2494   -5.8262 C   0  0  0  0  0  0  0  0  0  0  0  0
   -0.1709    0.7958   -7.0172 C   0  0  0  0  0  0  0  0  0  0  0  0
   -2.2747    0.8070   -8.1562 C   0  0  0  0  0  0  0  0  0  0  0  0
   -2.7950   -0.2237   -8.8477 O   0  0  0  0  0  0  0  0  0  0  0  0
   -2.2787    1.9581   -8.6000 O   0  0  0  0  0  0  0  0  0  0  0  0
   -0.6283   -0.6300   -4.2206 C   0  0  0  0  0  0  0  0  0  0  0  0
   -0.2838    0.8426   -4.1013 C   0  0  0  0  0  0  0  0  0  0  0  0
   -0.1662   -1.3200   -3.0883 C   0  0  0  0  0  0  0  0  0  0  0  0
    1.4202   -0.3166    0.1539 S   0  0  0  0  0  0  0  0  0  0  0  0
    0.6429    1.2182    0.0409 C   0  0  0  0  0  0  0  0  0  0  0  0
   -0.6706    1.1707   -0.0064 N   0  0  0  0  0  0  0  0  0  0  0  0
    1.4217    2.4553    0.0281 C   0  0  0  0  0  0  0  0  0  0  0  0
    2.3010    2.7621   -1.0216 C   0  0  0  0  0  0  0  0  0  0  0  0
    3.0259    3.9610   -1.0143 C   0  0  0  0  0  0  0  0  0  0  0  0
    2.8841    4.8785    0.0382 C   0  0  0  0  0  0  0  0  0  0  0  0
    1.9878    4.5815    1.0743 C   0  0  0  0  0  0  0  0  0  0  0  0
    1.2660    3.3877    1.0580 C   0  0  0  0  0  0  0  0  0  0  0  0
    0.4274    3.1436    2.0761 F   0  0  0  0  0  0  0  0  0  0  0  0
    3.6847    6.1575    0.0702 C   0  0  0  0  0  0  0  0  0  0  0  0
    2.8981    7.2667    0.1105 F   0  0  0  0  0  0  0  0  0  0  0  0
    4.4974    6.2304    1.1595 F   0  0  0  0  0  0  0  0  0  0  0  0
    4.4967    6.3125   -1.0122 F   0  0  0  0  0  0  0  0  0  0  0  0
  1  2  1  0
  2  3  2  0
  2 22  1  0
  3  4  1  0
  3 20  1  0
  4  5  1  0
  5  6  1  0
  6  7  2  0
  6 19  1  0
  7  8  1  0
  8  9  2  0
  9 10  1  0
  9 17  1  0
 10 11  1  0
 11 12  1  0
 11 13  1  0
 11 14  1  0
 14 15  1  0
 14 16  2  0
 17 18  1  0
 17 19  2  0
 20 21  1  0
 21 22  2  0
 21 23  1  0
 23 24  2  0
 23 28  1  0
 24 25  1  0
 25 26  2  0
 26 27  1  0
 26 30  1  0
 27 28  2  0
 28 29  1  0
 30 31  1  0
 30 32  1  0
 30 33  1  0
M  END
>  <DRUGBANK_ID>  (1) 
DB16332

>  <COMMON_NAME>  (1) 
Sodelglitazar

>  <CAS_NUMBER>  (1) 
447406-78-2

>  <UNII>  (1) 
6G973E04VI

>  <SYNONYMS>  (1) 
Sodelglitazar

$$$$
