
     RDKit          3D

 23 26  0  0  1  0  0  0  0  0999 V2000
   -1.4269    0.3300   -0.2385 C   0  0  0  0  0  0  0  0  0  0  0  0
   -1.0077   -1.0678    0.2095 C   0  0  0  0  0  0  0  0  0  0  0  0
   -0.4432    1.4117    0.2058 C   0  0  0  0  0  0  0  0  0  0  0  0
    3.1922   -6.2826    1.0012 C   0  0  0  0  0  0  0  0  0  0  0  0
    2.3552   -5.7964    1.9962 C   0  0  0  0  0  0  0  0  0  0  0  0
    4.3565   -5.5911    0.6715 C   0  0  0  0  0  0  0  0  0  0  0  0
    0.4373   -1.3752   -0.1853 C   0  0  0  0  0  0  0  0  0  0  0  0
    0.9942    1.0783   -0.1859 C   0  0  0  0  0  0  0  0  0  0  0  0
    2.6833   -4.6193    2.6628 C   0  0  0  0  0  0  0  0  0  0  0  0
    5.9485   -3.6653    0.9198 C   0  0  0  0  0  0  0  0  0  0  0  0
    6.4084   -2.6761    1.9891 C   0  0  0  0  0  0  0  0  0  0  0  0
    2.9270   -1.6957    3.3428 C   0  0  0  0  0  0  0  0  0  0  0  0
    3.9114    0.2065    2.1756 C   0  0  0  0  0  0  0  0  0  0  0  0
    4.6902   -4.3965    1.3281 C   0  0  0  0  0  0  0  0  0  0  0  0
    1.4222   -0.3006    0.3101 C   0  0  0  0  0  0  0  0  0  0  0  0
    3.8286   -3.8768    2.3176 C   0  0  0  0  0  0  0  0  0  0  0  0
    4.1669   -2.5858    3.0695 C   0  0  1  0  0  0  0  0  0  0  0  0
    5.2271   -0.5369    1.9920 C   0  0  0  0  0  0  0  0  0  0  0  0
    1.5481   -0.3577    1.8424 C   0  0  0  0  0  0  0  0  0  0  0  0
    2.7979   -0.7131    2.2887 N   0  0  0  0  0  0  0  0  0  0  0  0
    5.2861   -1.8567    2.4189 N   0  0  0  0  0  0  0  0  0  0  0  0
    6.2120    0.0623    1.5519 O   0  0  0  0  0  0  0  0  0  0  0  0
    0.5987   -0.2572    2.6173 O   0  0  0  0  0  0  0  0  0  0  0  0
  2  1  1  0
  3  1  1  0
  5  4  2  0
  6  4  1  0
  7  2  1  0
  8  3  1  0
  9  5  1  0
 11 10  1  0
 14  6  2  0
 14 10  1  0
 15  7  1  0
 15  8  1  0
 16  9  2  0
 16 14  1  0
 17 12  1  6
 17 16  1  0
 18 13  1  0
 19 15  1  0
 20 12  1  0
 20 13  1  0
 20 19  1  0
 21 11  1  0
 21 17  1  0
 21 18  1  0
 22 18  2  0
 23 19  2  0
M  END
>  <DRUGBANK_ID>  (1) 
DB11749

>  <COMMON_NAME>  (1) 
(R)-Praziquantel

>  <CAS_NUMBER>  (1) 
57452-98-9

>  <UNII>  (1) 
WF15T5925V

>  <SYNONYMS>  (1) 
(-)-praziquantel; (R)-(-)-praziquantel; L-praziquantel; L-PZQ

$$$$
