
     RDKit          3D

 26 29  0  0  0  0  0  0  0  0999 V2000
    1.4378   -0.2862    0.0064 C   0  0  0  0  0  0  0  0  0  0  0  0
   -4.3021    2.7670    3.2447 C   0  0  0  0  0  0  0  0  0  0  0  0
    0.5229   -1.3414    0.0123 C   0  0  0  0  0  0  0  0  0  0  0  0
    0.9814    1.0184   -0.0286 C   0  0  0  0  0  0  0  0  0  0  0  0
   -3.3534    3.3285    2.4102 C   0  0  0  0  0  0  0  0  0  0  0  0
   -4.8093    1.4927    2.9757 C   0  0  0  0  0  0  0  0  0  0  0  0
   -2.8116   -2.5952   -6.0536 C   0  0  0  0  0  0  0  0  0  0  0  0
   -3.9055   -2.8342   -5.2981 C   0  0  0  0  0  0  0  0  0  0  0  0
   -0.8581   -1.0940   -0.0152 C   0  0  0  0  0  0  0  0  0  0  0  0
   -0.3836    1.2594   -0.0244 C   0  0  0  0  0  0  0  0  0  0  0  0
   -2.9354    2.6175    1.3042 C   0  0  0  0  0  0  0  0  0  0  0  0
   -4.2985    0.7324    1.9211 C   0  0  0  0  0  0  0  0  0  0  0  0
   -2.4395   -1.2156   -6.0131 C   0  0  0  0  0  0  0  0  0  0  0  0
   -4.0070   -1.9361   -4.2481 C   0  0  0  0  0  0  0  0  0  0  0  0
   -1.3347    0.2257   -0.0510 C   0  0  0  0  0  0  0  0  0  0  0  0
   -3.3609    1.3031    1.0553 C   0  0  0  0  0  0  0  0  0  0  0  0
   -3.0186   -0.2150   -5.1852 C   0  0  0  0  0  0  0  0  0  0  0  0
   -2.9167   -1.0110   -4.1398 C   0  0  0  0  0  0  0  0  0  0  0  0
   -2.8305    0.5566   -0.1572 C   0  0  0  0  0  0  0  0  0  0  0  0
   -3.6901    0.4822   -2.6086 C   0  0  0  0  0  0  0  0  0  0  0  0
   -4.1741    0.6944   -4.1233 C   0  0  0  0  0  0  0  0  0  0  0  0
   -2.4784    0.1039   -3.2811 C   0  0  0  0  0  0  0  0  0  0  0  0
   -3.1775    1.3488   -1.4873 C   0  0  0  0  0  0  0  0  0  0  0  0
   -5.2279    1.2364   -4.3632 O   0  0  0  0  0  0  0  0  0  0  0  0
   -1.6450    0.9581   -3.6258 O   0  0  0  0  0  0  0  0  0  0  0  0
   -2.8755    2.5334   -1.6335 O   0  0  0  0  0  0  0  0  0  0  0  0
  3  1  2  0
  4  1  1  0
  5  2  2  0
  6  2  1  0
  8  7  2  0
  9  3  1  0
 10  4  2  0
 11  5  1  0
 12  6  2  0
 13  7  1  0
 14  8  1  0
 15  9  2  0
 15 10  1  0
 16 11  2  0
 16 12  1  0
 17 13  2  0
 18 14  2  0
 18 17  1  0
 19 15  1  0
 19 16  1  0
 21 17  1  0
 21 20  1  0
 22 18  1  0
 22 20  1  0
 23 19  1  0
 23 20  1  0
 24 21  2  0
 25 22  2  0
 26 23  2  0
M  END
>  <DRUGBANK_ID>  (1) 
DB13347

>  <COMMON_NAME>  (1) 
Diphenadione

>  <CAS_NUMBER>  (1) 
82-66-6

>  <UNII>  (1) 
54CA01C6JX

>  <SYNONYMS>  (1) 
Diphenadione

$$$$
