
     RDKit          3D

 24 28  0  0  0  0  0  0  0  0999 V2000
   -0.9630   -1.4297    0.0031 C   0  0  0  0  0  0  0  0  0  0  0  0
   -2.1042   -0.7186   -0.0112 N   0  0  0  0  0  0  0  0  0  0  0  0
   -2.0197    0.6284    0.0052 C   0  0  0  0  0  0  0  0  0  0  0  0
   -0.9112    1.3950    0.0386 N   0  0  0  0  0  0  0  0  0  0  0  0
    0.2044    0.6494    0.0558 C   0  0  0  0  0  0  0  0  0  0  0  0
    0.2553   -0.7397    0.0346 C   0  0  0  0  0  0  0  0  0  0  0  0
    1.6389   -1.0661    0.0342 C   0  0  0  0  0  0  0  0  0  0  0  0
    1.5120    1.0778    0.0743 N   0  0  0  0  0  0  0  0  0  0  0  0
    2.4046    0.0398    0.0910 N   0  0  0  0  0  0  0  0  0  0  0  0
   -1.0712   -2.8056   -0.0323 N   0  0  0  0  0  0  0  0  0  0  0  0
    2.0112    2.4407   -0.0355 C   0  0  0  0  0  0  0  0  0  0  0  0
    1.6861    3.4195    1.1032 C   0  0  0  0  0  0  0  0  0  0  0  0
    1.9594    4.8125    0.5132 C   0  0  0  0  0  0  0  0  0  0  0  0
    1.9666    4.6473   -1.0061 C   0  0  0  0  0  0  0  0  0  0  0  0
    1.5208    3.2122   -1.2654 C   0  0  0  0  0  0  0  0  0  0  0  0
    3.4227   -4.2587    1.0329 N   0  0  0  0  0  0  0  0  0  0  0  0
    2.9641   -2.9723    0.9708 C   0  0  0  0  0  0  0  0  0  0  0  0
    2.1870   -2.4225   -0.0466 C   0  0  0  0  0  0  0  0  0  0  0  0
    1.8315   -3.2570   -1.1173 C   0  0  0  0  0  0  0  0  0  0  0  0
    2.2891   -4.5844   -1.1153 C   0  0  0  0  0  0  0  0  0  0  0  0
    3.0685   -4.9920   -0.0423 C   0  0  0  0  0  0  0  0  0  0  0  0
    3.4453   -6.2925   -0.2776 N   0  0  0  0  0  0  0  0  0  0  0  0
    2.1664   -5.6927   -1.9937 C   0  0  0  0  0  0  0  0  0  0  0  0
    3.0146   -6.6732   -1.5277 C   0  0  0  0  0  0  0  0  0  0  0  0
  1  2  2  0
  1  6  1  0
  1 10  1  0
  2  3  1  0
  3  4  2  0
  4  5  1  0
  5  8  1  0
  6  5  2  0
  7  6  1  0
  7  9  2  0
  7 18  1  0
  8  9  1  0
  8 11  1  0
 11 12  1  0
 11 15  1  0
 12 13  1  0
 13 14  1  0
 14 15  1  0
 16 17  2  0
 16 21  1  0
 17 18  1  0
 18 19  2  0
 19 20  1  0
 20 21  2  0
 20 23  1  0
 22 21  1  0
 22 24  1  0
 23 24  2  0
M  END
>  <DRUGBANK_ID>  (1) 
DB08052

>  <COMMON_NAME>  (1) 
PP-121

>  <CAS_NUMBER>  (1) 
1092788-83-4

>  <UNII>  (1) 
5B9VB06146

$$$$
