
     RDKit          3D

 25 27  0  0  1  0  0  0  0  0999 V2000
    1.0410    0.0566    0.0927 F   0  0  0  0  0  0  0  0  0  0  0  0
    2.8371   -1.1871    0.2372 F   0  0  0  0  0  0  0  0  0  0  0  0
    2.7597    0.5136   -1.1634 F   0  0  0  0  0  0  0  0  0  0  0  0
    8.5879    3.0352    2.5336 O   0  0  0  0  0  0  0  0  0  0  0  0
    9.2990    6.1384    0.8048 O   0  0  0  0  0  0  0  0  0  0  0  0
    2.8536    0.9206    1.1021 O   0  0  0  0  0  0  0  0  0  0  0  0
    9.0406   10.7584    2.8925 O   0  0  0  0  0  0  0  0  0  0  0  0
    7.7162   10.1400    4.5429 O   0  0  0  0  0  0  0  0  0  0  0  0
    8.0338    6.4436    2.7993 N   0  0  0  0  0  0  0  0  0  0  0  0
    9.0823    8.1700    1.9126 N   0  0  0  0  0  0  0  0  0  0  0  0
    8.3845    9.9165    3.5258 N   0  0  0  0  0  0  0  0  0  0  0  0
    8.0501    4.1834    1.8548 C   0  0  1  0  0  0  0  0  0  0  0  0
    7.5540    5.1078    2.9412 C   0  0  0  0  0  0  0  0  0  0  0  0
    9.0652    4.7364    0.8484 C   0  0  0  0  0  0  0  0  0  0  0  0
    8.8440    6.8839    1.8001 C   0  0  0  0  0  0  0  0  0  0  0  0
    7.7239    7.4890    3.6125 C   0  0  0  0  0  0  0  0  0  0  0  0
    8.3996    1.8160    1.8288 C   0  0  0  0  0  0  0  0  0  0  0  0
    8.3900    8.5562    3.0460 C   0  0  0  0  0  0  0  0  0  0  0  0
    6.9327    1.5440    1.6343 C   0  0  0  0  0  0  0  0  0  0  0  0
    6.4141    1.5067    0.3362 C   0  0  0  0  0  0  0  0  0  0  0  0
    6.0637    1.4158    2.7242 C   0  0  0  0  0  0  0  0  0  0  0  0
    5.0582    1.2795    0.1232 C   0  0  0  0  0  0  0  0  0  0  0  0
    4.7140    1.1368    2.5065 C   0  0  0  0  0  0  0  0  0  0  0  0
    4.2063    1.0681    1.2055 C   0  0  0  0  0  0  0  0  0  0  0  0
    2.3923    0.0740    0.0587 C   0  0  0  0  0  0  0  0  0  0  0  0
  1 25  1  0
  2 25  1  0
  3 25  1  0
  4 17  1  0
  5 14  1  0
  5 15  1  0
  6 24  1  0
  6 25  1  0
  7 11  1  0
  8 11  2  0
  9 13  1  0
  9 15  1  0
  9 16  1  0
 10 15  2  0
 10 18  1  0
 11 18  1  0
 12  4  1  1
 12 13  1  0
 12 14  1  0
 16 18  2  0
 17 19  1  0
 19 20  2  0
 19 21  1  0
 20 22  1  0
 21 23  2  0
 22 24  2  0
 23 24  1  0
M  CHG  2   7  -1  11   1
M  END
>  <DRUGBANK_ID>  (1) 
DB05154

>  <COMMON_NAME>  (1) 
Pretomanid

>  <CAS_NUMBER>  (1) 
187235-37-6

>  <UNII>  (1) 
2XOI31YC4N

>  <SYNONYMS>  (1) 
Pretomanid

$$$$
