
     RDKit          3D

 38 42  0  0  1  0  0  0  0  0999 V2000
   -2.3119   -8.8381   -0.7775 C   0  0  0  0  0  0  0  0  0  0  0  0
   -3.2964   -8.3384   -2.1198 C   0  0  0  0  0  0  0  0  0  0  0  0
   -4.5392   -7.7949   -1.5138 C   0  0  0  0  0  0  0  0  0  0  0  0
   -4.2131   -6.4549   -0.8588 C   0  0  2  0  0  0  0  0  0  0  0  0
   -5.2043   -5.4403   -1.3168 N   0  0  0  0  0  0  0  0  0  0  0  0
   -4.4977   -4.2884   -1.9404 C   0  0  2  0  0  0  0  0  0  0  0  0
   -2.9644   -4.6972   -2.0890 C   0  0  1  0  0  0  0  0  0  0  0  0
   -2.6360   -5.8652   -1.1250 C   0  0  2  0  0  0  0  0  0  0  0  0
   -1.2511   -6.9248   -1.7403 C   0  0  0  0  0  0  0  0  0  0  0  0
   -1.0159   -7.7938   -2.5831 O   0  0  0  0  0  0  0  0  0  0  0  0
   -0.0808   -6.8611   -1.1712 N   0  0  0  0  0  0  0  0  0  0  0  0
   -0.1546   -6.0616   -0.1496 C   0  0  0  0  0  0  0  0  0  0  0  0
   -1.7650   -5.0851    0.0031 C   0  0  0  0  0  0  0  0  0  0  0  0
   -1.9442   -4.0899    1.6842 C   0  0  0  0  0  0  0  0  0  0  0  0
   -0.8688   -4.4388    3.1344 C   0  0  0  0  0  0  0  0  0  0  0  0
    0.6138   -5.4291    2.8170 C   0  0  0  0  0  0  0  0  0  0  0  0
    1.0132   -6.1364    1.1927 C   0  0  0  0  0  0  0  0  0  0  0  0
    1.6831   -5.6895    4.1079 Cl  0  0  0  0  0  0  0  0  0  0  0  0
   -2.3310   -4.3905   -3.3949 C   0  0  0  0  0  0  0  0  0  0  0  0
   -2.6261   -3.3026   -4.1485 C   0  0  0  0  0  0  0  0  0  0  0  0
   -2.0806   -3.3018   -5.4102 C   0  0  0  0  0  0  0  0  0  0  0  0
   -1.5745   -4.4965   -5.9298 C   0  0  0  0  0  0  0  0  0  0  0  0
   -1.3832   -5.5333   -5.0893 C   0  0  0  0  0  0  0  0  0  0  0  0
   -1.2437   -5.1060   -3.8236 C   0  0  0  0  0  0  0  0  0  0  0  0
   -1.9576   -1.8689   -6.2997 Cl  0  0  0  0  0  0  0  0  0  0  0  0
   -3.3275   -2.2887   -3.6251 F   0  0  0  0  0  0  0  0  0  0  0  0
   -4.9580   -2.8036   -1.2248 C   0  0  0  0  0  0  0  0  0  0  0  0
   -6.1139   -2.3945   -1.1655 O   0  0  0  0  0  0  0  0  0  0  0  0
   -3.9221   -2.0757   -0.5911 N   0  0  0  0  0  0  0  0  0  0  0  0
   -2.9001   -2.9482   -0.2318 C   0  0  1  0  0  0  0  0  0  0  0  0
   -1.2562   -2.6986   -0.1273 C   0  0  0  0  0  0  0  0  0  0  0  0
   -0.2016   -4.0495    0.1961 C   0  0  0  0  0  0  0  0  0  0  0  0
   -0.9781   -5.5860    1.4830 C   0  0  1  0  0  0  0  0  0  0  0  0
   -2.9304   -5.8238    1.4924 C   0  0  0  0  0  0  0  0  0  0  0  0
   -3.8181   -4.2754    0.7022 C   0  0  0  0  0  0  0  0  0  0  0  0
   -0.8644   -6.9668    1.9222 O   0  0  0  0  0  0  0  0  0  0  0  0
   -3.1036   -7.3087   -3.3811 C   0  0  0  0  0  0  0  0  0  0  0  0
   -3.2720   -9.5220   -2.9992 C   0  0  0  0  0  0  0  0  0  0  0  0
  1  2  1  0
  2  3  1  0
  2 37  1  0
  2 38  1  0
  4  3  1  6
  4  5  1  0
  4  8  1  0
  5  6  1  0
  6  7  1  0
  6 27  1  1
  7  8  1  0
  7 19  1  6
  8  9  1  6
  8 13  1  0
  9 10  2  0
  9 11  1  0
 11 12  1  0
 12 13  2  0
 12 17  1  0
 13 14  1  0
 14 15  2  0
 15 16  1  0
 16 17  2  0
 16 18  1  0
 19 20  2  0
 19 24  1  0
 20 21  1  0
 20 26  1  0
 21 22  2  0
 21 25  1  0
 22 23  1  0
 23 24  2  0
 27 28  2  0
 27 29  1  0
 30 31  1  0
 30 35  1  0
 30 29  1  1
 31 32  1  0
 32 33  1  0
 33 34  1  0
 33 36  1  6
 34 35  1  0
M  END
>  <DRUGBANK_ID>  (1) 
DB12541

>  <COMMON_NAME>  (1) 
SAR-405838

>  <CAS_NUMBER>  (1) 
1303607-60-4

>  <UNII>  (1) 
8570LZ3RCA

$$$$
