
     RDKit          3D

 34 36  0  0  1  0  0  0  0  0999 V2000
    2.3978    5.5001   -6.0294 C   0  0  0  0  0  0  0  0  0  0  0  0
    3.8890    5.2378   -6.1400 C   0  0  0  0  0  0  0  0  0  0  0  0
    4.4543    5.8137   -7.2881 C   0  0  0  0  0  0  0  0  0  0  0  0
    5.7679    5.5599   -7.6430 C   0  0  0  0  0  0  0  0  0  0  0  0
    6.5627    4.7287   -6.8769 C   0  0  0  0  0  0  0  0  0  0  0  0
    6.0668    4.2438   -5.6712 C   0  0  0  0  0  0  0  0  0  0  0  0
    4.7537    4.5493   -5.2329 C   0  0  0  0  0  0  0  0  0  0  0  0
    4.4407    4.1223   -3.7835 C   0  0  1  0  0  0  0  0  0  0  0  0
    5.3541    4.6362   -2.6353 C   0  0  0  0  0  0  0  0  0  0  0  0
    5.3095    6.0863   -2.4940 N   0  0  0  0  0  0  0  0  0  0  0  0
    3.9034    6.4561   -2.2006 C   0  0  0  0  0  0  0  0  0  0  0  0
    2.8866    5.8372   -3.1790 C   0  0  0  0  0  0  0  0  0  0  0  0
    3.0615    4.3495   -3.3882 N   0  0  0  0  0  0  0  0  0  0  0  0
    1.9618    3.4572   -3.3428 C   0  0  0  0  0  0  0  0  0  0  0  0
    0.8384    3.9043   -3.1647 O   0  0  0  0  0  0  0  0  0  0  0  0
    2.1433    2.0637   -3.5004 N   0  0  0  0  0  0  0  0  0  0  0  0
    3.3411    1.3309   -3.8142 C   0  0  0  0  0  0  0  0  0  0  0  0
    1.0086    1.0845   -3.2985 C   0  0  2  0  0  0  0  0  0  0  0  0
    1.3171    0.1610   -2.0636 C   0  0  0  0  0  0  0  0  0  0  0  0
    0.8350    0.2215   -4.5831 C   0  0  0  0  0  0  0  0  0  0  0  0
    1.5836   -0.9681   -4.7642 C   0  0  0  0  0  0  0  0  0  0  0  0
    1.5132   -1.7619   -5.9086 C   0  0  0  0  0  0  0  0  0  0  0  0
    0.6590   -1.3618   -6.9265 C   0  0  0  0  0  0  0  0  0  0  0  0
   -0.1268   -0.2038   -6.7812 C   0  0  0  0  0  0  0  0  0  0  0  0
    0.0216    0.6248   -5.6449 C   0  0  0  0  0  0  0  0  0  0  0  0
   -1.2324    0.0559   -7.7737 C   0  0  0  0  0  0  0  0  0  0  0  0
   -2.4508    0.0645   -7.1654 F   0  0  0  0  0  0  0  0  0  0  0  0
   -1.1149    1.2413   -8.4229 F   0  0  0  0  0  0  0  0  0  0  0  0
   -1.3146   -0.9026   -8.7403 F   0  0  0  0  0  0  0  0  0  0  0  0
    2.2865   -3.0523   -5.9811 C   0  0  0  0  0  0  0  0  0  0  0  0
    1.4654   -4.1291   -6.1071 F   0  0  0  0  0  0  0  0  0  0  0  0
    3.1466   -3.0974   -7.0318 F   0  0  0  0  0  0  0  0  0  0  0  0
    3.0407   -3.2889   -4.8696 F   0  0  0  0  0  0  0  0  0  0  0  0
    6.2623    6.1148   -8.7548 F   0  0  0  0  0  0  0  0  0  0  0  0
  1  2  1  0
  2  3  2  0
  2  7  1  0
  3  4  1  0
  4  5  2  0
  4 34  1  0
  5  6  1  0
  6  7  2  0
  8  9  1  0
  8 13  1  0
  8  7  1  6
  9 10  1  0
 10 11  1  0
 11 12  1  0
 12 13  1  0
 13 14  1  0
 14 15  2  0
 14 16  1  0
 16 17  1  0
 18 20  1  0
 18 19  1  1
 18 16  1  0
 20 21  2  0
 20 25  1  0
 21 22  1  0
 22 23  2  0
 22 30  1  0
 23 24  1  0
 24 25  2  0
 24 26  1  0
 26 27  1  0
 26 28  1  0
 26 29  1  0
 30 31  1  0
 30 32  1  0
 30 33  1  0
M  END
>  <DRUGBANK_ID>  (1) 
DB11949

>  <COMMON_NAME>  (1) 
Vestipitant

>  <CAS_NUMBER>  (1) 
334476-46-9

>  <UNII>  (1) 
S052TOI9BI

>  <SYNONYMS>  (1) 
Vestipitant

$$$$
