
     RDKit          3D

  7  7  0  0  0  0  0  0  0  0999 V2000
   -0.0290    0.8830    0.0000 O   0  0  0  0  0  0  0  0  0  0  0  0
    0.7790   -0.4170    0.0000 C   0  0  0  0  0  0  0  0  0  0  0  0
   -0.7510   -0.4660    0.0000 C   0  0  0  0  0  0  0  0  0  0  0  0
   -0.0290    0.8830    0.0000 O   0  0  0  0  0  0  0  0  0  0  0  0
    0.7790   -0.4170    0.0000 C   0  0  0  0  0  0  0  0  0  0  0  0
    2.2373   -1.1994   -1.1090 C   0  0  0  0  0  0  0  0  0  0  0  0
   -0.7510   -0.4660    0.0000 C   0  0  0  0  0  0  0  0  0  0  0  0
  1  2  1  0
  1  3  1  0
  2  3  1  0
  4  5  1  0
  4  7  1  0
  5  6  1  0
  5  7  1  0
M  END
>  <DRUGBANK_ID>  (1) 
DB11451

>  <COMMON_NAME>  (1) 
Poloxalene

>  <CAS_NUMBER>  (1) 
691397-13-4

>  <UNII>  (1) 
V8B3K56SW0

>  <SYNONYMS>  (1) 
Peg/ppg-24/34 triblock copolymer; Poloxalene

$$$$
