
     RDKit          3D

 25 27  0  0  0  0  0  0  0  0999 V2000
   -0.7986    0.3989    0.6919 N   0  0  0  0  0  0  0  0  0  0  0  0
    0.9421   -1.1272   -0.5421 S   0  0  0  0  0  0  0  0  0  0  0  0
    2.4181    1.0959   -1.0938 C   0  0  0  0  0  0  0  0  0  0  0  0
    1.5283    0.5454    0.0197 C   0  0  0  0  0  0  0  0  0  0  0  0
    2.3519    0.3423    1.3005 C   0  0  0  0  0  0  0  0  0  0  0  0
    0.2133    1.3535    0.2148 C   0  0  2  0  0  0  0  0  0  0  0  0
   -0.4845    3.6031    0.9106 O   0  0  0  0  0  0  0  0  0  0  0  0
    0.3515    2.5688    1.1614 C   0  0  0  0  0  0  0  0  0  0  0  0
    1.1135    2.6350    2.1154 O   0  0  0  0  0  0  0  0  0  0  0  0
   -1.9001   -1.2669    0.0041 C   0  0  2  0  0  0  0  0  0  0  0  0
   -2.0159   -1.9936   -1.3036 N   0  0  0  0  0  0  0  0  0  0  0  0
   -1.9566   -3.3695   -1.2601 C   0  0  0  0  0  0  0  0  0  0  0  0
   -1.6966   -3.9180   -0.1863 O   0  0  0  0  0  0  0  0  0  0  0  0
   -2.2236   -4.1644   -2.5648 C   0  0  1  0  0  0  0  0  0  0  0  0
   -1.9833    0.2737    0.0071 C   0  0  0  0  0  0  0  0  0  0  0  0
   -2.6741    1.1197   -0.5045 O   0  0  0  0  0  0  0  0  0  0  0  0
   -0.4893   -1.0505    0.5904 C   0  0  2  0  0  0  0  0  0  0  0  0
   -1.1242   -5.2216   -2.6817 C   0  0  0  0  0  0  0  0  0  0  0  0
   -3.5158   -4.7431   -2.8117 O   0  0  0  0  0  0  0  0  0  0  0  0
   -3.9608   -5.7154   -1.9534 C   0  0  0  0  0  0  0  0  0  0  0  0
   -4.0229   -5.5408   -0.5746 C   0  0  0  0  0  0  0  0  0  0  0  0
   -4.4294   -6.5679    0.2736 C   0  0  0  0  0  0  0  0  0  0  0  0
   -4.4790   -6.8933   -2.4940 C   0  0  0  0  0  0  0  0  0  0  0  0
   -4.9359   -7.7401   -0.2645 C   0  0  0  0  0  0  0  0  0  0  0  0
   -5.0137   -7.8788   -1.6501 C   0  0  0  0  0  0  0  0  0  0  0  0
  1  6  1  0
 17  2  1  6
  2  4  1  0
  4  3  1  0
  4  5  1  0
  6  4  1  0
  6  8  1  1
  8  7  1  0
  8  9  2  0
 10 15  1  0
 10 11  1  6
 11 12  1  0
 12 14  1  0
 12 13  2  0
 14 18  1  1
 14 19  1  0
 15  1  1  0
 15 16  2  0
 17 10  1  0
 17  1  1  0
 19 20  1  0
 20 21  2  0
 22 21  1  0
 23 20  1  0
 24 22  2  0
 25 23  2  0
 25 24  1  0
M  END
>  <DRUGBANK_ID>  (1) 
DB13337

>  <COMMON_NAME>  (1) 
Pheneticillin

>  <CAS_NUMBER>  (1) 
147-55-7

>  <UNII>  (1) 
EFA30X554H

>  <SYNONYMS>  (1) 
Feneticilina; penicillin B; Pheneticillin; Pheneticilline; Pheneticillinum; phenoxypropylpenicillin

$$$$
