
     RDKit          3D

 11 10  0  0  1  0  0  0  0  0999 V2000
   -1.4434   -2.1636   -0.7185 C   0  0  0  0  0  0  0  0  0  0  0  0
   -0.0190   -1.6257   -0.7500 N   0  0  0  0  0  0  0  0  0  0  0  0
    0.5265   -1.7763   -2.1710 C   0  0  0  0  0  0  0  0  0  0  0  0
   -0.0269   -0.1356   -0.4298 C   0  0  0  0  0  0  0  0  0  0  0  0
    0.8942   -2.4535    0.2056 C   0  0  0  0  0  0  0  0  0  0  0  0
    0.4695   -2.3343    1.6835 C   0  0  2  0  0  0  0  0  0  0  0  0
    1.1028   -1.1624    2.1895 O   0  0  0  0  0  0  0  0  0  0  0  0
    0.9360   -3.5296    2.5155 C   0  0  0  0  0  0  0  0  0  0  0  0
    0.4202   -3.3711    3.9293 C   0  0  0  0  0  0  0  0  0  0  0  0
   -0.4037   -4.3495    4.3485 O   0  0  0  0  0  0  0  0  0  0  0  0
    0.6739   -2.4086    4.6440 O   0  0  0  0  0  0  0  0  0  0  0  0
  1  2  1  0
  2  3  1  0
  2  4  1  0
  2  5  1  0
  6  8  1  0
  6  7  1  1
  6  5  1  0
  8  9  1  0
  9 10  1  0
  9 11  2  0
M  CHG  1   2   1
M  END
>  <DRUGBANK_ID>  (1) 
DB02648

>  <SECONDARY_ACCESSION_NUMBERS>  (1) 
EXPT00038

>  <COMMON_NAME>  (1) 
(3-Carboxy-2-(R)-Hydroxy-Propyl)-Trimethyl-Ammonium

>  <CAS_NUMBER>  (1) 
461-06-3

$$$$
