AL1
     RDKit          3D

 23 25  0  0  0  0  0  0  0  0999 V2000
    2.6464   -0.1554    0.0435 C   0  0  0  0  0  0  0  0  0  0  0  0
   -2.2140   -0.7018    0.0232 C   0  0  0  0  0  0  0  0  0  0  0  0
   -0.8852   -1.4804    0.0195 C   0  0  0  0  0  0  0  0  0  0  0  0
   -5.0094    2.7515   -1.2886 C   0  0  0  0  0  0  0  0  0  0  0  0
   -5.9523    2.4856   -0.3036 C   0  0  0  0  0  0  0  0  0  0  0  0
   -5.6260    1.7441    0.8412 C   0  0  0  0  0  0  0  0  0  0  0  0
   -4.3476    1.2473    0.9901 C   0  0  0  0  0  0  0  0  0  0  0  0
   -7.8207    1.8410    1.6348 C   0  0  0  0  0  0  0  0  0  0  0  0
    4.7958    0.7987   -1.3541 N   0  0  0  0  0  0  0  0  0  0  0  0
    4.3921   -0.0519    0.0386 S   0  0  0  0  0  0  0  0  0  0  0  0
    4.7524    0.7592    1.1812 O   0  0  0  0  0  0  0  0  0  0  0  0
    4.8439   -1.4051   -0.1418 O   0  0  0  0  0  0  0  0  0  0  0  0
    1.9237    1.3762    0.0362 S   0  0  0  0  0  0  0  0  0  0  0  0
    0.4116    0.6721    0.0387 C   0  0  0  0  0  0  0  0  0  0  0  0
    0.3858   -0.6975    0.0243 C   0  0  0  0  0  0  0  0  0  0  0  0
    1.7246   -1.1888    0.0165 C   0  0  0  0  0  0  0  0  0  0  0  0
   -2.2109    0.7777    0.0149 N   0  0  0  0  0  0  0  0  0  0  0  0
   -0.8939    1.7815   -0.0186 S   0  0  0  0  0  0  0  0  0  0  0  0
   -0.7696    2.3961   -1.3213 O   0  0  0  0  0  0  0  0  0  0  0  0
   -0.8486    2.5327    1.2182 O   0  0  0  0  0  0  0  0  0  0  0  0
   -3.4439    1.4499   -0.0388 C   0  0  0  0  0  0  0  0  0  0  0  0
   -3.7405    2.2452   -1.1449 C   0  0  0  0  0  0  0  0  0  0  0  0
   -6.4852    1.4144    1.8496 O   0  0  0  0  0  0  0  0  0  0  0  0
  1 10  1  0
  1 13  1  0
  1 16  2  0
  2  3  1  0
  2 17  1  0
  3 15  1  0
  4  5  2  0
  4 22  1  0
  5  6  1  0
  6  7  2  0
  6 23  1  0
  7 21  1  0
  8 23  1  0
  9 10  1  0
 10 11  2  0
 10 12  2  0
 13 14  1  0
 14 15  2  0
 14 18  1  0
 15 16  1  0
 17 18  1  0
 17 21  1  0
 18 19  2  0
 18 20  2  0
 21 22  2  0
M  END
>  <DRUGBANK_ID>  (1) 
DB02602

>  <SECONDARY_ACCESSION_NUMBERS>  (1) 
EXPT00486

>  <COMMON_NAME>  (1) 
AL7182

$$$$
