
     RDKit          3D

 10  9  0  0  0  0  0  0  0  0999 V2000
    1.1035    0.0068    0.0745 C   0  0  0  0  0  0  0  0  0  0  0  0
    0.3525    0.9425    1.0637 C   0  0  1  0  0  0  0  0  0  0  0  0
   -0.5862    1.8784    0.2659 C   0  0  0  0  0  0  0  0  0  0  0  0
   -1.6659    1.1964   -0.6129 C   0  0  0  0  0  0  0  0  0  0  0  0
   -2.6508    0.2818    0.1188 C   0  0  0  0  0  0  0  0  0  0  0  0
   -2.4828    2.2497   -1.3526 C   0  0  0  0  0  0  0  0  0  0  0  0
   -0.2840    0.1246    2.1159 N   0  0  0  0  0  0  0  0  0  0  0  0
    0.5567   -0.7872   -0.6737 O   0  0  0  0  0  0  0  0  0  0  0  0
    2.4529    0.1213    0.0965 O   0  0  0  0  0  0  0  0  0  0  0  0
   -1.1862    0.8714    2.9854 C   0  0  0  0  0  0  0  0  0  0  0  0
  2  1  1  0
  2  7  1  0
  2  3  1  6
  4  3  1  0
  5  4  1  0
  6  4  1  0
  7 10  1  0
  8  1  2  0
  9  1  1  0
M  END
>  <DRUGBANK_ID>  (1) 
DB04487

>  <SECONDARY_ACCESSION_NUMBERS>  (1) 
EXPT02181

>  <COMMON_NAME>  (1) 
N-Methylleucine

>  <CAS_NUMBER>  (1) 
31321-74-1

>  <UNII>  (1) 
RS2PMV5S1P

$$$$
