
     RDKit          3D

 29 31  0  0  0  0  0  0  0  0999 V2000
   -0.4215   -0.0142   -0.0241 C   0  0  0  0  0  0  0  0  0  0  0  0
    0.2758    1.1934   -0.0289 C   0  0  0  0  0  0  0  0  0  0  0  0
    1.6626    1.1744   -0.0263 C   0  0  0  0  0  0  0  0  0  0  0  0
    2.3347   -0.0568   -0.0010 C   0  0  0  0  0  0  0  0  0  0  0  0
    1.6343   -1.2594   -0.0200 C   0  0  0  0  0  0  0  0  0  0  0  0
    0.2508   -1.2373   -0.0297 C   0  0  0  0  0  0  0  0  0  0  0  0
   -2.1387    0.0008   -0.0021 Cl  0  0  0  0  0  0  0  0  0  0  0  0
    3.8159   -0.1055    0.0620 C   0  0  0  0  0  0  0  0  0  0  0  0
    4.3860   -0.5070    1.3554 N   0  0  0  0  0  0  0  0  0  0  0  0
    5.8264   -0.5439    1.2563 C   0  0  0  0  0  0  0  0  0  0  0  0
    3.8773   -0.0570    2.6978 C   0  0  0  0  0  0  0  0  0  0  0  0
    4.2134    1.3573    3.3084 C   0  0  0  0  0  0  0  0  0  0  0  0
    5.6955    1.8376    4.2454 S   0  0  0  0  0  0  0  0  0  0  0  0
    5.5030    3.5590    3.8028 C   0  0  0  0  0  0  0  0  0  0  0  0
    4.1824    3.7519    3.3861 C   0  0  0  0  0  0  0  0  0  0  0  0
    3.4473    2.5083    3.1510 C   0  0  0  0  0  0  0  0  0  0  0  0
    6.6858    4.4813    3.6168 N   0  0  0  0  0  0  0  0  0  0  0  0
    7.7935    3.9680    3.3740 O   0  0  0  0  0  0  0  0  0  0  0  0
    6.4833    5.7081    3.6332 O   0  0  0  0  0  0  0  0  0  0  0  0
    6.4362    0.8454    0.9878 C   0  0  0  0  0  0  0  0  0  0  0  0
    5.6106    2.1344    1.0434 C   0  0  0  0  0  0  0  0  0  0  0  0
    6.3775    3.1625    0.4614 N   0  0  0  0  0  0  0  0  0  0  0  0
    6.9739    2.5351   -0.6758 C   0  0  0  0  0  0  0  0  0  0  0  0
    6.9331    1.0227   -0.4290 C   0  0  0  0  0  0  0  0  0  0  0  0
    6.1027    4.5085    0.6904 C   0  0  0  0  0  0  0  0  0  0  0  0
    7.1401    5.3790    0.7165 O   0  0  0  0  0  0  0  0  0  0  0  0
    5.0064    4.9337    1.1039 O   0  0  0  0  0  0  0  0  0  0  0  0
    8.2189    5.1576   -0.1645 C   0  0  0  0  0  0  0  0  0  0  0  0
    9.2248    4.1544    0.3908 C   0  0  0  0  0  0  0  0  0  0  0  0
  1  2  2  0
  1  6  1  0
  1  7  1  0
  2  3  1  0
  3  4  2  0
  4  5  1  0
  4  8  1  0
  5  6  2  0
  8  9  1  0
  9 10  1  0
  9 11  1  0
 10 20  1  0
 11 12  1  0
 12 13  1  0
 12 16  2  0
 13 14  1  0
 14 15  2  0
 14 17  1  0
 15 16  1  0
 17 18  1  0
 17 19  2  0
 20 21  1  0
 20 24  1  0
 21 22  1  0
 22 23  1  0
 22 25  1  0
 23 24  1  0
 25 26  1  0
 25 27  2  0
 26 28  1  0
 28 29  1  0
M  CHG  2  17   1  18  -1
M  END
>  <DRUGBANK_ID>  (1) 
DB14013

>  <COMMON_NAME>  (1) 
SR-9009

>  <CAS_NUMBER>  (1) 
1379686-30-2

>  <UNII>  (1) 
X5DCA09N30

>  <SYNONYMS>  (1) 
1-Pyrrolidinecarboxylic acid, 3-((((4-chlorophenyl)methyl)((5-nitro-2-thienyl)methyl)amino)methyl)-, ethyl ester

$$$$
