
     RDKit          3D

 30 33  0  0  1  0  0  0  0  0999 V2000
    0.9901   -2.5184   -0.0817 C   0  0  0  0  0  0  0  0  0  0  0  0
    0.4122   -1.1897   -0.6709 C   0  0  2  0  0  0  0  0  0  0  0  0
    1.0917    0.1166    0.0275 C   0  0  2  0  0  0  0  0  0  0  0  0
    2.2589    0.6349   -0.8455 C   0  0  0  0  0  0  0  0  0  0  0  0
    1.8474    1.5093   -1.9262 N   0  0  0  0  0  0  0  0  0  0  0  0
    1.7233    2.8659   -1.8768 C   0  0  0  0  0  0  0  0  0  0  0  0
    1.4210    3.3255   -3.0662 N   0  0  0  0  0  0  0  0  0  0  0  0
    1.3688    2.1882   -3.8223 C   0  0  0  0  0  0  0  0  0  0  0  0
    1.6677    1.0534   -3.1782 N   0  0  0  0  0  0  0  0  0  0  0  0
    1.4817   -0.1944    1.4637 C   0  0  0  0  0  0  0  0  0  0  0  0
    0.5548    0.0416    2.5065 C   0  0  0  0  0  0  0  0  0  0  0  0
    0.8607   -0.2894    3.8128 C   0  0  0  0  0  0  0  0  0  0  0  0
    2.0624   -0.9294    4.0745 C   0  0  0  0  0  0  0  0  0  0  0  0
    2.9721   -1.2210    3.0643 C   0  0  0  0  0  0  0  0  0  0  0  0
    2.6909   -0.8221    1.7711 C   0  0  0  0  0  0  0  0  0  0  0  0
    3.5275   -1.1751    0.7848 F   0  0  0  0  0  0  0  0  0  0  0  0
    2.3398   -1.2926    5.3301 F   0  0  0  0  0  0  0  0  0  0  0  0
    0.1853    1.2019    0.2899 O   0  0  0  0  0  0  0  0  0  0  0  0
   -1.0666   -1.1840   -0.6451 N   0  0  0  0  0  0  0  0  0  0  0  0
   -1.7935   -2.3409   -0.8308 C   0  0  0  0  0  0  0  0  0  0  0  0
   -3.0818   -2.4352   -0.8254 N   0  0  0  0  0  0  0  0  0  0  0  0
   -3.7961   -1.2436   -0.7044 C   0  0  0  0  0  0  0  0  0  0  0  0
   -5.1792   -1.2625   -0.7344 C   0  0  0  0  0  0  0  0  0  0  0  0
   -5.8668   -0.0637   -0.9302 C   0  0  0  0  0  0  0  0  0  0  0  0
   -5.1931    1.1572   -1.0022 C   0  0  0  0  0  0  0  0  0  0  0  0
   -3.8430    1.1986   -0.7260 C   0  0  0  0  0  0  0  0  0  0  0  0
   -3.1589   -0.0094   -0.6944 C   0  0  0  0  0  0  0  0  0  0  0  0
   -1.7327   -0.0134   -0.9362 C   0  0  0  0  0  0  0  0  0  0  0  0
   -1.2756    0.9844   -1.5120 O   0  0  0  0  0  0  0  0  0  0  0  0
   -7.5779   -0.0757   -1.0543 Cl  0  0  0  0  0  0  0  0  0  0  0  0
  2 19  1  0
  2  3  1  0
  2  1  1  1
  3 18  1  1
  3 10  1  0
  3  4  1  0
  4  5  1  0
  5  6  1  0
  5  9  1  0
  6  7  2  0
  7  8  1  0
  8  9  2  0
 10 11  2  0
 10 15  1  0
 11 12  1  0
 12 13  2  0
 13 14  1  0
 13 17  1  0
 14 15  2  0
 15 16  1  0
 19 20  1  0
 19 28  1  0
 20 21  2  0
 21 22  1  0
 22 23  2  0
 22 27  1  0
 23 24  1  0
 24 25  2  0
 24 30  1  0
 25 26  1  0
 26 27  2  0
 27 28  1  0
 28 29  2  0
M  END
>  <DRUGBANK_ID>  (1) 
DB12073

>  <COMMON_NAME>  (1) 
Albaconazole

>  <CAS_NUMBER>  (1) 
187949-02-6

>  <UNII>  (1) 
YDW24Y8IAB

>  <SYNONYMS>  (1) 
Albaconazole

$$$$
