
     RDKit          3D

 27 24  0  0  0  0  0  0  0  0999 V2000
    1.7938    6.1783   -0.1676 C   0  0  0  0  0  0  0  0  0  0  0  0
    2.7046    5.0596   -0.6649 C   0  0  2  0  0  0  0  0  0  0  0  0
    2.5847    3.7400    0.1230 C   0  0  2  0  0  0  0  0  0  0  0  0
    1.5029    2.8565   -0.5289 C   0  0  1  0  0  0  0  0  0  0  0  0
    2.2667    1.7618   -1.2774 C   0  0  2  0  0  0  0  0  0  0  0  0
    2.7716    0.8769   -0.0746 C   0  0  0  0  0  0  0  0  0  0  0  0
    1.4397    6.0125    1.2051 O   0  0  0  0  0  0  0  0  0  0  0  0
    4.0602    5.5247   -0.6255 O   0  0  0  0  0  0  0  0  0  0  0  0
    2.4095    3.7918    1.5460 O   0  0  0  0  0  0  0  0  0  0  0  0
    0.5647    2.3099    0.4534 O   0  0  0  0  0  0  0  0  0  0  0  0
    3.3709    2.3165   -2.0084 O   0  0  0  0  0  0  0  0  0  0  0  0
    1.8366    0.4082    0.6854 O   0  0  0  0  0  0  0  0  0  0  0  0
    4.0166    0.7636    0.0734 O   0  0  0  0  0  0  0  0  0  0  0  0
    4.5769   -3.9871    2.0685 C   0  0  0  0  0  0  0  0  0  0  0  0
    3.5108   -4.4193    1.0626 C   0  0  2  0  0  0  0  0  0  0  0  0
    2.0729   -3.8819    1.3123 C   0  0  2  0  0  0  0  0  0  0  0  0
    1.4948   -2.9277    0.2444 C   0  0  1  0  0  0  0  0  0  0  0  0
    2.4922   -2.1141   -0.5759 C   0  0  2  0  0  0  0  0  0  0  0  0
    1.6909   -1.2502   -1.6057 C   0  0  0  0  0  0  0  0  0  0  0  0
    4.2359   -4.3083    3.4093 O   0  0  0  0  0  0  0  0  0  0  0  0
    3.4831   -5.8427    0.8658 O   0  0  0  0  0  0  0  0  0  0  0  0
    1.9026   -3.2121    2.5749 O   0  0  0  0  0  0  0  0  0  0  0  0
    0.6699   -3.6765   -0.6467 O   0  0  0  0  0  0  0  0  0  0  0  0
    3.3877   -2.9376   -1.3180 O   0  0  0  0  0  0  0  0  0  0  0  0
    2.2528   -1.0160   -2.7011 O   0  0  0  0  0  0  0  0  0  0  0  0
    0.5597   -0.7793   -1.2057 O   0  0  0  0  0  0  0  0  0  0  0  0
   -0.0199    0.1592    0.2548 Fe  0  0  0  0  0 15  0  0  0  0  0  0
  2  8  1  1
  2  3  1  0
  2  1  1  0
  3  9  1  1
  3  4  1  0
  4 10  1  1
  5 11  1  1
  5  6  1  0
  5  4  1  0
  7  1  1  0
 12  6  2  0
 13  6  1  0
 15 21  1  1
 15 16  1  0
 15 14  1  0
 16 22  1  1
 16 17  1  0
 17 23  1  6
 18 24  1  6
 18 19  1  0
 18 17  1  0
 20 14  1  0
 25 19  2  0
 26 19  1  0
M  CHG  3  13  -1  26  -1  27   2
M  END
>  <DRUGBANK_ID>  (1) 
DB14488

>  <SECONDARY_ACCESSION_NUMBERS>  (1) 
DBSALT000080

>  <COMMON_NAME>  (1) 
Ferrous gluconate

>  <CAS_NUMBER>  (1) 
299-29-6

>  <UNII>  (1) 
781E2AXH0K

>  <SYNONYMS>  (1) 
D-gluconic acid, iron(2+) salt (2:1); Ferric Gluconate; Ferrous gluconate anhydrous; Iron(2+) gluconate (1:2); Iron(II) gluconate, anhydrous

$$$$
