
     RDKit          3D

 24 25  0  0  1  0  0  0  0  0999 V2000
    0.9259    0.1364   -0.0669 C   0  0  0  0  0  0  0  0  0  0  0  0
    2.9138   -5.0207    1.2495 C   0  0  0  0  0  0  0  0  0  0  0  0
   -0.0257   -0.4902    5.6413 C   0  0  0  0  0  0  0  0  0  0  0  0
    1.7521   -4.7518    2.2174 C   0  0  2  0  0  0  0  0  0  0  0  0
   -0.4141   -0.6330    4.1556 C   0  0  2  0  0  0  0  0  0  0  0  0
    2.2122   -4.4866    3.7169 C   0  0  2  0  0  0  0  0  0  0  0  0
   -1.3133   -1.9091    3.9823 C   0  0  2  0  0  0  0  0  0  0  0  0
    1.0586   -4.1697    4.7330 C   0  0  1  0  0  0  0  0  0  0  0  0
   -0.2305   -4.9688    4.4307 C   0  0  1  0  0  0  0  0  0  0  0  0
   -0.0951   -2.0851    1.8223 C   0  0  1  0  0  0  0  0  0  0  0  0
   -1.3835   -2.4266    2.5198 C   0  0  1  0  0  0  0  0  0  0  0  0
    0.7015   -0.8095    2.0041 C   0  0  1  0  0  0  0  0  0  0  0  0
   -0.6341   -4.9563    2.9099 C   0  0  2  0  0  0  0  0  0  0  0  0
    2.4381   -4.9658   -0.1078 O   0  0  0  0  0  0  0  0  0  0  0  0
    0.7349    0.7022    5.8295 O   0  0  0  0  0  0  0  0  0  0  0  0
    3.1824   -3.4050    3.7087 O   0  0  0  0  0  0  0  0  0  0  0  0
   -2.5766   -1.8143    4.6357 O   0  0  0  0  0  0  0  0  0  0  0  0
    1.4777   -4.2338    6.1034 O   0  0  0  0  0  0  0  0  0  0  0  0
    0.0519   -6.3163    4.8739 O   0  0  0  0  0  0  0  0  0  0  0  0
    0.6545   -2.8273    2.7316 O   0  0  0  0  0  0  0  0  0  0  0  0
    0.3417    0.2900    1.2312 O   0  0  0  0  0  0  0  0  0  0  0  0
    0.8401   -0.5882    3.4254 O   0  0  0  0  0  0  0  0  0  0  0  0
    0.4960   -5.4464    2.0636 O   0  0  0  0  0  0  0  0  0  0  0  0
   -1.5749   -3.9062    2.4124 O   0  0  0  0  0  0  0  0  0  0  0  0
  4  2  1  1
  5  3  1  1
  6  4  1  0
  6 16  1  6
  7  5  1  0
  7 17  1  6
  8  6  1  0
  8 18  1  1
  9  8  1  0
  9 19  1  6
 10 20  1  1
 11  7  1  0
 11 10  1  0
 11 24  1  1
 12 10  1  0
 12 21  1  1
 13  9  1  0
 13 24  1  6
 14  2  1  0
 15  3  1  0
 21  1  1  0
 22  5  1  0
 22 12  1  0
 23  4  1  0
 23 13  1  0
M  END
>  <DRUGBANK_ID>  (1) 
DB02357

>  <SECONDARY_ACCESSION_NUMBERS>  (1) 
EXPT02145

>  <COMMON_NAME>  (1) 
Methyl-O3-(Alpha-D-Mannose)-Alpha-D-Mannose

$$$$
