
     RDKit          3D

 12 12  0  0  1  0  0  0  0  0999 V2000
   -1.3454   -0.4830    0.0867 C   0  0  0  0  0  0  0  0  0  0  0  0
   -1.0720    0.9618    0.0777 C   0  0  1  0  0  0  0  0  0  0  0  0
   -0.3923   -1.4175    0.0805 C   0  0  0  0  0  0  0  0  0  0  0  0
    0.4063    1.3676    0.0510 C   0  0  1  0  0  0  0  0  0  0  0  0
   -0.8452   -2.8337    0.0159 C   0  0  0  0  0  0  0  0  0  0  0  0
    1.4055    0.1853   -0.0321 C   0  0  2  0  0  0  0  0  0  0  0  0
   -1.7271    1.4205   -1.1058 O   0  0  0  0  0  0  0  0  0  0  0  0
    0.6204    2.2545   -1.0761 O   0  0  0  0  0  0  0  0  0  0  0  0
   -2.0044   -3.2241   -0.0143 O   0  0  0  0  0  0  0  0  0  0  0  0
    0.1815   -3.6979   -0.0029 O   0  0  0  0  0  0  0  0  0  0  0  0
    2.1414    0.2501   -1.2570 O   0  0  0  0  0  0  0  0  0  0  0  0
    0.9462   -1.1476    0.1323 O   0  0  0  0  0  0  0  0  0  0  0  0
  2  1  1  0
  2  7  1  6
  3  1  2  0
  4  2  1  0
  4  8  1  6
  5  3  1  0
  6  4  1  0
  6 11  1  6
  9  5  2  0
 10  5  1  0
 12  3  1  0
 12  6  1  0
M  END
>  <DRUGBANK_ID>  (1) 
DB02734

>  <SECONDARY_ACCESSION_NUMBERS>  (1) 
EXPT02117

>  <COMMON_NAME>  (1) 
4-Deoxy-D-Mannuronic Acid

$$$$
