
     RDKit          3D

 26 29  0  0  0  0  0  0  0  0999 V2000
    2.1992   -0.6619   -0.0202 C   0  0  0  0  0  0  0  0  0  0  0  0
   -7.1118    4.8481    0.6540 C   0  0  0  0  0  0  0  0  0  0  0  0
    1.0033   -1.4143    0.0103 C   0  0  0  0  0  0  0  0  0  0  0  0
   -6.7837    3.6171    1.2474 C   0  0  0  0  0  0  0  0  0  0  0  0
    0.9405    1.4077   -0.0234 C   0  0  0  0  0  0  0  0  0  0  0  0
   -5.5779    4.4380   -1.1868 C   0  0  0  0  0  0  0  0  0  0  0  0
    2.1962    0.7454   -0.0597 C   0  0  0  0  0  0  0  0  0  0  0  0
   -6.5193    5.2701   -0.5479 C   0  0  0  0  0  0  0  0  0  0  0  0
   -0.2029   -0.7115   -0.0031 C   0  0  0  0  0  0  0  0  0  0  0  0
   -5.8437    2.7922    0.6172 C   0  0  0  0  0  0  0  0  0  0  0  0
   -0.2621    0.6695   -0.0139 C   0  0  0  0  0  0  0  0  0  0  0  0
   -5.2682    3.2161   -0.5720 C   0  0  0  0  0  0  0  0  0  0  0  0
   -3.7777   -0.0488    0.0232 C   0  0  0  0  0  0  0  0  0  0  0  0
    3.4968    1.5476   -0.1379 C   0  0  0  0  0  0  0  0  0  0  0  0
   -6.8835    6.6128   -1.1262 C   0  0  0  0  0  0  0  0  0  0  0  0
   -2.3201    0.0264   -0.0120 C   0  0  0  0  0  0  0  0  0  0  0  0
   -4.4813    1.2176    0.0477 C   0  0  0  0  0  0  0  0  0  0  0  0
    3.4556    2.8388   -0.1643 N   0  0  0  0  0  0  0  0  0  0  0  0
    4.7940    0.9169   -0.0342 N   0  0  0  0  0  0  0  0  0  0  0  0
   -6.3820    7.0802   -2.2277 N   0  0  0  0  0  0  0  0  0  0  0  0
   -7.7627    7.4399   -0.5048 N   0  0  0  0  0  0  0  0  0  0  0  0
   -1.5203   -1.1026   -0.0122 N   0  0  0  0  0  0  0  0  0  0  0  0
   -5.3552    1.5603    0.9814 N   0  0  0  0  0  0  0  0  0  0  0  0
   -1.5604    1.1167   -0.0358 N   0  0  0  0  0  0  0  0  0  0  0  0
   -4.4198    2.1943   -0.9214 N   0  0  0  0  0  0  0  0  0  0  0  0
   -4.3439   -1.1509    0.0234 O   0  0  0  0  0  0  0  0  0  0  0  0
  3  1  2  0
  4  2  2  0
  7  1  1  0
  7  5  2  0
  8  2  1  0
  8  6  2  0
  9  3  1  0
 10  4  1  0
 11  5  1  0
 11  9  2  0
 12  6  1  0
 12 10  2  0
 14  7  1  0
 15  8  1  0
 16 13  1  0
 17 13  1  0
 18 14  2  0
 19 14  1  0
 20 15  2  0
 21 15  1  0
 22  9  1  0
 22 16  1  0
 23 10  1  0
 23 17  2  0
 24 11  1  0
 24 16  2  0
 25 12  1  0
 25 17  1  0
 26 13  2  0
M  CHG  2  18   1  19   1
M  END
>  <DRUGBANK_ID>  (1) 
DB03213

>  <SECONDARY_ACCESSION_NUMBERS>  (1) 
EXPT00623

>  <COMMON_NAME>  (1) 
Bis(5-Amidino-2-Benzimidazolyl)Methane Ketone

$$$$
