
     RDKit          3D

 24 26  0  0  0  0  0  0  0  0999 V2000
    1.0867    0.4338   -0.1842 C   0  0  0  0  0  0  0  0  0  0  0  0
    0.4869    1.3461    0.3642 O   0  0  0  0  0  0  0  0  0  0  0  0
    0.2747   -0.5691   -0.8638 C   0  0  0  0  0  0  0  0  0  0  0  0
    0.4982   -0.7705   -2.3329 C   0  0  0  0  0  0  0  0  0  0  0  0
    2.4581    0.2012   -0.1844 N   0  0  0  0  0  0  0  0  0  0  0  0
    2.6449   -3.7789    0.4764 N   0  0  0  0  0  0  0  0  0  0  0  0
    3.3086   -1.0280   -0.6114 C   0  0  0  0  0  0  0  0  0  0  0  0
    2.9287   -2.2816   -1.4841 C   0  0  0  0  0  0  0  0  0  0  0  0
    3.9614   -1.6482    0.6378 C   0  0  0  0  0  0  0  0  0  0  0  0
    3.1909    1.2100    0.5412 C   0  0  0  0  0  0  0  0  0  0  0  0
    3.0241   -2.6437    1.3266 C   0  0  0  0  0  0  0  0  0  0  0  0
    2.0979   -3.3580   -0.8030 C   0  0  0  0  0  0  0  0  0  0  0  0
    1.7034   -4.7023    1.1603 C   0  0  0  0  0  0  0  0  0  0  0  0
    0.3510   -4.1505    1.7307 C   0  0  0  0  0  0  0  0  0  0  0  0
   -0.7103   -3.8066    0.7042 C   0  0  0  0  0  0  0  0  0  0  0  0
    2.7465    1.6678    1.7978 C   0  0  0  0  0  0  0  0  0  0  0  0
    4.3817    1.7097    0.0212 C   0  0  0  0  0  0  0  0  0  0  0  0
    3.4826    2.5997    2.5200 C   0  0  0  0  0  0  0  0  0  0  0  0
    5.1441    2.6031    0.7681 C   0  0  0  0  0  0  0  0  0  0  0  0
    4.6865    3.0624    2.0035 C   0  0  0  0  0  0  0  0  0  0  0  0
   -1.6630   -2.3705    0.8008 S   0  0  0  0  0  0  0  0  0  0  0  0
   -1.9606   -2.4426   -0.9068 C   0  0  0  0  0  0  0  0  0  0  0  0
   -1.1798   -4.5496   -0.3656 C   0  0  0  0  0  0  0  0  0  0  0  0
   -1.8070   -3.7320   -1.3524 C   0  0  0  0  0  0  0  0  0  0  0  0
  1  5  1  0
  2  1  2  0
  3  1  1  0
  3  4  1  0
  5  7  1  0
  8  7  1  0
  9  7  1  0
 10  5  1  0
 11  6  1  0
 11  9  1  0
 12  6  1  0
 12  8  1  0
 13  6  1  0
 14 13  1  0
 15 14  1  0
 16 10  2  0
 17 10  1  0
 18 16  1  0
 19 17  2  0
 20 18  2  0
 20 19  1  0
 21 15  1  0
 22 21  1  0
 23 15  2  0
 24 22  2  0
 24 23  1  0
M  END
>  <DRUGBANK_ID>  (1) 
DB09180

>  <COMMON_NAME>  (1) 
Thienylfentanyl

>  <CAS_NUMBER>  (1) 
1165-22-6

>  <UNII>  (1) 
954535Y32Y

>  <SYNONYMS>  (1) 
Thiofentanyl

$$$$
