
     RDKit          3D

  6  5  0  0  0  0  0  0  0  0999 V2000
    1.0500   -0.0796   -0.0299 O   0  0  0  0  0  0  0  0  0  0  0  0
    2.2845   -0.0462   -0.0599 C   0  0  0  0  0  0  0  0  0  0  0  0
    3.0965   -0.2144    1.2062 C   0  0  0  0  0  0  0  0  0  0  0  0
    3.0052    0.1702   -1.3670 C   0  0  0  0  0  0  0  0  0  0  0  0
    3.9395   -1.4778    1.1998 C   0  0  0  0  0  0  0  0  0  0  0  0
    4.9753   -1.4161    0.2291 O   0  0  0  0  0  0  0  0  0  0  0  0
  2  1  2  0
  2  3  1  0
  2  4  1  0
  3  5  1  0
  5  6  1  0
M  END
>  <DRUGBANK_ID>  (1) 
DB04094

>  <SECONDARY_ACCESSION_NUMBERS>  (1) 
EXPT00777

>  <COMMON_NAME>  (1) 
4-hydroxybutan-2-one

>  <CAS_NUMBER>  (1) 
590-90-9

>  <UNII>  (1) 
TCM0BJ44MF

>  <SYNONYMS>  (1) 
3-Oxo-1-butanol; 3-Oxobutanol; 4-Hydroxy-2-butanone; Methylolacetone; Monomethylolacetone

$$$$
