
     RDKit          3D

 36 38  0  0  1  0  0  0  0  0999 V2000
    4.6375    3.7201    0.6394 C   0  0  0  0  0  0  0  0  0  0  0  0
    3.5949    4.3830   -0.2877 C   0  0  1  0  0  0  0  0  0  0  0  0
    2.3088    3.7982   -0.1365 O   0  0  0  0  0  0  0  0  0  0  0  0
    2.2665    2.4099   -0.4747 C   0  0  0  0  0  0  0  0  0  0  0  0
    2.7557    2.0498   -1.9039 C   0  0  2  0  0  0  0  0  0  0  0  0
    2.2511    0.7658   -2.2852 O   0  0  0  0  0  0  0  0  0  0  0  0
    4.2828    1.9151   -1.9544 C   0  0  0  0  0  0  0  0  0  0  0  0
    4.8678    1.6769   -3.2702 N   0  0  0  0  0  0  0  0  0  0  0  0
    6.3504    1.7530   -3.2344 C   0  0  0  0  0  0  0  0  0  0  0  0
    6.9023    0.7051   -2.2560 C   0  0  0  0  0  0  0  0  0  0  0  0
    6.9216    1.3858   -4.6285 C   0  0  0  0  0  0  0  0  0  0  0  0
    6.8671    3.1625   -2.7779 C   0  0  0  0  0  0  0  0  0  0  0  0
    6.5056    4.3296   -3.6536 C   0  0  0  0  0  0  0  0  0  0  0  0
    5.8154    4.1695   -4.8504 C   0  0  0  0  0  0  0  0  0  0  0  0
    6.0251    5.0650   -5.8805 C   0  0  0  0  0  0  0  0  0  0  0  0
    6.6812    6.2733   -5.6160 C   0  0  0  0  0  0  0  0  0  0  0  0
    6.9188    7.4914   -6.8223 Cl  0  0  0  0  0  0  0  0  0  0  0  0
    7.0259    6.5739   -4.3067 C   0  0  0  0  0  0  0  0  0  0  0  0
    7.2455    7.8436   -3.9376 F   0  0  0  0  0  0  0  0  0  0  0  0
    7.0071    5.5897   -3.3353 C   0  0  0  0  0  0  0  0  0  0  0  0
    3.5373    5.8751   -0.1168 C   0  0  0  0  0  0  0  0  0  0  0  0
    3.6250    6.3897    1.1861 C   0  0  0  0  0  0  0  0  0  0  0  0
    3.7979    7.7428    1.3948 C   0  0  0  0  0  0  0  0  0  0  0  0
    3.9129    8.5881    0.2996 C   0  0  0  0  0  0  0  0  0  0  0  0
    3.8168    8.0865   -1.0051 C   0  0  0  0  0  0  0  0  0  0  0  0
    3.5226    6.7353   -1.2476 C   0  0  0  0  0  0  0  0  0  0  0  0
    3.1215    6.2942   -2.6224 C   0  0  0  0  0  0  0  0  0  0  0  0
    1.9149    5.6288   -2.8624 C   0  0  0  0  0  0  0  0  0  0  0  0
    1.5299    5.2197   -4.1615 C   0  0  0  0  0  0  0  0  0  0  0  0
    2.3049    5.5004   -5.2929 C   0  0  0  0  0  0  0  0  0  0  0  0
    1.8924    4.9472   -6.6318 C   0  0  0  0  0  0  0  0  0  0  0  0
    2.7236    4.9598   -7.6944 O   0  0  0  0  0  0  0  0  0  0  0  0
    0.7791    4.4176   -6.7594 O   0  0  0  0  0  0  0  0  0  0  0  0
    3.3476    6.3940   -5.0917 C   0  0  0  0  0  0  0  0  0  0  0  0
    3.8432    7.1880   -6.2539 C   0  0  0  0  0  0  0  0  0  0  0  0
    3.8204    6.6667   -3.7706 C   0  0  0  0  0  0  0  0  0  0  0  0
  2  1  1  1
  2  3  1  0
  2 21  1  0
  3  4  1  0
  5  7  1  0
  5  6  1  1
  5  4  1  0
  7  8  1  0
  8  9  1  0
  9 10  1  0
  9 11  1  0
  9 12  1  0
 12 13  1  0
 13 14  2  0
 13 20  1  0
 14 15  1  0
 15 16  2  0
 16 17  1  0
 16 18  1  0
 18 19  1  0
 18 20  2  0
 21 22  2  0
 21 26  1  0
 22 23  1  0
 23 24  2  0
 24 25  1  0
 25 26  2  0
 26 27  1  0
 27 28  2  0
 27 36  1  0
 28 29  1  0
 29 30  2  0
 30 31  1  0
 30 34  1  0
 31 32  1  0
 31 33  2  0
 34 35  1  0
 34 36  2  0
M  END
>  <DRUGBANK_ID>  (1) 
DB18096

>  <COMMON_NAME>  (1) 
Encaleret

>  <CAS_NUMBER>  (1) 
787583-71-5

>  <UNII>  (1) 
EF8081AQ6G

>  <SYNONYMS>  (1) 
(1,1'-biphenyl)-4-carboxylic acid, 2'-((1r)-1-((2r)-3-((2-(4-chloro-3-fluorophenyl)-1,1-dimethylethyl)amino)-2-hydroxypropoxy)ethyl)-3-methyl-; 2'-((1r)-1-(((1-(4-chloro-3-fluorophenyl)-2-methylpropan-2-yl)amino)-(2r)-2-hydroxypropoxy)ethyl)-3-methyl(1,1'-biphenyl)-4-carboxylic acid; 2'-((1r)-1-(((2r)-3-((1-(4-chloro-3-fluorophenyl)-2-methylpropan-2-yl)amino)-2-hydroxypropyl)oxy)ethyl)-3-methyl-1,1'-biphenyl-4-carboxylic acid; 2'-((1r)-1-((2r)-3-((1-(4-chloro-3-fluorophenyl)-2-methylpropan-2-yl)amino)-2-hydroxypropoxy)ethyl)-3-methyl(1,1'-biphenyl)-4-carboxylic acid; Encaleret

$$$$
