
     RDKit          3D

 29 30  0  0  0  0  0  0  0  0999 V2000
    1.0021    0.5256    0.3123 C   0  0  0  0  0  0  0  0  0  0  0  0
    0.5223    1.9265    0.2233 C   0  0  0  0  0  0  0  0  0  0  0  0
    1.0331    2.5304   -1.0498 C   0  0  0  0  0  0  0  0  0  0  0  0
    0.4260    1.8006   -2.2071 C   0  0  0  0  0  0  0  0  0  0  0  0
   -1.0523    1.9426   -2.4155 C   0  0  0  0  0  0  0  0  0  0  0  0
   -1.5114    3.3293   -2.6629 C   0  0  0  0  0  0  0  0  0  0  0  0
   -0.9821    3.7594   -3.9212 O   0  0  0  0  0  0  0  0  0  0  0  0
    0.3544    4.0130   -4.0229 C   0  0  0  0  0  0  0  0  0  0  0  0
    1.2152    4.1496   -3.2021 O   0  0  0  0  0  0  0  0  0  0  0  0
    0.6760    4.3195   -5.3934 C   0  0  0  0  0  0  0  0  0  0  0  0
    0.1275    5.5644   -5.7311 C   0  0  0  0  0  0  0  0  0  0  0  0
    0.5843    6.2334   -6.8420 C   0  0  0  0  0  0  0  0  0  0  0  0
    1.6205    5.6774   -7.5809 C   0  0  0  0  0  0  0  0  0  0  0  0
    2.1971    4.4516   -7.2071 C   0  0  0  0  0  0  0  0  0  0  0  0
    1.6947    3.6992   -6.1276 C   0  0  0  0  0  0  0  0  0  0  0  0
    2.3073    2.3304   -5.9318 C   0  0  0  0  0  0  0  0  0  0  0  0
    3.2867    2.0323   -6.6219 O   0  0  0  0  0  0  0  0  0  0  0  0
    1.8039    1.2144   -5.0878 C   0  0  0  0  0  0  0  0  0  0  0  0
    0.4760    0.7855   -5.1718 C   0  0  0  0  0  0  0  0  0  0  0  0
   -0.0158   -0.3060   -4.3731 C   0  0  0  0  0  0  0  0  0  0  0  0
    0.7641   -0.9672   -3.3906 C   0  0  0  0  0  0  0  0  0  0  0  0
    2.1405   -0.5745   -3.4147 C   0  0  0  0  0  0  0  0  0  0  0  0
    2.6355    0.5210   -4.1942 C   0  0  0  0  0  0  0  0  0  0  0  0
    3.8878    0.9783   -3.8333 O   0  0  0  0  0  0  0  0  0  0  0  0
    0.1758   -1.6515   -2.2732 N   0  0  0  0  0  0  0  0  0  0  0  0
    1.0404   -2.4560   -1.3397 C   0  0  0  0  0  0  0  0  0  0  0  0
    0.7435   -2.3664    0.1685 C   0  0  0  0  0  0  0  0  0  0  0  0
   -1.3007   -1.8756   -2.1094 C   0  0  0  0  0  0  0  0  0  0  0  0
   -2.1319   -0.6990   -1.6227 C   0  0  0  0  0  0  0  0  0  0  0  0
  1  2  1  0
  2  3  1  0
  3  4  1  0
  4  5  1  0
  5  6  1  0
  6  7  1  0
  7  8  1  0
  8  9  2  0
  8 10  1  0
 10 11  2  0
 10 15  1  0
 11 12  1  0
 12 13  2  0
 13 14  1  0
 14 15  2  0
 15 16  1  0
 16 17  2  0
 16 18  1  0
 18 19  2  0
 18 23  1  0
 19 20  1  0
 20 21  2  0
 21 22  1  0
 21 25  1  0
 22 23  2  0
 23 24  1  0
 25 26  1  0
 25 28  1  0
 26 27  1  0
 28 29  1  0
M  END
>  <DRUGBANK_ID>  (1) 
DB11269

>  <COMMON_NAME>  (1) 
Diethylamino hydroxybenzoyl hexyl benzoate

>  <CAS_NUMBER>  (1) 
302776-68-7

>  <UNII>  (1) 
ANQ870JD20

>  <SYNONYMS>  (1) 
Hexyl 2-(4-(diethylamino)-2-hydroxybenzoyl)benzoate

$$$$
