
     RDKit          3D

 39 44  0  0  1  0  0  0  0  0999 V2000
    0.9930    0.1736    0.0023 C   0  0  0  0  0  0  0  0  0  0  0  0
    0.5006   -1.2602    0.1533 C   0  0  0  0  0  0  0  0  0  0  0  0
    0.9137   -1.9675    1.4599 C   0  0  1  0  0  0  0  0  0  0  0  0
    2.1243   -1.3697    1.9556 O   0  0  0  0  0  0  0  0  0  0  0  0
   -0.1424   -1.8639    2.5884 C   0  0  0  0  0  0  0  0  0  0  0  0
   -0.4947   -3.2994    3.0627 C   0  0  0  0  0  0  0  0  0  0  0  0
    0.3298   -4.2059    2.2315 C   0  0  0  0  0  0  0  0  0  0  0  0
    0.3786   -5.6122    2.2258 C   0  0  0  0  0  0  0  0  0  0  0  0
    1.0830   -6.2959    1.2574 C   0  0  0  0  0  0  0  0  0  0  0  0
    1.6011   -5.5411    0.2769 C   0  0  0  0  0  0  0  0  0  0  0  0
    1.4391   -4.1438    0.2245 N   0  0  0  0  0  0  0  0  0  0  0  0
    0.9611   -3.4854    1.2673 C   0  0  0  0  0  0  0  0  0  0  0  0
    2.4685   -6.1427   -0.6595 N   0  0  0  0  0  0  0  0  0  0  0  0
    2.0986   -5.6341   -1.8543 N   0  0  0  0  0  0  0  0  0  0  0  0
    3.2478   -4.4049   -1.6542 C   0  0  0  0  0  0  0  0  0  0  0  0
    4.0643   -4.4672   -0.1096 C   0  0  0  0  0  0  0  0  0  0  0  0
    5.1696   -5.1440    0.2392 C   0  0  0  0  0  0  0  0  0  0  0  0
    1.7284   -6.9167   -2.3661 C   0  0  0  0  0  0  0  0  0  0  0  0
    0.5451   -7.3503   -2.5943 O   0  0  0  0  0  0  0  0  0  0  0  0
    2.7101   -7.9042   -2.0108 C   0  0  0  0  0  0  0  0  0  0  0  0
    3.1037   -9.2021   -2.1143 C   0  0  0  0  0  0  0  0  0  0  0  0
    4.3650   -9.5916   -1.7562 N   0  0  0  0  0  0  0  0  0  0  0  0
    5.1698   -8.6582   -1.2129 C   0  0  0  0  0  0  0  0  0  0  0  0
    6.5541   -8.9280   -1.1040 N   0  0  0  0  0  0  0  0  0  0  0  0
    7.6241   -8.1087   -0.6831 C   0  0  0  0  0  0  0  0  0  0  0  0
    7.6212   -7.4967    0.5671 C   0  0  0  0  0  0  0  0  0  0  0  0
    8.6422   -6.6112    0.9523 C   0  0  0  0  0  0  0  0  0  0  0  0
    9.6359   -6.1902    0.0618 C   0  0  0  0  0  0  0  0  0  0  0  0
    9.6226   -6.7741   -1.2050 C   0  0  0  0  0  0  0  0  0  0  0  0
    8.7185   -7.8227   -1.5167 C   0  0  0  0  0  0  0  0  0  0  0  0
   10.5603   -5.2628    0.4911 N   0  0  0  0  0  0  0  0  0  0  0  0
   11.5538   -5.6689    1.5000 C   0  0  0  0  0  0  0  0  0  0  0  0
   11.8092   -4.4998    2.4797 C   0  0  0  0  0  0  0  0  0  0  0  0
   12.2539   -3.2822    1.7619 N   0  0  0  0  0  0  0  0  0  0  0  0
   12.5387   -2.2012    2.6995 C   0  0  0  0  0  0  0  0  0  0  0  0
   11.1846   -2.9006    0.8042 C   0  0  0  0  0  0  0  0  0  0  0  0
   10.8885   -4.0285   -0.2323 C   0  0  0  0  0  0  0  0  0  0  0  0
    4.6202   -7.5176   -0.7656 N   0  0  0  0  0  0  0  0  0  0  0  0
    3.3025   -7.2799   -0.9848 C   0  0  0  0  0  0  0  0  0  0  0  0
  1  2  1  0
  3  2  1  0
  3  4  1  1
  3  5  1  0
  3 12  1  0
  5  6  1  0
  6  7  1  0
  7  8  2  0
  7 12  1  0
  8  9  1  0
  9 10  2  0
 10 11  1  0
 10 13  1  0
 11 12  2  0
 13 14  1  0
 13 39  1  0
 14 15  1  0
 14 18  1  0
 15 16  1  0
 16 17  2  0
 18 19  2  0
 18 20  1  0
 20 21  1  0
 20 39  2  0
 21 22  2  0
 22 23  1  0
 23 24  1  0
 23 38  2  0
 24 25  1  0
 25 26  2  0
 25 30  1  0
 26 27  1  0
 27 28  2  0
 28 29  1  0
 28 31  1  0
 29 30  2  0
 31 32  1  0
 31 37  1  0
 32 33  1  0
 33 34  1  0
 34 35  1  0
 34 36  1  0
 36 37  1  0
 38 39  1  0
M  END
>  <DRUGBANK_ID>  (1) 
DB18028

>  <COMMON_NAME>  (1) 
Azenosertib

>  <CAS_NUMBER>  (1) 
2376146-48-2

>  <UNII>  (1) 
9J13XU96Z1

>  <SYNONYMS>  (1) 
3h-pyrazolo(3,4-d)pyrimidin-3-one, 1-((7r)-7-ethyl-6,7-dihydro-7-hydroxy-5h-cyclopenta(b)pyridin-2-yl)-1,2-dihydro-6-((4-(4-methyl-1-piperazinyl)phenyl)amino)-2-(2-propen-1-yl)-

$$$$
