
     RDKit          3D

 23 22  0  0  0  0  0  0  0  0999 V2000
    1.1066    0.0813    0.7804 C   0  0  0  0  0  0  0  0  0  0  0  0
    0.6295   -0.0769   -0.6206 C   0  0  0  0  0  0  0  0  0  0  0  0
    1.1561   -1.4902   -1.0755 C   0  0  0  0  0  0  0  0  0  0  0  0
    0.3440   -2.7066   -0.7425 C   0  0  0  0  0  0  0  0  0  0  0  0
   -1.1430   -2.5097   -1.0078 C   0  0  0  0  0  0  0  0  0  0  0  0
   -1.5267   -2.5175   -2.4478 C   0  0  0  0  0  0  0  0  0  0  0  0
   -1.0015   -3.8597   -3.0768 C   0  0  0  0  0  0  0  0  0  0  0  0
   -1.8438   -5.0376   -2.9293 C   0  0  0  0  0  0  0  0  0  0  0  0
   -3.2803   -4.7556   -3.4056 C   0  0  0  0  0  0  0  0  0  0  0  0
   -3.6678   -4.3870   -4.8767 C   0  0  0  0  0  0  0  0  0  0  0  0
   -3.0986   -5.2704   -5.9935 N   0  0  0  0  0  0  0  0  0  0  0  0
   -3.4961   -6.6934   -5.5755 C   0  0  0  0  0  0  0  0  0  0  0  0
   -3.7505   -4.9923   -7.3556 C   0  0  0  0  0  0  0  0  0  0  0  0
   -1.5964   -5.1357   -6.2709 C   0  0  0  0  0  0  0  0  0  0  0  0
   -1.1113   -3.8151   -6.9569 C   0  0  0  0  0  0  0  0  0  0  0  0
   -1.5096   -2.4002   -6.4991 C   0  0  0  0  0  0  0  0  0  0  0  0
   -1.0220   -2.1272   -5.1551 C   0  0  0  0  0  0  0  0  0  0  0  0
    0.5066   -2.3744   -4.8812 C   0  0  0  0  0  0  0  0  0  0  0  0
    1.2482   -1.1545   -5.3089 C   0  0  0  0  0  0  0  0  0  0  0  0
    0.7684    0.1413   -4.6679 C   0  0  0  0  0  0  0  0  0  0  0  0
    1.1828    0.2631   -3.2314 C   0  0  0  0  0  0  0  0  0  0  0  0
    2.6592   -0.1138   -2.8318 C   0  0  0  0  0  0  0  0  0  0  0  0
    3.4556    1.1175   -3.0870 C   0  0  0  0  0  0  0  0  0  0  0  0
  1  2  1  0
  2  3  1  0
  3  4  1  0
  4  5  1  0
  5  6  1  0
  6  7  1  0
  7  8  1  0
  8  9  1  0
  9 10  1  0
 10 11  1  0
 11 12  1  0
 11 13  1  0
 11 14  1  0
 14 15  1  0
 15 16  1  0
 16 17  1  0
 17 18  1  0
 18 19  1  0
 19 20  1  0
 20 21  1  0
 21 22  1  0
 22 23  1  0
M  CHG  1  11   1
M  END
>  <DRUGBANK_ID>  (1) 
DB04221

>  <SECONDARY_ACCESSION_NUMBERS>  (1) 
EXPT00009; DB11287

>  <COMMON_NAME>  (1) 
Didecyldimethylammonium

>  <CAS_NUMBER>  (1) 
20256-56-8

>  <UNII>  (1) 
Z7F472XQPA

>  <SYNONYMS>  (1) 
Didecyl-dimethyl-ammonium; Didecyldimethylammonium cation; Didecyldimethylammonium ion; Didecyldimonium

$$$$
