
     RDKit          3D

 31 33  0  0  1  0  0  0  0  0999 V2000
    1.1120   -0.0307    0.0328 C   0  0  0  0  0  0  0  0  0  0  0  0
    1.1215   -2.0167    1.5368 C   0  0  0  0  0  0  0  0  0  0  0  0
   -7.2553   -1.2206    1.8046 C   0  0  0  0  0  0  0  0  0  0  0  0
   -6.8184   -3.7668    6.2543 C   0  0  0  0  0  0  0  0  0  0  0  0
   -6.7742   -4.2495    4.9407 C   0  0  0  0  0  0  0  0  0  0  0  0
   -6.5798   -2.4219    6.5533 C   0  0  0  0  0  0  0  0  0  0  0  0
   -6.5470   -3.9598    2.4680 C   0  0  0  0  0  0  0  0  0  0  0  0
   -4.5867   -4.6896    1.1737 C   0  0  0  0  0  0  0  0  0  0  0  0
   -3.7675   -2.0901    0.8036 C   0  0  0  0  0  0  0  0  0  0  0  0
   -0.6718   -4.0784    0.0129 C   0  0  0  0  0  0  0  0  0  0  0  0
   -1.4852   -0.9438   -1.2283 C   0  0  0  0  0  0  0  0  0  0  0  0
    0.5996   -1.4601    0.2019 C   0  0  0  0  0  0  0  0  0  0  0  0
   -6.3462   -3.4255    3.9075 C   0  0  0  0  0  0  0  0  0  0  0  0
   -5.4268   -3.6320    1.5445 C   0  0  0  0  0  0  0  0  0  0  0  0
   -3.2866   -4.4435    0.7547 C   0  0  0  0  0  0  0  0  0  0  0  0
   -1.0032   -5.3654    0.1692 C   0  0  0  0  0  0  0  0  0  0  0  0
   -6.1725   -1.5783    5.5510 C   0  0  0  0  0  0  0  0  0  0  0  0
   -2.8175   -3.1312    0.6094 C   0  0  0  0  0  0  0  0  0  0  0  0
   -0.9553   -1.5420    0.1060 C   0  0  2  0  0  0  0  0  0  0  0  0
   -5.1000   -2.3282    1.2024 C   0  0  0  0  0  0  0  0  0  0  0  0
   -5.9204   -2.1148    4.2976 C   0  0  0  0  0  0  0  0  0  0  0  0
   -2.4011   -5.6165    0.5528 C   0  0  0  0  0  0  0  0  0  0  0  0
   -0.0284   -6.4678   -0.0126 C   0  0  0  0  0  0  0  0  0  0  0  0
   -6.0250    0.1220    5.8216 Cl  0  0  0  0  0  0  0  0  0  0  0  0
   -5.2896   -1.2684    3.4800 F   0  0  0  0  0  0  0  0  0  0  0  0
   -1.4548   -2.9430    0.2525 N   0  0  0  0  0  0  0  0  0  0  0  0
   -1.0204   -1.6473   -2.3779 O   0  0  0  0  0  0  0  0  0  0  0  0
   -2.8433   -6.7489    0.7125 O   0  0  0  0  0  0  0  0  0  0  0  0
   -0.2323   -7.6509    0.0947 O   0  0  0  0  0  0  0  0  0  0  0  0
    1.2216   -6.0378   -0.3124 O   0  0  0  0  0  0  0  0  0  0  0  0
   -5.9122   -1.2185    1.2876 O   0  0  0  0  0  0  0  0  0  0  0  0
  5  4  2  0
  6  4  1  0
 12  1  1  0
 12  2  1  0
 13  5  1  0
 13  7  1  0
 14  7  1  0
 14  8  2  0
 15  8  1  0
 16 10  2  0
 17  6  2  0
 18  9  1  0
 18 15  2  0
 19 11  1  6
 19 12  1  0
 19 26  1  0
 20  9  2  0
 20 14  1  0
 21 13  2  0
 21 17  1  0
 22 15  1  0
 22 16  1  0
 23 16  1  0
 24 17  1  0
 25 21  1  0
 26 10  1  0
 26 18  1  0
 27 11  1  0
 28 22  2  0
 29 23  2  0
 30 23  1  0
 31  3  1  0
 31 20  1  0
M  END
>  <DRUGBANK_ID>  (1) 
DB09101

>  <SECONDARY_ACCESSION_NUMBERS>  (1) 
DB05618

>  <COMMON_NAME>  (1) 
Elvitegravir

>  <CAS_NUMBER>  (1) 
697761-98-1

>  <UNII>  (1) 
4GDQ854U53

>  <SYNONYMS>  (1) 
6-(3-chloro-2-fluorobenzyl)-1-[(2S)-1-hydroxy-3-methylbutan-2-yl]-7-methoxy-4-oxo-1,4-dihydroquinoline-3-carboxylic acid; Elvitegravir; elvit√©gravir; EVG; GS 9137

$$$$
