
     RDKit          3D

 30 35  0  0  0  0  0  0  0  0999 V2000
   -1.5168   -1.1106    0.0058 N   0  0  0  0  0  0  0  0  0  0  0  0
   -0.2071   -0.7093    0.0003 C   0  0  0  0  0  0  0  0  0  0  0  0
    0.9964   -1.4175    0.0040 C   0  0  0  0  0  0  0  0  0  0  0  0
    2.1903   -0.6695   -0.0023 C   0  0  0  0  0  0  0  0  0  0  0  0
    2.1310    0.7361   -0.0111 C   0  0  0  0  0  0  0  0  0  0  0  0
    0.9088    1.4225   -0.0117 C   0  0  0  0  0  0  0  0  0  0  0  0
   -0.2763    0.6774   -0.0121 C   0  0  0  0  0  0  0  0  0  0  0  0
   -1.5805    1.1015   -0.0309 N   0  0  0  0  0  0  0  0  0  0  0  0
   -2.3165    0.0073    0.0036 C   0  0  0  0  0  0  0  0  0  0  0  0
   -3.7702   -0.0509    0.0091 C   0  0  0  0  0  0  0  0  0  0  0  0
   -4.4591   -0.6824    1.0453 C   0  0  0  0  0  0  0  0  0  0  0  0
   -5.8432   -0.6747    1.0106 C   0  0  0  0  0  0  0  0  0  0  0  0
   -6.5659   -0.1119    0.0195 N   0  0  0  0  0  0  0  0  0  0  0  0
   -5.8754    0.4953   -0.9696 C   0  0  0  0  0  0  0  0  0  0  0  0
   -4.4940    0.5579   -1.0153 C   0  0  0  0  0  0  0  0  0  0  0  0
    3.4910   -1.3542    0.0060 C   0  0  0  0  0  0  0  0  0  0  0  0
    3.8294   -2.2445   -1.0319 C   0  0  0  0  0  0  0  0  0  0  0  0
    5.0778   -2.8664   -0.9650 C   0  0  0  0  0  0  0  0  0  0  0  0
    5.9856   -2.6480    0.0629 C   0  0  0  0  0  0  0  0  0  0  0  0
    5.6559   -1.7548    1.0890 C   0  0  0  0  0  0  0  0  0  0  0  0
    4.4056   -1.1221    1.0496 C   0  0  0  0  0  0  0  0  0  0  0  0
    7.1192   -3.3991   -0.1181 N   0  0  0  0  0  0  0  0  0  0  0  0
    6.9459   -4.0454   -1.2552 C   0  0  0  0  0  0  0  0  0  0  0  0
    5.7092   -3.7637   -1.7843 N   0  0  0  0  0  0  0  0  0  0  0  0
    7.9066   -4.9300   -1.8967 C   0  0  0  0  0  0  0  0  0  0  0  0
    8.3513   -4.6692   -3.1936 C   0  0  0  0  0  0  0  0  0  0  0  0
    9.3081   -5.5066   -3.7396 C   0  0  0  0  0  0  0  0  0  0  0  0
    9.8187   -6.5790   -3.0997 N   0  0  0  0  0  0  0  0  0  0  0  0
    9.3707   -6.8118   -1.8467 C   0  0  0  0  0  0  0  0  0  0  0  0
    8.4308   -6.0224   -1.2067 C   0  0  0  0  0  0  0  0  0  0  0  0
  1  2  1  0
  1  9  1  0
  2  3  2  0
  2  7  1  0
  3  4  1  0
  4  5  2  0
  4 16  1  0
  5  6  1  0
  6  7  2  0
  7  8  1  0
  8  9  2  0
  9 10  1  0
 10 11  2  0
 10 15  1  0
 11 12  1  0
 12 13  2  0
 13 14  1  0
 14 15  2  0
 16 17  2  0
 16 21  1  0
 17 18  1  0
 18 19  2  0
 18 24  1  0
 19 20  1  0
 19 22  1  0
 20 21  2  0
 22 23  2  0
 23 24  1  0
 23 25  1  0
 25 26  2  0
 25 30  1  0
 26 27  1  0
 27 28  2  0
 28 29  1  0
 29 30  2  0
M  END
>  <DRUGBANK_ID>  (1) 
DB15308

>  <COMMON_NAME>  (1) 
Ridinilazole

>  <CAS_NUMBER>  (1) 
308362-25-6

>  <UNII>  (1) 
06DX01190R

>  <SYNONYMS>  (1) 
Ridinilazole

$$$$
