
     RDKit          3D

 12 12  0  0  0  0  0  0  0  0999 V2000
   -1.3733   -0.1513   -0.0403 C   0  0  0  0  0  0  0  0  0  0  0  0
   -0.5430   -1.2860   -0.0089 C   0  0  0  0  0  0  0  0  0  0  0  0
   -0.7573    1.1229    0.0171 C   0  0  0  0  0  0  0  0  0  0  0  0
   -2.8883   -0.2111   -0.1961 C   0  0  0  0  0  0  0  0  0  0  0  0
    0.8464   -1.1532    0.0434 C   0  0  0  0  0  0  0  0  0  0  0  0
   -1.1077   -2.9189   -0.1020 Cl  0  0  0  0  0  0  0  0  0  0  0  0
    0.6373    1.2356   -0.0182 C   0  0  0  0  0  0  0  0  0  0  0  0
   -3.2908   -0.7791   -1.5638 C   0  0  0  0  0  0  0  0  0  0  0  0
   -3.5735   -0.9486    0.9560 C   0  0  0  0  0  0  0  0  0  0  0  0
    1.4461    0.1056   -0.0255 C   0  0  0  0  0  0  0  0  0  0  0  0
    1.2421    2.4611   -0.0810 O   0  0  0  0  0  0  0  0  0  0  0  0
    2.9340    0.1997   -0.1809 C   0  0  0  0  0  0  0  0  0  0  0  0
  1  2  2  0
  1  3  1  0
  1  4  1  0
  2  5  1  0
  2  6  1  0
  3  7  2  0
  4  8  1  0
  4  9  1  0
  5 10  2  0
  7 11  1  0
  7 10  1  0
 10 12  1  0
M  END
>  <DRUGBANK_ID>  (1) 
DB15886

>  <COMMON_NAME>  (1) 
Carvasept

>  <CAS_NUMBER>  (1) 
5665-94-1

>  <UNII>  (1) 
5EL163606Q

>  <SYNONYMS>  (1) 
Carvasept; Chlorcarvacrol; Chlorocarvacrol; MCIT

$$$$
