LK4
     RDKit          3D

 33 35  0  0  0  0  0  0  0  0999 V2000
   -3.0817    0.0016    0.0223 N   0  0  0  0  0  0  0  0  0  0  0  0
   -1.9298    0.0129   -0.0207 C   0  0  0  0  0  0  0  0  0  0  0  0
   -0.4916    0.0100   -0.0147 C   0  0  0  0  0  0  0  0  0  0  0  0
    0.1973   -1.2059    0.0160 C   0  0  0  0  0  0  0  0  0  0  0  0
    1.5876   -1.2175    0.1441 C   0  0  0  0  0  0  0  0  0  0  0  0
    0.2174    1.2162    0.0087 C   0  0  0  0  0  0  0  0  0  0  0  0
    1.6115    1.2091    0.1158 C   0  0  0  0  0  0  0  0  0  0  0  0
    2.3082   -0.0085    0.1982 C   0  0  0  0  0  0  0  0  0  0  0  0
    3.8225   -0.0377    0.1406 C   0  0  0  0  0  0  0  0  0  0  0  0
    4.4256    0.6193   -0.9914 O   0  0  0  0  0  0  0  0  0  0  0  0
    4.1443    0.1367   -2.2419 C   0  0  0  0  0  0  0  0  0  0  0  0
    2.8730   -0.2343   -2.6733 C   0  0  0  0  0  0  0  0  0  0  0  0
    2.5823   -0.6116   -3.9746 C   0  0  0  0  0  0  0  0  0  0  0  0
    5.1643    0.1493   -3.1835 C   0  0  0  0  0  0  0  0  0  0  0  0
    4.8730   -0.1890   -4.5269 C   0  0  0  0  0  0  0  0  0  0  0  0
    3.5628   -0.5659   -4.9286 C   0  0  0  0  0  0  0  0  0  0  0  0
    3.2128   -0.8643   -6.2594 C   0  0  0  0  0  0  0  0  0  0  0  0
    5.8262   -0.1191   -5.5208 C   0  0  0  0  0  0  0  0  0  0  0  0
    5.4234   -0.3558   -6.8432 C   0  0  0  0  0  0  0  0  0  0  0  0
    4.1687   -0.7688   -7.2374 C   0  0  0  0  0  0  0  0  0  0  0  0
    3.8120   -1.1036   -8.9530 S   0  0  0  0  0  0  0  0  0  0  0  0
    3.2126   -2.4136   -9.0689 O   0  0  0  0  0  0  0  0  0  0  0  0
    3.0970    0.0469   -9.4617 O   0  0  0  0  0  0  0  0  0  0  0  0
    5.3088   -1.1271   -9.8050 N   0  0  0  0  0  0  0  0  0  0  0  0
    6.4007   -2.0765   -9.4151 C   0  0  1  0  0  0  0  0  0  0  0  0
    6.0220   -3.5425   -9.5254 C   0  0  0  0  0  0  0  0  0  0  0  0
    6.4424   -4.3448  -10.3413 O   0  0  0  0  0  0  0  0  0  0  0  0
    5.1257   -3.8988   -8.5856 O   0  0  0  0  0  0  0  0  0  0  0  0
    7.6925   -1.7897  -10.2229 C   0  0  0  0  0  0  0  0  0  0  0  0
    8.2762   -0.3704  -10.1263 C   0  0  0  0  0  0  0  0  0  0  0  0
    8.8468    0.0019   -8.7777 C   0  0  0  0  0  0  0  0  0  0  0  0
    9.9931    0.3005   -8.5060 O   0  0  0  0  0  0  0  0  0  0  0  0
    7.9272    0.0082   -7.8266 O   0  0  0  0  0  0  0  0  0  0  0  0
  1  2  3  0
  2  3  1  0
  3  4  2  0
  3  6  1  0
  4  5  1  0
  5  8  2  0
  6  7  2  0
  7  8  1  0
  8  9  1  0
  9 10  1  0
 10 11  1  0
 11 12  2  0
 11 14  1  0
 12 13  1  0
 13 16  2  0
 14 15  2  0
 15 16  1  0
 15 18  1  0
 16 17  1  0
 17 20  2  0
 18 19  2  0
 19 20  1  0
 20 21  1  0
 21 22  2  0
 21 23  2  0
 21 24  1  0
 25 24  1  0
 25 26  1  0
 25 29  1  6
 26 27  2  0
 26 28  1  0
 29 30  1  0
 30 31  1  0
 31 32  2  0
 31 33  1  0
M  END
>  <DRUGBANK_ID>  (1) 
DB08108

>  <COMMON_NAME>  (1) 
N-({6-[(4-CYANOBENZYL)OXY]NAPHTHALEN-2-YL}SULFONYL)-D-GLUTAMIC ACID

$$$$
