
     RDKit          3D

 12 11  0  0  1  0  0  0  0  0999 V2000
   -5.1812   -7.7076    4.8239 N   0  0  0  0  0  0  0  0  0  0  0  0
   -5.6523   -7.4627    3.4646 C   0  0  0  0  0  0  0  0  0  0  0  0
   -5.0961   -6.1394    2.9336 C   0  0  0  0  0  0  0  0  0  0  0  0
   -3.5696   -6.1486    2.8795 C   0  0  0  0  0  0  0  0  0  0  0  0
   -3.0693   -7.2880    1.9983 C   0  0  0  0  0  0  0  0  0  0  0  0
   -3.5414   -7.1314    0.5506 C   0  0  0  0  0  0  0  0  0  0  0  0
   -2.9682   -5.8661   -0.0902 C   0  0  0  0  0  0  0  0  0  0  0  0
   -1.4291   -5.8479   -0.0760 C   0  0  2  0  0  0  0  0  0  0  0  0
   -0.9687   -5.0386   -1.2119 N   0  0  0  0  0  0  0  0  0  0  0  0
   -0.8224   -7.2719   -0.1797 C   0  0  0  0  0  0  0  0  0  0  0  0
   -0.0330   -7.6339    0.8601 O   0  0  0  0  0  0  0  0  0  0  0  0
   -1.0251   -8.0402   -1.1170 O   0  0  0  0  0  0  0  0  0  0  0  0
  1  2  1  0
  2  3  1  0
  3  4  1  0
  4  5  1  0
  5  6  1  0
  6  7  1  0
  8 10  1  0
  8  9  1  6
  8  7  1  0
 10 11  1  0
 10 12  2  0
M  END
>  <DRUGBANK_ID>  (1) 
DB04486

>  <SECONDARY_ACCESSION_NUMBERS>  (1) 
EXPT01745

>  <COMMON_NAME>  (1) 
(2s)-2,8-Diaminooctanoic Acid

$$$$
