
     RDKit          3D

 12 12  0  0  0  0  0  0  0  0999 V2000
    0.6725    0.0254    0.1381 C   0  0  0  0  0  0  0  0  0  0  0  0
    0.4966    1.5256    0.1601 C   0  0  0  0  0  0  0  0  0  0  0  0
    3.5528    0.3418   -0.2104 C   0  0  0  0  0  0  0  0  0  0  0  0
    4.4775    2.4673    0.3681 C   0  0  0  0  0  0  0  0  0  0  0  0
    4.2537   -0.2764    0.8276 C   0  0  0  0  0  0  0  0  0  0  0  0
    5.3421    1.8199    1.2632 C   0  0  0  0  0  0  0  0  0  0  0  0
    3.5026    1.7308   -0.3053 C   0  0  0  0  0  0  0  0  0  0  0  0
    5.1740    0.4671    1.5421 C   0  0  0  0  0  0  0  0  0  0  0  0
    2.4877    2.4003   -1.1551 C   0  0  0  0  0  0  0  0  0  0  0  0
    5.9610   -0.1070    2.4931 O   0  0  0  0  0  0  0  0  0  0  0  0
    2.8749    3.1804   -2.0330 O   0  0  0  0  0  0  0  0  0  0  0  0
    1.1604    2.1662   -0.9691 O   0  0  0  0  0  0  0  0  0  0  0  0
  2  1  1  0
  5  3  2  0
  6  4  1  0
  7  3  1  0
  7  4  2  0
  8  5  1  0
  8  6  2  0
  9  7  1  0
 10  8  1  0
 11  9  2  0
 12  2  1  0
 12  9  1  0
M  END
>  <DRUGBANK_ID>  (1) 
DB13628

>  <COMMON_NAME>  (1) 
Ethyl hydroxybenzoate

>  <CAS_NUMBER>  (1) 
120-47-8

>  <UNII>  (1) 
14255EXE39

>  <SYNONYMS>  (1) 
4-hydroxybenzoic acid ethyl ester; Ethyl p-hydroxybenzoate; Ethyl paraben; Ethylparaben; p-hydroxybenzoic acid ethyl ester; p-Oxybenzoesaeureaethylester

$$$$
