
     RDKit          3D

 32 35  0  0  0  0  0  0  0  0999 V2000
    7.0361   -4.5888    3.8059 C   0  0  1  0  0  0  0  0  0  0  0  0
    7.4390   -4.3309    1.9140 C   0  0  1  0  0  0  0  0  0  0  0  0
    6.6680   -9.3996    5.7187 C   0  0  1  0  0  0  0  0  0  0  0  0
    5.9990   -7.0922    4.3161 C   0  0  2  0  0  0  0  0  0  0  0  0
    6.4947   -5.9317    3.4174 C   0  0  2  0  0  0  0  0  0  0  0  0
    7.0846   -7.7320    5.1999 C   0  0  1  0  0  0  0  0  0  0  0  0
    5.2246   -9.7555    5.5703 C   0  0  0  0  0  0  0  0  0  0  0  0
    7.1823   -5.5043    0.5491 O   0  0  0  0  0  0  0  0  0  0  0  0
    8.1080   -5.1841    5.1629 C   0  0  0  0  0  0  0  0  0  0  0  0
    7.4424   -6.3628    6.1362 C   0  0  2  0  0  0  0  0  0  0  0  0
    7.1582  -11.1032    4.9345 C   0  0  0  0  0  0  0  0  0  0  0  0
    7.9827   -5.6920   -0.7257 C   0  0  0  0  0  0  0  0  0  0  0  0
    7.0540   -3.3961    0.4978 C   0  0  0  0  0  0  0  0  0  0  0  0
    5.1378  -10.9091    6.3290 C   0  0  0  0  0  0  0  0  0  0  0  0
    8.6631   -5.1845    2.0903 C   0  0  0  0  0  0  0  0  0  0  0  0
    7.8448   -6.3605    2.7349 C   0  0  0  0  0  0  0  0  0  0  0  0
    5.5139   -8.2319    3.4397 C   0  0  0  0  0  0  0  0  0  0  0  0
    6.5941  -12.3691    5.2256 C   0  0  0  0  0  0  0  0  0  0  0  0
    9.5099   -5.7840   -0.5905 C   0  0  0  0  0  0  0  0  0  0  0  0
    5.1102  -12.0813    5.4139 C   0  0  0  0  0  0  0  0  0  0  0  0
    4.6854   -9.3019    4.2169 C   0  0  0  0  0  0  0  0  0  0  0  0
    7.4435   -5.8378   -1.8327 O   0  0  0  0  0  0  0  0  0  0  0  0
    7.8539   -3.4024   -0.4479 O   0  0  0  0  0  0  0  0  0  0  0  0
    4.2307  -12.3580    4.7140 O   0  0  0  0  0  0  0  0  0  0  0  0
    6.3330   -3.5137    4.8590 C   0  0  0  0  0  0  0  0  0  0  0  0
    8.3621   -6.7264    7.1683 O   0  0  0  0  0  0  0  0  0  0  0  0
    9.9916   -7.4755   -0.8890 Cl  0  0  0  0  0  0  0  0  0  0  0  0
   10.4891   -4.6979   -1.6100 Cl  0  0  0  0  0  0  0  0  0  0  0  0
    5.8531   -2.7887    0.2379 O   0  0  0  0  0  0  0  0  0  0  0  0
    6.2991   -8.7855    7.2614 C   0  0  0  0  0  0  0  0  0  0  0  0
    5.5881   -2.3056   -1.1976 C   0  0  0  0  0  0  0  0  0  0  0  0
    6.7245   -1.6505   -2.0337 C   0  0  0  0  0  0  0  0  0  0  0  0
  1 25  1  1
  2  1  1  0
  2 13  1  0
  2  8  1  6
  3  6  1  0
  3 30  1  1
  4  5  1  0
  5  1  1  0
  6 10  1  1
  6  4  1  0
  7  3  1  0
  9  1  1  0
 10  9  1  0
 10 26  1  1
 11  3  1  0
 12  8  1  0
 14  7  2  0
 15  2  1  0
 15 16  1  0
  5 16  1  1
  4 17  1  6
 18 11  2  0
 19 12  1  0
 20 18  1  0
 20 14  1  0
 21 17  1  0
 21  7  1  0
 22 12  2  0
 23 13  2  0
 24 20  2  0
 27 19  1  0
 28 19  1  0
 29 13  1  0
 31 29  1  0
 32 31  1  0
M  END
>  <DRUGBANK_ID>  (1) 
DB05442

>  <COMMON_NAME>  (1) 
Etiprednol dicloacetate

>  <CAS_NUMBER>  (1) 
199331-40-3

>  <UNII>  (1) 
332VLD554F

>  <SYNONYMS>  (1) 
Etiprednol dicloacetate

$$$$
