
     RDKit          3D

 15 17  0  0  1  0  0  0  0  0999 V2000
    1.1919    0.0070    0.2104 C   0  0  0  0  0  0  0  0  0  0  0  0
    0.5026   -1.0948    0.8834 N   0  0  0  0  0  0  0  0  0  0  0  0
   -0.9930   -1.0687    0.7877 C   0  0  2  0  0  0  0  0  0  0  0  0
   -1.5207   -2.2487   -0.0996 C   0  0  0  0  0  0  0  0  0  0  0  0
   -1.1539   -2.0041   -1.5323 C   0  0  0  0  0  0  0  0  0  0  0  0
   -0.7952   -2.9725   -2.4666 C   0  0  0  0  0  0  0  0  0  0  0  0
   -0.3306   -2.5810   -3.7454 C   0  0  0  0  0  0  0  0  0  0  0  0
   -0.1925   -1.2238   -4.1001 C   0  0  0  0  0  0  0  0  0  0  0  0
   -0.5893   -0.2920   -3.1709 C   0  0  0  0  0  0  0  0  0  0  0  0
   -1.1016   -0.6923   -1.9521 C   0  0  0  0  0  0  0  0  0  0  0  0
   -1.3484    0.4329   -1.1592 N   0  0  0  0  0  0  0  0  0  0  0  0
   -0.9299    1.5666   -1.8732 C   0  0  0  0  0  0  0  0  0  0  0  0
   -0.8690    2.7241   -1.4802 O   0  0  0  0  0  0  0  0  0  0  0  0
   -0.5010    1.1003   -3.1435 N   0  0  0  0  0  0  0  0  0  0  0  0
   -1.6120    0.2697    0.2671 C   0  0  0  0  0  0  0  0  0  0  0  0
  1  2  1  0
  3  2  1  6
  3  4  1  0
  3 15  1  0
  4  5  1  0
  5  6  1  0
  5 10  2  0
  6  7  2  0
  7  8  1  0
  8  9  2  0
  9 10  1  0
  9 14  1  0
 10 11  1  0
 11 12  1  0
 11 15  1  0
 12 13  2  0
 12 14  1  0
M  END
>  <DRUGBANK_ID>  (1) 
DB06477

>  <COMMON_NAME>  (1) 
Sumanirole

>  <CAS_NUMBER>  (1) 
179386-43-7

>  <UNII>  (1) 
3E93IV1U45

>  <SYNONYMS>  (1) 
Sumanirole

$$$$
