
     RDKit          3D

 23 25  0  0  0  0  0  0  0  0999 V2000
    0.7806   -0.0148   -0.0220 Cl  0  0  0  0  0  0  0  0  0  0  0  0
    5.9098   -1.5701    0.0052 S   0  0  0  0  0  0  0  0  0  0  0  0
    3.3038    1.5757   -0.0213 S   0  0  0  0  0  0  0  0  0  0  0  0
    6.0903   -2.0262   -1.3387 O   0  0  0  0  0  0  0  0  0  0  0  0
    5.6500   -2.4845    1.1177 O   0  0  0  0  0  0  0  0  0  0  0  0
    6.1088    2.8654   -0.1268 O   0  0  0  0  0  0  0  0  0  0  0  0
    8.8173    2.6369   -0.0002 O   0  0  0  0  0  0  0  0  0  0  0  0
    7.1367   -0.5671    0.4919 N   0  0  0  0  0  0  0  0  0  0  0  0
   10.0347    0.7354   -0.2510 N   0  0  0  0  0  0  0  0  0  0  0  0
   11.1273   -1.2709    0.5305 N   0  0  0  0  0  0  0  0  0  0  0  0
    4.6173   -0.5328   -0.0235 C   0  0  0  0  0  0  0  0  0  0  0  0
    4.8610    0.8270   -0.0334 C   0  0  0  0  0  0  0  0  0  0  0  0
    7.3337    0.7502   -0.0635 C   0  0  0  0  0  0  0  0  0  0  0  0
    6.1697    1.4834   -0.0841 C   0  0  0  0  0  0  0  0  0  0  0  0
    3.3080   -1.0067   -0.0235 C   0  0  0  0  0  0  0  0  0  0  0  0
    2.4884    0.0740   -0.0211 C   0  0  0  0  0  0  0  0  0  0  0  0
    8.7833    1.3995   -0.1416 C   0  0  0  0  0  0  0  0  0  0  0  0
    8.2030   -1.3851    0.8689 C   0  0  0  0  0  0  0  0  0  0  0  0
   10.4398   -0.6401   -0.4814 C   0  0  0  0  0  0  0  0  0  0  0  0
    9.7947   -1.4047   -1.4498 C   0  0  0  0  0  0  0  0  0  0  0  0
   10.9903   -2.6445    0.6743 C   0  0  0  0  0  0  0  0  0  0  0  0
    9.6960   -2.8206   -1.2947 C   0  0  0  0  0  0  0  0  0  0  0  0
   10.2573   -3.4510   -0.1832 C   0  0  0  0  0  0  0  0  0  0  0  0
  1 16  1  0
  2  4  2  0
  2  5  2  0
  2  8  1  0
  2 11  1  0
  3 12  1  0
  3 16  1  0
  6 14  1  0
  7 17  2  0
  8 13  1  0
  8 18  1  0
  9 17  1  0
  9 19  1  0
 10 19  2  0
 10 21  1  0
 11 12  2  0
 11 15  1  0
 12 14  1  0
 13 14  2  0
 13 17  1  0
 15 16  2  0
 19 20  1  0
 20 22  2  0
 21 23  2  0
 22 23  1  0
M  END
>  <DRUGBANK_ID>  (1) 
DB06725

>  <COMMON_NAME>  (1) 
Lornoxicam

>  <CAS_NUMBER>  (1) 
70374-39-9

>  <UNII>  (1) 
ER09126G7A

>  <SYNONYMS>  (1) 
Chlortenoxicam; Lornoxicam; Lornoxicamum

$$$$
