
     RDKit          3D

 14 15  0  0  0  0  0  0  0  0999 V2000
    1.2481   -1.4144    0.0037 C   0  0  0  0  0  0  0  0  0  0  0  0
    2.4586   -0.7095   -0.0253 C   0  0  0  0  0  0  0  0  0  0  0  0
    2.4667    0.6842   -0.0126 C   0  0  0  0  0  0  0  0  0  0  0  0
    1.2521    1.3768    0.0204 C   0  0  0  0  0  0  0  0  0  0  0  0
   -1.2000    1.3847    0.0005 C   0  0  0  0  0  0  0  0  0  0  0  0
   -2.4143    0.6965   -0.0118 C   0  0  0  0  0  0  0  0  0  0  0  0
   -2.4206   -0.6943   -0.0040 C   0  0  0  0  0  0  0  0  0  0  0  0
   -1.2133   -1.3990    0.0134 C   0  0  0  0  0  0  0  0  0  0  0  0
    0.0207   -0.7233    0.0141 C   0  0  0  0  0  0  0  0  0  0  0  0
    0.0241    0.6917    0.0146 C   0  0  0  0  0  0  0  0  0  0  0  0
    3.9755   -1.6259   -0.0931 S   0  0  0  0  0  0  0  0  0  0  0  0
    4.1238   -2.3371    1.1583 O   0  0  0  0  0  0  0  0  0  0  0  0
    4.0247   -2.3160   -1.3621 O   0  0  0  0  0  0  0  0  0  0  0  0
    5.1648   -0.5333   -0.1311 O   0  0  0  0  0  0  0  0  0  0  0  0
  1  9  2  0
  2  1  1  0
  3  4  1  0
  3  2  2  0
  4 10  2  0
  5 10  1  0
  6  5  2  0
  7  8  2  0
  7  6  1  0
  8  9  1  0
 10  9  1  0
 11  2  1  0
 12 11  2  0
 13 11  2  0
 14 11  1  0
M  END
>  <DRUGBANK_ID>  (1) 
DB08254

>  <COMMON_NAME>  (1) 
2-Naphthalenesulfonic acid

>  <CAS_NUMBER>  (1) 
120-18-3

>  <UNII>  (1) 
O9S4K2S25E

>  <SYNONYMS>  (1) 
beta-Naphthalenesulfonic acid; beta-Naphthylsulfonic acid; Naphthalene-2-sulfonic acid; β-naphthalenesulfonic acid; β-naphthylsulfonic acid

$$$$
