
     RDKit          3D

 21 21  0  0  0  0  0  0  0  0999 V2000
    1.7311   -1.3491   -0.1312 C   0  0  2  0  0  0  0  0  0  0  0  0
    0.3353   -1.5290    0.1280 C   0  0  1  0  0  0  0  0  0  0  0  0
    1.8382    0.0484    0.1616 O   0  0  0  0  0  0  0  0  0  0  0  0
   -0.7952    0.0999   -0.6516 C   0  0  2  0  0  0  0  0  0  0  0  0
    1.2216    1.0775   -0.7141 C   0  0  1  0  0  0  0  0  0  0  0  0
   -0.2436    1.4054   -0.5259 C   0  0  2  0  0  0  0  0  0  0  0  0
   -0.4632   -2.9959    0.4048 N   0  0  0  0  0  0  0  0  0  0  0  0
   -2.6579    0.1419   -0.6797 O   0  0  0  0  0  0  0  0  0  0  0  0
   -0.3620    1.9773    0.7655 O   0  0  0  0  0  0  0  0  0  0  0  0
    1.9981    2.3331   -0.5544 C   0  0  0  0  0  0  0  0  0  0  0  0
    3.1851    1.8268    0.0200 O   0  0  0  0  0  0  0  0  0  0  0  0
   -1.0588   -3.4814    1.5916 C   0  0  0  0  0  0  0  0  0  0  0  0
   -1.5493   -4.6091    1.5699 O   0  0  0  0  0  0  0  0  0  0  0  0
   -1.1450   -2.6581    2.9001 C   0  0  0  0  0  0  0  0  0  0  0  0
    1.8979   -1.8069   -1.4389 O   0  0  0  0  0  0  0  0  0  0  0  0
   -1.4842   -1.0617    0.6131 C   0  0  0  0  0  0  0  0  0  0  0  0
   -0.8662   -1.6524   -1.4461 C   0  0  1  0  0  0  0  0  0  0  0  0
   -2.0958   -0.0870    1.1623 O   0  0  0  0  0  0  0  0  0  0  0  0
   -1.4581   -0.5527   -2.8308 N   0  0  0  0  0  0  0  0  0  0  0  0
    0.7734   -1.3961   -2.2103 C   0  0  0  0  0  0  0  0  0  0  0  0
   -0.2847   -0.3259    1.5577 O   0  0  0  0  0  0  0  0  0  0  0  0
  1  2  1  0
  1  3  1  0
  1 15  1  6
  2  4  1  0
  2  7  1  6
  3  5  1  0
  4  6  1  0
  4  8  1  1
  5  6  1  0
  5 10  1  1
  6  9  1  1
  7 12  1  0
 11 10  1  0
 13 12  2  0
 14 12  1  0
 16 17  1  0
 16 18  2  0
 17 19  1  6
 17 20  1  0
 20 15  1  0
 21 16  1  0
M  END
>  <DRUGBANK_ID>  (1) 
DB02397

>  <SECONDARY_ACCESSION_NUMBERS>  (1) 
EXPT03081

>  <COMMON_NAME>  (1) 
O-(N-acetyl-alpha-D-galactosaminyl)-L-serine

>  <CAS_NUMBER>  (1) 
67262-86-6

>  <SYNONYMS>  (1) 
Tn Antigen; Î±-D-GalNAc-Ser

$$$$
