
     RDKit          3D

 20 19  0  0  1  0  0  0  0  0999 V2000
    2.0054    1.8436   -1.0231 C   0  0  0  0  0  0  0  0  0  0  0  0
    3.4676    1.8854   -1.4145 C   0  0  0  0  0  0  0  0  0  0  0  0
    4.6012    2.1236   -0.0596 S   0  0  0  0  0  0  0  0  0  0  0  0
    4.3954    1.1740    1.0099 O   0  0  0  0  0  0  0  0  0  0  0  0
    5.9205    2.3799   -0.5846 O   0  0  0  0  0  0  0  0  0  0  0  0
    4.0362    3.5363    0.4841 O   0  0  0  0  0  0  0  0  0  0  0  0
    1.6189    0.7166   -0.0622 C   0  0  1  0  0  0  0  0  0  0  0  0
    0.1350    0.7456    0.3440 C   0  0  0  0  0  0  0  0  0  0  0  0
   -1.0899    0.4484   -0.9824 S   0  0  0  0  0  0  0  0  0  0  0  0
   -1.0527    2.1866   -2.0833 S   0  0  0  0  0  0  0  0  0  0  0  0
   -1.6807    1.6815   -3.7028 C   0  0  0  0  0  0  0  0  0  0  0  0
   -1.1733    0.3744   -4.3300 C   0  0  2  0  0  0  0  0  0  0  0  0
    0.3446    0.3451   -4.5886 C   0  0  0  0  0  0  0  0  0  0  0  0
    0.8063   -0.5298   -5.7716 C   0  0  0  0  0  0  0  0  0  0  0  0
    0.5336    0.1216   -7.4623 S   0  0  0  0  0  0  0  0  0  0  0  0
    0.6772    1.5684   -7.4398 O   0  0  0  0  0  0  0  0  0  0  0  0
    1.2482   -0.6922   -8.4096 O   0  0  0  0  0  0  0  0  0  0  0  0
   -1.0226   -0.1447   -7.7947 O   0  0  0  0  0  0  0  0  0  0  0  0
   -1.8733    0.2559   -5.5868 N   0  0  0  0  0  0  0  0  0  0  0  0
    2.0250   -0.5663   -0.6485 N   0  0  0  0  0  0  0  0  0  0  0  0
  1  2  1  0
  1  7  1  0
  2  3  1  0
  3  4  2  0
  3  5  2  0
  3  6  1  0
  7  8  1  0
  7 20  1  6
  8  9  1  0
  9 10  1  0
 10 11  1  0
 12 19  1  6
 12 13  1  0
 12 11  1  0
 13 14  1  0
 14 15  1  0
 15 16  2  0
 15 17  2  0
 15 18  1  0
M  END
>  <DRUGBANK_ID>  (1) 
DB13107

>  <COMMON_NAME>  (1) 
QGC-001

>  <CAS_NUMBER>  (1) 
648927-86-0

>  <UNII>  (1) 
638KY4573I

$$$$
