
     RDKit          3D

 10 10  0  0  1  0  0  0  0  0999 V2000
   -0.8938    0.1608    2.8827 O   0  0  0  0  0  0  0  0  0  0  0  0
   -0.1968    1.4017    2.8851 C   0  0  0  0  0  0  0  0  0  0  0  0
    0.9922    1.4834    1.9156 C   0  0  1  0  0  0  0  0  0  0  0  0
    1.6180    2.7712    2.0816 O   0  0  0  0  0  0  0  0  0  0  0  0
    2.6145    2.9689    1.0267 N   0  0  0  0  0  0  0  0  0  0  0  0
    3.7309    2.0847    1.3700 C   0  0  0  0  0  0  0  0  0  0  0  0
    3.2607    0.6311    1.2646 C   0  0  1  0  0  0  0  0  0  0  0  0
    4.2947   -0.2895    1.6312 O   0  0  0  0  0  0  0  0  0  0  0  0
    2.0449    0.3985    2.1767 C   0  0  2  0  0  0  0  0  0  0  0  0
    1.5178   -0.9091    1.9167 O   0  0  0  0  0  0  0  0  0  0  0  0
  1  2  1  0
  3  4  1  0
  3  9  1  0
  3  2  1  1
  4  5  1  0
  5  6  1  0
  6  7  1  0
  7  9  1  0
  7  8  1  1
  9 10  1  6
M  END
>  <DRUGBANK_ID>  (1) 
DB03862

>  <SECONDARY_ACCESSION_NUMBERS>  (1) 
EXPT02466

>  <COMMON_NAME>  (1) 
Tetrahydrooxazine

$$$$
