
     RDKit          3D

 31 33  0  0  1  0  0  0  0  0999 V2000
    2.9543    1.1889   -0.0133 N   0  0  0  0  0  0  0  0  0  0  0  0
    1.6982    0.6935   -0.0229 C   0  0  0  0  0  0  0  0  0  0  0  0
    0.6804    1.5098   -0.0560 N   0  0  0  0  0  0  0  0  0  0  0  0
   -0.5102    0.8762   -0.0316 C   0  0  0  0  0  0  0  0  0  0  0  0
   -1.7164    1.5112   -0.0421 N   0  0  0  0  0  0  0  0  0  0  0  0
   -2.7186    0.5739    0.0538 C   0  0  0  0  0  0  0  0  0  0  0  0
   -4.1549    0.9714    0.0586 C   0  0  0  0  0  0  0  0  0  0  0  0
   -4.9620    0.3132   -1.0714 C   0  0  0  0  0  0  0  0  0  0  0  0
   -4.9519   -1.2004   -1.0525 C   0  0  0  0  0  0  0  0  0  0  0  0
   -5.4487   -1.8250    0.2070 C   0  0  0  0  0  0  0  0  0  0  0  0
   -5.2306   -3.1389    0.4778 C   0  0  0  0  0  0  0  0  0  0  0  0
   -5.6421   -3.4655    1.7700 C   0  0  0  0  0  0  0  0  0  0  0  0
   -6.2447   -2.4502    2.4954 C   0  0  0  0  0  0  0  0  0  0  0  0
   -6.3394   -1.0710    1.4645 S   0  0  0  0  0  0  0  0  0  0  0  0
   -6.7954   -2.3527    3.8607 C   0  0  0  0  0  0  0  0  0  0  0  0
   -7.1802   -1.2999    4.3779 O   0  0  0  0  0  0  0  0  0  0  0  0
   -6.9056   -3.4784    4.6541 N   0  0  0  0  0  0  0  0  0  0  0  0
   -6.6466   -4.8663    4.3154 C   0  0  1  0  0  0  0  0  0  0  0  0
   -5.5388   -5.4753    5.1719 C   0  0  0  0  0  0  0  0  0  0  0  0
   -5.9213   -5.7073    6.6170 C   0  0  0  0  0  0  0  0  0  0  0  0
   -7.0703   -6.6694    6.8004 C   0  0  0  0  0  0  0  0  0  0  0  0
   -6.7095   -7.9365    7.0887 O   0  0  0  0  0  0  0  0  0  0  0  0
   -8.2230   -6.3421    6.7183 O   0  0  0  0  0  0  0  0  0  0  0  0
   -7.9024   -5.6437    3.8653 C   0  0  0  0  0  0  0  0  0  0  0  0
   -7.7611   -6.3336    2.7024 O   0  0  0  0  0  0  0  0  0  0  0  0
   -8.9897   -5.5874    4.4084 O   0  0  0  0  0  0  0  0  0  0  0  0
   -2.1124   -0.6658    0.1971 C   0  0  0  0  0  0  0  0  0  0  0  0
   -0.7353   -0.4749    0.0405 C   0  0  0  0  0  0  0  0  0  0  0  0
    0.3904   -1.3633    0.0137 C   0  0  0  0  0  0  0  0  0  0  0  0
    0.3143   -2.5873    0.0034 O   0  0  0  0  0  0  0  0  0  0  0  0
    1.5889   -0.6819    0.0023 N   0  0  0  0  0  0  0  0  0  0  0  0
  1  2  1  0
  2  3  2  0
  2 31  1  0
  3  4  1  0
  4  5  1  0
  4 28  2  0
  5  6  1  0
  6  7  1  0
  6 27  2  0
  7  8  1  0
  8  9  1  0
  9 10  1  0
 10 11  2  0
 10 14  1  0
 11 12  1  0
 12 13  2  0
 13 14  1  0
 13 15  1  0
 15 16  2  0
 15 17  1  0
 18 17  1  0
 18 19  1  1
 18 24  1  0
 19 20  1  0
 20 21  1  0
 21 22  1  0
 21 23  2  0
 24 25  1  0
 24 26  2  0
 27 28  1  0
 28 29  1  0
 29 30  2  0
 29 31  1  0
M  END
>  <DRUGBANK_ID>  (1) 
DB18023

>  <COMMON_NAME>  (1) 
AGF-94

>  <CAS_NUMBER>  (1) 
136784-51-5

>  <UNII>  (1) 
X28K3E95TF

>  <SYNONYMS>  (1) 
(5-(3-(2-amino-4-oxo-4,7-dihydro-3 h-pyrrolo(2,3-d)pyrimidin-6-yl)propyl)thiophene-2-carbonyl)-l-glutamic acid

$$$$
