
     RDKit          3D

 18 19  0  0  0  0  0  0  0  0999 V2000
    1.3117    0.8037    0.0402 C   0  0  0  0  0  0  0  0  0  0  0  0
    1.3761   -0.6598    0.0022 C   0  0  0  0  0  0  0  0  0  0  0  0
    0.1972   -1.2850   -0.0221 N   0  0  0  0  0  0  0  0  0  0  0  0
   -0.9382   -0.0686   -0.0189 S   0  0  0  0  0  0  0  0  0  0  0  0
    0.0586    1.2580    0.0204 N   0  0  0  0  0  0  0  0  0  0  0  0
    3.0904    5.3018    1.7007 C   0  0  0  0  0  0  0  0  0  0  0  0
    3.6460    5.8180    2.8736 C   0  0  0  0  0  0  0  0  0  0  0  0
    4.2551    4.9782    3.8088 C   0  0  0  0  0  0  0  0  0  0  0  0
    4.3565    3.6139    3.5180 C   0  0  0  0  0  0  0  0  0  0  0  0
    3.8089    3.0815    2.3420 C   0  0  0  0  0  0  0  0  0  0  0  0
    3.1601    3.9319    1.4421 C   0  0  0  0  0  0  0  0  0  0  0  0
    4.8625    5.5096    4.9348 N   0  0  0  0  0  0  0  0  0  0  0  0
    2.3361    3.3430   -0.0282 S   0  0  0  0  0  0  0  0  0  0  0  0
    3.2088    3.6606   -1.1333 O   0  0  0  0  0  0  0  0  0  0  0  0
    0.9809    3.8484    0.0496 O   0  0  0  0  0  0  0  0  0  0  0  0
    2.4036    1.6792    0.1515 N   0  0  0  0  0  0  0  0  0  0  0  0
    2.4115   -1.5391    0.0232 O   0  0  0  0  0  0  0  0  0  0  0  0
    3.7044   -0.9756    0.0305 C   0  0  0  0  0  0  0  0  0  0  0  0
  1  2  1  0
  2  3  2  0
  2 17  1  0
  3  4  1  0
  4  5  1  0
  5  1  2  0
  6 11  2  0
  6  7  1  0
  7  8  2  0
  8  9  1  0
  8 12  1  0
  9 10  2  0
 10 11  1  0
 11 13  1  0
 13 14  2  0
 13 15  2  0
 13 16  1  0
 16  1  1  0
 17 18  1  0
M  END
>  <DRUGBANK_ID>  (1) 
DB15975

>  <COMMON_NAME>  (1) 
Sulfametrole

>  <CAS_NUMBER>  (1) 
32909-92-5

>  <UNII>  (1) 
F5AK41IPQG

>  <SYNONYMS>  (1) 
Sulfametrole

$$$$
