
     RDKit          3D

 12 13  0  0  0  0  0  0  0  0999 V2000
    2.1634   -0.6565   -0.0011 C   0  0  0  0  0  0  0  0  0  0  0  0
    2.1285    0.7390   -0.0125 C   0  0  0  0  0  0  0  0  0  0  0  0
    0.9825   -1.4063    0.0083 C   0  0  0  0  0  0  0  0  0  0  0  0
    0.9050    1.4305   -0.0032 C   0  0  0  0  0  0  0  0  0  0  0  0
   -0.2209   -0.6919    0.0023 C   0  0  0  0  0  0  0  0  0  0  0  0
   -0.2951    0.6979    0.0032 C   0  0  0  0  0  0  0  0  0  0  0  0
   -2.3380    0.0167    0.0016 C   0  0  0  0  0  0  0  0  0  0  0  0
   -3.7825   -0.0737    0.0049 C   0  0  0  0  0  0  0  0  0  0  0  0
   -1.5286   -1.0946   -0.0105 N   0  0  0  0  0  0  0  0  0  0  0  0
   -1.6156    1.1273    0.0082 N   0  0  0  0  0  0  0  0  0  0  0  0
   -4.3947    1.1366    0.0201 O   0  0  0  0  0  0  0  0  0  0  0  0
   -4.4061   -1.1298   -0.0038 O   0  0  0  0  0  0  0  0  0  0  0  0
  2  1  2  0
  3  1  1  0
  4  2  1  0
  5  3  2  0
  6  4  2  0
  6  5  1  0
  8  7  1  0
  9  5  1  0
  9  7  1  0
 10  6  1  0
 10  7  2  0
 11  8  1  0
 12  8  2  0
M  END
>  <DRUGBANK_ID>  (1) 
DB03028

>  <SECONDARY_ACCESSION_NUMBERS>  (1) 
EXPT03110

>  <COMMON_NAME>  (1) 
1h-Benoximidazole-2-Carboxylic Acid

>  <UNII>  (1) 
C59S3E32RV

$$$$
