
     RDKit          3D

 15 15  0  0  1  0  0  0  0  0999 V2000
    2.8296   -0.4750   -0.0207 O   0  0  0  0  0  0  0  0  0  0  0  0
    1.5186   -0.1382   -0.4135 C   0  0  1  0  0  0  0  0  0  0  0  0
    0.5767   -1.2459    0.0117 C   0  0  0  0  0  0  0  0  0  0  0  0
   -0.8570   -0.8526   -0.3217 C   0  0  1  0  0  0  0  0  0  0  0  0
   -1.7472   -1.8523    0.1689 O   0  0  0  0  0  0  0  0  0  0  0  0
   -1.2181    0.5294    0.2528 C   0  0  2  0  0  0  0  0  0  0  0  0
   -2.4798    0.9911   -0.2244 O   0  0  0  0  0  0  0  0  0  0  0  0
   -0.1373    1.5532   -0.0958 C   0  0  1  0  0  0  0  0  0  0  0  0
   -0.3958    2.8580    0.6801 C   0  0  0  0  0  0  0  0  0  0  0  0
    0.6413    3.8233    0.4619 O   0  0  0  0  0  0  0  0  0  0  0  0
    2.1990    3.1965    0.8784 P   0  0  0  0  0  0  0  0  0  0  0  0
    2.7519    4.6364    0.3246 O   0  0  0  0  0  0  0  0  0  0  0  0
    1.8987    3.7529    2.3935 O   0  0  0  0  0  0  0  0  0  0  0  0
    3.5932    2.6355    1.2513 O   0  0  0  0  0  0  0  0  0  0  0  0
    1.1505    1.0480    0.2678 O   0  0  0  0  0  0  0  0  0  0  0  0
  2  1  1  1
  2  3  1  0
  2 15  1  0
  3  4  1  0
  4  5  1  1
  4  6  1  0
  6  7  1  6
  6  8  1  0
  8  9  1  1
  8 15  1  0
  9 10  1  0
 10 11  1  0
 11 12  1  0
 11 13  1  0
 11 14  2  0
M  END
>  <DRUGBANK_ID>  (1) 
DB02604

>  <SECONDARY_ACCESSION_NUMBERS>  (1) 
EXPT01099

>  <COMMON_NAME>  (1) 
2-Deoxy-Glucose-6-Phosphate

>  <UNII>  (1) 
ZFR70WJ2SL

$$$$
