
     RDKit          3D

 20 22  0  0  0  0  0  0  0  0999 V2000
    1.0045    0.5377   -0.5821 C   0  0  0  0  0  0  0  0  0  0  0  0
    0.5186    1.2896    0.7357 C   0  0  0  0  0  0  0  0  0  0  0  0
    0.6259    2.6989    0.1859 C   0  0  0  0  0  0  0  0  0  0  0  0
    1.8723    3.3596    0.2275 C   0  0  0  0  0  0  0  0  0  0  0  0
    2.0444    4.5657   -0.4173 C   0  0  0  0  0  0  0  0  0  0  0  0
    0.9838    5.0963   -1.1394 C   0  0  0  0  0  0  0  0  0  0  0  0
   -0.2430    4.4231   -1.2261 C   0  0  0  0  0  0  0  0  0  0  0  0
   -0.4416    3.2069   -0.5764 C   0  0  0  0  0  0  0  0  0  0  0  0
   -1.7737    2.4776   -0.7108 C   0  0  0  0  0  0  0  0  0  0  0  0
   -1.7858    1.0040   -0.3250 C   0  0  0  0  0  0  0  0  0  0  0  0
   -0.9544    0.9003    0.9140 C   0  0  0  0  0  0  0  0  0  0  0  0
   -1.4647    0.5285    1.9875 O   0  0  0  0  0  0  0  0  0  0  0  0
    1.2764    1.2337    2.1628 C   0  0  0  0  0  0  0  0  0  0  0  0
    1.2435   -0.0297    3.1143 C   0  0  0  0  0  0  0  0  0  0  0  0
    1.9073   -1.2645    2.5951 N   0  0  0  0  0  0  0  0  0  0  0  0
    1.2824   -2.5051    3.0579 C   0  0  0  0  0  0  0  0  0  0  0  0
    1.8071   -3.6974    2.2123 C   0  0  0  0  0  0  0  0  0  0  0  0
    1.5053   -3.5889    0.7123 C   0  0  0  0  0  0  0  0  0  0  0  0
    2.1087   -2.3175    0.2026 C   0  0  0  0  0  0  0  0  0  0  0  0
    1.7334   -1.2356    1.1738 C   0  0  0  0  0  0  0  0  0  0  0  0
  1  2  1  0
  2  3  1  0
  2 11  1  0
  2 13  1  0
  3  4  2  0
  3  8  1  0
  4  5  1  0
  5  6  2  0
  6  7  1  0
  7  8  2  0
  8  9  1  0
  9 10  1  0
 10 11  1  0
 11 12  2  0
 13 14  1  0
 14 15  1  0
 15 16  1  0
 15 20  1  0
 16 17  1  0
 17 18  1  0
 18 19  1  0
 19 20  1  0
M  END
>  <DRUGBANK_ID>  (1) 
DB13445

>  <COMMON_NAME>  (1) 
Nepinalone

>  <CAS_NUMBER>  (1) 
22443-11-4

>  <UNII>  (1) 
L9806LPR7G

>  <SYNONYMS>  (1) 
Nepinalone

$$$$
