
     RDKit          3D

 33 34  0  0  0  0  0  0  0  0999 V2000
    0.4257    0.5358    0.1540 C   0  0  0  0  0  0  0  0  0  0  0  0
   -0.8814    0.7046    2.3029 C   0  0  0  0  0  0  0  0  0  0  0  0
    3.3330   -5.1836    3.9461 C   0  0  0  0  0  0  0  0  0  0  0  0
    0.4265   -0.6153    7.9256 C   0  0  0  0  0  0  0  0  0  0  0  0
    2.9283    2.8927    2.7620 C   0  0  0  0  0  0  0  0  0  0  0  0
    1.9690   -0.4392    2.8623 C   0  0  0  0  0  0  0  0  0  0  0  0
    1.6304   -3.5273   -2.7885 C   0  0  0  0  0  0  0  0  0  0  0  0
    2.9247   -3.1164   -3.0816 C   0  0  0  0  0  0  0  0  0  0  0  0
    1.4408   -3.1229    1.9130 C   0  0  0  0  0  0  0  0  0  0  0  0
    1.4603   -3.5471    5.9253 C   0  0  0  0  0  0  0  0  0  0  0  0
    1.1016    1.1543    5.5640 C   0  0  0  0  0  0  0  0  0  0  0  0
    0.1164   -1.8085    2.2067 C   0  0  0  0  0  0  0  0  0  0  0  0
    2.9454   -3.2647    2.4689 C   0  0  0  0  0  0  0  0  0  0  0  0
    1.9595   -3.2032    4.6037 C   0  0  0  0  0  0  0  0  0  0  0  0
    1.9632   -2.4800    6.9094 C   0  0  0  0  0  0  0  0  0  0  0  0
    1.6358   -0.2115    5.8896 C   0  0  0  0  0  0  0  0  0  0  0  0
    2.2307    2.1653    5.1803 C   0  0  0  0  0  0  0  0  0  0  0  0
    1.1518   -3.0373   -1.6472 C   0  0  0  0  0  0  0  0  0  0  0  0
    3.7419   -2.2795   -2.2352 C   0  0  0  0  0  0  0  0  0  0  0  0
    3.9898    0.9058    3.7082 C   0  0  0  0  0  0  0  0  0  0  0  0
    4.5381    0.3818    2.2893 C   0  0  0  0  0  0  0  0  0  0  0  0
   -0.1790   -0.3999    1.6011 C   0  0  0  0  0  0  0  0  0  0  0  0
    2.7905   -3.8359    3.7838 C   0  0  0  0  0  0  0  0  0  0  0  0
    1.3087   -1.0950    6.8394 C   0  0  0  0  0  0  0  0  0  0  0  0
    3.1514    1.9621    3.9263 C   0  0  0  0  0  0  0  0  0  0  0  0
    2.3404   -0.7465    1.4116 C   0  0  0  0  0  0  0  0  0  0  0  0
    3.6104   -0.3783    1.2072 C   0  0  0  0  0  0  0  0  0  0  0  0
    1.9847   -2.1026   -0.9216 C   0  0  0  0  0  0  0  0  0  0  0  0
    3.2797   -1.7342   -1.0766 C   0  0  0  0  0  0  0  0  0  0  0  0
    1.3725   -1.5350    0.1618 C   0  0  0  0  0  0  0  0  0  0  0  0
    4.1000   -0.8992   -0.0959 C   0  0  0  0  0  0  0  0  0  0  0  0
    0.1771   -1.8807    0.0299 O   0  0  0  0  0  0  0  0  0  0  0  0
    5.3165   -0.6944   -0.3632 O   0  0  0  0  0  0  0  0  0  0  0  0
  8  7  2  0
 12  9  1  0
 13  9  1  0
 14 10  1  0
 15 10  1  0
 16 11  1  0
 17 11  1  0
 18  7  1  0
 19  8  1  0
 21 20  1  0
 22  1  1  0
 22  2  1  0
 22 12  2  3
 23  3  1  0
 23 13  1  0
 23 14  2  0
 24  4  1  0
 24 15  1  0
 24 16  2  0
 25  5  1  0
 25 17  1  0
 25 20  2  0
 26  6  1  0
 27 21  1  0
 27 26  2  0
 28 18  2  0
 29 19  2  0
 29 28  1  0
 30 26  1  0
 30 28  1  0
 31 27  1  0
 31 29  1  0
 32 30  2  0
 33 31  2  0
M  END
>  <DRUGBANK_ID>  (1) 
DB12148

>  <COMMON_NAME>  (1) 
Menatetrenone

>  <CAS_NUMBER>  (1) 
863-61-6

>  <UNII>  (1) 
27Y876D139

>  <SYNONYMS>  (1) 
menatetrenona; Menatetrenone

$$$$
