
     RDKit          3D

 22 24  0  0  0  0  0  0  0  0999 V2000
    1.2089    0.0792   -0.2525 C   0  0  0  0  0  0  0  0  0  0  0  0
    1.1393    2.0458    1.2425 C   0  0  0  0  0  0  0  0  0  0  0  0
    0.6726    2.0747    5.5051 C   0  0  0  0  0  0  0  0  0  0  0  0
   -4.8852   -2.6089    5.3816 C   0  0  0  0  0  0  0  0  0  0  0  0
    1.3339    0.9045    5.1722 C   0  0  0  0  0  0  0  0  0  0  0  0
   -3.7139   -3.3574    5.4447 C   0  0  0  0  0  0  0  0  0  0  0  0
   -1.3497   -0.8999    1.1651 C   0  0  0  0  0  0  0  0  0  0  0  0
   -0.6902    2.1922    5.2368 C   0  0  0  0  0  0  0  0  0  0  0  0
   -4.9161   -1.3855    4.7113 C   0  0  0  0  0  0  0  0  0  0  0  0
    0.6263   -0.1468    4.5879 C   0  0  0  0  0  0  0  0  0  0  0  0
   -2.5628   -2.8848    4.8197 C   0  0  0  0  0  0  0  0  0  0  0  0
   -2.8798    1.4462    4.3288 C   0  0  0  0  0  0  0  0  0  0  0  0
   -3.7083    0.4734    3.4857 C   0  0  0  0  0  0  0  0  0  0  0  0
   -0.7882    0.5187    1.1368 C   0  0  0  0  0  0  0  0  0  0  0  0
   -0.9174   -1.7211    2.3910 C   0  0  0  0  0  0  0  0  0  0  0  0
   -1.4138    1.1514    4.6120 C   0  0  0  0  0  0  0  0  0  0  0  0
   -3.7545   -0.8932    4.1080 C   0  0  0  0  0  0  0  0  0  0  0  0
   -0.7395   -0.0432    4.2654 C   0  0  0  0  0  0  0  0  0  0  0  0
   -2.5844   -1.6540    4.1589 C   0  0  0  0  0  0  0  0  0  0  0  0
    0.7386    0.6132    1.0532 N   0  0  0  0  0  0  0  0  0  0  0  0
   -1.3865   -1.1298    3.6589 N   0  0  0  0  0  0  0  0  0  0  0  0
    1.4146   -0.1172    1.9799 O   0  0  0  0  0  0  0  0  0  0  0  0
  5  3  2  0
  6  4  2  0
  8  3  1  0
  9  4  1  0
 10  5  1  0
 11  6  1  0
 13 12  1  0
 14  7  1  0
 15  7  1  0
 16  8  2  0
 16 12  1  0
 17  9  2  0
 17 13  1  0
 18 10  2  0
 18 16  1  0
 19 11  2  0
 19 17  1  0
 20  1  1  0
 20  2  1  0
 20 14  1  0
 20 22  1  0
 21 15  1  0
 21 18  1  0
 21 19  1  0
M  CHG  2  20   1  22  -1
M  END
>  <DRUGBANK_ID>  (1) 
DB13782

>  <COMMON_NAME>  (1) 
Imipramine oxide

>  <CAS_NUMBER>  (1) 
6829-98-7

>  <UNII>  (1) 
8MKS280XJW

>  <SYNONYMS>  (1) 
Imipramine N-oxide; Imipraminoxide

$$$$
