KJ2
     RDKit          3D

 25 27  0  0  0  0  0  0  0  0999 V2000
    0.1288   -0.9153   -0.0091 C   0  0  0  0  0  0  0  0  0  0  0  0
    0.7199    0.3485   -0.0331 C   0  0  0  0  0  0  0  0  0  0  0  0
   -1.2526   -1.0374    0.0018 C   0  0  0  0  0  0  0  0  0  0  0  0
   -2.0460    0.1078   -0.0292 C   0  0  0  0  0  0  0  0  0  0  0  0
   -1.4802    1.3952   -0.0690 C   0  0  0  0  0  0  0  0  0  0  0  0
   -0.0765    1.5020   -0.0672 C   0  0  0  0  0  0  0  0  0  0  0  0
   -3.3959   -0.1190   -0.0332 O   0  0  0  0  0  0  0  0  0  0  0  0
    0.8601   -2.0706    0.0004 O   0  0  0  0  0  0  0  0  0  0  0  0
    2.4390    0.4972   -0.0062 Cl  0  0  0  0  0  0  0  0  0  0  0  0
   -2.3222    2.5978   -0.0733 C   0  0  0  0  0  0  0  0  0  0  0  0
   -3.3393    3.0273    0.7724 C   0  0  0  0  0  0  0  0  0  0  0  0
   -3.0924    4.6055   -0.8501 N   0  0  0  0  0  0  0  0  0  0  0  0
   -3.7309    4.2850    0.2727 C   0  0  0  0  0  0  0  0  0  0  0  0
   -2.2596    3.5677   -1.0480 N   0  0  0  0  0  0  0  0  0  0  0  0
   -3.7243    2.4571    2.0398 C   0  0  0  0  0  0  0  0  0  0  0  0
   -2.7679    2.4438    3.0422 C   0  0  0  0  0  0  0  0  0  0  0  0
   -3.1852    2.2696    4.3524 C   0  0  0  0  0  0  0  0  0  0  0  0
   -5.3960    1.7916    3.6870 C   0  0  0  0  0  0  0  0  0  0  0  0
   -5.0522    2.1763    2.3762 C   0  0  0  0  0  0  0  0  0  0  0  0
   -4.4104    1.7346    4.6721 C   0  0  0  0  0  0  0  0  0  0  0  0
   -4.6811    1.1140    5.8594 O   0  0  0  0  0  0  0  0  0  0  0  0
   -3.5926    0.7716    6.7562 C   0  0  0  0  0  0  0  0  0  0  0  0
   -2.6140   -0.3567    6.3299 C   0  0  0  0  0  0  0  0  0  0  0  0
   -1.6578   -0.0643    5.1707 C   0  0  0  0  0  0  0  0  0  0  0  0
   -0.7006    1.0081    5.4682 N   0  0  0  0  0  0  0  0  0  0  0  0
  1  2  2  0
  1  3  1  0
  1  8  1  0
  2  6  1  0
  2  9  1  0
  3  4  2  0
  4  5  1  0
  4  7  1  0
  5  6  2  0
  5 10  1  0
 10 11  2  0
 10 14  1  0
 11 13  1  0
 11 15  1  0
 12 13  2  0
 12 14  1  0
 15 16  2  0
 15 19  1  0
 16 17  1  0
 17 20  2  0
 18 19  2  0
 18 20  1  0
 20 21  1  0
 21 22  1  0
 22 23  1  0
 23 24  1  0
 24 25  1  0
M  END
>  <DRUGBANK_ID>  (1) 
DB08045

>  <COMMON_NAME>  (1) 
4-{4-[4-(3-AMINOPROPOXY)PHENYL]-1H-PYRAZOL-5-YL}-6-CHLOROBENZENE-1,3-DIOL

$$$$
