
     RDKit          3D

 32 36  0  0  0  0  0  0  0  0999 V2000
    2.5132   -0.8282   -0.0286 C   0  0  0  0  0  0  0  0  0  0  0  0
    2.5546    0.5469    0.0055 C   0  0  0  0  0  0  0  0  0  0  0  0
    1.3577    1.1953    0.0581 C   0  0  0  0  0  0  0  0  0  0  0  0
    0.1239    0.5251   -0.0465 C   0  0  0  0  0  0  0  0  0  0  0  0
    0.0550   -0.8562   -0.0175 C   0  0  0  0  0  0  0  0  0  0  0  0
    1.2868   -1.5240   -0.0011 C   0  0  0  0  0  0  0  0  0  0  0  0
   -1.2175   -1.4763   -0.0010 C   0  0  0  0  0  0  0  0  0  0  0  0
   -2.3962   -0.7237   -0.0203 C   0  0  0  0  0  0  0  0  0  0  0  0
   -2.3079    0.6615   -0.0834 C   0  0  0  0  0  0  0  0  0  0  0  0
   -1.0387    1.2722   -0.1414 C   0  0  0  0  0  0  0  0  0  0  0  0
   -0.8426    2.6241   -0.1208 N   0  0  0  0  0  0  0  0  0  0  0  0
   -0.2579    3.4302   -1.1889 C   0  0  0  0  0  0  0  0  0  0  0  0
    0.5738    4.5959   -0.5531 C   0  0  0  0  0  0  0  0  0  0  0  0
    0.0089    5.3547    0.5899 N   0  0  0  0  0  0  0  0  0  0  0  0
   -0.5257    4.4439    1.6141 C   0  0  0  0  0  0  0  0  0  0  0  0
   -1.2991    3.2293    1.0762 C   0  0  0  0  0  0  0  0  0  0  0  0
   -1.0041    6.2653    0.1395 C   0  0  0  0  0  0  0  0  0  0  0  0
   -2.2408    5.5843   -0.3818 C   0  0  0  0  0  0  0  0  0  0  0  0
   -3.3960    5.0099    0.4939 C   0  0  0  0  0  0  0  0  0  0  0  0
   -4.0576    6.0100    1.3607 C   0  0  0  0  0  0  0  0  0  0  0  0
   -5.0877    6.6953    0.6647 O   0  0  0  0  0  0  0  0  0  0  0  0
   -4.6878    7.4446   -0.4125 C   0  0  0  0  0  0  0  0  0  0  0  0
   -4.2954    6.8847   -1.6366 C   0  0  0  0  0  0  0  0  0  0  0  0
   -3.4161    7.6315   -2.4341 C   0  0  0  0  0  0  0  0  0  0  0  0
   -3.3534    8.9852   -2.2302 C   0  0  0  0  0  0  0  0  0  0  0  0
   -4.0987    9.4978   -1.1691 C   0  0  0  0  0  0  0  0  0  0  0  0
   -4.6559    8.7597   -0.1962 N   0  0  0  0  0  0  0  0  0  0  0  0
   -4.2923   10.8626   -1.0872 N   0  0  0  0  0  0  0  0  0  0  0  0
   -3.5682   11.7276   -1.8777 C   0  0  0  0  0  0  0  0  0  0  0  0
   -3.1944   12.8032   -1.5055 O   0  0  0  0  0  0  0  0  0  0  0  0
   -3.3274   11.1783   -3.2747 C   0  0  0  0  0  0  0  0  0  0  0  0
   -2.5991    9.8593   -3.1815 C   0  0  0  0  0  0  0  0  0  0  0  0
  1  2  2  0
  1  6  1  0
  2  3  1  0
  3  4  2  0
  4  5  1  0
  4 10  1  0
  5  6  2  0
  5  7  1  0
  7  8  2  0
  8  9  1  0
  9 10  2  0
 10 11  1  0
 11 12  1  0
 11 16  1  0
 12 13  1  0
 13 14  1  0
 14 15  1  0
 14 17  1  0
 15 16  1  0
 17 18  1  0
 18 19  1  0
 19 20  1  0
 20 21  1  0
 21 22  1  0
 22 23  2  0
 22 27  1  0
 23 24  1  0
 24 25  2  0
 25 26  1  0
 25 32  1  0
 26 27  2  0
 26 28  1  0
 28 29  1  0
 29 30  2  0
 29 31  1  0
 31 32  1  0
M  END
>  <DRUGBANK_ID>  (1) 
DB12998

>  <COMMON_NAME>  (1) 
PF-00217830

>  <CAS_NUMBER>  (1) 
846032-02-8

>  <UNII>  (1) 
8BC08N1MS5

$$$$
