
     RDKit          3D

 37 41  0  0  0  0  0  0  0  0999 V2000
    1.0691   -0.0339    0.0639 P   0  0  2  0  0  0  0  0  0  0  0  0
    4.6241    1.0880   -2.6513 O   0  0  0  0  0  0  0  0  0  0  0  0
    4.0347    2.9107    1.6649 O   0  0  0  0  0  0  0  0  0  0  0  0
    0.9959    1.2633    1.0740 O   0  0  0  0  0  0  0  0  0  0  0  0
    0.8998    0.3324   -1.5246 O   0  0  0  0  0  0  0  0  0  0  0  0
    2.4769    4.1886   -0.8131 O   0  0  0  0  0  0  0  0  0  0  0  0
    3.3414    2.2202   -2.7100 O   0  0  0  0  0  0  0  0  0  0  0  0
   -0.6609   -0.0339    0.0639 O   0  0  0  0  0  0  0  0  0  0  0  0
    2.6174   -0.0339    0.0639 O   0  0  0  0  0  0  0  0  0  0  0  0
    3.6914    4.4394    5.0199 O   0  0  0  0  0  0  0  0  0  0  0  0
    4.6901    2.2701   -5.0439 N   0  0  0  0  0  0  0  0  0  0  0  0
    3.6333    4.7716    2.7671 N   0  0  0  0  0  0  0  0  0  0  0  0
    6.2074    2.1010   -6.6334 N   0  0  0  0  0  0  0  0  0  0  0  0
    3.0323    0.4849   -6.1015 N   0  0  0  0  0  0  0  0  0  0  0  0
    4.8233    6.2464    4.1755 N   0  0  0  0  0  0  0  0  0  0  0  0
    4.4384   -0.9426   -7.5685 N   0  0  0  0  0  0  0  0  0  0  0  0
    6.7548   -0.4207   -7.7540 N   0  0  0  0  0  0  0  0  0  0  0  0
    5.7781    8.1337    3.2241 N   0  0  0  0  0  0  0  0  0  0  0  0
    1.8156    2.3776    0.7771 C   0  0  2  0  0  0  0  0  0  0  0  0
    3.0132    1.1276   -1.5683 C   0  0  1  0  0  0  0  0  0  0  0  0
    2.2279    3.0448   -1.7144 C   0  0  2  0  0  0  0  0  0  0  0  0
    3.4598    2.2268    0.5629 C   0  0  1  0  0  0  0  0  0  0  0  0
    1.7031    3.5676    1.7080 C   0  0  0  0  0  0  0  0  0  0  0  0
    3.1226    3.8815   -3.2505 C   0  0  0  0  0  0  0  0  0  0  0  0
    4.6862    2.7090   -3.6696 C   0  0  1  0  0  0  0  0  0  0  0  0
    3.0177    3.4932    2.4917 C   0  0  1  0  0  0  0  0  0  0  0  0
    2.1154    0.0912   -2.2246 C   0  0  0  0  0  0  0  0  0  0  0  0
    4.3118    2.6642   -1.1076 C   0  0  0  0  0  0  0  0  0  0  0  0
    4.1570    1.2779   -5.9263 C   0  0  0  0  0  0  0  0  0  0  0  0
    5.8198    2.7857   -5.6135 C   0  0  0  0  0  0  0  0  0  0  0  0
    3.9557    5.5795    1.7104 C   0  0  0  0  0  0  0  0  0  0  0  0
    4.0255    5.1168    4.0502 C   0  0  0  0  0  0  0  0  0  0  0  0
    5.2794    1.1017   -6.7280 C   0  0  0  0  0  0  0  0  0  0  0  0
    4.3595    6.8185    1.8583 C   0  0  0  0  0  0  0  0  0  0  0  0
    5.4613   -0.1092   -7.3908 C   0  0  0  0  0  0  0  0  0  0  0  0
    4.9736    7.0407    3.1590 C   0  0  0  0  0  0  0  0  0  0  0  0
    3.2681   -0.5526   -7.0203 C   0  0  0  0  0  0  0  0  0  0  0  0
  1  4  1  0
  1  5  1  0
  1  8  1  1
  1  9  2  0
  2 20  1  0
  2 25  1  0
  3 22  1  0
  3 26  1  0
  5 27  1  0
  7 28  1  0
 10 32  2  0
 11 29  1  0
 11 30  1  0
 12 31  1  0
 12 32  1  0
 13 30  2  0
 13 33  1  0
 14 29  1  0
 14 37  2  0
 15 32  1  0
 15 36  2  0
 16 35  2  0
 16 37  1  0
 17 35  1  0
 18 36  1  0
 19  4  1  1
 19 22  1  0
 19 23  1  0
 20 21  1  0
 20 27  1  6
 21  6  1  1
 21 24  1  0
 22 28  1  6
 23 26  1  0
 24 25  1  0
 25 11  1  6
 26 12  1  6
 29 33  2  0
 31 34  2  0
 33 35  1  0
 34 36  1  0
M  END
>  <DRUGBANK_ID>  (1) 
DB02573

>  <SECONDARY_ACCESSION_NUMBERS>  (1) 
EXPT00997

>  <COMMON_NAME>  (1) 
2'-deoxycytidine-2'-deoxyadenosine-3',5'-monophosphate

$$$$
