
     RDKit          3D

 21 23  0  0  0  0  0  0  0  0999 V2000
    0.8331   -0.0153   -0.3296 C   0  0  0  0  0  0  0  0  0  0  0  0
   -0.4579    4.1425    7.6305 C   0  0  0  0  0  0  0  0  0  0  0  0
   -0.3083   -2.2773    7.9347 C   0  0  0  0  0  0  0  0  0  0  0  0
   -2.7419   -1.9307    7.2015 C   0  0  0  0  0  0  0  0  0  0  0  0
    0.3837   -1.4550   -0.0930 C   0  0  0  0  0  0  0  0  0  0  0  0
    0.9195   -2.1252    1.1916 C   0  0  0  0  0  0  0  0  0  0  0  0
   -1.2168    1.9099    8.5415 C   0  0  0  0  0  0  0  0  0  0  0  0
   -1.4064    0.5469    8.3491 C   0  0  0  0  0  0  0  0  0  0  0  0
   -0.3974    2.0505    6.2987 C   0  0  0  0  0  0  0  0  0  0  0  0
    0.8615   -0.0993    2.6609 C   0  0  0  0  0  0  0  0  0  0  0  0
   -0.1101   -2.0896    3.5206 C   0  0  0  0  0  0  0  0  0  0  0  0
   -0.7040    2.6739    7.5062 C   0  0  0  0  0  0  0  0  0  0  0  0
    0.5311   -1.4353    2.4714 C   0  0  0  0  0  0  0  0  0  0  0  0
   -0.5761    0.6774    6.0699 C   0  0  0  0  0  0  0  0  0  0  0  0
   -1.0933   -0.0789    7.1226 C   0  0  0  0  0  0  0  0  0  0  0  0
    0.4190    0.6275    3.7480 C   0  0  0  0  0  0  0  0  0  0  0  0
   -0.4399   -1.3852    4.6914 C   0  0  0  0  0  0  0  0  0  0  0  0
   -0.2125   -0.0040    4.8263 C   0  0  0  0  0  0  0  0  0  0  0  0
   -1.2676   -1.5802    6.9565 C   0  0  0  0  0  0  0  0  0  0  0  0
    0.6549    1.9730    3.7095 O   0  0  0  0  0  0  0  0  0  0  0  0
   -0.9883   -2.1642    5.6694 O   0  0  0  0  0  0  0  0  0  0  0  0
  5  1  1  0
  6  5  1  0
  8  7  2  0
 12  2  1  0
 12  7  1  0
 12  9  2  0
 13  6  1  0
 13 10  2  0
 13 11  1  0
 14  9  1  0
 15  8  1  0
 15 14  2  0
 16 10  1  0
 17 11  2  0
 18 14  1  0
 18 16  2  0
 18 17  1  0
 19  3  1  0
 19  4  1  0
 19 15  1  0
 20 16  1  0
 21 17  1  0
 21 19  1  0
M  END
>  <DRUGBANK_ID>  (1) 
DB14736

>  <COMMON_NAME>  (1) 
Cannabivarin

>  <CAS_NUMBER>  (1) 
33745-21-0

>  <UNII>  (1) 
MHH8UW410N

>  <SYNONYMS>  (1) 
Cannabivarol; CBV

$$$$
