
     RDKit          3D

 21 23  0  0  0  0  0  0  0  0999 V2000
    0.0999    1.2618    0.0003 C   0  0  0  0  0  0  0  0  0  0  0  0
    1.3780    0.7260    0.0086 C   0  0  0  0  0  0  0  0  0  0  0  0
   -1.6369    3.1567   -0.0046 C   0  0  0  0  0  0  0  0  0  0  0  0
   -0.2283    2.6865   -0.0171 C   0  0  0  0  0  0  0  0  0  0  0  0
   -2.4930    2.8326    1.0574 C   0  0  0  0  0  0  0  0  0  0  0  0
   -2.0788    3.9631   -1.0612 C   0  0  0  0  0  0  0  0  0  0  0  0
   -3.4176    4.3734   -1.0627 C   0  0  0  0  0  0  0  0  0  0  0  0
   -4.2653    4.0056   -0.0260 C   0  0  0  0  0  0  0  0  0  0  0  0
   -3.8361    3.2428    1.0648 C   0  0  0  0  0  0  0  0  0  0  0  0
   -4.0819    5.1239   -1.9865 N   0  0  0  0  0  0  0  0  0  0  0  0
   -5.3201    5.2343   -1.5695 C   0  0  0  0  0  0  0  0  0  0  0  0
   -5.4791    4.5592   -0.3769 N   0  0  0  0  0  0  0  0  0  0  0  0
    0.6351    3.5638   -0.0603 O   0  0  0  0  0  0  0  0  0  0  0  0
   -1.0739    0.0124   -0.0414 S   0  0  0  0  0  0  0  0  0  0  0  0
    0.1128   -1.2165   -0.0083 C   0  0  0  0  0  0  0  0  0  0  0  0
    1.3868   -0.6986    0.0065 C   0  0  0  0  0  0  0  0  0  0  0  0
   -6.3467    5.9081   -2.1878 N   0  0  0  0  0  0  0  0  0  0  0  0
   -6.2123    6.5950   -3.3765 C   0  0  0  0  0  0  0  0  0  0  0  0
   -7.1749    7.1814   -3.8704 O   0  0  0  0  0  0  0  0  0  0  0  0
   -4.9756    6.5682   -3.9321 O   0  0  0  0  0  0  0  0  0  0  0  0
   -4.7925    7.2674   -5.1628 C   0  0  0  0  0  0  0  0  0  0  0  0
  1 14  1  0
  1  2  2  0
  3  6  1  0
  3  4  1  0
  4  1  1  0
  4 13  2  0
  5  3  2  0
  5  9  1  0
  6  7  2  0
  7  8  1  0
  7 10  1  0
  8  9  2  0
  8 12  1  0
 10 11  2  0
 11 12  1  0
 11 17  1  0
 14 15  1  0
 15 16  2  0
 16  2  1  0
 17 18  1  0
 18 19  2  0
 18 20  1  0
 20 21  1  0
M  END
>  <DRUGBANK_ID>  (1) 
DB08313

>  <COMMON_NAME>  (1) 
Nocodazole

>  <CAS_NUMBER>  (1) 
31430-18-9

>  <UNII>  (1) 
SH1WY3R615

>  <SYNONYMS>  (1) 
Nocodazol; Nocodazole; Nocodazolum; Oncodazole

$$$$
