
     RDKit          3D

 28 30  0  0  0  0  0  0  0  0999 V2000
    1.3759   -0.2252   -0.0063 C   0  0  0  0  0  0  0  0  0  0  0  0
    3.1309   -0.4972    0.2324 S   0  0  0  0  0  0  0  0  0  0  0  0
    0.4952   -1.3102   -0.0160 C   0  0  0  0  0  0  0  0  0  0  0  0
    0.8632    1.0722   -0.0196 C   0  0  0  0  0  0  0  0  0  0  0  0
    3.8372    0.2689   -1.0744 N   0  0  0  0  0  0  0  0  0  0  0  0
    3.4644    0.1876    1.4630 O   0  0  0  0  0  0  0  0  0  0  0  0
    3.3757   -1.9172    0.0800 O   0  0  0  0  0  0  0  0  0  0  0  0
   -0.8996   -1.0949   -0.0424 C   0  0  0  0  0  0  0  0  0  0  0  0
   -0.5354    1.2704   -0.0054 C   0  0  0  0  0  0  0  0  0  0  0  0
    4.9427    1.1303   -0.8673 C   0  0  0  0  0  0  0  0  0  0  0  0
   -1.4520    0.1995   -0.0499 C   0  0  0  0  0  0  0  0  0  0  0  0
    5.9260    0.9466    0.0965 C   0  0  0  0  0  0  0  0  0  0  0  0
    4.9714    2.1407   -1.7566 N   0  0  0  0  0  0  0  0  0  0  0  0
   -2.8522    0.5030   -0.1281 N   0  0  0  0  0  0  0  0  0  0  0  0
    6.8941    1.9363    0.2637 C   0  0  0  0  0  0  0  0  0  0  0  0
    5.9339    3.0802   -1.5816 C   0  0  0  0  0  0  0  0  0  0  0  0
   -3.5919   -0.5059   -0.2244 N   0  0  0  0  0  0  0  0  0  0  0  0
    6.8918    3.0367   -0.5812 C   0  0  0  0  0  0  0  0  0  0  0  0
   -4.9714   -0.2179   -0.4440 C   0  0  0  0  0  0  0  0  0  0  0  0
   -5.4450    0.7116   -1.3882 C   0  0  0  0  0  0  0  0  0  0  0  0
   -5.9339   -1.0131    0.1945 C   0  0  0  0  0  0  0  0  0  0  0  0
   -6.8283    0.8612   -1.6917 C   0  0  0  0  0  0  0  0  0  0  0  0
   -7.3031   -0.9064   -0.1153 C   0  0  0  0  0  0  0  0  0  0  0  0
   -7.7518    0.0492   -1.0297 C   0  0  0  0  0  0  0  0  0  0  0  0
   -7.1866    1.8691   -2.7351 C   0  0  0  0  0  0  0  0  0  0  0  0
   -9.1028    0.1183   -1.2427 O   0  0  0  0  0  0  0  0  0  0  0  0
   -8.4966    2.0379   -3.0198 O   0  0  0  0  0  0  0  0  0  0  0  0
   -6.3286    2.5604   -3.2725 O   0  0  0  0  0  0  0  0  0  0  0  0
  1  2  1  0
  1  3  2  0
  1  4  1  0
  2  5  1  0
  2  6  2  0
  2  7  2  0
  3  8  1  0
  4  9  2  0
  5 10  1  0
  8 11  2  0
  9 11  1  0
 10 12  2  0
 10 13  1  0
 11 14  1  0
 12 15  1  0
 13 16  2  0
 14 17  2  0
 15 18  2  0
 16 18  1  0
 17 19  1  0
 19 20  2  0
 19 21  1  0
 20 22  1  0
 21 23  2  0
 22 24  2  0
 22 25  1  0
 23 24  1  0
 24 26  1  0
 25 27  1  0
 25 28  2  0
M  END
>  <DRUGBANK_ID>  (1) 
DB00795

>  <SECONDARY_ACCESSION_NUMBERS>  (1) 
APRD00152; DB08518

>  <COMMON_NAME>  (1) 
Sulfasalazine

>  <CAS_NUMBER>  (1) 
599-79-1

>  <UNII>  (1) 
3XC8GUZ6CB

>  <SYNONYMS>  (1) 
2-Hydroxy-5-((4-((2-pyridinylamino)sulfonyl)phenyl)azo)benzoic acid; 2-Hydroxy-5-[4-(pyridin-2-ylsulfamoyl)-phenylazo]-benzoic acid; 4-(Pyridyl-2-amidosulfonyl)-3'-carboxy-4'-hydroxyazobenzene; 5-((p-(2-Pyridylsulfamoyl)phenyl)azo)salicylic acid; 5-(4-(2-Pyridylsulfamoyl)phenylazo)-2-hydroxybenzoic acid; 5-(p-(2-Pyridylsulfamyl)phenylazo)salicylic acid; Azopyrin; Salazosulfapiridina; Salazosulfapyridine; Salazosulfapyridinum; Salicylazosulfapyridine; Sulfasalazin; Sulfasalazina; Sulfasalazine; Sulfasalazinum

$$$$
