
     RDKit          3D

 28 32  0  0  1  0  0  0  0  0999 V2000
    0.9958   -0.0342    0.0913 O   0  0  0  0  0  0  0  0  0  0  0  0
    2.2221   -0.0301    0.1810 C   0  0  0  0  0  0  0  0  0  0  0  0
    2.8938    1.1499    0.3550 N   0  0  0  0  0  0  0  0  0  0  0  0
    4.1717    1.1100    0.2823 C   0  0  0  0  0  0  0  0  0  0  0  0
    4.9293    2.2397    0.2207 O   0  0  0  0  0  0  0  0  0  0  0  0
    4.2365    3.5110    0.0695 C   0  0  0  0  0  0  0  0  0  0  0  0
    3.3813    3.6297   -1.2185 C   0  0  2  0  0  0  0  0  0  0  0  0
    3.6451    2.4943   -2.2216 C   0  0  0  0  0  0  0  0  0  0  0  0
    2.8524    2.6115   -3.3976 O   0  0  0  0  0  0  0  0  0  0  0  0
    3.1491    3.8428   -4.0355 C   0  0  0  0  0  0  0  0  0  0  0  0
    2.8704    5.0032   -3.0830 C   0  0  0  0  0  0  0  0  0  0  0  0
    3.6565    4.8952   -1.8780 O   0  0  0  0  0  0  0  0  0  0  0  0
    5.0124   -0.0744    0.1226 C   0  0  0  0  0  0  0  0  0  0  0  0
    4.3541   -1.2452    0.0829 C   0  0  0  0  0  0  0  0  0  0  0  0
    2.9627   -1.2237    0.1014 N   0  0  0  0  0  0  0  0  0  0  0  0
    2.1580   -2.4301    0.0742 C   0  0  0  0  0  0  0  0  0  0  0  0
    2.8555   -3.7735    0.0800 C   0  0  0  0  0  0  0  0  0  0  0  0
    4.3458   -3.7549    0.0409 C   0  0  0  0  0  0  0  0  0  0  0  0
    4.9844   -5.0208    0.0274 C   0  0  0  0  0  0  0  0  0  0  0  0
    6.3660   -5.1482   -0.0022 C   0  0  0  0  0  0  0  0  0  0  0  0
    7.1069   -3.9599    0.0291 C   0  0  0  0  0  0  0  0  0  0  0  0
    6.4694   -2.6902    0.0438 C   0  0  0  0  0  0  0  0  0  0  0  0
    5.0705   -2.5578    0.0399 C   0  0  0  0  0  0  0  0  0  0  0  0
    6.9462   -6.4788   -0.0687 C   0  0  0  0  0  0  0  0  0  0  0  0
    7.4551   -7.5855   -0.0682 C   0  0  0  0  0  0  0  0  0  0  0  0
    8.3366   -8.7171    0.1162 C   0  0  0  0  0  0  0  0  0  0  0  0
    8.7372   -9.5427   -1.0976 C   0  0  0  0  0  0  0  0  0  0  0  0
    8.1050  -10.2076    0.0848 C   0  0  0  0  0  0  0  0  0  0  0  0
  1  2  2  0
  2  3  1  0
  2 15  1  0
  3  4  2  0
  4  5  1  0
  4 13  1  0
  5  6  1  0
  7  6  1  1
  7  8  1  0
  7 12  1  0
  8  9  1  0
  9 10  1  0
 10 11  1  0
 11 12  1  0
 13 14  2  0
 14 15  1  0
 14 23  1  0
 15 16  1  0
 16 17  1  0
 17 18  1  0
 18 19  1  0
 18 23  2  0
 19 20  2  0
 20 21  1  0
 20 24  1  0
 21 22  2  0
 22 23  1  0
 24 25  3  0
 25 26  1  0
 26 27  1  0
 26 28  1  0
 27 28  1  0
M  END
>  <DRUGBANK_ID>  (1) 
DB15346

>  <COMMON_NAME>  (1) 
GLPG-1205

>  <CAS_NUMBER>  (1) 
1445847-37-9

>  <UNII>  (1) 
K9WR6LRA5D

$$$$
