
     RDKit          3D

 28 31  0  0  0  0  0  0  0  0999 V2000
    1.4049   -0.2138    0.0258 C   0  0  0  0  0  0  0  0  0  0  0  0
    0.5202   -1.2875    0.0299 C   0  0  0  0  0  0  0  0  0  0  0  0
    0.9221    1.0953    0.0210 C   0  0  0  0  0  0  0  0  0  0  0  0
   -0.8491   -1.0436   -0.0052 C   0  0  0  0  0  0  0  0  0  0  0  0
   -0.4483    1.3390    0.0427 C   0  0  0  0  0  0  0  0  0  0  0  0
   -9.5118    0.4537   -1.2682 C   0  0  0  0  0  0  0  0  0  0  0  0
   -8.7582    1.6385   -1.1840 C   0  0  0  0  0  0  0  0  0  0  0  0
   -5.9516   -0.7692    1.4997 C   0  0  0  0  0  0  0  0  0  0  0  0
   -6.8174    0.2911    2.1944 C   0  0  0  0  0  0  0  0  0  0  0  0
   -3.6358   -0.0636    0.7629 C   0  0  0  0  0  0  0  0  0  0  0  0
   -5.4180    0.1821   -0.7572 C   0  0  0  0  0  0  0  0  0  0  0  0
   -8.4095   -0.0954   -3.3620 C   0  0  0  0  0  0  0  0  0  0  0  0
   -4.9747   -0.2135    0.4985 C   0  0  0  0  0  0  0  0  0  0  0  0
   -1.3470    0.2765   -0.0333 C   0  0  0  0  0  0  0  0  0  0  0  0
   -9.4591   -0.2903   -2.4402 C   0  0  0  0  0  0  0  0  0  0  0  0
   -2.7841    0.4952   -0.2108 C   0  0  0  0  0  0  0  0  0  0  0  0
   -4.6915    1.0109   -1.6333 C   0  0  0  0  0  0  0  0  0  0  0  0
   -7.6578    1.8126   -2.0456 C   0  0  0  0  0  0  0  0  0  0  0  0
   -7.4850    0.9014   -3.0742 C   0  0  0  0  0  0  0  0  0  0  0  0
   -3.3342    1.1506   -1.3557 C   0  0  0  0  0  0  0  0  0  0  0  0
  -10.6524   -1.1031   -2.8114 C   0  0  0  0  0  0  0  0  0  0  0  0
   -5.5768    1.8373   -2.5320 C   0  0  0  0  0  0  0  0  0  0  0  0
   -7.5289    1.0601    1.1844 N   0  0  0  0  0  0  0  0  0  0  0  0
  -10.8614   -1.4229   -4.0611 N   0  0  0  0  0  0  0  0  0  0  0  0
  -11.6256   -1.4828   -1.9522 N   0  0  0  0  0  0  0  0  0  0  0  0
   -6.5214    2.5922   -1.9365 N   0  0  0  0  0  0  0  0  0  0  0  0
   -6.2702    1.2969   -3.6455 N   0  0  0  0  0  0  0  0  0  0  0  0
   -2.4899    1.9060   -2.1228 O   0  0  0  0  0  0  0  0  0  0  0  0
  2  1  2  0
  3  1  1  0
  4  2  1  0
  5  3  2  0
  7  6  2  0
  9  8  1  0
 13  8  1  0
 13 10  2  0
 13 11  1  0
 14  4  2  0
 14  5  1  0
 15  6  1  0
 15 12  2  0
 16 10  1  0
 16 14  1  0
 17 11  2  0
 18  7  1  0
 19 12  1  0
 19 18  2  0
 20 16  2  0
 20 17  1  0
 21 15  1  0
 22 17  1  0
 23  9  1  0
 24 21  2  0
 25 21  1  0
 26 18  1  0
 26 22  2  0
 27 19  1  0
 27 22  1  0
 28 20  1  0
M  CHG  1  23   1
M  END
>  <DRUGBANK_ID>  (1) 
DB04246

>  <SECONDARY_ACCESSION_NUMBERS>  (1) 
EXPT00268

>  <COMMON_NAME>  (1) 
CRA_23653

$$$$
