
     RDKit          3D

 27 31  0  0  0  0  0  0  0  0999 V2000
    0.9809   -0.0097   -0.0667 N   0  0  0  0  0  0  0  0  0  0  0  0
    0.2784    0.8001   -0.8566 C   0  0  0  0  0  0  0  0  0  0  0  0
   -0.8504    1.4138   -0.5894 N   0  0  0  0  0  0  0  0  0  0  0  0
   -1.1896    1.9995   -1.7828 C   0  0  0  0  0  0  0  0  0  0  0  0
   -2.2823    2.8009   -2.1376 C   0  0  0  0  0  0  0  0  0  0  0  0
   -2.3989    3.2196   -3.4758 C   0  0  0  0  0  0  0  0  0  0  0  0
   -1.4518    2.8152   -4.4350 C   0  0  0  0  0  0  0  0  0  0  0  0
   -0.3411    2.0333   -4.0886 C   0  0  0  0  0  0  0  0  0  0  0  0
   -0.2523    1.6723   -2.7489 C   0  0  0  0  0  0  0  0  0  0  0  0
    0.7277    0.9398   -2.1390 O   0  0  0  0  0  0  0  0  0  0  0  0
   -3.5421    4.0502   -3.8912 C   0  0  0  0  0  0  0  0  0  0  0  0
   -3.7191    5.2771   -3.3463 C   0  0  0  0  0  0  0  0  0  0  0  0
   -4.8004    6.0723   -3.7424 N   0  0  0  0  0  0  0  0  0  0  0  0
   -5.2065    7.3507   -3.3529 C   0  0  0  0  0  0  0  0  0  0  0  0
   -6.3222    7.5731   -4.1497 C   0  0  0  0  0  0  0  0  0  0  0  0
   -6.6468    6.5221   -4.9460 N   0  0  0  0  0  0  0  0  0  0  0  0
   -5.7195    5.6329   -4.7035 C   0  0  0  0  0  0  0  0  0  0  0  0
   -5.5395    4.3492   -5.2794 C   0  0  0  0  0  0  0  0  0  0  0  0
   -4.5020    3.5904   -4.8957 C   0  0  0  0  0  0  0  0  0  0  0  0
   -4.5602    8.2713   -2.4184 C   0  0  0  0  0  0  0  0  0  0  0  0
   -3.4442    8.0706   -1.9347 O   0  0  0  0  0  0  0  0  0  0  0  0
   -5.2507    9.4543   -2.1667 N   0  0  0  0  0  0  0  0  0  0  0  0
   -6.6057    9.4436   -1.6264 C   0  0  0  0  0  0  0  0  0  0  0  0
   -7.4740   10.4261   -2.4148 C   0  0  0  0  0  0  0  0  0  0  0  0
   -6.9078   11.7461   -2.3800 O   0  0  0  0  0  0  0  0  0  0  0  0
   -5.5759   11.7472   -2.9392 C   0  0  0  0  0  0  0  0  0  0  0  0
   -4.6442   10.7963   -2.1529 C   0  0  0  0  0  0  0  0  0  0  0  0
  1  2  1  0
  2  3  2  0
  2 10  1  0
  3  4  1  0
  4  5  2  0
  4  9  1  0
  5  6  1  0
  6  7  2  0
  6 11  1  0
  7  8  1  0
  8  9  2  0
  9 10  1  0
 11 12  2  0
 11 19  1  0
 12 13  1  0
 13 14  1  0
 13 17  1  0
 14 15  2  0
 14 20  1  0
 15 16  1  0
 16 17  2  0
 17 18  1  0
 18 19  2  0
 20 21  2  0
 20 22  1  0
 22 23  1  0
 22 27  1  0
 23 24  1  0
 24 25  1  0
 25 26  1  0
 26 27  1  0
M  END
>  <DRUGBANK_ID>  (1) 
DB14935

>  <COMMON_NAME>  (1) 
Serabelisib

>  <CAS_NUMBER>  (1) 
1268454-23-4

>  <UNII>  (1) 
43J9Q56T3W

>  <SYNONYMS>  (1) 
Serabelisib

$$$$
