
     RDKit          3D

 21 18  0  0  0  0  0  0  0  0999 V2000
   -1.2700    0.6672   -0.7167 Mg  0  0  0  0  0 15  0  0  0  0  0  0
    1.2130   -1.5632    0.1613 C   0  0  0  0  0  0  0  0  0  0  0  0
    0.5434   -1.4227   -0.9213 O   0  0  0  0  0  0  0  0  0  0  0  0
    0.8796   -1.4045    1.3705 O   0  0  0  0  0  0  0  0  0  0  0  0
    2.6510   -1.6451    0.0379 C   0  0  0  0  0  0  0  0  0  0  0  0
    3.2484   -1.8444   -1.1306 C   0  0  0  0  0  0  0  0  0  0  0  0
    4.7050   -1.8173   -1.0631 C   0  0  0  0  0  0  0  0  0  0  0  0
    5.4210   -1.9688   -1.9794 O   0  0  0  0  0  0  0  0  0  0  0  0
    5.0006   -1.5989    0.2724 O   0  0  0  0  0  0  0  0  0  0  0  0
    6.2344   -1.0299    0.3983 C   0  0  0  0  0  0  0  0  0  0  0  0
    7.3297   -1.9496    0.7274 C   0  0  0  0  0  0  0  0  0  0  0  0
    0.8280    1.3899    0.0694 C   0  0  0  0  0  0  0  0  0  0  0  0
    0.1561    2.2555   -0.5774 O   0  0  0  0  0  0  0  0  0  0  0  0
   -0.0382    0.5303    0.4117 O   0  0  0  0  0  0  0  0  0  0  0  0
    2.3925    1.2373   -0.0975 C   0  0  0  0  0  0  0  0  0  0  0  0
    3.3473    2.0370    0.4181 C   0  0  0  0  0  0  0  0  0  0  0  0
    4.9200    1.9436    0.4991 C   0  0  0  0  0  0  0  0  0  0  0  0
    5.4603    2.5208    1.4387 O   0  0  0  0  0  0  0  0  0  0  0  0
    5.6951    1.2447   -0.4225 O   0  0  0  0  0  0  0  0  0  0  0  0
    7.3036    1.0453   -0.3116 C   0  0  0  0  0  0  0  0  0  0  0  0
    7.8062    1.9832   -1.2866 C   0  0  0  0  0  0  0  0  0  0  0  0
  2  3  2  0
  2  4  1  0
  2  5  1  0
  5  6  2  0
  6  7  1  0
  7  8  2  0
  7  9  1  0
  9 10  1  0
 10 11  1  0
 12 13  2  0
 12 14  1  0
 12 15  1  0
 15 16  2  0
 16 17  1  0
 17 18  2  0
 17 19  1  0
 19 20  1  0
 20 21  1  0
M  CHG  3   1   2   4  -1  14  -1
M  END
>  <DRUGBANK_ID>  (1) 
DB15817

>  <COMMON_NAME>  (1) 
Magnesium monoethylfumarate

>  <CAS_NUMBER>  (1) 
83918-60-9

>  <UNII>  (1) 
D5767608S8

>  <SYNONYMS>  (1) 
Magnesium diethyl difumarate; Magnesium monoethyl fumarate

$$$$
