
     RDKit          3D

 20 22  0  0  0  0  0  0  0  0999 V2000
    0.0576   -1.0996    0.0120 C   0  0  0  0  0  0  0  0  0  0  0  0
   -1.3476   -0.9225   -0.0308 C   0  0  0  0  0  0  0  0  0  0  0  0
   -1.9240    0.3829   -0.0652 C   0  0  0  0  0  0  0  0  0  0  0  0
   -1.0604    1.4674   -0.0213 C   0  0  0  0  0  0  0  0  0  0  0  0
    0.3194    1.2928    0.0215 C   0  0  0  0  0  0  0  0  0  0  0  0
    0.8772    0.0224    0.0228 C   0  0  0  0  0  0  0  0  0  0  0  0
    2.2401   -0.0427    0.0234 O   0  0  0  0  0  0  0  0  0  0  0  0
   -3.4144    0.7105   -0.2407 C   0  0  0  0  0  0  0  0  0  0  0  0
   -4.0790    1.8574    0.6939 C   0  0  0  0  0  0  0  0  0  0  0  0
   -4.6361    3.4722    0.4855 C   0  0  0  0  0  0  0  0  0  0  0  0
   -4.7043    4.5210   -0.4802 C   0  0  0  0  0  0  0  0  0  0  0  0
   -5.7764    4.5449   -1.3846 C   0  0  0  0  0  0  0  0  0  0  0  0
   -6.1530    5.4986   -2.2842 O   0  0  0  0  0  0  0  0  0  0  0  0
   -5.1955    0.9479    1.2863 N   0  0  0  0  0  0  0  0  0  0  0  0
   -5.9061    1.4810    2.4550 C   0  0  0  0  0  0  0  0  0  0  0  0
   -5.7086    2.9669    2.5274 C   0  0  0  0  0  0  0  0  0  0  0  0
   -5.8528    3.4445    1.0996 C   0  0  0  0  0  0  0  0  0  0  0  0
   -6.8096    3.0787    0.1258 C   0  0  0  0  0  0  0  0  0  0  0  0
   -6.6907    3.5415   -1.1805 C   0  0  0  0  0  0  0  0  0  0  0  0
   -7.3990    3.0556   -2.2224 O   0  0  0  0  0  0  0  0  0  0  0  0
  1  2  2  0
  1  6  1  0
  2  3  1  0
  3  4  2  0
  3  8  1  0
  4  5  1  0
  5  6  2  0
  6  7  1  0
  8  9  1  0
  9 10  1  0
  9 14  1  0
 10 11  2  0
 10 17  1  0
 11 12  1  0
 12 13  1  0
 12 19  2  0
 14 15  1  0
 15 16  1  0
 16 17  1  0
 17 18  2  0
 18 19  1  0
 19 20  1  0
M  END
>  <DRUGBANK_ID>  (1) 
DB12779

>  <COMMON_NAME>  (1) 
Higenamine

>  <CAS_NUMBER>  (1) 
5843-65-2

>  <UNII>  (1) 
TBV5O16GAP

$$$$
