
     RDKit          3D

  7  7  0  0  0  0  0  0  0  0999 V2000
    0.7400    0.0507   -0.3512 N   0  0  0  0  0  0  0  0  0  0  0  0
    0.5533    0.0503    1.1271 C   0  0  0  0  0  0  0  0  0  0  0  0
   -0.7473   -0.5169    1.6904 C   0  0  0  0  0  0  0  0  0  0  0  0
   -0.5808    0.9667    1.5964 C   0  0  0  0  0  0  0  0  0  0  0  0
    1.8541   -0.1029    1.9274 C   0  0  0  0  0  0  0  0  0  0  0  0
    3.0052   -0.2541    1.1975 O   0  0  0  0  0  0  0  0  0  0  0  0
    1.8883   -0.0589    3.1418 O   0  0  0  0  0  0  0  0  0  0  0  0
  1  2  1  0
  2  3  1  0
  2  4  1  0
  2  5  1  0
  3  4  1  0
  5  6  1  0
  5  7  2  0
M  END
>  <DRUGBANK_ID>  (1) 
DB02085

>  <SECONDARY_ACCESSION_NUMBERS>  (1) 
EXPT00065

>  <COMMON_NAME>  (1) 
1-Aminocyclopropanecarboxylic Acid

>  <CAS_NUMBER>  (1) 
22059-21-8

>  <UNII>  (1) 
3K9EJ633GL

$$$$
