
     RDKit          3D

 30 33  0  0  0  0  0  0  0  0999 V2000
    1.3217    0.1856   -1.1139 C   0  0  0  0  0  0  0  0  0  0  0  0
   -2.2187    2.4698    4.4324 C   0  0  0  0  0  0  0  0  0  0  0  0
   -1.9441    3.7602    4.0746 C   0  0  0  0  0  0  0  0  0  0  0  0
   -1.4645   -0.7585    2.9345 C   0  0  0  0  0  0  0  0  0  0  0  0
   -1.1993    1.5892    4.2406 C   0  0  0  0  0  0  0  0  0  0  0  0
   -0.7639    4.0896    3.3890 C   0  0  0  0  0  0  0  0  0  0  0  0
    4.4167    1.1751    0.6324 C   0  0  0  0  0  0  0  0  0  0  0  0
    3.6449    2.2642    1.0287 C   0  0  0  0  0  0  0  0  0  0  0  0
   -1.7975   -0.8382    1.4924 C   0  0  0  0  0  0  0  0  0  0  0  0
    0.0604   -0.4099    3.3598 C   0  0  0  0  0  0  0  0  0  0  0  0
   -1.7898   -3.2032    0.9515 C   0  0  0  0  0  0  0  0  0  0  0  0
    0.4899   -2.0868    1.3119 C   0  0  0  0  0  0  0  0  0  0  0  0
   -1.1992   -4.0190    2.1008 C   0  0  0  0  0  0  0  0  0  0  0  0
    0.8628   -2.9273    2.5290 C   0  0  0  0  0  0  0  0  0  0  0  0
    0.9702   -4.5983    0.9878 C   0  0  0  0  0  0  0  0  0  0  0  0
    0.5503   -3.9907   -0.5261 C   0  0  0  0  0  0  0  0  0  0  0  0
    2.9160   -0.1810    1.9410 C   0  0  0  0  0  0  0  0  0  0  0  0
    0.3591   -0.9271   -0.9188 C   0  0  0  0  0  0  0  0  0  0  0  0
    4.0351   -0.0638    1.0815 C   0  0  0  0  0  0  0  0  0  0  0  0
   -0.0767    1.8514    3.4021 C   0  0  0  0  0  0  0  0  0  0  0  0
    2.0352    0.8962    2.3089 C   0  0  0  0  0  0  0  0  0  0  0  0
    0.1490    3.1343    2.9802 C   0  0  0  0  0  0  0  0  0  0  0  0
    2.4742    2.1377    1.8274 C   0  0  0  0  0  0  0  0  0  0  0  0
    4.8128   -1.4820    0.4581 Cl  0  0  0  0  0  0  0  0  0  0  0  0
   -1.0158   -1.9938    0.9689 N   0  0  0  0  0  0  0  0  0  0  0  0
    0.2820   -4.1920    2.2248 N   0  0  0  0  0  0  0  0  0  0  0  0
    0.7762    0.8095    3.0178 N   0  0  0  0  0  0  0  0  0  0  0  0
   -0.5011   -0.3479   -0.3769 O   0  0  0  0  0  0  0  0  0  0  0  0
    0.7152   -2.3407   -1.1518 O   0  0  0  0  0  0  0  0  0  0  0  0
    1.5693    3.6506    2.0688 S   0  0  0  0  0  0  0  0  0  0  0  0
  3  2  2  0
  5  2  1  0
  6  3  1  0
  8  7  1  0
  9  4  1  0
 10  4  1  0
 13 11  1  0
 14 12  1  0
 16 15  1  0
 18  1  1  0
 19  7  2  0
 19 17  1  0
 20  5  2  0
 21 17  2  0
 22  6  2  0
 22 20  1  0
 23  8  2  0
 23 21  1  0
 24 19  1  0
 25  9  1  0
 25 11  1  0
 25 12  1  0
 26 13  1  0
 26 14  1  0
 26 15  1  0
 27 10  1  0
 27 20  1  0
 27 21  1  0
 28 18  2  0
 29 16  1  0
 29 18  1  0
 30 22  1  0
 30 23  1  0
M  END
>  <DRUGBANK_ID>  (1) 
DB13557

>  <COMMON_NAME>  (1) 
Thiopropazate

>  <CAS_NUMBER>  (1) 
84-06-0

>  <UNII>  (1) 
0JFY081Q2X

>  <SYNONYMS>  (1) 
Thiopropazate; tiopropazato

$$$$
