PF7
     RDKit          3D

 20 22  0  0  0  0  0  0  0  0999 V2000
    1.1331    0.1216   -0.0570 O   0  0  0  0  0  0  0  0  0  0  0  0
    2.3434   -0.0277   -0.1419 C   0  0  0  0  0  0  0  0  0  0  0  0
    3.1314    0.4899   -1.1387 N   0  0  0  0  0  0  0  0  0  0  0  0
    4.2192   -0.2343   -1.7737 C   0  0  0  0  0  0  0  0  0  0  0  0
    5.4490    0.6524   -1.7886 C   0  0  0  0  0  0  0  0  0  0  0  0
    5.1624    2.0241   -2.4463 C   0  0  0  0  0  0  0  0  0  0  0  0
    3.8857    2.6675   -1.8655 C   0  0  0  0  0  0  0  0  0  0  0  0
    2.7137    1.6829   -1.8615 C   0  0  0  0  0  0  0  0  0  0  0  0
    6.3676    2.9650   -2.2591 C   0  0  0  0  0  0  0  0  0  0  0  0
    7.6274    2.3857   -2.8410 C   0  0  0  0  0  0  0  0  0  0  0  0
    8.7087    2.0486   -2.0276 C   0  0  0  0  0  0  0  0  0  0  0  0
    9.8417    1.4465   -2.5854 C   0  0  0  0  0  0  0  0  0  0  0  0
   10.9544    1.1068   -1.7987 C   0  0  0  0  0  0  0  0  0  0  0  0
   12.0719    0.5176   -2.3841 C   0  0  0  0  0  0  0  0  0  0  0  0
   12.0746    0.2534   -3.7494 C   0  0  0  0  0  0  0  0  0  0  0  0
   10.9612    0.5850   -4.5263 C   0  0  0  0  0  0  0  0  0  0  0  0
    9.8409    1.1861   -3.9722 C   0  0  0  0  0  0  0  0  0  0  0  0
    8.8027    1.5007   -4.7642 N   0  0  0  0  0  0  0  0  0  0  0  0
    7.7334    2.0959   -4.1950 C   0  0  0  0  0  0  0  0  0  0  0  0
    3.0495   -0.6396    0.8316 O   0  0  0  0  0  0  0  0  0  0  0  0
  1  2  2  0
  2  3  1  0
  2 20  1  0
  3  4  1  0
  3  8  1  0
  4  5  1  0
  5  6  1  0
  6  7  1  0
  6  9  1  0
  7  8  1  0
  9 10  1  0
 10 11  2  0
 10 19  1  0
 11 12  1  0
 12 13  2  0
 12 17  1  0
 13 14  1  0
 14 15  2  0
 15 16  1  0
 16 17  2  0
 17 18  1  0
 18 19  2  0
M  END
>  <DRUGBANK_ID>  (1) 
DB08385

>  <COMMON_NAME>  (1) 
4-(quinolin-3-ylmethyl)piperidine-1-carboxylic acid

$$$$
