963
     RDKit          3D

 20 21  0  0  0  0  0  0  0  0999 V2000
   -1.5889    0.0366   -0.0203 Br  0  0  0  0  0  0  0  0  0  0  0  0
    5.2281    1.0026    0.1700 O   0  0  0  0  0  0  0  0  0  0  0  0
    7.6501   -5.9552   -2.7324 O   0  0  0  0  0  0  0  0  0  0  0  0
    7.8342   -3.7706   -3.2440 O   0  0  0  0  0  0  0  0  0  0  0  0
    4.2618   -2.0051   -2.0413 N   0  0  0  0  0  0  0  0  0  0  0  0
    5.8975   -3.4680   -0.9595 C   0  0  0  0  0  0  0  0  0  0  0  0
    5.3486   -1.3341    0.0548 C   0  0  0  0  0  0  0  0  0  0  0  0
    5.2242   -2.2289   -1.0401 C   0  0  0  0  0  0  0  0  0  0  0  0
    5.8459   -4.4999   -2.0673 C   0  0  0  0  0  0  0  0  0  0  0  0
    6.7000   -3.7591    0.1666 C   0  0  0  0  0  0  0  0  0  0  0  0
    4.5982   -0.0492    0.0986 C   0  0  0  0  0  0  0  0  0  0  0  0
    6.1807   -1.6233    1.1480 C   0  0  0  0  0  0  0  0  0  0  0  0
    3.1003   -0.0339    0.0710 C   0  0  0  0  0  0  0  0  0  0  0  0
    6.8484   -2.8423    1.2053 C   0  0  0  0  0  0  0  0  0  0  0  0
    2.3559   -1.2221    0.0881 C   0  0  0  0  0  0  0  0  0  0  0  0
    2.4183    1.1898    0.0194 C   0  0  0  0  0  0  0  0  0  0  0  0
    7.1940   -4.6834   -2.7294 C   0  0  0  0  0  0  0  0  0  0  0  0
    0.9648   -1.2007    0.0234 C   0  0  0  0  0  0  0  0  0  0  0  0
    1.0172    1.2144   -0.0059 C   0  0  0  0  0  0  0  0  0  0  0  0
    0.2996    0.0183   -0.0051 C   0  0  0  0  0  0  0  0  0  0  0  0
  1 20  1  0
  2 11  2  0
  3 17  1  0
  4 17  2  0
  5  8  1  0
  6  8  2  0
  6  9  1  0
  6 10  1  0
  7  8  1  0
  7 11  1  0
  7 12  2  0
  9 17  1  0
 10 14  2  0
 11 13  1  0
 12 14  1  0
 13 15  2  0
 13 16  1  0
 15 18  1  0
 16 19  2  0
 18 20  2  0
 19 20  1  0
M  END
>  <DRUGBANK_ID>  (1) 
DB00963

>  <SECONDARY_ACCESSION_NUMBERS>  (1) 
APRD00831

>  <COMMON_NAME>  (1) 
Bromfenac

>  <CAS_NUMBER>  (1) 
91714-94-2

>  <UNII>  (1) 
864P0921DW

>  <SYNONYMS>  (1) 
[2-Amino-3-(4-bromo-benzoyl)-phenyl]-acetic acid; 2-amino-3-(4-bromobenzoyl)benzeneacetic acid; Bromfenac; Bromfenaco; Bromfenacum

$$$$
