
     RDKit          3D

 18 19  0  0  0  0  0  0  0  0999 V2000
    1.0421    0.1310   -0.0691 C   0  0  0  0  0  0  0  0  0  0  0  0
    4.7973   -4.6628   -0.5686 C   0  0  0  0  0  0  0  0  0  0  0  0
    4.1460   -6.0404   -0.5168 C   0  0  0  0  0  0  0  0  0  0  0  0
    5.1669   -4.2598    0.8498 C   0  0  0  0  0  0  0  0  0  0  0  0
    0.7929   -4.8171   -0.4482 C   0  0  0  0  0  0  0  0  0  0  0  0
    2.0176   -3.7415    1.3228 C   0  0  0  0  0  0  0  0  0  0  0  0
    0.5010   -3.5680   -0.9871 C   0  0  0  0  0  0  0  0  0  0  0  0
    1.8131   -2.5085    0.7354 C   0  0  0  0  0  0  0  0  0  0  0  0
    2.1756   -6.2386    1.1190 C   0  0  0  0  0  0  0  0  0  0  0  0
    0.5307   -1.0482   -0.8999 C   0  0  0  0  0  0  0  0  0  0  0  0
    1.6036   -4.9117    0.6840 C   0  0  0  0  0  0  0  0  0  0  0  0
    0.9986   -2.3978   -0.3912 C   0  0  0  0  0  0  0  0  0  0  0  0
    3.7022   -6.3115    0.9239 C   0  0  0  0  0  0  0  0  0  0  0  0
    4.4634   -5.2721    1.7156 C   0  0  0  0  0  0  0  0  0  0  0  0
   -0.9896   -1.0101   -0.9276 C   0  0  0  0  0  0  0  0  0  0  0  0
    4.4606   -5.2172    2.9418 O   0  0  0  0  0  0  0  0  0  0  0  0
   -1.6837   -0.9132   -1.9346 O   0  0  0  0  0  0  0  0  0  0  0  0
   -1.5615   -1.1714    0.2837 O   0  0  0  0  0  0  0  0  0  0  0  0
  3  2  1  0
  4  2  1  0
  7  5  2  0
  8  6  1  0
 10  1  1  0
 11  5  1  0
 11  6  2  0
 11  9  1  0
 12  7  1  0
 12  8  2  0
 12 10  1  0
 13  3  1  0
 13  9  1  0
 14  4  1  0
 14 13  1  0
 15 10  1  0
 16 14  2  0
 17 15  2  0
 18 15  1  0
M  END
>  <DRUGBANK_ID>  (1) 
DB09212

>  <COMMON_NAME>  (1) 
Loxoprofen

>  <CAS_NUMBER>  (1) 
68767-14-6

>  <UNII>  (1) 
3583H0GZAP

>  <SYNONYMS>  (1) 
Loxoprofen; Loxoprofene; Loxoprofeno; Loxoprofenum

$$$$
