
     RDKit          3D

 17 18  0  0  0  0  0  0  0  0999 V2000
    1.1657   -0.8867   -0.3631 C   0  0  2  0  0  0  0  0  0  0  0  0
    2.4108   -1.5067    0.0857 N   0  0  0  0  0  0  0  0  0  0  0  0
    1.3110    0.5472   -0.3133 O   0  0  0  0  0  0  0  0  0  0  0  0
   -0.0761   -1.2637    0.4475 C   0  0  0  0  0  0  0  0  0  0  0  0
    2.8005   -1.2939    1.4182 C   0  0  0  0  0  0  0  0  0  0  0  0
    3.2162   -2.2408   -0.7750 C   0  0  0  0  0  0  0  0  0  0  0  0
    0.1905    1.1243    0.3997 C   0  0  1  0  0  0  0  0  0  0  0  0
   -0.8646    0.0237    0.4998 C   0  0  1  0  0  0  0  0  0  0  0  0
    3.9813   -1.8161    1.8712 N   0  0  0  0  0  0  0  0  0  0  0  0
    2.0966   -0.6596    2.2029 O   0  0  0  0  0  0  0  0  0  0  0  0
    4.3685   -2.7468   -0.3389 C   0  0  0  0  0  0  0  0  0  0  0  0
    0.6096    1.6671    1.7806 C   0  0  0  0  0  0  0  0  0  0  0  0
   -1.7470    0.0561   -0.6262 O   0  0  0  0  0  0  0  0  0  0  0  0
    4.7385   -2.4962    1.0696 C   0  0  0  0  0  0  0  0  0  0  0  0
    5.2223   -3.4668   -1.0879 F   0  0  0  0  0  0  0  0  0  0  0  0
    0.0009    2.9415    2.0132 O   0  0  0  0  0  0  0  0  0  0  0  0
    5.9005   -2.9776    1.5918 N   0  0  0  0  0  0  0  0  0  0  0  0
  1  3  1  0
  1  4  1  0
  1  2  1  1
  2  5  1  0
  2  6  1  0
  3  7  1  0
  4  8  1  0
  5  9  1  0
  5 10  2  0
  6 11  2  0
  7  8  1  0
  7 12  1  1
  8 13  1  6
  9 14  2  0
 11 15  1  0
 11 14  1  0
 12 16  1  0
 14 17  1  0
M  END
>  <DRUGBANK_ID>  (1) 
DB12957

>  <COMMON_NAME>  (1) 
5-fluoro-2'-deoxycytidine

>  <CAS_NUMBER>  (1) 
10356-76-0

>  <UNII>  (1) 
KUA4693H5W

>  <SYNONYMS>  (1) 
5-fluoro-2-deoxycytidine; 5-fluoro-2'-deoxycytidine; 5-fluorodeoxycytidine; FCdR; FDCYD

$$$$
