PU3
     RDKit          3D

 27 29  0  0  0  0  0  0  0  0999 V2000
    0.8831   -0.0331   -0.1813 C   0  0  0  0  0  0  0  0  0  0  0  0
    0.2043    0.1035    1.0515 O   0  0  0  0  0  0  0  0  0  0  0  0
    0.5967   -0.6841    2.0863 C   0  0  0  0  0  0  0  0  0  0  0  0
    1.9758   -1.0400    2.2002 C   0  0  0  0  0  0  0  0  0  0  0  0
   -0.3769   -0.9211    3.1627 C   0  0  0  0  0  0  0  0  0  0  0  0
   -1.7478   -0.9928    3.0025 O   0  0  0  0  0  0  0  0  0  0  0  0
   -2.2245   -0.4886    1.7873 C   0  0  0  0  0  0  0  0  0  0  0  0
    0.0201   -1.2670    4.3868 C   0  0  0  0  0  0  0  0  0  0  0  0
   -0.8486   -1.7262    5.3985 O   0  0  0  0  0  0  0  0  0  0  0  0
   -0.4450   -2.4340    6.6100 C   0  0  0  0  0  0  0  0  0  0  0  0
    1.4011   -1.4932    4.4093 C   0  0  0  0  0  0  0  0  0  0  0  0
    2.4556   -1.4203    3.3829 C   0  0  0  0  0  0  0  0  0  0  0  0
    3.9522   -1.9738    3.4350 C   0  0  0  0  0  0  0  0  0  0  0  0
    4.6998   -1.7149    4.7277 C   0  0  0  0  0  0  0  0  0  0  0  0
    5.6898   -0.8500    4.7290 N   0  0  0  0  0  0  0  0  0  0  0  0
    5.8790   -0.5214    6.0419 C   0  0  0  0  0  0  0  0  0  0  0  0
    6.6801    0.4466    6.6306 C   0  0  0  0  0  0  0  0  0  0  0  0
    7.5040    1.2405    5.8591 N   0  0  0  0  0  0  0  0  0  0  0  0
    5.0997   -1.3025    6.8655 C   0  0  0  0  0  0  0  0  0  0  0  0
    5.0032   -1.1975    8.2063 N   0  0  0  0  0  0  0  0  0  0  0  0
    5.7937   -0.2059    8.6640 C   0  0  0  0  0  0  0  0  0  0  0  0
    6.6284    0.6057    7.9715 N   0  0  0  0  0  0  0  0  0  0  0  0
    4.4834   -2.2125    6.0303 N   0  0  0  0  0  0  0  0  0  0  0  0
    3.7816   -3.3784    6.5867 C   0  0  0  0  0  0  0  0  0  0  0  0
    2.3731   -3.5955    6.1281 C   0  0  0  0  0  0  0  0  0  0  0  0
    2.2710   -4.0668    4.6622 C   0  0  0  0  0  0  0  0  0  0  0  0
    2.7274   -5.2936    3.9893 C   0  0  0  0  0  0  0  0  0  0  0  0
  1  2  1  0
  2  3  1  0
  3  4  2  0
  3  5  1  0
  4 12  1  0
  5  6  1  0
  5  8  2  0
  6  7  1  0
  8  9  1  0
  8 11  1  0
  9 10  1  0
 11 12  2  0
 12 13  1  0
 13 14  1  0
 14 15  2  0
 14 23  1  0
 15 16  1  0
 16 17  2  0
 16 19  1  0
 17 18  1  0
 17 22  1  0
 19 20  2  0
 19 23  1  0
 20 21  1  0
 21 22  2  0
 23 24  1  0
 24 25  1  0
 25 26  1  0
 26 27  1  0
M  END
>  <DRUGBANK_ID>  (1) 
DB02754

>  <SECONDARY_ACCESSION_NUMBERS>  (1) 
EXPT02694

>  <COMMON_NAME>  (1) 
9-Butyl-8-(3,4,5-Trimethoxybenzyl)-9h-Purin-6-Amine

$$$$
