
     RDKit          3D

 43 47  0  0  1  0  0  0  0  0999 V2000
   -2.8832   -1.7711    1.3534 C   0  0  0  0  0  0  0  0  0  0  0  0
    2.5304   -2.0211   -3.5212 C   0  0  0  0  0  0  0  0  0  0  0  0
   -0.5002   -4.0601    0.7358 C   0  0  0  0  0  0  0  0  0  0  0  0
   -1.6862   -4.3475   -1.3032 C   0  0  0  0  0  0  0  0  0  0  0  0
    3.3559    9.3405   -0.5170 C   0  0  0  0  0  0  0  0  0  0  0  0
   -3.8407    1.6247    3.7378 C   0  0  0  0  0  0  0  0  0  0  0  0
   -1.6975   -1.3973    2.2473 C   0  0  0  0  0  0  0  0  0  0  0  0
    4.0741    8.0369    3.4137 C   0  0  0  0  0  0  0  0  0  0  0  0
    3.5853    6.8127    3.8234 C   0  0  0  0  0  0  0  0  0  0  0  0
    3.8411    8.4780    2.1120 C   0  0  0  0  0  0  0  0  0  0  0  0
    0.4070   -1.4877   -0.2752 C   0  0  0  0  0  0  0  0  0  0  0  0
   -1.5905    0.5678    0.5452 C   0  0  0  0  0  0  0  0  0  0  0  0
    1.3891   -1.4943   -2.7128 C   0  0  1  0  0  0  0  0  0  0  0  0
    2.8662    6.0308    2.9218 C   0  0  0  0  0  0  0  0  0  0  0  0
   -0.4013   -2.3223   -1.1809 C   0  0  1  0  0  0  0  0  0  0  0  0
    3.1156    7.7043    1.2018 C   0  0  0  0  0  0  0  0  0  0  0  0
   -0.6455    1.4572   -0.2181 C   0  0  1  0  0  0  0  0  0  0  0  0
    1.1187   -0.2392   -0.7681 C   0  0  1  0  0  0  0  0  0  0  0  0
    2.6234    6.4628    1.6171 C   0  0  0  0  0  0  0  0  0  0  0  0
    0.0343    2.3527    0.8044 C   0  0  0  0  0  0  0  0  0  0  0  0
    0.1464    2.0321    2.2125 C   0  0  0  0  0  0  0  0  0  0  0  0
    1.5775    3.9130    2.5081 C   0  0  0  0  0  0  0  0  0  0  0  0
    1.3357    4.3218    1.1891 C   0  0  0  0  0  0  0  0  0  0  0  0
   -0.5162    0.8304    2.8836 C   0  0  1  0  0  0  0  0  0  0  0  0
    0.5800   -2.7246   -2.2241 C   0  0  2  0  0  0  0  0  0  0  0  0
    2.3732    4.7498    3.4100 C   0  0  0  0  0  0  0  0  0  0  0  0
    1.8489    5.6037    0.7030 C   0  0  0  0  0  0  0  0  0  0  0  0
    0.5883    3.5289    0.3247 C   0  0  0  0  0  0  0  0  0  0  0  0
    1.0130    2.7514    3.0110 C   0  0  0  0  0  0  0  0  0  0  0  0
   -1.6375    1.0311    3.7702 C   0  0  0  0  0  0  0  0  0  0  0  0
   -0.9414   -0.1226    1.8326 C   0  0  1  0  0  0  0  0  0  0  0  0
   -1.1246   -3.3698   -0.3996 N   0  0  0  0  0  0  0  0  0  0  0  0
    1.4319   -3.7236   -1.6432 O   0  0  0  0  0  0  0  0  0  0  0  0
    2.6204    4.4372    4.5684 O   0  0  0  0  0  0  0  0  0  0  0  0
    1.5878    5.9168   -0.4548 O   0  0  0  0  0  0  0  0  0  0  0  0
    0.3280    3.8619   -0.9798 O   0  0  0  0  0  0  0  0  0  0  0  0
    1.3290    2.3366    4.2716 O   0  0  0  0  0  0  0  0  0  0  0  0
   -1.6887    0.5686    4.9254 O   0  0  0  0  0  0  0  0  0  0  0  0
    0.4574   -0.5371    1.7427 O   0  0  0  0  0  0  0  0  0  0  0  0
    2.8553    8.0896   -0.0816 O   0  0  0  0  0  0  0  0  0  0  0  0
   -2.6169    1.5986    3.0616 O   0  0  0  0  0  0  0  0  0  0  0  0
    2.0352   -0.7156   -1.7196 O   0  0  0  0  0  0  0  0  0  0  0  0
    0.2078    0.7743   -1.1940 O   0  0  0  0  0  0  0  0  0  0  0  0
  7  1  1  0
  9  8  2  0
 10  8  1  0
 13  2  1  6
 14  9  1  0
 15 11  1  0
 15 32  1  1
 16 10  2  0
 17 12  1  0
 17 43  1  1
 18 11  1  0
 18 43  1  6
 19 14  2  0
 19 16  1  0
 20 17  1  0
 21 20  1  0
 23 22  2  0
 24 21  1  0
 24 30  1  6
 25 13  1  0
 25 15  1  0
 25 33  1  1
 26 14  1  0
 26 22  1  0
 27 19  1  0
 27 23  1  0
 28 20  2  0
 28 23  1  0
 29 21  2  0
 29 22  1  0
 31 12  1  0
 31 24  1  0
 31 39  1  6
 31  7  1  0
 32  3  1  0
 32  4  1  0
 34 26  2  0
 35 27  2  0
 36 28  1  0
 37 29  1  0
 38 30  2  0
 40  5  1  0
 40 16  1  0
 41  6  1  0
 41 30  1  0
 42 13  1  0
 42 18  1  0
M  END
>  <DRUGBANK_ID>  (1) 
DB03199

>  <SECONDARY_ACCESSION_NUMBERS>  (1) 
EXPT01358

>  <COMMON_NAME>  (1) 
4-Methoxy-E-Rhodomycin T

$$$$
