
     RDKit          3D

 10 10  0  0  0  0  0  0  0  0999 V2000
    1.0572    0.1116    0.0042 C   0  0  0  0  0  0  0  0  0  0  0  0
    0.5243    0.5978    1.2693 N   0  0  0  0  0  0  0  0  0  0  0  0
   -0.9453    0.5026    1.3207 C   0  0  0  0  0  0  0  0  0  0  0  0
   -1.5169   -0.9220    1.2043 C   0  0  0  0  0  0  0  0  0  0  0  0
   -1.0875   -1.8839    2.2897 C   0  0  0  0  0  0  0  0  0  0  0  0
   -0.4709   -1.4560    3.4683 C   0  0  0  0  0  0  0  0  0  0  0  0
   -0.0971   -2.3880    4.4282 C   0  0  0  0  0  0  0  0  0  0  0  0
   -0.3939   -3.7200    4.2178 C   0  0  0  0  0  0  0  0  0  0  0  0
   -1.0248   -4.0727    3.0367 C   0  0  0  0  0  0  0  0  0  0  0  0
   -1.3643   -3.1890    2.0679 N   0  0  0  0  0  0  0  0  0  0  0  0
  1  2  1  0
  2  3  1  0
  3  4  1  0
  4  5  1  0
  5  6  2  0
  5 10  1  0
  6  7  1  0
  7  8  2  0
  8  9  1  0
  9 10  2  0
M  END
>  <DRUGBANK_ID>  (1) 
DB06698

>  <COMMON_NAME>  (1) 
Betahistine

>  <CAS_NUMBER>  (1) 
5638-76-6

>  <UNII>  (1) 
X32KK4201D

>  <SYNONYMS>  (1) 
[2-(2-pyridyl)ethyl]methylamine; 2-(β-methylaminoethyl)pyridine; 2-[2-(methylamino)ethyl]pyridine; Betahistina; Bétahistine; Betahistine; Betahistinum; N-methyl-2-(2-pyridinyl)ethanamine; N-methyl-2-pyridineethanamine

$$$$
