2KL
     RDKit          3D

 31 34  0  0  0  0  0  0  0  0999 V2000
    1.1680    0.0752    0.1067 O   0  0  0  0  0  0  0  0  0  0  0  0
    2.3702   -0.0041    0.0267 C   0  0  0  0  0  0  0  0  0  0  0  0
    3.1451    0.7468    0.8991 N   0  0  0  0  0  0  0  0  0  0  0  0
    4.5844    0.8829    0.9618 C   0  0  0  0  0  0  0  0  0  0  0  0
    5.0551    2.2786    0.6304 C   0  0  0  0  0  0  0  0  0  0  0  0
    3.0695   -0.8450   -0.9306 C   0  0  0  0  0  0  0  0  0  0  0  0
    2.5365   -0.8660   -2.5565 S   0  0  0  0  0  0  0  0  0  0  0  0
    4.1269   -1.6993   -0.7362 C   0  0  0  0  0  0  0  0  0  0  0  0
    4.4527   -2.4421   -1.8973 C   0  0  0  0  0  0  0  0  0  0  0  0
    3.7797   -1.9449   -3.0036 C   0  0  0  0  0  0  0  0  0  0  0  0
    3.9804   -2.2715   -4.2878 N   0  0  0  0  0  0  0  0  0  0  0  0
    4.9872   -3.1232   -4.4581 C   0  0  0  0  0  0  0  0  0  0  0  0
    5.2933   -3.3967   -5.7751 N   0  0  0  0  0  0  0  0  0  0  0  0
    5.6851   -3.7231   -3.4436 N   0  0  0  0  0  0  0  0  0  0  0  0
    5.3315   -3.5125   -2.1014 C   0  0  0  0  0  0  0  0  0  0  0  0
    6.1854   -4.0550   -0.9000 C   0  0  0  0  0  0  0  0  0  0  0  0
    7.5081   -3.6975   -0.8573 C   0  0  0  0  0  0  0  0  0  0  0  0
    6.0000   -4.6440    0.2995 C   0  0  0  0  0  0  0  0  0  0  0  0
    4.4012   -5.0944    0.7007 Cl  0  0  0  0  0  0  0  0  0  0  0  0
    7.1329   -4.8742    1.2571 C   0  0  0  0  0  0  0  0  0  0  0  0
    8.5125   -4.4573    1.1113 C   0  0  0  0  0  0  0  0  0  0  0  0
    9.7414   -4.8634    2.2416 Cl  0  0  0  0  0  0  0  0  0  0  0  0
    8.7961   -3.7586   -0.0091 C   0  0  0  0  0  0  0  0  0  0  0  0
   10.1897   -3.2521   -0.2452 O   0  0  0  0  0  0  0  0  0  0  0  0
   11.0397   -2.4016   -1.4230 C   0  0  0  0  0  0  0  0  0  0  0  0
   10.9743   -2.7753   -3.0247 C   0  0  0  0  0  0  0  0  0  0  0  0
    9.6399   -2.7932   -3.6067 N   0  0  0  0  0  0  0  0  0  0  0  0
    8.8429   -1.5642   -3.7725 C   0  0  0  0  0  0  0  0  0  0  0  0
    9.0572   -3.3354   -2.4732 C   0  0  0  0  0  0  0  0  0  0  0  0
    8.5544   -1.7423   -1.5505 C   0  0  0  0  0  0  0  0  0  0  0  0
    8.7034   -0.6908   -2.5456 C   0  0  0  0  0  0  0  0  0  0  0  0
  1  2  2  0
  2  3  1  0
  2  6  1  0
  3  4  1  0
  4  5  1  0
  6  7  1  0
  6  8  2  0
  7 10  1  0
  8  9  1  0
  9 10  2  0
  9 15  1  0
 10 11  1  0
 11 12  2  0
 12 13  1  0
 12 14  1  0
 14 15  2  0
 15 16  1  0
 16 17  2  0
 16 18  1  0
 17 23  1  0
 18 19  1  0
 18 20  2  0
 20 21  1  0
 21 22  1  0
 21 23  2  0
 23 24  1  0
 24 25  1  0
 25 26  1  0
 26 27  1  0
 27 28  1  0
 27 29  1  0
 28 31  1  0
 29 30  1  0
 30 31  1  0
M  END
>  <DRUGBANK_ID>  (1) 
DB06969

>  <COMMON_NAME>  (1) 
2-amino-4-[2,4-dichloro-5-(2-pyrrolidin-1-ylethoxy)phenyl]-N-ethylthieno[2,3-d]pyrimidine-6-carboxamide

$$$$
