
     RDKit          3D

  5  4  0  0  0  0  0  0  0  0999 V2000
    1.0713    0.1064   -0.0352 Br  0  0  0  0  0  0  0  0  0  0  0  0
    3.0979   -0.8437    2.2423 O   0  0  0  0  0  0  0  0  0  0  0  0
    3.5318    0.2377    1.4168 C   0  0  2  0  0  0  0  0  0  0  0  0
    3.0241    0.0640   -0.0099 C   0  0  0  0  0  0  0  0  0  0  0  0
    5.0538    0.2444    1.4362 C   0  0  0  0  0  0  0  0  0  0  0  0
  1  4  1  0
  3  2  1  0
  3  4  1  0
  3  5  1  6
M  END
>  <DRUGBANK_ID>  (1) 
DB03335

>  <SECONDARY_ACCESSION_NUMBERS>  (1) 
EXPT00069

>  <COMMON_NAME>  (1) 
(+)-1-bromo-2-propanol

>  <CAS_NUMBER>  (1) 
16088-60-1

>  <UNII>  (1) 
S33341KT5O

>  <SYNONYMS>  (1) 
(S)-(+)-1-Bromo-2-propanol

$$$$
