
     RDKit          3D

 13 13  0  0  0  0  0  0  0  0999 V2000
    0.9743   -0.0005    0.0713 C   0  0  0  0  0  0  0  0  0  0  0  0
    0.4708    1.0846   -0.8604 C   0  0  0  0  0  0  0  0  0  0  0  0
    0.8976    0.8971   -2.3317 C   0  0  0  0  0  0  0  0  0  0  0  0
    0.4204   -0.5452   -2.7518 C   0  0  0  0  0  0  0  0  0  0  0  0
   -0.5336   -0.9036   -3.4058 O   0  0  0  0  0  0  0  0  0  0  0  0
    1.2022   -1.5506   -2.3093 O   0  0  0  0  0  0  0  0  0  0  0  0
    0.3522    2.1225   -3.2124 C   0  0  0  0  0  0  0  0  0  0  0  0
   -0.4834    1.5900   -4.3712 C   0  0  0  0  0  0  0  0  0  0  0  0
    0.4352    0.8204   -5.3424 C   0  0  0  0  0  0  0  0  0  0  0  0
    1.4473    1.7439   -5.9876 C   0  0  0  0  0  0  0  0  0  0  0  0
    2.2736    2.4711   -4.9247 C   0  0  0  0  0  0  0  0  0  0  0  0
    1.3899    3.0960   -3.8510 C   0  0  0  0  0  0  0  0  0  0  0  0
   -0.4873    2.9601   -2.3902 O   0  0  0  0  0  0  0  0  0  0  0  0
  1  2  1  0
  2  3  1  0
  3  4  1  0
  3  7  1  0
  4  5  2  0
  4  6  1  0
  7  8  1  0
  7 12  1  0
  7 13  1  0
  8  9  1  0
  9 10  1  0
 10 11  1  0
 11 12  1  0
M  END
>  <DRUGBANK_ID>  (1) 
DB13493

>  <COMMON_NAME>  (1) 
Cyclobutyrol

>  <CAS_NUMBER>  (1) 
512-16-3

>  <UNII>  (1) 
8T4L120N6M

>  <SYNONYMS>  (1) 
ciclobutirol; Cyclobutyrol

$$$$
