IS2
     RDKit          3D

 15 15  0  0  0  0  0  0  0  0999 V2000
    1.4644   -0.3717    0.0289 C   0  0  0  0  0  0  0  0  0  0  0  0
    0.4928   -1.3772    0.0246 C   0  0  0  0  0  0  0  0  0  0  0  0
   -0.8882   -1.0890   -0.1111 C   0  0  0  0  0  0  0  0  0  0  0  0
   -1.3098    0.2204   -0.3472 C   0  0  0  0  0  0  0  0  0  0  0  0
   -0.2615    1.1370   -0.5026 C   0  0  0  0  0  0  0  0  0  0  0  0
    1.0535    0.9213   -0.1890 C   0  0  0  0  0  0  0  0  0  0  0  0
   -2.7302    0.5396   -0.3573 N   0  0  0  0  0  0  0  0  0  0  0  0
   -3.3264    1.8426   -0.2505 C   0  0  0  0  0  0  0  0  0  0  0  0
   -4.5316    2.0499   -0.3578 O   0  0  0  0  0  0  0  0  0  0  0  0
   -2.1726    3.2544   -0.0943 P   0  0  0  0  0  0  0  0  0  0  0  0
   -1.5856    2.4146    1.1750 O   0  0  0  0  0  0  0  0  0  0  0  0
   -1.8974    2.9631   -1.6848 O   0  0  0  0  0  0  0  0  0  0  0  0
   -1.1963    4.4489    0.0377 O   0  0  0  0  0  0  0  0  0  0  0  0
    2.9365   -0.5802    0.1878 C   0  0  0  0  0  0  0  0  0  0  0  0
    3.6893    0.0077   -1.0081 C   0  0  0  0  0  0  0  0  0  0  0  0
  1  2  2  0
  1  6  1  0
  1 14  1  0
  2  3  1  0
  3  4  2  0
  4  5  1  0
  4  7  1  0
  5  6  2  0
  7  8  1  0
  8  9  2  0
  8 10  1  0
 10 11  1  0
 10 12  1  0
 10 13  2  0
 14 15  1  0
M  END
>  <DRUGBANK_ID>  (1) 
DB03628

>  <SECONDARY_ACCESSION_NUMBERS>  (1) 
EXPT01930

>  <COMMON_NAME>  (1) 
ISO24

>  <UNII>  (1) 
MM7HGA3EJM

$$$$
