167
     RDKit          3D

 29 31  0  0  0  0  0  0  0  0999 V2000
    0.9671   -0.4626    2.6398 C   0  0  0  0  0  0  0  0  0  0  0  0
    2.4207   -0.9076    2.8677 C   0  0  0  0  0  0  0  0  0  0  0  0
    2.6827   -2.4060    2.7500 C   0  0  0  0  0  0  0  0  0  0  0  0
    2.4657   -3.0415    1.3769 C   0  0  0  0  0  0  0  0  0  0  0  0
    3.2345   -2.3775    0.2266 C   0  0  0  0  0  0  0  0  0  0  0  0
    3.6291   -3.1245   -0.8304 N   0  0  0  0  0  0  0  0  0  0  0  0
    3.5107   -1.1216    0.2293 N   0  0  0  0  0  0  0  0  0  0  0  0
   -1.7906   -1.7815    1.1706 O   0  0  0  0  0  0  0  0  0  0  0  0
   -1.7561    0.4136    1.5471 O   0  0  0  0  0  0  0  0  0  0  0  0
    2.6750    1.7137    1.0709 O   0  0  0  0  0  0  0  0  0  0  0  0
    0.8991    0.1998    0.1179 C   0  0  1  0  0  0  0  0  0  0  0  0
    0.2168    1.8062   -1.4486 C   0  0  0  0  0  0  0  0  0  0  0  0
   -0.0192    0.5011   -1.0212 C   0  0  0  0  0  0  0  0  0  0  0  0
    1.3591    1.6070    0.5551 C   0  0  2  0  0  0  0  0  0  0  0  0
    1.3349    2.4475   -0.7082 C   0  0  0  0  0  0  0  0  0  0  0  0
   -0.9231   -0.3380   -1.6501 C   0  0  0  0  0  0  0  0  0  0  0  0
   -1.7052    0.2121   -2.6467 C   0  0  0  0  0  0  0  0  0  0  0  0
   -1.5298    1.5585   -3.0323 C   0  0  0  0  0  0  0  0  0  0  0  0
   -0.5267    2.3473   -2.4567 C   0  0  0  0  0  0  0  0  0  0  0  0
   -2.3521    2.1087   -4.0894 C   0  0  0  0  0  0  0  0  0  0  0  0
   -1.7305    2.5636   -5.2549 C   0  0  0  0  0  0  0  0  0  0  0  0
   -2.4823    3.0005   -6.3350 C   0  0  0  0  0  0  0  0  0  0  0  0
   -3.8753    2.9832   -6.2377 C   0  0  0  0  0  0  0  0  0  0  0  0
   -4.5065    2.5259   -5.0769 C   0  0  0  0  0  0  0  0  0  0  0  0
   -3.7440    2.1290   -3.9868 C   0  0  0  0  0  0  0  0  0  0  0  0
   -0.5285    3.3495   -7.6198 C   0  0  0  0  0  0  0  0  0  0  0  0
   -1.9511    3.4244   -7.5225 O   0  0  0  0  0  0  0  0  0  0  0  0
    0.3545   -0.6735    1.2426 C   0  0  2  0  0  0  0  0  0  0  0  0
   -1.1499   -0.7648    1.3275 C   0  0  0  0  0  0  0  0  0  0  0  0
  1  2  1  0
  2  3  1  0
  3  4  1  0
  4  5  1  0
  5  6  1  0
  5  7  2  0
  8 29  2  0
  9 29  1  0
 11 13  1  6
 11 14  1  0
 12 13  2  0
 12 15  1  0
 12 19  1  0
 13 16  1  0
 14 15  1  0
 14 10  1  6
 16 17  2  0
 17 18  1  0
 18 19  2  0
 18 20  1  0
 20 21  2  0
 20 25  1  0
 21 22  1  0
 22 23  2  0
 22 27  1  0
 23 24  1  0
 24 25  2  0
 26 27  1  0
 28 29  1  0
 28 11  1  0
 28  1  1  1
M  END
>  <DRUGBANK_ID>  (1) 
DB06866

>  <COMMON_NAME>  (1) 
6-CARBAMIMIDOYL-2-[2-HYDROXY-5-(3-METHOXY-PHENYL)-INDAN-1-YL]-HEXANOIC ACID

$$$$
