
     RDKit          3D

 16 16  0  0  1  0  0  0  0  0999 V2000
   -1.2361    1.0877   -2.4426 O   0  0  0  0  0  0  0  0  0  0  0  0
   -0.0019    1.7221   -2.8179 C   0  0  0  0  0  0  0  0  0  0  0  0
    1.1620    0.9546   -2.1842 C   0  0  1  0  0  0  0  0  0  0  0  0
    1.8644    0.2628   -3.2339 O   0  0  0  0  0  0  0  0  0  0  0  0
    2.7361   -0.7359   -2.7112 C   0  0  2  0  0  0  0  0  0  0  0  0
    2.0473   -1.7101   -1.9122 O   0  0  0  0  0  0  0  0  0  0  0  0
    0.9104   -2.7489   -2.7004 P   0  0  0  0  0  0  0  0  0  0  0  0
   -0.1407   -1.5004   -2.7136 O   0  0  0  0  0  0  0  0  0  0  0  0
    1.7019   -2.5160   -4.1059 O   0  0  0  0  0  0  0  0  0  0  0  0
   -0.1071   -3.6787   -3.4058 O   0  0  0  0  0  0  0  0  0  0  0  0
    3.8559   -0.0845   -1.8930 C   0  0  2  0  0  0  0  0  0  0  0  0
    4.7203   -1.0871   -1.3433 O   0  0  0  0  0  0  0  0  0  0  0  0
    3.2316    0.8162   -0.8173 C   0  0  1  0  0  0  0  0  0  0  0  0
    4.2537    1.5508   -0.1426 O   0  0  0  0  0  0  0  0  0  0  0  0
    2.2029    1.7878   -1.4443 C   0  0  1  0  0  0  0  0  0  0  0  0
    2.8847    2.6669   -2.3526 O   0  0  0  0  0  0  0  0  0  0  0  0
  1  2  1  0
  3  4  1  0
  3 15  1  0
  3  2  1  6
  4  5  1  0
  5 11  1  0
  5  6  1  1
  6  7  1  0
  7  8  1  0
  7  9  1  0
  7 10  2  0
 11 12  1  1
 11 13  1  0
 13 14  1  6
 13 15  1  0
 15 16  1  6
M  END
>  <DRUGBANK_ID>  (1) 
DB02317

>  <SECONDARY_ACCESSION_NUMBERS>  (1) 
EXPT01595

>  <COMMON_NAME>  (1) 
Alpha-D-Galactose-1-Phosphate

>  <CAS_NUMBER>  (1) 
2255-14-3

>  <UNII>  (1) 
4Z9Z6N3GH4

$$$$
