6CP
     RDKit          3D

 25 28  0  0  0  0  0  0  0  0999 V2000
    1.8878    0.7852    0.2529 C   0  0  0  0  0  0  0  0  0  0  0  0
   -2.3509   -0.0393   -0.0534 C   0  0  0  0  0  0  0  0  0  0  0  0
    2.3948   -3.2875   -0.0299 C   0  0  0  0  0  0  0  0  0  0  0  0
    3.1564   -2.9834   -1.3540 C   0  0  0  0  0  0  0  0  0  0  0  0
    4.4800   -3.7571   -1.4703 C   0  0  0  0  0  0  0  0  0  0  0  0
    5.2900   -3.2942   -2.6925 C   0  0  0  0  0  0  0  0  0  0  0  0
    5.5860   -1.7961   -2.6646 C   0  0  0  0  0  0  0  0  0  0  0  0
    4.2993   -1.0146   -2.6050 C   0  0  0  0  0  0  0  0  0  0  0  0
    3.4577   -1.4969   -1.4611 C   0  0  0  0  0  0  0  0  0  0  0  0
    3.6609    5.0298   -1.0903 C   0  0  0  0  0  0  0  0  0  0  0  0
    3.0624    5.7402   -0.0488 C   0  0  0  0  0  0  0  0  0  0  0  0
    2.5093    5.0502    1.0228 C   0  0  0  0  0  0  0  0  0  0  0  0
    2.5453    3.6603    1.0353 C   0  0  0  0  0  0  0  0  0  0  0  0
    2.0107   -0.5465    0.4795 N   0  0  0  0  0  0  0  0  0  0  0  0
    0.9426   -1.3592    0.2835 C   0  0  0  0  0  0  0  0  0  0  0  0
    1.0715   -2.7207    0.0697 O   0  0  0  0  0  0  0  0  0  0  0  0
   -0.2749   -0.7463    0.1301 C   0  0  0  0  0  0  0  0  0  0  0  0
   -1.5682   -1.1626   -0.0193 N   0  0  0  0  0  0  0  0  0  0  0  0
   -1.6316    1.0596   -0.0449 N   0  0  0  0  0  0  0  0  0  0  0  0
   -0.3440    0.6248    0.0660 C   0  0  0  0  0  0  0  0  0  0  0  0
    0.7322    1.4190    0.0783 N   0  0  0  0  0  0  0  0  0  0  0  0
    3.0617    1.5300    0.0317 N   0  0  0  0  0  0  0  0  0  0  0  0
    3.1448    2.9292    0.0001 C   0  0  0  0  0  0  0  0  0  0  0  0
    3.7224    3.6293   -1.0667 C   0  0  0  0  0  0  0  0  0  0  0  0
    4.2999    5.9023   -2.4332 Cl  0  0  0  0  0  0  0  0  0  0  0  0
  1 14  2  0
  1 21  1  0
  1 22  1  0
  2 18  1  0
  2 19  2  0
  3  4  1  0
  3 16  1  0
  4  5  1  0
  4  9  1  0
  5  6  1  0
  6  7  1  0
  7  8  1  0
  8  9  1  0
 10 11  2  0
 10 24  1  0
 10 25  1  0
 11 12  1  0
 12 13  2  0
 13 23  1  0
 14 15  1  0
 15 16  1  0
 15 17  2  0
 17 18  1  0
 17 20  1  0
 19 20  1  0
 20 21  2  0
 22 23  1  0
 23 24  2  0
M  END
>  <DRUGBANK_ID>  (1) 
DB07203

>  <COMMON_NAME>  (1) 
6-CYCLOHEXYLMETHOXY-2-(3'-CHLOROANILINO) PURINE

$$$$
