
     RDKit          3D

 16 15  0  0  0  0  0  0  0  0999 V2000
    1.4553    0.0895   -0.0189 C   0  0  0  0  0  0  0  0  0  0  0  0
   -5.2784    2.7444    1.5776 C   0  0  0  0  0  0  0  0  0  0  0  0
    1.0254    0.4523   -1.4548 C   0  0  0  0  0  0  0  0  0  0  0  0
   -4.9440    1.2590    1.7428 C   0  0  0  0  0  0  0  0  0  0  0  0
    1.1925   -0.6154   -2.4999 C   0  0  0  0  0  0  0  0  0  0  0  0
   -5.5513    0.4379    0.6065 C   0  0  0  0  0  0  0  0  0  0  0  0
   -1.5064   -0.4200   -0.1662 C   0  0  0  0  0  0  0  0  0  0  0  0
   -1.5608    1.1078   -0.3861 C   0  0  0  0  0  0  0  0  0  0  0  0
    0.4177   -1.9017   -2.1379 C   0  0  0  0  0  0  0  0  0  0  0  0
   -5.1546    0.9307   -0.7880 C   0  0  0  0  0  0  0  0  0  0  0  0
   -1.9771   -1.3250   -1.2771 C   0  0  0  0  0  0  0  0  0  0  0  0
   -2.8977    1.6774   -0.2791 C   0  0  0  0  0  0  0  0  0  0  0  0
   -3.1586   -1.6458   -1.3737 O   0  0  0  0  0  0  0  0  0  0  0  0
   -3.0555    2.7279    0.2751 O   0  0  0  0  0  0  0  0  0  0  0  0
   -1.0580   -1.7896   -2.1780 O   0  0  0  0  0  0  0  0  0  0  0  0
   -3.7450    0.8863   -0.9757 O   0  0  0  0  0  0  0  0  0  0  0  0
  3  1  1  0
  4  2  1  0
  5  3  1  0
  6  4  1  0
  8  7  1  0
  9  5  1  0
 10  6  1  0
 11  7  1  0
 12  8  1  0
 13 11  2  0
 14 12  2  0
 15  9  1  0
 15 11  1  0
 16 10  1  0
 16 12  1  0
M  END
>  <DRUGBANK_ID>  (1) 
DB13332

>  <COMMON_NAME>  (1) 
Dibutylsuccinate

>  <CAS_NUMBER>  (1) 
141-03-7

>  <UNII>  (1) 
Q050512U41

>  <SYNONYMS>  (1) 
Dibutyl succinate

$$$$
