
     RDKit          3D

 25 28  0  0  0  0  0  0  0  0999 V2000
   -0.4854    0.9353   -0.9352 C   0  0  0  0  0  0  0  0  0  0  0  0
    0.4689    0.0043   -1.2512 C   0  0  0  0  0  0  0  0  0  0  0  0
    0.2681   -1.3924   -0.9349 C   0  0  0  0  0  0  0  0  0  0  0  0
    1.4998   -2.0151   -0.6210 C   0  0  0  0  0  0  0  0  0  0  0  0
    2.7407   -1.2808   -0.6066 C   0  0  0  0  0  0  0  0  0  0  0  0
    2.8668    0.0975   -0.8907 C   0  0  0  0  0  0  0  0  0  0  0  0
    1.6926    0.7360   -1.2132 C   0  0  0  0  0  0  0  0  0  0  0  0
    1.4579    2.0732   -0.9494 N   0  0  0  0  0  0  0  0  0  0  0  0
    0.1481    2.1477   -0.7232 C   0  0  0  0  0  0  0  0  0  0  0  0
   -1.1517   -1.9915   -0.4997 C   0  0  1  0  0  0  0  0  0  0  0  0
   -2.0672   -1.2679    0.3354 C   0  0  1  0  0  0  0  0  0  0  0  0
   -1.8280    0.4296   -0.6257 C   0  0  0  0  0  0  0  0  0  0  0  0
   -3.6627   -2.3331    0.2816 N   0  0  0  0  0  0  0  0  0  0  0  0
   -4.6046   -1.4001    0.7875 C   0  0  0  0  0  0  0  0  0  0  0  0
   -3.9171   -0.4409   -0.1607 C   0  0  1  0  0  0  0  0  0  0  0  0
   -3.6418    0.7255    1.0347 N   0  0  0  0  0  0  0  0  0  0  0  0
   -2.6971    0.5805    2.0788 C   0  0  0  0  0  0  0  0  0  0  0  0
   -1.4388    1.1758    1.7486 N   0  0  0  0  0  0  0  0  0  0  0  0
   -0.1048    0.3568    2.2118 C   0  0  0  0  0  0  0  0  0  0  0  0
    1.2979    0.3882    1.6293 C   0  0  0  0  0  0  0  0  0  0  0  0
   -1.5230    2.6442    1.2595 C   0  0  0  0  0  0  0  0  0  0  0  0
   -2.1331    3.2216   -0.3748 C   0  0  0  0  0  0  0  0  0  0  0  0
   -2.8233   -0.2791    2.9558 O   0  0  0  0  0  0  0  0  0  0  0  0
   -2.4352   -1.4887   -1.2771 C   0  0  0  0  0  0  0  0  0  0  0  0
   -4.5225   -2.4910   -1.2501 C   0  0  0  0  0  0  0  0  0  0  0  0
  2  1  1  0
  3  2  1  0
  3 10  1  0
  4  3  2  0
  5  4  1  0
  5  6  2  0
  6  7  1  0
  7  2  2  0
  7  8  1  0
  8  9  1  0
  9  1  2  0
 10 11  1  0
 11 12  1  6
 12  1  1  0
 13 11  1  0
 14 13  1  0
 14 15  1  0
 15 24  1  0
 15 16  1  1
 17 16  1  0
 18 17  1  0
 19 18  1  0
 20 19  1  0
 21 18  1  0
 22 21  1  0
 23 17  2  0
 10 24  1  6
 25 13  1  0
M  END
>  <DRUGBANK_ID>  (1) 
DB13399

>  <COMMON_NAME>  (1) 
Terguride

>  <CAS_NUMBER>  (1) 
37686-84-3

>  <UNII>  (1) 
21OJT43Q88

>  <SYNONYMS>  (1) 
Tergurida; Terguride; Terguridum

$$$$
