JNF
     RDKit          3D

 23 26  0  0  0  0  0  0  0  0999 V2000
    0.9536    0.0171   -0.0474 C   0  0  0  0  0  0  0  0  0  0  0  0
    0.4541   -0.4147    1.2481 N   0  0  0  0  0  0  0  0  0  0  0  0
   -0.2741    0.5208    1.9544 C   0  0  0  0  0  0  0  0  0  0  0  0
   -0.0228    0.7743    3.2556 N   0  0  0  0  0  0  0  0  0  0  0  0
   -0.8243    1.6622    3.8914 C   0  0  0  0  0  0  0  0  0  0  0  0
   -0.4989    1.9327    5.2907 C   0  0  0  0  0  0  0  0  0  0  0  0
   -1.3664    1.8665    6.3778 N   0  0  0  0  0  0  0  0  0  0  0  0
   -0.6238    2.2144    7.5100 C   0  0  0  0  0  0  0  0  0  0  0  0
   -1.2788    2.1765    8.7746 C   0  0  0  0  0  0  0  0  0  0  0  0
   -2.5807    1.8334    8.8482 C   0  0  0  0  0  0  0  0  0  0  0  0
   -3.3399    1.5104    7.6528 C   0  0  0  0  0  0  0  0  0  0  0  0
   -2.7246    1.5261    6.4576 C   0  0  0  0  0  0  0  0  0  0  0  0
    0.6146    2.5314    7.1999 N   0  0  0  0  0  0  0  0  0  0  0  0
    0.7014    2.3462    5.8444 C   0  0  0  0  0  0  0  0  0  0  0  0
   -1.8541    2.3203    3.2633 C   0  0  0  0  0  0  0  0  0  0  0  0
   -2.0434    1.9932    1.9484 C   0  0  0  0  0  0  0  0  0  0  0  0
   -1.2720    1.1206    1.2838 N   0  0  0  0  0  0  0  0  0  0  0  0
    0.8362   -1.7246    1.7980 C   0  0  0  0  0  0  0  0  0  0  0  0
    0.8661   -2.7841    0.6619 C   0  0  0  0  0  0  0  0  0  0  0  0
    1.1349   -4.1999    1.1609 C   0  0  0  0  0  0  0  0  0  0  0  0
    0.1259   -4.6128    2.2206 C   0  0  0  0  0  0  0  0  0  0  0  0
    0.1198   -3.6184    3.3686 C   0  0  0  0  0  0  0  0  0  0  0  0
   -0.1513   -2.2020    2.8826 C   0  0  0  0  0  0  0  0  0  0  0  0
  1  2  1  0
  2  3  1  0
  2 18  1  0
  3  4  2  0
  3 17  1  0
  4  5  1  0
  5  6  1  0
  5 15  2  0
  6  7  1  0
  6 14  2  0
  7  8  1  0
  7 12  1  0
  8  9  1  0
  8 13  2  0
  9 10  2  0
 10 11  1  0
 11 12  2  0
 13 14  1  0
 15 16  1  0
 16 17  2  0
 18 19  1  0
 18 23  1  0
 19 20  1  0
 20 21  1  0
 21 22  1  0
 22 23  1  0
M  END
>  <DRUGBANK_ID>  (1) 
DB08023

>  <COMMON_NAME>  (1) 
N-cyclohexyl-4-imidazo[1,2-a]pyridin-3-yl-N-methylpyrimidin-2-amine

$$$$
