46937143
     RDKit          3D

 21 22  0  0  1  0  0  0  0  0999 V2000
    1.0664   -0.0265    0.0559 O   0  0  0  0  0  0  0  0  0  0  0  0
    1.9607   -2.4477   -1.6254 O   0  0  0  0  0  0  0  0  0  0  0  0
   -1.5656   -3.2129   -1.2273 N   0  0  0  0  0  0  0  0  0  0  0  0
    4.9410    2.5279   -0.0071 N   0  0  0  0  0  0  0  0  0  0  0  0
    3.8784    5.8405    0.0002 N   0  0  0  0  0  0  0  0  0  0  0  0
   -2.2775   -4.4947   -1.2248 C   0  0  0  0  0  0  0  0  0  0  0  0
   -0.1184   -3.3840   -1.2552 C   0  0  0  0  0  0  0  0  0  0  0  0
    0.6153   -2.0612   -1.3272 C   0  0  1  0  0  0  0  0  0  0  0  0
   -1.9374   -5.2959    0.0402 C   0  0  0  0  0  0  0  0  0  0  0  0
   -3.7756   -4.1675   -1.2231 C   0  0  0  0  0  0  0  0  0  0  0  0
   -1.9411   -5.2968   -2.4884 C   0  0  0  0  0  0  0  0  0  0  0  0
    0.3951   -1.2842   -0.0047 C   0  0  0  0  0  0  0  0  0  0  0  0
    3.0855    1.1243    0.0809 C   0  0  0  0  0  0  0  0  0  0  0  0
    2.4169   -0.0705    0.1968 C   0  0  0  0  0  0  0  0  0  0  0  0
    2.5403    2.5063    0.0203 C   0  0  0  0  0  0  0  0  0  0  0  0
    4.4825    1.1913    0.0383 C   0  0  0  0  0  0  0  0  0  0  0  0
    3.1863   -1.2201    0.3634 C   0  0  0  0  0  0  0  0  0  0  0  0
    3.8485    3.2448    0.0037 C   0  0  0  0  0  0  0  0  0  0  0  0
    5.2343    0.0265    0.0412 C   0  0  0  0  0  0  0  0  0  0  0  0
    4.5695   -1.1926    0.1764 C   0  0  0  0  0  0  0  0  0  0  0  0
    3.9205    4.6744    0.0003 C   0  0  0  0  0  0  0  0  0  0  0  0
  1 12  1  0
  1 14  1  0
  3  6  1  0
  3  7  1  0
  4 16  1  0
  4 18  2  0
  5 21  3  0
  6  9  1  0
  6 10  1  0
  6 11  1  0
  7  8  1  0
  8  2  1  1
  8 12  1  0
 13 14  1  0
 13 15  1  0
 13 16  2  0
 14 17  2  0
 15 18  1  0
 16 19  1  0
 17 20  1  0
 18 21  1  0
 19 20  2  0
M  END
>  <DRUGBANK_ID>  (1) 
DB08347

>  <COMMON_NAME>  (1) 
4-{[(2S)-3-(tert-butylamino)-2-hydroxypropyl]oxy}-3H-indole-2-carbonitrile

$$$$
