
     RDKit          3D

 24 25  0  0  0  0  0  0  0  0999 V2000
   -1.9924   -0.3949   -0.7262 Cl  0  0  0  0  0  0  0  0  0  0  0  0
   -0.5365    2.7327   -0.1312 S   0  0  0  0  0  0  0  0  0  0  0  0
    5.0010   -0.6783   -1.0998 S   0  0  0  0  0  0  0  0  0  0  0  0
   -0.0609    3.4539    1.0230 O   0  0  0  0  0  0  0  0  0  0  0  0
   -0.3897    3.3158   -1.4521 O   0  0  0  0  0  0  0  0  0  0  0  0
   -3.1334    3.8418    2.4604 O   0  0  0  0  0  0  0  0  0  0  0  0
    9.8436   -0.3613   -0.3214 O   0  0  0  0  0  0  0  0  0  0  0  0
   -2.1760    2.4828    0.1039 N   0  0  0  0  0  0  0  0  0  0  0  0
    6.0158    0.4897    0.9331 N   0  0  0  0  0  0  0  0  0  0  0  0
    7.6025   -0.4417   -0.5727 N   0  0  0  0  0  0  0  0  0  0  0  0
    0.2777    1.1543   -0.1684 C   0  0  0  0  0  0  0  0  0  0  0  0
    2.4548    0.0043   -0.0722 C   0  0  0  0  0  0  0  0  0  0  0  0
    1.6892    1.1896   -0.0773 C   0  0  0  0  0  0  0  0  0  0  0  0
    3.9155    0.0464    0.0454 C   0  0  0  0  0  0  0  0  0  0  0  0
   -0.3579   -0.0860   -0.2527 C   0  0  0  0  0  0  0  0  0  0  0  0
    1.7846   -1.2168   -0.0332 C   0  0  0  0  0  0  0  0  0  0  0  0
   -2.6748    1.7972    1.3142 C   0  0  0  0  0  0  0  0  0  0  0  0
    4.6577    0.6165    1.0625 C   0  0  0  0  0  0  0  0  0  0  0  0
    0.3939   -1.2554   -0.0947 C   0  0  0  0  0  0  0  0  0  0  0  0
   -2.4486    2.6062    2.5678 C   0  0  0  0  0  0  0  0  0  0  0  0
    6.3285   -0.1573   -0.1543 C   0  0  0  0  0  0  0  0  0  0  0  0
    4.1620    1.3209    2.2667 C   0  0  0  0  0  0  0  0  0  0  0  0
    8.7293   -0.0691    0.1212 C   0  0  0  0  0  0  0  0  0  0  0  0
    8.6015    0.6934    1.4227 C   0  0  0  0  0  0  0  0  0  0  0  0
  1 15  1  0
  2  4  2  0
  2  5  2  0
  2  8  1  0
  2 11  1  0
  3 14  1  0
  3 21  1  0
  6 20  1  0
  7 23  2  0
  8 17  1  0
  9 18  1  0
  9 21  2  0
 10 21  1  0
 10 23  1  0
 11 13  2  0
 11 15  1  0
 12 13  1  0
 12 14  1  0
 12 16  2  0
 14 18  2  0
 15 19  2  0
 16 19  1  0
 17 20  1  0
 18 22  1  0
 23 24  1  0
M  END
>  <DRUGBANK_ID>  (1) 
DB06836

>  <COMMON_NAME>  (1) 
N-(5-{4-Chloro-3-[(2-hydroxyethyl)sulfamoyl]phenyl}-4-methyl-1,3-thiazol-2-yl)acetamide

>  <CAS_NUMBER>  (1) 
593960-11-3

>  <UNII>  (1) 
QS3XFL5JRX

$$$$
