
     RDKit          3D

 30 33  0  0  1  0  0  0  0  0999 V2000
    1.1170   -0.0312   -0.1104 C   0  0  0  0  0  0  0  0  0  0  0  0
    0.5133   -1.3217   -0.6964 C   0  0  1  0  0  0  0  0  0  0  0  0
    0.9511   -2.4620    0.1343 N   0  0  0  0  0  0  0  0  0  0  0  0
    0.1696   -3.4538    0.7107 C   0  0  0  0  0  0  0  0  0  0  0  0
   -0.8834   -4.0114   -0.0329 C   0  0  0  0  0  0  0  0  0  0  0  0
   -1.8016   -4.9158    0.4753 C   0  0  0  0  0  0  0  0  0  0  0  0
   -1.5860   -5.4285    1.7333 C   0  0  0  0  0  0  0  0  0  0  0  0
   -0.4971   -4.9762    2.4865 C   0  0  0  0  0  0  0  0  0  0  0  0
    0.3308   -3.9199    2.0367 C   0  0  0  0  0  0  0  0  0  0  0  0
    1.3090   -3.2511    2.9675 C   0  0  0  0  0  0  0  0  0  0  0  0
    1.3959   -3.7425    4.2229 O   0  0  0  0  0  0  0  0  0  0  0  0
    1.9910   -2.2777    2.6515 O   0  0  0  0  0  0  0  0  0  0  0  0
   -0.9907   -1.1830   -0.7501 C   0  0  0  0  0  0  0  0  0  0  0  0
   -1.7026   -0.7598    0.3114 C   0  0  0  0  0  0  0  0  0  0  0  0
   -3.1357   -0.7901    0.3362 C   0  0  0  0  0  0  0  0  0  0  0  0
   -3.8219   -0.2888    1.5715 C   0  0  0  0  0  0  0  0  0  0  0  0
   -3.7799   -1.2885   -0.7274 C   0  0  0  0  0  0  0  0  0  0  0  0
   -3.1118   -1.7443   -1.8635 N   0  0  0  0  0  0  0  0  0  0  0  0
   -3.8486   -2.2718   -2.9051 C   0  0  0  0  0  0  0  0  0  0  0  0
   -5.0770   -2.3500   -2.9422 O   0  0  0  0  0  0  0  0  0  0  0  0
   -3.0777   -2.7885   -4.0443 C   0  0  0  0  0  0  0  0  0  0  0  0
   -1.7362   -2.7593   -4.0383 C   0  0  0  0  0  0  0  0  0  0  0  0
   -1.0617   -2.2003   -2.9797 N   0  0  0  0  0  0  0  0  0  0  0  0
   -1.7228   -1.7148   -1.9647 C   0  0  0  0  0  0  0  0  0  0  0  0
   -1.0514   -3.2868   -5.1393 N   0  0  0  0  0  0  0  0  0  0  0  0
   -1.1919   -2.7591   -6.5072 C   0  0  0  0  0  0  0  0  0  0  0  0
   -1.6758   -3.8693   -7.4517 C   0  0  0  0  0  0  0  0  0  0  0  0
   -0.7881   -5.0001   -7.4292 O   0  0  0  0  0  0  0  0  0  0  0  0
   -0.6958   -5.5308   -6.0931 C   0  0  0  0  0  0  0  0  0  0  0  0
   -0.1732   -4.4730   -5.0926 C   0  0  0  0  0  0  0  0  0  0  0  0
  2  1  1  1
  2  3  1  0
  2 13  1  0
  3  4  1  0
  4  5  2  0
  4  9  1  0
  5  6  1  0
  6  7  2  0
  7  8  1  0
  8  9  2  0
  9 10  1  0
 10 11  1  0
 10 12  2  0
 13 14  2  0
 13 24  1  0
 14 15  1  0
 15 16  1  0
 15 17  2  0
 17 18  1  0
 18 19  1  0
 18 24  1  0
 19 20  2  0
 19 21  1  0
 21 22  2  0
 22 23  1  0
 22 25  1  0
 23 24  2  0
 25 26  1  0
 25 30  1  0
 26 27  1  0
 27 28  1  0
 28 29  1  0
 29 30  1  0
M  END
>  <DRUGBANK_ID>  (1) 
DB14980

>  <COMMON_NAME>  (1) 
AZD-6482

>  <CAS_NUMBER>  (1) 
1173900-33-8

>  <UNII>  (1) 
78G6MP5PZ5

$$$$
