
     RDKit          3D

 38 41  0  0  0  0  0  0  0  0999 V2000
    3.8656    1.5293    0.0605 C   0  0  0  0  0  0  0  0  0  0  0  0
    4.4686    0.3287   -0.2749 C   0  0  0  0  0  0  0  0  0  0  0  0
    3.7153   -0.8271   -0.3403 C   0  0  0  0  0  0  0  0  0  0  0  0
    2.4972    1.5630    0.3533 C   0  0  0  0  0  0  0  0  0  0  0  0
    1.6995    0.4131    0.2664 C   0  0  0  0  0  0  0  0  0  0  0  0
    2.3284   -0.7848   -0.0927 C   0  0  0  0  0  0  0  0  0  0  0  0
    1.5693   -2.0753   -0.1906 C   0  0  0  0  0  0  0  0  0  0  0  0
    0.1470   -2.1017    0.4291 C   0  0  2  0  0  0  0  0  0  0  0  0
    0.2189    0.4167    0.6297 C   0  0  2  0  0  0  0  0  0  0  0  0
   -0.5292   -0.7961   -0.0195 C   0  0  2  0  0  0  0  0  0  0  0  0
   -1.9888    1.7184    0.6170 C   0  0  0  0  0  0  0  0  0  0  0  0
   -0.4796    1.7568    0.3501 C   0  0  0  0  0  0  0  0  0  0  0  0
   -2.6673    0.5699   -0.1387 C   0  0  1  0  0  0  0  0  0  0  0  0
   -2.0172   -0.7403    0.3243 C   0  0  1  0  0  0  0  0  0  0  0  0
   -2.9521   -1.8231   -0.2117 C   0  0  0  0  0  0  0  0  0  0  0  0
   -4.3500   -1.1899   -0.0710 C   0  0  0  0  0  0  0  0  0  0  0  0
   -4.1184    0.2908    0.2960 C   0  0  2  0  0  0  0  0  0  0  0  0
    5.7994    0.2429   -0.5495 O   0  0  0  0  0  0  0  0  0  0  0  0
   -2.5714    0.8105   -1.6622 C   0  0  0  0  0  0  0  0  0  0  0  0
   -5.0707    1.1528   -0.2941 O   0  0  0  0  0  0  0  0  0  0  0  0
    0.0447   -2.2834    1.9675 C   0  0  0  0  0  0  0  0  0  0  0  0
    0.3839   -3.6933    2.4362 C   0  0  0  0  0  0  0  0  0  0  0  0
    1.8171   -4.0584    2.1006 C   0  0  0  0  0  0  0  0  0  0  0  0
    2.7527   -2.9462    2.6363 C   0  0  0  0  0  0  0  0  0  0  0  0
    2.6006   -2.8659    4.1606 C   0  0  0  0  0  0  0  0  0  0  0  0
    2.9012   -4.2210    4.7496 C   0  0  0  0  0  0  0  0  0  0  0  0
    4.2938   -4.5322    4.3331 C   0  0  0  0  0  0  0  0  0  0  0  0
    5.2543   -3.4780    4.9646 C   0  0  0  0  0  0  0  0  0  0  0  0
    5.4504   -3.6783    6.4324 C   0  0  0  0  0  0  0  0  0  0  0  0
    5.9945   -5.0938    6.6859 C   0  0  0  0  0  0  0  0  0  0  0  0
    7.4502   -5.4441    6.2077 C   0  0  0  0  0  0  0  0  0  0  0  0
    8.2752   -5.6785    7.0753 O   0  0  0  0  0  0  0  0  0  0  0  0
    7.8200   -5.5481    4.8472 N   0  0  0  0  0  0  0  0  0  0  0  0
    6.9802   -5.3883    3.6865 C   0  0  0  0  0  0  0  0  0  0  0  0
    9.1679   -5.9552    4.5421 C   0  0  0  0  0  0  0  0  0  0  0  0
    7.1767   -4.0927    2.8221 C   0  0  0  0  0  0  0  0  0  0  0  0
    8.3866   -4.1966    1.9403 C   0  0  0  0  0  0  0  0  0  0  0  0
    8.2231   -5.4104    1.0555 C   0  0  0  0  0  0  0  0  0  0  0  0
  1  2  2  0
  2  3  1  0
  2 18  1  0
  3  6  2  0
  4  1  1  0
  5  4  2  0
  5  6  1  0
  5  9  1  0
  6  7  1  0
  7  8  1  0
 10  8  1  1
  8 21  1  1
  9 10  1  0
  9 12  1  6
 10 14  1  0
 11 12  1  0
 13 19  1  6
 13 11  1  0
 13 14  1  0
 14 15  1  6
 15 16  1  0
 16 17  1  0
 17 20  1  6
 17 13  1  0
 21 22  1  0
 22 23  1  0
 23 24  1  0
 24 25  1  0
 25 26  1  0
 26 27  1  0
 27 28  1  0
 28 29  1  0
 29 30  1  0
 30 31  1  0
 31 32  2  0
 31 33  1  0
 33 34  1  0
 33 35  1  0
 34 36  1  0
 36 37  1  0
 37 38  1  0
M  END
>  <DRUGBANK_ID>  (1) 
DB03860

>  <SECONDARY_ACCESSION_NUMBERS>  (1) 
EXPT00529

>  <COMMON_NAME>  (1) 
ICI-164384

>  <CAS_NUMBER>  (1) 
98007-99-9

>  <UNII>  (1) 
84LT43726C

$$$$
