W42
     RDKit          3D

 31 33  0  0  0  0  0  0  0  0999 V2000
    0.4153    0.1336    0.0418 O   0  0  0  0  0  0  0  0  0  0  0  0
    0.2185   -0.4360    1.3378 C   0  0  0  0  0  0  0  0  0  0  0  0
    0.7382   -1.8655    1.4653 C   0  0  0  0  0  0  0  0  0  0  0  0
    2.1435   -1.8632    1.4953 O   0  0  0  0  0  0  0  0  0  0  0  0
    2.6576   -1.4066    0.2761 C   0  0  0  0  0  0  0  0  0  0  0  0
    2.3953   -2.2225   -0.8452 O   0  0  0  0  0  0  0  0  0  0  0  0
    6.4951   -3.9455   -1.2866 O   0  0  0  0  0  0  0  0  0  0  0  0
    5.1901   -4.4715   -1.2799 N   0  0  0  0  0  0  0  0  0  0  0  0
    4.4314   -3.4971   -0.7585 C   0  0  0  0  0  0  0  0  0  0  0  0
    2.9459   -3.5401   -0.7239 C   0  0  0  0  0  0  0  0  0  0  0  0
    5.2225   -2.4383   -0.3321 C   0  0  0  0  0  0  0  0  0  0  0  0
    6.4885   -2.7248   -0.7036 C   0  0  0  0  0  0  0  0  0  0  0  0
    7.6178   -1.8678   -0.3260 C   0  0  0  0  0  0  0  0  0  0  0  0
    8.3735   -2.5408    0.7570 C   0  0  0  0  0  0  0  0  0  0  0  0
    8.8079   -3.8325    0.1438 C   0  0  0  0  0  0  0  0  0  0  0  0
    9.8014   -3.8168   -0.9950 C   0  0  0  0  0  0  0  0  0  0  0  0
   11.1156   -3.2525   -0.4530 C   0  0  0  0  0  0  0  0  0  0  0  0
   11.8360   -4.1892    0.4313 O   0  0  0  0  0  0  0  0  0  0  0  0
   11.3838   -4.4645    1.7146 C   0  0  0  0  0  0  0  0  0  0  0  0
   11.9794   -3.8792    2.8328 C   0  0  0  0  0  0  0  0  0  0  0  0
   11.4184   -4.0428    4.1163 C   0  0  0  0  0  0  0  0  0  0  0  0
   10.1771   -4.6638    4.2658 C   0  0  0  0  0  0  0  0  0  0  0  0
    9.6097   -5.2915    3.1759 C   0  0  0  0  0  0  0  0  0  0  0  0
   10.3758   -5.4169    2.0073 C   0  0  0  0  0  0  0  0  0  0  0  0
    9.8428   -6.6308    0.8813 Cl  0  0  0  0  0  0  0  0  0  0  0  0
   13.4959   -3.0691    2.7078 Cl  0  0  0  0  0  0  0  0  0  0  0  0
    9.5597   -4.8047    5.5868 C   0  0  0  0  0  0  0  0  0  0  0  0
    9.4753   -3.8908    6.4976 N   0  0  0  0  0  0  0  0  0  0  0  0
    8.9646   -4.6334    7.6602 C   0  0  0  0  0  0  0  0  0  0  0  0
    8.5167   -5.9763    7.1255 C   0  0  0  0  0  0  0  0  0  0  0  0
    9.1198   -6.0611    5.8422 O   0  0  0  0  0  0  0  0  0  0  0  0
  1  2  1  0
  2  3  1  0
  3  4  1  0
  4  5  1  0
  5  6  1  0
  6 10  1  0
  7  8  1  0
  7 12  1  0
  8  9  2  0
  9 10  1  0
  9 11  1  0
 11 12  2  0
 12 13  1  0
 13 14  1  0
 14 15  1  0
 15 16  1  0
 16 17  1  0
 17 18  1  0
 18 19  1  0
 19 20  2  0
 19 24  1  0
 20 21  1  0
 20 26  1  0
 21 22  2  0
 22 23  1  0
 22 27  1  0
 23 24  2  0
 24 25  1  0
 27 28  2  0
 27 31  1  0
 28 29  1  0
 29 30  1  0
 30 31  1  0
M  END
>  <DRUGBANK_ID>  (1) 
DB08721

>  <COMMON_NAME>  (1) 
5-(5-(2,6-dichloro-4-(4,5-dihydro-2-oxazolyl)phenoxy)pentyl)-3-(hydroxyethyl oxymethyleneoxymethyl) isoxazole

$$$$
