CB1
     RDKit          3D

 18 19  0  0  0  0  0  0  0  0999 V2000
    1.3272   -0.1515    0.0288 C   0  0  0  0  0  0  0  0  0  0  0  0
    0.4935   -1.3067    0.0299 C   0  0  0  0  0  0  0  0  0  0  0  0
   -0.8946   -1.1243    0.0499 C   0  0  0  0  0  0  0  0  0  0  0  0
   -1.3517    0.2276    0.0824 C   0  0  0  0  0  0  0  0  0  0  0  0
   -0.5490    1.4190    0.1180 C   0  0  0  0  0  0  0  0  0  0  0  0
    0.8261    1.1920    0.0201 C   0  0  0  0  0  0  0  0  0  0  0  0
    1.2091   -2.6128   -0.0612 N   0  0  0  0  0  0  0  0  0  0  0  0
    0.6020   -3.6591   -0.2703 O   0  0  0  0  0  0  0  0  0  0  0  0
    2.4460   -2.5741    0.0278 O   0  0  0  0  0  0  0  0  0  0  0  0
   -1.9340   -2.2181    0.0885 C   0  0  0  0  0  0  0  0  0  0  0  0
   -3.2634   -1.9107    0.0175 N   0  0  0  0  0  0  0  0  0  0  0  0
   -1.6975   -3.4098    0.2393 O   0  0  0  0  0  0  0  0  0  0  0  0
   -1.3688    2.5607    0.0876 N   0  0  0  0  0  0  0  0  0  0  0  0
   -1.7216    3.4015    1.2195 C   0  0  0  0  0  0  0  0  0  0  0  0
   -1.2074    3.9674   -0.0928 C   0  0  0  0  0  0  0  0  0  0  0  0
    1.8377    2.2339   -0.2458 N   0  0  0  0  0  0  0  0  0  0  0  0
    1.4841    3.3999   -0.4094 O   0  0  0  0  0  0  0  0  0  0  0  0
    3.0204    1.8720   -0.3381 O   0  0  0  0  0  0  0  0  0  0  0  0
  1  2  2  0
  1  6  1  0
  2  3  1  0
  2  7  1  0
  3  4  2  0
  3 10  1  0
  4  5  1  0
  5  6  2  0
  5 13  1  0
  6 16  1  0
  7  8  2  0
  7  9  1  0
 10 11  1  0
 10 12  2  0
 13 14  1  0
 13 15  1  0
 14 15  1  0
 16 17  2  0
 16 18  1  0
M  CHG  4   7   1   9  -1  16   1  18  -1
M  END
>  <DRUGBANK_ID>  (1) 
DB04253

>  <SECONDARY_ACCESSION_NUMBERS>  (1) 
EXPT00837; DB12772

>  <COMMON_NAME>  (1) 
Tretazicar

>  <CAS_NUMBER>  (1) 
21919-05-1

>  <UNII>  (1) 
7865D5D01M

>  <SYNONYMS>  (1) 
Tretazicar

$$$$
