
     RDKit          3D

 29 24  0  0  0  0  0  0  0  0999 V2000
   -0.1072    0.4006    0.3006 C   0  0  0  0  0  0  0  0  0  0  0  0
   -0.2585    0.6949    1.8162 C   0  0  0  0  0  0  0  0  0  0  0  0
   -0.6741    1.8044    2.1930 O   0  0  0  0  0  0  0  0  0  0  0  0
    0.7116    0.2724    2.5733 O   0  0  0  0  0  0  0  0  0  0  0  0
   -0.0557    0.7927   -1.6827 C   0  0  0  0  0  0  0  0  0  0  0  0
    0.6678    0.2769   -3.0465 C   0  0  0  0  0  0  0  0  0  0  0  0
    0.0122   -0.9704   -3.7728 C   0  0  0  0  0  0  0  0  0  0  0  0
   -0.5709   -0.6982   -4.8405 O   0  0  0  0  0  0  0  0  0  0  0  0
    0.3257   -2.1541   -3.3970 O   0  0  0  0  0  0  0  0  0  0  0  0
   -1.6869    1.2386   -1.2335 C   0  0  0  0  0  0  0  0  0  0  0  0
   -1.9267    2.1753   -0.4089 O   0  0  0  0  0  0  0  0  0  0  0  0
   -2.4740    0.2524   -1.1590 O   0  0  0  0  0  0  0  0  0  0  0  0
    1.4195    1.8853   -2.1215 O   0  0  0  0  0  0  0  0  0  0  0  0
    1.5686    0.1652   -0.5960 C   0  0  0  0  0  0  0  0  0  0  0  0
    0.9352    2.0554   -0.3575 C   0  0  0  0  0  0  0  0  0  0  0  0
    0.1050    2.8405   -1.0792 O   0  0  0  0  0  0  0  0  0  0  0  0
    1.4989    2.6722    0.6701 O   0  0  0  0  0  0  0  0  0  0  0  0
    0.6689   -1.4554   -1.1199 C   0  0  0  0  0  0  0  0  0  0  0  0
    0.9879   -2.8208   -0.4193 C   0  0  0  0  0  0  0  0  0  0  0  0
    0.5663   -3.0658    0.9859 C   0  0  0  0  0  0  0  0  0  0  0  0
   -0.4422   -3.7456    1.2821 O   0  0  0  0  0  0  0  0  0  0  0  0
    0.9223   -2.1499    1.7856 O   0  0  0  0  0  0  0  0  0  0  0  0
   -1.1869   -1.8279   -1.3406 C   0  0  0  0  0  0  0  0  0  0  0  0
   -1.8538   -1.8216   -2.3882 O   0  0  0  0  0  0  0  0  0  0  0  0
   -1.7303   -1.9510   -0.1584 O   0  0  0  0  0  0  0  0  0  0  0  0
    1.8920   -1.6408   -2.0708 O   0  0  0  0  0  0  0  0  0  0  0  0
    3.8200    0.0308    0.1008 Zn  0  0  0  0  0 15  0  0  0  0  0  0
   -1.4306   -1.7539    1.5317 Zn  0  0  0  0  0 15  0  0  0  0  0  0
    1.1120    2.4417    2.4143 Zn  0  0  0  0  0 15  0  0  0  0  0  0
  1  2  1  0
  1  5  1  0
  2  3  2  0
  2  4  1  0
  5  6  1  0
  5 10  1  0
  5 13  1  0
  6  7  1  0
  7  8  2  0
  7  9  1  0
 10 11  2  0
 10 12  1  0
 14 15  1  0
 14 18  1  0
 15 16  2  0
 15 17  1  0
 18 19  1  0
 18 23  1  0
 18 26  1  0
 19 20  1  0
 20 21  2  0
 20 22  1  0
 23 24  2  0
 23 25  1  0
M  CHG  8   4  -1   9  -1  12  -1  17  -1  22  -1  25  -1  27   2  28   2
M  CHG  1  29   2
M  END
>  <DRUGBANK_ID>  (1) 
DB11154

>  <COMMON_NAME>  (1) 
Zinc citrate

>  <CAS_NUMBER>  (1) 
546-46-3

>  <UNII>  (1) 
K72I3DEX9B

>  <SYNONYMS>  (1) 
Citric acid, zinc salt; Trizinc dicitrate

$$$$
