4MP
     RDKit          3D

 16 17  0  0  0  0  0  0  0  0999 V2000
    1.9505    0.1868   -0.1052 O   0  0  0  0  0  0  0  0  0  0  0  0
   -0.3878   -3.3731   -0.0966 O   0  0  0  0  0  0  0  0  0  0  0  0
    5.9165   -3.7125    0.0035 O   0  0  0  0  0  0  0  0  0  0  0  0
   -0.0375   -1.0930    0.0037 N   0  0  0  0  0  0  0  0  0  0  0  0
    0.7376    0.0743    0.0104 C   0  0  0  0  0  0  0  0  0  0  0  0
   -0.1769    1.2450    0.2246 C   0  0  0  0  0  0  0  0  0  0  0  0
   -1.5093    0.7191   -0.2680 C   0  0  0  0  0  0  0  0  0  0  0  0
   -1.4512   -0.7620    0.0580 C   0  0  0  0  0  0  0  0  0  0  0  0
    0.3919   -2.4227   -0.0530 C   0  0  0  0  0  0  0  0  0  0  0  0
    1.8527   -2.7160   -0.0402 C   0  0  0  0  0  0  0  0  0  0  0  0
    2.6410   -2.3092    1.0399 C   0  0  0  0  0  0  0  0  0  0  0  0
    4.0043   -2.6192    1.0827 C   0  0  0  0  0  0  0  0  0  0  0  0
    4.5886   -3.3804    0.0716 C   0  0  0  0  0  0  0  0  0  0  0  0
    3.7840   -3.8485   -0.9743 C   0  0  0  0  0  0  0  0  0  0  0  0
    2.4288   -3.4875   -1.0550 C   0  0  0  0  0  0  0  0  0  0  0  0
    6.7673   -3.1261    0.9881 C   0  0  0  0  0  0  0  0  0  0  0  0
  1  5  2  0
  2  9  2  0
  3 13  1  0
  3 16  1  0
  4  5  1  0
  4  8  1  0
  4  9  1  0
  5  6  1  0
  6  7  1  0
  7  8  1  0
  9 10  1  0
 10 11  2  0
 10 15  1  0
 11 12  1  0
 12 13  2  0
 13 14  1  0
 14 15  2  0
M  END
>  <DRUGBANK_ID>  (1) 
DB04599

>  <COMMON_NAME>  (1) 
Aniracetam

>  <CAS_NUMBER>  (1) 
72432-10-1

>  <UNII>  (1) 
5L16LKN964

>  <SYNONYMS>  (1) 
1-p-anisoylpyrrolidin-2-one; Aniracetam; Aniracetamun

$$$$
