
     RDKit          3D

 31 33  0  0  1  0  0  0  0  0999 V2000
   -0.3750   -1.5084    3.8023 N   0  0  0  0  0  0  0  0  0  0  0  0
   -1.2893   -0.5440    3.3226 C   0  0  0  0  0  0  0  0  0  0  0  0
   -0.8453    0.6939    2.9212 N   0  0  0  0  0  0  0  0  0  0  0  0
   -1.8465    1.6494    2.7359 C   0  0  0  0  0  0  0  0  0  0  0  0
   -3.3136    1.5382    2.7724 N   0  0  0  0  0  0  0  0  0  0  0  0
   -3.7199    0.2841    3.3189 C   0  0  0  0  0  0  0  0  0  0  0  0
   -2.7506   -0.7766    3.5167 C   0  0  0  0  0  0  0  0  0  0  0  0
   -3.3041   -1.8617    4.1593 N   0  0  0  0  0  0  0  0  0  0  0  0
   -4.5702   -1.4963    4.4855 C   0  0  0  0  0  0  0  0  0  0  0  0
   -4.8170   -0.1415    4.2704 N   0  0  0  0  0  0  0  0  0  0  0  0
   -6.0703    0.3991    4.9857 C   0  0  2  0  0  0  0  0  0  0  0  0
   -6.7218    1.4381    4.2014 O   0  0  0  0  0  0  0  0  0  0  0  0
   -6.8046    2.5859    5.0672 C   0  0  1  0  0  0  0  0  0  0  0  0
   -7.2843    3.8649    4.4550 C   0  0  0  0  0  0  0  0  0  0  0  0
   -6.7848    4.9773    5.2183 O   0  0  0  0  0  0  0  0  0  0  0  0
   -5.2562    5.6124    5.1408 P   0  0  0  0  0  0  0  0  0  0  0  0
   -5.4348    5.7905    3.4293 O   0  0  0  0  0  0  0  0  0  0  0  0
   -4.1918    4.6222    4.7033 O   0  0  0  0  0  0  0  0  0  0  0  0
   -5.0775    5.4343    6.8523 O   0  0  0  0  0  0  0  0  0  0  0  0
   -4.2955    3.9301    7.1970 P   0  0  1  0  0  0  0  0  0  0  0  0
   -5.5210    3.0736    7.4210 O   0  0  0  0  0  0  0  0  0  0  0  0
   -2.9074    4.2606    6.7194 O   0  0  0  0  0  0  0  0  0  0  0  0
   -3.4909    2.3825    7.5517 N   0  0  0  0  0  0  0  0  0  0  0  0
   -2.8219    1.7034    6.0485 P   0  0  0  0  0  0  0  0  0  0  0  0
   -3.3885    0.2951    6.6417 O   0  0  0  0  0  0  0  0  0  0  0  0
   -4.0194    2.3351    5.2366 O   0  0  0  0  0  0  0  0  0  0  0  0
   -2.2399    1.1126    4.7410 O   0  0  0  0  0  0  0  0  0  0  0  0
   -7.3596    2.0884    6.4067 C   0  0  2  0  0  0  0  0  0  0  0  0
   -7.6167    3.0529    7.4802 O   0  0  0  0  0  0  0  0  0  0  0  0
   -6.2989    0.8763    6.5612 C   0  0  1  0  0  0  0  0  0  0  0  0
   -6.6758   -0.0447    7.5973 O   0  0  0  0  0  0  0  0  0  0  0  0
  1  2  1  0
  2  3  2  0
  2  7  1  0
  3  4  1  0
  4  5  2  0
  5  6  1  0
  6  7  2  0
  6 10  1  0
  7  8  1  0
  8  9  2  0
  9 10  1  0
 11 10  1  6
 11 12  1  0
 11 30  1  0
 12 13  1  0
 13 14  1  6
 13 28  1  0
 14 15  1  0
 16 18  2  0
 16 19  1  0
 16 17  1  0
 16 15  1  0
 19 20  1  0
 20 21  1  0
 20 22  2  0
 20 23  1  0
 23 24  1  0
 24 25  1  0
 24 26  1  0
 24 27  2  0
 28 29  1  1
 28 30  1  0
 30 31  1  1
M  END
>  <DRUGBANK_ID>  (1) 
DB04395

>  <SECONDARY_ACCESSION_NUMBERS>  (1) 
EXPT00524

>  <COMMON_NAME>  (1) 
Phosphoaminophosphonic Acid-Adenylate Ester

$$$$
