VC3
     RDKit          3D

 14 15  0  0  0  0  0  0  0  0999 V2000
    0.9384   -0.0633    0.0036 N   0  0  0  0  0  0  0  0  0  0  0  0
   -2.1293    5.3702   -1.6468 N   0  0  0  0  0  0  0  0  0  0  0  0
   -2.0684    4.2018   -2.3060 C   0  0  0  0  0  0  0  0  0  0  0  0
   -2.8190    6.1829   -2.4629 N   0  0  0  0  0  0  0  0  0  0  0  0
    0.1829    1.0328   -0.5903 C   0  0  0  0  0  0  0  0  0  0  0  0
   -2.7670    4.2838   -3.5377 C   0  0  0  0  0  0  0  0  0  0  0  0
    0.2832   -0.9628    0.5557 O   0  0  0  0  0  0  0  0  0  0  0  0
    2.1696   -0.0308   -0.0905 O   0  0  0  0  0  0  0  0  0  0  0  0
   -1.3360    3.0661   -1.7540 C   0  0  0  0  0  0  0  0  0  0  0  0
   -3.2382    5.5736   -3.6068 C   0  0  0  0  0  0  0  0  0  0  0  0
    0.5318    1.5061   -1.8601 C   0  0  0  0  0  0  0  0  0  0  0  0
   -0.9109    1.5560    0.1044 C   0  0  0  0  0  0  0  0  0  0  0  0
   -0.2355    2.5254   -2.4395 C   0  0  0  0  0  0  0  0  0  0  0  0
   -1.6860    2.5518   -0.4960 C   0  0  0  0  0  0  0  0  0  0  0  0
  1  5  1  0
  1  7  1  0
  1  8  2  0
  2  3  2  0
  2  4  1  0
  3  6  1  0
  3  9  1  0
  4 10  1  0
  5 11  2  0
  5 12  1  0
  6 10  2  0
  9 13  2  0
  9 14  1  0
 11 13  1  0
 12 14  2  0
M  CHG  2   1   1   7  -1
M  END
>  <DRUGBANK_ID>  (1) 
DB08695

>  <COMMON_NAME>  (1) 
3-(4-nitrophenyl)-1H-pyrazole

>  <UNII>  (1) 
K0B6P40GV5

$$$$
