
     RDKit          3D

 15 14  0  0  1  0  0  0  0  0999 V2000
    0.8983    0.1313    0.2288 C   0  0  0  0  0  0  0  0  0  0  0  0
    1.0922   -2.3139   -3.6049 C   0  0  0  0  0  0  0  0  0  0  0  0
    0.1836   -1.7571   -6.3377 C   0  0  0  0  0  0  0  0  0  0  0  0
    0.3498    0.3222   -1.1755 C   0  0  1  0  0  0  0  0  0  0  0  0
    0.5547   -0.8775   -3.3332 C   0  0  2  0  0  0  0  0  0  0  0  0
    1.5790   -1.0709   -6.2895 C   0  0  2  0  0  0  0  0  0  0  0  0
    1.0712    0.3865   -4.1559 C   0  0  2  0  0  0  0  0  0  0  0  0
    1.5177    0.3237   -5.6576 C   0  0  2  0  0  0  0  0  0  0  0  0
    0.8807   -0.7951   -1.9012 N   0  0  0  0  0  0  0  0  0  0  0  0
    0.0696   -3.3032   -3.5521 O   0  0  0  0  0  0  0  0  0  0  0  0
   -0.6415   -1.1297   -7.3123 O   0  0  0  0  0  0  0  0  0  0  0  0
   -1.0520    0.2584   -1.1741 O   0  0  0  0  0  0  0  0  0  0  0  0
    2.1458   -1.0741   -7.5990 O   0  0  0  0  0  0  0  0  0  0  0  0
    2.1487    1.0182   -3.4221 O   0  0  0  0  0  0  0  0  0  0  0  0
    0.7107    1.2227   -6.4395 O   0  0  0  0  0  0  0  0  0  0  0  0
  4  1  1  1
  4 12  1  0
  5  9  1  0
  5  7  1  0
  5  2  1  6
  6  3  1  0
  6 13  1  6
  7 14  1  1
  7  8  1  0
  8  6  1  0
  8 15  1  6
  9  4  1  0
 10  2  1  0
 11  3  1  0
M  END
>  <DRUGBANK_ID>  (1) 
DB02787

>  <SECONDARY_ACCESSION_NUMBERS>  (1) 
EXPT02197

>  <COMMON_NAME>  (1) 
N-Acetylmannosaminitol

$$$$
