S80
     RDKit          3D

 29 29  0  0  0  0  0  0  0  0999 V2000
    1.0136    0.0618   -0.2570 C   0  0  0  0  0  0  0  0  0  0  0  0
    2.0173    0.2996   -0.9646 O   0  0  0  0  0  0  0  0  0  0  0  0
    0.4189   -1.1727   -0.2645 N   0  0  0  0  0  0  0  0  0  0  0  0
   -0.9875   -1.3249    0.0699 C   0  0  0  0  0  0  0  0  0  0  0  0
   -1.9957   -0.5168   -0.6814 C   0  0  0  0  0  0  0  0  0  0  0  0
   -2.0789    0.9062   -0.1424 C   0  0  0  0  0  0  0  0  0  0  0  0
   -0.7903    1.7264   -0.2796 C   0  0  0  0  0  0  0  0  0  0  0  0
    0.3503    1.1839    0.5752 C   0  0  2  0  0  0  0  0  0  0  0  0
    1.3918    2.1618    0.9428 N   0  0  0  0  0  0  0  0  0  0  0  0
    2.3990    1.5875    1.7022 C   0  0  0  0  0  0  0  0  0  0  0  0
    3.6927    2.3391    1.9288 C   0  0  1  0  0  0  0  0  0  0  0  0
    3.8645    2.8983    3.3646 C   0  0  1  0  0  0  0  0  0  0  0  0
    3.7449    1.8156    4.4477 C   0  0  0  0  0  0  0  0  0  0  0  0
    4.7323    1.4156    5.0674 O   0  0  0  0  0  0  0  0  0  0  0  0
    2.5321    1.2542    4.6955 N   0  0  0  0  0  0  0  0  0  0  0  0
    1.3005    1.8601    4.4024 O   0  0  0  0  0  0  0  0  0  0  0  0
    5.2563    3.5978    3.4595 C   0  0  0  0  0  0  0  0  0  0  0  0
    5.4301    4.7426    2.4472 C   0  0  0  0  0  0  0  0  0  0  0  0
    4.3909    5.8349    2.6594 C   0  0  0  0  0  0  0  0  0  0  0  0
    4.5216    6.3984    3.9550 O   0  0  0  0  0  0  0  0  0  0  0  0
    4.8288    1.3326    1.6095 C   0  0  0  0  0  0  0  0  0  0  0  0
    4.6970    0.7483    0.2122 C   0  0  0  0  0  0  0  0  0  0  0  0
    4.7276    1.8397   -0.8543 C   0  0  0  0  0  0  0  0  0  0  0  0
    5.7149   -0.3403   -0.0486 C   0  0  0  0  0  0  0  0  0  0  0  0
    2.2362    0.4710    2.1966 O   0  0  0  0  0  0  0  0  0  0  0  0
    1.2211   -2.3765   -0.6050 C   0  0  0  0  0  0  0  0  0  0  0  0
    1.4400   -3.4617    0.5040 C   0  0  0  0  0  0  0  0  0  0  0  0
    0.2560   -4.0940    1.0218 O   0  0  0  0  0  0  0  0  0  0  0  0
   -0.3841   -3.2561    1.9687 C   0  0  0  0  0  0  0  0  0  0  0  0
  1  2  2  0
  1  3  1  0
  1  8  1  0
  3  4  1  0
  3 26  1  0
  4  5  1  0
  5  6  1  0
  6  7  1  0
  7  8  1  0
  8  9  1  6
  9 10  1  0
 10 11  1  0
 10 25  2  0
 11 12  1  0
 11 21  1  1
 12 13  1  0
 12 17  1  6
 13 14  2  0
 13 15  1  0
 15 16  1  0
 17 18  1  0
 18 19  1  0
 19 20  1  0
 21 22  1  0
 22 23  1  0
 22 24  1  0
 26 27  1  0
 27 28  1  0
 28 29  1  0
M  END
>  <DRUGBANK_ID>  (1) 
DB02090

>  <SECONDARY_ACCESSION_NUMBERS>  (1) 
EXPT02835

>  <COMMON_NAME>  (1) 
A Disubstituted Succinyl Caprolactam Hydroxymate Mmp3inhibitor

$$$$
