197
     RDKit          3D

 31 34  0  0  1  0  0  0  0  0999 V2000
   -0.9875    0.9856   -0.2711 S   0  0  0  0  0  0  0  0  0  0  0  0
   -0.9057    6.1344    1.5870 O   0  0  0  0  0  0  0  0  0  0  0  0
   -0.8560    7.2462   -1.1163 O   0  0  0  0  0  0  0  0  0  0  0  0
   -1.2463    3.7604    6.5513 O   0  0  0  0  0  0  0  0  0  0  0  0
    2.5680   -0.4683   -0.0279 O   0  0  0  0  0  0  0  0  0  0  0  0
   -1.8774   -1.4471    0.0263 O   0  0  0  0  0  0  0  0  0  0  0  0
    0.3887   -1.1265   -0.0490 N   0  0  0  0  0  0  0  0  0  0  0  0
   -1.2218    7.5265    1.3701 C   0  0  0  0  0  0  0  0  0  0  0  0
   -0.6042    8.3693    2.4841 C   0  0  0  0  0  0  0  0  0  0  0  0
   -1.1392    7.9113    3.8204 C   0  0  0  0  0  0  0  0  0  0  0  0
   -1.0695    6.4184    3.9757 C   0  0  0  0  0  0  0  0  0  0  0  0
   -0.9422    5.6170    2.8529 C   0  0  0  0  0  0  0  0  0  0  0  0
   -0.6148    8.0662    0.0305 C   0  0  0  0  0  0  0  0  0  0  0  0
   -2.7498    7.6080    1.3057 C   0  0  0  0  0  0  0  0  0  0  0  0
   -1.2105    5.7999    5.2321 C   0  0  0  0  0  0  0  0  0  0  0  0
   -0.8490    4.2182    2.9920 C   0  0  0  0  0  0  0  0  0  0  0  0
   -0.9112    3.5889    4.2435 C   0  0  0  0  0  0  0  0  0  0  0  0
   -1.1191    4.3972    5.3488 C   0  0  0  0  0  0  0  0  0  0  0  0
   -1.5005    6.6340    6.4402 C   0  0  0  0  0  0  0  0  0  0  0  0
   -0.5907    3.3786    1.8046 C   0  0  0  0  0  0  0  0  0  0  0  0
   -0.7782    2.0888    4.3635 C   0  0  0  0  0  0  0  0  0  0  0  0
   -0.1346    6.0835   -1.1917 C   0  0  0  0  0  0  0  0  0  0  0  0
    0.9470    3.4850   -1.2917 C   0  0  0  0  0  0  0  0  0  0  0  0
    0.8655    5.6897   -0.3023 C   0  0  0  0  0  0  0  0  0  0  0  0
   -0.4985    5.2125   -2.2128 C   0  0  0  0  0  0  0  0  0  0  0  0
    1.4016    2.0450   -1.2404 C   0  0  0  0  0  0  0  0  0  0  0  0
    0.8278    1.2192   -0.0873 C   0  0  0  0  0  0  0  0  0  0  0  0
    1.4026    4.4057   -0.3507 C   0  0  0  0  0  0  0  0  0  0  0  0
    0.0347    3.9201   -2.2596 C   0  0  0  0  0  0  0  0  0  0  0  0
    1.3766   -0.1880   -0.0682 C   0  0  0  0  0  0  0  0  0  0  0  0
   -0.9069   -0.7290   -0.0649 C   0  0  0  0  0  0  0  0  0  0  0  0
  1 27  1  0
  1 31  1  0
  2  8  1  0
  2 12  1  0
  3 13  1  0
  3 22  1  0
  4 18  1  0
  5 30  2  0
  6 31  2  0
  7 30  1  0
  7 31  1  0
  8  9  1  0
  8 13  1  0
  8 14  1  0
  9 10  1  0
 10 11  1  0
 11 12  2  0
 11 15  1  0
 12 16  1  0
 15 18  2  0
 15 19  1  0
 16 17  2  0
 16 20  1  0
 17 18  1  0
 17 21  1  0
 22 24  2  0
 22 25  1  0
 23 26  1  0
 23 28  2  0
 23 29  1  0
 24 28  1  0
 25 29  2  0
 26 27  1  0
 27 30  1  0
M  END
>  <DRUGBANK_ID>  (1) 
DB00197

>  <SECONDARY_ACCESSION_NUMBERS>  (1) 
APRD00488

>  <COMMON_NAME>  (1) 
Troglitazone

>  <CAS_NUMBER>  (1) 
97322-87-7

>  <UNII>  (1) 
I66ZZ0ZN0E

>  <SYNONYMS>  (1) 
Troglitazona; Troglitazone

$$$$
