
     RDKit          3D

 35 37  0  0  0  0  0  0  0  0999 V2000
    2.6658   -0.0651   -0.5298 C   0  0  0  0  0  0  0  0  0  0  0  0
    1.5120   -1.4900   -0.6621 C   0  0  0  0  0  0  0  0  0  0  0  0
   -0.3254   -1.2293   -0.5065 C   0  0  0  0  0  0  0  0  0  0  0  0
   -1.0167    0.5030   -0.1426 C   0  0  0  0  0  0  0  0  0  0  0  0
    0.1744    1.9383    0.0342 C   0  0  0  0  0  0  0  0  0  0  0  0
    2.0008    1.6469   -0.1706 C   0  0  0  0  0  0  0  0  0  0  0  0
    2.9627    2.7677    0.0591 C   0  0  0  0  0  0  0  0  0  0  0  0
    3.7171    2.6355    1.3093 N   0  0  0  0  0  0  0  0  0  0  0  0
    2.8252    2.6162    2.4767 C   0  0  0  0  0  0  0  0  0  0  0  0
    3.6644    2.5865    3.7480 C   0  0  0  0  0  0  0  0  0  0  0  0
    4.6031    1.3630    3.7761 C   0  0  0  0  0  0  0  0  0  0  0  0
    5.4405    1.3139    2.5030 C   0  0  0  0  0  0  0  0  0  0  0  0
    4.5276    1.4135    1.3167 C   0  0  0  0  0  0  0  0  0  0  0  0
    5.5314    1.4516    4.8834 N   0  0  0  0  0  0  0  0  0  0  0  0
    5.4938    0.5271    5.9012 C   0  0  0  0  0  0  0  0  0  0  0  0
    5.2544    0.9055    7.2324 C   0  0  0  0  0  0  0  0  0  0  0  0
    4.9264    2.1618    7.8490 C   0  0  0  0  0  0  0  0  0  0  0  0
    4.7437    2.0199    9.2000 C   0  0  0  0  0  0  0  0  0  0  0  0
    4.9484    0.4361    9.7517 S   0  0  0  0  0  0  0  0  0  0  0  0
    5.2889   -0.1116    8.1744 C   0  0  0  0  0  0  0  0  0  0  0  0
    5.5536   -1.4070    7.9473 N   0  0  0  0  0  0  0  0  0  0  0  0
    5.7700   -1.6532    6.6524 C   0  0  0  0  0  0  0  0  0  0  0  0
    5.7351   -0.7763    5.6320 N   0  0  0  0  0  0  0  0  0  0  0  0
    4.3414    3.2534   10.3240 Cl  0  0  0  0  0  0  0  0  0  0  0  0
   -2.4113    0.7054   -0.0541 C   0  0  0  0  0  0  0  0  0  0  0  0
   -3.5777    0.8443   -0.0317 N   0  0  0  0  0  0  0  0  0  0  0  0
   -1.0266   -2.3123   -0.1240 F   0  0  0  0  0  0  0  0  0  0  0  0
    0.8691    0.0639    0.4999 C   0  0  0  0  0  0  0  0  0  0  0  0
    0.6861    0.4176   -1.2829 C   0  0  0  0  0  0  0  0  0  0  0  0
    1.2608    1.1656   -2.5535 C   0  0  0  0  0  0  0  0  0  0  0  0
    0.5778    1.7618   -3.3752 O   0  0  0  0  0  0  0  0  0  0  0  0
    2.5879    1.1129   -2.6177 O   0  0  0  0  0  0  0  0  0  0  0  0
    0.2322   -0.5885    1.8361 C   0  0  0  0  0  0  0  0  0  0  0  0
    0.9652   -1.0476    2.6963 O   0  0  0  0  0  0  0  0  0  0  0  0
   -1.1098   -0.6003    1.8857 O   0  0  0  0  0  0  0  0  0  0  0  0
  1  2  2  0
  1  6  1  0
  2  3  1  0
  3  4  2  0
  3 27  1  0
  4  5  1  0
  4 25  1  0
  5  6  2  0
  6  7  1  0
  7  8  1  0
  8  9  1  0
  8 13  1  0
  9 10  1  0
 10 11  1  0
 11 12  1  0
 11 14  1  0
 12 13  1  0
 14 15  1  0
 15 16  2  0
 15 23  1  0
 16 17  1  0
 16 20  1  0
 17 18  2  0
 18 19  1  0
 18 24  1  0
 19 20  1  0
 20 21  2  0
 21 22  1  0
 22 23  2  0
 25 26  3  0
 28 29  2  0
 28 33  1  0
 29 30  1  0
 30 31  2  0
 30 32  1  0
 33 34  2  0
 33 35  1  0
M  END
>  <DRUGBANK_ID>  (1) 
DB05607

>  <COMMON_NAME>  (1) 
PRX-08066

>  <UNII>  (1) 
92E9B7675Y

>  <SYNONYMS>  (1) 
5-((4-(6-CHLOROTHIENO(2,3-D)PYRIMIDINE-4-YLAMINO)PIPERIDIN-1-YL)METHYL)-2-FLUOROBENZONITRILE MONOFUMURATE; 5-((4-(6-chlorothieno[2,3-d]pyrimidine-4-ylamino)piperidin-1-yl)methyl)-2-fluorobenzonitrile monofumurate

$$$$
