
     RDKit          3D

 23 26  0  0  1  0  0  0  0  0999 V2000
    0.9644    0.1535   -0.3330 C   0  0  0  0  0  0  0  0  0  0  0  0
    0.2084    1.2130   -1.1583 C   0  0  1  0  0  0  0  0  0  0  0  0
   -0.2563    1.1766   -2.6713 C   0  0  0  0  0  0  0  0  0  0  0  0
   -1.6255    0.9100   -2.1998 N   0  0  0  0  0  0  0  0  0  0  0  0
   -2.9185    1.1430   -2.6738 C   0  0  0  0  0  0  0  0  0  0  0  0
   -3.8162    1.5042   -1.9391 O   0  0  0  0  0  0  0  0  0  0  0  0
   -3.3581    0.9816   -4.0938 C   0  0  0  0  0  0  0  0  0  0  0  0
   -2.8116    2.1689   -4.8698 C   0  0  0  0  0  0  0  0  0  0  0  0
   -2.3582    3.1538   -5.5135 N   0  0  0  0  0  0  0  0  0  0  0  0
   -1.2775    1.1416   -0.7699 C   0  0  2  0  0  0  0  0  0  0  0  0
   -1.7950    2.4395   -0.1705 C   0  0  0  0  0  0  0  0  0  0  0  0
   -3.0449    2.0165    0.6217 C   0  0  0  0  0  0  0  0  0  0  0  0
   -3.0703    0.5556    0.6367 N   0  0  0  0  0  0  0  0  0  0  0  0
   -1.8502    0.0048    0.0884 C   0  0  0  0  0  0  0  0  0  0  0  0
   -4.2291   -0.1893    0.5960 C   0  0  0  0  0  0  0  0  0  0  0  0
   -4.3706   -1.3233    1.4163 C   0  0  0  0  0  0  0  0  0  0  0  0
   -3.5372   -2.0329    2.3248 C   0  0  0  0  0  0  0  0  0  0  0  0
   -4.3117   -2.9893    2.9440 C   0  0  0  0  0  0  0  0  0  0  0  0
   -5.5787   -2.8976    2.4270 N   0  0  0  0  0  0  0  0  0  0  0  0
   -5.6166   -1.9275    1.4647 C   0  0  0  0  0  0  0  0  0  0  0  0
   -6.6980   -1.6213    0.7362 N   0  0  0  0  0  0  0  0  0  0  0  0
   -6.4426   -0.5792   -0.0716 C   0  0  0  0  0  0  0  0  0  0  0  0
   -5.3164    0.1616   -0.1420 N   0  0  0  0  0  0  0  0  0  0  0  0
  2  1  1  1
  2  3  1  0
  2 10  1  0
  3  4  1  0
  4  5  1  0
  5  6  2  0
  5  7  1  0
  7  8  1  0
  8  9  3  0
 10  4  1  0
 10 11  1  1
 10 14  1  0
 11 12  1  0
 12 13  1  0
 13 14  1  0
 13 15  1  0
 15 16  2  0
 15 23  1  0
 16 17  1  0
 16 20  1  0
 17 18  2  0
 18 19  1  0
 19 20  1  0
 20 21  2  0
 21 22  1  0
 22 23  2  0
M  END
>  <DRUGBANK_ID>  (1) 
DB16133

>  <COMMON_NAME>  (1) 
Delgocitinib

>  <CAS_NUMBER>  (1) 
1263774-59-9

>  <UNII>  (1) 
9L0Q8KK220

>  <SYNONYMS>  (1) 
Delgocitinib

$$$$
