
     RDKit          3D

 18 19  0  0  1  0  0  0  0  0999 V2000
    0.8935    0.1164    0.0864 C   0  0  0  0  0  0  0  0  0  0  0  0
    0.4531    0.5949   -1.3211 C   0  0  1  0  0  0  0  0  0  0  0  0
    1.0639   -0.4327   -2.3046 C   0  0  0  0  0  0  0  0  0  0  0  0
    0.5787   -1.8653   -2.1813 C   0  0  0  0  0  0  0  0  0  0  0  0
    1.2816   -2.8815   -2.8339 C   0  0  0  0  0  0  0  0  0  0  0  0
    0.8729   -4.2093   -2.6938 C   0  0  0  0  0  0  0  0  0  0  0  0
   -0.2400   -4.5545   -1.9279 C   0  0  0  0  0  0  0  0  0  0  0  0
   -0.9687   -3.5582   -1.3006 C   0  0  0  0  0  0  0  0  0  0  0  0
   -0.5584   -2.2486   -1.4544 C   0  0  0  0  0  0  0  0  0  0  0  0
   -0.9938    0.8728   -1.4041 N   0  0  0  0  0  0  0  0  0  0  0  0
   -1.6192    1.2517   -2.6852 C   0  0  0  0  0  0  0  0  0  0  0  0
   -1.3675    0.3921   -3.9127 C   0  0  0  0  0  0  0  0  0  0  0  0
   -0.4834    0.8822   -4.8990 C   0  0  0  0  0  0  0  0  0  0  0  0
    0.0290    0.0439   -5.8963 C   0  0  0  0  0  0  0  0  0  0  0  0
   -0.3112   -1.3047   -5.9109 C   0  0  0  0  0  0  0  0  0  0  0  0
   -1.2421   -1.7873   -4.9918 C   0  0  0  0  0  0  0  0  0  0  0  0
   -1.8449   -0.9191   -4.0674 C   0  0  0  0  0  0  0  0  0  0  0  0
   -3.1867   -1.5169   -3.1551 Cl  0  0  0  0  0  0  0  0  0  0  0  0
  2  1  1  1
  2  3  1  0
  2 10  1  0
  3  4  1  0
  4  5  2  0
  4  9  1  0
  5  6  1  0
  6  7  2  0
  7  8  1  0
  8  9  2  0
 10 11  1  0
 11 12  1  0
 12 13  2  0
 12 17  1  0
 13 14  1  0
 14 15  2  0
 15 16  1  0
 16 17  2  0
 17 18  1  0
M  END
>  <DRUGBANK_ID>  (1) 
DB13561

>  <COMMON_NAME>  (1) 
Clobenzorex

>  <CAS_NUMBER>  (1) 
13364-32-4

>  <UNII>  (1) 
4A5352XI2A

>  <SYNONYMS>  (1) 
Clobenzorex

$$$$
