MXT
     RDKit          3D

 18 19  0  0  0  0  0  0  0  0999 V2000
    0.0064    0.5391   -0.0345 N   0  0  0  0  0  0  0  0  0  0  0  0
   -2.8891    2.8451   -0.2290 N   0  0  0  0  0  0  0  0  0  0  0  0
   -2.8257    4.3155   -0.2737 O   0  0  0  0  0  0  0  0  0  0  0  0
   -2.1982   -0.5235   -0.1278 O   0  0  0  0  0  0  0  0  0  0  0  0
    2.3251    0.4889    0.0418 O   0  0  0  0  0  0  0  0  0  0  0  0
   -0.9657   -0.4916   -0.0543 C   0  0  0  0  0  0  0  0  0  0  0  0
   -0.0717    2.1255   -0.0819 C   0  0  0  0  0  0  0  0  0  0  0  0
   -0.7569    2.8256    1.1286 C   0  0  0  0  0  0  0  0  0  0  0  0
   -0.6494    2.7764   -1.3697 C   0  0  0  0  0  0  0  0  0  0  0  0
   -2.2801    2.5473    1.1504 C   0  0  0  0  0  0  0  0  0  0  0  0
   -3.0065    3.2517    2.3140 C   0  0  0  0  0  0  0  0  0  0  0  0
   -2.4669    1.1509    1.7158 C   0  0  0  0  0  0  0  0  0  0  0  0
   -2.1521    2.4701   -1.5271 C   0  0  0  0  0  0  0  0  0  0  0  0
   -2.2509    1.0428   -2.0545 C   0  0  0  0  0  0  0  0  0  0  0  0
   -2.7305    3.1297   -2.7977 C   0  0  0  0  0  0  0  0  0  0  0  0
    1.0444   -1.5552   -0.0307 C   0  0  0  0  0  0  0  0  0  0  0  0
   -0.4118   -1.8213    0.0395 C   0  0  0  0  0  0  0  0  0  0  0  0
    1.2124   -0.0693    0.0077 C   0  0  0  0  0  0  0  0  0  0  0  0
  1  6  1  0
  1  7  1  0
  1 18  1  0
  2  3  1  0
  2 10  1  0
  2 13  1  0
  4  6  2  0
  5 18  2  0
  6 17  1  0
  7  8  1  0
  7  9  1  0
  8 10  1  0
  9 13  1  0
 10 11  1  0
 10 12  1  0
 13 14  1  0
 13 15  1  0
 16 17  1  0
 16 18  1  0
M  END
>  <DRUGBANK_ID>  (1) 
DB08227

>  <COMMON_NAME>  (1) 
1-(1-HYDROXY-2,2,6,6-TETRAMETHYLPIPERIDIN-4-YL)PYRROLIDINE-2,5-DIONE

$$$$
