
     RDKit          3D

 12 11  0  0  1  0  0  0  0  0999 V2000
    3.0627    2.0442    3.9283 O   0  0  0  0  0  0  0  0  0  0  0  0
    2.5169    1.2174    1.3088 O   0  0  0  0  0  0  0  0  0  0  0  0
    0.3992    2.2817    4.7080 O   0  0  0  0  0  0  0  0  0  0  0  0
   -0.0361    1.8287    0.9756 O   0  0  0  0  0  0  0  0  0  0  0  0
   -0.4000    1.4816    7.5401 O   0  0  0  0  0  0  0  0  0  0  0  0
    1.5299    2.5565    7.0463 O   0  0  0  0  0  0  0  0  0  0  0  0
    2.5198    0.7394    3.6728 C   0  0  1  0  0  0  0  0  0  0  0  0
    1.8990    0.3133    5.0062 C   0  0  0  0  0  0  0  0  0  0  0  0
    1.6592    0.7426    2.3682 C   0  0  1  0  0  0  0  0  0  0  0  0
    0.6206    1.0529    5.4114 C   0  0  1  0  0  0  0  0  0  0  0  0
    0.4232    1.6563    2.3153 C   0  0  0  0  0  0  0  0  0  0  0  0
    0.6731    1.7083    6.7663 C   0  0  0  0  0  0  0  0  0  0  0  0
  4 11  1  0
  5 12  1  0
  6 12  2  0
  7  1  1  1
  7  8  1  0
  9 11  1  0
  9  7  1  0
  9  2  1  6
 10 12  1  0
 10  8  1  0
 10  3  1  6
M  END
>  <DRUGBANK_ID>  (1) 
DB03303

>  <SECONDARY_ACCESSION_NUMBERS>  (1) 
EXPT02959

>  <COMMON_NAME>  (1) 
3-deoxy-D-arabino-hexonic acid

>  <CAS_NUMBER>  (1) 
29625-79-4

>  <SYNONYMS>  (1) 
3-Deoxy-arabino-hexonic acid; D-2-keto-3-deoxygluconate

$$$$
