RA2
     RDKit          3D

 25 26  0  0  0  0  0  0  0  0999 V2000
    1.3885   -0.2171    0.0068 C   0  0  0  0  0  0  0  0  0  0  0  0
    0.4794   -1.2871   -0.0133 C   0  0  0  0  0  0  0  0  0  0  0  0
   -0.9186   -0.9920    0.0107 C   0  0  0  0  0  0  0  0  0  0  0  0
   -1.3282    0.3403   -0.0236 C   0  0  0  0  0  0  0  0  0  0  0  0
   -0.4251    1.3964    0.0527 C   0  0  0  0  0  0  0  0  0  0  0  0
    0.9418    1.1148   -0.0011 C   0  0  0  0  0  0  0  0  0  0  0  0
   -1.0373    2.7303    0.3155 C   0  0  0  0  0  0  0  0  0  0  0  0
    1.0145   -2.6225   -0.0549 N   0  0  0  0  0  0  0  0  0  0  0  0
   -1.8726   -1.9771    0.1048 N   0  0  0  0  0  0  0  0  0  0  0  0
   -3.3261   -1.9405    0.0944 C   0  0  0  0  0  0  0  0  0  0  0  0
   -3.9044   -2.6672   -1.1496 C   0  0  0  0  0  0  0  0  0  0  0  0
   -3.8446   -4.1935   -1.2118 C   0  0  0  0  0  0  0  0  0  0  0  0
   -3.8382   -2.5436    1.4071 C   0  0  0  0  0  0  0  0  0  0  0  0
   -3.2294   -1.8624    2.6236 C   0  0  0  0  0  0  0  0  0  0  0  0
    0.8204   -3.5801   -1.1589 C   0  0  0  0  0  0  0  0  0  0  0  0
    1.3390   -4.9093   -0.5598 C   0  0  0  0  0  0  0  0  0  0  0  0
    2.3739   -4.4885    0.4505 C   0  0  0  0  0  0  0  0  0  0  0  0
    1.8959   -3.1265    0.9063 C   0  0  0  0  0  0  0  0  0  0  0  0
    2.2638   -2.5943    1.9438 O   0  0  0  0  0  0  0  0  0  0  0  0
    1.5796   -3.2066   -2.4475 C   0  0  0  0  0  0  0  0  0  0  0  0
    1.3233   -4.1329   -3.5085 O   0  0  0  0  0  0  0  0  0  0  0  0
   -0.6298   -3.8021   -1.5017 C   0  0  0  0  0  0  0  0  0  0  0  0
   -1.2335   -4.2612   -0.2699 O   0  0  0  0  0  0  0  0  0  0  0  0
   -0.1849    3.7543    0.4758 O   0  0  0  0  0  0  0  0  0  0  0  0
   -2.2510    2.8821    0.4369 O   0  0  0  0  0  0  0  0  0  0  0  0
  1  2  2  0
  1  6  1  0
  2  3  1  0
  2  8  1  0
  3  4  2  0
  3  9  1  0
  4  5  1  0
  5  6  2  0
  5  7  1  0
  7 24  1  0
  7 25  2  0
  8 15  1  0
  8 18  1  0
  9 10  1  0
 10 11  1  0
 10 13  1  0
 11 12  1  0
 13 14  1  0
 15 16  1  0
 15 20  1  0
 15 22  1  0
 16 17  1  0
 17 18  1  0
 18 19  2  0
 20 21  1  0
 22 23  1  0
M  END
>  <DRUGBANK_ID>  (1) 
DB03475

>  <SECONDARY_ACCESSION_NUMBERS>  (1) 
EXPT02752

>  <COMMON_NAME>  (1) 
1-[4-Carboxy-2-(3-Pentylamino)Phenyl]-5,5'-Di(Hydroxymethyl)Pyrrolidin-2-One

$$$$
