
     RDKit          3D

  8  7  0  0  1  0  0  0  0  0999 V2000
    1.0779   -0.0625    0.0055 N   0  0  0  0  0  0  0  0  0  0  0  0
    0.5879   -0.7311   -1.2085 C   0  0  1  0  0  0  0  0  0  0  0  0
    1.0946   -2.1639   -1.2373 C   0  0  0  0  0  0  0  0  0  0  0  0
    0.4912   -3.0467    0.2231 S   0  0  0  0  0  0  0  0  0  0  0  0
    1.2412   -2.0233    2.0812 Se  0  0  0  0  0  2  0  0  0  0  0  0
   -0.9321   -0.7312   -1.2085 C   0  0  0  0  0  0  0  0  0  0  0  0
   -1.6421   -0.0950   -2.2609 O   0  0  0  0  0  0  0  0  0  0  0  0
   -1.5676   -1.3005   -0.2666 O   0  0  0  0  0  0  0  0  0  0  0  0
  2  1  1  1
  2  3  1  0
  2  6  1  0
  3  4  1  0
  4  5  1  0
  6  7  1  0
  6  8  2  0
M  END
>  <DRUGBANK_ID>  (1) 
DB03049

>  <SECONDARY_ACCESSION_NUMBERS>  (1) 
EXPT01043

>  <COMMON_NAME>  (1) 
S-Selanyl Cysteine

$$$$
