TFC
     RDKit          3D

 16 15  0  0  0  0  0  0  0  0999 V2000
    1.0421    0.0004    0.0440 C   0  0  0  0  0  0  0  0  0  0  0  0
    0.6307    0.5008   -1.3308 C   0  0  0  0  0  0  0  0  0  0  0  0
    1.1814   -0.4229   -2.4237 C   0  0  0  0  0  0  0  0  0  0  0  0
    0.6553   -1.8481   -2.2814 C   0  0  0  0  0  0  0  0  0  0  0  0
   -0.8589   -1.8356   -2.3467 C   0  0  0  0  0  0  0  0  0  0  0  0
   -1.3557   -1.2954   -3.6889 C   0  0  0  0  0  0  0  0  0  0  0  0
   -1.0589   -2.2717   -4.8114 C   0  0  0  0  0  0  0  0  0  0  0  0
   -1.6454   -3.6600   -4.5533 C   0  0  0  0  0  0  0  0  0  0  0  0
   -3.4874   -3.7447   -4.5916 S   0  0  0  0  0  0  0  0  0  0  0  0
   -4.1187   -2.7979   -3.1529 C   0  0  0  0  0  0  0  0  0  0  0  0
   -3.6474   -3.1916   -1.7792 C   0  0  0  0  0  0  0  0  0  0  0  0
   -3.2825   -2.3202   -0.9671 O   0  0  0  0  0  0  0  0  0  0  0  0
   -3.8658   -4.6160   -1.3561 C   0  0  0  0  0  0  0  0  0  0  0  0
   -5.1959   -4.8757   -1.2435 F   0  0  0  0  0  0  0  0  0  0  0  0
   -3.3575   -5.5295   -2.2223 F   0  0  0  0  0  0  0  0  0  0  0  0
   -3.3118   -4.9010   -0.1459 F   0  0  0  0  0  0  0  0  0  0  0  0
  1  2  1  0
  2  3  1  0
  3  4  1  0
  4  5  1  0
  5  6  1  0
  6  7  1  0
  7  8  1  0
  8  9  1  0
  9 10  1  0
 10 11  1  0
 11 12  2  0
 11 13  1  0
 13 14  1  0
 13 15  1  0
 13 16  1  0
M  END
>  <DRUGBANK_ID>  (1) 
DB08612

>  <COMMON_NAME>  (1) 
1,1,1-TRIFLUORO-3-(OCTYLTHIO)ACETONE

>  <UNII>  (1) 
7OYG5MD7P9

$$$$
