
     RDKit          3D

 39 42  0  0  1  0  0  0  0  0999 V2000
    2.6025   -0.9296   -4.7105 C   0  0  0  0  0  0  0  0  0  0  0  0
    2.1118    0.1715   -3.9443 O   0  0  0  0  0  0  0  0  0  0  0  0
    0.8849    0.6239   -4.3450 C   0  0  0  0  0  0  0  0  0  0  0  0
    0.2691    0.1478   -5.2927 O   0  0  0  0  0  0  0  0  0  0  0  0
    0.3448    1.7643   -3.4067 C   0  0  2  0  0  0  0  0  0  0  0  0
    0.7761    1.5231   -1.9925 C   0  0  0  0  0  0  0  0  0  0  0  0
    0.4439    0.1261   -1.6073 C   0  0  0  0  0  0  0  0  0  0  0  0
    1.1661   -0.2937   -0.5048 C   0  0  0  0  0  0  0  0  0  0  0  0
    1.0479   -1.5892   -0.1121 C   0  0  0  0  0  0  0  0  0  0  0  0
   -0.1128   -2.2348   -0.5515 C   0  0  0  0  0  0  0  0  0  0  0  0
   -0.8188   -1.9100   -1.7055 C   0  0  0  0  0  0  0  0  0  0  0  0
   -0.4566   -0.7356   -2.2848 C   0  0  0  0  0  0  0  0  0  0  0  0
   -0.9273   -2.2854    0.5467 N   0  0  0  0  0  0  0  0  0  0  0  0
   -1.2815   -0.8998    1.1157 C   0  0  0  0  0  0  0  0  0  0  0  0
   -0.9084    0.2093    0.9872 O   0  0  0  0  0  0  0  0  0  0  0  0
   -2.1342   -1.2537    2.1739 N   0  0  0  0  0  0  0  0  0  0  0  0
   -3.2384   -1.8447    1.3320 C   0  0  0  0  0  0  0  0  0  0  0  0
   -1.1023   -1.9064    3.0558 C   0  0  0  0  0  0  0  0  0  0  0  0
   -0.6260   -3.1672    2.6989 C   0  0  0  0  0  0  0  0  0  0  0  0
    0.5900   -3.7409    3.1592 C   0  0  0  0  0  0  0  0  0  0  0  0
    1.4819   -3.0138    3.9561 C   0  0  0  0  0  0  0  0  0  0  0  0
    1.2023   -1.6434    4.0135 C   0  0  0  0  0  0  0  0  0  0  0  0
   -0.0604   -1.1066    3.6163 C   0  0  0  0  0  0  0  0  0  0  0  0
    2.6000   -3.5947    4.5515 N   0  0  0  0  0  0  0  0  0  0  0  0
    3.3547   -2.8934    5.5970 C   0  0  0  0  0  0  0  0  0  0  0  0
    2.6461   -5.0617    4.6442 C   0  0  0  0  0  0  0  0  0  0  0  0
   -0.9838   -3.4656    1.3147 C   0  0  0  0  0  0  0  0  0  0  0  0
   -1.4588   -4.5535    1.0210 O   0  0  0  0  0  0  0  0  0  0  0  0
   -1.1311    1.9411   -3.4422 N   0  0  0  0  0  0  0  0  0  0  0  0
   -1.8787    3.0167   -3.8048 C   0  0  0  0  0  0  0  0  0  0  0  0
   -3.1004    2.9615   -3.7159 O   0  0  0  0  0  0  0  0  0  0  0  0
   -1.1932    4.2328   -4.2634 C   0  0  0  0  0  0  0  0  0  0  0  0
   -0.2056    4.1857   -5.2620 C   0  0  0  0  0  0  0  0  0  0  0  0
    0.1073    2.8531   -6.3088 Cl  0  0  0  0  0  0  0  0  0  0  0  0
    0.5557    5.3045   -5.5634 C   0  0  0  0  0  0  0  0  0  0  0  0
    0.1729    6.5368   -5.0723 C   0  0  0  0  0  0  0  0  0  0  0  0
   -0.9098    6.6282   -4.2009 C   0  0  0  0  0  0  0  0  0  0  0  0
   -1.5348    5.4747   -3.7179 C   0  0  0  0  0  0  0  0  0  0  0  0
   -2.6669    5.6900   -2.4275 Cl  0  0  0  0  0  0  0  0  0  0  0  0
  1  2  1  0
  2  3  1  0
  3  4  2  0
  5 29  1  0
  5  6  1  1
  5  3  1  0
  6  7  1  0
  7  8  2  0
  7 12  1  0
  8  9  1  0
  9 10  2  0
 10 11  1  0
 10 13  1  0
 11 12  2  0
 13 14  1  0
 13 27  1  0
 14 15  2  0
 14 16  1  0
 16 17  1  0
 16 18  1  0
 18 19  2  0
 18 23  1  0
 19 20  1  0
 19 27  1  0
 20 21  2  0
 21 22  1  0
 21 24  1  0
 22 23  2  0
 24 25  1  0
 24 26  1  0
 27 28  2  0
 29 30  1  0
 30 31  2  0
 30 32  1  0
 32 33  2  0
 32 38  1  0
 33 34  1  0
 33 35  1  0
 35 36  2  0
 36 37  1  0
 37 38  2  0
 38 39  1  0
M  END
>  <DRUGBANK_ID>  (1) 
DB16119

>  <COMMON_NAME>  (1) 
Carotegrast methyl

>  <CAS_NUMBER>  (1) 
401905-67-7

>  <UNII>  (1) 
OYK17DYO9M

>  <SYNONYMS>  (1) 
Carotegrast methyl

$$$$
