CRR
     RDKit          3D

 29 33  0  0  0  0  0  0  0  0999 V2000
   -0.2392   -0.7540   -0.0173 C   0  0  0  0  0  0  0  0  0  0  0  0
    1.0076   -1.4167   -0.0112 C   0  0  0  0  0  0  0  0  0  0  0  0
    2.1893   -0.6743   -0.0266 C   0  0  0  0  0  0  0  0  0  0  0  0
    2.1452    0.7167   -0.0308 C   0  0  0  0  0  0  0  0  0  0  0  0
    0.9246    1.4041   -0.0038 C   0  0  0  0  0  0  0  0  0  0  0  0
   -0.2527    0.6422   -0.0064 C   0  0  0  0  0  0  0  0  0  0  0  0
   -1.5767    1.0297   -0.0083 N   0  0  0  0  0  0  0  0  0  0  0  0
   -2.3982   -0.0667   -0.0603 C   0  0  0  0  0  0  0  0  0  0  0  0
   -1.6004   -1.1860   -0.0358 C   0  0  0  0  0  0  0  0  0  0  0  0
   -2.0416   -2.5827   -0.0262 C   0  0  0  0  0  0  0  0  0  0  0  0
   -1.7891   -3.5175    0.9717 C   0  0  0  0  0  0  0  0  0  0  0  0
   -1.0748   -3.4206    2.2281 C   0  0  0  0  0  0  0  0  0  0  0  0
   -0.8769   -4.3311    3.0238 O   0  0  0  0  0  0  0  0  0  0  0  0
   -0.6086   -2.1835    2.4797 O   0  0  0  0  0  0  0  0  0  0  0  0
   -2.3980   -4.6886    0.5464 N   0  0  0  0  0  0  0  0  0  0  0  0
   -3.0269   -4.5395   -0.6815 C   0  0  0  0  0  0  0  0  0  0  0  0
   -3.7019   -5.6346   -1.3462 C   0  0  0  0  0  0  0  0  0  0  0  0
   -3.8398   -6.7725   -0.9131 O   0  0  0  0  0  0  0  0  0  0  0  0
   -4.2053   -5.3057   -2.5516 O   0  0  0  0  0  0  0  0  0  0  0  0
   -2.8243   -3.2132   -1.0474 C   0  0  0  0  0  0  0  0  0  0  0  0
   -3.2783   -2.5868   -2.2938 C   0  0  0  0  0  0  0  0  0  0  0  0
   -2.4208   -2.0451   -3.2914 C   0  0  0  0  0  0  0  0  0  0  0  0
   -1.0298   -1.8558   -3.3929 C   0  0  0  0  0  0  0  0  0  0  0  0
   -0.4815   -1.3367   -4.5644 C   0  0  0  0  0  0  0  0  0  0  0  0
   -1.3007   -1.0162   -5.6420 C   0  0  0  0  0  0  0  0  0  0  0  0
   -2.6887   -1.1890   -5.5745 C   0  0  0  0  0  0  0  0  0  0  0  0
   -3.2214   -1.7062   -4.3857 C   0  0  0  0  0  0  0  0  0  0  0  0
   -4.5212   -2.0077   -4.0422 N   0  0  0  0  0  0  0  0  0  0  0  0
   -4.5667   -2.5413   -2.7813 C   0  0  0  0  0  0  0  0  0  0  0  0
  1  6  1  0
  1  2  2  0
  1  9  1  0
  2  3  1  0
  3  4  2  0
  4  5  1  0
  5  6  2  0
  6  7  1  0
  7  8  1  0
  8  9  2  0
  9 10  1  0
 10 11  2  0
 10 20  1  0
 11 12  1  0
 11 15  1  0
 12 13  2  0
 12 14  1  0
 15 16  1  0
 16 20  2  0
 16 17  1  0
 17 18  2  0
 17 19  1  0
 20 21  1  0
 21 22  1  0
 21 29  2  0
 22 23  2  0
 22 27  1  0
 23 24  1  0
 24 25  2  0
 25 26  1  0
 26 27  2  0
 27 28  1  0
 28 29  1  0
M  END
>  <DRUGBANK_ID>  (1) 
DB07588

>  <COMMON_NAME>  (1) 
3,4-DI-1H-INDOL-3-YL-1H-PYRROLE-2,5-DICARBOXYLIC ACID

$$$$
