
     RDKit          3D

 28 32  0  0  0  0  0  0  0  0999 V2000
    0.9306   -0.0512   -0.0441 C   0  0  0  0  0  0  0  0  0  0  0  0
    0.4371    1.1223   -0.7880 C   0  0  0  0  0  0  0  0  0  0  0  0
    0.1228    1.2830   -2.1132 C   0  0  0  0  0  0  0  0  0  0  0  0
    0.1084    0.2539   -3.0559 N   0  0  0  0  0  0  0  0  0  0  0  0
    0.3810    0.5420   -4.3014 C   0  0  0  0  0  0  0  0  0  0  0  0
    0.0883   -0.5364   -5.3009 C   0  0  0  0  0  0  0  0  0  0  0  0
    1.1233   -1.0763   -6.0756 C   0  0  0  0  0  0  0  0  0  0  0  0
    0.8328   -1.7847   -7.2397 C   0  0  0  0  0  0  0  0  0  0  0  0
   -0.4814   -2.1388   -7.5208 C   0  0  0  0  0  0  0  0  0  0  0  0
   -1.5010   -1.7769   -6.6398 C   0  0  0  0  0  0  0  0  0  0  0  0
   -1.2327   -0.9233   -5.5644 C   0  0  0  0  0  0  0  0  0  0  0  0
   -2.5887   -0.3336   -4.6706 Cl  0  0  0  0  0  0  0  0  0  0  0  0
    0.8713    1.8554   -4.8577 C   0  0  0  0  0  0  0  0  0  0  0  0
    0.3119    3.0798   -4.4873 C   0  0  0  0  0  0  0  0  0  0  0  0
   -0.6455    3.1559   -3.4468 N   0  0  0  0  0  0  0  0  0  0  0  0
   -0.3336    2.6164   -2.2444 C   0  0  0  0  0  0  0  0  0  0  0  0
   -0.3192    3.2586   -1.0735 N   0  0  0  0  0  0  0  0  0  0  0  0
    0.1997    2.3460   -0.2209 N   0  0  0  0  0  0  0  0  0  0  0  0
    0.8677    4.2601   -5.0244 C   0  0  0  0  0  0  0  0  0  0  0  0
    1.8831    4.2055   -5.9823 C   0  0  0  0  0  0  0  0  0  0  0  0
    2.3636    3.0269   -6.3997 N   0  0  0  0  0  0  0  0  0  0  0  0
    1.8808    1.9060   -5.8117 C   0  0  0  0  0  0  0  0  0  0  0  0
    2.4254    5.3362   -6.5256 N   0  0  0  0  0  0  0  0  0  0  0  0
    2.4880    5.5107   -7.9748 C   0  0  0  0  0  0  0  0  0  0  0  0
    3.9137    5.8576   -8.4267 C   0  0  0  0  0  0  0  0  0  0  0  0
    4.4447    6.9731   -7.6875 O   0  0  0  0  0  0  0  0  0  0  0  0
    4.4814    6.6574   -6.2838 C   0  0  0  0  0  0  0  0  0  0  0  0
    3.0707    6.3728   -5.7285 C   0  0  0  0  0  0  0  0  0  0  0  0
  1  2  1  0
  2  3  2  0
  2 18  1  0
  3  4  1  0
  3 16  1  0
  4  5  2  0
  5  6  1  0
  5 13  1  0
  6  7  2  0
  6 11  1  0
  7  8  1  0
  8  9  2  0
  9 10  1  0
 10 11  2  0
 11 12  1  0
 13 14  2  0
 13 22  1  0
 14 15  1  0
 14 19  1  0
 15 16  1  0
 16 17  2  0
 17 18  1  0
 19 20  2  0
 20 21  1  0
 20 23  1  0
 21 22  2  0
 23 24  1  0
 23 28  1  0
 24 25  1  0
 25 26  1  0
 26 27  1  0
 27 28  1  0
M  END
>  <DRUGBANK_ID>  (1) 
DB17384

>  <COMMON_NAME>  (1) 
Tinengotinib

>  <CAS_NUMBER>  (1) 
2230490-29-4

>  <UNII>  (1) 
WZ9TJ0L9Y8

>  <SYNONYMS>  (1) 
4-(5-(2-Chlorophenyl)-3-Methyl-2,10-Dihydropyrazolo[4,3-B] Pyrido[4,3-E][1,4]Diazepin-8-Yl) Morpholine; 5-(2-chlorophenyl)-3-methyl-8-(morpholin-4-yl)-1,10-dihydropyrazolo[4,3-b]pyrido[4,3-e][1,4]diazepine; Pyrazolo(4,3-b)pyrido(4,3-e)(1,4)diazepine, 5-(2-chlorophenyl)-1,2-dihydro-3-methyl-8-(4-morpholinyl)-

$$$$
