
     RDKit          3D

 28 30  0  0  0  0  0  0  0  0999 V2000
   -1.2059    0.3780   -0.0086 C   0  0  0  0  0  0  0  0  0  0  0  0
   -1.2290   -1.0065    0.0101 C   0  0  0  0  0  0  0  0  0  0  0  0
   -0.0448   -1.7693    0.0450 C   0  0  0  0  0  0  0  0  0  0  0  0
    1.2354   -1.1489    0.0034 C   0  0  0  0  0  0  0  0  0  0  0  0
    1.2583    0.2689   -0.0090 C   0  0  0  0  0  0  0  0  0  0  0  0
    0.0455    1.0037   -0.0088 C   0  0  0  0  0  0  0  0  0  0  0  0
    2.4675   -1.8600   -0.1631 N   0  0  0  0  0  0  0  0  0  0  0  0
    2.6662   -3.2582   -0.1672 C   0  0  0  0  0  0  0  0  0  0  0  0
    3.1823   -3.8630    0.9148 N   0  0  0  0  0  0  0  0  0  0  0  0
    3.0860   -5.2087    0.9965 C   0  0  0  0  0  0  0  0  0  0  0  0
    2.4845   -5.9705    0.0648 N   0  0  0  0  0  0  0  0  0  0  0  0
    2.0135   -5.3306   -1.0229 C   0  0  0  0  0  0  0  0  0  0  0  0
    2.1290   -3.9772   -1.2127 C   0  0  0  0  0  0  0  0  0  0  0  0
    3.6800   -5.8655    2.0746 N   0  0  0  0  0  0  0  0  0  0  0  0
    4.2108   -5.2807    3.2279 C   0  0  0  0  0  0  0  0  0  0  0  0
    3.4487   -4.3890    3.9932 C   0  0  0  0  0  0  0  0  0  0  0  0
    3.9661   -3.8059    5.1520 C   0  0  0  0  0  0  0  0  0  0  0  0
    5.2644   -4.1067    5.5638 C   0  0  0  0  0  0  0  0  0  0  0  0
    6.0561   -4.9533    4.7823 C   0  0  0  0  0  0  0  0  0  0  0  0
    5.5265   -5.5449    3.6261 C   0  0  0  0  0  0  0  0  0  0  0  0
    2.5311    1.0812   -0.0008 C   0  0  0  0  0  0  0  0  0  0  0  0
    5.7561   -3.5830    6.8097 C   0  0  0  0  0  0  0  0  0  0  0  0
    6.1240   -3.1858    7.8297 N   0  0  0  0  0  0  0  0  0  0  0  0
   -2.4991    1.0736   -0.0091 C   0  0  0  0  0  0  0  0  0  0  0  0
   -2.6174    2.4015   -0.0358 C   0  0  0  0  0  0  0  0  0  0  0  0
   -3.9672    3.1002   -0.0490 C   0  0  0  0  0  0  0  0  0  0  0  0
   -5.0870    3.6799   -0.0599 N   0  0  0  0  0  0  0  0  0  0  0  0
   -0.3102   -3.2412    0.1416 C   0  0  0  0  0  0  0  0  0  0  0  0
  1  2  2  0
  1  6  1  0
  1 24  1  0
  2  3  1  0
  3  4  2  0
  3 28  1  0
  4  5  1  0
  4  7  1  0
  5  6  2  0
  5 21  1  0
  7  8  1  0
  8  9  2  0
  8 13  1  0
  9 10  1  0
 10 11  2  0
 10 14  1  0
 11 12  1  0
 12 13  2  0
 14 15  1  0
 15 16  2  0
 15 20  1  0
 16 17  1  0
 17 18  2  0
 18 19  1  0
 18 22  1  0
 19 20  2  0
 22 23  3  0
 24 25  2  0
 25 26  1  0
 26 27  3  0
M  END
>  <DRUGBANK_ID>  (1) 
DB08864

>  <SECONDARY_ACCESSION_NUMBERS>  (1) 
DB08592; DB05083

>  <COMMON_NAME>  (1) 
Rilpivirine

>  <CAS_NUMBER>  (1) 
500287-72-9

>  <UNII>  (1) 
FI96A8X663

>  <SYNONYMS>  (1) 
4-{[4-({4-[(E)-2-cyanovinyl]-2,6-dimethylphenyl}amino)pyrimidin-2-yl]amino}benzonitrile; Rilpivirina; Rilpivirine

$$$$
