
     RDKit          3D

 10 10  0  0  0  0  0  0  0  0999 V2000
    1.0686   -0.0144   -0.1124 C   0  0  0  0  0  0  0  0  0  0  0  0
    0.1852   -1.2716   -0.7452 S   0  0  0  0  0  0  0  0  0  0  0  0
    0.4536    1.0445    0.4910 N   0  0  0  0  0  0  0  0  0  0  0  0
    2.4186   -0.0629   -0.1284 N   0  0  0  0  0  0  0  0  0  0  0  0
    2.8810    3.7599    1.1745 C   0  0  0  0  0  0  0  0  0  0  0  0
    2.5076    4.1101    2.4703 C   0  0  0  0  0  0  0  0  0  0  0  0
    1.4041    3.4976    3.0684 C   0  0  0  0  0  0  0  0  0  0  0  0
    0.6630    2.5423    2.3709 C   0  0  0  0  0  0  0  0  0  0  0  0
    1.0843    2.1397    1.1018 C   0  0  0  0  0  0  0  0  0  0  0  0
    2.1613    2.7881    0.4902 C   0  0  0  0  0  0  0  0  0  0  0  0
  2  1  2  0
  3  1  1  0
  4  1  1  0
  6  5  2  0
  7  6  1  0
  8  7  2  0
  9  3  1  0
  9  8  1  0
 10  5  1  0
 10  9  2  0
M  END
>  <DRUGBANK_ID>  (1) 
DB03694

>  <SECONDARY_ACCESSION_NUMBERS>  (1) 
EXPT03208

>  <COMMON_NAME>  (1) 
N-phenylthiourea

>  <CAS_NUMBER>  (1) 
103-85-5

>  <UNII>  (1) 
6F82C6Q54C

>  <SYNONYMS>  (1) 
1-phenyl-2-thiourea; monophenyl thiourea; phenyl-2-thiourea; phenylthiocarbamide; phenylthiourea; Î±-phenylthiourea

$$$$
