1400
     RDKit          3D

 16 16  0  0  0  0  0  0  0  0999 V2000
    1.2904    0.0093    0.1663 C   0  0  0  0  0  0  0  0  0  0  0  0
    0.3327   -0.9755    0.0020 C   0  0  0  0  0  0  0  0  0  0  0  0
    0.8561    1.3087    0.1096 C   0  0  0  0  0  0  0  0  0  0  0  0
    2.6373   -0.5171    0.1852 O   0  0  0  0  0  0  0  0  0  0  0  0
   -1.0422   -0.9617    0.1287 C   0  0  0  0  0  0  0  0  0  0  0  0
   -0.5503    1.4729    0.0843 C   0  0  0  0  0  0  0  0  0  0  0  0
    3.3083   -1.8623    0.3062 C   0  0  0  0  0  0  0  0  0  0  0  0
   -1.4777    0.3593    0.1193 C   0  0  0  0  0  0  0  0  0  0  0  0
   -1.9420   -2.3170    0.3053 N   0  0  0  0  0  0  0  0  0  0  0  0
    2.5911   -3.0959    0.2766 N   0  0  0  0  0  0  0  0  0  0  0  0
    4.5186   -1.8730    0.4337 O   0  0  0  0  0  0  0  0  0  0  0  0
   -1.9557   -2.8056    1.7771 C   0  0  0  0  0  0  0  0  0  0  0  0
   -3.3907   -2.0283   -0.0575 C   0  0  0  0  0  0  0  0  0  0  0  0
   -1.5154   -3.6168   -0.4393 C   0  0  0  0  0  0  0  0  0  0  0  0
    3.2268   -4.3786    0.4267 C   0  0  0  0  0  0  0  0  0  0  0  0
    1.2284   -3.3801    0.1087 C   0  0  0  0  0  0  0  0  0  0  0  0
  1  2  2  0
  1  3  1  0
  1  4  1  0
  2  5  1  0
  3  6  2  0
  4  7  1  0
  5  8  2  0
  5  9  1  0
  6  8  1  0
  7 10  1  0
  7 11  2  0
  9 12  1  0
  9 13  1  0
  9 14  1  0
 10 15  1  0
 10 16  1  0
M  CHG  1   9   1
M  END
>  <DRUGBANK_ID>  (1) 
DB01400

>  <COMMON_NAME>  (1) 
Neostigmine

>  <CAS_NUMBER>  (1) 
59-99-4

>  <UNII>  (1) 
3982TWQ96G

>  <SYNONYMS>  (1) 
(m-Hydroxyphenyl)trimethylammonium dimethylcarbamate; 3-Trimethylammoniumphenyl N,N-dimethylcarbamate; Eustigmin; Eustigmine; m-Trimethylammoniumphenyldimethylcarbamate; Neostigmina

$$$$
