524
     RDKit          3D

 31 34  0  0  0  0  0  0  0  0999 V2000
    3.2635    4.4065   -0.1158 C   0  0  0  0  0  0  0  0  0  0  0  0
    1.4087    3.2012    0.9021 C   0  0  0  0  0  0  0  0  0  0  0  0
    0.6155    3.4421   -0.1636 C   0  0  0  0  0  0  0  0  0  0  0  0
    2.4543    4.7004   -1.2386 C   0  0  0  0  0  0  0  0  0  0  0  0
    2.7726    3.6755    0.8996 C   0  0  0  0  0  0  0  0  0  0  0  0
    1.1774    4.1414   -1.2696 N   0  0  0  0  0  0  0  0  0  0  0  0
    0.6731    4.4161   -2.5034 N   0  0  0  0  0  0  0  0  0  0  0  0
    1.5260    5.2802   -3.0192 C   0  0  0  0  0  0  0  0  0  0  0  0
    2.6631    5.4461   -2.3058 N   0  0  0  0  0  0  0  0  0  0  0  0
   -4.1329    4.8000   -0.2325 C   0  0  1  0  0  0  0  0  0  0  0  0
   -4.8604    5.3865   -1.5077 C   0  0  1  0  0  0  0  0  0  0  0  0
   -6.3943    5.4686   -1.4166 C   0  0  0  0  0  0  0  0  0  0  0  0
   -7.1340    5.4818   -2.5651 N   0  0  0  0  0  0  0  0  0  0  0  0
   -4.2394    3.2037   -0.1497 C   0  0  0  0  0  0  0  0  0  0  0  0
   -4.5292    6.8368   -1.7064 N   0  0  0  0  0  0  0  0  0  0  0  0
   -6.9571    5.7691   -0.3576 O   0  0  0  0  0  0  0  0  0  0  0  0
   -3.2812    2.4171   -0.0646 O   0  0  0  0  0  0  0  0  0  0  0  0
   -5.3912    2.4972   -0.1071 N   0  0  0  0  0  0  0  0  0  0  0  0
   -6.6334    3.1002    0.1691 C   0  0  0  0  0  0  0  0  0  0  0  0
   -5.2972    1.0454   -0.0374 C   0  0  0  0  0  0  0  0  0  0  0  0
   -6.7996    5.1192   -3.9374 C   0  0  0  0  0  0  0  0  0  0  0  0
   -8.1722    4.9091   -4.5736 C   0  0  2  0  0  0  0  0  0  0  0  0
   -9.0863    5.8718   -3.8313 C   0  0  0  0  0  0  0  0  0  0  0  0
   -8.5105    5.9012   -2.4376 C   0  0  0  0  0  0  0  0  0  0  0  0
   -8.5833    3.6363   -4.3090 F   0  0  0  0  0  0  0  0  0  0  0  0
   -0.8559    3.0384   -0.1268 C   0  0  1  0  0  0  0  0  0  0  0  0
   -1.5048    3.6083    1.2147 C   0  0  0  0  0  0  0  0  0  0  0  0
   -1.8494    5.0730    1.0765 C   0  0  0  0  0  0  0  0  0  0  0  0
   -2.6566    5.3644   -0.2010 C   0  0  1  0  0  0  0  0  0  0  0  0
   -1.8746    4.9642   -1.4505 C   0  0  0  0  0  0  0  0  0  0  0  0
   -1.5609    3.4703   -1.4615 C   0  0  0  0  0  0  0  0  0  0  0  0
  1  4  1  0
  1  5  2  0
  2  5  1  0
  2  3  2  0
  3  6  1  0
  4  9  2  0
  4  6  1  0
  6  7  1  0
  7  8  2  0
  8  9  1  0
 10 14  1  6
 10 11  1  0
 11 15  1  1
 11 12  1  0
 12 16  2  0
 12 13  1  0
 13 24  1  0
 13 21  1  0
 14 17  2  0
 14 18  1  0
 18 19  1  0
 18 20  1  0
 21 22  1  0
 22 23  1  0
 22 25  1  1
 23 24  1  0
 26 27  1  0
 26 31  1  0
 26  3  1  6
 27 28  1  0
 29 28  1  1
 29 10  1  0
 29 30  1  0
 30 31  1  0
M  END
>  <DRUGBANK_ID>  (1) 
DB07135

>  <COMMON_NAME>  (1) 
(2S,3S)-3-AMINO-4-[(3S)-3-FLUOROPYRROLIDIN-1-YL]-N,N-DIMETHYL-4-OXO-2-(TRANS-4-[1,2,4]TRIAZOLO[1,5-A]PYRIDIN-5-YLCYCLOHEXYL)BUTANAMIDE

$$$$
