
     RDKit          3D

 42 47  0  0  0  0  0  0  0  0999 V2000
    0.9215   -0.0759   -0.0562 C   0  0  0  0  0  0  0  0  0  0  0  0
    0.4362   -0.5350    1.2945 C   0  0  0  0  0  0  0  0  0  0  0  0
   -0.0273    0.4302    2.2039 C   0  0  0  0  0  0  0  0  0  0  0  0
   -0.4205    0.0550    3.4910 C   0  0  0  0  0  0  0  0  0  0  0  0
   -0.3616   -1.3014    3.8287 C   0  0  0  0  0  0  0  0  0  0  0  0
    0.1125   -2.2642    2.9488 C   0  0  0  0  0  0  0  0  0  0  0  0
    0.5090   -1.8941    1.6632 C   0  0  0  0  0  0  0  0  0  0  0  0
    0.9401   -2.8349    0.8026 N   0  0  0  0  0  0  0  0  0  0  0  0
    0.9924   -4.1334    1.1798 C   0  0  0  0  0  0  0  0  0  0  0  0
    0.6578   -4.4974    2.4276 N   0  0  0  0  0  0  0  0  0  0  0  0
    0.2059   -3.5498    3.3203 N   0  0  0  0  0  0  0  0  0  0  0  0
    1.3251   -5.1348    0.2334 N   0  0  0  0  0  0  0  0  0  0  0  0
    1.6020   -4.9282   -1.1233 C   0  0  0  0  0  0  0  0  0  0  0  0
    2.2579   -3.7883   -1.4661 C   0  0  0  0  0  0  0  0  0  0  0  0
    2.3514   -3.3877   -2.7973 C   0  0  0  0  0  0  0  0  0  0  0  0
    2.1791   -4.1655   -3.8907 C   0  0  0  0  0  0  0  0  0  0  0  0
    1.2552   -5.1458   -3.5926 C   0  0  0  0  0  0  0  0  0  0  0  0
    1.0293   -5.5850   -2.2207 C   0  0  0  0  0  0  0  0  0  0  0  0
    2.6432   -3.7730   -5.1224 O   0  0  0  0  0  0  0  0  0  0  0  0
    3.9684   -3.1030   -5.2900 C   0  0  0  0  0  0  0  0  0  0  0  0
    4.2548   -1.7398   -4.5737 C   0  0  0  0  0  0  0  0  0  0  0  0
    4.5251   -1.8779   -3.1416 N   0  0  0  0  0  0  0  0  0  0  0  0
    5.1193   -0.8014   -2.3950 C   0  0  0  0  0  0  0  0  0  0  0  0
    6.5011   -1.4148   -2.2313 C   0  0  0  0  0  0  0  0  0  0  0  0
    6.2709   -2.8683   -1.8776 C   0  0  0  0  0  0  0  0  0  0  0  0
    5.0204   -3.1503   -2.6137 C   0  0  0  0  0  0  0  0  0  0  0  0
   -0.8520    1.0508    4.4792 C   0  0  0  0  0  0  0  0  0  0  0  0
   -1.9405    1.8828    4.1703 C   0  0  0  0  0  0  0  0  0  0  0  0
   -2.3367    2.9314    5.0014 C   0  0  0  0  0  0  0  0  0  0  0  0
   -1.6551    3.1229    6.2068 C   0  0  0  0  0  0  0  0  0  0  0  0
   -0.6935    2.1855    6.6158 C   0  0  0  0  0  0  0  0  0  0  0  0
   -0.2409    1.2070    5.7301 C   0  0  0  0  0  0  0  0  0  0  0  0
    1.1470    0.2825    6.2026 Cl  0  0  0  0  0  0  0  0  0  0  0  0
   -3.4367    3.7905    4.6839 O   0  0  0  0  0  0  0  0  0  0  0  0
   -4.2963    3.5433    3.6140 C   0  0  0  0  0  0  0  0  0  0  0  0
   -4.2179    2.6267    2.7728 O   0  0  0  0  0  0  0  0  0  0  0  0
   -5.4619    4.4294    3.5464 C   0  0  0  0  0  0  0  0  0  0  0  0
   -5.3416    5.8145    3.6408 C   0  0  0  0  0  0  0  0  0  0  0  0
   -6.4709    6.6112    3.4288 C   0  0  0  0  0  0  0  0  0  0  0  0
   -7.7335    6.0264    3.2989 C   0  0  0  0  0  0  0  0  0  0  0  0
   -7.8602    4.6411    3.2809 C   0  0  0  0  0  0  0  0  0  0  0  0
   -6.7129    3.8548    3.2653 C   0  0  0  0  0  0  0  0  0  0  0  0
  1  2  1  0
  2  3  2  0
  2  7  1  0
  3  4  1  0
  4  5  2  0
  4 27  1  0
  5  6  1  0
  6  7  2  0
  6 11  1  0
  7  8  1  0
  8  9  2  0
  9 10  1  0
  9 12  1  0
 10 11  2  0
 12 13  1  0
 13 14  2  0
 13 18  1  0
 14 15  1  0
 15 16  2  0
 16 17  1  0
 16 19  1  0
 17 18  2  0
 19 20  1  0
 20 21  1  0
 21 22  1  0
 22 23  1  0
 22 26  1  0
 23 24  1  0
 24 25  1  0
 25 26  1  0
 27 28  2  0
 27 32  1  0
 28 29  1  0
 29 30  2  0
 29 34  1  0
 30 31  1  0
 31 32  2  0
 32 33  1  0
 34 35  1  0
 35 36  2  0
 35 37  1  0
 37 38  2  0
 37 42  1  0
 38 39  1  0
 39 40  2  0
 40 41  1  0
 41 42  2  0
M  END
>  <DRUGBANK_ID>  (1) 
DB05075

>  <COMMON_NAME>  (1) 
TG-100801

>  <CAS_NUMBER>  (1) 
867331-82-6

>  <UNII>  (1) 
1VZO7A0J9S

$$$$
