
     RDKit          3D

 41 44  0  0  0  0  0  0  0  0999 V2000
    1.0938   -0.0284   -0.1112 C   0  0  0  0  0  0  0  0  0  0  0  0
    0.6109    0.4244    1.2635 C   0  0  0  0  0  0  0  0  0  0  0  0
    1.3686    1.6970    1.6671 C   0  0  0  0  0  0  0  0  0  0  0  0
   -0.9184    0.4566    1.2913 C   0  0  0  0  0  0  0  0  0  0  0  0
   -1.5833   -0.8010    1.3360 C   0  0  0  0  0  0  0  0  0  0  0  0
   -2.9725   -0.9151    1.4337 C   0  0  0  0  0  0  0  0  0  0  0  0
   -3.7247    0.2238    1.5864 C   0  0  0  0  0  0  0  0  0  0  0  0
   -3.0761    1.4477    1.6358 C   0  0  0  0  0  0  0  0  0  0  0  0
   -1.7082    1.6173    1.3230 C   0  0  0  0  0  0  0  0  0  0  0  0
   -1.1909    3.0079    0.9849 C   0  0  0  0  0  0  0  0  0  0  0  0
   -1.7540    3.6132   -0.2703 C   0  0  0  0  0  0  0  0  0  0  0  0
   -3.0691    4.0476   -0.3090 C   0  0  0  0  0  0  0  0  0  0  0  0
   -3.8826    4.1537    0.7771 O   0  0  0  0  0  0  0  0  0  0  0  0
   -3.6381    4.3503   -1.5133 C   0  0  0  0  0  0  0  0  0  0  0  0
   -4.9473    4.7410   -1.5665 O   0  0  0  0  0  0  0  0  0  0  0  0
   -2.8829    4.2622   -2.6672 C   0  0  0  0  0  0  0  0  0  0  0  0
   -3.5620    4.1372   -3.8396 O   0  0  0  0  0  0  0  0  0  0  0  0
   -1.4989    4.2733   -2.6137 C   0  0  0  0  0  0  0  0  0  0  0  0
   -0.9426    3.7804   -1.4301 C   0  0  0  0  0  0  0  0  0  0  0  0
   -0.6163    4.8949   -3.6722 C   0  0  0  0  0  0  0  0  0  0  0  0
    0.6010    4.6990   -3.6248 O   0  0  0  0  0  0  0  0  0  0  0  0
   -1.1087    5.7163   -4.6866 N   0  0  0  0  0  0  0  0  0  0  0  0
   -2.3808    6.2942   -4.8264 C   0  0  0  0  0  0  0  0  0  0  0  0
   -3.0248    6.8851   -3.7312 C   0  0  0  0  0  0  0  0  0  0  0  0
   -4.3913    7.1494   -3.7756 C   0  0  0  0  0  0  0  0  0  0  0  0
   -5.0669    7.0213   -4.9805 C   0  0  0  0  0  0  0  0  0  0  0  0
   -4.4129    6.4980   -6.1089 C   0  0  0  0  0  0  0  0  0  0  0  0
   -3.0782    6.1002   -6.0230 C   0  0  0  0  0  0  0  0  0  0  0  0
   -6.8235    7.2593   -5.1147 S   0  0  0  0  0  0  0  0  0  0  0  0
   -7.0188    8.5904   -5.6919 O   0  0  0  0  0  0  0  0  0  0  0  0
   -7.2059    6.1374   -5.9178 O   0  0  0  0  0  0  0  0  0  0  0  0
   -7.5774    7.3612   -3.4237 C   0  0  0  0  0  0  0  0  0  0  0  0
   -7.1217    8.5140   -2.7309 C   0  0  0  0  0  0  0  0  0  0  0  0
   -7.6457    8.9255   -1.5055 C   0  0  0  0  0  0  0  0  0  0  0  0
   -8.7153    8.2438   -0.9646 C   0  0  0  0  0  0  0  0  0  0  0  0
   -9.1975    7.1141   -1.6229 C   0  0  0  0  0  0  0  0  0  0  0  0
   -8.5914    6.5779   -2.8076 C   0  0  0  0  0  0  0  0  0  0  0  0
   -9.0854    5.1721   -3.1847 C   0  0  0  0  0  0  0  0  0  0  0  0
   -8.8526    4.1644   -2.0404 C   0  0  0  0  0  0  0  0  0  0  0  0
  -10.5637    5.2205   -3.6039 C   0  0  0  0  0  0  0  0  0  0  0  0
   -8.3448    4.5784   -4.3500 C   0  0  0  0  0  0  0  0  0  0  0  0
  1  2  1  0
  2  3  1  0
  2  4  1  0
  4  5  2  0
  4  9  1  0
  5  6  1  0
  6  7  2  0
  7  8  1  0
  8  9  2  0
  9 10  1  0
 10 11  1  0
 11 12  2  0
 11 19  1  0
 12 13  1  0
 12 14  1  0
 14 15  1  0
 14 16  2  0
 16 17  1  0
 16 18  1  0
 18 19  2  0
 18 20  1  0
 20 21  2  0
 20 22  1  0
 22 23  1  0
 23 24  2  0
 23 28  1  0
 24 25  1  0
 25 26  2  0
 26 27  1  0
 26 29  1  0
 27 28  2  0
 29 30  2  0
 29 31  2  0
 29 32  1  0
 32 33  2  0
 32 37  1  0
 33 34  1  0
 34 35  2  0
 35 36  1  0
 36 37  2  0
 37 38  1  0
 38 39  1  0
 38 40  1  0
 38 41  1  0
M  END
>  <DRUGBANK_ID>  (1) 
DB17059

>  <COMMON_NAME>  (1) 
TW-37

>  <CAS_NUMBER>  (1) 
877877-35-5

>  <UNII>  (1) 
FQ8NY4LUO5

>  <SYNONYMS>  (1) 
Benzamide, n-(4-((2-(1,1-dimethylethyl)phenyl)sulfonyl)phenyl)-2,3,4-trihydroxy-5-((2-(1-methylethyl)phenyl)methyl)-; N-(4-((2-(1,1-dimethylethyl)phenyl)sulfonyl)phenyl)-2,3,4-trihydroxy-5-((2-(1-methylethyl)phenyl)methyl)benzamide; N-[4-[[2-(1,1-Dimethylethyl)phenyl]sulfonyl]phenyl]-2,3,4-trihydroxy-5-[[2-(1-methylethyl)phenyl]methyl]benzamide

$$$$
