
     RDKit          3D

 35 37  0  0  1  0  0  0  0  0999 V2000
    3.1105    2.3746    1.4769 C   0  0  0  0  0  0  0  0  0  0  0  0
    1.9049    3.1347    1.8393 C   0  0  0  0  0  0  0  0  0  0  0  0
    2.0179    2.6817    3.2987 C   0  0  0  0  0  0  0  0  0  0  0  0
    2.0175    4.7335    1.6465 C   0  0  0  0  0  0  0  0  0  0  0  0
    1.8239    5.4588    0.2871 C   0  0  0  0  0  0  0  0  0  0  0  0
    1.8892    6.8410    0.1307 C   0  0  0  0  0  0  0  0  0  0  0  0
    1.8176    7.4232   -1.1629 C   0  0  0  0  0  0  0  0  0  0  0  0
    1.7587    6.6411   -2.3174 C   0  0  0  0  0  0  0  0  0  0  0  0
    1.7099    7.1897   -3.5355 F   0  0  0  0  0  0  0  0  0  0  0  0
    1.7376    5.2872   -2.2065 C   0  0  0  0  0  0  0  0  0  0  0  0
    1.6961    4.7754   -0.9199 C   0  0  0  0  0  0  0  0  0  0  0  0
    0.7876    2.5235    1.0605 N   0  0  0  0  0  0  0  0  0  0  0  0
    0.7453    2.0095   -0.2421 C   0  0  0  0  0  0  0  0  0  0  0  0
   -0.3205    2.2361   -0.8439 O   0  0  0  0  0  0  0  0  0  0  0  0
    2.0542    1.4394   -1.1570 C   0  0  2  0  0  0  0  0  0  0  0  0
    1.6181    0.9075   -2.5148 C   0  0  0  0  0  0  0  0  0  0  0  0
    1.0045   -0.4712   -2.4042 C   0  0  0  0  0  0  0  0  0  0  0  0
   -0.2149   -0.5387   -1.5052 C   0  0  0  0  0  0  0  0  0  0  0  0
   -1.3771   -0.7015   -2.1792 O   0  0  0  0  0  0  0  0  0  0  0  0
   -0.1527   -0.4919   -0.3047 O   0  0  0  0  0  0  0  0  0  0  0  0
    3.1093    0.5726   -0.6086 N   0  0  0  0  0  0  0  0  0  0  0  0
    4.4510    0.8821   -0.3221 C   0  0  0  0  0  0  0  0  0  0  0  0
    5.0629    0.0680    0.3749 O   0  0  0  0  0  0  0  0  0  0  0  0
    5.1344    2.2482   -0.6264 C   0  0  0  0  0  0  0  0  0  0  0  0
    4.5457    3.5231   -0.4912 C   0  0  0  0  0  0  0  0  0  0  0  0
    5.1460    4.7380   -0.3474 C   0  0  0  0  0  0  0  0  0  0  0  0
    6.4694    4.7673   -0.5774 C   0  0  0  0  0  0  0  0  0  0  0  0
    7.1603    3.5538   -0.7554 C   0  0  0  0  0  0  0  0  0  0  0  0
    6.5053    2.2999   -0.7446 C   0  0  0  0  0  0  0  0  0  0  0  0
    6.9875    6.0871   -0.7732 C   0  0  0  0  0  0  0  0  0  0  0  0
    6.8888    7.0589    0.2338 C   0  0  0  0  0  0  0  0  0  0  0  0
    7.4160    8.3152    0.0129 C   0  0  0  0  0  0  0  0  0  0  0  0
    8.0129    8.5904   -1.2176 C   0  0  0  0  0  0  0  0  0  0  0  0
    8.0071    7.6522   -2.2525 C   0  0  0  0  0  0  0  0  0  0  0  0
    7.4189    6.4236   -2.0525 C   0  0  0  0  0  0  0  0  0  0  0  0
  1  2  1  0
  2  3  1  0
  2  4  1  0
  2 12  1  0
  4  5  1  0
  5  6  2  0
  5 11  1  0
  6  7  1  0
  7  8  2  0
  8  9  1  0
  8 10  1  0
 10 11  2  0
 12 13  1  0
 13 14  2  0
 15 21  1  0
 15 16  1  6
 15 13  1  0
 16 17  1  0
 17 18  1  0
 18 19  1  0
 18 20  2  0
 21 22  1  0
 22 23  2  0
 22 24  1  0
 24 25  2  0
 24 29  1  0
 25 26  1  0
 26 27  2  0
 27 28  1  0
 27 30  1  0
 28 29  2  0
 30 31  2  0
 30 35  1  0
 31 32  1  0
 32 33  2  0
 33 34  1  0
 34 35  2  0
M  END
>  <DRUGBANK_ID>  (1) 
DB15460

>  <COMMON_NAME>  (1) 
AGG-523

>  <CAS_NUMBER>  (1) 
920289-29-8

>  <UNII>  (1) 
WO23I2827Q

$$$$
