
     RDKit          3D

 21 22  0  0  0  0  0  0  0  0999 V2000
    1.0603   -0.0530    0.0098 C   0  0  0  0  0  0  0  0  0  0  0  0
    0.6468    1.3288    0.4818 C   0  0  0  0  0  0  0  0  0  0  0  0
    1.2029    2.3780   -0.4861 C   0  0  0  0  0  0  0  0  0  0  0  0
    0.6306    2.1837   -1.9014 C   0  0  0  0  0  0  0  0  0  0  0  0
   -0.8936    2.2050   -1.8546 C   0  0  0  0  0  0  0  0  0  0  0  0
   -1.3090    3.5275   -1.2300 C   0  0  0  0  0  0  0  0  0  0  0  0
   -1.0558    4.6824   -2.2078 C   0  0  0  0  0  0  0  0  0  0  0  0
   -1.6169    4.6175   -3.6614 C   0  0  0  0  0  0  0  0  0  0  0  0
   -3.1191    4.5616   -3.8499 N   0  0  0  0  0  0  0  0  0  0  0  0
   -3.7417    5.8484   -4.1490 C   0  0  0  0  0  0  0  0  0  0  0  0
   -3.7851    6.5452   -2.8038 C   0  0  0  0  0  0  0  0  0  0  0  0
   -4.2141    5.4357   -1.8674 C   0  0  0  0  0  0  0  0  0  0  0  0
   -3.8659    4.1599   -2.6466 C   0  0  0  0  0  0  0  0  0  0  0  0
   -0.8970    5.6409   -4.6222 C   0  0  0  0  0  0  0  0  0  0  0  0
   -0.2819    5.2661   -5.6423 O   0  0  0  0  0  0  0  0  0  0  0  0
   -0.9889    7.1204   -4.4033 C   0  0  0  0  0  0  0  0  0  0  0  0
   -0.8078    7.6935   -3.1427 C   0  0  0  0  0  0  0  0  0  0  0  0
   -1.2250    8.9994   -2.8855 C   0  0  0  0  0  0  0  0  0  0  0  0
   -1.6579    9.8047   -3.9295 C   0  0  0  0  0  0  0  0  0  0  0  0
   -1.7188    9.2876   -5.2231 C   0  0  0  0  0  0  0  0  0  0  0  0
   -1.4366    7.9373   -5.4538 C   0  0  0  0  0  0  0  0  0  0  0  0
  1  2  1  0
  2  3  1  0
  3  4  1  0
  4  5  1  0
  5  6  1  0
  6  7  1  0
  7  8  1  0
  8  9  1  0
  8 14  1  0
  9 10  1  0
  9 13  1  0
 10 11  1  0
 11 12  1  0
 12 13  1  0
 14 15  2  0
 14 16  1  0
 16 17  2  0
 16 21  1  0
 17 18  1  0
 18 19  2  0
 19 20  1  0
 20 21  2  0
M  END
>  <DRUGBANK_ID>  (1) 
DB05531

>  <COMMON_NAME>  (1) 
alpha-Pyrrolidinononanophenone

>  <CAS_NUMBER>  (1) 
13415-58-2

>  <UNII>  (1) 
S3FKL8RY1D

>  <SYNONYMS>  (1) 
alpha-Pnp; alpha-Pyrrolidinononanophenone

$$$$
