
     RDKit          3D

 27 29  0  0  1  0  0  0  0  0999 V2000
    0.9554    0.0702    0.0195 C   0  0  0  0  0  0  0  0  0  0  0  0
    1.9759    0.5753   -5.6924 C   0  0  0  0  0  0  0  0  0  0  0  0
   -4.3811   -8.3298   -3.6815 C   0  0  0  0  0  0  0  0  0  0  0  0
    0.8995   -7.2488   -4.5937 C   0  0  0  0  0  0  0  0  0  0  0  0
    1.6440   -4.3198   -3.0034 C   0  0  0  0  0  0  0  0  0  0  0  0
   -3.3153   -2.7416   -1.8409 C   0  0  0  0  0  0  0  0  0  0  0  0
    0.0224   -2.8502   -3.3511 C   0  0  0  0  0  0  0  0  0  0  0  0
   -2.3767   -1.1108   -1.5972 C   0  0  0  0  0  0  0  0  0  0  0  0
   -0.6545   -2.5049   -4.9739 C   0  0  0  0  0  0  0  0  0  0  0  0
   -3.3599   -5.5756   -2.8140 C   0  0  0  0  0  0  0  0  0  0  0  0
    1.2063   -1.5208   -4.2424 C   0  0  0  0  0  0  0  0  0  0  0  0
   -2.7477   -4.2441   -2.4650 C   0  0  0  0  0  0  0  0  0  0  0  0
   -1.0567   -2.6335   -2.6608 C   0  0  0  0  0  0  0  0  0  0  0  0
   -0.1782   -1.1972   -3.2420 C   0  0  0  0  0  0  0  0  0  0  0  0
   -0.6750   -0.9556   -1.5484 C   0  0  2  0  0  0  0  0  0  0  0  0
    0.8690   -2.1837   -5.9035 C   0  0  0  0  0  0  0  0  0  0  0  0
   -0.2158   -1.3112   -5.8005 C   0  0  0  0  0  0  0  0  0  0  0  0
   -2.5965   -6.6626   -3.4458 C   0  0  0  0  0  0  0  0  0  0  0  0
   -1.4157   -4.0962   -2.8139 C   0  0  0  0  0  0  0  0  0  0  0  0
   -1.2191   -6.4721   -3.6755 C   0  0  0  0  0  0  0  0  0  0  0  0
   -0.6402   -5.2500   -3.2686 C   0  0  0  0  0  0  0  0  0  0  0  0
    0.5143   -1.1386   -0.6147 N   0  0  0  0  0  0  0  0  0  0  0  0
    1.0488   -3.1153   -6.6633 O   0  0  0  0  0  0  0  0  0  0  0  0
    0.4520    0.1545   -5.3061 O   0  0  0  0  0  0  0  0  0  0  0  0
   -3.0371   -7.9136   -3.8596 O   0  0  0  0  0  0  0  0  0  0  0  0
   -0.4915   -7.4923   -4.3019 O   0  0  0  0  0  0  0  0  0  0  0  0
    0.7321   -5.2877   -3.3939 O   0  0  0  0  0  0  0  0  0  0  0  0
  8  6  1  0
  9  7  1  0
 12  6  1  0
 12 10  1  0
 13  7  2  0
 14 11  2  0
 14 13  1  0
 15  8  1  0
 15 14  1  0
 15 22  1  1
 16 11  1  0
 17  9  2  0
 17 16  1  0
 18 10  2  0
 19 12  2  0
 19 13  1  0
 20 18  1  0
 21 19  1  0
 21 20  2  0
 22  1  1  0
 23 16  2  0
 24  2  1  0
 24 17  1  0
 25  3  1  0
 25 18  1  0
 26  4  1  0
 26 20  1  0
 27  5  1  0
 27 21  1  0
M  END
>  <DRUGBANK_ID>  (1) 
DB13318

>  <COMMON_NAME>  (1) 
Demecolcine

>  <CAS_NUMBER>  (1) 
477-30-5

>  <UNII>  (1) 
Z01IVE25KI

>  <SYNONYMS>  (1) 
demecolcina; Demecolcine

$$$$
