
     RDKit          3D

 17 18  0  0  0  0  0  0  0  0999 V2000
    1.5088   -0.0859    0.0462 C   0  0  0  0  0  0  0  0  0  0  0  0
    0.7189   -1.2016   -0.1150 C   0  0  0  0  0  0  0  0  0  0  0  0
    0.9151    1.1822    0.0440 C   0  0  0  0  0  0  0  0  0  0  0  0
   -0.6239   -1.0150   -0.3738 C   0  0  0  0  0  0  0  0  0  0  0  0
   -0.4837    1.3262    0.0462 C   0  0  0  0  0  0  0  0  0  0  0  0
   -1.9186   -3.7903    0.8840 C   0  0  0  0  0  0  0  0  0  0  0  0
   -2.5622   -2.5459    0.9791 C   0  0  0  0  0  0  0  0  0  0  0  0
   -3.0858   -4.2620   -1.1615 C   0  0  0  0  0  0  0  0  0  0  0  0
   -2.2450   -4.6943   -0.1296 C   0  0  0  0  0  0  0  0  0  0  0  0
   -1.2632    0.1929   -0.1457 C   0  0  0  0  0  0  0  0  0  0  0  0
   -3.3855   -2.1108   -0.0698 C   0  0  0  0  0  0  0  0  0  0  0  0
   -3.6812   -2.9941   -1.1176 C   0  0  0  0  0  0  0  0  0  0  0  0
   -3.7359   -0.6719   -0.2221 C   0  0  0  0  0  0  0  0  0  0  0  0
   -1.5645   -5.9163   -0.2209 N   0  0  0  0  0  0  0  0  0  0  0  0
   -4.5001   -2.6644   -2.1648 O   0  0  0  0  0  0  0  0  0  0  0  0
   -4.8799   -0.3727   -0.5235 O   0  0  0  0  0  0  0  0  0  0  0  0
   -2.6926    0.2939   -0.1554 O   0  0  0  0  0  0  0  0  0  0  0  0
  2  1  2  0
  3  1  1  0
  4  2  1  0
  5  3  2  0
  7  6  2  0
  9  6  1  0
  9  8  2  0
 10  4  2  0
 10  5  1  0
 11  7  1  0
 12  8  1  0
 12 11  2  0
 13 11  1  0
 14  9  1  0
 15 12  1  0
 16 13  2  0
 17 10  1  0
 17 13  1  0
M  END
>  <DRUGBANK_ID>  (1) 
DB06807

>  <COMMON_NAME>  (1) 
Phenyl aminosalicylate

>  <CAS_NUMBER>  (1) 
133-11-9

>  <UNII>  (1) 
52936SIP7V

>  <SYNONYMS>  (1) 
Fenamisal; Fenamisalum; p-Aminosalol; Phenyl 4-aminosalicylate; Phenyl aminosalicylate; Phenyl PAS

$$$$
