
     RDKit          3D

 10  9  0  0  1  0  0  0  0  0999 V2000
    1.0378    0.0509    0.0950 C   0  0  0  0  0  0  0  0  0  0  0  0
    0.4941    0.6839   -1.1941 C   0  0  1  0  0  0  0  0  0  0  0  0
    1.0253   -0.0501   -2.4487 C   0  0  1  0  0  0  0  0  0  0  0  0
    0.6661   -1.4709   -2.4808 N   0  0  0  0  0  0  0  0  0  0  0  0
    0.5114    0.6623   -3.7156 C   0  0  0  0  0  0  0  0  0  0  0  0
    1.4795    1.1354   -4.5343 O   0  0  0  0  0  0  0  0  0  0  0  0
   -0.6705    0.8443   -3.9801 O   0  0  0  0  0  0  0  0  0  0  0  0
   -1.0312    0.6718   -1.1277 C   0  0  0  0  0  0  0  0  0  0  0  0
   -1.6098    1.8937   -1.1300 O   0  0  0  0  0  0  0  0  0  0  0  0
   -1.7027   -0.3429   -0.9902 O   0  0  0  0  0  0  0  0  0  0  0  0
  2  1  1  1
  2  3  1  0
  2  8  1  0
  3  4  1  6
  3  5  1  0
  5  6  1  0
  5  7  2  0
  8  9  1  0
  8 10  2  0
M  END
>  <DRUGBANK_ID>  (1) 
DB04313

>  <SECONDARY_ACCESSION_NUMBERS>  (1) 
EXPT00104

>  <COMMON_NAME>  (1) 
(3S)-3-methyl-D-aspartic acid

>  <CAS_NUMBER>  (1) 
121570-10-3

>  <UNII>  (1) 
JVW3X5Z42K

>  <SYNONYMS>  (1) 
3-methyl-beta-D-aspartic acid; D-methyl aspartic acid

$$$$
