
     RDKit          3D

 32 33  0  0  1  0  0  0  0  0999 V2000
   -3.2363    1.9843   -0.3467 C   0  0  0  0  0  0  0  0  0  0  0  0
   -1.6634    2.1460   -0.3145 C   0  0  0  0  0  0  0  0  0  0  0  0
   -0.8552    1.1992   -1.1918 C   0  0  0  0  0  0  0  0  0  0  0  0
   -0.5756    1.7794   -2.5265 C   0  0  0  0  0  0  0  0  0  0  0  0
    0.1309    3.2372   -2.6466 C   0  0  0  0  0  0  0  0  0  0  0  0
    1.4445    3.1293   -3.5188 C   0  0  0  0  0  0  0  0  0  0  0  0
    1.4580    2.1360   -4.9413 C   0  0  0  0  0  0  0  0  0  0  0  0
   -5.8064    4.0289   -5.8135 C   0  0  0  0  0  0  0  0  0  0  0  0
   -2.4196    6.6678   -5.2958 C   0  0  0  0  0  0  0  0  0  0  0  0
   -2.8922    3.7637   -2.5614 C   0  0  0  0  0  0  0  0  0  0  0  0
   -4.6965    2.9666   -5.9242 C   0  0  2  0  0  0  0  0  0  0  0  0
   -1.7864    5.3814   -4.7685 C   0  0  2  0  0  0  0  0  0  0  0  0
    0.7916    2.3699   -6.5538 C   0  0  0  0  0  0  0  0  0  0  0  0
   -3.5501    3.1993   -7.0340 C   0  0  2  0  0  0  0  0  0  0  0  0
   -0.9623    4.4248   -5.6207 C   0  0  2  0  0  0  0  0  0  0  0  0
   -2.7204    0.7181   -6.5117 C   0  0  2  0  0  0  0  0  0  0  0  0
   -2.2631    2.0956   -7.0060 C   0  0  2  0  0  0  0  0  0  0  0  0
   -1.2528    3.0445   -4.7429 C   0  0  1  0  0  0  0  0  0  0  0  0
   -3.7151    1.0483   -5.2170 C   0  0  2  0  0  0  0  0  0  0  0  0
   -2.5553    3.2659   -3.9791 C   0  0  2  0  0  0  0  0  0  0  0  0
   -5.7846    4.9220   -6.9085 O   0  0  0  0  0  0  0  0  0  0  0  0
   -1.6550    7.3111   -6.2772 O   0  0  0  0  0  0  0  0  0  0  0  0
   -4.2885    4.0511   -2.2948 O   0  0  0  0  0  0  0  0  0  0  0  0
    1.7077    2.7880   -7.3751 O   0  0  0  0  0  0  0  0  0  0  0  0
   -3.2450    4.5605   -6.8209 O   0  0  0  0  0  0  0  0  0  0  0  0
    0.3295    5.0203   -5.7509 O   0  0  0  0  0  0  0  0  0  0  0  0
   -1.7174   -0.2941   -6.2597 O   0  0  0  0  0  0  0  0  0  0  0  0
   -1.0124    1.5809   -5.0158 O   0  0  0  0  0  0  0  0  0  0  0  0
   -4.9507    1.5972   -5.7126 O   0  0  0  0  0  0  0  0  0  0  0  0
   -0.5294    2.3049   -7.1202 O   0  0  0  0  0  0  0  0  0  0  0  0
   -2.9457    4.5661   -4.4503 O   0  0  0  0  0  0  0  0  0  0  0  0
   -3.3091    1.9043   -4.0488 O   0  0  0  0  0  0  0  0  0  0  0  0
  2  1  1  0
  3  2  1  0
  4  3  1  0
  5  4  1  0
  6  5  1  0
  7  6  1  0
 11  8  1  6
 12  9  1  6
 13  7  1  0
 14 11  1  0
 14 25  1  1
 15 12  1  0
 15 26  1  1
 16 27  1  1
 17 14  1  0
 17 16  1  0
 17 30  1  6
 18 15  1  0
 18 28  1  6
 19 16  1  0
 19 32  1  1
 20 10  1  1
 20 18  1  0
 20 32  1  0
 21  8  1  0
 22  9  1  0
 23 10  1  0
 24 13  2  0
 29 11  1  0
 29 19  1  0
 30 13  1  0
 31 12  1  0
 31 20  1  0
M  END
>  <DRUGBANK_ID>  (1) 
DB02346

>  <SECONDARY_ACCESSION_NUMBERS>  (1) 
EXPT00139

>  <COMMON_NAME>  (1) 
3'-O-N-Octanoyl-a-D-Glucopyranosyl-B-D-Fructofuranoside

$$$$
