
     RDKit          3D

 31 34  0  0  0  0  0  0  0  0999 V2000
    2.7383    0.7153    0.0475 N   0  0  0  0  0  0  0  0  0  0  0  0
    3.2061   -0.5941    0.1279 C   0  0  0  0  0  0  0  0  0  0  0  0
    2.0478   -1.3553    0.1895 C   0  0  0  0  0  0  0  0  0  0  0  0
    0.9131   -0.5577    0.0977 C   0  0  0  0  0  0  0  0  0  0  0  0
   -0.4419   -0.9029    0.0524 C   0  0  0  0  0  0  0  0  0  0  0  0
   -1.3613    0.1266    0.0159 C   0  0  0  0  0  0  0  0  0  0  0  0
   -0.9327    1.4540    0.0144 C   0  0  0  0  0  0  0  0  0  0  0  0
    0.4349    1.7989    0.0168 C   0  0  0  0  0  0  0  0  0  0  0  0
    1.3532    0.7506    0.0533 C   0  0  0  0  0  0  0  0  0  0  0  0
    4.6421   -0.9297    0.0159 C   0  0  0  0  0  0  0  0  0  0  0  0
    5.5006   -0.0622   -0.0733 O   0  0  0  0  0  0  0  0  0  0  0  0
    5.0641   -2.2526   -0.0509 N   0  0  0  0  0  0  0  0  0  0  0  0
    4.2762   -3.4871   -0.0185 C   0  0  2  0  0  0  0  0  0  0  0  0
    4.4751   -4.3334    1.2402 C   0  0  0  0  0  0  0  0  0  0  0  0
    4.0265   -5.4789    1.3114 O   0  0  0  0  0  0  0  0  0  0  0  0
    5.1496   -3.7431    2.2973 N   0  0  0  0  0  0  0  0  0  0  0  0
    4.8717   -2.4166    2.8618 C   0  0  0  0  0  0  0  0  0  0  0  0
    4.3222   -2.5197    4.2829 C   0  0  0  0  0  0  0  0  0  0  0  0
    5.2047   -3.4089    5.1546 C   0  0  0  0  0  0  0  0  0  0  0  0
    5.4832   -4.7593    4.4935 C   0  0  0  0  0  0  0  0  0  0  0  0
    6.0136   -4.5896    3.0833 C   0  0  0  0  0  0  0  0  0  0  0  0
    6.4291   -2.7389    5.4543 O   0  0  0  0  0  0  0  0  0  0  0  0
    4.2518   -4.2981   -1.3406 C   0  0  0  0  0  0  0  0  0  0  0  0
    4.2223   -3.4919   -2.6317 C   0  0  0  0  0  0  0  0  0  0  0  0
    4.6033   -4.0455   -3.8481 C   0  0  0  0  0  0  0  0  0  0  0  0
    4.6224   -3.2486   -5.0057 C   0  0  0  0  0  0  0  0  0  0  0  0
    4.2826   -1.8973   -4.9533 C   0  0  0  0  0  0  0  0  0  0  0  0
    3.8688   -1.3357   -3.7756 C   0  0  0  0  0  0  0  0  0  0  0  0
    3.7824   -2.1667   -2.6728 C   0  0  0  0  0  0  0  0  0  0  0  0
    4.3173   -1.1411   -6.0557 F   0  0  0  0  0  0  0  0  0  0  0  0
   -3.0354   -0.2639   -0.0146 Cl  0  0  0  0  0  0  0  0  0  0  0  0
  1  2  1  0
  1  9  1  0
  2  3  2  0
  2 10  1  0
  3  4  1  0
  4  5  1  0
  4  9  2  0
  5  6  2  0
  6  7  1  0
  6 31  1  0
  7  8  2  0
  8  9  1  0
 10 11  2  0
 10 12  1  0
 13 12  1  0
 13 23  1  6
 13 14  1  0
 14 15  2  0
 14 16  1  0
 16 17  1  0
 16 21  1  0
 17 18  1  0
 18 19  1  0
 19 20  1  0
 19 22  1  0
 20 21  1  0
 23 24  1  0
 24 25  2  0
 24 29  1  0
 25 26  1  0
 26 27  2  0
 27 28  1  0
 27 30  1  0
 28 29  2  0
M  END
>  <DRUGBANK_ID>  (1) 
DB03383

>  <SECONDARY_ACCESSION_NUMBERS>  (1) 
EXPT00907

>  <COMMON_NAME>  (1) 
CP-320626

>  <CAS_NUMBER>  (1) 
186430-23-9

>  <UNII>  (1) 
FKX709RK3Q

$$$$
