264
     RDKit          3D

 19 19  0  0  1  0  0  0  0  0999 V2000
    1.0889   -0.0137   -0.1425 O   0  0  0  0  0  0  0  0  0  0  0  0
    1.9371    2.3136    1.6741 O   0  0  0  0  0  0  0  0  0  0  0  0
    6.8441   -1.9531    1.6018 O   0  0  0  0  0  0  0  0  0  0  0  0
   -1.5943    3.1120    1.2361 N   0  0  0  0  0  0  0  0  0  0  0  0
    0.5905    1.9569    1.3416 C   0  0  0  0  0  0  0  0  0  0  0  0
   -0.1502    3.2909    1.3047 C   0  0  0  0  0  0  0  0  0  0  0  0
   -2.2982    4.3920    1.2464 C   0  0  0  0  0  0  0  0  0  0  0  0
    0.3931    1.2270   -0.0185 C   0  0  0  0  0  0  0  0  0  0  0  0
   -1.9566    5.2390    0.0193 C   0  0  0  0  0  0  0  0  0  0  0  0
   -3.7890    4.0712    1.2637 C   0  0  0  0  0  0  0  0  0  0  0  0
    2.4262    0.0667   -0.3982 C   0  0  0  0  0  0  0  0  0  0  0  0
    5.2265    0.0100   -0.2913 C   0  0  0  0  0  0  0  0  0  0  0  0
    6.7111   -0.0232    0.0098 C   0  0  0  0  0  0  0  0  0  0  0  0
    3.1659    1.2403   -0.4626 C   0  0  0  0  0  0  0  0  0  0  0  0
    3.0945   -1.1513   -0.4829 C   0  0  0  0  0  0  0  0  0  0  0  0
    4.5379    1.2242   -0.2580 C   0  0  0  0  0  0  0  0  0  0  0  0
    4.4884   -1.1562   -0.5597 C   0  0  0  0  0  0  0  0  0  0  0  0
    7.1925   -0.5877    1.3708 C   0  0  0  0  0  0  0  0  0  0  0  0
    5.5170   -2.0951    2.0875 C   0  0  0  0  0  0  0  0  0  0  0  0
  1  8  1  0
  1 11  1  0
  2  5  1  0
  3 18  1  0
  3 19  1  0
  4  6  1  0
  4  7  1  0
  5  6  1  0
  5  8  1  0
  7  9  1  0
  7 10  1  0
 11 14  2  0
 11 15  1  0
 12 13  1  0
 12 16  2  0
 12 17  1  0
 13 18  1  0
 14 16  1  0
 15 17  2  0
M  END
>  <DRUGBANK_ID>  (1) 
DB00264

>  <SECONDARY_ACCESSION_NUMBERS>  (1) 
APRD00208

>  <COMMON_NAME>  (1) 
Metoprolol

>  <CAS_NUMBER>  (1) 
51384-51-1

>  <UNII>  (1) 
GEB06NHM23

>  <SYNONYMS>  (1) 
(RS)-Metoprolol; 1-(isopropylamino)-3-[4-(2-methoxyethyl)phenoxy]propan-2-ol; DL-metoprolol; Metoprolol

$$$$
