
     RDKit          3D

 24 27  0  0  1  0  0  0  0  0999 V2000
    9.1287   -1.0500    1.5188 C   0  0  0  0  0  0  0  0  0  0  0  0
    5.3441   -1.1887    1.6240 C   0  0  0  0  0  0  0  0  0  0  0  0
    9.0368   -3.3722    1.9936 C   0  0  2  0  0  0  0  0  0  0  0  0
    7.7818   -4.2243   -0.2877 C   0  0  0  0  0  0  0  0  0  0  0  0
    8.8673   -1.9517    2.6775 C   0  0  0  0  0  0  0  0  0  0  0  0
    4.6152   -3.9280    1.8210 C   0  0  1  0  0  0  0  0  0  0  0  0
    6.5634   -4.5552    0.4199 C   0  0  0  0  0  0  0  0  0  0  0  0
    4.2905   -1.7387    2.8894 C   0  0  0  0  0  0  0  0  0  0  0  0
    3.9372   -3.2979    3.1189 C   0  0  0  0  0  0  0  0  0  0  0  0
    3.6534   -4.9515    1.1530 C   0  0  0  0  0  0  0  0  0  0  0  0
    3.3137   -4.1266    4.1453 C   0  0  0  0  0  0  0  0  0  0  0  0
    2.7252   -5.3809    2.2118 C   0  0  0  0  0  0  0  0  0  0  0  0
    6.4208   -2.2161    1.3057 C   0  0  1  0  0  0  0  0  0  0  0  0
    5.6438   -3.4153    0.7616 C   0  0  2  0  0  0  0  0  0  0  0  0
    8.6756   -3.1683    0.3928 C   0  0  2  0  0  0  0  0  0  0  0  0
    9.8900   -2.9781   -0.6036 C   0  0  0  0  0  0  0  0  0  0  0  0
    7.9360   -1.7944    0.5674 C   0  0  2  0  0  0  0  0  0  0  0  0
    4.6478   -6.0115    3.7272 O   0  0  0  0  0  0  0  0  0  0  0  0
    3.6526   -5.3716    3.4109 C   0  0  0  0  0  0  0  0  0  0  0  0
    8.1952   -4.3621    2.7103 C   0  0  0  0  0  0  0  0  0  0  0  0
   10.3760   -3.7939    2.2165 O   0  0  0  0  0  0  0  0  0  0  0  0
   10.0890   -4.1290   -1.6072 C   0  0  0  0  0  0  0  0  0  0  0  0
    7.5058   -5.1973    3.1528 C   0  0  0  0  0  0  0  0  0  0  0  0
    6.2322   -5.8485    0.3197 C   0  0  0  0  0  0  0  0  0  0  0  0
  2  8  1  0
  3  5  1  0
  3 21  1  6
  3 20  1  0
  4  7  1  0
  5  1  1  0
  6  9  1  0
  6 10  1  6
  7 24  2  0
  8  9  1  0
  9 11  2  0
 10 12  1  0
 11 19  1  0
 12 19  1  0
 13 14  1  0
 13  2  1  6
 14  6  1  0
 14  7  1  1
 15  3  1  0
 15  4  1  0
 15 16  1  6
 16 22  1  0
 17 13  1  0
 17 15  1  0
 17  1  1  1
 19 18  2  0
 20 23  3  0
M  END
>  <DRUGBANK_ID>  (1) 
DB00294

>  <SECONDARY_ACCESSION_NUMBERS>  (1) 
APRD00766

>  <COMMON_NAME>  (1) 
Etonogestrel

>  <CAS_NUMBER>  (1) 
54048-10-1

>  <UNII>  (1) 
304GTH6RNH

>  <SYNONYMS>  (1) 
3-Ketodesogestrel; 3-Oxodesogestrel; Etonogestrel; Ã©tonogestrel; Etonogestrelum

$$$$
