
     RDKit          3D

 31 34  0  0  1  0  0  0  0  0999 V2000
    1.0959   -0.0438   -0.0659 C   0  0  0  0  0  0  0  0  0  0  0  0
    0.6728    0.2438    1.3175 C   0  0  0  0  0  0  0  0  0  0  0  0
   -0.0833   -0.5714    2.0250 N   0  0  0  0  0  0  0  0  0  0  0  0
   -0.3923    0.0429    3.1934 N   0  0  0  0  0  0  0  0  0  0  0  0
    0.1779    1.2281    3.1914 C   0  0  0  0  0  0  0  0  0  0  0  0
    0.1896    2.2151    4.3076 C   0  0  2  0  0  0  0  0  0  0  0  0
   -0.5836    1.6728    5.5117 C   0  0  0  0  0  0  0  0  0  0  0  0
    0.3332    0.9477    6.4532 C   0  0  0  0  0  0  0  0  0  0  0  0
    0.4872    1.3384    7.6102 O   0  0  0  0  0  0  0  0  0  0  0  0
    0.9532   -0.1319    5.9003 O   0  0  0  0  0  0  0  0  0  0  0  0
    1.8837   -0.9062    6.7092 C   0  0  0  0  0  0  0  0  0  0  0  0
    3.0737   -0.0363    7.1324 C   0  0  0  0  0  0  0  0  0  0  0  0
    1.1683   -1.5244    7.9159 C   0  0  0  0  0  0  0  0  0  0  0  0
    2.4354   -2.0625    5.8505 C   0  0  0  0  0  0  0  0  0  0  0  0
   -0.4576    3.4625    3.8917 N   0  0  0  0  0  0  0  0  0  0  0  0
    0.0229    4.1949    2.9504 C   0  0  0  0  0  0  0  0  0  0  0  0
    1.2253    3.8823    2.1557 C   0  0  0  0  0  0  0  0  0  0  0  0
    1.5531    2.6192    1.6905 C   0  0  0  0  0  0  0  0  0  0  0  0
    2.9169    2.6137    0.6801 S   0  0  0  0  0  0  0  0  0  0  0  0
    3.1660    4.3003    0.8654 C   0  0  0  0  0  0  0  0  0  0  0  0
    4.3201    4.9994    0.2006 C   0  0  0  0  0  0  0  0  0  0  0  0
    2.1875    4.8679    1.6659 C   0  0  0  0  0  0  0  0  0  0  0  0
    2.1327    6.3280    1.9952 C   0  0  0  0  0  0  0  0  0  0  0  0
    0.8751    1.4305    2.0121 N   0  0  0  0  0  0  0  0  0  0  0  0
   -0.6960    5.4516    2.6231 C   0  0  0  0  0  0  0  0  0  0  0  0
   -1.1795    5.6617    1.3249 C   0  0  0  0  0  0  0  0  0  0  0  0
   -1.7593    6.8889    0.9976 C   0  0  0  0  0  0  0  0  0  0  0  0
   -1.8507    7.8934    1.9631 C   0  0  0  0  0  0  0  0  0  0  0  0
   -2.5556    9.4070    1.5491 Cl  0  0  0  0  0  0  0  0  0  0  0  0
   -1.3670    7.6853    3.2565 C   0  0  0  0  0  0  0  0  0  0  0  0
   -0.7922    6.4577    3.5934 C   0  0  0  0  0  0  0  0  0  0  0  0
  1  2  1  0
  2  3  2  0
  2 24  1  0
  3  4  1  0
  4  5  2  0
  5 24  1  0
  6  5  1  0
  6 15  1  0
  6  7  1  1
  7  8  1  0
  8  9  2  0
  8 10  1  0
 10 11  1  0
 11 12  1  0
 11 13  1  0
 11 14  1  0
 15 16  2  0
 16 17  1  0
 16 25  1  0
 17 18  2  0
 17 22  1  0
 18 19  1  0
 18 24  1  0
 19 20  1  0
 20 21  1  0
 20 22  2  0
 22 23  1  0
 25 26  2  0
 25 31  1  0
 26 27  1  0
 27 28  2  0
 28 29  1  0
 28 30  1  0
 30 31  2  0
M  END
>  <DRUGBANK_ID>  (1) 
DB17021

>  <COMMON_NAME>  (1) 
JQ1

>  <CAS_NUMBER>  (1) 
1268524-70-4

>  <UNII>  (1) 
1MRH0IMX0W

>  <SYNONYMS>  (1) 
(s)-(+)-tert-butyl 2-(4-(4-chlorophenyl)-2,3,9-trimethyl-6h-thieno(3,2-f)(1,2,4)triazolo(4,3-a)(1,4)diazepin-6-yl)acetate; 6h-thieno(3,2-f)(1,2,4)triazolo(4,3-a)(1,4)diazepine-6-acetic acid, 4-(4-chlorophenyl)-2,3,9-trimethyl-, 1,1-dimethylethyl ester, (6s)-; Tert-butyl 2-((6s)-4-(4-chlorophenyl)-2,3,9-trimethyl-6h-thieno(3,2-f)(1,2,4)triazolo(4,3-a)(1,4)diazepin-6-yl)acetate

$$$$
