
     RDKit          3D

 11 10  0  0  1  0  0  0  0  0999 V2000
    0.9164    0.4007   -0.1855 N   0  0  0  0  0  0  0  0  0  0  0  0
    0.4663   -0.1031   -1.5018 C   0  0  1  0  0  0  0  0  0  0  0  0
    1.0423   -1.4831   -1.9260 C   0  0  0  0  0  0  0  0  0  0  0  0
    0.5752   -2.5977   -1.0899 N   0  0  0  0  0  0  0  0  0  0  0  0
    0.9735   -2.7478    0.1235 C   0  0  0  0  0  0  0  0  0  0  0  0
    1.9455   -2.0372    0.7501 N   0  0  0  0  0  0  0  0  0  0  0  0
    0.4262   -3.6777    0.9573 N   0  0  0  0  0  0  0  0  0  0  0  0
   -0.3659   -4.6650    0.3818 O   0  0  0  0  0  0  0  0  0  0  0  0
   -1.0784   -0.1480   -1.4856 C   0  0  0  0  0  0  0  0  0  0  0  0
   -1.6647    0.8098   -2.2479 O   0  0  0  0  0  0  0  0  0  0  0  0
   -1.7468   -0.9050   -0.8026 O   0  0  0  0  0  0  0  0  0  0  0  0
  2  1  1  1
  2  3  1  0
  2  9  1  0
  3  4  1  0
  4  5  2  0
  5  6  1  0
  5  7  1  0
  7  8  1  0
  9 10  1  0
  9 11  2  0
M  END
>  <DRUGBANK_ID>  (1) 
DB02499

>  <SECONDARY_ACCESSION_NUMBERS>  (1) 
EXPT01209

>  <COMMON_NAME>  (1) 
Dinor-N(Omega)-Hydroxy-L-Arginine

$$$$
