
     RDKit          3D

 27 30  0  0  0  0  0  0  0  0999 V2000
    1.6560   -1.3780    0.0140 O   0  0  0  0  0  0  0  0  0  0  0  0
    0.4590   -0.7190   -0.0030 C   0  0  0  0  0  0  0  0  0  0  0  0
   -0.7580   -1.3800   -0.0090 C   0  0  0  0  0  0  0  0  0  0  0  0
   -1.9730   -0.6740   -0.0160 C   0  0  0  0  0  0  0  0  0  0  0  0
   -1.9230    0.7240    0.0050 C   0  0  0  0  0  0  0  0  0  0  0  0
   -0.7050    1.3790    0.0220 C   0  0  0  0  0  0  0  0  0  0  0  0
    0.4880    0.6780    0.0120 C   0  0  0  0  0  0  0  0  0  0  0  0
    1.6560    1.3730   -0.0220 O   0  0  0  0  0  0  0  0  0  0  0  0
   -3.5787    1.7541    0.0103 As  0  0  0  0  0  4  0  0  0  0  0  0
   -3.6546    2.8543    1.6185 C   0  0  0  0  0  0  0  0  0  0  0  0
   -2.6895    3.7472    1.8042 C   0  0  0  0  0  0  0  0  0  0  0  0
   -2.7771    4.6714    2.8171 C   0  0  0  0  0  0  0  0  0  0  0  0
   -3.8101    4.6378    3.7123 C   0  0  0  0  0  0  0  0  0  0  0  0
   -4.7854    3.7864    3.4519 C   0  0  0  0  0  0  0  0  0  0  0  0
   -4.6957    2.7231    2.5227 C   0  0  0  0  0  0  0  0  0  0  0  0
   -3.6355    2.9014   -1.5654 C   0  0  0  0  0  0  0  0  0  0  0  0
   -3.5964    2.3796   -2.7858 C   0  0  0  0  0  0  0  0  0  0  0  0
   -3.7792    3.1736   -3.8922 C   0  0  0  0  0  0  0  0  0  0  0  0
   -3.9140    4.5288   -3.7706 C   0  0  0  0  0  0  0  0  0  0  0  0
   -4.0226    5.0004   -2.5418 C   0  0  0  0  0  0  0  0  0  0  0  0
   -3.7054    4.2711   -1.3715 C   0  0  0  0  0  0  0  0  0  0  0  0
   -5.1017    0.5366   -0.0168 C   0  0  0  0  0  0  0  0  0  0  0  0
   -5.2603   -0.3389    0.9689 C   0  0  0  0  0  0  0  0  0  0  0  0
   -6.4023   -1.0983    1.0527 C   0  0  0  0  0  0  0  0  0  0  0  0
   -7.3595   -1.0389    0.0782 C   0  0  0  0  0  0  0  0  0  0  0  0
   -7.2024   -0.1060   -0.8433 C   0  0  0  0  0  0  0  0  0  0  0  0
   -5.9996    0.6041   -1.0694 C   0  0  0  0  0  0  0  0  0  0  0  0
  1  2  1  0
  2  3  2  0
  2  7  1  0
  3  4  1  0
  4  5  2  0
  5  6  1  0
  5  9  1  0
  6  7  2  0
  7  8  1  0
  9 10  1  0
  9 16  1  0
  9 22  1  0
 10 11  2  0
 10 15  1  0
 11 12  1  0
 12 13  2  0
 13 14  1  0
 14 15  2  0
 16 17  2  0
 16 21  1  0
 17 18  1  0
 18 19  2  0
 19 20  1  0
 20 21  2  0
 22 23  2  0
 22 27  1  0
 23 24  1  0
 24 25  2  0
 25 26  1  0
 26 27  2  0
M  CHG  1   9   1
M  END
>  <DRUGBANK_ID>  (1) 
DB02086

>  <SECONDARY_ACCESSION_NUMBERS>  (1) 
EXPT03130

>  <COMMON_NAME>  (1) 
(3,4-Dihydroxy-Phenyl)-Triphenyl-Arsonium

$$$$
