
     RDKit          3D

 23 23  0  0  0  0  0  0  0  0999 V2000
   -0.1017    1.6591   -0.0536 C   0  0  0  0  0  0  0  0  0  0  0  0
    1.2093    1.3368   -0.0703 C   0  0  0  0  0  0  0  0  0  0  0  0
   -0.7171   -0.8386   -0.0517 C   0  0  0  0  0  0  0  0  0  0  0  0
    0.5933   -1.1443   -0.0309 C   0  0  0  0  0  0  0  0  0  0  0  0
    1.6335   -0.0923   -0.0024 C   0  0  0  0  0  0  0  0  0  0  0  0
   -1.1489    0.5841   -0.0035 C   0  0  0  0  0  0  0  0  0  0  0  0
    1.1341   -2.5443   -0.0079 C   0  0  0  0  0  0  0  0  0  0  0  0
    2.8108   -0.4185    0.0752 O   0  0  0  0  0  0  0  0  0  0  0  0
    2.1511    2.3499   -0.1384 O   0  0  0  0  0  0  0  0  0  0  0  0
   -2.3399    0.8665    0.0742 O   0  0  0  0  0  0  0  0  0  0  0  0
   -0.6295    2.9471   -0.0781 O   0  0  0  0  0  0  0  0  0  0  0  0
    3.5382    2.0785   -0.1751 C   0  0  0  0  0  0  0  0  0  0  0  0
    0.2584    4.0578   -0.1123 C   0  0  0  0  0  0  0  0  0  0  0  0
    0.4465   -6.5589   -1.2877 C   0  0  0  0  0  0  0  0  0  0  0  0
    0.5662   -7.8927   -1.3793 C   0  0  0  0  0  0  0  0  0  0  0  0
    0.6750   -8.7474   -0.1474 C   0  0  0  0  0  0  0  0  0  0  0  0
    0.6102   -8.5699   -2.7124 C   0  0  0  0  0  0  0  0  0  0  0  0
    0.1496   -5.6076   -2.4171 C   0  0  0  0  0  0  0  0  0  0  0  0
   -1.7365   -2.8036   -1.2441 C   0  0  0  0  0  0  0  0  0  0  0  0
   -1.5441   -4.1349   -1.1371 C   0  0  0  0  0  0  0  0  0  0  0  0
   -1.2672   -4.9934   -2.3575 C   0  0  0  0  0  0  0  0  0  0  0  0
   -1.5438   -4.8086    0.2125 C   0  0  0  0  0  0  0  0  0  0  0  0
   -1.8316   -1.8651   -0.0641 C   0  0  0  0  0  0  0  0  0  0  0  0
  1 11  1  0
  2  1  2  0
  2  9  1  0
  3 23  1  0
  3  6  1  0
  4  3  2  0
  4  7  1  0
  4  5  1  0
  5  2  1  0
  5  8  2  0
  6  1  1  0
  6 10  2  0
  9 12  1  0
 11 13  1  0
 14 15  2  3
 15 16  1  0
 15 17  1  0
 18 14  1  0
 19 20  2  0
 20 21  1  0
 20 22  1  0
 21 18  1  0
 23 19  1  0
M  END
>  <DRUGBANK_ID>  (1) 
DB08690

>  <COMMON_NAME>  (1) 
Ubiquinone Q2

>  <CAS_NUMBER>  (1) 
606-06-4

>  <UNII>  (1) 
I7T5V2W47R

>  <SYNONYMS>  (1) 
Coenzyme Q2; Ubiquinone 10; Ubiquinone-2

$$$$
