
     RDKit          3D

 26 28  0  0  0  0  0  0  0  0999 V2000
    1.0775   -0.2905    0.3525 N   0  0  0  0  0  0  0  0  0  0  0  0
    0.2831   -1.4221    0.0547 C   0  0  0  0  0  0  0  0  0  0  0  0
    0.5110    4.1298   -0.4809 N   0  0  0  0  0  0  0  0  0  0  0  0
    0.3546    1.0996    0.0006 C   0  0  0  0  0  0  0  0  0  0  0  0
    0.6265    1.6666   -1.4082 C   0  0  0  0  0  0  0  0  0  0  0  0
   -0.4248    2.1841    0.8257 C   0  0  0  0  0  0  0  0  0  0  0  0
   -0.9680   -1.3639   -0.1104 O   0  0  0  0  0  0  0  0  0  0  0  0
    2.5580   -0.4453    0.5956 C   0  0  0  0  0  0  0  0  0  0  0  0
    0.1705    3.5899    0.8379 C   0  0  0  0  0  0  0  0  0  0  0  0
    1.0472    3.1448   -1.4225 C   0  0  0  0  0  0  0  0  0  0  0  0
    1.3619    5.3750   -0.3602 C   0  0  0  0  0  0  0  0  0  0  0  0
    2.6744    5.4190    0.5346 C   0  0  0  0  0  0  0  0  0  0  0  0
    3.8342    4.6214   -0.0215 C   0  0  0  0  0  0  0  0  0  0  0  0
    0.8969   -2.7715   -0.1022 C   0  0  0  0  0  0  0  0  0  0  0  0
    3.2697    0.6297    1.0220 C   0  0  0  0  0  0  0  0  0  0  0  0
    3.4219   -1.5495    0.4504 C   0  0  0  0  0  0  0  0  0  0  0  0
    5.0145    4.9967   -0.6119 C   0  0  0  0  0  0  0  0  0  0  0  0
    3.6462    3.2835   -0.0212 C   0  0  0  0  0  0  0  0  0  0  0  0
    4.6994    0.7171    1.0808 C   0  0  0  0  0  0  0  0  0  0  0  0
    4.8252   -1.4694    0.2899 C   0  0  0  0  0  0  0  0  0  0  0  0
    5.8795    4.0213   -1.1858 C   0  0  0  0  0  0  0  0  0  0  0  0
    4.2108    2.4297   -0.9878 C   0  0  0  0  0  0  0  0  0  0  0  0
    5.4600   -0.2955    0.5553 C   0  0  0  0  0  0  0  0  0  0  0  0
    5.4506    2.7311   -1.4391 C   0  0  0  0  0  0  0  0  0  0  0  0
    1.6973   -2.8903   -1.4102 C   0  0  0  0  0  0  0  0  0  0  0  0
    6.7471   -0.1166    0.2326 F   0  0  0  0  0  0  0  0  0  0  0  0
  2  1  1  0
  4  1  1  0
  5  4  1  0
  6  4  1  0
  7  2  2  0
  8  1  1  0
  9  3  1  0
  9  6  1  0
 10  3  1  0
 10  5  1  0
 11  3  1  0
 12 11  1  0
 13 12  1  0
 14  2  1  0
 14 25  1  0
 15  8  2  0
 16  8  1  0
 17 13  2  0
 18 13  1  0
 19 15  1  0
 20 16  2  0
 21 17  1  0
 22 18  2  0
 23 19  2  0
 23 20  1  0
 23 26  1  0
 24 21  2  0
 24 22  1  0
M  END
>  <DRUGBANK_ID>  (1) 
DB09177

>  <COMMON_NAME>  (1) 
p-Fluorofentanyl

>  <CAS_NUMBER>  (1) 
90736-23-5

>  <UNII>  (1) 
I45R05QM0Z

>  <SYNONYMS>  (1) 
4-Fluorofentanyl; Parafluorofentanyl

$$$$
