
     RDKit          3D

 16 17  0  0  0  0  0  0  0  0999 V2000
    1.2922    0.5340   -0.3044 O   0  0  0  0  0  0  0  0  0  0  0  0
   -1.7889    0.1960   -0.4717 O   0  0  0  0  0  0  0  0  0  0  0  0
    0.0685    2.9428    2.0706 O   0  0  0  0  0  0  0  0  0  0  0  0
   -1.3313   -2.1951   -1.5050 O   0  0  0  0  0  0  0  0  0  0  0  0
    0.4026   -2.9080   -5.4704 O   0  0  0  0  0  0  0  0  0  0  0  0
    0.7680   -1.2288   -1.8083 N   0  0  0  0  0  0  0  0  0  0  0  0
   -0.4763   -2.2180   -3.5158 N   0  0  0  0  0  0  0  0  0  0  0  0
    1.0519   -0.8856   -0.4059 C   0  0  2  0  0  0  0  0  0  0  0  0
   -0.0272   -1.1849    0.6203 C   0  0  0  0  0  0  0  0  0  0  0  0
   -0.8652    0.0828    0.6061 C   0  0  1  0  0  0  0  0  0  0  0  0
    0.2030    1.1542    0.4324 C   0  0  1  0  0  0  0  0  0  0  0  0
    1.7556   -0.8606   -2.8216 C   0  0  0  0  0  0  0  0  0  0  0  0
    0.6595    1.6711    1.8037 C   0  0  0  0  0  0  0  0  0  0  0  0
    1.9074   -1.9637   -3.8536 C   0  0  0  0  0  0  0  0  0  0  0  0
   -0.3761   -1.8862   -2.2099 C   0  0  0  0  0  0  0  0  0  0  0  0
    0.5619   -2.3713   -4.3788 C   0  0  0  0  0  0  0  0  0  0  0  0
  1  8  1  0
  1 11  1  0
  3 13  1  0
  4 15  2  0
  5 16  2  0
  8  6  1  6
  6 12  1  0
  6 15  1  0
  7 15  1  0
  7 16  1  0
  8  9  1  0
  9 10  1  0
 10  2  1  6
 10 11  1  0
 11 13  1  1
 12 14  1  0
 14 16  1  0
M  END
>  <DRUGBANK_ID>  (1) 
DB03562

>  <SECONDARY_ACCESSION_NUMBERS>  (1) 
EXPT03059

>  <COMMON_NAME>  (1) 
Tetrahydrodeoxyuridine

$$$$
