AAP
     RDKit          3D

 23 24  0  0  0  0  0  0  0  0999 V2000
   -0.6204    1.2789   -0.9694 C   0  0  0  0  0  0  0  0  0  0  0  0
    0.1594    0.9995    0.3877 C   0  0  2  0  0  0  0  0  0  0  0  0
   -0.2171    2.0324   -1.8610 O   0  0  0  0  0  0  0  0  0  0  0  0
   -1.8014    0.6483   -1.2173 N   0  0  0  0  0  0  0  0  0  0  0  0
    1.2349   -0.0197    0.1640 C   0  0  0  0  0  0  0  0  0  0  0  0
    0.9467   -1.3567   -0.1227 C   0  0  0  0  0  0  0  0  0  0  0  0
    1.9783   -2.2360   -0.4433 C   0  0  0  0  0  0  0  0  0  0  0  0
    3.3033   -1.8011   -0.4610 C   0  0  0  0  0  0  0  0  0  0  0  0
    3.6091   -0.4761   -0.1994 C   0  0  0  0  0  0  0  0  0  0  0  0
    2.5889    0.4156    0.0871 C   0  0  0  0  0  0  0  0  0  0  0  0
   -0.6604   -1.9930   -0.1212 Cl  0  0  0  0  0  0  0  0  0  0  0  0
    3.1285    2.0577    0.3091 Cl  0  0  0  0  0  0  0  0  0  0  0  0
   -0.6510    0.9442    1.6165 N   0  0  0  0  0  0  0  0  0  0  0  0
   -0.4835    1.8303    2.7077 C   0  0  0  0  0  0  0  0  0  0  0  0
   -0.2071    3.2410    2.6952 C   0  0  0  0  0  0  0  0  0  0  0  0
   -0.1117    3.9454    3.9209 C   0  0  0  0  0  0  0  0  0  0  0  0
   -0.2206    3.3241    5.1520 C   0  0  0  0  0  0  0  0  0  0  0  0
   -0.4019    1.9498    5.2043 C   0  0  0  0  0  0  0  0  0  0  0  0
   -0.5321    1.2229    3.9980 C   0  0  0  0  0  0  0  0  0  0  0  0
   -0.0557    4.2152    1.5462 C   0  0  0  0  0  0  0  0  0  0  0  0
    0.2491    5.4098    1.7408 O   0  0  0  0  0  0  0  0  0  0  0  0
   -0.2610    3.8038    0.1588 C   0  0  0  0  0  0  0  0  0  0  0  0
   -0.4640    1.2924    6.5526 C   0  0  0  0  0  0  0  0  0  0  0  0
  1  3  2  0
  1  4  1  0
  2 13  1  1
  2  5  1  0
  2  1  1  0
  5  6  2  0
  5 10  1  0
  6  7  1  0
  6 11  1  0
  7  8  2  0
  8  9  1  0
  9 10  2  0
 10 12  1  0
 13 14  1  0
 14 15  2  0
 14 19  1  0
 15 16  1  0
 15 20  1  0
 16 17  2  0
 17 18  1  0
 18 19  2  0
 18 23  1  0
 20 21  2  0
 20 22  1  0
M  END
>  <DRUGBANK_ID>  (1) 
DB07332

>  <COMMON_NAME>  (1) 
ALPHA-(2,6-DICHLOROPHENYL)-ALPHA-(2-ACETYL-5-METHYLANILINO)ACETAMIDE

$$$$
