
     RDKit          3D

  8  7  0  0  0  0  0  0  0  0999 V2000
    1.1103   -0.0706   -0.0292 O   0  0  0  0  0  0  0  0  0  0  0  0
    0.6355   -1.2465    0.7239 C   0  0  0  0  0  0  0  0  0  0  0  0
    1.1135   -2.5488    0.0515 C   0  0  0  0  0  0  0  0  0  0  0  0
    1.7736   -3.4076    0.7097 O   0  0  0  0  0  0  0  0  0  0  0  0
    0.7648   -2.6663   -1.1705 O   0  0  0  0  0  0  0  0  0  0  0  0
    1.1333   -1.1515    2.1765 C   0  0  0  0  0  0  0  0  0  0  0  0
    0.2245   -1.1749    3.0716 O   0  0  0  0  0  0  0  0  0  0  0  0
    2.3555   -0.8218    2.3336 O   0  0  0  0  0  0  0  0  0  0  0  0
  1  2  1  0
  2  3  1  0
  2  6  1  0
  3  4  1  0
  3  5  2  0
  6  7  1  0
  6  8  2  0
M  CHG  2   4  -1   7  -1
M  END
>  <DRUGBANK_ID>  (1) 
DB03680

>  <SECONDARY_ACCESSION_NUMBERS>  (1) 
EXPT03129

>  <COMMON_NAME>  (1) 
Tartronate

$$$$
