
     RDKit          3D

 30 33  0  0  0  0  0  0  0  0999 V2000
    1.0276    0.1553   -0.0475 C   0  0  0  0  0  0  0  0  0  0  0  0
    0.8285    0.1210   -1.5683 C   0  0  0  0  0  0  0  0  0  0  0  0
    0.9916   -1.2792   -2.1325 C   0  0  0  0  0  0  0  0  0  0  0  0
    0.2404   -2.3742   -1.3406 C   0  0  0  0  0  0  0  0  0  0  0  0
   -1.2037   -2.3202   -1.3314 O   0  0  0  0  0  0  0  0  0  0  0  0
   -1.8312   -1.3427   -0.5669 C   0  0  0  0  0  0  0  0  0  0  0  0
   -1.6873   -0.0723   -0.9363 N   0  0  0  0  0  0  0  0  0  0  0  0
   -2.3402    0.9128   -0.3222 C   0  0  0  0  0  0  0  0  0  0  0  0
   -3.3652    0.6090    0.5192 C   0  0  0  0  0  0  0  0  0  0  0  0
   -3.6054   -0.7578    0.7347 C   0  0  0  0  0  0  0  0  0  0  0  0
   -2.7795   -1.7288    0.2771 N   0  0  0  0  0  0  0  0  0  0  0  0
   -4.7724   -1.1223    1.3940 N   0  0  0  0  0  0  0  0  0  0  0  0
   -5.4214   -0.0861    2.1799 C   0  0  0  0  0  0  0  0  0  0  0  0
   -5.4884    1.2340    1.4151 C   0  0  0  0  0  0  0  0  0  0  0  0
   -6.4805    1.9044    1.2431 O   0  0  0  0  0  0  0  0  0  0  0  0
   -4.2333    1.6217    0.9891 N   0  0  0  0  0  0  0  0  0  0  0  0
   -5.3821   -2.4149    1.1900 C   0  0  0  0  0  0  0  0  0  0  0  0
   -5.8911   -2.6127   -0.2301 C   0  0  0  0  0  0  0  0  0  0  0  0
   -5.0339   -2.8257   -1.3143 C   0  0  0  0  0  0  0  0  0  0  0  0
   -5.4993   -3.1200   -2.5895 C   0  0  0  0  0  0  0  0  0  0  0  0
   -6.8465   -3.3658   -2.7767 C   0  0  0  0  0  0  0  0  0  0  0  0
   -7.7321   -3.2296   -1.7019 C   0  0  0  0  0  0  0  0  0  0  0  0
   -7.2585   -2.7220   -0.4783 C   0  0  0  0  0  0  0  0  0  0  0  0
   -9.1512   -3.7431   -1.8179 C   0  0  0  0  0  0  0  0  0  0  0  0
   -9.4623   -4.9845   -1.0734 N   0  0  0  0  0  0  0  0  0  0  0  0
   -9.3308   -4.8959    0.3855 C   0  0  0  0  0  0  0  0  0  0  0  0
   -7.9527   -5.4474    0.7193 C   0  0  0  0  0  0  0  0  0  0  0  0
   -7.7428   -6.5190   -0.3248 C   0  0  0  0  0  0  0  0  0  0  0  0
   -8.6452   -6.1322   -1.4953 C   0  0  0  0  0  0  0  0  0  0  0  0
   -1.8785    2.2090   -0.4999 N   0  0  0  0  0  0  0  0  0  0  0  0
  1  2  1  0
  2  3  1  0
  3  4  1  0
  4  5  1  0
  5  6  1  0
  6  7  2  0
  6 11  1  0
  7  8  1  0
  8  9  2  0
  8 30  1  0
  9 10  1  0
  9 16  1  0
 10 11  2  0
 10 12  1  0
 12 13  1  0
 12 17  1  0
 13 14  1  0
 14 15  2  0
 14 16  1  0
 17 18  1  0
 18 19  2  0
 18 23  1  0
 19 20  1  0
 20 21  2  0
 21 22  1  0
 22 23  2  0
 22 24  1  0
 24 25  1  0
 25 26  1  0
 25 29  1  0
 26 27  1  0
 27 28  1  0
 28 29  1  0
M  END
>  <DRUGBANK_ID>  (1) 
DB12687

>  <COMMON_NAME>  (1) 
Vesatolimod

>  <CAS_NUMBER>  (1) 
1228585-88-3

>  <UNII>  (1) 
O8M467C50G

>  <SYNONYMS>  (1) 
Vesatolimod

$$$$
