
     RDKit          3D

 29 33  0  0  0  0  0  0  0  0999 V2000
    2.3788   -0.5620   -0.1393 C   0  0  0  0  0  0  0  0  0  0  0  0
    3.6212   -0.5635    0.6175 C   0  0  0  0  0  0  0  0  0  0  0  0
    1.3423   -1.4206    0.0368 C   0  0  0  0  0  0  0  0  0  0  0  0
    2.0342    0.8278   -0.5909 C   0  0  0  0  0  0  0  0  0  0  0  0
   -0.0253   -0.7701    0.0768 C   0  0  0  0  0  0  0  0  0  0  0  0
    3.8155    0.3870    1.5492 N   0  0  0  0  0  0  0  0  0  0  0  0
    1.0288    1.4095    0.1008 N   0  0  0  0  0  0  0  0  0  0  0  0
    4.8201   -0.5377   -0.0888 N   0  0  0  0  0  0  0  0  0  0  0  0
   -0.1243    0.6383    0.1709 C   0  0  0  0  0  0  0  0  0  0  0  0
    5.1289    0.7960   -0.2354 C   0  0  0  0  0  0  0  0  0  0  0  0
    6.3445    3.6272   -2.1825 N   0  0  0  0  0  0  0  0  0  0  0  0
    4.4451    1.3867    0.8202 C   0  0  0  0  0  0  0  0  0  0  0  0
    5.7369    1.5077   -1.2639 C   0  0  0  0  0  0  0  0  0  0  0  0
    5.7245    2.9056   -1.1884 C   0  0  0  0  0  0  0  0  0  0  0  0
    8.1737    4.4859   -4.2405 N   0  0  0  0  0  0  0  0  0  0  0  0
   -1.2395   -1.4489    0.0947 C   0  0  0  0  0  0  0  0  0  0  0  0
    2.6317    1.4420   -1.4791 O   0  0  0  0  0  0  0  0  0  0  0  0
    1.3917   -2.7939    0.2448 N   0  0  0  0  0  0  0  0  0  0  0  0
    7.4238    4.5444   -1.8440 C   0  0  0  0  0  0  0  0  0  0  0  0
    5.9332    3.5704   -3.5932 C   0  0  0  0  0  0  0  0  0  0  0  0
    4.3113    2.7857    0.8193 C   0  0  0  0  0  0  0  0  0  0  0  0
    5.0597    3.5290   -0.1170 C   0  0  0  0  0  0  0  0  0  0  0  0
    7.1710    3.4291   -4.5149 C   0  0  0  0  0  0  0  0  0  0  0  0
    8.6008    4.3503   -2.8284 C   0  0  0  0  0  0  0  0  0  0  0  0
   -1.2822   -2.7830    0.2301 F   0  0  0  0  0  0  0  0  0  0  0  0
   -1.3261    1.3357    0.1278 C   0  0  0  0  0  0  0  0  0  0  0  0
    9.3130    4.3841   -5.1427 C   0  0  0  0  0  0  0  0  0  0  0  0
   -2.4778    0.6263   -0.1420 C   0  0  0  0  0  0  0  0  0  0  0  0
   -2.4498   -0.7645   -0.0606 C   0  0  0  0  0  0  0  0  0  0  0  0
  2  1  1  0
  3  1  2  0
  4  1  1  0
  5  3  1  0
  6  2  2  0
  7  4  1  0
  7  9  1  0
  8  2  1  0
  9  5  2  0
 10  8  1  0
 10 12  2  0
 11 14  1  0
 12  6  1  0
 13 10  1  0
 14 13  2  0
 15 23  1  0
 16  5  1  0
 17  4  2  0
 18  3  1  0
 19 11  1  0
 20 11  1  0
 21 12  1  0
 22 21  2  0
 22 14  1  0
 23 20  1  0
 24 19  1  0
 24 15  1  0
 25 16  1  0
 26  9  1  0
 27 15  1  0
 28 29  1  0
 28 26  2  0
 29 16  2  0
M  END
>  <DRUGBANK_ID>  (1) 
DB05928

>  <COMMON_NAME>  (1) 
Dovitinib

>  <CAS_NUMBER>  (1) 
405169-16-6

>  <UNII>  (1) 
I35H55G906

>  <SYNONYMS>  (1) 
Dovitinib

$$$$
