792
     RDKit          3D

 30 32  0  0  0  0  0  0  0  0999 V2000
   -6.4146   -3.0112    5.8494 C   0  0  0  0  0  0  0  0  0  0  0  0
   -5.3680   -3.0940    4.9597 C   0  0  0  0  0  0  0  0  0  0  0  0
   -4.7371   -2.0404    4.1921 C   0  0  0  0  0  0  0  0  0  0  0  0
   -5.3014   -0.8243    4.2943 C   0  0  0  0  0  0  0  0  0  0  0  0
   -6.2195   -0.6643    5.3091 C   0  0  0  0  0  0  0  0  0  0  0  0
   -6.7623   -1.7107    6.0778 C   0  0  0  0  0  0  0  0  0  0  0  0
   -3.9050   -5.9272    2.3231 S   0  0  0  0  0  0  0  0  0  0  0  0
   -5.9054   -4.8841    1.9638 C   0  0  0  0  0  0  0  0  0  0  0  0
   -6.2063   -3.3091    1.8127 C   0  0  0  0  0  0  0  0  0  0  0  0
   -7.1953   -2.5032    2.3773 C   0  0  0  0  0  0  0  0  0  0  0  0
   -8.1308   -3.2252    2.9604 C   0  0  0  0  0  0  0  0  0  0  0  0
   -8.0184   -4.6699    3.0611 C   0  0  0  0  0  0  0  0  0  0  0  0
   -6.9312   -5.5036    2.6182 C   0  0  0  0  0  0  0  0  0  0  0  0
   -9.1517   -2.3796    3.2414 O   0  0  0  0  0  0  0  0  0  0  0  0
  -10.3014   -3.0990    3.0758 C   0  0  0  0  0  0  0  0  0  0  0  0
  -10.3737   -4.0058    1.8580 C   0  0  0  0  0  0  0  0  0  0  0  0
  -10.4356   -4.7836    0.8134 C   0  0  0  0  0  0  0  0  0  0  0  0
  -10.5079   -5.6903   -0.4044 C   0  0  0  0  0  0  0  0  0  0  0  0
   -4.2079   -7.3654    2.0884 O   0  0  0  0  0  0  0  0  0  0  0  0
   -3.1685   -5.7089    3.5487 O   0  0  0  0  0  0  0  0  0  0  0  0
   -4.8963   -4.2170    4.4312 N   0  0  0  0  0  0  0  0  0  0  0  0
   -4.1935   -3.7166    3.4198 C   0  0  0  0  0  0  0  0  0  0  0  0
   -3.8941   -2.4617    3.1417 C   0  0  0  0  0  0  0  0  0  0  0  0
   -3.5787   -2.3488    1.5456 C   0  0  0  0  0  0  0  0  0  0  0  0
   -2.4335   -3.3384    1.2437 C   0  0  2  0  0  0  0  0  0  0  0  0
   -1.8170   -2.9108   -0.0932 C   0  0  0  0  0  0  0  0  0  0  0  0
   -2.9133   -5.0381    1.0828 N   0  0  0  0  0  0  0  0  0  0  0  0
   -1.8233   -1.5859   -0.3941 O   0  0  0  0  0  0  0  0  0  0  0  0
   -1.3405   -3.7097   -0.8891 O   0  0  0  0  0  0  0  0  0  0  0  0
   -6.5563    0.7432    5.5354 C   0  0  0  0  0  0  0  0  0  0  0  0
  1  2  2  0
  2 21  1  0
  3  2  1  0
  3 23  1  0
  4  3  2  0
  5  4  1  0
  5  6  2  0
  6  1  1  0
  7  8  1  0
  7 19  2  0
  8 13  1  0
  9  8  2  0
  9 10  1  0
 10 11  2  0
 11 14  1  0
 11 12  1  0
 13 12  2  0
 14 15  1  0
 15 16  1  0
 16 17  3  0
 17 18  1  0
 20  7  2  0
 22 21  1  0
 23 22  2  0
 24 23  1  0
 25 27  1  0
 25 26  1  0
 25 24  1  6
 26 28  1  0
 27  7  1  0
 29 26  2  0
 30  5  1  0
M  END
>  <DRUGBANK_ID>  (1) 
DB07233

>  <COMMON_NAME>  (1) 
N-{[4-(but-2-yn-1-yloxy)phenyl]sulfonyl}-5-methyl-D-tryptophan

$$$$
