
     RDKit          3D

 18 20  0  0  0  0  0  0  0  0999 V2000
    1.0391    0.0005    0.0698 C   0  0  0  0  0  0  0  0  0  0  0  0
    0.5182   -1.0838    0.9752 C   0  0  0  0  0  0  0  0  0  0  0  0
   -0.2195   -0.7797    1.9158 O   0  0  0  0  0  0  0  0  0  0  0  0
    0.7714   -2.4705    0.6246 C   0  0  0  0  0  0  0  0  0  0  0  0
    2.0144   -2.9451    0.2502 O   0  0  0  0  0  0  0  0  0  0  0  0
    1.8714   -4.3018    0.0592 C   0  0  0  0  0  0  0  0  0  0  0  0
    2.9391   -5.2035   -0.3178 C   0  0  0  0  0  0  0  0  0  0  0  0
    4.1148   -4.8940   -0.4828 O   0  0  0  0  0  0  0  0  0  0  0  0
    2.5003   -6.6369   -0.5108 C   0  0  0  0  0  0  0  0  0  0  0  0
    3.4325   -7.6160   -0.8916 C   0  0  0  0  0  0  0  0  0  0  0  0
    3.0289   -8.9449   -1.0833 C   0  0  0  0  0  0  0  0  0  0  0  0
    1.6964   -9.3111   -0.8979 C   0  0  0  0  0  0  0  0  0  0  0  0
    0.7604   -8.3508   -0.5182 C   0  0  0  0  0  0  0  0  0  0  0  0
    1.1551   -7.0170   -0.3222 C   0  0  0  0  0  0  0  0  0  0  0  0
    0.1162   -6.0300    0.0838 C   0  0  0  0  0  0  0  0  0  0  0  0
   -1.0535   -6.3615    0.2394 O   0  0  0  0  0  0  0  0  0  0  0  0
    0.5635   -4.6742    0.2638 C   0  0  0  0  0  0  0  0  0  0  0  0
   -0.1329   -3.5151    0.6495 C   0  0  0  0  0  0  0  0  0  0  0  0
  1  2  1  0
  2  3  2  0
  2  4  1  0
  4  5  1  0
  4 18  2  0
  5  6  1  0
  6  7  1  0
  6 17  2  0
  7  8  2  0
  7  9  1  0
  9 10  2  0
  9 14  1  0
 10 11  1  0
 11 12  2  0
 12 13  1  0
 13 14  2  0
 14 15  1  0
 15 16  2  0
 15 17  1  0
 17 18  1  0
M  END
>  <DRUGBANK_ID>  (1) 
DB12155

>  <COMMON_NAME>  (1) 
Napabucasin

>  <CAS_NUMBER>  (1) 
83280-65-3

>  <UNII>  (1) 
Z1HHM49K7O

>  <SYNONYMS>  (1) 
Napabucasin

$$$$
