
     RDKit          3D

 28 28  0  0  0  0  0  0  0  0999 V2000
    1.4453   -8.0448   -2.3353 C   0  0  2  0  0  0  0  0  0  0  0  0
    0.3641   -7.2456   -1.5707 C   0  0  2  0  0  0  0  0  0  0  0  0
    0.6848   -9.3084   -2.6063 C   0  0  0  0  0  0  0  0  0  0  0  0
    2.7883   -8.2532   -1.6213 C   0  0  0  0  0  0  0  0  0  0  0  0
   -0.9970   -7.8927   -1.8789 C   0  0  1  0  0  0  0  0  0  0  0  0
    0.2002   -5.8395   -2.0455 C   0  0  0  0  0  0  0  0  0  0  0  0
   -0.7558   -9.0174   -2.8575 C   0  0  0  0  0  0  0  0  0  0  0  0
    1.1848  -10.4289   -2.7122 O   0  0  0  0  0  0  0  0  0  0  0  0
   -1.6114   -8.3270   -0.6735 O   0  0  0  0  0  0  0  0  0  0  0  0
    1.2080   -5.0901   -2.4639 C   0  0  0  0  0  0  0  0  0  0  0  0
    1.3770   -3.6643   -2.7733 C   0  0  2  0  0  0  0  0  0  0  0  0
    0.7418   -2.8183   -1.6502 C   0  0  0  0  0  0  0  0  0  0  0  0
    1.3577   -1.3972   -1.7422 C   0  0  0  0  0  0  0  0  0  0  0  0
    1.1310   -0.6471   -3.0643 C   0  0  0  0  0  0  0  0  0  0  0  0
   -0.3296   -0.3721   -3.4127 C   0  0  0  0  0  0  0  0  0  0  0  0
   -1.0708    0.2848   -2.2566 C   0  0  0  0  0  0  0  0  0  0  0  0
    3.9755   -7.7788   -2.4956 C   0  0  0  0  0  0  0  0  0  0  0  0
    4.1168   -6.2612   -2.6553 C   0  0  0  0  0  0  0  0  0  0  0  0
    4.1167   -5.5270   -1.2895 C   0  0  0  0  0  0  0  0  0  0  0  0
    5.3827   -5.8331   -0.5871 C   0  0  0  0  0  0  0  0  0  0  0  0
    6.2702   -4.8814   -0.2858 C   0  0  0  0  0  0  0  0  0  0  0  0
    7.5746   -5.2783    0.2555 C   0  0  0  0  0  0  0  0  0  0  0  0
    8.4486   -4.2891    0.5305 O   0  0  0  0  0  0  0  0  0  0  0  0
    0.8803   -3.4428   -4.0792 O   0  0  0  0  0  0  0  0  0  0  0  0
   -0.7984   -2.8470   -1.7415 C   0  0  0  0  0  0  0  0  0  0  0  0
    1.1106   -3.3823   -0.2447 C   0  0  0  0  0  0  0  0  0  0  0  0
    7.8710   -6.4668    0.4305 O   0  0  0  0  0  0  0  0  0  0  0  0
    8.1333   -2.9046    0.3267 C   0  0  0  0  0  0  0  0  0  0  0  0
  1  2  1  0
  1  3  1  0
  1  4  1  1
  2  5  1  0
  2  6  1  6
  3  7  1  0
  3  8  2  0
  4 17  1  0
  5  9  1  1
  5  7  1  0
  6 10  2  0
 11 24  1  6
 11 12  1  0
 11 10  1  0
 12 13  1  0
 12 25  1  0
 12 26  1  0
 13 14  1  0
 14 15  1  0
 15 16  1  0
 17 18  1  0
 18 19  1  0
 19 20  1  0
 20 21  2  0
 21 22  1  0
 22 23  1  0
 22 27  2  0
 23 28  1  0
M  END
>  <DRUGBANK_ID>  (1) 
DB08964

>  <COMMON_NAME>  (1) 
Gemeprost

>  <CAS_NUMBER>  (1) 
64318-79-2

>  <UNII>  (1) 
45KZB1FOLS

>  <SYNONYMS>  (1) 
16,16-Dimethyl-trans-delta-2-PGE1 methyl ester; 16,16-Dimethyl-trans-delta(sup 2)-prostaglandin E1 methyl ester; Gemeprost; SC-37681

$$$$
