
     RDKit          3D

 12 11  0  0  1  0  0  0  0  0999 V2000
    0.8484   -0.9079    2.4927 C   0  0  0  0  0  0  0  0  0  0  0  0
    2.5496    0.3370    0.4917 C   0  0  0  0  0  0  0  0  0  0  0  0
    0.4764   -1.0685    1.0113 C   0  0  2  0  0  0  0  0  0  0  0  0
    0.2343    0.3335    3.1436 C   0  0  1  0  0  0  0  0  0  0  0  0
    1.1036    0.0050    0.0800 C   0  0  2  0  0  0  0  0  0  0  0  0
    0.8063    0.5312    4.5354 C   0  0  0  0  0  0  0  0  0  0  0  0
    3.3635   -0.8396    0.4447 O   0  0  0  0  0  0  0  0  0  0  0  0
   -0.9501   -1.1069    0.9043 O   0  0  0  0  0  0  0  0  0  0  0  0
    0.4486    1.4974    2.3442 O   0  0  0  0  0  0  0  0  0  0  0  0
    1.1237   -0.4906   -1.2681 O   0  0  0  0  0  0  0  0  0  0  0  0
    1.4317    1.5164    4.9104 O   0  0  0  0  0  0  0  0  0  0  0  0
    0.5812   -0.5110    5.3517 O   0  0  0  0  0  0  0  0  0  0  0  0
  3  8  1  1
  3  5  1  0
  3  1  1  0
  4  1  1  0
  4  9  1  6
  5  2  1  0
  5 10  1  6
  6  4  1  0
  7  2  1  0
 11  6  2  0
 12  6  1  0
M  END
>  <DRUGBANK_ID>  (1) 
DB02807

>  <SECONDARY_ACCESSION_NUMBERS>  (1) 
EXPT02819

>  <COMMON_NAME>  (1) 
3-deoxy-D-lyxo-hexonic acid

>  <SYNONYMS>  (1) 
D-2-keto-3-deoxygalactonate

$$$$
