805
     RDKit          3D

 22 24  0  0  0  0  0  0  0  0999 V2000
    1.3571    0.3004    0.8809 O   0  0  0  0  0  0  0  0  0  0  0  0
   -1.3637    0.1139   -0.2299 N   0  0  0  0  0  0  0  0  0  0  0  0
   -0.0179   -1.6096   -2.4759 N   0  0  0  0  0  0  0  0  0  0  0  0
    1.7333   -1.8767   -4.0570 N   0  0  0  0  0  0  0  0  0  0  0  0
    2.4853   -2.7455   -4.7665 N   0  0  0  0  0  0  0  0  0  0  0  0
   -0.7418    1.3528    0.2821 C   0  0  0  0  0  0  0  0  0  0  0  0
   -0.6758   -1.0298    0.3975 C   0  0  0  0  0  0  0  0  0  0  0  0
   -1.5260    0.0657   -1.7110 C   0  0  0  0  0  0  0  0  0  0  0  0
    0.7874    1.4057    0.1543 C   0  0  0  0  0  0  0  0  0  0  0  0
    0.8760   -0.9087    0.2960 C   0  0  0  0  0  0  0  0  0  0  0  0
   -0.3189   -0.2204   -2.6637 C   0  0  0  0  0  0  0  0  0  0  0  0
    0.9905   -2.3570   -3.0505 C   0  0  0  0  0  0  0  0  0  0  0  0
    1.0263   -3.6880   -2.6181 C   0  0  0  0  0  0  0  0  0  0  0  0
    1.7377   -4.5789   -3.3907 C   0  0  0  0  0  0  0  0  0  0  0  0
    2.4193   -4.0662   -4.4699 C   0  0  0  0  0  0  0  0  0  0  0  0
    0.2800   -4.1800   -1.4077 C   0  0  0  0  0  0  0  0  0  0  0  0
    3.0079   -4.9549   -5.4498 C   0  0  0  0  0  0  0  0  0  0  0  0
    4.3729   -4.8944   -5.7214 C   0  0  0  0  0  0  0  0  0  0  0  0
    2.1848   -5.8399   -6.1616 C   0  0  0  0  0  0  0  0  0  0  0  0
    4.8862   -5.6035   -6.7995 C   0  0  0  0  0  0  0  0  0  0  0  0
    2.7203   -6.6219   -7.1751 C   0  0  0  0  0  0  0  0  0  0  0  0
    4.0557   -6.4528   -7.5315 C   0  0  0  0  0  0  0  0  0  0  0  0
  1  9  1  0
  1 10  1  0
  2  6  1  0
  2  7  1  0
  2  8  1  0
  3 11  1  0
  3 12  1  0
  4  5  2  0
  4 12  1  0
  5 15  1  0
  6  9  1  0
  7 10  1  0
  8 11  1  0
 12 13  2  0
 13 14  1  0
 13 16  1  0
 14 15  2  0
 15 17  1  0
 17 18  2  0
 17 19  1  0
 18 20  1  0
 19 21  2  0
 20 22  2  0
 21 22  1  0
M  END
>  <DRUGBANK_ID>  (1) 
DB00805

>  <SECONDARY_ACCESSION_NUMBERS>  (1) 
APRD00735

>  <COMMON_NAME>  (1) 
Minaprine

>  <CAS_NUMBER>  (1) 
25905-77-5

>  <UNII>  (1) 
00U7GX0NLM

>  <SYNONYMS>  (1) 
4-(2-((4-Methyl-6-phenyl-3-pyridazinyl)amino)ethyl)morpholine; 4-Methyl-3-(2-morpholinoethylamino)-6-phenylpyridazin; Minaprina; Minaprine; Minaprinum; N-(4-Methyl-6-phenyl-3-pyridazinyl)-4-morpholineethanamine

$$$$
