
     RDKit          3D

 24 27  0  0  0  0  0  0  0  0999 V2000
    2.2438   -0.7946   -0.7609 C   0  0  0  0  0  0  0  0  0  0  0  0
    2.2312    0.6223   -0.8045 C   0  0  0  0  0  0  0  0  0  0  0  0
    1.1303    1.3889   -0.3745 C   0  0  0  0  0  0  0  0  0  0  0  0
   -0.0700    0.6603   -0.1867 C   0  0  0  0  0  0  0  0  0  0  0  0
   -0.0838   -0.7850   -0.1565 C   0  0  0  0  0  0  0  0  0  0  0  0
    1.1262   -1.4994   -0.3245 C   0  0  0  0  0  0  0  0  0  0  0  0
   -1.2825    1.3536   -0.0445 C   0  0  0  0  0  0  0  0  0  0  0  0
   -2.4934    0.6779    0.0191 C   0  0  0  0  0  0  0  0  0  0  0  0
   -2.5107   -0.7069    0.0455 C   0  0  0  0  0  0  0  0  0  0  0  0
   -1.3201   -1.4273    0.0283 C   0  0  0  0  0  0  0  0  0  0  0  0
    1.2366   -2.9127   -0.0972 N   0  0  0  0  0  0  0  0  0  0  0  0
    1.8669   -3.6419    0.9201 C   0  0  0  0  0  0  0  0  0  0  0  0
    1.6993   -4.9326    0.7046 N   0  0  0  0  0  0  0  0  0  0  0  0
    0.9898   -5.1010   -0.4400 N   0  0  0  0  0  0  0  0  0  0  0  0
    0.7211   -3.9103   -0.9210 C   0  0  0  0  0  0  0  0  0  0  0  0
    2.6971   -3.2101    2.3802 S   0  0  0  0  0  0  0  0  0  0  0  0
    2.7205   -1.4610    2.5952 C   0  0  0  0  0  0  0  0  0  0  0  0
    3.7047   -0.7530    1.7069 C   0  0  0  0  0  0  0  0  0  0  0  0
    3.2765    0.5245    1.5529 O   0  0  0  0  0  0  0  0  0  0  0  0
    4.7242   -1.1662    1.2146 O   0  0  0  0  0  0  0  0  0  0  0  0
   -0.2030   -3.7109   -2.5386 Br  0  0  0  0  0  0  0  0  0  0  0  0
    1.2667    2.8880    0.0258 C   0  0  0  0  0  0  0  0  0  0  0  0
    1.8672    3.8897   -0.9234 C   0  0  0  0  0  0  0  0  0  0  0  0
    2.6062    3.5367    0.3374 C   0  0  0  0  0  0  0  0  0  0  0  0
  1  2  2  0
  1  6  1  0
  2  3  1  0
  3  4  2  0
  3 22  1  0
  4  5  1  0
  4  7  1  0
  5  6  2  0
  5 10  1  0
  6 11  1  0
  7  8  2  0
  8  9  1  0
  9 10  2  0
 11 12  1  0
 11 15  1  0
 12 13  2  0
 12 16  1  0
 13 14  1  0
 14 15  2  0
 15 21  1  0
 16 17  1  0
 17 18  1  0
 18 19  1  0
 18 20  2  0
 22 23  1  0
 22 24  1  0
 23 24  1  0
M  END
>  <DRUGBANK_ID>  (1) 
DB11560

>  <COMMON_NAME>  (1) 
Lesinurad

>  <CAS_NUMBER>  (1) 
878672-00-5

>  <UNII>  (1) 
09ERP08I3W

>  <SYNONYMS>  (1) 
{[5-bromo-4-(4-cyclopropylnaphthalen-1-yl)-4H-1,2,4-triazol-3-yl]sulfanyl}acetic acid; Lesinurad

$$$$
