
     RDKit          3D

 11 11  0  0  0  0  0  0  0  0999 V2000
    1.3777   -0.1955    0.0355 C   0  0  0  0  0  0  0  0  0  0  0  0
    0.5101   -1.2954    0.0151 C   0  0  0  0  0  0  0  0  0  0  0  0
    0.8168    1.0868   -0.0038 C   0  0  0  0  0  0  0  0  0  0  0  0
    2.8256   -0.4338    0.1531 C   0  0  0  0  0  0  0  0  0  0  0  0
   -0.8782   -1.1157   -0.0247 C   0  0  0  0  0  0  0  0  0  0  0  0
   -0.5676    1.2663   -0.0002 C   0  0  0  0  0  0  0  0  0  0  0  0
    3.7613    0.5305    0.2264 C   0  0  0  0  0  0  0  0  0  0  0  0
   -1.4223    0.1678   -0.0377 C   0  0  0  0  0  0  0  0  0  0  0  0
    5.2175    0.2712    0.4043 C   0  0  0  0  0  0  0  0  0  0  0  0
   -2.7533    0.4743   -0.0948 O   0  0  0  0  0  0  0  0  0  0  0  0
   -3.6393   -0.6200   -0.2935 C   0  0  0  0  0  0  0  0  0  0  0  0
  1  2  2  0
  1  3  1  0
  1  4  1  0
  2  5  1  0
  3  6  2  0
  4  7  2  0
  5  8  2  0
  6  8  1  0
  7  9  1  0
  8 10  1  0
 10 11  1  0
M  END
>  <DRUGBANK_ID>  (1) 
DB15916

>  <COMMON_NAME>  (1) 
Anethole

>  <CAS_NUMBER>  (1) 
4180-23-8

>  <UNII>  (1) 
Q3JEK5DO4K

>  <SYNONYMS>  (1) 
(E)-Anethole; Anise camphor; Isoestragole; trans-Anethole

$$$$
