
     RDKit          3D

 34 38  0  0  1  0  0  0  0  0999 V2000
   -0.9816    1.4022    0.4331 C   0  0  1  0  0  0  0  0  0  0  0  0
   -1.5656    2.0620   -0.9686 C   0  0  2  0  0  0  0  0  0  0  0  0
   -0.7923    1.6545   -2.1084 O   0  0  0  0  0  0  0  0  0  0  0  0
   -1.4879    0.5624   -2.7931 C   0  0  0  0  0  0  0  0  0  0  0  0
   -1.8717    3.4661   -0.5618 C   0  0  1  0  0  0  0  0  0  0  0  0
   -3.0957    3.2595    0.4610 C   0  0  0  0  0  0  0  0  0  0  0  0
   -2.7039    2.8164    1.8598 C   0  0  0  0  0  0  0  0  0  0  0  0
   -2.0194    1.5299    1.6945 C   0  0  2  0  0  0  0  0  0  0  0  0
   -1.8654    0.5757    2.8625 C   0  0  0  0  0  0  0  0  0  0  0  0
   -2.9725    0.4897    1.9609 O   0  0  0  0  0  0  0  0  0  0  0  0
   -0.5665    3.8732   -0.1204 O   0  0  0  0  0  0  0  0  0  0  0  0
   -0.1830    5.0889   -0.5834 C   0  0  0  0  0  0  0  0  0  0  0  0
    0.8535    5.3107   -1.1281 O   0  0  0  0  0  0  0  0  0  0  0  0
   -1.1803    5.9512   -0.2092 N   0  0  0  0  0  0  0  0  0  0  0  0
   -1.8900    5.8242    1.0478 C   0  0  0  0  0  0  0  0  0  0  0  0
   -1.5244    7.2799    1.2582 C   0  0  0  0  0  0  0  0  0  0  0  0
   -2.3899    8.1925    2.1135 C   0  0  0  0  0  0  0  0  0  0  0  0
   -2.3668    7.8468    3.6274 C   0  0  0  0  0  0  0  0  0  0  0  0
   -1.0822    7.9475    4.3923 N   0  0  0  0  0  0  0  0  0  0  0  0
    0.1227    7.3729    3.7454 C   0  0  0  0  0  0  0  0  0  0  0  0
   -0.1154    5.8698    3.5262 C   0  0  0  0  0  0  0  0  0  0  0  0
   -0.2153    5.1413    4.7496 O   0  0  0  0  0  0  0  0  0  0  0  0
   -1.3377    5.6677    5.4886 C   0  0  0  0  0  0  0  0  0  0  0  0
   -1.1797    7.1950    5.6770 C   0  0  0  0  0  0  0  0  0  0  0  0
   -1.3569    7.3682   -0.2603 C   0  0  0  0  0  0  0  0  0  0  0  0
   -0.7236   -0.0126    0.1095 C   0  0  1  0  0  0  0  0  0  0  0  0
   -2.0583   -0.5147   -0.2457 C   0  0  0  0  0  0  0  0  0  0  0  0
    0.3685   -0.3877   -0.7463 O   0  0  0  0  0  0  0  0  0  0  0  0
    0.4738   -0.8977    0.5721 C   0  0  2  0  0  0  0  0  0  0  0  0
    0.1796   -2.3583    0.7893 C   0  0  0  0  0  0  0  0  0  0  0  0
   -0.5982   -2.4779    2.0762 C   0  0  0  0  0  0  0  0  0  0  0  0
   -1.9328   -2.6707    2.1473 C   0  0  0  0  0  0  0  0  0  0  0  0
   -2.6954   -2.3257    3.4060 C   0  0  0  0  0  0  0  0  0  0  0  0
   -2.7750   -3.0575    0.9488 C   0  0  0  0  0  0  0  0  0  0  0  0
  1  2  1  0
  1  8  1  1
  2  5  1  0
  2  3  1  6
  3  4  1  0
  5  6  1  0
  5 11  1  1
  6  7  1  0
  8  7  1  1
  8  9  1  0
  8 10  1  0
  9 10  1  0
 11 12  1  0
 12 13  2  0
 12 14  1  0
 14 15  1  0
 14 25  1  0
 15 16  1  0
 16 17  1  0
 16 25  1  0
 17 18  1  0
 18 19  1  0
 19 20  1  0
 19 24  1  0
 20 21  1  0
 21 22  1  0
 22 23  1  0
 23 24  1  0
 26 28  1  0
 26 29  1  0
 26  1  1  0
 26 27  1  6
 29 28  1  0
 29 30  1  6
 30 31  1  0
 31 32  2  3
 32 33  1  0
 32 34  1  0
M  END
>  <DRUGBANK_ID>  (1) 
DB16079

>  <COMMON_NAME>  (1) 
Aclimostat

>  <CAS_NUMBER>  (1) 
2082752-83-6

>  <UNII>  (1) 
X150A3JK8R

>  <SYNONYMS>  (1) 
Aclimostat

$$$$
