
     RDKit          3D

 23 24  0  0  0  0  0  0  0  0999 V2000
    0.8175   -0.0168   -0.0281 C   0  0  0  0  0  0  0  0  0  0  0  0
    0.1536   -1.1697    0.0558 N   0  0  0  0  0  0  0  0  0  0  0  0
    0.2105    1.0927    0.0229 O   0  0  0  0  0  0  0  0  0  0  0  0
    2.2221   -0.1648   -0.2642 C   0  0  0  0  0  0  0  0  0  0  0  0
    3.0338   -1.7190   -0.2747 S   0  0  0  0  0  0  0  0  0  0  0  0
    3.0616    0.8706   -0.5109 C   0  0  0  0  0  0  0  0  0  0  0  0
    4.5862   -1.0807   -0.7004 C   0  0  0  0  0  0  0  0  0  0  0  0
    4.3123    0.3472   -0.9765 C   0  0  0  0  0  0  0  0  0  0  0  0
    6.1984   -1.9636   -0.4263 C   0  0  0  0  0  0  0  0  0  0  0  0
    7.1998   -1.8749    0.8126 N   0  0  0  0  0  0  0  0  0  0  0  0
    6.9823   -2.2499   -1.5084 C   0  0  0  0  0  0  0  0  0  0  0  0
    8.4881   -1.8081    0.5126 C   0  0  0  0  0  0  0  0  0  0  0  0
    8.6932   -2.3455   -1.1327 S   0  0  0  0  0  0  0  0  0  0  0  0
    9.9094   -1.3586    1.5987 S   0  0  0  0  0  0  0  0  0  0  0  0
    9.4964   -0.2394    3.0825 C   0  0  0  0  0  0  0  0  0  0  0  0
    9.1996    1.2595    2.8368 C   0  0  0  0  0  0  0  0  0  0  0  0
    7.9798    1.3607    2.0219 C   0  0  0  0  0  0  0  0  0  0  0  0
    8.8944    1.9801    4.0284 O   0  0  0  0  0  0  0  0  0  0  0  0
    6.8057    0.8066    2.8059 N   0  0  0  0  0  0  0  0  0  0  0  0
    5.5564    0.8980    2.0176 C   0  0  0  0  0  0  0  0  0  0  0  0
    6.0703    0.2198    0.8546 C   0  0  0  0  0  0  0  0  0  0  0  0
    4.4151    0.0275    2.6609 C   0  0  0  0  0  0  0  0  0  0  0  0
    5.1607    2.2774    1.6074 C   0  0  0  0  0  0  0  0  0  0  0  0
  1  2  1  0
  1  3  2  0
  1  4  1  0
  4  5  1  0
  4  6  2  0
  5  7  1  0
  6  8  1  0
  7  8  2  0
  7  9  1  0
  9 10  1  0
  9 11  2  0
 10 12  2  0
 11 13  1  0
 12 13  1  0
 12 14  1  0
 14 15  1  0
 16 15  1  0
 16 17  1  0
 16 18  1  0
 17 19  1  0
 19 20  1  0
 20 21  1  0
 20 22  1  0
 20 23  1  0
M  END
>  <DRUGBANK_ID>  (1) 
DB09204

>  <COMMON_NAME>  (1) 
Arotinolol

>  <CAS_NUMBER>  (1) 
68377-92-4

>  <UNII>  (1) 
394E3P3B99

>  <SYNONYMS>  (1) 
Arotinolol

$$$$
