
     RDKit          3D

 18 19  0  0  0  0  0  0  0  0999 V2000
    1.3551    0.1769   -0.0773 C   0  0  0  0  0  0  0  0  0  0  0  0
    0.7794   -0.4821   -1.2874 N   0  0  0  0  0  0  0  0  0  0  0  0
    0.1789    0.2589   -2.2796 C   0  0  0  0  0  0  0  0  0  0  0  0
   -0.0804    1.6399   -2.1651 C   0  0  0  0  0  0  0  0  0  0  0  0
   -0.6694    2.3921   -3.1877 C   0  0  0  0  0  0  0  0  0  0  0  0
   -0.9761    1.7601   -4.3847 C   0  0  0  0  0  0  0  0  0  0  0  0
   -0.7737    0.3852   -4.5310 C   0  0  0  0  0  0  0  0  0  0  0  0
   -0.2082   -0.3721   -3.4876 C   0  0  0  0  0  0  0  0  0  0  0  0
   -0.0393   -1.7478   -3.6372 C   0  0  0  0  0  0  0  0  0  0  0  0
    0.4724   -2.4981   -2.5801 C   0  0  0  0  0  0  0  0  0  0  0  0
    0.8549   -1.8517   -1.3838 C   0  0  0  0  0  0  0  0  0  0  0  0
    1.3161   -2.6586   -0.3235 C   0  0  0  0  0  0  0  0  0  0  0  0
    1.4223   -4.0475   -0.4202 C   0  0  0  0  0  0  0  0  0  0  0  0
    1.1022   -4.6518   -1.6283 C   0  0  0  0  0  0  0  0  0  0  0  0
    0.6052   -3.8947   -2.6943 C   0  0  0  0  0  0  0  0  0  0  0  0
    2.0832   -4.7516    0.5914 N   0  0  0  0  0  0  0  0  0  0  0  0
   -0.6979    3.7872   -3.0805 N   0  0  0  0  0  0  0  0  0  0  0  0
   -1.8825   -0.4328    0.6603 Cl  0  0  0  0  0  0  0  0  0  0  0  0
  1  2  1  0
  2  3  2  0
  2 11  1  0
  3  4  1  0
  3  8  1  0
  4  5  2  0
  5  6  1  0
  5 17  1  0
  6  7  2  0
  7  8  1  0
  8  9  2  0
  9 10  1  0
 10 11  2  0
 10 15  1  0
 11 12  1  0
 12 13  2  0
 13 14  1  0
 13 16  1  0
 14 15  2  0
M  CHG  2   2   1  18  -1
M  END
>  <DRUGBANK_ID>  (1) 
DB13326

>  <COMMON_NAME>  (1) 
Euflavine

>  <CAS_NUMBER>  (1) 
86-40-8

>  <UNII>  (1) 
1TW3Q60E36

>  <SYNONYMS>  (1) 
3,6-diamino-10-methylacridinium chloride

$$$$
