APJ
     RDKit          3D

 25 29  0  0  0  0  0  0  0  0999 V2000
    1.2307    0.5395   -0.0051 N   0  0  0  0  0  0  0  0  0  0  0  0
   -1.1135    0.7411    0.0115 N   0  0  0  0  0  0  0  0  0  0  0  0
    2.3512   -1.5501   -0.2007 N   0  0  0  0  0  0  0  0  0  0  0  0
    4.5862   -1.1054   -0.8870 N   0  0  0  0  0  0  0  0  0  0  0  0
    5.6754   -0.3602   -0.5946 N   0  0  0  0  0  0  0  0  0  0  0  0
    0.2310    2.6677    0.0004 N   0  0  0  0  0  0  0  0  0  0  0  0
    5.0942    5.2290    0.3168 N   0  0  0  0  0  0  0  0  0  0  0  0
    3.6755    5.6311    1.9738 N   0  0  0  0  0  0  0  0  0  0  0  0
    0.1123    1.2788   -0.0000 C   0  0  0  0  0  0  0  0  0  0  0  0
    1.1616   -0.7967   -0.0110 C   0  0  0  0  0  0  0  0  0  0  0  0
   -0.0636   -1.4267   -0.0090 C   0  0  0  0  0  0  0  0  0  0  0  0
   -1.1705   -0.6041    0.0021 C   0  0  0  0  0  0  0  0  0  0  0  0
    3.5742   -0.9862    0.0276 C   0  0  0  0  0  0  0  0  0  0  0  0
    5.3596    0.2005    0.5777 C   0  0  0  0  0  0  0  0  0  0  0  0
    4.0698   -0.1742    1.0133 C   0  0  0  0  0  0  0  0  0  0  0  0
    6.2646    1.2117    1.2740 C   0  0  0  0  0  0  0  0  0  0  0  0
    6.7910    0.9948    2.6762 C   0  0  0  0  0  0  0  0  0  0  0  0
    5.6805    1.9645    2.4591 C   0  0  0  0  0  0  0  0  0  0  0  0
    1.4398    3.3813   -0.0205 C   0  0  0  0  0  0  0  0  0  0  0  0
    1.7962    4.2295    1.0395 C   0  0  0  0  0  0  0  0  0  0  0  0
    3.0795    4.8062    1.0458 C   0  0  0  0  0  0  0  0  0  0  0  0
    3.9530    4.5421   -0.0039 C   0  0  0  0  0  0  0  0  0  0  0  0
    3.6306    3.7271   -1.0833 C   0  0  0  0  0  0  0  0  0  0  0  0
    2.3605    3.1466   -1.0567 C   0  0  0  0  0  0  0  0  0  0  0  0
    4.8784    5.8713    1.5024 C   0  0  0  0  0  0  0  0  0  0  0  0
  1  9  2  0
  1 10  1  0
  2 12  2  0
  3 10  1  0
  4 13  1  0
  5  4  1  0
  6  9  1  0
  7 22  1  0
  8 21  1  0
  9  2  1  0
 10 11  2  0
 11 12  1  0
 13  3  1  0
 14  5  2  0
 14 15  1  0
 15 13  2  0
 16 14  1  0
 17 16  1  0
 18 16  1  0
 18 17  1  0
 19  6  1  0
 20 19  2  0
 21 20  1  0
 22 21  2  0
 22 23  1  0
 23 24  2  0
 24 19  1  0
 25  7  1  0
 25  8  2  0
M  END
>  <DRUGBANK_ID>  (1) 
DB07382

>  <COMMON_NAME>  (1) 
N~2~-1H-benzimidazol-5-yl-N~4~-(3-cyclopropyl-1H-pyrazol-5-yl)pyrimidine-2,4-diamine

$$$$
