
     RDKit          3D

 21 22  0  0  0  0  0  0  0  0999 V2000
    1.1033    0.0214    0.4293 O   0  0  0  0  0  0  0  0  0  0  0  0
    2.0896   -2.1381   -1.8180 N   0  0  0  0  0  0  0  0  0  0  0  0
    0.7052   -1.8693   -1.3953 C   0  0  0  0  0  0  0  0  0  0  0  0
    2.3258   -3.1162   -2.8702 C   0  0  0  0  0  0  0  0  0  0  0  0
    2.8535   -0.9263   -2.1098 C   0  0  0  0  0  0  0  0  0  0  0  0
    0.4622   -1.2140    0.0344 C   0  0  0  0  0  0  0  0  0  0  0  0
    2.0212   -2.5340   -4.2370 C   0  0  0  0  0  0  0  0  0  0  0  0
    2.4592    0.2486   -2.9782 C   0  0  0  0  0  0  0  0  0  0  0  0
    5.2317    0.1180    0.0672 C   0  0  0  0  0  0  0  0  0  0  0  0
    6.7130    0.0994   -0.3053 C   0  0  0  0  0  0  0  0  0  0  0  0
    2.4552    0.0307    0.7522 C   0  0  0  0  0  0  0  0  0  0  0  0
    7.1673    0.7706   -1.5891 C   0  0  0  0  0  0  0  0  0  0  0  0
    4.6059   -1.0830    0.4497 C   0  0  0  0  0  0  0  0  0  0  0  0
    4.4428    1.2816    0.1022 C   0  0  0  0  0  0  0  0  0  0  0  0
    3.2471   -1.1256    0.8447 C   0  0  0  0  0  0  0  0  0  0  0  0
    3.0813    1.2528    0.4598 C   0  0  0  0  0  0  0  0  0  0  0  0
    6.9769    2.1385   -1.7810 C   0  0  0  0  0  0  0  0  0  0  0  0
    7.9081    0.0751   -2.5717 C   0  0  0  0  0  0  0  0  0  0  0  0
    7.3565    2.7898   -2.9463 C   0  0  0  0  0  0  0  0  0  0  0  0
    8.3891    0.7527   -3.6992 C   0  0  0  0  0  0  0  0  0  0  0  0
    8.0798    2.0887   -3.9144 C   0  0  0  0  0  0  0  0  0  0  0  0
  1  6  1  0
  1 11  1  0
  2  3  1  0
  2  4  1  0
  2  5  1  0
  3  6  1  0
  4  7  1  0
  5  8  1  0
  9 10  1  0
  9 13  2  0
  9 14  1  0
 10 12  1  0
 11 15  2  0
 11 16  1  0
 12 17  2  0
 12 18  1  0
 13 15  1  0
 14 16  2  0
 17 19  1  0
 18 20  2  0
 19 21  2  0
 20 21  1  0
M  END
>  <DRUGBANK_ID>  (1) 
DB04905

>  <COMMON_NAME>  (1) 
Tesmilifene

>  <CAS_NUMBER>  (1) 
98774-23-3

>  <UNII>  (1) 
I43T3ID6G2

>  <SYNONYMS>  (1) 
N,N-diethyl-2-((4-phenylmethyl)phenoxy)ethanamine; Tesmilifene

$$$$
