DFZ
     RDKit          3D

 25 28  0  0  0  0  0  0  0  0999 V2000
   -1.9099   -0.6720   -0.0220 C   0  0  0  0  0  0  0  0  0  0  0  0
    2.4755    0.0411    0.0540 C   0  0  0  0  0  0  0  0  0  0  0  0
    3.9196   -0.1308    0.0145 C   0  0  0  0  0  0  0  0  0  0  0  0
    4.5322   -0.7580   -1.0710 C   0  0  0  0  0  0  0  0  0  0  0  0
    5.9181   -0.6965   -1.2079 C   0  0  0  0  0  0  0  0  0  0  0  0
    6.6844    0.0113   -0.2788 C   0  0  0  0  0  0  0  0  0  0  0  0
    6.0735    0.6462    0.7984 C   0  0  0  0  0  0  0  0  0  0  0  0
    4.6996    0.5382    0.9679 C   0  0  0  0  0  0  0  0  0  0  0  0
    2.4193    3.4569    1.0556 C   0  0  0  0  0  0  0  0  0  0  0  0
    2.7010    4.8112    0.8098 C   0  0  0  0  0  0  0  0  0  0  0  0
    3.2094    5.2113   -0.4260 C   0  0  0  0  0  0  0  0  0  0  0  0
    3.4572    4.2569   -1.4107 C   0  0  0  0  0  0  0  0  0  0  0  0
   -0.7595   -1.3496   -0.0165 N   0  0  0  0  0  0  0  0  0  0  0  0
    0.3014   -0.5279    0.0324 C   0  0  0  0  0  0  0  0  0  0  0  0
    0.3160    0.8648    0.0628 C   0  0  0  0  0  0  0  0  0  0  0  0
   -1.3592    2.8153   -0.0027 N   0  0  0  0  0  0  0  0  0  0  0  0
   -0.9907    1.4741    0.0467 C   0  0  0  0  0  0  0  0  0  0  0  0
   -2.0756    0.6563    0.0278 N   0  0  0  0  0  0  0  0  0  0  0  0
    1.5857   -1.0030    0.0401 N   0  0  0  0  0  0  0  0  0  0  0  0
    3.1059    2.9171   -1.1976 C   0  0  0  0  0  0  0  0  0  0  0  0
    1.7525    1.2266    0.0714 C   0  0  0  0  0  0  0  0  0  0  0  0
    2.4923    2.5207    0.0031 C   0  0  0  0  0  0  0  0  0  0  0  0
   -0.2637    4.8115   -0.9587 C   0  0  0  0  0  0  0  0  0  0  0  0
   -0.3760    3.8341    0.1912 C   0  0  0  0  0  0  0  0  0  0  0  0
   -1.3943    5.6568   -0.9819 O   0  0  0  0  0  0  0  0  0  0  0  0
  1 13  2  0
  1 18  1  0
  2  3  1  0
  2 19  1  0
  2 21  2  0
  3  4  2  0
  3  8  1  0
  4  5  1  0
  5  6  2  0
  6  7  1  0
  7  8  2  0
  9 10  2  0
  9 22  1  0
 10 11  1  0
 11 12  2  0
 12 20  1  0
 13 14  1  0
 14 15  2  0
 14 19  1  0
 15 17  1  0
 15 21  1  0
 16 17  1  0
 16 24  1  0
 17 18  2  0
 20 22  2  0
 21 22  1  0
 23 24  1  0
 23 25  1  0
M  END
>  <DRUGBANK_ID>  (1) 
DB07655

>  <COMMON_NAME>  (1) 
3-AMINO-3-BENZYL-[4.3.0]BICYCLO-1,6-DIAZANONAN-2-ONE

$$$$
