
     RDKit          3D

  8  7  0  0  0  0  0  0  0  0999 V2000
    1.0873    0.0448   -0.0311 C   0  0  0  0  0  0  0  0  0  0  0  0
    0.6155   -0.3519    1.3808 C   0  0  0  0  0  0  0  0  0  0  0  0
    1.0872    0.7295    2.3715 C   0  0  0  0  0  0  0  0  0  0  0  0
   -0.8297   -0.2958    1.3648 O   0  0  0  0  0  0  0  0  0  0  0  0
    1.1086   -1.7956    1.7922 C   0  0  0  0  0  0  0  0  0  0  0  0
    0.5199   -3.0581    0.6437 Cl  0  0  0  0  0  0  0  0  0  0  0  0
    2.9109   -1.9068    1.8239 Cl  0  0  0  0  0  0  0  0  0  0  0  0
    0.5199   -2.2631    3.4338 Cl  0  0  0  0  0  0  0  0  0  0  0  0
  1  2  1  0
  2  3  1  0
  2  4  1  0
  2  5  1  0
  5  6  1  0
  5  7  1  0
  5  8  1  0
M  END
>  <DRUGBANK_ID>  (1) 
DB11386

>  <COMMON_NAME>  (1) 
Chlorobutanol

>  <CAS_NUMBER>  (1) 
57-15-8

>  <UNII>  (1) 
HM4YQM8WRC

>  <SYNONYMS>  (1) 
Chloretone; Chlorobutanol

$$$$
