CT7
     RDKit          3D

 21 23  0  0  0  0  0  0  0  0999 V2000
    1.0439   -0.1540   -0.1297 O   0  0  0  0  0  0  0  0  0  0  0  0
    2.4835   -0.0395   -0.0410 S   0  0  0  0  0  0  0  0  0  0  0  0
    3.1003    0.9236    0.8585 O   0  0  0  0  0  0  0  0  0  0  0  0
    3.0899   -1.6525    0.4097 C   0  0  0  0  0  0  0  0  0  0  0  0
    3.8660   -1.8307    1.5594 C   0  0  0  0  0  0  0  0  0  0  0  0
    2.6213   -2.7578   -0.2906 C   0  0  0  0  0  0  0  0  0  0  0  0
    2.8767   -4.0361    0.2068 C   0  0  0  0  0  0  0  0  0  0  0  0
    4.1757   -3.1293    2.0064 C   0  0  0  0  0  0  0  0  0  0  0  0
    3.6887   -4.2581    1.3317 C   0  0  0  0  0  0  0  0  0  0  0  0
    4.0640   -5.5611    1.7264 N   0  0  0  0  0  0  0  0  0  0  0  0
    3.7156   -6.7471    1.0775 C   0  0  0  0  0  0  0  0  0  0  0  0
    3.1009   -7.8003    1.8077 N   0  0  0  0  0  0  0  0  0  0  0  0
    2.7255   -8.9913    1.1589 C   0  0  0  0  0  0  0  0  0  0  0  0
    2.9381   -9.2051   -0.1748 N   0  0  0  0  0  0  0  0  0  0  0  0
    2.1848   -9.0325    3.2939 C   0  0  0  0  0  0  0  0  0  0  0  0
    2.7657   -7.8411    3.1307 N   0  0  0  0  0  0  0  0  0  0  0  0
    3.9416   -6.9482   -0.2354 C   0  0  0  0  0  0  0  0  0  0  0  0
    3.5110   -8.2389   -0.8255 C   0  0  0  0  0  0  0  0  0  0  0  0
    3.7780   -8.5020   -2.5105 Cl  0  0  0  0  0  0  0  0  0  0  0  0
    2.1485   -9.7913    2.1167 C   0  0  0  0  0  0  0  0  0  0  0  0
    3.1033    0.2846   -1.6684 C   0  0  0  0  0  0  0  0  0  0  0  0
  1  2  2  0
  2  3  2  0
  2  4  1  0
  2 21  1  0
  4  5  2  0
  4  6  1  0
  5  8  1  0
  6  7  2  0
  7  9  1  0
  8  9  2  0
  9 10  1  0
 10 11  1  0
 11 12  1  0
 11 17  2  0
 12 13  1  0
 12 16  1  0
 13 14  1  0
 13 20  2  0
 14 18  2  0
 15 16  2  0
 15 20  1  0
 17 18  1  0
 18 19  1  0
M  END
>  <DRUGBANK_ID>  (1) 
DB02963

>  <SECONDARY_ACCESSION_NUMBERS>  (1) 
EXPT01045

>  <COMMON_NAME>  (1) 
(5-Chloropyrazolo[1,5-a]Pyrimidin-7-Yl)-(4-Methanesulfonylphenyl)Amine

>  <UNII>  (1) 
XNE9CK2X79

$$$$
