
     RDKit          3D

 30 33  0  0  0  0  0  0  0  0999 V2000
    0.0273    0.7725    0.0583 C   0  0  0  0  0  0  0  0  0  0  0  0
   -1.2449    1.3913   -0.0227 C   0  0  0  0  0  0  0  0  0  0  0  0
    0.0169   -0.6109    0.0617 C   0  0  0  0  0  0  0  0  0  0  0  0
   -1.3741    2.7937   -0.0166 N   0  0  0  0  0  0  0  0  0  0  0  0
    1.2741    1.4559    0.1403 C   0  0  0  0  0  0  0  0  0  0  0  0
   -2.3743    0.6534   -0.0507 N   0  0  0  0  0  0  0  0  0  0  0  0
    1.2384   -1.2750    0.1131 C   0  0  0  0  0  0  0  0  0  0  0  0
    2.4763   -0.5945    0.2216 C   0  0  0  0  0  0  0  0  0  0  0  0
   -2.5881    3.5092   -0.0322 C   0  0  0  0  0  0  0  0  0  0  0  0
    2.5094    0.7966    0.2941 C   0  0  0  0  0  0  0  0  0  0  0  0
   -3.5361    3.3428    0.9886 C   0  0  0  0  0  0  0  0  0  0  0  0
   -1.0973   -1.3508    0.0128 N   0  0  0  0  0  0  0  0  0  0  0  0
    5.4791   -1.9573   -3.4538 N   0  0  0  0  0  0  0  0  0  0  0  0
   -4.7621    3.9994    0.9661 C   0  0  0  0  0  0  0  0  0  0  0  0
   -2.2484   -0.6692   -0.0124 C   0  0  0  0  0  0  0  0  0  0  0  0
    3.4753   -1.5090    0.0756 O   0  0  0  0  0  0  0  0  0  0  0  0
   -2.9117    4.3551   -1.1033 C   0  0  0  0  0  0  0  0  0  0  0  0
   -5.0709    4.8218   -0.1103 C   0  0  0  0  0  0  0  0  0  0  0  0
    4.1126   -1.7582   -2.9410 C   0  0  0  0  0  0  0  0  0  0  0  0
    6.5669   -1.5909   -2.5237 C   0  0  0  0  0  0  0  0  0  0  0  0
   -3.2470    2.5774    2.0530 F   0  0  0  0  0  0  0  0  0  0  0  0
    4.7874   -1.0560   -0.1588 C   0  0  0  0  0  0  0  0  0  0  0  0
   -4.1545    5.0038   -1.1467 C   0  0  0  0  0  0  0  0  0  0  0  0
    3.5090    1.7291    0.3530 O   0  0  0  0  0  0  0  0  0  0  0  0
   -6.7480    5.6921   -0.1673 Br  0  0  0  0  0  0  0  0  0  0  0  0
    4.9737   -0.0770   -1.4364 C   0  0  0  0  0  0  0  0  0  0  0  0
    6.3912   -0.1850   -1.9882 C   0  0  0  0  0  0  0  0  0  0  0  0
    3.9422   -0.3289   -2.5260 C   0  0  0  0  0  0  0  0  0  0  0  0
    5.6042   -3.3675   -3.7768 C   0  0  0  0  0  0  0  0  0  0  0  0
    4.7897    1.5868    0.9465 C   0  0  0  0  0  0  0  0  0  0  0  0
  1  2  1  0
  1  3  1  0
  1  5  2  0
  2  4  1  0
  2  6  2  0
  3  7  2  0
  3 12  1  0
  4  9  1  0
  5 10  1  0
  6 15  1  0
  7  8  1  0
  8 10  2  0
  8 16  1  0
  9 11  2  0
  9 17  1  0
 10 24  1  0
 11 14  1  0
 11 21  1  0
 12 15  2  0
 13 19  1  0
 13 29  1  0
 13 20  1  0
 14 18  2  0
 16 22  1  0
 17 23  2  0
 18 23  1  0
 18 25  1  0
 19 28  1  0
 20 27  1  0
 22 26  1  0
 24 30  1  0
 26 27  1  0
 26 28  1  0
M  END
>  <DRUGBANK_ID>  (1) 
DB05294

>  <SECONDARY_ACCESSION_NUMBERS>  (1) 
DB08764

>  <COMMON_NAME>  (1) 
Vandetanib

>  <CAS_NUMBER>  (1) 
443913-73-3

>  <UNII>  (1) 
YO460OQ37K

>  <SYNONYMS>  (1) 
N-(4-Bromo-2-fluorophenyl)-6-methoxy-7-((1-methyl-4-piperidinyl)methoxy)-4-quinazolinamine; N-(4-Bromo-2-fluorophenyl)-6-methoxy-7-((1-methylpiperidin-4-yl)methoxy)quinazolin-4-amine; Vandetanib

$$$$
