
     RDKit          3D

 12 12  0  0  0  0  0  0  0  0999 V2000
    1.0368    0.0061    0.0595 N   0  0  0  0  0  0  0  0  0  0  0  0
    0.4070    1.3186   -0.1881 C   0  0  0  0  0  0  0  0  0  0  0  0
   -0.9437    1.3363   -0.2124 C   0  0  0  0  0  0  0  0  0  0  0  0
   -1.6900    2.5149   -0.5123 C   0  0  0  0  0  0  0  0  0  0  0  0
   -2.7961    2.9225    0.2040 O   0  0  0  0  0  0  0  0  0  0  0  0
   -3.2177    4.1138   -0.3038 C   0  0  0  0  0  0  0  0  0  0  0  0
   -4.6608    5.1001    0.3483 Br  0  0  0  0  0  0  0  0  0  0  0  0
   -2.4313    4.4863   -1.3634 C   0  0  0  0  0  0  0  0  0  0  0  0
   -1.4997    3.4418   -1.5323 C   0  0  0  0  0  0  0  0  0  0  0  0
    1.5231    2.8258   -0.4180 Br  0  0  0  0  0  0  0  0  0  0  0  0
    0.3108   -0.9843    0.2428 O   0  0  0  0  0  0  0  0  0  0  0  0
    2.2728   -0.0328    0.0529 O   0  0  0  0  0  0  0  0  0  0  0  0
  1  2  1  0
  1 11  1  0
  1 12  2  0
  2  3  2  0
  2 10  1  0
  3  4  1  0
  4  5  1  0
  4  9  2  0
  5  6  1  0
  6  7  1  0
  6  8  2  0
  8  9  1  0
M  CHG  2   1   1  11  -1
M  END
>  <DRUGBANK_ID>  (1) 
DB16547

>  <COMMON_NAME>  (1) 
Furvina

>  <CAS_NUMBER>  (1) 
189935-72-6

>  <UNII>  (1) 
7HFX5XQO7N

>  <SYNONYMS>  (1) 
1-(5-Bromofur-2-yl)-2-bromo-2-nitroethene; 2-Bromo-5-(2-bromo-2-nitrovinyl)furan

$$$$
