
     RDKit          3D

 32 36  0  0  0  0  0  0  0  0999 V2000
   -2.3802   -1.5082   -0.0552 C   0  0  0  0  0  0  0  0  0  0  0  0
   -1.4958   -0.3693    0.0038 N   0  0  0  0  0  0  0  0  0  0  0  0
   -2.0026    0.8804    0.0163 N   0  0  0  0  0  0  0  0  0  0  0  0
   -0.9132    1.6543    0.0092 C   0  0  0  0  0  0  0  0  0  0  0  0
    0.2873    0.9101    0.0018 C   0  0  0  0  0  0  0  0  0  0  0  0
   -0.1238   -0.4173    0.0203 C   0  0  0  0  0  0  0  0  0  0  0  0
    0.7789   -1.4853    0.0381 C   0  0  0  0  0  0  0  0  0  0  0  0
    2.1440   -1.1706    0.0256 C   0  0  0  0  0  0  0  0  0  0  0  0
    2.6085    0.1537   -0.0223 C   0  0  0  0  0  0  0  0  0  0  0  0
    1.6635    1.2036   -0.0227 C   0  0  0  0  0  0  0  0  0  0  0  0
    4.0602    0.4563   -0.0565 C   0  0  0  0  0  0  0  0  0  0  0  0
    4.9212    0.0171   -1.1151 C   0  0  0  0  0  0  0  0  0  0  0  0
    4.3123   -0.7523   -2.0806 O   0  0  0  0  0  0  0  0  0  0  0  0
    4.9929   -1.3359   -3.1937 C   0  0  0  0  0  0  0  0  0  0  0  0
    6.0503   -2.4140   -2.8088 C   0  0  0  0  0  0  0  0  0  0  0  0
    7.0609   -2.2415   -3.9165 C   0  0  0  0  0  0  0  0  0  0  0  0
    6.8192   -1.0765   -4.6803 C   0  0  0  0  0  0  0  0  0  0  0  0
    5.6064   -0.3180   -4.1987 C   0  0  0  0  0  0  0  0  0  0  0  0
    7.7319   -0.6539   -5.6353 C   0  0  0  0  0  0  0  0  0  0  0  0
    8.8484   -1.4544   -5.8870 C   0  0  0  0  0  0  0  0  0  0  0  0
    9.0872   -2.6118   -5.1294 C   0  0  0  0  0  0  0  0  0  0  0  0
    8.2133   -2.9891   -4.1073 C   0  0  0  0  0  0  0  0  0  0  0  0
    6.2704    0.4145   -1.0837 C   0  0  0  0  0  0  0  0  0  0  0  0
    7.2677    0.2400   -2.0407 N   0  0  0  0  0  0  0  0  0  0  0  0
    6.6844    1.3032   -0.1162 C   0  0  0  0  0  0  0  0  0  0  0  0
    5.9403    1.6104    0.9962 C   0  0  0  0  0  0  0  0  0  0  0  0
    6.6831    2.3139    2.0901 C   0  0  0  0  0  0  0  0  0  0  0  0
    7.7920    1.4514    2.7394 C   0  0  0  0  0  0  0  0  0  0  0  0
    8.9285    0.9346    1.8582 C   0  0  0  0  0  0  0  0  0  0  0  0
   10.1151    1.5524    2.0151 O   0  0  0  0  0  0  0  0  0  0  0  0
    8.8311   -0.0033    1.0663 O   0  0  0  0  0  0  0  0  0  0  0  0
    4.6049    1.2254    1.0073 C   0  0  0  0  0  0  0  0  0  0  0  0
  1  2  1  0
  2  3  1  0
  2  6  1  0
  3  4  2  0
  4  5  1  0
  5  6  2  0
  5 10  1  0
  6  7  1  0
  7  8  2  0
  8  9  1  0
  9 10  2  0
  9 11  1  0
 11 12  1  0
 11 32  2  0
 12 13  1  0
 12 23  2  0
 13 14  1  0
 14 15  1  0
 14 18  1  0
 15 16  1  0
 16 17  2  0
 16 22  1  0
 17 18  1  0
 17 19  1  0
 19 20  2  0
 20 21  1  0
 21 22  2  0
 23 24  1  0
 23 25  1  0
 25 26  2  0
 26 27  1  0
 26 32  1  0
 27 28  1  0
 28 29  1  0
 29 30  1  0
 29 31  2  0
M  END
>  <DRUGBANK_ID>  (1) 
DB16058

>  <COMMON_NAME>  (1) 
AK106-001616

>  <CAS_NUMBER>  (1) 
590416-75-4

>  <UNII>  (1) 
I2CST2BV1Q

$$$$
