
     RDKit          3D

 43 45  0  0  0  0  0  0  0  0999 V2000
    3.6087    1.3873    1.8282 C   0  0  0  0  0  0  0  0  0  0  0  0
    4.4026    3.4084    0.7318 N   0  0  0  0  0  0  0  0  0  0  0  0
    4.3465    2.0983    0.7589 C   0  0  0  0  0  0  0  0  0  0  0  0
    4.9789    1.5801   -0.3595 N   0  0  0  0  0  0  0  0  0  0  0  0
    5.3583    2.6236   -1.1539 C   0  0  0  0  0  0  0  0  0  0  0  0
    4.9635    3.7360   -0.4622 C   0  0  0  0  0  0  0  0  0  0  0  0
    5.2935    0.2174   -0.6707 C   0  0  0  0  0  0  0  0  0  0  0  0
    6.3186   -0.3236    0.2908 C   0  0  0  0  0  0  0  0  0  0  0  0
    5.7712   -0.5039    1.7270 C   0  0  0  0  0  0  0  0  0  0  0  0
    4.3780   -1.2722    1.7899 C   0  0  0  0  0  0  0  0  0  0  0  0
    4.6248   -2.7099    1.6157 C   0  0  0  0  0  0  0  0  0  0  0  0
    3.8117   -3.7078    2.1107 C   0  0  0  0  0  0  0  0  0  0  0  0
    4.2470   -5.0423    1.9834 C   0  0  0  0  0  0  0  0  0  0  0  0
    5.5443   -5.3165    1.4293 C   0  0  0  0  0  0  0  0  0  0  0  0
    6.2259   -4.2962    0.8032 C   0  0  0  0  0  0  0  0  0  0  0  0
    5.7875   -3.0559    0.9783 C   0  0  0  0  0  0  0  0  0  0  0  0
    6.1691   -6.8875    0.7151 C   0  0  0  0  0  0  0  0  0  0  0  0
    6.0319   -6.9565   -1.4797 C   0  0  0  0  0  0  0  0  0  0  0  0
    6.5811   -7.2712   -2.5047 O   0  0  0  0  0  0  0  0  0  0  0  0
    4.2794   -7.4381   -1.9639 N   0  0  0  0  0  0  0  0  0  0  0  0
    2.7914   -6.5775   -1.2499 C   0  0  2  0  0  0  0  0  0  0  0  0
    2.9263   -4.9478   -0.7465 C   0  0  0  0  0  0  0  0  0  0  0  0
    2.1558   -4.3719    0.0084 O   0  0  0  0  0  0  0  0  0  0  0  0
    2.1789   -7.5367   -0.1724 C   0  0  0  0  0  0  0  0  0  0  0  0
    1.0714   -6.9972    0.4931 O   0  0  0  0  0  0  0  0  0  0  0  0
    3.9665   -4.2824   -1.3534 N   0  0  0  0  0  0  0  0  0  0  0  0
    4.8009   -5.2792   -1.7841 C   0  0  2  0  0  0  0  0  0  0  0  0
    4.4808   -5.6193   -3.3104 C   0  0  0  0  0  0  0  0  0  0  0  0
    3.3868   -6.0320   -3.7091 O   0  0  0  0  0  0  0  0  0  0  0  0
    4.7046   -6.6548   -0.3614 C   0  0  0  0  0  0  0  0  0  0  0  0
    5.8021   -8.4860   -0.5101 C   0  0  0  0  0  0  0  0  0  0  0  0
    7.7190   -8.1365   -0.8450 C   0  0  0  0  0  0  0  0  0  0  0  0
    8.4767   -7.4311    0.2398 C   0  0  0  0  0  0  0  0  0  0  0  0
    8.3366   -8.4090    1.2849 N   0  0  0  0  0  0  0  0  0  0  0  0
    5.4841   -5.7883   -4.1817 N   0  0  0  0  0  0  0  0  0  0  0  0
    6.8474   -5.3478   -4.0383 C   0  0  0  0  0  0  0  0  0  0  0  0
    7.8792   -6.3652   -4.4931 C   0  0  0  0  0  0  0  0  0  0  0  0
    7.5892   -6.7956   -5.9047 C   0  0  0  0  0  0  0  0  0  0  0  0
    8.5918   -7.8646   -6.2950 C   0  0  0  0  0  0  0  0  0  0  0  0
    8.4289   -8.2201   -7.7573 C   0  0  0  0  0  0  0  0  0  0  0  0
    8.5470   -6.9823   -8.6377 C   0  0  0  0  0  0  0  0  0  0  0  0
    7.5309   -5.9237   -8.2476 C   0  0  0  0  0  0  0  0  0  0  0  0
    7.6682   -5.5626   -6.7931 C   0  0  0  0  0  0  0  0  0  0  0  0
  3  1  1  0
  3  2  2  0
  3  4  1  0
  5  4  1  0
  6  2  1  0
  6  5  2  0
  7  4  1  0
  8  7  1  0
  9  8  1  0
 10  9  1  0
 11 10  1  0
 11 16  1  0
 12 11  2  0
 13 12  1  0
 14 13  2  0
 14 15  1  0
 14 17  1  0
 16 15  2  0
 17 18  1  0
 18 19  2  0
 18 20  1  0
 21 24  1  1
 21 22  1  0
 21 20  1  0
 22 23  2  0
 22 26  1  0
 24 25  1  0
 27 30  1  1
 27 28  1  0
 27 26  1  0
 28 29  2  0
 28 35  1  0
 30 31  1  0
 32 31  1  0
 32 33  1  0
 33 34  1  0
 36 35  1  0
 36 37  1  0
 37 38  1  0
 38 39  1  0
 40 39  1  0
 40 41  1  0
 42 41  1  0
 43 38  1  0
 43 42  1  0
M  END
>  <DRUGBANK_ID>  (1) 
DB02477

>  <SECONDARY_ACCESSION_NUMBERS>  (1) 
EXPT02176

>  <COMMON_NAME>  (1) 
N-({4-[4-(2-Methyl-1H-imidazol-1-yl)butyl]phenyl}acetyl)-L-seryl-N-(2-cyclohexylethyl)-L-lysinamide

>  <CAS_NUMBER>  (1) 
164931-25-3

$$$$
