
     RDKit          3D

 16 16  0  0  0  0  0  0  0  0999 V2000
   -0.5835   -1.2653   -0.0341 C   0  0  0  0  0  0  0  0  0  0  0  0
   -1.2889   -0.0481   -0.0049 C   0  0  0  0  0  0  0  0  0  0  0  0
    0.8229   -1.1907   -0.0225 C   0  0  0  0  0  0  0  0  0  0  0  0
   -0.6423    1.2036   -0.0346 C   0  0  0  0  0  0  0  0  0  0  0  0
   -2.6453   -0.0243    0.0792 O   0  0  0  0  0  0  0  0  0  0  0  0
    1.5066    0.0261    0.0001 C   0  0  0  0  0  0  0  0  0  0  0  0
    0.7688    1.2087   -0.0290 C   0  0  0  0  0  0  0  0  0  0  0  0
    3.0051    0.0560    0.0685 C   0  0  0  0  0  0  0  0  0  0  0  0
   -1.3057   -2.6215   -0.0876 C   0  0  0  0  0  0  0  0  0  0  0  0
   -1.4015    2.5458   -0.0800 C   0  0  0  0  0  0  0  0  0  0  0  0
   -1.0202    3.3766    1.1593 C   0  0  0  0  0  0  0  0  0  0  0  0
   -1.0077    3.2970   -1.3680 C   0  0  0  0  0  0  0  0  0  0  0  0
   -2.9466    2.4532   -0.0908 C   0  0  0  0  0  0  0  0  0  0  0  0
   -2.1670   -2.8315    1.1827 C   0  0  0  0  0  0  0  0  0  0  0  0
   -2.1521   -2.7145   -1.3840 C   0  0  0  0  0  0  0  0  0  0  0  0
   -0.3172   -3.8092   -0.1342 C   0  0  0  0  0  0  0  0  0  0  0  0
  1  2  2  0
  1  9  1  0
  1  3  1  0
  2  5  1  0
  2  4  1  0
  3  6  2  0
  4 10  1  0
  4  7  2  0
  6  8  1  0
  6  7  1  0
  9 14  1  0
  9 15  1  0
  9 16  1  0
 10 11  1  0
 10 12  1  0
 10 13  1  0
M  END
>  <DRUGBANK_ID>  (1) 
DB16863

>  <COMMON_NAME>  (1) 
Butylated hydroxytoluene

>  <CAS_NUMBER>  (1) 
128-37-0

>  <UNII>  (1) 
1P9D0Z171K

>  <SYNONYMS>  (1) 
BHT; Butylhydroxytoluene

$$$$
