
     RDKit          3D

 24 26  0  0  0  0  0  0  0  0999 V2000
    1.0755   -0.0993    0.0924 C   0  0  0  0  0  0  0  0  0  0  0  0
    0.5166   -0.7704   -1.1374 N   0  0  0  0  0  0  0  0  0  0  0  0
    1.0187   -2.1862   -1.2430 C   0  0  0  0  0  0  0  0  0  0  0  0
   -0.9839   -0.7568   -1.1702 C   0  0  0  0  0  0  0  0  0  0  0  0
   -1.5321    0.6651   -1.1447 C   0  0  0  0  0  0  0  0  0  0  0  0
   -1.1794    1.4532   -2.3252 N   0  0  0  0  0  0  0  0  0  0  0  0
   -2.0510    1.9908   -3.2394 C   0  0  0  0  0  0  0  0  0  0  0  0
   -1.6599    2.4137   -4.3283 O   0  0  0  0  0  0  0  0  0  0  0  0
   -3.5054    1.9442   -3.0061 C   0  0  0  0  0  0  0  0  0  0  0  0
   -4.0181    2.2318   -1.7359 C   0  0  0  0  0  0  0  0  0  0  0  0
   -5.3599    2.0312   -1.4697 C   0  0  0  0  0  0  0  0  0  0  0  0
   -6.2122    1.6399   -2.4932 C   0  0  0  0  0  0  0  0  0  0  0  0
   -5.7509    1.4283   -3.8083 C   0  0  0  0  0  0  0  0  0  0  0  0
   -6.6226    1.0818   -4.8644 C   0  0  0  0  0  0  0  0  0  0  0  0
   -7.9680    0.7807   -4.6035 N   0  0  0  0  0  0  0  0  0  0  0  0
   -6.0698    0.8456   -6.1443 C   0  0  0  0  0  0  0  0  0  0  0  0
   -4.6757    1.0023   -6.3459 C   0  0  0  0  0  0  0  0  0  0  0  0
   -3.9006    1.3666   -5.3076 N   0  0  0  0  0  0  0  0  0  0  0  0
   -4.3647    1.5841   -4.0615 C   0  0  0  0  0  0  0  0  0  0  0  0
   -4.1141    0.7804   -7.6155 C   0  0  0  0  0  0  0  0  0  0  0  0
   -2.2456    0.9573   -7.8913 Br  0  0  0  0  0  0  0  0  0  0  0  0
   -4.9167    0.4191   -8.6946 C   0  0  0  0  0  0  0  0  0  0  0  0
   -6.2861    0.2706   -8.5109 C   0  0  0  0  0  0  0  0  0  0  0  0
   -6.8522    0.4746   -7.2547 C   0  0  0  0  0  0  0  0  0  0  0  0
  1  2  1  0
  2  3  1  0
  2  4  1  0
  4  5  1  0
  5  6  1  0
  6  7  1  0
  7  8  2  0
  7  9  1  0
  9 10  2  0
  9 19  1  0
 10 11  1  0
 11 12  2  0
 12 13  1  0
 13 14  1  0
 13 19  2  0
 14 15  1  0
 14 16  2  0
 16 17  1  0
 16 24  1  0
 17 18  2  0
 17 20  1  0
 18 19  1  0
 20 21  1  0
 20 22  2  0
 22 23  1  0
 23 24  2  0
M  CHG  2   2   1  18   1
M  END
>  <DRUGBANK_ID>  (1) 
DB02390

>  <SECONDARY_ACCESSION_NUMBERS>  (1) 
EXPT01117

>  <COMMON_NAME>  (1) 
5-Bromo-N[2-(Dimethylamino)Ethyl]-9-Aminoacridine-4-Carboxamide

$$$$
