1060
     RDKit          3D

 25 27  0  0  1  0  0  0  0  0999 V2000
   -2.2021   -6.1366    4.3786 S   0  0  0  0  0  0  0  0  0  0  0  0
   -2.2843   -1.7877    4.7354 O   0  0  0  0  0  0  0  0  0  0  0  0
   -3.9520   -2.6906    7.8401 O   0  0  0  0  0  0  0  0  0  0  0  0
   -5.1198   -4.5606    7.5593 O   0  0  0  0  0  0  0  0  0  0  0  0
   -0.0481   -4.2327    0.4797 O   0  0  0  0  0  0  0  0  0  0  0  0
   -6.9480   -2.1762    2.7715 O   0  0  0  0  0  0  0  0  0  0  0  0
   -3.4284   -3.8385    4.8993 N   0  0  0  0  0  0  0  0  0  0  0  0
   -1.2625   -3.8703    2.3012 N   0  0  0  0  0  0  0  0  0  0  0  0
   -2.1373   -3.4836   -1.3279 N   0  0  0  0  0  0  0  0  0  0  0  0
   -3.2058   -4.7979    3.7855 C   0  0  1  0  0  0  0  0  0  0  0  0
   -2.8953   -5.8531    6.0593 C   0  0  0  0  0  0  0  0  0  0  0  0
   -3.0760   -4.3149    6.2204 C   0  0  2  0  0  0  0  0  0  0  0  0
   -2.4829   -3.7140    3.0805 C   0  0  1  0  0  0  0  0  0  0  0  0
   -2.6616   -2.8690    4.3157 C   0  0  0  0  0  0  0  0  0  0  0  0
   -1.8333   -6.4123    6.9771 C   0  0  0  0  0  0  0  0  0  0  0  0
   -4.1999   -6.6566    6.0919 C   0  0  0  0  0  0  0  0  0  0  0  0
   -4.1339   -3.9004    7.2636 C   0  0  0  0  0  0  0  0  0  0  0  0
   -1.1877   -4.0666    0.9358 C   0  0  0  0  0  0  0  0  0  0  0  0
   -2.4721   -4.1070   -0.0360 C   0  0  1  0  0  0  0  0  0  0  0  0
   -3.7788   -3.4497    0.4191 C   0  0  0  0  0  0  0  0  0  0  0  0
   -4.9792   -4.1856    0.4113 C   0  0  0  0  0  0  0  0  0  0  0  0
   -3.7630   -2.1656    1.0242 C   0  0  0  0  0  0  0  0  0  0  0  0
   -6.0890   -3.7239    1.1305 C   0  0  0  0  0  0  0  0  0  0  0  0
   -4.8133   -1.8092    1.8804 C   0  0  0  0  0  0  0  0  0  0  0  0
   -5.9699   -2.5771    1.9130 C   0  0  0  0  0  0  0  0  0  0  0  0
 10  1  1  1
  1 11  1  0
  2 14  2  0
  3 17  1  0
  4 17  2  0
  5 18  2  0
  6 25  1  0
  7 10  1  0
  7 12  1  0
  7 14  1  0
  8 18  1  0
 10 13  1  0
 11 12  1  0
 11 15  1  0
 11 16  1  0
 12 17  1  1
 13 14  1  0
 13  8  1  1
 19 20  1  0
 19 18  1  0
 19  9  1  6
 20 21  2  0
 20 22  1  0
 21 23  1  0
 22 24  2  0
 23 25  2  0
 24 25  1  0
M  END
>  <DRUGBANK_ID>  (1) 
DB01060

>  <SECONDARY_ACCESSION_NUMBERS>  (1) 
APRD00248

>  <COMMON_NAME>  (1) 
Amoxicillin

>  <CAS_NUMBER>  (1) 
26787-78-0

>  <UNII>  (1) 
9EM05410Q9

>  <SYNONYMS>  (1) 
(2S,5R,6R)-6-{[(2R)-2-amino-2-(4-hydroxyphenyl)acetyl]amino}-3,3-dimethyl-7-oxo-4-thia-1-azabicyclo[3.2.0]heptane-2-carboxylic acid; 6-(p-hydroxy-α-aminophenylacetamido)penicillanic acid; Amox; Amoxicilina; Amoxicillin; Amoxicillin (anhydrous); Amoxicillin anhydrous; Amoxicilline; Amoxicillinum; Amoxycillin; AX; p-Hydroxyampicillin; α-amino-p-hydroxybenzylpenicillin

$$$$
