
     RDKit          3D

  5  4  0  0  1  0  0  0  0  0999 V2000
    1.0132   -0.7286   -2.2769 C   0  0  0  0  0  0  0  0  0  0  0  0
    0.4275    0.2974   -1.3112 C   0  0  2  0  0  0  0  0  0  0  0  0
    0.7553   -0.0234    0.0439 O   0  0  0  0  0  0  0  0  0  0  0  0
   -1.1028    0.3099   -1.3801 C   0  0  0  0  0  0  0  0  0  0  0  0
   -1.6115    1.2850   -0.3723 N   0  0  0  0  0  0  0  0  0  0  0  0
  2  4  1  0
  2  3  1  0
  2  1  1  6
  4  5  1  0
M  CHG  1   5   1
M  END
>  <DRUGBANK_ID>  (1) 
DB02576

>  <SECONDARY_ACCESSION_NUMBERS>  (1) 
EXPT01471

>  <COMMON_NAME>  (1) 
F-Loop of Vitamin B12

>  <CAS_NUMBER>  (1) 
78-96-6

>  <UNII>  (1) 
UE40BY1BZW

$$$$
