
     RDKit          3D

 22 23  0  0  1  0  0  0  0  0999 V2000
    2.7057    0.3511   -4.7756 N   0  0  0  0  0  0  0  0  0  0  0  0
    1.9492    1.0466   -3.7386 C   0  0  0  0  0  0  0  0  0  0  0  0
    1.6889   -0.0319   -2.6870 C   0  0  1  0  0  0  0  0  0  0  0  0
    0.4646   -1.1743   -3.7926 O   0  0  0  0  0  0  0  0  0  0  0  0
   -0.4982   -2.3628   -2.6233 C   0  0  2  0  0  0  0  0  0  0  0  0
   -1.4899   -1.2277   -1.3928 O   0  0  0  0  0  0  0  0  0  0  0  0
   -0.6686   -0.3540   -0.2615 C   0  0  2  0  0  0  0  0  0  0  0  0
   -0.1683    0.8169   -1.1295 C   0  0  1  0  0  0  0  0  0  0  0  0
    1.0979    1.6654   -0.6204 N   0  0  0  0  0  0  0  0  0  0  0  0
   -0.0787   -0.1730   -2.5199 C   0  0  0  0  0  0  0  0  0  0  0  0
    1.4741   -1.6430   -2.6073 C   0  0  1  0  0  0  0  0  0  0  0  0
    3.3261   -0.9188   -3.0463 N   0  0  0  0  0  0  0  0  0  0  0  0
    0.4493   -1.8381   -1.0558 C   0  0  2  0  0  0  0  0  0  0  0  0
   -1.0233   -2.9902   -0.8889 O   0  0  0  0  0  0  0  0  0  0  0  0
    0.3115   -1.2810    0.3337 C   0  0  1  0  0  0  0  0  0  0  0  0
    1.2650   -0.6248    1.1715 O   0  0  0  0  0  0  0  0  0  0  0  0
    0.6478   -3.7241   -1.4407 C   0  0  2  0  0  0  0  0  0  0  0  0
    0.1593   -4.4886   -0.1107 N   0  0  0  0  0  0  0  0  0  0  0  0
    2.1294   -2.7152   -0.4365 C   0  0  1  0  0  0  0  0  0  0  0  0
    3.1406   -3.4809   -0.0042 O   0  0  0  0  0  0  0  0  0  0  0  0
    2.7402   -1.1698   -1.2312 C   0  0  2  0  0  0  0  0  0  0  0  0
    3.4636   -0.1968   -0.4978 O   0  0  0  0  0  0  0  0  0  0  0  0
  1  2  1  0
  3  4  1  0
  3 21  1  0
  3  2  1  6
  4  5  1  0
  5  6  1  1
  5 17  1  0
  7  6  1  6
  7  8  1  0
  7 15  1  0
  8 10  1  0
  8  9  1  1
 10 11  1  0
 11 13  1  0
 11 12  1  1
 13 14  1  6
 13 15  1  0
 15 16  1  6
 17 18  1  1
 17 19  1  0
 19 21  1  0
 19 20  1  6
 21 22  1  1
M  END
>  <DRUGBANK_ID>  (1) 
DB04808

>  <COMMON_NAME>  (1) 
Neamine

>  <CAS_NUMBER>  (1) 
3947-65-7

>  <UNII>  (1) 
5981U00LY0

>  <SYNONYMS>  (1) 
2-desoxy-4-O-(2,6-diamino-2,6-didesoxy-α-D-glucopyranosyl)-D-streptamin; 4-O-(2,6-diamino-2,6-dideoxy-α-D-glucopyranosyl)-2-deoxy-D-streptamine; Dekamycin V; Nebramycin X; Negamicin; Neomycin A

$$$$
