
     RDKit          3D

 17 18  0  0  0  0  0  0  0  0999 V2000
   -1.2316    0.5303    0.0414 N   0  0  0  0  0  0  0  0  0  0  0  0
   -0.2129    1.3160    0.0327 C   0  0  0  0  0  0  0  0  0  0  0  0
    1.0826    0.9105    0.0285 N   0  0  0  0  0  0  0  0  0  0  0  0
    1.3373   -0.3612    0.0034 C   0  0  0  0  0  0  0  0  0  0  0  0
    0.3948   -1.3541   -0.0650 N   0  0  0  0  0  0  0  0  0  0  0  0
   -1.0060   -0.9090   -0.0303 C   0  0  0  0  0  0  0  0  0  0  0  0
   -0.4738    2.6390    0.0366 N   0  0  0  0  0  0  0  0  0  0  0  0
    2.6330   -0.7666    0.0212 N   0  0  0  0  0  0  0  0  0  0  0  0
   -1.7075   -1.4841    1.2164 C   0  0  0  0  0  0  0  0  0  0  0  0
   -1.7216   -1.3036   -1.3323 C   0  0  0  0  0  0  0  0  0  0  0  0
    0.6611   -2.7434   -0.0283 C   0  0  0  0  0  0  0  0  0  0  0  0
    0.2891   -3.5930   -1.0837 C   0  0  0  0  0  0  0  0  0  0  0  0
    0.4731   -4.9744   -1.0231 C   0  0  0  0  0  0  0  0  0  0  0  0
    1.1384   -5.5240    0.0615 C   0  0  0  0  0  0  0  0  0  0  0  0
    1.5891   -4.7042    1.0933 C   0  0  0  0  0  0  0  0  0  0  0  0
    1.3272   -3.3283    1.0610 C   0  0  0  0  0  0  0  0  0  0  0  0
    1.4359   -7.2158    0.1017 Cl  0  0  0  0  0  0  0  0  0  0  0  0
  2  1  2  0
  2  3  1  0
  2  7  1  0
  4  3  2  0
  4  8  1  0
  4  5  1  0
  6  1  1  0
  6  5  1  0
  6  9  1  0
 10  6  1  0
 11  5  1  0
 11 16  1  0
 11 12  2  0
 12 13  1  0
 13 14  2  0
 14 17  1  0
 14 15  1  0
 15 16  2  0
M  END
>  <DRUGBANK_ID>  (1) 
DB14763

>  <COMMON_NAME>  (1) 
Cycloguanil

>  <CAS_NUMBER>  (1) 
516-21-2

>  <UNII>  (1) 
26RM326WVN

>  <SYNONYMS>  (1) 
CGT; Chlorguanide triazine; Cycloguanilum; Cycloguanyl

$$$$
