
     RDKit          3D

 10 11  0  0  0  0  0  0  0  0999 V2000
    2.5861   -0.0566   -0.1418 C   0  0  0  0  0  0  0  0  0  0  0  0
    1.7052   -1.2141   -0.6323 C   0  0  0  0  0  0  0  0  0  0  0  0
    1.8349    1.0238    0.6450 C   0  0  0  0  0  0  0  0  0  0  0  0
    0.5862   -1.5602    0.3522 C   0  0  0  0  0  0  0  0  0  0  0  0
    0.6320    1.5491   -0.1349 C   0  0  0  0  0  0  0  0  0  0  0  0
   -0.5889   -0.6670    0.1665 C   0  0  0  0  0  0  0  0  0  0  0  0
   -1.8625   -1.0131    0.1545 N   0  0  0  0  0  0  0  0  0  0  0  0
   -2.5697    0.1386   -0.0882 N   0  0  0  0  0  0  0  0  0  0  0  0
   -1.7590    1.1787   -0.2237 N   0  0  0  0  0  0  0  0  0  0  0  0
   -0.5247    0.6834   -0.0501 N   0  0  0  0  0  0  0  0  0  0  0  0
  2  1  1  0
  3  1  1  0
  4  2  1  0
  5  3  1  0
  6  4  1  0
  7  6  2  0
  8  7  1  0
  9  8  2  0
 10  5  1  0
 10  6  1  0
 10  9  1  0
M  END
>  <DRUGBANK_ID>  (1) 
DB13415

>  <COMMON_NAME>  (1) 
Pentetrazol

>  <CAS_NUMBER>  (1) 
54-95-5

>  <UNII>  (1) 
WM5Z385K7T

>  <SYNONYMS>  (1) 
Pentetrazol; Pentylenetetrazol

$$$$
