1133
     RDKit          3D

 17 17  0  0  0  0  0  0  0  0999 V2000
   -2.1348   -0.1315    0.0876 Cl  0  0  0  0  0  0  0  0  0  0  0  0
    4.2204   -0.0632   -0.2022 S   0  0  0  0  0  0  0  0  0  0  0  0
    4.2373    2.5794   -1.4365 P   0  0  0  0  0  0  0  0  0  0  0  0
    4.1637    2.5840    1.5510 P   0  0  0  0  0  0  0  0  0  0  0  0
    3.4670    3.6743   -0.4799 O   0  0  0  0  0  0  0  0  0  0  0  0
    5.6938    3.3650   -1.4415 O   0  0  0  0  0  0  0  0  0  0  0  0
    2.8643    1.6201    1.6608 O   0  0  0  0  0  0  0  0  0  0  0  0
    5.1990    1.6963    2.4894 O   0  0  0  0  0  0  0  0  0  0  0  0
    3.7499    3.3055   -2.7142 O   0  0  0  0  0  0  0  0  0  0  0  0
    3.6139    3.3140    2.8009 O   0  0  0  0  0  0  0  0  0  0  0  0
    4.8134    1.7213    0.0737 C   0  0  0  0  0  0  0  0  0  0  0  0
    2.4013   -0.0865   -0.2926 C   0  0  0  0  0  0  0  0  0  0  0  0
    1.6072    1.0619   -0.4744 C   0  0  0  0  0  0  0  0  0  0  0  0
    1.7193   -1.2830   -0.0800 C   0  0  0  0  0  0  0  0  0  0  0  0
    0.2271    1.0574   -0.2630 C   0  0  0  0  0  0  0  0  0  0  0  0
    0.3090   -1.3203   -0.0076 C   0  0  0  0  0  0  0  0  0  0  0  0
   -0.4232   -0.1261   -0.0603 C   0  0  0  0  0  0  0  0  0  0  0  0
  1 17  1  0
  2 11  1  0
  2 12  1  0
  3  5  1  0
  3  6  1  0
  3  9  2  0
  3 11  1  0
  4  7  1  0
  4  8  1  0
  4 10  2  0
  4 11  1  0
 12 13  2  0
 12 14  1  0
 13 15  1  0
 14 16  2  0
 15 17  2  0
 16 17  1  0
M  END
>  <DRUGBANK_ID>  (1) 
DB01133

>  <SECONDARY_ACCESSION_NUMBERS>  (1) 
APRD01259

>  <COMMON_NAME>  (1) 
Tiludronic acid

>  <CAS_NUMBER>  (1) 
89987-06-4

>  <UNII>  (1) 
6PNS59HP4Y

>  <SYNONYMS>  (1) 
Acide tiludronique; Acido tiludronico; Acidum tiludronicum; Tiludronate; Tiludronic acid

$$$$
