
     RDKit          3D

 33 34  0  0  0  0  0  0  0  0999 V2000
    1.4321    0.0767   -0.2342 C   0  0  2  0  0  0  0  0  0  0  0  0
    1.1601   -1.2021   -1.3705 C   0  0  0  0  0  0  0  0  0  0  0  0
    0.8970   -0.0542    1.4725 C   0  0  0  0  0  0  0  0  0  0  0  0
    1.4604   -2.5435   -0.9720 C   0  0  0  0  0  0  0  0  0  0  0  0
    0.3701   -1.1820   -2.4980 C   0  0  0  0  0  0  0  0  0  0  0  0
    1.0961    1.0345    2.5026 C   0  0  0  0  0  0  0  0  0  0  0  0
    1.0833   -3.7642   -1.5619 C   0  0  0  0  0  0  0  0  0  0  0  0
   -0.1716   -2.4443   -2.8847 C   0  0  0  0  0  0  0  0  0  0  0  0
    0.3260    2.2807    2.0819 C   0  0  0  0  0  0  0  0  0  0  0  0
    0.2193   -3.7013   -2.5823 C   0  0  0  0  0  0  0  0  0  0  0  0
    1.2738   -4.9735   -0.9814 O   0  0  0  0  0  0  0  0  0  0  0  0
   -1.1678    2.3358    2.0979 N   0  0  0  0  0  0  0  0  0  0  0  0
   -0.5320   -4.6450   -3.2088 O   0  0  0  0  0  0  0  0  0  0  0  0
    2.2213   -4.9768    0.0573 C   0  0  0  0  0  0  0  0  0  0  0  0
   -1.6218    3.5492    1.3649 C   0  0  0  0  0  0  0  0  0  0  0  0
   -2.0815    1.2421    1.7649 C   0  0  0  0  0  0  0  0  0  0  0  0
    0.1074   -5.8905   -3.1890 C   0  0  0  0  0  0  0  0  0  0  0  0
   -1.1991    3.7768   -0.1285 C   0  0  0  0  0  0  0  0  0  0  0  0
   -1.6761    2.7146   -1.1269 C   0  0  0  0  0  0  0  0  0  0  0  0
   -1.2853    1.3656   -0.9570 C   0  0  0  0  0  0  0  0  0  0  0  0
   -2.6071    2.9328   -2.1074 C   0  0  0  0  0  0  0  0  0  0  0  0
   -1.9045    0.2150   -1.4442 C   0  0  0  0  0  0  0  0  0  0  0  0
   -3.1055    1.8270   -2.7953 C   0  0  0  0  0  0  0  0  0  0  0  0
   -2.7318    0.5004   -2.5299 C   0  0  0  0  0  0  0  0  0  0  0  0
   -1.7661   -1.0619   -0.9183 O   0  0  0  0  0  0  0  0  0  0  0  0
   -3.2973   -0.2911   -3.5055 O   0  0  0  0  0  0  0  0  0  0  0  0
   -1.0463   -1.6091    0.2013 C   0  0  0  0  0  0  0  0  0  0  0  0
   -2.6392   -1.4931   -3.6745 C   0  0  0  0  0  0  0  0  0  0  0  0
    1.3308    1.5110   -0.8792 C   0  0  0  0  0  0  0  0  0  0  0  0
    2.9400    0.0238   -0.0634 C   0  0  0  0  0  0  0  0  0  0  0  0
    3.4434   -1.2452    0.6036 C   0  0  0  0  0  0  0  0  0  0  0  0
    3.5137    0.2000   -1.4802 C   0  0  0  0  0  0  0  0  0  0  0  0
    1.3750    2.5312   -1.3579 N   0  0  0  0  0  0  0  0  0  0  0  0
  1  2  1  0
  1  3  1  1
  1 29  1  0
  2  4  2  0
  2  5  1  0
  3  6  1  0
  4  7  1  0
  5  8  2  0
  6  9  1  0
  7 10  2  0
  7 11  1  0
  8 10  1  0
  9 12  1  0
 10 13  1  0
 11 14  1  0
 12 15  1  0
 12 16  1  0
 13 17  1  0
 15 18  1  0
 18 19  1  0
 19 20  2  0
 19 21  1  0
 20 22  1  0
 21 23  2  0
 22 24  2  0
 22 25  1  0
 23 24  1  0
 24 26  1  0
 25 27  1  0
 26 28  1  0
 29 33  3  0
 30  1  1  0
 30 31  1  0
 30 32  1  0
M  END
>  <DRUGBANK_ID>  (1) 
DB14063

>  <COMMON_NAME>  (1) 
Dexverapamil

>  <CAS_NUMBER>  (1) 
38321-02-7

>  <UNII>  (1) 
QR5PYD126V

>  <SYNONYMS>  (1) 
(+)-(R)-verapamil; (+)-verapamil; (R)-(+)-verapamil; (R)-verapamil; DexvÃ©rapamil; Dexverapamil; Dexverapamilo; Dexverapamilum

$$$$
