408
     RDKit          3D

 23 26  0  0  0  0  0  0  0  0999 V2000
   -4.3907   -0.0419   -0.7641 Cl  0  0  0  0  0  0  0  0  0  0  0  0
    1.0333    0.8554    1.2825 O   0  0  0  0  0  0  0  0  0  0  0  0
   -0.3782   -2.9792    1.4774 N   0  0  0  0  0  0  0  0  0  0  0  0
   -1.9335   -4.8398    3.0574 N   0  0  0  0  0  0  0  0  0  0  0  0
    1.5082   -1.9275    0.6068 N   0  0  0  0  0  0  0  0  0  0  0  0
   -1.3126   -3.9205    0.8497 C   0  0  0  0  0  0  0  0  0  0  0  0
    0.2039   -3.5402    2.7120 C   0  0  0  0  0  0  0  0  0  0  0  0
   -2.4676   -4.1877    1.8416 C   0  0  0  0  0  0  0  0  0  0  0  0
   -0.9476   -3.9249    3.6863 C   0  0  0  0  0  0  0  0  0  0  0  0
    0.2246   -1.9009    0.8259 C   0  0  0  0  0  0  0  0  0  0  0  0
   -3.0019   -5.2000    3.9796 C   0  0  0  0  0  0  0  0  0  0  0  0
   -0.6584   -0.7133    0.5175 C   0  0  0  0  0  0  0  0  0  0  0  0
   -0.2196    0.5846    0.7937 C   0  0  0  0  0  0  0  0  0  0  0  0
    2.2275   -0.8462    0.0434 C   0  0  0  0  0  0  0  0  0  0  0  0
   -1.9591   -0.8734    0.0290 C   0  0  0  0  0  0  0  0  0  0  0  0
    2.0281    0.4917    0.4064 C   0  0  0  0  0  0  0  0  0  0  0  0
   -1.0660    1.6861    0.6073 C   0  0  0  0  0  0  0  0  0  0  0  0
   -2.7989    0.2196   -0.1645 C   0  0  0  0  0  0  0  0  0  0  0  0
   -2.3599    1.5027    0.1249 C   0  0  0  0  0  0  0  0  0  0  0  0
    3.2738   -1.1205   -0.8454 C   0  0  0  0  0  0  0  0  0  0  0  0
    2.8417    1.5222   -0.0841 C   0  0  0  0  0  0  0  0  0  0  0  0
    4.0897   -0.0956   -1.3515 C   0  0  0  0  0  0  0  0  0  0  0  0
    3.8747    1.2263   -0.9672 C   0  0  0  0  0  0  0  0  0  0  0  0
  1 18  1  0
  2 13  1  0
  2 16  1  0
  3  6  1  0
  3  7  1  0
  3 10  1  0
  4  8  1  0
  4  9  1  0
  4 11  1  0
  5 10  2  0
  5 14  1  0
  6  8  1  0
  7  9  1  0
 10 12  1  0
 12 13  2  0
 12 15  1  0
 13 17  1  0
 14 16  2  0
 14 20  1  0
 15 18  2  0
 16 21  1  0
 17 19  2  0
 18 19  1  0
 20 22  2  0
 21 23  2  0
 22 23  1  0
M  END
>  <DRUGBANK_ID>  (1) 
DB00408

>  <SECONDARY_ACCESSION_NUMBERS>  (1) 
APRD00574

>  <COMMON_NAME>  (1) 
Loxapine

>  <CAS_NUMBER>  (1) 
1977-10-2

>  <UNII>  (1) 
LER583670J

>  <SYNONYMS>  (1) 
2-Chloro-11-(4-methyl-1-piperazinyl)dibenz[b,f][1,4]oxazepine; Loxapina; Loxapine; Loxapinum; Oxilapine

$$$$
