
     RDKit          3D

 29 31  0  0  0  0  0  0  0  0999 V2000
    2.2604    0.0520   -0.0255 F   0  0  0  0  0  0  0  0  0  0  0  0
   -5.2735   -1.9319    5.1403 F   0  0  0  0  0  0  0  0  0  0  0  0
   -7.2646   -7.4615    1.0156 O   0  0  0  0  0  0  0  0  0  0  0  0
   -5.5696   -3.1922   -0.4200 N   0  0  0  0  0  0  0  0  0  0  0  0
   -5.9138   -5.6661    1.1205 N   0  0  0  0  0  0  0  0  0  0  0  0
   -7.2082   -6.4632    2.9697 N   0  0  0  0  0  0  0  0  0  0  0  0
   -4.0776   -3.0931   -0.3296 C   0  0  0  0  0  0  0  0  0  0  0  0
   -6.2818   -3.3996    0.8469 C   0  0  0  0  0  0  0  0  0  0  0  0
   -5.9866   -4.3991   -1.1367 C   0  0  0  0  0  0  0  0  0  0  0  0
   -3.5749   -2.1716   -1.4288 C   0  0  0  0  0  0  0  0  0  0  0  0
   -5.5055   -4.4077    1.6726 C   0  0  0  0  0  0  0  0  0  0  0  0
   -5.6017   -5.7107   -0.3490 C   0  0  0  0  0  0  0  0  0  0  0  0
   -3.9305   -0.6856   -1.1945 C   0  0  0  0  0  0  0  0  0  0  0  0
   -3.3720    0.0719    0.1095 C   0  0  0  0  0  0  0  0  0  0  0  0
   -1.8553    0.0611    0.0589 C   0  0  0  0  0  0  0  0  0  0  0  0
   -3.8698   -0.2728    1.5291 C   0  0  0  0  0  0  0  0  0  0  0  0
   -6.8029   -6.5507    1.6703 C   0  0  0  0  0  0  0  0  0  0  0  0
   -1.1598    1.2694   -0.0132 C   0  0  0  0  0  0  0  0  0  0  0  0
   -3.3248    0.1065    2.7613 C   0  0  0  0  0  0  0  0  0  0  0  0
   -1.1274   -1.1401    0.1409 C   0  0  0  0  0  0  0  0  0  0  0  0
   -5.0366   -0.9710    1.6578 C   0  0  0  0  0  0  0  0  0  0  0  0
   -6.9706   -5.6280    4.1450 C   0  0  0  0  0  0  0  0  0  0  0  0
    0.2321    1.2609   -0.0244 C   0  0  0  0  0  0  0  0  0  0  0  0
   -3.8086   -0.4111    4.0011 C   0  0  0  0  0  0  0  0  0  0  0  0
    0.2540   -1.1552    0.0540 C   0  0  0  0  0  0  0  0  0  0  0  0
   -5.4624   -1.5677    2.8664 C   0  0  0  0  0  0  0  0  0  0  0  0
    0.9231    0.0518   -0.0097 C   0  0  0  0  0  0  0  0  0  0  0  0
   -4.8145   -1.3419    4.0291 C   0  0  0  0  0  0  0  0  0  0  0  0
   -8.1906   -4.8397    4.5800 C   0  0  0  0  0  0  0  0  0  0  0  0
  1 27  1  0
  2 28  1  0
  3 17  2  0
  4  7  1  0
  4  8  1  0
  4  9  1  0
  5 11  1  0
  5 12  1  0
  5 17  1  0
  6 17  1  0
  6 22  1  0
  7 10  1  0
  8 11  1  0
  9 12  1  0
 10 13  1  0
 13 14  1  0
 14 15  1  0
 14 16  1  0
 15 18  2  0
 15 20  1  0
 16 19  2  0
 16 21  1  0
 18 23  1  0
 19 24  1  0
 20 25  2  0
 21 26  2  0
 22 29  1  0
 23 27  2  0
 24 28  2  0
 25 27  1  0
 26 28  1  0
M  END
>  <DRUGBANK_ID>  (1) 
DB08927

>  <COMMON_NAME>  (1) 
Amperozide

>  <CAS_NUMBER>  (1) 
75558-90-6

>  <UNII>  (1) 
0M2W3TAG39

>  <SYNONYMS>  (1) 
Amperozide

$$$$
