
     RDKit          3D

 19 21  0  0  1  0  0  0  0  0999 V2000
    0.9396    0.0035    0.0114 C   0  0  0  0  0  0  0  0  0  0  0  0
   -0.1605    6.7300    2.5520 C   0  0  0  0  0  0  0  0  0  0  0  0
    0.4287    0.4847    1.3697 C   0  0  2  0  0  0  0  0  0  0  0  0
    1.2306    5.0847    2.0842 C   0  0  0  0  0  0  0  0  0  0  0  0
    1.5995    3.8045    1.8644 C   0  0  0  0  0  0  0  0  0  0  0  0
    2.0531    5.9310    1.3002 C   0  0  0  0  0  0  0  0  0  0  0  0
   -0.9232    1.2101    1.3078 C   0  0  2  0  0  0  0  0  0  0  0  0
   -0.5184    2.6666    1.3039 C   0  0  2  0  0  0  0  0  0  0  0  0
    0.7536    2.6396    2.1774 C   0  0  1  0  0  0  0  0  0  0  0  0
    1.6927    7.2968    1.1935 C   0  0  0  0  0  0  0  0  0  0  0  0
    2.3696    8.2445    0.4676 N   0  0  0  0  0  0  0  0  0  0  0  0
    0.1215    5.4333    2.7688 N   0  0  0  0  0  0  0  0  0  0  0  0
    0.5412    7.6593    1.8389 N   0  0  0  0  0  0  0  0  0  0  0  0
    2.7615    3.9004    1.1471 N   0  0  0  0  0  0  0  0  0  0  0  0
    3.0474    5.1772    0.7625 N   0  0  0  0  0  0  0  0  0  0  0  0
    0.5687    0.8777   -1.0503 O   0  0  0  0  0  0  0  0  0  0  0  0
   -1.7261    0.9150    2.4624 O   0  0  0  0  0  0  0  0  0  0  0  0
   -1.5745    3.5108    1.7394 O   0  0  0  0  0  0  0  0  0  0  0  0
    1.4267    1.4243    1.8737 O   0  0  0  0  0  0  0  0  0  0  0  0
  3  1  1  6
  5  4  2  0
  6  4  1  0
  7  3  1  0
  7 17  1  1
  8  7  1  0
  8 18  1  1
  9  8  1  0
  9  5  1  6
 10  6  1  0
 11 10  1  0
 12  2  2  0
 12  4  1  0
 13  2  1  0
 13 10  2  0
 14  5  1  0
 15  6  2  0
 15 14  1  0
 16  1  1  0
 19  3  1  0
 19  9  1  0
M  END
>  <DRUGBANK_ID>  (1) 
DB02281

>  <SECONDARY_ACCESSION_NUMBERS>  (1) 
EXPT01453

>  <COMMON_NAME>  (1) 
Formycin

>  <CAS_NUMBER>  (1) 
6742-12-7

$$$$
