
     RDKit          3D

 30 33  0  0  0  0  0  0  0  0999 V2000
    0.8764    0.2626   -0.0641 S   0  0  0  0  0  0  0  0  0  0  0  0
    0.7952   -2.5194   -1.0979 O   0  0  0  0  0  0  0  0  0  0  0  0
   -0.0224   -5.3609   -0.3613 O   0  0  0  0  0  0  0  0  0  0  0  0
    2.3934   -5.6381   -1.4744 O   0  0  0  0  0  0  0  0  0  0  0  0
    0.3866   -0.7799    1.1025 O   0  0  0  0  0  0  0  0  0  0  0  0
    4.5068    0.9579    0.9123 O   0  0  0  0  0  0  0  0  0  0  0  0
    0.4234    1.5822    0.2843 O   0  0  0  0  0  0  0  0  0  0  0  0
    0.5424   -0.2225   -1.3896 O   0  0  0  0  0  0  0  0  0  0  0  0
    2.8614   -2.5035   -2.2572 N   0  0  0  0  0  0  0  0  0  0  0  0
    3.0567    0.7581    3.4721 N   0  0  0  0  0  0  0  0  0  0  0  0
    2.5117    0.2688    0.0455 N   0  0  0  0  0  0  0  0  0  0  0  0
    4.0949   -1.3149   -3.6929 N   0  0  0  0  0  0  0  0  0  0  0  0
    4.1182   -2.1063   -0.2170 N   0  0  0  0  0  0  0  0  0  0  0  0
    6.0037   -0.6309   -0.5953 N   0  0  0  0  0  0  0  0  0  0  0  0
    6.4323    0.4399   -2.6314 N   0  0  0  0  0  0  0  0  0  0  0  0
    0.9673   -4.4684    0.1798 C   0  0  1  0  0  0  0  0  0  0  0  0
    2.1549   -4.4160   -0.7836 C   0  0  2  0  0  0  0  0  0  0  0  0
    0.4237   -3.0442    0.1800 C   0  0  1  0  0  0  0  0  0  0  0  0
    1.7651   -3.3219   -1.7634 C   0  0  1  0  0  0  0  0  0  0  0  0
    0.9273   -2.1003    1.2763 C   0  0  0  0  0  0  0  0  0  0  0  0
    2.6312    1.4390    2.2298 C   0  0  1  0  0  0  0  0  0  0  0  0
    3.1677    2.8444    2.3452 C   0  0  0  0  0  0  0  0  0  0  0  0
    2.8025    3.1561    3.7628 C   0  0  0  0  0  0  0  0  0  0  0  0
    3.9095   -1.9954   -1.5384 C   0  0  0  0  0  0  0  0  0  0  0  0
    2.9062    1.8127    4.4903 C   0  0  0  0  0  0  0  0  0  0  0  0
    3.0626   -2.1243   -3.5609 C   0  0  0  0  0  0  0  0  0  0  0  0
    3.2863    0.8801    1.0194 C   0  0  0  0  0  0  0  0  0  0  0  0
    4.6345   -1.2193   -2.4314 C   0  0  0  0  0  0  0  0  0  0  0  0
    5.7030   -0.4726   -1.9014 C   0  0  0  0  0  0  0  0  0  0  0  0
    5.2078   -1.4117    0.1652 C   0  0  0  0  0  0  0  0  0  0  0  0
  1  5  1  0
  1  7  2  0
  1  8  2  0
  1 11  1  0
  2 18  1  0
  2 19  1  0
  5 20  1  0
  6 27  2  0
  9 24  1  0
  9 26  1  0
 10 21  1  0
 10 25  1  0
 11 27  1  0
 12 26  2  0
 12 28  1  0
 13 24  1  0
 13 30  2  0
 14 29  2  0
 14 30  1  0
 15 29  1  0
 16  3  1  6
 16 17  1  0
 16 18  1  0
 17  4  1  6
 17 19  1  0
 18 20  1  1
 19  9  1  1
 21 22  1  0
 21 27  1  6
 22 23  1  0
 23 25  1  0
 24 28  2  0
 28 29  1  0
M  END
>  <DRUGBANK_ID>  (1) 
DB02510

>  <SECONDARY_ACCESSION_NUMBERS>  (1) 
EXPT02481

>  <COMMON_NAME>  (1) 
5'-O-(L-Prolylsulfamoyl)adenosine

$$$$
