
     RDKit          3D

 23 24  0  0  1  0  0  0  0  0999 V2000
    1.0773    0.0778   -0.0109 C   0  0  0  0  0  0  0  0  0  0  0  0
    1.4010   -5.8453   -2.3473 C   0  0  0  0  0  0  0  0  0  0  0  0
   -1.5960   -4.9832   -0.1265 C   0  0  0  0  0  0  0  0  0  0  0  0
    1.3212   -2.2086    0.8924 C   0  0  0  0  0  0  0  0  0  0  0  0
    4.2944   -6.0304   -0.2092 C   0  0  0  0  0  0  0  0  0  0  0  0
    0.7171   -1.0208    0.9308 C   0  0  0  0  0  0  0  0  0  0  0  0
    1.9345   -5.1805   -1.0770 C   0  0  2  0  0  0  0  0  0  0  0  0
    2.7730   -5.8342    0.0493 C   0  0  2  0  0  0  0  0  0  0  0  0
    0.7130   -4.7312   -0.3117 C   0  0  2  0  0  0  0  0  0  0  0  0
   -0.3467   -0.8173    1.9475 C   0  0  0  0  0  0  0  0  0  0  0  0
    1.1775   -4.6248    1.1499 C   0  0  2  0  0  0  0  0  0  0  0  0
   -0.1162   -3.1522    2.5857 C   0  0  0  0  0  0  0  0  0  0  0  0
   -0.5467   -1.8744    2.8018 N   0  0  0  0  0  0  0  0  0  0  0  0
    0.8915   -3.2867    1.6441 N   0  0  0  0  0  0  0  0  0  0  0  0
   -0.9937    0.2026    2.0158 O   0  0  0  0  0  0  0  0  0  0  0  0
   -0.6615   -4.0897    3.1682 O   0  0  0  0  0  0  0  0  0  0  0  0
    3.3688   -7.6427   -1.5848 O   0  0  0  0  0  0  0  0  0  0  0  0
    4.0848   -5.7584   -3.5680 O   0  0  0  0  0  0  0  0  0  0  0  0
    3.5699   -7.8620   -3.6497 O   0  0  0  0  0  0  0  0  0  0  0  0
   -0.3817   -5.6340   -0.4602 O   0  0  0  0  0  0  0  0  0  0  0  0
    4.5817   -5.8726   -1.6077 O   0  0  0  0  0  0  0  0  0  0  0  0
    2.5899   -4.9016    1.1550 O   0  0  0  0  0  0  0  0  0  0  0  0
    4.4498   -7.1045   -2.6866 P   0  0  0  0  0  0  0  0  0  0  0  0
  6  1  1  0
  6  4  2  0
  7  2  1  6
  8  7  1  0
  8  5  1  6
  9  7  1  0
  9 20  1  1
 10  6  1  0
 11  9  1  0
 11 14  1  6
 13 10  1  0
 13 12  1  0
 14  4  1  0
 14 12  1  0
 15 10  2  0
 16 12  2  0
 20  3  1  0
 21  5  1  0
 22  8  1  0
 22 11  1  0
 23 17  1  0
 23 18  1  0
 23 19  2  0
 23 21  1  0
M  END
>  <DRUGBANK_ID>  (1) 
DB03249

>  <SECONDARY_ACCESSION_NUMBERS>  (1) 
EXPT02991

>  <COMMON_NAME>  (1) 
2'-O-Methyl-3'-Methyl-3'-Deoxy-Arabinofuranosyl-Thymine-5'-Phosphate

$$$$
