
     RDKit          3D

 30 34  0  0  0  0  0  0  0  0999 V2000
    2.5155   -0.0082   -0.0997 C   0  0  0  0  0  0  0  0  0  0  0  0
    0.3944    1.3246    0.0877 C   0  0  0  0  0  0  0  0  0  0  0  0
    0.3338   -1.2379   -0.1618 C   0  0  0  0  0  0  0  0  0  0  0  0
   -1.8431    0.1637   -4.6994 C   0  0  0  0  0  0  0  0  0  0  0  0
    2.2576    4.2231   -9.8908 C   0  0  0  0  0  0  0  0  0  0  0  0
    0.2152    5.0748  -10.8276 C   0  0  0  0  0  0  0  0  0  0  0  0
    2.9838    5.1546  -10.6557 C   0  0  0  0  0  0  0  0  0  0  0  0
    0.9291    6.0871  -11.4874 C   0  0  0  0  0  0  0  0  0  0  0  0
   -1.1242    1.2701    0.3266 C   0  0  0  0  0  0  0  0  0  0  0  0
   -1.1486   -1.2272    0.1968 C   0  0  0  0  0  0  0  0  0  0  0  0
   -1.8259    0.2478   -6.0849 C   0  0  0  0  0  0  0  0  0  0  0  0
   -0.3726    2.1221   -4.5059 C   0  0  0  0  0  0  0  0  0  0  0  0
    0.4150    3.2407   -6.7192 C   0  0  0  0  0  0  0  0  0  0  0  0
   -1.1197    1.0070   -2.4339 C   0  0  0  0  0  0  0  0  0  0  0  0
    1.0746   -0.0127    0.4055 C   0  0  1  0  0  0  0  0  0  0  0  0
   -1.1536    1.1028   -3.9195 C   0  0  0  0  0  0  0  0  0  0  0  0
    0.8699    4.1242  -10.0381 C   0  0  0  0  0  0  0  0  0  0  0  0
    2.3272    6.0852  -11.4802 C   0  0  0  0  0  0  0  0  0  0  0  0
   -0.3470    2.2051   -5.8768 C   0  0  0  0  0  0  0  0  0  0  0  0
   -1.8426    0.0493   -0.3006 C   0  0  2  0  0  0  0  0  0  0  0  0
   -1.0878    1.2684   -6.6452 C   0  0  0  0  0  0  0  0  0  0  0  0
   -0.0252    2.7494   -8.0485 C   0  0  0  0  0  0  0  0  0  0  0  0
    0.1027    3.0494   -9.4116 C   0  0  0  0  0  0  0  0  0  0  0  0
   -0.8528    1.6632   -7.9847 C   0  0  0  0  0  0  0  0  0  0  0  0
    3.1700    6.9914  -12.3305 C   0  0  0  0  0  0  0  0  0  0  0  0
   -1.9671    0.0234   -1.7742 N   0  0  0  0  0  0  0  0  0  0  0  0
   -0.6444    2.1859  -10.1437 N   0  0  0  0  0  0  0  0  0  0  0  0
   -1.1987    1.3350   -9.2377 N   0  0  0  0  0  0  0  0  0  0  0  0
    2.5112    7.8777  -13.1112 O   0  0  0  0  0  0  0  0  0  0  0  0
    4.3839    6.9235  -12.3415 O   0  0  0  0  0  0  0  0  0  0  0  0
  7  5  2  0
  8  6  1  0
  9  2  1  0
 10  3  1  0
 11  4  2  0
 15  1  1  6
 15  2  1  0
 15  3  1  0
 16  4  1  0
 16 12  2  0
 16 14  1  0
 17  5  1  0
 17  6  2  0
 18  7  1  0
 18  8  2  0
 19 12  1  0
 19 13  1  0
 20  9  1  0
 20 10  1  0
 20 26  1  6
 21 11  1  0
 21 19  2  0
 22 13  1  0
 23 17  1  0
 23 22  1  0
 24 21  1  0
 24 22  2  0
 25 18  1  0
 26 14  1  0
 27 23  2  0
 28 24  1  0
 28 27  1  0
 29 25  1  0
 30 25  2  0
M  END
>  <DRUGBANK_ID>  (1) 
DB07320

>  <COMMON_NAME>  (1) 
4-(6-{[(4-METHYLCYCLOHEXYL)AMINO]METHYL}-1,4-DIHYDROINDENO[1,2-C]PYRAZOL-3-YL)BENZOIC ACID

$$$$
