
     RDKit          3D

 21 20  0  0  0  0  0  0  0  0999 V2000
    1.0479   -0.1748    0.0880 O   0  0  0  0  0  0  0  0  0  0  0  0
    1.0670    1.8078   -1.3305 C   0  0  0  0  0  0  0  0  0  0  0  0
    2.6083    1.8270   -1.3976 C   0  0  0  0  0  0  0  0  0  0  0  0
    0.3811    2.4100   -2.5725 C   0  0  0  0  0  0  0  0  0  0  0  0
    0.5464    0.3844   -1.1080 C   0  0  0  0  0  0  0  0  0  0  0  0
    3.1817    0.9936   -2.5469 C   0  0  0  0  0  0  0  0  0  0  0  0
   -1.1260    2.5010   -2.5224 C   0  0  0  0  0  0  0  0  0  0  0  0
    2.8637    1.5434   -3.9340 C   0  0  0  0  0  0  0  0  0  0  0  0
   -1.5431    3.4177   -1.3979 C   0  0  0  0  0  0  0  0  0  0  0  0
    3.2476    3.0230   -4.0365 C   0  0  0  0  0  0  0  0  0  0  0  0
   -0.9765    4.8268   -1.6205 C   0  0  0  0  0  0  0  0  0  0  0  0
    4.7664    3.1061   -4.0396 C   0  0  0  0  0  0  0  0  0  0  0  0
    5.3089    2.2992   -5.2220 C   0  0  0  0  0  0  0  0  0  0  0  0
   -1.4476    5.4183   -2.9584 C   0  0  0  0  0  0  0  0  0  0  0  0
    4.7432    2.8478   -6.5389 C   0  0  0  0  0  0  0  0  0  0  0  0
   -2.9775    5.4790   -3.0257 C   0  0  0  0  0  0  0  0  0  0  0  0
    5.2146    4.2877   -6.7545 C   0  0  0  0  0  0  0  0  0  0  0  0
   -3.5583    6.2932   -1.8682 C   0  0  0  0  0  0  0  0  0  0  0  0
    6.7416    4.3711   -6.7428 C   0  0  0  0  0  0  0  0  0  0  0  0
   -3.0485    7.7248   -1.9089 C   0  0  0  0  0  0  0  0  0  0  0  0
    7.3297    3.4999   -7.8416 C   0  0  0  0  0  0  0  0  0  0  0  0
  1  5  1  0
  2  3  1  0
  2  4  1  0
  2  5  1  0
  3  6  1  0
  4  7  1  0
  6  8  1  0
  7  9  1  0
  8 10  1  0
  9 11  1  0
 10 12  1  0
 11 14  1  0
 12 13  1  0
 13 15  1  0
 14 16  1  0
 15 17  1  0
 16 18  1  0
 17 19  1  0
 18 20  1  0
 19 21  1  0
M  END
>  <DRUGBANK_ID>  (1) 
DB14134

>  <COMMON_NAME>  (1) 
Octyldodecanol

>  <CAS_NUMBER>  (1) 
5333-42-6

>  <UNII>  (1) 
461N1O614Y

>  <SYNONYMS>  (1) 
2-Octyl dodecanol; 2-Octyl-1-dodecanol; 2-Octyldodecyl alcohol; Octyl dodecanol

$$$$
