1206
     RDKit          3D

 15 15  0  0  0  0  0  0  0  0999 V2000
    1.1628   -0.5097    0.1954 Cl  0  0  0  0  0  0  0  0  0  0  0  0
    0.5926    1.8650   -1.3862 O   0  0  0  0  0  0  0  0  0  0  0  0
    4.9650    2.8584   -0.8046 O   0  0  0  0  0  0  0  0  0  0  0  0
    1.1124    3.9189   -0.7833 N   0  0  0  0  0  0  0  0  0  0  0  0
    2.8403    2.2520   -0.9958 N   0  0  0  0  0  0  0  0  0  0  0  0
    3.8603    3.1850   -1.2519 N   0  0  0  0  0  0  0  0  0  0  0  0
    1.9204    5.0592   -0.4085 C   0  0  0  0  0  0  0  0  0  0  0  0
    2.5524    4.8650    0.9752 C   0  0  0  0  0  0  0  0  0  0  0  0
    1.1844    6.4016   -0.4677 C   0  0  0  0  0  0  0  0  0  0  0  0
    3.5905    5.9504    1.2095 C   0  0  0  0  0  0  0  0  0  0  0  0
    2.1866    7.5296   -0.1846 C   0  0  0  0  0  0  0  0  0  0  0  0
    2.9274    7.3211    1.1393 C   0  0  0  0  0  0  0  0  0  0  0  0
    1.5039    2.6424   -1.0855 C   0  0  0  0  0  0  0  0  0  0  0  0
    3.1990    0.8412   -1.1829 C   0  0  0  0  0  0  0  0  0  0  0  0
    2.8727   -0.0882   -0.0124 C   0  0  0  0  0  0  0  0  0  0  0  0
  1 15  1  0
  2 13  2  0
  3  6  2  0
  4  7  1  0
  4 13  1  0
  5  6  1  0
  5 13  1  0
  5 14  1  0
  7  8  1  0
  7  9  1  0
  8 10  1  0
  9 11  1  0
 10 12  1  0
 11 12  1  0
 14 15  1  0
M  END
>  <DRUGBANK_ID>  (1) 
DB01206

>  <SECONDARY_ACCESSION_NUMBERS>  (1) 
APRD00292

>  <COMMON_NAME>  (1) 
Lomustine

>  <CAS_NUMBER>  (1) 
13010-47-4

>  <UNII>  (1) 
7BRF0Z81KG

>  <SYNONYMS>  (1) 
1-(2-Chloroethyl)-3-cyclohexyl-1-nitrosourea; 1-(2-chloroethyl)-3-cyclohexylnitrosourea; Chloroethylcyclohexylnitrosourea; CINU; Cyclohexyl chloroethyl nitrosourea; Lomustina; Lomustine; Lomustinum; N-(2-chloroethyl)-N'-cyclohexyl-N-nitrosourea

$$$$
