
     RDKit          3D

 24 24  0  0  1  0  0  0  0  0999 V2000
    0.9756    0.2003   -0.0064 C   0  0  0  0  0  0  0  0  0  0  0  0
   -5.1615   -4.3231   -2.4148 C   0  0  0  0  0  0  0  0  0  0  0  0
    0.5690   -0.8421   -1.0320 C   0  0  0  0  0  0  0  0  0  0  0  0
    1.0828   -2.2240   -0.6231 C   0  0  0  0  0  0  0  0  0  0  0  0
    0.4742   -2.7013    0.7053 C   0  0  0  0  0  0  0  0  0  0  0  0
   -3.6945   -6.3438    0.2443 C   0  0  0  0  0  0  0  0  0  0  0  0
   -3.0650   -3.0720    2.0343 C   0  0  0  0  0  0  0  0  0  0  0  0
   -2.6322   -5.9742    2.4586 C   0  0  0  0  0  0  0  0  0  0  0  0
   -4.6131   -4.6780   -1.0641 C   0  0  0  0  0  0  0  0  0  0  0  0
   -3.3715   -5.4496    1.2622 C   0  0  0  0  0  0  0  0  0  0  0  0
   -3.6841   -4.0801    1.0899 C   0  0  0  0  0  0  0  0  0  0  0  0
   -1.0579   -2.7410    0.6217 C   0  0  1  0  0  0  0  0  0  0  0  0
   -4.3346   -3.7025   -0.0972 C   0  0  0  0  0  0  0  0  0  0  0  0
   -1.2940   -3.8085   -0.4516 C   0  0  0  0  0  0  0  0  0  0  0  0
   -4.3085   -5.9893   -0.8971 N   0  0  0  0  0  0  0  0  0  0  0  0
   -1.5975   -3.0761    1.9605 N   0  0  0  0  0  0  0  0  0  0  0  0
   -4.5947   -2.4018   -0.4251 O   0  0  0  0  0  0  0  0  0  0  0  0
   -1.0956   -5.0101   -0.3173 O   0  0  0  0  0  0  0  0  0  0  0  0
   -1.6006   -3.3002   -1.6605 O   0  0  0  0  0  0  0  0  0  0  0  0
   -5.5012   -7.6840    3.7360 O   0  0  0  0  0  0  0  0  0  0  0  0
   -4.4222   -5.8674    4.9688 O   0  0  0  0  0  0  0  0  0  0  0  0
   -6.3841   -5.5007    3.7560 O   0  0  0  0  0  0  0  0  0  0  0  0
   -3.4708   -6.8721    3.1400 O   0  0  0  0  0  0  0  0  0  0  0  0
   -5.0081   -6.1484    3.4651 P   0  0  0  0  0  0  0  0  0  0  0  0
  3  1  1  0
  4  3  1  0
  5  4  1  0
  9  2  1  0
 10  6  2  0
 10  8  1  0
 11  7  1  0
 11 10  1  0
 12  5  1  1
 12 16  1  0
 13  9  1  0
 13 11  2  0
 14 12  1  0
 15  6  1  0
 15  9  2  0
 16  7  1  0
 17 13  1  0
 18 14  2  0
 19 14  1  0
 23  8  1  0
 24 20  1  0
 24 21  1  0
 24 22  2  0
 24 23  1  0
M  END
>  <DRUGBANK_ID>  (1) 
DB02981

>  <SECONDARY_ACCESSION_NUMBERS>  (1) 
EXPT02715

>  <COMMON_NAME>  (1) 
Vitamin B6 Complexed with 2-Amino-Hexanoic Acid

$$$$
