
     RDKit          3D

 32 31  0  0  1  0  0  0  0  0999 V2000
    1.1005    0.0257   -0.1224 C   0  0  0  0  0  0  0  0  0  0  0  0
   -2.0661    3.3559   20.6027 C   0  0  0  0  0  0  0  0  0  0  0  0
    0.6528   -1.1753    0.6945 C   0  0  0  0  0  0  0  0  0  0  0  0
   -1.2708    3.7847   19.3806 C   0  0  0  0  0  0  0  0  0  0  0  0
    1.1515   -1.0532    2.1350 C   0  0  0  0  0  0  0  0  0  0  0  0
   -0.9486    2.5726   18.5056 C   0  0  0  0  0  0  0  0  0  0  0  0
    0.5994    0.2086    2.8074 C   0  0  0  0  0  0  0  0  0  0  0  0
   -2.2290    1.8841   18.0200 C   0  0  0  0  0  0  0  0  0  0  0  0
   -0.9331    0.1893    2.8152 C   0  0  0  0  0  0  0  0  0  0  0  0
   -3.0918    2.8598   17.2135 C   0  0  0  0  0  0  0  0  0  0  0  0
   -1.4369   -1.0232    3.6035 C   0  0  0  0  0  0  0  0  0  0  0  0
   -2.3156    3.3471   15.9862 C   0  0  0  0  0  0  0  0  0  0  0  0
   -0.9308   -0.9451    5.0466 C   0  0  0  0  0  0  0  0  0  0  0  0
   -1.9494    2.1510   15.0998 C   0  0  0  0  0  0  0  0  0  0  0  0
   -1.4466    0.3418    5.6972 C   0  0  0  0  0  0  0  0  0  0  0  0
   -3.2296    1.4540   14.6395 C   0  0  0  0  0  0  0  0  0  0  0  0
   -2.9800    0.3391    5.6786 C   0  0  0  0  0  0  0  0  0  0  0  0
   -4.1013    2.4725   13.8949 C   0  0  0  0  0  0  0  0  0  0  0  0
   -3.5021   -0.8813    6.4430 C   0  0  0  0  0  0  0  0  0  0  0  0
   -3.3283    3.0735   12.7040 C   0  0  0  0  0  0  0  0  0  0  0  0
   -2.9704   -0.8452    7.8661 C   0  0  0  0  0  0  0  0  0  0  0  0
   -2.9797    1.9914   11.7254 C   0  0  0  0  0  0  0  0  0  0  0  0
   -3.4320    0.4335    8.5408 C   0  0  0  0  0  0  0  0  0  0  0  0
   -4.2851    1.3946   11.3162 C   0  0  0  0  0  0  0  0  0  0  0  0
   -5.5534   -0.8703    9.3904 C   0  0  0  0  0  0  0  0  0  0  0  0
   -4.9673    0.4164    8.7455 C   0  0  1  0  0  0  0  0  0  0  0  0
   -5.1594   -1.2117   10.8111 C   0  0  0  0  0  0  0  0  0  0  0  0
   -5.2469    2.1861   10.4884 C   0  0  0  0  0  0  0  0  0  0  0  0
   -5.8891   -1.0959   11.7822 O   0  0  0  0  0  0  0  0  0  0  0  0
   -3.8356   -1.4636   10.9659 O   0  0  0  0  0  0  0  0  0  0  0  0
   -5.8079    3.1844   10.8879 O   0  0  0  0  0  0  0  0  0  0  0  0
   -5.4979    1.6656    9.2637 O   0  0  0  0  0  0  0  0  0  0  0  0
  3  1  1  0
  4  2  1  0
  5  3  1  0
  6  4  1  0
  7  5  1  0
  8  6  1  0
  9  7  1  0
 10  8  1  0
 11  9  1  0
 12 10  1  0
 13 11  1  0
 14 12  1  0
 15 13  1  0
 16 14  1  0
 17 15  1  0
 18 16  1  0
 19 17  1  0
 20 18  1  0
 21 19  1  0
 22 20  1  0
 23 21  1  0
 24 22  1  0
 26 23  1  1
 26 25  1  0
 26 32  1  0
 27 25  1  0
 28 24  1  0
 29 27  2  0
 30 27  1  0
 31 28  2  0
 32 28  1  0
M  END
>  <DRUGBANK_ID>  (1) 
DB01814

>  <SECONDARY_ACCESSION_NUMBERS>  (1) 
EXPT02033

>  <COMMON_NAME>  (1) 
2-Tridecanoyloxy-Pentadecanoic Acid

$$$$
