
     RDKit          3D

 19 20  0  0  0  0  0  0  0  0999 V2000
    1.7044    0.8159   -0.6594 C   0  0  0  0  0  0  0  0  0  0  0  0
   -0.6963    1.7656   -0.5815 C   0  0  0  0  0  0  0  0  0  0  0  0
   -3.8681   -3.6341    4.1216 C   0  0  0  0  0  0  0  0  0  0  0  0
   -2.8627   -4.3588    3.5067 C   0  0  0  0  0  0  0  0  0  0  0  0
   -3.6307   -2.3211    4.5343 C   0  0  0  0  0  0  0  0  0  0  0  0
    0.7621   -3.2251    0.2211 C   0  0  0  0  0  0  0  0  0  0  0  0
    0.3846   -2.1099   -0.4134 C   0  0  0  0  0  0  0  0  0  0  0  0
   -1.6039   -3.7974    3.3929 C   0  0  0  0  0  0  0  0  0  0  0  0
   -2.3832   -1.7257    4.3301 C   0  0  0  0  0  0  0  0  0  0  0  0
    0.8238   -3.1740    1.6168 C   0  0  0  0  0  0  0  0  0  0  0  0
   -0.0149   -0.9926    0.3344 C   0  0  0  0  0  0  0  0  0  0  0  0
    1.0928    2.5166    0.7984 C   0  0  0  0  0  0  0  0  0  0  0  0
    0.4680    1.7867    2.0379 C   0  0  0  0  0  0  0  0  0  0  0  0
    0.0927   -1.9524    3.7623 C   0  0  0  0  0  0  0  0  0  0  0  0
   -1.3269   -2.4929    3.8313 C   0  0  0  0  0  0  0  0  0  0  0  0
    0.5761   -1.9503    2.3272 C   0  0  0  0  0  0  0  0  0  0  0  0
    0.3583   -0.7801    1.6606 C   0  0  0  0  0  0  0  0  0  0  0  0
    0.7812    1.9609   -0.5241 N   0  0  0  0  0  0  0  0  0  0  0  0
    0.6664    0.3809    2.3219 O   0  0  0  0  0  0  0  0  0  0  0  0
  4  3  2  0
  5  3  1  0
  7  6  2  0
  8  4  1  0
  9  5  2  0
 10  6  1  0
 11  7  1  0
 13 12  1  0
 15  8  2  0
 15  9  1  0
 15 14  1  0
 16 10  2  0
 16 14  1  0
 17 11  2  0
 17 16  1  0
 18  1  1  0
 18  2  1  0
 18 12  1  0
 19 13  1  0
 19 17  1  0
M  END
>  <DRUGBANK_ID>  (1) 
DB11160

>  <COMMON_NAME>  (1) 
Phenyltoloxamine

>  <CAS_NUMBER>  (1) 
92-12-6

>  <UNII>  (1) 
K65LB6598J

>  <SYNONYMS>  (1) 
Feniltoloxamina; Phenyltoloxamine; Phenyltoloxaminum

$$$$
