
     RDKit          3D

 24 26  0  0  0  0  0  0  0  0999 V2000
    0.9470   -0.0585    0.0138 C   0  0  0  0  0  0  0  0  0  0  0  0
    0.3205    0.5349    1.1571 O   0  0  0  0  0  0  0  0  0  0  0  0
    0.8503    0.2043    2.3593 C   0  0  0  0  0  0  0  0  0  0  0  0
    2.0813   -0.1830    2.5624 N   0  0  0  0  0  0  0  0  0  0  0  0
    2.4106   -0.4960    3.8733 C   0  0  0  0  0  0  0  0  0  0  0  0
    1.5447   -0.5041    4.8969 C   0  0  0  0  0  0  0  0  0  0  0  0
    1.9362   -0.8026    6.1509 F   0  0  0  0  0  0  0  0  0  0  0  0
    0.1983   -0.1861    4.6471 C   0  0  0  0  0  0  0  0  0  0  0  0
   -0.8993   -0.2780    5.3478 N   0  0  0  0  0  0  0  0  0  0  0  0
   -1.8545    0.3476    4.5666 C   0  0  0  0  0  0  0  0  0  0  0  0
   -1.4188    0.6321    3.3102 N   0  0  0  0  0  0  0  0  0  0  0  0
   -0.1057    0.2589    3.3886 N   0  0  0  0  0  0  0  0  0  0  0  0
   -3.4743    0.7135    5.2626 S   0  0  0  0  0  0  0  0  0  0  0  0
   -3.6859    2.1314    5.0153 O   0  0  0  0  0  0  0  0  0  0  0  0
   -4.3477   -0.2757    4.6705 O   0  0  0  0  0  0  0  0  0  0  0  0
   -3.5847    0.5175    6.9501 N   0  0  0  0  0  0  0  0  0  0  0  0
   -2.4763    0.1007    7.7523 C   0  0  0  0  0  0  0  0  0  0  0  0
   -1.2569    0.7768    7.7002 C   0  0  0  0  0  0  0  0  0  0  0  0
   -1.1304    1.8669    6.9266 F   0  0  0  0  0  0  0  0  0  0  0  0
   -0.1220    0.2823    8.3402 C   0  0  0  0  0  0  0  0  0  0  0  0
   -0.2209   -0.8389    9.1586 C   0  0  0  0  0  0  0  0  0  0  0  0
   -1.4612   -1.4537    9.3313 C   0  0  0  0  0  0  0  0  0  0  0  0
   -2.5750   -0.9905    8.6210 C   0  0  0  0  0  0  0  0  0  0  0  0
   -3.7481   -1.6198    8.7897 F   0  0  0  0  0  0  0  0  0  0  0  0
  1  2  1  0
  2  3  1  0
  3  4  2  0
  3 12  1  0
  4  5  1  0
  5  6  2  0
  6  7  1  0
  6  8  1  0
  8  9  2  0
  8 12  1  0
  9 10  1  0
 10 11  2  0
 10 13  1  0
 11 12  1  0
 13 14  2  0
 13 15  2  0
 13 16  1  0
 16 17  1  0
 17 18  2  0
 17 23  1  0
 18 19  1  0
 18 20  1  0
 20 21  2  0
 21 22  1  0
 22 23  2  0
 23 24  1  0
M  END
>  <DRUGBANK_ID>  (1) 
DB15316

>  <COMMON_NAME>  (1) 
Florasulam

>  <CAS_NUMBER>  (1) 
145701-23-1

>  <UNII>  (1) 
00A64ZX8NB

>  <SYNONYMS>  (1) 
PRIMUS

$$$$
