
     RDKit          3D

 17 17  0  0  0  0  0  0  0  0999 V2000
    1.0738   -0.2887   -0.2542 C   0  0  0  0  0  0  0  0  0  0  0  0
    3.5138    3.3512    2.4339 C   0  0  0  0  0  0  0  0  0  0  0  0
   -0.1152    2.7312    6.9132 C   0  0  0  0  0  0  0  0  0  0  0  0
    2.8091    3.0770    7.4228 C   0  0  0  0  0  0  0  0  0  0  0  0
    0.5760   -0.7231    1.1156 C   0  0  0  0  0  0  0  0  0  0  0  0
    1.0143    0.2915    2.1184 C   0  0  0  0  0  0  0  0  0  0  0  0
    0.4392    1.6313    1.7336 C   0  0  0  0  0  0  0  0  0  0  0  0
   -1.0318    1.9345    1.9381 C   0  0  0  0  0  0  0  0  0  0  0  0
   -1.3879    1.8434    3.4267 C   0  0  0  0  0  0  0  0  0  0  0  0
    1.2704    3.7222    3.5669 C   0  0  0  0  0  0  0  0  0  0  0  0
    2.6544    3.4572    3.6761 C   0  0  0  0  0  0  0  0  0  0  0  0
    0.8653    2.9528    5.7932 C   0  0  0  0  0  0  0  0  0  0  0  0
    2.2693    3.0508    6.0267 C   0  0  0  0  0  0  0  0  0  0  0  0
    0.3808    3.1729    4.5137 C   0  0  0  0  0  0  0  0  0  0  0  0
    3.1477    3.2034    4.9349 C   0  0  0  0  0  0  0  0  0  0  0  0
    4.4982    3.1370    5.1653 O   0  0  0  0  0  0  0  0  0  0  0  0
   -0.9594    3.0011    4.2147 O   0  0  0  0  0  0  0  0  0  0  0  0
  5  1  1  0
  6  5  1  0
  7  6  1  0
  8  7  1  0
  9  8  1  0
 11  2  1  0
 11 10  2  0
 12  3  1  0
 13  4  1  0
 13 12  1  0
 14 10  1  0
 14 12  2  0
 15 11  1  0
 15 13  2  0
 16 15  1  0
 17  9  1  0
 17 14  1  0
M  END
>  <DRUGBANK_ID>  (1) 
DB12162

>  <COMMON_NAME>  (1) 
HX-1171

>  <CAS_NUMBER>  (1) 
148081-72-5

>  <UNII>  (1) 
70BK60I8RP

$$$$
