
     RDKit          3D

 31 34  0  0  1  0  0  0  0  0999 V2000
   -2.1769   -0.1749   -0.1048 C   0  0  0  0  0  0  0  0  0  0  0  0
   -1.1383   -0.0811    0.9811 C   0  0  1  0  0  0  0  0  0  0  0  0
   -0.1269   -1.2419    0.7187 C   0  0  0  0  0  0  0  0  0  0  0  0
    0.8763   -1.0543   -0.3639 N   0  0  0  0  0  0  0  0  0  0  0  0
    1.6280    0.1608   -0.0458 C   0  0  0  0  0  0  0  0  0  0  0  0
    0.6972    1.3703    0.1943 C   0  0  0  0  0  0  0  0  0  0  0  0
   -0.4543    1.2377    1.1017 N   0  0  0  0  0  0  0  0  0  0  0  0
    0.5154   -1.2636   -1.8163 C   0  0  0  0  0  0  0  0  0  0  0  0
   -0.2947   -0.2218   -2.6401 C   0  0  0  0  0  0  0  0  0  0  0  0
    0.1446    1.1063   -2.7270 C   0  0  0  0  0  0  0  0  0  0  0  0
   -0.8034    2.1488   -2.6257 C   0  0  0  0  0  0  0  0  0  0  0  0
   -2.1694    1.8834   -2.7960 C   0  0  0  0  0  0  0  0  0  0  0  0
   -2.5767    0.5659   -3.0672 C   0  0  0  0  0  0  0  0  0  0  0  0
   -1.6451   -0.4884   -2.9915 C   0  0  0  0  0  0  0  0  0  0  0  0
   -3.1309    3.0163   -2.9794 C   0  0  0  0  0  0  0  0  0  0  0  0
   -3.6234    3.0723   -4.4220 C   0  0  0  0  0  0  0  0  0  0  0  0
   -4.8494    3.1348   -4.6526 O   0  0  0  0  0  0  0  0  0  0  0  0
   -2.6750    3.2037   -5.4336 N   0  0  0  0  0  0  0  0  0  0  0  0
   -2.9915    3.9668   -6.6173 C   0  0  0  0  0  0  0  0  0  0  0  0
   -3.0186    3.0848   -7.8544 C   0  0  0  0  0  0  0  0  0  0  0  0
   -1.7303    2.2612   -8.0007 C   0  0  0  0  0  0  0  0  0  0  0  0
   -1.4571    1.4797   -6.7357 C   0  0  0  0  0  0  0  0  0  0  0  0
   -1.4306    2.4461   -5.5696 C   0  0  0  0  0  0  0  0  0  0  0  0
   -1.9017    1.3649   -9.1252 N   0  0  0  0  0  0  0  0  0  0  0  0
   -1.0057    1.3161  -10.1705 C   0  0  0  0  0  0  0  0  0  0  0  0
    0.3641    1.1087   -9.9778 C   0  0  0  0  0  0  0  0  0  0  0  0
    1.2341    1.0009  -11.0679 C   0  0  0  0  0  0  0  0  0  0  0  0
    0.7348    1.0894  -12.3646 C   0  0  0  0  0  0  0  0  0  0  0  0
   -0.6274    1.2767  -12.5558 C   0  0  0  0  0  0  0  0  0  0  0  0
   -1.4899    1.4169  -11.4756 C   0  0  0  0  0  0  0  0  0  0  0  0
   -1.1232    1.2927  -13.8001 F   0  0  0  0  0  0  0  0  0  0  0  0
  2  1  1  6
  2  3  1  0
  2  7  1  0
  3  4  1  0
  4  5  1  0
  4  8  1  0
  5  6  1  0
  6  7  1  0
  8  9  1  0
  9 10  2  0
  9 14  1  0
 10 11  1  0
 11 12  2  0
 12 13  1  0
 12 15  1  0
 13 14  2  0
 15 16  1  0
 16 17  2  0
 16 18  1  0
 18 19  1  0
 18 23  1  0
 19 20  1  0
 20 21  1  0
 21 22  1  0
 21 24  1  0
 22 23  1  0
 24 25  1  0
 25 26  2  0
 25 30  1  0
 26 27  1  0
 27 28  2  0
 28 29  1  0
 29 30  2  0
 29 31  1  0
M  END
>  <DRUGBANK_ID>  (1) 
DB12567

>  <COMMON_NAME>  (1) 
Camicinal

>  <CAS_NUMBER>  (1) 
923565-21-3

>  <UNII>  (1) 
3C8348951H

>  <SYNONYMS>  (1) 
Camicinal

$$$$
