BB2
     RDKit          3D

 27 27  0  0  0  0  0  0  0  0999 V2000
    1.0344   -2.0255    1.6349 C   0  0  0  0  0  0  0  0  0  0  0  0
    2.5324   -1.6746    1.8572 C   0  0  0  0  0  0  0  0  0  0  0  0
    3.2195   -1.0058    1.0894 O   0  0  0  0  0  0  0  0  0  0  0  0
    3.0963   -2.0250    3.0524 N   0  0  0  0  0  0  0  0  0  0  0  0
    2.3582   -2.4674    4.1613 O   0  0  0  0  0  0  0  0  0  0  0  0
    0.4227   -1.5087    0.3341 C   0  0  2  0  0  0  0  0  0  0  0  0
    0.9835   -0.1842    0.0101 C   0  0  0  0  0  0  0  0  0  0  0  0
    1.4751    0.0303   -1.1148 O   0  0  0  0  0  0  0  0  0  0  0  0
   -1.1000   -1.3647    0.2801 C   0  0  0  0  0  0  0  0  0  0  0  0
   -1.5753   -0.9200   -1.1223 C   0  0  0  0  0  0  0  0  0  0  0  0
   -1.1354   -1.8937   -2.2234 C   0  0  0  0  0  0  0  0  0  0  0  0
   -1.6203   -3.3173   -1.9486 C   0  0  0  0  0  0  0  0  0  0  0  0
   -3.1387   -3.3686   -1.9048 C   0  0  0  0  0  0  0  0  0  0  0  0
    1.0985    0.7617    0.9576 N   0  0  0  0  0  0  0  0  0  0  0  0
    0.5495    1.1175    2.2903 C   0  0  1  0  0  0  0  0  0  0  0  0
    1.4517    0.7649    3.5208 C   0  0  0  0  0  0  0  0  0  0  0  0
    2.7354    1.5373    3.7578 C   0  0  0  0  0  0  0  0  0  0  0  0
    0.6717    0.7332    4.8284 C   0  0  0  0  0  0  0  0  0  0  0  0
    0.0350    2.5946    2.4310 C   0  0  0  0  0  0  0  0  0  0  0  0
   -1.1459    2.7678    2.7566 O   0  0  0  0  0  0  0  0  0  0  0  0
    0.9580    3.6305    2.4996 N   0  0  0  0  0  0  0  0  0  0  0  0
    2.0652    4.0324    1.6157 C   0  0  1  0  0  0  0  0  0  0  0  0
    0.8586    4.6220    3.5698 C   0  0  0  0  0  0  0  0  0  0  0  0
    2.2112    5.3618    3.5572 C   0  0  0  0  0  0  0  0  0  0  0  0
    3.0933    4.5916    2.5863 C   0  0  0  0  0  0  0  0  0  0  0  0
    2.6964    3.0520    0.6782 C   0  0  0  0  0  0  0  0  0  0  0  0
    1.7746    2.7756   -0.3607 O   0  0  0  0  0  0  0  0  0  0  0  0
  1  2  1  0
  2  3  2  0
  2  4  1  0
  4  5  1  0
  6  9  1  1
  6  7  1  0
  6  1  1  0
  7  8  2  0
  7 14  1  0
  9 10  1  0
 10 11  1  0
 11 12  1  0
 12 13  1  0
 15 14  1  6
 15 16  1  0
 15 19  1  0
 16 17  1  0
 16 18  1  0
 19 20  2  0
 19 21  1  0
 21 22  1  0
 21 23  1  0
 22 25  1  0
 22 26  1  1
 23 24  1  0
 24 25  1  0
 26 27  1  0
M  END
>  <DRUGBANK_ID>  (1) 
DB04310

>  <SECONDARY_ACCESSION_NUMBERS>  (1) 
EXPT00630

>  <COMMON_NAME>  (1) 
2-[(Formyl-Hydroxy-Amino)-Methyl]-Heptanoic Acid [1-(2-Hydroxymethyl-Pyrrolidine-1-Carbonyl)-2-Methyl-Propyl]-Amide

>  <CAS_NUMBER>  (1) 
13434-13-4

>  <UNII>  (1) 
P18SPA8N0K

$$$$
