
     RDKit          3D

 23 24  0  0  1  0  0  0  0  0999 V2000
    1.2218   -1.2163   -0.2808 C   0  0  2  0  0  0  0  0  0  0  0  0
    1.1566   -1.7102    1.1483 O   0  0  0  0  0  0  0  0  0  0  0  0
    2.1486    0.0211   -0.5302 O   0  0  0  0  0  0  0  0  0  0  0  0
   -0.1577   -0.9323   -0.8880 C   0  0  2  0  0  0  0  0  0  0  0  0
    1.6808   -2.3846   -1.1869 C   0  0  0  0  0  0  0  0  0  0  0  0
    0.5774   -1.1128    2.3908 C   0  0  1  0  0  0  0  0  0  0  0  0
    1.3684    1.3048   -0.7626 C   0  0  1  0  0  0  0  0  0  0  0  0
   -0.0642    0.5672   -0.7326 C   0  0  1  0  0  0  0  0  0  0  0  0
   -1.1069   -1.8792   -0.3491 O   0  0  0  0  0  0  0  0  0  0  0  0
    1.6729   -1.9994   -2.5764 O   0  0  0  0  0  0  0  0  0  0  0  0
    1.3112   -0.0690    3.0482 O   0  0  0  0  0  0  0  0  0  0  0  0
   -0.9386   -0.7416    2.4901 C   0  0  1  0  0  0  0  0  0  0  0  0
    1.7852    2.8890    0.1679 C   0  0  0  0  0  0  0  0  0  0  0  0
   -1.2826    1.1897   -1.0493 O   0  0  0  0  0  0  0  0  0  0  0  0
    1.4191    0.9602    2.1112 C   0  0  1  0  0  0  0  0  0  0  0  0
   -1.3981    0.5159    1.7208 C   0  0  2  0  0  0  0  0  0  0  0  0
   -1.6865   -1.9165    2.1452 O   0  0  0  0  0  0  0  0  0  0  0  0
    3.1049    3.4645    0.0336 O   0  0  0  0  0  0  0  0  0  0  0  0
   -0.2361    1.6917    1.7369 C   0  0  2  0  0  0  0  0  0  0  0  0
    2.9140    1.5393    2.0933 C   0  0  0  0  0  0  0  0  0  0  0  0
   -2.7007    1.0470    1.9830 O   0  0  0  0  0  0  0  0  0  0  0  0
   -0.5611    2.7066    0.6760 O   0  0  0  0  0  0  0  0  0  0  0  0
    4.0899    0.8021    2.3319 O   0  0  0  0  0  0  0  0  0  0  0  0
  1  2  1  0
  1  3  1  0
  1  4  1  0
  1  5  1  6
  3  7  1  0
  4  8  1  0
  4  9  1  1
  5 10  1  0
  6  2  1  6
  6 11  1  0
  6 12  1  0
  7 13  1  1
  7  8  1  0
  8 14  1  6
 11 15  1  0
 12 16  1  0
 12 17  1  6
 13 18  1  0
 15 19  1  0
 15 20  1  1
 16 21  1  1
 16 19  1  0
 19 22  1  6
 20 23  1  0
M  END
>  <DRUGBANK_ID>  (1) 
DB02772

>  <SECONDARY_ACCESSION_NUMBERS>  (1) 
EXPT02977

>  <COMMON_NAME>  (1) 
Sucrose

>  <CAS_NUMBER>  (1) 
57-50-1

>  <UNII>  (1) 
C151H8M554

>  <SYNONYMS>  (1) 
1-alpha-D-Glucopyranosyl-2-beta-D-fructofuranoside; Beet sugar; Cane sugar; Sacarosa; Saccharose; Sacharose; Sucraloxum; Sucrose; Table sugar; White sugar

$$$$
