
     RDKit          3D

 22 22  0  0  0  0  0  0  0  0999 V2000
    1.0798   -0.1889    0.6839 C   0  0  0  0  0  0  0  0  0  0  0  0
    0.2638    0.9839    1.1551 C   0  0  0  0  0  0  0  0  0  0  0  0
   -0.9615    0.8353    1.7450 C   0  0  0  0  0  0  0  0  0  0  0  0
   -1.6898    2.0050    1.9435 C   0  0  0  0  0  0  0  0  0  0  0  0
   -1.1181    3.1901    1.4730 C   0  0  0  0  0  0  0  0  0  0  0  0
    0.5054   -1.1898    0.3458 O   0  0  0  0  0  0  0  0  0  0  0  0
    0.4744    2.2369    0.6277 C   0  0  0  0  0  0  0  0  0  0  0  0
    0.1938    3.4029    1.2156 C   0  0  0  0  0  0  0  0  0  0  0  0
    2.4363   -0.0251    0.4304 O   0  0  0  0  0  0  0  0  0  0  0  0
   -1.8732    4.1110    0.7242 N   0  0  0  0  0  0  0  0  0  0  0  0
    1.8081    2.5793   -1.2892 N   0  0  0  0  0  0  0  0  0  0  0  0
   -2.8754    1.9615    2.5931 O   0  0  0  0  0  0  0  0  0  0  0  0
    3.2061    1.2112    0.5000 C   0  0  0  0  0  0  0  0  0  0  0  0
    3.1043    2.2769   -0.6811 C   0  0  0  0  0  0  0  0  0  0  0  0
    1.4369    3.9390   -1.6664 C   0  0  0  0  0  0  0  0  0  0  0  0
    0.9926    1.4375   -1.7453 C   0  0  0  0  0  0  0  0  0  0  0  0
   -3.5629    3.1674    3.0051 C   0  0  0  0  0  0  0  0  0  0  0  0
   -2.8301    4.2955    3.8319 C   0  0  0  0  0  0  0  0  0  0  0  0
   -1.9010    5.3155    3.1039 C   0  0  0  0  0  0  0  0  0  0  0  0
    1.5942    3.8713   -3.1366 C   0  0  0  0  0  0  0  0  0  0  0  0
    1.1885    0.7080   -2.9939 C   0  0  0  0  0  0  0  0  0  0  0  0
   -2.6308    6.1797    1.9056 C   0  0  0  0  0  0  0  0  0  0  0  0
  2  1  1  0
  3  2  2  0
  4  3  1  0
  5  8  1  0
  5  4  2  0
  6  1  2  0
  7  2  1  0
  8  7  2  0
  9  1  1  0
 10  5  1  0
 11 14  1  0
 12  4  1  0
 13  9  1  0
 14 13  1  0
 15 11  1  0
 16 11  1  0
 17 12  1  0
 18 17  1  0
 19 18  1  0
 20 15  1  0
 21 16  1  0
 22 19  1  0
M  END
>  <DRUGBANK_ID>  (1) 
DB00892

>  <SECONDARY_ACCESSION_NUMBERS>  (1) 
APRD00817

>  <COMMON_NAME>  (1) 
Oxybuprocaine

>  <CAS_NUMBER>  (1) 
99-43-4

>  <UNII>  (1) 
AXQ0JYM303

>  <SYNONYMS>  (1) 
4-Amino-3-butoxy-2-(diethylamino)ethyl ester benzoic acid; 4-Amino-3-butoxy-benzoic acid 2-diethylamino-ethyl ester; 4-Amino-3-n-butoxy-benzoesäure-diäthylaminoäthylester; Benoxinate; BNX; Butoxyaminobenzoyldiethylaminoethanol; Oxibuprocaina; Oxybucaine; Oxybuprocaine; Oxybuprocainum; Oxyriprocaine

$$$$
