534
     RDKit          3D

 11 10  0  0  1  0  0  0  0  0999 V2000
    0.9175   -0.0179   -0.0535 Hg  0  0  0  0  0  2  0  0  0  0  0  0
   -1.4225   -0.0179   -0.0535 Cl  0  0  0  0  0  0  0  0  0  0  0  0
    3.0308    2.3718    0.1786 O   0  0  0  0  0  0  0  0  0  0  0  0
    6.7829   -0.5017   -3.3358 O   0  0  0  0  0  0  0  0  0  0  0  0
    5.5141    0.1864   -1.4487 N   0  0  0  0  0  0  0  0  0  0  0  0
    6.7144    1.8437   -2.9638 N   0  0  0  0  0  0  0  0  0  0  0  0
    3.5041    1.2980   -0.6210 C   0  0  0  0  0  0  0  0  0  0  0  0
    5.0241    1.2980   -0.6210 C   0  0  0  0  0  0  0  0  0  0  0  0
    2.9975   -0.0179   -0.0535 C   0  0  0  0  0  0  0  0  0  0  0  0
    6.3592    0.4593   -2.6201 C   0  0  0  0  0  0  0  0  0  0  0  0
    1.6108    2.3718    0.1786 C   0  0  0  0  0  0  0  0  0  0  0  0
  1  2  1  0
  1  9  1  0
  3  7  1  0
  3 11  1  0
  4 10  2  0
  5  8  1  0
  5 10  1  0
  6 10  1  0
  7  8  1  0
  7  9  1  0
M  END
>  <DRUGBANK_ID>  (1) 
DB00534

>  <SECONDARY_ACCESSION_NUMBERS>  (1) 
APRD00864

>  <COMMON_NAME>  (1) 
Chlormerodrin

>  <CAS_NUMBER>  (1) 
62-37-3

>  <UNII>  (1) 
99T5TWO621

>  <SYNONYMS>  (1) 
{3-[(aminocarbonyl)amino]-2-methoxypropyl}chloromercury; 1-[3-(chloromercuri)-2-methoxypropyl]urea; Chlormerodrin; Chlormerodrina; Chlormerodrine; Chlormerodrinum

$$$$
