669
     RDKit          3D

 30 32  0  0  0  0  0  0  0  0999 V2000
    1.0054    0.1291   -0.2514 O   0  0  0  0  0  0  0  0  0  0  0  0
    0.4511   -0.9196   -0.8877 C   0  0  0  0  0  0  0  0  0  0  0  0
    1.1322   -1.7894   -1.3988 O   0  0  0  0  0  0  0  0  0  0  0  0
   -1.0339   -0.8820   -0.8545 C   0  0  0  0  0  0  0  0  0  0  0  0
   -1.5455   -1.0008    0.5600 C   0  0  0  0  0  0  0  0  0  0  0  0
   -1.1966    0.1203    1.5411 C   0  0  0  0  0  0  0  0  0  0  0  0
   -1.8021    1.4437    1.0744 C   0  0  0  0  0  0  0  0  0  0  0  0
   -3.3400    1.4111    1.0975 C   0  0  0  0  0  0  0  0  0  0  0  0
   -3.8914    1.1797    2.4334 N   0  0  0  0  0  0  0  0  0  0  0  0
   -4.0856   -0.0562    3.0802 C   0  0  0  0  0  0  0  0  0  0  0  0
   -4.4369    0.2660    4.3807 C   0  0  0  0  0  0  0  0  0  0  0  0
   -4.7194    1.6425    4.4511 C   0  0  0  0  0  0  0  0  0  0  0  0
   -5.2571    2.4384    5.4719 C   0  0  0  0  0  0  0  0  0  0  0  0
   -5.4016    3.8112    5.2656 C   0  0  0  0  0  0  0  0  0  0  0  0
   -5.7053    4.5061    6.4113 O   0  0  0  0  0  0  0  0  0  0  0  0
   -5.5145    5.9176    6.3753 C   0  0  0  0  0  0  0  0  0  0  0  0
   -4.0953    6.4442    6.1716 C   0  0  0  0  0  0  0  0  0  0  0  0
   -3.9442    7.8437    6.0192 C   0  0  0  0  0  0  0  0  0  0  0  0
   -5.2747    8.9501    6.1571 Cl  0  0  0  0  0  0  0  0  0  0  0  0
   -2.6850    8.4236    5.8371 C   0  0  0  0  0  0  0  0  0  0  0  0
   -1.5446    7.6421    5.9010 C   0  0  0  0  0  0  0  0  0  0  0  0
   -1.6665    6.2725    5.9054 C   0  0  0  0  0  0  0  0  0  0  0  0
   -2.9071    5.6709    6.0906 C   0  0  0  0  0  0  0  0  0  0  0  0
   -2.6799    3.9713    6.3179 Cl  0  0  0  0  0  0  0  0  0  0  0  0
   -4.9980    4.3803    4.0543 C   0  0  0  0  0  0  0  0  0  0  0  0
   -4.4078    3.6071    3.0475 C   0  0  0  0  0  0  0  0  0  0  0  0
   -4.3263    2.2188    3.2477 C   0  0  0  0  0  0  0  0  0  0  0  0
   -3.9964   -1.3998    2.5351 C   0  0  0  0  0  0  0  0  0  0  0  0
   -3.8120   -2.3796    3.4481 O   0  0  0  0  0  0  0  0  0  0  0  0
   -4.1384   -1.7142    1.3493 O   0  0  0  0  0  0  0  0  0  0  0  0
  1  2  1  0
  2  3  2  0
  2  4  1  0
  4  5  1  0
  5  6  1  0
  6  7  1  0
  7  8  1  0
  8  9  1  0
  9 10  1  0
  9 27  1  0
 10 11  2  0
 10 28  1  0
 11 12  1  0
 12 13  1  0
 12 27  2  0
 13 14  2  0
 14 15  1  0
 14 25  1  0
 15 16  1  0
 16 17  1  0
 17 18  2  0
 17 23  1  0
 18 19  1  0
 18 20  1  0
 20 21  2  0
 21 22  1  0
 22 23  2  0
 23 24  1  0
 25 26  2  0
 26 27  1  0
 28 29  1  0
 28 30  2  0
M  END
>  <DRUGBANK_ID>  (1) 
DB02316

>  <SECONDARY_ACCESSION_NUMBERS>  (1) 
EXPT00274

>  <COMMON_NAME>  (1) 
1-(5-Carboxypentyl)-5-[(2,6-Dichlorobenzyl)Oxy]-1 H-Indole-2-Carboxylic Acid

$$$$
