
     RDKit          3D

 18 20  0  0  0  0  0  0  0  0999 V2000
    0.9282    0.0873   -0.0041 C   0  0  0  0  0  0  0  0  0  0  0  0
    0.3152   -1.0704    0.5855 O   0  0  0  0  0  0  0  0  0  0  0  0
    1.1049   -2.2375    0.2916 C   0  0  0  0  0  0  0  0  0  0  0  0
    0.2458   -3.4383   -0.1055 C   0  0  0  0  0  0  0  0  0  0  0  0
   -0.4227   -4.1270    1.0766 C   0  0  0  0  0  0  0  0  0  0  0  0
    0.5636   -4.4674    2.1030 N   0  0  0  0  0  0  0  0  0  0  0  0
    1.1979   -3.2480    2.6061 C   0  0  0  0  0  0  0  0  0  0  0  0
    1.9858   -2.5513    1.4993 C   0  0  0  0  0  0  0  0  0  0  0  0
    0.5157    1.4106    0.5871 C   0  0  0  0  0  0  0  0  0  0  0  0
    1.1805    2.5673    0.1459 C   0  0  0  0  0  0  0  0  0  0  0  0
    0.8283    3.8246    0.6339 C   0  0  0  0  0  0  0  0  0  0  0  0
   -0.2127    3.9600    1.5580 C   0  0  0  0  0  0  0  0  0  0  0  0
   -0.6039    5.2211    2.0292 C   0  0  0  0  0  0  0  0  0  0  0  0
   -1.6478    5.3463    2.9448 C   0  0  0  0  0  0  0  0  0  0  0  0
   -2.3094    4.2102    3.4043 C   0  0  0  0  0  0  0  0  0  0  0  0
   -1.9294    2.9474    2.9465 C   0  0  0  0  0  0  0  0  0  0  0  0
   -0.8878    2.8024    2.0184 C   0  0  0  0  0  0  0  0  0  0  0  0
   -0.5077    1.5400    1.5302 C   0  0  0  0  0  0  0  0  0  0  0  0
  1  2  1  0
  1  9  1  0
  2  3  1  0
  3  4  1  0
  3  8  1  0
  4  5  1  0
  5  6  1  0
  6  7  1  0
  7  8  1  0
  9 10  2  0
  9 18  1  0
 10 11  1  0
 11 12  2  0
 12 13  1  0
 12 17  1  0
 13 14  2  0
 14 15  1  0
 15 16  2  0
 16 17  1  0
 17 18  2  0
M  END
>  <DRUGBANK_ID>  (1) 
DB15038

>  <COMMON_NAME>  (1) 
Litoxetine

>  <CAS_NUMBER>  (1) 
86811-09-8

>  <UNII>  (1) 
9980ST005G

>  <SYNONYMS>  (1) 
Litoxetine

$$$$
