
     RDKit          3D

 24 27  0  0  0  0  0  0  0  0999 V2000
   -8.2608   -0.5105    4.3588 O   0  0  0  0  0  0  0  0  0  0  0  0
   -7.7029   -0.2433    3.0168 C   0  0  1  0  0  0  0  0  0  0  0  0
   -8.9097   -0.9795    1.9986 C   0  0  0  0  0  0  0  0  0  0  0  0
   -6.3607    1.1211    3.0115 C   0  0  2  0  0  0  0  0  0  0  0  0
   -6.5757   -1.2371    2.9347 C   0  0  0  0  0  0  0  0  0  0  0  0
   -9.7019   -2.3707    2.4158 C   0  0  0  0  0  0  0  0  0  0  0  0
   -9.1505   -0.5596    0.8601 O   0  0  0  0  0  0  0  0  0  0  0  0
   -5.1195    0.9707    1.9439 C   0  0  0  0  0  0  0  0  0  0  0  0
   -5.8457    0.6440    4.3893 C   0  0  1  0  0  0  0  0  0  0  0  0
   -6.2593    2.7857    3.2570 C   0  0  0  0  0  0  0  0  0  0  0  0
   -6.2989   -1.9376    1.8150 C   0  0  0  0  0  0  0  0  0  0  0  0
   -5.6039   -0.8611    4.0461 C   0  0  0  0  0  0  0  0  0  0  0  0
   -4.6968    1.3173    5.2110 C   0  0  1  0  0  0  0  0  0  0  0  0
   -4.9023    3.4232    4.2024 C   0  0  0  0  0  0  0  0  0  0  0  0
   -4.9756    2.8038    5.7788 C   0  0  2  0  0  0  0  0  0  0  0  0
   -4.4531    0.5020    6.4192 C   0  0  0  0  0  0  0  0  0  0  0  0
   -4.1691    3.2931    7.4351 C   0  0  2  0  0  0  0  0  0  0  0  0
   -3.1543    0.9462    7.0407 C   0  0  0  0  0  0  0  0  0  0  0  0
   -2.9458    2.4241    7.3227 C   0  0  0  0  0  0  0  0  0  0  0  0
   -4.3162    3.1711    9.3532 C   0  0  0  0  0  0  0  0  0  0  0  0
   -1.9314    2.8791    8.0793 C   0  0  0  0  0  0  0  0  0  0  0  0
   -2.8758    3.1819   10.2736 C   0  0  0  0  0  0  0  0  0  0  0  0
   -2.1863    2.2104    9.4184 C   0  0  0  0  0  0  0  0  0  0  0  0
   -2.2850    1.0589    9.6741 O   0  0  0  0  0  0  0  0  0  0  0  0
  2  5  1  0
  2  3  1  0
  2  1  1  1
  3  6  1  0
  3  7  2  0
  4  2  1  0
  4  8  1  6
  4 10  1  0
  5 11  2  0
  5 12  1  0
  9  4  1  0
  9 12  1  6
  9 13  1  0
 10 14  1  0
 13 15  1  0
 13 16  1  1
 15 14  1  6
 15 17  1  0
 16 18  1  0
 17 19  1  0
 17 20  1  1
 18 19  1  0
 19 21  2  0
 20 22  1  0
 21 23  1  0
 22 23  1  0
 23 24  2  0
M  END
>  <DRUGBANK_ID>  (1) 
DB14584

>  <COMMON_NAME>  (1) 
Segesterone

>  <CAS_NUMBER>  (1) 
7690-08-6

>  <UNII>  (1) 
09Q5UV3747

>  <SYNONYMS>  (1) 
17-Hydroxy-16-methylene-19-norpregn-4-ene-3,20-dione; 17alpha-Deacetyl-Nestorone; Nestorone alcohol; Segesterone

$$$$
