
     RDKit          3D

 12 13  0  0  0  0  0  0  0  0999 V2000
    0.9643    1.4199    0.0031 C   0  0  0  0  0  0  0  0  0  0  0  0
   -0.2118    0.6636   -0.0048 C   0  0  0  0  0  0  0  0  0  0  0  0
   -0.2162   -0.7309    0.0017 C   0  0  0  0  0  0  0  0  0  0  0  0
    1.0192   -1.4080    0.0244 C   0  0  0  0  0  0  0  0  0  0  0  0
    2.2057   -0.6695   -0.0052 C   0  0  0  0  0  0  0  0  0  0  0  0
    2.1754    0.7228   -0.0185 C   0  0  0  0  0  0  0  0  0  0  0  0
   -1.5807   -1.1576   -0.0406 C   0  0  0  0  0  0  0  0  0  0  0  0
   -1.5225    1.0753   -0.0332 N   0  0  0  0  0  0  0  0  0  0  0  0
   -2.3428   -0.0103   -0.1559 C   0  0  0  0  0  0  0  0  0  0  0  0
   -2.0821   -2.5738   -0.0219 C   0  0  0  0  0  0  0  0  0  0  0  0
   -2.9731   -2.8921    1.1915 C   0  0  0  0  0  0  0  0  0  0  0  0
   -4.2151   -2.1130    1.2202 N   0  0  0  0  0  0  0  0  0  0  0  0
  1  6  2  0
  2  1  1  0
  2  8  1  0
  3  2  2  0
  3  7  1  0
  3  4  1  0
  4  5  2  0
  5  6  1  0
  7  9  2  0
  7 10  1  0
  8  9  1  0
 10 11  1  0
 11 12  1  0
M  END
>  <DRUGBANK_ID>  (1) 
DB08653

>  <COMMON_NAME>  (1) 
Tryptamine

>  <CAS_NUMBER>  (1) 
61-54-1

>  <UNII>  (1) 
422ZU9N5TV

>  <SYNONYMS>  (1) 
1H-indole-3-ethanamine; 2-(3-indolyl)ethylamine; 3-(2-Aminoethyl)indole; Tryptamine

$$$$
