
     RDKit          3D

 33 38  0  0  0  0  0  0  0  0999 V2000
    0.8301    0.0666    0.0901 C   0  0  0  0  0  0  0  0  0  0  0  0
    0.4159    0.2214   -1.3845 C   0  0  0  0  0  0  0  0  0  0  0  0
   -0.5290    1.3978   -1.8544 C   0  0  0  0  0  0  0  0  0  0  0  0
   -1.4363    0.4902   -2.4913 O   0  0  0  0  0  0  0  0  0  0  0  0
   -0.8975   -0.5759   -1.6837 C   0  0  0  0  0  0  0  0  0  0  0  0
    1.6821   -0.0022   -2.2242 C   0  0  0  0  0  0  0  0  0  0  0  0
    2.8086    0.8573   -1.8274 O   0  0  0  0  0  0  0  0  0  0  0  0
    2.6827    2.2096   -2.0005 C   0  0  0  0  0  0  0  0  0  0  0  0
    1.6452    2.9534   -1.4594 C   0  0  0  0  0  0  0  0  0  0  0  0
    1.2988    4.2382   -1.8676 C   0  0  0  0  0  0  0  0  0  0  0  0
    2.3134    4.9155   -2.5122 C   0  0  0  0  0  0  0  0  0  0  0  0
    3.5109    4.2910   -2.8712 C   0  0  0  0  0  0  0  0  0  0  0  0
    3.6990    2.9102   -2.6292 C   0  0  0  0  0  0  0  0  0  0  0  0
    4.3489    5.1981   -3.4652 N   0  0  0  0  0  0  0  0  0  0  0  0
    3.6721    6.3299   -3.4947 C   0  0  0  0  0  0  0  0  0  0  0  0
    2.4286    6.2227   -2.9237 N   0  0  0  0  0  0  0  0  0  0  0  0
    1.4262    7.2398   -2.8540 C   0  0  0  0  0  0  0  0  0  0  0  0
    0.9585    7.7579   -4.0289 C   0  0  0  0  0  0  0  0  0  0  0  0
   -0.3323    8.3140   -4.0031 C   0  0  0  0  0  0  0  0  0  0  0  0
   -0.9802    8.5724   -2.7514 C   0  0  0  0  0  0  0  0  0  0  0  0
   -2.2453    9.2730   -2.5751 C   0  0  0  0  0  0  0  0  0  0  0  0
   -2.0396   10.4949   -2.9826 C   0  0  0  0  0  0  0  0  0  0  0  0
   -1.3184   10.8094   -1.7766 C   0  0  0  0  0  0  0  0  0  0  0  0
   -0.4204    9.6014   -0.8692 C   0  0  0  0  0  0  0  0  0  0  0  0
   -0.1519    8.5106   -1.7083 C   0  0  0  0  0  0  0  0  0  0  0  0
    0.8932    7.5809   -1.6477 N   0  0  0  0  0  0  0  0  0  0  0  0
   -0.0004    9.2969    0.6366 N   0  0  0  0  0  0  0  0  0  0  0  0
    1.5657    8.8817    0.8881 C   0  0  0  0  0  0  0  0  0  0  0  0
    2.0866    7.4089    1.3656 C   0  0  0  0  0  0  0  0  0  0  0  0
    1.3889    6.8166    2.5904 C   0  0  0  0  0  0  0  0  0  0  0  0
   -0.0796    6.8474    2.1864 C   0  0  0  0  0  0  0  0  0  0  0  0
   -0.6899    8.2920    1.7655 C   0  0  0  0  0  0  0  0  0  0  0  0
    1.8611    5.4384    2.9377 N   0  0  0  0  0  0  0  0  0  0  0  0
  1  2  1  0
  2  3  1  0
  2  5  1  0
  2  6  1  0
  3  4  1  0
  4  5  1  0
  6  7  1  0
  7  8  1  0
  8  9  2  0
  8 13  1  0
  9 10  1  0
 10 11  2  0
 11 12  1  0
 11 16  1  0
 12 13  2  0
 12 14  1  0
 14 15  2  0
 15 16  1  0
 16 17  1  0
 17 18  2  0
 17 26  1  0
 18 19  1  0
 19 20  2  0
 20 21  1  0
 20 25  1  0
 21 22  2  0
 22 23  1  0
 23 24  2  0
 24 25  1  0
 24 27  1  0
 25 26  2  0
 27 28  1  0
 27 32  1  0
 28 29  1  0
 29 30  1  0
 30 31  1  0
 30 33  1  0
 31 32  1  0
M  END
>  <DRUGBANK_ID>  (1) 
DB11832

>  <COMMON_NAME>  (1) 
Crenolanib

>  <CAS_NUMBER>  (1) 
670220-88-9

>  <UNII>  (1) 
LQF7I567TQ

>  <SYNONYMS>  (1) 
Crenolanib

$$$$
