
     RDKit          3D

 39 39  0  0  0  0  0  0  0  0999 V2000
   -6.0677   10.2446   -2.0396 C   0  0  0  0  0  0  0  0  0  0  0  0
   -6.0194    9.0268   -3.2470 C   0  0  0  0  0  0  0  0  0  0  0  0
   -5.6257    7.7075   -3.0621 C   0  0  0  0  0  0  0  0  0  0  0  0
   -5.2228    7.6155   -1.7440 C   0  0  0  0  0  0  0  0  0  0  0  0
   -5.1701    9.2253   -0.9058 C   0  0  0  0  0  0  0  0  0  0  0  0
   -5.5104   10.4480   -0.8836 C   0  0  0  0  0  0  0  0  0  0  0  0
   -6.8366   11.3608   -1.8807 O   0  0  0  0  0  0  0  0  0  0  0  0
   -6.3541   12.6411   -1.4283 C   0  0  0  0  0  0  0  0  0  0  0  0
   -6.5226    8.9938   -4.5400 O   0  0  0  0  0  0  0  0  0  0  0  0
   -6.4756   10.1117   -5.3795 C   0  0  0  0  0  0  0  0  0  0  0  0
   -7.6367   11.0270   -5.1176 C   0  0  0  0  0  0  0  0  0  0  0  0
   -7.4881   11.4998   -3.7801 C   0  0  0  0  0  0  0  0  0  0  0  0
   -6.0010   12.1386   -3.8159 O   0  0  0  0  0  0  0  0  0  0  0  0
   -4.6532   11.4969   -3.5973 C   0  0  0  0  0  0  0  0  0  0  0  0
   -4.9942    6.0712   -0.3587 C   0  0  0  0  0  0  0  0  0  0  0  0
   -6.5782    4.6267   -0.4030 C   0  0  1  0  0  0  0  0  0  0  0  0
   -7.6026    4.5437   -2.0015 C   0  0  0  0  0  0  0  0  0  0  0  0
   -6.5670    3.4763    0.4693 C   0  0  0  0  0  0  0  0  0  0  0  0
   -7.9534    2.8401    0.3512 C   0  0  0  0  0  0  0  0  0  0  0  0
   -6.1832    3.9084    1.8332 C   0  0  0  0  0  0  0  0  0  0  0  0
   -6.7628    3.8448   -3.0517 C   0  0  1  0  0  0  0  0  0  0  0  0
   -6.1484    2.6055   -2.4757 C   0  0  1  0  0  0  0  0  0  0  0  0
   -7.1379    3.9766   -4.4240 N   0  0  0  0  0  0  0  0  0  0  0  0
   -7.1722    1.6789   -2.4327 O   0  0  0  0  0  0  0  0  0  0  0  0
   -4.8182    2.3023   -3.0729 C   0  0  0  0  0  0  0  0  0  0  0  0
   -3.9581    3.6288   -2.9715 C   0  0  2  0  0  0  0  0  0  0  0  0
   -4.4165    4.3908   -1.7048 C   0  0  0  0  0  0  0  0  0  0  0  0
   -4.0032    4.4886   -4.2403 C   0  0  0  0  0  0  0  0  0  0  0  0
   -3.3319    5.8139   -4.0801 C   0  0  0  0  0  0  0  0  0  0  0  0
   -3.6132    3.6824   -5.4351 C   0  0  0  0  0  0  0  0  0  0  0  0
   -5.7517    5.5238   -1.8295 N   0  0  0  0  0  0  0  0  0  0  0  0
   -3.8682    3.9861   -0.6481 O   0  0  0  0  0  0  0  0  0  0  0  0
   -6.7953    6.5406   -0.4220 C   0  0  0  0  0  0  0  0  0  0  0  0
   -7.6102    8.0751   -1.3106 C   0  0  0  0  0  0  0  0  0  0  0  0
   -8.5597    9.0085   -1.1585 N   0  0  0  0  0  0  0  0  0  0  0  0
   -7.9466    7.5127   -2.3744 O   0  0  0  0  0  0  0  0  0  0  0  0
   -6.1170    7.8056   -0.0563 C   0  0  0  0  0  0  0  0  0  0  0  0
   -6.7338    8.4401    1.1769 C   0  0  0  0  0  0  0  0  0  0  0  0
   -4.0160    7.8338   -0.3005 C   0  0  0  0  0  0  0  0  0  0  0  0
  1  2  2  0
  1  7  1  0
  2  3  1  0
  2  9  1  0
  3  4  2  0
  4  5  1  0
  4 15  1  0
  5  6  2  0
  6  1  1  0
  7  8  1  0
  9 10  1  0
 10 11  1  0
 11 12  1  0
 12 13  1  0
 13 14  1  0
 16 15  1  6
 16 17  1  0
 16 18  1  0
 17 21  1  0
 18 20  1  0
 18 19  1  0
 21 22  1  0
 21 23  1  6
 22 24  1  6
 22 25  1  0
 26 28  1  0
 26 27  1  0
 26 25  1  6
 27 31  1  0
 27 32  2  0
 28 29  1  0
 28 30  1  0
 31 33  1  0
 33 37  1  0
 34 35  1  0
 34 36  2  0
 37 34  1  0
 37 38  1  0
 39 37  1  0
M  END
>  <DRUGBANK_ID>  (1) 
DB09026

>  <SECONDARY_ACCESSION_NUMBERS>  (1) 
DB01258

>  <COMMON_NAME>  (1) 
Aliskiren

>  <CAS_NUMBER>  (1) 
173334-57-1

>  <UNII>  (1) 
502FWN4Q32

>  <SYNONYMS>  (1) 
Aliskiren; Aliskireno

$$$$
