
     RDKit          3D

 22 22  0  0  0  0  0  0  0  0999 V2000
    1.0880    0.0323   -0.0125 C   0  0  0  0  0  0  0  0  0  0  0  0
    0.5246    0.8388   -0.9216 C   0  0  0  0  0  0  0  0  0  0  0  0
    1.1440    1.5698   -2.0227 C   0  0  0  0  0  0  0  0  0  0  0  0
    0.4223    2.2337   -2.9621 C   0  0  0  0  0  0  0  0  0  0  0  0
   -1.0347    2.2865   -3.0504 C   0  0  0  0  0  0  0  0  0  0  0  0
   -1.7928    2.9535   -3.9444 C   0  0  0  0  0  0  0  0  0  0  0  0
   -3.2815    2.9436   -3.9358 C   0  0  0  0  0  0  0  0  0  0  0  0
   -4.0004    3.6347   -4.8556 C   0  0  0  0  0  0  0  0  0  0  0  0
   -5.4943    3.6798   -4.9145 C   0  0  0  0  0  0  0  0  0  0  0  0
   -5.9817    4.4338   -5.9191 O   0  0  0  0  0  0  0  0  0  0  0  0
   -6.2602    3.1094   -4.1543 O   0  0  0  0  0  0  0  0  0  0  0  0
   -3.9189    2.1178   -2.8332 C   0  0  0  0  0  0  0  0  0  0  0  0
    2.6537    1.5536   -2.0642 C   0  0  0  0  0  0  0  0  0  0  0  0
    0.3430   -0.7453    0.9879 C   0  0  0  0  0  0  0  0  0  0  0  0
   -0.7621   -1.7225    0.4937 C   0  0  0  0  0  0  0  0  0  0  0  0
   -1.8511   -1.0632   -0.3828 C   0  0  0  0  0  0  0  0  0  0  0  0
   -0.1047   -2.8463   -0.3335 C   0  0  0  0  0  0  0  0  0  0  0  0
   -1.5405   -2.3467    1.6852 C   0  0  0  0  0  0  0  0  0  0  0  0
   -0.6193   -2.8000    2.8005 C   0  0  0  0  0  0  0  0  0  0  0  0
    0.1336   -1.6000    3.3556 C   0  0  0  0  0  0  0  0  0  0  0  0
    0.6987   -0.6764    2.2954 C   0  0  0  0  0  0  0  0  0  0  0  0
    1.6681    0.3286    2.8683 C   0  0  0  0  0  0  0  0  0  0  0  0
  1  2  2  0
  1 14  1  0
  2  3  1  0
  3  4  2  0
  3 13  1  0
  4  5  1  0
  5  6  2  0
  6  7  1  0
  7  8  2  0
  7 12  1  0
  8  9  1  0
  9 10  1  0
  9 11  2  0
 14 15  1  0
 14 21  2  0
 15 16  1  0
 15 17  1  0
 15 18  1  0
 18 19  1  0
 19 20  1  0
 20 21  1  0
 21 22  1  0
M  END
>  <DRUGBANK_ID>  (1) 
DB00523

>  <SECONDARY_ACCESSION_NUMBERS>  (1) 
APRD00017

>  <COMMON_NAME>  (1) 
Alitretinoin

>  <CAS_NUMBER>  (1) 
5300-03-8

>  <UNII>  (1) 
1UA8E65KDZ

>  <SYNONYMS>  (1) 
(2E,4E,6Z,8E)-3,7-dimethyl-9-(2,6,6-trimethyl-1-cyclohexen-1-yl)-2,4,6,8-nonatetraenoic acid; (7E,9Z,11E,13E)-retinoic acid; 9-cis-retinoic acid; 9-cis-Tretinoin; 9(Z)-Retinoic acid; Alitretinoin; Alitretinoína; Alitrétinoïne; Alitretinoinum

$$$$
