
     RDKit          3D

 21 24  0  0  0  0  0  0  0  0999 V2000
   -2.2354   -0.4033    0.0189 C   0  0  0  0  0  0  0  0  0  0  0  0
    1.1459   -4.7007   -2.5621 C   0  0  0  0  0  0  0  0  0  0  0  0
    1.3673   -6.0074   -2.1669 C   0  0  0  0  0  0  0  0  0  0  0  0
    1.8976   -3.6898   -1.9855 C   0  0  0  0  0  0  0  0  0  0  0  0
    2.2900   -6.3152   -1.1526 C   0  0  0  0  0  0  0  0  0  0  0  0
    0.8578    1.4161   -0.7881 C   0  0  0  0  0  0  0  0  0  0  0  0
    0.8727    1.4434    0.7475 C   0  0  0  0  0  0  0  0  0  0  0  0
    0.3942   -1.0146   -1.2279 C   0  0  0  0  0  0  0  0  0  0  0  0
    0.4488   -0.9852    1.3192 C   0  0  0  0  0  0  0  0  0  0  0  0
    4.3080   -3.9506    0.7329 C   0  0  0  0  0  0  0  0  0  0  0  0
   -0.2155    0.3815   -1.1316 C   0  0  1  0  0  0  0  0  0  0  0  0
   -0.1799    0.4063    1.1683 C   0  0  2  0  0  0  0  0  0  0  0  0
    1.1437   -1.4518    0.0440 C   0  0  2  0  0  0  0  0  0  0  0  0
    2.7805   -3.9370   -0.9184 C   0  0  0  0  0  0  0  0  0  0  0  0
    3.5678   -3.0983   -0.0675 C   0  0  0  0  0  0  0  0  0  0  0  0
    2.9696   -5.2576   -0.5275 C   0  0  0  0  0  0  0  0  0  0  0  0
    3.6521   -1.6461   -0.0358 C   0  0  0  0  0  0  0  0  0  0  0  0
    3.9135   -5.2391    0.4748 N   0  0  0  0  0  0  0  0  0  0  0  0
   -1.0979    0.4990    0.0254 N   0  0  0  0  0  0  0  0  0  0  0  0
    4.7389   -1.0649    0.0133 O   0  0  0  0  0  0  0  0  0  0  0  0
    2.4950   -0.9208   -0.0232 O   0  0  0  0  0  0  0  0  0  0  0  0
  3  2  2  0
  4  2  1  0
  5  3  1  0
  7  6  1  0
 11  6  1  1
 11  8  1  0
 12  7  1  6
 12  9  1  0
 13  8  1  0
 13  9  1  0
 13 21  1  6
 14  4  2  0
 15 10  2  0
 15 14  1  0
 16  5  2  0
 16 14  1  0
 17 15  1  0
 18 10  1  0
 18 16  1  0
 19  1  1  0
 19 11  1  0
 19 12  1  0
 20 17  2  0
 21 17  1  0
M  END
>  <DRUGBANK_ID>  (1) 
DB11699

>  <COMMON_NAME>  (1) 
Tropisetron

>  <CAS_NUMBER>  (1) 
89565-68-4

>  <UNII>  (1) 
6I819NIK1W

>  <SYNONYMS>  (1) 
Tropisetron

$$$$
