
     RDKit          3D

 37 40  0  0  1  0  0  0  0  0999 V2000
   -1.3420    0.2223   -0.4038 C   0  0  0  0  0  0  0  0  0  0  0  0
   -0.8979   -1.2536   -0.0456 C   0  0  2  0  0  0  0  0  0  0  0  0
    0.5393   -1.5154   -0.5198 C   0  0  2  0  0  0  0  0  0  0  0  0
    1.4655   -0.4074    0.0901 C   0  0  0  0  0  0  0  0  0  0  0  0
    0.9951    1.0208   -0.2095 C   0  0  0  0  0  0  0  0  0  0  0  0
   -0.4497    1.2482    0.2835 C   0  0  2  0  0  0  0  0  0  0  0  0
   -0.5485    1.3579    1.8428 C   0  0  0  0  0  0  0  0  0  0  0  0
    0.0839    2.2859    2.3715 O   0  0  0  0  0  0  0  0  0  0  0  0
   -1.2564    0.4638    2.6529 N   0  0  0  0  0  0  0  0  0  0  0  0
   -2.2033   -0.5940    2.3361 C   0  0  0  0  0  0  0  0  0  0  0  0
   -1.0794    0.5721    4.0858 C   0  0  0  0  0  0  0  0  0  0  0  0
    0.5879   -1.5965   -1.9579 N   0  0  0  0  0  0  0  0  0  0  0  0
   -0.0944   -2.6091   -2.6215 C   0  0  0  0  0  0  0  0  0  0  0  0
   -0.1668   -2.4531   -4.1184 C   0  0  0  0  0  0  0  0  0  0  0  0
   -0.6380   -3.5823   -2.1601 O   0  0  0  0  0  0  0  0  0  0  0  0
   -0.9144   -3.4452   -4.7307 N   0  0  0  0  0  0  0  0  0  0  0  0
    0.4035   -1.5012   -4.6306 O   0  0  0  0  0  0  0  0  0  0  0  0
   -0.9366   -3.5423   -6.1126 C   0  0  0  0  0  0  0  0  0  0  0  0
   -2.1095   -3.7408   -6.7427 N   0  0  0  0  0  0  0  0  0  0  0  0
   -2.0769   -3.6021   -8.0984 C   0  0  0  0  0  0  0  0  0  0  0  0
   -0.9231   -3.3453   -8.8327 C   0  0  0  0  0  0  0  0  0  0  0  0
    0.2803   -3.2572   -8.1566 C   0  0  0  0  0  0  0  0  0  0  0  0
    0.2710   -3.3678   -6.7792 C   0  0  0  0  0  0  0  0  0  0  0  0
   -0.9628   -3.1339  -10.5330 Cl  0  0  0  0  0  0  0  0  0  0  0  0
   -2.0086   -2.2244   -0.3028 N   0  0  0  0  0  0  0  0  0  0  0  0
   -2.1143   -3.6263   -0.0293 C   0  0  0  0  0  0  0  0  0  0  0  0
   -3.3955   -4.2671   -0.5434 C   0  0  0  0  0  0  0  0  0  0  0  0
   -1.1965   -4.2271    0.5296 O   0  0  0  0  0  0  0  0  0  0  0  0
   -4.1012   -5.3500   -0.1471 N   0  0  0  0  0  0  0  0  0  0  0  0
   -5.2482   -5.5352   -0.9921 C   0  0  0  0  0  0  0  0  0  0  0  0
   -5.3282   -4.5667   -1.9682 C   0  0  0  0  0  0  0  0  0  0  0  0
   -4.0502   -3.4833   -1.9350 S   0  0  0  0  0  0  0  0  0  0  0  0
   -6.4002   -6.5718   -0.8975 C   0  0  0  0  0  0  0  0  0  0  0  0
   -7.3420   -6.4570   -2.1680 C   0  0  0  0  0  0  0  0  0  0  0  0
   -7.6455   -5.0613   -2.5677 N   0  0  0  0  0  0  0  0  0  0  0  0
   -6.3971   -4.4054   -2.9788 C   0  0  0  0  0  0  0  0  0  0  0  0
   -8.2943   -4.3192   -1.4806 C   0  0  0  0  0  0  0  0  0  0  0  0
  1  2  1  0
  1  6  1  0
  2  3  1  0
  2 25  1  6
  3  4  1  0
  3 12  1  6
  4  5  1  0
  5  6  1  0
  6  7  1  1
  7  8  2  0
  7  9  1  0
  9 10  1  0
  9 11  1  0
 12 13  1  0
 13 14  1  0
 13 15  2  0
 14 16  1  0
 14 17  2  0
 16 18  1  0
 18 19  2  0
 18 23  1  0
 19 20  1  0
 20 21  2  0
 21 22  1  0
 21 24  1  0
 22 23  2  0
 25 26  1  0
 26 27  1  0
 26 28  2  0
 27 29  2  0
 27 32  1  0
 29 30  1  0
 30 31  2  0
 30 33  1  0
 31 32  1  0
 31 36  1  0
 33 34  1  0
 34 35  1  0
 35 36  1  0
 35 37  1  0
M  END
>  <DRUGBANK_ID>  (1) 
DB09075

>  <COMMON_NAME>  (1) 
Edoxaban

>  <CAS_NUMBER>  (1) 
480449-70-5

>  <UNII>  (1) 
NDU3J18APO

>  <SYNONYMS>  (1) 
Edoxaban

$$$$
