
     RDKit          3D

 29 30  0  0  0  0  0  0  0  0999 V2000
    1.0266    0.0704   -0.0274 S   0  0  0  0  0  0  0  0  0  0  0  0
    7.2721    3.0393    2.4897 F   0  0  0  0  0  0  0  0  0  0  0  0
    5.6563    4.0311    1.4083 F   0  0  0  0  0  0  0  0  0  0  0  0
    5.5856    1.9143    1.8103 F   0  0  0  0  0  0  0  0  0  0  0  0
    0.5923   -0.6341   -1.2040 O   0  0  0  0  0  0  0  0  0  0  0  0
    0.6832   -0.4337    1.3031 O   0  0  0  0  0  0  0  0  0  0  0  0
    6.5460    3.0544   -1.1835 O   0  0  0  0  0  0  0  0  0  0  0  0
    9.0632    1.1779    0.0618 O   0  0  0  0  0  0  0  0  0  0  0  0
    0.4084    1.6902   -0.1915 N   0  0  0  0  0  0  0  0  0  0  0  0
    7.0854    0.1345   -0.0233 N   0  0  0  0  0  0  0  0  0  0  0  0
    2.8025   -0.0364   -0.0765 C   0  0  0  0  0  0  0  0  0  0  0  0
    5.6876   -0.0632   -0.1302 C   0  0  0  0  0  0  0  0  0  0  0  0
    4.9836   -1.2609   -0.0222 C   0  0  0  0  0  0  0  0  0  0  0  0
    1.1352    2.9618    0.0714 C   0  0  0  0  0  0  0  0  0  0  0  0
    3.5306   -1.2415   -0.0013 C   0  0  0  0  0  0  0  0  0  0  0  0
    7.2108    2.7330    0.0836 C   0  0  2  0  0  0  0  0  0  0  0  0
   -1.0380    1.8552   -0.0998 C   0  0  0  0  0  0  0  0  0  0  0  0
    3.5435    1.0716   -0.2479 C   0  0  0  0  0  0  0  0  0  0  0  0
    4.8957    1.0166   -0.3321 C   0  0  0  0  0  0  0  0  0  0  0  0
    7.8321    1.3037    0.0535 C   0  0  0  0  0  0  0  0  0  0  0  0
    5.6955   -2.5762    0.0255 C   0  0  0  0  0  0  0  0  0  0  0  0
    1.2665    3.7853   -1.2219 C   0  0  0  0  0  0  0  0  0  0  0  0
    6.4206    2.9075    1.4430 C   0  0  0  0  0  0  0  0  0  0  0  0
    8.2212    3.8670    0.0705 C   0  0  0  0  0  0  0  0  0  0  0  0
   -1.8216    1.2454    0.8764 C   0  0  0  0  0  0  0  0  0  0  0  0
   -1.6366    2.8468   -0.8914 C   0  0  0  0  0  0  0  0  0  0  0  0
   -3.1703    1.5946    1.0126 C   0  0  0  0  0  0  0  0  0  0  0  0
   -2.9286    3.3006   -0.6619 C   0  0  0  0  0  0  0  0  0  0  0  0
   -3.7172    2.6308    0.2559 C   0  0  0  0  0  0  0  0  0  0  0  0
  1  5  2  0
  1  6  2  0
  1  9  1  0
  1 11  1  0
  2 23  1  0
  3 23  1  0
  4 23  1  0
  8 20  2  0
  9 14  1  0
  9 17  1  0
 10 12  1  0
 10 20  1  0
 11 15  2  0
 11 18  1  0
 12 13  2  0
 12 19  1  0
 13 15  1  0
 13 21  1  0
 14 22  1  0
 16  7  1  0
 16 20  1  0
 16 23  1  0
 16 24  1  1
 17 25  2  0
 17 26  1  0
 18 19  2  0
 25 27  1  0
 26 28  2  0
 27 29  2  0
 28 29  1  0
M  END
>  <DRUGBANK_ID>  (1) 
DB08609

>  <COMMON_NAME>  (1) 
(2R)-N-{4-[Ethyl(phenyl)sulfamoyl]-2-methylphenyl}-3,3,3-trifluoro-2-hydroxy-2-methylpropanamide

$$$$
