496
     RDKit          3D

 32 36  0  0  1  0  0  0  0  0999 V2000
    0.0134   -1.0981   -0.7176 O   0  0  0  0  0  0  0  0  0  0  0  0
    4.2334    2.2674   -7.7461 O   0  0  0  0  0  0  0  0  0  0  0  0
    3.3691   -2.6458   -3.0232 N   0  0  0  0  0  0  0  0  0  0  0  0
   -0.6232    1.0623   -0.8140 N   0  0  0  0  0  0  0  0  0  0  0  0
    2.5595   -0.3714   -2.2247 C   0  0  2  0  0  0  0  0  0  0  0  0
    0.8199    0.2197   -2.6428 C   0  0  0  0  0  0  0  0  0  0  0  0
    3.9248   -0.2846   -3.0963 C   0  0  0  0  0  0  0  0  0  0  0  0
    2.7532   -1.8882   -1.8659 C   0  0  0  0  0  0  0  0  0  0  0  0
    4.2947   -1.6963   -3.6529 C   0  0  0  0  0  0  0  0  0  0  0  0
    2.3792   -2.9910   -4.0490 C   0  0  0  0  0  0  0  0  0  0  0  0
   -0.3446   -0.6172   -3.8060 C   0  0  0  0  0  0  0  0  0  0  0  0
    0.8481    1.8350   -2.8732 C   0  0  0  0  0  0  0  0  0  0  0  0
    0.0769    0.0118   -1.3041 C   0  0  0  0  0  0  0  0  0  0  0  0
    1.8827   -1.7015   -4.6619 C   0  0  0  0  0  0  0  0  0  0  0  0
   -0.6012   -2.0247   -3.6374 C   0  0  0  0  0  0  0  0  0  0  0  0
    0.0053    2.4150   -3.8476 C   0  0  0  0  0  0  0  0  0  0  0  0
   -0.5725   -0.2040   -5.1920 C   0  0  0  0  0  0  0  0  0  0  0  0
    1.7269    2.7150   -2.2266 C   0  0  0  0  0  0  0  0  0  0  0  0
    2.4088   -0.6247   -5.5373 C   0  0  0  0  0  0  0  0  0  0  0  0
   -0.7612   -2.9110   -4.7966 C   0  0  0  0  0  0  0  0  0  0  0  0
    0.1832    3.6843   -4.3608 C   0  0  0  0  0  0  0  0  0  0  0  0
   -0.9057   -1.0514   -6.2920 C   0  0  0  0  0  0  0  0  0  0  0  0
    1.7036    4.0829   -2.5620 C   0  0  0  0  0  0  0  0  0  0  0  0
    2.2443    0.7528   -5.3405 C   0  0  0  0  0  0  0  0  0  0  0  0
    3.0470   -1.0455   -6.6481 C   0  0  0  0  0  0  0  0  0  0  0  0
   -0.8804   -2.4222   -6.1159 C   0  0  0  0  0  0  0  0  0  0  0  0
    1.0147    4.5444   -3.6873 C   0  0  0  0  0  0  0  0  0  0  0  0
    2.7751    1.7180   -6.1248 C   0  0  0  0  0  0  0  0  0  0  0  0
    3.6178    1.2515   -7.0774 C   0  0  0  0  0  0  0  0  0  0  0  0
    2.7213    3.1919   -6.0971 C   0  0  0  0  0  0  0  0  0  0  0  0
    3.7999   -0.1088   -7.3115 C   0  0  0  0  0  0  0  0  0  0  0  0
    3.3982    3.4063   -7.4339 C   0  0  0  0  0  0  0  0  0  0  0  0
  1 13  2  0
  2 29  1  0
  2 32  1  0
  3  8  1  0
  3  9  1  0
  3 10  1  0
  4 13  1  0
  5  7  1  0
  5  8  1  0
  5  6  1  6
  6 11  1  0
  6 12  1  0
  6 13  1  0
  7  9  1  0
 10 14  1  0
 11 15  2  0
 11 17  1  0
 12 16  2  0
 12 18  1  0
 14 19  1  0
 15 20  1  0
 16 21  1  0
 17 22  2  0
 18 23  2  0
 19 24  2  0
 19 25  1  0
 20 26  2  0
 21 27  2  0
 22 26  1  0
 23 27  1  0
 24 28  1  0
 25 31  2  0
 28 29  2  0
 28 30  1  0
 29 31  1  0
 30 32  1  0
M  END
>  <DRUGBANK_ID>  (1) 
DB00496

>  <SECONDARY_ACCESSION_NUMBERS>  (1) 
APRD00903

>  <COMMON_NAME>  (1) 
Darifenacin

>  <CAS_NUMBER>  (1) 
133099-04-4

>  <UNII>  (1) 
APG9819VLM

>  <SYNONYMS>  (1) 
(S)-1-(2-(2,3-dihydro-5-benzofuranyl)ethyl)-α,α-diphenyl-3-pyrrolidineacetamide; Darifenacin; Darifenacina; Darifénacine; Darifenacinum

$$$$
