
     RDKit          3D

 31 32  0  0  1  0  0  0  0  0999 V2000
   -3.4408    2.8922    1.9766 N   0  0  0  0  0  0  0  0  0  0  0  0
   -2.2921    3.4806    1.8374 C   0  0  0  0  0  0  0  0  0  0  0  0
   -1.5072    2.6466    2.5362 N   0  0  0  0  0  0  0  0  0  0  0  0
   -1.6037    4.8808    1.4657 N   0  0  0  0  0  0  0  0  0  0  0  0
   -2.0212    6.5397    1.3926 C   0  0  0  0  0  0  0  0  0  0  0  0
   -0.6817    4.7671    0.2957 C   0  0  0  0  0  0  0  0  0  0  0  0
    0.6702    4.2641    0.7697 C   0  0  0  0  0  0  0  0  0  0  0  0
    0.5622    2.9690    1.5737 C   0  0  2  0  0  0  0  0  0  0  0  0
   -0.5048    1.9995    0.6172 N   0  0  0  0  0  0  0  0  0  0  0  0
    0.5262    3.4393    3.3252 C   0  0  0  0  0  0  0  0  0  0  0  0
    0.0002    2.5298    4.5699 C   0  0  0  0  0  0  0  0  0  0  0  0
    0.8475    1.8700    5.1947 O   0  0  0  0  0  0  0  0  0  0  0  0
   -1.3276    2.3978    5.0246 N   0  0  0  0  0  0  0  0  0  0  0  0
   -2.6813    2.9248    4.5324 C   0  0  1  0  0  0  0  0  0  0  0  0
   -3.8670    2.3726    5.2290 C   0  0  0  0  0  0  0  0  0  0  0  0
   -4.7523    3.3023    5.5774 C   0  0  0  0  0  0  0  0  0  0  0  0
   -4.3896    4.7951    5.7105 C   0  0  1  0  0  0  0  0  0  0  0  0
   -3.0853    5.1079    5.2831 O   0  0  0  0  0  0  0  0  0  0  0  0
   -2.8821    4.5763    3.9663 C   0  0  2  0  0  0  0  0  0  0  0  0
   -4.0856    5.0754    2.5810 C   0  0  0  0  0  0  0  0  0  0  0  0
   -3.8783    5.1930    1.2160 O   0  0  0  0  0  0  0  0  0  0  0  0
   -5.3115    4.9712    2.7062 O   0  0  0  0  0  0  0  0  0  0  0  0
   -5.3251    5.7032    5.0656 N   0  0  0  0  0  0  0  0  0  0  0  0
   -6.6489    5.4037    5.1904 C   0  0  0  0  0  0  0  0  0  0  0  0
   -7.5654    6.1879    4.6224 C   0  0  0  0  0  0  0  0  0  0  0  0
   -7.1875    7.2867    3.7279 C   0  0  1  0  0  0  0  0  0  0  0  0
   -7.8366    7.2271    2.4664 N   0  0  0  0  0  0  0  0  0  0  0  0
   -7.4925    8.5024    4.3193 O   0  0  0  0  0  0  0  0  0  0  0  0
   -5.8264    7.4095    3.5140 N   0  0  0  0  0  0  0  0  0  0  0  0
   -4.8542    6.8467    4.3283 C   0  0  0  0  0  0  0  0  0  0  0  0
   -3.7501    7.2415    4.1961 O   0  0  0  0  0  0  0  0  0  0  0  0
  1  2  2  0
  2  3  1  0
  2  4  1  0
  4  5  1  0
  4  6  1  0
  6  7  1  0
  8 10  1  0
  8  9  1  6
  8  7  1  0
 10 11  1  0
 11 12  2  0
 11 13  1  0
 14 13  1  1
 14 15  1  0
 14 19  1  0
 15 16  2  0
 16 17  1  0
 17 18  1  0
 17 23  1  6
 18 19  1  0
 19 20  1  6
 20 21  1  0
 20 22  2  0
 23 24  1  0
 23 30  1  0
 24 25  2  0
 25 26  1  0
 26 29  1  0
 26 28  1  0
 26 27  1  6
 29 30  1  0
 30 31  2  0
M  END
>  <DRUGBANK_ID>  (1) 
DB04649

>  <COMMON_NAME>  (1) 
TETRAHEDRAL INTERMEDIATE OF BLASTICIDIN S

$$$$
