
     RDKit          3D

 17 18  0  0  0  0  0  0  0  0999 V2000
    3.7994   -3.9701    3.5178 C   0  0  0  0  0  0  0  0  0  0  0  0
    3.8849   -2.6163    3.5843 C   0  0  0  0  0  0  0  0  0  0  0  0
    3.8139   -4.7077    4.6694 N   0  0  0  0  0  0  0  0  0  0  0  0
    3.8830   -1.7684    2.4797 N   0  0  0  0  0  0  0  0  0  0  0  0
    3.6900   -4.5790    2.2890 N   0  0  0  0  0  0  0  0  0  0  0  0
    3.9634   -2.8481    6.0801 N   0  0  0  0  0  0  0  0  0  0  0  0
    3.8921   -4.1227    5.8862 C   0  0  0  0  0  0  0  0  0  0  0  0
    3.9634   -2.0094    4.9816 C   0  0  0  0  0  0  0  0  0  0  0  0
    3.8169   -2.3197    1.3012 C   0  0  0  0  0  0  0  0  0  0  0  0
    3.7528   -3.8237    1.0579 C   0  0  0  0  0  0  0  0  0  0  0  0
    4.0234   -0.7851    5.1134 O   0  0  0  0  0  0  0  0  0  0  0  0
    3.8870   -4.9632    6.9402 N   0  0  0  0  0  0  0  0  0  0  0  0
    3.7424   -1.4246    0.0505 C   0  0  2  0  0  0  0  0  0  0  0  0
    2.3288   -0.7784   -0.0209 C   0  0  2  0  0  0  0  0  0  0  0  0
    1.5124   -1.2905   -1.2004 C   0  0  0  0  0  0  0  0  0  0  0  0
    4.0747   -2.1769   -1.1242 O   0  0  0  0  0  0  0  0  0  0  0  0
    2.3693    0.6528   -0.0779 O   0  0  0  0  0  0  0  0  0  0  0  0
  2  1  2  0
  3  1  1  0
  4  2  1  0
  5  1  1  0
  7  3  1  0
  7  6  2  0
  8  2  1  0
  8  6  1  0
  9  4  2  0
 10  5  1  0
 10  9  1  0
 11  8  2  0
 12  7  1  0
 13 16  1  6
 13 14  1  0
 13  9  1  0
 14 17  1  0
 14 15  1  6
M  END
>  <DRUGBANK_ID>  (1) 
DB04400

>  <SECONDARY_ACCESSION_NUMBERS>  (1) 
EXPT01697; DB03271; EXPT01698

>  <COMMON_NAME>  (1) 
L-erythro-7,8-dihydrobiopterin

>  <CAS_NUMBER>  (1) 
6779-87-9

>  <SYNONYMS>  (1) 
Dihydrobiopterin; L-erythro-q-Dihydrobiopterin; q-BH2; Quinonoid dihydrobiopterin

$$$$
