
     RDKit          3D

 10  9  0  0  1  0  0  0  0  0999 V2000
   -1.0926   -0.1356   -3.0386 N   0  0  0  0  0  0  0  0  0  0  0  0
    0.3554   -0.3354   -2.7789 C   0  0  1  0  0  0  0  0  0  0  0  0
    1.0467    0.9892   -2.3183 C   0  0  2  0  0  0  0  0  0  0  0  0
    0.7894    1.3389   -0.9577 O   0  0  0  0  0  0  0  0  0  0  0  0
    0.5713    2.1704   -3.2008 C   0  0  0  0  0  0  0  0  0  0  0  0
    1.4951    2.8567   -3.9203 N   0  0  0  0  0  0  0  0  0  0  0  0
   -0.6119    2.5017   -3.2906 O   0  0  0  0  0  0  0  0  0  0  0  0
    0.4630   -1.4777   -1.7412 C   0  0  0  0  0  0  0  0  0  0  0  0
    0.8490   -2.6829   -2.2290 O   0  0  0  0  0  0  0  0  0  0  0  0
    0.1330   -1.3675   -0.5617 O   0  0  0  0  0  0  0  0  0  0  0  0
  2  1  1  1
  2  8  1  0
  3  5  1  0
  3  4  1  1
  3  2  1  0
  5  6  1  0
  5  7  2  0
  8  9  1  0
  8 10  2  0
M  END
>  <DRUGBANK_ID>  (1) 
DB04527

>  <SECONDARY_ACCESSION_NUMBERS>  (1) 
EXPT00462

>  <COMMON_NAME>  (1) 
beta-Hydroxyasparagine

>  <CAS_NUMBER>  (1) 
20790-72-1

>  <UNII>  (1) 
9J17BCS69U

>  <SYNONYMS>  (1) 
(2S,3S)-3-Hydroxyasparagine

$$$$
