
     RDKit          3D

 14 14  0  0  0  0  0  0  0  0999 V2000
    1.1654    0.0381   -0.0821 O   0  0  0  0  0  0  0  0  0  0  0  0
    3.0877    1.3044   -0.0381 N   0  0  0  0  0  0  0  0  0  0  0  0
    3.1266   -1.2768   -0.1609 C   0  0  0  0  0  0  0  0  0  0  0  0
    2.4056    0.0686   -0.1048 C   0  0  0  0  0  0  0  0  0  0  0  0
    2.3803   -2.4566   -0.0400 C   0  0  0  0  0  0  0  0  0  0  0  0
    4.5115   -1.4525   -0.2932 C   0  0  0  0  0  0  0  0  0  0  0  0
    3.0213   -3.7155   -0.0064 C   0  0  0  0  0  0  0  0  0  0  0  0
    5.1654   -2.6643   -0.1242 C   0  0  0  0  0  0  0  0  0  0  0  0
    4.4174   -3.8063   -0.0086 C   0  0  0  0  0  0  0  0  0  0  0  0
    2.3311    2.5651   -0.0557 C   0  0  0  0  0  0  0  0  0  0  0  0
    4.5322    1.4608    0.0393 C   0  0  0  0  0  0  0  0  0  0  0  0
    2.2442   -4.9918    0.0127 C   0  0  0  0  0  0  0  0  0  0  0  0
    2.6512    3.4469    1.1492 C   0  0  0  0  0  0  0  0  0  0  0  0
    5.0894    0.9231    1.3616 C   0  0  0  0  0  0  0  0  0  0  0  0
  1  4  2  0
  2  4  1  0
  2 10  1  0
  2 11  1  0
  3  4  1  0
  3  5  2  0
  3  6  1  0
  5  7  1  0
  6  8  2  0
  7  9  2  0
  7 12  1  0
  8  9  1  0
 10 13  1  0
 11 14  1  0
M  END
>  <DRUGBANK_ID>  (1) 
DB11282

>  <COMMON_NAME>  (1) 
Diethyltoluamide

>  <CAS_NUMBER>  (1) 
134-62-3

>  <UNII>  (1) 
FB0C1XZV4Y

>  <SYNONYMS>  (1) 
3-methyl-N,N-diethylbenzamide; DEET; diethyl toluamide; Diethyltoluamide; di√©thyltoluamide; diethyltoluamidum; dietiltoluamida; N,N-diethyl-m-toluamide

$$$$
