IYZ
     RDKit          3D

 23 26  0  0  0  0  0  0  0  0999 V2000
   -0.1043    0.8440   -0.0353 C   0  0  0  0  0  0  0  0  0  0  0  0
    0.6720   -0.4386    0.0841 C   0  0  0  0  0  0  0  0  0  0  0  0
   -0.8274   -0.4803   -0.1467 C   0  0  0  0  0  0  0  0  0  0  0  0
   -1.7683   -1.0466    0.8801 C   0  0  0  0  0  0  0  0  0  0  0  0
   -3.1259   -0.5552    0.6688 N   0  0  0  0  0  0  0  0  0  0  0  0
   -4.1584   -1.3216    0.1597 C   0  0  0  0  0  0  0  0  0  0  0  0
   -4.4119   -2.6729    0.7574 C   0  0  0  0  0  0  0  0  0  0  0  0
   -5.4460   -3.4005    0.3280 C   0  0  0  0  0  0  0  0  0  0  0  0
   -4.9162   -0.8130   -0.7812 N   0  0  0  0  0  0  0  0  0  0  0  0
   -5.9416   -1.6400   -1.2014 N   0  0  0  0  0  0  0  0  0  0  0  0
   -6.2599   -2.8938   -0.6980 C   0  0  0  0  0  0  0  0  0  0  0  0
   -7.3241   -3.4160   -1.2676 N   0  0  0  0  0  0  0  0  0  0  0  0
   -7.7179   -2.4831   -2.1815 C   0  0  0  0  0  0  0  0  0  0  0  0
   -6.8869   -1.3747   -2.1778 C   0  0  0  0  0  0  0  0  0  0  0  0
   -6.9924   -0.1759   -2.9923 C   0  0  0  0  0  0  0  0  0  0  0  0
   -5.9934    0.1751   -3.9079 C   0  0  0  0  0  0  0  0  0  0  0  0
   -8.1840    0.5591   -2.9551 C   0  0  0  0  0  0  0  0  0  0  0  0
   -8.3911    1.6097   -3.8397 C   0  0  0  0  0  0  0  0  0  0  0  0
   -7.3861    1.9724   -4.7327 C   0  0  0  0  0  0  0  0  0  0  0  0
   -6.1839    1.2547   -4.7867 C   0  0  0  0  0  0  0  0  0  0  0  0
   -5.1182    1.5647   -5.7860 C   0  0  0  0  0  0  0  0  0  0  0  0
   -5.2813    2.7008   -6.7640 C   0  0  0  0  0  0  0  0  0  0  0  0
   -4.0948    0.8678   -5.8203 O   0  0  0  0  0  0  0  0  0  0  0  0
  1  2  1  0
  1  3  1  0
  2  3  1  0
  3  4  1  0
  4  5  1  0
  5  6  1  0
  6  7  1  0
  6  9  2  0
  7  8  2  0
  8 11  1  0
  9 10  1  0
 10 11  1  0
 10 14  1  0
 11 12  2  0
 12 13  1  0
 13 14  2  0
 14 15  1  0
 15 16  2  0
 15 17  1  0
 16 20  1  0
 17 18  2  0
 18 19  1  0
 19 20  2  0
 20 21  1  0
 21 22  1  0
 21 23  2  0
M  END
>  <DRUGBANK_ID>  (1) 
DB04715

>  <COMMON_NAME>  (1) 
IMIDAZOPYRIDAZIN 1

$$$$
