
     RDKit          3D

 24 26  0  0  1  0  0  0  0  0999 V2000
   -0.0027   -0.6522   -0.0199 C   0  0  0  0  0  0  0  0  0  0  0  0
    1.2899   -1.0826    0.0124 N   0  0  0  0  0  0  0  0  0  0  0  0
    0.0327    0.7315   -0.0174 C   0  0  0  0  0  0  0  0  0  0  0  0
   -1.0888   -1.4391   -0.0123 N   0  0  0  0  0  0  0  0  0  0  0  0
    1.7142   -2.5860    0.0224 C   0  0  2  0  0  0  0  0  0  0  0  0
    1.9812    0.1554    0.1261 C   0  0  0  0  0  0  0  0  0  0  0  0
    1.2609    1.2373    0.0469 N   0  0  0  0  0  0  0  0  0  0  0  0
   -1.1785    1.4664   -0.0165 C   0  0  0  0  0  0  0  0  0  0  0  0
   -2.1925   -0.7466   -0.0039 C   0  0  0  0  0  0  0  0  0  0  0  0
    2.5866   -2.8826    1.2671 O   0  0  0  0  0  0  0  0  0  0  0  0
    2.5251   -3.2143   -1.2436 C   0  0  1  0  0  0  0  0  0  0  0  0
   -2.2639    0.6355   -0.0134 N   0  0  0  0  0  0  0  0  0  0  0  0
   -1.2619    2.7036    0.0022 O   0  0  0  0  0  0  0  0  0  0  0  0
   -3.3623   -1.3997    0.0199 N   0  0  0  0  0  0  0  0  0  0  0  0
    3.8811   -3.5408    0.8788 C   0  0  1  0  0  0  0  0  0  0  0  0
    3.6624   -4.0739   -0.5828 C   0  0  1  0  0  0  0  0  0  0  0  0
    1.7883   -3.8001   -2.3033 O   0  0  0  0  0  0  0  0  0  0  0  0
    5.2078   -2.6097    1.1970 C   0  0  0  0  0  0  0  0  0  0  0  0
    3.2054   -5.4292   -0.5220 O   0  0  0  0  0  0  0  0  0  0  0  0
    5.1851   -1.1835    0.7032 O   0  0  0  0  0  0  0  0  0  0  0  0
    4.7256   -1.1117   -0.9631 P   0  0  0  0  0  0  0  0  0  0  0  0
    5.7234   -2.3609   -1.2001 O   0  0  0  0  0  0  0  0  0  0  0  0
    3.4997   -1.5151   -0.2041 O   0  0  0  0  0  0  0  0  0  0  0  0
    4.3143   -1.0474   -2.4545 O   0  0  0  0  0  0  0  0  0  0  0  0
  1  2  1  0
  1  3  2  0
  1  4  1  0
  2  6  1  0
  3  7  1  0
  3  8  1  0
  4  9  2  0
  5  2  1  6
  5 10  1  0
  5 11  1  0
  6  7  2  0
  8 12  1  0
  8 13  2  0
  9 14  1  0
  9 12  1  0
 10 15  1  0
 11 16  1  0
 11 17  1  1
 15 16  1  0
 15 18  1  6
 16 19  1  1
 18 20  1  0
 20 21  1  0
 21 22  1  0
 21 23  1  0
 21 24  2  0
M  END
>  <DRUGBANK_ID>  (1) 
DB01972

>  <SECONDARY_ACCESSION_NUMBERS>  (1) 
EXPT00246

>  <COMMON_NAME>  (1) 
Guanosine-5'-Monophosphate

>  <CAS_NUMBER>  (1) 
85-32-5

>  <UNII>  (1) 
16597955EP

$$$$
