
     RDKit          3D

 27 24  0  0  1  0  0  0  0  0999 V2000
    0.9183   -1.2219   -0.9264 Cu  0  0  0  0  0 15  0  0  0  0  0  0
    5.2298   -4.8324   -4.4830 O   0  0  0  0  0  0  0  0  0  0  0  0
    4.6766   -3.5305   -4.3592 C   0  0  0  0  0  0  0  0  0  0  0  0
    3.1520   -3.4866   -4.4365 C   0  0  1  0  0  0  0  0  0  0  0  0
    2.6446   -3.9960   -3.2266 O   0  0  0  0  0  0  0  0  0  0  0  0
    2.5233   -2.1058   -4.4077 C   0  0  1  0  0  0  0  0  0  0  0  0
    3.0268   -1.2017   -5.3633 O   0  0  0  0  0  0  0  0  0  0  0  0
    0.9669   -2.1630   -4.3690 C   0  0  2  0  0  0  0  0  0  0  0  0
    0.4725   -2.0364   -2.9142 O   0  0  0  0  0  0  0  0  0  0  0  0
    0.3371   -3.4205   -5.0342 C   0  0  1  0  0  0  0  0  0  0  0  0
   -1.0967   -3.2644   -4.8383 O   0  0  0  0  0  0  0  0  0  0  0  0
    0.7772   -3.4105   -6.5441 C   0  0  0  0  0  0  0  0  0  0  0  0
    1.4732   -4.4441   -6.8926 O   0  0  0  0  0  0  0  0  0  0  0  0
    0.5499   -2.3788   -7.1779 O   0  0  0  0  0  0  0  0  0  0  0  0
    5.2040   -6.8158   -2.7334 O   0  0  0  0  0  0  0  0  0  0  0  0
    4.7428   -5.9510   -1.6974 C   0  0  0  0  0  0  0  0  0  0  0  0
    3.2350   -6.1191   -1.6170 C   0  0  1  0  0  0  0  0  0  0  0  0
    3.1713   -7.4652   -1.1741 O   0  0  0  0  0  0  0  0  0  0  0  0
    2.5380   -5.0435   -0.6901 C   0  0  1  0  0  0  0  0  0  0  0  0
    2.9911   -3.6294   -0.8063 O   0  0  0  0  0  0  0  0  0  0  0  0
    0.9836   -4.9843   -0.8360 C   0  0  2  0  0  0  0  0  0  0  0  0
    0.5176   -3.8191    0.0060 O   0  0  0  0  0  0  0  0  0  0  0  0
    0.3044   -6.2907   -0.3760 C   0  0  1  0  0  0  0  0  0  0  0  0
   -1.1195   -6.0863   -0.3046 O   0  0  0  0  0  0  0  0  0  0  0  0
    0.5645   -7.5179   -1.2884 C   0  0  0  0  0  0  0  0  0  0  0  0
    0.8769   -8.5810   -0.6831 O   0  0  0  0  0  0  0  0  0  0  0  0
    0.6079   -7.2687   -2.5266 O   0  0  0  0  0  0  0  0  0  0  0  0
  2  3  1  0
  3  4  1  0
  4  5  1  1
  4  6  1  0
  6  7  1  6
  8 10  1  0
  8  9  1  1
  8  6  1  0
 10 11  1  6
 10 12  1  0
 12 13  1  0
 12 14  2  0
 15 16  1  0
 16 17  1  0
 17 18  1  1
 17 19  1  0
 19 20  1  6
 21 23  1  0
 21 22  1  1
 21 19  1  0
 23 24  1  6
 23 25  1  0
 25 26  1  0
 25 27  2  0
M  CHG  3   1   2  13  -1  26  -1
M  END
>  <DRUGBANK_ID>  (1) 
DB11246

>  <COMMON_NAME>  (1) 
Copper gluconate

>  <CAS_NUMBER>  (1) 
527-09-3

>  <UNII>  (1) 
RV823G6G67

>  <SYNONYMS>  (1) 
Copper gluconate

$$$$
