
     RDKit          3D

 26 28  0  0  1  0  0  0  0  0999 V2000
    0.9387    0.1528   -0.0161 C   0  0  0  0  0  0  0  0  0  0  0  0
    0.4590    0.2185   -1.3907 N   0  0  0  0  0  0  0  0  0  0  0  0
    0.3179    1.4322   -2.0090 C   0  0  0  0  0  0  0  0  0  0  0  0
    0.5435    2.5138   -1.4716 O   0  0  0  0  0  0  0  0  0  0  0  0
   -0.1685    1.3985   -3.4025 C   0  0  0  0  0  0  0  0  0  0  0  0
   -0.4499    0.2452   -4.0352 C   0  0  0  0  0  0  0  0  0  0  0  0
   -0.9413    0.2700   -5.3496 N   0  0  0  0  0  0  0  0  0  0  0  0
   -0.2027    0.8419   -6.4885 C   0  0  0  0  0  0  0  0  0  0  0  0
   -1.0732    1.8747   -7.2057 C   0  0  0  0  0  0  0  0  0  0  0  0
   -2.4099    1.2678   -7.6367 C   0  0  0  0  0  0  0  0  0  0  0  0
   -3.1288    0.6876   -6.4193 C   0  0  1  0  0  0  0  0  0  0  0  0
   -4.4033    0.1085   -6.8500 N   0  0  0  0  0  0  0  0  0  0  0  0
   -2.2222   -0.3479   -5.7449 C   0  0  0  0  0  0  0  0  0  0  0  0
   -0.2974   -0.9374   -3.3168 N   0  0  0  0  0  0  0  0  0  0  0  0
   -0.5540   -2.2423   -3.9506 C   0  0  0  0  0  0  0  0  0  0  0  0
    0.6816   -3.0986   -4.1111 C   0  0  0  0  0  0  0  0  0  0  0  0
    1.3239   -3.5996   -2.9719 C   0  0  0  0  0  0  0  0  0  0  0  0
    2.6292   -4.0267   -3.0273 C   0  0  0  0  0  0  0  0  0  0  0  0
    3.2753   -4.3064   -1.8901 F   0  0  0  0  0  0  0  0  0  0  0  0
    3.2370   -4.1978   -4.2495 C   0  0  0  0  0  0  0  0  0  0  0  0
    2.4665   -4.0737   -5.4061 C   0  0  0  0  0  0  0  0  0  0  0  0
    1.2362   -3.4075   -5.3621 C   0  0  0  0  0  0  0  0  0  0  0  0
    0.6002   -3.0370   -6.5934 C   0  0  0  0  0  0  0  0  0  0  0  0
    0.0679   -2.7027   -7.5774 N   0  0  0  0  0  0  0  0  0  0  0  0
    0.0336   -0.9522   -1.9639 C   0  0  0  0  0  0  0  0  0  0  0  0
   -0.0662   -1.9643   -1.2694 O   0  0  0  0  0  0  0  0  0  0  0  0
  1  2  1  0
  2  3  1  0
  2 25  1  0
  3  4  2  0
  3  5  1  0
  5  6  2  0
  6  7  1  0
  6 14  1  0
  7  8  1  0
  7 13  1  0
  8  9  1  0
  9 10  1  0
 11 10  1  0
 11 13  1  0
 11 12  1  6
 14 15  1  0
 14 25  1  0
 15 16  1  0
 16 17  2  0
 16 22  1  0
 17 18  1  0
 18 19  1  0
 18 20  2  0
 20 21  1  0
 21 22  2  0
 22 23  1  0
 23 24  3  0
 25 26  2  0
M  END
>  <DRUGBANK_ID>  (1) 
DB15323

>  <COMMON_NAME>  (1) 
Trelagliptin

>  <CAS_NUMBER>  (1) 
865759-25-7

>  <UNII>  (1) 
Q836OWG55H

>  <SYNONYMS>  (1) 
Trelagliptin

$$$$
