
     RDKit          3D

 12 12  0  0  0  0  0  0  0  0999 V2000
    1.4174   -0.1883    0.0012 C   0  0  0  0  0  0  0  0  0  0  0  0
    0.5326   -1.2730    0.0189 C   0  0  0  0  0  0  0  0  0  0  0  0
   -0.8554   -1.0678    0.0110 C   0  0  0  0  0  0  0  0  0  0  0  0
   -1.3454    0.2467   -0.0030 C   0  0  0  0  0  0  0  0  0  0  0  0
   -0.4687    1.3331    0.0102 C   0  0  0  0  0  0  0  0  0  0  0  0
    0.9115    1.1122   -0.0414 C   0  0  0  0  0  0  0  0  0  0  0  0
   -1.8124   -2.2337    0.0656 C   0  0  0  0  0  0  0  0  0  0  0  0
   -2.6527   -2.1526    1.2549 N   0  0  0  0  0  0  0  0  0  0  0  0
    1.9569    2.5132   -0.3357 S   0  0  0  0  0  0  0  0  0  0  0  0
    1.6474    3.0208   -1.6505 O   0  0  0  0  0  0  0  0  0  0  0  0
    1.9478    3.3536    0.8405 O   0  0  0  0  0  0  0  0  0  0  0  0
    3.5228    1.8927   -0.4752 N   0  0  0  0  0  0  0  0  0  0  0  0
  1  2  2  0
  1  6  1  0
  2  3  1  0
  3  4  2  0
  3  7  1  0
  4  5  1  0
  5  6  2  0
  6  9  1  0
  7  8  1  0
  9 10  2  0
  9 12  1  0
 11  9  2  0
M  END
>  <DRUGBANK_ID>  (1) 
DB06795

>  <COMMON_NAME>  (1) 
Mafenide

>  <CAS_NUMBER>  (1) 
138-39-6

>  <UNII>  (1) 
58447S8P4L

>  <SYNONYMS>  (1) 
4-(aminomethyl)benzenesulfonamide; 4-Homosufanilamide; Bensulfamide; Mafenide; Maphenidum

$$$$
