
     RDKit          3D

 14 15  0  0  0  0  0  0  0  0999 V2000
    1.0591   -0.0790   -0.0163 C   0  0  0  0  0  0  0  0  0  0  0  0
   -0.2447   -0.0790   -0.0163 C   0  0  0  0  0  0  0  0  0  0  0  0
   -1.7647   -0.0790   -0.0163 C   0  0  0  0  0  0  0  0  0  0  0  0
   -2.2904   -1.3580   -0.5023 N   0  0  0  0  0  0  0  0  0  0  0  0
   -3.7457   -1.3871   -0.3391 C   0  0  0  0  0  0  0  0  0  0  0  0
   -1.8584   -1.6623   -1.8801 C   0  0  2  0  0  0  0  0  0  0  0  0
   -2.6914   -1.0383   -3.0296 C   0  0  0  0  0  0  0  0  0  0  0  0
   -2.5710   -1.9845   -4.2288 C   0  0  0  0  0  0  0  0  0  0  0  0
   -2.3624   -3.3016   -3.5492 C   0  0  0  0  0  0  0  0  0  0  0  0
   -1.9398   -3.1304   -2.2276 C   0  0  0  0  0  0  0  0  0  0  0  0
   -1.5987   -4.2215   -1.4381 C   0  0  0  0  0  0  0  0  0  0  0  0
   -1.7519   -5.5021   -1.9741 C   0  0  0  0  0  0  0  0  0  0  0  0
   -2.2155   -5.6727   -3.2857 C   0  0  0  0  0  0  0  0  0  0  0  0
   -2.5100   -4.5688   -4.0907 C   0  0  0  0  0  0  0  0  0  0  0  0
  1  2  3  0
  2  3  1  0
  3  4  1  0
  4  5  1  0
  6  4  1  1
  6  7  1  0
  6 10  1  0
  7  8  1  0
  8  9  1  0
  9 10  2  0
  9 14  1  0
 10 11  1  0
 11 12  2  0
 12 13  1  0
 13 14  2  0
M  END
>  <DRUGBANK_ID>  (1) 
DB02211

>  <SECONDARY_ACCESSION_NUMBERS>  (1) 
EXPT02792

>  <COMMON_NAME>  (1) 
(R)-N-methyl-N-2-propynyl-1-indanamine

>  <CAS_NUMBER>  (1) 
124192-87-6

>  <UNII>  (1) 
1Y7XS87IZR

>  <SYNONYMS>  (1) 
N-Methyl-N-propargyl-1(R)-aminoindan

$$$$
