
     RDKit          3D

 26 30  0  0  1  0  0  0  0  0999 V2000
    0.7649   -0.1396    1.3081 C   0  0  0  0  0  0  0  0  0  0  0  0
   -0.5031   -0.9065    1.0391 C   0  0  1  0  0  0  0  0  0  0  0  0
   -0.1771   -2.2880    0.3260 C   0  0  0  0  0  0  0  0  0  0  0  0
   -0.2285   -3.4276    1.2822 C   0  0  0  0  0  0  0  0  0  0  0  0
   -0.2554   -4.8311    1.0334 C   0  0  0  0  0  0  0  0  0  0  0  0
    0.0110   -5.6217   -0.1039 C   0  0  0  0  0  0  0  0  0  0  0  0
    0.0309   -7.0118    0.0029 C   0  0  0  0  0  0  0  0  0  0  0  0
   -0.3211   -7.6375    1.1918 C   0  0  0  0  0  0  0  0  0  0  0  0
   -0.6951   -6.8771    2.3225 C   0  0  0  0  0  0  0  0  0  0  0  0
   -0.5989   -5.4586    2.2336 C   0  0  0  0  0  0  0  0  0  0  0  0
   -0.8015   -4.4106    3.1485 N   0  0  0  0  0  0  0  0  0  0  0  0
   -0.1714   -3.2294    2.6561 C   0  0  0  0  0  0  0  0  0  0  0  0
    0.1598   -1.6680    3.3684 C   0  0  2  0  0  0  0  0  0  0  0  0
   -0.9001   -0.9715    2.4991 N   0  0  0  0  0  0  0  0  0  0  0  0
    1.9317   -1.3291    3.8967 C   0  0  0  0  0  0  0  0  0  0  0  0
    2.8183   -0.4224    4.7141 C   0  0  0  0  0  0  0  0  0  0  0  0
    3.7419   -0.8895    5.8673 C   0  0  0  0  0  0  0  0  0  0  0  0
    3.8238   -2.2161    6.2421 C   0  0  0  0  0  0  0  0  0  0  0  0
    3.0257   -3.0383    5.5075 C   0  0  0  0  0  0  0  0  0  0  0  0
    2.0549   -2.5015    4.6270 C   0  0  0  0  0  0  0  0  0  0  0  0
    0.7672   -2.8540    5.1039 N   0  0  0  0  0  0  0  0  0  0  0  0
   -0.1381   -1.7769    4.7939 C   0  0  0  0  0  0  0  0  0  0  0  0
   -0.4230   -0.7649    5.5110 O   0  0  0  0  0  0  0  0  0  0  0  0
    4.8671    0.1181    6.7593 Cl  0  0  0  0  0  0  0  0  0  0  0  0
   -0.2548   -9.3643    1.2889 Cl  0  0  0  0  0  0  0  0  0  0  0  0
    0.4355   -7.7259   -1.0612 F   0  0  0  0  0  0  0  0  0  0  0  0
  2  3  1  0
  2 14  1  0
  2  1  1  1
  3  4  1  0
  4  5  1  0
  4 12  2  0
  5  6  2  0
  5 10  1  0
  6  7  1  0
  7  8  2  0
  7 26  1  0
  8  9  1  0
  8 25  1  0
  9 10  2  0
 10 11  1  0
 11 12  1  0
 13 12  1  0
 13 14  1  6
 13 15  1  0
 13 22  1  0
 15 16  2  0
 15 20  1  0
 16 17  1  0
 17 18  2  0
 17 24  1  0
 18 19  1  0
 19 20  2  0
 20 21  1  0
 21 22  1  0
 22 23  2  0
M  END
>  <DRUGBANK_ID>  (1) 
DB12306

>  <COMMON_NAME>  (1) 
Cipargamin

>  <CAS_NUMBER>  (1) 
1193314-23-6

>  <UNII>  (1) 
Z7Q4FWA04P

>  <SYNONYMS>  (1) 
Cipargamin

$$$$
