
     RDKit          3D

 27 30  0  0  1  0  0  0  0  0999 V2000
   -0.1005    1.9202    0.9914 C   0  0  0  0  0  0  0  0  0  0  0  0
   -4.4034    2.8713    6.1247 C   0  0  0  0  0  0  0  0  0  0  0  0
   -0.0425   -0.9843    3.1077 C   0  0  0  0  0  0  0  0  0  0  0  0
   -1.2754   -0.7375    4.0239 C   0  0  0  0  0  0  0  0  0  0  0  0
   -1.9641   -0.7475   -0.4681 C   0  0  0  0  0  0  0  0  0  0  0  0
   -1.6298    1.4009    6.4042 C   0  0  0  0  0  0  0  0  0  0  0  0
   -2.2139    0.1512    0.5043 C   0  0  0  0  0  0  0  0  0  0  0  0
   -0.8788    2.6590    5.8646 C   0  0  0  0  0  0  0  0  0  0  0  0
    0.2588   -0.8472    0.5730 C   0  0  0  0  0  0  0  0  0  0  0  0
   -3.5457    3.1508    3.7847 C   0  0  0  0  0  0  0  0  0  0  0  0
   -1.1495    4.1437    8.3759 C   0  0  0  0  0  0  0  0  0  0  0  0
   -0.1976   -0.3366    1.7484 C   0  0  0  0  0  0  0  0  0  0  0  0
   -0.5381   -0.3438   -0.6214 C   0  0  0  0  0  0  0  0  0  0  0  0
   -2.5662    1.2904    5.2338 C   0  0  2  0  0  0  0  0  0  0  0  0
   -1.5230    0.7873    4.1102 C   0  0  2  0  0  0  0  0  0  0  0  0
   -2.3870    2.8802    2.8210 C   0  0  1  0  0  0  0  0  0  0  0  0
   -2.2514    4.2936    7.3335 C   0  0  0  0  0  0  0  0  0  0  0  0
   -1.1612    0.8485    1.5301 C   0  0  1  0  0  0  0  0  0  0  0  0
   -3.1431    2.8160    5.2246 C   0  0  2  0  0  0  0  0  0  0  0  0
   -1.9725    3.6911    5.9418 C   0  0  2  0  0  0  0  0  0  0  0  0
   -1.9928    1.3496    2.7932 C   0  0  1  0  0  0  0  0  0  0  0  0
   -3.2292    0.6977    2.7329 F   0  0  0  0  0  0  0  0  0  0  0  0
   -0.4233    5.3339    8.6208 O   0  0  0  0  0  0  0  0  0  0  0  0
   -0.2350    0.4159   -1.5319 O   0  0  0  0  0  0  0  0  0  0  0  0
   -2.8162    3.2389    1.5168 O   0  0  0  0  0  0  0  0  0  0  0  0
   -3.1797    5.0830    7.5283 O   0  0  0  0  0  0  0  0  0  0  0  0
   -1.3406    4.8370    5.3654 O   0  0  0  0  0  0  0  0  0  0  0  0
  4  3  1  0
  7  5  2  0
  8  6  1  0
 12  3  1  0
 12  9  2  0
 13  5  1  0
 13  9  1  0
 14  6  1  1
 15  4  1  6
 15 14  1  0
 16 10  1  0
 16 25  1  6
 17 11  1  0
 18  7  1  0
 18 12  1  0
 18  1  1  6
 19 10  1  0
 19 14  1  0
 19  2  1  1
 20  8  1  0
 20 19  1  0
 20 27  1  6
 20 17  1  0
 21 15  1  0
 21 16  1  0
 21 18  1  0
 21 22  1  6
 23 11  1  0
 24 13  2  0
 26 17  2  0
M  END
>  <DRUGBANK_ID>  (1) 
DB11522

>  <COMMON_NAME>  (1) 
Isoflupredone

>  <CAS_NUMBER>  (1) 
338-95-4

>  <UNII>  (1) 
HYS0B45Z2S

>  <SYNONYMS>  (1) 
9-fluoroprednisolone; delta-Fluorocortisone; Isoflupredona; Isoflupredone; Isoflupredonum

$$$$
