1532
     RDKit          3D

 25 27  0  0  1  0  0  0  0  0999 V2000
    0.9547    0.1916   -0.0228 O   0  0  0  0  0  0  0  0  0  0  0  0
    5.4919   -3.6207    0.9427 N   0  0  0  0  0  0  0  0  0  0  0  0
    2.9053   -0.5415    1.0663 N   0  0  0  0  0  0  0  0  0  0  0  0
    4.4527   -0.7026    1.0590 C   0  0  0  0  0  0  0  0  0  0  0  0
    5.1248   -1.3023   -0.2274 C   0  0  0  0  0  0  0  0  0  0  0  0
    5.1292   -1.4885    2.2024 C   0  0  0  0  0  0  0  0  0  0  0  0
    5.2694   -2.8187   -0.2547 C   0  0  0  0  0  0  0  0  0  0  0  0
    4.8563   -2.9935    2.1112 C   0  0  0  0  0  0  0  0  0  0  0  0
    4.8876   -5.0040    0.7284 C   0  0  0  0  0  0  0  0  0  0  0  0
    3.2814   -5.1883    0.6630 C   0  0  0  0  0  0  0  0  0  0  0  0
    5.5180   -5.6590   -0.5143 C   0  0  0  0  0  0  0  0  0  0  0  0
    2.0883   -1.2636    2.0744 C   0  0  0  0  0  0  0  0  0  0  0  0
    2.2081    0.1533    0.0552 C   0  0  0  0  0  0  0  0  0  0  0  0
    2.4793   -4.5766   -0.4977 C   0  0  0  0  0  0  0  0  0  0  0  0
    0.9859   -2.0602    1.6899 C   0  0  0  0  0  0  0  0  0  0  0  0
    2.4641   -1.3673    3.4127 C   0  0  0  0  0  0  0  0  0  0  0  0
    2.9535    0.9099   -1.0219 C   0  0  0  0  0  0  0  0  0  0  0  0
    1.8693   -5.3083   -1.4932 C   0  0  0  0  0  0  0  0  0  0  0  0
    2.3545   -3.2016   -0.6664 C   0  0  0  0  0  0  0  0  0  0  0  0
    0.4659   -3.0675    2.5166 C   0  0  0  0  0  0  0  0  0  0  0  0
    1.9917   -2.4060    4.2323 C   0  0  0  0  0  0  0  0  0  0  0  0
    1.3483   -4.6620   -2.6384 C   0  0  0  0  0  0  0  0  0  0  0  0
    2.0551   -2.5584   -1.8596 C   0  0  0  0  0  0  0  0  0  0  0  0
    0.9859   -3.2540    3.7867 C   0  0  0  0  0  0  0  0  0  0  0  0
    1.5267   -3.2999   -2.8682 C   0  0  0  0  0  0  0  0  0  0  0  0
  1 13  2  0
  2  7  1  0
  2  8  1  0
  2  9  1  0
  3  4  1  0
  3 12  1  0
  3 13  1  0
  4  5  1  0
  4  6  1  0
  5  7  1  0
  6  8  1  0
  9 10  1  0
  9 11  1  0
 10 14  1  0
 12 15  2  0
 12 16  1  0
 13 17  1  0
 14 18  2  0
 14 19  1  0
 15 20  1  0
 16 21  2  0
 18 22  1  0
 19 23  2  0
 20 24  2  0
 21 24  1  0
 22 25  2  0
 23 25  1  0
M  END
>  <DRUGBANK_ID>  (1) 
DB01532

>  <COMMON_NAME>  (1) 
Î±-Methylacetylfentanyl

>  <CAS_NUMBER>  (1) 
101860-00-8

>  <UNII>  (1) 
0O1GKW2BQO

>  <SYNONYMS>  (1) 
Acetyl-alpha-methylfentanyl; alphamethylacetylfentanyl

$$$$
