
     RDKit          3D

 15 16  0  0  0  0  0  0  0  0999 V2000
    0.3227    0.6911    0.0005 C   0  0  0  0  0  0  0  0  0  0  0  0
    0.2116   -0.6886    0.0031 C   0  0  0  0  0  0  0  0  0  0  0  0
   -0.8762    1.4359   -0.0001 C   0  0  0  0  0  0  0  0  0  0  0  0
    1.6561    1.0551    0.0007 N   0  0  0  0  0  0  0  0  0  0  0  0
    1.4970   -1.1477    0.0184 N   0  0  0  0  0  0  0  0  0  0  0  0
   -0.9096   -1.4191   -0.0034 N   0  0  0  0  0  0  0  0  0  0  0  0
   -2.0443    0.7371    0.0136 N   0  0  0  0  0  0  0  0  0  0  0  0
   -0.9574    2.8124   -0.0523 N   0  0  0  0  0  0  0  0  0  0  0  0
    2.3314   -0.0693    0.0206 C   0  0  0  0  0  0  0  0  0  0  0  0
   -1.9951   -0.6165    0.0000 C   0  0  0  0  0  0  0  0  0  0  0  0
    0.2026    3.6499    0.1024 C   0  0  0  0  0  0  0  0  0  0  0  0
    0.1976    4.6300   -1.0270 C   0  0  0  0  0  0  0  0  0  0  0  0
    0.3070    5.9626   -0.8833 C   0  0  0  0  0  0  0  0  0  0  0  0
    0.3539    6.8813   -2.0665 C   0  0  0  0  0  0  0  0  0  0  0  0
    0.4113    6.5883    0.4769 C   0  0  0  0  0  0  0  0  0  0  0  0
  1  2  1  0
  1  3  2  0
  1  4  1  0
  2  5  1  0
  2  6  2  0
  3  7  1  0
  3  8  1  0
  4  9  2  0
  5  9  1  0
  6 10  1  0
  7 10  2  0
  8 11  1  0
 11 12  1  0
 12 13  2  3
 13 14  1  0
 13 15  1  0
M  END
>  <DRUGBANK_ID>  (1) 
DB08768

>  <COMMON_NAME>  (1) 
N(6)-dimethylallyladenine

>  <CAS_NUMBER>  (1) 
2365-40-4

>  <UNII>  (1) 
V500BB256Z

>  <SYNONYMS>  (1) 
IPADE; Isopentenyl adenine; Isopentenyladenine; N(6)-(delta(2)-Isopentenyl)adenine; N6-(3-methylbut-2-enyl)adenine; N6-(delta2-Isopentenyl)-adenine; N6-dimethylallyladenine; N6-isopentenyladenine

$$$$
