12894
     RDKit          3D

 18 19  0  0  0  0  0  0  0  0999 V2000
    1.0184    0.2682   -0.0694 S   0  0  0  0  0  0  0  0  0  0  0  0
    2.3262    3.3675   -0.9424 O   0  0  0  0  0  0  0  0  0  0  0  0
    0.6258   -0.4293   -1.2877 O   0  0  0  0  0  0  0  0  0  0  0  0
    0.5124   -0.2023    1.2004 O   0  0  0  0  0  0  0  0  0  0  0  0
    0.4415    1.8625   -0.2524 N   0  0  0  0  0  0  0  0  0  0  0  0
    1.0132    3.9390    0.7864 N   0  0  0  0  0  0  0  0  0  0  0  0
    6.9823    0.0043    0.0701 N   0  0  0  0  0  0  0  0  0  0  0  0
    2.7852    0.1099    0.0431 C   0  0  0  0  0  0  0  0  0  0  0  0
    1.2545    3.0241   -0.1351 C   0  0  0  0  0  0  0  0  0  0  0  0
    2.8770    4.5010   -0.3683 C   0  0  0  0  0  0  0  0  0  0  0  0
    2.0293    4.8837    0.6537 C   0  0  0  0  0  0  0  0  0  0  0  0
    3.5755    1.2194    0.2317 C   0  0  0  0  0  0  0  0  0  0  0  0
    3.4297   -1.1276   -0.0483 C   0  0  0  0  0  0  0  0  0  0  0  0
    4.9461    1.2064    0.0704 C   0  0  0  0  0  0  0  0  0  0  0  0
    4.8423   -1.1727   -0.0313 C   0  0  0  0  0  0  0  0  0  0  0  0
    5.6060    0.0013   -0.0283 C   0  0  0  0  0  0  0  0  0  0  0  0
    4.1725    5.0154   -0.8947 C   0  0  0  0  0  0  0  0  0  0  0  0
    2.0945    6.0928    1.5183 C   0  0  0  0  0  0  0  0  0  0  0  0
  1  3  2  0
  1  4  2  0
  1  5  1  0
  1  8  1  0
  2  9  1  0
  2 10  1  0
  5  9  1  0
  6  9  2  0
  6 11  1  0
  7 16  1  0
  8 12  2  0
  8 13  1  0
 10 11  2  0
 10 17  1  0
 11 18  1  0
 12 14  1  0
 13 15  2  0
 14 16  2  0
 15 16  1  0
M  END
>  <DRUGBANK_ID>  (1) 
DB08798

>  <COMMON_NAME>  (1) 
Sulfamoxole

>  <CAS_NUMBER>  (1) 
729-99-7

>  <UNII>  (1) 
HGG82XE020

>  <SYNONYMS>  (1) 
2-(p-Aminobenzenesulfonamido)-4,5-dimethyloxazole; 2-(p-Aminobenzolsulfonamido)-4,5-dimethyloxazol; 4-Amino-N-(4,5-dimethyl-2-oxazolyl)benzenesulfonamide; 4,5-Dimethyl-2-sulfanilamidooxazole; N(sup 1)-(4,5-Dimethyl-2-oxazolyl)sulfanilamide; N1-(4,5-Dimethyl-2-oxazolyl)sulfanilamide; Oxasulfa; p-Aminobenzenesulfonyl-2-amino-4,5-dimethyloxazole; Sulfadimethyloxazole; Sulfamoxol; Sulfamoxole; Sulfamoxolum; Sulphamoxole

$$$$
