
     RDKit          3D

 18 20  0  0  1  0  0  0  0  0999 V2000
    0.0724    1.2261   -0.5559 C   0  0  0  0  0  0  0  0  0  0  0  0
   -2.3124    1.7172    0.1714 C   0  0  0  0  0  0  0  0  0  0  0  0
    1.7199   -2.9887   -3.9893 C   0  0  0  0  0  0  0  0  0  0  0  0
   -2.0063   -1.5242   -2.2523 C   0  0  0  0  0  0  0  0  0  0  0  0
   -1.0535    0.8850    0.4030 C   0  0  1  0  0  0  0  0  0  0  0  0
    0.8730   -0.0563   -0.5597 C   0  0  2  0  0  0  0  0  0  0  0  0
   -0.8757   -2.4314   -3.8169 C   0  0  0  0  0  0  0  0  0  0  0  0
   -0.3779   -3.0474   -4.9776 C   0  0  0  0  0  0  0  0  0  0  0  0
    0.0365   -2.1526   -2.8079 C   0  0  0  0  0  0  0  0  0  0  0  0
   -0.2223   -1.1294   -0.5140 C   0  0  2  0  0  0  0  0  0  0  0  0
   -1.1824   -3.3753   -6.0463 N   0  0  0  0  0  0  0  0  0  0  0  0
    0.9435   -3.3202   -5.0457 N   0  0  0  0  0  0  0  0  0  0  0  0
    1.3547   -2.4049   -2.8242 N   0  0  0  0  0  0  0  0  0  0  0  0
   -2.1432   -2.0283   -3.4601 N   0  0  0  0  0  0  0  0  0  0  0  0
   -0.7070   -1.5644   -1.8148 N   0  0  0  0  0  0  0  0  0  0  0  0
   -3.3172    1.3618    1.1166 O   0  0  0  0  0  0  0  0  0  0  0  0
    1.7005   -0.0920    0.6127 O   0  0  0  0  0  0  0  0  0  0  0  0
   -1.3286   -0.5244    0.2224 O   0  0  0  0  0  0  0  0  0  0  0  0
  5  1  1  0
  5  2  1  6
  6  1  1  0
  6 17  1  1
  8  7  2  0
  9  7  1  0
 10  6  1  0
 10 15  1  6
 11  8  1  0
 12  3  2  0
 12  8  1  0
 13  3  1  0
 13  9  2  0
 14  4  2  0
 14  7  1  0
 15  4  1  0
 15  9  1  0
 16  2  1  0
 18  5  1  0
 18 10  1  0
M  END
>  <DRUGBANK_ID>  (1) 
DB12156

>  <COMMON_NAME>  (1) 
Cordycepin

>  <CAS_NUMBER>  (1) 
73-03-0

>  <UNII>  (1) 
GZ8VF4M2J8

$$$$
