
     RDKit          3D

 14 13  0  0  0  0  0  0  0  0999 V2000
    1.0638    0.0787   -0.0720 C   0  0  0  0  0  0  0  0  0  0  0  0
   -0.6904    0.8435    1.5153 N   0  0  0  0  0  0  0  0  0  0  0  0
    0.3368   -0.1813    1.2633 C   0  0  1  0  0  0  0  0  0  0  0  0
   -2.0546    0.8199    1.6091 C   0  0  0  0  0  0  0  0  0  0  0  0
    1.4941   -3.0663    2.1327 C   0  0  0  0  0  0  0  0  0  0  0  0
    0.4733    0.2340   -1.1292 O   0  0  0  0  0  0  0  0  0  0  0  0
   -2.5943    1.9009    1.8712 O   0  0  0  0  0  0  0  0  0  0  0  0
    1.3914   -4.0524    2.8338 O   0  0  0  0  0  0  0  0  0  0  0  0
   -0.2475   -1.5814    1.1997 C   0  0  0  0  0  0  0  0  0  0  0  0
    0.6105   -2.7928    0.9486 C   0  0  0  0  0  0  0  0  0  0  0  0
    2.4044   -2.0943    2.4146 N   0  0  0  0  0  0  0  0  0  0  0  0
    2.4169    0.0314   -0.0439 O   0  0  0  0  0  0  0  0  0  0  0  0
   -3.0941   -0.9856    0.1420 N   0  0  0  0  0  0  0  0  0  0  0  0
   -2.9161   -0.4595    1.5026 C   0  0  0  0  0  0  0  0  0  0  0  0
  3  2  1  0
  3  1  1  0
  4  2  1  0
  5 10  1  0
  6  1  2  0
  7  4  2  0
  8  5  2  0
  3  9  1  6
 10  9  1  0
 11  5  1  0
 12  1  1  0
 13 14  1  0
 14  4  1  0
M  END
>  <DRUGBANK_ID>  (1) 
DB15990

>  <COMMON_NAME>  (1) 
Glycylglutamine

>  <CAS_NUMBER>  (1) 
13115-71-4

>  <UNII>  (1) 
H7125Z98HT

>  <SYNONYMS>  (1) 
Gly-gln; Glycyl-glutamine; Glycyl-L-glutamine

$$$$
