
     RDKit          3D

 20 19  0  0  0  0  0  0  0  0999 V2000
   -2.0098   -0.6122    0.3204 C   0  0  0  0  0  0  0  0  0  0  0  0
   -1.3735   -1.8198    0.1190 C   0  0  0  0  0  0  0  0  0  0  0  0
   -1.2007    0.3949    0.5322 C   0  0  0  0  0  0  0  0  0  0  0  0
   -0.0647   -2.0331   -0.3312 C   0  0  0  0  0  0  0  0  0  0  0  0
   -0.0984    0.2454    0.0070 C   0  0  0  0  0  0  0  0  0  0  0  0
    0.5234   -0.9834   -0.8214 C   0  0  0  0  0  0  0  0  0  0  0  0
    0.5508    2.0250    0.1202 C   0  0  0  0  0  0  0  0  0  0  0  0
    2.0232   -1.1131   -1.2693 O   0  0  0  0  0  0  0  0  0  0  0  0
   -0.2480    2.8177   -0.4942 O   0  0  0  0  0  0  0  0  0  0  0  0
    2.2678    2.2603    0.3149 O   0  0  0  0  0  0  0  0  0  0  0  0
    1.8131    0.3743    0.3178 C   0  0  0  0  0  0  0  0  0  0  0  0
   -1.0657    1.1741   -1.6513 C   0  0  0  0  0  0  0  0  0  0  0  0
    1.4377    2.8893   -1.5648 C   0  0  0  0  0  0  0  0  0  0  0  0
    0.9412    0.4334    2.0223 C   0  0  0  0  0  0  0  0  0  0  0  0
   -2.5825    1.9048   -0.4055 C   0  0  0  0  0  0  0  0  0  0  0  0
    1.1630    4.0537    0.0989 C   0  0  0  0  0  0  0  0  0  0  0  0
    0.9192    1.0982   -1.4980 N   0  0  0  0  0  0  0  0  0  0  0  0
    1.6362    1.4407    2.6350 O   0  0  0  0  0  0  0  0  0  0  0  0
   -2.3434    3.2004    0.2279 O   0  0  0  0  0  0  0  0  0  0  0  0
    1.1483    3.4225    1.6919 O   0  0  0  0  0  0  0  0  0  0  0  0
  2  1  2  0
  3  1  1  0
  4  2  1  0
  5  3  2  0
  6  4  2  0
  6  5  1  0
  7  5  1  0
  8  6  1  0
  9  7  2  0
 10  7  1  0
 14 11  1  0
 15 12  1  0
 16 13  1  0
 17 11  1  0
 17 12  1  0
 17 13  1  0
 18 14  1  0
 19 15  1  0
 20 16  1  0
M  END
>  <DRUGBANK_ID>  (1) 
DB11079

>  <COMMON_NAME>  (1) 
Trolamine salicylate

>  <CAS_NUMBER>  (1) 
2174-16-5

>  <UNII>  (1) 
H8O4040BHD

>  <SYNONYMS>  (1) 
Trolamine salicylate

$$$$
