
     RDKit          3D

 35 38  0  0  1  0  0  0  0  0999 V2000
   11.1152   14.1139   -0.6604 C   0  0  0  0  0  0  0  0  0  0  0  0
   12.5247   14.2238   -1.2247 C   0  0  0  0  0  0  0  0  0  0  0  0
   16.6794    7.6670    1.1727 C   0  0  0  0  0  0  0  0  0  0  0  0
   16.6515    8.2429    2.4346 C   0  0  0  0  0  0  0  0  0  0  0  0
   15.9040    6.5410    0.9697 C   0  0  0  0  0  0  0  0  0  0  0  0
   15.8036    7.7509    3.4570 C   0  0  0  0  0  0  0  0  0  0  0  0
   11.6978    7.0459   -2.0064 C   0  0  0  0  0  0  0  0  0  0  0  0
   13.8351    7.0510   -1.0491 C   0  0  0  0  0  0  0  0  0  0  0  0
   11.5930    5.6408   -1.8207 C   0  0  0  0  0  0  0  0  0  0  0  0
   13.8122    5.6420   -1.0706 C   0  0  0  0  0  0  0  0  0  0  0  0
   11.8796   10.0047   -1.0411 C   0  0  0  0  0  0  0  0  0  0  0  0
   14.0118    9.8917   -2.1377 C   0  0  0  0  0  0  0  0  0  0  0  0
   11.8263   11.3446   -1.3661 C   0  0  0  0  0  0  0  0  0  0  0  0
   13.9743   11.2628   -2.4131 C   0  0  0  0  0  0  0  0  0  0  0  0
   11.6932    3.2439    2.1193 C   0  0  0  0  0  0  0  0  0  0  0  0
   12.0884    4.2147    3.3293 C   0  0  0  0  0  0  0  0  0  0  0  0
   13.4847    2.6876    0.1705 C   0  0  0  0  0  0  0  0  0  0  0  0
   12.7871    7.7811   -1.5240 C   0  0  0  0  0  0  0  0  0  0  0  0
   12.9070    9.2365   -1.5508 C   0  0  0  0  0  0  0  0  0  0  0  0
   12.6583    4.9050   -1.3123 C   0  0  0  0  0  0  0  0  0  0  0  0
   12.7671    2.2579    1.5149 C   0  0  1  0  0  0  0  0  0  0  0  0
   12.8762   12.0050   -1.9997 C   0  0  0  0  0  0  0  0  0  0  0  0
   14.9608    6.1702    1.9505 C   0  0  0  0  0  0  0  0  0  0  0  0
   14.9190    6.7324    3.1871 C   0  0  0  0  0  0  0  0  0  0  0  0
   12.5063    3.4275   -0.8462 C   0  0  0  0  0  0  0  0  0  0  0  0
   13.7789    5.3274    1.9703 C   0  0  0  0  0  0  0  0  0  0  0  0
   13.8525    6.0480    3.9896 C   0  0  0  0  0  0  0  0  0  0  0  0
   13.7480    1.8222    2.5995 C   0  0  0  0  0  0  0  0  0  0  0  0
   13.2269    5.1718    3.1732 N   0  0  0  0  0  0  0  0  0  0  0  0
   11.4901    2.8301   -1.2148 O   0  0  0  0  0  0  0  0  0  0  0  0
   13.1972    4.9061    1.0372 O   0  0  0  0  0  0  0  0  0  0  0  0
   13.6466    6.2547    5.1683 O   0  0  0  0  0  0  0  0  0  0  0  0
   13.8043    0.7141    3.1086 O   0  0  0  0  0  0  0  0  0  0  0  0
   14.5497    2.8049    3.0580 O   0  0  0  0  0  0  0  0  0  0  0  0
   12.8212   13.3330   -2.3180 O   0  0  0  0  0  0  0  0  0  0  0  0
  2  1  1  0
  4  3  2  0
  5  3  1  0
  6  4  1  0
  9  7  2  0
 10  8  1  0
 13 11  2  0
 14 12  1  0
 16 15  1  0
 18  7  1  0
 18  8  2  0
 19 11  1  0
 19 12  2  0
 19 18  1  0
 20  9  1  0
 20 10  2  0
 21 28  1  0
 21 17  1  6
 21 15  1  0
 22 13  1  0
 22 14  2  0
 23  5  2  0
 24  6  2  0
 24 23  1  0
 25 17  1  0
 25 20  1  0
 26 23  1  0
 27 24  1  0
 29 16  1  0
 29 26  1  0
 29 27  1  0
 30 25  2  0
 31 26  2  0
 32 27  2  0
 33 28  2  0
 34 28  1  0
 35  2  1  0
 35 22  1  0
M  END
>  <DRUGBANK_ID>  (1) 
DB04405

>  <SECONDARY_ACCESSION_NUMBERS>  (1) 
EXPT01160

>  <COMMON_NAME>  (1) 
2-[2-(1,3-Dioxo-1,3-Dihydro-2h-Isoindol-2-Yl)Ethyl]-4-(4'-Ethoxy-1,1'-Biphenyl-4-Yl)-4-Oxobutanoic Acid

$$$$
