
     RDKit          3D

 26 26  0  0  1  0  0  0  0  0999 V2000
   -1.2136    3.4706    2.3683 C   0  0  0  0  0  0  0  0  0  0  0  0
   -1.6609    0.9795   -0.1436 C   0  0  0  0  0  0  0  0  0  0  0  0
   -3.0432    2.7069    1.0886 C   0  0  0  0  0  0  0  0  0  0  0  0
   -2.2959    2.4130   -0.0213 C   0  0  0  0  0  0  0  0  0  0  0  0
   -1.2829    0.3671    1.2357 C   0  0  2  0  0  0  0  0  0  0  0  0
   -3.1638    1.5852    2.3109 C   0  0  2  0  0  0  0  0  0  0  0  0
   -2.5784    0.1704    2.0336 C   0  0  1  0  0  0  0  0  0  0  0  0
   -2.0721    3.5582   -0.9263 C   0  0  0  0  0  0  0  0  0  0  0  0
    0.4516    3.1556    0.5291 C   0  0  0  0  0  0  0  0  0  0  0  0
   -0.1691    2.5416    1.7982 C   0  0  2  0  0  0  0  0  0  0  0  0
   -3.4125   -0.7196    1.2675 O   0  0  0  0  0  0  0  0  0  0  0  0
   -2.3892    4.7361   -0.6933 O   0  0  0  0  0  0  0  0  0  0  0  0
   -1.2925    3.2386   -1.9608 O   0  0  0  0  0  0  0  0  0  0  0  0
    0.5619    4.3574    0.3235 O   0  0  0  0  0  0  0  0  0  0  0  0
    0.6452    2.2716   -0.4731 O   0  0  0  0  0  0  0  0  0  0  0  0
   -4.2634    1.1490    0.2233 O   0  0  0  0  0  0  0  0  0  0  0  0
   -5.5833   -0.0761    2.1343 O   0  0  0  0  0  0  0  0  0  0  0  0
   -6.1230    0.9551    0.1577 O   0  0  0  0  0  0  0  0  0  0  0  0
   -1.0238    1.4408    4.1633 O   0  0  0  0  0  0  0  0  0  0  0  0
    1.4157    1.6782    4.4025 O   0  0  0  0  0  0  0  0  0  0  0  0
   -0.1823    2.1375    6.0111 O   0  0  0  0  0  0  0  0  0  0  0  0
   -0.2142    1.1079    1.8695 O   0  0  0  0  0  0  0  0  0  0  0  0
   -4.3929    1.7897    2.8143 O   0  0  0  0  0  0  0  0  0  0  0  0
    0.3292    3.0651    2.9086 O   0  0  0  0  0  0  0  0  0  0  0  0
   -5.3059    1.3493    1.4124 P   0  0  0  0  0  0  0  0  0  0  0  0
    0.0593    2.5756    4.5458 P   0  0  0  0  0  0  0  0  0  0  0  0
  4  2  1  0
  4  3  2  0
  5  2  1  0
  5 22  1  1
  6  3  1  0
  6 23  1  6
  7  5  1  0
  7  6  1  0
  7 11  1  6
  8  4  1  0
 10 22  1  0
 10  9  1  0
 10  1  1  6
 12  8  2  0
 13  8  1  0
 14  9  2  0
 15  9  1  0
 24 10  1  0
 25 16  1  0
 25 17  1  0
 25 18  2  0
 25 23  1  0
 26 19  1  0
 26 20  1  0
 26 21  2  0
 26 24  1  0
M  END
>  <DRUGBANK_ID>  (1) 
DB03116

>  <SECONDARY_ACCESSION_NUMBERS>  (1) 
EXPT02914

>  <COMMON_NAME>  (1) 
5-(1-Carboxy-1-Phosphonooxy-Ethoxyl)-Shikimate-3-Phosphate

$$$$
