CR3
     RDKit          3D

 25 28  0  0  0  0  0  0  0  0999 V2000
    2.2105   -0.7238   -0.0229 C   0  0  0  0  0  0  0  0  0  0  0  0
    2.1298    0.6851   -0.0294 C   0  0  0  0  0  0  0  0  0  0  0  0
    0.9041    1.3776    0.0154 C   0  0  0  0  0  0  0  0  0  0  0  0
   -0.2609    0.6090    0.0954 C   0  0  0  0  0  0  0  0  0  0  0  0
   -0.2261   -0.7801    0.0992 C   0  0  0  0  0  0  0  0  0  0  0  0
    1.0057   -1.4399    0.0251 C   0  0  0  0  0  0  0  0  0  0  0  0
    3.4989   -1.4566   -0.0629 C   0  0  0  0  0  0  0  0  0  0  0  0
    3.5347   -2.7770   -0.0478 N   0  0  0  0  0  0  0  0  0  0  0  0
    4.6428   -0.8063   -0.1064 N   0  0  0  0  0  0  0  0  0  0  0  0
   -1.5978    0.9556    0.1257 N   0  0  0  0  0  0  0  0  0  0  0  0
   -1.5502   -1.2593    0.1409 C   0  0  0  0  0  0  0  0  0  0  0  0
   -2.3881   -0.1778    0.2552 C   0  0  0  0  0  0  0  0  0  0  0  0
   -3.8547   -0.1640    0.0891 C   0  0  0  0  0  0  0  0  0  0  0  0
   -4.6647   -0.7907    1.0367 C   0  0  0  0  0  0  0  0  0  0  0  0
   -6.0443   -0.8032    0.8800 C   0  0  0  0  0  0  0  0  0  0  0  0
   -6.6205   -0.1638   -0.2136 C   0  0  0  0  0  0  0  0  0  0  0  0
   -5.8114    0.4240   -1.2074 C   0  0  0  0  0  0  0  0  0  0  0  0
   -6.5776    0.9840   -2.2162 O   0  0  0  0  0  0  0  0  0  0  0  0
   -4.3867    0.3725   -1.1039 C   0  0  0  0  0  0  0  0  0  0  0  0
   -3.5403    0.7126   -2.0015 O   0  0  0  0  0  0  0  0  0  0  0  0
   -5.1871    0.8824   -4.2819 C   0  0  0  0  0  0  0  0  0  0  0  0
   -5.9773    1.7241   -3.2786 C   0  0  0  0  0  0  0  0  0  0  0  0
   -5.1336    2.9428   -2.8585 C   0  0  0  0  0  0  0  0  0  0  0  0
   -3.8895    2.9166   -3.7531 C   0  0  0  0  0  0  0  0  0  0  0  0
   -4.1576    1.8633   -4.8367 C   0  0  0  0  0  0  0  0  0  0  0  0
  1  2  2  0
  1  6  1  0
  1  7  1  0
  2  3  1  0
  3  4  2  0
  4  5  1  0
  4 10  1  0
  5  6  2  0
  5 11  1  0
  7  8  1  0
  7  9  2  0
 10 12  1  0
 11 12  2  0
 12 13  1  0
 13 14  2  0
 13 19  1  0
 14 15  1  0
 15 16  2  0
 16 17  1  0
 17 18  1  0
 17 19  2  0
 18 22  1  0
 19 20  1  0
 21 22  1  0
 21 25  1  0
 22 23  1  0
 23 24  1  0
 24 25  1  0
M  CHG  2   9   1  20  -1
M  END
>  <DRUGBANK_ID>  (1) 
DB03173

>  <SECONDARY_ACCESSION_NUMBERS>  (1) 
EXPT01012

>  <COMMON_NAME>  (1) 
CRA_10433

$$$$
