1608
     RDKit          3D

 26 29  0  0  0  0  0  0  0  0999 V2000
   -0.1035   -1.9723    0.0812 S   0  0  0  0  0  0  0  0  0  0  0  0
    5.7750    5.4629   -0.6040 O   0  0  0  0  0  0  0  0  0  0  0  0
    2.8568    3.7096    0.2985 N   0  0  0  0  0  0  0  0  0  0  0  0
    0.0689    1.2137   -0.0612 N   0  0  0  0  0  0  0  0  0  0  0  0
    6.2153    1.1195    0.1569 N   0  0  0  0  0  0  0  0  0  0  0  0
    4.2207    3.2574    0.1719 C   0  0  0  0  0  0  0  0  0  0  0  0
    2.8222    5.1305    0.1063 C   0  0  0  0  0  0  0  0  0  0  0  0
    4.8312    4.8809   -1.5040 C   0  0  0  0  0  0  0  0  0  0  0  0
    4.7892    3.3996   -1.2609 C   0  0  0  0  0  0  0  0  0  0  0  0
    3.4329    5.4559   -1.2707 C   0  0  0  0  0  0  0  0  0  0  0  0
    2.1832    3.1383    1.4804 C   0  0  0  0  0  0  0  0  0  0  0  0
    0.6850    3.3111    1.3328 C   0  0  0  0  0  0  0  0  0  0  0  0
    0.1268    2.7240    0.0149 C   0  0  0  0  0  0  0  0  0  0  0  0
    1.2687    0.4263   -0.1915 C   0  0  0  0  0  0  0  0  0  0  0  0
   -1.2402    0.6276   -0.0010 C   0  0  0  0  0  0  0  0  0  0  0  0
    1.3117   -0.9544   -0.0232 C   0  0  0  0  0  0  0  0  0  0  0  0
   -1.3955   -0.7763    0.0150 C   0  0  0  0  0  0  0  0  0  0  0  0
    2.5392    0.9223   -0.5204 C   0  0  0  0  0  0  0  0  0  0  0  0
   -2.4489    1.3637    0.0061 C   0  0  0  0  0  0  0  0  0  0  0  0
    2.5211   -1.6941    0.0134 C   0  0  0  0  0  0  0  0  0  0  0  0
   -2.6512   -1.3899    0.0053 C   0  0  0  0  0  0  0  0  0  0  0  0
    3.8007    0.2158   -0.3066 C   0  0  0  0  0  0  0  0  0  0  0  0
   -3.7064    0.7419    0.0059 C   0  0  0  0  0  0  0  0  0  0  0  0
    3.7569   -1.1087   -0.0351 C   0  0  0  0  0  0  0  0  0  0  0  0
   -3.8050   -0.6368    0.0005 C   0  0  0  0  0  0  0  0  0  0  0  0
    5.1854    0.7134   -0.1485 C   0  0  0  0  0  0  0  0  0  0  0  0
  1 16  1  0
  1 17  1  0
  2  8  1  0
  3  6  1  0
  3  7  1  0
  3 11  1  0
  4 13  1  0
  4 14  1  0
  4 15  1  0
  5 26  3  0
  6  9  1  0
  7 10  1  0
  8  9  1  0
  8 10  1  0
 11 12  1  0
 12 13  1  0
 14 16  2  0
 14 18  1  0
 15 17  2  0
 15 19  1  0
 16 20  1  0
 17 21  1  0
 18 22  2  0
 19 23  2  0
 20 24  2  0
 21 25  2  0
 22 24  1  0
 22 26  1  0
 23 25  1  0
M  END
>  <DRUGBANK_ID>  (1) 
DB01608

>  <COMMON_NAME>  (1) 
Periciazine

>  <CAS_NUMBER>  (1) 
2622-26-6

>  <UNII>  (1) 
3405M6FD73

>  <SYNONYMS>  (1) 
10-(3-(4-Hydroxypiperidino)propyl)phenothiazine-2-carbonitrile; 2-Cyano-10-(3-(4-hydroxy-1-piperidyl)propyl)phenothiazine; 2-Cyano-10-(3-(4-hydroxypiperidino)propyl)phenothiazine; Cyano-3 ((hydroxy-4 piperidyl-1)-3 propyl)-10 phenothiazine; Periciazina; PÃ©riciazine; Periciazine; Periciazinum; Pericyazine; Piperocyanomazine; Propericiazine

$$$$
