
     RDKit          3D

 30 33  0  0  1  0  0  0  0  0999 V2000
    1.0859   -0.1834   -0.1038 C   0  0  0  0  0  0  0  0  0  0  0  0
    0.6043   -0.5053    1.3158 C   0  0  1  0  0  0  0  0  0  0  0  0
    0.9737    0.6955    2.2500 C   0  0  0  0  0  0  0  0  0  0  0  0
    0.5978    2.1009    1.8577 N   0  0  0  0  0  0  0  0  0  0  0  0
    1.2267    3.2900    2.3782 C   0  0  0  0  0  0  0  0  0  0  0  0
    2.3551    3.5601    3.1704 C   0  0  0  0  0  0  0  0  0  0  0  0
    3.2449    2.6507    3.8121 C   0  0  0  0  0  0  0  0  0  0  0  0
    4.3490    3.1194    4.5456 C   0  0  0  0  0  0  0  0  0  0  0  0
    4.5634    4.4968    4.6422 C   0  0  0  0  0  0  0  0  0  0  0  0
    3.7038    5.3893    4.0299 C   0  0  0  0  0  0  0  0  0  0  0  0
    2.6220    4.9577    3.3135 C   0  0  0  0  0  0  0  0  0  0  0  0
    1.9064    5.9684    2.7971 N   0  0  0  0  0  0  0  0  0  0  0  0
    0.8317    5.6736    2.0776 C   0  0  0  0  0  0  0  0  0  0  0  0
    0.4944    4.3792    1.8712 C   0  0  0  0  0  0  0  0  0  0  0  0
   -0.5440    3.9320    1.1100 N   0  0  0  0  0  0  0  0  0  0  0  0
   -0.4381    2.5842    1.0097 C   0  0  0  0  0  0  0  0  0  0  0  0
   -1.2245    2.0884    0.1986 O   0  0  0  0  0  0  0  0  0  0  0  0
   -1.5828    4.6228    0.4101 C   0  0  0  0  0  0  0  0  0  0  0  0
    5.2646    2.2242    5.2418 C   0  0  0  0  0  0  0  0  0  0  0  0
    5.4188    2.3214    6.6283 C   0  0  0  0  0  0  0  0  0  0  0  0
    6.3484    1.5299    7.3028 C   0  0  0  0  0  0  0  0  0  0  0  0
    7.0944    0.6465    6.5232 C   0  0  0  0  0  0  0  0  0  0  0  0
    6.9763    0.5094    5.1843 N   0  0  0  0  0  0  0  0  0  0  0  0
    6.0679    1.3041    4.5774 C   0  0  0  0  0  0  0  0  0  0  0  0
    6.5426    1.6224    8.8016 C   0  0  0  0  0  0  0  0  0  0  0  0
    6.2159    0.2789    9.4568 C   0  0  0  0  0  0  0  0  0  0  0  0
    7.9745    2.0523    9.1289 C   0  0  0  0  0  0  0  0  0  0  0  0
    5.6558    2.6058    9.3491 O   0  0  0  0  0  0  0  0  0  0  0  0
   -0.7490   -1.0086    1.4458 O   0  0  0  0  0  0  0  0  0  0  0  0
   -1.6740   -0.0064    1.1321 C   0  0  0  0  0  0  0  0  0  0  0  0
  2  1  1  6
  2  3  1  0
  2 29  1  0
  3  4  1  0
  4  5  1  0
  4 16  1  0
  5  6  2  0
  5 14  1  0
  6  7  1  0
  6 11  1  0
  7  8  2  0
  8  9  1  0
  8 19  1  0
  9 10  2  0
 10 11  1  0
 11 12  2  0
 12 13  1  0
 13 14  2  0
 14 15  1  0
 15 16  1  0
 15 18  1  0
 16 17  2  0
 19 20  2  0
 19 24  1  0
 20 21  1  0
 21 22  2  0
 21 25  1  0
 22 23  1  0
 23 24  2  0
 25 26  1  0
 25 27  1  0
 25 28  1  0
 29 30  1  0
M  END
>  <DRUGBANK_ID>  (1) 
DB12167

>  <COMMON_NAME>  (1) 
LY-3023414

>  <CAS_NUMBER>  (1) 
1386874-06-1

>  <UNII>  (1) 
C88817F47Y

>  <SYNONYMS>  (1) 
Samotolisib

$$$$
