1514
     RDKit          3D

 24 28  0  0  1  0  0  0  0  0999 V2000
    0.5685    0.2495    0.5271 O   0  0  0  0  0  0  0  0  0  0  0  0
   -7.0162   -7.9188    3.3991 O   0  0  0  0  0  0  0  0  0  0  0  0
   -7.0418   -7.5039    2.0546 N   0  0  0  0  0  0  0  0  0  0  0  0
   -5.7131   -8.1406    3.8717 N   0  0  0  0  0  0  0  0  0  0  0  0
   -0.8754   -2.8858    1.2198 C   0  0  2  0  0  0  0  0  0  0  0  0
   -1.2022   -1.4496    1.5776 C   0  0  1  0  0  0  0  0  0  0  0  0
   -1.6458   -4.0544    1.7709 C   0  0  1  0  0  0  0  0  0  0  0  0
   -3.2004   -3.9603    1.4013 C   0  0  1  0  0  0  0  0  0  0  0  0
   -4.0829   -5.4014    1.6628 C   0  0  2  0  0  0  0  0  0  0  0  0
   -0.2318   -0.8989    0.2687 C   0  0  2  0  0  0  0  0  0  0  0  0
   -2.7850   -1.3488    1.6220 C   0  0  0  0  0  0  0  0  0  0  0  0
   -3.5255   -2.6112    2.2199 C   0  0  0  0  0  0  0  0  0  0  0  0
   -3.0225   -6.5701    1.9020 C   0  0  1  0  0  0  0  0  0  0  0  0
    0.6667   -2.8624    1.2280 C   0  0  0  0  0  0  0  0  0  0  0  0
   -1.0556   -5.2541    1.0945 C   0  0  0  0  0  0  0  0  0  0  0  0
    0.8285   -2.0771   -0.0405 C   0  0  0  0  0  0  0  0  0  0  0  0
   -1.5108   -6.4266    1.8860 C   0  0  0  0  0  0  0  0  0  0  0  0
   -5.1013   -6.4842    0.6786 C   0  0  0  0  0  0  0  0  0  0  0  0
   -0.7593   -1.1371    3.0548 C   0  0  0  0  0  0  0  0  0  0  0  0
   -5.2339   -4.9152    2.5978 C   0  0  0  0  0  0  0  0  0  0  0  0
   -3.4743   -7.7319    2.8113 C   0  0  0  0  0  0  0  0  0  0  0  0
   -1.1024   -0.6926   -0.9836 C   0  0  0  0  0  0  0  0  0  0  0  0
   -5.7271   -7.4302    1.7288 C   0  0  0  0  0  0  0  0  0  0  0  0
   -4.9457   -7.8927    2.7913 C   0  0  0  0  0  0  0  0  0  0  0  0
  2  3  1  0
  2  4  1  0
  3 23  2  0
  4 24  2  0
  5  6  1  0
  5  7  1  0
  5 14  1  1
  6 10  1  0
  6 11  1  0
  6 19  1  1
  7  8  1  0
  7 15  1  6
  8  9  1  0
  8 12  1  1
  9 13  1  0
  9 18  1  0
  9 20  1  1
 10  1  1  0
 10 16  1  0
 10 22  1  6
 11 12  1  0
 13 17  1  1
 13 21  1  0
 14 16  1  0
 15 17  1  0
 18 23  1  0
 21 24  1  0
 23 24  1  0
M  END
>  <DRUGBANK_ID>  (1) 
DB01514

>  <COMMON_NAME>  (1) 
Furazabol

>  <CAS_NUMBER>  (1) 
1239-29-8

>  <UNII>  (1) 
2W07HSP5PX

>  <SYNONYMS>  (1) 
Furazabol

$$$$
