378
     RDKit          3D

 23 26  0  0  1  0  0  0  0  0999 V2000
    0.1441    1.3328   -1.2598 O   0  0  0  0  0  0  0  0  0  0  0  0
    2.7958    6.1270    9.3967 O   0  0  0  0  0  0  0  0  0  0  0  0
    1.1621    1.9018    2.0669 C   0  0  2  0  0  0  0  0  0  0  0  0
    0.2966    2.7169    2.9795 C   0  0  2  0  0  0  0  0  0  0  0  0
    0.6728    3.1797    4.3399 C   0  0  1  0  0  0  0  0  0  0  0  0
    1.5141    2.3267    5.2435 C   0  0  1  0  0  0  0  0  0  0  0  0
   -0.3534    2.0878    0.9995 C   0  0  2  0  0  0  0  0  0  0  0  0
    1.7589    0.8143    3.1062 C   0  0  0  0  0  0  0  0  0  0  0  0
   -0.9103    1.7405    3.0933 C   0  0  0  0  0  0  0  0  0  0  0  0
    2.3124    1.2910    4.4896 C   0  0  0  0  0  0  0  0  0  0  0  0
    2.4021    3.1474    6.4529 C   0  0  2  0  0  0  0  0  0  0  0  0
   -1.6132    2.2247    1.8969 C   0  0  0  0  0  0  0  0  0  0  0  0
    1.8873    1.4783    0.8230 C   0  0  0  0  0  0  0  0  0  0  0  0
    1.3864    4.4288    4.2457 C   0  0  0  0  0  0  0  0  0  0  0  0
    1.4157    4.2645    6.7443 C   0  0  0  0  0  0  0  0  0  0  0  0
    3.7340    4.4171    6.4239 C   0  0  0  0  0  0  0  0  0  0  0  0
   -0.5920    1.2315   -0.2707 C   0  0  0  0  0  0  0  0  0  0  0  0
    2.5795    1.9169    7.4415 C   0  0  0  0  0  0  0  0  0  0  0  0
    1.4880    5.0635    5.4113 C   0  0  0  0  0  0  0  0  0  0  0  0
    3.3377    5.9999    7.0814 C   0  0  0  0  0  0  0  0  0  0  0  0
    1.4823    4.6662    8.0417 C   0  0  0  0  0  0  0  0  0  0  0  0
    2.5498    5.6953    8.3121 C   0  0  0  0  0  0  0  0  0  0  0  0
   -1.6898    0.2149   -0.3210 C   0  0  0  0  0  0  0  0  0  0  0  0
  1 17  2  0
  2 22  2  0
  3  4  1  0
  3  7  1  0
  3  8  1  0
  3 13  1  6
  4  5  1  0
  4  9  1  1
  5  6  1  0
  5 14  1  6
  6 10  1  6
  6 11  1  0
  7 12  1  0
  7 17  1  6
  8 10  1  0
  9 12  1  0
 11 15  1  0
 11 16  1  0
 11 18  1  1
 14 19  2  0
 15 19  1  0
 15 21  2  0
 16 20  1  0
 17 23  1  0
 20 22  1  0
 21 22  1  0
M  END
>  <DRUGBANK_ID>  (1) 
DB00378

>  <SECONDARY_ACCESSION_NUMBERS>  (1) 
APRD00941

>  <COMMON_NAME>  (1) 
Dydrogesterone

>  <CAS_NUMBER>  (1) 
152-62-5

>  <UNII>  (1) 
90I02KLE8K

>  <SYNONYMS>  (1) 
(9β,10α)-pregna-4,6-diene-3,20-dione; 10α-Isopregnenone; 6-Dehydro-retro-progesterone; 9β,10α-pregna-4,6-diene-3,20-dione; delta(6)-Retroprogesterone; delta(sup 6)-Retroprogesterone; Didrogesterona; Didrogesterone; Dydrogesterona; Dydrogestérone; Dydrogesterone; Dydrogesteronum; Gestatron; Hydrogesterone; Hydrogestrone; Isopregnenone; Retro-6-dehydroprogesterone

$$$$
