
     RDKit          3D

 19 18  0  0  0  0  0  0  0  0999 V2000
    0.5518    0.2435   -0.5187 C   0  0  0  0  0  0  0  0  0  0  0  0
    0.4767   -0.6626   -1.7118 C   0  0  0  0  0  0  0  0  0  0  0  0
    1.1373   -2.0467   -1.4892 C   0  0  0  0  0  0  0  0  0  0  0  0
   -0.4882   -0.2857    0.3277 O   0  0  0  0  0  0  0  0  0  0  0  0
   -0.9299   -0.8841   -1.9215 O   0  0  0  0  0  0  0  0  0  0  0  0
    0.7161   -2.7617   -0.2803 O   0  0  0  0  0  0  0  0  0  0  0  0
    1.2067   -2.7027    0.9964 C   0  0  0  0  0  0  0  0  0  0  0  0
    2.0444   -1.4750    1.3496 C   0  0  0  0  0  0  0  0  0  0  0  0
    1.3029   -0.3691    2.1961 C   0  0  0  0  0  0  0  0  0  0  0  0
    0.7823   -0.9418    3.4917 C   0  0  0  0  0  0  0  0  0  0  0  0
    2.0196   -1.3227    4.2614 C   0  0  0  0  0  0  0  0  0  0  0  0
    2.8853   -0.0584    4.4321 C   0  0  0  0  0  0  0  0  0  0  0  0
    2.0888    0.9986    5.2071 C   0  0  0  0  0  0  0  0  0  0  0  0
    1.6884    0.3971    6.5540 C   0  0  0  0  0  0  0  0  0  0  0  0
    2.9513   -0.0431    7.3045 C   0  0  0  0  0  0  0  0  0  0  0  0
    3.8606    1.1620    7.5668 C   0  0  0  0  0  0  0  0  0  0  0  0
    3.1328    2.2247    8.3894 C   0  0  0  0  0  0  0  0  0  0  0  0
    2.6998    1.6465    9.7265 C   0  0  0  0  0  0  0  0  0  0  0  0
    0.8468   -3.4972    1.8229 O   0  0  0  0  0  0  0  0  0  0  0  0
  1  2  1  0
  1  4  1  0
  2  3  1  0
  2  5  1  0
  3  6  1  0
  7  8  1  0
  7 19  2  0
  7  6  1  0
  8  9  1  0
  9 10  1  0
 10 11  1  0
 11 12  1  0
 12 13  1  0
 13 14  1  0
 14 15  1  0
 15 16  1  0
 16 17  1  0
 17 18  1  0
M  END
>  <DRUGBANK_ID>  (1) 
DB16635

>  <COMMON_NAME>  (1) 
Glyceryl laurate

>  <CAS_NUMBER>  (1) 
27215-38-9

>  <UNII>  (1) 
WR963Y5QYW

>  <SYNONYMS>  (1) 
Glycerin monolaurate; Glycerol monolaurate; Glyceryl monolaurate; Lauric acid monoglyceride; Monododecanoyl glycerol; Monoglycerol laurate; Monolaurin; Monolauroylglycerin

$$$$
