
     RDKit          3D

 22 23  0  0  1  0  0  0  0  0999 V2000
   -0.2097   -1.1228   -0.1194 N   0  0  0  0  0  0  0  0  0  0  0  0
   -0.6006   -2.5320   -0.0588 C   0  0  2  0  0  0  0  0  0  0  0  0
    1.0879   -0.6867   -0.0176 C   0  0  0  0  0  0  0  0  0  0  0  0
   -0.9593    0.0113   -0.3342 C   0  0  0  0  0  0  0  0  0  0  0  0
   -1.5395   -2.8419   -1.0990 O   0  0  0  0  0  0  0  0  0  0  0  0
   -1.1591   -3.0412    1.2705 C   0  0  1  0  0  0  0  0  0  0  0  0
    1.0456    0.6971   -0.0336 C   0  0  0  0  0  0  0  0  0  0  0  0
    2.1439   -1.5153    0.0582 N   0  0  0  0  0  0  0  0  0  0  0  0
   -0.2614    1.1209   -0.1674 N   0  0  0  0  0  0  0  0  0  0  0  0
   -2.5209   -3.7904   -0.6312 C   0  0  1  0  0  0  0  0  0  0  0  0
   -2.1511   -4.1466    0.8372 C   0  0  1  0  0  0  0  0  0  0  0  0
   -0.2383   -3.3460    2.2979 O   0  0  0  0  0  0  0  0  0  0  0  0
    2.2124    1.5705    0.0137 C   0  0  0  0  0  0  0  0  0  0  0  0
   -3.9085   -3.1443   -0.8990 C   0  0  0  0  0  0  0  0  0  0  0  0
   -1.5282   -5.4225    0.9333 O   0  0  0  0  0  0  0  0  0  0  0  0
    1.9805    2.9076    0.0207 N   0  0  0  0  0  0  0  0  0  0  0  0
    3.3814    1.1402    0.0261 O   0  0  0  0  0  0  0  0  0  0  0  0
   -4.0271   -1.8331   -0.3298 O   0  0  0  0  0  0  0  0  0  0  0  0
   -3.7567   -1.9608    1.3742 P   0  0  0  0  0  0  0  0  0  0  0  0
   -3.1284   -0.4646    1.2947 O   0  0  0  0  0  0  0  0  0  0  0  0
   -5.3157   -1.4989    1.5210 O   0  0  0  0  0  0  0  0  0  0  0  0
   -3.5147   -2.0750    2.8993 O   0  0  0  0  0  0  0  0  0  0  0  0
  1  3  1  0
  1  4  1  0
  2  1  1  1
  2  5  1  0
  2  6  1  0
  3  7  2  0
  3  8  1  0
  4  9  2  0
  5 10  1  0
  6 11  1  0
  6 12  1  1
  7 13  1  0
  7  9  1  0
 10 11  1  0
 10 14  1  1
 11 15  1  6
 13 16  1  0
 13 17  2  0
 14 18  1  0
 18 19  1  0
 19 20  1  0
 19 21  1  0
 19 22  2  0
M  END
>  <DRUGBANK_ID>  (1) 
DB01700

>  <SECONDARY_ACCESSION_NUMBERS>  (1) 
EXPT00407

>  <COMMON_NAME>  (1) 
AICA ribonucleotide

>  <CAS_NUMBER>  (1) 
3031-94-5

>  <UNII>  (1) 
F0X88YW0YK

>  <SYNONYMS>  (1) 
1-(5'-phosphoribosyl)-5-amino-4-imidazolecarboxamide; 5-amino-1-(5-phospho-D-ribosyl)imidazole-4-carboxamide; 5-aminoimidazole-4-carboxamide ribotide; 5-phosphoribosyl-4-carbamoyl-5-aminoimidazole; 5'-phospho-ribosyl-5-amino-4-imidazole carboxamide; 5'-phosphoribosyl-5-amino-4-imidazolecarboxamide; acadesine 5'-monophosphate; AICA-ribonucleotide; AICAR

$$$$
