
     RDKit          3D

 33 35  0  0  0  0  0  0  0  0999 V2000
   -0.5051    2.3611    1.6283 P   0  0  2  0  0  0  0  0  0  0  0  0
   -2.3966    1.7233    1.1392 O   0  0  0  0  0  0  0  0  0  0  0  0
   -1.9095    5.1502   -0.6104 O   0  0  0  0  0  0  0  0  0  0  0  0
    0.7844    1.1670    1.0146 O   0  0  0  0  0  0  0  0  0  0  0  0
   -0.3394    0.8600   -0.6884 O   0  0  0  0  0  0  0  0  0  0  0  0
   -0.6480   -1.4185   -0.4896 O   0  0  0  0  0  0  0  0  0  0  0  0
   -1.6732    2.6675   -2.9832 N   0  0  0  0  0  0  0  0  0  0  0  0
    0.6094    2.1377   -2.4705 N   0  0  0  0  0  0  0  0  0  0  0  0
   -1.5550    1.9800   -5.1166 N   0  0  0  0  0  0  0  0  0  0  0  0
    0.7170    0.9806   -5.5933 N   0  0  0  0  0  0  0  0  0  0  0  0
   -0.7666    0.9660    2.3046 N   0  0  0  0  0  0  0  0  0  0  0  0
    2.4640    0.7089   -3.9152 N   0  0  0  0  0  0  0  0  0  0  0  0
   -1.0545    2.0161   -3.9391 C   0  0  0  0  0  0  0  0  0  0  0  0
    0.2670    1.6163   -3.5476 C   0  0  0  0  0  0  0  0  0  0  0  0
    1.1821    1.0339   -4.3493 C   0  0  0  0  0  0  0  0  0  0  0  0
   -0.5185    2.7097   -2.3983 C   0  0  0  0  0  0  0  0  0  0  0  0
   -2.8633    3.4975   -2.6745 C   0  0  0  0  0  0  0  0  0  0  0  0
   -3.1610    4.2324   -1.3088 C   0  0  1  0  0  0  0  0  0  0  0  0
   -0.2748    4.4292   -0.0426 C   0  0  0  0  0  0  0  0  0  0  0  0
   -0.5714    1.4526   -5.8458 C   0  0  0  0  0  0  0  0  0  0  0  0
   -1.2132   -0.1767    1.4855 C   0  0  2  0  0  0  0  0  0  0  0  0
   -3.8013    2.4572    1.7642 C   0  0  0  0  0  0  0  0  0  0  0  0
   -0.7014   -0.2903    0.0179 C   0  0  0  0  0  0  0  0  0  0  0  0
   -3.9414    4.1396    1.8017 C   0  0  0  0  0  0  0  0  0  0  0  0
   -4.8913    1.6896    1.3724 C   0  0  0  0  0  0  0  0  0  0  0  0
   -3.4932    2.9152   -0.6002 C   0  0  0  0  0  0  0  0  0  0  0  0
   -2.6685   -0.4415    1.7515 C   0  0  0  0  0  0  0  0  0  0  0  0
   -5.1011    4.8198    1.8011 C   0  0  0  0  0  0  0  0  0  0  0  0
   -5.9888    2.3996    1.7145 C   0  0  0  0  0  0  0  0  0  0  0  0
   -6.0570    3.8604    1.9721 C   0  0  0  0  0  0  0  0  0  0  0  0
    0.2283    2.4292   -0.2501 C   0  0  0  0  0  0  0  0  0  0  0  0
   -1.5371    3.1633    0.1924 C   0  0  0  0  0  0  0  0  0  0  0  0
    1.4339    3.0306    1.2144 C   0  0  0  0  0  0  0  0  0  0  0  0
  1  2  1  0
  1  4  2  0
  1 11  1  0
  1 19  1  0
  2 22  1  0
  3 18  1  0
  3 19  1  0
  5 23  1  0
  5 31  1  0
  6 23  2  0
  7 13  1  0
  7 16  1  0
  7 17  1  0
  8 14  1  0
  8 16  2  0
  9 13  1  0
  9 20  2  0
 10 15  2  0
 10 20  1  0
 12 15  1  0
 13 14  2  0
 14 15  1  0
 17 18  1  0
 18 26  1  1
 21 27  1  6
 21 23  1  0
 21 11  1  0
 22 24  2  0
 22 25  1  0
 24 28  1  0
 25 29  2  0
 28 30  2  0
 29 30  1  0
 31 32  1  0
 31 33  1  0
M  END
>  <DRUGBANK_ID>  (1) 
DB09299

>  <COMMON_NAME>  (1) 
Tenofovir alafenamide

>  <CAS_NUMBER>  (1) 
379270-37-8

>  <UNII>  (1) 
EL9943AG5J

>  <SYNONYMS>  (1) 
Tenofovir alafenamide

$$$$
