
     RDKit          3D

 18 20  0  0  0  0  0  0  0  0999 V2000
    1.1289    0.0147    0.0953 C   0  0  0  0  0  0  0  0  0  0  0  0
    0.4299    0.5041   -0.9429 C   0  0  0  0  0  0  0  0  0  0  0  0
   -1.0622    0.4769   -0.9588 C   0  0  0  0  0  0  0  0  0  0  0  0
   -1.7240    1.7813   -1.1123 N   0  0  0  0  0  0  0  0  0  0  0  0
   -3.1733    1.5178   -1.2011 C   0  0  0  0  0  0  0  0  0  0  0  0
   -3.8202    1.1301    0.1154 C   0  0  0  0  0  0  0  0  0  0  0  0
   -4.1724   -0.2055    0.3696 C   0  0  0  0  0  0  0  0  0  0  0  0
   -4.8155   -0.5516    1.5552 C   0  0  0  0  0  0  0  0  0  0  0  0
   -5.0888    0.4256    2.5064 C   0  0  0  0  0  0  0  0  0  0  0  0
   -4.6896    1.7442    2.2866 C   0  0  0  0  0  0  0  0  0  0  0  0
   -4.0494    2.1187    1.0935 C   0  0  0  0  0  0  0  0  0  0  0  0
   -3.6362    3.5141    0.8513 C   0  0  0  0  0  0  0  0  0  0  0  0
   -4.5401    4.5576    1.1181 C   0  0  0  0  0  0  0  0  0  0  0  0
   -4.2102    5.8834    0.8551 C   0  0  0  0  0  0  0  0  0  0  0  0
   -2.9596    6.1920    0.3313 C   0  0  0  0  0  0  0  0  0  0  0  0
   -2.0431    5.1736    0.0509 C   0  0  0  0  0  0  0  0  0  0  0  0
   -2.3709    3.8264    0.2890 C   0  0  0  0  0  0  0  0  0  0  0  0
   -1.3637    2.7169   -0.0158 C   0  0  0  0  0  0  0  0  0  0  0  0
  1  2  2  0
  2  3  1  0
  3  4  1  0
  4  5  1  0
  4 18  1  0
  5  6  1  0
  6  7  2  0
  6 11  1  0
  7  8  1  0
  8  9  2  0
  9 10  1  0
 10 11  2  0
 11 12  1  0
 12 13  2  0
 12 17  1  0
 13 14  1  0
 14 15  2  0
 15 16  1  0
 16 17  2  0
 17 18  1  0
M  END
>  <DRUGBANK_ID>  (1) 
DB13727

>  <COMMON_NAME>  (1) 
Azapetine

>  <CAS_NUMBER>  (1) 
146-36-1

>  <UNII>  (1) 
9TTR0UA2KC

$$$$
