
     RDKit          3D

 10  9  0  0  0  0  0  0  0  0999 V2000
    0.9519   -0.0545   -0.0774 C   0  0  0  0  0  0  0  0  0  0  0  0
    0.4683   -0.1577    1.4045 C   0  0  0  0  0  0  0  0  0  0  0  0
    0.9358    0.9770    2.3199 C   0  0  0  0  0  0  0  0  0  0  0  0
    0.4291    2.2820    1.7279 C   0  0  0  0  0  0  0  0  0  0  0  0
    0.0088    3.3647    1.2367 N   0  0  0  0  0  0  0  0  0  0  0  0
    0.4704    1.1434   -0.7904 C   0  0  0  0  0  0  0  0  0  0  0  0
    0.0497    2.0535   -1.3880 N   0  0  0  0  0  0  0  0  0  0  0  0
    0.4473   -1.2757   -0.8411 C   0  0  0  0  0  0  0  0  0  0  0  0
    0.9905   -1.2913   -2.7256 Br  0  0  0  0  0  0  0  0  0  0  0  0
    2.9382   -0.0888   -0.0316 Br  0  0  0  0  0  0  0  0  0  0  0  0
  1  2  1  0
  1  6  1  0
  1  8  1  0
  1 10  1  0
  2  3  1  0
  3  4  1  0
  4  5  3  0
  6  7  3  0
  8  9  1  0
M  END
>  <DRUGBANK_ID>  (1) 
DB14199

>  <COMMON_NAME>  (1) 
Bromothalonil

>  <CAS_NUMBER>  (1) 
35691-65-7

>  <UNII>  (1) 
YX089CPS05

>  <SYNONYMS>  (1) 
1,2-Dibromo-2,4-dicyanobutane; 2-Bromo-2-(bromomethyl) glutaronitrile; 2-Bromo-2-(bromomethyl) pentanedinitrile; BBMG; Glutaronitrile, 2-bromo-2-(bromomethyl)-; MDBGN; Methyldibromo Glutaronitrile; Methyldibromoglutaronitrile

$$$$
