
     RDKit          3D

  7  6  0  0  0  0  0  0  0  0999 V2000
    0.9673   -0.0195    0.0311 N   0  0  0  0  0  0  0  0  0  0  0  0
    0.4909    1.3151   -0.3077 C   0  0  0  0  0  0  0  0  0  0  0  0
    0.9040    1.7273   -1.7254 C   0  0  0  0  0  0  0  0  0  0  0  0
    0.3661    0.8099   -2.8286 C   0  0  0  0  0  0  0  0  0  0  0  0
   -1.1465    0.7463   -2.8362 C   0  0  0  0  0  0  0  0  0  0  0  0
   -1.7260    1.1574   -3.9806 O   0  0  0  0  0  0  0  0  0  0  0  0
   -1.8190    0.3398   -1.8980 O   0  0  0  0  0  0  0  0  0  0  0  0
  1  2  1  0
  2  3  1  0
  3  4  1  0
  4  5  1  0
  5  6  1  0
  5  7  2  0
M  END
>  <DRUGBANK_ID>  (1) 
DB02530

>  <SECONDARY_ACCESSION_NUMBERS>  (1) 
EXPT00402; DB08850

>  <COMMON_NAME>  (1) 
gamma-Aminobutyric acid

>  <CAS_NUMBER>  (1) 
56-12-2

>  <UNII>  (1) 
2ACZ6IPC6I

>  <SYNONYMS>  (1) 
4-aminobutanoic acid; 4-aminobutyric acid; 4Abu; GABA; gamma-Aminobutyric acid; piperidic acid; piperidinic acid; γ-amino-n-butyric acid; γ-aminobutanoic acid; γ-Aminobuttersäure; γ-aminobutyric acid; ω-aminobutyric acid

$$$$
