
     RDKit          3D

 28 29  0  0  1  0  0  0  0  0999 V2000
   -0.2637   -1.3545    0.3493 N   0  0  0  0  0  0  0  0  0  0  0  0
   -0.2447   -2.8719    0.3901 C   0  0  2  0  0  0  0  0  0  0  0  0
    0.6866   -0.5825    1.0960 C   0  0  0  0  0  0  0  0  0  0  0  0
   -1.3940   -0.6787   -0.0925 C   0  0  0  0  0  0  0  0  0  0  0  0
    0.3083   -3.3527    1.6371 O   0  0  0  0  0  0  0  0  0  0  0  0
    0.4978   -3.6654   -0.6677 C   0  0  0  0  0  0  0  0  0  0  0  0
    0.6934    0.8137    0.9143 N   0  0  0  0  0  0  0  0  0  0  0  0
    1.5547   -1.0917    1.7438 O   0  0  0  0  0  0  0  0  0  0  0  0
   -1.5000    0.6522    0.0455 C   0  0  0  0  0  0  0  0  0  0  0  0
    1.2992   -4.4017    1.4239 C   0  0  1  0  0  0  0  0  0  0  0  0
    1.0900   -4.8868   -0.0039 C   0  0  1  0  0  0  0  0  0  0  0  0
   -0.2515    1.3919    0.2709 C   0  0  0  0  0  0  0  0  0  0  0  0
    2.7301   -3.9303    1.7305 C   0  0  0  0  0  0  0  0  0  0  0  0
    0.1669   -5.9650   -0.0519 O   0  0  0  0  0  0  0  0  0  0  0  0
   -0.0849    2.6599   -0.2471 N   0  0  0  0  0  0  0  0  0  0  0  0
    3.0493   -2.8231    0.9341 O   0  0  0  0  0  0  0  0  0  0  0  0
    3.6122   -2.8067   -0.5377 P   0  0  1  0  0  0  0  0  0  0  0  0
    4.1834   -1.3705   -0.6356 O   0  0  0  0  0  0  0  0  0  0  0  0
    4.6776   -3.9778   -0.3672 O   0  0  0  0  0  0  0  0  0  0  0  0
    2.9475   -3.1865   -1.8146 O   0  0  0  0  0  0  0  0  0  0  0  0
    3.6402    0.2648   -0.4817 P   0  0  1  0  0  0  0  0  0  0  0  0
    2.0110   -0.2510   -0.7514 O   0  0  0  0  0  0  0  0  0  0  0  0
    3.9141    0.0816    1.1150 O   0  0  0  0  0  0  0  0  0  0  0  0
    3.1541    1.7284   -0.3440 O   0  0  0  0  0  0  0  0  0  0  0  0
    1.6651   -0.2064   -2.4459 P   0  0  0  0  0  0  0  0  0  0  0  0
    3.1965    0.1751   -2.7989 O   0  0  0  0  0  0  0  0  0  0  0  0
    1.3027   -1.7433   -2.4397 O   0  0  0  0  0  0  0  0  0  0  0  0
    1.3555   -0.1666   -3.9625 O   0  0  0  0  0  0  0  0  0  0  0  0
  1  3  1  0
  1  4  1  0
  2  1  1  6
  2  5  1  0
  2  6  1  0
  3  7  1  0
  3  8  2  0
  4  9  2  0
  5 10  1  0
  6 11  1  0
  7 12  2  0
  9 12  1  0
 10 11  1  0
 10 13  1  6
 11 14  1  1
 12 15  1  0
 13 16  1  0
 16 17  1  0
 17 18  1  0
 17 19  1  1
 17 20  2  0
 18 21  1  0
 21 22  1  0
 21 23  1  1
 21 24  2  0
 22 25  1  0
 25 26  1  0
 25 27  1  0
 25 28  2  0
M  END
>  <DRUGBANK_ID>  (1) 
DB03258

>  <SECONDARY_ACCESSION_NUMBERS>  (1) 
EXPT01137

>  <COMMON_NAME>  (1) 
2'-Deoxycytidine 5'-triphosphate

>  <CAS_NUMBER>  (1) 
2056-98-6

>  <SYNONYMS>  (1) 
2'-Deoxycytidine-5'-Triphosphate; dCTP; Deoxycytidine 5'-triphosphate; Deoxycytidine triphosphate

$$$$
