
     RDKit          3D

 22 22  0  0  0  0  0  0  0  0999 V2000
    0.8474   -0.2394   -0.1585 N   0  0  0  0  0  0  0  0  0  0  0  0
    0.2123   -1.2861    0.6728 C   0  0  0  0  0  0  0  0  0  0  0  0
    0.3585   -1.4197    2.2189 C   0  0  0  0  0  0  0  0  0  0  0  0
    0.4421   -0.2407    2.9858 O   0  0  0  0  0  0  0  0  0  0  0  0
    0.9770    0.9716    2.5034 C   0  0  0  0  0  0  0  0  0  0  0  0
    2.4873    1.0111    2.2496 C   0  0  0  0  0  0  0  0  0  0  0  0
    2.9680    0.0141    1.3718 O   0  0  0  0  0  0  0  0  0  0  0  0
    3.1143   -1.3236    1.8062 C   0  0  0  0  0  0  0  0  0  0  0  0
    3.2406   -1.6441    3.3371 C   0  0  0  0  0  0  0  0  0  0  0  0
    2.6157   -0.7994    4.4148 N   0  0  0  0  0  0  0  0  0  0  0  0
    1.6849   -1.0152    5.4130 C   0  0  0  0  0  0  0  0  0  0  0  0
    1.2656   -0.0779    6.0769 O   0  0  0  0  0  0  0  0  0  0  0  0
    1.3064   -2.3881    5.7779 C   0  0  0  0  0  0  0  0  0  0  0  0
    2.3217   -3.3419    5.8172 C   0  0  0  0  0  0  0  0  0  0  0  0
    2.0526   -4.6397    6.2140 C   0  0  0  0  0  0  0  0  0  0  0  0
    0.7753   -4.9665    6.6663 C   0  0  0  0  0  0  0  0  0  0  0  0
   -0.2312   -3.9909    6.7282 C   0  0  0  0  0  0  0  0  0  0  0  0
    0.0193   -2.7049    6.2263 C   0  0  0  0  0  0  0  0  0  0  0  0
    0.3903   -6.6649    7.0020 S   0  0  0  0  0  0  0  0  0  0  0  0
   -0.0305   -6.6871    8.6302 N   0  0  0  0  0  0  0  0  0  0  0  0
   -0.7496   -7.0350    6.2409 O   0  0  0  0  0  0  0  0  0  0  0  0
    1.6485   -7.4284    6.9337 O   0  0  0  0  0  0  0  0  0  0  0  0
  1  2  1  0
  2  3  1  0
  3  4  1  0
  4  5  1  0
  5  6  1  0
  6  7  1  0
  7  8  1  0
  8  9  1  0
  9 10  1  0
 10 11  1  0
 11 12  2  0
 11 13  1  0
 13 14  2  0
 13 18  1  0
 14 15  1  0
 15 16  2  0
 16 17  1  0
 16 19  1  0
 17 18  2  0
 19 20  1  0
 19 21  2  0
 19 22  2  0
M  END
>  <DRUGBANK_ID>  (1) 
DB02535

>  <SECONDARY_ACCESSION_NUMBERS>  (1) 
EXPT01328

>  <COMMON_NAME>  (1) 
Aminodi(Ethyloxy)Ethylaminocarbonylbenzenesulfonamide

>  <UNII>  (1) 
P7AMK4J5SW

$$$$
