
     RDKit          3D

 14 14  0  0  0  0  0  0  0  0999 V2000
    0.3125    1.0524   -0.0592 C   0  0  0  0  0  0  0  0  0  0  0  0
   -1.0550    0.3585    0.1670 C   0  0  0  0  0  0  0  0  0  0  0  0
   -0.3224   -0.9688   -0.1328 C   0  0  0  0  0  0  0  0  0  0  0  0
    0.9196   -0.2512    0.1598 N   0  0  0  0  0  0  0  0  0  0  0  0
    2.1464   -0.7279    0.5478 C   0  0  0  0  0  0  0  0  0  0  0  0
    2.3235   -1.9374    0.7126 O   0  0  0  0  0  0  0  0  0  0  0  0
    3.2663    0.2554    0.8303 C   0  0  0  0  0  0  0  0  0  0  0  0
    3.7464    1.1779   -0.8079 Br  0  0  0  0  0  0  0  0  0  0  0  0
   -1.5718    0.4660    1.5747 N   0  0  0  0  0  0  0  0  0  0  0  0
   -2.7666    0.7254    1.7474 O   0  0  0  0  0  0  0  0  0  0  0  0
   -0.7680    0.2882    2.5065 O   0  0  0  0  0  0  0  0  0  0  0  0
   -2.0678    0.7523   -0.8573 N   0  0  0  0  0  0  0  0  0  0  0  0
   -2.4199   -0.0975   -1.6894 O   0  0  0  0  0  0  0  0  0  0  0  0
   -2.4819    1.9181   -0.8322 O   0  0  0  0  0  0  0  0  0  0  0  0
  1  2  1  0
  1  4  1  0
  2  3  1  0
  2  9  1  0
  2 12  1  0
  3  4  1  0
  4  5  1  0
  5  6  2  0
  5  7  1  0
  7  8  1  0
  9 10  2  0
  9 11  1  0
 12 13  2  0
 12 14  1  0
M  CHG  4   9   1  11  -1  12   1  14  -1
M  END
>  <DRUGBANK_ID>  (1) 
DB12060

>  <COMMON_NAME>  (1) 
RRx-001

>  <CAS_NUMBER>  (1) 
925206-65-1

>  <UNII>  (1) 
7RPW6SU9SC

>  <SYNONYMS>  (1) 
N-(Bromoacetyl)-3,3-Dinitroazetidine

$$$$
