1581
     RDKit          3D

 18 19  0  0  0  0  0  0  0  0999 V2000
    1.0971    0.0270   -0.0138 S   0  0  0  0  0  0  0  0  0  0  0  0
    0.7169   -0.6402   -1.2369 O   0  0  0  0  0  0  0  0  0  0  0  0
    0.5974   -0.4951    1.2539 O   0  0  0  0  0  0  0  0  0  0  0  0
    0.4815    1.5866   -0.1586 N   0  0  0  0  0  0  0  0  0  0  0  0
    1.0899    3.6209    0.8242 N   0  0  0  0  0  0  0  0  0  0  0  0
    2.1938    2.8342   -1.1304 N   0  0  0  0  0  0  0  0  0  0  0  0
    7.0821   -0.1700    0.0777 N   0  0  0  0  0  0  0  0  0  0  0  0
    2.8757   -0.0961    0.1112 C   0  0  0  0  0  0  0  0  0  0  0  0
    3.6612    1.0137    0.3356 C   0  0  0  0  0  0  0  0  0  0  0  0
    3.5338   -1.3222   -0.0202 C   0  0  0  0  0  0  0  0  0  0  0  0
    5.7038   -0.1796    0.0057 C   0  0  0  0  0  0  0  0  0  0  0  0
    5.0328    1.0171    0.1385 C   0  0  0  0  0  0  0  0  0  0  0  0
    4.9476   -1.3574   -0.0120 C   0  0  0  0  0  0  0  0  0  0  0  0
    1.2564    2.7481   -0.1854 C   0  0  0  0  0  0  0  0  0  0  0  0
    1.9939    4.6398    0.9020 C   0  0  0  0  0  0  0  0  0  0  0  0
    3.0858    4.7242    0.0591 C   0  0  0  0  0  0  0  0  0  0  0  0
    3.1267    3.7964   -0.9540 C   0  0  0  0  0  0  0  0  0  0  0  0
    1.7698    5.7181    1.9280 C   0  0  0  0  0  0  0  0  0  0  0  0
  1  2  2  0
  1  3  2  0
  1  4  1  0
  1  8  1  0
  4 14  1  0
  5 14  2  0
  5 15  1  0
  6 14  1  0
  6 17  2  0
  7 11  1  0
  8  9  2  0
  8 10  1  0
  9 12  1  0
 10 13  2  0
 11 12  2  0
 11 13  1  0
 15 16  2  0
 15 18  1  0
 16 17  1  0
M  END
>  <DRUGBANK_ID>  (1) 
DB01581

>  <COMMON_NAME>  (1) 
Sulfamerazine

>  <CAS_NUMBER>  (1) 
127-79-7

>  <UNII>  (1) 
UR1SAB295F

>  <SYNONYMS>  (1) 
(p-Aminobenzolsulfonyl)-2-amino-4-methylpyrimidin; 2-(4-Aminobenzenesulfonamido)-4-methylpyrimidine; 2-(p-Aminobenzolsulfonamido)-4-methylpyrimidine; 2-(Sulfanilamido)-4-methylpyrimidine; 2-Sulfa-4-methylpyrimidine; 4-Amino-N-(4-methyl-2-pyrimidinyl)-benzenesulfonamide; N-(4-Methyl-2-pyrimidyl)sulfanilamide; N(1)-(4-Methyl-2-pyrimidinyl)sulfanilamide; Sulfamerazina; Sulfamerazine; Sulfamerazinum; Sulfamethyldiazine; Sulphamerazine

$$$$
