
     RDKit          3D

 32 32  0  0  1  0  0  0  0  0999 V2000
   -0.8269    1.4226   -0.2185 O   0  0  0  0  0  0  0  0  0  0  0  0
   -1.5092    1.2977    0.9381 C   0  0  0  0  0  0  0  0  0  0  0  0
   -2.3188    2.1133    1.2917 O   0  0  0  0  0  0  0  0  0  0  0  0
   -1.1766    0.0043    1.6560 C   0  0  0  0  0  0  0  0  0  0  0  0
   -1.8998   -1.2455    1.1146 C   0  0  0  0  0  0  0  0  0  0  0  0
   -1.4239   -1.6303   -0.2792 C   0  0  2  0  0  0  0  0  0  0  0  0
   -1.7824   -0.6733   -1.3206 N   0  0  0  0  0  0  0  0  0  0  0  0
   -1.1634   -0.1943   -2.4152 C   0  0  0  0  0  0  0  0  0  0  0  0
   -1.7074    0.7056   -3.0537 O   0  0  0  0  0  0  0  0  0  0  0  0
    0.0455   -0.6160   -2.7967 N   0  0  0  0  0  0  0  0  0  0  0  0
    0.9568   -1.5426   -2.1825 C   0  0  1  0  0  0  0  0  0  0  0  0
    1.0370   -2.8168   -3.0204 C   0  0  0  0  0  0  0  0  0  0  0  0
    1.7468   -2.6605   -4.3460 C   0  0  0  0  0  0  0  0  0  0  0  0
    3.1593   -2.2354   -4.1358 C   0  0  0  0  0  0  0  0  0  0  0  0
    3.8377   -3.1044   -3.1272 C   0  0  0  0  0  0  0  0  0  0  0  0
    4.2369   -4.4054   -3.5606 N   0  0  0  0  0  0  0  0  0  0  0  0
    5.5104   -4.8492   -3.7007 C   0  0  0  0  0  0  0  0  0  0  0  0
    5.6901   -5.8509   -4.3956 O   0  0  0  0  0  0  0  0  0  0  0  0
    6.5800   -4.1714   -3.1688 N   0  0  0  0  0  0  0  0  0  0  0  0
    6.6373   -3.0695   -2.2735 C   0  0  0  0  0  0  0  0  0  0  0  0
    5.7691   -2.9854   -1.1757 C   0  0  0  0  0  0  0  0  0  0  0  0
    5.4069   -1.7257   -0.6718 C   0  0  0  0  0  0  0  0  0  0  0  0
    6.0810   -0.5817   -1.0846 C   0  0  0  0  0  0  0  0  0  0  0  0
    5.5070    1.2967   -0.3788 I   0  0  0  0  0  0  0  0  0  0  0  0
    7.1267   -0.6989   -1.9962 C   0  0  0  0  0  0  0  0  0  0  0  0
    7.3758   -1.9320   -2.6302 C   0  0  0  0  0  0  0  0  0  0  0  0
    2.1242   -0.7885   -1.5020 C   0  0  0  0  0  0  0  0  0  0  0  0
    2.2731   -0.9694   -0.1671 O   0  0  0  0  0  0  0  0  0  0  0  0
    2.8639   -0.0035   -2.0824 O   0  0  0  0  0  0  0  0  0  0  0  0
   -1.9389   -3.0049   -0.7265 C   0  0  0  0  0  0  0  0  0  0  0  0
   -1.0121   -3.9581   -0.9713 O   0  0  0  0  0  0  0  0  0  0  0  0
   -3.1263   -3.2347   -0.9050 O   0  0  0  0  0  0  0  0  0  0  0  0
  1  2  1  0
  2  3  2  0
  2  4  1  0
  4  5  1  0
  6 30  1  0
  6  7  1  0
  6  5  1  1
  7  8  1  0
  8  9  2  0
  8 10  1  0
 11 10  1  0
 11 12  1  6
 11 27  1  0
 12 13  1  0
 13 14  1  0
 14 15  1  0
 15 16  1  0
 16 17  1  0
 17 18  2  0
 17 19  1  0
 19 20  1  0
 20 21  2  0
 20 26  1  0
 21 22  1  0
 22 23  2  0
 23 24  1  0
 23 25  1  0
 25 26  2  0
 27 28  1  0
 27 29  2  0
 30 31  1  0
 30 32  2  0
M  ISO  1  24 131
M  END
>  <DRUGBANK_ID>  (1) 
DB14978

>  <COMMON_NAME>  (1) 
MIP-1095 I-131

>  <CAS_NUMBER>  (1) 
1258980-67-4

>  <UNII>  (1) 
7DM27RQ9V0

>  <SYNONYMS>  (1) 
131I-MIP-1095

$$$$
