
     RDKit          3D

 22 21  0  0  1  0  0  0  0  0999 V2000
   -4.0649   -4.8224   -3.1326 N   0  0  0  0  0  0  0  0  0  0  0  0
   -4.7323   -3.6256   -3.8768 C   0  0  1  0  0  0  0  0  0  0  0  0
   -6.1330   -4.0198   -4.1966 C   0  0  0  0  0  0  0  0  0  0  0  0
   -7.0148   -4.2572   -2.9569 C   0  0  0  0  0  0  0  0  0  0  0  0
   -7.1164   -3.1339   -1.9071 C   0  0  0  0  0  0  0  0  0  0  0  0
   -8.1338   -2.4301   -1.9201 O   0  0  0  0  0  0  0  0  0  0  0  0
   -6.1052   -2.8263   -0.9942 N   0  0  0  0  0  0  0  0  0  0  0  0
   -4.6546   -3.2430   -0.8900 C   0  0  1  0  0  0  0  0  0  0  0  0
   -3.2057   -2.6318   -1.4723 C   0  0  0  0  0  0  0  0  0  0  0  0
   -2.5381   -0.9061   -1.2977 S   0  0  0  0  0  0  0  0  0  0  0  0
   -1.2406   -1.2743   -0.4319 O   0  0  0  0  0  0  0  0  0  0  0  0
   -3.3543    0.0227   -0.4636 O   0  0  0  0  0  0  0  0  0  0  0  0
   -4.2654   -3.9580    0.3772 C   0  0  0  0  0  0  0  0  0  0  0  0
   -4.0206   -5.1416    0.4040 O   0  0  0  0  0  0  0  0  0  0  0  0
   -4.0672   -3.1175    1.4365 N   0  0  0  0  0  0  0  0  0  0  0  0
   -4.2597   -1.6903    1.3485 C   0  0  0  0  0  0  0  0  0  0  0  0
   -5.3876   -0.9948    2.0694 C   0  0  0  0  0  0  0  0  0  0  0  0
   -4.9575    0.0929    2.7582 O   0  0  0  0  0  0  0  0  0  0  0  0
   -6.5460   -1.3183    1.9755 O   0  0  0  0  0  0  0  0  0  0  0  0
   -4.8392   -1.9889   -3.5009 C   0  0  0  0  0  0  0  0  0  0  0  0
   -4.0524   -1.2333   -4.2948 O   0  0  0  0  0  0  0  0  0  0  0  0
   -5.4731   -1.3651   -2.6602 O   0  0  0  0  0  0  0  0  0  0  0  0
  2  1  1  1
  2  3  1  0
  2 20  1  0
  3  4  1  0
  4  5  1  0
  5  6  2  0
  5  7  1  0
  8  7  1  0
  8  9  1  1
  8 13  1  0
 10 12  2  0
 10 11  1  0
 10  9  1  0
 13 14  2  0
 13 15  1  0
 15 16  1  0
 16 17  1  0
 17 18  1  0
 17 19  2  0
 20 21  1  0
 20 22  2  0
M  END
>  <DRUGBANK_ID>  (1) 
DB04700

>  <COMMON_NAME>  (1) 
GLUTATHIONE SULFINATE

$$$$
