
     RDKit          3D

 31 33  0  0  1  0  0  0  0  0999 V2000
   -3.4804    1.8704    5.4818 C   0  0  0  0  0  0  0  0  0  0  0  0
   -4.0368    2.7367    4.5516 C   0  0  0  0  0  0  0  0  0  0  0  0
   -3.2294    3.1651    3.5112 C   0  0  0  0  0  0  0  0  0  0  0  0
   -1.8903    2.7702    3.3530 C   0  0  0  0  0  0  0  0  0  0  0  0
   -1.3171    1.9470    4.3405 C   0  0  0  0  0  0  0  0  0  0  0  0
   -2.1279    1.4915    5.3728 C   0  0  0  0  0  0  0  0  0  0  0  0
   -1.1437    3.1072    2.1958 N   0  0  0  0  0  0  0  0  0  0  0  0
    0.1357    2.3397    2.0614 C   0  0  0  0  0  0  0  0  0  0  0  0
    0.7626    1.7534    3.3255 C   0  0  0  0  0  0  0  0  0  0  0  0
    0.0387    1.5653    4.3815 N   0  0  0  0  0  0  0  0  0  0  0  0
    0.8237    2.0844    0.9718 N   0  0  0  0  0  0  0  0  0  0  0  0
    2.2251    1.7848    1.0068 C   0  0  0  0  0  0  0  0  0  0  0  0
    2.8816    1.6762    2.1932 N   0  0  0  0  0  0  0  0  0  0  0  0
    2.2331    1.3410    3.3175 C   0  0  0  0  0  0  0  0  0  0  0  0
   -4.2653    1.3195    6.6216 C   0  0  0  0  0  0  0  0  0  0  0  0
   -5.4511    3.2435    4.5402 C   0  0  0  0  0  0  0  0  0  0  0  0
    2.9666    1.9180    0.0274 O   0  0  0  0  0  0  0  0  0  0  0  0
    2.7818    0.7071    4.2249 O   0  0  0  0  0  0  0  0  0  0  0  0
   -1.8608    4.2446    1.3380 C   0  0  0  0  0  0  0  0  0  0  0  0
   -1.2064    5.6986    1.4264 C   0  0  2  0  0  0  0  0  0  0  0  0
   -1.5046    6.5110    0.2517 O   0  0  0  0  0  0  0  0  0  0  0  0
    0.2581    5.5275    1.2404 C   0  0  2  0  0  0  0  0  0  0  0  0
    0.1620    4.4822    0.2167 O   0  0  0  0  0  0  0  0  0  0  0  0
    1.2799    5.6454    2.5605 C   0  0  1  0  0  0  0  0  0  0  0  0
    2.8316    5.1714    2.6042 C   0  0  0  0  0  0  0  0  0  0  0  0
    3.5283    5.3708    1.3203 O   0  0  0  0  0  0  0  0  0  0  0  0
    1.4269    7.0772    2.7149 O   0  0  0  0  0  0  0  0  0  0  0  0
    2.7132    4.7934   -0.0922 P   0  0  0  0  0  0  0  0  0  0  0  0
    1.9850    4.0063    1.0156 O   0  0  0  0  0  0  0  0  0  0  0  0
    2.5708    6.3908   -0.2819 O   0  0  0  0  0  0  0  0  0  0  0  0
    1.9836    4.2766   -1.3563 O   0  0  0  0  0  0  0  0  0  0  0  0
  1  2  2  0
  1 15  1  0
  2  3  1  0
  2 16  1  0
  3  4  2  0
  4  5  1  0
  4  7  1  0
  5  6  2  0
  6  1  1  0
  7  8  1  0
  7 19  1  0
  8  9  1  0
  8 11  2  0
  9 10  2  0
 10  5  1  0
 11 12  1  0
 12 13  1  0
 12 17  2  0
 13 14  1  0
 14  9  1  0
 14 18  2  0
 20 21  1  6
 20 19  1  0
 22 24  1  0
 22 23  1  1
 22 20  1  0
 24 25  1  0
 24 27  1  6
 25 26  1  0
 26 28  1  0
 28 29  1  0
 28 30  1  0
 28 31  2  0
M  END
>  <DRUGBANK_ID>  (1) 
DB03247

>  <SECONDARY_ACCESSION_NUMBERS>  (1) 
EXPT01458

>  <COMMON_NAME>  (1) 
Flavin mononucleotide

>  <CAS_NUMBER>  (1) 
146-17-8

>  <UNII>  (1) 
7N464URE7E

>  <SYNONYMS>  (1) 
FMN; riboflavin 5'-(dihydrogen phosphate); riboflavin 5'-monophosphate; riboflavin 5'-phosphate; Riboflavin monophosphate; Riboflavin phosphate; Riboflavin-5-phosphate; riboflavine dihydrogen phosphate; Vitamin B2 (riboflavin-5-phosphate); Vitamin B2 phosphate

$$$$
