Betulinic acid
     RDKit          3D

 33 37  0  0  1  0  0  0  0  0999 V2000
   -1.2283   -0.4040   -0.1524 O   0  0  0  0  0  0  0  0  0  0  0  0
    3.1796    1.0517    7.3331 O   0  0  0  0  0  0  0  0  0  0  0  0
    3.4148    3.0616    6.4894 O   0  0  0  0  0  0  0  0  0  0  0  0
    0.3364    2.8988    4.4955 C   0  0  1  0  0  0  0  0  0  0  0  0
   -0.1820    3.1057    5.8620 C   0  0  2  0  0  0  0  0  0  0  0  0
    0.4037    0.8843    4.5555 C   0  0  1  0  0  0  0  0  0  0  0  0
    0.5250    1.5420    6.9533 C   0  0  1  0  0  0  0  0  0  0  0  0
    0.4649   -0.0491    3.3158 C   0  0  2  0  0  0  0  0  0  0  0  0
    1.5837    1.7879    8.6020 C   0  0  2  0  0  0  0  0  0  0  0  0
    0.1864    1.5400    2.2733 C   0  0  1  0  0  0  0  0  0  0  0  0
    1.0443    2.9886    8.1982 C   0  0  1  0  0  0  0  0  0  0  0  0
   -0.6962    3.5947    3.4707 C   0  0  0  0  0  0  0  0  0  0  0  0
    0.7961   -0.4003    5.7639 C   0  0  0  0  0  0  0  0  0  0  0  0
    0.6745    3.9705    6.6299 C   0  0  0  0  0  0  0  0  0  0  0  0
    0.0417   -0.0158    6.9866 C   0  0  0  0  0  0  0  0  0  0  0  0
    0.1479    3.1426    2.3893 C   0  0  0  0  0  0  0  0  0  0  0  0
   -0.2269    3.3632    7.6447 C   0  0  0  0  0  0  0  0  0  0  0  0
    0.2030    1.6260    0.7018 C   0  0  0  0  0  0  0  0  0  0  0  0
    2.4936    3.5418    9.1869 C   0  0  2  0  0  0  0  0  0  0  0  0
   -0.4216   -1.0952    2.5557 C   0  0  0  0  0  0  0  0  0  0  0  0
    1.3403    4.5440    4.2825 C   0  0  0  0  0  0  0  0  0  0  0  0
   -1.1112    4.7678    5.9234 C   0  0  0  0  0  0  0  0  0  0  0  0
    0.5632    3.2206    9.6969 C   0  0  0  0  0  0  0  0  0  0  0  0
    1.2696    4.4759    9.6344 C   0  0  0  0  0  0  0  0  0  0  0  0
    1.3523   -1.7856    3.4980 C   0  0  0  0  0  0  0  0  0  0  0  0
   -0.5424    0.2955    0.8818 C   0  0  2  0  0  0  0  0  0  0  0  0
    0.5256   -0.6754    1.4242 C   0  0  0  0  0  0  0  0  0  0  0  0
    2.7168    2.3870    7.2343 C   0  0  0  0  0  0  0  0  0  0  0  0
    1.6666    2.3244    0.6694 C   0  0  0  0  0  0  0  0  0  0  0  0
    0.4630    1.1574   -0.7233 C   0  0  0  0  0  0  0  0  0  0  0  0
    3.8814    4.5147    9.3604 C   0  0  0  0  0  0  0  0  0  0  0  0
    4.2746    4.9691   10.7426 C   0  0  0  0  0  0  0  0  0  0  0  0
    4.5350    5.2908    8.4262 C   0  0  0  0  0  0  0  0  0  0  0  0
  2 28  1  0
  3 28  2  0
  4  5  1  0
  4  6  1  0
  4 12  1  0
  4 21  1  1
  5  7  1  0
  5 14  1  0
  5 22  1  6
  6  8  1  0
  6 13  1  1
  7  9  1  0
  7 15  1  1
  8 10  1  0
  8 20  1  0
  8 25  1  6
  9 11  1  0
  9 19  1  6
 10 16  1  1
 10 18  1  0
 11 17  1  0
 11 23  1  0
 11 28  1  6
 12 16  1  0
 13 15  1  0
 14 17  1  0
 18 26  1  0
 18 29  1  0
 18 30  1  0
 19 24  1  0
 19 31  1  6
 20 27  1  0
 23 24  1  0
 26 27  1  0
 26  1  1  6
 31 32  1  0
 31 33  2  0
M  END
>  <DRUGBANK_ID>  (1) 
DB12480

>  <SECONDARY_ACCESSION_NUMBERS>  (1) 
DB05910

>  <COMMON_NAME>  (1) 
Betulinic Acid

>  <CAS_NUMBER>  (1) 
472-15-1

>  <UNII>  (1) 
4G6A18707N

>  <SYNONYMS>  (1) 
beta-betulinic acid

$$$$
