
     RDKit          3D

 22 21  0  0  0  0  0  0  0  0999 V2000
    1.0740    0.0460    0.0639 C   0  0  0  0  0  0  0  0  0  0  0  0
    0.4242    0.9503   -0.6784 C   0  0  0  0  0  0  0  0  0  0  0  0
   -1.0606    0.9859   -0.7718 C   0  0  0  0  0  0  0  0  0  0  0  0
   -1.6048    2.2823   -0.2586 C   0  0  0  0  0  0  0  0  0  0  0  0
   -2.4239    3.0444   -0.9850 C   0  0  0  0  0  0  0  0  0  0  0  0
   -2.8185    2.6537   -2.3596 C   0  0  0  0  0  0  0  0  0  0  0  0
   -4.2936    2.5741   -2.5023 C   0  0  0  0  0  0  0  0  0  0  0  0
   -4.9392    3.2640   -3.4416 C   0  0  0  0  0  0  0  0  0  0  0  0
   -4.2222    4.1934   -4.3503 C   0  0  0  0  0  0  0  0  0  0  0  0
   -4.4540    3.8458   -5.7745 C   0  0  0  0  0  0  0  0  0  0  0  0
   -4.9610    4.7315   -6.6307 C   0  0  0  0  0  0  0  0  0  0  0  0
   -5.3695    6.0907   -6.1932 C   0  0  0  0  0  0  0  0  0  0  0  0
   -4.6853    7.1299   -6.9940 C   0  0  0  0  0  0  0  0  0  0  0  0
   -5.3688    8.0249   -7.7060 C   0  0  0  0  0  0  0  0  0  0  0  0
   -6.8708    8.0747   -7.7395 C   0  0  0  0  0  0  0  0  0  0  0  0
   -7.3904    9.4208   -7.2659 C   0  0  0  0  0  0  0  0  0  0  0  0
   -6.9167   10.5711   -8.1425 C   0  0  0  0  0  0  0  0  0  0  0  0
    0.3568   -0.9689    0.9078 C   0  0  0  0  0  0  0  0  0  0  0  0
   -0.4830   -0.3317    2.0168 C   0  0  0  0  0  0  0  0  0  0  0  0
   -8.1783   11.1770  -10.1311 O   0  0  0  0  0  0  0  0  0  0  0  0
   -6.8495    9.3893  -10.2236 O   0  0  0  0  0  0  0  0  0  0  0  0
   -7.3826   10.4365   -9.5691 C   0  0  0  0  0  0  0  0  0  0  0  0
  1  2  2  0
  2  3  1  0
  3  4  1  0
  4  5  2  0
  5  6  1  0
  6  7  1  0
  7  8  2  0
  8  9  1  0
  9 10  1  0
 10 11  2  0
 11 12  1  0
 12 13  1  0
 13 14  2  0
 14 15  1  0
 15 16  1  0
 16 17  1  0
 17 22  1  0
 18  1  1  0
 18 19  1  0
 22 20  2  0
 22 21  1  0
M  END
>  <DRUGBANK_ID>  (1) 
DB00159

>  <SECONDARY_ACCESSION_NUMBERS>  (1) 
NUTR00024

>  <COMMON_NAME>  (1) 
Icosapent

>  <CAS_NUMBER>  (1) 
10417-94-4

>  <UNII>  (1) 
AAN7QOV9EA

>  <SYNONYMS>  (1) 
(5Z,8Z,11Z,14Z,17Z)-5,8,11,14,17-eicosapentaenoic acid; (5Z,8Z,11Z,14Z,17Z)-Eicosapentaenoate; (5Z,8Z,11Z,14Z,17Z)-Eicosapentaenoic acid; (5Z,8Z,11Z,14Z,17Z)-Icosapentaenoic acid; (all-Z)-5,8,11,14,17-eicosapentaenoic acid; 5,8,11,14,17-eicosapentaenoic acid; 5,8,11,14,17-Icosapentaenoic acid; all-cis-5,8,11,14,17-eicosapentaenoic acid; all-cis-5,8,11,14,17-icosapentaenoic acid; all-cis-icosa-5,8,11,14,17-pentaenoic acid; cis-5,8,11,14,17-eicosapentaenoic acid; cis-5,8,11,14,17-EPA; cis-delta(5,8,11,14,17)-Eicosapentaenoic acid; Eicosapentaenoic acid; EPA; Icosapent; Icosapentaenoic acid; Icosapento; Icosapentum; Timnodonic acid

$$$$
