
     RDKit          3D

 41 44  0  0  0  0  0  0  0  0999 V2000
   10.8669   -2.7403    5.1016 C   0  0  0  0  0  0  0  0  0  0  0  0
   10.8243   -4.1187    5.3197 C   0  0  0  0  0  0  0  0  0  0  0  0
   11.0587   -4.9972    4.2688 C   0  0  0  0  0  0  0  0  0  0  0  0
   11.3124   -4.5024    2.9893 C   0  0  0  0  0  0  0  0  0  0  0  0
   11.3372   -3.1296    2.7551 C   0  0  0  0  0  0  0  0  0  0  0  0
   11.1530   -2.2510    3.8156 C   0  0  0  0  0  0  0  0  0  0  0  0
   10.5377   -1.8186    6.1747 C   0  0  0  0  0  0  0  0  0  0  0  0
    9.9081    0.0753    8.1624 C   0  0  0  0  0  0  0  0  0  0  0  0
   10.9411   -0.8423    8.3704 C   0  0  0  0  0  0  0  0  0  0  0  0
   11.2503   -1.7816    7.3813 C   0  0  0  0  0  0  0  0  0  0  0  0
    9.4818   -0.9390    5.9875 C   0  0  0  0  0  0  0  0  0  0  0  0
    9.2067    0.0098    6.9486 C   0  0  0  0  0  0  0  0  0  0  0  0
    9.5037    1.0685    9.2334 C   0  0  0  0  0  0  0  0  0  0  0  0
   10.0509    4.5178   10.1232 C   0  0  0  0  0  0  0  0  0  0  0  0
   10.6536    3.2956    9.4271 C   0  0  0  0  0  0  0  0  0  0  0  0
    8.7331    2.9367    7.8470 C   0  0  0  0  0  0  0  0  0  0  0  0
    8.6178    5.3155    8.1548 C   0  0  0  0  0  0  0  0  0  0  0  0
    9.7008    5.6460    9.1637 C   0  0  0  0  0  0  0  0  0  0  0  0
    9.6416    2.4558    8.7844 N   0  0  0  0  0  0  0  0  0  0  0  0
    7.6587    2.3702    7.6108 O   0  0  0  0  0  0  0  0  0  0  0  0
    9.0452    4.2633    7.1410 C   0  0  2  0  0  0  0  0  0  0  0  0
    8.2785    4.3185    5.8744 N   0  0  0  0  0  0  0  0  0  0  0  0
    7.9515    5.4818    5.1990 C   0  0  0  0  0  0  0  0  0  0  0  0
    8.2821    6.6036    5.5872 O   0  0  0  0  0  0  0  0  0  0  0  0
    7.1627    5.3299    3.8836 C   0  0  1  0  0  0  0  0  0  0  0  0
    6.8805    6.6708    3.3180 N   0  0  0  0  0  0  0  0  0  0  0  0
    5.6136    7.1741    3.1811 C   0  0  0  0  0  0  0  0  0  0  0  0
    5.5195    8.5832    2.6511 C   0  0  0  0  0  0  0  0  0  0  0  0
    4.5932    6.5205    3.4248 O   0  0  0  0  0  0  0  0  0  0  0  0
    8.0005    4.5205    2.8815 C   0  0  0  0  0  0  0  0  0  0  0  0
    7.0920    3.6731    2.0357 C   0  0  0  0  0  0  0  0  0  0  0  0
    5.1320    2.1562    0.7135 C   0  0  0  0  0  0  0  0  0  0  0  0
    5.9034    1.6120    1.7509 C   0  0  0  0  0  0  0  0  0  0  0  0
    6.8835    2.3483    2.3979 C   0  0  0  0  0  0  0  0  0  0  0  0
    6.3302    4.2317    0.9997 C   0  0  0  0  0  0  0  0  0  0  0  0
    5.3230    3.4897    0.3713 C   0  0  0  0  0  0  0  0  0  0  0  0
    4.2135    1.4251   -0.0315 O   0  0  0  0  0  0  0  0  0  0  0  0
    4.0049   -0.2603    0.2986 P   0  0  0  0  0  0  0  0  0  0  0  0
    3.5494   -0.0533    1.7413 O   0  0  0  0  0  0  0  0  0  0  0  0
    5.5989   -0.5798    0.1828 O   0  0  0  0  0  0  0  0  0  0  0  0
    3.7963   -1.9456    0.6287 O   0  0  0  0  0  0  0  0  0  0  0  0
  1  2  2  0
  1  6  1  0
  1  7  1  0
  2  3  1  0
  3  4  2  0
  4  5  1  0
  5  6  2  0
  7 10  2  0
  7 11  1  0
  8  9  2  0
  8 12  1  0
  8 13  1  0
  9 10  1  0
 11 12  2  0
 13 19  1  0
 14 15  1  0
 14 18  1  0
 15 19  1  0
 16 19  1  0
 16 21  1  0
 16 20  2  0
 17 21  1  0
 17 18  1  0
 21 22  1  6
 22 23  1  0
 23 24  2  0
 25 26  1  0
 25 30  1  6
 25 23  1  0
 26 27  1  0
 27 28  1  0
 27 29  2  0
 30 31  1  0
 31 34  2  0
 31 35  1  0
 32 33  2  0
 32 36  1  0
 32 37  1  0
 33 34  1  0
 35 36  2  0
 37 38  1  0
 38 40  1  0
 38 39  2  0
 38 41  1  0
M  END
>  <DRUGBANK_ID>  (1) 
DB04495

>  <SECONDARY_ACCESSION_NUMBERS>  (1) 
EXPT00324

>  <COMMON_NAME>  (1) 
Paratoulene phosphate

$$$$
