
     RDKit          3D

 19 20  0  0  0  0  0  0  0  0999 V2000
    0.9671    0.0482    0.1752 C   0  0  0  0  0  0  0  0  0  0  0  0
    0.5050    3.9468    3.0630 C   0  0  0  0  0  0  0  0  0  0  0  0
   -4.8701   -1.3575    6.8650 C   0  0  0  0  0  0  0  0  0  0  0  0
   -5.2356    1.0097    6.7696 C   0  0  0  0  0  0  0  0  0  0  0  0
   -3.4989   -1.1625    6.6322 C   0  0  0  0  0  0  0  0  0  0  0  0
   -3.8526    1.2225    6.7352 C   0  0  0  0  0  0  0  0  0  0  0  0
   -0.0169   -0.1670    2.4939 C   0  0  0  0  0  0  0  0  0  0  0  0
    0.5109    0.6290    1.4854 C   0  0  0  0  0  0  0  0  0  0  0  0
    0.3176    2.4808    2.8244 C   0  0  0  0  0  0  0  0  0  0  0  0
   -5.7551   -0.2754    6.9342 C   0  0  0  0  0  0  0  0  0  0  0  0
   -2.9914    0.1370    6.5716 C   0  0  0  0  0  0  0  0  0  0  0  0
   -0.3485    0.4651    3.6802 C   0  0  0  0  0  0  0  0  0  0  0  0
   -7.1374   -0.4900    6.9418 N   0  0  0  0  0  0  0  0  0  0  0  0
    0.6891    1.9565    1.6440 N   0  0  0  0  0  0  0  0  0  0  0  0
   -0.2169    1.7771    3.8315 N   0  0  0  0  0  0  0  0  0  0  0  0
   -1.0808   -0.2300    4.6942 N   0  0  0  0  0  0  0  0  0  0  0  0
   -0.5343   -0.4548    7.1709 O   0  0  0  0  0  0  0  0  0  0  0  0
   -1.0597    1.8560    6.3130 O   0  0  0  0  0  0  0  0  0  0  0  0
   -1.2430    0.4162    6.2640 S   0  0  0  0  0  0  0  0  0  0  0  0
  5  3  2  0
  6  4  1  0
  8  1  1  0
  8  7  2  0
  9  2  1  0
 10  3  1  0
 10  4  2  0
 11  5  1  0
 11  6  2  0
 12  7  1  0
 13 10  1  0
 14  8  1  0
 14  9  2  0
 15  9  1  0
 15 12  2  0
 16 12  1  0
 19 11  1  0
 19 16  1  0
 19 17  2  0
 19 18  2  0
M  END
>  <DRUGBANK_ID>  (1) 
DB13283

>  <COMMON_NAME>  (1) 
Sulfaisodimidine

>  <CAS_NUMBER>  (1) 
515-64-0

>  <UNII>  (1) 
W03L3ODK6E

>  <SYNONYMS>  (1) 
solfisomidina; Sulfisomidine

$$$$
