
     RDKit          3D

 30 31  0  0  1  0  0  0  0  0999 V2000
    3.4201    6.1641   -2.6835 B   0  0  0  0  0  0  0  0  0  0  0  0
    2.4071    5.4185   -1.6947 C   0  0  2  0  0  0  0  0  0  0  0  0
    2.4243    6.1058   -0.3390 C   0  0  0  0  0  0  0  0  0  0  0  0
    3.8847    6.3649   -0.0069 C   0  0  0  0  0  0  0  0  0  0  0  0
    4.4912    7.2734   -1.0639 C   0  0  0  0  0  0  0  0  0  0  0  0
    3.9837    7.0345    1.3540 C   0  0  0  0  0  0  0  0  0  0  0  0
    2.8182    4.0159   -1.5382 N   0  0  0  0  0  0  0  0  0  0  0  0
    1.9018    2.9337   -1.9256 C   0  0  0  0  0  0  0  0  0  0  0  0
    2.2573    1.7211   -1.7903 O   0  0  0  0  0  0  0  0  0  0  0  0
    0.5434    3.2799   -2.5130 C   0  0  2  0  0  0  0  0  0  0  0  0
   -0.5333    3.0626   -1.4623 C   0  0  1  0  0  0  0  0  0  0  0  0
   -0.9692    4.4047   -0.8974 C   0  0  0  0  0  0  0  0  0  0  0  0
   -1.6506    2.4097   -2.0470 O   0  0  0  0  0  0  0  0  0  0  0  0
    0.2770    2.4174   -3.6732 N   0  0  0  0  0  0  0  0  0  0  0  0
    0.0566    3.0149   -4.9981 C   0  0  0  0  0  0  0  0  0  0  0  0
   -0.1736    2.2692   -6.0011 O   0  0  0  0  0  0  0  0  0  0  0  0
    0.1041    4.5246   -5.1684 C   0  0  0  0  0  0  0  0  0  0  0  0
    1.1286    5.2286   -4.5668 C   0  0  0  0  0  0  0  0  0  0  0  0
    1.1573    6.6217   -4.6687 C   0  0  0  0  0  0  0  0  0  0  0  0
    0.1466    7.2353   -5.3978 C   0  0  0  0  0  0  0  0  0  0  0  0
   -0.8230    6.4557   -5.9857 C   0  0  0  0  0  0  0  0  0  0  0  0
   -0.8675    5.1246   -5.8737 N   0  0  0  0  0  0  0  0  0  0  0  0
   -1.9009    7.1452   -6.8062 C   0  0  0  0  0  0  0  0  0  0  0  0
   -1.5945    7.8748   -7.8726 C   0  0  0  0  0  0  0  0  0  0  0  0
   -2.5839    8.4086   -8.6625 C   0  0  0  0  0  0  0  0  0  0  0  0
   -3.9018    8.2802   -8.3218 C   0  0  0  0  0  0  0  0  0  0  0  0
   -4.1698    7.4876   -7.2999 C   0  0  0  0  0  0  0  0  0  0  0  0
   -3.2096    7.0273   -6.3681 C   0  0  0  0  0  0  0  0  0  0  0  0
    3.8099    5.3135   -3.8559 O   0  0  0  0  0  0  0  0  0  0  0  0
    4.1343    7.4576   -2.4250 O   0  0  0  0  0  0  0  0  0  0  0  0
  1 29  1  0
  1 30  1  0
  2  7  1  0
  2  3  1  1
  2  1  1  0
  3  4  1  0
  4  5  1  0
  4  6  1  0
  7  8  1  0
  8  9  2  0
 10 14  1  6
 10 11  1  0
 10  8  1  0
 11 12  1  6
 11 13  1  0
 14 15  1  0
 15 16  2  0
 15 17  1  0
 17 18  2  0
 17 22  1  0
 18 19  1  0
 19 20  2  0
 20 21  1  0
 21 22  2  0
 21 23  1  0
 23 24  2  0
 23 28  1  0
 24 25  1  0
 25 26  2  0
 26 27  1  0
 27 28  2  0
M  END
>  <DRUGBANK_ID>  (1) 
DB11956

>  <COMMON_NAME>  (1) 
Delanzomib

>  <CAS_NUMBER>  (1) 
847499-27-8

>  <UNII>  (1) 
6IF28942WO

>  <SYNONYMS>  (1) 
Delanzomib

$$$$
