
     RDKit          3D

 21 18  0  0  0  0  0  0  0  0999 V2000
    3.3370    3.5280    3.4292 S   0  0  0  0  0  0  0  0  0  0  0  0
    3.4230    4.9186   -0.2716 S   0  0  0  0  0  0  0  0  0  0  0  0
    0.4287   -1.7673   -1.2308 Mg  0  0  0  0  0 15  0  0  0  0  0  0
   -0.5715    4.0310    2.7757 O   0  0  0  0  0  0  0  0  0  0  0  0
    1.1967    4.7958    1.5383 O   0  0  0  0  0  0  0  0  0  0  0  0
   -1.0156    4.5672   -0.9776 O   0  0  0  0  0  0  0  0  0  0  0  0
    0.4121    4.6845   -2.7609 O   0  0  0  0  0  0  0  0  0  0  0  0
   -0.3207   -0.5707    0.0229 O   0  0  0  0  0  0  0  0  0  0  0  0
    1.4237   -0.4390   -2.0017 O   0  0  0  0  0  0  0  0  0  0  0  0
    0.3034    1.3708    1.0912 N   0  0  0  0  0  0  0  0  0  0  0  0
    0.8722    1.7247   -1.5406 N   0  0  0  0  0  0  0  0  0  0  0  0
    1.0846    2.4034    2.0716 C   0  0  1  0  0  0  0  0  0  0  0  0
    0.9616    3.2446   -0.9906 C   0  0  1  0  0  0  0  0  0  0  0  0
    2.6718    2.3725    2.1979 C   0  0  0  0  0  0  0  0  0  0  0  0
    2.4287    3.5390   -0.8844 C   0  0  0  0  0  0  0  0  0  0  0  0
    0.5131    3.9249    2.0960 C   0  0  0  0  0  0  0  0  0  0  0  0
    0.0490    4.3240   -1.6021 C   0  0  0  0  0  0  0  0  0  0  0  0
    0.2222    0.0301    0.9766 C   0  0  0  0  0  0  0  0  0  0  0  0
    1.7442    0.6509   -1.4634 C   0  0  0  0  0  0  0  0  0  0  0  0
    1.0329   -0.7997    1.8866 C   0  0  0  0  0  0  0  0  0  0  0  0
    2.8991    0.5201   -0.4699 C   0  0  0  0  0  0  0  0  0  0  0  0
  1 14  1  0
  2 15  1  0
  4 16  1  0
  5 16  2  0
  6 17  1  0
  7 17  2  0
  8 18  2  0
  9 19  2  0
 10 18  1  0
 11 19  1  0
 12 16  1  0
 12 14  1  6
 12 10  1  0
 13 17  1  0
 13 15  1  6
 13 11  1  0
 18 20  1  0
 19 21  1  0
M  CHG  3   3   2   4  -1   6  -1
M  END
>  <DRUGBANK_ID>  (1) 
DB14080

>  <COMMON_NAME>  (1) 
Acetylcysteine magnesium

>  <CAS_NUMBER>  (1) 
36330-79-7

>  <UNII>  (1) 
038D8XOK12

>  <SYNONYMS>  (1) 
Magnesium acetylcysteinate; Magnesium acetylcysteine

$$$$
