CVB
     RDKit          3D

 14 14  0  0  0  0  0  0  0  0999 V2000
    0.9575   -0.0507    0.0750 B   0  0  0  0  0  0  0  0  0  0  0  0
    0.2075   -1.3493    0.0402 O   0  0  0  0  0  0  0  0  0  0  0  0
    0.2075    1.2479    0.1098 O   0  0  0  0  0  0  0  0  0  0  0  0
    2.5575   -0.0507    0.0750 C   0  0  0  0  0  0  0  0  0  0  0  0
    3.2089    1.1060    0.1060 C   0  0  0  0  0  0  0  0  0  0  0  0
    4.5736    1.1362    0.2623 C   0  0  0  0  0  0  0  0  0  0  0  0
    5.3030   -0.0197    0.2978 C   0  0  0  0  0  0  0  0  0  0  0  0
    6.8230   -0.0081    0.2898 C   0  0  0  0  0  0  0  0  0  0  0  0
    7.5123   -1.1804    0.3261 C   0  0  0  0  0  0  0  0  0  0  0  0
    9.0323   -1.1688    0.3182 C   0  0  0  0  0  0  0  0  0  0  0  0
    9.7518   -2.3924    0.3560 O   0  0  0  0  0  0  0  0  0  0  0  0
    9.6591   -0.0640    0.2776 O   0  0  0  0  0  0  0  0  0  0  0  0
    4.6160   -1.1468    0.3393 C   0  0  0  0  0  0  0  0  0  0  0  0
    3.2369   -1.2573    0.0427 C   0  0  0  0  0  0  0  0  0  0  0  0
  1  2  1  0
  1  3  1  0
  1  4  1  0
  4  5  2  0
  4 14  1  0
  5  6  1  0
  6  7  2  0
  7  8  1  0
  7 13  1  0
  8  9  2  0
  9 10  1  0
 10 11  1  0
 10 12  2  0
 13 14  2  0
M  END
>  <DRUGBANK_ID>  (1) 
DB02503

>  <SECONDARY_ACCESSION_NUMBERS>  (1) 
EXPT01061

>  <COMMON_NAME>  (1) 
4-(Carboxyvin-2-Yl)Phenylboronic Acid

$$$$
