
     RDKit          3D

 34 34  0  0  1  0  0  0  0  0999 V2000
   -2.1555   -0.0224   -9.2938 C   0  0  0  0  0  0  0  0  0  0  0  0
   -3.0705   -0.6691   -8.2799 C   0  0  0  0  0  0  0  0  0  0  0  0
   -3.4429    0.3447   -7.2134 C   0  0  0  0  0  0  0  0  0  0  0  0
   -4.2253    1.5398   -7.7757 C   0  0  0  0  0  0  0  0  0  0  0  0
   -5.5421    1.1263   -8.4556 C   0  0  0  0  0  0  0  0  0  0  0  0
   -6.5248    0.3990   -7.5187 C   0  0  2  0  0  0  0  0  0  0  0  0
   -7.8556    0.6861   -7.9091 O   0  0  0  0  0  0  0  0  0  0  0  0
   -6.3574    0.8434   -6.1025 C   0  0  0  0  0  0  0  0  0  0  0  0
   -5.8930    0.0396   -5.1338 C   0  0  0  0  0  0  0  0  0  0  0  0
   -5.3514    0.5074   -3.8090 C   0  0  1  0  0  0  0  0  0  0  0  0
   -5.8584    1.9202   -3.4243 C   0  0  2  0  0  0  0  0  0  0  0  0
   -4.9543    2.9508   -3.8078 O   0  0  0  0  0  0  0  0  0  0  0  0
   -6.0669    1.8952   -1.9298 C   0  0  0  0  0  0  0  0  0  0  0  0
   -6.2810    0.4430   -1.6899 C   0  0  0  0  0  0  0  0  0  0  0  0
   -6.8972    0.1768   -0.4817 O   0  0  0  0  0  0  0  0  0  0  0  0
   -7.8727   -0.7936   -0.4776 C   0  0  0  0  0  0  0  0  0  0  0  0
   -8.4296   -1.1906   -1.4463 O   0  0  0  0  0  0  0  0  0  0  0  0
   -8.0591   -1.3269    0.9707 C   0  0  0  0  0  0  0  0  0  0  0  0
   -6.7851   -1.0867    1.8192 C   0  0  0  0  0  0  0  0  0  0  0  0
   -6.5726    0.2997    2.2611 C   0  0  0  0  0  0  0  0  0  0  0  0
   -5.8132   -0.3655   -2.6721 C   0  0  0  0  0  0  0  0  0  0  0  0
   -5.6912   -1.8802   -2.8603 C   0  0  0  0  0  0  0  0  0  0  0  0
   -4.8049   -2.6256   -1.8689 C   0  0  0  0  0  0  0  0  0  0  0  0
   -5.3372   -2.5127   -0.5024 C   0  0  0  0  0  0  0  0  0  0  0  0
   -6.6614   -3.2427   -0.3677 C   0  0  0  0  0  0  0  0  0  0  0  0
   -6.9080   -4.6840   -0.1896 C   0  0  0  0  0  0  0  0  0  0  0  0
   -6.1185   -5.0420    1.0543 C   0  0  0  0  0  0  0  0  0  0  0  0
   -6.6615   -4.7603    2.4783 C   0  0  0  0  0  0  0  0  0  0  0  0
   -6.8673   -5.7599    3.1586 O   0  0  0  0  0  0  0  0  0  0  0  0
   -6.8173   -3.4576    2.9147 O   0  0  0  0  0  0  0  0  0  0  0  0
   -7.4973   -2.7883    4.1772 C   0  0  0  0  0  0  0  0  0  0  0  0
   -9.0035   -2.9790    4.1224 C   0  0  0  0  0  0  0  0  0  0  0  0
   -9.2234   -4.4604    4.0674 C   0  0  0  0  0  0  0  0  0  0  0  0
   -8.3575   -5.0964    5.1660 C   0  0  0  0  0  0  0  0  0  0  0  0
  1  2  1  0
  2  3  1  0
  3  4  1  0
  4  5  1  0
  6  8  1  0
  6  7  1  6
  6  5  1  0
  8  9  2  0
 10 11  1  0
 10 21  1  0
 10  9  1  6
 11 12  1  1
 11 13  1  0
 13 14  1  0
 14 15  1  0
 14 21  2  0
 15 16  1  0
 16 17  2  0
 16 18  1  0
 18 19  1  0
 19 20  1  0
 21 22  1  0
 22 23  1  0
 23 24  1  0
 24 25  1  0
 25 26  1  0
 26 27  1  0
 27 28  1  0
 28 29  2  0
 28 30  1  0
 30 31  1  0
 31 32  1  0
 32 33  1  0
 33 34  1  0
M  END
>  <DRUGBANK_ID>  (1) 
DB16148

>  <COMMON_NAME>  (1) 
Ecraprost

>  <CAS_NUMBER>  (1) 
136892-64-3

>  <UNII>  (1) 
Q2XM6VR8DO

>  <SYNONYMS>  (1) 
Circulase; Ecraprost

$$$$
