CB4
     RDKit          3D

 22 22  0  0  0  0  0  0  0  0999 V2000
    0.9014    0.0112    0.0123 B   0  0  0  0  0  0  0  0  0  0  0  0
    0.1514    1.1422    0.6514 O   0  0  0  0  0  0  0  0  0  0  0  0
    0.1514   -1.1197   -0.6268 O   0  0  0  0  0  0  0  0  0  0  0  0
    2.5014    0.0112    0.0123 C   0  0  0  0  0  0  0  0  0  0  0  0
    2.9914    1.2178    0.6942 N   0  0  0  0  0  0  0  0  0  0  0  0
    3.8365    1.0939    1.8906 C   0  0  0  0  0  0  0  0  0  0  0  0
    4.2602    2.1371    2.4801 O   0  0  0  0  0  0  0  0  0  0  0  0
    4.2037   -0.2818    2.4225 C   0  0  0  0  0  0  0  0  0  0  0  0
    3.7652   -1.3616    1.8123 N   0  0  0  0  0  0  0  0  0  0  0  0
    2.9775   -1.2462    0.6973 O   0  0  0  0  0  0  0  0  0  0  0  0
    2.5042   -2.4117    0.0386 C   0  0  0  0  0  0  0  0  0  0  0  0
    5.0776   -0.4098    3.6596 C   0  0  0  0  0  0  0  0  0  0  0  0
    6.1088   -1.2720    3.7224 C   0  0  0  0  0  0  0  0  0  0  0  0
    6.8783   -1.1848    5.2545 S   0  0  0  0  0  0  0  0  0  0  0  0
    5.7484    0.0601    5.7103 C   0  0  0  0  0  0  0  0  0  0  0  0
    5.8141    0.6385    6.9147 N   0  0  0  0  0  0  0  0  0  0  0  0
    4.8676    0.3597    4.7935 N   0  0  0  0  0  0  0  0  0  0  0  0
    3.6864   -3.2435   -0.4315 C   0  0  0  0  0  0  0  0  0  0  0  0
    1.6598   -3.2303    1.0015 C   0  0  0  0  0  0  0  0  0  0  0  0
    1.6598   -2.0090   -1.1594 C   0  0  0  0  0  0  0  0  0  0  0  0
    1.4797   -0.7794   -1.4254 O   0  0  0  0  0  0  0  0  0  0  0  0
    1.0721   -3.0067   -1.9814 O   0  0  0  0  0  0  0  0  0  0  0  0
  1  2  1  0
  1  3  1  0
  1  4  1  0
  4  5  1  0
  5  6  1  0
  6  7  2  0
  6  8  1  0
  8  9  2  0
  8 12  1  0
  9 10  1  0
 10 11  1  0
 11 18  1  0
 11 19  1  0
 11 20  1  0
 12 13  2  0
 12 17  1  0
 13 14  1  0
 14 15  1  0
 15 16  1  0
 15 17  2  0
 20 21  2  0
 20 22  1  0
M  END
>  <DRUGBANK_ID>  (1) 
DB04035

>  <SECONDARY_ACCESSION_NUMBERS>  (1) 
EXPT00840

>  <COMMON_NAME>  (1) 
Ceftazidime BATSI

$$$$
