44U
     RDKit          3D

 28 30  0  0  0  0  0  0  0  0999 V2000
   -0.0883  -13.1202   -0.6608 C   0  0  0  0  0  0  0  0  0  0  0  0
    0.8836  -12.0638   -0.1951 C   0  0  0  0  0  0  0  0  0  0  0  0
    0.5487  -10.7521   -0.8726 C   0  0  0  0  0  0  0  0  0  0  0  0
   -2.4453   -8.6433    0.2497 C   0  0  1  0  0  0  0  0  0  0  0  0
   -3.6138   -9.4031   -0.3038 C   0  0  0  0  0  0  0  0  0  0  0  0
   -4.7583   -8.4381    0.0022 C   0  0  0  0  0  0  0  0  0  0  0  0
   -4.1222   -7.0283   -0.0367 C   0  0  0  0  0  0  0  0  0  0  0  0
   -1.7910   -6.1950    0.0940 C   0  0  0  0  0  0  0  0  0  0  0  0
   -0.2984   -6.4367    0.4754 C   0  0  1  0  0  0  0  0  0  0  0  0
    2.3787   -7.4936    2.3949 C   0  0  0  0  0  0  0  0  0  0  0  0
    3.6410   -7.3296    2.9301 C   0  0  0  0  0  0  0  0  0  0  0  0
    4.0830   -6.0460    3.1723 C   0  0  0  0  0  0  0  0  0  0  0  0
    3.2542   -4.9633    2.8645 C   0  0  0  0  0  0  0  0  0  0  0  0
   -0.5478   -8.1105    2.9923 C   0  0  0  0  0  0  0  0  0  0  0  0
   -1.4112  -10.8519    2.8864 C   0  0  0  0  0  0  0  0  0  0  0  0
   -0.8521  -10.3551   -0.7064 N   0  0  0  0  0  0  0  0  0  0  0  0
   -1.1081   -9.3562    0.1436 C   0  0  0  0  0  0  0  0  0  0  0  0
   -0.0957   -8.9615    0.7388 O   0  0  0  0  0  0  0  0  0  0  0  0
   -2.6711   -7.2549   -0.0752 N   0  0  0  0  0  0  0  0  0  0  0  0
   -2.1693   -5.0407   -0.1461 O   0  0  0  0  0  0  0  0  0  0  0  0
   -0.0454   -6.7801    2.1231 C   0  0  0  0  0  0  0  0  0  0  0  0
    1.4331   -6.4651    2.3811 C   0  0  0  0  0  0  0  0  0  0  0  0
    1.9124   -5.1648    2.5255 C   0  0  0  0  0  0  0  0  0  0  0  0
    0.2838   -9.2058    3.3409 C   0  0  0  0  0  0  0  0  0  0  0  0
   -0.0922  -10.5452    3.1156 C   0  0  0  0  0  0  0  0  0  0  0  0
   -2.3214   -9.8062    3.0160 C   0  0  0  0  0  0  0  0  0  0  0  0
   -1.8942   -8.4264    3.1059 C   0  0  0  0  0  0  0  0  0  0  0  0
    0.4243   -7.0948   -0.6807 N   0  0  0  0  0  0  0  0  0  0  0  0
  1  2  1  0
  2  3  1  0
  3 16  1  0
  4 19  1  0
  4 17  1  6
  5  4  1  0
  5  6  1  0
  6  7  1  0
  7 19  1  0
  8 20  2  0
  9 28  1  6
  9 21  1  0
  9  8  1  0
 10 22  2  0
 10 11  1  0
 11 12  2  0
 12 13  1  0
 14 27  2  0
 15 26  2  0
 17 16  1  0
 18 17  2  0
 19  8  1  0
 21 14  1  0
 21 22  1  0
 22 23  1  0
 23 13  2  0
 24 14  1  0
 24 25  2  0
 25 15  1  0
 27 26  1  0
M  END
>  <DRUGBANK_ID>  (1) 
DB07083

>  <COMMON_NAME>  (1) 
beta-phenyl-D-phenylalanyl-N-propyl-L-prolinamide

$$$$
