1043
     RDKit          3D

 13 15  0  0  1  0  0  0  0  0999 V2000
    1.5802    0.2356   -0.0983 N   0  0  0  0  0  0  0  0  0  0  0  0
   -0.9043    2.9917    0.9855 C   0  0  0  0  0  0  0  0  0  0  0  0
   -2.0650    1.0598   -0.1962 C   0  0  0  0  0  0  0  0  0  0  0  0
    0.4653    1.1786   -0.1734 C   0  0  0  0  0  0  0  0  0  0  0  0
   -0.8693    2.8428   -1.5385 C   0  0  0  0  0  0  0  0  0  0  0  0
   -2.1025    2.0098    1.0183 C   0  0  0  0  0  0  0  0  0  0  0  0
    0.4192    2.1684    1.0186 C   0  0  0  0  0  0  0  0  0  0  0  0
   -0.7635    0.2631   -0.1359 C   0  0  0  0  0  0  0  0  0  0  0  0
   -0.9699    3.7933   -0.3345 C   0  0  0  0  0  0  0  0  0  0  0  0
   -2.0706    1.8785   -1.5057 C   0  0  0  0  0  0  0  0  0  0  0  0
    0.4458    2.0302   -1.4651 C   0  0  0  0  0  0  0  0  0  0  0  0
   -0.9986    3.9493    2.1791 C   0  0  0  0  0  0  0  0  0  0  0  0
   -3.2119    0.0497   -0.1539 C   0  0  0  0  0  0  0  0  0  0  0  0
  1  4  1  0
  2  6  1  0
  2  7  1  0
  2  9  1  0
  2 12  1  0
  3  6  1  0
  3  8  1  0
  3 10  1  0
  3 13  1  0
  4  7  1  0
  4  8  1  0
  4 11  1  0
  5  9  1  0
  5 10  1  0
  5 11  1  0
M  END
>  <DRUGBANK_ID>  (1) 
DB01043

>  <SECONDARY_ACCESSION_NUMBERS>  (1) 
APRD00221

>  <COMMON_NAME>  (1) 
Memantine

>  <CAS_NUMBER>  (1) 
19982-08-2

>  <UNII>  (1) 
W8O17SJF3T

>  <SYNONYMS>  (1) 
1-Amino-3,5-dimethyladamantane; 1,3-Dimethyl-5-adamantanamine; 3,5-Dimethyl-1-adamantanamine; 3,5-Dimethyl-1-aminoadamantane; 3,5-Dimethyltricyclo(3.3.1.1(3,7))decan-1-amine; Memantina; Memantine; Memantinum

$$$$
