
     RDKit          3D

 11 10  0  0  0  0  0  0  0  0999 V2000
    1.0952    0.1140    0.0605 C   0  0  0  0  0  0  0  0  0  0  0  0
    0.5862    0.7658    1.3350 C   0  0  0  0  0  0  0  0  0  0  0  0
    0.6369    0.8739   -1.1863 C   0  0  0  0  0  0  0  0  0  0  0  0
    1.1180    2.1726    1.4556 C   0  0  0  0  0  0  0  0  0  0  0  0
    1.1300    0.1940   -2.4615 C   0  0  0  0  0  0  0  0  0  0  0  0
    0.1554    3.1432    1.5136 N   0  0  0  0  0  0  0  0  0  0  0  0
    2.3218    2.4397    1.4638 O   0  0  0  0  0  0  0  0  0  0  0  0
    0.5730   -1.2244   -2.6247 C   0  0  0  0  0  0  0  0  0  0  0  0
    0.6001    4.4818    1.5547 O   0  0  0  0  0  0  0  0  0  0  0  0
   -0.9579   -1.2601   -2.6314 C   0  0  0  0  0  0  0  0  0  0  0  0
   -1.5206   -0.4508   -3.7895 C   0  0  0  0  0  0  0  0  0  0  0  0
  1  2  1  0
  1  3  1  0
  2  4  1  0
  3  5  1  0
  4  6  1  0
  4  7  2  0
  5  8  1  0
  6  9  1  0
  8 10  1  0
 10 11  1  0
M  END
>  <DRUGBANK_ID>  (1) 
DB16634

>  <COMMON_NAME>  (1) 
Caprylhydroxamic acid

>  <CAS_NUMBER>  (1) 
7377-03-9

>  <UNII>  (1) 
UPY805K99W

>  <SYNONYMS>  (1) 
Caprylohydroxamic acid; N-Hydroxyoctanamide; Octanohydroxamic acid; Octanoylhydroxamic acid; Taselin

$$$$
