
     RDKit          3D

 18 20  0  0  0  0  0  0  0  0999 V2000
    0.9775   -0.0292   -0.0617 C   0  0  0  0  0  0  0  0  0  0  0  0
    0.8790   -3.7880   -0.3681 C   0  0  0  0  0  0  0  0  0  0  0  0
   -4.3000    0.0581   -1.2911 C   0  0  0  0  0  0  0  0  0  0  0  0
   -3.8008   -6.6964    0.1021 C   0  0  0  0  0  0  0  0  0  0  0  0
   -0.3632   -4.0485    0.4788 C   0  0  0  0  0  0  0  0  0  0  0  0
   -3.2917   -0.9457   -1.3218 C   0  0  0  0  0  0  0  0  0  0  0  0
   -3.2590   -5.4910    0.6324 C   0  0  0  0  0  0  0  0  0  0  0  0
    1.4551   -2.4035   -0.0761 C   0  0  0  0  0  0  0  0  0  0  0  0
   -5.2808   -0.2332   -0.3728 C   0  0  0  0  0  0  0  0  0  0  0  0
   -4.1509   -6.5598   -1.2202 C   0  0  0  0  0  0  0  0  0  0  0  0
   -0.7439   -1.5925    0.5422 C   0  0  0  0  0  0  0  0  0  0  0  0
   -1.3847   -2.9414    0.2559 C   0  0  0  0  0  0  0  0  0  0  0  0
   -3.4993   -1.9674   -0.4053 C   0  0  0  0  0  0  0  0  0  0  0  0
   -3.1807   -4.4652   -0.2990 C   0  0  0  0  0  0  0  0  0  0  0  0
   -2.6738   -3.1232   -0.1373 C   0  0  0  0  0  0  0  0  0  0  0  0
    0.4413   -1.3686   -0.3023 N   0  0  0  0  0  0  0  0  0  0  0  0
   -4.9689   -1.6967    0.4577 S   0  0  0  0  0  0  0  0  0  0  0  0
   -3.8097   -4.9945   -1.8168 S   0  0  0  0  0  0  0  0  0  0  0  0
  5  2  1  0
  6  3  1  0
  7  4  1  0
  8  2  1  0
  9  3  2  0
 10  4  2  0
 12  5  1  0
 12 11  1  0
 13  6  2  0
 14  7  2  0
 15 12  2  3
 15 13  1  0
 15 14  1  0
 16  1  1  0
 16  8  1  0
 16 11  1  0
 17  9  1  0
 17 13  1  0
 18 10  1  0
 18 14  1  0
M  END
>  <DRUGBANK_ID>  (1) 
DB13474

>  <COMMON_NAME>  (1) 
Tipepidine

>  <CAS_NUMBER>  (1) 
5169-78-8

>  <UNII>  (1) 
2260ZP67IT

>  <SYNONYMS>  (1) 
Tipepidine

$$$$
