AFB
     RDKit          3D

 20 21  0  0  0  0  0  0  0  0999 V2000
    8.0362    0.6003   11.3710 O   0  0  0  0  0  0  0  0  0  0  0  0
    6.7518    0.0782   11.6752 C   0  0  1  0  0  0  0  0  0  0  0  0
    5.8291    1.4725   12.1533 C   0  0  0  0  0  0  0  0  0  0  0  0
    5.7657   -0.2010   10.5891 C   0  0  0  0  0  0  0  0  0  0  0  0
    5.3261    1.2144   10.7196 C   0  0  1  0  0  0  0  0  0  0  0  0
    5.2992    2.4012   10.4479 C   0  0  2  0  0  0  0  0  0  0  0  0
    4.7674    2.0880    8.5290 C   0  0  0  0  0  0  0  0  0  0  0  0
    3.9007    2.7110    7.5730 C   0  0  0  0  0  0  0  0  0  0  0  0
    3.0228    3.7105    8.0551 C   0  0  0  0  0  0  0  0  0  0  0  0
    4.0873    4.7405    8.3699 C   0  0  0  0  0  0  0  0  0  0  0  0
    3.5943    5.9024    7.6172 C   0  0  0  0  0  0  0  0  0  0  0  0
    2.1864    6.2678    8.1233 C   0  0  2  0  0  0  0  0  0  0  0  0
    1.7557    7.4172    7.2164 C   0  0  0  0  0  0  0  0  0  0  0  0
    2.1782    6.6031    9.5856 O   0  0  0  0  0  0  0  0  0  0  0  0
    2.4133    5.8960   10.7755 C   0  0  0  0  0  0  0  0  0  0  0  0
    2.5007    6.4761   11.8479 O   0  0  0  0  0  0  0  0  0  0  0  0
    2.6298    4.4064   10.7773 C   0  0  0  0  0  0  0  0  0  0  0  0
    3.1296    3.3898   11.5652 C   0  0  0  0  0  0  0  0  0  0  0  0
    3.6450    1.6871   11.2143 C   0  0  1  0  0  0  0  0  0  0  0  0
    2.9447    1.4669   10.0348 O   0  0  0  0  0  0  0  0  0  0  0  0
  2  3  1  0
  2  4  1  0
  2  1  1  6
  6  3  1  6
  5  4  1  6
  5  6  1  0
  5 19  1  0
  6  7  1  0
  7  8  2  0
  8  9  1  0
  9 10  1  0
 10 11  1  0
 11 12  1  0
 12 14  1  0
 12 13  1  6
 14 15  1  0
 15 16  2  0
 15 17  1  0
 17 18  2  0
 18 19  1  0
 19 20  1  6
M  END
>  <DRUGBANK_ID>  (1) 
DB07348

>  <COMMON_NAME>  (1) 
Brefeldin A

>  <CAS_NUMBER>  (1) 
20350-15-6

>  <UNII>  (1) 
XG0D35F9K6

>  <SYNONYMS>  (1) 
(+)-brefeldin A; Ascotoxin; Cyanein; Decumbin; Nectrolide; Synergisidin

$$$$
