
     RDKit          3D

  6  5  0  0  0  0  0  0  0  0999 V2000
    0.9798   -0.0557    0.0579 C   0  0  0  0  0  0  0  0  0  0  0  0
    0.1926   -0.1459    1.3805 C   0  0  0  0  0  0  0  0  0  0  0  0
    0.4028    0.0177   -1.0176 O   0  0  0  0  0  0  0  0  0  0  0  0
   -1.0334   -0.1450    1.3671 O   0  0  0  0  0  0  0  0  0  0  0  0
    2.3503   -0.0598    0.1179 N   0  0  0  0  0  0  0  0  0  0  0  0
    0.9711   -0.2333    2.6612 C   0  0  0  0  0  0  0  0  0  0  0  0
  2  1  1  0
  3  1  2  0
  4  2  2  0
  5  1  1  0
  6  2  1  0
M  END
>  <DRUGBANK_ID>  (1) 
DB03578

>  <SECONDARY_ACCESSION_NUMBERS>  (1) 
EXPT02721

>  <COMMON_NAME>  (1) 
Pyruvamide

>  <CAS_NUMBER>  (1) 
631-66-3

>  <UNII>  (1) 
P4O9E1R444

$$$$
