PIL
     RDKit          3D

 25 27  0  0  0  0  0  0  0  0999 V2000
   -2.6589   -0.9190    0.0456 Cl  0  0  0  0  0  0  0  0  0  0  0  0
   -1.1817   -0.0315   -0.0024 C   0  0  0  0  0  0  0  0  0  0  0  0
   -1.2409    1.3572    0.1448 C   0  0  0  0  0  0  0  0  0  0  0  0
   -0.1569    2.1605    0.2286 N   0  0  0  0  0  0  0  0  0  0  0  0
    1.0130    1.5779   -0.0685 C   0  0  0  0  0  0  0  0  0  0  0  0
    1.1124    0.2550   -0.4772 C   0  0  0  0  0  0  0  0  0  0  0  0
    2.3009    0.0126   -1.7146 Cl  0  0  0  0  0  0  0  0  0  0  0  0
    0.0608   -0.6403   -0.2341 C   0  0  0  0  0  0  0  0  0  0  0  0
    0.1669   -2.0757   -0.2136 N   0  0  0  0  0  0  0  0  0  0  0  0
    1.2630   -2.9278   -0.1630 C   0  0  0  0  0  0  0  0  0  0  0  0
    1.1085   -4.1547   -0.2564 O   0  0  0  0  0  0  0  0  0  0  0  0
    2.6229   -2.4150    0.0862 C   0  0  0  0  0  0  0  0  0  0  0  0
    2.7957   -1.5019    1.1344 C   0  0  0  0  0  0  0  0  0  0  0  0
    3.9339   -0.7185    1.1879 C   0  0  0  0  0  0  0  0  0  0  0  0
    4.9694   -0.9570    0.3080 C   0  0  0  0  0  0  0  0  0  0  0  0
    6.0760   -0.1818    0.3508 O   0  0  0  0  0  0  0  0  0  0  0  0
    6.1969    1.0349    1.0509 C   0  0  0  0  0  0  0  0  0  0  0  0
    4.8978   -2.0230   -0.6282 C   0  0  0  0  0  0  0  0  0  0  0  0
    3.6797   -2.7036   -0.7909 C   0  0  0  0  0  0  0  0  0  0  0  0
    5.9141   -2.4684   -1.4424 O   0  0  0  0  0  0  0  0  0  0  0  0
    7.2560   -2.0247   -1.2195 C   0  0  0  0  0  0  0  0  0  0  0  0
    7.7983   -2.1502    0.2201 C   0  0  0  0  0  0  0  0  0  0  0  0
    8.7956   -1.0019    0.3658 C   0  0  0  0  0  0  0  0  0  0  0  0
    8.6795   -0.1083   -0.8855 C   0  0  0  0  0  0  0  0  0  0  0  0
    7.5000   -0.5958   -1.7205 C   0  0  0  0  0  0  0  0  0  0  0  0
  1  2  1  0
  2  3  2  0
  2  8  1  0
  3  4  1  0
  4  5  2  0
  5  6  1  0
  6  7  1  0
  6  8  2  0
  8  9  1  0
  9 10  1  0
 10 11  2  0
 10 12  1  0
 12 13  2  0
 12 19  1  0
 13 14  1  0
 14 15  2  0
 15 16  1  0
 15 18  1  0
 16 17  1  0
 18 19  2  0
 18 20  1  0
 20 21  1  0
 21 22  1  0
 21 25  1  0
 22 23  1  0
 23 24  1  0
 24 25  1  0
M  END
>  <DRUGBANK_ID>  (1) 
DB01791

>  <SECONDARY_ACCESSION_NUMBERS>  (1) 
EXPT02600

>  <COMMON_NAME>  (1) 
Piclamilast

>  <CAS_NUMBER>  (1) 
144035-83-6

>  <UNII>  (1) 
WM58D7C3ZT

>  <SYNONYMS>  (1) 
3-(cyclopentyloxy)-N-(3,5-dichloro-4-pyridinyl)-4-methoxybenzamide; 3-(cyclopentyloxy)-N-(3,5-dichloro-4-pyridyl)-p-anisamide; Piclamilast; Piclamilastum

$$$$
