667
     RDKit          3D

 21 23  0  0  0  0  0  0  0  0999 V2000
    0.8913   -0.0329    0.0478 S   0  0  0  0  0  0  0  0  0  0  0  0
    0.5508   -0.5699   -1.2480 O   0  0  0  0  0  0  0  0  0  0  0  0
    0.5739   -0.7415    1.2692 O   0  0  0  0  0  0  0  0  0  0  0  0
    0.3865    1.5244    0.1333 O   0  0  0  0  0  0  0  0  0  0  0  0
    2.5722    0.0559    0.0407 N   0  0  0  0  0  0  0  0  0  0  0  0
   -0.9617    1.7912    0.1762 C   0  0  0  0  0  0  0  0  0  0  0  0
   -1.4767    2.8246   -0.6073 C   0  0  0  0  0  0  0  0  0  0  0  0
   -2.8645    3.0807   -0.6299 C   0  0  0  0  0  0  0  0  0  0  0  0
   -3.7593    2.3281    0.1469 C   0  0  0  0  0  0  0  0  0  0  0  0
   -3.1934    1.3594    0.9696 C   0  0  0  0  0  0  0  0  0  0  0  0
   -1.8260    1.0893    1.0022 C   0  0  0  0  0  0  0  0  0  0  0  0
   -5.2323    2.4531    0.1388 C   0  0  0  0  0  0  0  0  0  0  0  0
   -5.9640    1.6545    0.9485 C   0  0  0  0  0  0  0  0  0  0  0  0
   -5.3353    0.6812    1.8813 C   0  0  0  0  0  0  0  0  0  0  0  0
   -5.9239    3.4056   -0.8128 C   0  0  0  0  0  0  0  0  0  0  0  0
   -7.4763    1.6499    0.9500 C   0  0  0  0  0  0  0  0  0  0  0  0
   -5.9908   -0.0054    2.6569 O   0  0  0  0  0  0  0  0  0  0  0  0
   -3.9638    0.5666    1.8300 O   0  0  0  0  0  0  0  0  0  0  0  0
   -8.0645    1.1373   -0.3664 C   0  0  0  0  0  0  0  0  0  0  0  0
   -8.0729    2.1752   -1.4862 C   0  0  0  0  0  0  0  0  0  0  0  0
   -6.6905    2.6662   -1.9146 C   0  0  0  0  0  0  0  0  0  0  0  0
  1  2  2  0
  1  3  2  0
  1  4  1  0
  1  5  1  0
  4  6  1  0
  6  7  2  0
  6 11  1  0
  7  8  1  0
  8  9  2  0
  9 10  1  0
  9 12  1  0
 10 11  2  0
 10 18  1  0
 12 13  2  0
 12 15  1  0
 13 14  1  0
 13 16  1  0
 14 17  2  0
 14 18  1  0
 15 21  1  0
 16 19  1  0
 19 20  1  0
 20 21  1  0
M  END
>  <DRUGBANK_ID>  (1) 
DB02292

>  <SECONDARY_ACCESSION_NUMBERS>  (1) 
EXPT00273; DB12437

>  <COMMON_NAME>  (1) 
Irosustat

>  <CAS_NUMBER>  (1) 
288628-05-7

>  <UNII>  (1) 
366037O6O7

>  <SYNONYMS>  (1) 
6-Oxo-8,9,10,11-Tetrahydro-7h-Cyclohepta[C][1]Benzopyran-3-O-Sulfamate; Irosustat

$$$$
