
     RDKit          3D

 21 22  0  0  0  0  0  0  0  0999 V2000
   -0.3281   -0.2598   -0.1730 P   0  0  0  0  0  0  0  0  0  0  0  0
   -1.4831    1.9493   -1.5323 O   0  0  0  0  0  0  0  0  0  0  0  0
    0.6679    0.8758    0.4659 O   0  0  0  0  0  0  0  0  0  0  0  0
   -5.2637    2.5477   -1.3130 O   0  0  0  0  0  0  0  0  0  0  0  0
    0.4775   -1.6589    0.0032 O   0  0  0  0  0  0  0  0  0  0  0  0
    0.6058   -0.0208   -1.6095 O   0  0  0  0  0  0  0  0  0  0  0  0
   -5.2262    3.9615    2.9874 O   0  0  0  0  0  0  0  0  0  0  0  0
   -1.1638   -0.4738    1.1128 O   0  0  0  0  0  0  0  0  0  0  0  0
   -3.2188    3.1636   -0.4090 N   0  0  0  0  0  0  0  0  0  0  0  0
    0.7563    4.6090   -2.2217 N   0  0  0  0  0  0  0  0  0  0  0  0
   -5.1494    3.0145    0.9044 N   0  0  0  0  0  0  0  0  0  0  0  0
   -0.3401    4.0724   -1.4153 C   0  0  2  0  0  0  0  0  0  0  0  0
   -0.2268    2.5656   -1.1213 C   0  0  1  0  0  0  0  0  0  0  0  0
   -1.6848    4.2214   -2.1194 C   0  0  0  0  0  0  0  0  0  0  0  0
   -2.4783    2.9955   -1.6797 C   0  0  1  0  0  0  0  0  0  0  0  0
    0.0521    2.1579    0.3565 C   0  0  0  0  0  0  0  0  0  0  0  0
   -2.5974    3.6793    0.7004 C   0  0  0  0  0  0  0  0  0  0  0  0
   -4.5789    2.8712   -0.3477 C   0  0  0  0  0  0  0  0  0  0  0  0
   -3.1622    3.9307    1.8742 C   0  0  0  0  0  0  0  0  0  0  0  0
   -4.5877    3.6331    1.9888 C   0  0  0  0  0  0  0  0  0  0  0  0
   -2.3828    4.5336    2.9926 C   0  0  0  0  0  0  0  0  0  0  0  0
  1  3  1  0
  1  5  1  0
  1  6  1  0
  1  8  2  0
  2 13  1  0
  2 15  1  0
  3 16  1  0
  4 18  2  0
  7 20  2  0
  9 17  1  0
  9 18  1  0
 11 18  1  0
 11 20  1  0
 12 13  1  0
 12 14  1  0
 12 10  1  6
 13 16  1  1
 14 15  1  0
 15  9  1  1
 17 19  2  0
 19 20  1  0
 19 21  1  0
M  END
>  <DRUGBANK_ID>  (1) 
DB03233

>  <SECONDARY_ACCESSION_NUMBERS>  (1) 
EXPT02401

>  <COMMON_NAME>  (1) 
3'-deoxy-3'-aminothymidine monophosphate

>  <CAS_NUMBER>  (1) 
42214-32-4

$$$$
