TLX
     RDKit          3D

 16 17  0  0  0  0  0  0  0  0999 V2000
    0.3739    0.8833    1.8189 N   0  0  0  0  0  0  0  0  0  0  0  0
    0.5765    0.6270    0.3923 C   0  0  0  0  0  0  0  0  0  0  0  0
    0.8180   -0.7998   -0.0388 C   0  0  0  0  0  0  0  0  0  0  0  0
   -0.0993   -1.7581    0.7189 C   0  0  0  0  0  0  0  0  0  0  0  0
   -0.3969   -1.2997    2.0577 N   0  0  0  0  0  0  0  0  0  0  0  0
   -1.2512   -2.1226    2.8800 C   0  0  0  0  0  0  0  0  0  0  0  0
   -1.1964   -1.3490    4.1870 C   0  0  0  0  0  0  0  0  0  0  0  0
   -0.9758    0.1097    3.7903 C   0  0  0  0  0  0  0  0  0  0  0  0
   -0.7531    0.0862    2.2711 C   0  0  1  0  0  0  0  0  0  0  0  0
    0.2469    2.3161    2.1472 C   0  0  0  0  0  0  0  0  0  0  0  0
   -0.9069    3.1736    1.5241 C   0  0  2  0  0  0  0  0  0  0  0  0
   -0.8853    3.1726   -0.0071 C   0  0  0  0  0  0  0  0  0  0  0  0
   -2.0060    3.8193   -0.8013 C   0  0  0  0  0  0  0  0  0  0  0  0
   -2.0362    5.3137   -0.6082 C   0  0  0  0  0  0  0  0  0  0  0  0
   -1.7989    3.4416   -2.2802 C   0  0  0  0  0  0  0  0  0  0  0  0
   -0.7990    4.5491    2.0219 N   0  0  0  0  0  0  0  0  0  0  0  0
  1  2  1  0
  1  9  1  0
  1 10  1  0
  2  3  1  0
  3  4  1  0
  5  4  1  0
  5  6  1  0
  5  9  1  0
  6  7  1  0
  7  8  1  0
  9  8  1  1
 11 16  1  1
 11 12  1  0
 11 10  1  0
 12 13  1  0
 13 14  1  0
 13 15  1  0
M  END
>  <DRUGBANK_ID>  (1) 
DB08629

>  <COMMON_NAME>  (1) 
N1-(2-AMINO-4-METHYLPENTYL)OCTAHYDRO-PYRROLO[1,2-A] PYRIMIDINE

$$$$
