YZ9
     RDKit          3D

 17 18  0  0  0  0  0  0  0  0999 V2000
    0.9314   -0.0882    0.0426 C   0  0  0  0  0  0  0  0  0  0  0  0
    0.5298    1.3644   -0.1718 C   0  0  0  0  0  0  0  0  0  0  0  0
    3.1821    1.6817   -0.6828 O   0  0  0  0  0  0  0  0  0  0  0  0
    1.0214    1.8873   -1.4278 O   0  0  0  0  0  0  0  0  0  0  0  0
    5.6228    2.0635   -5.2230 C   0  0  0  0  0  0  0  0  0  0  0  0
    3.8744    2.0088   -3.4106 C   0  0  0  0  0  0  0  0  0  0  0  0
    4.4541    4.3873   -6.2463 C   0  0  0  0  0  0  0  0  0  0  0  0
    2.7734    4.3197   -4.5457 O   0  0  0  0  0  0  0  0  0  0  0  0
    4.4815    2.5900   -4.6036 C   0  0  0  0  0  0  0  0  0  0  0  0
    3.9186    3.7470   -5.1312 C   0  0  0  0  0  0  0  0  0  0  0  0
    2.1765    3.7916   -3.4004 C   0  0  0  0  0  0  0  0  0  0  0  0
    2.3673    2.0237   -1.5354 C   0  0  0  0  0  0  0  0  0  0  0  0
    6.0587    4.4933   -7.9585 O   0  0  0  0  0  0  0  0  0  0  0  0
    1.2106    4.3444   -2.8904 O   0  0  0  0  0  0  0  0  0  0  0  0
    6.1667    2.6873   -6.3595 C   0  0  0  0  0  0  0  0  0  0  0  0
    2.7991    2.5802   -2.8343 C   0  0  0  0  0  0  0  0  0  0  0  0
    5.5754    3.8460   -6.8600 C   0  0  0  0  0  0  0  0  0  0  0  0
  1  2  1  0
  2  4  1  0
  3 12  2  0
  4 12  1  0
  5  9  2  0
  5 15  1  0
  6  9  1  0
  6 16  2  0
  7 10  2  0
  7 17  1  0
  8 10  1  0
  8 11  1  0
  9 10  1  0
 11 14  2  0
 11 16  1  0
 12 16  1  0
 13 17  1  0
 15 17  2  0
M  END
>  <DRUGBANK_ID>  (1) 
DB02728

>  <SECONDARY_ACCESSION_NUMBERS>  (1) 
EXPT03279

>  <COMMON_NAME>  (1) 
7-Hydroxy-2-Oxo-Chromene-3-Carboxylic Acid Ethyl Ester

>  <UNII>  (1) 
X538NC636R

$$$$
