
     RDKit          3D

 17 19  0  0  0  0  0  0  0  0999 V2000
   -2.5573    0.7128   -0.4400 O   0  0  0  0  0  0  0  0  0  0  0  0
    2.5862    0.6689   -0.4775 O   0  0  0  0  0  0  0  0  0  0  0  0
   -0.6813   -0.4926    0.0828 N   0  0  0  0  0  0  0  0  0  0  0  0
    0.6930    1.8587   -0.0283 N   0  0  0  0  0  0  0  0  0  0  0  0
   -3.8868    3.3305    0.4323 N   0  0  0  0  0  0  0  0  0  0  0  0
   -4.3697    3.0383    2.5758 N   0  0  0  0  0  0  0  0  0  0  0  0
    0.6960   -0.5069    0.5667 C   0  0  2  0  0  0  0  0  0  0  0  0
   -0.6364    1.8773    0.5975 C   0  0  2  0  0  0  0  0  0  0  0  0
   -1.4164    0.6721    0.0103 C   0  0  0  0  0  0  0  0  0  0  0  0
    1.4304    0.6860   -0.0681 C   0  0  0  0  0  0  0  0  0  0  0  0
   -1.3656    3.2025    0.3830 C   0  0  0  0  0  0  0  0  0  0  0  0
   -2.6807    3.2213    1.0814 C   0  0  0  0  0  0  0  0  0  0  0  0
   -3.0141    3.0204    2.4032 C   0  0  0  0  0  0  0  0  0  0  0  0
   -4.8689    3.2263    1.3759 C   0  0  0  0  0  0  0  0  0  0  0  0
   -1.1249   -1.7785   -0.3944 C   0  0  0  0  0  0  0  0  0  0  0  0
   -0.0703   -2.7334    0.1424 C   0  0  0  0  0  0  0  0  0  0  0  0
    1.2050   -1.8863    0.1813 C   0  0  0  0  0  0  0  0  0  0  0  0
  1  9  2  0
  2 10  2  0
  3  9  1  0
  3 15  1  0
  3  7  1  0
  4  8  1  0
  4 10  1  0
  5 12  1  0
  5 14  1  0
  6 13  1  0
  6 14  2  0
  7 10  1  0
  7 17  1  6
  8  9  1  0
  8 11  1  6
 11 12  1  0
 12 13  2  0
 15 16  1  0
 16 17  1  0
M  END
>  <DRUGBANK_ID>  (1) 
DB02414

>  <SECONDARY_ACCESSION_NUMBERS>  (1) 
EXPT00911

>  <COMMON_NAME>  (1) 
Cyclo(his-pro)

>  <CAS_NUMBER>  (1) 
53109-32-3

>  <UNII>  (1) 
Q10817UXVT

>  <SYNONYMS>  (1) 
(3S,8aS)-3-(1H-Imidazol-4-ylmethyl)hexahydropyrrolo[1,2-a]pyrazine-1,4-dione; cyclo(histidyl-prolyl); cyclo(L-His-L-Pro); Histidyl-proline diketopiperazine; Histidyl-proline-diketopiperazine

$$$$
