
     RDKit          3D

 29 28  0  0  0  0  0  0  0  0999 V2000
    1.0649    0.0646    0.0401 O   0  0  0  0  0  0  0  0  0  0  0  0
    2.4849    0.0646    0.0401 C   0  0  0  0  0  0  0  0  0  0  0  0
    3.2449   -0.7099    1.1046 C   0  0  0  0  0  0  0  0  0  0  0  0
    4.0901   -1.7262    0.4614 N   0  0  0  0  0  0  0  0  0  0  0  0
    8.4573   -0.3198    0.8531 C   0  0  0  0  0  0  0  0  0  0  0  0
    8.1871    0.4478    2.1369 C   0  0  0  0  0  0  0  0  0  0  0  0
    9.0337    0.2687    3.2628 O   0  0  0  0  0  0  0  0  0  0  0  0
    7.2935   -1.1574    0.5289 N   0  0  0  0  0  0  0  0  0  0  0  0
    3.9728   -4.9579    0.6349 N   0  0  0  0  0  0  0  0  0  0  0  0
    3.6983   -4.1876    1.8564 C   0  0  0  0  0  0  0  0  0  0  0  0
    4.8874   -3.2941    2.1699 C   0  0  0  0  0  0  0  0  0  0  0  0
    4.7213   -1.8850    2.2263 O   0  0  0  0  0  0  0  0  0  0  0  0
    9.7186   -5.2042    2.1160 O   0  0  0  0  0  0  0  0  0  0  0  0
    8.9450   -5.9903    1.2216 C   0  0  0  0  0  0  0  0  0  0  0  0
    8.1506   -5.3196    0.1127 C   0  0  0  0  0  0  0  0  0  0  0  0
    7.1766   -4.3893    0.7015 N   0  0  0  0  0  0  0  0  0  0  0  0
    7.0690   -2.0973    1.6355 C   0  0  0  0  0  0  0  0  0  0  0  0
    7.8896   -3.3619    1.4684 C   0  0  0  0  0  0  0  0  0  0  0  0
    5.0037   -0.9816   -0.4172 C   0  0  0  0  0  0  0  0  0  0  0  0
    6.1485   -0.2890    0.2838 C   0  0  0  0  0  0  0  0  0  0  0  0
    4.1977   -4.0182   -0.4726 C   0  0  0  0  0  0  0  0  0  0  0  0
    3.3771   -2.7536   -0.3056 C   0  0  0  0  0  0  0  0  0  0  0  0
    6.2630   -5.1340    1.5800 C   0  0  0  0  0  0  0  0  0  0  0  0
    5.1182   -5.8265    0.8791 C   0  0  0  0  0  0  0  0  0  0  0  0
    8.9167   -7.2545    1.3483 O   0  0  0  0  0  0  0  0  0  0  0  0
    7.2036    1.2501    2.2026 O   0  0  0  0  0  0  0  0  0  0  0  0
    3.1204    0.7121   -0.8499 O   0  0  0  0  0  0  0  0  0  0  0  0
    6.0302   -3.8083    2.3814 O   0  0  0  0  0  0  0  0  0  0  0  0
    1.0052   -0.0974   -0.0219 Gd  0  0  0  0  0 15  0  0  0  0  0  0
  1  2  1  0
  2  3  1  0
  2 27  2  0
  3  4  1  0
  4 19  1  0
  5  6  1  0
  6  7  1  0
  6 26  2  0
  8 17  1  0
  8  5  1  0
  9 10  1  0
  9 21  1  0
 10 11  1  0
 11 12  1  0
 11 28  2  0
 13 14  1  0
 14 25  2  0
 14 15  1  0
 15 16  1  0
 16 23  1  0
 17 18  1  0
 18 16  1  0
 19 20  1  0
 20  8  1  0
 21 22  1  0
 22  4  1  0
 23 24  1  0
 24  9  1  0
M  CHG  4   1  -1  12  -1  13  -1  29   3
M  END
>  <DRUGBANK_ID>  (1) 
DB09132

>  <COMMON_NAME>  (1) 
Gadoteric acid

>  <CAS_NUMBER>  (1) 
72573-82-1

>  <UNII>  (1) 
QVF9Y6955W

>  <SYNONYMS>  (1) 
[2,2',2'',2'''-(1,4,7,10-tetraazacyclododecane-1,4,7,10-tetrayl-κ4N1,N4,N7,N10)tetraacetato(3−)]gadolinium; DOTA-Gd; Gadoterate; Gadoteric acid; Gd-DOTA

$$$$
