
     RDKit          3D

 37 41  0  0  1  0  0  0  0  0999 V2000
    3.2440   -2.2792    2.5914 C   0  0  0  0  0  0  0  0  0  0  0  0
    2.0828   -2.6732    3.4995 C   0  0  0  0  0  0  0  0  0  0  0  0
    0.7431   -2.6080    2.7588 C   0  0  0  0  0  0  0  0  0  0  0  0
    2.2322   -4.0198    4.3826 C   0  0  0  0  0  0  0  0  0  0  0  0
    2.2446   -3.9108    5.6072 O   0  0  0  0  0  0  0  0  0  0  0  0
    2.3785   -5.2934    3.8461 N   0  0  0  0  0  0  0  0  0  0  0  0
    3.2408   -5.4258    2.7734 C   0  0  0  0  0  0  0  0  0  0  0  0
    2.1075   -5.9351    1.9985 C   0  0  0  0  0  0  0  0  0  0  0  0
    1.3475   -7.2353    1.7569 C   0  0  0  0  0  0  0  0  0  0  0  0
    1.1462   -7.7777    2.9363 C   0  0  0  0  0  0  0  0  0  0  0  0
    1.7990   -6.7849    4.2255 C   0  0  0  0  0  0  0  0  0  0  0  0
    0.6086   -9.0818    2.5303 N   0  0  0  0  0  0  0  0  0  0  0  0
    0.5342   -9.3215    1.1427 C   0  0  0  0  0  0  0  0  0  0  0  0
    0.0932  -10.3205    0.1790 C   0  0  0  0  0  0  0  0  0  0  0  0
    1.3076   -8.4940    0.4385 N   0  0  0  0  0  0  0  0  0  0  0  0
    1.6788   -7.7423   -1.4851 C   0  0  2  0  0  0  0  0  0  0  0  0
    3.0428   -7.2879   -2.2099 C   0  0  0  0  0  0  0  0  0  0  0  0
    3.6399   -5.6543   -1.5866 C   0  0  2  0  0  0  0  0  0  0  0  0
    3.8610   -5.2638   -0.0642 C   0  0  0  0  0  0  0  0  0  0  0  0
    2.3968   -4.6079    0.2479 C   0  0  0  0  0  0  0  0  0  0  0  0
    1.7431   -4.4208   -0.9484 C   0  0  2  0  0  0  0  0  0  0  0  0
    1.1336   -5.7071   -1.1214 C   0  0  0  0  0  0  0  0  0  0  0  0
    2.7111   -4.5470   -1.9511 N   0  0  0  0  0  0  0  0  0  0  0  0
    1.9989   -4.8866   -3.1870 C   0  0  0  0  0  0  0  0  0  0  0  0
    1.0977   -6.2572   -3.4386 C   0  0  0  0  0  0  0  0  0  0  0  0
   -0.1325   -6.7627   -2.1939 C   0  0  2  0  0  0  0  0  0  0  0  0
    0.4847   -7.1620   -0.3952 N   0  0  0  0  0  0  0  0  0  0  0  0
    2.4928   -7.2174    0.0279 C   0  0  0  0  0  0  0  0  0  0  0  0
    3.2638   -8.4908    1.0137 C   0  0  0  0  0  0  0  0  0  0  0  0
    3.6808   -7.4606   -0.4641 O   0  0  0  0  0  0  0  0  0  0  0  0
   -0.9946   -7.6861   -2.8079 C   0  0  0  0  0  0  0  0  0  0  0  0
   -0.6424   -8.9942   -2.8128 C   0  0  0  0  0  0  0  0  0  0  0  0
   -1.4902   -9.9158   -3.2521 C   0  0  0  0  0  0  0  0  0  0  0  0
   -2.6110   -9.4205   -3.8681 C   0  0  0  0  0  0  0  0  0  0  0  0
   -2.8974   -8.0497   -3.9605 C   0  0  0  0  0  0  0  0  0  0  0  0
   -3.9774   -7.6063   -4.5874 F   0  0  0  0  0  0  0  0  0  0  0  0
   -2.0850   -7.1336   -3.4151 C   0  0  0  0  0  0  0  0  0  0  0  0
  1  2  1  0
  2  3  1  0
  2  4  1  0
  4  5  2  0
  4  6  1  0
  6  7  1  0
  6 11  1  0
  7  8  1  0
  8  9  1  0
  9 10  2  0
  9 15  1  0
 10 11  1  0
 10 12  1  0
 12 13  2  0
 13 14  1  0
 13 15  1  0
 16 15  1  1
 16 17  1  0
 16 22  1  0
 18 17  1  1
 18 19  1  0
 18 23  1  0
 19 20  1  0
 21 20  1  1
 21 22  1  0
 21 23  1  0
 23 24  1  0
 24 25  1  0
 26 31  1  0
 26 27  1  0
 26 25  1  6
 27 28  1  0
 28 29  1  0
 28 30  2  0
 31 32  2  0
 31 37  1  0
 32 33  1  0
 33 34  2  0
 34 35  1  0
 35 36  1  0
 35 37  2  0
M  END
>  <DRUGBANK_ID>  (1) 
DB14813

>  <COMMON_NAME>  (1) 
PF-232798

>  <CAS_NUMBER>  (1) 
849753-15-7

>  <UNII>  (1) 
63P7W7886U

>  <SYNONYMS>  (1) 
PF-00232798

$$$$
