1382
     RDKit          3D

 21 22  0  0  0  0  0  0  0  0999 V2000
    0.9775   -0.0013   -0.0145 S   0  0  0  0  0  0  0  0  0  0  0  0
    4.1141    5.5345    0.4455 O   0  0  0  0  0  0  0  0  0  0  0  0
    0.5797   -0.6885   -1.2447 O   0  0  0  0  0  0  0  0  0  0  0  0
    0.4733   -0.4825    1.2454 O   0  0  0  0  0  0  0  0  0  0  0  0
    1.2530    6.9370    0.8060 O   0  0  0  0  0  0  0  0  0  0  0  0
    0.3841    1.5826   -0.2004 N   0  0  0  0  0  0  0  0  0  0  0  0
    1.2714    3.2574    1.1972 N   0  0  0  0  0  0  0  0  0  0  0  0
    2.1195    2.9021   -0.9989 N   0  0  0  0  0  0  0  0  0  0  0  0
    2.7612   -0.1399    0.0933 C   0  0  0  0  0  0  0  0  0  0  0  0
    3.5480    0.9568    0.3675 C   0  0  0  0  0  0  0  0  0  0  0  0
    3.4318   -1.3537    0.0303 C   0  0  0  0  0  0  0  0  0  0  0  0
    1.2315    2.6824   -0.0181 C   0  0  0  0  0  0  0  0  0  0  0  0
    3.7649    6.7046    1.2202 C   0  0  0  0  0  0  0  0  0  0  0  0
    4.9272    1.0045    0.3006 C   0  0  0  0  0  0  0  0  0  0  0  0
    4.8364   -1.3711    0.2057 C   0  0  0  0  0  0  0  0  0  0  0  0
    3.2866    4.4434    0.4826 C   0  0  0  0  0  0  0  0  0  0  0  0
    5.5876   -0.1905    0.2601 C   0  0  0  0  0  0  0  0  0  0  0  0
    2.5322    7.5762    0.8082 C   0  0  0  0  0  0  0  0  0  0  0  0
    2.2785    4.1728    1.3999 C   0  0  0  0  0  0  0  0  0  0  0  0
    3.1698    3.7237   -0.7039 C   0  0  0  0  0  0  0  0  0  0  0  0
    1.0638    6.1470   -0.3551 C   0  0  0  0  0  0  0  0  0  0  0  0
  1  3  2  0
  1  4  2  0
  1  6  1  0
  1  9  1  0
  2 13  1  0
  2 16  1  0
  5 18  1  0
  5 21  1  0
  6 12  1  0
  7 12  2  0
  7 19  1  0
  8 12  1  0
  8 20  2  0
  9 10  2  0
  9 11  1  0
 10 14  1  0
 11 15  2  0
 13 18  1  0
 14 17  2  0
 15 17  1  0
 16 19  2  0
 16 20  1  0
M  END
>  <DRUGBANK_ID>  (1) 
DB01382

>  <COMMON_NAME>  (1) 
Glymidine

>  <CAS_NUMBER>  (1) 
339-44-6

>  <UNII>  (1) 
4C5I4BQZ8F

>  <SYNONYMS>  (1) 
Glidiazine; Glycodiazine; Glymidine; Glymidinum

$$$$
