
     RDKit          3D

 20 19  0  0  0  0  0  0  0  0999 V2000
    1.1135    0.1080    0.0493 C   0  0  0  0  0  0  0  0  0  0  0  0
    0.6639    0.4372   -1.3651 C   0  0  0  0  0  0  0  0  0  0  0  0
    1.1584   -0.6274   -2.3462 C   0  0  0  0  0  0  0  0  0  0  0  0
    0.6055   -2.0140   -1.9972 C   0  0  0  0  0  0  0  0  0  0  0  0
   -0.9272   -2.0156   -2.0136 C   0  0  0  0  0  0  0  0  0  0  0  0
   -1.4564   -1.6626   -3.4084 C   0  0  0  0  0  0  0  0  0  0  0  0
   -0.9933   -2.6927   -4.4472 C   0  0  0  0  0  0  0  0  0  0  0  0
   -1.4422   -4.1062   -4.0752 C   0  0  0  0  0  0  0  0  0  0  0  0
   -2.9312   -4.1474   -3.9902 C   0  0  0  0  0  0  0  0  0  0  0  0
   -3.6614   -4.9393   -4.7693 C   0  0  0  0  0  0  0  0  0  0  0  0
   -5.1503   -4.8550   -4.8122 C   0  0  0  0  0  0  0  0  0  0  0  0
   -5.5988   -4.5045   -6.2317 C   0  0  0  0  0  0  0  0  0  0  0  0
   -5.1394   -5.5597   -7.2470 C   0  0  0  0  0  0  0  0  0  0  0  0
   -5.6694   -6.9480   -6.8734 C   0  0  0  0  0  0  0  0  0  0  0  0
   -7.2017   -6.9616   -6.8694 C   0  0  0  0  0  0  0  0  0  0  0  0
   -7.7665   -6.6795   -8.2666 C   0  0  0  0  0  0  0  0  0  0  0  0
   -7.2818   -7.6926   -9.3052 C   0  0  0  0  0  0  0  0  0  0  0  0
   -7.6966   -9.1016   -8.9392 C   0  0  0  0  0  0  0  0  0  0  0  0
   -8.5001   -9.6978   -9.8379 O   0  0  0  0  0  0  0  0  0  0  0  0
   -7.3439   -9.6858   -7.9187 O   0  0  0  0  0  0  0  0  0  0  0  0
  1  2  1  0
  2  3  1  0
  3  4  1  0
  4  5  1  0
  5  6  1  0
  6  7  1  0
  7  8  1  0
  8  9  1  0
  9 10  2  0
 10 11  1  0
 11 12  1  0
 12 13  1  0
 13 14  1  0
 14 15  1  0
 15 16  1  0
 16 17  1  0
 17 18  1  0
 18 19  1  0
 18 20  2  0
M  END
>  <DRUGBANK_ID>  (1) 
DB04224

>  <SECONDARY_ACCESSION_NUMBERS>  (1) 
EXPT02430

>  <COMMON_NAME>  (1) 
Oleic Acid

>  <CAS_NUMBER>  (1) 
112-80-1

>  <UNII>  (1) 
4837010H8C

$$$$
