
     RDKit          3D

 21 20  0  0  0  0  0  0  0  0999 V2000
    1.0028    0.0714    0.0324 C   0  0  0  0  0  0  0  0  0  0  0  0
    0.5224   -1.2465   -0.5624 C   0  0  0  0  0  0  0  0  0  0  0  0
    1.0156   -2.4604    0.2244 C   0  0  0  0  0  0  0  0  0  0  0  0
    0.4555   -2.5849    1.6410 C   0  0  0  0  0  0  0  0  0  0  0  0
   -1.0719   -2.4410    1.6615 C   0  0  0  0  0  0  0  0  0  0  0  0
   -1.6843   -3.7177    1.1053 C   0  0  0  0  0  0  0  0  0  0  0  0
   -1.2131   -4.9422    1.8883 C   0  0  0  0  0  0  0  0  0  0  0  0
   -1.5766   -4.7996    3.3574 C   0  0  0  0  0  0  0  0  0  0  0  0
   -2.4356   -5.7643    3.8116 N   0  0  0  0  0  0  0  0  0  0  0  0
   -2.9256   -5.7107    5.1782 C   0  0  0  0  0  0  0  0  0  0  0  0
   -4.4470   -5.6999    5.1917 C   0  0  0  0  0  0  0  0  0  0  0  0
   -1.1707   -3.9045    4.0741 O   0  0  0  0  0  0  0  0  0  0  0  0
   -4.9474   -6.9052    4.6166 O   0  0  0  0  0  0  0  0  0  0  0  0
    0.5611    0.3284    1.4709 C   0  0  0  0  0  0  0  0  0  0  0  0
    1.0457    1.6237    2.0531 C   0  0  0  0  0  0  0  0  0  0  0  0
    0.4458    2.7659    1.2768 C   0  0  0  0  0  0  0  0  0  0  0  0
   -1.0884    2.6900    1.3195 C   0  0  0  0  0  0  0  0  0  0  0  0
   -1.6053    2.7492    2.7654 C   0  0  0  0  0  0  0  0  0  0  0  0
   -1.1460    4.0426    3.4459 C   0  0  0  0  0  0  0  0  0  0  0  0
   -1.6208    5.2717    2.6688 C   0  0  0  0  0  0  0  0  0  0  0  0
   -3.1391    5.3000    2.6000 C   0  0  0  0  0  0  0  0  0  0  0  0
  1  2  1  0
  1 14  1  0
  2  3  1  0
  3  4  1  0
  4  5  1  0
  5  6  1  0
  6  7  1  0
  7  8  1  0
  8  9  1  0
  8 12  2  0
  9 10  1  0
 10 11  1  0
 11 13  1  0
 14 15  1  0
 15 16  1  0
 16 17  1  0
 17 18  1  0
 18 19  1  0
 19 20  1  0
 20 21  1  0
M  END
>  <DRUGBANK_ID>  (1) 
DB14043

>  <COMMON_NAME>  (1) 
Palmidrol

>  <CAS_NUMBER>  (1) 
544-31-0

>  <UNII>  (1) 
6R8T1UDM3V

>  <SYNONYMS>  (1) 
Hydroxyethylpalmitamide; Monoethanolamine palmitic acid amide; N-(2-Hydroxyethyl)palmitamide; N-hexadecanoylethanolamine; N-palmitoylethanolamine; Palmidrol; palmidrolum; Palmitamide MEA; Palmitic acid monoethanolamide; Palmitinsaeure-beta-hydroxyethylamid; Palmitoyl ethanolamide; Palmitoyl-EA; Palmitoylethanolamide

$$$$
