239
     RDKit          3D

 24 26  0  0  0  0  0  0  0  0999 V2000
    1.0660    0.0944    0.1002 N   0  0  0  0  0  0  0  0  0  0  0  0
    0.4400    0.9266   -0.6614 C   0  0  0  0  0  0  0  0  0  0  0  0
    1.1137    1.7750   -1.4928 N   0  0  0  0  0  0  0  0  0  0  0  0
   -1.0459    0.9283   -0.6325 C   0  0  0  0  0  0  0  0  0  0  0  0
   -1.7450    1.0860   -1.8210 C   0  0  0  0  0  0  0  0  0  0  0  0
   -3.1383    1.1403   -1.7899 C   0  0  0  0  0  0  0  0  0  0  0  0
   -3.8055    1.4555   -2.9499 C   0  0  0  0  0  0  0  0  0  0  0  0
   -5.1617    1.7279   -2.8823 C   0  0  0  0  0  0  0  0  0  0  0  0
   -5.9601    1.3714   -1.7974 C   0  0  0  0  0  0  0  0  0  0  0  0
   -5.2890    1.0414   -0.6145 C   0  0  0  0  0  0  0  0  0  0  0  0
   -3.8716    0.9752   -0.5881 C   0  0  0  0  0  0  0  0  0  0  0  0
   -3.1440    0.7669    0.5897 C   0  0  0  0  0  0  0  0  0  0  0  0
   -1.7415    0.7588    0.5690 C   0  0  0  0  0  0  0  0  0  0  0  0
   -7.4742    1.3601   -1.8607 C   0  0  0  0  0  0  0  0  0  0  0  0
   -8.1106    1.2403   -0.8204 O   0  0  0  0  0  0  0  0  0  0  0  0
   -8.1792    1.5357   -3.0559 N   0  0  0  0  0  0  0  0  0  0  0  0
   -7.7206    1.4918   -4.3837 C   0  0  0  0  0  0  0  0  0  0  0  0
   -6.8021    0.5171   -4.7897 C   0  0  0  0  0  0  0  0  0  0  0  0
   -6.0716    0.6862   -5.9664 C   0  0  0  0  0  0  0  0  0  0  0  0
   -6.3752    1.7359   -6.8359 C   0  0  0  0  0  0  0  0  0  0  0  0
   -7.4280    2.6063   -6.5064 C   0  0  0  0  0  0  0  0  0  0  0  0
   -8.0704    2.5171   -5.2650 C   0  0  0  0  0  0  0  0  0  0  0  0
   -5.5874    1.9267   -8.1048 C   0  0  0  0  0  0  0  0  0  0  0  0
   -6.4405    1.7046   -9.2606 N   0  0  0  0  0  0  0  0  0  0  0  0
  1  2  2  0
  2  3  1  0
  2  4  1  0
  4  5  2  0
  4 13  1  0
  5  6  1  0
  6  7  2  0
  6 11  1  0
  7  8  1  0
  8  9  2  0
  9 10  1  0
  9 14  1  0
 10 11  2  0
 11 12  1  0
 12 13  2  0
 14 15  2  0
 14 16  1  0
 16 17  1  0
 17 18  2  0
 17 22  1  0
 18 19  1  0
 19 20  2  0
 20 21  1  0
 20 23  1  0
 21 22  2  0
 23 24  1  0
M  END
>  <DRUGBANK_ID>  (1) 
DB02398

>  <SECONDARY_ACCESSION_NUMBERS>  (1) 
EXPT00091

>  <COMMON_NAME>  (1) 
6-[N-(4-(Aminomethyl)Phenyl)Carbamyl]-2-Naphthalenecarboxamidine

$$$$
