1237
     RDKit          3D

 20 21  0  0  1  0  0  0  0  0999 V2000
   -1.7389   -0.0444    0.0025 Br  0  0  0  0  0  0  0  0  0  0  0  0
    4.8665    1.0365   -1.3389 O   0  0  0  0  0  0  0  0  0  0  0  0
    4.8416   -2.4250   -0.9384 N   0  0  0  0  0  0  0  0  0  0  0  0
    4.4136    0.5610   -0.0657 C   0  0  0  0  0  0  0  0  0  0  0  0
    2.9247    0.3075   -0.0293 C   0  0  0  0  0  0  0  0  0  0  0  0
    5.0158    1.0570    1.2552 C   0  0  0  0  0  0  0  0  0  0  0  0
    4.6656   -0.0191   -2.3260 C   0  0  0  0  0  0  0  0  0  0  0  0
    5.2635   -1.4984   -2.0634 C   0  0  0  0  0  0  0  0  0  0  0  0
    2.2933   -0.9557    0.0100 C   0  0  0  0  0  0  0  0  0  0  0  0
    2.1257    1.4491   -0.0347 C   0  0  0  0  0  0  0  0  0  0  0  0
    4.6172    0.4434    2.4808 C   0  0  0  0  0  0  0  0  0  0  0  0
    6.1115    1.8973    1.2626 C   0  0  0  0  0  0  0  0  0  0  0  0
    5.1871   -3.8147   -1.2239 C   0  0  0  0  0  0  0  0  0  0  0  0
    5.4034   -2.2355    0.4213 C   0  0  0  0  0  0  0  0  0  0  0  0
    0.9101   -1.0777    0.0072 C   0  0  0  0  0  0  0  0  0  0  0  0
    0.7490    1.3338   -0.0121 C   0  0  0  0  0  0  0  0  0  0  0  0
    5.2926    0.7130    3.6751 C   0  0  0  0  0  0  0  0  0  0  0  0
    6.7902    2.1634    2.4608 C   0  0  0  0  0  0  0  0  0  0  0  0
    0.1410    0.0811   -0.0025 C   0  0  0  0  0  0  0  0  0  0  0  0
    6.3562    1.5871    3.6632 C   0  0  0  0  0  0  0  0  0  0  0  0
  1 19  1  0
  2  4  1  0
  2  7  1  0
  3  8  1  0
  3 13  1  0
  3 14  1  0
  4  5  1  0
  4  6  1  0
  5  9  2  0
  5 10  1  0
  6 11  2  0
  6 12  1  0
  7  8  1  0
  9 15  1  0
 10 16  2  0
 11 17  1  0
 12 18  2  0
 15 19  2  0
 16 19  1  0
 17 20  2  0
 18 20  1  0
M  END
>  <DRUGBANK_ID>  (1) 
DB01237

>  <SECONDARY_ACCESSION_NUMBERS>  (1) 
APRD00710

>  <COMMON_NAME>  (1) 
Bromodiphenhydramine

>  <CAS_NUMBER>  (1) 
118-23-0

>  <UNII>  (1) 
T032BI7727

>  <SYNONYMS>  (1) 
2-(p-bromo-α-phenylbenzyloxy)-N,N-dimethylethylamine; Bromazina; Bromazine; Bromazinum; β-(p-bromobenzhydryloxy)ethyldimethylamine; β-dimethylaminoethyl p-bromobenzhydryl ether

$$$$
