
     RDKit          3D

 29 32  0  0  1  0  0  0  0  0999 V2000
    0.4205   -0.7772    1.8356 C   0  0  0  0  0  0  0  0  0  0  0  0
    0.0846   -1.3857    0.5385 C   0  0  2  0  0  0  0  0  0  0  0  0
    0.7223   -0.0511   -0.2630 C   0  0  0  0  0  0  0  0  0  0  0  0
    2.2190    0.5679    0.2916 C   0  0  0  0  0  0  0  0  0  0  0  0
    3.2925   -0.5306    0.4335 C   0  0  0  0  0  0  0  0  0  0  0  0
    3.6706   -1.3306   -0.7703 C   0  0  0  0  0  0  0  0  0  0  0  0
    4.4003   -0.3425   -1.6246 C   0  0  0  0  0  0  0  0  0  0  0  0
    4.4933   -2.5790   -0.4084 C   0  0  0  0  0  0  0  0  0  0  0  0
   -1.5461   -2.1930    0.8081 C   0  0  1  0  0  0  0  0  0  0  0  0
   -2.4135   -3.8211    1.4171 C   0  0  0  0  0  0  0  0  0  0  0  0
   -1.6012   -4.7285    2.3735 C   0  0  0  0  0  0  0  0  0  0  0  0
   -0.7117   -3.7211    1.8784 C   0  0  1  0  0  0  0  0  0  0  0  0
   -1.7337   -2.2680    2.2087 C   0  0  1  0  0  0  0  0  0  0  0  0
   -1.5578   -1.8514    3.6679 C   0  0  0  0  0  0  0  0  0  0  0  0
   -0.1932   -2.0522    4.2664 C   0  0  0  0  0  0  0  0  0  0  0  0
    0.6603   -3.3004    3.7740 C   0  0  1  0  0  0  0  0  0  0  0  0
    0.6472   -3.8334    2.3682 C   0  0  1  0  0  0  0  0  0  0  0  0
    1.3792   -5.1797    2.2434 C   0  0  0  0  0  0  0  0  0  0  0  0
    2.8248   -5.0613    2.8888 C   0  0  0  0  0  0  0  0  0  0  0  0
    3.1740   -4.0075    3.7098 C   0  0  0  0  0  0  0  0  0  0  0  0
    2.1090   -3.0989    4.0882 C   0  0  1  0  0  0  0  0  0  0  0  0
    2.7560   -2.0910    2.9552 C   0  0  0  0  0  0  0  0  0  0  0  0
    2.8740   -0.7383    3.4540 C   0  0  0  0  0  0  0  0  0  0  0  0
    3.7922   -1.1302    4.5547 C   0  0  0  0  0  0  0  0  0  0  0  0
    4.4445   -2.9306    4.3226 C   0  0  0  0  0  0  0  0  0  0  0  0
    3.8128    0.0880    5.3304 O   0  0  0  0  0  0  0  0  0  0  0  0
    2.1418   -3.1058    5.6885 C   0  0  0  0  0  0  0  0  0  0  0  0
    1.5850   -4.9155    6.7040 I   0  0  0  0  0  0  0  0  0  0  0  0
   -3.4679   -1.8308    1.8375 C   0  0  0  0  0  0  0  0  0  0  0  0
  2  3  1  0
  2  1  1  1
  3  4  1  0
  4  5  1  0
  5  6  1  0
  6  7  1  0
  6  8  1  0
  9  2  1  0
  9 10  1  1
  9 13  1  0
 10 11  1  0
 12 11  1  1
 12 13  1  0
 12 17  1  0
 13 14  1  0
 13 29  1  6
 14 15  1  0
 16 15  1  6
 16 17  1  0
 16 21  1  0
 17 18  1  1
 18 19  1  0
 19 20  2  0
 20 21  1  0
 20 25  1  0
 21 22  1  0
 21 27  1  1
 22 23  1  0
 23 24  1  0
 24 25  1  0
 24 26  1  0
 27 28  1  0
M  ISO  1  28 131
M  END
>  <DRUGBANK_ID>  (1) 
DB13797

>  <COMMON_NAME>  (1) 
Iodocholesterol (131I)

>  <CAS_NUMBER>  (1) 
42220-21-3

>  <UNII>  (1) 
C5F4248GPJ

>  <SYNONYMS>  (1) 
Iodocholesterol (131I); Iodocholesterol i-131

$$$$
