
     RDKit          3D

 13 12  0  0  0  0  0  0  0  0999 V2000
    0.9960    0.1190   -0.1675 C   0  0  0  0  0  0  0  0  0  0  0  0
    0.4846   -0.2447    1.2557 C   0  0  0  0  0  0  0  0  0  0  0  0
    0.6265    1.4947   -0.6951 C   0  0  0  0  0  0  0  0  0  0  0  0
    0.5173   -0.9196   -1.1522 C   0  0  0  0  0  0  0  0  0  0  0  0
    0.5995    2.1070    2.4994 C   0  0  0  0  0  0  0  0  0  0  0  0
    0.9885    0.6047    2.4539 C   0  0  1  0  0  0  0  0  0  0  0  0
   -0.4164    1.6000   -1.5420 O   0  0  0  0  0  0  0  0  0  0  0  0
    1.4668   -1.5528   -1.8643 O   0  0  0  0  0  0  0  0  0  0  0  0
   -0.4710    2.4095    3.2753 O   0  0  0  0  0  0  0  0  0  0  0  0
    0.5435   -0.0414    3.7163 N   0  0  0  0  0  0  0  0  0  0  0  0
    1.3003    2.4793   -0.4446 O   0  0  0  0  0  0  0  0  0  0  0  0
   -0.6743   -1.0821   -1.3942 O   0  0  0  0  0  0  0  0  0  0  0  0
    1.2438    2.9907    1.9857 O   0  0  0  0  0  0  0  0  0  0  0  0
  2  1  1  0
  3  1  1  0
  4  1  1  0
  6  2  1  0
  6  5  1  0
  6 10  1  1
  7  3  1  0
  8  4  1  0
  9  5  1  0
 11  3  2  0
 12  4  2  0
 13  5  2  0
M  END
>  <DRUGBANK_ID>  (1) 
DB03847

>  <SECONDARY_ACCESSION_NUMBERS>  (1) 
EXPT00902

>  <COMMON_NAME>  (1) 
gamma-carboxy-L-glutamic acid

>  <CAS_NUMBER>  (1) 
53861-57-7

>  <UNII>  (1) 
16FQV4RZKL

>  <SYNONYMS>  (1) 
(3S)-3-amino-1,1,3-propanetricarboxylic acid; gamma-carboxy-glutamic acid; gamma-Carboxyglutamic acid; Î³-carboxy-L-glutamic acid

$$$$
