1568
     RDKit          3D

 23 27  0  0  1  0  0  0  0  0999 V2000
   -4.1869    4.7777    2.6907 O   0  0  0  0  0  0  0  0  0  0  0  0
   -1.8077    1.3393    7.7208 O   0  0  0  0  0  0  0  0  0  0  0  0
   -1.1029    3.3749    0.8312 O   0  0  0  0  0  0  0  0  0  0  0  0
   -6.9949    5.2632    1.8746 O   0  0  0  0  0  0  0  0  0  0  0  0
   -2.1318    1.1086    6.4114 N   0  0  2  0  0  0  0  0  0  0  0  0
   -3.7770    2.9428    4.4345 C   0  0  2  0  0  0  0  0  0  0  0  0
   -1.9886    3.0967    4.5710 C   0  0  1  0  0  0  0  0  0  0  0  0
   -2.1709    1.7483    4.8748 C   0  0  2  0  0  0  0  0  0  0  0  0
   -3.1665    3.9000    3.1700 C   0  0  1  0  0  0  0  0  0  0  0  0
   -4.2905    1.2544    5.2087 C   0  0  0  0  0  0  0  0  0  0  0  0
   -4.8115    2.7366    3.3607 C   0  0  0  0  0  0  0  0  0  0  0  0
   -3.6343    0.9979    6.5855 C   0  0  0  0  0  0  0  0  0  0  0  0
   -2.9961    1.0731    3.2004 C   0  0  0  0  0  0  0  0  0  0  0  0
   -4.4014    1.8205    2.4270 C   0  0  0  0  0  0  0  0  0  0  0  0
   -1.6441    3.3297    2.1486 C   0  0  2  0  0  0  0  0  0  0  0  0
   -0.6032    2.8344    3.9469 C   0  0  0  0  0  0  0  0  0  0  0  0
   -5.4114    3.9583    2.9739 C   0  0  0  0  0  0  0  0  0  0  0  0
   -0.4196    3.6001    2.9537 C   0  0  0  0  0  0  0  0  0  0  0  0
   -0.7745    0.6850    6.0893 C   0  0  0  0  0  0  0  0  0  0  0  0
   -4.7886    2.2649    1.0563 C   0  0  0  0  0  0  0  0  0  0  0  0
   -6.1707    4.1807    1.8469 C   0  0  0  0  0  0  0  0  0  0  0  0
   -5.7496    3.3807    0.8054 C   0  0  0  0  0  0  0  0  0  0  0  0
   -7.0943    6.0117    0.6703 C   0  0  0  0  0  0  0  0  0  0  0  0
  9  1  1  6
  1 17  1  0
  4 23  1  0
  4 21  1  0
  5  8  1  0
  5 12  1  0
  5  2  1  0
  5 19  1  6
  6  7  1  0
  6  9  1  0
  6 10  1  6
  6 11  1  0
  7  8  1  0
  7 16  1  6
  8 13  1  1
  9 15  1  0
 10 12  1  0
 11 14  2  0
 11 17  1  0
 13 14  1  0
 14 20  1  0
 15 18  1  0
 15  3  1  6
 16 18  2  0
 17 21  2  0
 20 22  2  0
 21 22  1  0
M  CHG  2   2  -1   5   1
M  END
>  <DRUGBANK_ID>  (1) 
DB01568

>  <COMMON_NAME>  (1) 
Codeine-N-oxide

>  <CAS_NUMBER>  (1) 
3688-65-1

>  <UNII>  (1) 
Z32OFX7V17

$$$$
