1576
     RDKit          3D

 10 10  0  0  1  0  0  0  0  0999 V2000
    0.3185    2.1712   -1.5524 N   0  0  0  0  0  0  0  0  0  0  0  0
    0.2103    1.4518   -0.2658 C   0  0  2  0  0  0  0  0  0  0  0  0
    1.0697    0.1418   -0.1422 C   0  0  0  0  0  0  0  0  0  0  0  0
    2.5299    0.5818   -0.1329 C   0  0  0  0  0  0  0  0  0  0  0  0
   -1.2847    1.2576   -0.1434 C   0  0  0  0  0  0  0  0  0  0  0  0
    2.9942    1.1789   -1.3143 C   0  0  0  0  0  0  0  0  0  0  0  0
    3.2211    0.7895    1.0599 C   0  0  0  0  0  0  0  0  0  0  0  0
    3.8542    2.2655   -1.2233 C   0  0  0  0  0  0  0  0  0  0  0  0
    4.2288    1.7586    1.1046 C   0  0  0  0  0  0  0  0  0  0  0  0
    4.4882    2.5417   -0.0260 C   0  0  0  0  0  0  0  0  0  0  0  0
  2  5  1  6
  2  3  1  0
  2  1  1  0
  3  4  1  0
  4  6  2  0
  4  7  1  0
  6  8  1  0
  7  9  2  0
  8 10  2  0
  9 10  1  0
M  END
>  <DRUGBANK_ID>  (1) 
DB01576

>  <COMMON_NAME>  (1) 
Dextroamphetamine

>  <CAS_NUMBER>  (1) 
51-64-9

>  <UNII>  (1) 
TZ47U051FI

>  <SYNONYMS>  (1) 
(+)-(S)-amphetamine; (+)-amphetamine; (+)-α-methylphenethylamine; (+)-α-methylphenylethylamine; (S)-(+)-amphetamine; (S)-(+)-β-phenylisopropylamine; (S)-1-phenyl-2-aminopropane; (S)-1-phenyl-2-propylamine; (S)-amphetamine; (S)-α-methylbenzeneethanamine; (αS)-α-methylbenzeneethanamine; d-amphetamine; Desamfetamina; Dexamfetamina; Dexamfetamine; Dexamfetaminum; Dexamphetamine; Dexanfetamina; Dextroamphetamine

$$$$
