M04
     RDKit          3D

 25 28  0  0  0  0  0  0  0  0999 V2000
    1.2888    0.0525    0.6196 N   0  0  0  0  0  0  0  0  0  0  0  0
    0.8156    1.2466   -0.0444 C   0  0  0  0  0  0  0  0  0  0  0  0
   -0.6854    1.3117    0.2041 C   0  0  0  0  0  0  0  0  0  0  0  0
   -2.8680    0.0680    0.4241 C   0  0  0  0  0  0  0  0  0  0  0  0
   -3.6573    1.2462    0.0642 N   0  0  0  0  0  0  0  0  0  0  0  0
   -0.7208   -1.2346    0.3079 C   0  0  0  0  0  0  0  0  0  0  0  0
    0.8050   -1.2184    0.1760 C   0  0  0  0  0  0  0  0  0  0  0  0
   -0.4483   -0.1111   -2.7349 C   0  0  0  0  0  0  0  0  0  0  0  0
    0.3257   -1.2740   -2.7912 C   0  0  0  0  0  0  0  0  0  0  0  0
    1.6736   -1.1988   -3.1738 C   0  0  0  0  0  0  0  0  0  0  0  0
    2.1620   -0.0425   -3.7625 C   0  0  0  0  0  0  0  0  0  0  0  0
    3.8154    0.0477   -4.2255 Cl  0  0  0  0  0  0  0  0  0  0  0  0
    1.3131    1.0428   -3.9558 C   0  0  0  0  0  0  0  0  0  0  0  0
    0.0189    1.0216   -3.4169 C   0  0  0  0  0  0  0  0  0  0  0  0
    2.5086    0.0689    1.2435 C   0  0  0  0  0  0  0  0  0  0  0  0
    3.5749   -0.6392    0.8138 N   0  0  0  0  0  0  0  0  0  0  0  0
   -1.6640   -0.0276   -1.8242 C   0  0  0  0  0  0  0  0  0  0  0  0
    4.6451   -0.7165    1.6364 C   0  0  0  0  0  0  0  0  0  0  0  0
    4.7693   -0.2388    2.8940 N   0  0  0  0  0  0  0  0  0  0  0  0
    3.6745    0.4322    3.2677 C   0  0  0  0  0  0  0  0  0  0  0  0
    3.4356    0.9990    4.4869 N   0  0  0  0  0  0  0  0  0  0  0  0
    2.2071    1.6102    4.5055 C   0  0  0  0  0  0  0  0  0  0  0  0
    1.6257    1.4027    3.2795 C   0  0  0  0  0  0  0  0  0  0  0  0
    2.5452    0.6580    2.4988 C   0  0  0  0  0  0  0  0  0  0  0  0
   -1.4514    0.0331   -0.2528 C   0  0  0  0  0  0  0  0  0  0  0  0
  1  2  1  0
  1  7  1  0
  1 15  1  0
  2  3  1  0
  3 25  1  0
  4  5  1  0
  4 25  1  0
  6  7  1  0
  6 25  1  0
  8  9  2  0
  8 14  1  0
  8 17  1  0
  9 10  1  0
 10 11  2  0
 11 12  1  0
 11 13  1  0
 13 14  2  0
 15 16  2  0
 15 24  1  0
 16 18  1  0
 17 25  1  0
 18 19  2  0
 19 20  1  0
 20 21  1  0
 20 24  2  0
 21 22  1  0
 22 23  2  0
 23 24  1  0
M  END
>  <DRUGBANK_ID>  (1) 
DB08149

>  <COMMON_NAME>  (1) 
1-[4-(4-chlorobenzyl)-1-(7H-pyrrolo[2,3-d]pyrimidin-4-yl)piperidin-4-yl]methanamine

>  <UNII>  (1) 
WA4499B7GU

$$$$
