
     RDKit          3D

 27 30  0  0  0  0  0  0  0  0999 V2000
    0.8875    0.0277   -0.1235 N   0  0  0  0  0  0  0  0  0  0  0  0
    0.1907    0.9112    0.7108 C   0  0  0  0  0  0  0  0  0  0  0  0
   -0.8747    0.4676    1.3908 N   0  0  0  0  0  0  0  0  0  0  0  0
   -1.6526    1.3858    2.0015 C   0  0  0  0  0  0  0  0  0  0  0  0
   -1.3868    2.7016    2.0418 N   0  0  0  0  0  0  0  0  0  0  0  0
   -0.2492    3.1219    1.4619 C   0  0  0  0  0  0  0  0  0  0  0  0
    0.5639    2.2376    0.7627 C   0  0  0  0  0  0  0  0  0  0  0  0
    0.2028    4.4000    1.7233 N   0  0  0  0  0  0  0  0  0  0  0  0
    0.3606    5.4207    0.6748 C   0  0  0  0  0  0  0  0  0  0  0  0
    1.4337    6.4233    1.1641 C   0  0  0  0  0  0  0  0  0  0  0  0
    1.1014    6.9855    2.4511 O   0  0  0  0  0  0  0  0  0  0  0  0
    0.9157    5.9428    3.4275 C   0  0  0  0  0  0  0  0  0  0  0  0
   -0.2083    4.9857    3.0060 C   0  0  0  0  0  0  0  0  0  0  0  0
   -2.8249    0.9063    2.6770 N   0  0  0  0  0  0  0  0  0  0  0  0
   -4.0709    1.4126    2.4322 N   0  0  0  0  0  0  0  0  0  0  0  0
   -4.8974    0.6439    3.1541 C   0  0  0  0  0  0  0  0  0  0  0  0
   -4.1916   -0.2759    3.9578 C   0  0  0  0  0  0  0  0  0  0  0  0
   -2.8757   -0.1169    3.6049 C   0  0  0  0  0  0  0  0  0  0  0  0
   -6.3689    0.8219    3.0698 C   0  0  0  0  0  0  0  0  0  0  0  0
    0.1219   -1.0435   -0.7669 C   0  0  0  0  0  0  0  0  0  0  0  0
   -0.2800   -2.1866    0.1781 C   0  0  0  0  0  0  0  0  0  0  0  0
    0.8834   -3.0962    0.5519 C   0  0  0  0  0  0  0  0  0  0  0  0
    1.5459   -3.6536   -0.6905 C   0  0  0  0  0  0  0  0  0  0  0  0
    2.0294   -2.5443   -1.6063 C   0  0  0  0  0  0  0  0  0  0  0  0
    0.8805   -1.6097   -1.9859 C   0  0  0  0  0  0  0  0  0  0  0  0
    2.5860   -4.4464   -0.3403 F   0  0  0  0  0  0  0  0  0  0  0  0
    0.6652   -4.4416   -1.3592 F   0  0  0  0  0  0  0  0  0  0  0  0
  1  2  1  0
  1 20  1  0
  2  3  2  0
  2  7  1  0
  3  4  1  0
  4  5  2  0
  4 14  1  0
  6  5  1  0
  6  8  1  0
  7  6  2  0
  8  9  1  0
  8 13  1  0
  9 10  1  0
 10 11  1  0
 12 11  1  0
 13 12  1  0
 14 15  1  0
 14 18  1  0
 15 16  2  0
 16 17  1  0
 16 19  1  0
 18 17  2  0
 20 21  1  0
 20 25  1  0
 21 22  1  0
 22 23  1  0
 23 26  1  0
 23 27  1  0
 24 23  1  0
 25 24  1  0
M  END
>  <DRUGBANK_ID>  (1) 
DB16733

>  <COMMON_NAME>  (1) 
Rimtuzalcap

>  <CAS_NUMBER>  (1) 
2167246-24-2

>  <UNII>  (1) 
USO2D5J77R

>  <SYNONYMS>  (1) 
N-(4,4-difluorocyclohexyl)-2-(3-methyl-1H-pyrazol-1-yl)-6-morpholinopyrimidin-4-amine; Rimtuzalcap

$$$$
