T10
     RDKit          3D

 34 36  0  0  0  0  0  0  0  0999 V2000
    4.1876    0.2750   -1.8931 O   0  0  0  0  0  0  0  0  0  0  0  0
    3.3123    0.3989   -0.7898 C   0  0  0  0  0  0  0  0  0  0  0  0
    1.8687    0.6176   -1.2307 C   0  0  0  0  0  0  0  0  0  0  0  0
    0.9776   -0.1270   -0.8103 O   0  0  0  0  0  0  0  0  0  0  0  0
    1.5254    1.8341   -2.1129 C   0  0  2  0  0  0  0  0  0  0  0  0
    0.4624    1.4608   -3.1574 C   0  0  0  0  0  0  0  0  0  0  0  0
    0.0627    2.6602   -3.9857 C   0  0  0  0  0  0  0  0  0  0  0  0
   -0.6512    3.7200   -3.4119 C   0  0  0  0  0  0  0  0  0  0  0  0
   -0.7636    4.9396   -4.0868 C   0  0  0  0  0  0  0  0  0  0  0  0
   -0.1779    5.1011   -5.3377 C   0  0  0  0  0  0  0  0  0  0  0  0
    0.4682    4.0267   -5.9420 C   0  0  0  0  0  0  0  0  0  0  0  0
    0.5470    2.7969   -5.2894 C   0  0  0  0  0  0  0  0  0  0  0  0
    2.6962    2.5198   -2.6770 N   0  0  0  0  0  0  0  0  0  0  0  0
    3.2536    3.7375   -2.3942 C   0  0  0  0  0  0  0  0  0  0  0  0
    4.2595    4.0636   -3.0320 O   0  0  0  0  0  0  0  0  0  0  0  0
    2.6290    4.7083   -1.3726 C   0  0  2  0  0  0  0  0  0  0  0  0
    2.1094    3.9914   -0.1206 C   0  0  0  0  0  0  0  0  0  0  0  0
    2.5517    4.6075    1.1538 C   0  0  0  0  0  0  0  0  0  0  0  0
    3.2444    3.8144    2.0703 C   0  0  0  0  0  0  0  0  0  0  0  0
    3.7819    4.3997    3.1995 C   0  0  0  0  0  0  0  0  0  0  0  0
    3.6352    5.7717    3.3979 C   0  0  0  0  0  0  0  0  0  0  0  0
    2.9323    6.5562    2.4851 C   0  0  0  0  0  0  0  0  0  0  0  0
    2.3287    5.9597    1.3964 C   0  0  0  0  0  0  0  0  0  0  0  0
    1.5526    5.4728   -1.9613 N   0  0  0  0  0  0  0  0  0  0  0  0
    1.3271    6.7990   -1.8537 C   0  0  0  0  0  0  0  0  0  0  0  0
    0.1985    7.2579   -2.0313 O   0  0  0  0  0  0  0  0  0  0  0  0
    2.4481    7.5104   -1.6251 O   0  0  0  0  0  0  0  0  0  0  0  0
    2.3412    8.9346   -1.7691 C   0  0  0  0  0  0  0  0  0  0  0  0
    2.3329    9.3876   -3.2179 C   0  0  0  0  0  0  0  0  0  0  0  0
    1.6127    8.6870   -4.1996 C   0  0  0  0  0  0  0  0  0  0  0  0
    1.4592    9.1569   -5.4943 C   0  0  0  0  0  0  0  0  0  0  0  0
    2.0559   10.3492   -5.8541 C   0  0  0  0  0  0  0  0  0  0  0  0
    2.7883   11.0683   -4.9082 C   0  0  0  0  0  0  0  0  0  0  0  0
    2.9512   10.5818   -3.6038 C   0  0  0  0  0  0  0  0  0  0  0  0
  1  2  1  0
  2  3  1  0
  3  4  2  0
  5 13  1  0
  5  6  1  6
  5  3  1  0
  6  7  1  0
  7  8  2  0
  7 12  1  0
  8  9  1  0
  9 10  2  0
 10 11  1  0
 11 12  2  0
 13 14  1  0
 14 15  2  0
 16 24  1  0
 16 17  1  1
 16 14  1  0
 17 18  1  0
 18 19  2  0
 18 23  1  0
 19 20  1  0
 20 21  2  0
 21 22  1  0
 22 23  2  0
 24 25  1  0
 25 26  2  0
 25 27  1  0
 27 28  1  0
 28 29  1  0
 29 30  2  0
 29 34  1  0
 30 31  1  0
 31 32  2  0
 32 33  1  0
 33 34  2  0
M  END
>  <DRUGBANK_ID>  (1) 
DB01871

>  <SECONDARY_ACCESSION_NUMBERS>  (1) 
EXPT02989

>  <COMMON_NAME>  (1) 
[1-(1-Benzyl-3-Hydroxy-2-Oxo-Propylcarbamoyl)-2-Phenyl-Ethyl]-Carbamic Acid Benzyl Ester

$$$$
