
     RDKit          3D

 35 38  0  0  0  0  0  0  0  0999 V2000
    5.4961    0.4029    1.7200 C   0  0  1  0  0  0  0  0  0  0  0  0
    5.9662   -1.5413    3.8417 C   0  0  0  0  0  0  0  0  0  0  0  0
    6.9397    1.5738   -1.3186 C   0  0  0  0  0  0  0  0  0  0  0  0
    5.3068   -0.3928    3.3100 C   0  0  0  0  0  0  0  0  0  0  0  0
    6.1384    1.8708    0.4412 C   0  0  0  0  0  0  0  0  0  0  0  0
    5.6817   -2.3053    5.1469 C   0  0  0  0  0  0  0  0  0  0  0  0
    6.6525   -0.5569    1.5766 C   0  0  2  0  0  0  0  0  0  0  0  0
    7.4256   -4.2174    4.7337 C   0  0  0  0  0  0  0  0  0  0  0  0
    6.5578   -3.4993    5.5950 C   0  0  0  0  0  0  0  0  0  0  0  0
    6.1103    0.8534   -0.5163 C   0  0  0  0  0  0  0  0  0  0  0  0
    7.4534   -3.7882    3.3011 C   0  0  1  0  0  0  0  0  0  0  0  0
    7.1091   -2.2648    3.1573 C   0  0  1  0  0  0  0  0  0  0  0  0
    6.4250   -0.6015   -0.2087 C   0  0  1  0  0  0  0  0  0  0  0  0
    6.7927   -2.0476    1.7385 C   0  0  0  0  0  0  0  0  0  0  0  0
    8.5275    1.3543   -2.0970 C   0  0  0  0  0  0  0  0  0  0  0  0
    8.1965   -5.3170    5.2433 C   0  0  0  0  0  0  0  0  0  0  0  0
    6.5138   -3.9246    6.9391 C   0  0  0  0  0  0  0  0  0  0  0  0
    5.5564    2.9679    0.5354 O   0  0  0  0  0  0  0  0  0  0  0  0
    4.7916   -1.9539    5.9266 O   0  0  0  0  0  0  0  0  0  0  0  0
    7.9733   -1.3030   -0.9204 N   0  0  0  0  0  0  0  0  0  0  0  0
    9.2473    0.1553   -2.2160 N   0  0  0  0  0  0  0  0  0  0  0  0
    4.1767   -0.0793    1.2332 O   0  0  0  0  0  0  0  0  0  0  0  0
    8.9564    2.3151   -2.7765 O   0  0  0  0  0  0  0  0  0  0  0  0
    4.1075   -0.0604    3.9586 O   0  0  0  0  0  0  0  0  0  0  0  0
    6.4043   -0.5058   -0.2290 O   0  0  0  0  0  0  0  0  0  0  0  0
    8.1621   -5.6525    6.5835 C   0  0  0  0  0  0  0  0  0  0  0  0
    7.3114   -4.9696    7.4251 C   0  0  0  0  0  0  0  0  0  0  0  0
   10.3334   -0.7850   -2.6704 C   0  0  0  0  0  0  0  0  0  0  0  0
    9.2097   -6.4203    4.3594 Cl  0  0  0  0  0  0  0  0  0  0  0  0
    5.7105   -3.3479    7.8855 O   0  0  0  0  0  0  0  0  0  0  0  0
   10.8593   -1.5250   -1.5464 O   0  0  0  0  0  0  0  0  0  0  0  0
    7.2389   -1.2122   -2.5157 C   0  0  0  0  0  0  0  0  0  0  0  0
    8.9153   -0.2805    0.0837 C   0  0  0  0  0  0  0  0  0  0  0  0
    8.8615   -3.9618    2.6833 C   0  0  0  0  0  0  0  0  0  0  0  0
    6.5180   -4.6006    2.5846 O   0  0  0  0  0  0  0  0  0  0  0  0
  1 22  1  6
  4  1  1  0
  4  2  2  0
  5  1  1  0
  5  3  1  0
  6  2  1  0
  7  1  1  0
  9  6  1  0
  9  8  2  0
 10  3  2  0
 11  8  1  0
 11 34  1  6
 11 35  1  0
 12  2  1  0
 12 11  1  0
 13  7  1  0
 13 10  1  0
 13 20  1  6
  7 14  1  1
 12 14  1  6
 15  3  1  0
 16  8  1  0
 17  9  1  0
 18  5  2  0
 19  6  2  0
 21 15  1  0
 23 15  2  0
 24  4  1  0
 25 10  1  0
 26 16  2  0
 27 17  2  0
 27 26  1  0
 28 21  1  0
 29 16  1  0
 30 17  1  0
 31 28  1  0
 32 20  1  0
 33 20  1  0
M  END
>  <DRUGBANK_ID>  (1) 
DB00453

>  <SECONDARY_ACCESSION_NUMBERS>  (1) 
APRD00343

>  <COMMON_NAME>  (1) 
Clomocycline

>  <CAS_NUMBER>  (1) 
1181-54-0

>  <UNII>  (1) 
YP0241BU76

>  <SYNONYMS>  (1) 
Chlormethylenecycline; Clomociclina; Clomocyclina; Clomocycline; Clomocyclinum

$$$$
