A49
     RDKit          3D

 32 35  0  0  0  0  0  0  0  0999 V2000
   13.4119    7.6005   13.1597 O   0  0  0  0  0  0  0  0  0  0  0  0
   13.3978    8.7950   13.3471 C   0  0  0  0  0  0  0  0  0  0  0  0
   12.3477    9.4142   14.0060 N   0  0  0  0  0  0  0  0  0  0  0  0
   14.4056    9.7272   12.6983 C   0  0  0  0  0  0  0  0  0  0  0  0
   15.5696    9.2032   11.8241 C   0  0  0  0  0  0  0  0  0  0  0  0
   15.8124    9.4736   13.2650 C   0  0  0  0  0  0  0  0  0  0  0  0
   13.8360   11.0763   12.2438 C   0  0  0  0  0  0  0  0  0  0  0  0
   12.7842   10.9365   11.1765 N   0  0  0  0  0  0  0  0  0  0  0  0
   13.4336   10.5946    9.9109 C   0  0  0  0  0  0  0  0  0  0  0  0
   12.4280   10.4605    8.7815 C   0  0  0  0  0  0  0  0  0  0  0  0
   11.7156    9.9513   11.4336 C   0  0  0  0  0  0  0  0  0  0  0  0
   10.6697    9.6738   10.4030 C   0  0  0  0  0  0  0  0  0  0  0  0
   11.3401    9.4113    9.0709 C   0  0  0  0  0  0  0  0  0  0  0  0
   10.3124    9.3818    8.0401 N   0  0  0  0  0  0  0  0  0  0  0  0
   10.1025    8.2003    7.2342 C   0  0  0  0  0  0  0  0  0  0  0  0
   10.9185    6.9600    7.0606 C   0  0  0  0  0  0  0  0  0  0  0  0
    9.6601    6.8947    7.8728 C   0  0  0  0  0  0  0  0  0  0  0  0
    9.5529   10.5663    7.8983 C   0  0  0  0  0  0  0  0  0  0  0  0
    9.7297   11.6096    8.5288 O   0  0  0  0  0  0  0  0  0  0  0  0
    8.4437   10.6195    6.9499 C   0  0  0  0  0  0  0  0  0  0  0  0
    7.5107    9.5926    6.8878 C   0  0  0  0  0  0  0  0  0  0  0  0
    6.4441    9.7002    6.0173 C   0  0  0  0  0  0  0  0  0  0  0  0
    8.2711   11.7925    6.2133 C   0  0  0  0  0  0  0  0  0  0  0  0
    7.1558   11.9261    5.3986 C   0  0  0  0  0  0  0  0  0  0  0  0
    6.2733   10.8476    5.2234 C   0  0  0  0  0  0  0  0  0  0  0  0
    5.1275   10.9311    4.2194 C   0  0  2  0  0  0  0  0  0  0  0  0
    4.8983    9.5785    3.5050 C   0  0  0  0  0  0  0  0  0  0  0  0
    5.4948   11.8655    3.1734 O   0  0  0  0  0  0  0  0  0  0  0  0
    3.8285   11.3858    4.9345 C   0  0  0  0  0  0  0  0  0  0  0  0
    3.4536   10.4953    5.8869 F   0  0  0  0  0  0  0  0  0  0  0  0
    3.9614   12.5914    5.5340 F   0  0  0  0  0  0  0  0  0  0  0  0
    2.7976   11.4807    4.0593 F   0  0  0  0  0  0  0  0  0  0  0  0
  1  2  2  0
  2  4  1  0
  3  2  1  0
  4  5  1  0
  6  4  1  0
  6  5  1  0
  7  4  1  0
  7  8  1  0
  8  9  1  0
  9 10  1  0
 11  8  1  0
 11 12  1  0
 12 13  1  0
 13 10  1  0
 13 14  1  0
 14 15  1  0
 14 18  1  0
 15 17  1  0
 16 15  1  0
 16 17  1  0
 18 19  2  0
 20 18  1  0
 20 21  2  0
 22 21  1  0
 23 20  1  0
 24 23  2  0
 24 25  1  0
 25 22  2  0
 26 28  1  0
 26 27  1  6
 26 25  1  0
 29 26  1  0
 29 32  1  0
 30 29  1  0
 31 29  1  0
M  END
>  <DRUGBANK_ID>  (1) 
DB07316

>  <COMMON_NAME>  (1) 
N-{1-[(1-carbamoylcyclopropyl)methyl]piperidin-4-yl}-N-cyclopropyl-4-[(1S)-2,2,2-trifluoro-1-hydroxy-1-methylethyl]benzamide

$$$$
