27U
     RDKit          3D

 28 30  0  0  0  0  0  0  0  0999 V2000
    0.8887   -0.0491    0.0913 C   0  0  0  0  0  0  0  0  0  0  0  0
    0.6060   -0.9007   -1.1369 C   0  0  0  0  0  0  0  0  0  0  0  0
    1.1797   -2.3117   -1.2429 C   0  0  0  0  0  0  0  0  0  0  0  0
    0.4251   -3.2392   -1.5584 O   0  0  0  0  0  0  0  0  0  0  0  0
    2.5227   -2.5458   -1.0751 N   0  0  0  0  0  0  0  0  0  0  0  0
    3.5188   -1.8558   -0.2726 C   0  0  0  0  0  0  0  0  0  0  0  0
    4.7358   -1.9148   -1.1562 C   0  0  0  0  0  0  0  0  0  0  0  0
    4.6670   -3.3350   -1.7029 C   0  0  0  0  0  0  0  0  0  0  0  0
    3.1605   -3.6788   -1.7556 C   0  0  1  0  0  0  0  0  0  0  0  0
    2.8836   -5.0380   -1.0707 C   0  0  0  0  0  0  0  0  0  0  0  0
    1.9386   -5.8179   -1.6981 N   0  0  0  0  0  0  0  0  0  0  0  0
    1.4391   -7.0454   -1.1161 C   0  0  0  0  0  0  0  0  0  0  0  0
   -0.0363   -6.9462   -0.8241 C   0  0  0  0  0  0  0  0  0  0  0  0
   -0.4961   -6.5041    0.4211 C   0  0  0  0  0  0  0  0  0  0  0  0
   -1.8687   -6.3756    0.6686 C   0  0  0  0  0  0  0  0  0  0  0  0
   -2.8084   -6.6669   -0.3309 C   0  0  0  0  0  0  0  0  0  0  0  0
   -2.3396   -7.0473   -1.5945 C   0  0  0  0  0  0  0  0  0  0  0  0
   -0.9726   -7.2303   -1.8235 C   0  0  0  0  0  0  0  0  0  0  0  0
   -4.2807   -6.6289   -0.0309 C   0  0  0  0  0  0  0  0  0  0  0  0
   -5.2027   -6.9286   -0.8948 N   0  0  0  0  0  0  0  0  0  0  0  0
   -4.7470   -6.3001    1.2006 N   0  0  0  0  0  0  0  0  0  0  0  0
    3.4411   -5.3817   -0.0199 O   0  0  0  0  0  0  0  0  0  0  0  0
    0.5171   -0.6750    1.4146 C   0  0  0  0  0  0  0  0  0  0  0  0
    0.5857   -2.0585    1.6447 C   0  0  0  0  0  0  0  0  0  0  0  0
    0.3662   -2.6239    2.8892 C   0  0  0  0  0  0  0  0  0  0  0  0
    0.0987   -1.7990    3.9616 C   0  0  0  0  0  0  0  0  0  0  0  0
    0.0385   -0.4173    3.7728 C   0  0  0  0  0  0  0  0  0  0  0  0
    0.2057    0.1430    2.5020 C   0  0  0  0  0  0  0  0  0  0  0  0
  1  2  1  0
  1 23  1  0
  2  3  1  0
  3  4  2  0
  3  5  1  0
  5  6  1  0
  5  9  1  0
  6  7  1  0
  7  8  1  0
  8  9  1  0
  9 10  1  1
 10 11  1  0
 10 22  2  0
 11 12  1  0
 12 13  1  0
 13 14  2  0
 13 18  1  0
 14 15  1  0
 15 16  2  0
 16 17  1  0
 16 19  1  0
 17 18  2  0
 19 20  2  0
 19 21  1  0
 23 24  2  0
 23 28  1  0
 24 25  1  0
 25 26  2  0
 26 27  1  0
 27 28  2  0
M  END
>  <DRUGBANK_ID>  (1) 
DB06942

>  <COMMON_NAME>  (1) 
N-(4-carbamimidoylbenzyl)-1-(3-phenylpropanoyl)-L-prolinamide

$$$$
