
     RDKit          3D

 13 13  0  0  0  0  0  0  0  0999 V2000
    0.7467   -0.0386    0.0537 N   0  0  0  0  0  0  0  0  0  0  0  0
    0.3191   -0.3470   -1.1857 C   0  0  0  0  0  0  0  0  0  0  0  0
   -0.9629   -0.3778   -1.3830 N   0  0  0  0  0  0  0  0  0  0  0  0
    1.1502   -0.6745   -2.2199 N   0  0  0  0  0  0  0  0  0  0  0  0
    2.5016   -0.7266   -2.4547 N   0  0  0  0  0  0  0  0  0  0  0  0
    3.3082   -0.4880   -1.4957 C   0  0  0  0  0  0  0  0  0  0  0  0
    4.7641   -0.4673   -1.5551 C   0  0  0  0  0  0  0  0  0  0  0  0
    5.4112   -0.9360   -0.3967 C   0  0  0  0  0  0  0  0  0  0  0  0
    6.7950   -0.8871   -0.3124 C   0  0  0  0  0  0  0  0  0  0  0  0
    7.5202   -0.3555   -1.3756 C   0  0  0  0  0  0  0  0  0  0  0  0
    6.8644    0.1556   -2.5030 C   0  0  0  0  0  0  0  0  0  0  0  0
    5.4753    0.1121   -2.5972 C   0  0  0  0  0  0  0  0  0  0  0  0
    4.7234    0.8884   -3.9400 Cl  0  0  0  0  0  0  0  0  0  0  0  0
  1  2  1  0
  2  3  2  0
  2  4  1  0
  4  5  1  0
  5  6  2  0
  6  7  1  0
  7  8  2  0
  7 12  1  0
  8  9  1  0
  9 10  2  0
 10 11  1  0
 11 12  2  0
 12 13  1  0
M  END
>  <DRUGBANK_ID>  (1) 
DB16932

>  <COMMON_NAME>  (1) 
Icerguastat

>  <CAS_NUMBER>  (1) 
951441-04-6

>  <UNII>  (1) 
9M998304JB

>  <SYNONYMS>  (1) 
(2e)-2-((2-chlorophenyl)methylene)hydrazinecarboximidamide; 2-((2-chlorophenyl)methylene)hydrazinecarboximidamide; Guanidine, ((o-chlorobenzylidene)amino)-; Hydrazinecarboximidamide, 2-((2-chlorophenyl)methylene)-; Sephin 1; Sephin-1; Sephin1

$$$$
