
     RDKit          3D

 16 17  0  0  0  0  0  0  0  0999 V2000
    2.5659    0.2941   -0.0102 Cl  0  0  0  0  0  0  0  0  0  0  0  0
    0.8448    0.2869   -0.0123 C   0  0  0  0  0  0  0  0  0  0  0  0
    0.0902    1.3962   -0.0137 C   0  0  0  0  0  0  0  0  0  0  0  0
   -1.2869    1.2652    0.0438 N   0  0  0  0  0  0  0  0  0  0  0  0
   -1.9759    0.0927    0.0250 C   0  0  0  0  0  0  0  0  0  0  0  0
   -3.2028    0.0351    0.0402 O   0  0  0  0  0  0  0  0  0  0  0  0
   -1.2054   -1.0286   -0.0135 N   0  0  0  0  0  0  0  0  0  0  0  0
    0.1645   -1.0436   -0.0115 C   0  0  0  0  0  0  0  0  0  0  0  0
    0.7823   -2.1017   -0.0116 O   0  0  0  0  0  0  0  0  0  0  0  0
    0.6357    2.8192   -0.0612 C   0  0  0  0  0  0  0  0  0  0  0  0
    0.1591    3.5010   -1.2515 N   0  0  0  0  0  0  0  0  0  0  0  0
   -1.1373    3.8695   -1.4790 C   0  0  0  0  0  0  0  0  0  0  0  0
   -2.1568    3.5471   -0.7610 N   0  0  0  0  0  0  0  0  0  0  0  0
   -1.2297    4.7336   -2.7034 C   0  0  0  0  0  0  0  0  0  0  0  0
    0.1403    4.5012   -3.3446 C   0  0  0  0  0  0  0  0  0  0  0  0
    1.0691    4.1664   -2.1696 C   0  0  0  0  0  0  0  0  0  0  0  0
  1  2  1  0
  2  3  2  0
  2  8  1  0
  3  4  1  0
  3 10  1  0
  4  5  1  0
  5  6  2  0
  5  7  1  0
  7  8  1  0
  8  9  2  0
 10 11  1  0
 11 12  1  0
 11 16  1  0
 12 13  2  0
 12 14  1  0
 14 15  1  0
 15 16  1  0
M  END
>  <DRUGBANK_ID>  (1) 
DB09343

>  <COMMON_NAME>  (1) 
Tipiracil

>  <CAS_NUMBER>  (1) 
183204-74-2

>  <UNII>  (1) 
NGO10K751P

>  <SYNONYMS>  (1) 
5-chloro-6-(2-iminopyrrolidin-1-yl)methyl-2,4(1H,3H)-pyrimidinedione; 5-chloro-6-[(2-iminopyrrolidin-1-yl)methyl]-1H-pyrimidine-2,4-dione; Tipiracil; Tipiracilo

$$$$
