
     RDKit          3D

 19 19  0  0  0  0  0  0  0  0999 V2000
    1.0892    0.0452   -0.0253 C   0  0  0  0  0  0  0  0  0  0  0  0
    0.6306   -0.1170   -1.4661 C   0  0  0  0  0  0  0  0  0  0  0  0
    1.1268   -1.4411   -2.0539 C   0  0  0  0  0  0  0  0  0  0  0  0
    0.5988   -2.6610   -1.2781 C   0  0  0  0  0  0  0  0  0  0  0  0
   -0.9504   -2.7626   -1.2960 C   0  0  0  0  0  0  0  0  0  0  0  0
   -1.4586   -2.8110   -2.7551 C   0  0  0  0  0  0  0  0  0  0  0  0
   -0.8663   -3.9687   -3.5620 C   0  0  0  0  0  0  0  0  0  0  0  0
   -1.5490   -3.8615   -0.3771 C   0  0  0  0  0  0  0  0  0  0  0  0
   -2.1105   -5.1022   -1.0869 C   0  0  0  0  0  0  0  0  0  0  0  0
   -3.1011   -5.0851   -1.8101 O   0  0  0  0  0  0  0  0  0  0  0  0
   -1.2720   -6.1674   -0.8306 N   0  0  0  0  0  0  0  0  0  0  0  0
   -0.4011   -5.8179    0.1586 C   0  0  0  0  0  0  0  0  0  0  0  0
    0.4163   -6.4930    0.7664 O   0  0  0  0  0  0  0  0  0  0  0  0
   -0.5764   -4.4943    0.4652 N   0  0  0  0  0  0  0  0  0  0  0  0
   -1.3766   -7.6189   -1.6989 S   0  0  0  0  0  0  0  0  0  0  0  0
   -0.2433   -8.8111   -0.9175 C   0  0  0  0  0  0  0  0  0  0  0  0
    1.4736   -8.3679   -1.1174 Cl  0  0  0  0  0  0  0  0  0  0  0  0
   -0.7234   -9.1745    0.7596 Cl  0  0  0  0  0  0  0  0  0  0  0  0
   -0.4216  -10.3831   -1.8202 Cl  0  0  0  0  0  0  0  0  0  0  0  0
  1  2  1  0
  2  3  1  0
  3  4  1  0
  4  5  1  0
  5  6  1  0
  5  8  1  0
  6  7  1  0
  8  9  1  0
  8 14  1  0
  9 10  2  0
  9 11  1  0
 11 12  1  0
 11 15  1  0
 12 13  2  0
 12 14  1  0
 15 16  1  0
 16 17  1  0
 16 18  1  0
 16 19  1  0
M  END
>  <DRUGBANK_ID>  (1) 
DB13516

>  <COMMON_NAME>  (1) 
Clodantoin

>  <CAS_NUMBER>  (1) 
5588-20-5

>  <UNII>  (1) 
W14Z7581PA

>  <SYNONYMS>  (1) 
Chlordantoin; Clodantoin

$$$$
