
     RDKit          3D

 17 17  0  0  0  0  0  0  0  0999 V2000
    0.9790    0.1304    0.0722 C   0  0  0  0  0  0  0  0  0  0  0  0
    0.4465    0.6800   -1.2296 C   0  0  0  0  0  0  0  0  0  0  0  0
    0.8629   -0.2036   -2.3837 C   0  0  0  0  0  0  0  0  0  0  0  0
    0.4014   -1.6661   -2.3991 C   0  0  0  0  0  0  0  0  0  0  0  0
   -1.1282   -1.7042   -2.2987 C   0  0  0  0  0  0  0  0  0  0  0  0
    0.9766   -2.4969   -3.6284 C   0  0  0  0  0  0  0  0  0  0  0  0
    2.1499   -1.8068   -4.4199 C   0  0  0  0  0  0  0  0  0  0  0  0
    1.8201   -0.4856   -5.0962 C   0  0  0  0  0  0  0  0  0  0  0  0
   -0.1348   -2.8101   -4.6301 C   0  0  0  0  0  0  0  0  0  0  0  0
   -0.6960   -1.9590   -5.3212 O   0  0  0  0  0  0  0  0  0  0  0  0
   -0.5948   -4.0851   -4.7113 N   0  0  0  0  0  0  0  0  0  0  0  0
   -0.1057   -5.1720   -4.0678 C   0  0  0  0  0  0  0  0  0  0  0  0
   -0.5575   -6.2889   -4.2647 O   0  0  0  0  0  0  0  0  0  0  0  0
    0.9282   -4.9528   -3.2169 N   0  0  0  0  0  0  0  0  0  0  0  0
    1.5722   -3.7689   -3.0069 C   0  0  0  0  0  0  0  0  0  0  0  0
    2.5687   -3.7548   -2.2814 O   0  0  0  0  0  0  0  0  0  0  0  0
    2.3731    0.6973   -4.7854 C   0  0  0  0  0  0  0  0  0  0  0  0
  1  2  1  0
  2  3  1  0
  3  4  1  0
  4  5  1  0
  4  6  1  0
  6  7  1  0
  6  9  1  0
  6 15  1  0
  7  8  1  0
  9 10  2  0
  9 11  1  0
 11 12  1  0
 12 13  2  0
 12 14  1  0
 14 15  1  0
 15 16  2  0
 17  8  2  0
M  END
>  <DRUGBANK_ID>  (1) 
DB00418

>  <SECONDARY_ACCESSION_NUMBERS>  (1) 
APRD00497

>  <COMMON_NAME>  (1) 
Secobarbital

>  <CAS_NUMBER>  (1) 
76-73-3

>  <UNII>  (1) 
1P7H87IN75

>  <SYNONYMS>  (1) 
(Â±)-secobarbital; 5-(1-methylbutyl)-5-(2-propenyl)-2,4,6(1H,3H,5H)-pyrimidinetrione; 5-allyl-5-(1-methylbutyl)-2,4,6(1H,3H,5H)-pyrimidinetrione; 5-allyl-5-(1-methylbutyl)barbituric acid; 5-allyl-5-(1-methylbutyl)pyrimidine-2,4,6(1H,3H,5H)-trione; Quinalbarbitone; Secobarbital; Secobarbitalum; Secobarbitone

$$$$
