
     RDKit          3D

 15 16  0  0  0  0  0  0  0  0999 V2000
    1.0267   -0.0383    0.1124 C   0  0  0  0  0  0  0  0  0  0  0  0
   -0.4075    1.0445    1.9115 C   0  0  0  0  0  0  0  0  0  0  0  0
    1.1072    5.2615   -0.3397 C   0  0  0  0  0  0  0  0  0  0  0  0
    1.8131    5.6424    1.9411 C   0  0  0  0  0  0  0  0  0  0  0  0
    1.3467    6.6111   -0.6335 C   0  0  0  0  0  0  0  0  0  0  0  0
    2.1813    6.9441    1.6092 C   0  0  0  0  0  0  0  0  0  0  0  0
   -0.7372    2.0977    2.6705 C   0  0  0  0  0  0  0  0  0  0  0  0
    1.1829    2.3647    0.6782 C   0  0  0  0  0  0  0  0  0  0  0  0
    0.6076    1.1708    0.8889 C   0  0  0  0  0  0  0  0  0  0  0  0
    1.2651    4.7947    0.9749 C   0  0  0  0  0  0  0  0  0  0  0  0
    1.8823    7.4407    0.3479 C   0  0  0  0  0  0  0  0  0  0  0  0
   -0.1856    3.4455    2.3708 C   0  0  0  0  0  0  0  0  0  0  0  0
    0.7886    3.5060    1.3594 N   0  0  0  0  0  0  0  0  0  0  0  0
    2.1194    8.7650    0.1259 O   0  0  0  0  0  0  0  0  0  0  0  0
   -0.6578    4.4054    2.9899 O   0  0  0  0  0  0  0  0  0  0  0  0
  5  3  2  0
  6  4  1  0
  7  2  2  0
  9  1  1  0
  9  2  1  0
  9  8  2  0
 10  3  1  0
 10  4  2  0
 11  5  1  0
 11  6  2  0
 12  7  1  0
 13  8  1  0
 13 10  1  0
 13 12  1  0
 14 11  1  0
 15 12  2  0
M  END
>  <DRUGBANK_ID>  (1) 
DB06299

>  <COMMON_NAME>  (1) 
Hydronidone

>  <CAS_NUMBER>  (1) 
851518-71-3

>  <UNII>  (1) 
RXQ128313W

>  <SYNONYMS>  (1) 
N-(4-Hydroxyphenyl)-5-methyl-2-pyridone

$$$$
