GC7
     RDKit          3D

 12 11  0  0  0  0  0  0  0  0999 V2000
    0.9635   -0.0148   -0.0901 N   0  0  0  0  0  0  0  0  0  0  0  0
    0.5424   -1.0852    0.8034 C   0  0  0  0  0  0  0  0  0  0  0  0
    1.0285   -0.8281    2.2312 C   0  0  0  0  0  0  0  0  0  0  0  0
    0.4567    0.4651    2.8262 C   0  0  0  0  0  0  0  0  0  0  0  0
   -1.0759    0.4498    2.8652 C   0  0  0  0  0  0  0  0  0  0  0  0
   -1.6158   -0.6891    3.7396 C   0  0  0  0  0  0  0  0  0  0  0  0
   -1.1680   -0.5658    5.1996 C   0  0  0  0  0  0  0  0  0  0  0  0
   -1.5464    0.7813    5.8001 C   0  0  0  0  0  0  0  0  0  0  0  0
   -2.9733    1.0970    5.6061 N   0  0  0  0  0  0  0  0  0  0  0  0
   -3.5247    2.2280    6.2757 C   0  0  0  0  0  0  0  0  0  0  0  0
   -2.9601    3.3953    5.7178 N   0  0  0  0  0  0  0  0  0  0  0  0
   -4.9254    2.3087    6.0720 N   0  0  0  0  0  0  0  0  0  0  0  0
  1  2  1  0
  2  3  1  0
  3  4  1  0
  4  5  1  0
  5  6  1  0
  6  7  1  0
  7  8  1  0
  8  9  1  0
  9 10  1  0
 10 11  1  0
 10 12  1  0
M  END
>  <DRUGBANK_ID>  (1) 
DB03639

>  <SECONDARY_ACCESSION_NUMBERS>  (1) 
EXPT01555

>  <COMMON_NAME>  (1) 
1-Guanidinium-7-Aminoheptane

$$$$
