
     RDKit          3D

 21 24  0  0  0  0  0  0  0  0999 V2000
    0.0347   -2.5678   -3.1347 C   0  0  0  0  0  0  0  0  0  0  0  0
   -1.1677   -1.5167   -4.0077 C   0  0  0  0  0  0  0  0  0  0  0  0
   -0.1883   -3.0408   -1.4118 C   0  0  1  0  0  0  0  0  0  0  0  0
   -1.6900   -3.1431   -1.6659 C   0  0  2  0  0  0  0  0  0  0  0  0
   -2.7410   -2.2474   -2.3772 C   0  0  1  0  0  0  0  0  0  0  0  0
   -2.6631   -1.9171   -3.8646 C   0  0  1  0  0  0  0  0  0  0  0  0
   -4.0666   -2.9072   -1.9584 C   0  0  0  0  0  0  0  0  0  0  0  0
   -4.9931    0.2934   -4.5141 C   0  0  0  0  0  0  0  0  0  0  0  0
   -2.0359   -2.6723   -0.2865 C   0  0  0  0  0  0  0  0  0  0  0  0
   -5.1907   -2.1231   -2.4913 C   0  0  0  0  0  0  0  0  0  0  0  0
   -6.5245   -1.4849   -4.2733 C   0  0  0  0  0  0  0  0  0  0  0  0
   -6.4469   -0.0184   -4.0255 C   0  0  0  0  0  0  0  0  0  0  0  0
    0.0125   -4.2228    0.0890 C   0  0  0  0  0  0  0  0  0  0  0  0
   -2.2540   -3.6040    0.6402 C   0  0  0  0  0  0  0  0  0  0  0  0
   -7.5726   -2.1096   -4.4193 O   0  0  0  0  0  0  0  0  0  0  0  0
   -0.9000   -3.4784    1.0774 C   0  0  0  0  0  0  0  0  0  0  0  0
   -0.5547   -2.7320    2.0669 O   0  0  0  0  0  0  0  0  0  0  0  0
   -1.6843   -4.5801   -2.3501 C   0  0  0  0  0  0  0  0  0  0  0  0
   -4.0863   -1.1479   -4.5517 C   0  0  2  0  0  0  0  0  0  0  0  0
   -5.1970   -2.1300   -4.0340 C   0  0  1  0  0  0  0  0  0  0  0  0
   -5.1455   -3.5484   -4.6166 C   0  0  0  0  0  0  0  0  0  0  0  0
  3  1  1  6
  2  1  1  0
  3 13  1  0
  4  3  1  0
  4  9  1  0
  4 18  1  1
  5  4  1  0
  5  7  1  6
  5  6  1  0
  6  2  1  1
  6 19  1  0
  7 10  1  0
  8 12  1  0
  9 14  2  0
 11 12  1  0
 11 15  2  0
 13 16  1  0
 14 16  1  0
 16 17  2  0
 19  8  1  1
 19 20  1  0
 20 10  1  0
 20 11  1  0
 20 21  1  1
M  END
>  <DRUGBANK_ID>  (1) 
DB01451

>  <COMMON_NAME>  (1) 
1-Androstenedione

>  <CAS_NUMBER>  (1) 
571-40-4

>  <UNII>  (1) 
C1091EX356

>  <SYNONYMS>  (1) 
5alpha-androst-1-ene-3,17-dione

$$$$
