
     RDKit          3D

 16 18  0  0  0  0  0  0  0  0999 V2000
   -2.1677   -0.7005   -0.0637 C   0  0  0  0  0  0  0  0  0  0  0  0
   -2.1633    0.7037   -0.0657 C   0  0  0  0  0  0  0  0  0  0  0  0
   -0.9630    1.4111   -0.0055 C   0  0  0  0  0  0  0  0  0  0  0  0
    0.2170    0.6904    0.0268 C   0  0  0  0  0  0  0  0  0  0  0  0
    0.2133   -0.7070    0.0341 C   0  0  0  0  0  0  0  0  0  0  0  0
   -0.9724   -1.4178    0.0039 C   0  0  0  0  0  0  0  0  0  0  0  0
    1.6128    1.2311    0.0836 C   0  0  0  0  0  0  0  0  0  0  0  0
    1.6068   -1.2477    0.1171 C   0  0  0  0  0  0  0  0  0  0  0  0
    2.4641   -0.0178   -0.3304 C   0  0  0  0  0  0  0  0  0  0  0  0
    2.6845    0.0213   -1.8461 C   0  0  0  0  0  0  0  0  0  0  0  0
    3.8527    0.0062    1.8704 C   0  0  0  0  0  0  0  0  0  0  0  0
    3.8604   -0.0267    0.3464 C   0  0  0  0  0  0  0  0  0  0  0  0
    3.3229    0.9621   -2.6332 C   0  0  0  0  0  0  0  0  0  0  0  0
    2.2441   -0.9196   -2.7506 N   0  0  0  0  0  0  0  0  0  0  0  0
    2.6537   -0.5277   -3.9940 C   0  0  0  0  0  0  0  0  0  0  0  0
    3.3048    0.6074   -3.9543 N   0  0  0  0  0  0  0  0  0  0  0  0
  1  2  2  0
  1  6  1  0
  2  3  1  0
  3  4  2  0
  4  5  1  0
  4  7  1  0
  5  6  2  0
  5  8  1  0
  7  9  1  0
  9  8  1  0
  9 10  1  0
  9 12  1  0
 10 14  1  0
 11 12  1  0
 13 10  2  0
 13 16  1  0
 14 15  1  0
 15 16  2  0
M  END
>  <DRUGBANK_ID>  (1) 
DB11481

>  <COMMON_NAME>  (1) 
Atipamezole

>  <CAS_NUMBER>  (1) 
104054-27-5

>  <UNII>  (1) 
03N9U5JAF6

>  <SYNONYMS>  (1) 
Atipamezole

$$$$
