
     RDKit          3D

 36 41  0  0  0  0  0  0  0  0999 V2000
    2.5025    0.3312   -0.1475 C   0  0  0  0  0  0  0  0  0  0  0  0
    1.0306    0.0797   -0.1112 C   0  0  0  0  0  0  0  0  0  0  0  0
    0.2321    1.2493   -0.0690 C   0  0  0  0  0  0  0  0  0  0  0  0
   -1.1578    1.2043   -0.0823 C   0  0  0  0  0  0  0  0  0  0  0  0
   -1.7461   -0.0668   -0.1043 C   0  0  0  0  0  0  0  0  0  0  0  0
   -0.9763   -1.2427   -0.0681 C   0  0  0  0  0  0  0  0  0  0  0  0
    0.4269   -1.1932   -0.0637 C   0  0  0  0  0  0  0  0  0  0  0  0
    1.0336   -2.4432    0.0337 O   0  0  0  0  0  0  0  0  0  0  0  0
    2.4143   -2.6087    0.0338 C   0  0  0  0  0  0  0  0  0  0  0  0
    3.1584   -2.1667    1.2066 C   0  0  0  0  0  0  0  0  0  0  0  0
    4.4911   -2.0225    1.1476 C   0  0  0  0  0  0  0  0  0  0  0  0
    5.1659   -2.4911    0.0334 N   0  0  0  0  0  0  0  0  0  0  0  0
    4.5048   -3.1042   -1.0372 C   0  0  0  0  0  0  0  0  0  0  0  0
    3.0753   -3.1344   -1.0177 C   0  0  0  0  0  0  0  0  0  0  0  0
    5.3883   -3.5127   -1.9203 N   0  0  0  0  0  0  0  0  0  0  0  0
    6.5744   -3.1301   -1.3647 C   0  0  0  0  0  0  0  0  0  0  0  0
    6.4947   -2.4733   -0.2085 N   0  0  0  0  0  0  0  0  0  0  0  0
   -1.8908    2.4089    0.0898 N   0  0  0  0  0  0  0  0  0  0  0  0
   -3.3039    2.5099    0.0908 C   0  0  0  0  0  0  0  0  0  0  0  0
   -4.0248    1.8973    1.1227 C   0  0  0  0  0  0  0  0  0  0  0  0
   -3.3965    1.3231    2.2473 C   0  0  0  0  0  0  0  0  0  0  0  0
   -4.0943    0.6931    3.2664 C   0  0  0  0  0  0  0  0  0  0  0  0
   -5.4842    0.6756    3.1433 C   0  0  0  0  0  0  0  0  0  0  0  0
   -6.1217    1.2644    2.0285 C   0  0  0  0  0  0  0  0  0  0  0  0
   -5.4098    1.8960    1.0104 C   0  0  0  0  0  0  0  0  0  0  0  0
   -6.0302    2.4755   -0.0273 N   0  0  0  0  0  0  0  0  0  0  0  0
   -5.2468    3.0824   -0.9369 C   0  0  0  0  0  0  0  0  0  0  0  0
   -3.9053    3.1501   -0.9248 N   0  0  0  0  0  0  0  0  0  0  0  0
   -3.4380    0.1994    4.4173 N   0  0  0  0  0  0  0  0  0  0  0  0
   -2.0727    0.0261    4.4752 C   0  0  0  0  0  0  0  0  0  0  0  0
   -1.4505   -1.0917    4.5980 N   0  0  0  0  0  0  0  0  0  0  0  0
   -0.0228   -0.7216    4.6191 C   0  0  0  0  0  0  0  0  0  0  0  0
    0.0055    0.7982    4.6371 C   0  0  0  0  0  0  0  0  0  0  0  0
   -1.3506    1.1812    4.4539 O   0  0  0  0  0  0  0  0  0  0  0  0
    0.6499   -1.3501    5.8306 C   0  0  0  0  0  0  0  0  0  0  0  0
    0.6770   -1.2254    3.3797 C   0  0  0  0  0  0  0  0  0  0  0  0
  1  2  1  0
  2  3  2  0
  2  7  1  0
  3  4  1  0
  4  5  2  0
  4 18  1  0
  5  6  1  0
  6  7  2  0
  7  8  1  0
  8  9  1  0
  9 10  1  0
  9 14  2  0
 10 11  2  0
 11 12  1  0
 12 13  1  0
 12 17  1  0
 13 14  1  0
 13 15  2  0
 15 16  1  0
 16 17  2  0
 18 19  1  0
 19 20  1  0
 19 28  2  0
 20 21  2  0
 20 25  1  0
 21 22  1  0
 22 23  2  0
 22 29  1  0
 23 24  1  0
 24 25  2  0
 25 26  1  0
 26 27  2  0
 27 28  1  0
 29 30  1  0
 30 31  2  0
 30 34  1  0
 31 32  1  0
 32 33  1  0
 32 35  1  0
 32 36  1  0
 33 34  1  0
M  END
>  <DRUGBANK_ID>  (1) 
DB11652

>  <SECONDARY_ACCESSION_NUMBERS>  (1) 
DB06142

>  <COMMON_NAME>  (1) 
Tucatinib

>  <CAS_NUMBER>  (1) 
937263-43-9

>  <UNII>  (1) 
234248D0HH

>  <SYNONYMS>  (1) 
Tucatinib

$$$$
