
     RDKit          3D

 27 30  0  0  1  0  0  0  0  0999 V2000
    1.4715    1.4165   -0.1438 O   0  0  0  0  0  0  0  0  0  0  0  0
   -2.8251   -0.6306   -0.1630 O   0  0  0  0  0  0  0  0  0  0  0  0
    3.3879   -2.1341   -0.8454 O   0  0  0  0  0  0  0  0  0  0  0  0
    1.0412   -3.3740   -0.5138 O   0  0  0  0  0  0  0  0  0  0  0  0
    1.2268   -4.4652    1.4834 O   0  0  0  0  0  0  0  0  0  0  0  0
    3.5756    0.1287   -0.2462 C   0  0  1  0  0  0  0  0  0  0  0  0
    2.8261   -1.1642    0.0370 C   0  0  1  0  0  0  0  0  0  0  0  0
    2.8435    1.3700    0.2394 C   0  0  1  0  0  0  0  0  0  0  0  0
    1.3430   -1.0111   -0.1621 C   0  0  0  0  0  0  0  0  0  0  0  0
    0.7528    0.2515   -0.1181 C   0  0  0  0  0  0  0  0  0  0  0  0
   -0.6485    0.3828   -0.1385 C   0  0  0  0  0  0  0  0  0  0  0  0
    0.4871   -2.1208   -0.2675 C   0  0  0  0  0  0  0  0  0  0  0  0
   -0.9165   -2.0345   -0.1584 C   0  0  0  0  0  0  0  0  0  0  0  0
   -1.4665   -0.7568   -0.1247 C   0  0  0  0  0  0  0  0  0  0  0  0
    4.9912    0.0991    0.3514 C   0  0  0  0  0  0  0  0  0  0  0  0
   -3.4083    0.5407    0.4138 C   0  0  0  0  0  0  0  0  0  0  0  0
    3.5478    2.5955   -0.3849 C   0  0  0  0  0  0  0  0  0  0  0  0
   -1.6512   -3.3183    0.0140 C   0  0  0  0  0  0  0  0  0  0  0  0
   -1.3074    1.6895   -0.2148 C   0  0  0  0  0  0  0  0  0  0  0  0
   -2.6207    1.7627    0.0359 C   0  0  0  0  0  0  0  0  0  0  0  0
   -3.1585   -3.4035   -0.0800 C   0  0  0  0  0  0  0  0  0  0  0  0
   -4.8361    0.6072   -0.1431 C   0  0  0  0  0  0  0  0  0  0  0  0
   -3.4820    0.3653    1.9361 C   0  0  0  0  0  0  0  0  0  0  0  0
   -0.8828   -4.3760    0.3554 C   0  0  0  0  0  0  0  0  0  0  0  0
    0.5621   -4.1172    0.5181 C   0  0  0  0  0  0  0  0  0  0  0  0
   -3.6365   -4.0404   -1.3774 C   0  0  0  0  0  0  0  0  0  0  0  0
   -3.2866   -5.5122   -1.4185 C   0  0  0  0  0  0  0  0  0  0  0  0
  1  8  1  0
  1 10  1  0
  2 14  1  0
  2 16  1  0
  4 12  1  0
  4 25  1  0
  5 25  2  0
  6  7  1  0
  6  8  1  0
  6 15  1  1
  7  3  1  6
  7  9  1  0
  8 17  1  6
  9 10  2  0
  9 12  1  0
 10 11  1  0
 11 14  2  0
 11 19  1  0
 12 13  2  0
 13 14  1  0
 13 18  1  0
 16 20  1  0
 16 22  1  0
 16 23  1  0
 18 21  1  0
 18 24  2  0
 19 20  2  0
 21 26  1  0
 24 25  1  0
 26 27  1  0
M  END
>  <DRUGBANK_ID>  (1) 
DB04886

>  <COMMON_NAME>  (1) 
Calanolide A

>  <CAS_NUMBER>  (1) 
142632-32-4

>  <UNII>  (1) 
S5A9TQN46W

>  <SYNONYMS>  (1) 
(+)-calanolide A

$$$$
