
     RDKit          3D

 30 33  0  0  0  0  0  0  0  0999 V2000
  -13.6675   -5.1296   -2.0071 C   0  0  0  0  0  0  0  0  0  0  0  0
  -14.4893   -6.4033   -1.8694 C   0  0  0  0  0  0  0  0  0  0  0  0
  -13.5807   -7.6302   -1.8350 C   0  0  1  0  0  0  0  0  0  0  0  0
  -12.5137   -7.5262   -0.7409 C   0  0  0  0  0  0  0  0  0  0  0  0
  -11.7556   -6.2349   -0.8165 C   0  0  0  0  0  0  0  0  0  0  0  0
  -10.3955   -6.2278   -0.8289 C   0  0  0  0  0  0  0  0  0  0  0  0
  -12.6044   -4.9759   -0.8766 C   0  0  2  0  0  0  0  0  0  0  0  0
  -12.5429   -2.4638   -0.9828 C   0  0  0  0  0  0  0  0  0  0  0  0
  -11.6603   -1.2720   -1.0807 C   0  0  0  0  0  0  0  0  0  0  0  0
  -10.3157   -1.2281   -0.3433 C   0  0  1  0  0  0  0  0  0  0  0  0
   -9.5597   -2.4910   -0.7869 C   0  0  1  0  0  0  0  0  0  0  0  0
   -8.1543   -2.3219   -0.2137 C   0  0  0  0  0  0  0  0  0  0  0  0
   -7.8557   -0.8238   -0.3237 C   0  0  0  0  0  0  0  0  0  0  0  0
   -9.1960   -0.1555   -0.7145 C   0  0  2  0  0  0  0  0  0  0  0  0
  -10.7393   -1.1624    1.1172 C   0  0  0  0  0  0  0  0  0  0  0  0
  -13.3091   -4.7717    0.4892 C   0  0  0  0  0  0  0  0  0  0  0  0
  -14.3774   -8.7909   -1.6174 O   0  0  0  0  0  0  0  0  0  0  0  0
  -11.7295   -3.7443   -1.2066 C   0  0  1  0  0  0  0  0  0  0  0  0
   -9.2029    1.4574    1.2942 C   0  0  0  0  0  0  0  0  0  0  0  0
  -10.3594   -3.7506   -0.4602 C   0  0  1  0  0  0  0  0  0  0  0  0
   -9.5603   -4.9946   -0.8340 C   0  0  0  0  0  0  0  0  0  0  0  0
  -10.5589    2.5967   -2.2169 C   0  0  0  0  0  0  0  0  0  0  0  0
  -10.2821    1.5949   -3.3837 C   0  0  2  0  0  0  0  0  0  0  0  0
  -10.5882    2.0804   -4.7865 C   0  0  0  0  0  0  0  0  0  0  0  0
  -11.9925    2.6710   -4.8719 C   0  0  0  0  0  0  0  0  0  0  0  0
  -10.5414    2.0925   -0.7488 C   0  0  0  0  0  0  0  0  0  0  0  0
   -9.2980    1.3251   -0.2398 C   0  0  2  0  0  0  0  0  0  0  0  0
   -9.4680    2.9719   -5.2481 C   0  0  0  0  0  0  0  0  0  0  0  0
  -11.1211    0.3603   -3.2589 C   0  0  0  0  0  0  0  0  0  0  0  0
  -10.7122   -0.8590   -4.1029 C   0  0  0  0  0  0  0  0  0  0  0  0
  1  7  1  0
  2  1  1  0
  3  4  1  0
  3  2  1  0
  3 17  1  1
  4  5  1  0
  5  7  1  0
  6 21  1  0
  6  5  2  0
  7 18  1  0
  7 16  1  1
 18  8  1  1
  8  9  1  0
  9 10  1  0
 10 15  1  1
 11 10  1  0
 11 12  1  1
 14 13  1  1
 13 12  1  0
 14 10  1  0
 14 27  1  0
 20 11  1  0
 20 18  1  0
 20 21  1  6
 23 29  1  1
 23 24  1  0
 23 22  1  0
 25 24  1  0
 26 22  1  0
 27 26  1  0
 27 19  1  1
 28 24  1  0
 29 30  1  0
M  END
>  <DRUGBANK_ID>  (1) 
DB14038

>  <COMMON_NAME>  (1) 
beta-Sitosterol

>  <CAS_NUMBER>  (1) 
83-46-5

>  <UNII>  (1) 
S347WMO6M4

>  <SYNONYMS>  (1) 
(-)-β-Sitosterol; (24R)-Ethylcholest-5-en-3beta-ol; (24R)-ethylcholest-5-en-3β-ol; (24R)-Stigmast-5-en-3beta-ol; (3β)-Stigmast-5-en-3-ol; 22,23-Dihydrostigmasterol; 24α-Ethylcholesterol; Azuprostat; Cupreol; Nimbosterol; Sitosterol; Triastonal; α-Dihydrofucosterol; β-Sitosterin

$$$$
