S06
     RDKit          3D

 25 28  0  0  0  0  0  0  0  0999 V2000
   -1.1587   -1.3327   -0.1250 C   0  0  0  0  0  0  0  0  0  0  0  0
    0.0500   -0.6630   -0.0341 C   0  0  0  0  0  0  0  0  0  0  0  0
    1.2572   -1.3666   -0.0046 C   0  0  0  0  0  0  0  0  0  0  0  0
    2.4643   -0.6798   -0.0117 C   0  0  0  0  0  0  0  0  0  0  0  0
    2.4680    0.7157   -0.0008 C   0  0  0  0  0  0  0  0  0  0  0  0
    1.2668    1.4242    0.0279 C   0  0  0  0  0  0  0  0  0  0  0  0
    0.0460    0.7549   -0.0026 C   0  0  0  0  0  0  0  0  0  0  0  0
   -1.1704    1.4490   -0.0202 C   0  0  0  0  0  0  0  0  0  0  0  0
   -2.3728    0.7641   -0.1075 C   0  0  0  0  0  0  0  0  0  0  0  0
   -2.3700   -0.6316   -0.2010 C   0  0  0  0  0  0  0  0  0  0  0  0
   -3.6778   -1.3611   -0.2353 C   0  0  2  0  0  0  0  0  0  0  0  0
   -3.8156   -2.0875    1.0630 C   0  0  0  0  0  0  0  0  0  0  0  0
   -3.8352   -2.3459   -1.2905 N   0  0  0  0  0  0  0  0  0  0  0  0
   -3.5290   -3.6337   -0.6642 O   0  0  0  0  0  0  0  0  0  0  0  0
   -3.8386   -3.5668    0.7544 C   0  0  2  0  0  0  0  0  0  0  0  0
   -5.1563   -4.1031    1.0169 O   0  0  0  0  0  0  0  0  0  0  0  0
   -5.5030   -4.2577    2.4098 C   0  0  2  0  0  0  0  0  0  0  0  0
   -5.7033   -2.9241    3.1595 C   0  0  0  0  0  0  0  0  0  0  0  0
   -5.8980   -3.0969    4.5513 O   0  0  0  0  0  0  0  0  0  0  0  0
   -4.5081   -5.1784    3.1390 C   0  0  1  0  0  0  0  0  0  0  0  0
   -4.5770   -6.5021    2.5896 O   0  0  0  0  0  0  0  0  0  0  0  0
   -3.0790   -4.6308    2.9810 C   0  0  2  0  0  0  0  0  0  0  0  0
   -2.8668   -3.4136    3.7047 O   0  0  0  0  0  0  0  0  0  0  0  0
   -2.7611   -4.4243    1.4849 C   0  0  1  0  0  0  0  0  0  0  0  0
   -2.6820   -5.7128    0.8398 O   0  0  0  0  0  0  0  0  0  0  0  0
  1 10  2  0
  1  2  1  0
  2  7  2  0
  3  2  1  0
  3  4  2  0
  4  5  1  0
  5  6  2  0
  7  8  1  0
  7  6  1  0
  9  8  2  0
 10  9  1  0
 11 10  1  1
 12 11  1  0
 13 11  1  0
 14 13  1  0
 15 16  1  0
 15 14  1  0
 15 12  1  1
 17 16  1  0
 17 18  1  1
 19 18  1  0
 20 17  1  0
 20 21  1  6
 22 20  1  0
 22 24  1  0
 22 23  1  1
 24 15  1  0
 24 25  1  6
M  END
>  <DRUGBANK_ID>  (1) 
DB08500

>  <COMMON_NAME>  (1) 
(3S,5R,7R,8S,9S,10R)-7-(hydroxymethyl)-3-(2-naphthyl)-1,6-dioxa-2-azaspiro[4.5]decane-8,9,10-triol

$$$$
