
     RDKit          3D

  7  6  0  0  1  0  0  0  0  0999 V2000
    1.0373    0.7259   -2.4372 N   0  0  0  0  0  0  0  0  0  0  0  0
    0.5552    1.0417   -1.0319 C   0  0  2  0  0  0  0  0  0  0  0  0
    1.0734    0.0024   -0.0312 C   0  0  0  0  0  0  0  0  0  0  0  0
    2.4700   -0.9419   -0.6646 Cl  0  0  0  0  0  0  0  0  0  0  0  0
   -0.9887    1.0251   -0.9724 C   0  0  0  0  0  0  0  0  0  0  0  0
   -1.5191    2.1285   -0.6859 O   0  0  0  0  0  0  0  0  0  0  0  0
   -1.4719   -0.0480   -1.4254 O   0  0  0  0  0  0  0  0  0  0  0  0
  2  5  1  0
  2  3  1  0
  2  1  1  6
  3  4  1  0
  5  6  1  0
  5  7  2  0
M  CHG  2   1   1   6  -1
M  END
>  <DRUGBANK_ID>  (1) 
DB01735

>  <SECONDARY_ACCESSION_NUMBERS>  (1) 
EXPT00806

>  <COMMON_NAME>  (1) 
3-Chloroalaninate

>  <UNII>  (1) 
PJ3SK4HU57

$$$$
