
     RDKit          3D

 28 31  0  0  0  0  0  0  0  0999 V2000
   -2.0859   -0.7421   -0.0036 C   0  0  0  0  0  0  0  0  0  0  0  0
   -2.1206    0.6500    0.0014 C   0  0  0  0  0  0  0  0  0  0  0  0
    1.5451    6.3846   -2.5401 C   0  0  0  0  0  0  0  0  0  0  0  0
   -0.8623   -1.4261    0.0085 C   0  0  0  0  0  0  0  0  0  0  0  0
   -0.9409    1.3974    0.0586 C   0  0  0  0  0  0  0  0  0  0  0  0
    0.2273    6.4101   -1.7772 C   0  0  0  0  0  0  0  0  0  0  0  0
   -2.1907    7.8124   -0.5705 C   0  0  0  0  0  0  0  0  0  0  0  0
   -0.6744    9.7345   -0.6624 C   0  0  0  0  0  0  0  0  0  0  0  0
   -3.2511    8.6765   -0.3552 C   0  0  0  0  0  0  0  0  0  0  0  0
   -1.7563   10.5896   -0.5730 C   0  0  0  0  0  0  0  0  0  0  0  0
    2.1255    3.5818    1.0061 C   0  0  0  0  0  0  0  0  0  0  0  0
    3.1510    2.6028   -1.0590 C   0  0  0  0  0  0  0  0  0  0  0  0
    2.8429    6.2712   -1.7009 C   0  0  0  0  0  0  0  0  0  0  0  0
    2.0590    4.8894    0.1969 C   0  0  0  0  0  0  0  0  0  0  0  0
    3.0099    3.8936   -1.8237 C   0  0  0  0  0  0  0  0  0  0  0  0
   -0.9153    8.3616   -0.6671 C   0  0  0  0  0  0  0  0  0  0  0  0
   -3.0240   10.0532   -0.3609 C   0  0  0  0  0  0  0  0  0  0  0  0
    1.9979    2.4750   -0.0637 C   0  0  0  0  0  0  0  0  0  0  0  0
    0.3342   -0.6904    0.0724 C   0  0  0  0  0  0  0  0  0  0  0  0
    0.2765    0.6977    0.1388 C   0  0  0  0  0  0  0  0  0  0  0  0
    0.2482    7.4988   -0.7269 C   0  0  0  0  0  0  0  0  0  0  0  0
    2.3709   -0.0413    0.1398 C   0  0  0  0  0  0  0  0  0  0  0  0
   -4.0505   10.8817   -0.1433 F   0  0  0  0  0  0  0  0  0  0  0  0
    1.6329   -1.1219    0.0644 N   0  0  0  0  0  0  0  0  0  0  0  0
    3.0210    5.0337   -0.9101 N   0  0  0  0  0  0  0  0  0  0  0  0
    1.6090    1.1079    0.2322 N   0  0  0  0  0  0  0  0  0  0  0  0
    1.1415    7.7390    0.0598 O   0  0  0  0  0  0  0  0  0  0  0  0
    3.6899   -0.1156    0.0498 O   0  0  0  0  0  0  0  0  0  0  0  0
  2  1  2  0
  4  1  1  0
  5  2  1  0
  6  3  1  0
  9  7  2  0
 10  8  1  0
 13  3  1  0
 14 11  1  0
 15 12  1  0
 16  7  1  0
 16  8  2  0
 17  9  1  0
 17 10  2  0
 18 11  1  0
 18 12  1  0
 19  4  2  0
 20  5  2  0
 20 19  1  0
 21  6  1  0
 21 16  1  0
 23 17  1  0
 24 19  1  0
 24 22  2  0
 25 13  1  0
 25 14  1  0
 25 15  1  0
 26 18  1  0
 26 20  1  0
 26 22  1  0
 27 21  2  0
 28 22  1  0
M  END
>  <DRUGBANK_ID>  (1) 
DB12867

>  <COMMON_NAME>  (1) 
Benperidol

>  <CAS_NUMBER>  (1) 
2062-84-2

>  <UNII>  (1) 
97O6X78C53

>  <SYNONYMS>  (1) 
Benperidol; Benperidolum

$$$$
