740
     RDKit          3D

 15 16  0  0  0  0  0  0  0  0999 V2000
   -1.2300   -1.1857   -0.0013 S   0  0  0  0  0  0  0  0  0  0  0  0
    3.4060   -3.2111    1.1166 F   0  0  0  0  0  0  0  0  0  0  0  0
    3.4136   -3.2246   -1.0888 F   0  0  0  0  0  0  0  0  0  0  0  0
    5.2967   -3.1734    0.0202 F   0  0  0  0  0  0  0  0  0  0  0  0
    4.0185   -1.3082    0.0037 O   0  0  0  0  0  0  0  0  0  0  0  0
   -0.8752    1.3599    0.0032 N   0  0  0  0  0  0  0  0  0  0  0  0
   -3.1097    0.6725    0.0069 N   0  0  0  0  0  0  0  0  0  0  0  0
    0.3867   -0.6122    0.0000 C   0  0  0  0  0  0  0  0  0  0  0  0
    0.3840    0.7798    0.0010 C   0  0  0  0  0  0  0  0  0  0  0  0
    1.5688   -1.3662   -0.0001 C   0  0  0  0  0  0  0  0  0  0  0  0
    2.7934   -0.6948    0.0005 C   0  0  0  0  0  0  0  0  0  0  0  0
    1.6260    1.4482   -0.0009 C   0  0  0  0  0  0  0  0  0  0  0  0
    2.8170    0.7022   -0.0022 C   0  0  0  0  0  0  0  0  0  0  0  0
   -1.7977    0.4276    0.0029 C   0  0  0  0  0  0  0  0  0  0  0  0
    4.0211   -2.7310    0.0130 C   0  0  0  0  0  0  0  0  0  0  0  0
  1  8  1  0
  1 14  1  0
  2 15  1  0
  3 15  1  0
  4 15  1  0
  5 11  1  0
  5 15  1  0
  6  9  1  0
  6 14  2  0
  7 14  1  0
  8  9  2  0
  8 10  1  0
  9 12  1  0
 10 11  2  0
 11 13  1  0
 12 13  2  0
M  END
>  <DRUGBANK_ID>  (1) 
DB00740

>  <SECONDARY_ACCESSION_NUMBERS>  (1) 
APRD00145

>  <COMMON_NAME>  (1) 
Riluzole

>  <CAS_NUMBER>  (1) 
1744-22-5

>  <UNII>  (1) 
7LJ087RS6F

>  <SYNONYMS>  (1) 
Riluzol; Riluzole; Riluzolum

$$$$
