
     RDKit          3D

 38 41  0  0  1  0  0  0  0  0999 V2000
   -2.7024   -0.3688   -0.0648 C   0  0  0  0  0  0  0  0  0  0  0  0
   -0.3044   -2.5690    0.3040 C   0  0  0  0  0  0  0  0  0  0  0  0
    0.3011   -3.2297   -0.9900 C   0  0  0  0  0  0  0  0  0  0  0  0
    1.0916    1.7093   -5.1077 C   0  0  0  0  0  0  0  0  0  0  0  0
    0.0374    4.7985   -7.6155 C   0  0  0  0  0  0  0  0  0  0  0  0
   -1.4963    1.1129   -9.4023 C   0  0  0  0  0  0  0  0  0  0  0  0
   -1.2853   -0.0903    0.2114 C   0  0  0  0  0  0  0  0  0  0  0  0
    0.0321    0.5554   -5.0786 C   0  0  2  0  0  0  0  0  0  0  0  0
   -0.3117   -1.0307    0.5282 C   0  0  0  0  0  0  0  0  0  0  0  0
   -0.8817    3.1419   -9.4895 C   0  0  0  0  0  0  0  0  0  0  0  0
    0.2419   -0.8270   -5.7723 C   0  0  2  0  0  0  0  0  0  0  0  0
   -0.1634   -0.5763   -7.2068 C   0  0  2  0  0  0  0  0  0  0  0  0
   -0.5461    4.4605   -9.8279 C   0  0  0  0  0  0  0  0  0  0  0  0
   -0.7397    2.7816   -8.1607 C   0  0  0  0  0  0  0  0  0  0  0  0
    0.3895    1.3517    0.5444 C   0  0  0  0  0  0  0  0  0  0  0  0
   -1.2098    0.5210   -7.0386 C   0  0  2  0  0  0  0  0  0  0  0  0
    1.2273    2.6324    0.3313 C   0  0  0  0  0  0  0  0  0  0  0  0
   -0.7167    4.9437  -11.1083 N   0  0  0  0  0  0  0  0  0  0  0  0
   -0.0680    5.2871   -8.8735 N   0  0  0  0  0  0  0  0  0  0  0  0
   -0.3035    3.5774   -7.1740 N   0  0  0  0  0  0  0  0  0  0  0  0
   -1.3656    2.0995  -10.2572 N   0  0  0  0  0  0  0  0  0  0  0  0
   -0.8940    1.2450    0.2028 N   0  0  0  0  0  0  0  0  0  0  0  0
   -1.1464    1.4792   -8.1223 N   0  0  0  0  0  0  0  0  0  0  0  0
   -0.7836   -1.8071   -5.3722 O   0  0  0  0  0  0  0  0  0  0  0  0
   -0.8235   -1.7243   -7.8117 O   0  0  0  0  0  0  0  0  0  0  0  0
    0.6214    3.6810   -0.0604 O   0  0  0  0  0  0  0  0  0  0  0  0
    2.4800    2.6280    0.6573 O   0  0  0  0  0  0  0  0  0  0  0  0
    3.3704   -1.6052   -1.6615 O   0  0  0  0  0  0  0  0  0  0  0  0
    0.5736   -1.0769   -1.9331 O   0  0  0  0  0  0  0  0  0  0  0  0
    3.8148    1.3242   -2.8048 O   0  0  0  0  0  0  0  0  0  0  0  0
    1.9195   -0.2652   -3.6362 O   0  0  0  0  0  0  0  0  0  0  0  0
    1.6847   -2.9425   -1.2180 O   0  0  0  0  0  0  0  0  0  0  0  0
    2.3851    1.5772   -4.5356 O   0  0  0  0  0  0  0  0  0  0  0  0
   -1.1216    1.1355   -5.7649 O   0  0  0  0  0  0  0  0  0  0  0  0
    2.2100    0.4772   -1.2598 O   0  0  0  0  0  0  0  0  0  0  0  0
    1.9474   -1.2326   -1.2389 P   0  0  1  0  0  0  0  0  0  0  0  0
    2.2976    1.0272   -2.8977 P   0  0  2  0  0  0  0  0  0  0  0  0
    0.9329   -0.1138    1.3710 S   0  0  0  0  0  0  0  0  0  0  0  0
  3  2  1  0
  7  1  1  0
  8  4  1  6
  9  2  1  0
  9  7  2  0
 11  8  1  0
 11 24  1  1
 12 11  1  0
 12 25  1  1
 13 10  2  0
 14 10  1  0
 16 12  1  0
 16 23  1  6
 17 15  1  0
 18 13  1  0
 19  5  2  0
 19 13  1  0
 20  5  1  0
 20 14  2  0
 21  6  2  0
 21 10  1  0
 22  7  1  0
 22 15  2  0
 23  6  1  0
 23 14  1  0
 26 17  1  0
 27 17  2  0
 32  3  1  0
 33  4  1  0
 34  8  1  0
 34 16  1  0
 36 28  1  6
 36 29  2  0
 36 32  1  0
 36 35  1  0
 37 30  1  6
 37 31  2  0
 37 33  1  0
 37 35  1  0
 38  9  1  0
 38 15  1  0
M  CHG  3  26  -1  28  -1  30  -1
M  END
>  <DRUGBANK_ID>  (1) 
DB04362

>  <SECONDARY_ACCESSION_NUMBERS>  (1) 
EXPT00469

>  <COMMON_NAME>  (1) 
Adenosine Diphosphate 5-(Beta-Ethyl)-4-Methyl-Thiazole-2-Carboxylic Acid

$$$$
