
     RDKit          3D

 22 22  0  0  1  0  0  0  0  0999 V2000
   -1.5338   -1.7388    0.0114 C   0  0  0  0  0  0  0  0  0  0  0  0
   -0.9674    5.5781    1.1464 C   0  0  0  0  0  0  0  0  0  0  0  0
    1.8832   -0.4424   -0.1781 C   0  0  0  0  0  0  0  0  0  0  0  0
    0.2083    3.1072   -0.3090 C   0  0  0  0  0  0  0  0  0  0  0  0
    3.0979    1.7258   -0.0615 C   0  0  0  0  0  0  0  0  0  0  0  0
   -0.4037   -0.7463   -0.0885 C   0  0  0  0  0  0  0  0  0  0  0  0
    0.5087    5.3001    1.0481 C   0  0  2  0  0  0  0  0  0  0  0  0
    1.7826    0.9526   -0.2872 C   0  0  0  0  0  0  0  0  0  0  0  0
    0.4552    1.5489   -0.3136 C   0  0  0  0  0  0  0  0  0  0  0  0
   -0.6329    0.6425   -0.1825 C   0  0  0  0  0  0  0  0  0  0  0  0
    0.8377   -1.2903   -0.0962 N   0  0  0  0  0  0  0  0  0  0  0  0
    0.6852    3.8488    0.8935 N   0  0  0  0  0  0  0  0  0  0  0  0
   -1.9462    1.0292   -0.1088 O   0  0  0  0  0  0  0  0  0  0  0  0
    0.6745    4.6316    3.6483 O   0  0  0  0  0  0  0  0  0  0  0  0
    2.8381    5.2285    2.4157 O   0  0  0  0  0  0  0  0  0  0  0  0
    1.2885    7.0817    3.1948 O   0  0  0  0  0  0  0  0  0  0  0  0
    3.6446    3.1353    2.7864 O   0  0  0  0  0  0  0  0  0  0  0  0
    1.5005    2.0964    1.8200 O   0  0  0  0  0  0  0  0  0  0  0  0
    1.8856    2.0631    3.8928 O   0  0  0  0  0  0  0  0  0  0  0  0
    3.7437    1.5233    1.2464 O   0  0  0  0  0  0  0  0  0  0  0  0
    1.3331    5.7199    2.6587 P   0  0  0  0  0  0  0  0  0  0  0  0
    2.7632    1.8082    2.6429 P   0  0  0  0  0  0  0  0  0  0  0  0
  6  1  1  0
  7  2  1  1
  8  3  2  0
  8  5  1  0
  9  4  1  0
  9  8  1  0
 10  6  1  0
 10  9  2  0
 11  3  1  0
 11  6  2  0
 12  4  1  0
 12  7  1  0
 13 10  1  0
 20  5  1  0
 21  7  1  0
 21 14  1  0
 21 15  1  0
 21 16  2  0
 22 17  1  0
 22 18  1  0
 22 19  2  0
 22 20  1  0
M  END
>  <DRUGBANK_ID>  (1) 
DB03327

>  <SECONDARY_ACCESSION_NUMBERS>  (1) 
EXPT01879

>  <COMMON_NAME>  (1) 
{1-[(3-Hydroxy-Methyl-5-Phosphonooxy-Methyl-Pyridin-4-Ylmethyl)-Amino]-Ethyl}-Phosphonic Acid

$$$$
