NRO
     RDKit          3D

 22 23  0  0  0  0  0  0  0  0999 V2000
    0.8198    0.1737    0.2080 C   0  0  0  0  0  0  0  0  0  0  0  0
    0.3879    1.0552   -0.9507 C   0  0  0  0  0  0  0  0  0  0  0  0
    0.9262    0.5929   -2.3242 C   0  0  0  0  0  0  0  0  0  0  0  0
    0.4651   -0.7725   -2.7990 C   0  0  0  0  0  0  0  0  0  0  0  0
   -0.3469   -0.9511   -3.8666 C   0  0  0  0  0  0  0  0  0  0  0  0
   -0.9329   -2.1964   -4.2246 C   0  0  0  0  0  0  0  0  0  0  0  0
   -1.3452   -4.0903   -5.2899 C   0  0  0  0  0  0  0  0  0  0  0  0
   -1.4622   -4.9782   -6.4281 C   0  0  0  0  0  0  0  0  0  0  0  0
   -2.7495   -5.4599   -6.7157 C   0  0  0  0  0  0  0  0  0  0  0  0
   -0.3764   -5.4401   -7.1731 C   0  0  0  0  0  0  0  0  0  0  0  0
   -1.8808   -6.7975   -8.5170 C   0  0  0  0  0  0  0  0  0  0  0  0
   -2.9685   -6.3605   -7.7571 C   0  0  0  0  0  0  0  0  0  0  0  0
   -4.3349   -6.8228   -8.0928 C   0  0  0  0  0  0  0  0  0  0  0  0
    1.0895   -1.9308   -2.0927 N   0  0  0  0  0  0  0  0  0  0  0  0
    2.0683   -1.6938   -1.3783 O   0  0  0  0  0  0  0  0  0  0  0  0
    0.6487   -3.0744   -2.2240 O   0  0  0  0  0  0  0  0  0  0  0  0
   -0.8311   -2.8320   -5.4521 O   0  0  0  0  0  0  0  0  0  0  0  0
   -1.6726   -3.0199   -3.3821 C   0  0  0  0  0  0  0  0  0  0  0  0
   -1.8008   -4.2623   -4.0072 C   0  0  0  0  0  0  0  0  0  0  0  0
   -0.5935   -6.3214   -8.2400 C   0  0  0  0  0  0  0  0  0  0  0  0
   -4.6266   -7.5822   -9.0055 O   0  0  0  0  0  0  0  0  0  0  0  0
   -5.2781   -6.2904   -7.2950 O   0  0  0  0  0  0  0  0  0  0  0  0
  1  2  1  0
  2  3  1  0
  3  4  1  0
  4  5  2  0
  4 14  1  0
  5  6  1  0
  6 17  1  0
  6 18  2  0
  7  8  1  0
  7 17  1  0
  7 19  2  0
  8  9  2  0
  8 10  1  0
  9 12  1  0
 10 20  2  0
 11 12  2  0
 11 20  1  0
 12 13  1  0
 13 21  2  0
 13 22  1  0
 14 15  2  0
 14 16  1  0
 18 19  1  0
M  CHG  2  14   1  16  -1
M  END
>  <DRUGBANK_ID>  (1) 
DB08302

>  <COMMON_NAME>  (1) 
3-[5-(2-nitropent-1-en-1-yl)furan-2-yl]benzoic acid

$$$$
