
     RDKit          3D

 18 19  0  0  0  0  0  0  0  0999 V2000
    4.5558    5.5216    2.8818 N   0  0  0  0  0  0  0  0  0  0  0  0
    5.5158    4.5539    2.6472 C   0  0  0  0  0  0  0  0  0  0  0  0
    6.0576    3.8998    3.5488 O   0  0  0  0  0  0  0  0  0  0  0  0
    5.8355    4.1991    1.1971 C   0  0  2  0  0  0  0  0  0  0  0  0
    5.4787    5.2523    0.1466 C   0  0  0  0  0  0  0  0  0  0  0  0
    5.1995    2.8501    0.8646 C   0  0  0  0  0  0  0  0  0  0  0  0
    5.8418    4.7942   -1.2671 C   0  0  0  0  0  0  0  0  0  0  0  0
    5.5512    2.3992   -0.5411 C   0  0  0  0  0  0  0  0  0  0  0  0
    5.1852    3.4412   -1.6052 C   0  0  2  0  0  0  0  0  0  0  0  0
    4.2115    5.9454    4.1859 C   0  0  0  0  0  0  0  0  0  0  0  0
    2.8855    6.2113    4.5181 C   0  0  0  0  0  0  0  0  0  0  0  0
    5.2019    6.1339    5.1458 C   0  0  0  0  0  0  0  0  0  0  0  0
    2.6111    6.6144    5.8191 C   0  0  0  0  0  0  0  0  0  0  0  0
    4.8326    6.5851    6.3985 C   0  0  0  0  0  0  0  0  0  0  0  0
    3.5560    6.8240    6.7612 N   0  0  0  0  0  0  0  0  0  0  0  0
    5.5604    2.9923   -3.0432 C   0  0  2  0  0  0  0  0  0  0  0  0
    4.5208    3.4515   -3.9687 N   0  0  0  0  0  0  0  0  0  0  0  0
    5.7220    1.4794   -3.1940 C   0  0  0  0  0  0  0  0  0  0  0  0
  1  2  1  0
  1 10  1  0
  2  3  2  0
  4  2  1  1
  5  4  1  0
  6  4  1  0
  7  5  1  0
  8  6  1  0
  9  7  1  1
  9  8  1  0
  9 16  1  0
 11 10  2  0
 12 10  1  0
 13 11  1  0
 14 12  2  0
 15 13  2  0
 15 14  1  0
 16 18  1  1
 16 17  1  0
M  END
>  <DRUGBANK_ID>  (1) 
DB08756

>  <COMMON_NAME>  (1) 
Y-27632

>  <CAS_NUMBER>  (1) 
146986-50-7

>  <UNII>  (1) 
0X370ROP6H

>  <SYNONYMS>  (1) 
(R)-(+)-trans-N-(4-pyridyl)-4-(1-aminoethyl)-cyclohexanecarboxamide; 4-[(1R)-1-aminoethyl]-N-(pyridin-4-yl)cyclohexane-1-carboxamide

$$$$
