
     RDKit          3D

  9  8  0  0  0  0  0  0  0  0999 V2000
    0.7823   -0.0806    0.1195 O   0  0  0  0  0  0  0  0  0  0  0  0
    2.0045   -0.1230   -0.0033 C   0  0  0  0  0  0  0  0  0  0  0  0
    2.7406   -0.9038    0.8198 O   0  0  0  0  0  0  0  0  0  0  0  0
    2.7937    0.7172   -1.0265 C   0  0  0  0  0  0  0  0  0  0  0  0
    2.4714    0.3322   -2.4090 N   0  0  0  0  0  0  0  0  0  0  0  0
    2.5917    2.2102   -0.7684 C   0  0  0  0  0  0  0  0  0  0  0  0
    3.0624    2.6349    0.6278 C   0  0  0  0  0  0  0  0  0  0  0  0
    4.8993    2.6486    0.8606 S   0  0  0  0  0  0  0  0  0  0  0  0
    5.4046    0.9012    0.8711 C   0  0  0  0  0  0  0  0  0  0  0  0
  2  1  2  0
  3  2  1  0
  4  2  1  0
  4  5  1  0
  6  4  1  0
  7  6  1  0
  8  7  1  0
  9  8  1  0
M  END
>  <DRUGBANK_ID>  (1) 
DB13972

>  <COMMON_NAME>  (1) 
Racemethionine

>  <CAS_NUMBER>  (1) 
59-51-8

>  <UNII>  (1) 
73JWT2K6T3

>  <SYNONYMS>  (1) 
(+-)-Methionine; DL-Methionine; DL-Methioninum; metionina; Racemethionine

$$$$
