
     RDKit          3D

 22 22  0  0  1  0  0  0  0  0999 V2000
    3.5694    1.2416   -2.5211 C   0  0  0  0  0  0  0  0  0  0  0  0
   -0.3183   -1.5531   -8.0250 C   0  0  0  0  0  0  0  0  0  0  0  0
    1.7102   -0.8649   -5.0748 C   0  0  0  0  0  0  0  0  0  0  0  0
    2.6794   -0.1176   -4.3317 C   0  0  0  0  0  0  0  0  0  0  0  0
    1.4294   -1.5987   -6.1596 C   0  0  0  0  0  0  0  0  0  0  0  0
   -0.7935    0.3575   -4.4127 C   0  0  0  0  0  0  0  0  0  0  0  0
    0.9530    2.3994   -1.7722 C   0  0  0  0  0  0  0  0  0  0  0  0
    2.3695    0.6820   -3.2544 C   0  0  0  0  0  0  0  0  0  0  0  0
    0.0027   -2.0560   -6.6202 C   0  0  2  0  0  0  0  0  0  0  0  0
   -0.3540    1.3045   -3.3254 C   0  0  1  0  0  0  0  0  0  0  0  0
    0.9718    1.0532   -2.5479 C   0  0  2  0  0  0  0  0  0  0  0  0
   -1.0218   -1.0964   -3.7868 C   0  0  0  0  0  0  0  0  0  0  0  0
   -0.2908    2.7832   -3.7470 C   0  0  1  0  0  0  0  0  0  0  0  0
   -0.1534   -3.5672   -6.5357 C   0  0  0  0  0  0  0  0  0  0  0  0
   -1.7075    3.3621   -3.6508 C   0  0  0  0  0  0  0  0  0  0  0  0
    0.6744    3.4190   -2.7965 N   0  0  0  0  0  0  0  0  0  0  0  0
   -1.8575   -1.9158   -4.1734 O   0  0  0  0  0  0  0  0  0  0  0  0
   -0.0670   -1.5268   -2.9156 O   0  0  0  0  0  0  0  0  0  0  0  0
   -0.9997   -4.2044   -5.9298 O   0  0  0  0  0  0  0  0  0  0  0  0
    0.8136   -4.2119   -7.2177 O   0  0  0  0  0  0  0  0  0  0  0  0
   -2.7299    2.7165   -3.4582 O   0  0  0  0  0  0  0  0  0  0  0  0
   -1.8211    4.6765   -3.9023 O   0  0  0  0  0  0  0  0  0  0  0  0
  4  3  1  0
  5  3  2  0
  8  1  1  0
  8  4  2  0
  9  2  1  6
  9  5  1  0
 10  6  1  6
 11  7  1  0
 11 10  1  0
 11  8  1  6
 12  6  1  0
 13 10  1  0
 13 15  1  1
 14  9  1  0
 16  7  1  0
 16 13  1  0
 17 12  2  0
 18 12  1  0
 19 14  2  0
 20 14  1  0
 21 15  2  0
 22 15  1  0
M  END
>  <DRUGBANK_ID>  (1) 
DB02852

>  <SECONDARY_ACCESSION_NUMBERS>  (1) 
EXPT01248

>  <COMMON_NAME>  (1) 
Domoic Acid

>  <CAS_NUMBER>  (1) 
14277-97-5

>  <UNII>  (1) 
M02525818H

>  <SYNONYMS>  (1) 
(-)-domoic acid; L-domoic acid

$$$$
