
     RDKit          3D

 29 31  0  0  0  0  0  0  0  0999 V2000
    0.8881    0.0039   -0.0151 C   0  0  0  0  0  0  0  0  0  0  0  0
    0.1428    1.2891   -0.0551 C   0  0  0  0  0  0  0  0  0  0  0  0
    0.2954    2.1636   -1.1406 C   0  0  0  0  0  0  0  0  0  0  0  0
   -0.4494    3.3360   -1.2082 C   0  0  0  0  0  0  0  0  0  0  0  0
   -1.3927    3.6133   -0.2214 C   0  0  0  0  0  0  0  0  0  0  0  0
   -1.5771    2.7314    0.8435 C   0  0  0  0  0  0  0  0  0  0  0  0
   -0.7834    1.5911    0.9505 C   0  0  0  0  0  0  0  0  0  0  0  0
    0.1203   -1.2596   -0.0014 C   0  0  0  0  0  0  0  0  0  0  0  0
    0.2076   -2.1229    1.0846 C   0  0  0  0  0  0  0  0  0  0  0  0
   -0.5675   -3.2759    1.1211 C   0  0  0  0  0  0  0  0  0  0  0  0
   -1.4475   -3.6325    0.0851 C   0  0  0  0  0  0  0  0  0  0  0  0
   -1.5767   -2.6899   -0.9462 C   0  0  0  0  0  0  0  0  0  0  0  0
   -0.7738   -1.5500   -1.0250 C   0  0  0  0  0  0  0  0  0  0  0  0
    2.2486   -0.0227   -0.0287 C   0  0  0  0  0  0  0  0  0  0  0  0
    3.0293    1.2033    0.0500 C   0  0  0  0  0  0  0  0  0  0  0  0
    4.3344    1.2097   -0.2542 C   0  0  0  0  0  0  0  0  0  0  0  0
    5.0054   -0.0507   -0.7139 C   0  0  0  0  0  0  0  0  0  0  0  0
    4.2998   -1.3088   -0.3457 C   0  0  0  0  0  0  0  0  0  0  0  0
    2.9957   -1.2734   -0.0460 C   0  0  0  0  0  0  0  0  0  0  0  0
   -3.0883   -5.2160   -0.9600 C   0  0  0  0  0  0  0  0  0  0  0  0
   -1.8558   -5.8570    1.1309 C   0  0  0  0  0  0  0  0  0  0  0  0
    6.8423   -1.3076   -1.8033 C   0  0  0  0  0  0  0  0  0  0  0  0
    6.8005    1.2499   -1.7774 C   0  0  0  0  0  0  0  0  0  0  0  0
   -2.1064   -4.8564    0.0765 N   0  0  0  0  0  0  0  0  0  0  0  0
    6.1219   -0.0437   -1.3899 N   0  0  0  0  0  0  0  0  0  0  0  0
   -2.6476   -6.4381   -1.7516 C   0  0  0  0  0  0  0  0  0  0  0  0
   -0.4247   -6.3994    1.0884 C   0  0  0  0  0  0  0  0  0  0  0  0
    5.9541    2.0353   -2.7724 C   0  0  0  0  0  0  0  0  0  0  0  0
    6.9641   -1.4027   -3.3092 C   0  0  0  0  0  0  0  0  0  0  0  0
  1  2  1  0
  1  8  1  0
  1 14  2  3
  2  3  2  0
  2  7  1  0
  3  4  1  0
  4  5  2  0
  5  6  1  0
  6  7  2  0
  8  9  2  0
  8 13  1  0
  9 10  1  0
 10 11  2  0
 11 12  1  0
 11 24  1  0
 12 13  2  0
 14 15  1  0
 14 19  1  0
 15 16  2  0
 16 17  1  0
 17 18  1  0
 17 25  2  3
 18 19  2  0
 20 24  1  0
 20 26  1  0
 21 24  1  0
 21 27  1  0
 22 25  1  0
 22 29  1  0
 23 25  1  0
 23 28  1  0
M  CHG  1  25   1
M  END
>  <DRUGBANK_ID>  (1) 
DB11279

>  <COMMON_NAME>  (1) 
Brilliant green cation

>  <CAS_NUMBER>  (1) 
18198-35-1

>  <UNII>  (1) 
S85JD8CLBH

>  <SYNONYMS>  (1) 
Brilliant green ion; Brilliant green, free form; Brilliant green(1+)

$$$$
