
     RDKit          3D

 10  9  0  0  0  0  0  0  0  0999 V2000
    1.0323    0.0444   -0.0604 O   0  0  0  0  0  0  0  0  0  0  0  0
    0.6344   -1.1361    0.6267 C   0  0  0  0  0  0  0  0  0  0  0  0
    1.1556   -2.3586   -0.1408 C   0  0  0  0  0  0  0  0  0  0  0  0
    2.6657   -2.3445   -0.1897 C   0  0  0  0  0  0  0  0  0  0  0  0
    3.2685   -3.4114    0.3702 O   0  0  0  0  0  0  0  0  0  0  0  0
    3.3111   -1.4055   -0.6366 O   0  0  0  0  0  0  0  0  0  0  0  0
    1.0827   -1.1409    2.0914 C   0  0  0  0  0  0  0  0  0  0  0  0
    0.5894    0.0725    2.8434 C   0  0  0  0  0  0  0  0  0  0  0  0
   -0.1893   -0.1999    3.9125 O   0  0  0  0  0  0  0  0  0  0  0  0
    0.8993    1.2220    2.5617 O   0  0  0  0  0  0  0  0  0  0  0  0
  1  2  1  0
  2  3  1  0
  2  7  1  0
  3  4  1  0
  4  5  1  0
  4  6  2  0
  7  8  1  0
  8  9  1  0
  8 10  2  0
M  END
>  <DRUGBANK_ID>  (1) 
DB04594

>  <COMMON_NAME>  (1) 
3-hydroxyglutaric acid

>  <CAS_NUMBER>  (1) 
638-18-6

>  <UNII>  (1) 
C3FG9S37DY

$$$$
