1BH
     RDKit          3D

 34 36  0  0  0  0  0  0  0  0999 V2000
   -1.8315    1.7572   -3.4828 C   0  0  0  0  0  0  0  0  0  0  0  0
   -1.7771    2.7047   -1.1536 C   0  0  0  0  0  0  0  0  0  0  0  0
   -1.2271    8.6862   -3.6680 O   0  0  0  0  0  0  0  0  0  0  0  0
    1.0222   12.0702   -3.7670 O   0  0  0  0  0  0  0  0  0  0  0  0
   -0.1883    8.7864   -3.0030 C   0  0  0  0  0  0  0  0  0  0  0  0
    1.2211   10.6146   -1.7899 C   0  0  1  0  0  0  0  0  0  0  0  0
    1.9617   11.4106   -2.9193 C   0  0  1  0  0  0  0  0  0  0  0  0
   -0.3819    1.3665   -3.7119 C   0  0  0  0  0  0  0  0  0  0  0  0
   -0.0138    0.1693   -4.3073 C   0  0  0  0  0  0  0  0  0  0  0  0
    2.3459    0.8379   -4.2924 C   0  0  0  0  0  0  0  0  0  0  0  0
   -1.0481    3.7460   -1.6522 N   0  0  0  0  0  0  0  0  0  0  0  0
   -0.1893    4.6387   -0.8831 C   0  0  1  0  0  0  0  0  0  0  0  0
    1.3324    4.3107   -0.8369 C   0  0  0  0  0  0  0  0  0  0  0  0
   -0.3371    6.0651   -1.4374 C   0  0  0  0  0  0  0  0  0  0  0  0
   -0.6504    6.9728   -0.6624 O   0  0  0  0  0  0  0  0  0  0  0  0
    0.1141    6.3439   -2.7223 N   0  0  0  0  0  0  0  0  0  0  0  0
    0.0613    5.6152   -3.9688 C   0  0  0  0  0  0  0  0  0  0  0  0
    0.8116    7.6025   -2.9566 C   0  0  1  0  0  0  0  0  0  0  0  0
    1.5346    7.4115   -4.3121 C   0  0  0  0  0  0  0  0  0  0  0  0
    1.3719    5.9416   -4.6397 C   0  0  0  0  0  0  0  0  0  0  0  0
    0.0131    9.9612   -2.3378 N   0  0  0  0  0  0  0  0  0  0  0  0
    2.0970    9.6068   -1.0330 C   0  0  0  0  0  0  0  0  0  0  0  0
    3.2780   10.0841   -0.2600 C   0  0  0  0  0  0  0  0  0  0  0  0
    3.7565   11.3844   -0.3815 C   0  0  0  0  0  0  0  0  0  0  0  0
    3.9721    9.1839    0.5471 C   0  0  0  0  0  0  0  0  0  0  0  0
    4.9030   11.8087    0.2455 C   0  0  0  0  0  0  0  0  0  0  0  0
    5.0443    9.6492    1.3009 C   0  0  0  0  0  0  0  0  0  0  0  0
    5.5287   10.9479    1.1222 C   0  0  0  0  0  0  0  0  0  0  0  0
    2.8903   10.5293   -3.7298 C   0  0  0  0  0  0  0  0  0  0  0  0
   -2.2425    1.8280   -2.0961 O   0  0  0  0  0  0  0  0  0  0  0  0
    0.6765    2.2153   -3.3856 C   0  0  0  0  0  0  0  0  0  0  0  0
    1.3437   -0.0974   -4.5679 C   0  0  0  0  0  0  0  0  0  0  0  0
    2.0002    2.0339   -3.7310 C   0  0  0  0  0  0  0  0  0  0  0  0
   -2.0096    2.5554    0.0226 O   0  0  0  0  0  0  0  0  0  0  0  0
  1  8  1  0
  1 30  1  0
  2 11  1  0
  2 30  1  0
  2 34  2  0
  3  5  2  0
  5 21  1  0
  6 22  1  6
  6 21  1  0
  6  7  1  0
  7 29  1  6
  7  4  1  0
  8  9  2  0
  8 31  1  0
  9 32  1  0
 10 32  2  0
 10 33  1  0
 11 12  1  0
 12 13  1  6
 12 14  1  0
 14 15  2  0
 14 16  1  0
 16 17  1  0
 16 18  1  0
 17 20  1  0
 18 19  1  0
 18  5  1  6
 19 20  1  0
 22 23  1  0
 23 24  2  0
 23 25  1  0
 24 26  1  0
 25 27  2  0
 26 28  2  0
 27 28  1  0
 31 33  2  0
M  END
>  <DRUGBANK_ID>  (1) 
DB06886

>  <COMMON_NAME>  (1) 
N-BENZYLOXYCARBONYL-ALA-PRO-3-AMINO-4-PHENYL-BUTAN-2-OL

$$$$
