
     RDKit          3D

 33 36  0  0  1  0  0  0  0  0999 V2000
    0.9238    0.3680    0.0411 N   0  0  0  0  0  0  0  0  0  0  0  0
    0.3133    1.4341   -0.5863 C   0  0  0  0  0  0  0  0  0  0  0  0
    0.7081    1.9017   -1.6851 N   0  0  0  0  0  0  0  0  0  0  0  0
    0.0183    2.9645   -2.2393 C   0  0  0  0  0  0  0  0  0  0  0  0
   -0.6204    4.0341   -1.5495 C   0  0  0  0  0  0  0  0  0  0  0  0
   -1.1041    5.5187   -2.2838 N   0  0  0  0  0  0  0  0  0  0  0  0
   -0.2058    7.0204   -3.0080 C   0  0  0  0  0  0  0  0  0  0  0  0
    1.2132    6.6196   -3.6226 N   0  0  0  0  0  0  0  0  0  0  0  0
    0.9336    5.4309   -2.9387 C   0  0  0  0  0  0  0  0  0  0  0  0
   -0.7436    5.0888   -3.5710 C   0  0  1  0  0  0  0  0  0  0  0  0
   -0.9828    3.7361   -4.1727 C   0  0  0  0  0  0  0  0  0  0  0  0
    0.0343    2.9122   -3.6301 N   0  0  0  0  0  0  0  0  0  0  0  0
    1.5662    6.1401   -4.9166 C   0  0  0  0  0  0  0  0  0  0  0  0
    0.6838    5.4984   -5.7313 C   0  0  0  0  0  0  0  0  0  0  0  0
    1.0187    4.5196   -6.6533 C   0  0  0  0  0  0  0  0  0  0  0  0
    2.2238    4.4833   -7.2763 C   0  0  0  0  0  0  0  0  0  0  0  0
    3.1224    5.4084   -6.7366 C   0  0  0  0  0  0  0  0  0  0  0  0
    2.8270    6.1525   -5.5188 C   0  0  0  0  0  0  0  0  0  0  0  0
    2.4899    3.6878   -8.5294 C   0  0  0  0  0  0  0  0  0  0  0  0
    3.5385    3.9070   -9.1374 O   0  0  0  0  0  0  0  0  0  0  0  0
    1.6163    2.7619   -9.0800 N   0  0  0  0  0  0  0  0  0  0  0  0
    0.3524    2.1715   -8.6251 C   0  0  1  0  0  0  0  0  0  0  0  0
   -0.8173    2.4797   -9.5602 C   0  0  0  0  0  0  0  0  0  0  0  0
   -0.7497    1.7471  -10.8805 C   0  0  0  0  0  0  0  0  0  0  0  0
   -0.7780    0.2454  -10.7435 C   0  0  0  0  0  0  0  0  0  0  0  0
   -2.0039   -0.3043  -10.8308 O   0  0  0  0  0  0  0  0  0  0  0  0
    0.2118   -0.4256  -10.5727 O   0  0  0  0  0  0  0  0  0  0  0  0
    0.5085    0.8199   -7.9073 C   0  0  0  0  0  0  0  0  0  0  0  0
   -0.2398    0.7272   -6.7768 O   0  0  0  0  0  0  0  0  0  0  0  0
    1.2845   -0.0706   -8.2263 O   0  0  0  0  0  0  0  0  0  0  0  0
   -1.2614    3.2939   -0.3416 C   0  0  0  0  0  0  0  0  0  0  0  0
   -2.2824    3.6987    0.2427 O   0  0  0  0  0  0  0  0  0  0  0  0
   -0.7163    2.0603    0.0608 N   0  0  0  0  0  0  0  0  0  0  0  0
  1  2  1  0
  2  3  2  0
  2 33  1  0
  3  4  1  0
  4  5  2  0
  4 12  1  0
  5  6  1  0
  5 31  1  0
  6  7  1  0
  6 10  1  0
  7  8  1  0
  8  9  1  0
  8 13  1  0
 10  9  1  1
 10 11  1  0
 11 12  1  0
 13 14  2  0
 13 18  1  0
 14 15  1  0
 15 16  2  0
 16 17  1  0
 16 19  1  0
 17 18  2  0
 19 20  2  0
 19 21  1  0
 22 21  1  0
 22 23  1  6
 22 28  1  0
 23 24  1  0
 24 25  1  0
 25 26  1  0
 25 27  2  0
 28 29  1  0
 28 30  2  0
 31 32  2  0
 31 33  1  0
M  END
>  <DRUGBANK_ID>  (1) 
DB17113

>  <COMMON_NAME>  (1) 
Folitixorin

>  <CAS_NUMBER>  (1) 
3432-99-3

>  <UNII>  (1) 
0SXY5ET48B

>  <SYNONYMS>  (1) 
5,10-methylene-(6rs)-tetrahydrofolic acid; 5,10-methylene-5,6,7,8-tetrahydrofolic acid; 5,10-methylenetetrafolate; 5,10-methylenetetrahydrofolic acid; Folic acid, tetrahydro-n5,n10-methylene-; L-glutamic acid, n-(4-(3-amino-1,2,5,6,6a,7-hexahydro-1-oxoimidazo(1,5-f)pteridin-8(9h)-yl)benzoyl)-; N5,n10-methylene-5,6,7,8-tetrahydrofolic acid; N5,n10-methylenetetrahydrofolic acid; N5,n10-methylenetetrahydropteroylglutamic acid

$$$$
