
     RDKit          3D

 23 25  0  0  0  0  0  0  0  0999 V2000
    0.7684   -1.3131    0.3762 C   0  0  0  0  0  0  0  0  0  0  0  0
   -0.5580   -0.9666    0.3087 C   0  0  0  0  0  0  0  0  0  0  0  0
    1.5537   -2.5229    0.1149 N   0  0  0  0  0  0  0  0  0  0  0  0
    1.6553   -0.0309    0.3297 C   0  0  0  0  0  0  0  0  0  0  0  0
   -1.1100    0.4844    0.2460 C   0  0  0  0  0  0  0  0  0  0  0  0
   -1.6943   -1.9381    0.0049 C   0  0  0  0  0  0  0  0  0  0  0  0
    2.0037   -3.6236    0.9613 C   0  0  0  0  0  0  0  0  0  0  0  0
    1.3933   -3.9275   -0.3624 C   0  0  0  0  0  0  0  0  0  0  0  0
    1.0991    1.3958    0.1419 C   0  0  0  0  0  0  0  0  0  0  0  0
    2.8782   -0.1769    0.2742 O   0  0  0  0  0  0  0  0  0  0  0  0
   -0.2106    1.7009    0.1079 C   0  0  0  0  0  0  0  0  0  0  0  0
   -2.3272    0.6703    0.1432 O   0  0  0  0  0  0  0  0  0  0  0  0
   -1.6228   -2.5935   -1.4262 C   0  0  0  0  0  0  0  0  0  0  0  0
   -2.0221   -2.7805    1.1408 O   0  0  0  0  0  0  0  0  0  0  0  0
    2.1372    2.4631   -0.1050 C   0  0  0  0  0  0  0  0  0  0  0  0
   -0.9441    2.8456   -0.2361 N   0  0  0  0  0  0  0  0  0  0  0  0
   -0.3496   -3.0022   -2.0109 O   0  0  0  0  0  0  0  0  0  0  0  0
   -0.9322   -3.5405    1.5714 C   0  0  0  0  0  0  0  0  0  0  0  0
   -0.6729    4.1512   -0.7783 C   0  0  0  0  0  0  0  0  0  0  0  0
   -1.2757    3.9794    0.6080 C   0  0  0  0  0  0  0  0  0  0  0  0
    0.7134   -2.2539   -2.4571 C   0  0  0  0  0  0  0  0  0  0  0  0
    0.5711   -0.9033   -2.3948 N   0  0  0  0  0  0  0  0  0  0  0  0
    1.7880   -2.7100   -2.7519 O   0  0  0  0  0  0  0  0  0  0  0  0
  1  2  2  0
  1  3  1  0
  1  4  1  0
  2  5  1  0
  2  6  1  0
  3  7  1  0
  3  8  1  0
  4  9  1  0
  4 10  2  0
  5 11  1  0
  5 12  2  0
  6 13  1  0
  6 14  1  0
  7  8  1  0
  9 15  1  0
  9 11  2  0
 11 16  1  0
 13 17  1  0
 14 18  1  0
 16 19  1  0
 16 20  1  0
 17 21  1  0
 19 20  1  0
 21 22  1  0
 21 23  2  0
M  END
>  <DRUGBANK_ID>  (1) 
DB13677

>  <COMMON_NAME>  (1) 
Carboquone

>  <CAS_NUMBER>  (1) 
24279-91-2

>  <UNII>  (1) 
1CB0HBT12C

>  <SYNONYMS>  (1) 
Carboquona; Carboquone; Carboquonum

$$$$
