
     RDKit          3D

  9  8  0  0  1  0  0  0  0  0999 V2000
    0.8214    2.2223   -0.9347 O   0  0  0  0  0  0  0  0  0  0  0  0
    0.4766    0.8189   -1.1526 C   0  0  2  0  0  0  0  0  0  0  0  0
    1.0006   -0.0339   -0.0119 C   0  0  0  0  0  0  0  0  0  0  0  0
    1.7546   -1.1558    0.0636 C   0  0  0  0  0  0  0  0  0  0  0  0
    2.2661   -1.6684   -1.1293 O   0  0  0  0  0  0  0  0  0  0  0  0
    1.9922   -1.7573    1.1532 O   0  0  0  0  0  0  0  0  0  0  0  0
    0.8510    0.3656   -2.5917 C   0  0  0  0  0  0  0  0  0  0  0  0
   -0.1151    0.0334   -3.3473 O   0  0  0  0  0  0  0  0  0  0  0  0
    2.0951    0.3397   -2.8691 O   0  0  0  0  0  0  0  0  0  0  0  0
  2  7  1  0
  2  3  1  0
  2  1  1  1
  3  4  2  0
  4  5  1  0
  4  6  1  0
  7  8  1  0
  7  9  2  0
M  CHG  2   6  -1   8  -1
M  END
>  <DRUGBANK_ID>  (1) 
DB03343

>  <SECONDARY_ACCESSION_NUMBERS>  (1) 
EXPT03039

>  <COMMON_NAME>  (1) 
Malate Like Intermediate

$$$$
