
     RDKit          3D

 25 27  0  0  0  0  0  0  0  0999 V2000
   -1.5735   -1.1981   -0.0055 C   0  0  0  0  0  0  0  0  0  0  0  0
   -2.4405    0.0020   -0.0106 C   0  0  0  0  0  0  0  0  0  0  0  0
   -1.6748    1.1226    0.0062 C   0  0  0  0  0  0  0  0  0  0  0  0
   -0.2580    0.7052   -0.0020 C   0  0  0  0  0  0  0  0  0  0  0  0
   -0.1867   -0.6926   -0.0354 C   0  0  0  0  0  0  0  0  0  0  0  0
    0.9151    1.4561    0.0017 C   0  0  0  0  0  0  0  0  0  0  0  0
    2.1432    0.7890    0.0024 C   0  0  0  0  0  0  0  0  0  0  0  0
    2.2177   -0.5937   -0.0398 C   0  0  0  0  0  0  0  0  0  0  0  0
    1.0451   -1.3267   -0.1093 C   0  0  0  0  0  0  0  0  0  0  0  0
   -1.9611   -2.4948    0.0468 C   0  0  0  0  0  0  0  0  0  0  0  0
   -1.0494   -3.6651    0.1161 C   0  0  0  0  0  0  0  0  0  0  0  0
   -0.1344   -3.8037    1.1701 C   0  0  0  0  0  0  0  0  0  0  0  0
    0.9690   -4.6645    1.0401 C   0  0  0  0  0  0  0  0  0  0  0  0
    1.0814   -5.5359   -0.0511 C   0  0  0  0  0  0  0  0  0  0  0  0
    0.0456   -5.5484   -0.9886 C   0  0  0  0  0  0  0  0  0  0  0  0
   -0.9790   -4.5832   -0.9379 C   0  0  0  0  0  0  0  0  0  0  0  0
    2.6250   -6.4724   -0.2153 S   0  0  0  0  0  0  0  0  0  0  0  0
    2.7081   -7.3171    1.0203 O   0  0  0  0  0  0  0  0  0  0  0  0
    2.3182   -7.5511   -1.6228 C   0  0  0  0  0  0  0  0  0  0  0  0
   -2.0868    2.5633    0.0279 C   0  0  0  0  0  0  0  0  0  0  0  0
   -1.6365    3.2524    1.3037 C   0  0  0  0  0  0  0  0  0  0  0  0
   -0.8783    4.3562    1.1118 O   0  0  0  0  0  0  0  0  0  0  0  0
   -1.9372    2.8727    2.4334 O   0  0  0  0  0  0  0  0  0  0  0  0
    3.2827    1.4912    0.0123 F   0  0  0  0  0  0  0  0  0  0  0  0
   -3.9358   -0.0580   -0.0120 C   0  0  0  0  0  0  0  0  0  0  0  0
  1  2  1  0
  1  5  1  0
  1 10  2  0
  2  3  2  0
  2 25  1  0
  3  4  1  0
  3 20  1  0
  5  4  2  0
  6  4  1  0
  6  7  2  0
  7  8  1  0
  7 24  1  0
  8  9  2  0
  9  5  1  0
 10 11  1  0
 12 11  2  0
 12 13  1  0
 13 14  2  0
 14 15  1  0
 14 17  1  0
 15 16  2  0
 16 11  1  0
 17 18  2  0
 17 19  1  0
 20 21  1  0
 21 22  1  0
 21 23  2  0
M  END
>  <DRUGBANK_ID>  (1) 
DB00605

>  <SECONDARY_ACCESSION_NUMBERS>  (1) 
APRD01243

>  <COMMON_NAME>  (1) 
Sulindac

>  <CAS_NUMBER>  (1) 
38194-50-2

>  <UNII>  (1) 
184SNS8VUH

>  <SYNONYMS>  (1) 
(Z)-5-Fluoro-2-methyl-1-((p-(methylsulfinyl)phenyl)methylene)-1H-indene-3-acetic acid; cis-5-Fluoro-2-methyl-1-((4-(methylsulfinyl)phenyl)methylene)-1H-indene-3-acetic acid; cis-5-Fluoro-2-methyl-1-((p-methylsulfinyl)benzylidene)indene-3-acetic acid; Sulindac; Sulindaco; Sulindacum

$$$$
