
     RDKit          3D

 19 19  0  0  0  0  0  0  0  0999 V2000
    0.9318    0.0369    0.0632 P   0  0  0  0  0  0  0  0  0  0  0  0
   -0.3945    0.5055   -2.5318 O   0  0  0  0  0  0  0  0  0  0  0  0
    1.0682   -0.8427   -1.3017 O   0  0  0  0  0  0  0  0  0  0  0  0
    0.9250   -0.9933    1.3121 O   0  0  0  0  0  0  0  0  0  0  0  0
   -0.7982    0.0369    0.0632 O   0  0  0  0  0  0  0  0  0  0  0  0
    2.4802    0.0369    0.0632 O   0  0  0  0  0  0  0  0  0  0  0  0
   -1.2267   -2.2271   -0.7841 C   0  0  0  0  0  0  0  0  0  0  0  0
   -2.1688    1.6376   -4.3372 C   0  0  0  0  0  0  0  0  0  0  0  0
   -2.0147   -1.3101   -1.7343 C   0  0  0  0  0  0  0  0  0  0  0  0
   -2.5300    0.4864   -3.3852 C   0  0  0  0  0  0  0  0  0  0  0  0
   -1.5926   -0.1884   -2.5586 C   0  0  0  0  0  0  0  0  0  0  0  0
   -3.3761   -1.6421   -1.7236 C   0  0  0  0  0  0  0  0  0  0  0  0
   -3.8622    0.0296   -3.3795 C   0  0  0  0  0  0  0  0  0  0  0  0
   -1.5041   -2.3421    0.7472 C   0  0  0  0  0  0  0  0  0  0  0  0
   -0.7345   -3.5235   -1.3799 C   0  0  0  0  0  0  0  0  0  0  0  0
   -2.3695    1.1780   -5.7890 C   0  0  0  0  0  0  0  0  0  0  0  0
   -2.9944    2.9064   -4.0687 C   0  0  0  0  0  0  0  0  0  0  0  0
   -4.2681   -1.0085   -2.5607 C   0  0  0  0  0  0  0  0  0  0  0  0
    0.8382   -0.1812   -2.5074 C   0  0  0  0  0  0  0  0  0  0  0  0
  1  3  1  0
  1  4  1  0
  1  5  1  0
  1  6  2  0
  2 11  1  0
  2 19  1  0
  3 19  1  0
  7  9  1  0
  7 14  1  0
  7 15  1  0
  8 10  1  0
  8 16  1  0
  8 17  1  0
  9 11  2  0
  9 12  1  0
 10 11  1  0
 10 13  2  0
 12 18  2  0
 13 18  1  0
M  END
>  <DRUGBANK_ID>  (1) 
DB06716

>  <SECONDARY_ACCESSION_NUMBERS>  (1) 
DB05279

>  <COMMON_NAME>  (1) 
Fospropofol

>  <CAS_NUMBER>  (1) 
258516-89-1

>  <UNII>  (1) 
LZ257RZP7K

>  <SYNONYMS>  (1) 
Fospropofol

$$$$
