
     RDKit          3D

 27 28  0  0  0  0  0  0  0  0999 V2000
    0.6263    4.9040    0.6550 C   0  0  1  0  0  0  0  0  0  0  0  0
    0.6648    5.9879    1.6075 O   0  0  0  0  0  0  0  0  0  0  0  0
    1.4314    3.7144    1.2204 C   0  0  1  0  0  0  0  0  0  0  0  0
    2.9114    5.3505    2.3803 C   0  0  2  0  0  0  0  0  0  0  0  0
    2.8758    4.1367    1.4424 C   0  0  1  0  0  0  0  0  0  0  0  0
   -0.8232    4.4924    0.2340 C   0  0  2  0  0  0  0  0  0  0  0  0
    0.1075    2.8615   -1.3791 C   0  0  0  0  0  0  0  0  0  0  0  0
   -0.8183    3.1576   -0.4045 N   0  0  0  0  0  0  0  0  0  0  0  0
    2.0094    6.4836    1.8185 C   0  0  1  0  0  0  0  0  0  0  0  0
    0.6700    1.3896   -3.3195 N   0  0  0  0  0  0  0  0  0  0  0  0
    0.1005    1.4399   -1.9536 C   0  0  1  0  0  0  0  0  0  0  0  0
    2.1197    1.4957   -3.1561 C   0  0  0  0  0  0  0  0  0  0  0  0
    0.9564    3.7053   -1.7010 O   0  0  0  0  0  0  0  0  0  0  0  0
    1.0438    0.5192   -1.1851 C   0  0  0  0  0  0  0  0  0  0  0  0
   -1.4477    5.5439   -0.7298 C   0  0  1  0  0  0  0  0  0  0  0  0
    2.8346    7.1592    0.2928 S   0  0  0  0  0  0  0  0  0  0  0  0
    2.3815    0.6227   -1.9347 C   0  0  1  0  0  0  0  0  0  0  0  0
    4.2542    5.8002    2.5729 O   0  0  0  0  0  0  0  0  0  0  0  0
    0.8502    3.2214    2.4376 O   0  0  0  0  0  0  0  0  0  0  0  0
    3.6289    3.0382    1.9630 O   0  0  0  0  0  0  0  0  0  0  0  0
    0.1427    2.4151   -4.2063 C   0  0  0  0  0  0  0  0  0  0  0  0
   -3.1233    5.0605   -1.1800 Cl  0  0  0  0  0  0  0  0  0  0  0  0
    2.9562   -0.7495   -2.3193 C   0  0  0  0  0  0  0  0  0  0  0  0
    2.0036    8.7318    0.0460 C   0  0  0  0  0  0  0  0  0  0  0  0
   -1.5056    6.9460   -0.1519 C   0  0  0  0  0  0  0  0  0  0  0  0
    4.4244   -0.8156   -1.9066 C   0  0  0  0  0  0  0  0  0  0  0  0
    4.5717   -0.7329   -0.3899 C   0  0  0  0  0  0  0  0  0  0  0  0
  1  2  1  1
  3  1  1  0
  3 19  1  1
  4  5  1  0
  4 18  1  6
  5  3  1  0
  5 20  1  1
  6  8  1  6
  6  1  1  0
  7  8  1  0
  9  2  1  0
  9  4  1  0
  9 16  1  6
 10 11  1  0
 11  7  1  1
 12 10  1  0
 12 17  1  0
 13  7  2  0
 14 11  1  0
 15  6  1  0
 15 22  1  0
 17 14  1  0
 17 23  1  6
 21 10  1  0
 24 16  1  0
 15 25  1  1
 26 23  1  0
 27 26  1  0
M  END
>  <DRUGBANK_ID>  (1) 
DB01190

>  <SECONDARY_ACCESSION_NUMBERS>  (1) 
APRD00566

>  <COMMON_NAME>  (1) 
Clindamycin

>  <CAS_NUMBER>  (1) 
18323-44-9

>  <UNII>  (1) 
3U02EL437C

>  <SYNONYMS>  (1) 
7-CDL; 7(S)-Chloro-7-deoxylincomycin; Clindamicina; Clindamycin; Clindamycine; Clindamycinum; Methyl 7-chloro-6,7,8-trideoxy-6-(1-methyl-trans-4-propyl-L-2-pyrrolidinecarboxamido)-1-thio-L-threo-alpha-D-galacto-octopyranoside

$$$$
