
     RDKit          3D

 24 27  0  0  0  0  0  0  0  0999 V2000
    1.0851   -0.1174   -0.2163 C   0  0  0  0  0  0  0  0  0  0  0  0
    0.5553    0.1916   -1.5324 N   0  0  0  0  0  0  0  0  0  0  0  0
   -0.9219    0.2765   -1.4898 C   0  0  0  0  0  0  0  0  0  0  0  0
   -1.4444    1.4278   -0.6484 C   0  0  0  0  0  0  0  0  0  0  0  0
   -2.0674    1.1358    0.5464 C   0  0  0  0  0  0  0  0  0  0  0  0
   -2.3155    2.1544    1.4569 C   0  0  0  0  0  0  0  0  0  0  0  0
   -1.6152    3.3705    1.4226 C   0  0  0  0  0  0  0  0  0  0  0  0
   -1.2047    3.7472    0.1377 C   0  0  0  0  0  0  0  0  0  0  0  0
   -1.2143    2.7849   -0.9221 C   0  0  0  0  0  0  0  0  0  0  0  0
   -1.0972    3.8979    2.8249 C   0  0  0  0  0  0  0  0  0  0  0  0
   -0.3429    3.0770    3.7582 C   0  0  0  0  0  0  0  0  0  0  0  0
   -1.4013    2.2351    4.2910 C   0  0  0  0  0  0  0  0  0  0  0  0
   -1.6373    0.8155    4.3546 C   0  0  0  0  0  0  0  0  0  0  0  0
   -2.9486    0.3993    4.6961 C   0  0  0  0  0  0  0  0  0  0  0  0
   -3.9512    1.3312    4.9666 C   0  0  0  0  0  0  0  0  0  0  0  0
   -3.7444    2.7102    4.8512 C   0  0  0  0  0  0  0  0  0  0  0  0
   -2.4802    3.1149    4.4164 C   0  0  0  0  0  0  0  0  0  0  0  0
   -2.0434    4.2955    3.8053 N   0  0  0  0  0  0  0  0  0  0  0  0
   -5.1890    0.8921    5.2415 F   0  0  0  0  0  0  0  0  0  0  0  0
   -0.7152   -0.2269    3.7488 C   0  0  0  0  0  0  0  0  0  0  0  0
   -1.0826   -1.4256    3.7361 O   0  0  0  0  0  0  0  0  0  0  0  0
    0.4906    0.0752    3.1264 N   0  0  0  0  0  0  0  0  0  0  0  0
    0.7463    1.3825    2.5757 C   0  0  0  0  0  0  0  0  0  0  0  0
    1.0068    2.4557    3.5818 C   0  0  0  0  0  0  0  0  0  0  0  0
  1  2  1  0
  2  3  1  0
  3  4  1  0
  4  5  2  0
  4  9  1  0
  5  6  1  0
  6  7  2  0
  7  8  1  0
  7 10  1  0
  8  9  2  0
 10 11  2  0
 10 18  1  0
 11 12  1  0
 11 24  1  0
 12 13  1  0
 12 17  2  0
 13 14  2  0
 13 20  1  0
 14 15  1  0
 15 16  2  0
 15 19  1  0
 16 17  1  0
 17 18  1  0
 20 21  2  0
 20 22  1  0
 22 23  1  0
 23 24  1  0
M  END
>  <DRUGBANK_ID>  (1) 
DB12332

>  <COMMON_NAME>  (1) 
Rucaparib

>  <CAS_NUMBER>  (1) 
283173-50-2

>  <UNII>  (1) 
8237F3U7EH

>  <SYNONYMS>  (1) 
Rucaparib

$$$$
