ZEC
     RDKit          3D

 14 15  0  0  0  0  0  0  0  0999 V2000
   -3.2995    0.8646    0.0048 O   0  0  0  0  0  0  0  0  0  0  0  0
   -2.0864    0.2371   -0.0025 C   0  0  0  0  0  0  0  0  0  0  0  0
   -0.9500    1.0487   -0.0066 C   0  0  0  0  0  0  0  0  0  0  0  0
    0.3092    0.4228   -0.0080 C   0  0  0  0  0  0  0  0  0  0  0  0
    1.8891    1.1200   -0.0267 S   0  0  0  0  0  0  0  0  0  0  0  0
    2.5755   -0.4450   -0.0243 C   0  0  0  0  0  0  0  0  0  0  0  0
    4.3534   -0.6147   -0.0307 S   0  0  0  0  0  0  0  0  0  0  0  0
    4.8069   -1.4717    1.3583 N   0  0  0  0  0  0  0  0  0  0  0  0
    4.6902   -1.4481   -1.1606 O   0  0  0  0  0  0  0  0  0  0  0  0
    4.9307    0.7030    0.1398 O   0  0  0  0  0  0  0  0  0  0  0  0
    1.7279   -1.4541    0.0243 N   0  0  0  0  0  0  0  0  0  0  0  0
    0.4338   -0.9695    0.0045 C   0  0  0  0  0  0  0  0  0  0  0  0
   -0.7355   -1.7579    0.0007 C   0  0  0  0  0  0  0  0  0  0  0  0
   -1.9947   -1.1479   -0.0054 C   0  0  0  0  0  0  0  0  0  0  0  0
  1  2  1  0
  2  3  2  0
  2 14  1  0
  3  4  1  0
  4  5  1  0
  4 12  2  0
  5  6  1  0
  6  7  1  0
  6 11  2  0
  7  8  1  0
  7  9  2  0
  7 10  2  0
 11 12  1  0
 12 13  1  0
 13 14  2  0
M  END
>  <DRUGBANK_ID>  (1) 
DB08765

>  <COMMON_NAME>  (1) 
6-HYDROXY-1,3-BENZOTHIAZOLE-2-SULFONAMIDE

$$$$
