
     RDKit          3D

 12 11  0  0  0  0  0  0  0  0999 V2000
    0.8278   -0.1246   -0.0267 C   0  0  0  0  0  0  0  0  0  0  0  0
    0.2629    0.9107    0.9966 C   0  0  0  0  0  0  0  0  0  0  0  0
    0.7254    0.3806   -1.3278 O   0  0  0  0  0  0  0  0  0  0  0  0
    1.8650    1.1599   -1.7276 N   0  0  0  0  0  0  0  0  0  0  0  0
    2.6241    1.9152   -0.8491 C   0  0  0  0  0  0  0  0  0  0  0  0
    3.2202    1.3870    0.2573 N   0  0  0  0  0  0  0  0  0  0  0  0
    2.7623    3.2075   -0.9379 N   0  0  0  0  0  0  0  0  0  0  0  0
    0.4438    2.4583    0.7865 C   0  0  1  0  0  0  0  0  0  0  0  0
   -0.1509    3.1592   -0.5193 C   0  0  0  0  0  0  0  0  0  0  0  0
    0.0858    3.2347    2.0012 N   0  0  0  0  0  0  0  0  0  0  0  0
   -0.7759    4.3303   -0.2732 O   0  0  0  0  0  0  0  0  0  0  0  0
   -0.0143    2.8294   -1.7029 O   0  0  0  0  0  0  0  0  0  0  0  0
  1  2  1  0
  1  3  1  0
  2  8  1  0
  3  4  1  0
  4  5  1  0
  5  7  2  0
  5  6  1  0
  8  9  1  0
  8 10  1  1
  9 11  1  0
  9 12  2  0
M  END
>  <DRUGBANK_ID>  (1) 
DB01833

>  <SECONDARY_ACCESSION_NUMBERS>  (1) 
EXPT01587

>  <COMMON_NAME>  (1) 
Canavanine

>  <CAS_NUMBER>  (1) 
543-38-4

>  <UNII>  (1) 
3HZV514J4B

>  <SYNONYMS>  (1) 
(L)-Canavanine; 2-Amino-4-(guanidinooxy)butyric acid; Canavanin; L-Canavanine; O-((Aminoiminomethyl)amino)-L-homoserine

$$$$
