
     RDKit          3D

 39 42  0  0  1  0  0  0  0  0999 V2000
    0.9019   -0.3644   -0.1016 S   0  0  0  0  0  0  0  0  0  0  0  0
    0.3489    2.2384    0.1063 Na  0  0  0  0  0 15  0  0  0  0  0  0
    6.4941   -2.0380   -1.7988 O   0  0  0  0  0  0  0  0  0  0  0  0
   10.4714   -4.8103   -1.2055 O   0  0  0  0  0  0  0  0  0  0  0  0
    7.8547    0.7690   -0.8908 O   0  0  0  0  0  0  0  0  0  0  0  0
    6.9096   -2.4967    0.6154 O   0  0  0  0  0  0  0  0  0  0  0  0
    6.5678   -8.0181   -1.2779 O   0  0  0  0  0  0  0  0  0  0  0  0
    5.0091   -3.6641    0.3387 O   0  0  0  0  0  0  0  0  0  0  0  0
    0.5900    0.3181    1.1329 O   0  0  0  0  0  0  0  0  0  0  0  0
    0.5275    0.4294   -1.2347 O   0  0  0  0  0  0  0  0  0  0  0  0
    0.5985   -1.8304   -0.1506 O   0  0  0  0  0  0  0  0  0  0  0  0
    8.6403   -2.0327   -2.6971 C   0  0  0  0  0  0  0  0  0  0  0  0
    7.3862   -2.5219   -3.9014 C   0  0  0  0  0  0  0  0  0  0  0  0
    7.3938   -3.9207   -4.3247 C   0  0  0  0  0  0  0  0  0  0  0  0
    8.4078   -4.6617   -3.0417 C   0  0  0  0  0  0  0  0  0  0  0  0
    7.5786   -1.1472   -2.1848 C   0  0  0  0  0  0  0  0  0  0  0  0
    9.1179   -2.9180   -1.5226 C   0  0  0  0  0  0  0  0  0  0  0  0
    6.5980   -1.2892   -4.3913 C   0  0  0  0  0  0  0  0  0  0  0  0
    9.7116   -4.0545   -2.1744 C   0  0  0  0  0  0  0  0  0  0  0  0
    9.0705   -5.8038   -3.7288 C   0  0  0  0  0  0  0  0  0  0  0  0
    7.2617   -0.3142   -3.4571 C   0  0  0  0  0  0  0  0  0  0  0  0
    6.3502   -4.9401   -5.0709 C   0  0  0  0  0  0  0  0  0  0  0  0
   10.0696   -1.2808   -2.9460 C   0  0  0  0  0  0  0  0  0  0  0  0
    7.3916   -5.9355   -5.5679 C   0  0  0  0  0  0  0  0  0  0  0  0
    7.8663   -6.5070   -4.2903 C   0  0  0  0  0  0  0  0  0  0  0  0
    7.7739   -0.4597   -0.8983 C   0  0  0  0  0  0  0  0  0  0  0  0
    9.9909   -4.8390   -4.6852 C   0  0  0  0  0  0  0  0  0  0  0  0
    9.5840   -6.7404   -2.6143 C   0  0  0  0  0  0  0  0  0  0  0  0
    7.0244   -7.1763   -3.4541 C   0  0  0  0  0  0  0  0  0  0  0  0
    7.7740   -1.3511    0.4188 C   0  0  0  0  0  0  0  0  0  0  0  0
    8.7419   -7.1109   -1.6075 C   0  0  0  0  0  0  0  0  0  0  0  0
    7.3642   -7.4740   -2.0307 C   0  0  0  0  0  0  0  0  0  0  0  0
    5.5612   -2.5672    0.4101 C   0  0  0  0  0  0  0  0  0  0  0  0
    4.7708   -1.3149    0.2187 C   0  0  0  0  0  0  0  0  0  0  0  0
    3.4224   -1.4220   -0.0422 C   0  0  0  0  0  0  0  0  0  0  0  0
    5.2868   -0.0216    0.3459 C   0  0  0  0  0  0  0  0  0  0  0  0
    2.6762   -0.2537   -0.1310 C   0  0  0  0  0  0  0  0  0  0  0  0
    4.5989    1.1443    0.1152 C   0  0  0  0  0  0  0  0  0  0  0  0
    3.2582    1.0355   -0.1084 C   0  0  0  0  0  0  0  0  0  0  0  0
  1  9  1  0
  1 10  2  0
  1 11  2  0
  1 37  1  0
  3 16  1  0
  4 19  1  0
  5 26  2  0
  6 30  1  0
  6 33  1  0
  7 32  2  0
  8 33  2  0
 12 13  1  0
 12 16  1  0
 12 17  1  0
 12 23  1  0
 13 14  1  0
 13 18  1  0
 14 15  1  0
 14 22  1  0
 15 19  1  0
 15 20  1  0
 16 21  1  0
 16 26  1  0
 17 19  1  0
 18 21  1  0
 20 25  1  0
 20 27  1  0
 20 28  1  0
 22 24  1  0
 24 25  1  0
 25 29  2  0
 26 30  1  0
 28 31  2  0
 29 32  1  0
 31 32  1  0
 33 34  1  0
 34 35  2  0
 34 36  1  0
 35 37  1  0
 36 38  2  0
 37 39  2  0
 38 39  1  0
M  CHG  2   2   1   9  -1
M  END
>  <DRUGBANK_ID>  (1) 
DB05340

>  <COMMON_NAME>  (1) 
ATL-2502

>  <UNII>  (1) 
D345THM53T

$$$$
