
     RDKit          3D

 34 37  0  0  0  0  0  0  0  0999 V2000
    3.1721    1.5288    0.5080 C   0  0  0  0  0  0  0  0  0  0  0  0
    3.8767    0.1893    0.6753 C   0  0  2  0  0  0  0  0  0  0  0  0
    2.8879   -0.9625    0.5365 C   0  0  0  0  0  0  0  0  0  0  0  0
    2.1250   -0.9260   -0.8021 C   0  0  2  0  0  0  0  0  0  0  0  0
    1.4403    0.4517   -1.0732 C   0  0  2  0  0  0  0  0  0  0  0  0
    2.4759    1.5898   -0.8476 C   0  0  0  0  0  0  0  0  0  0  0  0
    1.1274   -2.0931   -0.8651 C   0  0  0  0  0  0  0  0  0  0  0  0
   -0.1057   -1.8912    0.0157 C   0  0  1  0  0  0  0  0  0  0  0  0
   -0.8199   -0.5723   -0.3271 C   0  0  2  0  0  0  0  0  0  0  0  0
    0.1916    0.6054   -0.1371 C   0  0  2  0  0  0  0  0  0  0  0  0
   -2.0529   -0.3194    0.5469 C   0  0  1  0  0  0  0  0  0  0  0  0
   -2.7371    1.0294    0.1927 C   0  0  2  0  0  0  0  0  0  0  0  0
   -1.7378    2.1279    0.6012 C   0  0  0  0  0  0  0  0  0  0  0  0
   -0.4448    2.0115   -0.2006 C   0  0  0  0  0  0  0  0  0  0  0  0
   -3.1908   -1.3226    0.5050 C   0  0  0  0  0  0  0  0  0  0  0  0
   -4.3518   -0.5740    1.1533 C   0  0  0  0  0  0  0  0  0  0  0  0
   -4.0058    0.9655    1.0811 C   0  0  2  0  0  0  0  0  0  0  0  0
    1.0223    0.5217   -2.5659 C   0  0  0  0  0  0  0  0  0  0  0  0
   -0.9527   -3.0219   -0.1457 O   0  0  0  0  0  0  0  0  0  0  0  0
   -3.1056    1.1294   -1.3119 C   0  0  0  0  0  0  0  0  0  0  0  0
   -5.2160    1.8867    0.7029 C   0  0  2  0  0  0  0  0  0  0  0  0
    4.5106    0.1266    1.9473 O   0  0  0  0  0  0  0  0  0  0  0  0
   -6.2315    1.0879   -0.1131 C   0  0  0  0  0  0  0  0  0  0  0  0
   -4.9713    3.2499   -0.0199 C   0  0  0  0  0  0  0  0  0  0  0  0
   -5.5360    4.4612    0.7097 C   0  0  0  0  0  0  0  0  0  0  0  0
   -4.7596    4.6883    1.9898 C   0  0  0  0  0  0  0  0  0  0  0  0
   -4.1334    5.9020    2.1014 N   0  0  0  0  0  0  0  0  0  0  0  0
   -3.3009    6.2094    3.2538 C   0  0  0  0  0  0  0  0  0  0  0  0
   -1.8566    6.4971    2.8934 C   0  0  0  0  0  0  0  0  0  0  0  0
   -1.7007    7.9118    1.8207 S   0  0  0  0  0  0  0  0  0  0  0  0
   -4.6727    3.8372    2.8692 O   0  0  0  0  0  0  0  0  0  0  0  0
   -2.3126    9.0271    2.8199 O   0  0  0  0  0  0  0  0  0  0  0  0
   -0.3088    8.2003    1.6100 O   0  0  0  0  0  0  0  0  0  0  0  0
   -2.6444    7.7781    0.7220 O   0  0  0  0  0  0  0  0  0  0  0  0
  1  2  1  0
  1  6  1  0
  2  3  1  0
  2 22  1  1
  4  3  1  1
  4  5  1  0
  4  7  1  0
  5  6  1  0
  5 10  1  0
  5 18  1  6
  7  8  1  0
  9  8  1  1
  8 19  1  6
  9 10  1  0
  9 11  1  0
 10 14  1  6
 11 12  1  0
 11 15  1  6
 12 13  1  0
 12 17  1  0
 12 20  1  6
 13 14  1  0
 15 16  1  0
 17 16  1  6
 17 21  1  0
 21 24  1  0
 21 23  1  6
 24 25  1  0
 25 26  1  0
 26 27  1  0
 26 31  2  0
 27 28  1  0
 28 29  1  0
 29 30  1  0
 30 32  1  0
 30 33  2  0
 30 34  2  0
M  END
>  <DRUGBANK_ID>  (1) 
DB08834

>  <COMMON_NAME>  (1) 
Tauroursodeoxycholic acid

>  <CAS_NUMBER>  (1) 
14605-22-2

>  <UNII>  (1) 
60EUX8MN5X

>  <SYNONYMS>  (1) 
Tauroursodeoxycholate; Tauroursodesoxycholic acid; Taurursodiol; TUDCA; Ursodeoxycholyltaurine; Ursodoxicoltaurine

$$$$
