
     RDKit          3D

 13 12  0  0  1  0  0  0  0  0999 V2000
   -2.2856    6.6669    5.3430 N   0  0  0  0  0  0  0  0  0  0  0  0
   -3.0693    5.5669    4.7489 C   0  0  1  0  0  0  0  0  0  0  0  0
   -2.7412    5.5431    3.2403 C   0  0  0  0  0  0  0  0  0  0  0  0
   -1.3174    5.1614    2.8121 C   0  0  0  0  0  0  0  0  0  0  0  0
   -0.8096    3.8009    3.2851 C   0  0  0  0  0  0  0  0  0  0  0  0
   -1.4985    2.5214    2.7667 C   0  0  2  0  0  0  0  0  0  0  0  0
   -1.0039    2.3468    1.3859 N   0  0  0  0  0  0  0  0  0  0  0  0
   -3.0586    2.4174    2.7218 C   0  0  0  0  0  0  0  0  0  0  0  0
   -3.6065    1.4890    3.5441 O   0  0  0  0  0  0  0  0  0  0  0  0
   -3.7757    3.0509    1.9727 O   0  0  0  0  0  0  0  0  0  0  0  0
   -2.8747    4.2686    5.6111 C   0  0  0  0  0  0  0  0  0  0  0  0
   -4.0003    3.5906    5.9182 O   0  0  0  0  0  0  0  0  0  0  0  0
   -1.8085    3.8521    6.0486 O   0  0  0  0  0  0  0  0  0  0  0  0
  2  1  1  1
  2  3  1  0
  2 11  1  0
  3  4  1  0
  4  5  1  0
  6  8  1  0
  6  7  1  6
  6  5  1  0
  8  9  1  0
  8 10  2  0
 11 12  1  0
 11 13  2  0
M  END
>  <DRUGBANK_ID>  (1) 
DB03590

>  <SECONDARY_ACCESSION_NUMBERS>  (1) 
EXPT00541

>  <COMMON_NAME>  (1) 
2,6-Diaminopimelic Acid

>  <UNII>  (1) 
K3I8AN6S7F

$$$$
