
     RDKit          3D

 13 13  0  0  0  0  0  0  0  0999 V2000
    0.9635    0.0302   -0.1223 C   0  0  0  0  0  0  0  0  0  0  0  0
    0.4220   -0.8516   -1.1424 N   0  0  0  0  0  0  0  0  0  0  0  0
   -0.2747   -2.0200   -0.8338 C   0  0  0  0  0  0  0  0  0  0  0  0
   -0.0763   -3.2381   -1.4060 C   0  0  0  0  0  0  0  0  0  0  0  0
   -0.9114   -4.3769   -0.9716 C   0  0  0  0  0  0  0  0  0  0  0  0
   -0.8007   -5.5465   -1.3335 O   0  0  0  0  0  0  0  0  0  0  0  0
   -1.8925   -4.0684   -0.0729 N   0  0  0  0  0  0  0  0  0  0  0  0
   -2.0408   -2.8285    0.4450 C   0  0  0  0  0  0  0  0  0  0  0  0
   -3.0387   -2.6536    1.3318 N   0  0  0  0  0  0  0  0  0  0  0  0
   -1.2704   -1.8500    0.1165 N   0  0  0  0  0  0  0  0  0  0  0  0
    0.9713   -3.4578   -2.3877 N   0  0  0  0  0  0  0  0  0  0  0  0
    1.1328   -4.6010   -2.8343 O   0  0  0  0  0  0  0  0  0  0  0  0
    1.6664   -2.4957   -2.7523 O   0  0  0  0  0  0  0  0  0  0  0  0
  1  2  1  0
  2  3  1  0
  3  4  2  0
  3 10  1  0
  4  5  1  0
  4 11  1  0
  5  6  2  0
  5  7  1  0
  7  8  1  0
  8  9  1  0
  8 10  2  0
 11 12  1  0
 11 13  2  0
M  CHG  2  11   1  12  -1
M  END
>  <DRUGBANK_ID>  (1) 
DB03705

>  <SECONDARY_ACCESSION_NUMBERS>  (1) 
EXPT00278

>  <COMMON_NAME>  (1) 
6-Methylamino-5-Nitroisocytosine

$$$$
