
     RDKit          3D

 29 31  0  0  0  0  0  0  0  0999 V2000
    1.0261   -0.0545    0.0978 C   0  0  0  0  0  0  0  0  0  0  0  0
    0.5511    1.1030   -0.7742 C   0  0  0  0  0  0  0  0  0  0  0  0
    1.0600    1.0489   -2.1339 N   0  0  0  0  0  0  0  0  0  0  0  0
    1.2668   -0.1485   -2.8269 C   0  0  0  0  0  0  0  0  0  0  0  0
    1.0958   -1.2499   -2.3363 O   0  0  0  0  0  0  0  0  0  0  0  0
    1.7397    0.1734   -4.2882 C   0  0  0  0  0  0  0  0  0  0  0  0
    3.2279   -0.2804   -4.5409 C   0  0  0  0  0  0  0  0  0  0  0  0
    3.4929   -1.7778   -4.5575 C   0  0  0  0  0  0  0  0  0  0  0  0
    3.0072   -2.5704   -5.6006 C   0  0  0  0  0  0  0  0  0  0  0  0
    2.8189   -3.9406   -5.4052 C   0  0  0  0  0  0  0  0  0  0  0  0
    3.3272   -4.5752   -4.2969 C   0  0  0  0  0  0  0  0  0  0  0  0
    4.0854   -3.8463   -3.3954 C   0  0  0  0  0  0  0  0  0  0  0  0
    4.8089   -4.4210   -2.3817 O   0  0  0  0  0  0  0  0  0  0  0  0
    4.8194   -5.8500   -2.4190 C   0  0  0  0  0  0  0  0  0  0  0  0
    4.1170   -2.4434   -3.5020 C   0  0  0  0  0  0  0  0  0  0  0  0
    4.7864   -1.7052   -2.5632 O   0  0  0  0  0  0  0  0  0  0  0  0
    0.8366   -0.2992   -5.3348 O   0  0  0  0  0  0  0  0  0  0  0  0
    0.3919   -1.6128   -5.3020 C   0  0  0  0  0  0  0  0  0  0  0  0
    0.4723   -2.3718   -4.3615 O   0  0  0  0  0  0  0  0  0  0  0  0
   -0.0303   -2.0924   -6.5408 N   0  0  0  0  0  0  0  0  0  0  0  0
   -0.6319   -1.2398   -7.5153 C   0  0  0  0  0  0  0  0  0  0  0  0
   -0.0652   -3.5282   -6.8160 C   0  0  0  0  0  0  0  0  0  0  0  0
    1.7122    1.7309   -4.2208 C   0  0  0  0  0  0  0  0  0  0  0  0
    2.0892    2.6941   -5.1565 C   0  0  0  0  0  0  0  0  0  0  0  0
    2.0351    4.0545   -4.7929 C   0  0  0  0  0  0  0  0  0  0  0  0
    2.5112    5.2680   -5.9224 Cl  0  0  0  0  0  0  0  0  0  0  0  0
    1.6058    4.4577   -3.5203 C   0  0  0  0  0  0  0  0  0  0  0  0
    1.2248    3.4982   -2.5839 C   0  0  0  0  0  0  0  0  0  0  0  0
    1.3047    2.1553   -2.9445 C   0  0  0  0  0  0  0  0  0  0  0  0
  1  2  1  0
  2  3  1  0
  3  4  1  0
  3 29  1  0
  4  5  2  0
  4  6  1  0
  6  7  1  0
  6 17  1  0
  6 23  1  0
  7  8  1  0
  8  9  2  0
  8 15  1  0
  9 10  1  0
 10 11  2  0
 11 12  1  0
 12 13  1  0
 12 15  2  0
 13 14  1  0
 15 16  1  0
 17 18  1  0
 18 19  2  0
 18 20  1  0
 20 21  1  0
 20 22  1  0
 23 24  2  0
 23 29  1  0
 24 25  1  0
 25 26  1  0
 25 27  2  0
 27 28  1  0
 28 29  2  0
M  END
>  <DRUGBANK_ID>  (1) 
DB18005

>  <COMMON_NAME>  (1) 
MC-16

>  <CAS_NUMBER>  (1) 
2036329-47-0

>  <UNII>  (1) 
9P2K5CXC5F

>  <SYNONYMS>  (1) 
(+)-5-chloro-1-ethyl-3-(2-hydroxy-3-methoxybenzyl)-2-oxoindolin-3-yl dimethylcarbamate

$$$$
