
     RDKit          3D

 12 12  0  0  0  0  0  0  0  0999 V2000
    0.9206   -0.0786    0.0658 N   0  0  0  0  0  0  0  0  0  0  0  0
   -1.3399    2.0990   -2.2528 C   0  0  0  0  0  0  0  0  0  0  0  0
    0.8571    3.4101   -1.5693 C   0  0  0  0  0  0  0  0  0  0  0  0
    0.6278    0.8560   -1.0361 C   0  0  0  0  0  0  0  0  0  0  0  0
   -0.6827    3.4386   -1.8169 C   0  0  0  0  0  0  0  0  0  0  0  0
   -0.8971    0.9771   -1.2599 C   0  0  0  0  0  0  0  0  0  0  0  0
    1.1990    2.2339   -0.6210 C   0  0  0  0  0  0  0  0  0  0  0  0
   -2.8831    2.2092   -2.1722 C   0  0  0  0  0  0  0  0  0  0  0  0
   -1.1072    1.8054   -3.7520 C   0  0  0  0  0  0  0  0  0  0  0  0
    1.7025    3.4005   -2.8575 C   0  0  0  0  0  0  0  0  0  0  0  0
    1.2788    4.7337   -0.8831 C   0  0  0  0  0  0  0  0  0  0  0  0
    1.3025    0.2352   -2.2607 C   0  0  0  0  0  0  0  0  0  0  0  0
  1  4  1  0
  2  5  1  0
  2  6  1  0
  2  8  1  0
  2  9  1  0
  3  5  1  0
  3  7  1  0
  3 10  1  0
  3 11  1  0
  4  6  1  0
  4  7  1  0
  4 12  1  0
M  END
>  <DRUGBANK_ID>  (1) 
DB04926

>  <COMMON_NAME>  (1) 
Neramexane

>  <CAS_NUMBER>  (1) 
219810-59-0

>  <UNII>  (1) 
856DX0KJ84

>  <SYNONYMS>  (1) 
Neramexane

$$$$
