
     RDKit          3D

 33 35  0  0  0  0  0  0  0  0999 V2000
   -2.3491   -0.0235    0.0213 C   0  0  0  0  0  0  0  0  0  0  0  0
   -1.7342   -1.2588   -0.0153 C   0  0  0  0  0  0  0  0  0  0  0  0
   -0.3811   -1.3344   -0.0115 C   0  0  0  0  0  0  0  0  0  0  0  0
    0.3391   -0.2177    0.1136 C   0  0  0  0  0  0  0  0  0  0  0  0
   -0.3001    1.0041   -0.0138 C   0  0  0  0  0  0  0  0  0  0  0  0
   -1.6638    1.1393   -0.0210 N   0  0  0  0  0  0  0  0  0  0  0  0
   -2.4678   -2.5258   -0.0318 C   0  0  0  0  0  0  0  0  0  0  0  0
   -3.2457   -2.6594    1.0646 F   0  0  0  0  0  0  0  0  0  0  0  0
   -3.2585   -2.6141   -1.1224 F   0  0  0  0  0  0  0  0  0  0  0  0
   -1.6411   -3.6092   -0.0582 F   0  0  0  0  0  0  0  0  0  0  0  0
    1.9244   -0.8021    0.4353 Cl  0  0  0  0  0  0  0  0  0  0  0  0
    0.4428    2.1312   -0.2793 O   0  0  0  0  0  0  0  0  0  0  0  0
    2.1114    1.9498   -0.4274 C   0  0  0  0  0  0  0  0  0  0  0  0
    3.3472    3.2016    0.5053 C   0  0  0  0  0  0  0  0  0  0  0  0
    4.4772    3.7627    0.8246 C   0  0  0  0  0  0  0  0  0  0  0  0
    4.5256    2.7577    0.0672 C   0  0  0  0  0  0  0  0  0  0  0  0
    3.3682    1.3439   -1.0088 C   0  0  0  0  0  0  0  0  0  0  0  0
    2.2003    1.1030   -1.4007 C   0  0  0  0  0  0  0  0  0  0  0  0
    1.4106    0.7860   -2.7752 Cl  0  0  0  0  0  0  0  0  0  0  0  0
    4.7627    3.8972    2.1665 N   0  0  0  0  0  0  0  0  0  0  0  0
    3.9227    4.4177    3.2049 C   0  0  0  0  0  0  0  0  0  0  0  0
    4.5043    4.9270    4.1629 O   0  0  0  0  0  0  0  0  0  0  0  0
    2.3865    4.3650    3.1529 N   0  0  0  0  0  0  0  0  0  0  0  0
    1.2690    3.7686    2.3792 C   0  0  0  0  0  0  0  0  0  0  0  0
    0.0548    3.9366    2.3665 O   0  0  0  0  0  0  0  0  0  0  0  0
    1.6040    2.8508    1.3066 C   0  0  0  0  0  0  0  0  0  0  0  0
    1.7348    3.9326   -0.3072 C   0  0  0  0  0  0  0  0  0  0  0  0
    3.0514    3.5788   -1.6458 C   0  0  0  0  0  0  0  0  0  0  0  0
    4.5564    2.3446   -1.5161 C   0  0  0  0  0  0  0  0  0  0  0  0
    4.4274    1.1228    0.2289 C   0  0  0  0  0  0  0  0  0  0  0  0
    2.9971    1.5152    1.5382 C   0  0  0  0  0  0  0  0  0  0  0  0
    3.6532    1.6245    2.7346 F   0  0  0  0  0  0  0  0  0  0  0  0
    0.6301    4.4430   -0.8517 F   0  0  0  0  0  0  0  0  0  0  0  0
  1  2  2  0
  2  3  1  0
  2  7  1  0
  3  4  2  0
  4  5  1  0
  4 11  1  0
  5  6  2  0
  5 12  1  0
  6  1  1  0
  7  8  1  0
  7  9  1  0
  7 10  1  0
 12 13  1  0
 13 14  2  0
 14 15  1  0
 15 20  1  0
 15 16  2  0
 16 17  1  0
 17 18  2  0
 18 13  1  0
 18 19  1  0
 20 21  1  0
 21 22  2  0
 21 23  1  0
 23 24  1  0
 24 25  2  0
 24 26  1  0
 26 27  2  0
 27 28  1  0
 27 33  1  0
 28 29  2  0
 29 30  1  0
 30 31  2  0
 31 26  1  0
 31 32  1  0
M  END
>  <DRUGBANK_ID>  (1) 
DB15583

>  <COMMON_NAME>  (1) 
Fluazuron

>  <CAS_NUMBER>  (1) 
86811-58-7

>  <UNII>  (1) 
VB0PV6I7L6

>  <SYNONYMS>  (1) 
Fluazuron; Fluazuronum

$$$$
