
     RDKit          3D

 29 31  0  0  1  0  0  0  0  0999 V2000
    3.3132   -3.0109   -0.1873 C   0  0  0  0  0  0  0  0  0  0  0  0
    2.0691    0.1930    3.2393 C   0  0  0  0  0  0  0  0  0  0  0  0
   -0.2159   -5.9843    7.8886 C   0  0  0  0  0  0  0  0  0  0  0  0
    0.0007   -2.9297   -1.1325 C   0  0  0  0  0  0  0  0  0  0  0  0
   -1.4372   -1.8441   -0.7431 C   0  0  0  0  0  0  0  0  0  0  0  0
    2.8492   -5.3977    5.9527 C   0  0  0  0  0  0  0  0  0  0  0  0
    3.4651   -4.5545    3.6810 C   0  0  0  0  0  0  0  0  0  0  0  0
    2.5255   -3.9801    0.7127 C   0  0  0  0  0  0  0  0  0  0  0  0
    1.6949   -1.1453    4.1492 C   0  0  1  0  0  0  0  0  0  0  0  0
    0.7395   -5.4843    6.8819 C   0  0  0  0  0  0  0  0  0  0  0  0
    2.3412   -4.9174    4.7885 C   0  0  0  0  0  0  0  0  0  0  0  0
    1.0851   -3.7207    0.1067 C   0  0  0  0  0  0  0  0  0  0  0  0
    0.9135   -4.5720    4.8937 C   0  0  0  0  0  0  0  0  0  0  0  0
    1.1315   -3.0901    3.4516 C   0  0  2  0  0  0  0  0  0  0  0  0
    2.0664   -5.7298    6.9913 N   0  0  0  0  0  0  0  0  0  0  0  0
    0.1361   -4.8498    5.9070 N   0  0  0  0  0  0  0  0  0  0  0  0
    0.1420   -3.8486    4.0593 N   0  0  0  0  0  0  0  0  0  0  0  0
    2.7746   -3.9060    2.5496 N   0  0  0  0  0  0  0  0  0  0  0  0
    3.3817   -0.9639    4.6030 O   0  0  0  0  0  0  0  0  0  0  0  0
    2.7157   -2.6821    4.1330 O   0  0  0  0  0  0  0  0  0  0  0  0
    1.2318   -4.2733    2.1897 O   0  0  0  0  0  0  0  0  0  0  0  0
    3.5095   -1.7062    2.1257 O   0  0  0  0  0  0  0  0  0  0  0  0
    0.9140   -0.5309    0.7213 O   0  0  0  0  0  0  0  0  0  0  0  0
   -1.0347    0.2467    2.1264 O   0  0  0  0  0  0  0  0  0  0  0  0
   -1.1874   -0.5702   -0.0343 O   0  0  0  0  0  0  0  0  0  0  0  0
    0.2536   -1.4541    2.9846 O   0  0  0  0  0  0  0  0  0  0  0  0
    2.0343   -2.2106    2.1810 P   0  0  0  0  0  0  0  0  0  0  0  0
   -0.4669   -1.0122    1.4752 P   0  0  1  0  0  0  0  0  0  0  0  0
   -0.2220   -3.2714    1.3473 S   0  0  0  0  0  0  0  0  0  0  0  0
  5  4  1  0
  8  1  1  0
  9 19  1  0
  9  2  1  6
 10  3  1  0
 11  6  2  0
 11  7  1  0
 12  4  1  0
 12  8  2  0
 13 11  1  0
 14  9  1  0
 15  6  1  0
 15 10  2  0
 16 10  1  0
 16 13  2  0
 17 13  1  0
 14 17  1  1
 18  7  1  0
 18  8  1  0
 18 14  1  0
 25  5  1  0
 27 20  1  0
 27 21  1  0
 27 22  2  0
 27 26  1  0
 28 23  1  6
 28 24  2  0
 28 25  1  0
 28 26  1  0
 29 12  1  0
 29 14  1  0
M  END
>  <DRUGBANK_ID>  (1) 
DB03361

>  <SECONDARY_ACCESSION_NUMBERS>  (1) 
EXPT01719

>  <COMMON_NAME>  (1) 
2-{(9as)-9a-[(1s)-1-Hydroxyethyl]-2,7-Dimethyl-9a,10-Dihydro-5h-Pyrimido[4,5-D][1,3]Thiazolo[3,2-a]Pyrimidin-8-Yl}Ethyl Trihydrogen Diphosphate

$$$$
