
     RDKit          3D

 27 27  0  0  0  0  0  0  0  0999 V2000
    0.8311   -0.1130   -0.1200 S   0  0  0  0  0  0  0  0  0  0  0  0
    5.1225    0.0486    2.3965 O   0  0  0  0  0  0  0  0  0  0  0  0
    1.4939    3.0565    5.9673 O   0  0  0  0  0  0  0  0  0  0  0  0
    3.8136    4.8549    0.7868 O   0  0  0  0  0  0  0  0  0  0  0  0
    6.6867    0.9344    5.2719 N   0  0  0  0  0  0  0  0  0  0  0  0
    3.9757    0.6000    4.2716 N   0  0  0  0  0  0  0  0  0  0  0  0
    8.8411    0.1401    4.8278 N   0  0  0  0  0  0  0  0  0  0  0  0
    7.8139   -0.2352    6.8090 N   0  0  0  0  0  0  0  0  0  0  0  0
    2.3394    3.7842    4.0699 N   0  0  0  0  0  0  0  0  0  0  0  0
    2.6462    2.9678    1.0247 N   0  0  0  0  0  0  0  0  0  0  0  0
    6.6937    3.1838    4.0810 C   0  0  0  0  0  0  0  0  0  0  0  0
    6.5888    4.2402    2.7519 C   0  0  0  0  0  0  0  0  0  0  0  0
    6.8820    4.0770    5.3369 C   0  0  0  0  0  0  0  0  0  0  0  0
    5.8283    5.6271    2.8464 C   0  0  0  0  0  0  0  0  0  0  0  0
    5.8429    5.2534    5.3984 C   0  0  0  0  0  0  0  0  0  0  0  0
    5.8980    6.2400    4.2242 C   0  0  0  0  0  0  0  0  0  0  0  0
    6.5581    1.4802    3.9311 C   0  0  2  0  0  0  0  0  0  0  0  0
    5.1761    0.6132    3.5053 C   0  0  0  0  0  0  0  0  0  0  0  0
    7.7631    0.2859    5.5866 C   0  0  0  0  0  0  0  0  0  0  0  0
    3.4445    1.5655    5.3215 C   0  0  0  0  0  0  0  0  0  0  0  0
    2.3473    2.8429    5.0957 C   0  0  0  0  0  0  0  0  0  0  0  0
    3.3497    4.0761    3.0740 C   0  0  2  0  0  0  0  0  0  0  0  0
    3.2057    4.1037    1.5479 C   0  0  0  0  0  0  0  0  0  0  0  0
    4.2978    2.9968    3.1139 C   0  0  0  0  0  0  0  0  0  0  0  0
    2.1623    1.8470    1.8134 C   0  0  0  0  0  0  0  0  0  0  0  0
    0.6957    1.7874    1.8763 C   0  0  0  0  0  0  0  0  0  0  0  0
    0.2315    1.5102    0.4870 C   0  0  0  0  0  0  0  0  0  0  0  0
  1 27  1  0
  2 18  2  0
  3 21  2  0
  4 23  2  0
  5 19  2  3
  6 18  1  0
  6 20  1  0
  7 19  1  0
  8 19  1  0
  9 21  1  0
 10 23  1  0
 10 25  1  0
 11 12  1  0
 11 13  1  0
 12 14  1  0
 13 15  1  0
 14 16  1  0
 15 16  1  0
 17 18  1  0
 17 11  1  0
 17  5  1  1
 20 21  1  0
 22  9  1  0
 22 23  1  0
 22 24  1  6
 25 26  1  0
 26 27  1  0
M  END
>  <DRUGBANK_ID>  (1) 
DB04278

>  <SECONDARY_ACCESSION_NUMBERS>  (1) 
EXPT02368

>  <COMMON_NAME>  (1) 
2-[2-(2-Cyclohexyl-2-guanidino-acetylamino)-acetylamino]-N-(3-mercapto-propyl)-propionamide

>  <SYNONYMS>  (1) 
N-{(2R)-2-Cyclohexyl-2-[(diaminomethylene)amino]acetyl}glycyl-N-(3-sulfanylpropyl)-L-alaninamide

$$$$
