831
     RDKit          3D

 28 31  0  0  0  0  0  0  0  0999 V2000
    0.0695    1.8166    0.4423 S   0  0  0  0  0  0  0  0  0  0  0  0
    5.0968   -2.6881    0.3199 F   0  0  0  0  0  0  0  0  0  0  0  0
    4.2706   -2.9846   -1.6688 F   0  0  0  0  0  0  0  0  0  0  0  0
    5.7449   -1.4230   -1.3260 F   0  0  0  0  0  0  0  0  0  0  0  0
   -2.8712   -2.4235    2.2542 N   0  0  0  0  0  0  0  0  0  0  0  0
   -4.5629   -4.6185    1.2461 N   0  0  0  0  0  0  0  0  0  0  0  0
    0.0405   -1.2092    0.7329 N   0  0  0  0  0  0  0  0  0  0  0  0
   -2.7567   -3.7635    2.8205 C   0  0  0  0  0  0  0  0  0  0  0  0
   -4.2360   -2.1496    1.7982 C   0  0  0  0  0  0  0  0  0  0  0  0
   -2.2361   -1.3409    2.9882 C   0  0  0  0  0  0  0  0  0  0  0  0
   -3.1965   -4.8161    1.7761 C   0  0  0  0  0  0  0  0  0  0  0  0
   -4.6890   -3.2311    0.7682 C   0  0  0  0  0  0  0  0  0  0  0  0
   -0.7266   -1.5739    3.1397 C   0  0  0  0  0  0  0  0  0  0  0  0
   -0.0152   -2.1324    1.8853 C   0  0  0  0  0  0  0  0  0  0  0  0
   -5.5733   -4.8540    2.2652 C   0  0  0  0  0  0  0  0  0  0  0  0
    1.2926   -0.6873    0.3885 C   0  0  0  0  0  0  0  0  0  0  0  0
   -1.1161   -0.6754    0.1401 C   0  0  0  0  0  0  0  0  0  0  0  0
    1.4277    0.6913    0.1168 C   0  0  0  0  0  0  0  0  0  0  0  0
   -1.2715    0.7197   -0.0020 C   0  0  0  0  0  0  0  0  0  0  0  0
    2.3625   -1.5486    0.1132 C   0  0  0  0  0  0  0  0  0  0  0  0
   -2.0975   -1.4864   -0.4216 C   0  0  0  0  0  0  0  0  0  0  0  0
    3.5401   -1.0634   -0.4546 C   0  0  0  0  0  0  0  0  0  0  0  0
    2.5971    1.1800   -0.4436 C   0  0  0  0  0  0  0  0  0  0  0  0
   -2.4594    1.2692   -0.5006 C   0  0  0  0  0  0  0  0  0  0  0  0
    3.6476    0.3090   -0.7383 C   0  0  0  0  0  0  0  0  0  0  0  0
   -3.2666   -0.9304   -0.9673 C   0  0  0  0  0  0  0  0  0  0  0  0
   -3.4797    0.4396   -0.9396 C   0  0  0  0  0  0  0  0  0  0  0  0
    4.6519   -2.0232   -0.7826 C   0  0  0  0  0  0  0  0  0  0  0  0
  1 18  1  0
  1 19  1  0
  2 28  1  0
  3 28  1  0
  4 28  1  0
  5  8  1  0
  5  9  1  0
  5 10  1  0
  6 11  1  0
  6 12  1  0
  6 15  1  0
  7 14  1  0
  7 16  1  0
  7 17  1  0
  8 11  1  0
  9 12  1  0
 10 13  1  0
 13 14  1  0
 16 18  2  0
 16 20  1  0
 17 19  2  0
 17 21  1  0
 18 23  1  0
 19 24  1  0
 20 22  2  0
 21 26  2  0
 22 25  1  0
 22 28  1  0
 23 25  2  0
 24 27  2  0
 26 27  1  0
M  END
>  <DRUGBANK_ID>  (1) 
DB00831

>  <SECONDARY_ACCESSION_NUMBERS>  (1) 
APRD00173; DB08616

>  <COMMON_NAME>  (1) 
Trifluoperazine

>  <CAS_NUMBER>  (1) 
117-89-5

>  <UNII>  (1) 
214IZI85K3

>  <SYNONYMS>  (1) 
10-[3-(4-methyl-1-piperazinyl)propyl]-2-(trifluoromethyl)-10H-phenothiazine; Trifluoperazina; Trifluop√©razine; Trifluoperazine; Trifluoperazinum; trifluoromethyl-10-(3'-(1-methyl-4-piperazinyl)propyl)phenothiazine; Trifluoroperazine; Trifluperazine

$$$$
