
     RDKit          3D

 35 36  0  0  1  0  0  0  0  0999 V2000
    1.3337    0.0140    0.1842 C   0  0  0  0  0  0  0  0  0  0  0  0
    1.5261    2.5052   -0.6865 C   0  0  0  0  0  0  0  0  0  0  0  0
   -2.8911    5.7697    3.2695 C   0  0  0  0  0  0  0  0  0  0  0  0
   -3.7387    3.5389    2.9786 C   0  0  0  0  0  0  0  0  0  0  0  0
   -2.7109    0.3471   -4.0620 C   0  0  0  0  0  0  0  0  0  0  0  0
   -2.2976   -0.3079   -0.9094 C   0  0  0  0  0  0  0  0  0  0  0  0
   -6.5793   -0.0064    0.2769 C   0  0  0  0  0  0  0  0  0  0  0  0
   -2.9091    1.9850    0.8226 C   0  0  0  0  0  0  0  0  0  0  0  0
   -3.9702    1.2352   -2.0111 C   0  0  0  0  0  0  0  0  0  0  0  0
   -3.1816    5.6760   -1.9890 C   0  0  0  0  0  0  0  0  0  0  0  0
   -1.9695    3.2360   -2.6491 C   0  0  0  0  0  0  0  0  0  0  0  0
    0.9490    1.5177    0.3564 C   0  0  0  0  0  0  0  0  0  0  0  0
   -2.5412    4.4426    2.6732 C   0  0  0  0  0  0  0  0  0  0  0  0
   -1.8833    0.3585   -2.7612 C   0  0  2  0  0  0  0  0  0  0  0  0
   -4.9574    1.9080    0.7819 C   0  0  0  0  0  0  0  0  0  0  0  0
   -6.3144    2.1621    1.0249 C   0  0  0  0  0  0  0  0  0  0  0  0
   -4.4969    0.5822    0.6209 C   0  0  0  0  0  0  0  0  0  0  0  0
   -0.9327    1.5316   -0.9392 C   0  0  0  0  0  0  0  0  0  0  0  0
   -2.9816    5.3062    0.3501 C   0  0  0  0  0  0  0  0  0  0  0  0
   -6.8478    3.3277    1.5645 N   0  0  0  0  0  0  0  0  0  0  0  0
   -7.1386    1.1591    0.6915 N   0  0  0  0  0  0  0  0  0  0  0  0
   -5.2949   -0.4379    0.3227 N   0  0  0  0  0  0  0  0  0  0  0  0
   -3.9561    2.7524    0.5884 N   0  0  0  0  0  0  0  0  0  0  0  0
   -3.1052    0.6043    0.4284 N   0  0  0  0  0  0  0  0  0  0  0  0
   -0.1621    0.8804   -1.6353 O   0  0  0  0  0  0  0  0  0  0  0  0
   -4.1072    5.6177    0.5251 O   0  0  0  0  0  0  0  0  0  0  0  0
   -3.7793    3.8003   -4.6438 O   0  0  0  0  0  0  0  0  0  0  0  0
   -2.5248    1.7461   -1.2207 O   0  0  0  0  0  0  0  0  0  0  0  0
   -2.3107    5.4390   -0.8531 O   0  0  0  0  0  0  0  0  0  0  0  0
   -1.3254    1.9694   -3.1053 O   0  0  0  0  0  0  0  0  0  0  0  0
   -4.5309    2.1923   -2.8244 O   0  0  0  0  0  0  0  0  0  0  0  0
   -4.1562    4.6536   -2.2041 O   0  0  0  0  0  0  0  0  0  0  0  0
   -0.4669    1.7560    0.3269 O   0  0  0  0  0  0  0  0  0  0  0  0
   -2.1128    4.7333    1.2806 O   0  0  0  0  0  0  0  0  0  0  0  0
   -3.6474    3.4719   -3.1921 P   0  0  0  0  0  0  0  0  0  0  0  0
 12  1  1  0
 12  2  1  0
 13  3  1  0
 13  4  1  0
 14  6  1  0
 14  5  1  6
 16 15  2  0
 17 15  1  0
 20 16  1  0
 21  7  2  0
 21 16  1  0
 22  7  1  0
 22 17  2  0
 23  8  2  0
 23 15  1  0
 24  6  1  0
 24  8  1  0
 24 17  1  0
 25 18  2  0
 26 19  2  0
 28  9  1  0
 28 18  1  0
 29 10  1  0
 29 19  1  0
 30 11  1  0
 30 14  1  0
 31  9  1  0
 32 10  1  0
 33 12  1  0
 33 18  1  0
 34 13  1  0
 34 19  1  0
 35 11  1  0
 35 27  2  0
 35 31  1  0
 35 32  1  0
M  END
>  <DRUGBANK_ID>  (1) 
DB00300

>  <SECONDARY_ACCESSION_NUMBERS>  (1) 
APRD01248; DB13426

>  <COMMON_NAME>  (1) 
Tenofovir disoproxil

>  <CAS_NUMBER>  (1) 
201341-05-1

>  <UNII>  (1) 
F4YU4LON7I

>  <SYNONYMS>  (1) 
Bis(POC)PMPA; Tenofovir bis(isopropyloxycarbonyloxymethyl) ester

$$$$
