
     RDKit          3D

 10  9  0  0  0  0  0  0  0  0999 V2000
    1.1246    0.0744    0.0593 N   0  0  0  0  0  0  0  0  0  0  0  0
    0.6784   -0.3972   -1.2438 C   0  0  0  0  0  0  0  0  0  0  0  0
    1.1430   -1.8267   -1.5404 C   0  0  0  0  0  0  0  0  0  0  0  0
    0.6084   -2.8885   -0.5654 C   0  0  0  0  0  0  0  0  0  0  0  0
   -0.9181   -2.9545   -0.4917 C   0  0  0  0  0  0  0  0  0  0  0  0
   -1.4911   -3.3445   -1.7795 N   0  0  0  0  0  0  0  0  0  0  0  0
   -2.9535   -3.2578   -1.7862 C   0  0  0  0  0  0  0  0  0  0  0  0
   -3.5084   -1.8366   -1.6095 C   0  0  0  0  0  0  0  0  0  0  0  0
   -3.0241   -0.8315   -2.6575 C   0  0  0  0  0  0  0  0  0  0  0  0
   -3.4641   -1.1885   -4.0000 N   0  0  0  0  0  0  0  0  0  0  0  0
  1  2  1  0
  2  3  1  0
  3  4  1  0
  4  5  1  0
  5  6  1  0
  6  7  1  0
  7  8  1  0
  8  9  1  0
  9 10  1  0
M  END
>  <DRUGBANK_ID>  (1) 
DB03566

>  <SECONDARY_ACCESSION_NUMBERS>  (1) 
EXPT02942

>  <COMMON_NAME>  (1) 
Spermidine

>  <CAS_NUMBER>  (1) 
124-20-9

>  <UNII>  (1) 
U87FK77H25

>  <SYNONYMS>  (1) 
1,5,10-triazadecane; 4-azaoctamethylenediamine; 4-azaoctane-1,8-diamine; N-(3-Aminopropyl)-1,4-butane-diamine; N-(3-aminopropyl)butane-1,4-diamine; Spermidin; Spermidine

$$$$
