
     RDKit          3D

 14 15  0  0  0  0  0  0  0  0999 V2000
   -0.3929    2.6326   -2.7209 C   0  0  0  0  0  0  0  0  0  0  0  0
   -0.2972    2.9404   -1.2314 C   0  0  0  0  0  0  0  0  0  0  0  0
    0.8754    2.2305   -0.5331 C   0  0  1  0  0  0  0  0  0  0  0  0
    1.9816    1.9324   -1.5247 C   0  0  0  0  0  0  0  0  0  0  0  0
    2.1412    0.8870   -2.1467 O   0  0  0  0  0  0  0  0  0  0  0  0
    2.6802    3.0871   -1.7757 N   0  0  0  0  0  0  0  0  0  0  0  0
    2.8704    3.9286   -0.6147 C   0  0  0  0  0  0  0  0  0  0  0  0
    1.6173    3.4220    0.6078 S   0  0  0  0  0  0  0  0  0  0  0  0
    2.6725    5.4007   -0.9539 C   0  0  0  0  0  0  0  0  0  0  0  0
    3.8723    5.9081   -1.7468 C   0  0  0  0  0  0  0  0  0  0  0  0
    5.1478    5.6466   -1.0587 N   0  0  0  0  0  0  0  0  0  0  0  0
    5.3379    4.2075   -0.8159 C   0  0  0  0  0  0  0  0  0  0  0  0
    4.2185    3.6184    0.0320 C   0  0  0  0  0  0  0  0  0  0  0  0
    5.2341    6.4050    0.1964 C   0  0  0  0  0  0  0  0  0  0  0  0
  1  2  1  0
  3  4  1  0
  3  8  1  0
  3  2  1  6
  4  5  2  0
  4  6  1  0
  6  7  1  0
  7  8  1  0
  7  9  1  0
  7 13  1  0
  9 10  1  0
 10 11  1  0
 11 12  1  0
 11 14  1  0
 12 13  1  0
M  END
>  <DRUGBANK_ID>  (1) 
DB05152

>  <COMMON_NAME>  (1) 
NGX267

>  <CAS_NUMBER>  (1) 
503431-81-0

>  <UNII>  (1) 
8D3PZX7G73

$$$$
