
     RDKit          3D

 26 27  0  0  0  0  0  0  0  0999 V2000
    0.6126    0.0533   -0.0664 C   0  0  0  0  0  0  0  0  0  0  0  0
    1.8548    2.9934    0.6613 C   0  0  0  0  0  0  0  0  0  0  0  0
    0.9706    4.1661    2.6367 C   0  0  0  0  0  0  0  0  0  0  0  0
    4.1094    5.5143   -0.0269 C   0  0  0  0  0  0  0  0  0  0  0  0
    5.2395    7.2644    1.1794 C   0  0  0  0  0  0  0  0  0  0  0  0
    0.3942   -0.7293   -1.3264 C   0  0  0  0  0  0  0  0  0  0  0  0
    4.4080    1.6545    0.9638 C   0  0  0  0  0  0  0  0  0  0  0  0
    6.1737    2.0262   -1.1445 C   0  0  0  0  0  0  0  0  0  0  0  0
    4.3871   -1.1077   -2.1221 C   0  0  0  0  0  0  0  0  0  0  0  0
    3.5175    3.8659    2.5305 C   0  0  0  0  0  0  0  0  0  0  0  0
    6.6414    5.2836    0.4894 C   0  0  0  0  0  0  0  0  0  0  0  0
    2.1620    4.0533    1.6977 C   0  0  0  0  0  0  0  0  0  0  0  0
    5.4444    6.1897    0.1000 C   0  0  0  0  0  0  0  0  0  0  0  0
    4.4730    0.7478   -0.0809 C   0  0  0  0  0  0  0  0  0  0  0  0
    3.4005   -1.2383   -1.2109 C   0  0  0  0  0  0  0  0  0  0  0  0
    5.3605    0.8863   -1.1424 C   0  0  0  0  0  0  0  0  0  0  0  0
    5.1225    2.8230    0.9381 C   0  0  0  0  0  0  0  0  0  0  0  0
    6.0489    3.0167   -0.1194 C   0  0  0  0  0  0  0  0  0  0  0  0
    3.6058   -0.4277   -0.0034 C   0  0  0  0  0  0  0  0  0  0  0  0
    2.3921   -2.3077   -1.3041 C   0  0  0  0  0  0  0  0  0  0  0  0
    5.3412   -0.1009   -2.1387 N   0  0  0  0  0  0  0  0  0  0  0  0
    3.0655   -0.6984    1.0812 O   0  0  0  0  0  0  0  0  0  0  0  0
    2.7599   -3.4680   -1.4668 O   0  0  0  0  0  0  0  0  0  0  0  0
    1.0602   -2.0189   -1.2717 O   0  0  0  0  0  0  0  0  0  0  0  0
    4.8387    3.7579    1.8957 O   0  0  0  0  0  0  0  0  0  0  0  0
    6.8131    4.1402   -0.3557 O   0  0  0  0  0  0  0  0  0  0  0  0
  6  1  1  0
 12  2  1  0
 12  3  1  0
 12 10  1  0
 13  4  1  0
 13  5  1  0
 13 11  1  0
 14  7  2  0
 15  9  2  0
 16  8  2  0
 16 14  1  0
 17  7  1  0
 18  8  1  0
 18 17  2  0
 19 14  1  0
 19 15  1  0
 20 15  1  0
 21  9  1  0
 21 16  1  0
 22 19  2  0
 23 20  2  0
 24  6  1  0
 24 20  1  0
 25 10  1  0
 25 17  1  0
 26 11  1  0
 26 18  1  0
M  END
>  <DRUGBANK_ID>  (1) 
DB11378

>  <COMMON_NAME>  (1) 
Buquinolate

>  <CAS_NUMBER>  (1) 
5486-03-3

>  <UNII>  (1) 
MFL71K7PU4

>  <SYNONYMS>  (1) 
Buquinolate; Buquinolato; Buquinolatum

$$$$
