1413
     RDKit          3D

 32 35  0  0  1  0  0  0  0  0999 V2000
    1.5478    0.9982    0.6011 S   0  0  0  0  0  0  0  0  0  0  0  0
   -5.0446    6.5527   -3.3130 S   0  0  0  0  0  0  0  0  0  0  0  0
   -2.6314   -0.3033    0.7346 O   0  0  0  0  0  0  0  0  0  0  0  0
   -2.0084   -2.8678   -0.6871 O   0  0  0  0  0  0  0  0  0  0  0  0
   -0.0638   -3.9040   -1.2387 O   0  0  0  0  0  0  0  0  0  0  0  0
   -2.2043    4.8626    0.4885 O   0  0  0  0  0  0  0  0  0  0  0  0
   -2.1000    1.6543   -2.4074 O   0  0  0  0  0  0  0  0  0  0  0  0
    1.3032   -3.6638    1.6348 N   0  0  0  0  0  0  0  0  0  0  0  0
   -0.5203   -0.3726   -0.3959 N   0  0  0  0  0  0  0  0  0  0  0  0
   -1.3354    2.8108    0.5289 N   0  0  0  0  0  0  0  0  0  0  0  0
   -2.8574    2.7776   -2.6159 N   0  0  0  0  0  0  0  0  0  0  0  0
   -2.8610    6.2463   -1.9958 N   0  0  0  0  0  0  0  0  0  0  0  0
   -3.3125    8.4533   -2.6336 N   0  0  0  0  0  0  0  0  0  0  0  0
   -0.2400   -4.0437    1.6956 C   0  0  0  0  0  0  0  0  0  0  0  0
    1.4043   -2.6809    2.8142 C   0  0  0  0  0  0  0  0  0  0  0  0
    1.8992   -3.0203    0.3032 C   0  0  0  0  0  0  0  0  0  0  0  0
   -0.9339   -2.7648    2.1214 C   0  0  0  0  0  0  0  0  0  0  0  0
    0.0086   -2.1070    3.0834 C   0  0  0  0  0  0  0  0  0  0  0  0
    2.1497   -4.9228    1.7735 C   0  0  0  0  0  0  0  0  0  0  0  0
    1.3471   -1.6976   -0.1283 C   0  0  0  0  0  0  0  0  0  0  0  0
    0.1738    0.8944   -0.5443 C   0  0  1  0  0  0  0  0  0  0  0  0
   -1.0997    1.5064   -0.0144 C   0  0  1  0  0  0  0  0  0  0  0  0
    0.0628   -1.5952   -0.5428 C   0  0  0  0  0  0  0  0  0  0  0  0
    2.2942   -0.5246    0.0026 C   0  0  0  0  0  0  0  0  0  0  0  0
   -1.6392    0.1271    0.2333 C   0  0  0  0  0  0  0  0  0  0  0  0
   -0.7739   -2.9077   -0.9063 C   0  0  0  0  0  0  0  0  0  0  0  0
   -2.0595    3.8250   -0.1649 C   0  0  0  0  0  0  0  0  0  0  0  0
   -2.7497    3.7282   -1.6794 C   0  0  0  0  0  0  0  0  0  0  0  0
   -3.4277    4.9741   -2.1284 C   0  0  0  0  0  0  0  0  0  0  0  0
   -4.6323    4.9727   -2.8120 C   0  0  0  0  0  0  0  0  0  0  0  0
   -3.6137    7.1504   -2.5775 C   0  0  0  0  0  0  0  0  0  0  0  0
   -2.1715    0.4494   -3.1174 C   0  0  0  0  0  0  0  0  0  0  0  0
 21  1  1  1
  1 24  1  0
  2 30  1  0
  2 31  1  0
  3 25  2  0
  4 26  1  0
  5 26  2  0
  6 27  2  0
  7 11  1  0
  7 32  1  0
  8 14  1  0
  8 15  1  0
  8 16  1  0
  8 19  1  0
  9 21  1  0
  9 23  1  0
  9 25  1  0
 10 27  1  0
 11 28  2  0
 12 29  1  0
 12 31  2  0
 13 31  1  0
 14 17  1  0
 15 18  1  0
 16 20  1  0
 17 18  1  0
 20 23  2  0
 20 24  1  0
 21 22  1  0
 22 10  1  1
 22 25  1  0
 23 26  1  0
 27 28  1  0
 28 29  1  0
 29 30  2  0
M  CHG  2   4  -1   8   1
M  END
>  <DRUGBANK_ID>  (1) 
DB01413

>  <COMMON_NAME>  (1) 
Cefepime

>  <CAS_NUMBER>  (1) 
88040-23-7

>  <UNII>  (1) 
807PW4VQE3

>  <SYNONYMS>  (1) 
(6R,7R)-7-{[(2Z)-2-(2-amino-1,3-thiazol-4-yl)-2-(methoxyimino)acetyl]amino}-3-[(1-methylpyrrolidinium-1-yl)methyl]-8-oxo-5-thia-1-azabicyclo[4.2.0]oct-2-ene-2-carboxylate; Cefepima; Cefepime; Cefepimum

$$$$
