1525
     RDKit          3D

 13 14  0  0  1  0  0  0  0  0999 V2000
   -0.9568   -0.2695   -1.1563 O   0  0  0  0  0  0  0  0  0  0  0  0
   -1.2147    3.2117   -1.1894 O   0  0  0  0  0  0  0  0  0  0  0  0
   -1.6489    1.8295   -2.8704 O   0  0  0  0  0  0  0  0  0  0  0  0
    1.3459    0.6795   -4.0065 N   0  0  0  0  0  0  0  0  0  0  0  0
    1.4646    1.7667   -3.0179 C   0  0  1  0  0  0  0  0  0  0  0  0
    1.9630   -0.4626   -3.3292 C   0  0  1  0  0  0  0  0  0  0  0  0
    0.5312    1.6077   -1.7889 C   0  0  2  0  0  0  0  0  0  0  0  0
    2.9591    1.6101   -2.6334 C   0  0  0  0  0  0  0  0  0  0  0  0
    3.2871    0.1381   -2.8720 C   0  0  0  0  0  0  0  0  0  0  0  0
    1.1462   -0.9491   -2.1221 C   0  0  0  0  0  0  0  0  0  0  0  0
    0.4101    0.1400   -1.3105 C   0  0  2  0  0  0  0  0  0  0  0  0
    0.0026    0.3932   -4.4967 C   0  0  0  0  0  0  0  0  0  0  0  0
   -0.8444    2.2326   -2.0335 C   0  0  0  0  0  0  0  0  0  0  0  0
  2 13  1  0
  3 13  2  0
  4  5  1  0
  4  6  1  0
  4 12  1  0
  5  7  1  0
  5  8  1  1
  6  9  1  1
  6 10  1  0
  7 11  1  0
  7 13  1  6
  8  9  1  0
 10 11  1  0
 11  1  1  6
M  END
>  <DRUGBANK_ID>  (1) 
DB01525

>  <COMMON_NAME>  (1) 
Ecgonine

>  <CAS_NUMBER>  (1) 
481-37-8

>  <UNII>  (1) 
DX2E9E17AV

$$$$
