
     RDKit          3D

 34 37  0  0  0  0  0  0  0  0999 V2000
   -1.9100   -1.3550    0.0130 O   0  0  0  0  0  0  0  0  0  0  0  0
   -0.9171   -0.6256   -0.0046 C   0  0  0  0  0  0  0  0  0  0  0  0
    0.3585   -1.0482   -0.0386 N   0  0  0  0  0  0  0  0  0  0  0  0
   -0.9974    1.1130    0.0140 S   0  0  0  0  0  0  0  0  0  0  0  0
    0.8199    1.3040    0.0083 C   0  0  0  0  0  0  0  0  0  0  0  0
    1.3424    2.0663   -1.2181 C   0  0  0  0  0  0  0  0  0  0  0  0
    1.0270    3.5418   -1.3189 C   0  0  0  0  0  0  0  0  0  0  0  0
    1.5919    4.4275   -0.3963 C   0  0  0  0  0  0  0  0  0  0  0  0
    1.3470    5.8124   -0.4578 C   0  0  0  0  0  0  0  0  0  0  0  0
    0.4096    6.3120   -1.3629 C   0  0  0  0  0  0  0  0  0  0  0  0
   -0.3503    7.4472   -1.1535 O   0  0  0  0  0  0  0  0  0  0  0  0
   -0.2880    8.1085    0.1282 C   0  0  0  0  0  0  0  0  0  0  0  0
   -1.0155    7.4558    1.3391 C   0  0  0  0  0  0  0  0  0  0  0  0
   -0.5218    6.1210    1.6877 N   0  0  0  0  0  0  0  0  0  0  0  0
    0.2639    5.8959    2.8048 C   0  0  0  0  0  0  0  0  0  0  0  0
   -0.2045    6.3303    4.0073 C   0  0  0  0  0  0  0  0  0  0  0  0
    0.4818    5.9843    5.1452 C   0  0  0  0  0  0  0  0  0  0  0  0
    0.0144    6.3227    6.4055 O   0  0  0  0  0  0  0  0  0  0  0  0
   -1.2461    6.8784    6.5032 C   0  0  0  0  0  0  0  0  0  0  0  0
   -2.3919    6.2304    6.0236 C   0  0  0  0  0  0  0  0  0  0  0  0
   -3.6415    6.8465    6.1114 C   0  0  0  0  0  0  0  0  0  0  0  0
   -3.7722    8.0761    6.7536 C   0  0  0  0  0  0  0  0  0  0  0  0
   -4.9454    8.7682    6.8947 O   0  0  0  0  0  0  0  0  0  0  0  0
   -6.0858    8.2216    6.2344 C   0  0  0  0  0  0  0  0  0  0  0  0
   -2.6348    8.6826    7.3008 C   0  0  0  0  0  0  0  0  0  0  0  0
   -1.3662    8.1145    7.1302 C   0  0  0  0  0  0  0  0  0  0  0  0
    1.6491    5.3191    5.1120 N   0  0  0  0  0  0  0  0  0  0  0  0
    2.0758    4.9891    3.8864 C   0  0  0  0  0  0  0  0  0  0  0  0
    1.4207    5.2152    2.7325 N   0  0  0  0  0  0  0  0  0  0  0  0
   -1.0557    4.9586    1.0029 C   0  0  0  0  0  0  0  0  0  0  0  0
   -0.0772    5.4573   -2.3641 C   0  0  0  0  0  0  0  0  0  0  0  0
    0.1999    4.0749   -2.3182 C   0  0  0  0  0  0  0  0  0  0  0  0
    1.3556   -0.1190   -0.0106 C   0  0  0  0  0  0  0  0  0  0  0  0
    2.5412   -0.4205   -0.0021 O   0  0  0  0  0  0  0  0  0  0  0  0
  1  2  2  0
  2  3  1  0
  2  4  1  0
  3 33  1  0
  4  5  1  0
  5  6  1  0
  5 33  1  0
  6  7  1  0
  7  8  2  0
  7 32  1  0
  8  9  1  0
  9 10  2  0
 10 11  1  0
 10 31  1  0
 11 12  1  0
 12 13  1  0
 13 14  1  0
 14 15  1  0
 14 30  1  0
 15 16  2  0
 15 29  1  0
 16 17  1  0
 17 18  1  0
 17 27  2  0
 18 19  1  0
 19 20  2  0
 19 26  1  0
 20 21  1  0
 21 22  2  0
 22 23  1  0
 22 25  1  0
 23 24  1  0
 25 26  2  0
 27 28  1  0
 28 29  2  0
 31 32  2  0
 33 34  2  0
M  END
>  <DRUGBANK_ID>  (1) 
DB09198

>  <COMMON_NAME>  (1) 
Lobeglitazone

>  <CAS_NUMBER>  (1) 
607723-33-1

>  <UNII>  (1) 
MY89F08K5D

>  <SYNONYMS>  (1) 
Lobeglitazone

$$$$
