
     RDKit          3D

 28 31  0  0  0  0  0  0  0  0999 V2000
    1.8247   -2.9250   -0.6272 C   0  0  2  0  0  0  0  0  0  0  0  0
    2.6608   -2.6081   -1.9111 C   0  0  1  0  0  0  0  0  0  0  0  0
    2.3566   -3.4447    0.7659 C   0  0  1  0  0  0  0  0  0  0  0  0
    0.3326   -3.3683   -0.6904 C   0  0  2  0  0  0  0  0  0  0  0  0
    1.7003   -1.5406   -0.3923 F   0  0  0  0  0  0  0  0  0  0  0  0
    1.7679   -1.2743   -2.6638 C   0  0  2  0  0  0  0  0  0  0  0  0
    4.0296   -2.2096   -1.2109 C   0  0  0  0  0  0  0  0  0  0  0  0
    3.7196   -3.2606    1.4165 C   0  0  0  0  0  0  0  0  0  0  0  0
    1.7824   -2.2462    1.5297 C   0  0  0  0  0  0  0  0  0  0  0  0
    2.0508   -4.9798    0.8329 C   0  0  0  0  0  0  0  0  0  0  0  0
   -0.3751   -2.2518   -1.3562 C   0  0  0  0  0  0  0  0  0  0  0  0
   -0.3426   -3.3695    0.6011 O   0  0  0  0  0  0  0  0  0  0  0  0
    0.2477   -1.7030   -2.6332 C   0  0  1  0  0  0  0  0  0  0  0  0
    1.7302   -0.0737   -3.8199 C   0  0  0  0  0  0  0  0  0  0  0  0
    4.6205   -3.1007    0.0880 C   0  0  1  0  0  0  0  0  0  0  0  0
    3.7487   -2.9363    2.8316 C   0  0  0  0  0  0  0  0  0  0  0  0
    1.2698   -2.3275    2.7458 C   0  0  0  0  0  0  0  0  0  0  0  0
   -0.5192   -0.4178   -2.9537 C   0  0  2  0  0  0  0  0  0  0  0  0
    0.0871   -2.8278   -3.6439 C   0  0  0  0  0  0  0  0  0  0  0  0
    0.2077    0.2218   -4.1426 C   0  0  2  0  0  0  0  0  0  0  0  0
    4.8345   -4.3781   -0.3763 F   0  0  0  0  0  0  0  0  0  0  0  0
    2.5628   -1.8967    3.3008 C   0  0  0  0  0  0  0  0  0  0  0  0
   -0.6714    0.3646   -1.5802 C   0  0  0  0  0  0  0  0  0  0  0  0
   -0.1442   -0.0991   -5.6310 C   0  0  0  0  0  0  0  0  0  0  0  0
    2.7345   -0.7861    3.8542 O   0  0  0  0  0  0  0  0  0  0  0  0
    0.5402    0.8415   -0.7326 C   0  0  0  0  0  0  0  0  0  0  0  0
   -1.7863    0.3507   -1.0299 O   0  0  0  0  0  0  0  0  0  0  0  0
    0.2172    1.9462    0.0798 O   0  0  0  0  0  0  0  0  0  0  0  0
  1  2  1  0
  1  3  1  0
  1  4  1  0
  1  5  1  1
  2  6  1  0
  2  7  1  1
  3  8  1  0
  3  9  1  0
  3 10  1  1
  4 11  1  0
  4 12  1  1
  6 13  1  0
  6 14  1  6
  7 15  1  0
  8 16  2  0
  8 15  1  0
  9 17  2  0
 11 13  1  0
 13 18  1  0
 13 19  1  6
 14 20  1  0
 15 21  1  6
 16 22  1  0
 17 22  1  0
 18 20  1  0
 18 23  1  1
 20 24  1  6
 22 25  2  0
 23 26  1  0
 23 27  2  0
 26 28  1  0
M  END
>  <DRUGBANK_ID>  (1) 
DB09095

>  <COMMON_NAME>  (1) 
Difluocortolone

>  <CAS_NUMBER>  (1) 
2607-06-9

>  <UNII>  (1) 
K253365DXI

>  <SYNONYMS>  (1) 
Diflucortolona; Diflucortolone; Diflucortolonum

$$$$
