
     RDKit          3D

 37 41  0  0  1  0  0  0  0  0999 V2000
   -1.3408   -1.5008    3.5487 C   0  0  0  0  0  0  0  0  0  0  0  0
   -1.4125    1.5033    5.1564 C   0  0  0  0  0  0  0  0  0  0  0  0
    3.8999   -0.9429    4.0834 C   0  0  0  0  0  0  0  0  0  0  0  0
    2.8088   -1.4366    4.8031 C   0  0  0  0  0  0  0  0  0  0  0  0
    0.4911    3.2517   -4.9951 C   0  0  0  0  0  0  0  0  0  0  0  0
    2.7504    2.8437   -4.2896 C   0  0  0  0  0  0  0  0  0  0  0  0
    0.9868    4.2514   -5.8143 C   0  0  0  0  0  0  0  0  0  0  0  0
    3.1501    3.8468   -5.1496 C   0  0  0  0  0  0  0  0  0  0  0  0
   -3.1509   -2.1120    1.8206 C   0  0  0  0  0  0  0  0  0  0  0  0
   -1.5856   -2.0778    1.2645 C   0  0  0  0  0  0  0  0  0  0  0  0
   -1.0406    0.9647    2.0451 C   0  0  0  0  0  0  0  0  0  0  0  0
    2.6080    0.5753    2.7289 C   0  0  0  0  0  0  0  0  0  0  0  0
    0.4762    0.8147    4.0353 C   0  0  0  0  0  0  0  0  0  0  0  0
    0.1519    0.4992   -3.5161 C   0  0  0  0  0  0  0  0  0  0  0  0
    1.2737    1.6975   -1.8488 C   0  0  0  0  0  0  0  0  0  0  0  0
   -3.2444    0.3661    1.3683 C   0  0  0  0  0  0  0  0  0  0  0  0
   -1.5941    0.5118    3.3896 C   0  0  0  0  0  0  0  0  0  0  0  0
    1.3882    2.5540   -4.1811 C   0  0  0  0  0  0  0  0  0  0  0  0
    1.6111    0.2005    3.6475 C   0  0  0  0  0  0  0  0  0  0  0  0
    0.9334    1.5895   -3.1937 C   0  0  0  0  0  0  0  0  0  0  0  0
    3.8100   -0.0021    3.0411 C   0  0  0  0  0  0  0  0  0  0  0  0
   -1.7738    0.3661    0.8929 C   0  0  2  0  0  0  0  0  0  0  0  0
    1.6295   -0.8198    4.5816 C   0  0  0  0  0  0  0  0  0  0  0  0
   -0.5495   -0.2417    4.8625 C   0  0  0  0  0  0  0  0  0  0  0  0
    0.1791   -0.2114   -1.3703 C   0  0  0  0  0  0  0  0  0  0  0  0
   -0.2550   -1.2628   -0.4521 C   0  0  0  0  0  0  0  0  0  0  0  0
    5.2257    0.5254    2.2270 Cl  0  0  0  0  0  0  0  0  0  0  0  0
    2.2954    4.5683   -5.9017 N   0  0  0  0  0  0  0  0  0  0  0  0
   -0.2510   -0.4074   -2.6275 N   0  0  0  0  0  0  0  0  0  0  0  0
    0.8985    0.8251   -0.8980 N   0  0  0  0  0  0  0  0  0  0  0  0
    0.4444   -1.0899    5.2844 N   0  0  0  0  0  0  0  0  0  0  0  0
   -3.5632   -0.7713    2.6344 N   0  0  0  0  0  0  0  0  0  0  0  0
   -1.3161   -0.9792    0.4093 N   0  0  0  0  0  0  0  0  0  0  0  0
    0.2148   -2.3965   -0.5840 O   0  0  0  0  0  0  0  0  0  0  0  0
   -3.5958    0.7933    5.0437 O   0  0  0  0  0  0  0  0  0  0  0  0
   -3.2616   -1.6410    5.5713 O   0  0  0  0  0  0  0  0  0  0  0  0
   -2.9000   -0.4757    4.7520 S   0  0  0  0  0  0  0  0  0  0  0  0
  4  3  2  0
  7  5  2  0
  8  6  1  0
 10  9  1  0
 17  1  1  0
 17  2  1  0
 17 11  1  0
 18  5  1  0
 18  6  2  0
 19 12  1  0
 19 13  1  0
 20 14  2  0
 20 15  1  0
 20 18  1  0
 21  3  1  0
 21 12  2  0
 22 16  1  0
 22 11  1  1
 23  4  1  0
 23 19  2  0
 24 13  2  0
 26 25  1  0
 27 21  1  0
 28  7  1  0
 28  8  2  0
 29 14  1  0
 29 25  2  0
 30 15  2  0
 30 25  1  0
 31 23  1  0
 31 24  1  0
 32  9  1  0
 32 16  1  0
 33 10  1  0
 33 22  1  0
 33 26  1  0
 34 26  2  0
 37 24  1  0
 37 32  1  0
 37 35  2  0
 37 36  2  0
M  END
>  <DRUGBANK_ID>  (1) 
DB04673

>  <COMMON_NAME>  (1) 
4-[(5-CHLOROINDOL-2-YL)SULFONYL]-2-(2-METHYLPROPYL)-1-[[5-(PYRIDIN-4-YL)PYRIMIDIN-2-YL]CARBONYL]PIPERAZINE

$$$$
