
     RDKit          3D

 33 38  0  0  0  0  0  0  0  0999 V2000
    0.1585    2.4384    1.4533 C   0  0  2  0  0  0  0  0  0  0  0  0
    1.7603    1.3235    1.3250 C   0  0  2  0  0  0  0  0  0  0  0  0
    0.5253    2.5437    2.9622 C   0  0  1  0  0  0  0  0  0  0  0  0
   -0.1220    4.0940    1.9393 O   0  0  0  0  0  0  0  0  0  0  0  0
   -0.4659    3.3695    0.1012 C   0  0  0  0  0  0  0  0  0  0  0  0
    2.7226    2.4226    1.6903 C   0  0  2  0  0  0  0  0  0  0  0  0
    2.7393    0.4901    0.2478 C   0  0  0  0  0  0  0  0  0  0  0  0
    1.8112    0.0010    2.2796 C   0  0  0  0  0  0  0  0  0  0  0  0
    2.0566    2.8832    2.9919 C   0  0  0  0  0  0  0  0  0  0  0  0
   -0.2290    3.3643    3.9024 O   0  0  0  0  0  0  0  0  0  0  0  0
   -1.0782    4.1356    3.0709 C   0  0  1  0  0  0  0  0  0  0  0  0
   -0.5161    2.7445   -1.2587 C   0  0  0  0  0  0  0  0  0  0  0  0
   -1.0237    4.4910    0.0735 O   0  0  0  0  0  0  0  0  0  0  0  0
    2.6795    3.1617    0.3238 C   0  0  2  0  0  0  0  0  0  0  0  0
    3.0716    1.1714   -1.0209 C   0  0  0  0  0  0  0  0  0  0  0  0
   -1.7936    5.4893    3.7564 C   0  0  0  0  0  0  0  0  0  0  0  0
   -2.4013    3.3130    2.9462 C   0  0  0  0  0  0  0  0  0  0  0  0
    3.7039    2.6319   -0.6746 C   0  0  1  0  0  0  0  0  0  0  0  0
    2.5416    4.6215    0.3727 C   0  0  0  0  0  0  0  0  0  0  0  0
   -3.0050    5.9980    3.1502 C   0  0  0  0  0  0  0  0  0  0  0  0
   -1.7185    5.7266    5.1549 C   0  0  0  0  0  0  0  0  0  0  0  0
    4.0313    3.7078   -1.8285 C   0  0  1  0  0  0  0  0  0  0  0  0
    2.1864    5.1553   -1.1161 C   0  0  0  0  0  0  0  0  0  0  0  0
   -4.1023    6.5095    3.9037 C   0  0  0  0  0  0  0  0  0  0  0  0
   -2.8016    6.3079    5.8917 C   0  0  0  0  0  0  0  0  0  0  0  0
    3.1128    4.7421   -2.3384 C   0  0  0  0  0  0  0  0  0  0  0  0
    4.6677    5.4294   -1.1995 C   0  0  0  0  0  0  0  0  0  0  0  0
    3.1792    2.8248   -3.0924 C   0  0  0  0  0  0  0  0  0  0  0  0
   -3.9923    6.6905    5.2736 C   0  0  0  0  0  0  0  0  0  0  0  0
    3.7597    5.2396   -3.4753 C   0  0  0  0  0  0  0  0  0  0  0  0
    4.1911    6.9662   -1.9412 C   0  0  0  0  0  0  0  0  0  0  0  0
    4.2373    6.6280   -3.3726 C   0  0  0  0  0  0  0  0  0  0  0  0
    4.6953    7.2702   -4.2605 O   0  0  0  0  0  0  0  0  0  0  0  0
  1  2  1  0
  1  3  1  0
  1  4  1  0
  1  5  1  1
  2  6  1  0
  2  7  1  0
  2  8  1  1
  3  9  1  6
  3 10  1  0
  4 11  1  0
  5 12  1  0
  5 13  2  0
  6 14  1  0
  6  9  1  1
  7 15  1  0
 10 11  1  0
 11 16  1  0
 11 17  1  6
 14 18  1  0
 14 19  1  1
 18 15  1  6
 16 20  2  0
 16 21  1  0
 18 22  1  0
 19 23  1  0
 20 24  1  0
 21 25  2  0
 22 26  1  0
 22 27  1  0
 22 28  1  6
 23 26  1  0
 24 29  2  0
 25 29  1  0
 26 30  2  0
 27 31  1  0
 30 32  1  0
 31 32  1  0
 32 33  2  0
M  END
>  <DRUGBANK_ID>  (1) 
DB15775

>  <COMMON_NAME>  (1) 
Algestone acetophenide

>  <CAS_NUMBER>  (1) 
24356-94-3

>  <UNII>  (1) 
OL7KC2O3OT

>  <SYNONYMS>  (1) 
Algeston acetofenid; Algestone acetophenide; Alphasone acetophenide; Dihydroxyprogesterone acetophenide

$$$$
