MO8
     RDKit          3D

 12 13  0  0  0  0  0  0  0  0999 V2000
    0.8675    0.1017   -0.1167 N   0  0  0  0  0  0  0  0  0  0  0  0
    0.1764    1.1190    0.5075 C   0  0  0  0  0  0  0  0  0  0  0  0
    0.6030    2.3660    0.3135 N   0  0  0  0  0  0  0  0  0  0  0  0
   -0.1772    3.3725    0.7844 C   0  0  0  0  0  0  0  0  0  0  0  0
    0.2813    4.7652    0.4396 C   0  0  0  0  0  0  0  0  0  0  0  0
   -1.3412    3.1413    1.5102 C   0  0  0  0  0  0  0  0  0  0  0  0
   -0.9039    0.7926    1.2178 N   0  0  0  0  0  0  0  0  0  0  0  0
   -1.6326    1.8067    1.7578 C   0  0  0  0  0  0  0  0  0  0  0  0
   -2.8158    1.3763    2.5967 C   0  0  0  0  0  0  0  0  0  0  0  0
   -3.3854    2.4467    3.5216 C   0  0  0  0  0  0  0  0  0  0  0  0
   -3.8268    3.9053    2.5612 S   0  0  0  0  0  0  0  0  0  0  0  0
   -2.1508    4.2922    2.0362 C   0  0  0  0  0  0  0  0  0  0  0  0
  1  2  1  0
  2  3  2  0
  3  4  1  0
  4  5  1  0
  6  4  2  0
  6 12  1  0
  7  2  1  0
  7  8  2  0
  8  6  1  0
  9  8  1  0
 10  9  1  0
 10 11  1  0
 11 12  1  0
M  END
>  <DRUGBANK_ID>  (1) 
DB08194

>  <COMMON_NAME>  (1) 
4-methyl-7,8-dihydro-5H-thiopyrano[4,3-d]pyrimidin-2-amine

>  <UNII>  (1) 
AN8UFC8Y2Y

$$$$
