894
     RDKit          3D

 28 30  0  0  0  0  0  0  0  0999 V2000
    2.3701    0.2029   -0.6584 Cl  0  0  0  0  0  0  0  0  0  0  0  0
    0.1951    0.1451   -0.4750 C   0  0  0  0  0  0  0  0  0  0  0  0
   -0.6546    1.3601   -1.2627 C   0  0  0  0  0  0  0  0  0  0  0  0
   -2.4416    1.4218   -0.7330 C   0  0  0  0  0  0  0  0  0  0  0  0
   -2.9183    0.3406    0.4593 C   0  0  0  0  0  0  0  0  0  0  0  0
   -3.9858   -0.6957    0.2023 C   0  0  0  0  0  0  0  0  0  0  0  0
   -2.7649   -3.0342   -1.2579 S   0  0  0  0  0  0  0  0  0  0  0  0
   -2.8463   -3.7162    0.0202 O   0  0  0  0  0  0  0  0  0  0  0  0
   -3.0684   -3.7669   -2.4692 O   0  0  0  0  0  0  0  0  0  0  0  0
   -1.0454   -2.6346   -1.4769 N   0  0  0  0  0  0  0  0  0  0  0  0
   -0.5145   -2.0795   -0.2564 C   0  0  1  0  0  0  0  0  0  0  0  0
    0.9225   -1.5581    0.3165 C   0  0  0  0  0  0  0  0  0  0  0  0
    0.7287    0.1284    1.4241 C   0  0  0  0  0  0  0  0  0  0  0  0
   -1.4615   -0.4577   -0.6248 C   0  0  0  0  0  0  0  0  0  0  0  0
   -2.0304   -0.4145   -1.7537 O   0  0  0  0  0  0  0  0  0  0  0  0
   -0.8665    0.9369    0.6977 N   0  0  0  0  0  0  0  0  0  0  0  0
   -1.4624    2.4433    1.1236 C   0  0  1  0  0  0  0  0  0  0  0  0
   -1.4544    2.5568    2.5928 C   0  0  0  0  0  0  0  0  0  0  0  0
   -0.8114    3.6345    0.2646 C   0  0  0  0  0  0  0  0  0  0  0  0
   -1.4671    4.2226   -0.6151 O   0  0  0  0  0  0  0  0  0  0  0  0
    0.5973    3.7732    0.2768 N   0  0  0  0  0  0  0  0  0  0  0  0
    1.7375    2.8482    0.2669 C   0  0  0  0  0  0  0  0  0  0  0  0
    2.3641    2.6873    1.6477 C   0  0  0  0  0  0  0  0  0  0  0  0
    2.9232    3.9585    1.9121 O   0  0  0  0  0  0  0  0  0  0  0  0
    1.8757    4.9594    1.7984 C   0  0  0  0  0  0  0  0  0  0  0  0
    1.1581    5.0429    0.4336 C   0  0  0  0  0  0  0  0  0  0  0  0
   -1.2207   -0.8128    1.3674 S   0  0  0  0  0  0  0  0  0  0  0  0
   -3.9660   -1.5563   -1.1268 C   0  0  0  0  0  0  0  0  0  0  0  0
  1  2  1  0
  2 27  1  0
  2  3  2  0
  3  4  1  0
  4  5  2  0
  5  6  1  0
  5 27  1  0
  6 28  1  0
  7  8  2  0
  7  9  2  0
  7 10  1  0
  7 28  1  0
 11 10  1  6
 11 12  1  0
 11 14  1  0
 12 13  1  0
 13 16  1  0
 14 15  2  0
 14 16  1  0
 16 17  1  0
 17 18  1  1
 17 19  1  0
 19 20  2  0
 19 21  1  0
 21 22  1  0
 21 26  1  0
 22 23  1  0
 23 24  1  0
 24 25  1  0
 25 26  1  0
M  END
>  <DRUGBANK_ID>  (1) 
DB07277

>  <COMMON_NAME>  (1) 
2-(5-CHLORO-2-THIENYL)-N-{(3S)-1-[(1S)-1-METHYL-2-MORPHOLIN-4-YL-2-OXOETHYL]-2-OXOPYRROLIDIN-3-YL}ETHANESULFONAMIDE

$$$$
