
     RDKit          3D

 32 34  0  0  1  0  0  0  0  0999 V2000
    1.2017   -1.5078    2.0236 N   0  0  0  0  0  0  0  0  0  0  0  0
   -0.3315   -0.8639    1.9312 C   0  0  0  0  0  0  0  0  0  0  0  0
    1.8364   -2.9178    1.0226 C   0  0  2  0  0  0  0  0  0  0  0  0
    1.9326   -0.1758    2.2070 C   0  0  0  0  0  0  0  0  0  0  0  0
   -0.2061    0.5573    1.8410 C   0  0  0  0  0  0  0  0  0  0  0  0
   -1.4281   -1.5181    1.3315 N   0  0  0  0  0  0  0  0  0  0  0  0
    3.0277   -3.1485    1.7403 O   0  0  0  0  0  0  0  0  0  0  0  0
    2.4639   -3.6249   -0.6947 C   0  0  1  0  0  0  0  0  0  0  0  0
    1.1766    0.9052    1.9077 N   0  0  0  0  0  0  0  0  0  0  0  0
   -1.4179    1.3174    1.2210 C   0  0  0  0  0  0  0  0  0  0  0  0
   -2.2793   -0.8230    0.6452 C   0  0  0  0  0  0  0  0  0  0  0  0
    4.1571   -3.6455    1.0062 C   0  0  1  0  0  0  0  0  0  0  0  0
    3.8031   -4.2729   -0.3588 C   0  0  1  0  0  0  0  0  0  0  0  0
    1.6168   -3.8688   -1.8164 O   0  0  0  0  0  0  0  0  0  0  0  0
   -2.3238    0.5584    0.5638 N   0  0  0  0  0  0  0  0  0  0  0  0
   -1.6668    2.5839    1.1760 O   0  0  0  0  0  0  0  0  0  0  0  0
   -3.2888   -1.3925   -0.0940 N   0  0  0  0  0  0  0  0  0  0  0  0
    5.3541   -2.5935    1.1015 C   0  0  0  0  0  0  0  0  0  0  0  0
    3.4957   -5.6415   -0.3452 O   0  0  0  0  0  0  0  0  0  0  0  0
    5.1851   -1.1835    0.7032 O   0  0  0  0  0  0  0  0  0  0  0  0
    4.7256   -1.1117   -0.9631 P   0  0  2  0  0  0  0  0  0  0  0  0
    3.5691    0.1200   -0.5911 O   0  0  0  0  0  0  0  0  0  0  0  0
    6.0831   -0.2114   -1.1004 O   0  0  0  0  0  0  0  0  0  0  0  0
    4.3143   -1.0474   -2.4545 O   0  0  0  0  0  0  0  0  0  0  0  0
    2.0506   -0.6128   -0.2039 P   0  0  2  0  0  0  0  0  0  0  0  0
    1.2773    0.3491   -1.4162 O   0  0  0  0  0  0  0  0  0  0  0  0
    2.4645   -1.6351   -1.2076 O   0  0  0  0  0  0  0  0  0  0  0  0
    0.6915   -1.2687    0.1426 O   0  0  0  0  0  0  0  0  0  0  0  0
    0.7383    1.8361   -0.7154 P   0  0  0  0  0  0  0  0  0  0  0  0
    1.2830    2.5306   -2.1037 O   0  0  0  0  0  0  0  0  0  0  0  0
   -0.6973    1.4051   -1.4042 O   0  0  0  0  0  0  0  0  0  0  0  0
    0.2560    3.1671   -0.0882 O   0  0  0  0  0  0  0  0  0  0  0  0
  1  2  1  0
  1  4  1  0
  2  5  2  0
  2  6  1  0
  3  1  1  6
  3  7  1  0
  3  8  1  0
  4  9  2  0
  5 10  1  0
  5  9  1  0
  6 11  2  0
  7 12  1  0
  8 13  1  0
  8 14  1  1
 10 15  1  0
 10 16  2  0
 11 17  1  0
 11 15  1  0
 12 13  1  0
 12 18  1  6
 13 19  1  1
 18 20  1  0
 20 21  1  0
 21 22  1  0
 21 23  1  6
 21 24  2  0
 22 25  1  0
 25 26  1  0
 25 27  1  6
 25 28  2  0
 26 29  1  0
 29 30  1  0
 29 31  1  0
 29 32  2  0
M  END
>  <DRUGBANK_ID>  (1) 
DB04137

>  <SECONDARY_ACCESSION_NUMBERS>  (1) 
EXPT01660

>  <COMMON_NAME>  (1) 
Guanosine-5'-Triphosphate

>  <CAS_NUMBER>  (1) 
86-01-1

>  <UNII>  (1) 
01WV7J708X

$$$$
