
     RDKit          3D

 22 24  0  0  0  0  0  0  0  0999 V2000
    1.0715    0.3979    0.6869 C   0  0  0  0  0  0  0  0  0  0  0  0
    0.5354    1.7676    0.7615 C   0  0  0  0  0  0  0  0  0  0  0  0
    1.9604    5.5459   -3.7539 C   0  0  0  0  0  0  0  0  0  0  0  0
    1.4457    6.3976   -2.7762 C   0  0  0  0  0  0  0  0  0  0  0  0
    2.0678    4.1574   -3.5345 C   0  0  0  0  0  0  0  0  0  0  0  0
    1.0405    5.8904   -1.5435 C   0  0  0  0  0  0  0  0  0  0  0  0
    0.4967   -1.0621   -1.8139 C   0  0  0  0  0  0  0  0  0  0  0  0
    2.9077   -1.1950   -1.5972 C   0  0  0  0  0  0  0  0  0  0  0  0
    1.7692   -0.4641   -2.0052 C   0  0  0  0  0  0  0  0  0  0  0  0
    1.6368    3.6053   -2.3070 C   0  0  0  0  0  0  0  0  0  0  0  0
    0.3726   -2.2047   -0.9801 C   0  0  0  0  0  0  0  0  0  0  0  0
    2.7680   -2.4149   -0.8962 C   0  0  0  0  0  0  0  0  0  0  0  0
    0.9984    2.5271   -0.4422 C   0  0  0  0  0  0  0  0  0  0  0  0
    1.1555    4.5089   -1.3687 C   0  0  0  0  0  0  0  0  0  0  0  0
    1.5292    2.2551   -1.7265 C   0  0  0  0  0  0  0  0  0  0  0  0
    1.9417    0.9827   -2.4560 C   0  0  0  0  0  0  0  0  0  0  0  0
    1.5042   -2.8885   -0.5247 C   0  0  0  0  0  0  0  0  0  0  0  0
   -1.5286   -2.6172   -0.1228 I   0  0  0  0  0  0  0  0  0  0  0  0
    4.4881   -3.4857   -0.3568 I   0  0  0  0  0  0  0  0  0  0  0  0
    2.5435    1.0696   -3.5446 O   0  0  0  0  0  0  0  0  0  0  0  0
    1.3483   -3.9685    0.3058 O   0  0  0  0  0  0  0  0  0  0  0  0
    0.7931    3.8577   -0.2503 O   0  0  0  0  0  0  0  0  0  0  0  0
  2  1  1  0
  4  3  2  0
  5  3  1  0
  6  4  1  0
  9  7  2  0
  9  8  1  0
 10  5  2  0
 11  7  1  0
 12  8  2  0
 13  2  1  0
 14  6  2  0
 14 10  1  0
 15 10  1  0
 15 13  2  0
 16  9  1  0
 16 15  1  0
 17 11  2  0
 17 12  1  0
 18 11  1  0
 19 12  1  0
 20 16  2  0
 21 17  1  0
 22 13  1  0
 22 14  1  0
M  END
>  <DRUGBANK_ID>  (1) 
DB13277

>  <COMMON_NAME>  (1) 
Benziodarone

>  <CAS_NUMBER>  (1) 
68-90-6

>  <UNII>  (1) 
75CL65GTYR

>  <SYNONYMS>  (1) 
Benziodarone

$$$$
