
     RDKit          3D

 19 18  0  0  0  0  0  0  0  0999 V2000
    0.8372   -0.0727   -0.0348 N   0  0  0  0  0  0  0  0  0  0  0  0
    0.1189   -1.1842    0.6881 C   0  0  0  0  0  0  0  0  0  0  0  0
    0.3445    1.3363    0.4913 C   0  0  0  0  0  0  0  0  0  0  0  0
    0.8287    2.5941   -0.2975 C   0  0  0  0  0  0  0  0  0  0  0  0
   -0.0758    3.1831   -0.9303 O   0  0  0  0  0  0  0  0  0  0  0  0
    2.0863    2.7737   -0.2930 O   0  0  0  0  0  0  0  0  0  0  0  0
    0.4233   -0.1871   -1.4911 C   0  0  0  0  0  0  0  0  0  0  0  0
    2.3780   -0.0704    0.0375 C   0  0  0  0  0  0  0  0  0  0  0  0
    2.9052    0.1397    1.4634 C   0  0  0  0  0  0  0  0  0  0  0  0
    2.5516   -1.0022    2.4098 C   0  0  0  0  0  0  0  0  0  0  0  0
    2.9755   -2.3386    1.7930 C   0  0  0  0  0  0  0  0  0  0  0  0
    4.4976   -2.3645    1.7551 C   0  0  0  0  0  0  0  0  0  0  0  0
    5.0192   -2.2065    3.1851 C   0  0  0  0  0  0  0  0  0  0  0  0
    4.4634   -3.3423    4.0527 C   0  0  0  0  0  0  0  0  0  0  0  0
    4.9459   -4.6795    3.4873 C   0  0  0  0  0  0  0  0  0  0  0  0
    6.4782   -4.7034    3.4709 C   0  0  0  0  0  0  0  0  0  0  0  0
    7.0321   -4.5467    4.8916 C   0  0  0  0  0  0  0  0  0  0  0  0
    6.5316   -5.6670    5.8034 C   0  0  0  0  0  0  0  0  0  0  0  0
    6.9735   -7.0185    5.2667 C   0  0  0  0  0  0  0  0  0  0  0  0
  2  1  1  0
  3  1  1  0
  3  4  1  0
  4  5  1  0
  4  6  2  0
  7  1  1  0
  8  1  1  0
  9  8  1  0
 10  9  1  0
 11 10  1  0
 12 11  1  0
 13 12  1  0
 14 13  1  0
 15 14  1  0
 16 15  1  0
 17 16  1  0
 18 17  1  0
 19 18  1  0
M  CHG  2   1   1   5  -1
M  END
>  <DRUGBANK_ID>  (1) 
DB07631

>  <COMMON_NAME>  (1) 
Lauryldimethylbetaine

>  <CAS_NUMBER>  (1) 
683-10-3

>  <UNII>  (1) 
Y4P927Q133

>  <SYNONYMS>  (1) 
Dodecylbetaine; Lauryl dimethyl glycine; Lauryl-N-betaine; Laurylbetain

$$$$
