Untitled Document-7
     RDKit          3D

 21 24  0  0  0  0  0  0  0  0999 V2000
    1.4817   -1.1748    0.4735 C   0  0  0  0  0  0  0  0  0  0  0  0
    1.6482   -2.6643    1.1740 C   0  0  1  0  0  0  0  0  0  0  0  0
    2.1018   -2.5185    2.6991 C   0  0  0  0  0  0  0  0  0  0  0  0
    2.2034   -1.0110    2.9917 C   0  0  1  0  0  0  0  0  0  0  0  0
    0.8044   -0.4031    2.6884 C   0  0  2  0  0  0  0  0  0  0  0  0
    0.3054   -0.7607    1.2898 C   0  0  0  0  0  0  0  0  0  0  0  0
    2.7089   -0.5171    4.3462 C   0  0  0  0  0  0  0  0  0  0  0  0
    2.7083    1.0937    4.4704 C   0  0  0  0  0  0  0  0  0  0  0  0
    1.2655    1.7653    4.1735 C   0  0  2  0  0  0  0  0  0  0  0  0
    0.9375    1.1486    2.7094 C   0  0  2  0  0  0  0  0  0  0  0  0
    0.7206    3.4950    4.6633 C   0  0  1  0  0  0  0  0  0  0  0  0
    0.0830    3.5991    3.3429 C   0  0  2  0  0  0  0  0  0  0  0  0
   -0.1034    3.1478    1.9823 C   0  0  0  0  0  0  0  0  0  0  0  0
   -0.2965    1.7051    2.0262 C   0  0  0  0  0  0  0  0  0  0  0  0
   -0.7502    4.8663    4.5214 C   0  0  0  0  0  0  0  0  0  0  0  0
   -0.5448    5.8201    3.3089 C   0  0  0  0  0  0  0  0  0  0  0  0
    0.7320    5.1598    3.2771 C   0  0  2  0  0  0  0  0  0  0  0  0
    0.4052   -3.4191    1.2286 O   0  0  0  0  0  0  0  0  0  0  0  0
   -0.2553   -0.9553    3.6529 C   0  0  0  0  0  0  0  0  0  0  0  0
   -1.1665    2.6581    4.4210 C   0  0  0  0  0  0  0  0  0  0  0  0
    1.6346    5.4527    2.2509 O   0  0  0  0  0  0  0  0  0  0  0  0
  1  2  1  0
  2  3  1  0
  2 18  1  1
  4  3  1  1
  4  5  1  0
  4  7  1  0
  5  6  1  0
  5 19  1  1
  6  1  1  0
  7  8  1  0
  9  8  1  6
  9 10  1  0
  9 11  1  0
 10  5  1  0
 11 12  1  0
 11 15  1  1
 12 13  1  0
 12 20  1  1
 13 14  1  0
 10 14  1  1
 15 16  1  0
 16 17  1  0
 17 12  1  0
 17 21  1  6
M  END
>  <DRUGBANK_ID>  (1) 
DB03882

>  <SECONDARY_ACCESSION_NUMBERS>  (1) 
EXPT00530; DB01507

>  <COMMON_NAME>  (1) 
5-Alpha-Androstane-3-Beta,17beta-Diol

>  <CAS_NUMBER>  (1) 
571-20-0

>  <UNII>  (1) 
6J0K4253QD

$$$$
