
     RDKit          3D

 10 10  0  0  0  0  0  0  0  0999 V2000
   -2.3369    1.1981    0.0033 C   0  0  0  0  0  0  0  0  0  0  0  0
   -1.1047    0.3486   -0.0056 C   0  0  0  0  0  0  0  0  0  0  0  0
   -1.2640   -0.9843   -0.0015 N   0  0  0  0  0  0  0  0  0  0  0  0
   -0.1311   -1.7072    0.0086 C   0  0  0  0  0  0  0  0  0  0  0  0
    1.1411   -1.1665    0.0197 C   0  0  0  0  0  0  0  0  0  0  0  0
    2.3327   -2.0634    0.0124 C   0  0  0  0  0  0  0  0  0  0  0  0
    2.3370   -2.8997    1.1628 O   0  0  0  0  0  0  0  0  0  0  0  0
    1.1949    0.2177   -0.0029 C   0  0  0  0  0  0  0  0  0  0  0  0
    2.3694    0.9214    0.0645 N   0  0  0  0  0  0  0  0  0  0  0  0
    0.0852    0.9754   -0.0099 N   0  0  0  0  0  0  0  0  0  0  0  0
  1  2  1  0
  2  3  2  0
  2 10  1  0
  3  4  1  0
  4  5  2  0
  5  6  1  0
  5  8  1  0
  6  7  1  0
  8  9  1  0
  8 10  2  0
M  END
>  <DRUGBANK_ID>  (1) 
DB02022

>  <SECONDARY_ACCESSION_NUMBERS>  (1) 
EXPT01759

>  <COMMON_NAME>  (1) 
4-Amino-5-Hydroxymethyl-2-Methylpyrimidine

>  <CAS_NUMBER>  (1) 
73-67-6

>  <UNII>  (1) 
G62V17J09J

$$$$
