
     RDKit          3D

 37 40  0  0  1  0  0  0  0  0999 V2000
   -2.8129   -3.8362    0.1403 C   0  0  0  0  0  0  0  0  0  0  0  0
   -0.7304    0.5082   -0.7360 C   0  0  0  0  0  0  0  0  0  0  0  0
   -1.3943   -3.3469    0.2189 C   0  0  0  0  0  0  0  0  0  0  0  0
   -1.4778   -0.8144   -0.8217 C   0  0  1  0  0  0  0  0  0  0  0  0
   -1.0274   -1.8059    0.3247 C   0  0  0  0  0  0  0  0  0  0  0  0
   -3.6784   -2.8906    0.5927 N   0  0  0  0  0  0  0  0  0  0  0  0
   -6.9663   -4.1900   -2.5122 C   0  0  0  0  0  0  0  0  0  0  0  0
    0.5835    0.4001   -1.2334 O   0  0  0  0  0  0  0  0  0  0  0  0
    1.1847   -0.7816   -1.7663 C   0  0  0  0  0  0  0  0  0  0  0  0
   -7.5194   -3.5354   -1.2251 C   0  0  2  0  0  0  0  0  0  0  0  0
   -3.0977   -4.9262   -0.2981 O   0  0  0  0  0  0  0  0  0  0  0  0
   -1.1257    1.5589   -0.2907 O   0  0  0  0  0  0  0  0  0  0  0  0
   -7.9220   -4.7323   -3.3020 O   0  0  0  0  0  0  0  0  0  0  0  0
   -7.1035   -2.0700   -1.1830 C   0  0  0  0  0  0  0  0  0  0  0  0
   -7.0495   -4.2460    0.0454 C   0  0  0  0  0  0  0  0  0  0  0  0
   -5.0904   -2.7691    0.2687 C   0  0  1  0  0  0  0  0  0  0  0  0
   -5.8079   -4.2193   -2.8460 O   0  0  0  0  0  0  0  0  0  0  0  0
   -5.6010   -1.9408   -0.9649 C   0  0  0  0  0  0  0  0  0  0  0  0
   -5.5738   -4.1768    0.1893 C   0  0  0  0  0  0  0  0  0  0  0  0
   -2.8973   -0.9428   -1.2436 C   0  0  0  0  0  0  0  0  0  0  0  0
   -0.9705   -3.8547   -1.1071 C   0  0  0  0  0  0  0  0  0  0  0  0
   -0.5952   -4.2622    1.1950 C   0  0  0  0  0  0  0  0  0  0  0  0
   -3.7046    0.0134   -1.8574 O   0  0  0  0  0  0  0  0  0  0  0  0
   -3.2961    1.2935    1.2157 O   0  0  0  0  0  0  0  0  0  0  0  0
   -3.9408    1.8341    0.0421 C   0  0  0  0  0  0  0  0  0  0  0  0
   -3.6078    1.3561   -1.4312 C   0  0  0  0  0  0  0  0  0  0  0  0
   -3.8312    0.0515    1.5661 C   0  0  0  0  0  0  0  0  0  0  0  0
    0.4163   -4.1960   -0.7730 C   0  0  0  0  0  0  0  0  0  0  0  0
    0.7897   -4.3643    0.6477 C   0  0  0  0  0  0  0  0  0  0  0  0
    2.2369   -1.3037   -1.0035 C   0  0  0  0  0  0  0  0  0  0  0  0
    2.8152   -2.5372   -1.3880 C   0  0  0  0  0  0  0  0  0  0  0  0
    0.6427   -1.4830   -2.8748 C   0  0  0  0  0  0  0  0  0  0  0  0
    2.2705   -3.2673   -2.4894 C   0  0  0  0  0  0  0  0  0  0  0  0
    1.1253   -2.7620   -3.1710 C   0  0  0  0  0  0  0  0  0  0  0  0
    2.4048   -4.7678   -2.7616 C   0  0  0  0  0  0  0  0  0  0  0  0
    1.4186   -4.9466   -3.9490 C   0  0  0  0  0  0  0  0  0  0  0  0
    0.3316   -3.8754   -3.8571 C   0  0  0  0  0  0  0  0  0  0  0  0
  3  1  1  0
  4 20  1  1
  4  5  1  0
  4  2  1  0
  5  3  1  0
  6  1  1  0
  8  2  1  0
  9  8  1  0
  9 30  2  0
 10  7  1  6
 10 15  1  0
 10 14  1  0
 11  1  2  0
 12  2  2  0
 13  7  1  0
 14 18  1  0
 15 19  1  0
 16  6  1  6
 17  7  2  0
 18 16  1  0
 19 16  1  0
 21  3  1  0
 22  3  1  0
 23 20  1  0
 24 25  1  0
 25 26  1  0
 26 23  1  0
 27 24  1  0
 28 21  1  0
 28 29  1  0
 29 22  1  0
 31 30  1  0
 32  9  1  0
 33 31  2  0
 34 32  2  0
 34 33  1  0
 35 33  1  0
 36 35  1  0
 37 34  1  0
 37 36  1  0
M  END
>  <DRUGBANK_ID>  (1) 
DB00616

>  <SECONDARY_ACCESSION_NUMBERS>  (1) 
APRD00027

>  <COMMON_NAME>  (1) 
Candoxatril

>  <CAS_NUMBER>  (1) 
123122-55-4

>  <UNII>  (1) 
ACP75508EE

>  <SYNONYMS>  (1) 
[4(S)-cis]-4-[[[1-[3-[(2,3-dihydro-1H-Indeb5-yl)oxy]-2-[(2-methoxyethoxy)methyl]-3-oxopropyl]cyclopentyl]carbonyl]amino]cyclohexanecarboxylic acid; 4-({1-[(S)-2-(indan-5-yloxycarbonyl)-3-(2-methoxy-ethoxy)-propyl]-cyclopentanecarbonyl}-amino)-cyclohexanecarboxylic acid; Candoxatril

$$$$
