617
     RDKit          3D

 11 11  0  0  1  0  0  0  0  0999 V2000
   -0.6971   -0.9176   -0.0201 O   0  0  0  0  0  0  0  0  0  0  0  0
    2.2997    0.8417    0.1417 O   0  0  0  0  0  0  0  0  0  0  0  0
   -2.1164    0.8013    0.4633 O   0  0  0  0  0  0  0  0  0  0  0  0
    0.0458    1.1488   -0.2383 N   0  0  0  0  0  0  0  0  0  0  0  0
    0.7311   -1.0340    0.0957 C   0  0  0  0  0  0  0  0  0  0  0  0
    1.0226   -1.7298    1.4258 C   0  0  0  0  0  0  0  0  0  0  0  0
    1.1603    0.4214    0.0158 C   0  0  0  0  0  0  0  0  0  0  0  0
    1.3720   -1.7887   -1.0713 C   0  0  0  0  0  0  0  0  0  0  0  0
   -1.0209    0.4033    0.0895 C   0  0  0  0  0  0  0  0  0  0  0  0
    0.4932   -3.1684    1.4434 C   0  0  0  0  0  0  0  0  0  0  0  0
    0.0044    2.5335   -0.6508 C   0  0  0  0  0  0  0  0  0  0  0  0
  1  5  1  0
  1  9  1  0
  2  7  2  0
  3  9  2  0
  4  7  1  0
  4  9  1  0
  4 11  1  0
  5  6  1  0
  5  7  1  0
  5  8  1  0
  6 10  1  0
M  END
>  <DRUGBANK_ID>  (1) 
DB00617

>  <SECONDARY_ACCESSION_NUMBERS>  (1) 
APRD00236

>  <COMMON_NAME>  (1) 
Paramethadione

>  <CAS_NUMBER>  (1) 
115-67-3

>  <UNII>  (1) 
Z615FRW64N

>  <SYNONYMS>  (1) 
Parametadiona; Parametadione; Paramethadione; Paramethadionum

$$$$
