745
     RDKit          3D

 22 25  0  0  0  0  0  0  0  0999 V2000
    2.9960   -2.5304   -0.6587 C   0  0  0  0  0  0  0  0  0  0  0  0
    2.0461   -3.2314    0.1080 C   0  0  0  0  0  0  0  0  0  0  0  0
    1.2886   -4.3081   -0.4004 C   0  0  0  0  0  0  0  0  0  0  0  0
    1.4643   -4.7102   -1.7375 C   0  0  0  0  0  0  0  0  0  0  0  0
    2.3800   -4.0001   -2.5296 C   0  0  0  0  0  0  0  0  0  0  0  0
    3.1373   -2.9403   -1.9955 C   0  0  0  0  0  0  0  0  0  0  0  0
    0.3560   -4.9884    0.3941 C   0  0  0  0  0  0  0  0  0  0  0  0
   -0.3630   -6.0783   -0.1092 C   0  0  0  0  0  0  0  0  0  0  0  0
   -0.1869   -6.5046   -1.4314 C   0  0  0  0  0  0  0  0  0  0  0  0
    0.7225   -5.8036   -2.2391 C   0  0  0  0  0  0  0  0  0  0  0  0
   -0.9598   -7.6884   -1.9449 C   0  0  0  0  0  0  0  0  0  0  0  0
   -0.8574   -8.1507   -3.1574 N   0  0  0  0  0  0  0  0  0  0  0  0
   -1.8313   -8.3688   -1.1611 N   0  0  0  0  0  0  0  0  0  0  0  0
    3.6726   -1.2948   -0.0753 C   0  0  1  0  0  0  0  0  0  0  0  0
    4.7569   -1.3797    0.9942 C   0  0  2  0  0  0  0  0  0  0  0  0
    4.7709   -0.4514    2.2042 C   0  0  0  0  0  0  0  0  0  0  0  0
    3.8321   -0.6351    3.2367 C   0  0  0  0  0  0  0  0  0  0  0  0
    3.9432    0.0198    4.4704 C   0  0  0  0  0  0  0  0  0  0  0  0
    5.0071    0.8822    4.7073 C   0  0  0  0  0  0  0  0  0  0  0  0
    5.9413    1.1044    3.7001 C   0  0  0  0  0  0  0  0  0  0  0  0
    5.8025    0.4742    2.4523 C   0  0  0  0  0  0  0  0  0  0  0  0
    5.0959   -0.9154   -0.3971 C   0  0  0  0  0  0  0  0  0  0  0  0
  1  2  2  0
  1  6  1  0
  2  3  1  0
  3  4  2  0
  3  7  1  0
  4  5  1  0
  4 10  1  0
  5  6  2  0
  7  8  2  0
  8  9  1  0
  9 10  2  0
  9 11  1  0
 11 12  2  0
 11 13  1  0
 14 15  1  0
 14 22  1  0
 14  1  1  6
 15 16  1  1
 15 22  1  0
 16 17  2  0
 16 21  1  0
 17 18  1  0
 18 19  2  0
 19 20  1  0
 20 21  2  0
M  END
>  <DRUGBANK_ID>  (1) 
DB03476

>  <SECONDARY_ACCESSION_NUMBERS>  (1) 
EXPT00296

>  <COMMON_NAME>  (1) 
Trans-6-(2-Phenylcyclopropyl)-Naphthalene-2-Carboxamidine

$$$$
