2200
     RDKit          3D

 20 22  0  0  1  0  0  0  0  0999 V2000
    1.1323   -0.0226    0.0255 N   0  0  0  0  0  0  0  0  0  0  0  0
   -1.4174   -0.4215    1.8028 N   0  0  0  0  0  0  0  0  0  0  0  0
   -0.7592   -2.5898    1.8245 N   0  0  0  0  0  0  0  0  0  0  0  0
    0.2865   -1.2426    0.0139 C   0  0  0  0  0  0  0  0  0  0  0  0
   -0.6338   -1.4207    1.2422 C   0  0  0  0  0  0  0  0  0  0  0  0
    0.4466    1.2722    0.0199 C   0  0  0  0  0  0  0  0  0  0  0  0
   -1.7446   -0.8409    3.1425 C   0  0  0  0  0  0  0  0  0  0  0  0
    2.5302   -0.0393    0.0130 C   0  0  0  0  0  0  0  0  0  0  0  0
   -1.7568   -2.3451    2.9176 C   0  0  0  0  0  0  0  0  0  0  0  0
    0.6660    2.0563    1.3149 C   0  0  0  0  0  0  0  0  0  0  0  0
    3.2851    1.1568    0.0125 C   0  0  0  0  0  0  0  0  0  0  0  0
    3.2881   -1.2154    0.0687 C   0  0  0  0  0  0  0  0  0  0  0  0
    0.6460    3.4535    1.2840 C   0  0  0  0  0  0  0  0  0  0  0  0
    0.8554    1.4244    2.5597 C   0  0  0  0  0  0  0  0  0  0  0  0
    4.6723    1.1920    0.1701 C   0  0  0  0  0  0  0  0  0  0  0  0
    4.6824   -1.1951    0.2357 C   0  0  0  0  0  0  0  0  0  0  0  0
    0.7440    4.1866    2.4676 C   0  0  0  0  0  0  0  0  0  0  0  0
    0.8565    2.1485    3.7475 C   0  0  0  0  0  0  0  0  0  0  0  0
    5.3740    0.0081    0.2927 C   0  0  0  0  0  0  0  0  0  0  0  0
    0.8110    3.5348    3.6990 C   0  0  0  0  0  0  0  0  0  0  0  0
  1  4  1  0
  1  6  1  0
  1  8  1  0
  2  5  1  0
  2  7  1  0
  3  5  2  0
  3  9  1  0
  4  5  1  0
  6 10  1  0
  7  9  1  0
  8 11  2  0
  8 12  1  0
 10 13  2  0
 10 14  1  0
 11 15  1  0
 12 16  2  0
 13 17  1  0
 14 18  2  0
 15 19  2  0
 16 19  1  0
 17 20  2  0
 18 20  1  0
M  END
>  <DRUGBANK_ID>  (1) 
DB08799

>  <COMMON_NAME>  (1) 
Antazoline

>  <CAS_NUMBER>  (1) 
91-75-8

>  <UNII>  (1) 
DHA8014SS1

>  <SYNONYMS>  (1) 
2-(N-Benzylanilinomethyl)-2-imidazoline; 2-(N-Phenyl-N-benzylaminomethyl)imidazoline; 4,5-Dihydro-N-phenyl-N-phenylmethyl-1H-imidazole-2-methanamine; Antazolina; Antazoline; Antazolinum

$$$$
