4825
     RDKit          3D

 25 27  0  0  1  0  0  0  0  0999 V2000
    1.0382    0.0342   -0.1184 N   0  0  0  0  0  0  0  0  0  0  0  0
    0.2049   -1.1250    3.0614 C   0  0  0  0  0  0  0  0  0  0  0  0
    0.7383   -1.8727    1.7570 C   0  0  0  0  0  0  0  0  0  0  0  0
    0.4158   -1.2527    0.3495 C   0  0  0  0  0  0  0  0  0  0  0  0
    0.7450    1.1933    0.7465 C   0  0  0  0  0  0  0  0  0  0  0  0
   -1.2707   -0.9714    3.0381 C   0  0  0  0  0  0  0  0  0  0  0  0
    0.8957   -1.3645    4.3870 C   0  0  0  0  0  0  0  0  0  0  0  0
    1.5562    1.0908    2.0278 C   0  0  0  0  0  0  0  0  0  0  0  0
    1.0549    2.5962    0.2859 C   0  0  0  0  0  0  0  0  0  0  0  0
    2.9947    0.9577    2.3010 C   0  0  0  0  0  0  0  0  0  0  0  0
   -2.0061   -2.1302    2.9897 C   0  0  0  0  0  0  0  0  0  0  0  0
    1.2835   -0.2766    5.2265 C   0  0  0  0  0  0  0  0  0  0  0  0
   -1.8787    0.3118    3.0306 C   0  0  0  0  0  0  0  0  0  0  0  0
    1.0701   -2.6581    4.8235 C   0  0  0  0  0  0  0  0  0  0  0  0
    3.6789    2.1350    2.4954 C   0  0  0  0  0  0  0  0  0  0  0  0
    3.6452   -0.2842    2.5363 C   0  0  0  0  0  0  0  0  0  0  0  0
   -3.3687   -2.0264    3.0249 C   0  0  0  0  0  0  0  0  0  0  0  0
    1.6691   -0.4947    6.5392 C   0  0  0  0  0  0  0  0  0  0  0  0
   -3.2457    0.4091    3.0920 C   0  0  0  0  0  0  0  0  0  0  0  0
    1.3732   -2.8684    6.1576 C   0  0  0  0  0  0  0  0  0  0  0  0
   -3.9844   -0.7701    3.0977 C   0  0  0  0  0  0  0  0  0  0  0  0
    1.6590   -1.7976    7.0138 C   0  0  0  0  0  0  0  0  0  0  0  0
    5.0259    2.0517    2.6801 C   0  0  0  0  0  0  0  0  0  0  0  0
    4.9838   -0.3729    2.7443 C   0  0  0  0  0  0  0  0  0  0  0  0
    5.6948    0.8201    2.7567 C   0  0  0  0  0  0  0  0  0  0  0  0
  1  4  1  0
  1  5  1  0
  2  3  1  0
  2  6  1  0
  2  7  1  0
  3  4  1  0
  5  8  1  0
  5  9  1  0
  6 11  2  0
  6 13  1  0
  7 12  2  0
  7 14  1  0
  8 10  1  0
 10 15  2  0
 10 16  1  0
 11 17  1  0
 12 18  1  0
 13 19  2  0
 14 20  2  0
 15 23  1  0
 16 24  2  0
 17 21  2  0
 18 22  2  0
 19 21  1  0
 20 22  1  0
 23 25  2  0
 24 25  1  0
M  END
>  <DRUGBANK_ID>  (1) 
DB04825

>  <COMMON_NAME>  (1) 
Prenylamine

>  <CAS_NUMBER>  (1) 
390-64-7

>  <UNII>  (1) 
K2OH82Z000

>  <SYNONYMS>  (1) 
1-Phenyl-2-(1',1'-diphenylpropyl-3'-amino)propane; DL-prenylamine; N-(1-Methyl-2-phenylethyl)-gamma-phenylbenzenepropanamine; N-(3,3-Diphenylpropyl)-alpha-methylphenaethylamin; N-(3,3-Diphenylpropyl)-alpha-methylphenethylamine; Prenilamina; Prenylamine; Prenylaminum

$$$$
