
     RDKit          3D

 29 32  0  0  0  0  0  0  0  0999 V2000
    1.1364    0.0957   -0.0008 C   0  0  0  0  0  0  0  0  0  0  0  0
   -1.6917    2.4110   -0.3682 C   0  0  0  0  0  0  0  0  0  0  0  0
    2.5054    3.3620    2.3399 C   0  0  0  0  0  0  0  0  0  0  0  0
   -6.7682    9.3726    4.1700 C   0  0  0  0  0  0  0  0  0  0  0  0
   -3.3369    7.9652    6.3239 C   0  0  0  0  0  0  0  0  0  0  0  0
   -4.4192    8.6376    6.9173 C   0  0  0  0  0  0  0  0  0  0  0  0
    2.2758    2.4748    1.2719 C   0  0  0  0  0  0  0  0  0  0  0  0
   -7.8378   10.1450    5.0875 C   0  0  0  0  0  0  0  0  0  0  0  0
   -1.8516    5.8578    4.6602 C   0  0  0  0  0  0  0  0  0  0  0  0
   -0.8242    7.8958    3.6815 C   0  0  0  0  0  0  0  0  0  0  0  0
   -0.4506    5.4102    5.1726 C   0  0  0  0  0  0  0  0  0  0  0  0
    0.5696    7.4348    4.2659 C   0  0  0  0  0  0  0  0  0  0  0  0
   -4.0975    8.6568    4.1548 C   0  0  0  0  0  0  0  0  0  0  0  0
    0.1697    3.8573    2.3797 C   0  0  0  0  0  0  0  0  0  0  0  0
   -5.3026    9.2021    4.7601 C   0  0  0  0  0  0  0  0  0  0  0  0
    1.4460    4.0839    2.9063 C   0  0  0  0  0  0  0  0  0  0  0  0
   -3.0826    8.0086    4.9413 C   0  0  0  0  0  0  0  0  0  0  0  0
   -5.2912    9.3779    6.1359 C   0  0  0  0  0  0  0  0  0  0  0  0
    0.9881    2.2865    0.7538 C   0  0  0  0  0  0  0  0  0  0  0  0
   -0.0730    3.0172    1.2823 C   0  0  0  0  0  0  0  0  0  0  0  0
   -6.9224   11.0680    5.7652 C   0  0  0  0  0  0  0  0  0  0  0  0
    1.7060    5.2136    3.8876 C   0  0  0  0  0  0  0  0  0  0  0  0
   -6.1830   10.3378    6.7015 N   0  0  0  0  0  0  0  0  0  0  0  0
   -1.9450    7.3346    4.4859 N   0  0  0  0  0  0  0  0  0  0  0  0
    0.6143    5.9619    4.3315 N   0  0  0  0  0  0  0  0  0  0  0  0
   -6.6316   12.1934    5.2924 O   0  0  0  0  0  0  0  0  0  0  0  0
    2.8759    5.5401    4.1176 O   0  0  0  0  0  0  0  0  0  0  0  0
    0.8013    1.4473   -0.3109 O   0  0  0  0  0  0  0  0  0  0  0  0
   -1.3783    3.0508    0.8626 O   0  0  0  0  0  0  0  0  0  0  0  0
  6  5  1  0
  7  3  2  0
  8  4  1  0
 11  9  1  0
 12 10  1  0
 15  4  1  0
 15 13  2  0
 16  3  1  0
 16 14  2  0
 17  5  2  0
 17 13  1  0
 18  6  2  0
 18 15  1  0
 19  7  1  0
 20 14  1  0
 20 19  2  0
 21  8  1  0
 22 16  1  0
 23 18  1  0
 23 21  1  0
 24  9  1  0
 24 10  1  0
 24 17  1  0
 25 11  1  0
 25 12  1  0
 25 22  1  0
 26 21  2  0
 27 22  2  0
 28  1  1  0
 28 19  1  0
 29  2  1  0
 29 20  1  0
M  END
>  <DRUGBANK_ID>  (1) 
DB12082

>  <COMMON_NAME>  (1) 
Vesnarinone

>  <CAS_NUMBER>  (1) 
81840-15-5

>  <UNII>  (1) 
5COW40EV8M

>  <SYNONYMS>  (1) 
Vesnarinone

$$$$
