
     RDKit          3D

 31 32  0  0  0  0  0  0  0  0999 V2000
    0.9672    0.2893    0.3968 C   0  0  0  0  0  0  0  0  0  0  0  0
    0.4497   -0.8176    1.2046 N   0  0  0  0  0  0  0  0  0  0  0  0
   -1.0134   -0.8135    1.1599 C   0  0  0  0  0  0  0  0  0  0  0  0
    0.9816   -2.1497    0.8763 C   0  0  0  0  0  0  0  0  0  0  0  0
    0.5686   -2.6763   -0.4661 C   0  0  0  0  0  0  0  0  0  0  0  0
    1.0791   -1.8507   -1.5964 C   0  0  0  0  0  0  0  0  0  0  0  0
    2.5039   -1.8254   -1.7865 N   0  0  0  0  0  0  0  0  0  0  0  0
    3.2434   -2.1116   -2.9056 C   0  0  0  0  0  0  0  0  0  0  0  0
    4.4502   -2.0262   -2.8404 O   0  0  0  0  0  0  0  0  0  0  0  0
    2.5574   -2.5372   -4.1776 C   0  0  0  0  0  0  0  0  0  0  0  0
    1.2404   -2.5082   -4.3829 C   0  0  0  0  0  0  0  0  0  0  0  0
    0.4298   -2.9312   -5.5091 C   0  0  0  0  0  0  0  0  0  0  0  0
   -0.4682   -4.0885   -5.0456 C   0  0  0  0  0  0  0  0  0  0  0  0
   -1.5893   -3.6800   -4.0837 C   0  0  0  0  0  0  0  0  0  0  0  0
   -2.4596   -2.5338   -4.6047 C   0  0  0  0  0  0  0  0  0  0  0  0
   -3.3226   -2.8784   -5.8238 C   0  0  0  0  0  0  0  0  0  0  0  0
   -4.5509   -2.8883   -5.7004 O   0  0  0  0  0  0  0  0  0  0  0  0
   -2.8170   -3.1923   -7.0431 N   0  0  0  0  0  0  0  0  0  0  0  0
   -1.5295   -2.9915   -7.5266 O   0  0  0  0  0  0  0  0  0  0  0  0
    3.4240   -2.7114   -5.3886 C   0  0  0  0  0  0  0  0  0  0  0  0
    4.1457   -1.5215   -5.7744 O   0  0  0  0  0  0  0  0  0  0  0  0
    3.4310   -0.3880   -6.1169 C   0  0  0  0  0  0  0  0  0  0  0  0
    2.4646    0.1759   -5.2739 C   0  0  0  0  0  0  0  0  0  0  0  0
    1.7954    1.3530   -5.5738 C   0  0  0  0  0  0  0  0  0  0  0  0
    2.1513    2.0565   -6.7056 C   0  0  0  0  0  0  0  0  0  0  0  0
    3.1726    1.5822   -7.5370 C   0  0  0  0  0  0  0  0  0  0  0  0
    3.8170    0.3408   -7.2638 C   0  0  0  0  0  0  0  0  0  0  0  0
    4.8335   -0.0812   -8.1453 C   0  0  0  0  0  0  0  0  0  0  0  0
    5.2147    0.7036   -9.2377 C   0  0  0  0  0  0  0  0  0  0  0  0
    4.5879    1.9223   -9.4764 C   0  0  0  0  0  0  0  0  0  0  0  0
    3.5716    2.3573   -8.6311 C   0  0  0  0  0  0  0  0  0  0  0  0
  1  2  1  0
  2  3  1  0
  2  4  1  0
  4  5  1  0
  5  6  1  0
  6  7  1  0
  7  8  1  0
  8  9  2  0
  8 10  1  0
 10 11  2  0
 10 20  1  0
 11 12  1  0
 12 13  1  0
 13 14  1  0
 14 15  1  0
 15 16  1  0
 16 17  2  0
 16 18  1  0
 18 19  1  0
 20 21  1  0
 21 22  1  0
 22 23  2  0
 22 27  1  0
 23 24  1  0
 24 25  2  0
 25 26  1  0
 26 27  2  0
 26 31  1  0
 27 28  1  0
 28 29  2  0
 29 30  1  0
 30 31  2  0
M  END
>  <DRUGBANK_ID>  (1) 
DB12259

>  <COMMON_NAME>  (1) 
CG-200745

>  <CAS_NUMBER>  (1) 
936221-33-9

>  <UNII>  (1) 
4I8MLM7L2H

$$$$
