
     RDKit          3D

 13 13  0  0  0  0  0  0  0  0999 V2000
    0.9448   -0.0142    0.0327 C   0  0  0  0  0  0  0  0  0  0  0  0
    0.3998   -1.0725   -0.2570 O   0  0  0  0  0  0  0  0  0  0  0  0
    0.2203    1.3075    0.3577 C   0  0  1  0  0  0  0  0  0  0  0  0
    2.2935    0.0702    0.0598 O   0  0  0  0  0  0  0  0  0  0  0  0
    0.5443    1.7029    1.7485 N   0  0  0  0  0  0  0  0  0  0  0  0
    0.4928    2.4205   -0.6512 C   0  0  0  0  0  0  0  0  0  0  0  0
    0.9772    2.1391   -1.9447 C   0  0  0  0  0  0  0  0  0  0  0  0
    0.1704    3.7580   -0.3438 C   0  0  0  0  0  0  0  0  0  0  0  0
    1.1390    3.1615   -2.8776 C   0  0  0  0  0  0  0  0  0  0  0  0
    0.3515    4.7664   -1.2867 C   0  0  0  0  0  0  0  0  0  0  0  0
    0.8270    4.4741   -2.5559 C   0  0  0  0  0  0  0  0  0  0  0  0
    0.0572    6.0665   -0.9960 O   0  0  0  0  0  0  0  0  0  0  0  0
    1.5969    2.9036   -4.1369 O   0  0  0  0  0  0  0  0  0  0  0  0
  1  2  2  0
  1  3  1  0
  3  5  1  1
  3  6  1  0
  4  1  1  0
  7  6  2  0
  8  6  1  0
  9  7  1  0
  9 13  1  0
 10  8  2  0
 10 12  1  0
 11  9  2  0
 11 10  1  0
M  END
>  <DRUGBANK_ID>  (1) 
DB04228

>  <SECONDARY_ACCESSION_NUMBERS>  (1) 
EXPT01095

>  <COMMON_NAME>  (1) 
Dihydroxyphenylglycine

>  <CAS_NUMBER>  (1) 
162870-29-3

>  <UNII>  (1) 
CF5G2G268A

>  <SYNONYMS>  (1) 
(S)-3,5-dihydroxyphenylglycine; 3,5-Dihydroxy-L-phenylglycine; DHPG; L-3,5-Dihydroxyphenylglycine; S-DHPG

$$$$
