TL3
     RDKit          3D

 28 31  0  0  0  0  0  0  0  0999 V2000
    1.0584   -0.1014    0.0323 N   0  0  0  0  0  0  0  0  0  0  0  0
    0.4768   -0.2873    1.1738 C   0  0  0  0  0  0  0  0  0  0  0  0
    1.1741   -0.4954    2.3210 N   0  0  0  0  0  0  0  0  0  0  0  0
   -0.9962   -0.3624    1.2283 C   0  0  0  0  0  0  0  0  0  0  0  0
   -1.6061   -1.1093    0.2493 C   0  0  0  0  0  0  0  0  0  0  0  0
   -2.9627   -1.3487    0.3532 C   0  0  0  0  0  0  0  0  0  0  0  0
   -3.7727   -0.7335    1.2986 C   0  0  0  0  0  0  0  0  0  0  0  0
   -5.1407   -0.7273    1.2612 O   0  0  0  0  0  0  0  0  0  0  0  0
   -5.8138   -1.1607    0.0694 C   0  0  2  0  0  0  0  0  0  0  0  0
   -5.7251   -2.6611   -0.1900 C   0  0  0  0  0  0  0  0  0  0  0  0
   -5.7617   -2.8674   -1.6035 O   0  0  0  0  0  0  0  0  0  0  0  0
   -5.4398   -1.6370   -2.2706 C   0  0  2  0  0  0  0  0  0  0  0  0
   -4.0071   -1.5934   -2.8204 C   0  0  1  0  0  0  0  0  0  0  0  0
   -3.9139   -1.8986   -4.2130 O   0  0  0  0  0  0  0  0  0  0  0  0
   -4.3877   -0.9690   -5.0880 C   0  0  0  0  0  0  0  0  0  0  0  0
   -5.1008    0.1697   -4.7233 C   0  0  0  0  0  0  0  0  0  0  0  0
   -5.4283    1.1485   -5.6278 C   0  0  0  0  0  0  0  0  0  0  0  0
   -5.1407    0.9589   -6.9685 C   0  0  0  0  0  0  0  0  0  0  0  0
   -5.6689    1.9696   -7.9238 C   0  0  0  0  0  0  0  0  0  0  0  0
   -5.5418    1.8508   -9.2119 N   0  0  0  0  0  0  0  0  0  0  0  0
   -6.3451    3.0661   -7.4958 N   0  0  0  0  0  0  0  0  0  0  0  0
   -4.4427   -0.1970   -7.3610 C   0  0  0  0  0  0  0  0  0  0  0  0
   -4.0848   -1.1714   -6.4237 C   0  0  0  0  0  0  0  0  0  0  0  0
   -3.4427   -0.2255   -2.3998 C   0  0  0  0  0  0  0  0  0  0  0  0
   -4.2849    0.2781   -1.3502 O   0  0  0  0  0  0  0  0  0  0  0  0
   -5.4973   -0.4853   -1.2734 C   0  0  2  0  0  0  0  0  0  0  0  0
   -3.1465   -0.0299    2.3187 C   0  0  0  0  0  0  0  0  0  0  0  0
   -1.7538    0.1570    2.2854 C   0  0  0  0  0  0  0  0  0  0  0  0
  1  2  2  0
  2  3  1  0
  2  4  1  0
  4  5  2  0
  4 28  1  0
  5  6  1  0
  6  7  2  0
  7  8  1  0
  7 27  1  0
  9  8  1  1
  9 10  1  0
  9 26  1  0
 10 11  1  0
 12 11  1  1
 12 13  1  0
 12 26  1  0
 13 24  1  0
 13 14  1  6
 14 15  1  0
 15 16  2  0
 15 23  1  0
 16 17  1  0
 17 18  2  0
 18 19  1  0
 18 22  1  0
 19 20  2  0
 19 21  1  0
 22 23  2  0
 24 25  1  0
 26 25  1  1
 27 28  2  0
M  END
>  <DRUGBANK_ID>  (1) 
DB04792

>  <COMMON_NAME>  (1) 
2,5-O,O-BIS-{4',4''-AMIDINOPHENYL}-1,4:3,6-DIANHYDRO-D-SORBITOL

$$$$
