
     RDKit          3D

 30 33  0  0  0  0  0  0  0  0999 V2000
    2.1135    0.0643   -0.1931 F   0  0  0  0  0  0  0  0  0  0  0  0
    0.7756    0.1024   -0.2788 C   0  0  0  0  0  0  0  0  0  0  0  0
    0.1122    1.2991   -0.0753 C   0  0  0  0  0  0  0  0  0  0  0  0
   -1.2807    1.3006   -0.0205 C   0  0  0  0  0  0  0  0  0  0  0  0
   -1.9973    0.1001   -0.0916 C   0  0  0  0  0  0  0  0  0  0  0  0
   -1.3417   -1.1151   -0.3117 C   0  0  0  0  0  0  0  0  0  0  0  0
   -2.1380   -2.4113   -0.2213 C   0  0  0  0  0  0  0  0  0  0  0  0
   -1.7173   -3.3716   -1.2173 N   0  0  0  0  0  0  0  0  0  0  0  0
   -1.0284   -4.5389   -1.0583 C   0  0  0  0  0  0  0  0  0  0  0  0
   -0.7067   -5.1438   -2.0962 O   0  0  0  0  0  0  0  0  0  0  0  0
   -0.7560   -5.1623    0.3140 C   0  0  0  0  0  0  0  0  0  0  0  0
    0.1699   -4.3950    1.2231 C   0  0  0  0  0  0  0  0  0  0  0  0
   -0.1791   -3.1277    1.4421 N   0  0  0  0  0  0  0  0  0  0  0  0
    0.5724   -2.3053    2.1842 C   0  0  0  0  0  0  0  0  0  0  0  0
    1.7022   -2.6905    2.8458 C   0  0  0  0  0  0  0  0  0  0  0  0
    2.0094   -4.0502    2.7402 C   0  0  0  0  0  0  0  0  0  0  0  0
    1.2408   -4.9146    1.9245 C   0  0  0  0  0  0  0  0  0  0  0  0
    2.4862   -1.6496    3.5057 C   0  0  0  0  0  0  0  0  0  0  0  0
    3.8487   -1.5066    3.2361 C   0  0  0  0  0  0  0  0  0  0  0  0
    4.5733   -0.4246    3.7542 C   0  0  0  0  0  0  0  0  0  0  0  0
    3.9570    0.5417    4.5550 C   0  0  0  0  0  0  0  0  0  0  0  0
    2.5793    0.4331    4.7634 C   0  0  0  0  0  0  0  0  0  0  0  0
    1.8575   -0.6531    4.2734 C   0  0  0  0  0  0  0  0  0  0  0  0
    4.6417    1.5626    5.1686 N   0  0  0  0  0  0  0  0  0  0  0  0
    5.5797    2.4446    4.4792 C   0  0  0  0  0  0  0  0  0  0  0  0
    6.9935    2.2927    5.0560 C   0  0  0  0  0  0  0  0  0  0  0  0
    7.0071    2.4550    6.4862 O   0  0  0  0  0  0  0  0  0  0  0  0
    6.1624    1.4671    7.1031 C   0  0  0  0  0  0  0  0  0  0  0  0
    4.7033    1.6036    6.6358 C   0  0  0  0  0  0  0  0  0  0  0  0
    0.0616   -1.0782   -0.4772 C   0  0  0  0  0  0  0  0  0  0  0  0
  1  2  1  0
  2  3  2  0
  2 30  1  0
  3  4  1  0
  4  5  2  0
  5  6  1  0
  6  7  1  0
  6 30  2  0
  7  8  1  0
  8  9  1  0
  9 10  2  0
  9 11  1  0
 11 12  1  0
 12 13  2  0
 12 17  1  0
 13 14  1  0
 14 15  2  0
 15 16  1  0
 15 18  1  0
 16 17  2  0
 18 19  2  0
 18 23  1  0
 19 20  1  0
 20 21  2  0
 21 22  1  0
 21 24  1  0
 22 23  2  0
 24 25  1  0
 24 29  1  0
 25 26  1  0
 26 27  1  0
 27 28  1  0
 28 29  1  0
M  END
>  <DRUGBANK_ID>  (1) 
DB17180

>  <COMMON_NAME>  (1) 
KX-2361

>  <CAS_NUMBER>  (1) 
897016-26-1

>  <UNII>  (1) 
RVW387BA9U

>  <SYNONYMS>  (1) 
2-pyridineacetamide, n-((3-fluorophenyl)methyl)-5-(4-(4-morpholinyl)phenyl)-; N-(3-fluorobenzyl)-2-(5-(4-morpholinophenyl) pyridin-2-yl) acetamide

$$$$
