
     RDKit          3D

 27 29  0  0  0  0  0  0  0  0999 V2000
    1.3376   -0.1994   -0.0078 C   0  0  0  0  0  0  0  0  0  0  0  0
    0.4610   -1.2754    0.0083 C   0  0  0  0  0  0  0  0  0  0  0  0
    0.8418    1.1090    0.0010 C   0  0  0  0  0  0  0  0  0  0  0  0
   -0.9158   -1.0452   -0.0264 C   0  0  0  0  0  0  0  0  0  0  0  0
   -1.6519    5.3409    1.7848 C   0  0  0  0  0  0  0  0  0  0  0  0
   -0.1493    6.2082    0.1169 C   0  0  0  0  0  0  0  0  0  0  0  0
   -2.2769    6.5889    1.9029 C   0  0  0  0  0  0  0  0  0  0  0  0
   -0.8089    7.4524    0.1876 C   0  0  0  0  0  0  0  0  0  0  0  0
   -1.6994   13.3040   -0.2878 C   0  0  0  0  0  0  0  0  0  0  0  0
   -0.3309   13.4513   -0.2157 C   0  0  0  0  0  0  0  0  0  0  0  0
   -0.6239    5.1215    0.8572 C   0  0  0  0  0  0  0  0  0  0  0  0
   -1.8658    7.6446    1.0891 C   0  0  0  0  0  0  0  0  0  0  0  0
   -0.5433    1.3637    0.0865 C   0  0  0  0  0  0  0  0  0  0  0  0
   -1.4422    0.2677   -0.0272 C   0  0  0  0  0  0  0  0  0  0  0  0
   -1.0273    2.7278    0.5038 C   0  0  0  0  0  0  0  0  0  0  0  0
   -2.9236    0.4235   -0.2611 C   0  0  0  0  0  0  0  0  0  0  0  0
   -1.2415   11.4659    0.8475 C   0  0  0  0  0  0  0  0  0  0  0  0
   -2.2104   12.1574    0.3029 N   0  0  0  0  0  0  0  0  0  0  0  0
   -0.1352    3.8096    0.5819 N   0  0  0  0  0  0  0  0  0  0  0  0
   -1.4005   10.2409    1.5271 N   0  0  0  0  0  0  0  0  0  0  0  0
   -2.2010    2.8447    0.8356 O   0  0  0  0  0  0  0  0  0  0  0  0
   -3.5534    1.4050   -0.6187 O   0  0  0  0  0  0  0  0  0  0  0  0
   -3.5993   -0.7419   -0.1914 O   0  0  0  0  0  0  0  0  0  0  0  0
   -3.2297    9.4842   -0.1298 O   0  0  0  0  0  0  0  0  0  0  0  0
   -3.5305    9.2018    2.3734 O   0  0  0  0  0  0  0  0  0  0  0  0
    0.3240   12.1653    0.7108 S   0  0  0  0  0  0  0  0  0  0  0  0
   -2.6945    9.2467    1.1910 S   0  0  0  0  0  0  0  0  0  0  0  0
  2  1  2  0
  3  1  1  0
  4  2  1  0
  7  5  2  0
  8  6  1  0
 10  9  2  0
 11  5  1  0
 11  6  2  0
 12  7  1  0
 12  8  2  0
 13  3  2  0
 14  4  2  0
 14 13  1  0
 15 13  1  0
 16 14  1  0
 18  9  1  0
 18 17  2  0
 19 11  1  0
 19 15  1  0
 20 17  1  0
 21 15  2  0
 22 16  2  0
 23 16  1  0
 26 10  1  0
 26 17  1  0
 27 12  1  0
 27 20  1  0
 27 24  2  0
 27 25  2  0
M  END
>  <DRUGBANK_ID>  (1) 
DB13248

>  <COMMON_NAME>  (1) 
Phthalylsulfathiazole

>  <CAS_NUMBER>  (1) 
85-73-4

>  <UNII>  (1) 
6875L5852V

>  <SYNONYMS>  (1) 
Phthalylsulfathiazole

$$$$
