
     RDKit          3D

 41 45  0  0  1  0  0  0  0  0999 V2000
    1.2019    0.0809   -0.0460 C   0  0  0  0  0  0  0  0  0  0  0  0
    0.4094    1.3708    0.0407 C   0  0  1  0  0  0  0  0  0  0  0  0
    0.8776    2.2454   -1.1056 C   0  0  0  0  0  0  0  0  0  0  0  0
    0.6137    3.5954   -0.9828 C   0  0  0  0  0  0  0  0  0  0  0  0
    1.0899    4.4781   -1.9197 C   0  0  0  0  0  0  0  0  0  0  0  0
    1.7284    4.0508   -3.0781 C   0  0  0  0  0  0  0  0  0  0  0  0
    2.1085    2.7121   -3.1592 C   0  0  0  0  0  0  0  0  0  0  0  0
    1.6714    1.8132   -2.1892 C   0  0  0  0  0  0  0  0  0  0  0  0
    1.9919    4.9274   -4.2461 C   0  0  0  0  0  0  0  0  0  0  0  0
    2.7058    4.5180   -5.1619 O   0  0  0  0  0  0  0  0  0  0  0  0
    1.4104    6.1602   -4.3823 N   0  0  0  0  0  0  0  0  0  0  0  0
    0.5374    6.9633   -3.5338 C   0  0  0  0  0  0  0  0  0  0  0  0
    1.3190    8.0518   -2.8151 C   0  0  0  0  0  0  0  0  0  0  0  0
    1.5066    9.1848   -3.7847 C   0  0  0  0  0  0  0  0  0  0  0  0
    1.0190   10.2838   -3.6984 O   0  0  0  0  0  0  0  0  0  0  0  0
    2.2574    8.8255   -4.8520 O   0  0  0  0  0  0  0  0  0  0  0  0
   -1.0684    1.2804    0.1335 N   0  0  0  0  0  0  0  0  0  0  0  0
   -1.8763    0.1573    0.2609 C   0  0  0  0  0  0  0  0  0  0  0  0
   -3.1707    0.6620    0.1426 C   0  0  0  0  0  0  0  0  0  0  0  0
   -3.0831    2.0750    0.0926 C   0  0  0  0  0  0  0  0  0  0  0  0
   -1.8014    2.4455    0.1643 N   0  0  0  0  0  0  0  0  0  0  0  0
   -4.1887    3.0450    0.0853 C   0  0  0  0  0  0  0  0  0  0  0  0
   -5.1160    3.0099    1.1371 C   0  0  0  0  0  0  0  0  0  0  0  0
   -6.1474    3.9486    1.2127 C   0  0  0  0  0  0  0  0  0  0  0  0
   -6.2735    4.9445    0.2513 C   0  0  0  0  0  0  0  0  0  0  0  0
   -5.3444    4.9984   -0.7863 C   0  0  0  0  0  0  0  0  0  0  0  0
   -4.3270    4.0376   -0.8985 C   0  0  0  0  0  0  0  0  0  0  0  0
   -5.4092    6.3199   -1.8924 Cl  0  0  0  0  0  0  0  0  0  0  0  0
   -7.2373    3.9042    2.5446 Cl  0  0  0  0  0  0  0  0  0  0  0  0
   -1.4233   -1.2504    0.1974 C   0  0  0  0  0  0  0  0  0  0  0  0
   -1.7549   -1.9644   -0.9440 C   0  0  0  0  0  0  0  0  0  0  0  0
   -1.3788   -3.3060   -1.0276 C   0  0  0  0  0  0  0  0  0  0  0  0
   -0.6179   -3.9240    0.0084 C   0  0  0  0  0  0  0  0  0  0  0  0
   -0.4346   -5.3120    0.3284 C   0  0  0  0  0  0  0  0  0  0  0  0
    0.5795   -5.6833    1.2325 C   0  0  0  0  0  0  0  0  0  0  0  0
    1.6963   -5.1828    0.7061 C   0  0  0  0  0  0  0  0  0  0  0  0
    1.5568   -3.7756    0.8105 C   0  0  0  0  0  0  0  0  0  0  0  0
    0.2025   -3.1096    0.7049 C   0  0  0  0  0  0  0  0  0  0  0  0
   -0.4915   -1.8677    1.0772 C   0  0  0  0  0  0  0  0  0  0  0  0
    0.5355   -5.4084    2.6306 O   0  0  0  0  0  0  0  0  0  0  0  0
    1.8628   -5.3812    3.2882 C   0  0  0  0  0  0  0  0  0  0  0  0
  2  1  1  6
  2  3  1  0
  2 17  1  0
  3  4  2  0
  3  8  1  0
  4  5  1  0
  5  6  2  0
  6  7  1  0
  6  9  1  0
  7  8  2  0
  9 10  2  0
  9 11  1  0
 11 12  1  0
 12 13  1  0
 13 14  1  0
 14 15  2  0
 14 16  1  0
 17 18  1  0
 17 21  1  0
 18 19  2  0
 18 30  1  0
 19 20  1  0
 20 21  2  0
 20 22  1  0
 22 23  2  0
 22 27  1  0
 23 24  1  0
 24 25  2  0
 24 29  1  0
 25 26  1  0
 26 27  2  0
 26 28  1  0
 30 31  2  0
 30 39  1  0
 31 32  1  0
 32 33  2  0
 33 34  1  0
 33 38  1  0
 34 35  2  0
 35 36  1  0
 35 40  1  0
 36 37  2  0
 37 38  1  0
 38 39  2  0
 40 41  1  0
M  END
>  <DRUGBANK_ID>  (1) 
DB12044

>  <COMMON_NAME>  (1) 
MK-0893

>  <UNII>  (1) 
CCP2U6LWTP

$$$$
