
     RDKit          3D

 13 13  0  0  0  0  0  0  0  0999 V2000
   -0.0759    1.7709    0.0018 C   0  0  0  0  0  0  0  0  0  0  0  0
   -2.5711    1.8159    0.0598 C   0  0  0  0  0  0  0  0  0  0  0  0
    1.1857    1.1344   -0.0141 C   0  0  0  0  0  0  0  0  0  0  0  0
   -3.8209    1.3269    0.1306 C   0  0  0  0  0  0  0  0  0  0  0  0
    0.0909   -0.9912   -0.0012 C   0  0  0  0  0  0  0  0  0  0  0  0
   -1.2915    1.0374    0.0256 C   0  0  0  0  0  0  0  0  0  0  0  0
    1.2524   -0.2497   -0.0101 C   0  0  0  0  0  0  0  0  0  0  0  0
   -1.1566   -0.3661    0.0195 C   0  0  0  0  0  0  0  0  0  0  0  0
   -5.1075    2.0306    0.1362 C   0  0  0  0  0  0  0  0  0  0  0  0
    2.4210   -0.9475   -0.0099 O   0  0  0  0  0  0  0  0  0  0  0  0
   -2.1546   -1.2973    0.0548 O   0  0  0  0  0  0  0  0  0  0  0  0
   -6.1742    1.4497    0.1454 O   0  0  0  0  0  0  0  0  0  0  0  0
   -5.0169    3.3628    0.1353 O   0  0  0  0  0  0  0  0  0  0  0  0
  3  1  2  0
  4  2  2  0
  6  1  1  0
  6  2  1  0
  7  3  1  0
  7  5  2  0
  8  5  1  0
  8  6  2  0
  9  4  1  0
 10  7  1  0
 11  8  1  0
 12  9  2  0
 13  9  1  0
M  END
>  <DRUGBANK_ID>  (1) 
DB01704

>  <SECONDARY_ACCESSION_NUMBERS>  (1) 
EXPT02925

>  <COMMON_NAME>  (1) 
2,4-Dihydroxy-Trans Cinnamic Acid

>  <CAS_NUMBER>  (1) 
614-86-8

>  <UNII>  (1) 
U8G3LS2JEX

$$$$
