
     RDKit          3D

 30 33  0  0  0  0  0  0  0  0999 V2000
   -2.9937   -0.3114   -0.0073 Cl  0  0  0  0  0  0  0  0  0  0  0  0
   -1.3130    0.0629    0.0235 C   0  0  0  0  0  0  0  0  0  0  0  0
   -0.8982    1.3928    0.0204 C   0  0  0  0  0  0  0  0  0  0  0  0
    0.4638    1.7276    0.0106 C   0  0  0  0  0  0  0  0  0  0  0  0
    1.3866    0.6763    0.0071 C   0  0  0  0  0  0  0  0  0  0  0  0
    2.7676    0.6840   -0.0287 N   0  0  0  0  0  0  0  0  0  0  0  0
    0.9827   -0.6547    0.0507 C   0  0  0  0  0  0  0  0  0  0  0  0
   -0.3856   -0.9766    0.0487 C   0  0  0  0  0  0  0  0  0  0  0  0
    2.1556   -1.4313    0.1147 C   0  0  0  0  0  0  0  0  0  0  0  0
    3.2609   -0.6023    0.0099 C   0  0  0  0  0  0  0  0  0  0  0  0
    4.9979   -0.9454   -0.0822 S   0  0  0  0  0  0  0  0  0  0  0  0
    5.4188   -0.3903   -1.3405 O   0  0  0  0  0  0  0  0  0  0  0  0
    5.5577   -0.4784    1.1687 O   0  0  0  0  0  0  0  0  0  0  0  0
    5.1480   -2.6192   -0.1367 N   0  0  0  0  0  0  0  0  0  0  0  0
    4.4454   -3.3061   -1.2167 C   0  0  2  0  0  0  0  0  0  0  0  0
    4.6274   -4.8173   -1.2846 C   0  0  0  0  0  0  0  0  0  0  0  0
    4.6762   -5.5907   -0.3445 O   0  0  0  0  0  0  0  0  0  0  0  0
    4.9336   -2.8674   -2.5748 C   0  0  0  0  0  0  0  0  0  0  0  0
    4.3489   -3.9634   -3.4014 C   0  0  0  0  0  0  0  0  0  0  0  0
    4.6586   -5.1306   -2.6429 N   0  0  0  0  0  0  0  0  0  0  0  0
    4.8373   -6.4663   -3.2041 C   0  0  1  0  0  0  0  0  0  0  0  0
    3.6491   -6.8440   -4.0913 C   0  0  0  0  0  0  0  0  0  0  0  0
    6.2037   -6.7464   -3.9407 C   0  0  0  0  0  0  0  0  0  0  0  0
    6.8459   -7.7573   -3.6301 O   0  0  0  0  0  0  0  0  0  0  0  0
    6.5547   -6.0466   -5.0888 N   0  0  0  0  0  0  0  0  0  0  0  0
    6.5824   -4.6126   -5.3235 C   0  0  0  0  0  0  0  0  0  0  0  0
    5.5056   -4.2837   -6.3893 C   0  0  0  0  0  0  0  0  0  0  0  0
    5.8741   -4.9234   -7.6189 O   0  0  0  0  0  0  0  0  0  0  0  0
    5.9737   -6.3551   -7.4357 C   0  0  0  0  0  0  0  0  0  0  0  0
    6.9502   -6.7463   -6.3009 C   0  0  0  0  0  0  0  0  0  0  0  0
  2  1  1  0
  2  3  2  0
  4  3  1  0
  4  5  2  0
  5  6  1  0
  7  5  1  0
  8  2  1  0
  8  7  2  0
  9  7  1  0
 10  6  1  0
 10  9  2  0
 10 11  1  0
 12 11  2  0
 13 11  2  0
 14 11  1  0
 15 14  1  1
 15 16  1  0
 15 18  1  0
 16 17  2  0
 16 20  1  0
 18 19  1  0
 19 20  1  0
 21 20  1  0
 21 22  1  6
 21 23  1  0
 23 24  2  0
 23 25  1  0
 26 25  1  0
 26 27  1  0
 27 28  1  0
 29 28  1  0
 30 25  1  0
 30 29  1  0
M  END
>  <DRUGBANK_ID>  (1) 
DB07848

>  <COMMON_NAME>  (1) 
5-Chloro-N-{(3S)-1-[(2S)-1-(4-morpholinyl)-1-oxo-2-propanyl]-2-oxo-3-pyrrolidinyl}-1H-indole-2-sulfonamide

$$$$
