6OB
     RDKit          3D

 22 21  0  0  0  0  0  0  0  0999 V2000
    3.1806    0.6344   -3.0118 C   0  0  1  0  0  0  0  0  0  0  0  0
   -1.4796   -3.8173   -6.6980 C   0  0  0  0  0  0  0  0  0  0  0  0
   -1.9958   -2.9739   -5.5426 C   0  0  0  0  0  0  0  0  0  0  0  0
   -1.4587   -3.4885   -4.2042 C   0  0  0  0  0  0  0  0  0  0  0  0
    0.0683   -3.4426   -4.1463 C   0  0  0  0  0  0  0  0  0  0  0  0
    0.5929   -2.0373   -4.4068 C   0  0  0  0  0  0  0  0  0  0  0  0
    0.1829   -1.1300   -3.2836 C   0  0  0  0  0  0  0  0  0  0  0  0
    1.0415   -0.5595   -2.4322 C   0  0  0  0  0  0  0  0  0  0  0  0
    2.5433   -0.6740   -2.5576 C   0  0  0  0  0  0  0  0  0  0  0  0
    2.6414    1.0492   -4.3690 C   0  0  0  0  0  0  0  0  0  0  0  0
    3.3757    1.4540   -5.4198 C   0  0  0  0  0  0  0  0  0  0  0  0
    2.8058    2.0416   -6.6835 C   0  0  0  0  0  0  0  0  0  0  0  0
    3.3154    3.4644   -6.9636 C   0  0  0  0  0  0  0  0  0  0  0  0
    3.8861    3.7089   -8.0322 O   0  0  0  0  0  0  0  0  0  0  0  0
    3.1307    4.5850   -5.9432 C   0  0  0  0  0  0  0  0  0  0  0  0
    1.6732    4.9876   -5.6955 C   0  0  0  0  0  0  0  0  0  0  0  0
    0.8494    3.9619   -4.9242 C   0  0  0  0  0  0  0  0  0  0  0  0
    1.4913    3.5736   -3.6088 C   0  0  0  0  0  0  0  0  0  0  0  0
    1.4702    4.6015   -2.5472 C   0  0  0  0  0  0  0  0  0  0  0  0
    0.9096    4.4796   -1.4625 O   0  0  0  0  0  0  0  0  0  0  0  0
    2.1828    5.6896   -2.8677 O   0  0  0  0  0  0  0  0  0  0  0  0
    2.9759    1.6491   -2.0278 O   0  0  0  0  0  0  0  0  0  0  0  0
  1  9  1  0
  1 10  1  0
  1 22  1  1
  2  3  1  0
  3  4  1  0
  4  5  1  0
  5  6  1  0
  6  7  1  0
  7  8  2  0
  8  9  1  0
 10 11  2  0
 11 12  1  0
 12 13  1  0
 13 14  2  0
 13 15  1  0
 15 16  1  0
 16 17  1  0
 17 18  1  0
 18 19  1  0
 19 20  2  0
 19 21  1  0
M  END
>  <DRUGBANK_ID>  (1) 
DB07208

>  <COMMON_NAME>  (1) 
(8E,10S,12Z)-10-hydroxy-6-oxooctadeca-8,12-dienoic acid

$$$$
