
     RDKit          3D

 24 27  0  0  1  0  0  0  0  0999 V2000
   -4.0509    1.8732    5.5695 O   0  0  0  0  0  0  0  0  0  0  0  0
   -5.6725   -4.3318    0.6340 O   0  0  0  0  0  0  0  0  0  0  0  0
   -6.4234   -3.3330    1.2031 N   0  0  0  0  0  0  0  0  0  0  0  0
   -1.2503    1.4906    4.4343 C   0  0  2  0  0  0  0  0  0  0  0  0
   -1.1565    0.8650    5.7304 C   0  0  2  0  0  0  0  0  0  0  0  0
   -1.7172   -0.4635    4.8666 C   0  0  2  0  0  0  0  0  0  0  0  0
   -1.0332   -1.5960    3.2861 C   0  0  2  0  0  0  0  0  0  0  0  0
   -3.4177    1.9512    4.2695 C   0  0  2  0  0  0  0  0  0  0  0  0
    0.3094    0.1013    4.2489 C   0  0  0  0  0  0  0  0  0  0  0  0
   -1.5213    2.3206    6.0003 C   0  0  0  0  0  0  0  0  0  0  0  0
    0.3162   -0.9070    2.9429 C   0  0  0  0  0  0  0  0  0  0  0  0
   -2.7333   -2.0479    2.1706 C   0  0  2  0  0  0  0  0  0  0  0  0
   -2.3819    3.0561    4.6872 C   0  0  0  0  0  0  0  0  0  0  0  0
   -3.8356   -0.5534    4.7531 C   0  0  0  0  0  0  0  0  0  0  0  0
    0.3377    2.3189    3.8710 C   0  0  0  0  0  0  0  0  0  0  0  0
   -4.3792    0.1007    2.6774 C   0  0  0  0  0  0  0  0  0  0  0  0
   -3.6898   -1.0429    1.3757 C   0  0  0  0  0  0  0  0  0  0  0  0
   -4.6173   -1.9692    2.9888 C   0  0  0  0  0  0  0  0  0  0  0  0
    0.3963    2.1525    2.3689 C   0  0  0  0  0  0  0  0  0  0  0  0
   -2.9347    0.6125    3.7358 C   0  0  0  0  0  0  0  0  0  0  0  0
   -6.0708   -1.2730    2.0732 C   0  0  0  0  0  0  0  0  0  0  0  0
   -4.3203   -2.0487    0.6560 C   0  0  0  0  0  0  0  0  0  0  0  0
   -5.7108   -2.2772    1.1614 C   0  0  0  0  0  0  0  0  0  0  0  0
   -2.5204   -0.5359    3.2779 C   0  0  0  0  0  0  0  0  0  0  0  0
  2  3  1  0
  3 23  2  3
  4  5  1  0
  4  8  1  0
  4  9  1  0
  4 15  1  1
  5  6  1  0
  5 10  1  1
  6  7  1  0
  6 14  1  6
  7 11  1  6
  7 12  1  0
  8  1  1  1
  8 13  1  0
  8 20  1  0
  9 11  1  0
 10 13  1  0
 12 17  1  0
 12 18  1  1
 14 16  1  0
 15 19  1  0
 16 17  1  0
 17 22  2  0
 18 21  1  0
 20 24  3  0
 21 23  1  0
 22 23  1  0
M  END
>  <DRUGBANK_ID>  (1) 
DB06713

>  <COMMON_NAME>  (1) 
Norelgestromin

>  <CAS_NUMBER>  (1) 
53016-31-2

>  <UNII>  (1) 
R0TAY3X631

>  <SYNONYMS>  (1) 
17-Deacetylnorgestimate; 17-Deacylnorgestimate; 18-Methylnorethindrone oxime; D-Norgestrel 3-oxime; Deacetylnorgestimate; Levonorgestrel 3-oxime; Levonorgestrel oxime; Norelgestromin; Norelgestromina; Norplant 3-oxime

$$$$
