
     RDKit          3D

 25 27  0  0  0  0  0  0  0  0999 V2000
   -4.3536    3.1376    3.5196 C   0  0  0  0  0  0  0  0  0  0  0  0
   -4.2866    3.8793    2.3687 C   0  0  0  0  0  0  0  0  0  0  0  0
   -2.9297    4.3963    1.5370 C   0  0  0  0  0  0  0  0  0  0  0  0
   -1.4371    4.1248    1.7953 C   0  0  0  0  0  0  0  0  0  0  0  0
   -1.6684    3.1262    3.1361 C   0  0  0  0  0  0  0  0  0  0  0  0
   -3.0818    2.8281    3.9188 C   0  0  0  0  0  0  0  0  0  0  0  0
   -3.2226    2.1541    5.1306 O   0  0  0  0  0  0  0  0  0  0  0  0
   -5.6026    4.2138    1.9825 O   0  0  0  0  0  0  0  0  0  0  0  0
   -3.5350    5.0902    0.0560 Cl  0  0  0  0  0  0  0  0  0  0  0  0
   -0.7009    2.0589    3.7952 C   0  0  0  0  0  0  0  0  0  0  0  0
   -0.9646    0.7374    4.2908 O   0  0  0  0  0  0  0  0  0  0  0  0
    0.4949    2.4058    3.7825 O   0  0  0  0  0  0  0  0  0  0  0  0
   -1.9587    0.0562    5.3184 C   0  0  2  0  0  0  0  0  0  0  0  0
   -3.0622   -0.6304    4.3941 C   0  0  0  0  0  0  0  0  0  0  0  0
   -2.4426    0.1258    6.9333 C   0  0  0  0  0  0  0  0  0  0  0  0
   -3.7110    0.1910    3.2993 C   0  0  1  0  0  0  0  0  0  0  0  0
   -3.2163    0.7235    1.9270 C   0  0  1  0  0  0  0  0  0  0  0  0
    0.1035    4.7373    0.7783 C   0  0  0  0  0  0  0  0  0  0  0  0
    0.8960    3.6613    0.0308 C   0  0  0  0  0  0  0  0  0  0  0  0
   -0.0702    3.0039   -0.8537 C   0  0  0  0  0  0  0  0  0  0  0  0
    2.1784    3.5075   -0.1555 O   0  0  0  0  0  0  0  0  0  0  0  0
   -0.2868    1.8810   -0.1662 C   0  0  0  0  0  0  0  0  0  0  0  0
   -1.5989    1.6582    0.3465 C   0  0  0  0  0  0  0  0  0  0  0  0
   -1.9014    0.7382    1.2817 C   0  0  0  0  0  0  0  0  0  0  0  0
   -4.0141   -0.4433    2.0487 O   0  0  0  0  0  0  0  0  0  0  0  0
  1  2  2  0
  2  3  1  0
  2  8  1  0
  3  4  2  0
  3  9  1  0
  4 18  1  0
  4  5  1  0
  5 10  1  0
  5  6  2  0
  6  1  1  0
  6  7  1  0
 10 11  1  0
 10 12  2  0
 11 13  1  0
 13 14  1  0
 13 15  1  1
 16 14  1  1
 16 25  1  0
 17 16  1  0
 17 24  1  1
 17 25  1  0
 18 19  1  0
 19 20  1  0
 19 21  2  0
 20 22  2  0
 22 23  1  0
 23 24  2  0
M  END
>  <DRUGBANK_ID>  (1) 
DB03758

>  <SECONDARY_ACCESSION_NUMBERS>  (1) 
EXPT02763

>  <COMMON_NAME>  (1) 
Radicicol

>  <CAS_NUMBER>  (1) 
12772-57-5

>  <UNII>  (1) 
I60EH8GECX

>  <SYNONYMS>  (1) 
Monorden

$$$$
