
     RDKit          3D

 18 18  0  0  0  0  0  0  0  0999 V2000
    1.7245    0.0988   -0.4004 C   0  0  0  0  0  0  0  0  0  0  0  0
    0.9399   -1.8167    0.1010 C   0  0  0  0  0  0  0  0  0  0  0  0
    1.4624   -2.5798    1.2318 O   0  0  0  0  0  0  0  0  0  0  0  0
    2.9059   -2.1182    0.8411 P   0  0  0  0  0  0  0  0  0  0  0  0
    3.0813   -2.4963   -0.6120 O   0  0  0  0  0  0  0  0  0  0  0  0
    2.4490   -0.6432    1.4521 O   0  0  0  0  0  0  0  0  0  0  0  0
    0.7926   -0.1167    1.5482 C   0  0  0  0  0  0  0  0  0  0  0  0
   -0.3747   -0.1627   -0.1198 C   0  0  0  0  0  0  0  0  0  0  0  0
    4.1738   -2.2986    1.7327 O   0  0  0  0  0  0  0  0  0  0  0  0
    5.0684   -3.2994    1.7001 C   0  0  0  0  0  0  0  0  0  0  0  0
    4.7515   -4.5793    1.2803 C   0  0  0  0  0  0  0  0  0  0  0  0
    5.6029   -5.6207    1.6309 C   0  0  0  0  0  0  0  0  0  0  0  0
    6.7914   -5.3414    2.3205 C   0  0  0  0  0  0  0  0  0  0  0  0
    7.1752   -4.0210    2.5766 C   0  0  0  0  0  0  0  0  0  0  0  0
    6.2812   -2.9978    2.3091 C   0  0  0  0  0  0  0  0  0  0  0  0
    7.6087   -6.4383    2.8500 N   0  0  0  0  0  0  0  0  0  0  0  0
    8.6279   -6.1400    3.4897 O   0  0  0  0  0  0  0  0  0  0  0  0
    7.2132   -7.5963    2.6578 O   0  0  0  0  0  0  0  0  0  0  0  0
  1  2  1  0
  2  3  1  0
  3  4  1  0
  4  5  2  0
  4  6  1  0
  4  9  1  0
  6  7  1  0
  7  8  1  0
  9 10  1  0
 10 11  2  0
 10 15  1  0
 11 12  1  0
 12 13  2  0
 13 14  1  0
 13 16  1  0
 14 15  2  0
 16 17  1  0
 16 18  2  0
M  CHG  2  16   1  17  -1
M  END
>  <DRUGBANK_ID>  (1) 
DB13495

>  <COMMON_NAME>  (1) 
Paraoxon

>  <CAS_NUMBER>  (1) 
311-45-5

>  <UNII>  (1) 
Q9CX8P80JW

$$$$
