
     RDKit          3D

  8  8  0  0  0  0  0  0  0  0999 V2000
    0.9157   -0.0712    0.0726 O   0  0  0  0  0  0  0  0  0  0  0  0
    2.3568   -0.0288    0.1721 S   0  0  0  0  0  0  0  0  0  0  0  0
    3.0149    0.2164    1.4351 O   0  0  0  0  0  0  0  0  0  0  0  0
    3.0012    1.0646   -1.0631 C   0  0  0  0  0  0  0  0  0  0  0  0
    2.5500    0.5462   -2.4087 C   0  0  0  0  0  0  0  0  0  0  0  0
    3.0668   -0.7651   -2.6424 O   0  0  0  0  0  0  0  0  0  0  0  0
    2.5021   -1.7494   -1.7861 C   0  0  0  0  0  0  0  0  0  0  0  0
    2.9282   -1.4900   -0.4199 N   0  0  0  0  0  0  0  0  0  0  0  0
  1  2  2  0
  2  3  2  0
  2  4  1  0
  2  8  1  0
  4  5  1  0
  5  6  1  0
  6  7  1  0
  7  8  1  0
M  END
>  <DRUGBANK_ID>  (1) 
DB18098

>  <COMMON_NAME>  (1) 
Misetionamide

>  <CAS_NUMBER>  (1) 
856785-75-6

>  <UNII>  (1) 
489TQ24FC1

>  <SYNONYMS>  (1) 
1,4Lambda6, 3-Oxathiazinane-4,4-dione

$$$$
