
     RDKit          3D

 15 15  0  0  0  0  0  0  0  0999 V2000
    2.7154    0.8959    0.0351 C   0  0  0  0  0  0  0  0  0  0  0  0
    1.2377    0.6322    0.0259 C   0  0  0  0  0  0  0  0  0  0  0  0
    0.2650    1.5618    0.0590 C   0  0  0  0  0  0  0  0  0  0  0  0
    0.5440    3.0457    0.0445 C   0  0  0  0  0  0  0  0  0  0  0  0
    0.0451    3.7712   -1.2221 C   0  0  0  0  0  0  0  0  0  0  0  0
   -1.4784    3.7361   -1.3592 C   0  0  0  0  0  0  0  0  0  0  0  0
   -2.1275    4.2330   -0.1936 O   0  0  0  0  0  0  0  0  0  0  0  0
    0.5120    5.2320   -1.2071 C   0  0  0  0  0  0  0  0  0  0  0  0
    1.9316    5.3206   -1.2417 O   0  0  0  0  0  0  0  0  0  0  0  0
   -1.0518    1.1681    0.1272 N   0  0  0  0  0  0  0  0  0  0  0  0
   -1.4871   -0.1202    0.0508 C   0  0  0  0  0  0  0  0  0  0  0  0
   -2.6801   -0.3915    0.0488 O   0  0  0  0  0  0  0  0  0  0  0  0
   -0.5118   -1.0625   -0.0209 N   0  0  0  0  0  0  0  0  0  0  0  0
    0.8272   -0.8031   -0.0006 C   0  0  0  0  0  0  0  0  0  0  0  0
    1.6588   -1.7085   -0.0075 O   0  0  0  0  0  0  0  0  0  0  0  0
  1  2  1  0
  2  3  2  0
  2 14  1  0
  3  4  1  0
  3 10  1  0
  4  5  1  0
  5  6  1  0
  5  8  1  0
  6  7  1  0
  8  9  1  0
 10 11  1  0
 11 12  2  0
 11 13  1  0
 13 14  1  0
 14 15  2  0
M  END
>  <DRUGBANK_ID>  (1) 
DB02500

>  <SECONDARY_ACCESSION_NUMBERS>  (1) 
EXPT00866

>  <COMMON_NAME>  (1) 
6-(Dihydroxy-Isobutyl)-Thymine

>  <SYNONYMS>  (1) 
6-(1,3-dihydroxyisobutyl)thymine; 6-(Dihydroxyisobutyl)-Thymine

$$$$
