
     RDKit          3D

 12 11  0  0  0  0  0  0  0  0999 V2000
    1.0002   -0.0483   -0.0329 C   0  0  0  0  0  0  0  0  0  0  0  0
    0.9326    0.7527   -1.3513 C   0  0  0  0  0  0  0  0  0  0  0  0
    1.2454   -0.0545   -2.6475 C   0  0  0  0  0  0  0  0  0  0  0  0
   -0.3676    1.3054   -1.4636 O   0  0  0  0  0  0  0  0  0  0  0  0
    0.6689   -1.4078   -2.7203 N   0  0  0  0  0  0  0  0  0  0  0  0
    1.1176   -2.2558   -3.8206 C   0  0  0  0  0  0  0  0  0  0  0  0
    2.6381   -2.3770   -3.8160 C   0  0  0  0  0  0  0  0  0  0  0  0
    0.5147   -3.6649   -3.6609 C   0  0  0  0  0  0  0  0  0  0  0  0
    0.2758   -1.3174    0.0283 N   0  0  0  0  0  0  0  0  0  0  0  0
   -1.1813   -1.4835    0.0363 C   0  0  0  0  0  0  0  0  0  0  0  0
   -2.0961   -1.0850   -1.1484 C   0  0  0  0  0  0  0  0  0  0  0  0
   -1.4506   -2.9897    0.1774 C   0  0  0  0  0  0  0  0  0  0  0  0
  1  2  1  0
  1  9  1  0
  2  3  1  0
  2  4  1  0
  3  5  1  0
  5  6  1  0
  6  7  1  0
  6  8  1  0
  9 10  1  0
 10 11  1  0
 10 12  1  0
M  END
>  <DRUGBANK_ID>  (1) 
DB16631

>  <COMMON_NAME>  (1) 
1,3-Bis((1-methylethyl)amino)propan-2-ol

>  <CAS_NUMBER>  (1) 
343785-33-1

>  <UNII>  (1) 
W10T5DVF8Q

$$$$
