
     RDKit          3D

 24 26  0  0  0  0  0  0  0  0999 V2000
    0.9656   -0.1302   -0.1421 C   0  0  0  0  0  0  0  0  0  0  0  0
    0.4844    0.1169    1.2948 C   0  0  0  0  0  0  0  0  0  0  0  0
    1.2370    1.4243    1.5604 C   0  0  0  0  0  0  0  0  0  0  0  0
   -1.0868    0.0619    1.1960 C   0  0  0  0  0  0  0  0  0  0  0  0
   -1.8268   -0.7332    1.7270 O   0  0  0  0  0  0  0  0  0  0  0  0
   -1.6477    1.0800    0.4968 O   0  0  0  0  0  0  0  0  0  0  0  0
    0.9786   -0.8537    2.2406 O   0  0  0  0  0  0  0  0  0  0  0  0
    0.4439   -0.7802    3.6167 C   0  0  0  0  0  0  0  0  0  0  0  0
    0.6957    0.4925    4.4251 C   0  0  0  0  0  0  0  0  0  0  0  0
    0.0403    1.7778    4.2775 C   0  0  0  0  0  0  0  0  0  0  0  0
   -0.9264    2.2817    3.3809 C   0  0  0  0  0  0  0  0  0  0  0  0
   -0.8940    3.6176    2.9753 C   0  0  0  0  0  0  0  0  0  0  0  0
   -0.1070    4.5212    3.6642 C   0  0  0  0  0  0  0  0  0  0  0  0
    0.7529    4.0866    4.6825 C   0  0  0  0  0  0  0  0  0  0  0  0
    0.8777    2.6998    4.8936 C   0  0  0  0  0  0  0  0  0  0  0  0
    1.7693    1.9262    5.5939 N   0  0  0  0  0  0  0  0  0  0  0  0
    1.7885    0.6210    5.1952 N   0  0  0  0  0  0  0  0  0  0  0  0
    2.6754    2.3971    6.6357 C   0  0  0  0  0  0  0  0  0  0  0  0
    2.2829    1.7992    7.9628 C   0  0  0  0  0  0  0  0  0  0  0  0
    2.2799    0.4037    8.1192 C   0  0  0  0  0  0  0  0  0  0  0  0
    1.7404   -0.1846    9.2538 C   0  0  0  0  0  0  0  0  0  0  0  0
    1.3442    0.6182   10.3154 C   0  0  0  0  0  0  0  0  0  0  0  0
    1.4690    2.0054   10.2284 C   0  0  0  0  0  0  0  0  0  0  0  0
    1.8748    2.6007    9.0335 C   0  0  0  0  0  0  0  0  0  0  0  0
  1  2  1  0
  2  3  1  0
  2  4  1  0
  2  7  1  0
  4  5  2  0
  4  6  1  0
  7  8  1  0
  8  9  1  0
  9 10  1  0
  9 17  2  0
 10 11  2  0
 10 15  1  0
 11 12  1  0
 12 13  2  0
 13 14  1  0
 14 15  2  0
 15 16  1  0
 16 17  1  0
 16 18  1  0
 18 19  1  0
 19 20  2  0
 19 24  1  0
 20 21  1  0
 21 22  2  0
 22 23  1  0
 23 24  2  0
M  END
>  <DRUGBANK_ID>  (1) 
DB12739

>  <COMMON_NAME>  (1) 
Bindarit

>  <CAS_NUMBER>  (1) 
130641-38-2

>  <UNII>  (1) 
JQ11LH711M

>  <SYNONYMS>  (1) 
Bindarit

$$$$
