
     RDKit          3D

 33 36  0  0  0  0  0  0  0  0999 V2000
   -2.7514    1.6511    1.5146 C   0  0  0  0  0  0  0  0  0  0  0  0
   -2.8263    2.8300    2.2287 C   0  0  0  0  0  0  0  0  0  0  0  0
   -2.2018    3.9390    1.6833 C   0  0  0  0  0  0  0  0  0  0  0  0
   -1.4164    3.8191    0.5242 C   0  0  0  0  0  0  0  0  0  0  0  0
   -1.0961    2.6206   -0.0529 C   0  0  0  0  0  0  0  0  0  0  0  0
   -1.9835    1.5844    0.3136 C   0  0  0  0  0  0  0  0  0  0  0  0
    0.2979    2.4484   -0.7014 C   0  0  0  0  0  0  0  0  0  0  0  0
    0.6411    1.3322   -1.1325 O   0  0  0  0  0  0  0  0  0  0  0  0
    1.3255    3.3774   -0.7143 N   0  0  0  0  0  0  0  0  0  0  0  0
    1.3757    4.7847   -0.3539 C   0  0  0  0  0  0  0  0  0  0  0  0
    2.4774    5.3348    0.5556 C   0  0  0  0  0  0  0  0  0  0  0  0
    3.0335    6.4013    0.2886 O   0  0  0  0  0  0  0  0  0  0  0  0
    2.6519    4.7642    1.8068 N   0  0  0  0  0  0  0  0  0  0  0  0
    1.9867    3.5502    2.3187 C   0  0  0  0  0  0  0  0  0  0  0  0
    1.5013    3.4174    3.7781 C   0  0  0  0  0  0  0  0  0  0  0  0
    2.0343    2.0085    3.8300 N   0  0  0  0  0  0  0  0  0  0  0  0
    2.9316    2.3741    2.6863 C   0  0  0  0  0  0  0  0  0  0  0  0
    1.0423    0.9338    3.4831 C   0  0  1  0  0  0  0  0  0  0  0  0
    0.5197    1.0533    2.0828 C   0  0  0  0  0  0  0  0  0  0  0  0
   -0.2284   -0.1208    1.5284 C   0  0  0  0  0  0  0  0  0  0  0  0
    0.4726   -1.4341    1.5196 C   0  0  1  0  0  0  0  0  0  0  0  0
    0.7850   -1.6383    2.9955 C   0  0  0  0  0  0  0  0  0  0  0  0
    1.6181   -0.4912    3.6424 C   0  0  0  0  0  0  0  0  0  0  0  0
   -0.4901   -2.3903    1.0519 O   0  0  0  0  0  0  0  0  0  0  0  0
    1.5788   -1.4152    0.4836 C   0  0  0  0  0  0  0  0  0  0  0  0
    3.2482   -1.5021    0.8592 S   0  0  0  0  0  0  0  0  0  0  0  0
    3.6415   -1.0258   -0.7300 C   0  0  0  0  0  0  0  0  0  0  0  0
    2.6450   -0.9402   -1.5744 N   0  0  0  0  0  0  0  0  0  0  0  0
    1.4671   -1.1826   -0.8878 C   0  0  0  0  0  0  0  0  0  0  0  0
   -2.3349    5.3100    2.2562 C   0  0  0  0  0  0  0  0  0  0  0  0
   -1.1681    5.7619    2.7916 F   0  0  0  0  0  0  0  0  0  0  0  0
   -2.6739    6.1962    1.2834 F   0  0  0  0  0  0  0  0  0  0  0  0
   -3.2761    5.4038    3.2245 F   0  0  0  0  0  0  0  0  0  0  0  0
  1  2  2  0
  1  6  1  0
  2  3  1  0
  3  4  2  0
  3 30  1  0
  4  5  1  0
  5  6  2  0
  5  7  1  0
  7  8  2  0
  7  9  1  0
  9 10  1  0
 10 11  1  0
 11 12  2  0
 11 13  1  0
 13 14  1  0
 14 15  1  0
 14 17  1  0
 15 16  1  0
 16 17  1  0
 18 19  1  0
 18 23  1  0
 18 16  1  6
 19 20  1  0
 20 21  1  0
 21 22  1  0
 21 24  1  6
 21 25  1  0
 22 23  1  0
 25 26  1  0
 25 29  2  0
 26 27  1  0
 27 28  2  0
 28 29  1  0
 30 31  1  0
 30 32  1  0
 30 33  1  0
M  END
>  <DRUGBANK_ID>  (1) 
DB12632

>  <COMMON_NAME>  (1) 
JNJ-41443532

>  <CAS_NUMBER>  (1) 
1228650-83-6

>  <UNII>  (1) 
0OJB0LES1A

$$$$
