
     RDKit          3D

 23 26  0  0  1  0  0  0  0  0999 V2000
    7.2261   -5.8306    4.5431 C   0  0  0  0  0  0  0  0  0  0  0  0
    7.2343   -4.8611    3.4825 N   0  0  0  0  0  0  0  0  0  0  0  0
    6.1669   -4.5324    2.7038 C   0  0  0  0  0  0  0  0  0  0  0  0
    4.8316   -4.9295    2.7315 C   0  0  0  0  0  0  0  0  0  0  0  0
    3.9834   -4.3902    1.7569 C   0  0  0  0  0  0  0  0  0  0  0  0
    4.5336   -3.5378    0.7696 C   0  0  0  0  0  0  0  0  0  0  0  0
    5.8804   -3.1417    0.7762 C   0  0  0  0  0  0  0  0  0  0  0  0
    6.7045   -3.6572    1.7785 C   0  0  0  0  0  0  0  0  0  0  0  0
    8.0375   -3.4780    2.0425 N   0  0  0  0  0  0  0  0  0  0  0  0
    8.3544   -4.2295    3.0937 N   0  0  0  0  0  0  0  0  0  0  0  0
    2.5175   -4.8289    1.7615 C   0  0  2  0  0  0  0  0  0  0  0  0
    1.6928   -4.2429    0.6238 C   0  0  0  0  0  0  0  0  0  0  0  0
    1.4010   -2.8669    0.6070 C   0  0  0  0  0  0  0  0  0  0  0  0
    0.5309   -2.3447   -0.3412 C   0  0  0  0  0  0  0  0  0  0  0  0
   -0.0011   -3.1816   -1.3170 C   0  0  0  0  0  0  0  0  0  0  0  0
    0.3880   -4.5186   -1.3963 C   0  0  0  0  0  0  0  0  0  0  0  0
    1.2178   -5.0587   -0.4142 C   0  0  0  0  0  0  0  0  0  0  0  0
   -1.1802   -2.5682   -2.4061 Cl  0  0  0  0  0  0  0  0  0  0  0  0
    1.7821   -4.6444    3.0407 N   0  0  0  0  0  0  0  0  0  0  0  0
    0.5229   -5.1219    3.2969 C   0  0  0  0  0  0  0  0  0  0  0  0
    0.1547   -4.7924    4.5155 N   0  0  0  0  0  0  0  0  0  0  0  0
    1.2338   -4.1053    4.9837 C   0  0  0  0  0  0  0  0  0  0  0  0
    2.2613   -3.9985    4.1326 N   0  0  0  0  0  0  0  0  0  0  0  0
  1  2  1  0
  2  3  1  0
  2 10  1  0
  3  4  2  0
  3  8  1  0
  4  5  1  0
  5  6  2  0
  6  7  1  0
  7  8  2  0
  8  9  1  0
  9 10  2  0
 11 19  1  0
 11 12  1  6
 11  5  1  0
 12 13  2  0
 12 17  1  0
 13 14  1  0
 14 15  2  0
 15 16  1  0
 15 18  1  0
 16 17  2  0
 19 20  1  0
 19 23  1  0
 20 21  2  0
 21 22  1  0
 22 23  2  0
M  END
>  <DRUGBANK_ID>  (1) 
DB13767

>  <COMMON_NAME>  (1) 
Vorozole

>  <CAS_NUMBER>  (1) 
129731-10-8

>  <UNII>  (1) 
1E2S9YXV2A

>  <SYNONYMS>  (1) 
Vorozol; Vorozole; Vorozolum

$$$$
