IAA
     RDKit          3D

 25 28  0  0  0  0  0  0  0  0999 V2000
    5.6719   -2.9953    4.8856 O   0  0  0  0  0  0  0  0  0  0  0  0
    6.3764   -3.7256    3.9842 C   0  0  0  0  0  0  0  0  0  0  0  0
    7.5779   -3.8976    4.1168 O   0  0  0  0  0  0  0  0  0  0  0  0
    5.4978   -4.2932    2.8962 C   0  0  0  0  0  0  0  0  0  0  0  0
    4.5058   -5.0720    3.6016 O   0  0  0  0  0  0  0  0  0  0  0  0
    5.1646   -6.2363    4.0436 N   0  0  0  0  0  0  0  0  0  0  0  0
    4.9892   -6.6062    5.3046 C   0  0  0  0  0  0  0  0  0  0  0  0
    6.4240   -6.7306    6.5032 C   0  0  0  0  0  0  0  0  0  0  0  0
    7.5594   -6.8946    7.4229 C   0  0  0  0  0  0  0  0  0  0  0  0
    8.7869   -8.1805    7.4118 C   0  0  0  0  0  0  0  0  0  0  0  0
    8.8592   -9.3820    7.2242 O   0  0  0  0  0  0  0  0  0  0  0  0
    9.8860   -7.6679    7.9972 N   0  0  0  0  0  0  0  0  0  0  0  0
    9.4952   -6.8577    8.8949 C   0  0  0  0  0  0  0  0  0  0  0  0
   10.3991   -6.8886   10.0676 C   0  0  0  0  0  0  0  0  0  0  0  0
   10.3343   -5.6519   10.8257 C   0  0  0  0  0  0  0  0  0  0  0  0
    9.4090   -4.7345   10.5066 C   0  0  0  0  0  0  0  0  0  0  0  0
    8.3634   -4.9553    9.4071 C   0  0  0  0  0  0  0  0  0  0  0  0
    8.2547   -6.0851    8.6346 C   0  0  0  0  0  0  0  0  0  0  0  0
    6.5323   -8.0058    6.0095 N   0  0  0  0  0  0  0  0  0  0  0  0
    5.3854   -8.5600    6.1887 C   0  0  0  0  0  0  0  0  0  0  0  0
    5.3596   -9.5883    7.1925 C   0  0  0  0  0  0  0  0  0  0  0  0
    4.4414  -10.6359    6.7800 C   0  0  0  0  0  0  0  0  0  0  0  0
    3.5802  -10.4625    5.7662 C   0  0  0  0  0  0  0  0  0  0  0  0
    3.4751   -9.1221    5.0737 C   0  0  0  0  0  0  0  0  0  0  0  0
    4.2920   -8.0635    5.4210 C   0  0  0  0  0  0  0  0  0  0  0  0
  1  2  1  0
  2  3  2  0
  2  4  1  0
  4  5  1  0
  5  6  1  0
  6  7  2  0
  7  8  1  0
  7 25  1  0
  8  9  2  0
  8 19  1  0
  9 10  1  0
  9 18  1  0
 10 11  2  0
 10 12  1  0
 12 13  2  0
 13 14  1  0
 13 18  1  0
 14 15  1  0
 15 16  2  0
 16 17  1  0
 17 18  2  0
 19 20  2  0
 20 21  1  0
 20 25  1  0
 21 22  1  0
 22 23  2  0
 23 24  1  0
 24 25  2  0
M  END
>  <DRUGBANK_ID>  (1) 
DB07949

>  <COMMON_NAME>  (1) 
({[(3E)-2'-Oxo-2',7'-dihydro-2,3'-biindol-3(7H)-ylidene]amino}oxy)acetic acid

$$$$
