
     RDKit          3D

 23 25  0  0  1  0  0  0  0  0999 V2000
    1.1340    0.0773    0.0324 O   0  0  0  0  0  0  0  0  0  0  0  0
    0.6352   -1.2430   -0.1690 C   0  0  2  0  0  0  0  0  0  0  0  0
   -0.5353   -1.5587    0.7525 C   0  0  2  0  0  0  0  0  0  0  0  0
   -1.0859   -2.8707    0.4580 O   0  0  0  0  0  0  0  0  0  0  0  0
   -0.1674   -3.8860    0.3725 C   0  0  0  0  0  0  0  0  0  0  0  0
    1.2106   -3.6666    0.2521 C   0  0  0  0  0  0  0  0  0  0  0  0
    2.0817   -4.7549    0.1625 C   0  0  0  0  0  0  0  0  0  0  0  0
    3.4195   -4.5396    0.0078 O   0  0  0  0  0  0  0  0  0  0  0  0
    1.5853   -6.0574    0.1939 C   0  0  0  0  0  0  0  0  0  0  0  0
    0.2124   -6.2693    0.3023 C   0  0  0  0  0  0  0  0  0  0  0  0
   -0.2123   -7.5666    0.3219 O   0  0  0  0  0  0  0  0  0  0  0  0
   -0.6732   -5.1951    0.3839 C   0  0  0  0  0  0  0  0  0  0  0  0
    1.6883   -2.2671    0.1833 C   0  0  0  0  0  0  0  0  0  0  0  0
    2.8536   -1.9231    0.3832 O   0  0  0  0  0  0  0  0  0  0  0  0
   -1.7116   -0.6076    0.6288 C   0  0  0  0  0  0  0  0  0  0  0  0
   -2.2445   -0.2466   -0.6237 C   0  0  0  0  0  0  0  0  0  0  0  0
   -3.5440    0.2464   -0.6955 C   0  0  0  0  0  0  0  0  0  0  0  0
   -4.1530    0.4768   -1.8989 O   0  0  0  0  0  0  0  0  0  0  0  0
   -4.2837    0.4365    0.4685 C   0  0  0  0  0  0  0  0  0  0  0  0
   -5.6026    0.7985    0.4163 O   0  0  0  0  0  0  0  0  0  0  0  0
   -3.7003    0.2189    1.7093 C   0  0  0  0  0  0  0  0  0  0  0  0
   -4.4110    0.3875    2.8617 O   0  0  0  0  0  0  0  0  0  0  0  0
   -2.4078   -0.2666    1.7999 C   0  0  0  0  0  0  0  0  0  0  0  0
  2  1  1  1
  2  3  1  0
  2 13  1  0
  3  4  1  0
  3 15  1  6
  4  5  1  0
  5  6  2  0
  5 12  1  0
  6  7  1  0
  6 13  1  0
  7  8  1  0
  7  9  2  0
  9 10  1  0
 10 11  1  0
 10 12  2  0
 13 14  2  0
 15 16  2  0
 15 23  1  0
 16 17  1  0
 17 18  1  0
 17 19  2  0
 19 20  1  0
 19 21  1  0
 21 22  1  0
 21 23  2  0
M  END
>  <DRUGBANK_ID>  (1) 
DB15645

>  <COMMON_NAME>  (1) 
Dihydromyricetin

>  <CAS_NUMBER>  (1) 
27200-12-0

>  <UNII>  (1) 
KD8QND6427

>  <SYNONYMS>  (1) 
(+)-ampelopsin; (+)-dihydromyricetin; Ampelopsin; Ampeloptin; Telocapil

$$$$
