
     RDKit          3D

 27 27  0  0  0  0  0  0  0  0999 V2000
    5.1369    2.7015   -6.0429 O   0  0  0  0  0  0  0  0  0  0  0  0
    4.0697    5.2663   -1.4364 O   0  0  0  0  0  0  0  0  0  0  0  0
    1.7829    0.1378   -5.8340 O   0  0  0  0  0  0  0  0  0  0  0  0
    0.5984    2.1450   -3.9551 O   0  0  0  0  0  0  0  0  0  0  0  0
    1.8177    4.3738   -3.3123 O   0  0  0  0  0  0  0  0  0  0  0  0
    4.1232   -0.5808   -2.0911 O   0  0  0  0  0  0  0  0  0  0  0  0
    5.4537   -0.3113   -6.8822 O   0  0  0  0  0  0  0  0  0  0  0  0
    5.2383    0.1875   -4.6524 N   0  0  0  0  0  0  0  0  0  0  0  0
    4.5781    1.5329   -1.2469 N   0  0  0  0  0  0  0  0  0  0  0  0
    4.9272    1.1701   -3.5493 C   0  0  1  0  0  0  0  0  0  0  0  0
    4.0199    2.6005   -3.7779 C   0  0  0  0  0  0  0  0  0  0  0  0
    4.3706    4.0539   -3.4015 C   0  0  0  0  0  0  0  0  0  0  0  0
    4.5607    4.0259   -1.9334 C   0  0  2  0  0  0  0  0  0  0  0  0
    2.5432    1.2555   -5.2998 C   0  0  1  0  0  0  0  0  0  0  0  0
    4.0537    1.5138   -6.2075 C   0  0  2  0  0  0  0  0  0  0  0  0
    1.4737    2.4940   -5.0655 C   0  0  2  0  0  0  0  0  0  0  0  0
    3.8503    2.8139   -1.2255 C   0  0  0  0  0  0  0  0  0  0  0  0
    4.4121    0.5694   -2.2573 C   0  0  0  0  0  0  0  0  0  0  0  0
    1.8209    3.9954   -4.7213 C   0  0  1  0  0  0  0  0  0  0  0  0
    4.9469    0.3378   -5.9940 C   0  0  0  0  0  0  0  0  0  0  0  0
   -0.3521    6.8317   -6.0135 C   0  0  0  0  0  0  0  0  0  0  0  0
    0.7419    4.8937   -5.0467 C   0  0  0  0  0  0  0  0  0  0  0  0
    0.8549    5.9814   -5.8037 C   0  0  0  0  0  0  0  0  0  0  0  0
   -0.0163    8.2758   -5.6585 C   0  0  0  0  0  0  0  0  0  0  0  0
   -0.6856    6.6587   -7.4910 C   0  0  0  0  0  0  0  0  0  0  0  0
   -1.5388    6.3504   -5.1468 C   0  0  0  0  0  0  0  0  0  0  0  0
    6.2693    2.8524   -5.0668 C   0  0  0  0  0  0  0  0  0  0  0  0
  1 27  1  0
  6 18  2  0
  7 20  2  0
  8 20  1  0
  9 17  1  0
  9 18  1  0
 10 11  1  0
 10 18  1  0
 10  8  1  6
 11 12  1  0
 12 13  1  0
 13  2  1  1
 13 17  1  0
 14 16  1  0
 14 15  1  0
 14  3  1  6
 15 20  1  0
 15  1  1  1
 16  4  1  1
 19 22  1  0
 19 16  1  0
 19  5  1  1
 21 23  1  0
 21 24  1  0
 21 25  1  0
 21 26  1  0
 22 23  2  0
M  END
>  <DRUGBANK_ID>  (1) 
DB03396

>  <SECONDARY_ACCESSION_NUMBERS>  (1) 
EXPT03029

>  <COMMON_NAME>  (1) 
(2R,3R,4S,5R,6E)-3,4,5-Trihydroxy-N-[(3S,6R)-6-hydroxy-2-oxo-3-azepanyl]-2-methoxy-8,8-dimethyl-6-nonenamide

$$$$
