
     RDKit          3D

  3  2  0  0  0  0  0  0  0  0999 V2000
    0.9239   -0.0143    0.0633 O   0  0  0  0  0  0  0  0  0  0  0  0
    0.2206    0.3660    2.0160 Ag  0  0  0  0  0  1  0  0  0  0  0  0
    3.0339   -0.0143    0.0633 Ag  0  0  0  0  0  1  0  0  0  0  0  0
  2  1  1  0
  3  1  1  0
M  END
>  <DRUGBANK_ID>  (1) 
DB15668

>  <COMMON_NAME>  (1) 
Silver oxide

>  <CAS_NUMBER>  (1) 
20667-12-3

>  <UNII>  (1) 
897WUN6G6T

>  <SYNONYMS>  (1) 
Argentous oxide; Argentum oxydatum; Disilver oxide; Silver rust; Silver(I) oxide

$$$$
