
     RDKit          3D

 23 25  0  0  0  0  0  0  0  0999 V2000
   -1.1193   -0.4659   -0.0006 C   0  0  0  0  0  0  0  0  0  0  0  0
   -2.5143   -0.3566    0.1235 C   0  0  0  0  0  0  0  0  0  0  0  0
   -3.1324    0.8938    0.2402 C   0  0  0  0  0  0  0  0  0  0  0  0
   -2.3644    2.0573    0.2476 C   0  0  0  0  0  0  0  0  0  0  0  0
   -0.9816    1.9755    0.0944 C   0  0  0  0  0  0  0  0  0  0  0  0
   -0.3869    0.7190   -0.0626 C   0  0  0  0  0  0  0  0  0  0  0  0
    1.3437    0.5678   -0.3504 S   0  0  0  0  0  0  0  0  0  0  0  0
    1.7144   -0.8619    0.5344 N   0  0  0  0  0  0  0  0  0  0  0  0
    0.8835   -1.9751    0.1261 C   0  0  0  0  0  0  0  0  0  0  0  0
   -0.4435   -1.7804   -0.0937 C   0  0  0  0  0  0  0  0  0  0  0  0
    1.4782   -3.3526   -0.0311 C   0  0  0  0  0  0  0  0  0  0  0  0
    2.8255   -3.5066    0.2208 N   0  0  0  0  0  0  0  0  0  0  0  0
    3.4591   -4.7601    0.1027 C   0  0  0  0  0  0  0  0  0  0  0  0
    4.8939   -6.3596    0.9490 C   0  0  0  0  0  0  0  0  0  0  0  0
    4.3700   -5.1046    1.0379 N   0  0  0  0  0  0  0  0  0  0  0  0
    3.1469   -5.5967   -0.9670 C   0  0  0  0  0  0  0  0  0  0  0  0
    3.7343   -6.8544   -1.0598 C   0  0  0  0  0  0  0  0  0  0  0  0
    4.6115   -7.2595   -0.0687 C   0  0  0  0  0  0  0  0  0  0  0  0
    1.8153   -0.6342    1.9984 C   0  0  0  0  0  0  0  0  0  0  0  0
   -1.3231   -2.8054   -0.4184 O   0  0  0  0  0  0  0  0  0  0  0  0
    0.7228   -4.2828   -0.3299 O   0  0  0  0  0  0  0  0  0  0  0  0
    2.0004    1.6814    0.2973 O   0  0  0  0  0  0  0  0  0  0  0  0
    1.5234    0.2950   -1.7623 O   0  0  0  0  0  0  0  0  0  0  0  0
  1  2  2  0
  1  6  1  0
  1 10  1  0
  2  3  1  0
  3  4  2  0
  4  5  1  0
  5  6  2  0
  6  7  1  0
  7  8  1  0
  7 22  2  0
  7 23  2  0
  8  9  1  0
  8 19  1  0
  9 10  2  0
  9 11  1  0
 10 20  1  0
 11 12  1  0
 11 21  2  0
 12 13  1  0
 13 16  2  0
 14 15  2  0
 14 18  1  0
 15 13  1  0
 16 17  1  0
 17 18  2  0
M  END
>  <DRUGBANK_ID>  (1) 
DB00554

>  <SECONDARY_ACCESSION_NUMBERS>  (1) 
APRD01187

>  <COMMON_NAME>  (1) 
Piroxicam

>  <CAS_NUMBER>  (1) 
36322-90-4

>  <UNII>  (1) 
13T4O6VMAM

>  <SYNONYMS>  (1) 
4-Hydroxy-2-methyl-N-(2-pyridyl)-2H-1,2-benzothiazin-3-caboxyamid-1,1-dioxid; Piroxicam; Piroxicam betadex; Piroxicamum; Pyroxycam

$$$$
