
     RDKit          3D

 25 25  0  0  0  0  0  0  0  0999 V2000
    0.9483    0.0093    0.0258 C   0  0  0  0  0  0  0  0  0  0  0  0
    0.4599    0.2667    1.4283 C   0  0  0  0  0  0  0  0  0  0  0  0
   -0.3824    1.2775    1.6538 C   0  0  0  0  0  0  0  0  0  0  0  0
   -0.8970    1.8197    2.9533 C   0  0  0  0  0  0  0  0  0  0  0  0
   -0.3285    3.2135    3.2661 C   0  0  0  0  0  0  0  0  0  0  0  0
   -0.7680    4.2896    2.2742 C   0  0  0  0  0  0  0  0  0  0  0  0
   -1.4519    5.3504    2.7129 C   0  0  0  0  0  0  0  0  0  0  0  0
   -2.1874    6.3889    1.9151 C   0  0  0  0  0  0  0  0  0  0  0  0
   -3.7399    6.2571    1.8791 C   0  0  0  0  0  0  0  0  0  0  0  0
   -4.4911    6.4117    3.2275 C   0  0  0  0  0  0  0  0  0  0  0  0
   -5.1563    7.5958    3.4672 C   0  0  0  0  0  0  0  0  0  0  0  0
   -5.8007    8.2518    4.7146 C   0  0  0  0  0  0  0  0  0  0  0  0
   -4.9168    9.8920    5.1317 S   0  0  0  0  0  0  0  0  0  0  0  0
   -3.0871    9.6995    5.3355 C   0  0  0  0  0  0  0  0  0  0  0  0
   -2.4073   10.9293    5.3999 C   0  0  0  0  0  0  0  0  0  0  0  0
   -1.0018   11.0028    5.5420 C   0  0  0  0  0  0  0  0  0  0  0  0
   -0.2158    9.8625    5.6322 C   0  0  0  0  0  0  0  0  0  0  0  0
   -0.8423    8.6494    5.6405 C   0  0  0  0  0  0  0  0  0  0  0  0
   -2.2378    8.5739    5.4959 C   0  0  0  0  0  0  0  0  0  0  0  0
   -2.6449    7.2162    5.6952 C   0  0  0  0  0  0  0  0  0  0  0  0
   -1.9588    6.1901    5.7569 O   0  0  0  0  0  0  0  0  0  0  0  0
   -3.8973    7.2734    6.0306 O   0  0  0  0  0  0  0  0  0  0  0  0
   -4.2329    5.1478    4.1250 C   0  0  0  0  0  0  0  0  0  0  0  0
   -0.4060    4.1957    0.8305 C   0  0  0  0  0  0  0  0  0  0  0  0
    0.9097   -0.6380    2.5198 C   0  0  0  0  0  0  0  0  0  0  0  0
  1  2  1  0
  2  3  2  3
  2 25  1  0
  3  4  1  0
  4  5  1  0
  5  6  1  0
  6  7  2  0
  6 24  1  0
  7  8  1  0
  8  9  1  0
  9 10  1  0
 10 11  2  0
 10 23  1  0
 11 12  1  0
 12 13  1  0
 13 14  1  0
 14 15  2  0
 14 19  1  0
 15 16  1  0
 16 17  2  0
 17 18  1  0
 18 19  2  0
 19 20  1  0
 20 21  2  0
 20 22  1  0
M  END
>  <DRUGBANK_ID>  (1) 
DB12681

>  <COMMON_NAME>  (1) 
Salirasib

>  <CAS_NUMBER>  (1) 
162520-00-5

>  <UNII>  (1) 
MZH0OM550M

>  <SYNONYMS>  (1) 
Salirasib

$$$$
