
     RDKit          3D

 15 16  0  0  0  0  0  0  0  0999 V2000
    1.0916    1.4722    0.0568 O   0  0  0  0  0  0  0  0  0  0  0  0
    2.2397    0.7217   -0.3336 C   0  0  0  0  0  0  0  0  0  0  0  0
    2.2832   -0.6483    0.3359 C   0  0  0  0  0  0  0  0  0  0  0  0
    1.1308   -1.4271   -0.0522 O   0  0  0  0  0  0  0  0  0  0  0  0
   -0.0407    0.7058    0.0292 C   0  0  0  0  0  0  0  0  0  0  0  0
   -0.0263   -0.6902   -0.0219 C   0  0  0  0  0  0  0  0  0  0  0  0
   -1.2324   -1.3903   -0.0623 C   0  0  0  0  0  0  0  0  0  0  0  0
   -2.4456   -0.6950   -0.0298 C   0  0  0  0  0  0  0  0  0  0  0  0
   -2.4534    0.6990    0.0349 C   0  0  0  0  0  0  0  0  0  0  0  0
   -1.2489    1.3989    0.0658 C   0  0  0  0  0  0  0  0  0  0  0  0
    3.5498   -1.3951   -0.1067 C   0  0  0  0  0  0  0  0  0  0  0  0
    4.7688   -0.7191    0.3338 N   0  0  0  0  0  0  0  0  0  0  0  0
    5.6836   -1.3163    1.1257 C   0  0  0  0  0  0  0  0  0  0  0  0
    6.7608   -0.5644    1.4022 N   0  0  0  0  0  0  0  0  0  0  0  0
    5.5354   -2.4999    1.5906 N   0  0  0  0  0  0  0  0  0  0  0  0
  1  2  1  0
  2  3  1  0
  3  4  1  0
  3 11  1  0
  5  6  2  0
  5  1  1  0
  6  4  1  0
  6  7  1  0
  7  8  2  0
  8  9  1  0
  9 10  2  0
 10  5  1  0
 11 12  1  0
 12 13  1  0
 13 14  1  0
 13 15  2  0
M  END
>  <DRUGBANK_ID>  (1) 
DB13211

>  <COMMON_NAME>  (1) 
Guanoxan

>  <CAS_NUMBER>  (1) 
2165-19-7

>  <UNII>  (1) 
9V0MRL0R5Y

>  <SYNONYMS>  (1) 
Guanoxan; Guanoxano; Guanoxanum

$$$$
