AJI
     RDKit          3D

 30 33  0  0  0  0  0  0  0  0999 V2000
   -2.5476   -0.4256   -0.0116 C   0  0  0  0  0  0  0  0  0  0  0  0
    1.8551   10.5107   -0.6093 C   0  0  0  0  0  0  0  0  0  0  0  0
    6.7414    5.0333   -3.0469 C   0  0  0  0  0  0  0  0  0  0  0  0
    5.4465    4.8066   -5.0790 C   0  0  0  0  0  0  0  0  0  0  0  0
    5.6404    4.6200   -2.2984 C   0  0  0  0  0  0  0  0  0  0  0  0
    4.3365    4.4223   -4.3287 C   0  0  0  0  0  0  0  0  0  0  0  0
    3.2892    6.3179   -0.8240 C   0  0  0  0  0  0  0  0  0  0  0  0
    2.9533    7.3239    0.0815 C   0  0  0  0  0  0  0  0  0  0  0  0
   -0.0379   -1.0124    0.0096 C   0  0  0  0  0  0  0  0  0  0  0  0
    3.4887   11.5161    0.9680 C   0  0  0  0  0  0  0  0  0  0  0  0
   -1.0961   -0.1234    0.0004 C   0  0  0  0  0  0  0  0  0  0  0  0
    6.6351    5.1179   -4.4302 C   0  0  0  0  0  0  0  0  0  0  0  0
    4.4236    4.3424   -2.9340 C   0  0  0  0  0  0  0  0  0  0  0  0
    2.5929    5.1064   -0.8668 C   0  0  0  0  0  0  0  0  0  0  0  0
    1.8470    7.1773    0.8943 C   0  0  0  0  0  0  0  0  0  0  0  0
    1.5275    4.9900    0.0342 C   0  0  0  0  0  0  0  0  0  0  0  0
    0.5668    1.3358    0.0415 C   0  0  0  0  0  0  0  0  0  0  0  0
    2.3750    9.8118    1.7722 C   0  0  0  0  0  0  0  0  0  0  0  0
    0.6554    3.7472    0.0743 C   0  0  0  0  0  0  0  0  0  0  0  0
    3.8465   11.3674    2.2211 N   0  0  0  0  0  0  0  0  0  0  0  0
   -0.7313    1.2060    0.0107 N   0  0  0  0  0  0  0  0  0  0  0  0
    1.1360    6.0163    0.8763 N   0  0  0  0  0  0  0  0  0  0  0  0
    3.1326   10.3017    2.7329 N   0  0  0  0  0  0  0  0  0  0  0  0
    1.2928    2.5052    0.0882 N   0  0  0  0  0  0  0  0  0  0  0  0
    2.5321   10.5920    0.6551 N   0  0  0  0  0  0  0  0  0  0  0  0
   -0.5657    3.9240    0.0761 O   0  0  0  0  0  0  0  0  0  0  0  0
    7.6968    5.5014   -5.1491 F   0  0  0  0  0  0  0  0  0  0  0  0
    1.4493   -0.1322    0.0151 S   0  0  0  0  0  0  0  0  0  0  0  0
    2.9967    3.8139   -2.0326 S   0  0  0  0  0  0  0  0  0  0  0  0
    1.2456    8.4978    1.9532 S   0  0  0  0  0  0  0  0  0  0  0  0
  1 11  1  0
  2 25  1  0
  3  5  2  0
  3 12  1  0
  4  6  1  0
  4 12  2  0
  5 13  1  0
  6 13  2  0
  7  8  2  0
  7 14  1  0
  8 15  1  0
  9 11  2  0
  9 28  1  0
 10 20  2  0
 10 25  1  0
 11 21  1  0
 12 27  1  0
 13 29  1  0
 14 16  2  0
 14 29  1  0
 15 22  2  0
 15 30  1  0
 16 19  1  0
 16 22  1  0
 17 21  2  0
 17 24  1  0
 17 28  1  0
 18 23  2  0
 18 25  1  0
 18 30  1  0
 19 24  1  0
 19 26  2  0
 20 23  1  0
M  END
>  <DRUGBANK_ID>  (1) 
DB07359

>  <COMMON_NAME>  (1) 
3-[(4-fluorophenyl)sulfanyl]-N-(4-methyl-1,3-thiazol-2-yl)-6-[(4-methyl-4H-1,2,4-triazol-3-yl)sulfanyl]pyridine-2-carboxamide

$$$$
