
     RDKit          3D

 31 34  0  0  1  0  0  0  0  0999 V2000
    0.8434    3.3587    2.1621 C   0  0  0  0  0  0  0  0  0  0  0  0
    0.6087    2.1521    1.4333 O   0  0  0  0  0  0  0  0  0  0  0  0
    1.0874    2.2394    0.0848 C   0  0  2  0  0  0  0  0  0  0  0  0
    0.5130    1.0842   -0.7324 C   0  0  0  0  0  0  0  0  0  0  0  0
    0.6510   -0.4076   -0.3863 C   0  0  0  0  0  0  0  0  0  0  0  0
    1.1121   -0.6954   -1.7361 O   0  0  0  0  0  0  0  0  0  0  0  0
    1.3050    0.7167   -2.0005 C   0  0  0  0  0  0  0  0  0  0  0  0
    2.6165    2.2971    0.0419 C   0  0  0  0  0  0  0  0  0  0  0  0
    3.3228    3.4856   -0.2441 C   0  0  0  0  0  0  0  0  0  0  0  0
    2.4044    4.9521   -0.4549 Cl  0  0  0  0  0  0  0  0  0  0  0  0
    4.7437    3.4629   -0.3063 C   0  0  0  0  0  0  0  0  0  0  0  0
    5.4494    2.2612   -0.0623 C   0  0  0  0  0  0  0  0  0  0  0  0
    6.9481    2.2213    0.0230 C   0  0  0  0  0  0  0  0  0  0  0  0
    7.5836    3.4812   -0.5060 C   0  0  0  0  0  0  0  0  0  0  0  0
    6.8988    4.6537   -0.0614 N   0  0  0  0  0  0  0  0  0  0  0  0
    7.4813    5.4205    1.0952 C   0  0  0  0  0  0  0  0  0  0  0  0
    7.3232    6.8875    0.9183 C   0  0  0  0  0  0  0  0  0  0  0  0
    6.1622    7.5773    0.9440 C   0  0  0  0  0  0  0  0  0  0  0  0
    4.9032    7.1274    1.2858 O   0  0  0  0  0  0  0  0  0  0  0  0
    4.7109    5.8993    1.9735 C   0  0  0  0  0  0  0  0  0  0  0  0
    6.1498    8.9596    0.4932 C   0  0  0  0  0  0  0  0  0  0  0  0
    7.2901    9.6351    0.2775 C   0  0  0  0  0  0  0  0  0  0  0  0
    7.3441   11.0698   -0.1413 C   0  0  0  0  0  0  0  0  0  0  0  0
    8.4868    8.9892    0.4530 N   0  0  0  0  0  0  0  0  0  0  0  0
    8.6042    7.6564    0.7613 C   0  0  0  0  0  0  0  0  0  0  0  0
    9.7010    7.1449    0.9366 O   0  0  0  0  0  0  0  0  0  0  0  0
    5.5686    4.7156   -0.5482 C   0  0  0  0  0  0  0  0  0  0  0  0
    5.0929    5.6829   -1.0947 O   0  0  0  0  0  0  0  0  0  0  0  0
    4.7473    1.0891    0.1600 C   0  0  0  0  0  0  0  0  0  0  0  0
    5.5097   -0.4579    0.2762 Cl  0  0  0  0  0  0  0  0  0  0  0  0
    3.3717    1.1263    0.2409 C   0  0  0  0  0  0  0  0  0  0  0  0
  1  2  1  0
  3  8  1  0
  3  4  1  0
  3  2  1  1
  4  5  1  0
  4  7  1  0
  5  6  1  0
  6  7  1  0
  8  9  2  0
  8 31  1  0
  9 10  1  0
  9 11  1  0
 11 12  2  0
 11 27  1  0
 12 13  1  0
 12 29  1  0
 13 14  1  0
 14 15  1  0
 15 16  1  0
 15 27  1  0
 16 17  1  0
 17 18  2  0
 17 25  1  0
 18 19  1  0
 18 21  1  0
 19 20  1  0
 21 22  2  0
 22 23  1  0
 22 24  1  0
 24 25  1  0
 25 26  2  0
 27 28  2  0
 29 30  1  0
 29 31  2  0
M  END
>  <DRUGBANK_ID>  (1) 
DB14799

>  <COMMON_NAME>  (1) 
PF-06821497

>  <CAS_NUMBER>  (1) 
1844849-10-0

>  <UNII>  (1) 
S4L4MM20B6

$$$$
