STS
     RDKit          3D

 19 21  0  0  0  0  0  0  0  0999 V2000
    3.0256   -3.8070   -0.9948 S   0  0  0  0  0  0  0  0  0  0  0  0
    2.4368   -2.8022    0.4022 C   0  0  0  0  0  0  0  0  0  0  0  0
    0.9039   -2.6782    0.4890 C   0  0  2  0  0  0  0  0  0  0  0  0
    0.6087   -1.3543    1.1807 C   0  0  0  0  0  0  0  0  0  0  0  0
    0.9366   -0.1545    0.7479 N   0  0  0  0  0  0  0  0  0  0  0  0
    0.2952    0.7387    1.5681 C   0  0  0  0  0  0  0  0  0  0  0  0
   -0.4595    0.0678    2.5099 C   0  0  0  0  0  0  0  0  0  0  0  0
   -0.1402   -1.2522    2.3369 N   0  0  0  0  0  0  0  0  0  0  0  0
   -1.3061    0.6890    3.4101 C   0  0  0  0  0  0  0  0  0  0  0  0
   -1.2795    2.0689    3.3315 C   0  0  0  0  0  0  0  0  0  0  0  0
   -0.5321    2.7033    2.4163 N   0  0  0  0  0  0  0  0  0  0  0  0
    0.3035    2.1275    1.5386 C   0  0  0  0  0  0  0  0  0  0  0  0
    0.2493   -3.8967    1.2017 C   0  0  0  0  0  0  0  0  0  0  0  0
   -1.2754   -3.9698    1.1257 C   0  0  0  0  0  0  0  0  0  0  0  0
   -1.9264   -5.1981    1.2602 C   0  0  0  0  0  0  0  0  0  0  0  0
   -3.3176   -5.2710    1.1065 C   0  0  0  0  0  0  0  0  0  0  0  0
   -4.0910   -4.1133    1.0164 C   0  0  0  0  0  0  0  0  0  0  0  0
   -3.4742   -2.8818    1.0240 C   0  0  0  0  0  0  0  0  0  0  0  0
   -2.0919   -2.8390    0.9421 C   0  0  0  0  0  0  0  0  0  0  0  0
  1  2  1  0
  3 13  1  1
  3  4  1  0
  3  2  1  0
  4  5  2  0
  4  8  1  0
  5  6  1  0
  6  7  2  0
  6 12  1  0
  7  8  1  0
  7  9  1  0
  9 10  2  0
 10 11  1  0
 11 12  2  0
 13 14  1  0
 14 15  2  0
 14 19  1  0
 15 16  1  0
 16 17  2  0
 17 18  1  0
 18 19  2  0
M  CHG  1  11   1
M  END
>  <DRUGBANK_ID>  (1) 
DB08575

>  <COMMON_NAME>  (1) 
2-[(1S)-1-BENZYL-2-SULFANYLETHYL]-1H-IMIDAZO[4,5-C]PYRIDIN-5-IUM

$$$$
