HNT
     RDKit          3D

 15 16  0  0  0  0  0  0  0  0999 V2000
    1.1923   -1.4458   -0.3977 C   0  0  0  0  0  0  0  0  0  0  0  0
    2.2469   -0.7586    0.5007 C   0  0  2  0  0  0  0  0  0  0  0  0
   -4.7192    0.8700    0.6407 O   0  0  0  0  0  0  0  0  0  0  0  0
    1.2804    1.3426   -0.4298 C   0  0  0  0  0  0  0  0  0  0  0  0
   -1.2237    1.4240    0.0452 C   0  0  0  0  0  0  0  0  0  0  0  0
   -2.4392    0.7454    0.2208 C   0  0  0  0  0  0  0  0  0  0  0  0
   -2.4996   -0.6544    0.1452 C   0  0  0  0  0  0  0  0  0  0  0  0
   -1.3354   -1.3858   -0.0896 C   0  0  0  0  0  0  0  0  0  0  0  0
    2.7115   -2.0784    2.5184 O   0  0  0  0  0  0  0  0  0  0  0  0
    1.9156   -1.0142    1.9976 C   0  0  0  0  0  0  0  0  0  0  0  0
   -0.1202   -0.7167   -0.2479 C   0  0  0  0  0  0  0  0  0  0  0  0
   -3.6651    1.5078    0.4918 N   0  0  0  0  0  0  0  0  0  0  0  0
   -3.5773    2.7411    0.5547 O   0  0  0  0  0  0  0  0  0  0  0  0
   -0.0580    0.6884   -0.1898 C   0  0  0  0  0  0  0  0  0  0  0  0
    2.3922    0.6937    0.2693 N   0  0  0  0  0  0  0  0  0  0  0  0
  1  2  1  0
  1 11  1  0
  2 15  1  0
  2 10  1  1
  3 12  1  0
  4 14  1  0
  4 15  1  0
  5  6  1  0
  5 14  2  0
  6  7  2  0
  6 12  1  0
  7  8  1  0
  8 11  2  0
  9 10  1  0
 11 14  1  0
 12 13  2  0
M  CHG  2   3  -1  12   1
M  END
>  <DRUGBANK_ID>  (1) 
DB07906

>  <COMMON_NAME>  (1) 
[(3R)-7-NITRO-1,2,3,4-TETRAHYDROISOQUINOLIN-3-YL]METHANOL

$$$$
