
     RDKit          3D

  9  8  0  0  1  0  0  0  0  0999 V2000
    0.9792   -0.0163    0.0413 C   0  0  0  0  0  0  0  0  0  0  0  0
    0.5161    4.4141   -1.0589 C   0  0  0  0  0  0  0  0  0  0  0  0
    1.0267    4.4195   -2.5119 C   0  0  1  0  0  0  0  0  0  0  0  0
    0.5251    3.2192   -3.3208 C   0  0  0  0  0  0  0  0  0  0  0  0
    0.5626    5.6659   -3.1961 N   0  0  0  0  0  0  0  0  0  0  0  0
   -0.4069    3.2228   -4.1032 O   0  0  0  0  0  0  0  0  0  0  0  0
    1.2115    2.0888   -3.0649 O   0  0  0  0  0  0  0  0  0  0  0  0
   -0.0258    1.4069   -0.4881 S   0  0  0  0  0  0  0  0  0  0  0  0
    1.1109    3.0498    0.0443 S   0  0  0  0  0  0  0  0  0  0  0  0
  3  2  1  0
  3  5  1  6
  4  3  1  0
  6  4  2  0
  7  4  1  0
  8  1  1  0
  9  2  1  0
  9  8  1  0
M  END
>  <DRUGBANK_ID>  (1) 
DB02361

>  <SECONDARY_ACCESSION_NUMBERS>  (1) 
EXPT02865

>  <COMMON_NAME>  (1) 
S-Methyl Thiocysteine Group

$$$$
