
     RDKit          3D

 34 39  0  0  0  0  0  0  0  0999 V2000
    2.1707   -0.2118   -0.6881 O   0  0  0  0  0  0  0  0  0  0  0  0
    3.2878   -0.5186   -0.2614 C   0  0  0  0  0  0  0  0  0  0  0  0
    3.3453   -0.8866    1.0605 N   0  0  0  0  0  0  0  0  0  0  0  0
    4.5383   -0.6421    1.6923 C   0  0  0  0  0  0  0  0  0  0  0  0
    5.1601    0.6507    1.5618 C   0  0  0  0  0  0  0  0  0  0  0  0
    6.5532    0.6292    1.6348 C   0  0  0  0  0  0  0  0  0  0  0  0
    7.2573   -0.5964    1.8325 C   0  0  0  0  0  0  0  0  0  0  0  0
    6.6021   -1.8372    1.9299 C   0  0  0  0  0  0  0  0  0  0  0  0
    5.2306   -1.8631    1.8304 C   0  0  0  0  0  0  0  0  0  0  0  0
    4.4338    1.8573    1.0064 C   0  0  0  0  0  0  0  0  0  0  0  0
    4.7836    2.6446   -0.1071 C   0  0  0  0  0  0  0  0  0  0  0  0
    3.7452    3.5322   -0.3085 N   0  0  0  0  0  0  0  0  0  0  0  0
    3.4388    4.6524   -1.1114 C   0  0  0  0  0  0  0  0  0  0  0  0
    3.7564    4.8418   -2.5995 C   0  0  0  0  0  0  0  0  0  0  0  0
    2.7877    4.6235   -3.7895 N   0  0  0  0  0  0  0  0  0  0  0  0
    1.6897    5.6075   -3.7979 C   0  0  0  0  0  0  0  0  0  0  0  0
    0.6942    5.2380   -2.6823 C   0  0  0  0  0  0  0  0  0  0  0  0
    0.1812    3.8628   -2.5487 N   0  0  0  0  0  0  0  0  0  0  0  0
    1.2766    2.8902   -2.7656 C   0  0  0  0  0  0  0  0  0  0  0  0
    2.0531    3.3369   -4.0109 C   0  0  0  0  0  0  0  0  0  0  0  0
    2.6888    5.5080   -0.3811 C   0  0  0  0  0  0  0  0  0  0  0  0
    1.8937    4.7165    0.9983 S   0  0  0  0  0  0  0  0  0  0  0  0
    2.9378    3.3501    0.7780 C   0  0  0  0  0  0  0  0  0  0  0  0
    3.2373    2.3178    1.5254 N   0  0  0  0  0  0  0  0  0  0  0  0
    4.6711   -0.3718   -1.1520 C   0  0  0  0  0  0  0  0  0  0  0  0
    6.0956   -0.4877   -1.0562 C   0  0  0  0  0  0  0  0  0  0  0  0
    7.0728    0.1493   -1.8114 N   0  0  0  0  0  0  0  0  0  0  0  0
    6.5771    1.0650   -2.6184 C   0  0  0  0  0  0  0  0  0  0  0  0
    7.3065    2.1673   -3.0360 C   0  0  0  0  0  0  0  0  0  0  0  0
    6.6805    3.1034   -3.8500 C   0  0  0  0  0  0  0  0  0  0  0  0
    5.3617    2.9007   -4.2106 C   0  0  0  0  0  0  0  0  0  0  0  0
    4.6235    1.9518   -3.5442 C   0  0  0  0  0  0  0  0  0  0  0  0
    5.2163    1.0043   -2.8125 C   0  0  0  0  0  0  0  0  0  0  0  0
    4.2850    0.2921   -2.2161 N   0  0  0  0  0  0  0  0  0  0  0  0
  1  2  2  0
  2  3  1  0
  2 25  1  0
  3  4  1  0
  4  5  1  0
  4  9  2  0
  5  6  2  0
  5 10  1  0
  6  7  1  0
  7  8  2  0
  8  9  1  0
 10 11  2  0
 10 24  1  0
 11 12  1  0
 12 13  1  0
 12 23  1  0
 13 14  1  0
 13 21  2  0
 14 15  1  0
 15 16  1  0
 15 20  1  0
 16 17  1  0
 17 18  1  0
 18 19  1  0
 19 20  1  0
 21 22  1  0
 22 23  1  0
 23 24  2  0
 25 26  2  0
 25 34  1  0
 26 27  1  0
 27 28  2  0
 28 29  1  0
 28 33  1  0
 29 30  2  0
 30 31  1  0
 31 32  2  0
 32 33  1  0
 33 34  2  0
M  END
>  <DRUGBANK_ID>  (1) 
DB17057

>  <COMMON_NAME>  (1) 
SRT-1720

>  <CAS_NUMBER>  (1) 
925434-55-5

>  <UNII>  (1) 
DX3FHY76FZ

>  <SYNONYMS>  (1) 
2-quinoxalinecarboxamide, n-(2-(3-(1-piperazinylmethyl)imidazo(2,1-b)thiazol-6-yl)phenyl)-; N-(2-(3-(1-piperazinylmethyl)imidazo(2,1-b)thiazol-6-yl)phenyl)-2-quinoxalinecarboxamide

$$$$
