KI2
     RDKit          3D

 24 25  0  0  0  0  0  0  0  0999 V2000
    0.8594   -0.0209    0.0482 O   0  0  0  0  0  0  0  0  0  0  0  0
    3.4330    0.6925   -4.0299 C   0  0  0  0  0  0  0  0  0  0  0  0
    3.4107   -0.6101   -3.5360 C   0  0  0  0  0  0  0  0  0  0  0  0
    3.0872   -0.8485   -2.1955 C   0  0  0  0  0  0  0  0  0  0  0  0
    2.7991    0.2171   -1.3289 C   0  0  0  0  0  0  0  0  0  0  0  0
    2.8951    1.5260   -1.8244 C   0  0  0  0  0  0  0  0  0  0  0  0
    3.1649    1.7594   -3.1758 C   0  0  0  0  0  0  0  0  0  0  0  0
    0.2480   -0.2214    1.2429 C   0  0  0  0  0  0  0  0  0  0  0  0
    0.8217   -0.4094    2.3012 O   0  0  0  0  0  0  0  0  0  0  0  0
   -1.1224   -0.1927    1.1697 N   0  0  0  0  0  0  0  0  0  0  0  0
   -1.9531    0.0273   -0.0347 C   0  0  1  0  0  0  0  0  0  0  0  0
   -2.9199   -1.1764   -0.2673 C   0  0  0  0  0  0  0  0  0  0  0  0
   -3.9107   -1.4466    0.8519 C   0  0  0  0  0  0  0  0  0  0  0  0
   -4.1103   -2.7466    1.3147 C   0  0  0  0  0  0  0  0  0  0  0  0
   -4.9054   -2.9760    2.4432 C   0  0  0  0  0  0  0  0  0  0  0  0
   -5.4446   -1.9099    3.1634 C   0  0  0  0  0  0  0  0  0  0  0  0
   -5.2728   -0.6223    2.7017 C   0  0  0  0  0  0  0  0  0  0  0  0
   -4.6485   -0.4358    1.4791 C   0  0  0  0  0  0  0  0  0  0  0  0
    2.2991   -0.0303    0.0795 C   0  0  0  0  0  0  0  0  0  0  0  0
   -2.6655    1.3993    0.0287 C   0  0  1  0  0  0  0  0  0  0  0  0
   -1.7393    2.4538    0.2607 O   0  0  0  0  0  0  0  0  0  0  0  0
   -3.5557    1.5725   -1.2093 C   0  0  0  0  0  0  0  0  0  0  0  0
   -4.7769    1.5269   -1.2349 O   0  0  0  0  0  0  0  0  0  0  0  0
   -2.8561    1.6986   -2.3532 O   0  0  0  0  0  0  0  0  0  0  0  0
  1  8  1  0
  1 19  1  0
  2  3  2  0
  2  7  1  0
  3  4  1  0
  4  5  2  0
  5  6  1  0
  5 19  1  0
  6  7  2  0
  8  9  2  0
  8 10  1  0
 11 10  1  0
 11 12  1  1
 11 20  1  0
 12 13  1  0
 13 14  2  0
 13 18  1  0
 14 15  1  0
 15 16  2  0
 16 17  1  0
 17 18  2  0
 20 21  1  6
 20 22  1  0
 22 23  2  0
 22 24  1  0
M  END
>  <DRUGBANK_ID>  (1) 
DB08041

>  <COMMON_NAME>  (1) 
3-BENZYLOXYCARBONYLAMINO-2-HYDROXY-4-PHENYL-BUTYRIC ACID

$$$$
