FSN
     RDKit          3D

 30 34  0  0  0  0  0  0  0  0999 V2000
    2.2948    1.9493    0.1199 O   0  0  0  0  0  0  0  0  0  0  0  0
    1.7575    0.8670   -0.0785 C   0  0  0  0  0  0  0  0  0  0  0  0
    2.1524   -0.3499    0.3733 N   0  0  0  0  0  0  0  0  0  0  0  0
    3.2894   -0.5604    1.2621 C   0  0  0  0  0  0  0  0  0  0  0  0
    4.6153   -0.2334    0.6025 C   0  0  0  0  0  0  0  0  0  0  0  0
    4.9235    1.0797    0.2048 C   0  0  0  0  0  0  0  0  0  0  0  0
    6.0529    1.3822   -0.5405 C   0  0  0  0  0  0  0  0  0  0  0  0
    6.9708    0.3822   -0.7796 C   0  0  0  0  0  0  0  0  0  0  0  0
    8.0931    0.6770   -1.4449 F   0  0  0  0  0  0  0  0  0  0  0  0
    6.7537   -0.9105   -0.3113 C   0  0  0  0  0  0  0  0  0  0  0  0
    5.5669   -1.2279    0.3595 C   0  0  0  0  0  0  0  0  0  0  0  0
    1.2692   -1.3306    0.0196 C   0  0  0  0  0  0  0  0  0  0  0  0
    1.3227   -2.5056    0.3343 O   0  0  0  0  0  0  0  0  0  0  0  0
    0.1533   -0.7256   -0.8051 C   0  0  1  0  0  0  0  0  0  0  0  0
   -1.1562   -0.7783   -0.0340 C   0  0  1  0  0  0  0  0  0  0  0  0
   -1.1896    0.4995    0.7124 N   0  0  0  0  0  0  0  0  0  0  0  0
   -2.5987    0.7214    1.0434 C   0  0  0  0  0  0  0  0  0  0  0  0
   -3.4179    0.0692   -0.0543 C   0  0  0  0  0  0  0  0  0  0  0  0
   -2.4292   -0.7463   -0.8806 C   0  0  0  0  0  0  0  0  0  0  0  0
   -0.6362    1.5104   -0.2140 C   0  0  1  0  0  0  0  0  0  0  0  0
   -0.3055    2.8555    0.4090 C   0  0  0  0  0  0  0  0  0  0  0  0
    0.2655    3.8560   -0.3873 C   0  0  0  0  0  0  0  0  0  0  0  0
    0.4930    5.1374    0.1162 C   0  0  0  0  0  0  0  0  0  0  0  0
    0.1256    5.4777    1.4278 C   0  0  0  0  0  0  0  0  0  0  0  0
   -0.4680    4.4698    2.2078 C   0  0  0  0  0  0  0  0  0  0  0  0
   -0.5999    3.1651    1.7362 C   0  0  0  0  0  0  0  0  0  0  0  0
    0.3993    6.8226    1.9897 C   0  0  0  0  0  0  0  0  0  0  0  0
    0.0544    7.1121    3.2285 N   0  0  0  0  0  0  0  0  0  0  0  0
    1.0178    7.7446    1.2788 N   0  0  0  0  0  0  0  0  0  0  0  0
    0.5109    0.7526   -0.8846 C   0  0  1  0  0  0  0  0  0  0  0  0
  1  2  2  0
  2  3  1  0
 30  2  1  1
  3  4  1  0
  3 12  1  0
  4  5  1  0
  5  6  2  0
  5 11  1  0
  6  7  1  0
  7  8  2  0
  8  9  1  0
  8 10  1  0
 10 11  2  0
 12 13  2  0
 14 12  1  1
 14 15  1  0
 14 30  1  0
 15 16  1  0
 15 19  1  6
 16 17  1  0
 16 20  1  0
 17 18  1  0
 18 19  1  0
 20 21  1  1
 20 30  1  0
 21 22  2  0
 21 26  1  0
 22 23  1  0
 23 24  2  0
 24 25  1  0
 24 27  1  0
 25 26  2  0
 27 28  2  0
 27 29  1  0
M  CHG  1  28   1
M  END
>  <DRUGBANK_ID>  (1) 
DB07796

>  <COMMON_NAME>  (1) 
(3ASR,4RS,8ASR,8BRS)-4-(2-(4-FLUOROBENZYL)-1,3-DIOXODEACAHYDROPYRROLO[3,4-A] PYRROLIZIN-4-YL)BENZAMIDINE

$$$$
