
     RDKit          3D

 26 29  0  0  1  0  0  0  0  0999 V2000
    3.5220    4.5997   -3.5763 C   0  0  0  0  0  0  0  0  0  0  0  0
    6.0421    4.0937    2.1593 C   0  0  0  0  0  0  0  0  0  0  0  0
    9.0063    3.2186   -0.6990 C   0  0  0  0  0  0  0  0  0  0  0  0
    3.8147    5.6071    0.7564 C   0  0  0  0  0  0  0  0  0  0  0  0
    7.8223    0.2420    1.2449 C   0  0  0  0  0  0  0  0  0  0  0  0
    1.1620    2.8672    0.8759 C   0  0  0  0  0  0  0  0  0  0  0  0
    4.0962    2.2649    2.0129 C   0  0  0  0  0  0  0  0  0  0  0  0
    1.9010    4.1204    1.3047 C   0  0  0  0  0  0  0  0  0  0  0  0
    5.3883    1.1807    2.2622 C   0  0  0  0  0  0  0  0  0  0  0  0
    4.9867    3.7664   -1.9211 C   0  0  0  0  0  0  0  0  0  0  0  0
    5.5596    1.5662    0.2013 C   0  0  0  0  0  0  0  0  0  0  0  0
    1.3719    4.2100   -1.3436 C   0  0  0  0  0  0  0  0  0  0  0  0
    3.7496    4.2495   -2.1512 C   0  0  0  0  0  0  0  0  0  0  0  0
    6.3712    3.0269    1.3737 C   0  0  0  0  0  0  0  0  0  0  0  0
    8.9723    3.2083    0.8136 C   0  0  0  0  0  0  0  0  0  0  0  0
    0.5403    3.3193   -0.4227 C   0  0  0  0  0  0  0  0  0  0  0  0
    5.4287    3.4207   -0.5700 C   0  0  1  0  0  0  0  0  0  0  0  0
    3.9808    3.0488    0.4640 C   0  0  2  0  0  0  0  0  0  0  0  0
    2.6946    4.3084   -1.0985 C   0  0  0  0  0  0  0  0  0  0  0  0
    6.6418    2.1982   -0.3720 C   0  0  1  0  0  0  0  0  0  0  0  0
    3.1209    4.2821    0.3776 C   0  0  2  0  0  0  0  0  0  0  0  0
    7.0052    1.5008    1.2485 C   0  0  2  0  0  0  0  0  0  0  0  0
    7.7651    2.6662    1.6600 C   0  0  2  0  0  0  0  0  0  0  0  0
    9.9897    3.5971    1.4090 O   0  0  0  0  0  0  0  0  0  0  0  0
   -0.5592    2.9074   -0.7781 O   0  0  0  0  0  0  0  0  0  0  0  0
    8.0165    2.6914    3.0502 O   0  0  0  0  0  0  0  0  0  0  0  0
  8  6  1  0
  9  7  1  0
 13 10  2  0
 13  1  1  0
 14 11  1  0
 14  2  2  0
 15  3  1  0
 16  6  1  0
 16 12  1  0
 17 10  1  6
 18  7  1  1
 18 17  1  0
 19 12  2  0
 19 13  1  0
 20 11  1  6
 20 17  1  0
 21  8  1  0
 21 18  1  0
 21 19  1  0
 21  4  1  1
 22  9  1  0
 22 20  1  0
 22  5  1  6
 23 14  1  0
 23 22  1  0
 23 26  1  1
 23 15  1  0
 24 15  2  0
 25 16  2  0
M  END
>  <DRUGBANK_ID>  (1) 
DB11529

>  <COMMON_NAME>  (1) 
Melengestrol

>  <CAS_NUMBER>  (1) 
5633-18-1

>  <UNII>  (1) 
BX98J4T6JU

>  <SYNONYMS>  (1) 
Melengesterol; Melengestrel; Melengestrol; Melengestrolo; Melengestrolum

$$$$
