
     RDKit          3D

 35 39  0  0  0  0  0  0  0  0999 V2000
    2.4429    0.0018    0.0584 C   0  0  0  0  0  0  0  0  0  0  0  0
    1.0304   -0.0042   -0.2989 N   0  0  0  0  0  0  0  0  0  0  0  0
    0.3499   -1.2030    0.2453 C   0  0  0  0  0  0  0  0  0  0  0  0
   -1.1303   -1.2596   -0.1905 C   0  0  0  0  0  0  0  0  0  0  0  0
   -1.8084   -0.0231    0.1953 N   0  0  0  0  0  0  0  0  0  0  0  0
   -1.1562    1.2324   -0.1935 C   0  0  0  0  0  0  0  0  0  0  0  0
    0.3364    1.1950    0.2284 C   0  0  0  0  0  0  0  0  0  0  0  0
   -3.0542   -0.0326    0.7709 C   0  0  0  0  0  0  0  0  0  0  0  0
   -3.2633   -0.6543    2.0093 C   0  0  0  0  0  0  0  0  0  0  0  0
   -4.4937   -0.5737    2.6804 C   0  0  0  0  0  0  0  0  0  0  0  0
   -5.5607    0.1180    2.1116 C   0  0  0  0  0  0  0  0  0  0  0  0
   -6.7779    0.2689    2.7917 N   0  0  0  0  0  0  0  0  0  0  0  0
   -7.9666    0.7324    2.2344 C   0  0  0  0  0  0  0  0  0  0  0  0
   -8.2574    0.3266    1.0012 N   0  0  0  0  0  0  0  0  0  0  0  0
   -9.2810    0.8655    0.3317 C   0  0  0  0  0  0  0  0  0  0  0  0
   -9.4789    0.4495   -0.9713 O   0  0  0  0  0  0  0  0  0  0  0  0
   -8.6282   -0.5349   -1.4546 C   0  0  0  0  0  0  0  0  0  0  0  0
   -8.8137   -1.8731   -1.1595 C   0  0  0  0  0  0  0  0  0  0  0  0
   -8.1386   -2.8215   -1.9340 C   0  0  0  0  0  0  0  0  0  0  0  0
   -7.5084   -2.4367   -3.1323 C   0  0  0  0  0  0  0  0  0  0  0  0
   -7.4619   -1.0874   -3.4755 C   0  0  0  0  0  0  0  0  0  0  0  0
   -7.2520   -0.6821   -4.8185 N   0  0  0  0  0  0  0  0  0  0  0  0
   -7.5267    0.4976   -5.4941 C   0  0  0  0  0  0  0  0  0  0  0  0
   -7.2009    0.6065   -6.6680 O   0  0  0  0  0  0  0  0  0  0  0  0
   -8.1418    1.6966   -4.8392 C   0  0  0  0  0  0  0  0  0  0  0  0
   -9.1040    1.7035   -3.9120 C   0  0  0  0  0  0  0  0  0  0  0  0
   -7.7381   -0.1852   -2.4642 C   0  0  0  0  0  0  0  0  0  0  0  0
  -10.0497    1.8481    0.9475 C   0  0  0  0  0  0  0  0  0  0  0  0
  -11.4112    2.7591    0.4204 S   0  0  0  0  0  0  0  0  0  0  0  0
  -11.5180    3.6117    1.9049 C   0  0  0  0  0  0  0  0  0  0  0  0
  -10.5247    3.2349    2.7786 C   0  0  0  0  0  0  0  0  0  0  0  0
   -9.6996    2.1997    2.2498 C   0  0  0  0  0  0  0  0  0  0  0  0
   -8.6771    1.6210    2.9220 N   0  0  0  0  0  0  0  0  0  0  0  0
   -5.3377    0.7525    0.8796 C   0  0  0  0  0  0  0  0  0  0  0  0
   -4.1271    0.6402    0.1981 C   0  0  0  0  0  0  0  0  0  0  0  0
  1  2  1  0
  2  3  1  0
  2  7  1  0
  3  4  1  0
  4  5  1  0
  5  6  1  0
  5  8  1  0
  6  7  1  0
  8  9  2  0
  8 35  1  0
  9 10  1  0
 10 11  2  0
 11 12  1  0
 11 34  1  0
 12 13  1  0
 13 14  2  0
 13 33  1  0
 14 15  1  0
 15 16  1  0
 15 28  2  0
 16 17  1  0
 17 18  2  0
 17 27  1  0
 18 19  1  0
 19 20  2  0
 20 21  1  0
 21 22  1  0
 21 27  2  0
 22 23  1  0
 23 24  2  0
 23 25  1  0
 25 26  2  0
 28 29  1  0
 28 32  1  0
 29 30  1  0
 30 31  2  0
 31 32  1  0
 32 33  2  0
 34 35  2  0
M  END
>  <DRUGBANK_ID>  (1) 
DB13164

>  <COMMON_NAME>  (1) 
Olmutinib

>  <CAS_NUMBER>  (1) 
1353550-13-6

>  <UNII>  (1) 
CHL9B67L95

>  <SYNONYMS>  (1) 
Olmutinib

$$$$
