
     RDKit          3D

 29 31  0  0  0  0  0  0  0  0999 V2000
    2.1918    0.0036   -0.0132 F   0  0  0  0  0  0  0  0  0  0  0  0
   -1.9983    3.6127   -1.1484 O   0  0  0  0  0  0  0  0  0  0  0  0
    1.0424    4.6079   -0.0554 O   0  0  0  0  0  0  0  0  0  0  0  0
   -1.3295   -3.7775    0.0413 O   0  0  0  0  0  0  0  0  0  0  0  0
   -3.2233   -2.5768    0.0398 O   0  0  0  0  0  0  0  0  0  0  0  0
    0.8002    2.3815   -0.4001 N   0  0  0  0  0  0  0  0  0  0  0  0
   -3.5151    4.0726    4.5147 C   0  0  0  0  0  0  0  0  0  0  0  0
   -3.0530    1.0300    4.9053 C   0  0  0  0  0  0  0  0  0  0  0  0
   -3.7113    3.3651    5.8644 C   0  0  0  0  0  0  0  0  0  0  0  0
   -3.8559    1.8577    5.9032 C   0  0  0  0  0  0  0  0  0  0  0  0
   -2.8799    3.2016    3.4694 C   0  0  0  0  0  0  0  0  0  0  0  0
   -2.6386    1.8365    3.7024 C   0  0  0  0  0  0  0  0  0  0  0  0
   -4.8562    4.5630    3.9488 C   0  0  0  0  0  0  0  0  0  0  0  0
   -2.5705    5.2645    4.8157 C   0  0  0  0  0  0  0  0  0  0  0  0
   -3.9683   -0.1319    4.4403 C   0  0  0  0  0  0  0  0  0  0  0  0
   -1.8137    0.4043    5.6095 C   0  0  0  0  0  0  0  0  0  0  0  0
   -2.5062    3.8263    2.2418 C   0  0  0  0  0  0  0  0  0  0  0  0
   -1.8762    1.1807    2.7863 C   0  0  0  0  0  0  0  0  0  0  0  0
   -1.7096    3.1766    1.3378 C   0  0  0  0  0  0  0  0  0  0  0  0
   -1.2966    1.9216    1.7918 C   0  0  0  0  0  0  0  0  0  0  0  0
   -1.2363    3.8648    0.0419 C   0  0  1  0  0  0  0  0  0  0  0  0
    0.2748    3.6430   -0.1585 C   0  0  0  0  0  0  0  0  0  0  0  0
    0.1680    1.1006   -0.5959 C   0  0  0  0  0  0  0  0  0  0  0  0
    0.8806   -0.0659   -0.2937 C   0  0  0  0  0  0  0  0  0  0  0  0
   -1.2154    0.9230   -0.7535 C   0  0  0  0  0  0  0  0  0  0  0  0
    0.2273   -1.3074   -0.1172 C   0  0  0  0  0  0  0  0  0  0  0  0
   -1.8845   -0.2564   -0.4398 C   0  0  0  0  0  0  0  0  0  0  0  0
   -1.1710   -1.4036   -0.1789 C   0  0  0  0  0  0  0  0  0  0  0  0
   -2.0171   -2.6192   -0.0020 C   0  0  0  0  0  0  0  0  0  0  0  0
  1 24  1  0
  3 22  2  0
  4 29  1  0
  5 29  2  0
  6 22  1  0
  6 23  1  0
  7  9  1  0
  7 11  1  0
  7 13  1  0
  7 14  1  0
  8 10  1  0
  8 12  1  0
  8 15  1  0
  8 16  1  0
  9 10  1  0
 11 12  2  0
 11 17  1  0
 12 18  1  0
 17 19  2  0
 18 20  2  0
 19 20  1  0
 19 21  1  0
 21  2  1  6
 21 22  1  0
 23 24  2  0
 23 25  1  0
 24 26  1  0
 25 27  2  0
 26 28  2  0
 27 28  1  0
 28 29  1  0
M  END
>  <DRUGBANK_ID>  (1) 
DB07294

>  <COMMON_NAME>  (1) 
3-fluoro-4-[2-hydroxy-2-(5,5,8,8-tetramethyl-5,6,7,8,-tetrahydro-naphtalen-2-yl)-acetylamino]-benzoic acid

$$$$
