461
     RDKit          3D

 17 18  0  0  0  0  0  0  0  0999 V2000
    0.8981   -0.0051   -0.0432 O   0  0  0  0  0  0  0  0  0  0  0  0
   -1.7048   -0.7634   -8.7014 O   0  0  0  0  0  0  0  0  0  0  0  0
   -3.1771    0.6029   -4.9547 C   0  0  0  0  0  0  0  0  0  0  0  0
   -3.7829    0.6021   -6.3397 C   0  0  0  0  0  0  0  0  0  0  0  0
   -1.3828   -0.2694   -3.5213 C   0  0  0  0  0  0  0  0  0  0  0  0
   -1.6385    0.7313   -2.5771 C   0  0  0  0  0  0  0  0  0  0  0  0
   -2.2787   -0.4094   -4.6013 C   0  0  0  0  0  0  0  0  0  0  0  0
   -2.8098    0.9802   -7.4729 C   0  0  0  0  0  0  0  0  0  0  0  0
   -3.4157    1.6117   -4.0252 C   0  0  0  0  0  0  0  0  0  0  0  0
   -2.6870    1.6423   -2.8258 C   0  0  0  0  0  0  0  0  0  0  0  0
   -0.2167   -1.0609   -3.3881 C   0  0  0  0  0  0  0  0  0  0  0  0
   -0.8376    0.7760   -1.4195 C   0  0  0  0  0  0  0  0  0  0  0  0
    0.2706   -0.0661   -1.2570 C   0  0  0  0  0  0  0  0  0  0  0  0
    0.6089   -0.9585   -2.2659 C   0  0  0  0  0  0  0  0  0  0  0  0
   -1.6474    0.0312   -7.7453 C   0  0  0  0  0  0  0  0  0  0  0  0
   -0.3922    0.0855   -6.9085 C   0  0  0  0  0  0  0  0  0  0  0  0
    2.3199   -0.0681   -0.0817 C   0  0  0  0  0  0  0  0  0  0  0  0
  1 13  1  0
  1 17  1  0
  2 15  2  0
  3  4  1  0
  3  7  2  0
  3  9  1  0
  4  8  1  0
  5  6  2  0
  5  7  1  0
  5 11  1  0
  6 10  1  0
  6 12  1  0
  8 15  1  0
  9 10  2  0
 11 14  2  0
 12 13  2  0
 13 14  1  0
 15 16  1  0
M  END
>  <DRUGBANK_ID>  (1) 
DB00461

>  <SECONDARY_ACCESSION_NUMBERS>  (1) 
APRD01128

>  <COMMON_NAME>  (1) 
Nabumetone

>  <CAS_NUMBER>  (1) 
42924-53-8

>  <UNII>  (1) 
LW0TIW155Z

>  <SYNONYMS>  (1) 
4-(6-Methoxy-2-naphthalenyl)-2-butanone; 4-(6-Methoxy-2-naphthyl)-2-butanone; Nabumeton; Nabumetona; Nabum√©tone; Nabumetone; Nabumetonum

$$$$
