
     RDKit          3D

 23 26  0  0  0  0  0  0  0  0999 V2000
    2.0655   -0.7717    1.6346 C   0  0  0  0  0  0  0  0  0  0  0  0
    2.3568   -1.4518    3.5931 C   0  0  1  0  0  0  0  0  0  0  0  0
    1.2481   -2.6955    3.7110 C   0  0  1  0  0  0  0  0  0  0  0  0
    1.8007   -2.4742    2.4154 C   0  0  0  0  0  0  0  0  0  0  0  0
    0.7912   -0.8289    2.4220 C   0  0  1  0  0  0  0  0  0  0  0  0
    0.6238   -1.1817    1.0199 C   0  0  0  0  0  0  0  0  0  0  0  0
    3.3045   -2.6110    4.8253 C   0  0  1  0  0  0  0  0  0  0  0  0
    3.3500   -4.3165    4.6372 C   0  0  1  0  0  0  0  0  0  0  0  0
    2.6578   -4.7871    3.4164 C   0  0  0  0  0  0  0  0  0  0  0  0
    1.2795   -4.2121    3.5362 C   0  0  0  0  0  0  0  0  0  0  0  0
    4.8619   -3.8959    6.4631 C   0  0  0  0  0  0  0  0  0  0  0  0
    5.8506   -4.6917    5.7792 C   0  0  0  0  0  0  0  0  0  0  0  0
    4.9442   -5.0814    4.5979 C   0  0  2  0  0  0  0  0  0  0  0  0
    4.7351   -2.6484    5.0252 C   0  0  0  0  0  0  0  0  0  0  0  0
   -0.2337   -2.2685    3.9468 C   0  0  0  0  0  0  0  0  0  0  0  0
   -0.3320   -0.9378    3.3446 C   0  0  0  0  0  0  0  0  0  0  0  0
   -1.1306   -0.0441    3.5628 O   0  0  0  0  0  0  0  0  0  0  0  0
    1.6856    0.8430    2.8753 C   0  0  0  0  0  0  0  0  0  0  0  0
    3.5671   -1.8765    6.4595 C   0  0  0  0  0  0  0  0  0  0  0  0
    5.7635   -4.6836    3.3588 C   0  0  0  0  0  0  0  0  0  0  0  0
    4.7821   -6.5914    4.6451 C   0  0  0  0  0  0  0  0  0  0  0  0
    5.5023   -7.4007    4.0839 O   0  0  0  0  0  0  0  0  0  0  0  0
    3.7240   -6.9924    5.3791 O   0  0  0  0  0  0  0  0  0  0  0  0
  2  1  1  6
  1  6  1  0
  2  3  1  0
  3 15  1  6
  3  4  1  0
  5  6  1  0
  5 16  1  0
  5 18  1  6
  5  4  1  0
  7  8  1  0
  7 14  1  0
  7  2  1  0
  7 19  1  1
  8  9  1  6
  9 10  1  0
 10  3  1  0
 11 14  1  0
 11 12  1  0
 12 13  1  0
 13  8  1  0
 13 21  1  0
 13 20  1  6
 15 16  1  0
 16 17  2  0
 21 22  2  0
 21 23  1  0
M  END
>  <DRUGBANK_ID>  (1) 
DB16870

>  <COMMON_NAME>  (1) 
Isosteviol

>  <CAS_NUMBER>  (1) 
27975-19-5

>  <UNII>  (1) 
091QB7QO95

>  <SYNONYMS>  (1) 
Iso-steviol; Ketoisostevic acid

$$$$
