CBP
     RDKit          3D

 28 30  0  0  0  0  0  0  0  0999 V2000
    0.8754    0.5397    0.2614 O   0  0  0  0  0  0  0  0  0  0  0  0
    0.6322   -0.0686    1.5003 N   0  0  0  0  0  0  0  0  0  0  0  0
    1.5671   -0.5936    2.3440 C   0  0  0  0  0  0  0  0  0  0  0  0
    1.1957   -1.1002    3.4043 O   0  0  0  0  0  0  0  0  0  0  0  0
    3.0527   -0.6062    1.9477 C   0  0  0  0  0  0  0  0  0  0  0  0
    3.4484   -1.6742    0.8456 C   0  0  0  0  0  0  0  0  0  0  0  0
    2.3460   -1.7463   -0.2150 C   0  0  0  0  0  0  0  0  0  0  0  0
    2.2481   -2.9840   -1.0467 C   0  0  0  0  0  0  0  0  0  0  0  0
    2.3651   -4.1458   -0.2555 O   0  0  0  0  0  0  0  0  0  0  0  0
    3.5827   -4.1780    0.4867 C   0  0  0  0  0  0  0  0  0  0  0  0
    3.6092   -3.0539    1.5109 C   0  0  0  0  0  0  0  0  0  0  0  0
    5.0498   -1.1109    0.0772 S   0  0  0  0  0  0  0  0  0  0  0  0
    4.8042    0.1664   -0.5522 O   0  0  0  0  0  0  0  0  0  0  0  0
    6.0853   -1.2236    1.1000 O   0  0  0  0  0  0  0  0  0  0  0  0
    5.5576   -2.2188   -1.2569 C   0  0  0  0  0  0  0  0  0  0  0  0
    4.8619   -2.2265   -2.4640 C   0  0  0  0  0  0  0  0  0  0  0  0
    4.9645   -3.3424   -3.3077 C   0  0  0  0  0  0  0  0  0  0  0  0
    5.9889   -4.2693   -3.1502 C   0  0  0  0  0  0  0  0  0  0  0  0
    6.8737   -4.0891   -2.0797 C   0  0  0  0  0  0  0  0  0  0  0  0
    6.6122   -3.1213   -1.0884 C   0  0  0  0  0  0  0  0  0  0  0  0
    6.1716   -5.3873   -3.9419 O   0  0  0  0  0  0  0  0  0  0  0  0
    5.3514   -5.6046   -5.0324 C   0  0  0  0  0  0  0  0  0  0  0  0
    5.1672   -4.6486   -6.0383 C   0  0  0  0  0  0  0  0  0  0  0  0
    4.3218   -4.9120   -7.1186 C   0  0  0  0  0  0  0  0  0  0  0  0
    3.7317   -6.1670   -7.2419 C   0  0  0  0  0  0  0  0  0  0  0  0
    3.9818   -7.1582   -6.2935 C   0  0  0  0  0  0  0  0  0  0  0  0
    4.7581   -6.8640   -5.1650 C   0  0  0  0  0  0  0  0  0  0  0  0
    2.6644   -6.4819   -8.5542 Cl  0  0  0  0  0  0  0  0  0  0  0  0
  1  2  1  0
  2  3  1  0
  3  4  2  0
  3  5  1  0
  5  6  1  0
  6  7  1  0
  6 11  1  0
  6 12  1  0
  7  8  1  0
  8  9  1  0
  9 10  1  0
 10 11  1  0
 12 13  2  0
 12 14  2  0
 12 15  1  0
 15 16  2  0
 15 20  1  0
 16 17  1  0
 17 18  2  0
 18 19  1  0
 18 21  1  0
 19 20  2  0
 21 22  1  0
 22 23  2  0
 22 27  1  0
 23 24  1  0
 24 25  2  0
 25 26  1  0
 25 28  1  0
 26 27  2  0
M  END
>  <DRUGBANK_ID>  (1) 
DB02049

>  <SECONDARY_ACCESSION_NUMBERS>  (1) 
EXPT00849

>  <COMMON_NAME>  (1) 
2-{4-[4-(4-Chloro-Phenoxy)-Benzenesulfonyl]-Tetrahydro-Pyran-4-Yl}-N-Hydroxy-Acetamide

$$$$
