1057
     RDKit          3D

 15 14  0  0  0  0  0  0  0  0999 V2000
    1.0299    0.0930    0.0216 S   0  0  0  0  0  0  0  0  0  0  0  0
    0.3232   -0.9384    1.7338 P   0  0  0  0  0  0  0  0  0  0  0  0
    1.5174   -0.1831    2.6108 O   0  0  0  0  0  0  0  0  0  0  0  0
   -0.9296    0.1532    1.8882 O   0  0  0  0  0  0  0  0  0  0  0  0
   -0.1929   -1.6916    2.9842 O   0  0  0  0  0  0  0  0  0  0  0  0
    2.9691    2.4112   -1.3247 N   0  0  0  0  0  0  0  0  0  0  0  0
    3.3339    0.9010   -1.3234 C   0  0  0  0  0  0  0  0  0  0  0  0
    3.4491    3.0908   -0.0444 C   0  0  0  0  0  0  0  0  0  0  0  0
    3.6222    3.0588   -2.5375 C   0  0  0  0  0  0  0  0  0  0  0  0
    1.4809    2.6676   -1.4941 C   0  0  0  0  0  0  0  0  0  0  0  0
    2.8182    0.0924   -0.1230 C   0  0  0  0  0  0  0  0  0  0  0  0
    2.6864   -0.9465    2.9187 C   0  0  0  0  0  0  0  0  0  0  0  0
   -1.5534    0.9087    0.8607 C   0  0  0  0  0  0  0  0  0  0  0  0
    2.4687   -2.3253    3.5085 C   0  0  0  0  0  0  0  0  0  0  0  0
   -0.9729    2.3067    0.9901 C   0  0  0  0  0  0  0  0  0  0  0  0
  1  2  1  0
  1 11  1  0
  2  3  1  0
  2  4  1  0
  2  5  2  0
  3 12  1  0
  4 13  1  0
  6  7  1  0
  6  8  1  0
  6  9  1  0
  6 10  1  0
  7 11  1  0
 12 14  1  0
 13 15  1  0
M  CHG  1   6   1
M  END
>  <DRUGBANK_ID>  (1) 
DB01057

>  <SECONDARY_ACCESSION_NUMBERS>  (1) 
APRD00942

>  <COMMON_NAME>  (1) 
Echothiophate

>  <CAS_NUMBER>  (1) 
6736-03-4

>  <UNII>  (1) 
0F350BVT6S

>  <SYNONYMS>  (1) 
2-(Diethoxyphosphorylsulfanyl)ethyl-N,N,N-trimethylazanium iodide; Echothiophate; Ecothiopate; Ecothiopatum; Phospholine

$$$$
