
     RDKit          3D

 33 36  0  0  0  0  0  0  0  0999 V2000
    0.9981   -0.0512   -0.0934 C   0  0  0  0  0  0  0  0  0  0  0  0
    0.4061   -1.3386   -0.3961 N   0  0  0  0  0  0  0  0  0  0  0  0
   -0.3947   -2.1185    0.4215 C   0  0  0  0  0  0  0  0  0  0  0  0
   -0.7588   -3.2298    0.0471 O   0  0  0  0  0  0  0  0  0  0  0  0
   -0.7687   -1.6087    1.7817 C   0  0  0  0  0  0  0  0  0  0  0  0
   -0.5790   -2.3538    2.9518 C   0  0  0  0  0  0  0  0  0  0  0  0
   -0.8085   -1.7567    4.2549 C   0  0  0  0  0  0  0  0  0  0  0  0
   -1.2485   -0.4092    4.4065 C   0  0  0  0  0  0  0  0  0  0  0  0
   -1.4659    0.2664    3.1998 C   0  0  0  0  0  0  0  0  0  0  0  0
   -1.2758   -0.3251    1.9339 C   0  0  0  0  0  0  0  0  0  0  0  0
   -1.5445    0.4253    0.8534 F   0  0  0  0  0  0  0  0  0  0  0  0
   -1.6444    0.2943    5.6424 N   0  0  0  0  0  0  0  0  0  0  0  0
   -2.9798    0.2990    6.1832 C   0  0  0  0  0  0  0  0  0  0  0  0
   -4.2738    0.8559    5.2793 S   0  0  0  0  0  0  0  0  0  0  0  0
   -2.8533    0.1024    7.6390 N   0  0  0  0  0  0  0  0  0  0  0  0
   -1.4948   -0.0530    7.9976 C   0  0  0  0  0  0  0  0  0  0  0  0
   -1.0657   -0.5114    9.0447 O   0  0  0  0  0  0  0  0  0  0  0  0
   -0.7902    0.7521    6.8050 C   0  0  0  0  0  0  0  0  0  0  0  0
   -1.2980    2.4099    7.5131 C   0  0  0  0  0  0  0  0  0  0  0  0
   -0.7285    2.8497    6.2434 C   0  0  0  0  0  0  0  0  0  0  0  0
    0.3475    1.7508    6.5432 C   0  0  0  0  0  0  0  0  0  0  0  0
   -3.7817    0.7463    8.5985 C   0  0  0  0  0  0  0  0  0  0  0  0
   -5.1001    0.3756    8.5694 C   0  0  0  0  0  0  0  0  0  0  0  0
   -6.0182    0.9341    9.4866 C   0  0  0  0  0  0  0  0  0  0  0  0
   -5.6317    1.9558   10.3464 C   0  0  0  0  0  0  0  0  0  0  0  0
   -4.3751    2.4085   10.3715 N   0  0  0  0  0  0  0  0  0  0  0  0
   -3.4918    1.7664    9.5670 C   0  0  0  0  0  0  0  0  0  0  0  0
   -6.4902    2.5734   11.3077 C   0  0  0  0  0  0  0  0  0  0  0  0
   -7.2209    3.0527   12.0944 N   0  0  0  0  0  0  0  0  0  0  0  0
   -7.3706    0.3298    9.5403 C   0  0  0  0  0  0  0  0  0  0  0  0
   -8.0124    0.4524    8.3525 F   0  0  0  0  0  0  0  0  0  0  0  0
   -7.2867   -1.0027    9.7991 F   0  0  0  0  0  0  0  0  0  0  0  0
   -8.1929    0.8425   10.4805 F   0  0  0  0  0  0  0  0  0  0  0  0
  1  2  1  0
  2  3  1  0
  3  4  2  0
  3  5  1  0
  5  6  2  0
  5 10  1  0
  6  7  1  0
  7  8  2  0
  8  9  1  0
  8 12  1  0
  9 10  2  0
 10 11  1  0
 12 13  1  0
 12 18  1  0
 13 14  2  0
 13 15  1  0
 15 16  1  0
 15 22  1  0
 16 17  2  0
 16 18  1  0
 18 19  1  0
 18 21  1  0
 19 20  1  0
 20 21  1  0
 22 23  2  0
 22 27  1  0
 23 24  1  0
 24 25  2  0
 24 30  1  0
 25 26  1  0
 25 28  1  0
 26 27  2  0
 28 29  3  0
 30 31  1  0
 30 32  1  0
 30 33  1  0
M  END
>  <DRUGBANK_ID>  (1) 
DB11901

>  <COMMON_NAME>  (1) 
Apalutamide

>  <CAS_NUMBER>  (1) 
956104-40-8

>  <UNII>  (1) 
4T36H88UA7

>  <SYNONYMS>  (1) 
Apalutamide

$$$$
