
     RDKit          3D

 11  9  0  0  0  0  0  0  0  0999 V2000
    0.9998   -0.0909    0.0417 C   0  0  0  0  0  0  0  0  0  0  0  0
    0.5265    1.1951   -0.3306 O   0  0  0  0  0  0  0  0  0  0  0  0
    0.3898   -1.3350   -1.1537 P   0  0  0  0  0  0  0  0  0  0  0  0
    1.8073   -1.4399   -1.7679 O   0  0  0  0  0  0  0  0  0  0  0  0
   -0.0643   -2.3705    0.1556 O   0  0  0  0  0  0  0  0  0  0  0  0
   -0.1869   -2.5111   -2.2838 O   0  0  0  0  0  0  0  0  0  0  0  0
    0.3898   -0.5041    1.7168 P   0  0  0  0  0  0  0  0  0  0  0  0
    0.0771   -1.9460    1.2473 O   0  0  0  0  0  0  0  0  0  0  0  0
    1.9443   -0.1270    2.3759 O   0  0  0  0  0  0  0  0  0  0  0  0
   -0.1868   -0.8947    3.3004 O   0  0  0  0  0  0  0  0  0  0  0  0
    0.9587    0.0895    0.0166 Tc  0  0  0  0  0 15  0  0  0  0  0  0
  1  2  1  0
  1  3  1  0
  1  7  1  0
  3  4  2  0
  3  5  1  0
  3  6  1  0
  7  8  2  0
  7  9  1  0
  7 10  1  0
M  ISO  1  11  99
M  END
>  <DRUGBANK_ID>  (1) 
DB09139

>  <COMMON_NAME>  (1) 
Technetium Tc-99m oxidronate

>  <CAS_NUMBER>  (1) 
72945-61-0

>  <UNII>  (1) 
MG4KI49HHJ

>  <SYNONYMS>  (1) 
99mtc-HDP; Oxidronic acid 99mtc-complex; Technetium (99mTc) oxidronate; Technetium 99mtc oxidronate; Technetium Tc 99m oxidronate

$$$$
