
     RDKit          3D

 31 34  0  0  0  0  0  0  0  0999 V2000
   -1.5098    0.0849    0.2254 C   0  0  0  0  0  0  0  0  0  0  0  0
   -0.6961    1.3540    0.4460 C   0  0  0  0  0  0  0  0  0  0  0  0
    0.8037    1.2859    0.0948 C   0  0  0  0  0  0  0  0  0  0  0  0
    1.4991    0.0925    0.6348 N   0  0  0  0  0  0  0  0  0  0  0  0
    0.8028   -1.1666    0.3041 C   0  0  2  0  0  0  0  0  0  0  0  0
   -0.7161   -1.1501    0.6671 C   0  0  0  0  0  0  0  0  0  0  0  0
    1.4577   -2.5472    0.4676 C   0  0  0  0  0  0  0  0  0  0  0  0
    0.7234   -3.6884   -0.3166 C   0  0  0  0  0  0  0  0  0  0  0  0
    0.7902   -3.6521   -1.8271 N   0  0  0  0  0  0  0  0  0  0  0  0
    0.1779   -2.7426   -2.4836 C   0  0  0  0  0  0  0  0  0  0  0  0
    0.1478   -2.5943   -4.0629 C   0  0  1  0  0  0  0  0  0  0  0  0
    0.5025   -1.1936   -4.4440 N   0  0  0  0  0  0  0  0  0  0  0  0
    0.6317   -0.8871   -5.8609 C   0  0  0  0  0  0  0  0  0  0  0  0
   -0.7473   -0.7849   -6.5053 C   0  0  0  0  0  0  0  0  0  0  0  0
   -1.6943    0.2746   -6.1878 N   0  0  0  0  0  0  0  0  0  0  0  0
   -3.1378   -0.0645   -6.3411 C   0  0  0  0  0  0  0  0  0  0  0  0
   -3.6671   -1.4016   -5.7799 C   0  0  0  0  0  0  0  0  0  0  0  0
   -4.7143   -1.4711   -4.8643 C   0  0  0  0  0  0  0  0  0  0  0  0
   -5.1157   -3.0592   -4.3887 S   0  0  0  0  0  0  0  0  0  0  0  0
   -3.8691   -3.7399   -5.3465 C   0  0  0  0  0  0  0  0  0  0  0  0
   -3.4997   -5.1015   -5.4300 C   0  0  0  0  0  0  0  0  0  0  0  0
   -2.3742   -5.4714   -6.1750 C   0  0  0  0  0  0  0  0  0  0  0  0
   -1.7118   -4.5298   -6.9242 C   0  0  0  0  0  0  0  0  0  0  0  0
   -2.2294   -3.2459   -7.0100 C   0  0  0  0  0  0  0  0  0  0  0  0
   -3.2266   -2.7644   -6.1129 C   0  0  0  0  0  0  0  0  0  0  0  0
   -0.2406   -4.8983   -7.7368 Cl  0  0  0  0  0  0  0  0  0  0  0  0
   -0.1857   -0.1137   -3.7337 C   0  0  2  0  0  0  0  0  0  0  0  0
    0.1320   -0.3655   -2.3437 C   0  0  0  0  0  0  0  0  0  0  0  0
   -0.4471   -1.6719   -1.8993 N   0  0  0  0  0  0  0  0  0  0  0  0
   -1.9782   -0.0672   -3.5299 Cl  0  0  0  0  0  0  0  0  0  0  0  0
    0.9894   -3.5235   -4.6916 O   0  0  0  0  0  0  0  0  0  0  0  0
  1  2  1  0
  1  6  1  0
  2  3  1  0
  3  4  1  0
  4  5  1  0
  5  6  1  0
  5  7  1  1
  7  8  1  0
  8  9  1  0
  9 10  2  0
 10 11  1  0
 10 29  1  0
 11 12  1  0
 11 31  1  6
 12 13  1  0
 12 27  1  0
 13 14  1  0
 14 15  1  0
 15 16  1  0
 16 17  1  0
 17 18  2  0
 17 25  1  0
 18 19  1  0
 19 20  1  0
 20 21  1  0
 20 25  2  0
 21 22  2  0
 22 23  1  0
 23 24  2  0
 23 26  1  0
 24 25  1  0
 27 28  1  0
 27 30  1  1
 28 29  1  0
M  END
>  <DRUGBANK_ID>  (1) 
DB07521

>  <COMMON_NAME>  (1) 
(3Z,6S)-6-Chloro-1-(2-{[(5-chloro-1-benzothiophen-3-yl)methyl]amino}ethyl)-3-({2-[(2R)-2-piperidinyl]ethyl}imino)-2-piperazinol

>  <SYNONYMS>  (1) 
(3S)-3-Chloro-4-[2-[(5-chloro-1-benzothiophen-3-yl)methylamino]ethyl]-6-[2-[(2R)-piperidin-2-yl]ethylamino]-3,5-dihydro-2H-pyrazin-5-ol

$$$$
