
     RDKit          3D

 36 39  0  0  1  0  0  0  0  0999 V2000
   -0.9981    1.6666   -0.3176 C   0  0  0  0  0  0  0  0  0  0  0  0
    2.1331    4.2060    1.6363 C   0  0  0  0  0  0  0  0  0  0  0  0
    3.4918    9.0492   -4.3622 C   0  0  0  0  0  0  0  0  0  0  0  0
    3.7063    8.5982   -6.8105 C   0  0  0  0  0  0  0  0  0  0  0  0
   -0.4699    1.9320   -7.5570 C   0  0  0  0  0  0  0  0  0  0  0  0
   -2.0498   -0.4615    0.9034 C   0  0  0  0  0  0  0  0  0  0  0  0
   -2.6986    0.6861    2.9145 C   0  0  0  0  0  0  0  0  0  0  0  0
   -3.3529   -0.3569    0.4024 C   0  0  0  0  0  0  0  0  0  0  0  0
   -4.0266    0.6643    2.4744 C   0  0  0  0  0  0  0  0  0  0  0  0
    0.5914    4.6793   -3.6740 C   0  0  0  0  0  0  0  0  0  0  0  0
   -0.7625    2.4294   -4.5334 C   0  0  0  0  0  0  0  0  0  0  0  0
   -0.0204    2.9630    1.9964 C   0  0  0  0  0  0  0  0  0  0  0  0
    1.2714    2.3907   -0.6090 C   0  0  0  0  0  0  0  0  0  0  0  0
   -0.2176    0.4834    2.4127 C   0  0  0  0  0  0  0  0  0  0  0  0
    0.8655    4.0355   -7.2936 C   0  0  0  0  0  0  0  0  0  0  0  0
    0.4001    1.3922    0.2005 C   0  0  1  0  0  0  0  0  0  0  0  0
    0.7013    4.0724    1.1130 C   0  0  2  0  0  0  0  0  0  0  0  0
   -1.6810    0.1860    2.1000 C   0  0  0  0  0  0  0  0  0  0  0  0
   -4.3394    0.1676    1.2136 C   0  0  0  0  0  0  0  0  0  0  0  0
    0.6422    4.3493   -5.0564 C   0  0  0  0  0  0  0  0  0  0  0  0
   -0.1716    3.9784   -2.7464 C   0  0  0  0  0  0  0  0  0  0  0  0
    1.2206    4.9014   -6.2554 C   0  0  0  0  0  0  0  0  0  0  0  0
   -0.9909    2.9755   -3.2722 C   0  0  0  0  0  0  0  0  0  0  0  0
   -0.0192    3.1788   -5.4349 C   0  0  0  0  0  0  0  0  0  0  0  0
    2.0321    6.1160   -6.4833 C   0  0  0  0  0  0  0  0  0  0  0  0
   -0.0318    4.4796   -1.3089 C   0  0  0  0  0  0  0  0  0  0  0  0
    2.4204    7.0828   -5.3257 C   0  0  0  0  0  0  0  0  0  0  0  0
   -2.5631    2.5109   -2.6790 Cl  0  0  0  0  0  0  0  0  0  0  0  0
   -5.6087    0.1660    0.7877 F   0  0  0  0  0  0  0  0  0  0  0  0
    3.1903    8.2150   -5.5222 N   0  0  0  0  0  0  0  0  0  0  0  0
    0.1234    3.0076   -6.7873 N   0  0  0  0  0  0  0  0  0  0  0  0
    0.4402    1.5897    1.6631 N   0  0  0  0  0  0  0  0  0  0  0  0
    0.7472    3.7485   -0.3588 N   0  0  0  0  0  0  0  0  0  0  0  0
    2.4241    6.3681   -7.6213 O   0  0  0  0  0  0  0  0  0  0  0  0
   -0.5258    5.5736   -1.0406 O   0  0  0  0  0  0  0  0  0  0  0  0
    2.0521    6.8555   -4.1747 O   0  0  0  0  0  0  0  0  0  0  0  0
  8  6  2  0
  9  7  1  0
 16 13  1  0
 16  1  1  6
 17 12  1  0
 17  2  1  1
 18  6  1  0
 18  7  2  0
 18 14  1  0
 19  8  1  0
 19  9  2  0
 20 10  2  0
 21 10  1  0
 22 15  2  0
 22 20  1  0
 23 11  1  0
 23 21  2  0
 24 11  2  0
 24 20  1  0
 25 22  1  0
 26 21  1  0
 27 25  1  0
 28 23  1  0
 29 19  1  0
 30  3  1  0
 30  4  1  0
 30 27  1  0
 31  5  1  0
 31 15  1  0
 31 24  1  0
 32 12  1  0
 32 14  1  0
 32 16  1  0
 33 13  1  0
 33 17  1  0
 33 26  1  0
 34 25  2  0
 35 26  2  0
 36 27  2  0
M  END
>  <DRUGBANK_ID>  (1) 
DB05412

>  <COMMON_NAME>  (1) 
Talmapimod

>  <CAS_NUMBER>  (1) 
309913-83-5

>  <UNII>  (1) 
B1E00KQ6NT

>  <SYNONYMS>  (1) 
Talmapimod

$$$$
