
     RDKit          3D

  8  7  0  0  0  0  0  0  0  0999 V2000
    0.9321    0.0999    0.0063 O   0  0  0  0  0  0  0  0  0  0  0  0
    0.6007   -0.8685    0.9894 C   0  0  0  0  0  0  0  0  0  0  0  0
    1.1299   -2.2627    0.6575 C   0  0  0  0  0  0  0  0  0  0  0  0
    2.9595   -2.4052    0.6317 S   0  0  0  0  0  0  0  0  0  0  0  0
    3.5742   -1.1462   -0.8791 S   0  0  0  0  0  0  0  0  0  0  0  0
    5.4038   -1.0951   -0.7436 C   0  0  0  0  0  0  0  0  0  0  0  0
    5.9330   -0.5172    0.5678 C   0  0  0  0  0  0  0  0  0  0  0  0
    5.6017   -1.3095    1.6976 O   0  0  0  0  0  0  0  0  0  0  0  0
  1  2  1  0
  2  3  1  0
  3  4  1  0
  4  5  1  0
  5  6  1  0
  6  7  1  0
  7  8  1  0
M  END
>  <DRUGBANK_ID>  (1) 
DB02486

>  <SECONDARY_ACCESSION_NUMBERS>  (1) 
EXPT01723

>  <COMMON_NAME>  (1) 
2-Hydroxyethyl Disulfide

>  <CAS_NUMBER>  (1) 
1892-29-1

>  <UNII>  (1) 
45543L74BS

$$$$
