
     RDKit          3D

 21 23  0  0  0  0  0  0  0  0999 V2000
    1.5871    1.1392    0.0323 N   0  0  0  0  0  0  0  0  0  0  0  0
    0.2648    0.7118    0.0227 C   0  0  0  0  0  0  0  0  0  0  0  0
    2.0560    2.5227   -0.0556 C   0  0  2  0  0  0  0  0  0  0  0  0
    2.3538   -0.0017    0.0166 C   0  0  0  0  0  0  0  0  0  0  0  0
    0.3225   -0.6769    0.0122 C   0  0  0  0  0  0  0  0  0  0  0  0
   -0.8613    1.4493    0.0208 N   0  0  0  0  0  0  0  0  0  0  0  0
    2.8999    2.6962   -1.2323 O   0  0  0  0  0  0  0  0  0  0  0  0
    2.8818    3.1252    1.0874 C   0  0  0  0  0  0  0  0  0  0  0  0
    1.6301   -1.1046    0.0203 N   0  0  0  0  0  0  0  0  0  0  0  0
   -0.8993   -1.3845    0.0020 C   0  0  0  0  0  0  0  0  0  0  0  0
   -1.9722    0.6677    0.0033 C   0  0  0  0  0  0  0  0  0  0  0  0
    3.7428    3.8785   -1.0314 C   0  0  1  0  0  0  0  0  0  0  0  0
    3.4366    4.3765    0.4057 C   0  0  1  0  0  0  0  0  0  0  0  0
   -2.0494   -0.6813   -0.0015 N   0  0  0  0  0  0  0  0  0  0  0  0
   -0.9692   -2.7623    0.0059 N   0  0  0  0  0  0  0  0  0  0  0  0
    2.4049    5.3724    0.4042 O   0  0  0  0  0  0  0  0  0  0  0  0
    5.2446    3.4781   -1.1353 C   0  0  0  0  0  0  0  0  0  0  0  0
    5.6080    2.9448   -2.4109 O   0  0  0  0  0  0  0  0  0  0  0  0
    3.4598    4.9062   -2.0629 C   0  0  0  0  0  0  0  0  0  0  0  0
    3.2783    5.7751   -2.8821 C   0  0  0  0  0  0  0  0  0  0  0  0
   -3.1510    1.3136    0.0105 F   0  0  0  0  0  0  0  0  0  0  0  0
  1  2  1  0
  1  4  1  0
  2  5  2  0
  2  6  1  0
  3  1  1  1
  3  7  1  0
  3  8  1  0
  4  9  2  0
  5 10  1  0
  5  9  1  0
  6 11  2  0
  7 12  1  0
  8 13  1  0
 10 14  2  0
 10 15  1  0
 11 14  1  0
 11 21  1  0
 12 13  1  0
 12 17  1  1
 12 19  1  0
 13 16  1  6
 17 18  1  0
 19 20  3  0
M  END
>  <DRUGBANK_ID>  (1) 
DB15653

>  <COMMON_NAME>  (1) 
Islatravir

>  <CAS_NUMBER>  (1) 
865363-93-5

>  <UNII>  (1) 
QPQ082R25D

>  <SYNONYMS>  (1) 
4'-ethynyl-2-fluoro-2'-deoxyadenosine; Islatravir

$$$$
