
     RDKit          3D

 36 40  0  0  0  0  0  0  0  0999 V2000
    2.0700    0.2178   -0.1420 F   0  0  0  0  0  0  0  0  0  0  0  0
    0.7705    0.0554    0.0012 C   0  0  0  0  0  0  0  0  0  0  0  0
    0.0623    1.2474    0.0079 C   0  0  0  0  0  0  0  0  0  0  0  0
   -1.3108    1.2153    0.0329 C   0  0  0  0  0  0  0  0  0  0  0  0
   -1.9597   -0.0243    0.0603 C   0  0  0  0  0  0  0  0  0  0  0  0
   -3.4708   -0.0508    0.0225 C   0  0  0  0  0  0  0  0  0  0  0  0
   -3.9789   -0.7162   -1.2491 C   0  0  0  0  0  0  0  0  0  0  0  0
   -3.7123   -1.9795   -1.4016 N   0  0  0  0  0  0  0  0  0  0  0  0
   -3.9959   -2.5711   -2.5875 N   0  0  0  0  0  0  0  0  0  0  0  0
   -4.4726   -1.9304   -3.7001 C   0  0  0  0  0  0  0  0  0  0  0  0
   -4.5866   -2.4934   -4.7899 O   0  0  0  0  0  0  0  0  0  0  0  0
   -4.8877   -0.5307   -3.5117 C   0  0  0  0  0  0  0  0  0  0  0  0
   -5.5268    0.1604   -4.5452 C   0  0  0  0  0  0  0  0  0  0  0  0
   -6.0080    1.4499   -4.3220 C   0  0  0  0  0  0  0  0  0  0  0  0
   -5.8490    2.0480   -3.0739 C   0  0  0  0  0  0  0  0  0  0  0  0
   -5.1846    1.3696   -2.0519 C   0  0  0  0  0  0  0  0  0  0  0  0
   -4.6899    0.0789   -2.2741 C   0  0  0  0  0  0  0  0  0  0  0  0
   -1.2049   -1.2287    0.0917 C   0  0  0  0  0  0  0  0  0  0  0  0
    0.1925   -1.2060    0.0776 C   0  0  0  0  0  0  0  0  0  0  0  0
    0.9941   -2.4843    0.0061 C   0  0  0  0  0  0  0  0  0  0  0  0
    0.4072   -3.5523   -0.1564 O   0  0  0  0  0  0  0  0  0  0  0  0
    2.3853   -2.4033    0.0002 N   0  0  0  0  0  0  0  0  0  0  0  0
    3.1744   -1.8028    1.0802 C   0  0  0  0  0  0  0  0  0  0  0  0
    4.2587   -0.8530    0.5316 C   0  0  0  0  0  0  0  0  0  0  0  0
    5.0564   -1.5256   -0.4881 N   0  0  0  0  0  0  0  0  0  0  0  0
    4.2387   -2.1116   -1.5832 C   0  0  0  0  0  0  0  0  0  0  0  0
    3.1956   -3.1037   -1.0075 C   0  0  0  0  0  0  0  0  0  0  0  0
    6.4411   -1.4438   -0.5696 C   0  0  0  0  0  0  0  0  0  0  0  0
    7.0861   -1.8720   -1.5226 O   0  0  0  0  0  0  0  0  0  0  0  0
    7.1979   -0.8386    0.5700 C   0  0  0  0  0  0  0  0  0  0  0  0
    7.0099   -1.3161    1.8775 C   0  0  0  0  0  0  0  0  0  0  0  0
    7.7300   -0.7698    2.9415 C   0  0  0  0  0  0  0  0  0  0  0  0
    8.6736    0.2185    2.6918 C   0  0  0  0  0  0  0  0  0  0  0  0
    9.3895    0.7148    3.7095 F   0  0  0  0  0  0  0  0  0  0  0  0
    8.8928    0.6878    1.3998 C   0  0  0  0  0  0  0  0  0  0  0  0
    8.1504    0.1631    0.3330 C   0  0  0  0  0  0  0  0  0  0  0  0
  1  2  1  0
  2  3  2  0
  2 19  1  0
  3  4  1  0
  4  5  2  0
  5  6  1  0
  5 18  1  0
  6  7  1  0
  7  8  2  0
  7 17  1  0
  8  9  1  0
  9 10  1  0
 10 11  2  0
 10 12  1  0
 12 13  1  0
 12 17  2  0
 13 14  2  0
 14 15  1  0
 15 16  2  0
 16 17  1  0
 18 19  2  0
 19 20  1  0
 20 21  2  0
 20 22  1  0
 22 23  1  0
 22 27  1  0
 23 24  1  0
 24 25  1  0
 25 26  1  0
 25 28  1  0
 26 27  1  0
 28 29  2  0
 28 30  1  0
 30 31  2  0
 30 36  1  0
 31 32  1  0
 32 33  2  0
 33 34  1  0
 33 35  1  0
 35 36  2  0
M  ISO  1  34  18
M  END
>  <DRUGBANK_ID>  (1) 
DB18657

>  <COMMON_NAME>  (1) 
PARPI F-18

>  <CAS_NUMBER>  (1) 
1883580-48-0

>  <UNII>  (1) 
FT8GT4M7UG

>  <SYNONYMS>  (1) 
(18F)PARPI; 1(2h)-phthalazinone, 4-((4-fluoro-3-((4-(4-(fluoro-18f)benzoyl)-1-piperazinyl)carbonyl)phenyl)methyl)-

$$$$
