
     RDKit          3D

 22 24  0  0  1  0  0  0  0  0999 V2000
    0.9971    0.0084   -0.0500 C   0  0  0  0  0  0  0  0  0  0  0  0
    0.5894    1.3731   -0.3519 N   0  0  0  0  0  0  0  0  0  0  0  0
   -0.8223    1.4593   -0.6955 C   0  0  0  0  0  0  0  0  0  0  0  0
   -1.3565    2.8616   -0.9721 C   0  0  0  0  0  0  0  0  0  0  0  0
   -0.4301    3.9191   -0.5992 N   0  0  0  0  0  0  0  0  0  0  0  0
    0.8144    3.6001   -0.1141 C   0  0  0  0  0  0  0  0  0  0  0  0
    1.3299    2.4218    0.0781 N   0  0  0  0  0  0  0  0  0  0  0  0
   -0.9364    5.2227   -0.7662 C   0  0  0  0  0  0  0  0  0  0  0  0
   -0.3419    6.1257   -1.6588 C   0  0  0  0  0  0  0  0  0  0  0  0
   -0.9077    7.3929   -1.8840 C   0  0  0  0  0  0  0  0  0  0  0  0
   -2.0400    7.7964   -1.1699 C   0  0  0  0  0  0  0  0  0  0  0  0
   -2.6323    6.9175   -0.2678 C   0  0  0  0  0  0  0  0  0  0  0  0
   -2.1001    5.6446   -0.0977 C   0  0  0  0  0  0  0  0  0  0  0  0
   -2.7374    4.8103    0.7388 F   0  0  0  0  0  0  0  0  0  0  0  0
   -2.5837    9.0763   -1.3327 N   0  0  0  0  0  0  0  0  0  0  0  0
   -3.0386    9.5993   -2.5765 C   0  0  0  0  0  0  0  0  0  0  0  0
   -3.8277   10.8238   -2.1442 C   0  0  1  0  0  0  0  0  0  0  0  0
   -3.4103   11.0918   -0.7985 O   0  0  0  0  0  0  0  0  0  0  0  0
   -2.7807    9.9799   -0.3135 C   0  0  0  0  0  0  0  0  0  0  0  0
   -2.4221    9.8735    0.8526 O   0  0  0  0  0  0  0  0  0  0  0  0
   -3.5735   12.0373   -3.0285 C   0  0  0  0  0  0  0  0  0  0  0  0
   -4.0027   11.7976   -4.3631 O   0  0  0  0  0  0  0  0  0  0  0  0
  1  2  1  0
  2  3  1  0
  2  7  1  0
  3  4  1  0
  4  5  1  0
  5  6  1  0
  5  8  1  0
  6  7  2  0
  8  9  2  0
  8 13  1  0
  9 10  1  0
 10 11  2  0
 11 12  1  0
 11 15  1  0
 12 13  2  0
 13 14  1  0
 15 16  1  0
 15 19  1  0
 16 17  1  0
 17 18  1  0
 17 21  1  6
 18 19  1  0
 19 20  2  0
 21 22  1  0
M  END
>  <DRUGBANK_ID>  (1) 
DB13077

>  <COMMON_NAME>  (1) 
Delpazolid

>  <CAS_NUMBER>  (1) 
1219707-39-7

>  <UNII>  (1) 
43EP6XV33E

>  <SYNONYMS>  (1) 
(5R)-3-(3-fluoro-4-(1-methyl-5,6-dihydro-1,2,4-triazin-4-yl)phenyl)-5-(hydroxymethyl)oxazolidin-2-one; (5R)-3-(3-fluoro-4-(1-methyl-5,6-dihydro-1,2,4-triazin-4(1H)-yl)phenyl)-5-(hydroxymethyl)-1,3-oxazolidin-2-one; (R)-3-[3-Fluoro-4-(1-methyl-1,4,5,6-tetrahydro-1,2,4-triazin-4-yl)phenyl]-5(R)-(hydroxymethyl)oxazolidin-2-one; 2-oxazolidinone, 3-(4-(5,6-dihydro-1-methyl-1,2,4-triazin-4(1H)-yl)-3-fluorophenyl)-5-(hydroxymethyl)-, (5R)-

$$$$
