F1I
     RDKit          3D

 24 25  0  0  0  0  0  0  0  0999 V2000
    0.9357   -0.0848    0.1136 C   0  0  0  0  0  0  0  0  0  0  0  0
   -0.6441    4.8894    4.5221 C   0  0  0  0  0  0  0  0  0  0  0  0
    0.3804    1.2094   -0.0505 O   0  0  0  0  0  0  0  0  0  0  0  0
    0.0829    3.6939    2.6040 C   0  0  0  0  0  0  0  0  0  0  0  0
    1.4045    3.6985    3.0707 C   0  0  0  0  0  0  0  0  0  0  0  0
    0.7497    2.1077    0.9171 C   0  0  0  0  0  0  0  0  0  0  0  0
   -0.2306    2.9779    1.4336 C   0  0  0  0  0  0  0  0  0  0  0  0
   -0.6220    5.2672   -0.4425 C   0  0  0  0  0  0  0  0  0  0  0  0
   -0.3650    6.0069   -1.7534 C   0  0  0  0  0  0  0  0  0  0  0  0
   -1.5080    3.2635    0.6407 C   0  0  0  0  0  0  0  0  0  0  0  0
   -0.5620    3.1644   -1.6257 C   0  0  0  0  0  0  0  0  0  0  0  0
   -0.2906    3.8093   -2.9662 C   0  0  0  0  0  0  0  0  0  0  0  0
    4.1257    7.9877   -5.1733 C   0  0  0  0  0  0  0  0  0  0  0  0
    1.9188    6.8007   -5.8121 C   0  0  0  0  0  0  0  0  0  0  0  0
    2.6819    8.1220   -5.6719 C   0  0  0  0  0  0  0  0  0  0  0  0
    1.8624    6.0503   -4.4990 C   0  0  0  0  0  0  0  0  0  0  0  0
    0.4166    5.1370   -2.7343 C   0  0  0  0  0  0  0  0  0  0  0  0
    2.8837    5.6727   -3.9193 O   0  0  0  0  0  0  0  0  0  0  0  0
    5.1787    7.0255   -6.3080 S   0  0  0  0  0  0  0  0  0  0  0  0
    0.6097    5.8286   -3.9979 N   0  0  0  0  0  0  0  0  0  0  0  0
   -1.3086    3.9863   -0.6637 N   0  0  0  0  0  0  0  0  0  0  0  0
   -0.9404    4.3603    3.2313 O   0  0  0  0  0  0  0  0  0  0  0  0
    2.4103    3.0298    2.3796 C   0  0  0  0  0  0  0  0  0  0  0  0
    2.0845    2.2512    1.2849 C   0  0  0  0  0  0  0  0  0  0  0  0
  1  3  1  0
  2 22  1  0
  3  6  1  0
  4  5  2  0
  4  7  1  0
  4 22  1  0
  5 23  1  0
  6  7  2  0
  6 24  1  0
  7 10  1  0
  8  9  1  0
  8 21  1  0
  9 17  1  0
 10 21  1  0
 11 12  1  0
 11 21  1  0
 12 17  1  0
 13 15  1  0
 13 19  1  0
 14 15  1  0
 14 16  1  0
 16 18  2  0
 16 20  1  0
 17 20  1  0
 23 24  2  0
M  END
>  <DRUGBANK_ID>  (1) 
DB07735

>  <COMMON_NAME>  (1) 
N-[1-(2,6-dimethoxybenzyl)piperidin-4-yl]-4-sulfanylbutanamide

$$$$
