
     RDKit          3D

 26 28  0  0  0  0  0  0  0  0999 V2000
    2.5492    0.0196   -0.0105 C   0  0  0  0  0  0  0  0  0  0  0  0
    1.0605    0.0341   -0.0010 C   0  0  0  0  0  0  0  0  0  0  0  0
    0.3439    1.2366   -0.0083 C   0  0  0  0  0  0  0  0  0  0  0  0
   -1.0434    1.2278   -0.0299 C   0  0  0  0  0  0  0  0  0  0  0  0
   -1.7268    0.0107   -0.0354 C   0  0  0  0  0  0  0  0  0  0  0  0
   -0.9862   -1.1860   -0.0425 C   0  0  0  0  0  0  0  0  0  0  0  0
    0.3888   -1.1805   -0.0112 C   0  0  0  0  0  0  0  0  0  0  0  0
   -3.2360   -0.0084    0.0076 C   0  0  0  0  0  0  0  0  0  0  0  0
   -3.7499    0.7461    1.2451 C   0  0  0  0  0  0  0  0  0  0  0  0
   -5.2459    0.5839    1.4061 C   0  0  0  0  0  0  0  0  0  0  0  0
   -5.6166   -0.8309    1.4481 N   0  0  0  0  0  0  0  0  0  0  0  0
   -5.1573   -1.5624    0.2782 C   0  0  0  0  0  0  0  0  0  0  0  0
   -3.7020   -1.4661    0.0304 C   0  0  0  0  0  0  0  0  0  0  0  0
   -7.0579   -0.9811    1.6056 C   0  0  0  0  0  0  0  0  0  0  0  0
   -7.8881   -0.3412    0.4787 C   0  0  0  0  0  0  0  0  0  0  0  0
   -7.8366   -1.0141   -0.9127 C   0  0  0  0  0  0  0  0  0  0  0  0
   -8.0294   -2.5238   -0.8511 C   0  0  0  0  0  0  0  0  0  0  0  0
   -7.1627   -3.3237   -1.1551 O   0  0  0  0  0  0  0  0  0  0  0  0
   -9.3567   -2.9952   -0.3913 C   0  0  0  0  0  0  0  0  0  0  0  0
  -10.3753   -2.0653   -0.1473 C   0  0  0  0  0  0  0  0  0  0  0  0
  -11.6110   -2.4655    0.3150 C   0  0  0  0  0  0  0  0  0  0  0  0
  -11.8602   -3.8181    0.4395 C   0  0  0  0  0  0  0  0  0  0  0  0
  -10.8739   -4.7669    0.1690 C   0  0  0  0  0  0  0  0  0  0  0  0
   -9.5990   -4.3577   -0.2230 C   0  0  0  0  0  0  0  0  0  0  0  0
  -13.0870   -4.2120    0.7937 F   0  0  0  0  0  0  0  0  0  0  0  0
   -3.6909    0.6572   -1.1850 O   0  0  0  0  0  0  0  0  0  0  0  0
  1  2  1  0
  2  3  2  0
  2  7  1  0
  3  4  1  0
  4  5  2  0
  5  6  1  0
  5  8  1  0
  6  7  2  0
  8  9  1  0
  8 13  1  0
  8 26  1  0
  9 10  1  0
 10 11  1  0
 11 12  1  0
 11 14  1  0
 12 13  1  0
 14 15  1  0
 15 16  1  0
 16 17  1  0
 17 18  2  0
 17 19  1  0
 19 20  2  0
 19 24  1  0
 20 21  1  0
 21 22  2  0
 22 23  1  0
 22 25  1  0
 23 24  2  0
M  END
>  <DRUGBANK_ID>  (1) 
DB13554

>  <COMMON_NAME>  (1) 
Moperone

>  <CAS_NUMBER>  (1) 
1050-79-9

>  <UNII>  (1) 
OU730881W5

>  <SYNONYMS>  (1) 
Moperone

$$$$
