
     RDKit          3D

 40 42  0  0  1  0  0  0  0  0999 V2000
    1.5103   -1.5531   -1.0978 O   0  0  0  0  0  0  0  0  0  0  0  0
    0.2974   -1.8410   -1.6843 C   0  0  0  0  0  0  0  0  0  0  0  0
    0.4249   -2.2980   -2.7774 O   0  0  0  0  0  0  0  0  0  0  0  0
   -1.3042   -1.4719   -1.0908 C   0  0  0  0  0  0  0  0  0  0  0  0
   -1.9579   -1.6586    0.3849 C   0  0  0  0  0  0  0  0  0  0  0  0
   -1.8082   -0.6266    1.6485 C   0  0  0  0  0  0  0  0  0  0  0  0
   -2.2196    0.8966    1.5563 C   0  0  0  0  0  0  0  0  0  0  0  0
   -3.6837    1.0031    1.4061 C   0  0  0  0  0  0  0  0  0  0  0  0
   -4.2404    1.7918    2.3389 O   0  0  0  0  0  0  0  0  0  0  0  0
   -4.2920    0.4856    0.4838 O   0  0  0  0  0  0  0  0  0  0  0  0
    0.0096    0.3821   -0.0103 C   0  0  0  0  0  0  0  0  0  0  0  0
    0.6149    1.0325   -1.2047 C   0  0  1  0  0  0  0  0  0  0  0  0
   -0.4568    1.3238   -2.1797 N   0  0  0  0  0  0  0  0  0  0  0  0
    1.4024    1.9977   -0.3424 C   0  0  0  0  0  0  0  0  0  0  0  0
    2.4625    1.1983    0.4316 O   0  0  0  0  0  0  0  0  0  0  0  0
    2.2645    0.4693    1.6189 C   0  0  0  0  0  0  0  0  0  0  0  0
    1.8185   -0.8823    1.7135 C   0  0  0  0  0  0  0  0  0  0  0  0
    1.4080   -1.4963    2.8870 C   0  0  0  0  0  0  0  0  0  0  0  0
    1.8188   -0.9407    4.0586 C   0  0  0  0  0  0  0  0  0  0  0  0
    2.5198    0.2715    4.0156 C   0  0  0  0  0  0  0  0  0  0  0  0
    2.6415    1.0256    2.8254 C   0  0  0  0  0  0  0  0  0  0  0  0
    1.5513   -1.6440    5.2834 C   0  0  0  0  0  0  0  0  0  0  0  0
    1.0295   -1.1776    6.4674 C   0  0  0  0  0  0  0  0  0  0  0  0
    1.0140   -2.1553    7.4208 N   0  0  0  0  0  0  0  0  0  0  0  0
    1.4957   -3.2238    6.8182 C   0  0  0  0  0  0  0  0  0  0  0  0
    1.7756   -4.5132    7.3020 C   0  0  0  0  0  0  0  0  0  0  0  0
    2.2680   -5.4376    6.4673 C   0  0  0  0  0  0  0  0  0  0  0  0
    2.4819   -5.0866    5.0220 C   0  0  0  0  0  0  0  0  0  0  0  0
    2.9435   -6.0699    4.1689 N   0  0  0  0  0  0  0  0  0  0  0  0
    3.2881   -5.8492    2.7666 C   0  0  2  0  0  0  0  0  0  0  0  0
    3.0252   -7.1258    1.9669 C   0  0  0  0  0  0  0  0  0  0  0  0
    4.7288   -5.3890    2.6487 C   0  0  0  0  0  0  0  0  0  0  0  0
    5.0045   -4.0109    2.6221 C   0  0  0  0  0  0  0  0  0  0  0  0
    6.3191   -3.5417    2.6047 C   0  0  0  0  0  0  0  0  0  0  0  0
    7.3778   -4.4454    2.6343 C   0  0  0  0  0  0  0  0  0  0  0  0
    7.1120   -5.8068    2.6748 C   0  0  0  0  0  0  0  0  0  0  0  0
    8.1222   -6.6765    2.8077 F   0  0  0  0  0  0  0  0  0  0  0  0
    5.8084   -6.2853    2.6307 C   0  0  0  0  0  0  0  0  0  0  0  0
    2.2354   -3.8895    4.5616 N   0  0  0  0  0  0  0  0  0  0  0  0
    1.7786   -2.9900    5.4895 N   0  0  0  0  0  0  0  0  0  0  0  0
  1  2  1  0
  2  3  2  0
  2  4  1  0
  4  5  1  0
  5  6  1  0
  6  7  1  0
  7  8  1  0
  8  9  1  0
  8 10  2  0
 12 11  1  1
 12 13  1  0
 12 14  1  0
 14 15  1  0
 15 16  1  0
 16 17  2  0
 16 21  1  0
 17 18  1  0
 18 19  2  0
 19 20  1  0
 19 22  1  0
 20 21  2  0
 22 23  2  0
 22 40  1  0
 23 24  1  0
 24 25  2  0
 25 26  1  0
 25 40  1  0
 26 27  2  0
 27 28  1  0
 28 29  1  0
 28 39  2  0
 30 32  1  0
 30 31  1  6
 30 29  1  0
 32 33  2  0
 32 38  1  0
 33 34  1  0
 34 35  2  0
 35 36  1  0
 36 37  1  0
 36 38  2  0
 39 40  1  0
M  END
>  <DRUGBANK_ID>  (1) 
DB18711

>  <COMMON_NAME>  (1) 
taletrectinib

>  <CAS_NUMBER>  (1) 
1505515-69-4

>  <UNII>  (1) 
6KLL51GNBG

>  <SYNONYMS>  (1) 
Taletrectinib adipate

$$$$
