U49
     RDKit          3D

 33 38  0  0  0  0  0  0  0  0999 V2000
   -1.4931    0.1269    0.3463 C   0  0  0  0  0  0  0  0  0  0  0  0
   -2.9670    0.9452    1.1980 C   0  0  0  0  0  0  0  0  0  0  0  0
   -0.3283    1.2593   -0.4990 C   0  0  0  0  0  0  0  0  0  0  0  0
   -1.4268   -1.3266   -0.0888 C   0  0  0  0  0  0  0  0  0  0  0  0
   -4.9449    1.6448    0.8551 N   0  0  0  0  0  0  0  0  0  0  0  0
   -0.8823    0.5263    1.2071 C   0  0  0  0  0  0  0  0  0  0  0  0
   -1.3594    1.9966   -0.6636 C   0  0  0  0  0  0  0  0  0  0  0  0
    0.9584    1.6390   -0.1299 C   0  0  0  0  0  0  0  0  0  0  0  0
   -2.5085   -0.8721   -0.6177 C   0  0  0  0  0  0  0  0  0  0  0  0
   -7.1194    2.3403    0.9018 C   0  0  0  0  0  0  0  0  0  0  0  0
   -6.5108    2.0595    1.7808 C   0  0  0  0  0  0  0  0  0  0  0  0
    0.9949    0.5753    0.6089 C   0  0  0  0  0  0  0  0  0  0  0  0
   -2.4430    0.8087   -1.1903 C   0  0  0  0  0  0  0  0  0  0  0  0
   -3.6089   -1.5185   -0.0259 O   0  0  0  0  0  0  0  0  0  0  0  0
   -9.2191    2.1104    1.2651 C   0  0  0  0  0  0  0  0  0  0  0  0
   -8.2567    1.1841    1.1593 C   0  0  1  0  0  0  0  0  0  0  0  0
   -4.7710   -0.8623   -0.1629 C   0  0  0  0  0  0  0  0  0  0  0  0
   -5.6243   -0.9109    0.8978 C   0  0  0  0  0  0  0  0  0  0  0  0
   -5.0400   -0.1786   -1.3995 C   0  0  0  0  0  0  0  0  0  0  0  0
   -9.1318    2.0400   -1.2792 C   0  0  0  0  0  0  0  0  0  0  0  0
   -6.7549   -0.3224    0.5811 C   0  0  0  0  0  0  0  0  0  0  0  0
   -5.4031   -1.5139    2.1690 C   0  0  0  0  0  0  0  0  0  0  0  0
   -5.9699    0.7465   -1.5568 C   0  0  0  0  0  0  0  0  0  0  0  0
   -8.7743    1.6668   -2.6322 C   0  0  0  0  0  0  0  0  0  0  0  0
   -6.7540    0.6172   -0.5405 C   0  0  0  0  0  0  0  0  0  0  0  0
   -5.2201   -2.0370    3.1883 N   0  0  0  0  0  0  0  0  0  0  0  0
   -6.2308    1.7931   -2.5548 C   0  0  0  0  0  0  0  0  0  0  0  0
   -7.5206    1.5889   -3.1851 N   0  0  0  0  0  0  0  0  0  0  0  0
   -9.6419    1.3612   -3.6364 C   0  0  0  0  0  0  0  0  0  0  0  0
   -7.6901    1.2281   -4.4828 C   0  0  0  0  0  0  0  0  0  0  0  0
   -8.9623    1.0878   -4.7803 N   0  0  0  0  0  0  0  0  0  0  0  0
   -6.5073    2.9641    2.6715 O   0  0  0  0  0  0  0  0  0  0  0  0
   -8.9923    0.9409   -0.2731 N   0  0  0  0  0  0  0  0  0  0  0  0
  1  2  1  0
  1  3  1  0
  1  4  2  0
  2  5  1  0
  2  6  2  0
  3  7  2  0
  3  8  1  0
  4  9  1  0
  5 10  1  0
  5 11  1  0
  6 12  1  0
  7 13  1  0
  8 12  2  0
  9 13  2  0
  9 14  1  0
 10 15  1  0
 11 16  1  0
 11 32  2  0
 14 17  1  0
 16 15  1  1
 16 33  1  0
 17 18  2  0
 17 19  1  0
 18 21  1  0
 18 22  1  0
 19 23  2  0
 20 24  1  0
 20 33  1  0
 21 25  2  0
 22 26  3  0
 23 25  1  0
 23 27  1  0
 24 28  1  0
 24 29  2  0
 27 28  1  0
 28 30  1  0
 29 31  1  0
 30 31  2  0
M  END
>  <DRUGBANK_ID>  (1) 
DB08674

>  <COMMON_NAME>  (1) 
(20S)-19,20,21,22-TETRAHYDRO-19-OXO-5H-18,20-ETHANO-12,14-ETHENO-6,10-METHENO-18H-BENZ[D]IMIDAZO[4,3-K][1,6,9,12]OXATRIAZA-CYCLOOCTADECOSINE-9-CARBONITRILE

$$$$
