TMJ
     RDKit          3D

 21 23  0  0  0  0  0  0  0  0999 V2000
    1.1792   -1.4449   -0.3801 C   0  0  0  0  0  0  0  0  0  0  0  0
   -6.3218    0.7623   -0.3367 C   0  0  0  0  0  0  0  0  0  0  0  0
   -8.8409   -0.3288    0.2319 C   0  0  0  0  0  0  0  0  0  0  0  0
   -8.1147   -0.7889   -0.8639 C   0  0  0  0  0  0  0  0  0  0  0  0
   -8.3512    0.7237    0.9999 C   0  0  0  0  0  0  0  0  0  0  0  0
   -6.8663   -0.2275   -1.1591 C   0  0  0  0  0  0  0  0  0  0  0  0
   -7.1053    1.2897    0.6956 C   0  0  0  0  0  0  0  0  0  0  0  0
   -1.3530   -1.3707   -0.0713 C   0  0  0  0  0  0  0  0  0  0  0  0
   -0.0654    0.6924   -0.1682 C   0  0  0  0  0  0  0  0  0  0  0  0
    2.2503   -0.7592    0.4810 C   0  0  0  0  0  0  0  0  0  0  0  0
    1.2788    1.3409   -0.4077 C   0  0  0  0  0  0  0  0  0  0  0  0
  -10.3429   -1.0635    0.6369 Cl  0  0  0  0  0  0  0  0  0  0  0  0
   -4.9962    1.2080   -0.6452 N   0  0  0  0  0  0  0  0  0  0  0  0
   -3.9395    1.6864    0.5883 S   0  0  0  0  0  0  0  0  0  0  0  0
   -3.6541    3.0860    0.3779 O   0  0  0  0  0  0  0  0  0  0  0  0
   -4.3986    1.1851    1.8700 O   0  0  0  0  0  0  0  0  0  0  0  0
   -2.4596    0.7638    0.2020 C   0  0  0  0  0  0  0  0  0  0  0  0
   -1.2383    1.4326    0.0364 C   0  0  0  0  0  0  0  0  0  0  0  0
   -2.5213   -0.6333    0.1414 C   0  0  0  0  0  0  0  0  0  0  0  0
   -0.1277   -0.7122   -0.2107 C   0  0  0  0  0  0  0  0  0  0  0  0
    2.3996    0.6890    0.2827 N   0  0  0  0  0  0  0  0  0  0  0  0
  1 20  1  0
  1 10  1  0
  2  7  2  0
  2  6  1  0
  2 13  1  0
  3 12  1  0
  3  5  2  0
  3  4  1  0
  4  6  2  0
  5  7  1  0
  8 19  1  0
  8 20  2  0
  9 18  2  0
  9 20  1  0
  9 11  1  0
 10 21  1  0
 11 21  1  0
 13 14  1  0
 14 16  2  0
 14 15  2  0
 14 17  1  0
 17 19  2  0
 17 18  1  0
M  END
>  <DRUGBANK_ID>  (1) 
DB08631

>  <COMMON_NAME>  (1) 
N-(4-CHLOROPHENYL)-1,2,3,4-TETRAHYDROISOQUINOLINE-7-SULFONAMIDE

$$$$
