
     RDKit          3D

 29 30  0  0  0  0  0  0  0  0999 V2000
   -0.1573   -1.8241   -0.2813 C   0  0  0  0  0  0  0  0  0  0  0  0
   -0.0389   -2.6502    1.0056 C   0  0  0  0  0  0  0  0  0  0  0  0
   -1.6527   -1.1073   -0.3341 C   0  0  0  0  0  0  0  0  0  0  0  0
    1.0633   -0.9395   -0.4398 C   0  0  0  0  0  0  0  0  0  0  0  0
   -0.0427   -2.5207   -1.6422 C   0  0  0  0  0  0  0  0  0  0  0  0
   -1.0577   -3.5674    1.2288 C   0  0  0  0  0  0  0  0  0  0  0  0
    0.9878   -2.5612    1.9821 C   0  0  0  0  0  0  0  0  0  0  0  0
   -1.7572    0.1417   -0.8376 N   0  0  0  0  0  0  0  0  0  0  0  0
   -2.6983   -1.6143    0.0726 O   0  0  0  0  0  0  0  0  0  0  0  0
    0.6960    0.2148   -1.0684 N   0  0  0  0  0  0  0  0  0  0  0  0
    2.2332   -1.1559   -0.1313 O   0  0  0  0  0  0  0  0  0  0  0  0
    0.0285   -1.5208   -2.8328 C   0  0  0  0  0  0  0  0  0  0  0  0
   -1.0191   -4.4432    2.2950 C   0  0  0  0  0  0  0  0  0  0  0  0
    1.0899   -3.5181    2.9917 C   0  0  0  0  0  0  0  0  0  0  0  0
   -2.9474    1.1999   -0.3035 C   0  0  0  0  0  0  0  0  0  0  0  0
   -0.5869    0.6996   -1.0350 C   0  0  0  0  0  0  0  0  0  0  0  0
    0.0685   -4.4434    3.1577 C   0  0  0  0  0  0  0  0  0  0  0  0
   -2.7571    2.4153    0.9675 C   0  0  0  0  0  0  0  0  0  0  0  0
   -0.8550    1.7807   -0.5259 O   0  0  0  0  0  0  0  0  0  0  0  0
   -1.6124    3.5516    1.1241 C   0  0  0  0  0  0  0  0  0  0  0  0
   -4.0162    3.1665    1.0768 O   0  0  0  0  0  0  0  0  0  0  0  0
   -1.2460    4.3836   -0.0149 O   0  0  0  0  0  0  0  0  0  0  0  0
   -4.4046    4.0498    0.1211 C   0  0  0  0  0  0  0  0  0  0  0  0
   -0.6569    3.7620   -1.1708 C   0  0  0  0  0  0  0  0  0  0  0  0
   -3.5905    4.1240   -0.9528 N   0  0  0  0  0  0  0  0  0  0  0  0
   -5.4038    4.7397    0.2190 O   0  0  0  0  0  0  0  0  0  0  0  0
    0.7701    2.9831   -0.7836 C   0  0  0  0  0  0  0  0  0  0  0  0
    0.9135    1.9806    0.8486 C   0  0  0  0  0  0  0  0  0  0  0  0
   -0.1975    0.7664    1.5309 C   0  0  0  0  0  0  0  0  0  0  0  0
  1  2  1  0
  1  3  1  0
  1  4  1  0
  1  5  1  0
  2  6  2  0
  2  7  1  0
  3  8  1  0
  3  9  2  0
  4 10  1  0
  4 11  2  0
  5 12  1  0
  6 13  1  0
  7 14  2  0
  8 15  1  0
  8 16  1  0
 10 16  1  0
 13 17  2  0
 14 17  1  0
 15 18  1  0
 16 19  2  0
 18 20  1  0
 18 21  1  0
 20 22  1  0
 21 23  1  0
 22 24  1  0
 23 25  1  0
 23 26  2  0
 24 27  1  0
 27 28  1  0
 28 29  1  0
M  END
>  <DRUGBANK_ID>  (1) 
DB13303

>  <COMMON_NAME>  (1) 
Febarbamate

>  <CAS_NUMBER>  (1) 
13246-02-1

>  <UNII>  (1) 
5Z48ONN38P

>  <SYNONYMS>  (1) 
Febarbamate; Febarbamato; Febarbamatum; Phebarbamate; Phenobamate

$$$$
