
     RDKit          3D

 24 26  0  0  0  0  0  0  0  0999 V2000
    0.8404   -0.1343    0.1350 C   0  0  0  0  0  0  0  0  0  0  0  0
    0.4565    1.1300   -0.6123 C   0  0  0  0  0  0  0  0  0  0  0  0
    0.8872    1.0903   -2.0396 C   0  0  0  0  0  0  0  0  0  0  0  0
   -0.0133    1.0561   -2.9117 O   0  0  0  0  0  0  0  0  0  0  0  0
    2.2463    1.0481   -2.3315 N   0  0  0  0  0  0  0  0  0  0  0  0
    3.3868    1.1411   -1.3262 C   0  0  0  0  0  0  0  0  0  0  0  0
    4.1724    2.4563   -1.3156 C   0  0  0  0  0  0  0  0  0  0  0  0
    5.1776    2.4812   -2.4432 C   0  0  0  0  0  0  0  0  0  0  0  0
    6.1671    1.3977   -2.4268 N   0  0  0  0  0  0  0  0  0  0  0  0
    7.0529    1.4432   -3.6420 C   0  0  0  0  0  0  0  0  0  0  0  0
    6.4603    1.5399   -5.0572 C   0  0  0  0  0  0  0  0  0  0  0  0
    5.6818    2.6406   -5.4576 C   0  0  0  0  0  0  0  0  0  0  0  0
    5.1467    2.7497   -6.7404 C   0  0  0  0  0  0  0  0  0  0  0  0
    5.4159    1.7737   -7.6899 C   0  0  0  0  0  0  0  0  0  0  0  0
    6.1810    0.6630   -7.3306 C   0  0  0  0  0  0  0  0  0  0  0  0
    6.6996    0.5458   -6.0267 C   0  0  0  0  0  0  0  0  0  0  0  0
    5.5098    0.0962   -2.3510 C   0  0  0  0  0  0  0  0  0  0  0  0
    4.3813   -0.0353   -1.3080 C   0  0  0  0  0  0  0  0  0  0  0  0
    2.5194    0.8758   -3.7156 C   0  0  0  0  0  0  0  0  0  0  0  0
    2.0534    1.8106   -4.6478 C   0  0  0  0  0  0  0  0  0  0  0  0
    2.3148    1.6250   -5.9969 C   0  0  0  0  0  0  0  0  0  0  0  0
    3.0737    0.5315   -6.4011 C   0  0  0  0  0  0  0  0  0  0  0  0
    3.6127   -0.3336   -5.4684 C   0  0  0  0  0  0  0  0  0  0  0  0
    3.1831   -0.2556   -4.1635 C   0  0  0  0  0  0  0  0  0  0  0  0
  1  2  1  0
  2  3  1  0
  3  4  2  0
  3  5  1  0
  5  6  1  0
  5 19  1  0
  6  7  1  0
  6 18  1  0
  7  8  1  0
  8  9  1  0
  9 10  1  0
  9 17  1  0
 10 11  1  0
 11 12  2  0
 11 16  1  0
 12 13  1  0
 13 14  2  0
 14 15  1  0
 15 16  2  0
 17 18  1  0
 19 20  2  0
 19 24  1  0
 20 21  1  0
 21 22  2  0
 22 23  1  0
 23 24  2  0
M  END
>  <DRUGBANK_ID>  (1) 
DB09182

>  <COMMON_NAME>  (1) 
Benzylfentanyl

>  <CAS_NUMBER>  (1) 
1474-02-8

>  <UNII>  (1) 
9BV2D1A57H

$$$$
