
     RDKit          3D

 27 29  0  0  0  0  0  0  0  0999 V2000
    0.9086   -0.0575    0.0495 C   0  0  0  0  0  0  0  0  0  0  0  0
    0.2999    1.0777    0.6366 O   0  0  0  0  0  0  0  0  0  0  0  0
    0.7179    1.3412    1.9149 C   0  0  0  0  0  0  0  0  0  0  0  0
    2.0657    1.1695    2.2754 C   0  0  0  0  0  0  0  0  0  0  0  0
    2.4957    1.7294    3.4340 C   0  0  0  0  0  0  0  0  0  0  0  0
    1.5889    2.5462    4.0818 C   0  0  0  0  0  0  0  0  0  0  0  0
    0.2260    2.6006    3.9116 C   0  0  0  0  0  0  0  0  0  0  0  0
   -0.2399    1.9454    2.7880 C   0  0  0  0  0  0  0  0  0  0  0  0
   -1.6676    1.8303    2.5353 C   0  0  0  0  0  0  0  0  0  0  0  0
   -2.4744    0.7227    2.3571 C   0  0  0  0  0  0  0  0  0  0  0  0
   -3.7768    1.2279    2.1156 C   0  0  0  0  0  0  0  0  0  0  0  0
   -3.7863    2.5631    2.2147 N   0  0  0  0  0  0  0  0  0  0  0  0
   -2.5182    2.8948    2.5049 N   0  0  0  0  0  0  0  0  0  0  0  0
   -4.8535    0.4436    1.8241 N   0  0  0  0  0  0  0  0  0  0  0  0
   -6.1662    0.9332    1.6308 C   0  0  0  0  0  0  0  0  0  0  0  0
   -6.3960    1.9164    0.6616 C   0  0  0  0  0  0  0  0  0  0  0  0
   -7.5640    2.5960    0.4978 N   0  0  0  0  0  0  0  0  0  0  0  0
   -8.5490    2.2362    1.3457 C   0  0  0  0  0  0  0  0  0  0  0  0
   -8.3927    1.1671    2.2169 C   0  0  0  0  0  0  0  0  0  0  0  0
   -7.2087    0.4898    2.3774 N   0  0  0  0  0  0  0  0  0  0  0  0
   -9.7564    3.0292    1.3151 C   0  0  0  0  0  0  0  0  0  0  0  0
  -10.7210    3.6566    1.3267 N   0  0  0  0  0  0  0  0  0  0  0  0
   -0.5800    3.2346    4.8293 O   0  0  0  0  0  0  0  0  0  0  0  0
    0.0053    3.8239    6.0330 C   0  0  0  0  0  0  0  0  0  0  0  0
    0.4122    2.8200    7.1471 C   0  0  0  0  0  0  0  0  0  0  0  0
    1.6094    1.9047    6.8509 C   0  0  0  0  0  0  0  0  0  0  0  0
    2.8862    2.6384    6.7044 N   0  0  0  0  0  0  0  0  0  0  0  0
  1  2  1  0
  2  3  1  0
  3  4  2  0
  3  8  1  0
  4  5  1  0
  5  6  2  0
  6  7  1  0
  7  8  2  0
  7 23  1  0
  8  9  1  0
  9 10  2  0
  9 13  1  0
 10 11  1  0
 11 12  2  0
 11 14  1  0
 12 13  1  0
 14 15  1  0
 15 16  2  0
 15 20  1  0
 16 17  1  0
 17 18  2  0
 18 19  1  0
 18 21  1  0
 19 20  2  0
 21 22  3  0
 23 24  1  0
 24 25  1  0
 25 26  1  0
 26 27  1  0
M  END
>  <DRUGBANK_ID>  (1) 
DB12008

>  <COMMON_NAME>  (1) 
Prexasertib

>  <CAS_NUMBER>  (1) 
1234015-52-1

>  <UNII>  (1) 
820NH671E6

>  <SYNONYMS>  (1) 
Prexasertib

$$$$
