
     RDKit          3D

 35 39  0  0  0  0  0  0  0  0999 V2000
    0.6448   -0.5778    0.2822 C   0  0  0  0  0  0  0  0  0  0  0  0
    0.4062   -0.6313    1.7407 C   0  0  0  0  0  0  0  0  0  0  0  0
    0.9644    0.4662    2.5538 N   0  0  0  0  0  0  0  0  0  0  0  0
    1.0897    0.0777    3.9213 C   0  0  0  0  0  0  0  0  0  0  0  0
    1.5458   -0.9918    4.2616 O   0  0  0  0  0  0  0  0  0  0  0  0
    0.4347    0.9682    4.7780 N   0  0  0  0  0  0  0  0  0  0  0  0
    0.7930    2.3556    4.6609 C   0  0  0  0  0  0  0  0  0  0  0  0
    0.9527    2.8107    3.2383 C   0  0  0  0  0  0  0  0  0  0  0  0
    1.1015    4.1730    2.9544 C   0  0  0  0  0  0  0  0  0  0  0  0
    1.2514    4.7411    1.7294 N   0  0  0  0  0  0  0  0  0  0  0  0
    1.2310    3.8396    0.7299 C   0  0  0  0  0  0  0  0  0  0  0  0
    1.3717    4.1585   -0.6275 N   0  0  0  0  0  0  0  0  0  0  0  0
    1.3795    3.0047   -1.3702 C   0  0  0  0  0  0  0  0  0  0  0  0
    1.5795    2.6855   -2.8216 C   0  0  0  0  0  0  0  0  0  0  0  0
    2.8042    1.9116   -3.1506 N   0  0  0  0  0  0  0  0  0  0  0  0
    3.0273    0.5272   -2.6425 C   0  0  0  0  0  0  0  0  0  0  0  0
    3.7441    0.4067   -1.2658 C   0  0  0  0  0  0  0  0  0  0  0  0
    4.9115    1.2291   -1.1935 O   0  0  0  0  0  0  0  0  0  0  0  0
    4.5299    2.5864   -1.4600 C   0  0  0  0  0  0  0  0  0  0  0  0
    4.0164    2.7001   -2.9010 C   0  0  0  0  0  0  0  0  0  0  0  0
    1.1780    2.0263   -0.4517 C   0  0  0  0  0  0  0  0  0  0  0  0
    1.0910    2.4542    0.8775 C   0  0  0  0  0  0  0  0  0  0  0  0
    0.9705    1.8769    2.1859 C   0  0  0  0  0  0  0  0  0  0  0  0
   -0.6977    0.5242    5.5473 C   0  0  0  0  0  0  0  0  0  0  0  0
   -0.5706   -0.4814    6.5163 C   0  0  0  0  0  0  0  0  0  0  0  0
    0.6541   -0.9531    6.7907 F   0  0  0  0  0  0  0  0  0  0  0  0
   -1.6766   -0.9304    7.2622 C   0  0  0  0  0  0  0  0  0  0  0  0
   -1.6739   -1.8663    8.2665 O   0  0  0  0  0  0  0  0  0  0  0  0
   -0.4179   -2.4471    8.5961 C   0  0  0  0  0  0  0  0  0  0  0  0
   -2.9453   -0.3932    7.0138 C   0  0  0  0  0  0  0  0  0  0  0  0
   -3.1161    0.5953    6.0459 C   0  0  0  0  0  0  0  0  0  0  0  0
   -4.3271    1.1609    5.7270 O   0  0  0  0  0  0  0  0  0  0  0  0
   -5.4745    0.7088    6.4501 C   0  0  0  0  0  0  0  0  0  0  0  0
   -1.9858    1.0532    5.3330 C   0  0  0  0  0  0  0  0  0  0  0  0
   -2.1571    1.9871    4.3818 F   0  0  0  0  0  0  0  0  0  0  0  0
  1  2  1  0
  2  3  1  0
  3  4  1  0
  3 23  1  0
  4  5  2  0
  4  6  1  0
  6  7  1  0
  6 24  1  0
  7  8  1  0
  8  9  1  0
  8 23  2  0
  9 10  2  0
 10 11  1  0
 11 12  1  0
 11 22  2  0
 12 13  1  0
 13 14  1  0
 13 21  2  0
 14 15  1  0
 15 16  1  0
 15 20  1  0
 16 17  1  0
 17 18  1  0
 18 19  1  0
 19 20  1  0
 21 22  1  0
 22 23  1  0
 24 25  2  0
 24 34  1  0
 25 26  1  0
 25 27  1  0
 27 28  1  0
 27 30  2  0
 28 29  1  0
 30 31  1  0
 31 32  1  0
 31 34  2  0
 32 33  1  0
 34 35  1  0
M  END
>  <DRUGBANK_ID>  (1) 
DB15102

>  <COMMON_NAME>  (1) 
Pemigatinib

>  <CAS_NUMBER>  (1) 
1513857-77-6

>  <UNII>  (1) 
Y6BX7BL23K

>  <SYNONYMS>  (1) 
INCB054828; Pemigatinib

$$$$
