
     RDKit          3D

 17 18  0  0  0  0  0  0  0  0999 V2000
    0.9434    1.4266    0.0055 C   0  0  0  0  0  0  0  0  0  0  0  0
    2.1629    0.7431   -0.0228 C   0  0  0  0  0  0  0  0  0  0  0  0
   -0.2127   -0.7320    0.0069 C   0  0  0  0  0  0  0  0  0  0  0  0
   -0.2237    0.6626    0.0037 C   0  0  0  0  0  0  0  0  0  0  0  0
    1.0323   -1.3948    0.0232 C   0  0  0  0  0  0  0  0  0  0  0  0
    2.2180   -0.6505   -0.0119 C   0  0  0  0  0  0  0  0  0  0  0  0
   -1.5367    1.0619   -0.0154 N   0  0  0  0  0  0  0  0  0  0  0  0
   -2.3503   -0.0284   -0.1261 C   0  0  0  0  0  0  0  0  0  0  0  0
   -2.9403   -2.8995    1.1974 C   0  0  0  0  0  0  0  0  0  0  0  0
   -1.5739   -1.1686   -0.0317 C   0  0  0  0  0  0  0  0  0  0  0  0
   -2.0641   -2.5847   -0.0204 C   0  0  0  0  0  0  0  0  0  0  0  0
   -5.4583   -2.5862    1.0917 C   0  0  0  0  0  0  0  0  0  0  0  0
   -4.1819   -2.1383    1.2152 N   0  0  0  0  0  0  0  0  0  0  0  0
   -6.3905   -1.7853    1.0267 O   0  0  0  0  0  0  0  0  0  0  0  0
   -5.6638   -4.0697    1.0657 C   0  0  0  0  0  0  0  0  0  0  0  0
    3.3672   -1.3974   -0.0451 O   0  0  0  0  0  0  0  0  0  0  0  0
    4.5866   -0.6656   -0.1022 C   0  0  0  0  0  0  0  0  0  0  0  0
  1  4  2  0
  2  1  1  0
  2  6  2  0
  4  3  1  0
  4  7  1  0
  5  3  2  0
  6  5  1  0
  8  7  1  0
  9 11  1  0
 10  3  1  0
 10  8  2  0
 11 10  1  0
 13  9  1  0
 13 12  1  0
 14 12  2  0
 15 12  1  0
 16  6  1  0
 16 17  1  0
M  END
>  <DRUGBANK_ID>  (1) 
DB01065

>  <SECONDARY_ACCESSION_NUMBERS>  (1) 
APRD00742; DB08189

>  <COMMON_NAME>  (1) 
Melatonin

>  <CAS_NUMBER>  (1) 
73-31-4

>  <UNII>  (1) 
JL5DK93RCL

>  <SYNONYMS>  (1) 
5-methoxy-N-acetyltryptamine; Melatonin; Melatonina; MÃ©latonine; N-[2-(5-methoxyindol-3-yl)ethyl]acetamide; N-Acetyl-5-methoxytryptamine

$$$$
