BRS
     RDKit          3D

 22 23  0  0  0  0  0  0  0  0999 V2000
    0.9351    0.0684   -0.0185 N   0  0  0  0  0  0  0  0  0  0  0  0
    0.4014   -1.0491   -0.0233 O   0  0  0  0  0  0  0  0  0  0  0  0
    0.2956    1.1288   -0.0200 O   0  0  0  0  0  0  0  0  0  0  0  0
    5.2206   -2.4257   -0.0229 N   0  0  0  0  0  0  0  0  0  0  0  0
    4.5632   -3.4764   -0.0405 O   0  0  0  0  0  0  0  0  0  0  0  0
    6.4566   -2.3686    0.0054 O   0  0  0  0  0  0  0  0  0  0  0  0
    3.0864   -1.1390   -0.0168 C   0  0  0  0  0  0  0  0  0  0  0  0
    4.4750   -1.1556   -0.0336 C   0  0  0  0  0  0  0  0  0  0  0  0
    5.1812    0.0488   -0.0557 C   0  0  0  0  0  0  0  0  0  0  0  0
    4.5388    1.3100    0.0018 C   0  0  0  0  0  0  0  0  0  0  0  0
    3.1309    1.3218   -0.0039 C   0  0  0  0  0  0  0  0  0  0  0  0
    2.4133    0.1016   -0.0139 C   0  0  0  0  0  0  0  0  0  0  0  0
    2.4281    2.4912   -0.0180 O   0  0  0  0  0  0  0  0  0  0  0  0
    5.9684    3.6791    2.3033 C   0  0  0  0  0  0  0  0  0  0  0  0
    6.2209    2.6694    1.3621 C   0  0  0  0  0  0  0  0  0  0  0  0
    7.2524    1.7558    1.6359 C   0  0  0  0  0  0  0  0  0  0  0  0
    7.9515    1.7794    2.8354 C   0  0  0  0  0  0  0  0  0  0  0  0
    7.6802    2.7754    3.7589 C   0  0  0  0  0  0  0  0  0  0  0  0
    6.7087    3.7386    3.4901 C   0  0  0  0  0  0  0  0  0  0  0  0
    8.5695    2.8202    5.2273 Cl  0  0  0  0  0  0  0  0  0  0  0  0
    5.4010    2.5772    0.0776 C   0  0  1  0  0  0  0  0  0  0  0  0
    6.2880    2.7228   -1.1621 C   0  0  0  0  0  0  0  0  0  0  0  0
  1  2  2  0
  1  3  1  0
  1 12  1  0
  4  5  1  0
  4  6  2  0
  4  8  1  0
  7  8  2  0
  7 12  1  0
  8  9  1  0
  9 10  2  0
 10 11  1  0
 10 21  1  0
 11 12  2  0
 11 13  1  0
 14 15  2  0
 14 19  1  0
 15 16  1  0
 15 21  1  0
 16 17  2  0
 17 18  1  0
 18 19  2  0
 18 20  1  0
 21 22  1  6
M  CHG  4   1   1   3  -1   4   1   5  -1
M  END
>  <DRUGBANK_ID>  (1) 
DB07490

>  <COMMON_NAME>  (1) 
2-[1-(4-CHLORO-PHENYL)-ETHYL]-4,6-DINITRO-PHENOL

$$$$
