
     RDKit          3D

 31 33  0  0  0  0  0  0  0  0999 V2000
    1.8882   -0.2912    0.4703 P   0  0  2  0  0  0  0  0  0  0  0  0
    2.6972   -1.1929   -2.0440 P   0  0  0  0  0  0  0  0  0  0  0  0
   -2.0180    2.1168    0.6746 O   0  0  0  0  0  0  0  0  0  0  0  0
   -1.4987   -0.0232   -1.5713 O   0  0  0  0  0  0  0  0  0  0  0  0
   -1.5916    1.7414   -3.0084 O   0  0  0  0  0  0  0  0  0  0  0  0
    1.5823    1.3224    0.4162 O   0  0  0  0  0  0  0  0  0  0  0  0
   -0.4355    4.4131   -0.2682 O   0  0  0  0  0  0  0  0  0  0  0  0
    3.0494   -0.8887   -0.4968 O   0  0  0  0  0  0  0  0  0  0  0  0
    0.8939   -0.4158   -0.9399 O   0  0  0  0  0  0  0  0  0  0  0  0
    2.7781   -0.1797    1.7325 O   0  0  0  0  0  0  0  0  0  0  0  0
   -3.5226    7.5704   -0.8906 O   0  0  0  0  0  0  0  0  0  0  0  0
    1.0662   -0.8927   -1.5517 O   0  0  0  0  0  0  0  0  0  0  0  0
    2.3533   -2.6780   -2.5199 O   0  0  0  0  0  0  0  0  0  0  0  0
    4.1570   -1.4616   -2.4847 O   0  0  0  0  0  0  0  0  0  0  0  0
   -2.6067    3.7902   -0.8393 N   0  0  0  0  0  0  0  0  0  0  0  0
   -1.9021    5.9773   -0.9168 N   0  0  0  0  0  0  0  0  0  0  0  0
   -0.8450    1.0167   -0.8695 C   0  0  1  0  0  0  0  0  0  0  0  0
   -1.2322    2.1510   -1.6772 C   0  0  2  0  0  0  0  0  0  0  0  0
   -0.9544    1.1707    0.6298 C   0  0  1  0  0  0  0  0  0  0  0  0
   -2.3320    2.4306   -0.7117 C   0  0  1  0  0  0  0  0  0  0  0  0
    0.4117    1.6837    1.2490 C   0  0  0  0  0  0  0  0  0  0  0  0
   -1.5727    4.6927   -0.6379 C   0  0  0  0  0  0  0  0  0  0  0  0
   -3.8320    4.1023   -1.3211 C   0  0  0  0  0  0  0  0  0  0  0  0
   -4.2054    5.3728   -1.3435 C   0  0  0  0  0  0  0  0  0  0  0  0
   -3.1894    6.3859   -1.0282 C   0  0  0  0  0  0  0  0  0  0  0  0
    0.1783   -2.3407   -1.1704 C   0  0  0  0  0  0  0  0  0  0  0  0
    0.6787   -3.6245   -1.2477 C   0  0  0  0  0  0  0  0  0  0  0  0
   -1.1079   -2.2519   -0.6199 C   0  0  0  0  0  0  0  0  0  0  0  0
   -0.2077   -4.6719   -1.4759 C   0  0  0  0  0  0  0  0  0  0  0  0
   -2.0023   -3.3161   -0.6956 C   0  0  0  0  0  0  0  0  0  0  0  0
   -1.5665   -4.5077   -1.2406 C   0  0  0  0  0  0  0  0  0  0  0  0
  1  6  1  0
  1  8  1  0
  1  9  1  0
  1 10  2  0
  2 13  1  0
  2 14  2  0
  2 12  1  0
  2  8  1  0
  3 19  1  0
  3 20  1  0
  6 21  1  0
  7 22  2  0
 11 25  2  0
 12 26  1  0
 15 22  1  0
 15 23  1  0
 16 22  1  0
 16 25  1  0
 17  4  1  6
 17 18  1  0
 17 19  1  0
 18  5  1  6
 18 20  1  0
 19 21  1  6
 20 15  1  1
 23 24  2  0
 24 25  1  0
 26 27  2  0
 26 28  1  0
 27 29  1  0
 28 30  2  0
 29 31  2  0
 30 31  1  0
M  END
>  <DRUGBANK_ID>  (1) 
DB02790

>  <SECONDARY_ACCESSION_NUMBERS>  (1) 
EXPT03199

>  <COMMON_NAME>  (1) 
Phenyl-uridine-5'-diphosphate

$$$$
