
     RDKit          3D

 26 29  0  0  0  0  0  0  0  0999 V2000
    1.0915   -0.2545    0.2860 C   0  0  0  0  0  0  0  0  0  0  0  0
    0.3373   -0.9093   -0.7722 N   0  0  0  0  0  0  0  0  0  0  0  0
   -1.1446   -1.0267   -0.5568 C   0  0  0  0  0  0  0  0  0  0  0  0
   -2.0831    0.2402   -0.5334 C   0  0  0  0  0  0  0  0  0  0  0  0
   -3.1880    0.3447   -1.4042 C   0  0  0  0  0  0  0  0  0  0  0  0
   -3.6575    1.6343   -1.8232 C   0  0  0  0  0  0  0  0  0  0  0  0
   -3.0852    2.8587   -1.3566 C   0  0  0  0  0  0  0  0  0  0  0  0
   -3.1661    4.1092   -2.2130 C   0  0  0  0  0  0  0  0  0  0  0  0
   -2.4638    5.2720   -2.2083 C   0  0  0  0  0  0  0  0  0  0  0  0
   -2.5588    6.5184   -3.0519 C   0  0  0  0  0  0  0  0  0  0  0  0
   -1.7027    7.4188   -2.8556 O   0  0  0  0  0  0  0  0  0  0  0  0
   -3.5477    6.7756   -3.9207 N   0  0  0  0  0  0  0  0  0  0  0  0
   -4.5791    5.9407   -4.3490 O   0  0  0  0  0  0  0  0  0  0  0  0
   -2.1538    2.7561   -0.3420 C   0  0  0  0  0  0  0  0  0  0  0  0
   -1.6158    1.4852   -0.0407 C   0  0  0  0  0  0  0  0  0  0  0  0
    0.9114   -0.8472   -2.1507 C   0  0  0  0  0  0  0  0  0  0  0  0
    0.7336    0.4636   -2.9797 C   0  0  0  0  0  0  0  0  0  0  0  0
   -0.7287    0.7855   -3.0231 C   0  0  0  0  0  0  0  0  0  0  0  0
   -1.0776    2.1455   -3.5398 C   0  0  0  0  0  0  0  0  0  0  0  0
   -0.2358    3.2019   -2.7999 C   0  0  0  0  0  0  0  0  0  0  0  0
    1.2366    2.9369   -2.9513 C   0  0  0  0  0  0  0  0  0  0  0  0
    1.4781    2.9437   -4.4448 C   0  0  0  0  0  0  0  0  0  0  0  0
    0.6669    1.8259   -5.1493 C   0  0  0  0  0  0  0  0  0  0  0  0
   -0.8265    2.1398   -5.0030 C   0  0  0  0  0  0  0  0  0  0  0  0
    1.0232    0.4350   -4.4913 C   0  0  0  0  0  0  0  0  0  0  0  0
    1.5745    1.5911   -2.3410 C   0  0  0  0  0  0  0  0  0  0  0  0
  1  2  1  0
  2  3  1  0
  2 16  1  0
  3  4  1  0
  4  5  2  0
  4 15  1  0
  5  6  1  0
  6  7  2  0
  7  8  1  0
  7 14  1  0
  8  9  2  0
  9 10  1  0
 10 11  2  0
 10 12  1  0
 12 13  1  0
 14 15  2  0
 16 17  1  0
 17 18  1  0
 17 25  1  0
 17 26  1  0
 18 19  1  0
 19 24  1  0
 19 20  1  0
 20 21  1  0
 21 26  1  0
 21 22  1  0
 22 23  1  0
 23 24  1  0
 23 25  1  0
M  END
>  <DRUGBANK_ID>  (1) 
DB14979

>  <COMMON_NAME>  (1) 
Martinostat

>  <CAS_NUMBER>  (1) 
1629052-58-9

>  <UNII>  (1) 
8JJC99KHGL

$$$$
