
     RDKit          3D

 24 27  0  0  0  0  0  0  0  0999 V2000
    2.5482    1.8790   -0.0465 C   0  0  0  0  0  0  0  0  0  0  0  0
   -0.5972    2.0593    0.3789 C   0  0  0  0  0  0  0  0  0  0  0  0
    3.6792   -0.2208    0.2026 C   0  0  0  0  0  0  0  0  0  0  0  0
    1.5971   -1.7556    0.2481 C   0  0  0  0  0  0  0  0  0  0  0  0
    3.9293    1.2763    0.2726 C   0  0  0  0  0  0  0  0  0  0  0  0
   -2.1090   -0.4004    0.1248 C   0  0  0  0  0  0  0  0  0  0  0  0
    0.0992   -1.7437   -0.0941 C   0  0  0  0  0  0  0  0  0  0  0  0
   -2.0281    2.1251   -0.1657 C   0  0  0  0  0  0  0  0  0  0  0  0
    4.5130   -1.0707    0.4777 O   0  0  0  0  0  0  0  0  0  0  0  0
   -2.7911    0.8220   -0.0475 C   0  0  0  0  0  0  0  0  0  0  0  0
   -2.8632   -1.5752    0.1962 C   0  0  0  0  0  0  0  0  0  0  0  0
   -4.2059    0.8281   -0.1505 C   0  0  0  0  0  0  0  0  0  0  0  0
   -4.2499   -1.5568    0.1077 C   0  0  0  0  0  0  0  0  0  0  0  0
    0.1184    0.8198   -0.1612 C   0  0  2  0  0  0  0  0  0  0  0  0
   -0.6090   -0.4473    0.3768 C   0  0  1  0  0  0  0  0  0  0  0  0
    2.2800   -0.5100   -0.2990 C   0  0  2  0  0  0  0  0  0  0  0  0
    2.3671   -0.5682   -1.8344 C   0  0  0  0  0  0  0  0  0  0  0  0
    1.5838    0.7409    0.2795 C   0  0  1  0  0  0  0  0  0  0  0  0
   -7.0422   -2.5017   -1.0790 O   0  0  0  0  0  0  0  0  0  0  0  0
   -7.0547   -2.1972    1.4154 O   0  0  0  0  0  0  0  0  0  0  0  0
   -8.7556   -1.1638    0.0140 O   0  0  0  0  0  0  0  0  0  0  0  0
   -7.2226   -1.6563    0.0801 S   0  0  0  0  0  0  0  0  0  0  0  0
   -6.3209   -0.2940   -0.0855 O   0  0  0  0  0  0  0  0  0  0  0  0
   -4.9422   -0.3611   -0.0460 C   0  0  0  0  0  0  0  0  0  0  0  0
  2  8  1  0
  3  9  2  0
  3  5  1  0
  4  7  1  0
  5  1  1  0
  6 10  2  0
  6 11  1  0
  8 10  1  0
 10 12  1  0
 11 13  2  0
 12 24  2  0
 13 24  1  0
 14 15  1  0
 14  2  1  1
 15  6  1  0
 15  7  1  6
 16  3  1  0
 16  4  1  0
 16 17  1  6
 18 14  1  0
 18 16  1  0
 18  1  1  6
 22 19  2  0
 22 20  2  0
 22 21  1  0
 22 23  1  0
 24 23  1  0
M  END
>  <DRUGBANK_ID>  (1) 
DB04574

>  <COMMON_NAME>  (1) 
Estrone sulfate

>  <CAS_NUMBER>  (1) 
481-97-0

>  <UNII>  (1) 
QTL48N278K

>  <SYNONYMS>  (1) 
Estra-1,3,5 (10)-triene-17-one-3-yl-sulfate; Estrone 3-sulfate; Estrone bisulfate; Estrone hemisulfate; Estrone hydrogen sulfate; Estrone sulphate; Estrone-3-sulphate; Estrone, hydrogen sulfate

$$$$
