
     RDKit          3D

 29 31  0  0  0  0  0  0  0  0999 V2000
    1.0949   -0.1162   -0.0517 C   0  0  0  0  0  0  0  0  0  0  0  0
   -6.2457    3.7155   -0.6744 C   0  0  0  0  0  0  0  0  0  0  0  0
   -5.4498    4.8286   -0.6110 C   0  0  0  0  0  0  0  0  0  0  0  0
   -5.6609    2.5115   -1.0150 C   0  0  0  0  0  0  0  0  0  0  0  0
   -0.4265    5.6928   -3.8184 C   0  0  0  0  0  0  0  0  0  0  0  0
    0.8498    4.8396   -3.6004 C   0  0  0  0  0  0  0  0  0  0  0  0
   -4.0507    4.6856   -0.8100 C   0  0  0  0  0  0  0  0  0  0  0  0
   -4.2813    2.3509   -1.1790 C   0  0  0  0  0  0  0  0  0  0  0  0
   -1.1844    6.1937   -2.5822 C   0  0  0  0  0  0  0  0  0  0  0  0
    0.8270    3.7989   -2.4832 C   0  0  0  0  0  0  0  0  0  0  0  0
   -1.7216    2.6813   -0.3821 C   0  0  0  0  0  0  0  0  0  0  0  0
   -1.0810    2.4626    1.5209 C   0  0  0  0  0  0  0  0  0  0  0  0
   -1.4216    5.6648   -0.0492 C   0  0  0  0  0  0  0  0  0  0  0  0
    0.6595    0.9799    0.9081 C   0  0  1  0  0  0  0  0  0  0  0  0
   -3.3623    3.3772   -1.0033 C   0  0  0  0  0  0  0  0  0  0  0  0
   -1.0126    5.2149   -1.4809 C   0  0  2  0  0  0  0  0  0  0  0  0
   -1.5670    1.2645    2.2351 C   0  0  1  0  0  0  0  0  0  0  0  0
    0.4417    4.6007   -1.2350 C   0  0  1  0  0  0  0  0  0  0  0  0
   -1.0383    4.5651    0.9068 C   0  0  1  0  0  0  0  0  0  0  0  0
    1.1649    2.5952    0.2356 C   0  0  0  0  0  0  0  0  0  0  0  0
   -3.2593    1.1016    2.8027 C   0  0  0  0  0  0  0  0  0  0  0  0
   -2.7715    3.7988    1.4185 C   0  0  0  0  0  0  0  0  0  0  0  0
   -0.8685    0.4894    1.1784 N   0  0  0  0  0  0  0  0  0  0  0  0
    0.3448    3.8558    0.0747 N   0  0  0  0  0  0  0  0  0  0  0  0
    2.3685    2.6499   -0.0825 O   0  0  0  0  0  0  0  0  0  0  0  0
   -3.4484    0.8116    3.9908 O   0  0  0  0  0  0  0  0  0  0  0  0
   -4.4494    1.3222    2.1185 O   0  0  0  0  0  0  0  0  0  0  0  0
   -3.4551    4.2028    2.2979 O   0  0  0  0  0  0  0  0  0  0  0  0
   -3.1739    2.4331    0.9885 O   0  0  0  0  0  0  0  0  0  0  0  0
  3  2  2  0
  4  2  1  0
  6  5  1  0
  7  3  1  0
  8  4  2  0
  9  5  1  0
 10  6  1  0
 12 11  1  0
 14  1  1  6
 14 20  1  0
 14 23  1  0
 15  7  2  0
 15  8  1  0
 15 11  1  0
 16  9  1  6
 16 13  1  0
 16 18  1  0
 17 12  1  6
 17 21  1  0
 17 23  1  0
 18 10  1  6
 18 24  1  0
 19 13  1  0
 19 24  1  0
 19 22  1  6
 24 20  1  0
 25 20  2  0
 26 21  2  0
 27 21  1  0
 28 22  2  0
 29 22  1  0
M  END
>  <DRUGBANK_ID>  (1) 
DB14209

>  <COMMON_NAME>  (1) 
Trandolaprilat

>  <CAS_NUMBER>  (1) 
87679-71-8

>  <UNII>  (1) 
RR6866VL0O

>  <SYNONYMS>  (1) 
Trandolapril diacid; Trandolaprilat; Trandolaprilate; Trandolaprilatum

$$$$
