
     RDKit          3D

 41 41  0  0  0  0  0  0  0  0999 V2000
    1.0992   -0.0415    0.0297 C   0  0  0  0  0  0  0  0  0  0  0  0
    0.6518    1.3346    0.4944 C   0  0  0  0  0  0  0  0  0  0  0  0
    1.1519    2.4081   -0.4727 C   0  0  0  0  0  0  0  0  0  0  0  0
    0.6008    2.1780   -1.8842 C   0  0  0  0  0  0  0  0  0  0  0  0
   -0.9312    2.1940   -1.8701 C   0  0  0  0  0  0  0  0  0  0  0  0
   -1.4257    3.5545   -1.3765 C   0  0  0  0  0  0  0  0  0  0  0  0
   -0.8979    4.6469   -2.3108 C   0  0  0  0  0  0  0  0  0  0  0  0
   -1.4202    4.3848   -3.7280 C   0  0  0  0  0  0  0  0  0  0  0  0
   -2.9487    4.3988   -3.6788 C   0  0  0  0  0  0  0  0  0  0  0  0
   -3.3821    5.7378   -3.0539 C   0  0  0  0  0  0  0  0  0  0  0  0
   -2.7555    6.9053   -3.8384 C   0  0  0  0  0  0  0  0  0  0  0  0
   -3.1652    6.7773   -5.2590 C   0  0  0  0  0  0  0  0  0  0  0  0
   -4.6518    6.8950   -5.1694 C   0  0  0  0  0  0  0  0  0  0  0  0
   -5.2263    8.2821   -4.9855 C   0  0  0  0  0  0  0  0  0  0  0  0
   -4.8642    9.1602   -6.1680 C   0  0  0  0  0  0  0  0  0  0  0  0
   -5.4846    8.8452   -7.5688 C   0  0  0  0  0  0  0  0  0  0  0  0
   -6.2780    9.6599   -8.0554 O   0  0  0  0  0  0  0  0  0  0  0  0
   -5.2334    7.7349   -8.3386 N   0  0  0  0  0  0  0  0  0  0  0  0
   -4.4631    6.5395   -8.0690 C   0  0  0  0  0  0  0  0  0  0  0  0
   -5.2499    5.1994   -7.6552 C   0  0  0  0  0  0  0  0  0  0  0  0
   -4.7194    4.1084   -7.9130 O   0  0  0  0  0  0  0  0  0  0  0  0
   -6.3963    5.1515   -6.8614 N   0  0  0  0  0  0  0  0  0  0  0  0
   -7.2227    6.1794   -6.1011 C   0  0  1  0  0  0  0  0  0  0  0  0
   -8.4700    6.6260   -6.8490 C   0  0  0  0  0  0  0  0  0  0  0  0
   -9.4562    5.5730   -7.1523 C   0  0  0  0  0  0  0  0  0  0  0  0
  -10.8062    5.6773   -6.9401 C   0  0  0  0  0  0  0  0  0  0  0  0
  -11.2348    4.3749   -6.7829 N   0  0  0  0  0  0  0  0  0  0  0  0
  -10.1689    3.5602   -7.0476 C   0  0  0  0  0  0  0  0  0  0  0  0
   -9.1056    4.2581   -7.3801 N   0  0  0  0  0  0  0  0  0  0  0  0
   -7.3139    6.0976   -4.3845 C   0  0  0  0  0  0  0  0  0  0  0  0
   -6.9377    6.9468   -3.5714 O   0  0  0  0  0  0  0  0  0  0  0  0
   -7.8013    5.0264   -3.7235 N   0  0  0  0  0  0  0  0  0  0  0  0
   -8.7491    4.2069   -4.3535 C   0  0  1  0  0  0  0  0  0  0  0  0
   -8.1824    2.7741   -4.4197 C   0  0  0  0  0  0  0  0  0  0  0  0
   -8.3214    2.0603   -3.0962 C   0  0  0  0  0  0  0  0  0  0  0  0
   -9.7892    1.9316   -2.7439 C   0  0  0  0  0  0  0  0  0  0  0  0
  -10.7215    1.3711   -3.8041 C   0  0  0  0  0  0  0  0  0  0  0  0
  -10.4057   -0.0329   -3.8572 N   0  0  0  0  0  0  0  0  0  0  0  0
  -10.1991    4.7915   -3.9079 C   0  0  0  0  0  0  0  0  0  0  0  0
  -11.0399    5.3601   -4.5334 O   0  0  0  0  0  0  0  0  0  0  0  0
  -10.6154    4.6477   -2.6431 O   0  0  0  0  0  0  0  0  0  0  0  0
  1  2  1  0
  2  3  1  0
  3  4  1  0
  4  5  1  0
  5  6  1  0
  6  7  1  0
  7  8  1  0
  8  9  1  0
  9 10  1  0
 10 11  1  0
 11 12  1  0
 12 13  1  0
 13 14  1  0
 14 15  1  0
 15 16  1  0
 16 17  2  0
 16 18  1  0
 18 19  1  0
 19 20  1  0
 20 21  2  0
 20 22  1  0
 23 22  1  0
 23 24  1  6
 23 30  1  0
 24 25  1  0
 25 26  2  0
 25 29  1  0
 26 27  1  0
 27 28  1  0
 28 29  2  0
 30 31  2  0
 30 32  1  0
 33 32  1  0
 33 34  1  1
 33 39  1  0
 34 35  1  0
 35 36  1  0
 36 37  1  0
 37 38  1  0
 39 40  2  0
 39 41  1  0
M  END
>  <DRUGBANK_ID>  (1) 
DB11297

>  <COMMON_NAME>  (1) 
Palmitoyl oligopeptide

>  <CAS_NUMBER>  (1) 
147732-56-7

>  <UNII>  (1) 
RV743D216M

>  <SYNONYMS>  (1) 
Palmitoyl oligopeptide; Palmitoyl tripeptide-1

$$$$
