AXA
     RDKit          3D

 33 37  0  0  0  0  0  0  0  0999 V2000
   -1.3738   -1.5252   -0.0141 C   0  0  0  0  0  0  0  0  0  0  0  0
   -0.3098   -0.6305    0.0225 C   0  0  0  0  0  0  0  0  0  0  0  0
    0.9963   -1.1153    0.0683 N   0  0  0  0  0  0  0  0  0  0  0  0
    2.0684   -0.2688   -0.0028 C   0  0  0  0  0  0  0  0  0  0  0  0
    3.2216   -0.6859    0.0625 O   0  0  0  0  0  0  0  0  0  0  0  0
    1.7166    1.1939   -0.2685 C   0  0  0  0  0  0  0  0  0  0  0  0
    0.4448    1.6814    0.1267 O   0  0  0  0  0  0  0  0  0  0  0  0
   -0.5482    0.7470    0.0436 C   0  0  0  0  0  0  0  0  0  0  0  0
   -1.8503    1.2358    0.0423 C   0  0  0  0  0  0  0  0  0  0  0  0
   -2.9187    0.3477    0.0114 C   0  0  0  0  0  0  0  0  0  0  0  0
   -2.6866   -1.0363   -0.0088 C   0  0  0  0  0  0  0  0  0  0  0  0
   -3.8423   -1.9804   -0.0975 C   0  0  0  0  0  0  0  0  0  0  0  0
   -4.7574   -1.8228    1.0091 N   0  0  0  0  0  0  0  0  0  0  0  0
   -6.0679   -1.4168    0.9917 C   0  0  0  0  0  0  0  0  0  0  0  0
   -6.7115   -1.2954    2.0263 O   0  0  0  0  0  0  0  0  0  0  0  0
   -6.7593   -1.1797   -0.3439 C   0  0  0  0  0  0  0  0  0  0  0  0
   -7.4132   -0.0778   -0.5588 N   0  0  0  0  0  0  0  0  0  0  0  0
   -6.6596   -2.2170   -1.2463 N   0  0  0  0  0  0  0  0  0  0  0  0
   -7.2733   -2.2072   -2.4722 C   0  0  0  0  0  0  0  0  0  0  0  0
   -7.1289   -3.1362   -3.2480 O   0  0  0  0  0  0  0  0  0  0  0  0
   -7.9864   -0.9726   -2.7655 C   0  0  0  0  0  0  0  0  0  0  0  0
   -8.5190   -0.4882   -4.0130 C   0  0  0  0  0  0  0  0  0  0  0  0
   -8.0168   -0.0097   -1.7761 C   0  0  0  0  0  0  0  0  0  0  0  0
   -8.8876    1.3725   -2.2717 S   0  0  0  0  0  0  0  0  0  0  0  0
   -9.1078    0.7533   -3.8438 C   0  0  0  0  0  0  0  0  0  0  0  0
   -9.8612    1.5112   -4.8973 C   0  0  0  0  0  0  0  0  0  0  0  0
   -9.5034    0.9923   -6.2962 C   0  0  0  0  0  0  0  0  0  0  0  0
   -9.4871   -0.5463   -6.3363 C   0  0  0  0  0  0  0  0  0  0  0  0
   -8.4214   -1.1525   -5.3741 C   0  0  1  0  0  0  0  0  0  0  0  0
   -7.0285   -0.9898   -6.0319 C   0  0  0  0  0  0  0  0  0  0  0  0
   -5.8532   -1.5623   -5.2724 C   0  0  0  0  0  0  0  0  0  0  0  0
   -5.2791   -2.5976   -5.5895 O   0  0  0  0  0  0  0  0  0  0  0  0
   -5.4207   -0.8410   -4.1959 N   0  0  0  0  0  0  0  0  0  0  0  0
  1  2  2  0
  1 11  1  0
  2  3  1  0
  2  8  1  0
  3  4  1  0
  4  5  2  0
  4  6  1  0
  6  7  1  0
  7  8  1  0
  8  9  2  0
  9 10  1  0
 10 11  2  0
 11 12  1  0
 12 13  1  0
 13 14  1  0
 14 15  2  0
 14 16  1  0
 16 17  2  0
 16 18  1  0
 17 23  1  0
 18 19  1  0
 19 20  2  0
 19 21  1  0
 21 22  1  0
 21 23  2  0
 22 25  2  0
 22 29  1  0
 23 24  1  0
 24 25  1  0
 25 26  1  0
 26 27  1  0
 27 28  1  0
 28 29  1  0
 29 30  1  6
 30 31  1  0
 31 32  2  0
 31 33  1  0
M  END
>  <DRUGBANK_ID>  (1) 
DB07397

>  <COMMON_NAME>  (1) 
(5S)-5-(2-amino-2-oxoethyl)-4-oxo-N-[(3-oxo-3,4-dihydro-2H-1,4-benzoxazin-6-yl)methyl]-3,4,5,6,7,8-hexahydro[1]benzothieno[2,3-d]pyrimidine-2-carboxamide

$$$$
