
     RDKit          3D

 11 10  0  0  1  0  0  0  0  0999 V2000
    1.0323    0.0705    0.0631 N   0  0  0  0  0  0  0  0  0  0  0  0
    0.5423   -0.7415   -1.0600 C   0  0  1  0  0  0  0  0  0  0  0  0
    1.0490   -2.1671   -0.9135 C   0  0  0  0  0  0  0  0  0  0  0  0
    0.4457   -2.8648    0.6438 S   0  0  0  0  0  0  0  0  0  0  0  0
    1.1923   -1.6274    2.3552 As  0  0  0  0  0  5  0  0  0  0  0  0
    3.0423   -1.6274    2.3552 O   0  0  0  0  0  0  0  0  0  0  0  0
    0.5757    0.1076    2.1770 O   0  0  0  0  0  0  0  0  0  0  0  0
    0.6404   -2.2657    3.7799 O   0  0  0  0  0  0  0  0  0  0  0  0
   -0.9777   -0.7415   -1.0600 C   0  0  0  0  0  0  0  0  0  0  0  0
   -1.6877   -0.2387   -2.1823 O   0  0  0  0  0  0  0  0  0  0  0  0
   -1.6131   -1.1915   -0.0556 O   0  0  0  0  0  0  0  0  0  0  0  0
  2  1  1  1
  2  3  1  0
  2  9  1  0
  3  4  1  0
  4  5  1  0
  5  6  1  0
  5  7  1  0
  5  8  2  0
  9 10  1  0
  9 11  2  0
M  END
>  <DRUGBANK_ID>  (1) 
DB03352

>  <SECONDARY_ACCESSION_NUMBERS>  (1) 
EXPT01037

>  <COMMON_NAME>  (1) 
S-Arsonocysteine

>  <SYNONYMS>  (1) 
S-Arsono-L-cysteine; S-Arsonocysteine

$$$$
