
     RDKit          3D

 11 11  0  0  0  0  0  0  0  0999 V2000
    1.0034   -0.0924   -0.0833 C   0  0  0  0  0  0  0  0  0  0  0  0
    0.6101    1.0328   -1.0279 C   0  0  0  0  0  0  0  0  0  0  0  0
    0.4563   -1.5140   -0.4477 C   0  0  0  0  0  0  0  0  0  0  0  0
    1.0152   -2.5680    0.4176 N   0  0  0  0  0  0  0  0  0  0  0  0
    0.6184    0.2840    1.2454 O   0  0  0  0  0  0  0  0  0  0  0  0
   -0.2473    0.8578   -2.1243 C   0  0  0  0  0  0  0  0  0  0  0  0
    1.0999    2.3269   -0.7867 C   0  0  0  0  0  0  0  0  0  0  0  0
   -1.0711   -1.6475   -0.3359 C   0  0  0  0  0  0  0  0  0  0  0  0
    0.6695    3.4062   -1.5609 C   0  0  0  0  0  0  0  0  0  0  0  0
   -0.7171    1.9365   -2.8660 C   0  0  0  0  0  0  0  0  0  0  0  0
   -0.2536    3.2154   -2.5858 C   0  0  0  0  0  0  0  0  0  0  0  0
  2  1  1  0
  3  1  1  0
  4  3  1  0
  5  1  1  0
  6  2  2  0
  7  2  1  0
  8  3  1  0
  9  7  2  0
 10  6  1  0
 11 10  2  0
 11  9  1  0
M  END
>  <DRUGBANK_ID>  (1) 
DB00397

>  <SECONDARY_ACCESSION_NUMBERS>  (1) 
APRD00457; DB09441

>  <COMMON_NAME>  (1) 
Phenylpropanolamine

>  <CAS_NUMBER>  (1) 
14838-15-4

>  <UNII>  (1) 
33RU150WUN

>  <SYNONYMS>  (1) 
(+-)-Norephedrine; (+-)-Phenylpropanolamine; Fenilpropanolamina; Norephedrine; Phenylpropanolamin; Phenylpropanolamina; Phenylpropanolamine; Ph√©nylpropanolamine; Phenylpropanolaminum; PPA

$$$$
