
     RDKit          3D

 34 39  0  0  1  0  0  0  0  0999 V2000
    0.9972   -0.1084    0.0599 C   0  0  0  0  0  0  0  0  0  0  0  0
    0.5072    0.2559   -1.2542 N   0  0  0  0  0  0  0  0  0  0  0  0
   -0.4596   -0.5577   -1.8861 C   0  0  0  0  0  0  0  0  0  0  0  0
   -0.3348   -1.9474   -1.7152 C   0  0  0  0  0  0  0  0  0  0  0  0
   -1.2353   -2.8339   -2.2887 C   0  0  0  0  0  0  0  0  0  0  0  0
   -2.2879   -2.3453   -3.0454 C   0  0  0  0  0  0  0  0  0  0  0  0
   -2.4318   -0.9739   -3.2347 C   0  0  0  0  0  0  0  0  0  0  0  0
   -1.5198   -0.0719   -2.6652 C   0  0  0  0  0  0  0  0  0  0  0  0
   -1.7645    1.3675   -2.9192 C   0  0  0  0  0  0  0  0  0  0  0  0
   -0.8618    2.2453   -3.1518 N   0  0  0  0  0  0  0  0  0  0  0  0
    0.5483    1.9589   -3.0863 C   0  0  1  0  0  0  0  0  0  0  0  0
    1.0294    1.4320   -1.7559 C   0  0  0  0  0  0  0  0  0  0  0  0
    1.9608    1.9954   -1.1703 O   0  0  0  0  0  0  0  0  0  0  0  0
    1.1151    1.3855   -4.2149 N   0  0  0  0  0  0  0  0  0  0  0  0
    2.2356    2.2426   -5.0008 C   0  0  0  0  0  0  0  0  0  0  0  0
    2.4416    1.4469   -5.9628 O   0  0  0  0  0  0  0  0  0  0  0  0
    3.2363    3.7979   -4.7999 C   0  0  0  0  0  0  0  0  0  0  0  0
    3.4540    5.6865   -4.2280 C   0  0  0  0  0  0  0  0  0  0  0  0
    4.7335    5.6947   -4.0044 C   0  0  0  0  0  0  0  0  0  0  0  0
    5.1378    5.5106   -2.6582 C   0  0  0  0  0  0  0  0  0  0  0  0
    4.3657    4.4259   -2.1558 C   0  0  0  0  0  0  0  0  0  0  0  0
    2.9074    4.0464   -2.6919 C   0  0  0  0  0  0  0  0  0  0  0  0
    1.8134    4.8316   -3.8803 C   0  0  0  0  0  0  0  0  0  0  0  0
    3.4923    5.1666   -4.6511 C   0  0  0  0  0  0  0  0  0  0  0  0
    4.1843    4.3445   -5.5031 N   0  0  0  0  0  0  0  0  0  0  0  0
    3.9542    3.8979   -6.8162 C   0  0  0  0  0  0  0  0  0  0  0  0
    2.8249    4.9733   -7.0342 C   0  0  0  0  0  0  0  0  0  0  0  0
    1.5088    5.0069   -5.7155 C   0  0  0  0  0  0  0  0  0  0  0  0
   -3.1656    1.8706   -2.9021 C   0  0  0  0  0  0  0  0  0  0  0  0
   -3.6983    2.5175   -4.0203 C   0  0  0  0  0  0  0  0  0  0  0  0
   -4.9049    3.2070   -3.9061 C   0  0  0  0  0  0  0  0  0  0  0  0
   -5.6644    3.0803   -2.7485 C   0  0  0  0  0  0  0  0  0  0  0  0
   -5.2206    2.2552   -1.7160 C   0  0  0  0  0  0  0  0  0  0  0  0
   -3.9250    1.7406   -1.7413 C   0  0  0  0  0  0  0  0  0  0  0  0
  1  2  1  0
  2  3  1  0
  2 12  1  0
  3  4  2  0
  3  8  1  0
  4  5  1  0
  5  6  2  0
  6  7  1  0
  7  8  2  0
  8  9  1  0
  9 10  2  0
  9 29  1  0
 10 11  1  0
 11 12  1  0
 11 14  1  6
 12 13  2  0
 14 15  1  0
 15 16  2  0
 15 17  1  0
 17 18  2  0
 17 25  1  0
 18 19  1  0
 19 20  2  0
 19 24  1  0
 20 21  1  0
 21 22  2  0
 22 23  1  0
 23 24  2  0
 23 28  1  0
 24 25  1  0
 25 26  1  0
 26 27  1  0
 27 28  1  0
 29 30  2  0
 29 34  1  0
 30 31  1  0
 31 32  2  0
 32 33  1  0
 33 34  2  0
M  END
>  <DRUGBANK_ID>  (1) 
DB06435

>  <COMMON_NAME>  (1) 
Tarazepide

>  <CAS_NUMBER>  (1) 
141374-81-4

>  <UNII>  (1) 
RK2972YZ2U

>  <SYNONYMS>  (1) 
Tarazepide

$$$$
