
     RDKit          3D

  4  3  0  0  0  0  0  0  0  0999 V2000
    1.0616    0.0637    0.0155 C   0  0  0  0  0  0  0  0  0  0  0  0
    0.4509   -0.7276    0.7174 O   0  0  0  0  0  0  0  0  0  0  0  0
    0.5427    0.9033   -0.7291 O   0  0  0  0  0  0  0  0  0  0  0  0
    2.2929    0.1474   -0.0586 O   0  0  0  0  0  0  0  0  0  0  0  0
  2  1  2  0
  3  1  1  0
  4  1  1  0
M  CHG  2   3  -1   4  -1
M  END
>  <DRUGBANK_ID>  (1) 
DB14531

>  <COMMON_NAME>  (1) 
Carbonate ion

>  <CAS_NUMBER>  (1) 
3812-32-6

>  <UNII>  (1) 
7UJQ5OPE7D

>  <SYNONYMS>  (1) 
Carbonate

$$$$
