
     RDKit          3D

 13 13  0  0  0  0  0  0  0  0999 V2000
   -0.2810    5.0007    3.2304 C   0  0  0  0  0  0  0  0  0  0  0  0
   -0.0629    4.1416    4.3014 C   0  0  0  0  0  0  0  0  0  0  0  0
    0.0059    2.7790    4.0807 C   0  0  0  0  0  0  0  0  0  0  0  0
   -0.2082    2.2942    2.7952 C   0  0  0  0  0  0  0  0  0  0  0  0
   -0.5225    3.1161    1.7034 C   0  0  0  0  0  0  0  0  0  0  0  0
   -0.4978    4.5015    1.9343 C   0  0  0  0  0  0  0  0  0  0  0  0
   -1.0089    2.5259    0.3677 C   0  0  2  0  0  0  0  0  0  0  0  0
   -0.3553    1.1460   -0.0198 C   0  0  2  0  0  0  0  0  0  0  0  0
   -0.7346    3.4641   -0.6899 O   0  0  0  0  0  0  0  0  0  0  0  0
   -0.6550    0.6454   -1.4408 C   0  0  0  0  0  0  0  0  0  0  0  0
   -0.4846    0.0511    0.9602 N   0  0  0  0  0  0  0  0  0  0  0  0
    0.6413   -0.8642    0.9011 C   0  0  0  0  0  0  0  0  0  0  0  0
   -1.7785   -0.5991    1.0898 C   0  0  0  0  0  0  0  0  0  0  0  0
  1  2  2  0
  2  3  1  0
  3  4  2  0
  4  5  1  0
  5  6  2  0
  6  1  1  0
  7  9  1  6
  7  8  1  0
  7  5  1  0
  8 11  1  0
  8 10  1  6
 11 12  1  0
 11 13  1  0
M  END
>  <DRUGBANK_ID>  (1) 
DB11278

>  <COMMON_NAME>  (1) 
DL-Methylephedrine

>  <CAS_NUMBER>  (1) 
1201-56-5

>  <UNII>  (1) 
SHS9PGQ2LS

>  <SYNONYMS>  (1) 
(+/-)-Methylephedrine; (+/-)-N-methylephedrine; Methylephedrine, (+/-)-; Methylephedrine, DL-; N-methylephedrine DL-form

$$$$
