383
     RDKit          3D

 25 27  0  0  1  0  0  0  0  0999 V2000
    1.2591    0.0029    0.2014 O   0  0  0  0  0  0  0  0  0  0  0  0
   -1.6181   -0.2175    0.1912 O   0  0  0  0  0  0  0  0  0  0  0  0
   -1.8085    1.1841    1.8732 O   0  0  0  0  0  0  0  0  0  0  0  0
   -0.7271    1.8712   -1.8062 N   0  0  0  0  0  0  0  0  0  0  0  0
    0.7522    0.1697   -2.5231 N   0  0  0  0  0  0  0  0  0  0  0  0
    0.9510    0.0573    2.4854 C   0  0  0  0  0  0  0  0  0  0  0  0
    0.6730   -1.4560    2.3619 C   0  0  0  0  0  0  0  0  0  0  0  0
    0.2867    0.6956    3.7114 C   0  0  0  0  0  0  0  0  0  0  0  0
    0.5367    0.7560    1.1721 C   0  0  0  0  0  0  0  0  0  0  0  0
    0.9602   -2.1732    3.6586 C   0  0  0  0  0  0  0  0  0  0  0  0
    0.5574   -0.0655    4.9828 C   0  0  0  0  0  0  0  0  0  0  0  0
    0.1874   -1.5344    4.8032 C   0  0  0  0  0  0  0  0  0  0  0  0
    1.0395    2.2255    1.1722 C   0  0  0  0  0  0  0  0  0  0  0  0
   -1.0464    0.6059    1.1094 C   0  0  0  0  0  0  0  0  0  0  0  0
    0.1826    3.3363    1.0751 C   0  0  0  0  0  0  0  0  0  0  0  0
    2.4022    2.5178    1.3579 C   0  0  0  0  0  0  0  0  0  0  0  0
   -0.9983   -0.5580   -1.0411 C   0  0  0  0  0  0  0  0  0  0  0  0
    0.6452    4.6523    1.0377 C   0  0  0  0  0  0  0  0  0  0  0  0
    2.8500    3.8390    1.4801 C   0  0  0  0  0  0  0  0  0  0  0  0
   -0.2755    0.5650   -1.8542 C   0  0  0  0  0  0  0  0  0  0  0  0
    0.0946    2.9610   -2.2852 C   0  0  0  0  0  0  0  0  0  0  0  0
    1.2416    2.5647   -3.1691 C   0  0  0  0  0  0  0  0  0  0  0  0
    1.9831    4.9059    1.2670 C   0  0  0  0  0  0  0  0  0  0  0  0
    1.5840    1.0980   -3.2639 C   0  0  0  0  0  0  0  0  0  0  0  0
   -1.9619    2.3045   -1.1703 C   0  0  0  0  0  0  0  0  0  0  0  0
  1  9  1  0
  2 14  1  0
  2 17  1  0
  3 14  2  0
  4 20  1  0
  4 21  1  0
  4 25  1  0
  5 20  2  0
  5 24  1  0
  6  7  1  0
  6  8  1  0
  6  9  1  0
  7 10  1  0
  8 11  1  0
  9 13  1  0
  9 14  1  0
 10 12  1  0
 11 12  1  0
 13 15  2  0
 13 16  1  0
 15 18  1  0
 16 19  2  0
 17 20  1  0
 18 23  2  0
 19 23  1  0
 21 22  1  0
 22 24  1  0
M  END
>  <DRUGBANK_ID>  (1) 
DB00383

>  <SECONDARY_ACCESSION_NUMBERS>  (1) 
APRD00399

>  <COMMON_NAME>  (1) 
Oxyphencyclimine

>  <CAS_NUMBER>  (1) 
125-53-1

>  <UNII>  (1) 
4V44H1O8XI

>  <SYNONYMS>  (1) 
Oxifencicliminum; Oxyphencyclimine; Oxyphencycliminum

$$$$
