
     RDKit          3D

  6  5  0  0  1  0  0  0  0  0999 V2000
    1.0779   -1.8132   -1.5202 C   0  0  0  0  0  0  0  0  0  0  0  0
    0.4191   -0.4570   -1.3301 C   0  0  2  0  0  0  0  0  0  0  0  0
    0.9322    0.0872   -0.1219 O   0  0  0  0  0  0  0  0  0  0  0  0
   -1.1180   -0.5328   -1.3397 C   0  0  0  0  0  0  0  0  0  0  0  0
   -1.8436    0.2720   -2.3925 C   0  0  0  0  0  0  0  0  0  0  0  0
   -1.7610   -1.1733   -0.5029 O   0  0  0  0  0  0  0  0  0  0  0  0
  2  4  1  0
  2  3  1  0
  2  1  1  1
  4  5  1  0
  4  6  2  0
M  END
>  <DRUGBANK_ID>  (1) 
DB02788

>  <SECONDARY_ACCESSION_NUMBERS>  (1) 
EXPT01702

>  <COMMON_NAME>  (1) 
(S)-acetoin

>  <SYNONYMS>  (1) 
(S)-2-acetoin

$$$$
