
     RDKit          3D

 37 37  0  0  0  0  0  0  0  0999 V2000
    1.0681    0.1496   -0.2728 C   0  0  0  0  0  0  0  0  0  0  0  0
    0.4766    0.4180   -1.5565 C   0  0  0  0  0  0  0  0  0  0  0  0
    1.0985   -0.5638   -2.5334 C   0  0  0  0  0  0  0  0  0  0  0  0
   -0.9538    0.3011   -1.3915 O   0  0  0  0  0  0  0  0  0  0  0  0
   -1.5305   -1.2819   -0.9983 P   0  0  0  0  0  0  0  0  0  0  0  0
   -0.5766   -2.1369   -1.7659 O   0  0  0  0  0  0  0  0  0  0  0  0
   -1.3354   -0.9106    0.7830 C   0  0  0  0  0  0  0  0  0  0  0  0
   -2.5341   -0.7280    1.5089 C   0  0  0  0  0  0  0  0  0  0  0  0
   -3.3938   -2.9062    1.8132 C   0  0  0  0  0  0  0  0  0  0  0  0
   -4.9382   -3.1607    1.4135 C   0  0  0  0  0  0  0  0  0  0  0  0
   -5.2508   -4.2980    0.8502 C   0  0  0  0  0  0  0  0  0  0  0  0
   -4.2457   -5.2153    1.0712 C   0  0  0  0  0  0  0  0  0  0  0  0
   -2.8888   -5.0610    1.5361 C   0  0  0  0  0  0  0  0  0  0  0  0
   -2.3771   -3.8881    1.8105 C   0  0  0  0  0  0  0  0  0  0  0  0
   -1.9128   -6.1120    1.8541 C   0  0  0  0  0  0  0  0  0  0  0  0
   -0.6670   -5.9690    0.9922 C   0  0  0  0  0  0  0  0  0  0  0  0
   -1.5806   -5.9406    3.3377 C   0  0  0  0  0  0  0  0  0  0  0  0
   -2.5927   -7.4094    1.6065 C   0  0  0  0  0  0  0  0  0  0  0  0
   -4.4565   -6.4772    0.7344 O   0  0  0  0  0  0  0  0  0  0  0  0
   -6.5447   -4.2937    0.1508 C   0  0  0  0  0  0  0  0  0  0  0  0
   -7.4864   -3.6090    1.1292 C   0  0  0  0  0  0  0  0  0  0  0  0
   -6.6495   -3.6603   -1.2305 C   0  0  0  0  0  0  0  0  0  0  0  0
   -6.8398   -5.7282    0.0135 C   0  0  0  0  0  0  0  0  0  0  0  0
   -0.1582   -2.0971    1.5281 P   0  0  0  0  0  0  0  0  0  0  0  0
    0.8839   -1.0600    1.4750 O   0  0  0  0  0  0  0  0  0  0  0  0
   -0.6416   -1.7448    3.1766 O   0  0  0  0  0  0  0  0  0  0  0  0
   -1.5362   -0.6723    3.4789 C   0  0  0  0  0  0  0  0  0  0  0  0
   -1.0212    0.7737    2.7651 C   0  0  0  0  0  0  0  0  0  0  0  0
   -3.1966   -1.3571    2.9202 C   0  0  0  0  0  0  0  0  0  0  0  0
    0.9546   -3.2189    2.2325 O   0  0  0  0  0  0  0  0  0  0  0  0
    2.2672   -2.6167    2.4542 C   0  0  0  0  0  0  0  0  0  0  0  0
    2.9526   -2.2434    1.1179 C   0  0  0  0  0  0  0  0  0  0  0  0
    2.1308   -1.4199    3.4329 C   0  0  0  0  0  0  0  0  0  0  0  0
   -2.1071   -2.8649   -0.6052 O   0  0  0  0  0  0  0  0  0  0  0  0
   -3.4627   -2.6894   -0.4317 C   0  0  0  0  0  0  0  0  0  0  0  0
   -3.7361   -1.6004    0.9226 C   0  0  0  0  0  0  0  0  0  0  0  0
   -4.3624   -1.9798   -1.3238 C   0  0  0  0  0  0  0  0  0  0  0  0
  1  2  1  0
  2  3  1  0
  2  4  1  0
  4  5  1  0
  5  6  2  0
  5  7  1  0
  5 34  1  0
  7  8  1  0
  7 24  1  0
  8  9  1  0
  9 10  2  0
  9 14  1  0
 10 11  1  0
 11 12  2  0
 11 20  1  0
 12 13  1  0
 12 19  1  0
 13 14  2  0
 13 15  1  0
 15 16  1  0
 15 17  1  0
 15 18  1  0
 20 21  1  0
 20 22  1  0
 20 23  1  0
 24 25  2  0
 24 26  1  0
 24 30  1  0
 26 27  1  0
 27 28  1  0
 27 29  1  0
 30 31  1  0
 31 32  1  0
 31 33  1  0
 34 35  1  0
 35 36  1  0
 35 37  1  0
M  END
>  <DRUGBANK_ID>  (1) 
DB12276

>  <COMMON_NAME>  (1) 
Apomine

>  <CAS_NUMBER>  (1) 
126411-13-0

>  <UNII>  (1) 
JQ95208805

>  <SYNONYMS>  (1) 
tetraisopropyl 2-(3,5-di-tert-butyl-4-hydroxyphenyl)ethyl-1,1-biphosphonate

$$$$
