
     RDKit          3D

 28 31  0  0  0  0  0  0  0  0999 V2000
   -1.2825    1.6801    0.2882 C   0  0  0  0  0  0  0  0  0  0  0  0
   -1.1865    3.9357    0.6214 C   0  0  0  0  0  0  0  0  0  0  0  0
    0.4030    4.4284    0.5231 C   0  0  2  0  0  0  0  0  0  0  0  0
    0.5155    3.5021   -0.5636 C   0  0  0  0  0  0  0  0  0  0  0  0
   -0.5159    2.4160   -0.0263 C   0  0  1  0  0  0  0  0  0  0  0  0
   -0.4160    1.2990   -0.8417 C   0  0  1  0  0  0  0  0  0  0  0  0
    0.9117    0.5824   -0.5292 C   0  0  1  0  0  0  0  0  0  0  0  0
   -0.1129    2.2236    1.8741 C   0  0  2  0  0  0  0  0  0  0  0  0
    1.2285    1.5982    1.9111 C   0  0  0  0  0  0  0  0  0  0  0  0
    1.2499    0.3248    1.0666 C   0  0  2  0  0  0  0  0  0  0  0  0
    2.6459   -1.0152   -0.9816 C   0  0  0  0  0  0  0  0  0  0  0  0
    1.0430   -0.7751   -1.1431 C   0  0  0  0  0  0  0  0  0  0  0  0
    2.6564   -0.1443    1.3269 C   0  0  1  0  0  0  0  0  0  0  0  0
    3.2219   -1.4146    0.7156 C   0  0  2  0  0  0  0  0  0  0  0  0
    4.8942   -0.8712    1.6080 C   0  0  1  0  0  0  0  0  0  0  0  0
    3.7747    0.8880    0.7109 C   0  0  0  0  0  0  0  0  0  0  0  0
    5.0489    0.1009    0.4951 C   0  0  0  0  0  0  0  0  0  0  0  0
    1.5257    4.0360    1.2910 O   0  0  0  0  0  0  0  0  0  0  0  0
   -1.0809    1.4163    2.5809 O   0  0  0  0  0  0  0  0  0  0  0  0
   -1.0534    1.7498   -2.1204 C   0  0  0  0  0  0  0  0  0  0  0  0
    2.4017   -2.8424    0.6287 C   0  0  0  0  0  0  0  0  0  0  0  0
    6.1127   -0.3539    2.9915 C   0  0  1  0  0  0  0  0  0  0  0  0
    6.1590   -1.3851    4.1484 C   0  0  0  0  0  0  0  0  0  0  0  0
    6.3695   -2.7438    3.5026 C   0  0  0  0  0  0  0  0  0  0  0  0
    7.7342   -3.0256    2.8329 C   0  0  0  0  0  0  0  0  0  0  0  0
    8.5297   -3.9064    3.4553 O   0  0  0  0  0  0  0  0  0  0  0  0
    8.1278   -2.5964    1.7614 O   0  0  0  0  0  0  0  0  0  0  0  0
    7.6006   -0.0477    2.5933 C   0  0  0  0  0  0  0  0  0  0  0  0
  1  2  1  0
  1  6  1  0
  2  3  1  0
  3  4  1  0
  3 18  1  1
  5  4  1  6
  5  8  1  0
  6  5  1  0
  6 20  1  6
  7  6  1  0
  7 10  1  0
  8  9  1  0
  8 19  1  6
 10  9  1  1
 10 13  1  0
 11 12  1  0
 11 14  1  0
  7 12  1  6
 13 16  1  6
 14 13  1  0
 14 21  1  1
 15 14  1  0
 15 17  1  6
 15 22  1  0
 16 17  1  0
 22 23  1  0
 22 28  1  6
 23 24  1  0
 24 25  1  0
 25 26  1  0
 25 27  2  0
M  END
>  <DRUGBANK_ID>  (1) 
DB11789

>  <COMMON_NAME>  (1) 
Hyodeoxycholic Acid

>  <CAS_NUMBER>  (1) 
83-49-8

>  <UNII>  (1) 
7A33Y6EHYK

$$$$
