192
     RDKit          3D

 23 25  0  0  0  0  0  0  0  0999 V2000
    0.9040    0.6010    0.3945 O   0  0  0  0  0  0  0  0  0  0  0  0
    3.0249   -2.6846   -0.4877 N   0  0  0  0  0  0  0  0  0  0  0  0
    2.2471   -0.3899   -1.1040 N   0  0  0  0  0  0  0  0  0  0  0  0
    3.2475    1.3162    0.1843 C   0  0  0  0  0  0  0  0  0  0  0  0
    4.5421    0.5175   -0.1980 C   0  0  0  0  0  0  0  0  0  0  0  0
    3.1088    2.5883   -0.6400 C   0  0  0  0  0  0  0  0  0  0  0  0
    3.3106    1.8471    1.6094 C   0  0  0  0  0  0  0  0  0  0  0  0
    3.1878    3.7071    0.2022 C   0  0  0  0  0  0  0  0  0  0  0  0
    3.3376    3.2572    1.5749 C   0  0  0  0  0  0  0  0  0  0  0  0
    4.7383   -0.8701    0.5705 C   0  0  0  0  0  0  0  0  0  0  0  0
    2.0223    0.5214   -0.1288 C   0  0  0  0  0  0  0  0  0  0  0  0
    3.5633   -1.9990    0.7275 C   0  0  0  0  0  0  0  0  0  0  0  0
    2.8491    2.6853   -2.0055 C   0  0  0  0  0  0  0  0  0  0  0  0
    3.3786    1.1479    2.8109 C   0  0  0  0  0  0  0  0  0  0  0  0
    3.1028    4.9665   -0.3531 C   0  0  0  0  0  0  0  0  0  0  0  0
    3.4998    3.9695    2.7488 C   0  0  0  0  0  0  0  0  0  0  0  0
    2.7502    3.9519   -2.5564 C   0  0  0  0  0  0  0  0  0  0  0  0
    3.5710    1.8676    3.9862 C   0  0  0  0  0  0  0  0  0  0  0  0
    2.8982    5.0822   -1.7382 C   0  0  0  0  0  0  0  0  0  0  0  0
    3.6410    3.2666    3.9528 C   0  0  0  0  0  0  0  0  0  0  0  0
    1.6472   -3.2856   -0.5204 C   0  0  0  0  0  0  0  0  0  0  0  0
    0.4558   -2.4353    0.0118 C   0  0  0  0  0  0  0  0  0  0  0  0
    1.2963   -3.5725   -2.0078 C   0  0  0  0  0  0  0  0  0  0  0  0
  1 11  2  0
  2 12  1  0
  2 21  1  0
  3 11  1  0
  4  5  1  0
  4  6  1  0
  4  7  1  0
  4 11  1  0
  5 10  1  0
  6  8  2  0
  6 13  1  0
  7  9  2  0
  7 14  1  0
  8  9  1  0
  8 15  1  0
  9 16  1  0
 10 12  1  0
 13 17  2  0
 14 18  2  0
 15 19  2  0
 16 20  2  0
 17 19  1  0
 18 20  1  0
 21 22  1  0
 21 23  1  0
M  END
>  <DRUGBANK_ID>  (1) 
DB00192

>  <SECONDARY_ACCESSION_NUMBERS>  (1) 
APRD01032

>  <COMMON_NAME>  (1) 
Indecainide

>  <CAS_NUMBER>  (1) 
74517-78-5

>  <UNII>  (1) 
3AZF20DM1T

>  <SYNONYMS>  (1) 
Indecainida; Indecainide; Indecainidum

$$$$
