
     RDKit          3D

 26 30  0  0  0  0  0  0  0  0999 V2000
   -1.0344   -2.0769   -0.8572 C   0  0  0  0  0  0  0  0  0  0  0  0
   -2.1811   -8.8926    1.7827 C   0  0  0  0  0  0  0  0  0  0  0  0
   -3.0259   -8.3104    2.7135 C   0  0  0  0  0  0  0  0  0  0  0  0
   -0.9487   -8.3116    1.5025 C   0  0  0  0  0  0  0  0  0  0  0  0
   -2.6400   -7.1588    3.3756 C   0  0  0  0  0  0  0  0  0  0  0  0
   -0.5399   -7.1748    2.2042 C   0  0  0  0  0  0  0  0  0  0  0  0
    1.2435    1.5077    1.2015 C   0  0  0  0  0  0  0  0  0  0  0  0
   -0.1312    1.5383    1.9040 C   0  0  0  0  0  0  0  0  0  0  0  0
   -0.7188   -3.3469    1.7535 C   0  0  0  0  0  0  0  0  0  0  0  0
    1.5519   -2.6643    1.2691 C   0  0  0  0  0  0  0  0  0  0  0  0
   -0.6024    0.2030   -0.2187 C   0  0  0  0  0  0  0  0  0  0  0  0
   -1.9017   -4.8024    5.0587 C   0  0  0  0  0  0  0  0  0  0  0  0
   -0.0404    1.4754    0.4325 C   0  0  0  0  0  0  0  0  0  0  0  0
   -1.3921   -6.5750    3.1615 C   0  0  0  0  0  0  0  0  0  0  0  0
    0.7142   -3.3956    2.2833 C   0  0  2  0  0  0  0  0  0  0  0  0
   -1.0716   -5.2570    3.8544 C   0  0  2  0  0  0  0  0  0  0  0  0
   -1.3622   -1.9254    1.6285 C   0  0  1  0  0  0  0  0  0  0  0  0
    0.8422   -1.3315    1.1379 C   0  0  2  0  0  0  0  0  0  0  0  0
   -1.0643   -1.0714    2.8063 C   0  0  2  0  0  0  0  0  0  0  0  0
    0.5001   -0.7314    2.6151 C   0  0  1  0  0  0  0  0  0  0  0  0
    0.4676   -5.0763    3.9841 C   0  0  0  0  0  0  0  0  0  0  0  0
   -0.5338   -1.3135    0.3997 N   0  0  1  0  0  0  0  0  0  0  0  0
   -1.3762   -5.2046    6.2890 O   0  0  0  0  0  0  0  0  0  0  0  0
    1.0748   -5.5415    4.9007 O   0  0  0  0  0  0  0  0  0  0  0  0
    1.1226   -4.6451    2.8127 O   0  0  0  0  0  0  0  0  0  0  0  0
   -0.1096   -1.3969    3.7428 O   0  0  0  0  0  0  0  0  0  0  0  0
  3  2  2  0
  4  2  1  0
  5  3  1  0
  6  4  2  0
  8  7  1  0
 13  7  1  0
 13  8  1  0
 13 11  1  0
 14  5  2  0
 14  6  1  0
 15  9  1  0
 15 10  1  0
 15 25  1  6
 16 14  1  0
 16 12  1  1
 17  9  1  1
 18 10  1  1
 19 17  1  0
 20 18  1  0
 20 19  1  0
 21 16  1  0
 22 17  1  0
 22 18  1  0
 22  1  1  6
 22 11  1  0
 23 12  1  0
 24 21  2  0
 25 21  1  0
 19 26  1  1
 20 26  1  1
M  CHG  1  22   1
M  END
>  <DRUGBANK_ID>  (1) 
DB09271

>  <COMMON_NAME>  (1) 
Cimetropium

>  <CAS_NUMBER>  (1) 
150521-16-7

>  <UNII>  (1) 
1N3H74AYTK

>  <SYNONYMS>  (1) 
Cimetropium cation; Cimetropium ion

$$$$
