
     RDKit          3D

 14 14  0  0  0  0  0  0  0  0999 V2000
    1.3440   -0.2250    0.0360 C   0  0  0  0  0  0  0  0  0  0  0  0
    0.5020   -1.2510   -0.0040 C   0  0  0  0  0  0  0  0  0  0  0  0
    0.8920    1.0800   -0.0700 C   0  0  0  0  0  0  0  0  0  0  0  0
    3.2529   -0.5619    0.2480 As  0  0  0  0  0  5  0  0  0  0  0  0
   -0.8560   -1.0420    0.0030 C   0  0  0  0  0  0  0  0  0  0  0  0
   -0.5090    1.2150    0.0750 C   0  0  0  0  0  0  0  0  0  0  0  0
    4.1653    0.1213   -1.2092 O   0  0  0  0  0  0  0  0  0  0  0  0
    3.8560    0.2580    1.7928 O   0  0  0  0  0  0  0  0  0  0  0  0
    3.5176   -2.1932    0.3495 O   0  0  0  0  0  0  0  0  0  0  0  0
   -1.3730    0.2230   -0.0410 C   0  0  0  0  0  0  0  0  0  0  0  0
   -2.8131    0.4658   -0.2084 N   0  0  0  0  0  0  0  0  0  0  0  0
   -3.3264    1.8426   -0.2505 C   0  0  0  0  0  0  0  0  0  0  0  0
   -4.7665    2.0854   -0.4179 N   0  0  0  0  0  0  0  0  0  0  0  0
   -2.5251    2.8231   -0.1420 O   0  0  0  0  0  0  0  0  0  0  0  0
  1  2  2  0
  1  3  1  0
  1  4  1  0
  2  5  1  0
  3  6  2  0
  4  7  1  0
  4  8  1  0
  4  9  2  0
  5 10  2  0
  6 10  1  0
 10 11  1  0
 11 12  1  0
 12 13  1  0
 12 14  2  0
M  END
>  <DRUGBANK_ID>  (1) 
DB11382

>  <COMMON_NAME>  (1) 
Carbarsone

>  <CAS_NUMBER>  (1) 
121-59-5

>  <UNII>  (1) 
8PK70TXE1T

>  <SYNONYMS>  (1) 
Carbarson; Carbarsone; Carbarsonum; Pentarsone; Phenarsone

$$$$
