
     RDKit          3D

 12 11  0  0  0  0  0  0  0  0999 V2000
    0.9899   -0.2891    0.1170 C   0  0  0  0  0  0  0  0  0  0  0  0
    1.0020   -2.8812   -1.3460 C   0  0  0  0  0  0  0  0  0  0  0  0
   -1.4925   -1.0819   -1.5048 C   0  0  0  0  0  0  0  0  0  0  0  0
    0.5379    1.1621   -3.2844 C   0  0  0  0  0  0  0  0  0  0  0  0
    1.0611   -0.2638   -3.0307 C   0  0  0  0  0  0  0  0  0  0  0  0
    1.0285    2.2106   -2.3111 C   0  0  0  0  0  0  0  0  0  0  0  0
    2.5679   -0.3273   -3.1292 C   0  0  0  0  0  0  0  0  0  0  0  0
    1.9512    2.9779   -2.4808 O   0  0  0  0  0  0  0  0  0  0  0  0
    0.3603    2.1826   -1.1467 O   0  0  0  0  0  0  0  0  0  0  0  0
    3.2027   -0.9364   -3.9732 O   0  0  0  0  0  0  0  0  0  0  0  0
    3.1912    0.3572   -2.1551 O   0  0  0  0  0  0  0  0  0  0  0  0
    0.3778   -1.1254   -1.4454 Si  0  0  0  0  0  4  0  0  0  0  0  0
  5  4  1  0
  6  4  1  0
  7  5  1  0
  8  6  2  0
  9  6  1  0
 10  7  2  0
 11  7  1  0
 12  1  1  0
 12  2  1  0
 12  3  1  0
 12  5  1  0
M  END
>  <DRUGBANK_ID>  (1) 
DB03452

>  <SECONDARY_ACCESSION_NUMBERS>  (1) 
EXPT02910

>  <COMMON_NAME>  (1) 
3-Trimethylsilylsuccinic Acid

$$$$
