
     RDKit          3D

 27 29  0  0  0  0  0  0  0  0999 V2000
    1.1497   -0.2553    0.1357 N   0  0  0  0  0  0  0  0  0  0  0  0
    0.3040    0.7849   -0.2117 C   0  0  0  0  0  0  0  0  0  0  0  0
    0.8662    1.7804   -0.9523 N   0  0  0  0  0  0  0  0  0  0  0  0
    0.0039    2.5054   -1.6571 C   0  0  0  0  0  0  0  0  0  0  0  0
   -1.4274    2.2920   -1.6721 N   0  0  0  0  0  0  0  0  0  0  0  0
   -2.0467    1.6853   -0.4645 C   0  0  0  0  0  0  0  0  0  0  0  0
   -1.0997    0.8879    0.2621 C   0  0  0  0  0  0  0  0  0  0  0  0
   -1.6473    0.4117    1.3898 N   0  0  0  0  0  0  0  0  0  0  0  0
   -2.8693    0.9170    1.5289 C   0  0  0  0  0  0  0  0  0  0  0  0
   -3.4424    2.1588    0.5592 N   0  0  0  0  0  0  0  0  0  0  0  0
   -4.5038    3.7331    1.1042 C   0  0  2  0  0  0  0  0  0  0  0  0
   -5.0997    4.4013    0.1129 O   0  0  0  0  0  0  0  0  0  0  0  0
   -4.8749    5.8295    0.3335 C   0  0  1  0  0  0  0  0  0  0  0  0
   -4.2999    6.4907    1.8201 C   0  0  1  0  0  0  0  0  0  0  0  0
   -5.2214    6.6024    2.8876 O   0  0  0  0  0  0  0  0  0  0  0  0
   -3.7380    5.3443    2.4377 C   0  0  1  0  0  0  0  0  0  0  0  0
   -3.1578    5.5188    4.0440 O   0  0  0  0  0  0  0  0  0  0  0  0
   -3.1152    4.7425   -1.3208 O   0  0  0  0  0  0  0  0  0  0  0  0
   -0.8948    5.0482   -0.8489 O   0  0  0  0  0  0  0  0  0  0  0  0
   -1.8934    3.9727   -0.3683 P   0  0  2  0  0  0  0  0  0  0  0  0
   -0.6715    3.2028    0.5843 O   0  0  0  0  0  0  0  0  0  0  0  0
   -1.7537    3.2899    2.9651 O   0  0  0  0  0  0  0  0  0  0  0  0
   -3.1188    3.3812    2.2923 P   0  0  0  0  0  0  0  0  0  0  0  0
   -3.6023    2.1226    3.3764 O   0  0  0  0  0  0  0  0  0  0  0  0
   -4.4259    3.9839    3.6112 O   0  0  0  0  0  0  0  0  0  0  0  0
   -3.8581    6.0522   -0.8966 C   0  0  0  0  0  0  0  0  0  0  0  0
   -2.6074    4.7124    1.1456 C   0  0  0  0  0  0  0  0  0  0  0  0
  1  2  1  0
  2  3  2  0
  2  7  1  0
  3  4  1  0
  4  5  2  0
  5  6  1  0
  6  7  2  0
  6 10  1  0
  7  8  1  0
  8  9  2  0
  9 10  1  0
 11 10  1  6
 11 12  1  0
 11 16  1  0
 12 13  1  0
 13 14  1  0
 13 26  1  6
 14 15  1  1
 14 16  1  0
 16 17  1  1
 18 20  1  0
 20 19  2  0
 20 27  1  0
 20 21  1  1
 23 22  2  0
 23 25  1  0
 23 24  1  0
 26 18  1  0
 27 23  1  0
M  END
>  <DRUGBANK_ID>  (1) 
DB03148

>  <SECONDARY_ACCESSION_NUMBERS>  (1) 
EXPT00533; EXPT00363

>  <COMMON_NAME>  (1) 
Adenosine 5'-methylenediphosphate

>  <CAS_NUMBER>  (1) 
3768-14-7

>  <UNII>  (1) 
0T2A5439OE

>  <SYNONYMS>  (1) 
Adenosine 5'-(hydrogen (phosphonomethyl)phosphonate); Adenosine, 5'-(trihydrogen methylenebis(phosphonate)); Phosphomethylphosphonic acid adenosyl ester

$$$$
