
     RDKit          3D

 24 27  0  0  0  0  0  0  0  0999 V2000
    2.5193    0.0491   -0.1807 F   0  0  0  0  0  0  0  0  0  0  0  0
   -4.1113   -1.0321   -1.3922 N   0  0  0  0  0  0  0  0  0  0  0  0
   -4.6126   -2.4584   -2.8969 N   0  0  0  0  0  0  0  0  0  0  0  0
   -3.2469   -3.1213   -1.0249 N   0  0  0  0  0  0  0  0  0  0  0  0
   -3.1137    1.0822    0.8120 N   0  0  0  0  0  0  0  0  0  0  0  0
   -5.0016   -0.3024   -2.1851 C   0  0  0  0  0  0  0  0  0  0  0  0
   -3.9766   -2.2943   -1.7783 C   0  0  0  0  0  0  0  0  0  0  0  0
   -5.2943   -1.2712   -3.1093 C   0  0  0  0  0  0  0  0  0  0  0  0
   -3.5379   -0.4321   -0.2224 C   0  0  0  0  0  0  0  0  0  0  0  0
   -5.5224    1.0409   -2.1984 C   0  0  0  0  0  0  0  0  0  0  0  0
   -6.2195   -0.9436   -4.0802 C   0  0  0  0  0  0  0  0  0  0  0  0
   -1.6628   -0.2542    0.8385 C   0  0  0  0  0  0  0  0  0  0  0  0
   -2.3224   -2.5070   -0.0999 C   0  0  0  0  0  0  0  0  0  0  0  0
   -6.4384    1.3333   -3.1945 C   0  0  0  0  0  0  0  0  0  0  0  0
   -6.7885    0.3407   -4.1041 C   0  0  0  0  0  0  0  0  0  0  0  0
   -0.8309    1.1586    0.7350 C   0  0  0  0  0  0  0  0  0  0  0  0
   -0.6406   -1.2177    1.1833 C   0  0  0  0  0  0  0  0  0  0  0  0
   -3.0961   -2.1109    1.4994 C   0  0  0  0  0  0  0  0  0  0  0  0
   -1.5045   -1.1674   -1.1339 C   0  0  0  0  0  0  0  0  0  0  0  0
    1.2708    0.0358    0.2975 C   0  0  0  0  0  0  0  0  0  0  0  0
    0.5305    1.2211    0.3475 C   0  0  0  0  0  0  0  0  0  0  0  0
    0.7248   -1.1766    0.7224 C   0  0  0  0  0  0  0  0  0  0  0  0
   -3.8092   -0.5470    1.7097 C   0  0  0  0  0  0  0  0  0  0  0  0
   -2.1442    0.6522   -0.9695 C   0  0  0  0  0  0  0  0  0  0  0  0
  1 20  1  0
  2  6  1  0
  2  7  1  0
  2  9  1  0
  3  7  2  0
  3  8  1  0
  4  7  1  0
  4 13  1  0
  5 23  1  0
  5 24  1  0
  6  8  2  0
  6 10  1  0
  8 11  1  0
  9 12  1  0
 10 14  2  0
 11 15  2  0
 12 16  2  0
 12 17  1  0
 13 18  1  0
 13 19  1  0
 14 15  1  0
 16 21  1  0
 17 22  2  0
 18 23  1  0
 19 24  1  0
 20 21  2  0
 20 22  1  0
M  END
>  <DRUGBANK_ID>  (1) 
DB06457

>  <COMMON_NAME>  (1) 
Tecastemizole

>  <CAS_NUMBER>  (1) 
75970-99-9

>  <UNII>  (1) 
W5DCO14M05

>  <SYNONYMS>  (1) 
Norastemizole; Tecastemizole

$$$$
