OA4
     RDKit          3D

 19 21  0  0  0  0  0  0  0  0999 V2000
    0.0809    0.6247    0.0744 C   0  0  0  0  0  0  0  0  0  0  0  0
    0.0657   -0.7783    0.0593 C   0  0  0  0  0  0  0  0  0  0  0  0
    1.3440   -1.3661   -0.0102 C   0  0  0  0  0  0  0  0  0  0  0  0
    2.4756   -0.6466   -0.0390 N   0  0  0  0  0  0  0  0  0  0  0  0
    2.3552    0.6758    0.0034 C   0  0  0  0  0  0  0  0  0  0  0  0
    1.2099    1.3458    0.0804 N   0  0  0  0  0  0  0  0  0  0  0  0
    1.5464   -2.7245   -0.2522 N   0  0  0  0  0  0  0  0  0  0  0  0
   -1.1178    1.3198    0.0228 C   0  0  0  0  0  0  0  0  0  0  0  0
   -2.3309    0.6559   -0.1487 C   0  0  0  0  0  0  0  0  0  0  0  0
   -2.3894   -0.7350   -0.0361 C   0  0  0  0  0  0  0  0  0  0  0  0
   -1.1953   -1.4648    0.1041 C   0  0  0  0  0  0  0  0  0  0  0  0
    3.5136    1.4021   -0.0670 N   0  0  0  0  0  0  0  0  0  0  0  0
   -5.8397   -1.9298   -0.9106 C   0  0  0  0  0  0  0  0  0  0  0  0
   -6.2185   -2.5263    0.2935 C   0  0  0  0  0  0  0  0  0  0  0  0
   -1.2569   -2.9576    0.3153 C   0  0  0  0  0  0  0  0  0  0  0  0
   -5.2930   -2.6926    1.3150 C   0  0  0  0  0  0  0  0  0  0  0  0
   -4.0678   -2.0552    1.2164 C   0  0  0  0  0  0  0  0  0  0  0  0
   -3.6921   -1.3919    0.0332 C   0  0  0  0  0  0  0  0  0  0  0  0
   -4.5576   -1.4102   -1.0612 C   0  0  0  0  0  0  0  0  0  0  0  0
  1  2  1  0
  1  6  2  0
  1  8  1  0
  2  3  2  0
  2 11  1  0
  3  4  1  0
  3  7  1  0
  4  5  2  0
  5  6  1  0
  5 12  1  0
  8  9  2  0
  9 10  1  0
 10 11  2  0
 10 18  1  0
 11 15  1  0
 13 14  2  0
 13 19  1  0
 14 16  1  0
 16 17  2  0
 17 18  1  0
 18 19  2  0
M  END
>  <DRUGBANK_ID>  (1) 
DB08317

>  <COMMON_NAME>  (1) 
5-methyl-6-phenylquinazoline-2,4-diamine

$$$$
