
     RDKit          3D

 18 17  0  0  0  0  0  0  0  0999 V2000
    1.1196    0.0097    0.0000 C   0  0  0  0  0  0  0  0  0  0  0  0
   -1.4909   -0.1862    3.9005 C   0  0  0  0  0  0  0  0  0  0  0  0
    0.6474   -0.9559    1.0845 C   0  0  0  0  0  0  0  0  0  0  0  0
   -0.9300    0.7964    2.8857 C   0  0  0  0  0  0  0  0  0  0  0  0
    1.1536   -0.5683    2.4752 C   0  0  0  0  0  0  0  0  0  0  0  0
    0.5981    0.7517    3.0082 C   0  0  0  0  0  0  0  0  0  0  0  0
    1.1470    2.4214   -0.8615 C   0  0  0  0  0  0  0  0  0  0  0  0
   -1.4764    1.6449    5.6151 C   0  0  0  0  0  0  0  0  0  0  0  0
    0.6609    1.4551    0.1789 C   0  0  0  0  0  0  0  0  0  0  0  0
   -1.0072    0.2193    5.2946 C   0  0  0  0  0  0  0  0  0  0  0  0
   -1.0062    2.1168   -2.1464 C   0  0  0  0  0  0  0  0  0  0  0  0
   -3.5653    0.7005    6.6517 C   0  0  0  0  0  0  0  0  0  0  0  0
    0.5244    2.1074   -2.1970 C   0  0  0  0  0  0  0  0  0  0  0  0
   -3.0060    1.6956    5.6346 C   0  0  0  0  0  0  0  0  0  0  0  0
   -1.5588    3.4635   -1.7044 C   0  0  0  0  0  0  0  0  0  0  0  0
   -3.0513    1.0298    8.0439 C   0  0  0  0  0  0  0  0  0  0  0  0
   -2.3011    4.0790   -2.6509 O   0  0  0  0  0  0  0  0  0  0  0  0
   -1.3803    3.9629   -0.6140 O   0  0  0  0  0  0  0  0  0  0  0  0
  1  9  1  0
  2 10  1  0
  3  1  1  0
  4  2  1  0
  5  3  1  0
  6  4  1  0
  6  5  1  0
  7 13  1  0
  8 14  1  0
  9  7  1  0
 10  8  1  0
 11 15  1  0
 12 16  1  0
 13 11  1  0
 14 12  1  0
 15 17  1  0
 15 18  2  0
M  END
>  <DRUGBANK_ID>  (1) 
DB03796

>  <SECONDARY_ACCESSION_NUMBERS>  (1) 
EXPT01393; EXPT02607

>  <COMMON_NAME>  (1) 
Palmitic Acid

>  <CAS_NUMBER>  (1) 
57-10-3

>  <UNII>  (1) 
2V16EO95H1

>  <SYNONYMS>  (1) 
1-hexyldecanoic acid; 1-Pentadecanecarboxylic acid; Hexadecanoate; Hexadecanoic acid; Hexadecoic acid; Hexadecylic acid; Hexaectylic acid; Palmitate; Palmitic Acid; Palmitinic acid; Palmitins√§ure

$$$$
