CX6
     RDKit          3D

 18 21  0  0  0  0  0  0  0  0999 V2000
   -0.4903    1.3963    0.2115 O   0  0  0  0  0  0  0  0  0  0  0  0
   -0.1169   -2.6054   -0.3281 O   0  0  0  0  0  0  0  0  0  0  0  0
   -1.4177   -0.7145   -0.2073 N   0  0  0  0  0  0  0  0  0  0  0  0
   -1.4576    0.6694   -0.5586 C   0  0  1  0  0  0  0  0  0  0  0  0
   -2.8436    1.1707   -0.1963 C   0  0  0  0  0  0  0  0  0  0  0  0
   -3.5553    0.0130    0.4953 C   0  0  0  0  0  0  0  0  0  0  0  0
   -2.6100   -1.1815    0.4576 C   0  0  0  0  0  0  0  0  0  0  0  0
   -0.2211   -1.4036   -0.3251 C   0  0  0  0  0  0  0  0  0  0  0  0
    0.9501   -0.4498   -0.3400 C   0  0  0  0  0  0  0  0  0  0  0  0
    0.7371    0.7960    0.2224 C   0  0  0  0  0  0  0  0  0  0  0  0
    1.8313    1.4870    0.7962 C   0  0  0  0  0  0  0  0  0  0  0  0
    3.1291    0.9753    0.6572 C   0  0  0  0  0  0  0  0  0  0  0  0
    3.2239    0.3430   -0.5390 C   0  0  0  0  0  0  0  0  0  0  0  0
    2.2694   -0.7094   -0.6977 C   0  0  0  0  0  0  0  0  0  0  0  0
    4.3149    1.5652    1.0153 O   0  0  0  0  0  0  0  0  0  0  0  0
    3.0966    1.5615   -1.4875 O   0  0  0  0  0  0  0  0  0  0  0  0
    3.7521    2.8463   -0.9880 C   0  0  0  0  0  0  0  0  0  0  0  0
    4.3150    2.8636    0.4581 C   0  0  0  0  0  0  0  0  0  0  0  0
  1  4  1  0
  1 10  1  0
  2  8  2  0
  3  4  1  0
  3  7  1  0
  3  8  1  0
  4  5  1  1
  5  6  1  0
  6  7  1  0
  8  9  1  0
  9 10  2  0
  9 14  1  0
 10 11  1  0
 11 12  2  0
 12 13  1  0
 12 15  1  0
 13 14  2  0
 13 16  1  0
 15 18  1  0
 16 17  1  0
 17 18  1  0
M  END
>  <DRUGBANK_ID>  (1) 
DB07598

>  <COMMON_NAME>  (1) 
2,3,6A,7,8,9-HEXAHYDRO-11H-[1,4]DIOXINO[2,3-G]PYRROLO[2,1-B][1,3]BENZOXAZIN-11-ONE

$$$$
