
     RDKit          3D

 39 44  0  0  1  0  0  0  0  0999 V2000
   -2.0229   -0.6874   -0.0320 C   0  0  0  0  0  0  0  0  0  0  0  0
   -2.0332    0.7129   -0.0793 C   0  0  0  0  0  0  0  0  0  0  0  0
   -0.8352    1.4526   -0.0889 C   0  0  0  0  0  0  0  0  0  0  0  0
    0.3702    0.7340   -0.0512 C   0  0  0  0  0  0  0  0  0  0  0  0
    0.3765   -0.6621   -0.0142 C   0  0  0  0  0  0  0  0  0  0  0  0
   -0.8143   -1.3785   -0.0028 C   0  0  0  0  0  0  0  0  0  0  0  0
    1.5378   -1.3323    0.0196 F   0  0  0  0  0  0  0  0  0  0  0  0
    1.5417    1.3878   -0.0259 F   0  0  0  0  0  0  0  0  0  0  0  0
   -0.8390    2.9919   -0.0514 C   0  0  2  0  0  0  0  0  0  0  0  0
   -1.5350    3.3861    1.2776 C   0  0  0  0  0  0  0  0  0  0  0  0
   -1.4341    4.8502    1.6914 C   0  0  0  0  0  0  0  0  0  0  0  0
   -2.2402    5.7937    0.7952 C   0  0  2  0  0  0  0  0  0  0  0  0
   -1.4543    6.1555   -0.4658 C   0  0  0  0  0  0  0  0  0  0  0  0
   -1.0653    5.1827   -1.4158 C   0  0  0  0  0  0  0  0  0  0  0  0
   -0.2332    5.6400   -2.4612 C   0  0  0  0  0  0  0  0  0  0  0  0
    0.2104    6.9629   -2.5060 C   0  0  0  0  0  0  0  0  0  0  0  0
   -0.2200    7.8250   -1.5263 C   0  0  0  0  0  0  0  0  0  0  0  0
   -1.0734    7.4585   -0.5586 N   0  0  0  0  0  0  0  0  0  0  0  0
   -1.4970    3.7085   -1.2935 C   0  0  1  0  0  0  0  0  0  0  0  0
   -1.2954    2.9437   -2.5382 N   0  0  0  0  0  0  0  0  0  0  0  0
   -2.7599    6.9153    1.5909 O   0  0  0  0  0  0  0  0  0  0  0  0
   -1.9113    7.8133    2.1578 C   0  0  0  0  0  0  0  0  0  0  0  0
   -0.6772    7.7260    2.1556 O   0  0  0  0  0  0  0  0  0  0  0  0
   -2.5748    8.8910    2.7231 N   0  0  0  0  0  0  0  0  0  0  0  0
   -2.0258   10.2151    2.6487 C   0  0  0  0  0  0  0  0  0  0  0  0
   -1.4421   10.6634    3.9865 C   0  0  0  0  0  0  0  0  0  0  0  0
   -2.0895   10.0194    5.4174 C   0  0  0  0  0  0  0  0  0  0  0  0
   -3.1573    8.9576    5.1388 C   0  0  0  0  0  0  0  0  0  0  0  0
   -3.6411    8.7478    3.6845 C   0  0  0  0  0  0  0  0  0  0  0  0
   -1.1467    9.6509    6.8339 N   0  0  0  0  0  0  0  0  0  0  0  0
   -0.0935    8.4420    6.8991 C   0  0  0  0  0  0  0  0  0  0  0  0
    0.6341    7.6852    7.8631 C   0  0  0  0  0  0  0  0  0  0  0  0
    1.8238    6.9417    7.4446 C   0  0  0  0  0  0  0  0  0  0  0  0
    2.3551    7.1690    6.1844 C   0  0  0  0  0  0  0  0  0  0  0  0
    1.9240    8.1852    5.4654 N   0  0  0  0  0  0  0  0  0  0  0  0
    0.8624    8.7970    5.9854 C   0  0  0  0  0  0  0  0  0  0  0  0
    0.6824   10.1353    5.7200 N   0  0  0  0  0  0  0  0  0  0  0  0
   -0.1453   10.6584    6.7410 C   0  0  0  0  0  0  0  0  0  0  0  0
    0.0953   11.5507    7.5279 O   0  0  0  0  0  0  0  0  0  0  0  0
  1  2  2  0
  1  6  1  0
  2  3  1  0
  3  4  2  0
  4  5  1  0
  4  8  1  0
  5  6  2  0
  5  7  1  0
  9  3  1  6
  9 10  1  0
  9 19  1  0
 10 11  1  0
 11 12  1  0
 12 13  1  0
 12 21  1  1
 13 14  2  0
 13 18  1  0
 14 15  1  0
 14 19  1  0
 15 16  2  0
 16 17  1  0
 17 18  2  0
 19 20  1  6
 21 22  1  0
 22 23  2  0
 22 24  1  0
 24 25  1  0
 24 29  1  0
 25 26  1  0
 26 27  1  0
 27 28  1  0
 27 30  1  0
 28 29  1  0
 30 31  1  0
 30 38  1  0
 31 32  2  0
 31 36  1  0
 32 33  1  0
 33 34  2  0
 34 35  1  0
 35 36  2  0
 36 37  1  0
 37 38  1  0
 38 39  2  0
M  END
>  <DRUGBANK_ID>  (1) 
DB12457

>  <COMMON_NAME>  (1) 
Rimegepant

>  <CAS_NUMBER>  (1) 
1289023-67-1

>  <UNII>  (1) 
997WVV895X

>  <SYNONYMS>  (1) 
Rimegepant

$$$$
