
     RDKit          3D

 28 31  0  0  0  0  0  0  0  0999 V2000
   -0.9919    1.1102    0.0276 S   0  0  0  0  0  0  0  0  0  0  0  0
   -0.4077    7.3978   -1.0887 O   0  0  0  0  0  0  0  0  0  0  0  0
   -2.1555    3.5678    5.6514 O   0  0  0  0  0  0  0  0  0  0  0  0
    2.5436   -0.4237    0.0019 O   0  0  0  0  0  0  0  0  0  0  0  0
   -1.9013   -1.3506    0.0165 O   0  0  0  0  0  0  0  0  0  0  0  0
   -1.1283    6.1082    1.6512 N   0  0  0  0  0  0  0  0  0  0  0  0
   -1.5546    8.0925    2.4335 N   0  0  0  0  0  0  0  0  0  0  0  0
    0.3627   -1.0557   -0.0426 N   0  0  0  0  0  0  0  0  0  0  0  0
   -1.4458    5.8986    2.9495 C   0  0  0  0  0  0  0  0  0  0  0  0
   -1.8360    7.1289    3.4006 C   0  0  0  0  0  0  0  0  0  0  0  0
   -1.0355    7.4468    1.3791 C   0  0  0  0  0  0  0  0  0  0  0  0
   -1.4596    4.6929    3.6468 C   0  0  0  0  0  0  0  0  0  0  0  0
   -2.3966    7.1518    4.6819 C   0  0  0  0  0  0  0  0  0  0  0  0
   -2.0173    4.7035    4.8987 C   0  0  0  0  0  0  0  0  0  0  0  0
   -0.3437    8.1094    0.1769 C   0  0  0  0  0  0  0  0  0  0  0  0
    0.8219    1.2963    0.0054 C   0  0  0  0  0  0  0  0  0  0  0  0
   -2.4878    5.9235    5.4056 C   0  0  0  0  0  0  0  0  0  0  0  0
    1.3549   -0.1267   -0.0131 C   0  0  0  0  0  0  0  0  0  0  0  0
    1.0351    3.5389   -1.3233 C   0  0  0  0  0  0  0  0  0  0  0  0
   -0.8573    4.9324    0.9075 C   0  0  0  0  0  0  0  0  0  0  0  0
    1.3408    2.0593   -1.2226 C   0  0  0  0  0  0  0  0  0  0  0  0
    0.4224    6.3160   -1.3522 C   0  0  0  0  0  0  0  0  0  0  0  0
   -0.9295   -0.6370   -0.0040 C   0  0  0  0  0  0  0  0  0  0  0  0
    1.6337    4.4268   -0.4157 C   0  0  0  0  0  0  0  0  0  0  0  0
    0.1871    4.0697   -2.3060 C   0  0  0  0  0  0  0  0  0  0  0  0
    1.3631    5.8158   -0.4420 C   0  0  0  0  0  0  0  0  0  0  0  0
   -0.0751    5.4563   -2.3553 C   0  0  0  0  0  0  0  0  0  0  0  0
   -1.6789    2.3480    5.0607 C   0  0  0  0  0  0  0  0  0  0  0  0
  1 16  1  0
  1 23  1  0
  2 15  1  0
  2 22  1  0
  3 14  1  0
  3 28  1  0
  4 18  2  0
  5 23  2  0
  6  9  1  0
  6 11  1  0
  6 20  1  0
  7 10  1  0
  7 11  2  0
  8 18  1  0
  8 23  1  0
  9 10  2  0
  9 12  1  0
 10 13  1  0
 11 15  1  0
 12 14  2  0
 13 17  2  0
 14 17  1  0
 16 18  1  0
 16 21  1  0
 19 21  1  0
 19 24  2  0
 19 25  1  0
 22 26  2  0
 22 27  1  0
 24 26  1  0
 25 27  2  0
M  END
>  <DRUGBANK_ID>  (1) 
DB09200

>  <COMMON_NAME>  (1) 
Rivoglitazone

>  <CAS_NUMBER>  (1) 
185428-18-6

>  <UNII>  (1) 
3A3N0634Q6

>  <SYNONYMS>  (1) 
Rivoglitazone

$$$$
