K02
     RDKit          3D

 25 27  0  0  0  0  0  0  0  0999 V2000
    1.2842    0.1252   -1.0554 O   0  0  0  0  0  0  0  0  0  0  0  0
    2.5044    0.2484   -0.8873 C   0  0  0  0  0  0  0  0  0  0  0  0
    3.3181   -1.1051   -0.8024 C   0  0  0  0  0  0  0  0  0  0  0  0
    4.8000   -1.4946    0.0204 S   0  0  0  0  0  0  0  0  0  0  0  0
    4.5936   -3.2131   -0.0453 C   0  0  0  0  0  0  0  0  0  0  0  0
    3.5765   -3.5088   -0.9193 C   0  0  0  0  0  0  0  0  0  0  0  0
    2.7897   -2.3414   -1.2165 C   0  0  0  0  0  0  0  0  0  0  0  0
    2.9774    1.6232   -0.5796 N   0  0  0  0  0  0  0  0  0  0  0  0
    1.9620    2.5790    0.0059 C   0  0  0  0  0  0  0  0  0  0  0  0
    2.2777    4.3701    0.7161 S   0  0  0  0  0  0  0  0  0  0  0  0
    0.5702    3.9675    1.9996 C   0  0  0  0  0  0  0  0  0  0  0  0
    0.2431    3.8325    0.6056 C   0  0  0  0  0  0  0  0  0  0  0  0
   -0.7745    4.8632    0.7614 C   0  0  0  0  0  0  0  0  0  0  0  0
    0.0765    6.2110    1.8155 C   0  0  2  0  0  0  0  0  0  0  0  0
    1.3323    5.9320    3.1800 C   0  0  0  0  0  0  0  0  0  0  0  0
   -1.0563    6.3851    2.7018 C   0  0  0  0  0  0  0  0  0  0  0  0
   -0.7479    4.8860    3.0591 C   0  0  0  0  0  0  0  0  0  0  0  0
    0.7705    2.4924    0.7351 C   0  0  0  0  0  0  0  0  0  0  0  0
    0.3711    1.5623    1.8488 C   0  0  0  0  0  0  0  0  0  0  0  0
   -0.5877    1.8264    2.5308 O   0  0  0  0  0  0  0  0  0  0  0  0
    1.1700    0.4741    2.2429 N   0  0  0  0  0  0  0  0  0  0  0  0
    2.4089    0.0883    1.7572 C   0  0  0  0  0  0  0  0  0  0  0  0
    3.6491   -0.0240    2.5755 C   0  0  0  0  0  0  0  0  0  0  0  0
    0.5609   -0.4930    3.0878 C   0  0  0  0  0  0  0  0  0  0  0  0
    0.7149    0.0200    4.4866 C   0  0  0  0  0  0  0  0  0  0  0  0
  1  2  2  0
  2  3  1  0
  2  8  1  0
  3  4  1  0
  3  7  2  0
  4  5  1  0
  5  6  2  0
  6  7  1  0
  8  9  1  0
  9 10  1  0
  9 18  2  0
 10 11  1  0
 11 12  2  0
 11 17  1  0
 12 13  1  0
 12 18  1  0
 13 14  1  0
 14 16  1  0
 14 15  1  1
 16 17  1  0
 18 19  1  0
 19 20  2  0
 19 21  1  0
 21 22  1  0
 21 24  1  0
 22 23  1  0
 24 25  1  0
M  END
>  <DRUGBANK_ID>  (1) 
DB08033

>  <COMMON_NAME>  (1) 
(5R)-N,N-DIETHYL-5-METHYL-2-[(THIOPHEN-2-YLCARBONYL)AMINO]-4,5,6,7-TETRAHYDRO-1-BENZOTHIOPHENE-3-CARBOXAMIDE

$$$$
