6OC
     RDKit          3D

 22 21  0  0  0  0  0  0  0  0999 V2000
  -12.7529    5.9820    2.9779 C   0  0  0  0  0  0  0  0  0  0  0  0
  -12.3856    6.1451    4.4443 C   0  0  0  0  0  0  0  0  0  0  0  0
  -11.6531    4.9039    4.9634 C   0  0  0  0  0  0  0  0  0  0  0  0
  -10.3517    4.6634    4.2044 C   0  0  0  0  0  0  0  0  0  0  0  0
   -9.4716    5.9026    4.2495 C   0  0  0  0  0  0  0  0  0  0  0  0
   -9.1021    6.2511    5.6669 C   0  0  0  0  0  0  0  0  0  0  0  0
   -7.8489    6.3790    6.0823 C   0  0  0  0  0  0  0  0  0  0  0  0
   -6.7561    6.0680    5.1778 C   0  0  0  0  0  0  0  0  0  0  0  0
   -5.6646    7.0613    5.0860 C   0  0  0  0  0  0  0  0  0  0  0  0
   -4.4216    6.6446    5.3782 C   0  0  0  0  0  0  0  0  0  0  0  0
   -4.2391    5.1961    5.8385 C   0  0  1  0  0  0  0  0  0  0  0  0
   -4.7527    4.1559    4.7833 C   0  0  0  0  0  0  0  0  0  0  0  0
   -4.1595    2.8026    4.8529 C   0  0  0  0  0  0  0  0  0  0  0  0
   -4.8727    1.8353    5.1328 O   0  0  0  0  0  0  0  0  0  0  0  0
   -2.7098    2.6509    4.5386 C   0  0  0  0  0  0  0  0  0  0  0  0
   -2.3789    3.1047    3.1145 C   0  0  0  0  0  0  0  0  0  0  0  0
   -2.4453    4.6140    2.7755 C   0  0  0  0  0  0  0  0  0  0  0  0
   -1.6573    5.5211    3.7007 C   0  0  0  0  0  0  0  0  0  0  0  0
   -0.1751    5.3666    3.6243 C   0  0  0  0  0  0  0  0  0  0  0  0
    0.6219    6.2392    3.4030 O   0  0  0  0  0  0  0  0  0  0  0  0
    0.1924    4.1098    3.9618 O   0  0  0  0  0  0  0  0  0  0  0  0
   -2.9484    4.9543    6.3550 O   0  0  0  0  0  0  0  0  0  0  0  0
  1  2  1  0
  2  3  1  0
  3  4  1  0
  4  5  1  0
  5  6  1  0
  6  7  2  0
  7  8  1  0
  8  9  1  0
  9 10  2  0
 11 22  1  6
 11 12  1  0
 11 10  1  0
 12 13  1  0
 13 14  2  0
 13 15  1  0
 15 16  1  0
 16 17  1  0
 17 18  1  0
 18 19  1  0
 19 20  2  0
 19 21  1  0
M  END
>  <DRUGBANK_ID>  (1) 
DB07209

>  <COMMON_NAME>  (1) 
(8R,9Z,12Z)-8-hydroxy-6-oxooctadeca-9,12-dienoic acid

$$$$
