
     RDKit          3D

 22 22  0  0  0  0  0  0  0  0999 V2000
    1.4753  -10.0821   -1.4165 C   0  0  0  0  0  0  0  0  0  0  0  0
    0.9354   -8.9802   -0.5439 C   0  0  0  0  0  0  0  0  0  0  0  0
   -0.5965   -5.5571    1.6425 C   0  0  0  0  0  0  0  0  0  0  0  0
   -1.3445   -5.7293    2.7084 N   0  0  0  0  0  0  0  0  0  0  0  0
   -0.2504   -6.7952    0.8409 C   0  0  0  0  0  0  0  0  0  0  0  0
    1.0936   -7.6912   -1.0021 C   0  0  0  0  0  0  0  0  0  0  0  0
    0.1386   -9.1774    0.6003 C   0  0  0  0  0  0  0  0  0  0  0  0
    1.0101  -11.3135   -1.0893 F   0  0  0  0  0  0  0  0  0  0  0  0
    2.8335  -10.1591   -1.4150 F   0  0  0  0  0  0  0  0  0  0  0  0
    1.1245   -9.8858   -2.7235 F   0  0  0  0  0  0  0  0  0  0  0  0
   -0.4424   -8.0895    1.2919 C   0  0  0  0  0  0  0  0  0  0  0  0
    0.3486   -6.6857   -0.4025 C   0  0  0  0  0  0  0  0  0  0  0  0
   -1.6663   -4.5268    3.3489 O   0  0  0  0  0  0  0  0  0  0  0  0
   -3.6549   -6.7964    3.5012 N   0  0  0  0  0  0  0  0  0  0  0  0
   -2.5031   -4.8059    4.4799 C   0  0  0  0  0  0  0  0  0  0  0  0
    2.3046   -2.9302   -1.5431 O   0  0  0  0  0  0  0  0  0  0  0  0
   -0.0388   -4.1753    1.2685 C   0  0  0  0  0  0  0  0  0  0  0  0
   -3.8368   -5.4550    4.0695 C   0  0  0  0  0  0  0  0  0  0  0  0
    1.9059   -4.2321   -1.1537 C   0  0  0  0  0  0  0  0  0  0  0  0
    1.5587   -1.9518   -0.8341 C   0  0  0  0  0  0  0  0  0  0  0  0
    1.4831   -4.0689    1.4524 C   0  0  0  0  0  0  0  0  0  0  0  0
    2.3240   -4.6324    0.2913 C   0  0  0  0  0  0  0  0  0  0  0  0
  2  1  1  0
  3  5  1  0
  4  3  2  0
  5 11  1  0
  6  2  2  0
  7  2  1  0
  8  1  1  0
  9  1  1  0
 10  1  1  0
 11  7  2  0
 12  6  1  0
 12  5  2  0
 13  4  1  0
 14 18  1  0
 15 13  1  0
 16 19  1  0
 17  3  1  0
 18 15  1  0
 19 22  1  0
 20 16  1  0
 21 17  1  0
 22 21  1  0
M  END
>  <DRUGBANK_ID>  (1) 
DB00176

>  <SECONDARY_ACCESSION_NUMBERS>  (1) 
APRD00425

>  <COMMON_NAME>  (1) 
Fluvoxamine

>  <CAS_NUMBER>  (1) 
54739-18-3

>  <UNII>  (1) 
O4L1XPO44W

>  <SYNONYMS>  (1) 
Fluvoxamina; Fluvoxamine; Fluvoxaminum

$$$$
