
     RDKit          3D

 11 11  0  0  1  0  0  0  0  0999 V2000
    3.5523    0.0943   -0.9532 C   0  0  0  0  0  0  0  0  0  0  0  0
    2.7495   -0.4954    0.1903 C   0  0  2  0  0  0  0  0  0  0  0  0
    3.4566    1.4657   -1.2404 C   0  0  0  0  0  0  0  0  0  0  0  0
    4.3641   -0.7073   -1.7731 C   0  0  0  0  0  0  0  0  0  0  0  0
    1.2314   -0.2816    0.0169 C   0  0  0  0  0  0  0  0  0  0  0  0
    3.1543    0.0717    1.4448 O   0  0  0  0  0  0  0  0  0  0  0  0
    4.1480    2.0243   -2.3120 C   0  0  0  0  0  0  0  0  0  0  0  0
    5.0976   -0.1338   -2.8173 C   0  0  0  0  0  0  0  0  0  0  0  0
    0.5335   -0.4815    1.1656 O   0  0  0  0  0  0  0  0  0  0  0  0
    0.6688    0.0488   -1.0223 O   0  0  0  0  0  0  0  0  0  0  0  0
    4.9695    1.2253   -3.1002 C   0  0  0  0  0  0  0  0  0  0  0  0
  1  3  2  0
  1  4  1  0
  2  6  1  1
  2  5  1  0
  2  1  1  0
  3  7  1  0
  4  8  2  0
  5  9  1  0
  5 10  2  0
  7 11  2  0
  8 11  1  0
M  END
>  <DRUGBANK_ID>  (1) 
DB02280

>  <SECONDARY_ACCESSION_NUMBERS>  (1) 
EXPT02794

>  <COMMON_NAME>  (1) 
(R)-Mandelic acid

>  <CAS_NUMBER>  (1) 
611-71-2

>  <UNII>  (1) 
PPL7YW1M9W

>  <SYNONYMS>  (1) 
(−)-(R)-mandelic acid; (−)-mandelic acid; (−)-α-hydroxyphenylacetic acid; (2R)-2-hydroxy-2-phenylacetic acid; (R)-2-Hydroxy-2-phenylacetic acid; (R)-Mandelsäure; (R)-α-hydroxybenzeneacetic acid; (R)-α-hydroxyphenylacetic acid; D-2-phenylglycolic acid; D-mandelic acid; D(−)-mandelic acid

$$$$
