
     RDKit          3D

 11 10  0  0  0  0  0  0  0  0999 V2000
    0.9549   -0.0548   -0.0401 C   0  0  0  0  0  0  0  0  0  0  0  0
    0.9549    2.3759    0.1012 C   0  0  0  0  0  0  0  0  0  0  0  0
    0.4423    1.1184    0.7542 C   0  0  0  0  0  0  0  0  0  0  0  0
    0.5293    2.5064   -1.1768 F   0  0  0  0  0  0  0  0  0  0  0  0
    0.5318    3.4818    0.7649 F   0  0  0  0  0  0  0  0  0  0  0  0
    2.3068    2.4335    0.0779 F   0  0  0  0  0  0  0  0  0  0  0  0
   -0.9221    1.1159    0.7971 F   0  0  0  0  0  0  0  0  0  0  0  0
    0.8566    1.0429    2.0528 F   0  0  0  0  0  0  0  0  0  0  0  0
    0.5318   -1.2303    0.4909 F   0  0  0  0  0  0  0  0  0  0  0  0
    0.5294   -0.0364   -1.3247 F   0  0  0  0  0  0  0  0  0  0  0  0
    2.3068   -0.1093   -0.0700 F   0  0  0  0  0  0  0  0  0  0  0  0
  1  3  1  0
  1 10  1  0
  1  9  1  0
  1 11  1  0
  2  4  1  0
  2  5  1  0
  2  6  1  0
  3  2  1  0
  7  3  1  0
  8  3  1  0
M  END
>  <DRUGBANK_ID>  (1) 
DB00556

>  <SECONDARY_ACCESSION_NUMBERS>  (1) 
APRD01177

>  <COMMON_NAME>  (1) 
Perflutren

>  <CAS_NUMBER>  (1) 
76-19-7

>  <UNII>  (1) 
CK0N3WH0SR

>  <SYNONYMS>  (1) 
1,1,1,2,2,3,3,3-octafluoropropane; Freon 218; Octafluoropropane; Octafluorpropan; Oktafluorpropan; Perfluoropropane; Perflutren; Perflutreno

$$$$
