
     RDKit          3D

  9  9  0  0  0  0  0  0  0  0999 V2000
    3.1345   -0.4464   -0.0344 C   0  0  0  0  0  0  0  0  0  0  0  0
    1.6808   -0.0778    0.0037 C   0  0  0  0  0  0  0  0  0  0  0  0
    1.2652    1.2635    0.0097 C   0  0  0  0  0  0  0  0  0  0  0  0
   -0.0968    1.5887    0.0150 C   0  0  0  0  0  0  0  0  0  0  0  0
   -1.0406    0.5678    0.0085 C   0  0  0  0  0  0  0  0  0  0  0  0
   -2.3843    0.8222   -0.0082 O   0  0  0  0  0  0  0  0  0  0  0  0
   -0.6321   -0.7634    0.0144 C   0  0  0  0  0  0  0  0  0  0  0  0
   -1.5553   -1.7698    0.0081 O   0  0  0  0  0  0  0  0  0  0  0  0
    0.7156   -1.0926    0.0179 C   0  0  0  0  0  0  0  0  0  0  0  0
  1  2  1  0
  2  3  2  0
  2  9  1  0
  3  4  1  0
  4  5  2  0
  5  6  1  0
  5  7  1  0
  7  8  1  0
  7  9  2  0
M  END
>  <DRUGBANK_ID>  (1) 
DB04120

>  <SECONDARY_ACCESSION_NUMBERS>  (1) 
EXPT02138

>  <COMMON_NAME>  (1) 
4-Methyl-1,2-Benzenediol

>  <CAS_NUMBER>  (1) 
452-86-8

>  <UNII>  (1) 
12GLI7JGB3

$$$$
