
     RDKit          3D

  5  3  0  0  0  0  0  0  0  0999 V2000
    0.5190   -1.6075   -0.6888 K   0  0  0  0  0 15  0  0  0  0  0  0
    1.0889    0.5055    0.3533 O   0  0  0  0  0  0  0  0  0  0  0  0
    2.3363    0.3165    0.2295 C   0  0  0  0  0  0  0  0  0  0  0  0
    3.2480    1.4802    0.4577 C   0  0  0  0  0  0  0  0  0  0  0  0
    2.8346   -0.7800   -0.1491 O   0  0  0  0  0  0  0  0  0  0  0  0
  2  3  1  0
  3  4  1  0
  3  5  2  0
M  CHG  2   1   1   2  -1
M  END
>  <DRUGBANK_ID>  (1) 
DB14498

>  <SECONDARY_ACCESSION_NUMBERS>  (1) 
DBSALT001427

>  <COMMON_NAME>  (1) 
Potassium acetate

>  <CAS_NUMBER>  (1) 
127-08-2

>  <UNII>  (1) 
M911911U02

>  <SYNONYMS>  (1) 
Potassium acetate

$$$$
