
     RDKit          3D

  8  7  0  0  0  0  0  0  0  0999 V2000
    0.9598    0.0100   -0.0864 C   0  0  0  0  0  0  0  0  0  0  0  0
    0.5125   -0.8065    1.1177 C   0  0  0  0  0  0  0  0  0  0  0  0
    0.9706   -0.1903    2.4429 C   0  0  0  0  0  0  0  0  0  0  0  0
    0.4340    1.2278    2.6774 C   0  0  0  0  0  0  0  0  0  0  0  0
   -1.1005    1.3101    2.6597 C   0  0  0  0  0  0  0  0  0  0  0  0
   -1.6297    0.5528    3.7455 O   0  0  0  0  0  0  0  0  0  0  0  0
   -1.6009    2.7539    2.7677 C   0  0  0  0  0  0  0  0  0  0  0  0
   -1.1927    3.5396    1.6542 O   0  0  0  0  0  0  0  0  0  0  0  0
  1  2  1  0
  2  3  1  0
  3  4  1  0
  4  5  1  0
  5  6  1  0
  5  7  1  0
  7  8  1  0
M  END
>  <DRUGBANK_ID>  (1) 
DB14108

>  <COMMON_NAME>  (1) 
1,2-Hexanediol

>  <CAS_NUMBER>  (1) 
6920-22-5

>  <UNII>  (1) 
TR046Y3K1G

>  <SYNONYMS>  (1) 
1,2-Dihydroxyhexane; 5,6-Dihydroxyhexane; DL-1,2-Hexanediol; DL-Hexane-1,2-diol

$$$$
