
     RDKit          3D

 24 23  0  0  0  0  0  0  0  0999 V2000
    1.1591   -0.0121    0.0989 C   0  0  0  0  0  0  0  0  0  0  0  0
    0.2957   -1.2246    0.3815 C   0  0  0  0  0  0  0  0  0  0  0  0
    0.5657    1.1495   -0.1747 C   0  0  0  0  0  0  0  0  0  0  0  0
    2.6383   -0.0884    0.1207 C   0  0  0  0  0  0  0  0  0  0  0  0
   -0.5865   -1.0891    1.6491 C   0  0  0  0  0  0  0  0  0  0  0  0
    1.1008    2.5116   -0.4334 C   0  0  0  0  0  0  0  0  0  0  0  0
   -1.6783   -0.0397    1.5765 C   0  0  0  0  0  0  0  0  0  0  0  0
    0.6106    3.0160   -1.7963 C   0  0  0  0  0  0  0  0  0  0  0  0
   -2.9986   -0.2792    1.5317 C   0  0  0  0  0  0  0  0  0  0  0  0
   -0.8938    3.2878   -1.8965 C   0  0  0  0  0  0  0  0  0  0  0  0
   -3.9948    0.8246    1.2172 C   0  0  0  0  0  0  0  0  0  0  0  0
   -3.4947   -1.6617    1.8233 C   0  0  0  0  0  0  0  0  0  0  0  0
   -1.3290    4.5330   -2.1372 C   0  0  0  0  0  0  0  0  0  0  0  0
   -1.8739    2.1583   -1.7354 C   0  0  0  0  0  0  0  0  0  0  0  0
   -4.8291    0.5870   -0.0608 C   0  0  0  0  0  0  0  0  0  0  0  0
   -2.7654    4.9697   -2.1705 C   0  0  0  0  0  0  0  0  0  0  0  0
   -5.7042   -0.6321    0.0274 C   0  0  0  0  0  0  0  0  0  0  0  0
   -3.0865    5.9464   -1.0549 C   0  0  0  0  0  0  0  0  0  0  0  0
   -7.0389   -0.6518    0.1550 C   0  0  0  0  0  0  0  0  0  0  0  0
   -2.3506    7.2499   -1.2403 C   0  0  0  0  0  0  0  0  0  0  0  0
   -7.7647   -1.9354    0.4425 C   0  0  0  0  0  0  0  0  0  0  0  0
   -7.8403    0.5997   -0.0012 C   0  0  0  0  0  0  0  0  0  0  0  0
   -3.1511    8.4729   -1.5479 C   0  0  0  0  0  0  0  0  0  0  0  0
   -1.1162    7.3284   -1.1628 O   0  0  0  0  0  0  0  0  0  0  0  0
  1  2  1  0
  1  3  2  0
  1  4  1  0
  2  5  1  0
  3  6  1  0
  5  7  1  0
  6  8  1  0
  7  9  2  0
  8 10  1  0
  9 11  1  0
  9 12  1  0
 10 13  2  0
 10 14  1  0
 11 15  1  0
 13 16  1  0
 15 17  1  0
 16 18  1  0
 17 19  2  3
 18 20  1  0
 19 21  1  0
 19 22  1  0
 20 23  1  0
 20 24  2  0
M  END
>  <DRUGBANK_ID>  (1) 
DB15955

>  <COMMON_NAME>  (1) 
Teprenone

>  <CAS_NUMBER>  (1) 
6809-52-5

>  <UNII>  (1) 
57B67OXM8F

>  <SYNONYMS>  (1) 
Geranylgeranylacetone; Teprenona; Teprenone; Teprenonum; Tetraprenylacetone

$$$$
