
     RDKit          3D

 17 16  0  0  0  0  0  0  0  0999 V2000
    1.0696   -0.1089    0.0661 C   0  0  0  0  0  0  0  0  0  0  0  0
    1.5251    4.6651   -3.5666 C   0  0  0  0  0  0  0  0  0  0  0  0
    2.9028    6.8803    0.1518 C   0  0  0  0  0  0  0  0  0  0  0  0
    0.5668    0.3485    1.4271 C   0  0  0  0  0  0  0  0  0  0  0  0
    1.1027    1.7189    1.8353 C   0  0  0  0  0  0  0  0  0  0  0  0
    0.6236    2.8629    0.9814 C   0  0  0  0  0  0  0  0  0  0  0  0
    0.4267    3.6405   -1.4144 C   0  0  0  0  0  0  0  0  0  0  0  0
   -1.1631    3.7022   -1.4779 C   0  0  0  0  0  0  0  0  0  0  0  0
   -2.1079    4.1417   -0.0054 Cl  0  0  0  0  0  0  0  0  0  0  0  0
   -1.7849    4.8703   -2.7048 Cl  0  0  0  0  0  0  0  0  0  0  0  0
   -1.7841    2.0585   -1.9589 Cl  0  0  0  0  0  0  0  0  0  0  0  0
    0.1709    3.9083    1.4512 O   0  0  0  0  0  0  0  0  0  0  0  0
    2.2571    4.5753   -0.3102 O   0  0  0  0  0  0  0  0  0  0  0  0
    1.5230    5.6242   -2.5107 O   0  0  0  0  0  0  0  0  0  0  0  0
    1.6134    6.8603   -0.4666 O   0  0  0  0  0  0  0  0  0  0  0  0
    0.7918    2.6392   -0.3427 O   0  0  0  0  0  0  0  0  0  0  0  0
    1.0367    5.2956   -0.9272 P   0  0  0  0  0  0  0  0  0  0  0  0
  4  1  1  0
  5  4  1  0
  6  5  1  0
  8  7  1  0
  9  8  1  0
 10  8  1  0
 11  8  1  0
 12  6  2  0
 14  2  1  0
 15  3  1  0
 16  6  1  0
 16  7  1  0
 17  7  1  0
 17 13  2  0
 17 14  1  0
 17 15  1  0
M  END
>  <DRUGBANK_ID>  (1) 
DB11379

>  <COMMON_NAME>  (1) 
Butonate

>  <CAS_NUMBER>  (1) 
126-22-7

>  <UNII>  (1) 
39M9R3Q494

>  <SYNONYMS>  (1) 
Butonate; Butonato; Butonatum

$$$$
