
     RDKit          3D

 14 15  0  0  0  0  0  0  0  0999 V2000
   -2.7836    1.5763   -0.0272 C   0  0  0  0  0  0  0  0  0  0  0  0
   -1.7194    0.5240    0.0113 C   0  0  0  0  0  0  0  0  0  0  0  0
   -1.9718   -0.8455    0.0129 C   0  0  0  0  0  0  0  0  0  0  0  0
   -0.9026   -1.7658    0.0364 C   0  0  0  0  0  0  0  0  0  0  0  0
    0.4524   -1.3451    0.0298 C   0  0  0  0  0  0  0  0  0  0  0  0
    0.6676    0.0474   -0.0110 C   0  0  0  0  0  0  0  0  0  0  0  0
   -0.3984    0.9504    0.0107 C   0  0  0  0  0  0  0  0  0  0  0  0
    2.1781    0.8510   -0.1968 Cl  0  0  0  0  0  0  0  0  0  0  0  0
    1.4575   -2.3542    0.1885 N   0  0  0  0  0  0  0  0  0  0  0  0
    2.8007   -2.1384    0.0517 C   0  0  0  0  0  0  0  0  0  0  0  0
    3.5343   -2.5078   -0.9600 N   0  0  0  0  0  0  0  0  0  0  0  0
    4.9059   -2.0165   -0.5928 C   0  0  0  0  0  0  0  0  0  0  0  0
    4.7072   -1.0544    0.5789 C   0  0  0  0  0  0  0  0  0  0  0  0
    3.4511   -1.5503    1.0989 N   0  0  0  0  0  0  0  0  0  0  0  0
  1  2  1  0
  2  3  2  0
  2  7  1  0
  3  4  1  0
  4  5  2  0
  5  6  1  0
  5  9  1  0
  6  7  2  0
  6  8  1  0
  9 10  1  0
 10 11  2  0
 10 14  1  0
 11 12  1  0
 12 13  1  0
 13 14  1  0
M  END
>  <DRUGBANK_ID>  (1) 
DB13429

>  <COMMON_NAME>  (1) 
Tolonidine

>  <CAS_NUMBER>  (1) 
4201-22-3

>  <UNII>  (1) 
I4O795Q03O

>  <SYNONYMS>  (1) 
Tolonidine

$$$$
