
     RDKit          3D

 43 45  0  0  0  0  0  0  0  0999 V2000
   -0.2190    2.8075   -2.3188 C   0  0  0  0  0  0  0  0  0  0  0  0
   -1.1044    1.9697   -3.2068 C   0  0  0  0  0  0  0  0  0  0  0  0
   -0.6206    2.1201   -4.6397 C   0  0  0  0  0  0  0  0  0  0  0  0
   -1.0581    0.4853   -2.8091 C   0  0  0  0  0  0  0  0  0  0  0  0
   -1.7071    0.2477   -1.4244 C   0  0  2  0  0  0  0  0  0  0  0  0
   -1.3796   -0.9594   -0.6562 N   0  0  0  0  0  0  0  0  0  0  0  0
   -0.8213   -0.9741    0.6032 C   0  0  0  0  0  0  0  0  0  0  0  0
   -0.4958   -2.0609    1.0927 O   0  0  0  0  0  0  0  0  0  0  0  0
   -0.4868    0.3667    1.3067 C   0  0  0  0  0  0  0  0  0  0  0  0
    0.1002    1.5093    0.6975 O   0  0  0  0  0  0  0  0  0  0  0  0
    1.3217    1.5390    0.0771 C   0  0  0  0  0  0  0  0  0  0  0  0
    1.8862    2.8252   -0.0026 C   0  0  0  0  0  0  0  0  0  0  0  0
    3.0657    3.0534   -0.7298 C   0  0  0  0  0  0  0  0  0  0  0  0
    3.6955    2.0122   -1.4011 C   0  0  0  0  0  0  0  0  0  0  0  0
    3.1337    0.7570   -1.3691 C   0  0  0  0  0  0  0  0  0  0  0  0
    1.9717    0.5153   -0.6317 C   0  0  0  0  0  0  0  0  0  0  0  0
    1.5142   -0.8790   -0.7475 C   0  0  0  0  0  0  0  0  0  0  0  0
   -3.1928    0.3295   -1.6263 C   0  0  0  0  0  0  0  0  0  0  0  0
   -3.8841    1.1030   -0.9634 O   0  0  0  0  0  0  0  0  0  0  0  0
   -3.7535   -0.5266   -2.5494 N   0  0  0  0  0  0  0  0  0  0  0  0
   -3.1897   -1.7986   -3.0414 C   0  0  1  0  0  0  0  0  0  0  0  0
   -3.5978   -3.1468   -2.3689 C   0  0  0  0  0  0  0  0  0  0  0  0
   -4.3819   -3.1689   -1.0757 C   0  0  0  0  0  0  0  0  0  0  0  0
   -4.8363   -2.0139   -0.4825 C   0  0  0  0  0  0  0  0  0  0  0  0
   -5.5865   -1.9215    0.6543 C   0  0  0  0  0  0  0  0  0  0  0  0
   -5.9430   -3.0436    1.3315 C   0  0  0  0  0  0  0  0  0  0  0  0
   -6.6957   -2.9195    2.5297 O   0  0  0  0  0  0  0  0  0  0  0  0
   -7.2596   -1.6646    2.9303 C   0  0  0  0  0  0  0  0  0  0  0  0
   -7.1431   -0.5923    2.3724 O   0  0  0  0  0  0  0  0  0  0  0  0
   -8.1022   -1.7603    4.0244 N   0  0  0  0  0  0  0  0  0  0  0  0
   -9.2081   -0.8207    4.1259 C   0  0  0  0  0  0  0  0  0  0  0  0
   -9.0036    0.2117    5.2245 C   0  0  0  0  0  0  0  0  0  0  0  0
   -8.6403   -0.4612    6.5523 C   0  0  0  0  0  0  0  0  0  0  0  0
   -7.4818   -1.4585    6.3752 C   0  0  0  0  0  0  0  0  0  0  0  0
   -7.7340   -2.4553    5.2340 C   0  0  0  0  0  0  0  0  0  0  0  0
   -8.3208    0.5854    7.6125 C   0  0  0  0  0  0  0  0  0  0  0  0
   -8.9787    0.7087    8.6407 O   0  0  0  0  0  0  0  0  0  0  0  0
   -7.2558    1.4007    7.3732 N   0  0  0  0  0  0  0  0  0  0  0  0
   -5.5053   -4.2740    0.8074 C   0  0  0  0  0  0  0  0  0  0  0  0
   -4.7243   -4.3343   -0.3909 C   0  0  0  0  0  0  0  0  0  0  0  0
   -3.5060   -1.7570   -4.5272 C   0  0  0  0  0  0  0  0  0  0  0  0
   -2.7200   -1.5108   -5.4141 O   0  0  0  0  0  0  0  0  0  0  0  0
   -4.8311   -1.8678   -4.7722 O   0  0  0  0  0  0  0  0  0  0  0  0
  1  2  1  0
  2  3  1  0
  2  4  1  0
  5 18  1  0
  5  6  1  0
  5  4  1  6
  6  7  1  0
  7  8  2  0
  7  9  1  0
  9 10  1  0
 10 11  1  0
 11 12  2  0
 11 16  1  0
 12 13  1  0
 13 14  2  0
 14 15  1  0
 15 16  2  0
 16 17  1  0
 18 19  2  0
 18 20  1  0
 21 20  1  0
 21 22  1  1
 21 41  1  0
 22 23  1  0
 23 24  2  0
 23 40  1  0
 24 25  1  0
 25 26  2  0
 26 27  1  0
 26 39  1  0
 27 28  1  0
 28 29  2  0
 28 30  1  0
 30 31  1  0
 30 35  1  0
 31 32  1  0
 32 33  1  0
 33 34  1  0
 33 36  1  0
 34 35  1  0
 36 37  2  0
 36 38  1  0
 39 40  2  0
 41 42  2  0
 41 43  1  0
M  END
>  <DRUGBANK_ID>  (1) 
DB06508

>  <COMMON_NAME>  (1) 
GW-559090

>  <CAS_NUMBER>  (1) 
278598-52-0

>  <UNII>  (1) 
H9W4YH429K

$$$$
