
     RDKit          3D

 28 31  0  0  0  0  0  0  0  0999 V2000
    1.1177    0.0682   -2.5312 C   0  0  0  0  0  0  0  0  0  0  0  0
    0.2104   -4.2430   -0.3302 C   0  0  0  0  0  0  0  0  0  0  0  0
   -1.8524   -2.2756    5.7257 C   0  0  0  0  0  0  0  0  0  0  0  0
   -1.0362   -1.1550    6.3018 C   0  0  0  0  0  0  0  0  0  0  0  0
   -1.1368   -0.2901   -1.3985 C   0  0  0  0  0  0  0  0  0  0  0  0
   -1.5388   -2.4719   -0.3323 C   0  0  0  0  0  0  0  0  0  0  0  0
   -3.6693    0.2606    5.4050 C   0  0  0  0  0  0  0  0  0  0  0  0
    0.3992   -0.6012   -1.3593 C   0  0  1  0  0  0  0  0  0  0  0  0
   -0.0180   -2.7361   -0.2697 C   0  0  2  0  0  0  0  0  0  0  0  0
   -1.6017   -1.0256    4.9160 C   0  0  0  0  0  0  0  0  0  0  0  0
   -4.8198    0.9085    5.1604 C   0  0  0  0  0  0  0  0  0  0  0  0
   -4.2688    0.5596    2.6959 C   0  0  0  0  0  0  0  0  0  0  0  0
   -4.5823    0.7415    1.3447 C   0  0  0  0  0  0  0  0  0  0  0  0
   -3.7451    0.2546    0.3456 C   0  0  0  0  0  0  0  0  0  0  0  0
   -2.3075   -0.6533    2.0227 C   0  0  0  0  0  0  0  0  0  0  0  0
   -3.1006   -0.1269    3.0717 C   0  0  0  0  0  0  0  0  0  0  0  0
   -2.5956   -0.4718    0.6514 C   0  0  0  0  0  0  0  0  0  0  0  0
   -5.1814    1.0958    3.7342 C   0  0  0  0  0  0  0  0  0  0  0  0
   -5.6858    1.4180    6.2444 C   0  0  0  0  0  0  0  0  0  0  0  0
   -5.6996    1.3802    0.9691 F   0  0  0  0  0  0  0  0  0  0  0  0
   -4.0982    0.4364   -0.9371 F   0  0  0  0  0  0  0  0  0  0  0  0
   -1.1975   -1.3567    2.3020 F   0  0  0  0  0  0  0  0  0  0  0  0
    0.6964   -2.0609   -1.3804 N   0  0  0  0  0  0  0  0  0  0  0  0
   -1.7996   -1.0347   -0.3241 N   0  0  0  0  0  0  0  0  0  0  0  0
   -2.7775   -0.2390    4.4645 N   0  0  0  0  0  0  0  0  0  0  0  0
   -6.2115    1.6719    3.4099 O   0  0  0  0  0  0  0  0  0  0  0  0
   -6.7345    2.0302    6.1240 O   0  0  0  0  0  0  0  0  0  0  0  0
   -5.2191    1.1631    7.4828 O   0  0  0  0  0  0  0  0  0  0  0  0
  4  3  1  0
  8  5  1  0
  8  1  1  6
  9  2  1  6
  9  6  1  0
 10  3  1  0
 10  4  1  0
 11  7  2  0
 13 12  1  0
 14 13  2  0
 16 12  2  0
 16 15  1  0
 17 14  1  0
 17 15  2  0
 18 11  1  0
 18 12  1  0
 19 11  1  0
 20 13  1  0
 21 14  1  0
 22 15  1  0
 23  8  1  0
 23  9  1  0
 24  5  1  0
 24  6  1  0
 24 17  1  0
 25  7  1  0
 25 10  1  0
 25 16  1  0
 26 18  2  0
 27 19  2  0
 28 19  1  0
M  END
>  <DRUGBANK_ID>  (1) 
DB11443

>  <COMMON_NAME>  (1) 
Orbifloxacin

>  <CAS_NUMBER>  (1) 
113617-63-3

>  <UNII>  (1) 
660932TPY6

>  <SYNONYMS>  (1) 
Orbifloxacin

$$$$
