
     RDKit          3D

 31 32  0  0  0  0  0  0  0  0999 V2000
   -2.6939    3.4342   -0.7893 S   0  0  0  0  0  0  0  0  0  0  0  0
    1.5858    6.2135   -2.9001 S   0  0  0  0  0  0  0  0  0  0  0  0
    0.2309    2.6305    2.1798 O   0  0  0  0  0  0  0  0  0  0  0  0
   -3.3205    0.2612    2.1690 O   0  0  0  0  0  0  0  0  0  0  0  0
    0.2194    1.2298   -2.1431 O   0  0  0  0  0  0  0  0  0  0  0  0
   -1.7323    6.5033    3.8672 O   0  0  0  0  0  0  0  0  0  0  0  0
   -1.2691    0.9004    3.7218 O   0  0  0  0  0  0  0  0  0  0  0  0
   -1.8670    7.9392    2.2552 O   0  0  0  0  0  0  0  0  0  0  0  0
   -2.0711    2.3082    5.2710 O   0  0  0  0  0  0  0  0  0  0  0  0
   -0.9199    0.8890   -0.2821 N   0  0  0  0  0  0  0  0  0  0  0  0
   -1.5855    4.3401    1.5213 N   0  0  0  0  0  0  0  0  0  0  0  0
    0.6968    3.4714    0.8230 N   0  0  0  0  0  0  0  0  0  0  0  0
    0.2615    4.0291   -2.9968 N   0  0  0  0  0  0  0  0  0  0  0  0
    0.0232    5.4881   -4.9115 N   0  0  0  0  0  0  0  0  0  0  0  0
   -2.0193    3.0743    0.7525 C   0  0  2  0  0  0  0  0  0  0  0  0
   -1.7097    1.4211    0.7979 C   0  0  1  0  0  0  0  0  0  0  0  0
   -1.7391    4.8987   -1.0023 C   0  0  0  0  0  0  0  0  0  0  0  0
   -1.8365    6.0141   -0.0556 C   0  0  0  0  0  0  0  0  0  0  0  0
   -1.6665    5.6094    1.3274 C   0  0  0  0  0  0  0  0  0  0  0  0
   -0.8854    3.2812    3.3715 C   0  0  0  0  0  0  0  0  0  0  0  0
   -3.0894    0.9190    1.1540 C   0  0  0  0  0  0  0  0  0  0  0  0
   -0.0031    1.6215   -0.9986 C   0  0  0  0  0  0  0  0  0  0  0  0
    0.6142    2.9818   -0.4660 C   0  0  0  0  0  0  0  0  0  0  0  0
    0.0954    4.1925    4.0533 C   0  0  0  0  0  0  0  0  0  0  0  0
   -2.6645    3.8814    3.3264 C   0  0  0  0  0  0  0  0  0  0  0  0
   -1.7055    6.7349    2.5542 C   0  0  0  0  0  0  0  0  0  0  0  0
   -1.5204    7.2406   -0.4677 C   0  0  0  0  0  0  0  0  0  0  0  0
   -1.3811    2.1207    4.2714 C   0  0  0  0  0  0  0  0  0  0  0  0
    0.9690    3.9917   -1.7088 C   0  0  0  0  0  0  0  0  0  0  0  0
    1.6392    5.1872   -1.5247 C   0  0  0  0  0  0  0  0  0  0  0  0
    0.5229    5.1248   -3.7030 C   0  0  0  0  0  0  0  0  0  0  0  0
  1 15  1  0
  1 17  1  0
  2 30  1  0
  2 31  1  0
  3 12  1  0
  3 20  1  0
  4 21  2  0
  5 22  2  0
  6 26  1  0
  7 28  1  0
  8 26  2  0
  9 28  2  0
 10 22  1  0
 15 11  1  1
 11 19  2  0
 12 23  2  0
 13 29  1  0
 13 31  2  0
 14 31  1  0
 16 21  1  6
 16 15  1  0
 16 10  1  0
 17 18  1  0
 18 19  1  0
 18 27  2  0
 19 26  1  0
 20 24  1  0
 20 25  1  0
 20 28  1  0
 22 23  1  0
 23 29  1  0
 29 30  2  0
M  END
>  <DRUGBANK_ID>  (1) 
DB03530

>  <SECONDARY_ACCESSION_NUMBERS>  (1) 
EXPT00836

>  <COMMON_NAME>  (1) 
Acylated ceftazidime

$$$$
