376
     RDKit          3D

 22 24  0  0  1  0  0  0  0  0999 V2000
    1.1248   -0.0683    0.0640 O   0  0  0  0  0  0  0  0  0  0  0  0
   -0.8594   -1.2628   -2.9249 N   0  0  0  0  0  0  0  0  0  0  0  0
    1.1954    2.2179   -0.8068 C   0  0  0  0  0  0  0  0  0  0  0  0
    0.5258    0.7807   -0.9544 C   0  0  0  0  0  0  0  0  0  0  0  0
    1.2486    2.6253    0.6714 C   0  0  0  0  0  0  0  0  0  0  0  0
    0.6065    3.3659   -1.6625 C   0  0  0  0  0  0  0  0  0  0  0  0
    1.0725    0.1748   -2.2990 C   0  0  0  0  0  0  0  0  0  0  0  0
    1.8805    3.9969    0.8510 C   0  0  0  0  0  0  0  0  0  0  0  0
    1.2098    4.7396   -1.4534 C   0  0  0  0  0  0  0  0  0  0  0  0
    1.1610    5.0658    0.0403 C   0  0  0  0  0  0  0  0  0  0  0  0
    0.5737   -1.2298   -2.6675 C   0  0  0  0  0  0  0  0  0  0  0  0
   -1.0036    0.7414   -0.6490 C   0  0  0  0  0  0  0  0  0  0  0  0
   -1.3989   -0.1316   -3.6748 C   0  0  0  0  0  0  0  0  0  0  0  0
   -1.3618   -2.5528   -3.3660 C   0  0  0  0  0  0  0  0  0  0  0  0
   -2.9147   -0.0874   -3.6163 C   0  0  0  0  0  0  0  0  0  0  0  0
   -2.8902   -2.5851   -3.2911 C   0  0  0  0  0  0  0  0  0  0  0  0
   -3.5392   -1.4033   -4.0117 C   0  0  0  0  0  0  0  0  0  0  0  0
   -1.6494   -0.4628   -0.2944 C   0  0  0  0  0  0  0  0  0  0  0  0
   -1.8930    1.8106   -0.8061 C   0  0  0  0  0  0  0  0  0  0  0  0
   -3.0553   -0.5362   -0.2057 C   0  0  0  0  0  0  0  0  0  0  0  0
   -3.2543    1.8135   -0.5221 C   0  0  0  0  0  0  0  0  0  0  0  0
   -3.8596    0.5903   -0.2883 C   0  0  0  0  0  0  0  0  0  0  0  0
  1  4  1  0
  2 11  1  0
  2 13  1  0
  2 14  1  0
  3  4  1  0
  3  5  1  0
  3  6  1  0
  4  7  1  0
  4 12  1  0
  5  8  1  0
  6  9  1  0
  7 11  1  0
  8 10  1  0
  9 10  1  0
 12 18  2  0
 12 19  1  0
 13 15  1  0
 14 16  1  0
 15 17  1  0
 16 17  1  0
 18 20  1  0
 19 21  2  0
 20 22  2  0
 21 22  1  0
M  END
>  <DRUGBANK_ID>  (1) 
DB00376

>  <SECONDARY_ACCESSION_NUMBERS>  (1) 
APRD00070

>  <COMMON_NAME>  (1) 
Trihexyphenidyl

>  <CAS_NUMBER>  (1) 
144-11-6

>  <UNII>  (1) 
6RC5V8B7PO

>  <SYNONYMS>  (1) 
Trihexifenidilo; Trihexyphenidyl; Trihexyph√©nidyle; Trihexyphenidylum

$$$$
