GSK
     RDKit          3D

 31 34  0  0  0  0  0  0  0  0999 V2000
    3.2453    0.4038   -0.0052 Cl  0  0  0  0  0  0  0  0  0  0  0  0
    1.5886   -0.0583   -0.0168 C   0  0  0  0  0  0  0  0  0  0  0  0
    1.2509   -1.4103   -0.0192 C   0  0  0  0  0  0  0  0  0  0  0  0
   -0.0877   -1.8048   -0.0138 C   0  0  0  0  0  0  0  0  0  0  0  0
   -1.1041   -0.8548   -0.0062 C   0  0  0  0  0  0  0  0  0  0  0  0
   -2.4526   -1.2612    0.0146 C   0  0  0  0  0  0  0  0  0  0  0  0
   -0.7486    0.5215   -0.0134 C   0  0  0  0  0  0  0  0  0  0  0  0
    0.5969    0.9151   -0.0196 C   0  0  0  0  0  0  0  0  0  0  0  0
   -1.7603    1.4639    0.0135 C   0  0  0  0  0  0  0  0  0  0  0  0
   -3.0775    1.0249    0.0869 C   0  0  0  0  0  0  0  0  0  0  0  0
   -3.4539   -0.3080    0.0580 C   0  0  0  0  0  0  0  0  0  0  0  0
   -5.1595   -0.8157    0.0340 S   0  0  0  0  0  0  0  0  0  0  0  0
   -5.4083   -1.4761   -1.2196 O   0  0  0  0  0  0  0  0  0  0  0  0
   -5.4477   -1.4647    1.3032 O   0  0  0  0  0  0  0  0  0  0  0  0
   -6.1137    0.5818    0.0080 N   0  0  0  0  0  0  0  0  0  0  0  0
   -5.9242    1.4567   -1.1422 C   0  0  1  0  0  0  0  0  0  0  0  0
   -7.1930    1.6941   -1.9199 C   0  0  0  0  0  0  0  0  0  0  0  0
   -6.7059    2.8233   -2.8061 C   0  0  0  0  0  0  0  0  0  0  0  0
   -5.5581    2.9165   -0.8195 C   0  0  0  0  0  0  0  0  0  0  0  0
   -4.9527    3.3805    0.1335 O   0  0  0  0  0  0  0  0  0  0  0  0
   -6.0183    3.6775   -1.8741 N   0  0  0  0  0  0  0  0  0  0  0  0
   -5.7056    5.1057   -1.9653 C   0  0  1  0  0  0  0  0  0  0  0  0
   -5.0641    5.4358   -3.3067 C   0  0  0  0  0  0  0  0  0  0  0  0
   -6.8565    6.0967   -1.5885 C   0  0  0  0  0  0  0  0  0  0  0  0
   -6.6434    7.0152   -0.7914 O   0  0  0  0  0  0  0  0  0  0  0  0
   -8.0197    6.0799   -2.3355 N   0  0  0  0  0  0  0  0  0  0  0  0
   -8.8142    4.9261   -2.6772 C   0  0  0  0  0  0  0  0  0  0  0  0
   -8.7867    4.7702   -4.2161 C   0  0  0  0  0  0  0  0  0  0  0  0
   -9.4205    5.9181   -4.7970 O   0  0  0  0  0  0  0  0  0  0  0  0
   -8.7336    7.1293   -4.4034 C   0  0  0  0  0  0  0  0  0  0  0  0
   -8.6244    7.2835   -2.8681 C   0  0  0  0  0  0  0  0  0  0  0  0
  1  2  1  0
  2  3  2  0
  2  8  1  0
  3  4  1  0
  4  5  2  0
  5  6  1  0
  5  7  1  0
  6 11  2  0
  7  8  2  0
  7  9  1  0
  9 10  2  0
 10 11  1  0
 11 12  1  0
 12 13  2  0
 12 14  2  0
 12 15  1  0
 16 15  1  1
 16 17  1  0
 16 19  1  0
 17 18  1  0
 18 21  1  0
 19 20  2  0
 19 21  1  0
 21 22  1  0
 22 23  1  6
 22 24  1  0
 24 25  2  0
 24 26  1  0
 26 27  1  0
 26 31  1  0
 27 28  1  0
 28 29  1  0
 29 30  1  0
 30 31  1  0
M  END
>  <DRUGBANK_ID>  (1) 
DB07847

>  <COMMON_NAME>  (1) 
6-CHLORO-N-{(3S)-1-[(1S)-1-METHYL-2-(4-MORPHOLINYL)-2-OXO ETHYL]-2-OXO-3-PYRROLIDINYL}-2-NAPHTHALENESULFONAMIDE

$$$$
