
     RDKit          3D

 12 12  0  0  0  0  0  0  0  0999 V2000
    0.7076    1.2738   -0.2217 C   0  0  2  0  0  0  0  0  0  0  0  0
    0.7213    1.3502   -1.6644 O   0  0  0  0  0  0  0  0  0  0  0  0
    1.4633    0.0206    0.2337 C   0  0  2  0  0  0  0  0  0  0  0  0
    2.7828    0.0228   -0.3094 O   0  0  0  0  0  0  0  0  0  0  0  0
    0.7133   -1.2665   -0.1622 C   0  0  2  0  0  0  0  0  0  0  0  0
   -1.3731   -0.1186   -0.2237 C   0  0  1  0  0  0  0  0  0  0  0  0
   -1.4767   -0.2405   -1.6400 O   0  0  0  0  0  0  0  0  0  0  0  0
   -1.4286    2.3505   -0.3377 O   0  0  0  0  0  0  0  0  0  0  0  0
   -0.6378   -1.2208    0.3280 O   0  0  0  0  0  0  0  0  0  0  0  0
   -0.7501    1.2243    0.2367 C   0  0  2  0  0  0  0  0  0  0  0  0
    1.5003   -2.5010    0.3326 C   0  0  0  0  0  0  0  0  0  0  0  0
    0.7047   -3.4966    0.9543 O   0  0  0  0  0  0  0  0  0  0  0  0
  1 10  1  0
  1  2  1  6
  3  1  1  0
  3  4  1  6
  5  3  1  0
  5  9  1  0
  5 11  1  1
  6 10  1  0
  6  7  1  6
  9  6  1  0
 10  8  1  6
 11 12  1  0
M  END
>  <DRUGBANK_ID>  (1) 
DB03989

>  <SECONDARY_ACCESSION_NUMBERS>  (1) 
EXPT00500

>  <COMMON_NAME>  (1) 
D-Allopyranose

>  <CAS_NUMBER>  (1) 
2595-97-3

>  <UNII>  (1) 
SV1ATP0KYY

>  <SYNONYMS>  (1) 
D-Allose

$$$$
