938
     RDKit          3D

 30 31  0  0  1  0  0  0  0  0999 V2000
    0.8613   -0.0019   -0.0419 O   0  0  0  0  0  0  0  0  0  0  0  0
    5.0423   -5.0980   -1.1182 O   0  0  0  0  0  0  0  0  0  0  0  0
    6.0267  -11.0479   -2.9772 O   0  0  0  0  0  0  0  0  0  0  0  0
    4.7998  -11.3707    0.8310 O   0  0  0  0  0  0  0  0  0  0  0  0
    4.5308   -5.0054    1.7995 N   0  0  0  0  0  0  0  0  0  0  0  0
    3.0437   -2.5359    1.5912 C   0  0  0  0  0  0  0  0  0  0  0  0
    2.5070   -2.7442    0.1691 C   0  0  0  0  0  0  0  0  0  0  0  0
    2.6069   -3.6839    2.4899 C   0  0  0  0  0  0  0  0  0  0  0  0
    0.9942   -2.4812    0.0622 C   0  0  0  0  0  0  0  0  0  0  0  0
    3.0754   -5.0170    1.9288 C   0  0  0  0  0  0  0  0  0  0  0  0
    5.0218   -6.1742    1.0742 C   0  0  0  0  0  0  0  0  0  0  0  0
    0.4721   -1.1755    0.6827 C   0  0  0  0  0  0  0  0  0  0  0  0
    4.5562   -6.2371   -0.4005 C   0  0  0  0  0  0  0  0  0  0  0  0
    2.7727    1.3413   -0.8421 C   0  0  0  0  0  0  0  0  0  0  0  0
    2.3872    2.5841   -0.0816 C   0  0  0  0  0  0  0  0  0  0  0  0
    2.2677    0.1168   -0.1409 C   0  0  0  0  0  0  0  0  0  0  0  0
    4.9960   -7.5223   -1.0477 C   0  0  0  0  0  0  0  0  0  0  0  0
    2.9220    2.5843    1.3561 C   0  0  0  0  0  0  0  0  0  0  0  0
    4.5268   -8.7440   -0.5321 C   0  0  0  0  0  0  0  0  0  0  0  0
    4.4292    2.5298    1.4337 C   0  0  0  0  0  0  0  0  0  0  0  0
    5.8167   -7.5310   -2.1736 C   0  0  0  0  0  0  0  0  0  0  0  0
    4.8556   -9.9721   -1.1255 C   0  0  0  0  0  0  0  0  0  0  0  0
    6.1402   -8.7359   -2.7826 C   0  0  0  0  0  0  0  0  0  0  0  0
    5.6569   -9.9412   -2.2706 C   0  0  0  0  0  0  0  0  0  0  0  0
    5.1375    3.7408    1.4274 C   0  0  0  0  0  0  0  0  0  0  0  0
    5.1566    1.3313    1.4918 C   0  0  0  0  0  0  0  0  0  0  0  0
    4.3025  -11.2185   -0.4928 C   0  0  0  0  0  0  0  0  0  0  0  0
    6.5231    3.7404    1.5201 C   0  0  0  0  0  0  0  0  0  0  0  0
    6.5437    1.3302    1.5928 C   0  0  0  0  0  0  0  0  0  0  0  0
    7.2319    2.5477    1.6093 C   0  0  0  0  0  0  0  0  0  0  0  0
  1 12  1  0
  1 16  1  0
  2 13  1  0
  3 24  1  0
  4 27  1  0
  5 10  1  0
  5 11  1  0
  6  7  1  0
  6  8  1  0
  7  9  1  0
  8 10  1  0
  9 12  1  0
 11 13  1  0
 13 17  1  0
 14 15  1  0
 14 16  1  0
 15 18  1  0
 17 19  2  0
 17 21  1  0
 18 20  1  0
 19 22  1  0
 20 25  2  0
 20 26  1  0
 21 23  2  0
 22 24  2  0
 22 27  1  0
 23 24  1  0
 25 28  1  0
 26 29  2  0
 28 30  2  0
 29 30  1  0
M  END
>  <DRUGBANK_ID>  (1) 
DB00938

>  <SECONDARY_ACCESSION_NUMBERS>  (1) 
APRD00277

>  <COMMON_NAME>  (1) 
Salmeterol

>  <CAS_NUMBER>  (1) 
89365-50-4

>  <UNII>  (1) 
2I4BC502BT

>  <SYNONYMS>  (1) 
Salmaterol; Salmeterol; Salmeterolum

$$$$
