JNK
     RDKit          3D

 31 34  0  0  0  0  0  0  0  0999 V2000
   -7.5521    0.6655    3.2816 C   0  0  0  0  0  0  0  0  0  0  0  0
   -8.2609   -0.2503    3.9043 C   0  0  0  0  0  0  0  0  0  0  0  0
   -6.5223    0.0376    1.8344 C   0  0  0  0  0  0  0  0  0  0  0  0
   -7.7362    2.4755    3.6952 C   0  0  0  0  0  0  0  0  0  0  0  0
   -6.6786   -0.1744    4.5446 C   0  0  0  0  0  0  0  0  0  0  0  0
   -8.9701    0.5827    2.5695 C   0  0  0  0  0  0  0  0  0  0  0  0
   -5.7248    1.3126    0.8624 C   0  0  0  0  0  0  0  0  0  0  0  0
   -6.9221    3.5677    2.5539 C   0  0  0  0  0  0  0  0  0  0  0  0
   -5.6734    0.8985    3.9212 C   0  0  0  0  0  0  0  0  0  0  0  0
   -7.9153    1.6612    1.7663 C   0  0  0  0  0  0  0  0  0  0  0  0
   -4.3004    0.9612    0.5751 N   0  0  0  0  0  0  0  0  0  0  0  0
   -6.0259    3.0098    1.1492 N   0  0  0  0  0  0  0  0  0  0  0  0
   -4.3329    0.7755    3.8633 N   0  0  0  0  0  0  0  0  0  0  0  0
   -6.2480    1.7594    2.6753 N   0  0  0  0  0  0  0  0  0  0  0  0
   -3.4406    1.8229   -0.1307 C   0  0  0  0  0  0  0  0  0  0  0  0
   -3.6508    1.8434    3.3298 C   0  0  0  0  0  0  0  0  0  0  0  0
   -2.6835    2.8034    0.4925 C   0  0  0  0  0  0  0  0  0  0  0  0
   -3.3569    1.8502   -1.4897 C   0  0  0  0  0  0  0  0  0  0  0  0
   -2.1536    1.7809    3.3495 C   0  0  1  0  0  0  0  0  0  0  0  0
   -4.1629    2.9163    3.0171 O   0  0  0  0  0  0  0  0  0  0  0  0
   -1.8775    3.7877   -0.0551 C   0  0  0  0  0  0  0  0  0  0  0  0
   -2.5530    2.8243   -2.1210 C   0  0  0  0  0  0  0  0  0  0  0  0
   -1.7210    3.3019    3.3908 C   0  0  0  0  0  0  0  0  0  0  0  0
   -1.8676    0.9401    4.5723 C   0  0  0  0  0  0  0  0  0  0  0  0
   -1.8223    3.7820   -1.4062 C   0  0  0  0  0  0  0  0  0  0  0  0
   -2.1955    3.9811    4.6608 C   0  0  0  0  0  0  0  0  0  0  0  0
   -2.3561    1.7086    5.8144 C   0  0  0  0  0  0  0  0  0  0  0  0
   -1.8526    3.1610    5.8890 C   0  0  1  0  0  0  0  0  0  0  0  0
   -0.4536    3.2266    6.1963 O   0  0  0  0  0  0  0  0  0  0  0  0
    0.4387    2.6821    5.2426 C   0  0  0  0  0  0  0  0  0  0  0  0
   -1.0668    4.6937   -2.0247 F   0  0  0  0  0  0  0  0  0  0  0  0
  1  2  1  0
  1  3  2  0
  1  4  1  0
  2  5  2  0
  2  6  1  0
  3  7  1  0
  4  8  2  0
  5  9  1  0
  6 10  2  0
  7 11  1  0
  7 12  2  0
  8 12  1  0
  9 13  1  0
  9 14  2  0
 10 14  1  0
 11 15  1  0
 13 16  1  0
 15 17  2  0
 15 18  1  0
 16 20  2  0
 17 21  1  0
 18 22  2  0
 19 23  1  0
 19 24  1  0
 19 16  1  1
 21 25  2  0
 22 25  1  0
 23 26  1  0
 24 27  1  0
 25 31  1  0
 26 28  1  0
 27 28  1  0
 28 29  1  6
 29 30  1  0
M  END
>  <DRUGBANK_ID>  (1) 
DB08025

>  <COMMON_NAME>  (1) 
N-{2'-[(4-FLUOROPHENYL)AMINO]-4,4'-BIPYRIDIN-2-YL}-4-METHOXYCYCLOHEXANECARBOXAMIDE

$$$$
