
     RDKit          3D

 24 26  0  0  1  0  0  0  0  0999 V2000
    1.4967   -2.1676   -2.3058 N   0  0  0  0  0  0  0  0  0  0  0  0
    2.8535   -2.4447   -2.8384 C   0  0  1  0  0  0  0  0  0  0  0  0
    3.9563   -2.1791   -1.7604 C   0  0  0  0  0  0  0  0  0  0  0  0
    4.7105   -3.0494   -1.3215 O   0  0  0  0  0  0  0  0  0  0  0  0
    4.1247   -0.9020   -1.2652 N   0  0  0  0  0  0  0  0  0  0  0  0
    3.3988    0.3149   -1.6666 C   0  0  2  0  0  0  0  0  0  0  0  0
    4.2238    1.4986   -2.2303 C   0  0  1  0  0  0  0  0  0  0  0  0
    3.8667    1.9144   -3.6388 C   0  0  0  0  0  0  0  0  0  0  0  0
    4.0931    3.4099   -3.7867 C   0  0  0  0  0  0  0  0  0  0  0  0
    3.6395    4.2322   -2.6043 C   0  0  0  0  0  0  0  0  0  0  0  0
    3.4921    5.9047   -3.0544 Cl  0  0  0  0  0  0  0  0  0  0  0  0
    3.3548    3.6996   -1.3908 C   0  0  0  0  0  0  0  0  0  0  0  0
    3.5508    2.3434   -1.2353 N   0  0  0  0  0  0  0  0  0  0  0  0
    2.9695    1.3374   -0.5545 C   0  0  0  0  0  0  0  0  0  0  0  0
    2.2754    1.3600    0.4421 O   0  0  0  0  0  0  0  0  0  0  0  0
    2.8415    4.5904   -0.2775 C   0  0  0  0  0  0  0  0  0  0  0  0
    2.5989    4.0005    0.9096 O   0  0  0  0  0  0  0  0  0  0  0  0
    2.6965    5.8003   -0.3784 O   0  0  0  0  0  0  0  0  0  0  0  0
    2.8622   -3.8770   -3.3500 C   0  0  0  0  0  0  0  0  0  0  0  0
    2.6187   -4.9356   -2.4558 C   0  0  0  0  0  0  0  0  0  0  0  0
    2.5153   -6.2469   -2.9048 C   0  0  0  0  0  0  0  0  0  0  0  0
    2.6357   -6.5203   -4.2624 C   0  0  0  0  0  0  0  0  0  0  0  0
    2.8614   -5.4827   -5.1673 C   0  0  0  0  0  0  0  0  0  0  0  0
    3.0206   -4.1709   -4.7118 C   0  0  0  0  0  0  0  0  0  0  0  0
  2  1  1  1
  2  3  1  0
  2 19  1  0
  3  4  2  0
  3  5  1  0
  6  7  1  0
  6 14  1  0
  6  5  1  1
  7  8  1  6
  7 13  1  0
  8  9  1  0
  9 10  1  0
 10 11  1  0
 10 12  2  0
 12 13  1  0
 12 16  1  0
 13 14  1  0
 14 15  2  0
 16 17  1  0
 16 18  2  0
 19 20  2  0
 19 24  1  0
 20 21  1  0
 21 22  2  0
 22 23  1  0
 23 24  2  0
M  END
>  <DRUGBANK_ID>  (1) 
DB04293

>  <SECONDARY_ACCESSION_NUMBERS>  (1) 
EXPT02052

>  <COMMON_NAME>  (1) 
7-(2-Amino-2-Phenyl-Acetylamino)-3-Chloro-8-Oxo-1-Aza-Bicyclo[4.2.0]Oct-2-Ene-2-Carboxylic Acid

$$$$
