
     RDKit          3D

 30 32  0  0  0  0  0  0  0  0999 V2000
   -4.1454    0.1082   -7.0629 C   0  0  0  0  0  0  0  0  0  0  0  0
   -3.8899   -1.0116   -6.2846 C   0  0  0  0  0  0  0  0  0  0  0  0
   -3.4465   -0.8749   -4.9594 C   0  0  0  0  0  0  0  0  0  0  0  0
   -3.1762    0.3820   -4.3859 C   0  0  0  0  0  0  0  0  0  0  0  0
   -3.3869    1.4795   -5.2433 C   0  0  0  0  0  0  0  0  0  0  0  0
   -3.9239    1.3597   -6.5271 C   0  0  0  0  0  0  0  0  0  0  0  0
   -2.7773    0.5283   -2.9891 N   0  0  0  0  0  0  0  0  0  0  0  0
   -2.4509    1.7335   -2.3317 C   0  0  0  0  0  0  0  0  0  0  0  0
   -2.1737    1.8390   -1.1410 O   0  0  0  0  0  0  0  0  0  0  0  0
   -2.5012    2.8178   -3.1370 O   0  0  0  0  0  0  0  0  0  0  0  0
   -2.4594    4.1162   -2.5664 C   0  0  0  0  0  0  0  0  0  0  0  0
   -3.5809    4.3524   -1.5531 C   0  0  1  0  0  0  0  0  0  0  0  0
   -4.0330    5.7926   -1.6599 C   0  0  0  0  0  0  0  0  0  0  0  0
   -4.7804    6.0476   -2.9710 C   0  0  0  0  0  0  0  0  0  0  0  0
   -6.0805    5.2287   -3.0040 C   0  0  1  0  0  0  0  0  0  0  0  0
   -5.6440    3.7517   -2.9465 C   0  0  0  0  0  0  0  0  0  0  0  0
   -4.8362    3.4552   -1.6778 C   0  0  0  0  0  0  0  0  0  0  0  0
   -7.0960    5.5216   -1.8698 C   0  0  0  0  0  0  0  0  0  0  0  0
   -7.6338    6.8421   -1.8568 O   0  0  0  0  0  0  0  0  0  0  0  0
   -6.7431    7.8840   -1.4959 C   0  0  0  0  0  0  0  0  0  0  0  0
   -5.9266    7.8263   -0.2033 C   0  0  0  0  0  0  0  0  0  0  0  0
   -4.7261    8.0695   -0.0785 O   0  0  0  0  0  0  0  0  0  0  0  0
   -6.6463    7.4654    0.8714 O   0  0  0  0  0  0  0  0  0  0  0  0
   -2.6875   -0.6493   -2.1810 C   0  0  0  0  0  0  0  0  0  0  0  0
   -1.7041   -1.6012   -2.4731 C   0  0  0  0  0  0  0  0  0  0  0  0
   -1.4949   -2.6896   -1.6268 C   0  0  0  0  0  0  0  0  0  0  0  0
   -2.2437   -2.8141   -0.4595 C   0  0  0  0  0  0  0  0  0  0  0  0
   -3.2003   -1.8564   -0.1300 C   0  0  0  0  0  0  0  0  0  0  0  0
   -3.4501   -0.7943   -1.0079 C   0  0  0  0  0  0  0  0  0  0  0  0
   -2.0047   -4.1781    0.5612 Cl  0  0  0  0  0  0  0  0  0  0  0  0
  1  2  2  0
  1  6  1  0
  2  3  1  0
  3  4  2  0
  4  5  1  0
  4  7  1  0
  5  6  2  0
  7  8  1  0
  7 24  1  0
  8  9  2  0
  8 10  1  0
 10 11  1  0
 12 13  1  0
 12 17  1  0
 12 11  1  6
 13 14  1  0
 14 15  1  0
 15 16  1  0
 15 18  1  1
 16 17  1  0
 18 19  1  0
 19 20  1  0
 20 21  1  0
 21 22  2  0
 21 23  1  0
 24 25  2  0
 24 29  1  0
 25 26  1  0
 26 27  2  0
 27 28  1  0
 27 30  1  0
 28 29  2  0
M  END
>  <DRUGBANK_ID>  (1) 
DB12462

>  <COMMON_NAME>  (1) 
Ralinepag

>  <CAS_NUMBER>  (1) 
1187856-49-0

>  <UNII>  (1) 
CQY12ZJN6E

>  <SYNONYMS>  (1) 
2-{[(1r,4r)-4-(((4-chlorophenyl)(phenyl)carbamoyloxy)methyl)cyclohexy]methoxy} acetic acid; Ralinepag

$$$$
