739
     RDKit          3D

 27 30  0  0  1  0  0  0  0  0999 V2000
    1.0432   -1.0093   -0.4473 S   0  0  0  0  0  0  0  0  0  0  0  0
   -2.7279    1.1269   -0.3460 O   0  0  0  0  0  0  0  0  0  0  0  0
   -2.7027   -0.3540   -2.6828 O   0  0  0  0  0  0  0  0  0  0  0  0
   -0.5080    3.6343    0.9173 O   0  0  0  0  0  0  0  0  0  0  0  0
    1.0856    2.6689    2.1374 O   0  0  0  0  0  0  0  0  0  0  0  0
   -0.7880    0.4156    0.7048 N   0  0  0  0  0  0  0  0  0  0  0  0
   -1.8389   -2.0363   -1.3527 N   0  0  0  0  0  0  0  0  0  0  0  0
   -2.1358   -3.8424   -2.7890 N   0  0  0  0  0  0  0  0  0  0  0  0
   -0.4331   -1.0101    0.5956 C   0  0  1  0  0  0  0  0  0  0  0  0
   -1.8003   -1.3045   -0.0484 C   0  0  1  0  0  0  0  0  0  0  0  0
    0.2073    1.3989    0.2317 C   0  0  2  0  0  0  0  0  0  0  0  0
    1.5531    0.6447    0.0647 C   0  0  0  0  0  0  0  0  0  0  0  0
   -1.9678    0.2635    0.0118 C   0  0  0  0  0  0  0  0  0  0  0  0
   -1.4104   -3.3978   -1.5896 C   0  0  0  0  0  0  0  0  0  0  0  0
   -2.5029   -1.5340   -2.4589 C   0  0  0  0  0  0  0  0  0  0  0  0
   -3.0485   -2.7544   -3.1826 C   0  0  1  0  0  0  0  0  0  0  0  0
    2.4315    1.1542   -1.0755 C   0  0  0  0  0  0  0  0  0  0  0  0
    2.3742    0.4104    1.3379 C   0  0  0  0  0  0  0  0  0  0  0  0
    0.3296    2.6059    1.1779 C   0  0  0  0  0  0  0  0  0  0  0  0
    0.0676   -3.4695   -1.9832 C   0  0  0  0  0  0  0  0  0  0  0  0
   -1.6262   -4.3400   -0.4053 C   0  0  0  0  0  0  0  0  0  0  0  0
   -3.3401   -2.6552   -4.6627 C   0  0  0  0  0  0  0  0  0  0  0  0
   -3.8571   -3.7677   -5.3509 C   0  0  0  0  0  0  0  0  0  0  0  0
   -3.2972   -1.4299   -5.3449 C   0  0  0  0  0  0  0  0  0  0  0  0
   -4.3450   -3.6394   -6.6552 C   0  0  0  0  0  0  0  0  0  0  0  0
   -3.8470   -1.2867   -6.6161 C   0  0  0  0  0  0  0  0  0  0  0  0
   -4.3511   -2.3953   -7.2813 C   0  0  0  0  0  0  0  0  0  0  0  0
  9  1  1  6
  1 12  1  0
  2 13  2  0
  3 15  2  0
  4 19  1  0
  5 19  2  0
  6  9  1  0
  6 11  1  0
  6 13  1  0
  7 14  1  0
  7 15  1  0
  8 14  1  0
  8 16  1  0
  9 10  1  0
 10 13  1  0
 10  7  1  6
 11 12  1  0
 11 19  1  1
 12 17  1  0
 12 18  1  0
 14 20  1  0
 14 21  1  0
 15 16  1  0
 16 22  1  6
 22 23  2  0
 22 24  1  0
 23 25  1  0
 24 26  2  0
 25 27  2  0
 26 27  1  0
M  END
>  <DRUGBANK_ID>  (1) 
DB00739

>  <SECONDARY_ACCESSION_NUMBERS>  (1) 
APRD01012

>  <COMMON_NAME>  (1) 
Hetacillin

>  <CAS_NUMBER>  (1) 
3511-16-8

>  <UNII>  (1) 
TN4JSC48CV

>  <SYNONYMS>  (1) 
(2S,5R,6R)-6-[(4R)-2,2-dimethyl-5-oxo-4-phenylimidazolidin-1-yl]-3,3-dimethyl-7-oxo-4-thia-1-azabicyclo[3.2.0]heptane-2-carboxylic acid; 6β-[(4R)-2,2-dimethyl-5-oxo-4-phenylimidazolidin-1-yl]penicillanic acid; Hetacilina; Hetacillin; Hétacilline; Hetacillinum

$$$$
