22530
     RDKit          3D

 21 24  0  0  1  0  0  0  0  0999 V2000
   -0.0403   -1.6961   -0.0128 N   0  0  0  0  0  0  0  0  0  0  0  0
   -2.9863    1.2757   -0.4191 N   0  0  0  0  0  0  0  0  0  0  0  0
   -1.1325   -0.8414   -0.0502 C   0  0  0  0  0  0  0  0  0  0  0  0
   -0.7012    0.4680   -0.0289 C   0  0  0  0  0  0  0  0  0  0  0  0
   -2.5882   -1.1352   -0.0765 C   0  0  0  0  0  0  0  0  0  0  0  0
   -1.6214    1.6566    0.0186 C   0  0  0  0  0  0  0  0  0  0  0  0
   -3.4226    0.0842    0.3045 C   0  0  0  0  0  0  0  0  0  0  0  0
    0.7066    0.4444    0.0046 C   0  0  0  0  0  0  0  0  0  0  0  0
    1.1180   -0.8992   -0.0158 C   0  0  0  0  0  0  0  0  0  0  0  0
   -0.0497   -3.1839   -0.0727 C   0  0  0  0  0  0  0  0  0  0  0  0
    1.6593    1.4805    0.0520 C   0  0  0  0  0  0  0  0  0  0  0  0
    2.4929   -1.2105   -0.0279 C   0  0  0  0  0  0  0  0  0  0  0  0
   -3.9379    2.3461   -0.1568 C   0  0  0  0  0  0  0  0  0  0  0  0
   -0.7365   -3.8715    1.0948 C   0  0  0  0  0  0  0  0  0  0  0  0
    3.0143    1.1724    0.0500 C   0  0  0  0  0  0  0  0  0  0  0  0
    3.4230   -0.1554    0.0039 C   0  0  0  0  0  0  0  0  0  0  0  0
   -2.1099   -3.7672    1.2618 C   0  0  0  0  0  0  0  0  0  0  0  0
   -0.0841   -4.6772    2.0303 C   0  0  0  0  0  0  0  0  0  0  0  0
   -2.7273   -3.9380    2.4923 C   0  0  0  0  0  0  0  0  0  0  0  0
   -0.7824   -5.1462    3.1555 C   0  0  0  0  0  0  0  0  0  0  0  0
   -2.0568   -4.6722    3.4522 C   0  0  0  0  0  0  0  0  0  0  0  0
  1  3  1  0
  1  9  1  0
  1 10  1  0
  2  6  1  0
  2  7  1  0
  2 13  1  0
  3  4  2  0
  3  5  1  0
  4  6  1  0
  4  8  1  0
  5  7  1  0
  8  9  2  0
  8 11  1  0
  9 12  1  0
 10 14  1  0
 11 15  2  0
 12 16  2  0
 14 17  2  0
 14 18  1  0
 15 16  1  0
 17 19  1  0
 18 20  2  0
 19 21  2  0
 20 21  1  0
M  END
>  <DRUGBANK_ID>  (1) 
DB13808

>  <COMMON_NAME>  (1) 
Mebhydrolin

>  <CAS_NUMBER>  (1) 
524-81-2

>  <UNII>  (1) 
9SUK9B7XVY

>  <SYNONYMS>  (1) 
Mebhydrolin

$$$$
