862
     RDKit          3D

 34 37  0  0  0  0  0  0  0  0999 V2000
    1.0423    0.2728    0.2680 S   0  0  0  0  0  0  0  0  0  0  0  0
    0.6074    0.7494    1.5600 O   0  0  0  0  0  0  0  0  0  0  0  0
    0.6730    1.0047   -0.9375 O   0  0  0  0  0  0  0  0  0  0  0  0
    7.1595    0.4380    0.0450 O   0  0  0  0  0  0  0  0  0  0  0  0
    5.8697   -5.0235   -2.4969 O   0  0  0  0  0  0  0  0  0  0  0  0
    0.4344   -1.3069   -0.0620 N   0  0  0  0  0  0  0  0  0  0  0  0
    2.1741   -3.8282   -0.0700 N   0  0  0  0  0  0  0  0  0  0  0  0
    6.8816   -4.2598    0.7798 N   0  0  0  0  0  0  0  0  0  0  0  0
    5.9037   -3.3190    1.0274 N   0  0  0  0  0  0  0  0  0  0  0  0
    5.6819   -3.0500   -1.3174 N   0  0  0  0  0  0  0  0  0  0  0  0
    8.5540   -5.7049    0.8481 N   0  0  0  0  0  0  0  0  0  0  0  0
    0.1574   -2.5468    0.8850 C   0  0  0  0  0  0  0  0  0  0  0  0
    1.1812   -1.6969   -1.2862 C   0  0  0  0  0  0  0  0  0  0  0  0
    1.3394   -3.5676    1.1311 C   0  0  0  0  0  0  0  0  0  0  0  0
    2.2791   -2.5854   -0.7843 C   0  0  0  0  0  0  0  0  0  0  0  0
    1.7678   -4.7794   -1.0826 C   0  0  0  0  0  0  0  0  0  0  0  0
    2.9858    0.2421    0.2370 C   0  0  0  0  0  0  0  0  0  0  0  0
    0.4851   -4.4414   -1.8210 C   0  0  0  0  0  0  0  0  0  0  0  0
    3.8598   -0.8710    0.4564 C   0  0  0  0  0  0  0  0  0  0  0  0
    3.6260    1.4155   -0.0688 C   0  0  0  0  0  0  0  0  0  0  0  0
    5.1550   -1.0105   -0.0036 C   0  0  0  0  0  0  0  0  0  0  0  0
    5.8049    0.2143    0.0006 C   0  0  0  0  0  0  0  0  0  0  0  0
    5.6279   -2.5390   -0.1157 C   0  0  0  0  0  0  0  0  0  0  0  0
    5.0217    1.4058    0.1057 C   0  0  0  0  0  0  0  0  0  0  0  0
    7.9790   -4.7106    1.5102 C   0  0  0  0  0  0  0  0  0  0  0  0
    6.9310   -4.8385   -0.4338 C   0  0  0  0  0  0  0  0  0  0  0  0
    8.4812   -4.1845    2.8410 C   0  0  0  0  0  0  0  0  0  0  0  0
    7.8208   -5.8694   -0.3016 C   0  0  0  0  0  0  0  0  0  0  0  0
    6.0899   -4.3817   -1.5080 C   0  0  0  0  0  0  0  0  0  0  0  0
    8.1955   -5.1589    3.9728 C   0  0  0  0  0  0  0  0  0  0  0  0
    8.0189   -7.0046   -1.2126 C   0  0  0  0  0  0  0  0  0  0  0  0
    8.8703   -6.4964    3.7274 C   0  0  0  0  0  0  0  0  0  0  0  0
    7.9410   -0.7417    0.0410 C   0  0  0  0  0  0  0  0  0  0  0  0
    7.8112   -1.3894    1.3888 C   0  0  0  0  0  0  0  0  0  0  0  0
  1  2  2  0
  1  3  2  0
  1  6  1  0
  1 17  1  0
  4 22  1  0
  4 33  1  0
  5 29  2  0
  6 12  1  0
  6 13  1  0
  7 14  1  0
  7 15  1  0
  7 16  1  0
  8  9  1  0
  8 25  1  0
  8 26  1  0
  9 23  1  0
 10 23  2  0
 10 29  1  0
 11 25  2  0
 11 28  1  0
 12 14  1  0
 13 15  1  0
 16 18  1  0
 17 19  2  0
 17 20  1  0
 19 21  1  0
 20 24  2  0
 21 22  2  0
 21 23  1  0
 22 24  1  0
 25 27  1  0
 26 28  2  0
 26 29  1  0
 27 30  1  0
 28 31  1  0
 30 32  1  0
 33 34  1  0
M  END
>  <DRUGBANK_ID>  (1) 
DB00862

>  <SECONDARY_ACCESSION_NUMBERS>  (1) 
APRD00699

>  <COMMON_NAME>  (1) 
Vardenafil

>  <CAS_NUMBER>  (1) 
224785-90-4

>  <UNII>  (1) 
UCE6F4125H

>  <SYNONYMS>  (1) 
VardÃ©nafil; Vardenafil; Vardenafilo; Vardenafilum

$$$$
