9IP
     RDKit          3D

 23 25  0  0  0  0  0  0  0  0999 V2000
    0.9064   -0.0255    0.0632 C   0  0  0  0  0  0  0  0  0  0  0  0
    0.3646    1.1809    0.5907 O   0  0  0  0  0  0  0  0  0  0  0  0
    0.7866    1.5128    1.8448 C   0  0  0  0  0  0  0  0  0  0  0  0
   -0.1356    2.1301    2.6801 C   0  0  0  0  0  0  0  0  0  0  0  0
    0.1404    2.5839    3.9235 N   0  0  0  0  0  0  0  0  0  0  0  0
    1.4155    2.4224    4.3450 C   0  0  0  0  0  0  0  0  0  0  0  0
    2.4271    1.8160    3.5992 C   0  0  0  0  0  0  0  0  0  0  0  0
    2.0901    1.3613    2.3171 C   0  0  0  0  0  0  0  0  0  0  0  0
    3.7931    1.7296    4.1248 C   0  0  0  0  0  0  0  0  0  0  0  0
    4.0578    1.0875    5.3433 C   0  0  0  0  0  0  0  0  0  0  0  0
    5.3370    1.1153    5.9005 C   0  0  0  0  0  0  0  0  0  0  0  0
    6.3775    1.7492    5.2244 C   0  0  0  0  0  0  0  0  0  0  0  0
    6.1453    2.3910    4.0001 C   0  0  0  0  0  0  0  0  0  0  0  0
    7.2573    3.1096    3.2741 C   0  0  0  0  0  0  0  0  0  0  0  0
    7.7717    4.2016    4.0785 N   0  0  0  0  0  0  0  0  0  0  0  0
    9.0959    4.2069    4.5150 C   0  0  0  0  0  0  0  0  0  0  0  0
   10.1346    3.9056    3.6308 C   0  0  0  0  0  0  0  0  0  0  0  0
   11.4538    3.9258    4.0687 C   0  0  0  0  0  0  0  0  0  0  0  0
   11.6880    4.2008    5.4008 C   0  0  0  0  0  0  0  0  0  0  0  0
   10.7147    4.4437    6.3116 N   0  0  0  0  0  0  0  0  0  0  0  0
    9.4408    4.4523    5.8600 C   0  0  0  0  0  0  0  0  0  0  0  0
    8.4541    4.8383    6.7789 N   0  0  0  0  0  0  0  0  0  0  0  0
    4.8526    2.3608    3.4550 C   0  0  0  0  0  0  0  0  0  0  0  0
  1  2  1  0
  2  3  1  0
  3  4  2  0
  3  8  1  0
  4  5  1  0
  5  6  2  0
  6  7  1  0
  7  8  2  0
  7  9  1  0
  9 23  1  0
  9 10  2  0
 10 11  1  0
 11 12  2  0
 12 13  1  0
 13 23  2  0
 13 14  1  0
 14 15  1  0
 15 16  1  0
 16 21  1  0
 16 17  2  0
 17 18  1  0
 18 19  2  0
 19 20  1  0
 20 21  2  0
 21 22  1  0
M  END
>  <DRUGBANK_ID>  (1) 
DB07303

>  <COMMON_NAME>  (1) 
N~3~-[3-(5-METHOXYPYRIDIN-3-YL)BENZYL]PYRIDINE-2,3-DIAMINE

$$$$
