2C7
     RDKit          3D

 24 26  0  0  0  0  0  0  0  0999 V2000
    1.7423    0.1105    0.0004 C   0  0  0  0  0  0  0  0  0  0  0  0
    0.8700    1.2420    0.5289 C   0  0  0  0  0  0  0  0  0  0  0  0
   -0.3610    1.5492   -0.3187 C   0  0  0  0  0  0  0  0  0  0  0  0
   -1.5866    0.7275    0.0956 C   0  0  0  0  0  0  0  0  0  0  0  0
   -1.5373   -0.7934   -0.0603 C   0  0  0  0  0  0  0  0  0  0  0  0
   -0.2480   -1.4608    0.4209 C   0  0  0  0  0  0  0  0  0  0  0  0
    0.9902   -1.1589   -0.4487 C   0  0  0  0  0  0  0  0  0  0  0  0
    0.6279   -1.1115   -1.9505 C   0  0  0  0  0  0  0  0  0  0  0  0
    1.7609   -0.7932   -2.8458 C   0  0  0  0  0  0  0  0  0  0  0  0
    1.9381    0.3316   -3.5660 C   0  0  0  0  0  0  0  0  0  0  0  0
    3.0714   -1.9137   -3.0183 S   0  0  0  0  0  0  0  0  0  0  0  0
    3.8781   -1.9509   -1.8120 O   0  0  0  0  0  0  0  0  0  0  0  0
    2.6275   -3.0997   -3.7086 O   0  0  0  0  0  0  0  0  0  0  0  0
    3.8782   -0.8731   -4.1574 C   0  0  0  0  0  0  0  0  0  0  0  0
    5.0512   -1.1746   -4.8079 C   0  0  0  0  0  0  0  0  0  0  0  0
    3.1579    0.2959   -4.3558 C   0  0  0  0  0  0  0  0  0  0  0  0
    3.6330    1.2293   -5.2603 C   0  0  0  0  0  0  0  0  0  0  0  0
    4.8238    0.9453   -5.9601 C   0  0  0  0  0  0  0  0  0  0  0  0
    5.5358   -0.2560   -5.7370 C   0  0  0  0  0  0  0  0  0  0  0  0
    6.6887   -0.4728   -6.4691 O   0  0  0  0  0  0  0  0  0  0  0  0
    7.5536   -1.8461   -6.2475 S   0  0  0  0  0  0  0  0  0  0  0  0
    8.1446   -1.8190   -4.9280 O   0  0  0  0  0  0  0  0  0  0  0  0
    6.7834   -2.9818   -6.7014 O   0  0  0  0  0  0  0  0  0  0  0  0
    8.8702   -1.7537   -7.2865 N   0  0  0  0  0  0  0  0  0  0  0  0
  1  2  1  0
  1  7  1  0
  2  3  1  0
  3  4  1  0
  4  5  1  0
  5  6  1  0
  6  7  1  0
  7  8  1  0
  8  9  1  0
  9 10  2  0
  9 11  1  0
 10 16  1  0
 11 12  2  0
 11 13  2  0
 11 14  1  0
 14 15  2  0
 14 16  1  0
 15 19  1  0
 16 17  2  0
 17 18  1  0
 18 19  2  0
 19 20  1  0
 20 21  1  0
 21 22  2  0
 21 23  2  0
 21 24  1  0
M  END
>  <DRUGBANK_ID>  (1) 
DB06954

>  <COMMON_NAME>  (1) 
2-(cycloheptylmethyl)-1,1-dioxido-1-benzothiophen-6-yl sulfamate

$$$$
