FTC
     RDKit          3D

 23 24  0  0  0  0  0  0  0  0999 V2000
   -2.1810   -0.2484    0.1254 C   0  0  0  0  0  0  0  0  0  0  0  0
   -1.3224    0.7480    0.2399 N   0  0  0  0  0  0  0  0  0  0  0  0
   -0.0109    0.7647    0.0690 C   0  0  0  0  0  0  0  0  0  0  0  0
    0.6409   -0.4190   -0.0141 C   0  0  0  0  0  0  0  0  0  0  0  0
   -0.1685   -1.5529   -0.0208 C   0  0  0  0  0  0  0  0  0  0  0  0
   -1.5968   -1.4921    0.0094 C   0  0  0  0  0  0  0  0  0  0  0  0
    2.3432   -0.3991   -0.0295 Cl  0  0  0  0  0  0  0  0  0  0  0  0
   -3.5884    0.0098    0.1357 N   0  0  0  0  0  0  0  0  0  0  0  0
   -4.3525    1.1517    0.2485 C   0  0  0  0  0  0  0  0  0  0  0  0
   -6.0298    0.9935    0.2069 S   0  0  0  0  0  0  0  0  0  0  0  0
   -3.9002    2.4237    0.3998 N   0  0  0  0  0  0  0  0  0  0  0  0
   -2.5821    2.9749    0.1300 C   0  0  0  0  0  0  0  0  0  0  0  0
   -2.0145    3.4776   -1.2066 C   0  0  0  0  0  0  0  0  0  0  0  0
   -2.4078    4.8846   -1.3317 C   0  0  0  0  0  0  0  0  0  0  0  0
   -1.4922    5.8624   -1.3872 N   0  0  0  0  0  0  0  0  0  0  0  0
   -2.0054    7.1034   -1.2995 C   0  0  0  0  0  0  0  0  0  0  0  0
   -3.3704    7.3886   -1.1496 C   0  0  0  0  0  0  0  0  0  0  0  0
   -4.2849    6.3435   -1.1063 C   0  0  0  0  0  0  0  0  0  0  0  0
   -3.7604    5.0947   -1.2072 C   0  0  0  0  0  0  0  0  0  0  0  0
   -5.6230    6.5862   -0.9794 O   0  0  0  0  0  0  0  0  0  0  0  0
   -6.5093    5.4418   -0.8816 C   0  0  0  0  0  0  0  0  0  0  0  0
   -6.6472    4.6197   -2.1772 C   0  0  0  0  0  0  0  0  0  0  0  0
   -4.5331    4.0180   -1.0868 F   0  0  0  0  0  0  0  0  0  0  0  0
  1  2  2  0
  1  6  1  0
  1  8  1  0
  2  3  1  0
  3  4  2  0
  4  5  1  0
  4  7  1  0
  5  6  2  0
  8  9  1  0
  9 10  2  0
  9 11  1  0
 11 12  1  0
 12 13  1  0
 13 14  1  0
 14 15  2  0
 14 19  1  0
 15 16  1  0
 16 17  2  0
 17 18  1  0
 18 19  2  0
 18 20  1  0
 19 23  1  0
 20 21  1  0
 21 22  1  0
M  END
>  <DRUGBANK_ID>  (1) 
DB07797

>  <COMMON_NAME>  (1) 
N-[[3-FLUORO-4-ETHOXY-PYRID-2-YL]ETHYL]-N'-[5-CHLORO-PYRIDYL]-THIOUREA

$$$$
