
     RDKit          3D

 29 32  0  0  1  0  0  0  0  0999 V2000
    1.5605    0.9147    0.7809 C   0  0  0  0  0  0  0  0  0  0  0  0
    1.4121    0.5723    2.1616 N   0  0  0  0  0  0  0  0  0  0  0  0
    0.3353    0.0032    2.7891 C   0  0  0  0  0  0  0  0  0  0  0  0
    0.4485   -0.1336    4.0004 O   0  0  0  0  0  0  0  0  0  0  0  0
   -0.9794   -0.5115    1.9999 C   0  0  2  0  0  0  0  0  0  0  0  0
   -1.1340   -1.3976    0.5665 C   0  0  0  0  0  0  0  0  0  0  0  0
   -0.6733   -2.7171    0.8833 N   0  0  0  0  0  0  0  0  0  0  0  0
    0.6916   -2.4330    1.2676 C   0  0  0  0  0  0  0  0  0  0  0  0
    0.8253   -2.8269    2.6736 C   0  0  0  0  0  0  0  0  0  0  0  0
    0.5768   -4.3203    2.5980 C   0  0  0  0  0  0  0  0  0  0  0  0
   -0.7960   -4.7826    2.1555 C   0  0  0  0  0  0  0  0  0  0  0  0
   -1.5443   -3.5562    1.7377 C   0  0  0  0  0  0  0  0  0  0  0  0
    1.4333   -4.9263    1.6109 O   0  0  0  0  0  0  0  0  0  0  0  0
    2.8070   -4.6346    1.7326 C   0  0  0  0  0  0  0  0  0  0  0  0
    3.2942   -5.0491    3.1254 C   0  0  0  0  0  0  0  0  0  0  0  0
    2.2527   -4.9990    4.2300 C   0  0  0  0  0  0  0  0  0  0  0  0
    0.9435   -4.7375    3.9368 C   0  0  0  0  0  0  0  0  0  0  0  0
   -0.0858   -4.5012    5.2764 S   0  0  0  0  0  0  0  0  0  0  0  0
    1.1661   -4.9630    6.2908 C   0  0  0  0  0  0  0  0  0  0  0  0
    1.0067   -5.0827    7.5801 F   0  0  0  0  0  0  0  0  0  0  0  0
    2.3524   -5.2053    5.6309 C   0  0  0  0  0  0  0  0  0  0  0  0
   -1.9094    0.6534    1.8018 C   0  0  0  0  0  0  0  0  0  0  0  0
   -3.2027    0.1623    1.1810 C   0  0  0  0  0  0  0  0  0  0  0  0
   -3.6143   -1.1882    1.1484 C   0  0  0  0  0  0  0  0  0  0  0  0
   -4.4725   -1.6966    0.1908 C   0  0  0  0  0  0  0  0  0  0  0  0
   -5.2382   -0.7842   -0.4944 C   0  0  0  0  0  0  0  0  0  0  0  0
   -5.0144    0.5873   -0.3074 C   0  0  0  0  0  0  0  0  0  0  0  0
   -3.9531    1.0494    0.4592 C   0  0  0  0  0  0  0  0  0  0  0  0
   -3.6510    2.3506    0.5153 F   0  0  0  0  0  0  0  0  0  0  0  0
  1  2  1  0
  2  3  1  0
  3  4  2  0
  5 22  1  6
  5  6  1  0
  5  3  1  0
  6  7  1  0
  7  8  1  0
  7 12  1  0
  8  9  1  0
  9 10  1  0
 10 11  1  0
 10 13  1  0
 10 17  1  0
 11 12  1  0
 13 14  1  0
 14 15  1  0
 15 16  1  0
 16 17  2  0
 16 21  1  0
 17 18  1  0
 18 19  1  0
 19 20  1  0
 19 21  2  0
 22 23  1  0
 23 24  2  0
 23 28  1  0
 24 25  1  0
 25 26  2  0
 26 27  1  0
 27 28  2  0
 28 29  1  0
M  END
>  <DRUGBANK_ID>  (1) 
DB15208

>  <COMMON_NAME>  (1) 
NOP-1A

>  <CAS_NUMBER>  (1) 
1283095-70-4

>  <UNII>  (1) 
DQY244459T

$$$$
