N2G
     RDKit          3D

 34 38  0  0  0  0  0  0  0  0999 V2000
    0.9243    0.0637   -0.0143 P   0  0  0  0  0  0  0  0  0  0  0  0
    0.6992    0.6968   -1.4835 O   0  0  0  0  0  0  0  0  0  0  0  0
    0.7864   -1.4114    0.2786 O   0  0  0  0  0  0  0  0  0  0  0  0
   -0.8057    0.0637   -0.0143 O   0  0  0  0  0  0  0  0  0  0  0  0
    2.6543    0.0637   -0.0143 O   0  0  0  0  0  0  0  0  0  0  0  0
    4.0479   -1.8897    3.1620 C   0  0  0  0  0  0  0  0  0  0  0  0
    3.4258   -2.2973    1.9723 C   0  0  0  0  0  0  0  0  0  0  0  0
    2.2622   -3.0617    1.9737 C   0  0  0  0  0  0  0  0  0  0  0  0
    1.6282   -3.3685    3.1626 C   0  0  0  0  0  0  0  0  0  0  0  0
    2.2044   -2.9663    4.3624 C   0  0  0  0  0  0  0  0  0  0  0  0
    3.4213   -2.2588    4.3794 C   0  0  0  0  0  0  0  0  0  0  0  0
    4.0252   -1.9192    5.5951 C   0  0  0  0  0  0  0  0  0  0  0  0
    5.2312   -1.2218    5.6199 C   0  0  0  0  0  0  0  0  0  0  0  0
    5.8435   -0.8368    4.4267 C   0  0  0  0  0  0  0  0  0  0  0  0
    5.2594   -1.1464    3.1849 C   0  0  0  0  0  0  0  0  0  0  0  0
    5.9295   -0.6711    1.9075 C   0  0  0  0  0  0  0  0  0  0  0  0
    6.8382   -1.6657    1.3736 N   0  0  0  0  0  0  0  0  0  0  0  0
    6.6946   -2.2659    0.1467 C   0  0  0  0  0  0  0  0  0  0  0  0
    7.6757   -3.2028   -0.1517 N   0  0  0  0  0  0  0  0  0  0  0  0
    7.7473   -3.9488   -1.3230 C   0  0  0  0  0  0  0  0  0  0  0  0
    8.6347   -4.7521   -1.5356 O   0  0  0  0  0  0  0  0  0  0  0  0
    5.7195   -1.9830   -0.6892 N   0  0  0  0  0  0  0  0  0  0  0  0
    5.7487   -2.6922   -1.8535 C   0  0  0  0  0  0  0  0  0  0  0  0
    6.6672   -3.6458   -2.2264 C   0  0  0  0  0  0  0  0  0  0  0  0
    6.4049   -4.1955   -3.4554 N   0  0  0  0  0  0  0  0  0  0  0  0
    5.3233   -3.5771   -3.8478 C   0  0  0  0  0  0  0  0  0  0  0  0
    4.9002   -2.6583   -2.9263 N   0  0  0  0  0  0  0  0  0  0  0  0
    3.6727   -1.9771   -3.1620 C   0  0  2  0  0  0  0  0  0  0  0  0
    3.8760   -0.5630   -3.1334 O   0  0  0  0  0  0  0  0  0  0  0  0
    2.5852   -2.4003   -2.2366 C   0  0  0  0  0  0  0  0  0  0  0  0
    1.7099   -1.2342   -2.4534 C   0  0  1  0  0  0  0  0  0  0  0  0
    2.7082   -0.0189   -2.5086 C   0  0  1  0  0  0  0  0  0  0  0  0
    3.1881    0.6710   -1.1829 C   0  0  0  0  0  0  0  0  0  0  0  0
    0.8178   -1.3620   -3.5546 O   0  0  0  0  0  0  0  0  0  0  0  0
  1  2  1  0
  1  3  2  0
  1  4  1  0
  1  5  1  0
  5 33  1  0
  6  7  2  0
  6 11  1  0
  6 15  1  0
  7  8  1  0
  8  9  2  0
  9 10  1  0
 10 11  2  0
 11 12  1  0
 12 13  2  0
 13 14  1  0
 14 15  2  0
 15 16  1  0
 16 17  1  0
 17 18  1  0
 18 19  1  0
 18 22  2  0
 19 20  1  0
 20 21  2  0
 20 24  1  0
 22 23  1  0
 23 24  2  0
 23 27  1  0
 24 25  1  0
 25 26  2  0
 26 27  1  0
 28 29  1  0
 28 30  1  0
 28 27  1  1
 29 32  1  0
 30 31  1  0
 31 32  1  0
 31 34  1  6
 32 33  1  1
M  END
>  <DRUGBANK_ID>  (1) 
DB08237

>  <COMMON_NAME>  (1) 
2'-deoxy-N-(naphthalen-1-ylmethyl)guanosine 5'-(dihydrogen phosphate)

$$$$
