
     RDKit          3D

 10  9  0  0  1  0  0  0  0  0999 V2000
   -3.0757    0.2895   -3.3756 O   0  0  0  0  0  0  0  0  0  0  0  0
   -1.8222   -0.0530   -3.9273 C   0  0  0  0  0  0  0  0  0  0  0  0
   -1.1216   -1.2818   -3.3494 C   0  0  2  0  0  0  0  0  0  0  0  0
   -1.4847   -1.4368   -1.9697 O   0  0  0  0  0  0  0  0  0  0  0  0
    0.4183   -1.1810   -3.4978 C   0  0  2  0  0  0  0  0  0  0  0  0
    0.9350   -0.3448   -2.4544 O   0  0  0  0  0  0  0  0  0  0  0  0
    0.9726   -0.7431   -4.8779 C   0  0  0  0  0  0  0  0  0  0  0  0
    1.6201   -1.5434   -5.5777 O   0  0  0  0  0  0  0  0  0  0  0  0
    0.7802    0.7031   -5.3849 C   0  0  0  0  0  0  0  0  0  0  0  0
   -0.4654    1.0894   -5.9249 O   0  0  0  0  0  0  0  0  0  0  0  0
  1  2  1  0
  3  4  1  1
  3  2  1  0
  5  7  1  0
  5  6  1  1
  5  3  1  0
  7  8  2  0
  7  9  1  0
  9 10  1  0
M  END
>  <DRUGBANK_ID>  (1) 
DB03947

>  <SECONDARY_ACCESSION_NUMBERS>  (1) 
EXPT03263

>  <COMMON_NAME>  (1) 
D-Xylulose

>  <CAS_NUMBER>  (1) 
551-84-8

>  <UNII>  (1) 
202306UV02

$$$$
