
     RDKit          3D

 21 23  0  0  1  0  0  0  0  0999 V2000
   -0.5437    0.6606    0.7129 C   0  0  0  0  0  0  0  0  0  0  0  0
    1.7550   -2.9863   -4.0115 C   0  0  0  0  0  0  0  0  0  0  0  0
   -1.9464   -1.7547   -2.0974 C   0  0  0  0  0  0  0  0  0  0  0  0
    0.2663    1.1222   -0.5628 C   0  0  1  0  0  0  0  0  0  0  0  0
   -0.8466   -2.4533   -3.7881 C   0  0  0  0  0  0  0  0  0  0  0  0
    1.0807   -0.1532   -0.7028 C   0  0  2  0  0  0  0  0  0  0  0  0
   -0.3552   -3.0048   -4.9852 C   0  0  0  0  0  0  0  0  0  0  0  0
    0.0804   -2.1968   -2.7977 C   0  0  0  0  0  0  0  0  0  0  0  0
    0.0275   -1.2567   -0.5066 C   0  0  2  0  0  0  0  0  0  0  0  0
   -1.1497   -3.2848   -6.0790 N   0  0  0  0  0  0  0  0  0  0  0  0
    0.9687   -3.2833   -5.0677 N   0  0  0  0  0  0  0  0  0  0  0  0
    1.4033   -2.4315   -2.8392 N   0  0  0  0  0  0  0  0  0  0  0  0
   -2.1134   -2.1284   -3.3527 N   0  0  0  0  0  0  0  0  0  0  0  0
   -0.6272   -1.6674   -1.7463 N   0  0  0  0  0  0  0  0  0  0  0  0
    2.0513   -0.2147    0.3788 O   0  0  0  0  0  0  0  0  0  0  0  0
   -2.4482    0.6359   -0.8129 O   0  0  0  0  0  0  0  0  0  0  0  0
   -1.3414    2.9816   -0.2436 O   0  0  0  0  0  0  0  0  0  0  0  0
   -3.4716    2.5772   -0.9955 O   0  0  0  0  0  0  0  0  0  0  0  0
   -0.8721   -0.7457    0.5084 O   0  0  0  0  0  0  0  0  0  0  0  0
   -0.4853    1.5119   -1.8289 O   0  0  0  0  0  0  0  0  0  0  0  0
   -2.0612    2.0741   -1.3891 P   0  0  0  0  0  0  0  0  0  0  0  0
  4  1  1  0
  4 20  1  6
  6  4  1  0
  6 15  1  1
  7  5  2  0
  8  5  1  0
  9  6  1  0
  9 14  1  6
 10  7  1  0
 11  2  2  0
 11  7  1  0
 12  2  1  0
 12  8  2  0
 13  3  2  0
 13  5  1  0
 14  3  1  0
 14  8  1  0
 19  1  1  0
 19  9  1  0
 21 16  1  0
 21 17  1  0
 21 18  2  0
 21 20  1  0
M  END
>  <DRUGBANK_ID>  (1) 
DB02454

>  <SECONDARY_ACCESSION_NUMBERS>  (1) 
EXPT01386

>  <COMMON_NAME>  (1) 
5-(6-Amino-9h-Purin-9-Yl)-4-Hydroxytetrahydrofuran-3-Yl Dihydrogen Phosphate

$$$$
