
     RDKit          3D

 19 19  0  0  1  0  0  0  0  0999 V2000
   -5.2165   -7.3365   -5.8133 C   0  0  0  0  0  0  0  0  0  0  0  0
   -7.6013   -7.8230   -5.2792 C   0  0  0  0  0  0  0  0  0  0  0  0
   -3.9966   -1.2755   -1.8470 C   0  0  0  0  0  0  0  0  0  0  0  0
   -1.3427   -5.3496   -3.6207 C   0  0  0  0  0  0  0  0  0  0  0  0
   -1.1502   -4.5699   -4.9160 C   0  0  0  0  0  0  0  0  0  0  0  0
   -6.0037   -7.1421   -3.4138 C   0  0  0  0  0  0  0  0  0  0  0  0
   -6.3865   -6.9669   -4.9014 C   0  0  0  0  0  0  0  0  0  0  0  0
   -4.4266   -1.9617   -3.1381 C   0  0  2  0  0  0  0  0  0  0  0  0
   -4.8673   -6.2228   -3.0308 C   0  0  0  0  0  0  0  0  0  0  0  0
   -3.5270   -3.1183   -3.6715 C   0  0  1  0  0  0  0  0  0  0  0  0
   -3.4230   -6.6712   -3.0746 C   0  0  0  0  0  0  0  0  0  0  0  0
   -3.5917   -4.4137   -2.7692 C   0  0  1  0  0  0  0  0  0  0  0  0
   -3.9331   -3.4106   -5.0857 N   0  0  0  0  0  0  0  0  0  0  0  0
   -4.9857   -4.9450   -2.8244 N   0  0  0  0  0  0  0  0  0  0  0  0
   -2.7470   -5.4981   -3.2277 N   0  0  0  0  0  0  0  0  0  0  0  0
   -0.4701   -3.5508   -5.0033 O   0  0  0  0  0  0  0  0  0  0  0  0
   -4.5204   -0.9075   -4.1156 O   0  0  0  0  0  0  0  0  0  0  0  0
   -3.0426   -7.8197   -3.0182 O   0  0  0  0  0  0  0  0  0  0  0  0
   -3.1476   -4.1099   -1.4689 O   0  0  0  0  0  0  0  0  0  0  0  0
  5  4  1  0
  7  1  1  0
  7  2  1  0
  7  6  1  0
  8  3  1  1
  8 17  1  0
  9  6  1  0
 10 13  1  6
 10  8  1  0
 11  9  1  0
 12 10  1  0
 12 19  1  1
 14  9  2  0
 14 12  1  0
 15  4  1  0
 15 11  1  0
 15 12  1  0
 16  5  2  0
 18 11  2  0
M  END
>  <DRUGBANK_ID>  (1) 
DB02488

>  <SECONDARY_ACCESSION_NUMBERS>  (1) 
EXPT01009

>  <COMMON_NAME>  (1) 
1-(2-Ethanone)-2-Hydroxy-2-(1-Amino-2-Methyl-2-Ethanol)-4-(2-Dimethyl)Ethane-Imidazoline-5-One;Chromophore (Thr-Leu-Gly)

$$$$
