
     RDKit          3D

 29 31  0  0  1  0  0  0  0  0999 V2000
    0.5325    0.3156    0.4518 O   0  0  0  0  0  0  0  0  0  0  0  0
    0.4260   -0.5612    1.5284 N   0  0  0  0  0  0  0  0  0  0  0  0
    1.4314   -0.9227    2.3645 C   0  0  0  0  0  0  0  0  0  0  0  0
    1.1265   -1.3726    3.4745 O   0  0  0  0  0  0  0  0  0  0  0  0
    2.9089   -0.7490    2.0008 C   0  0  0  0  0  0  0  0  0  0  0  0
    3.4338   -1.5948    0.8352 C   0  0  0  0  0  0  0  0  0  0  0  0
    2.9377   -1.1657   -0.5146 C   0  0  0  0  0  0  0  0  0  0  0  0
    2.1951   -2.0875   -1.1667 N   0  0  0  0  0  0  0  0  0  0  0  0
    1.4761   -1.6662   -2.2161 C   0  0  0  0  0  0  0  0  0  0  0  0
    1.4316   -0.3503   -2.6295 C   0  0  0  0  0  0  0  0  0  0  0  0
    0.5091   -0.0127   -3.7516 C   0  0  0  0  0  0  0  0  0  0  0  0
    1.0972   -0.4565   -5.0131 N   0  0  0  0  0  0  0  0  0  0  0  0
    0.4894    0.1583   -6.2096 C   0  0  1  0  0  0  0  0  0  0  0  0
    0.7694    1.6795   -6.4163 C   0  0  0  0  0  0  0  0  0  0  0  0
    1.6652    2.2429   -5.3085 C   0  0  0  0  0  0  0  0  0  0  0  0
    1.9874    3.7010   -5.3423 C   0  0  0  0  0  0  0  0  0  0  0  0
    0.6711    4.4659   -5.3698 C   0  0  0  0  0  0  0  0  0  0  0  0
   -0.1996    4.0098   -6.5418 C   0  0  0  0  0  0  0  0  0  0  0  0
   -0.5281    2.5090   -6.4956 C   0  0  0  0  0  0  0  0  0  0  0  0
    0.9603   -0.6022   -7.4567 C   0  0  0  0  0  0  0  0  0  0  0  0
    0.1608   -1.2095   -8.1864 O   0  0  0  0  0  0  0  0  0  0  0  0
    2.3026   -0.4929   -7.6876 O   0  0  0  0  0  0  0  0  0  0  0  0
    2.8448   -1.1126   -8.8733 C   0  0  0  0  0  0  0  0  0  0  0  0
    2.2797   -0.5530  -10.1792 C   0  0  0  0  0  0  0  0  0  0  0  0
    2.3997   -1.6841  -11.1959 C   0  0  0  0  0  0  0  0  0  0  0  0
    2.7178   -2.9611  -10.4189 C   0  0  0  0  0  0  0  0  0  0  0  0
    2.5922   -2.6151   -8.9459 C   0  0  0  0  0  0  0  0  0  0  0  0
    2.2547    0.5853   -1.9862 C   0  0  0  0  0  0  0  0  0  0  0  0
    3.0682    0.1589   -0.9415 C   0  0  0  0  0  0  0  0  0  0  0  0
  1  2  1  0
  2  3  1  0
  3  4  2  0
  3  5  1  0
  5  6  1  0
  6  7  1  0
  7  8  2  0
  7 29  1  0
  8  9  1  0
  9 10  2  0
 10 11  1  0
 10 28  1  0
 11 12  1  0
 13 12  1  1
 13 14  1  0
 13 20  1  0
 14 15  1  0
 14 19  1  0
 15 16  1  0
 16 17  1  0
 17 18  1  0
 18 19  1  0
 20 21  2  0
 20 22  1  0
 22 23  1  0
 23 24  1  0
 23 27  1  0
 24 25  1  0
 25 26  1  0
 26 27  1  0
 28 29  2  0
M  END
>  <DRUGBANK_ID>  (1) 
DB15440

>  <COMMON_NAME>  (1) 
GSK-3117391

>  <CAS_NUMBER>  (1) 
1018673-42-1

>  <UNII>  (1) 
CKA3P0O1VI

>  <SYNONYMS>  (1) 
GSK3117391

$$$$
