
     RDKit          3D

 42 46  0  0  0  0  0  0  0  0999 V2000
    0.5897   -1.2536   -0.0328 C   0  0  2  0  0  0  0  0  0  0  0  0
    1.1844   -2.4893   -0.5352 N   0  0  0  0  0  0  0  0  0  0  0  0
    2.6344   -2.4995   -0.2721 C   0  0  0  0  0  0  0  0  0  0  0  0
    0.5641   -3.6182    0.1665 C   0  0  0  0  0  0  0  0  0  0  0  0
   -0.5025    0.0364    2.5678 C   0  0  0  0  0  0  0  0  0  0  0  0
    0.7590    0.6274    2.7987 C   0  0  0  0  0  0  0  0  0  0  0  0
    1.6883   -0.0331    3.6133 C   0  0  0  0  0  0  0  0  0  0  0  0
    1.3177   -1.1240    4.4024 C   0  0  0  0  0  0  0  0  0  0  0  0
    0.0061   -1.5954    4.3244 C   0  0  0  0  0  0  0  0  0  0  0  0
   -0.8667   -1.0823    3.3523 C   0  0  0  0  0  0  0  0  0  0  0  0
   -1.4462    0.5573    1.4844 C   0  0  0  0  0  0  0  0  0  0  0  0
   -1.0429    0.4508    0.0592 N   0  0  0  0  0  0  0  0  0  0  0  0
    1.1922    1.9497    2.2205 C   0  0  0  0  0  0  0  0  0  0  0  0
   -0.8794   -0.9570   -0.3514 C   0  0  0  0  0  0  0  0  0  0  0  0
    1.2684    0.0135   -0.5253 C   0  0  0  0  0  0  0  0  0  0  0  0
    0.1731    1.0817   -0.4828 C   0  0  0  0  0  0  0  0  0  0  0  0
    1.7384    2.7850    3.1412 F   0  0  0  0  0  0  0  0  0  0  0  0
    2.1569    1.8290    1.2706 F   0  0  0  0  0  0  0  0  0  0  0  0
    0.1682    2.6668    1.6928 F   0  0  0  0  0  0  0  0  0  0  0  0
    2.3801   -1.6686    5.3006 C   0  0  0  0  0  0  0  0  0  0  0  0
    2.0344   -2.7430    6.1066 N   0  0  0  0  0  0  0  0  0  0  0  0
    2.9170   -3.3024    7.0481 C   0  0  0  0  0  0  0  0  0  0  0  0
    3.7977   -2.5159    7.7798 C   0  0  0  0  0  0  0  0  0  0  0  0
    4.5924   -3.0918    8.7664 C   0  0  0  0  0  0  0  0  0  0  0  0
    4.5194   -4.4672    9.0341 C   0  0  0  0  0  0  0  0  0  0  0  0
    3.5872   -5.2639    8.3403 C   0  0  0  0  0  0  0  0  0  0  0  0
    2.8395   -4.6710    7.3053 C   0  0  0  0  0  0  0  0  0  0  0  0
    3.4710   -6.6461    8.6456 N   0  0  0  0  0  0  0  0  0  0  0  0
    2.4803   -7.4737    8.1163 C   0  0  0  0  0  0  0  0  0  0  0  0
    1.4739   -7.8891    8.9020 N   0  0  0  0  0  0  0  0  0  0  0  0
    0.5199   -8.6402    8.3148 C   0  0  0  0  0  0  0  0  0  0  0  0
    0.5595   -9.0189    6.9956 C   0  0  0  0  0  0  0  0  0  0  0  0
    1.6450   -8.5712    6.2782 C   0  0  0  0  0  0  0  0  0  0  0  0
    2.5917   -7.7961    6.8227 N   0  0  0  0  0  0  0  0  0  0  0  0
    1.8526   -8.8917    4.8790 C   0  0  0  0  0  0  0  0  0  0  0  0
    0.9053   -8.6380    3.9061 C   0  0  0  0  0  0  0  0  0  0  0  0
    1.0542   -8.9383    2.6004 N   0  0  0  0  0  0  0  0  0  0  0  0
    2.2201   -9.5158    2.2710 C   0  0  0  0  0  0  0  0  0  0  0  0
    3.2216   -9.8083    3.1136 N   0  0  0  0  0  0  0  0  0  0  0  0
    3.0159   -9.4722    4.4056 C   0  0  0  0  0  0  0  0  0  0  0  0
    5.4772   -5.0701   10.0222 C   0  0  0  0  0  0  0  0  0  0  0  0
    3.4913   -1.1800    5.2414 O   0  0  0  0  0  0  0  0  0  0  0  0
  1 15  1  0
  1  2  1  6
  2  4  1  0
  2  3  1  0
  5  6  2  0
  5 11  1  0
  6  7  1  0
  6 13  1  0
  7  8  2  0
  8  9  1  0
  8 20  1  0
  9 10  2  0
 10  5  1  0
 11 12  1  0
 12 14  1  0
 13 17  1  0
 13 18  1  0
 13 19  1  0
 14  1  1  0
 15 16  1  0
 16 12  1  0
 20 21  1  0
 20 42  2  0
 21 22  1  0
 22 23  2  0
 23 24  1  0
 24 25  2  0
 25 26  1  0
 25 41  1  0
 26 27  2  0
 26 28  1  0
 27 22  1  0
 28 29  1  0
 29 30  2  0
 30 31  1  0
 31 32  2  0
 32 33  1  0
 33 34  2  0
 33 35  1  0
 34 29  1  0
 35 36  2  0
 36 37  1  0
 37 38  2  0
 38 39  1  0
 39 40  2  0
 40 35  1  0
M  END
>  <DRUGBANK_ID>  (1) 
DB11851

>  <COMMON_NAME>  (1) 
Bafetinib

>  <CAS_NUMBER>  (1) 
859212-16-1

>  <UNII>  (1) 
NVW4Z03I9B

>  <SYNONYMS>  (1) 
Baf√©tinib; Bafetinib; Bafetinibum

$$$$
