SHM
     RDKit          3D

 17 18  0  0  0  0  0  0  0  0999 V2000
    0.0975   -0.9059    0.9550 C   0  0  1  0  0  0  0  0  0  0  0  0
    0.1048    0.6288    1.0681 C   0  0  2  0  0  0  0  0  0  0  0  0
   -1.1073    1.0327    0.3800 N   0  0  0  0  0  0  0  0  0  0  0  0
   -1.7791   -0.0328   -0.1510 C   0  0  0  0  0  0  0  0  0  0  0  0
   -1.1280   -1.1799    0.2319 N   0  0  0  0  0  0  0  0  0  0  0  0
    1.3864    1.1779    0.4239 C   0  0  1  0  0  0  0  0  0  0  0  0
    1.8422   -0.0026   -0.8538 S   0  0  0  0  0  0  0  0  0  0  0  0
    1.3529   -1.3748    0.2129 C   0  0  0  0  0  0  0  0  0  0  0  0
    1.2251    2.6024   -0.0829 C   0  0  0  0  0  0  0  0  0  0  0  0
    0.8448    3.5127    1.0922 C   0  0  0  0  0  0  0  0  0  0  0  0
    1.9322    3.4991    2.1755 C   0  0  0  0  0  0  0  0  0  0  0  0
    3.2543    4.0516    1.6376 C   0  0  0  0  0  0  0  0  0  0  0  0
    3.1034    5.4688    1.0836 C   0  0  0  0  0  0  0  0  0  0  0  0
    2.7130    6.4578    2.1522 C   0  0  0  0  0  0  0  0  0  0  0  0
    3.4048    7.3798    2.5542 O   0  0  0  0  0  0  0  0  0  0  0  0
    1.4919    6.2405    2.6771 O   0  0  0  0  0  0  0  0  0  0  0  0
   -2.7882    0.0357   -0.8328 O   0  0  0  0  0  0  0  0  0  0  0  0
  1  2  1  0
  1  5  1  0
  1  8  1  6
  2  3  1  6
  2  6  1  0
  3  4  1  0
  4  5  1  0
  4 17  2  0
  6  7  1  0
  6  9  1  6
  7  8  1  0
  9 10  1  0
 10 11  1  0
 11 12  1  0
 12 13  1  0
 13 14  1  0
 14 15  2  0
 14 16  1  0
M  END
>  <DRUGBANK_ID>  (1) 
DB03112

>  <SECONDARY_ACCESSION_NUMBERS>  (1) 
EXPT02904

>  <COMMON_NAME>  (1) 
6-(2-Oxo-Hexahydro-Thieno[3,4-D]Imidazol-4-Yl)-Hexanoic Acid

$$$$
