
     RDKit          3D

 30 34  0  0  0  0  0  0  0  0999 V2000
    1.9461   -0.9470    0.1771 O   0  0  0  0  0  0  0  0  0  0  0  0
    1.6516    0.3724    0.0137 C   0  0  0  0  0  0  0  0  0  0  0  0
    0.7846   -1.7843    0.1237 C   0  0  2  0  0  0  0  0  0  0  0  0
    0.9427   -2.6846   -1.1901 C   0  0  2  0  0  0  0  0  0  0  0  0
    2.2062   -3.4874   -1.1808 N   0  0  0  0  0  0  0  0  0  0  0  0
    1.9143   -4.8839   -0.8155 C   0  0  0  0  0  0  0  0  0  0  0  0
    2.9173   -3.4673   -2.4647 C   0  0  0  0  0  0  0  0  0  0  0  0
    3.0766   -2.0413   -2.9876 C   0  0  0  0  0  0  0  0  0  0  0  0
    1.7076   -1.4886   -3.2842 C   0  0  0  0  0  0  0  0  0  0  0  0
    1.5107   -0.6119   -4.3540 C   0  0  0  0  0  0  0  0  0  0  0  0
    0.2327   -0.1517   -4.5613 C   0  0  0  0  0  0  0  0  0  0  0  0
   -0.1268    0.7218   -5.5404 O   0  0  0  0  0  0  0  0  0  0  0  0
   -1.5470    0.8008   -5.3207 C   0  0  0  0  0  0  0  0  0  0  0  0
   -1.9954    0.0299   -4.1879 O   0  0  0  0  0  0  0  0  0  0  0  0
   -0.8344   -0.5766   -3.7946 C   0  0  0  0  0  0  0  0  0  0  0  0
   -0.6958   -1.5122   -2.7694 C   0  0  0  0  0  0  0  0  0  0  0  0
   -1.8574   -1.9257   -2.1719 O   0  0  0  0  0  0  0  0  0  0  0  0
   -1.9384   -3.0522   -1.2988 C   0  0  0  0  0  0  0  0  0  0  0  0
    0.6227   -1.8994   -2.4542 C   0  0  0  0  0  0  0  0  0  0  0  0
    2.5227    1.1953   -0.0435 O   0  0  0  0  0  0  0  0  0  0  0  0
   -0.3225   -0.7660    0.2726 C   0  0  0  0  0  0  0  0  0  0  0  0
   -1.6799   -0.9305    0.5681 C   0  0  0  0  0  0  0  0  0  0  0  0
   -2.5902    0.0706    0.2572 C   0  0  0  0  0  0  0  0  0  0  0  0
   -2.1245    1.3537    0.0098 C   0  0  0  0  0  0  0  0  0  0  0  0
   -0.7219    1.5988   -0.0358 C   0  0  0  0  0  0  0  0  0  0  0  0
    0.1626    0.5054    0.0382 C   0  0  0  0  0  0  0  0  0  0  0  0
   -0.3804    2.9128   -0.1352 O   0  0  0  0  0  0  0  0  0  0  0  0
    0.9787    3.2616   -0.1031 C   0  0  0  0  0  0  0  0  0  0  0  0
   -3.1635    2.2519   -0.0865 O   0  0  0  0  0  0  0  0  0  0  0  0
   -2.8191    3.6266   -0.0667 C   0  0  0  0  0  0  0  0  0  0  0  0
  1  2  1  0
  3  1  1  6
  2 26  1  0
  2 20  2  0
  3  4  1  0
  4  5  1  6
  4 19  1  0
  5  6  1  0
  5  7  1  0
  7  8  1  0
  8  9  1  0
  9 10  2  0
  9 19  1  0
 10 11  1  0
 11 12  1  0
 11 15  2  0
 12 13  1  0
 13 14  1  0
 14 15  1  0
 15 16  1  0
 16 17  1  0
 16 19  2  0
 17 18  1  0
 21  3  1  0
 21 22  1  0
 21 26  2  0
 22 23  2  0
 23 24  1  0
 24 25  2  0
 24 29  1  0
 25 26  1  0
 25 27  1  0
 27 28  1  0
 29 30  1  0
M  END
>  <DRUGBANK_ID>  (1) 
DB06174

>  <COMMON_NAME>  (1) 
Noscapine

>  <CAS_NUMBER>  (1) 
128-62-1

>  <UNII>  (1) 
8V32U4AOQU

>  <SYNONYMS>  (1) 
(−)-narcotine; (−)-α-narcotine; alpha-Narcotine; Noscapina; Noscapine; Noscapinum

$$$$
