
     RDKit          3D

 36 40  0  0  0  0  0  0  0  0999 V2000
    7.1084  -10.1845   -1.7296 C   0  0  0  0  0  0  0  0  0  0  0  0
    6.9220  -10.9110   -2.8937 N   0  0  0  0  0  0  0  0  0  0  0  0
    6.2988  -10.4041   -4.1218 C   0  0  2  0  0  0  0  0  0  0  0  0
    4.7908   -9.5135   -3.6683 S   0  0  0  0  0  0  0  0  0  0  0  0
    5.7243   -8.2832   -2.6884 C   0  0  0  0  0  0  0  0  0  0  0  0
    6.5931   -8.9269   -1.6226 C   0  0  0  0  0  0  0  0  0  0  0  0
    6.1794  -11.8941   -4.5923 C   0  0  1  0  0  0  0  0  0  0  0  0
    6.5467  -12.2097   -3.0958 C   0  0  0  0  0  0  0  0  0  0  0  0
    6.6043  -13.1394   -2.3423 O   0  0  0  0  0  0  0  0  0  0  0  0
    7.9082  -10.7647   -0.5614 C   0  0  0  0  0  0  0  0  0  0  0  0
    8.4981  -11.9570   -0.7773 O   0  0  0  0  0  0  0  0  0  0  0  0
    8.1056  -10.1881    0.4988 O   0  0  0  0  0  0  0  0  0  0  0  0
    6.7971   -8.0819   -0.4457 C   0  0  0  0  0  0  0  0  0  0  0  0
    5.8408   -7.6984    0.4132 C   0  0  0  0  0  0  0  0  0  0  0  0
    4.3708   -7.9299    0.3823 C   0  0  0  0  0  0  0  0  0  0  0  0
    3.8782   -7.3476    1.6982 C   0  0  0  0  0  0  0  0  0  0  0  0
    4.9996   -6.6266    2.2688 N   0  0  0  0  0  0  0  0  0  0  0  0
    6.1898   -6.9218    1.6270 C   0  0  0  0  0  0  0  0  0  0  0  0
    7.3266   -6.6032    1.9195 O   0  0  0  0  0  0  0  0  0  0  0  0
    4.8219   -5.6579    3.3694 C   0  0  1  0  0  0  0  0  0  0  0  0
    4.2272   -6.2823    4.6350 C   0  0  0  0  0  0  0  0  0  0  0  0
    5.3668   -6.9337    5.2981 N   0  0  0  0  0  0  0  0  0  0  0  0
    6.5375   -6.0788    5.0054 C   0  0  0  0  0  0  0  0  0  0  0  0
    6.1140   -5.0758    3.9367 C   0  0  0  0  0  0  0  0  0  0  0  0
    4.8987  -12.4137   -5.2146 N   0  0  0  0  0  0  0  0  0  0  0  0
    4.9054  -13.1154   -6.4454 C   0  0  0  0  0  0  0  0  0  0  0  0
    3.5525  -13.6312   -7.1281 C   0  0  0  0  0  0  0  0  0  0  0  0
    5.9754  -13.2969   -7.0206 O   0  0  0  0  0  0  0  0  0  0  0  0
    3.6789  -14.5166   -8.3860 C   0  0  0  0  0  0  0  0  0  0  0  0
    2.3697  -13.4101   -6.5958 N   0  0  0  0  0  0  0  0  0  0  0  0
    2.4306  -12.7252   -5.3601 O   0  0  0  0  0  0  0  0  0  0  0  0
    4.6813  -15.4042   -8.3551 N   0  0  0  0  0  0  0  0  0  0  0  0
    4.6939  -16.2840   -9.7397 S   0  0  0  0  0  0  0  0  0  0  0  0
    3.3107  -15.5127  -10.4237 C   0  0  0  0  0  0  0  0  0  0  0  0
    2.8358  -14.5849   -9.5863 N   0  0  0  0  0  0  0  0  0  0  0  0
    2.9120  -15.9359  -11.6517 N   0  0  0  0  0  0  0  0  0  0  0  0
  1  2  1  0
  1  6  2  0
  1 10  1  0
  2  3  1  0
  3  4  1  1
  3  7  1  0
  4  5  1  0
  5  6  1  0
  6 13  1  0
  7  8  1  0
  7 25  1  1
  8  2  1  0
  8  9  2  0
 10 11  1  0
 10 12  2  0
 13 14  2  0
 14 15  1  0
 14 18  1  0
 15 16  1  0
 16 17  1  0
 17 18  1  0
 18 19  2  0
 20 21  1  0
 20 24  1  0
 20 17  1  6
 21 22  1  0
 22 23  1  0
 23 24  1  0
 25 26  1  0
 26 27  1  0
 26 28  2  0
 27 29  1  0
 27 30  2  0
 29 32  2  0
 29 35  1  0
 30 31  1  0
 32 33  1  0
 33 34  1  0
 34 35  2  0
 34 36  1  0
M  END
>  <DRUGBANK_ID>  (1) 
DB04918

>  <COMMON_NAME>  (1) 
Ceftobiprole

>  <CAS_NUMBER>  (1) 
209467-52-7

>  <UNII>  (1) 
5T97333YZK

>  <SYNONYMS>  (1) 
Ceftobiprol; Ceftobiprole

$$$$
