
     RDKit          3D

  9  9  0  0  0  0  0  0  0  0999 V2000
    2.2463    0.0286    0.0088 O   0  0  0  0  0  0  0  0  0  0  0  0
    2.9638   -1.1991   -0.0235 C   0  0  0  0  0  0  0  0  0  0  0  0
   -3.2696    0.1319   -0.0307 O   0  0  0  0  0  0  0  0  0  0  0  0
   -1.9099    0.0396   -0.0110 C   0  0  0  0  0  0  0  0  0  0  0  0
   -1.2637   -1.1916   -0.0022 C   0  0  0  0  0  0  0  0  0  0  0  0
    0.1351   -1.2389    0.0094 C   0  0  0  0  0  0  0  0  0  0  0  0
    0.8809   -0.0572    0.0099 C   0  0  0  0  0  0  0  0  0  0  0  0
    0.2139    1.1711    0.0112 C   0  0  0  0  0  0  0  0  0  0  0  0
   -1.1812    1.2217   -0.0004 C   0  0  0  0  0  0  0  0  0  0  0  0
  1  2  1  0
  1  7  1  0
  3  4  1  0
  4  5  2  0
  4  9  1  0
  5  6  1  0
  6  7  2  0
  7  8  1  0
  8  9  2  0
M  END
>  <DRUGBANK_ID>  (1) 
DB09516

>  <COMMON_NAME>  (1) 
Mequinol

>  <CAS_NUMBER>  (1) 
150-76-5

>  <UNII>  (1) 
6HT8U7K3AM

>  <SYNONYMS>  (1) 
4-Methoxyphenol; Mequinol

$$$$
