
     RDKit          3D

 36 39  0  0  0  0  0  0  0  0999 V2000
    0.9561   -0.0048   -0.1247 N   0  0  0  0  0  0  0  0  0  0  0  0
   -3.0489    2.3938   -3.6348 N   0  0  0  0  0  0  0  0  0  0  0  0
   -2.5102    3.4992   -3.2195 C   0  0  0  0  0  0  0  0  0  0  0  0
   -1.5031    3.5282   -2.2791 N   0  0  0  0  0  0  0  0  0  0  0  0
   -1.3258    2.4239   -1.4996 C   0  0  0  0  0  0  0  0  0  0  0  0
   -1.7997    1.1576   -2.0393 C   0  0  0  0  0  0  0  0  0  0  0  0
   -2.6157    1.2170   -3.1043 C   0  0  0  0  0  0  0  0  0  0  0  0
   -0.5931    4.5998   -1.9065 C   0  0  0  0  0  0  0  0  0  0  0  0
    0.1947    5.1963   -3.0272 C   0  0  0  0  0  0  0  0  0  0  0  0
   -0.3694    5.6695   -4.2192 C   0  0  0  0  0  0  0  0  0  0  0  0
    0.3125    6.0766   -5.3120 C   0  0  0  0  0  0  0  0  0  0  0  0
    1.6308    6.3211   -5.0863 C   0  0  0  0  0  0  0  0  0  0  0  0
    2.1846    6.2228   -3.7919 C   0  0  0  0  0  0  0  0  0  0  0  0
    1.4864    5.5998   -2.7766 C   0  0  0  0  0  0  0  0  0  0  0  0
    2.4401    6.5484   -6.2405 C   0  0  0  0  0  0  0  0  0  0  0  0
    3.4181    5.5927   -6.5648 C   0  0  0  0  0  0  0  0  0  0  0  0
    4.2430    5.8611   -7.6427 C   0  0  0  0  0  0  0  0  0  0  0  0
    4.1314    7.0771   -8.3250 C   0  0  0  0  0  0  0  0  0  0  0  0
    3.1046    7.9762   -8.0400 C   0  0  0  0  0  0  0  0  0  0  0  0
    2.2045    7.6748   -7.0404 C   0  0  0  0  0  0  0  0  0  0  0  0
    3.6417    4.3919   -5.7540 C   0  0  0  0  0  0  0  0  0  0  0  0
    4.7121    4.1306   -5.0277 N   0  0  0  0  0  0  0  0  0  0  0  0
    4.4726    2.9388   -4.3912 N   0  0  0  0  0  0  0  0  0  0  0  0
    3.2798    2.4621   -4.7099 N   0  0  0  0  0  0  0  0  0  0  0  0
    2.7414    3.3795   -5.5265 N   0  0  0  0  0  0  0  0  0  0  0  0
   -0.7595    2.4462   -0.3825 O   0  0  0  0  0  0  0  0  0  0  0  0
   -3.0430    4.7304   -3.9322 C   0  0  0  0  0  0  0  0  0  0  0  0
   -3.5657    5.9376   -3.1071 C   0  0  0  0  0  0  0  0  0  0  0  0
   -2.9197    6.4881   -1.8155 C   0  0  0  0  0  0  0  0  0  0  0  0
   -1.6990    7.4214   -1.9694 C   0  0  0  0  0  0  0  0  0  0  0  0
   -3.1526   -0.0279   -3.7396 C   0  0  0  0  0  0  0  0  0  0  0  0
   -1.2716   -0.0590   -1.3584 C   0  0  0  0  0  0  0  0  0  0  0  0
    0.2763   -0.0457   -1.3478 C   0  0  0  0  0  0  0  0  0  0  0  0
    1.0380   -0.1042   -2.8690 S   0  0  0  0  0  0  0  0  0  0  0  0
    0.3042    0.0469    1.1876 C   0  0  0  0  0  0  0  0  0  0  0  0
    2.4196    0.0486   -0.0462 C   0  0  0  0  0  0  0  0  0  0  0  0
  1 35  1  0
  1 36  1  0
  2  3  2  0
  3  4  1  0
  3 27  1  0
  4  5  1  0
  4  8  1  0
  5  6  1  0
  5 26  2  0
  6  7  2  0
  6 32  1  0
  7  2  1  0
  7 31  1  0
  8  9  1  0
  9 10  2  0
 10 11  1  0
 11 12  2  0
 12 13  1  0
 12 15  1  0
 13 14  2  0
 14  9  1  0
 15 16  1  0
 16 17  2  0
 16 21  1  0
 17 18  1  0
 18 19  2  0
 19 20  1  0
 20 15  2  0
 21 22  2  0
 22 23  1  0
 23 24  2  0
 24 25  1  0
 25 21  1  0
 27 28  1  0
 28 29  1  0
 29 30  1  0
 32 33  1  0
 33  1  1  0
 33 34  2  0
M  END
>  <DRUGBANK_ID>  (1) 
DB09279

>  <COMMON_NAME>  (1) 
Fimasartan

>  <CAS_NUMBER>  (1) 
247257-48-3

>  <UNII>  (1) 
P58222188P

>  <SYNONYMS>  (1) 
Fimasartan

$$$$
