AE4
     RDKit          3D

 18 17  0  0  0  0  0  0  0  0999 V2000
    0.8596   -0.1500   -0.2633 C   0  0  0  0  0  0  0  0  0  0  0  0
    0.3236    1.2604   -0.1052 C   0  0  0  0  0  0  0  0  0  0  0  0
    1.0670    2.3174   -0.6459 O   0  0  0  0  0  0  0  0  0  0  0  0
    2.4578    2.1541   -0.2468 C   0  0  0  0  0  0  0  0  0  0  0  0
    2.8793    1.6784    1.2574 C   0  0  0  0  0  0  0  0  0  0  0  0
    2.2697    0.6601    2.0744 O   0  0  0  0  0  0  0  0  0  0  0  0
    0.9094    0.9954    2.6043 C   0  0  0  0  0  0  0  0  0  0  0  0
    0.1853    2.6281    2.4318 C   0  0  0  0  0  0  0  0  0  0  0  0
    2.3154    4.1825    2.1293 C   0  0  0  0  0  0  0  0  0  0  0  0
    0.8951    3.8153    1.9334 O   0  0  0  0  0  0  0  0  0  0  0  0
    3.3315    3.5634    3.4085 C   0  0  0  0  0  0  0  0  0  0  0  0
    2.8264    2.7720    4.5786 O   0  0  0  0  0  0  0  0  0  0  0  0
    1.4001    2.7183    4.9221 C   0  0  0  0  0  0  0  0  0  0  0  0
    0.3043    3.9701    5.2101 C   0  0  0  0  0  0  0  0  0  0  0  0
    0.5263    5.3136    4.7225 O   0  0  0  0  0  0  0  0  0  0  0  0
    1.9071    5.5270    4.6547 C   0  0  0  0  0  0  0  0  0  0  0  0
    2.7998    5.3606    5.8997 C   0  0  0  0  0  0  0  0  0  0  0  0
    2.6870    4.1712    6.6758 O   0  0  0  0  0  0  0  0  0  0  0  0
  1  2  1  0
  2  3  1  0
  3  4  1  0
  4  5  1  0
  5  6  1  0
  6  7  1  0
  7  8  1  0
  8 10  1  0
  9 10  1  0
  9 11  1  0
 11 12  1  0
 12 13  1  0
 13 14  1  0
 14 15  1  0
 15 16  1  0
 16 17  1  0
 17 18  1  0
M  END
>  <DRUGBANK_ID>  (1) 
DB07344

>  <COMMON_NAME>  (1) 
3,6,9,12,15-PENTAOXAHEPTADECAN-1-OL

>  <UNII>  (1) 
AV4Y6WN88C

$$$$
