
     RDKit          3D

 11 10  0  0  0  0  0  0  0  0999 V2000
    0.9917    0.0191    0.0162 C   0  0  0  0  0  0  0  0  0  0  0  0
    0.7965    0.8177   -1.2795 C   0  0  0  0  0  0  0  0  0  0  0  0
    0.5024    0.0810   -2.3596 O   0  0  0  0  0  0  0  0  0  0  0  0
    0.9663    2.0110   -1.3754 O   0  0  0  0  0  0  0  0  0  0  0  0
    0.4296   -1.4221    0.2635 C   0  0  1  0  0  0  0  0  0  0  0  0
    0.9564   -1.9734    1.6188 C   0  0  0  0  0  0  0  0  0  0  0  0
    0.4886   -1.1766    2.7449 N   0  0  0  0  0  0  0  0  0  0  0  0
   -1.1229   -1.5311    0.2546 C   0  0  0  0  0  0  0  0  0  0  0  0
   -1.7680   -1.1543   -1.0811 C   0  0  0  0  0  0  0  0  0  0  0  0
   -1.3671   -2.1188   -2.2219 C   0  0  0  0  0  0  0  0  0  0  0  0
   -3.2829   -1.0652   -1.0268 C   0  0  0  0  0  0  0  0  0  0  0  0
  1  2  1  0
  5  1  1  1
  2  3  1  0
  2  4  2  0
  5  6  1  0
  5  8  1  0
  6  7  1  0
  8  9  1  0
  9 10  1  0
  9 11  1  0
M  END
>  <DRUGBANK_ID>  (1) 
DB00230

>  <SECONDARY_ACCESSION_NUMBERS>  (1) 
APRD01198

>  <COMMON_NAME>  (1) 
Pregabalin

>  <CAS_NUMBER>  (1) 
148553-50-8

>  <UNII>  (1) 
55JG375S6M

>  <SYNONYMS>  (1) 
(S)-3-Isobutyl GABA; 3-Isobutyl GABA; Pregabalin; Pregabalina

$$$$
