
     RDKit          3D

 30 32  0  0  0  0  0  0  0  0999 V2000
   -3.1001    1.5299    3.0650 C   0  0  0  0  0  0  0  0  0  0  0  0
   -3.8104    0.3098    3.2116 C   0  0  0  0  0  0  0  0  0  0  0  0
   -5.0976    0.2190    2.7412 C   0  0  0  0  0  0  0  0  0  0  0  0
   -5.6916    1.3958    2.3091 C   0  0  0  0  0  0  0  0  0  0  0  0
   -5.0171    2.6317    2.1708 C   0  0  0  0  0  0  0  0  0  0  0  0
   -3.6408    2.6554    2.3800 C   0  0  0  0  0  0  0  0  0  0  0  0
   -2.7084    3.6797    1.6781 C   0  0  0  0  0  0  0  0  0  0  0  0
   -2.3642    3.7059    0.1120 C   0  0  0  0  0  0  0  0  0  0  0  0
   -4.4714    2.7020   -0.8820 N   0  0  0  0  0  0  0  0  0  0  0  0
   -7.9064   -0.8161    0.5082 C   0  0  0  0  0  0  0  0  0  0  0  0
   -6.2123    0.2726   -0.7927 N   0  0  0  0  0  0  0  0  0  0  0  0
   -7.7793    2.1357   -1.5784 C   0  0  0  0  0  0  0  0  0  0  0  0
   -9.2561    2.2057   -1.2099 C   0  0  0  0  0  0  0  0  0  0  0  0
   -9.5412    0.8491   -0.5864 C   0  0  0  0  0  0  0  0  0  0  0  0
   -7.1638    1.3344   -0.4448 C   0  0  1  0  0  0  0  0  0  0  0  0
   -8.3338    0.6349    0.3028 C   0  0  2  0  0  0  0  0  0  0  0  0
   -3.8709    1.3662   -1.0479 C   0  0  1  0  0  0  0  0  0  0  0  0
   -3.1820    0.7495    0.1591 C   0  0  0  0  0  0  0  0  0  0  0  0
   -3.5525    3.8387   -0.8397 C   0  0  2  0  0  0  0  0  0  0  0  0
   -3.2354    4.1545   -2.3272 C   0  0  0  0  0  0  0  0  0  0  0  0
   -2.6075    3.3753   -3.0414 O   0  0  0  0  0  0  0  0  0  0  0  0
   -3.7960    5.2595   -2.8848 O   0  0  0  0  0  0  0  0  0  0  0  0
   -4.4558    6.3087   -2.1567 C   0  0  0  0  0  0  0  0  0  0  0  0
   -6.8207   -1.0538   -0.5611 C   0  0  2  0  0  0  0  0  0  0  0  0
   -7.0479   -1.5063   -2.9984 O   0  0  0  0  0  0  0  0  0  0  0  0
   -7.4195   -1.6634   -1.8239 C   0  0  0  0  0  0  0  0  0  0  0  0
   -8.4649   -2.4786   -1.6039 O   0  0  0  0  0  0  0  0  0  0  0  0
   -4.9616    0.3236   -1.4273 C   0  0  0  0  0  0  0  0  0  0  0  0
   -4.5759   -0.6331   -2.1130 O   0  0  0  0  0  0  0  0  0  0  0  0
   -5.8280    5.9075   -1.6332 C   0  0  0  0  0  0  0  0  0  0  0  0
  1  2  2  0
  1  6  1  0
  2  3  1  0
  3  4  2  0
  4  5  1  0
  5  6  2  0
  6  7  1  0
  7  8  1  0
 10 24  1  0
 16 10  1  6
 11 15  1  0
 12 13  1  0
 13 14  1  0
 15 12  1  6
 16 15  1  0
 16 14  1  0
 17 18  1  1
 17 28  1  0
 17  9  1  0
 19 20  1  0
 19  9  1  0
 19  8  1  1
 20 22  1  0
 20 21  2  0
 22 23  1  0
 23 30  1  0
 24 11  1  0
 24 26  1  6
 26 25  2  0
 26 27  1  0
 28 11  1  0
 28 29  2  0
M  END
>  <DRUGBANK_ID>  (1) 
DB00178

>  <SECONDARY_ACCESSION_NUMBERS>  (1) 
APRD00009

>  <COMMON_NAME>  (1) 
Ramipril

>  <CAS_NUMBER>  (1) 
87333-19-5

>  <UNII>  (1) 
L35JN3I7SJ

>  <SYNONYMS>  (1) 
(2S-(1(R*(R*)),2alpha,3abeta,6abeta))-1-(2-((1-(Ethoxycarbonyl)-3-phenylpropyl)amino)-1-oxopropyl)octahydrocyclopenta(b)pyrrole-2-carboxylic acid; Ramipril; Ramiprilum

$$$$
