
     RDKit          3D

 31 34  0  0  0  0  0  0  0  0999 V2000
    1.4579   -0.3048    0.0058 C   0  0  0  0  0  0  0  0  0  0  0  0
   -7.6806    1.5604   -1.2989 C   0  0  0  0  0  0  0  0  0  0  0  0
   -1.5913    6.2863   -0.5500 C   0  0  0  0  0  0  0  0  0  0  0  0
    0.5611   -1.3808    0.0250 C   0  0  0  0  0  0  0  0  0  0  0  0
    0.9824    0.9731   -0.0337 C   0  0  0  0  0  0  0  0  0  0  0  0
   -7.7104    2.8733   -1.1496 C   0  0  0  0  0  0  0  0  0  0  0  0
   -7.0864    0.8431   -0.1958 C   0  0  0  0  0  0  0  0  0  0  0  0
   -1.2144    4.9999   -0.4346 C   0  0  0  0  0  0  0  0  0  0  0  0
   -2.2658    6.8262    0.5934 C   0  0  0  0  0  0  0  0  0  0  0  0
   -3.0973    1.3617   -1.0887 C   0  0  0  0  0  0  0  0  0  0  0  0
   -0.8185   -1.1986   -0.0111 C   0  0  0  0  0  0  0  0  0  0  0  0
   -0.3814    1.1117    0.0313 C   0  0  0  0  0  0  0  0  0  0  0  0
   -2.7133    0.2310   -0.4676 C   0  0  0  0  0  0  0  0  0  0  0  0
   -7.2915    3.3235    0.1954 C   0  0  0  0  0  0  0  0  0  0  0  0
   -6.4465    1.3830    1.2295 C   0  0  0  0  0  0  0  0  0  0  0  0
   -1.5832    4.4045    0.8676 C   0  0  0  0  0  0  0  0  0  0  0  0
   -2.5873    6.0868    1.9686 C   0  0  0  0  0  0  0  0  0  0  0  0
   -4.5241    1.8348   -1.1620 C   0  0  0  0  0  0  0  0  0  0  0  0
   -5.4954    4.3216    0.0109 C   0  0  0  0  0  0  0  0  0  0  0  0
   -4.0683    2.1804    1.0572 C   0  0  0  0  0  0  0  0  0  0  0  0
   -4.8281    5.2039   -0.8437 C   0  0  0  0  0  0  0  0  0  0  0  0
   -3.5367    3.4893    0.6034 C   0  0  0  0  0  0  0  0  0  0  0  0
   -5.0725    6.2817    1.5513 C   0  0  0  0  0  0  0  0  0  0  0  0
   -5.9102    5.7047    2.7587 C   0  0  0  0  0  0  0  0  0  0  0  0
   -1.3067    0.0732   -0.1011 C   0  0  0  0  0  0  0  0  0  0  0  0
   -6.2755    2.8817    1.6400 C   0  0  0  0  0  0  0  0  0  0  0  0
   -2.7515    4.7385    2.0909 C   0  0  0  0  0  0  0  0  0  0  0  0
   -4.6545    3.8590    2.4351 C   0  0  0  0  0  0  0  0  0  0  0  0
   -4.8560    2.6609   -0.0463 N   0  0  0  0  0  0  0  0  0  0  0  0
   -4.1776    5.2344    0.4119 N   0  0  0  0  0  0  0  0  0  0  0  0
   -5.1651    4.7309    3.4433 O   0  0  0  0  0  0  0  0  0  0  0  0
  4  1  2  0
  5  1  1  0
  6  2  2  0
  7  2  1  0
  8  3  2  0
  9  3  1  0
 11  4  1  0
 12  5  2  0
 13 10  2  0
 14  6  1  0
 15  7  2  0
 16  8  1  0
 17  9  2  0
 18 10  1  0
 21 19  1  0
 22 20  1  0
 24 23  1  0
 25 11  2  0
 25 12  1  0
 25 13  1  0
 26 14  2  0
 26 15  1  0
 27 16  2  0
 27 17  1  0
 28 26  1  0
 28 27  1  0
 29 18  1  0
 29 19  1  0
 29 20  1  0
 30 21  1  0
 30 22  1  0
 30 23  1  0
 31 24  1  0
 31 28  1  0
M  END
>  <DRUGBANK_ID>  (1) 
DB17027

>  <COMMON_NAME>  (1) 
GBR-12783

>  <CAS_NUMBER>  (1) 
145428-33-7

>  <UNII>  (1) 
96Y892TJ2A

$$$$
