
     RDKit          3D

 29 31  0  0  0  0  0  0  0  0999 V2000
    1.3885   -0.1674    0.3740 S   0  0  0  0  0  0  0  0  0  0  0  0
   -0.9321   -0.5305   -2.3969 O   0  0  0  0  0  0  0  0  0  0  0  0
    0.4960    2.9032   -2.7936 O   0  0  0  0  0  0  0  0  0  0  0  0
    1.2903    0.7000   -4.3217 O   0  0  0  0  0  0  0  0  0  0  0  0
    0.7545   -1.5300   -0.2437 O   0  0  0  0  0  0  0  0  0  0  0  0
    1.3042    0.2548    1.7477 O   0  0  0  0  0  0  0  0  0  0  0  0
    0.6982    0.7583   -0.3580 O   0  0  0  0  0  0  0  0  0  0  0  0
    4.9380   -0.8607    0.9611 O   0  0  0  0  0  0  0  0  0  0  0  0
    2.8269   -3.7759    0.3567 O   0  0  0  0  0  0  0  0  0  0  0  0
   -1.8135    0.9712   -0.7251 N   0  0  0  0  0  0  0  0  0  0  0  0
   -3.2944    2.0086    0.6307 N   0  0  0  0  0  0  0  0  0  0  0  0
   -1.1470   -0.7499    0.9950 N   0  0  0  0  0  0  0  0  0  0  0  0
    2.9626   -0.3237    0.0253 N   0  0  0  0  0  0  0  0  0  0  0  0
   -1.5350    0.0295    3.2514 N   0  0  0  0  0  0  0  0  0  0  0  0
   -3.2333    1.4755    3.7399 N   0  0  0  0  0  0  0  0  0  0  0  0
    2.2970   -1.2783    3.0803 N   0  0  0  0  0  0  0  0  0  0  0  0
    0.4817    1.5904   -2.2689 C   0  0  2  0  0  0  0  0  0  0  0  0
    1.2432    0.4075   -2.9326 C   0  0  1  0  0  0  0  0  0  0  0  0
   -1.0063    0.8703   -1.9871 C   0  0  1  0  0  0  0  0  0  0  0  0
    0.4260   -0.8988   -2.6871 C   0  0  1  0  0  0  0  0  0  0  0  0
    0.9695   -1.8877   -1.6136 C   0  0  0  0  0  0  0  0  0  0  0  0
   -1.7814    0.3467    0.5405 C   0  0  0  0  0  0  0  0  0  0  0  0
   -2.8848    1.8373   -0.6117 C   0  0  0  0  0  0  0  0  0  0  0  0
   -2.5258    1.1554    1.3849 C   0  0  0  0  0  0  0  0  0  0  0  0
   -2.4310    0.9019    2.7801 C   0  0  0  0  0  0  0  0  0  0  0  0
   -0.9678   -0.7475    2.3414 C   0  0  0  0  0  0  0  0  0  0  0  0
    3.7272   -1.0232    0.9894 C   0  0  0  0  0  0  0  0  0  0  0  0
    3.0213   -1.9925    2.0479 C   0  0  2  0  0  0  0  0  0  0  0  0
    2.1618   -3.0904    1.4033 C   0  0  0  0  0  0  0  0  0  0  0  0
  1  5  1  0
  1  6  2  0
  1  7  2  0
  1 13  1  0
  2 19  1  0
  2 20  1  0
  5 21  1  0
  8 27  2  0
  9 29  1  0
 10 22  1  0
 10 23  1  0
 11 23  2  0
 11 24  1  0
 12 22  1  0
 12 26  2  0
 13 27  1  0
 14 25  2  0
 14 26  1  0
 15 25  1  0
 17  3  1  6
 17 18  1  0
 17 19  1  0
 18  4  1  6
 18 20  1  0
 19 10  1  1
 20 21  1  1
 22 24  2  0
 24 25  1  0
 27 28  1  0
 28 16  1  1
 28 29  1  0
M  END
>  <DRUGBANK_ID>  (1) 
DB03869

>  <SECONDARY_ACCESSION_NUMBERS>  (1) 
EXPT02955

>  <COMMON_NAME>  (1) 
5'-O-(L-Serylsulfamoyl)adenosine

$$$$
