
     RDKit          3D

 28 31  0  0  0  0  0  0  0  0999 V2000
    0.9950   -0.6386   -0.4396 C   0  0  0  0  0  0  0  0  0  0  0  0
    0.6000    1.7011    2.1072 C   0  0  0  0  0  0  0  0  0  0  0  0
   -1.9618    1.5606    3.6277 C   0  0  0  0  0  0  0  0  0  0  0  0
   -2.1046   -0.4554    3.0373 C   0  0  0  0  0  0  0  0  0  0  0  0
   -1.9337    2.8968    2.5598 C   0  0  0  0  0  0  0  0  0  0  0  0
   -6.3108   -2.4392    1.4196 C   0  0  0  0  0  0  0  0  0  0  0  0
   -6.4607   -0.2132   -0.1660 C   0  0  0  0  0  0  0  0  0  0  0  0
    1.8049    0.8040    1.1087 C   0  0  0  0  0  0  0  0  0  0  0  0
   -6.5276   -3.8058   -1.0893 C   0  0  0  0  0  0  0  0  0  0  0  0
    0.2882   -0.2326    1.2988 C   0  0  0  0  0  0  0  0  0  0  0  0
   -5.8456   -1.2397    1.9540 C   0  0  0  0  0  0  0  0  0  0  0  0
   -7.0080   -2.4020    0.2509 C   0  0  0  0  0  0  0  0  0  0  0  0
   -6.5511   -1.5397   -0.6526 C   0  0  0  0  0  0  0  0  0  0  0  0
   -5.9912   -0.0492    1.1977 C   0  0  0  0  0  0  0  0  0  0  0  0
   -1.3428    0.8918    1.7947 C   0  0  0  0  0  0  0  0  0  0  0  0
   -0.2066    0.2550    3.2172 C   0  0  0  0  0  0  0  0  0  0  0  0
   -1.1019    1.5375    0.5519 C   0  0  0  0  0  0  0  0  0  0  0  0
   -3.6248    1.5715    1.3938 C   0  0  0  0  0  0  0  0  0  0  0  0
   -5.3069   -1.4926    3.9607 I   0  0  0  0  0  0  0  0  0  0  0  0
   -0.8853   -0.0218    4.8061 N   0  0  0  0  0  0  0  0  0  0  0  0
   -1.1037   -1.1438    1.5546 N   0  0  0  0  0  0  0  0  0  0  0  0
    1.4922    0.1847    2.7403 N   0  0  0  0  0  0  0  0  0  0  0  0
    0.5332    1.5616    0.0809 N   0  0  0  0  0  0  0  0  0  0  0  0
   -2.9450    0.4847    1.4506 N   0  0  0  0  0  0  0  0  0  0  0  0
   -2.4356    2.4758    1.2396 N   0  0  0  0  0  0  0  0  0  0  0  0
   -7.6626   -3.4625   -0.3521 O   0  0  0  0  0  0  0  0  0  0  0  0
   -6.2412   -2.4234   -1.7006 O   0  0  0  0  0  0  0  0  0  0  0  0
   -5.3818    1.6459    1.8220 S   0  0  0  0  0  0  0  0  0  0  0  0
  4  3  1  0
  5  3  1  0
 10  1  1  0
 10  2  1  0
 11  6  2  0
 12  6  1  0
 13  7  1  0
 13 12  2  0
 14  7  2  0
 14 11  1  0
 16 15  2  0
 17 15  1  0
 19 11  1  0
 20 16  1  0
 21  4  1  0
 21 10  1  0
 22  8  2  0
 22 16  1  0
 23  8  1  0
 23 17  2  0
 24 15  1  0
 24 18  2  0
 25  5  1  0
 25 17  1  0
 25 18  1  0
 26  9  1  0
 26 12  1  0
 27  9  1  0
 27 13  1  0
 28 14  1  0
 28 18  1  0
M  END
>  <DRUGBANK_ID>  (1) 
DB12638

>  <COMMON_NAME>  (1) 
Zelavespib

>  <CAS_NUMBER>  (1) 
873436-91-0

>  <UNII>  (1) 
06IVK87M04

>  <SYNONYMS>  (1) 
8-((6-Iodobenzo[d][1,3]dioxol-5-yl)thio)-9-(3-(isopropylamino)propyl)-9H-purin-6-amine; 8-(6-iodo-benzo[1,3]dioxol-5-ylsulfanyl)-9-(3-isopropylamino-propyl)adenine; 9H-purine-9-propanamine, 6-amino-8-((6-iodo-1,3-benzodioxol-5-yl)thio)-N-(1-methylethyl)-

$$$$
