SDT
     RDKit          3D

 23 25  0  0  0  0  0  0  0  0999 V2000
    2.4536   -0.6540   -1.3791 O   0  0  0  0  0  0  0  0  0  0  0  0
    3.1704   -0.2637   -0.4384 C   0  0  0  0  0  0  0  0  0  0  0  0
    3.5668   -1.3318    0.7230 C   0  0  0  0  0  0  0  0  0  0  0  0
    4.5602   -0.5551    1.5798 C   0  0  0  0  0  0  0  0  0  0  0  0
    4.6340    1.0085    1.1197 C   0  0  1  0  0  0  0  0  0  0  0  0
    3.7587    1.3474   -0.2466 C   0  0  1  0  0  0  0  0  0  0  0  0
    3.0852    2.6741   -1.1561 C   0  0  0  0  0  0  0  0  0  0  0  0
    3.0156    2.3023    0.6070 C   0  0  0  0  0  0  0  0  0  0  0  0
    3.7284    3.8268    0.8414 C   0  0  0  0  0  0  0  0  0  0  0  0
    4.2981    1.9487    2.4590 C   0  0  1  0  0  0  0  0  0  0  0  0
    4.3430    3.5089    2.1685 C   0  0  0  0  0  0  0  0  0  0  0  0
    4.6296    4.3247    2.9229 O   0  0  0  0  0  0  0  0  0  0  0  0
    2.9554    1.3943    3.1824 C   0  0  0  0  0  0  0  0  0  0  0  0
    1.4137    2.0201    2.9666 C   0  0  0  0  0  0  0  0  0  0  0  0
    0.3997    2.1708    1.5690 C   0  0  0  0  0  0  0  0  0  0  0  0
    0.1924    3.5127    1.0608 C   0  0  0  0  0  0  0  0  0  0  0  0
    0.5181    4.5324    1.9385 O   0  0  0  0  0  0  0  0  0  0  0  0
    0.0704    3.8407   -0.3565 C   0  0  0  0  0  0  0  0  0  0  0  0
    0.3400    5.1655   -0.7088 O   0  0  0  0  0  0  0  0  0  0  0  0
    0.1439    2.8395   -1.3466 C   0  0  0  0  0  0  0  0  0  0  0  0
    0.2714    1.4714   -0.8928 C   0  0  0  0  0  0  0  0  0  0  0  0
    0.3181    1.0959    0.5720 C   0  0  0  0  0  0  0  0  0  0  0  0
    0.8833   -0.2227    1.0769 C   0  0  0  0  0  0  0  0  0  0  0  0
  1  2  2  0
  2  3  1  0
  2  6  1  0
  3  4  1  0
  5  4  1  1
  5  6  1  0
  5 10  1  0
  6  8  1  0
  6  7  1  6
  8  9  1  0
  9 11  1  0
 10 11  1  0
 10 13  1  6
 11 12  2  0
 13 14  1  0
 14 15  1  0
 15 16  2  0
 15 22  1  0
 16 17  1  0
 16 18  1  0
 18 19  1  0
 18 20  2  0
 20 21  1  0
 21 22  2  0
 22 23  1  0
M  END
>  <DRUGBANK_ID>  (1) 
DB08542

>  <COMMON_NAME>  (1) 
3,4-dihydroxy-9,10-secoandrosta-1(10),2,4-triene-9,17-dione

$$$$
