442
     RDKit          3D

 20 22  0  0  1  0  0  0  0  0999 V2000
   -0.7053    0.8765   -1.2427 O   0  0  0  0  0  0  0  0  0  0  0  0
    1.3268    3.3926    2.3441 O   0  0  0  0  0  0  0  0  0  0  0  0
    7.6585    3.1536   -0.2655 O   0  0  0  0  0  0  0  0  0  0  0  0
    3.1794    3.3794   -1.0571 N   0  0  0  0  0  0  0  0  0  0  0  0
    4.5961    2.3697   -2.7961 N   0  0  0  0  0  0  0  0  0  0  0  0
    4.8415    3.8728    0.3745 N   0  0  0  0  0  0  0  0  0  0  0  0
    6.9317    2.3254   -2.2917 N   0  0  0  0  0  0  0  0  0  0  0  0
    6.1170    1.5303   -4.2782 N   0  0  0  0  0  0  0  0  0  0  0  0
    1.8159    3.2174   -1.5719 C   0  0  1  0  0  0  0  0  0  0  0  0
    0.3987    2.4273    0.2878 C   0  0  2  0  0  0  0  0  0  0  0  0
    0.5568    1.2556   -0.6928 C   0  0  2  0  0  0  0  0  0  0  0  0
    1.4416    1.7486   -1.8500 C   0  0  0  0  0  0  0  0  0  0  0  0
    0.7426    3.6249   -0.5848 C   0  0  0  0  0  0  0  0  0  0  0  0
    1.3744    2.2717    1.4682 C   0  0  0  0  0  0  0  0  0  0  0  0
    4.3462    2.9529   -1.6159 C   0  0  0  0  0  0  0  0  0  0  0  0
    0.1140    4.8115   -0.5519 C   0  0  0  0  0  0  0  0  0  0  0  0
    3.5662    4.0225    0.0988 C   0  0  0  0  0  0  0  0  0  0  0  0
    5.3490    3.2394   -0.7229 C   0  0  0  0  0  0  0  0  0  0  0  0
    6.7347    2.9123   -1.0422 C   0  0  0  0  0  0  0  0  0  0  0  0
    5.9143    2.0950   -3.0715 C   0  0  0  0  0  0  0  0  0  0  0  0
  2 14  1  0
  3 19  2  0
  4 15  1  0
  4 17  1  0
  5 15  1  0
  5 20  1  0
  6 17  2  0
  6 18  1  0
  7 19  1  0
  7 20  2  0
  8 20  1  0
  9  4  1  1
  9 12  1  0
  9 13  1  0
 10 11  1  0
 10 13  1  0
 10 14  1  1
 11 12  1  0
 11  1  1  6
 13 16  2  0
 15 18  2  0
 18 19  1  0
M  END
>  <DRUGBANK_ID>  (1) 
DB00442

>  <SECONDARY_ACCESSION_NUMBERS>  (1) 
APRD00948

>  <COMMON_NAME>  (1) 
Entecavir

>  <CAS_NUMBER>  (1) 
142217-69-4

>  <UNII>  (1) 
NNU2O4609D

>  <SYNONYMS>  (1) 
Anhydrous entecavir; Entecavir; Entecavir (anhydrous); Entecavir anhydrous; Entecavirum

$$$$
