11U
     RDKit          3D

 28 30  0  0  0  0  0  0  0  0999 V2000
   -1.0460    0.5114    0.1085 N   0  0  0  0  0  0  0  0  0  0  0  0
   -2.2118    1.0921    0.5273 C   0  0  0  0  0  0  0  0  0  0  0  0
   -2.2605    2.2862    0.8450 O   0  0  0  0  0  0  0  0  0  0  0  0
   -3.4441    0.2065    0.6663 C   0  0  0  0  0  0  0  0  0  0  0  0
   -0.8435   -0.8831   -0.2279 C   0  0  0  0  0  0  0  0  0  0  0  0
    0.5839   -1.1172    0.2191 C   0  0  0  0  0  0  0  0  0  0  0  0
    1.2826    0.1945   -0.1411 C   0  0  0  0  0  0  0  0  0  0  0  0
    0.1949    1.2765   -0.0127 C   0  0  1  0  0  0  0  0  0  0  0  0
    0.1604    2.1304   -1.2996 C   0  0  0  0  0  0  0  0  0  0  0  0
    0.5058    3.4582   -1.1603 N   0  0  0  0  0  0  0  0  0  0  0  0
    0.4678    4.3591   -2.2931 C   0  0  0  0  0  0  0  0  0  0  0  0
   -0.5421    5.4675   -2.1340 C   0  0  0  0  0  0  0  0  0  0  0  0
   -0.1494    6.8063   -2.2377 C   0  0  0  0  0  0  0  0  0  0  0  0
   -1.0984    7.8339   -2.1981 C   0  0  0  0  0  0  0  0  0  0  0  0
   -2.4637    7.5459   -2.0646 C   0  0  0  0  0  0  0  0  0  0  0  0
   -3.4623    8.6607   -1.9302 C   0  0  0  0  0  0  0  0  0  0  0  0
   -4.7348    8.4731   -1.7559 N   0  0  0  0  0  0  0  0  0  0  0  0
   -3.0817    9.9649   -1.9626 N   0  0  0  0  0  0  0  0  0  0  0  0
   -2.8581    6.2029   -2.0127 C   0  0  0  0  0  0  0  0  0  0  0  0
   -1.9046    5.1779   -1.9991 C   0  0  0  0  0  0  0  0  0  0  0  0
   -0.1264    1.6400   -2.3973 O   0  0  0  0  0  0  0  0  0  0  0  0
   -3.8828   -0.3751   -0.6216 N   0  0  0  0  0  0  0  0  0  0  0  0
   -5.0941   -1.2107   -0.4884 C   0  0  0  0  0  0  0  0  0  0  0  0
   -6.0674   -0.6872    0.5819 C   0  0  0  0  0  0  0  0  0  0  0  0
   -7.2885   -1.5645    0.7642 C   0  0  0  0  0  0  0  0  0  0  0  0
   -6.8709   -2.9953    1.0767 C   0  0  0  0  0  0  0  0  0  0  0  0
   -5.9622   -3.5525   -0.0150 C   0  0  0  0  0  0  0  0  0  0  0  0
   -4.7198   -2.6802   -0.2231 C   0  0  0  0  0  0  0  0  0  0  0  0
  1  2  1  0
  1  5  1  0
  1  8  1  0
  2  3  2  0
  2  4  1  0
  4 22  1  0
  5  6  1  0
  6  7  1  0
  7  8  1  0
  8  9  1  6
  9 10  1  0
  9 21  2  0
 10 11  1  0
 11 12  1  0
 12 13  2  0
 12 20  1  0
 13 14  1  0
 14 15  2  0
 15 16  1  0
 15 19  1  0
 16 17  2  0
 16 18  1  0
 19 20  2  0
 22 23  1  0
 23 24  1  0
 23 28  1  0
 24 25  1  0
 25 26  1  0
 26 27  1  0
 27 28  1  0
M  END
>  <DRUGBANK_ID>  (1) 
DB06850

>  <COMMON_NAME>  (1) 
(S)-N-(4-carbamimidoylbenzyl)-1-(2-(cyclohexylamino)ethanoyl)pyrrolidine-2-carboxamide

$$$$
