
     RDKit          3D

 34 36  0  0  0  0  0  0  0  0999 V2000
    2.4828    0.2316   -2.9501 C   0  0  2  0  0  0  0  0  0  0  0  0
    2.1335    1.5161   -3.3862 C   0  0  1  0  0  0  0  0  0  0  0  0
    1.1003    0.3169   -2.5931 C   0  0  1  0  0  0  0  0  0  0  0  0
    3.7759   -0.0490   -2.1681 C   0  0  0  0  0  0  0  0  0  0  0  0
    1.0456   -0.4408   -2.3295 C   0  0  0  0  0  0  0  0  0  0  0  0
    0.4233    1.7043   -3.4660 C   0  0  2  0  0  0  0  0  0  0  0  0
    3.1020    2.1613   -2.4617 C   0  0  0  0  0  0  0  0  0  0  0  0
    0.6463    2.5126   -2.0018 C   0  0  1  0  0  0  0  0  0  0  0  0
    1.8949   -1.7864   -3.2897 C   0  0  0  0  0  0  0  0  0  0  0  0
    3.7452    1.3519   -1.3883 C   0  0  0  0  0  0  0  0  0  0  0  0
   -0.0344   -0.4996   -4.0738 C   0  0  0  0  0  0  0  0  0  0  0  0
   -0.2975    1.1509   -1.5314 C   0  0  2  0  0  0  0  0  0  0  0  0
   -0.3234    0.8507   -4.3195 C   0  0  1  0  0  0  0  0  0  0  0  0
    0.6652    3.3119   -3.9933 C   0  0  0  0  0  0  0  0  0  0  0  0
    3.6312    3.1651   -2.8914 O   0  0  0  0  0  0  0  0  0  0  0  0
   -1.3623    3.0591   -2.2123 C   0  0  1  0  0  0  0  0  0  0  0  0
   -0.4024    4.0765   -1.3861 O   0  0  0  0  0  0  0  0  0  0  0  0
   -1.5642    2.0183   -1.2365 C   0  0  0  0  0  0  0  0  0  0  0  0
    1.2923    1.1525   -0.6542 O   0  0  0  0  0  0  0  0  0  0  0  0
   -1.3394    0.8758   -5.3297 C   0  0  0  0  0  0  0  0  0  0  0  0
    1.9627    0.0353   -0.2038 C   0  0  0  0  0  0  0  0  0  0  0  0
    1.2775   -1.1127    0.1857 C   0  0  0  0  0  0  0  0  0  0  0  0
    3.1421   -0.1928    0.0145 O   0  0  0  0  0  0  0  0  0  0  0  0
    1.3007   -2.9433   -0.5176 S   0  0  0  0  0  0  0  0  0  0  0  0
    0.0567   -2.9960   -2.5117 C   0  0  0  0  0  0  0  0  0  0  0  0
   -1.3033   -2.6443   -2.7959 C   0  0  0  0  0  0  0  0  0  0  0  0
   -1.4761   -1.2947   -2.1166 N   0  0  0  0  0  0  0  0  0  0  0  0
   -2.6194   -0.6312   -2.4968 C   0  0  0  0  0  0  0  0  0  0  0  0
   -3.4339   -1.6045   -1.8494 C   0  0  0  0  0  0  0  0  0  0  0  0
   -1.0704   -1.0856   -0.8211 C   0  0  0  0  0  0  0  0  0  0  0  0
   -1.3448   -2.1468    0.0718 C   0  0  0  0  0  0  0  0  0  0  0  0
   -2.6685    4.2070   -2.7902 C   0  0  0  0  0  0  0  0  0  0  0  0
   -3.6873    4.8388   -2.1978 C   0  0  0  0  0  0  0  0  0  0  0  0
   -1.9084    2.6531   -3.4654 C   0  0  0  0  0  0  0  0  0  0  0  0
  1  2  1  0
  1  3  1  0
  1  4  1  1
  1  5  1  0
  2  6  1  0
  2  7  1  1
  3  8  1  0
  3  9  1  6
  4 10  1  0
  6 12  1  0
  6 13  1  0
  6 14  1  6
  7 10  1  0
  7 15  2  0
  8 16  1  0
  8 17  1  1
 11 13  1  0
 11  5  1  0
 12 18  1  0
 12 19  1  6
 13 20  1  1
 16 18  1  0
 16 32  1  0
 16 34  1  6
 19 21  1  0
 21 22  1  0
 21 23  2  0
 22 24  1  0
 24 25  1  0
 25 26  1  0
 26 27  1  0
 27 28  1  0
 27 30  1  0
 28 29  1  0
 30 31  1  0
 32 33  2  0
M  END
>  <DRUGBANK_ID>  (1) 
DB11468

>  <COMMON_NAME>  (1) 
Tiamulin

>  <CAS_NUMBER>  (1) 
55297-95-5

>  <UNII>  (1) 
E38WZ4U54R

>  <SYNONYMS>  (1) 
Tiamulin; Tiamulina; Tiamuline; Tiamulinum

$$$$
