
     RDKit          3D

 21 24  0  0  0  0  0  0  0  0999 V2000
    0.4784   -1.3689   -0.2891 C   0  0  0  0  0  0  0  0  0  0  0  0
   -0.9824   -1.0902   -0.5287 C   0  0  0  0  0  0  0  0  0  0  0  0
   -1.1366    0.3089   -0.1092 N   0  0  0  0  0  0  0  0  0  0  0  0
    0.1531    0.9038   -0.5141 C   0  0  0  0  0  0  0  0  0  0  0  0
    1.2318   -0.1346   -0.6799 C   0  0  0  0  0  0  0  0  0  0  0  0
    3.2024   -2.2838    2.6325 C   0  0  0  0  0  0  0  0  0  0  0  0
    4.2846   -1.7473    3.2913 C   0  0  0  0  0  0  0  0  0  0  0  0
    4.1949   -0.4390    3.7597 C   0  0  0  0  0  0  0  0  0  0  0  0
    2.0316   -1.5188    2.5221 C   0  0  0  0  0  0  0  0  0  0  0  0
    1.9311   -0.1354    2.8649 C   0  0  0  0  0  0  0  0  0  0  0  0
    3.0680    0.3764    3.5104 C   0  0  0  0  0  0  0  0  0  0  0  0
    3.1274    2.0541    4.1070 S   0  0  0  0  0  0  0  0  0  0  0  0
    0.8275    0.7524    2.5158 N   0  0  0  0  0  0  0  0  0  0  0  0
    0.9664    2.1999    2.3652 C   0  0  0  0  0  0  0  0  0  0  0  0
    2.1014    2.8468    2.8894 C   0  0  0  0  0  0  0  0  0  0  0  0
    2.4595    4.1453    2.4645 C   0  0  0  0  0  0  0  0  0  0  0  0
    1.8115    4.8074    1.4297 C   0  0  0  0  0  0  0  0  0  0  0  0
    0.6803    4.2165    0.8946 C   0  0  0  0  0  0  0  0  0  0  0  0
    0.2058    3.0368    1.4818 C   0  0  0  0  0  0  0  0  0  0  0  0
   -0.5164    0.1032    2.5092 C   0  0  0  0  0  0  0  0  0  0  0  0
   -1.4940    0.4599    1.3502 C   0  0  0  0  0  0  0  0  0  0  0  0
  1  5  1  0
  1  2  1  0
  2  3  1  0
  3  4  1  0
  4  5  1  0
  6  7  2  0
  7  8  1  0
  8 11  2  0
  9  6  1  0
 10 13  1  0
 10  9  2  0
 10 11  1  0
 11 12  1  0
 12 15  1  0
 13 20  1  0
 14 13  1  0
 14 15  2  0
 15 16  1  0
 16 17  2  0
 17 18  1  0
 18 19  2  0
 19 14  1  0
 20 21  1  0
 21  3  1  0
M  END
>  <DRUGBANK_ID>  (1) 
DB15978

>  <COMMON_NAME>  (1) 
Parathiazine

>  <CAS_NUMBER>  (1) 
84-08-2

>  <UNII>  (1) 
2305SQ56Z2

>  <SYNONYMS>  (1) 
Parathiazine; Paratiazina; Pyrathiazine

$$$$
