D3F
     RDKit          3D

 28 29  0  0  0  0  0  0  0  0999 V2000
    1.0514   -0.2183   -0.0157 C   0  0  0  0  0  0  0  0  0  0  0  0
   -0.2234   -0.7516   -0.1128 C   0  0  0  0  0  0  0  0  0  0  0  0
   -1.3378    0.0824   -0.2344 C   0  0  0  0  0  0  0  0  0  0  0  0
   -1.1902    1.4778   -0.1193 C   0  0  0  0  0  0  0  0  0  0  0  0
    0.1062    2.0121   -0.0208 C   0  0  0  0  0  0  0  0  0  0  0  0
    1.2348    1.1689    0.0009 C   0  0  0  0  0  0  0  0  0  0  0  0
    2.6159    1.7531    0.0413 C   0  0  0  0  0  0  0  0  0  0  0  0
   -2.5333    2.6696    0.0181 S   0  0  0  0  0  0  0  0  0  0  0  0
   -2.4961    3.3233    1.3105 O   0  0  0  0  0  0  0  0  0  0  0  0
   -2.3878    3.5665   -1.1118 O   0  0  0  0  0  0  0  0  0  0  0  0
   -4.1084    1.8373    0.0003 C   0  0  0  0  0  0  0  0  0  0  0  0
   -4.4490    1.0083    1.1264 C   0  0  0  0  0  0  0  0  0  0  0  0
   -5.6684    0.2874    1.1290 C   0  0  0  0  0  0  0  0  0  0  0  0
   -6.6038    0.4247    0.1073 C   0  0  0  0  0  0  0  0  0  0  0  0
   -6.3160    1.3090   -0.9349 C   0  0  0  0  0  0  0  0  0  0  0  0
   -5.0547    1.9532   -1.0530 C   0  0  0  0  0  0  0  0  0  0  0  0
   -4.8144    2.5162   -2.4116 N   0  0  0  0  0  0  0  0  0  0  0  0
   -5.8133    2.7246   -3.1173 O   0  0  0  0  0  0  0  0  0  0  0  0
   -3.6651    2.5834   -2.8402 O   0  0  0  0  0  0  0  0  0  0  0  0
   -7.8649   -0.4134    0.0753 C   0  0  0  0  0  0  0  0  0  0  0  0
   -8.9856    0.3487    0.1352 F   0  0  0  0  0  0  0  0  0  0  0  0
   -7.9584   -1.1481   -1.0656 F   0  0  0  0  0  0  0  0  0  0  0  0
   -7.9461   -1.3020    1.1009 F   0  0  0  0  0  0  0  0  0  0  0  0
   -3.5220    0.6096    2.2461 N   0  0  0  0  0  0  0  0  0  0  0  0
   -3.9144   -0.2806    3.0118 O   0  0  0  0  0  0  0  0  0  0  0  0
   -2.3917    1.0822    2.3215 O   0  0  0  0  0  0  0  0  0  0  0  0
   -2.7716   -0.8144   -0.5846 Cl  0  0  0  0  0  0  0  0  0  0  0  0
    2.3713   -1.3289    0.0289 Cl  0  0  0  0  0  0  0  0  0  0  0  0
  1  2  2  0
  1  6  1  0
  1 28  1  0
  2  3  1  0
  3  4  2  0
  3 27  1  0
  4  5  1  0
  4  8  1  0
  5  6  2  0
  6  7  1  0
  8  9  2  0
  8 10  2  0
  8 11  1  0
 11 12  2  0
 11 16  1  0
 12 13  1  0
 12 24  1  0
 13 14  2  0
 14 15  1  0
 14 20  1  0
 15 16  2  0
 16 17  1  0
 17 18  1  0
 17 19  2  0
 20 21  1  0
 20 22  1  0
 20 23  1  0
 24 25  1  0
 24 26  2  0
M  CHG  4  17   1  18  -1  24   1  25  -1
M  END
>  <DRUGBANK_ID>  (1) 
DB07620

>  <COMMON_NAME>  (1) 
2-[(2,4-DICHLORO-5-METHYLPHENYL)SULFONYL]-1,3-DINITRO-5-(TRIFLUOROMETHYL)BENZENE

$$$$
