
     RDKit          3D

 10 10  0  0  0  0  0  0  0  0999 V2000
   -1.8501    0.0583   -0.0117 C   0  0  0  0  0  0  0  0  0  0  0  0
   -1.1921   -1.1691   -0.0020 C   0  0  0  0  0  0  0  0  0  0  0  0
   -1.1102    1.2455    0.0016 C   0  0  0  0  0  0  0  0  0  0  0  0
    0.2034   -1.2126    0.0091 C   0  0  0  0  0  0  0  0  0  0  0  0
    0.2979    1.2183    0.0171 C   0  0  0  0  0  0  0  0  0  0  0  0
    0.9452   -0.0259    0.0106 C   0  0  0  0  0  0  0  0  0  0  0  0
    1.0101    2.5278    0.0475 C   0  0  0  0  0  0  0  0  0  0  0  0
    2.3094   -0.1048    0.0036 O   0  0  0  0  0  0  0  0  0  0  0  0
    0.4602    3.6194    0.0621 O   0  0  0  0  0  0  0  0  0  0  0  0
    2.3499    2.4394    0.0664 O   0  0  0  0  0  0  0  0  0  0  0  0
  2  1  2  0
  3  1  1  0
  4  2  1  0
  5  3  2  0
  6  4  2  0
  6  5  1  0
  7  5  1  0
  8  6  1  0
  9  7  2  0
 10  7  1  0
M  END
>  <DRUGBANK_ID>  (1) 
DB00936

>  <SECONDARY_ACCESSION_NUMBERS>  (1) 
APRD01605; DB01398

>  <COMMON_NAME>  (1) 
Salicylic acid

>  <CAS_NUMBER>  (1) 
69-72-7

>  <UNII>  (1) 
O414PZ4LPZ

>  <SYNONYMS>  (1) 
2-Carboxyphenol; 2-Hydroxybenzoic acid; ácido salicílico; Acidum salicylicum; O-carboxyphenol; O-hydroxybenzoic acid; Salicylic acid

$$$$
