Q22
     RDKit          3D

 29 33  0  0  0  0  0  0  0  0999 V2000
    1.5910    1.7957   -4.1072 C   0  0  0  0  0  0  0  0  0  0  0  0
    0.9111    0.7674   -4.5727 N   0  0  0  0  0  0  0  0  0  0  0  0
    1.6995   -0.2990   -4.5630 C   0  0  0  0  0  0  0  0  0  0  0  0
    1.1816   -2.1562   -4.3826 N   0  0  0  0  0  0  0  0  0  0  0  0
    2.0099   -3.5598   -4.3479 C   0  0  0  0  0  0  0  0  0  0  0  0
    1.4489   -4.6033   -5.2071 N   0  0  0  0  0  0  0  0  0  0  0  0
    3.5099   -3.4257   -4.1108 N   0  0  0  0  0  0  0  0  0  0  0  0
    4.3367   -1.8944   -4.0863 C   0  0  0  0  0  0  0  0  0  0  0  0
    5.5767   -2.0774   -3.5934 N   0  0  0  0  0  0  0  0  0  0  0  0
    3.5945   -0.1819   -4.4154 C   0  0  0  0  0  0  0  0  0  0  0  0
    4.1166    1.0019   -4.3194 N   0  0  0  0  0  0  0  0  0  0  0  0
    3.0598    1.8079   -3.9571 C   0  0  0  0  0  0  0  0  0  0  0  0
    3.3644    2.0115   -2.5471 C   0  0  0  0  0  0  0  0  0  0  0  0
    3.2612    0.2211   -2.1404 N   0  0  0  0  0  0  0  0  0  0  0  0
    2.4487   -1.3581   -3.2218 C   0  0  2  0  0  0  0  0  0  0  0  0
    2.5227   -1.7546   -5.4468 C   0  0  0  0  0  0  0  0  0  0  0  0
    1.2014   -1.9366   -6.3299 C   0  0  0  0  0  0  0  0  0  0  0  0
   -0.4535   -1.7454   -5.5574 C   0  0  0  0  0  0  0  0  0  0  0  0
   -0.5922   -1.5744   -3.7491 C   0  0  0  0  0  0  0  0  0  0  0  0
    0.5577   -1.5930   -2.7415 C   0  0  0  0  0  0  0  0  0  0  0  0
    0.2817   -0.8638   -1.6304 C   0  0  0  0  0  0  0  0  0  0  0  0
    1.0689    0.1260   -1.4290 C   0  0  0  0  0  0  0  0  0  0  0  0
    1.6463    0.4262   -0.2661 C   0  0  0  0  0  0  0  0  0  0  0  0
    0.8633    0.2278    0.8125 C   0  0  0  0  0  0  0  0  0  0  0  0
    2.8142    0.9719   -0.5111 C   0  0  0  0  0  0  0  0  0  0  0  0
    2.9302    1.9933    0.6922 C   0  0  0  0  0  0  0  0  0  0  0  0
    1.7821    2.0685    1.8009 C   0  0  0  0  0  0  0  0  0  0  0  0
    0.8682    1.0395    1.8646 C   0  0  0  0  0  0  0  0  0  0  0  0
   -0.0373    0.7001    2.8113 O   0  0  0  0  0  0  0  0  0  0  0  0
  1  2  2  0
  1 12  1  0
  2  3  1  0
  3  4  2  0
  3 10  1  0
  4  5  1  0
  5  6  1  0
  5  7  2  0
  7  8  1  0
  8  9  1  0
  8 10  2  0
 10 11  1  0
 11 12  2  0
 12 13  1  0
 13 14  1  0
 14 15  1  0
 14 25  1  0
 15 16  1  6
 15 20  1  0
 16 17  2  0
 17 18  1  0
 18 19  1  0
 19 20  2  0
 20 21  1  0
 21 22  2  0
 22 23  1  0
 23 24  1  0
 23 25  2  0
 24 28  2  0
 25 26  1  0
 26 27  2  0
 27 28  1  0
 28 29  1  0
M  END
>  <DRUGBANK_ID>  (1) 
DB08448

>  <COMMON_NAME>  (1) 
(4aS)-5-[(2,4-diaminopteridin-6-yl)methyl]-4a,5-dihydro-2H-dibenzo[b,f]azepin-8-ol

$$$$
