TCK
     RDKit          3D

 21 21  0  0  0  0  0  0  0  0999 V2000
    2.9623    3.3371   -0.0685 S   0  0  0  0  0  0  0  0  0  0  0  0
    3.4296    2.8633    1.2176 O   0  0  0  0  0  0  0  0  0  0  0  0
    1.7902    4.1734   -0.1875 O   0  0  0  0  0  0  0  0  0  0  0  0
    4.2971    4.2456   -0.8218 C   0  0  0  0  0  0  0  0  0  0  0  0
    4.0852    4.9869   -1.9870 C   0  0  0  0  0  0  0  0  0  0  0  0
    5.1524    5.6875   -2.5661 C   0  0  0  0  0  0  0  0  0  0  0  0
    6.4222    5.6823   -1.9716 C   0  0  0  0  0  0  0  0  0  0  0  0
    6.5968    5.0142   -0.7535 C   0  0  0  0  0  0  0  0  0  0  0  0
    5.5354    4.3127   -0.1722 C   0  0  0  0  0  0  0  0  0  0  0  0
    7.5854    6.3686   -2.6311 C   0  0  0  0  0  0  0  0  0  0  0  0
    2.6310    2.0137   -1.0693 N   0  0  0  0  0  0  0  0  0  0  0  0
    3.2538    0.6508   -0.9810 C   0  0  2  0  0  0  0  0  0  0  0  0
    2.6651   -0.1281    0.2142 C   0  0  0  0  0  0  0  0  0  0  0  0
    2.0463    0.4665    1.1037 O   0  0  0  0  0  0  0  0  0  0  0  0
    4.7795    0.6689   -1.0633 C   0  0  0  0  0  0  0  0  0  0  0  0
    5.3965   -0.7348   -1.1773 C   0  0  0  0  0  0  0  0  0  0  0  0
    4.8830   -1.5312   -2.3947 C   0  0  0  0  0  0  0  0  0  0  0  0
    5.3228   -0.8914   -3.7075 C   0  0  0  0  0  0  0  0  0  0  0  0
    6.7756   -0.8587   -3.7649 N   0  0  0  0  0  0  0  0  0  0  0  0
    2.7310   -1.6460    0.2813 C   0  0  0  0  0  0  0  0  0  0  0  0
    1.6615   -2.3818   -0.9186 Cl  0  0  0  0  0  0  0  0  0  0  0  0
  1  2  2  0
  1  4  1  0
  3  1  2  0
  4  5  2  0
  4  9  1  0
  5  6  1  0
  6  7  2  0
  7  8  1  0
  7 10  1  0
  8  9  2  0
 11  1  1  0
 12 15  1  1
 12 13  1  0
 12 11  1  0
 13 14  2  0
 13 20  1  0
 15 16  1  0
 16 17  1  0
 17 18  1  0
 18 19  1  0
 20 21  1  0
M  END
>  <DRUGBANK_ID>  (1) 
DB08603

>  <COMMON_NAME>  (1) 
N-[(1S)-5-amino-1-(chloroacetyl)pentyl]-4-methylbenzenesulfonamide

$$$$
