
     RDKit          3D

 18 19  0  0  1  0  0  0  0  0999 V2000
    0.3973    2.3302    0.2641 O   0  0  0  0  0  0  0  0  0  0  0  0
    1.4564    2.2812   -0.6879 C   0  0  0  0  0  0  0  0  0  0  0  0
    1.0203    1.4655   -1.9133 C   0  0  1  0  0  0  0  0  0  0  0  0
   -0.1008    2.0913   -2.5785 O   0  0  0  0  0  0  0  0  0  0  0  0
    0.3534    2.7681   -3.7646 C   0  0  2  0  0  0  0  0  0  0  0  0
    1.8748    2.5798   -3.8251 C   0  0  1  0  0  0  0  0  0  0  0  0
    2.5136    3.6483   -3.2759 F   0  0  0  0  0  0  0  0  0  0  0  0
    2.1146    1.3621   -2.9632 C   0  0  2  0  0  0  0  0  0  0  0  0
    1.9661    0.1758   -3.7516 O   0  0  0  0  0  0  0  0  0  0  0  0
   -0.0908    4.1744   -3.8362 N   0  0  0  0  0  0  0  0  0  0  0  0
    0.3331    4.9366   -4.9248 C   0  0  0  0  0  0  0  0  0  0  0  0
    0.2198    6.2722   -4.9676 C   0  0  0  0  0  0  0  0  0  0  0  0
    1.0799    7.4107   -6.4321 I   0  0  0  0  0  0  0  0  0  0  0  0
   -0.5248    6.9304   -3.8648 C   0  0  0  0  0  0  0  0  0  0  0  0
   -0.6094    8.1497   -3.7343 O   0  0  0  0  0  0  0  0  0  0  0  0
   -1.1325    6.0820   -2.9847 N   0  0  0  0  0  0  0  0  0  0  0  0
   -0.8055    4.7628   -2.7953 C   0  0  0  0  0  0  0  0  0  0  0  0
   -1.1422    4.2266   -1.7439 O   0  0  0  0  0  0  0  0  0  0  0  0
  1  2  1  0
  3  4  1  0
  3  2  1  1
  5  4  1  0
  5 10  1  1
  6  5  1  0
  6  7  1  1
  6  8  1  0
  8  3  1  0
  8  9  1  6
 10 11  1  0
 10 17  1  0
 11 12  2  0
 12 13  1  0
 12 14  1  0
 14 15  2  0
 14 16  1  0
 16 17  1  0
 17 18  2  0
M  END
>  <DRUGBANK_ID>  (1) 
DB15427

>  <COMMON_NAME>  (1) 
Fialuridine

>  <CAS_NUMBER>  (1) 
69123-98-4

>  <UNII>  (1) 
53T7IN77LC

>  <SYNONYMS>  (1) 
Fialuridine

$$$$
