
     RDKit          3D

 25 26  0  0  1  0  0  0  0  0999 V2000
    1.0523   -0.1390    0.0368 C   0  0  0  0  0  0  0  0  0  0  0  0
    0.6345    1.2108    0.6069 C   0  0  1  0  0  0  0  0  0  0  0  0
    1.1209    2.4392   -0.1166 C   0  0  0  0  0  0  0  0  0  0  0  0
    1.7734    2.3531   -1.3430 C   0  0  0  0  0  0  0  0  0  0  0  0
    2.0372    3.5035   -2.0722 C   0  0  0  0  0  0  0  0  0  0  0  0
    1.6301    4.7580   -1.6000 C   0  0  0  0  0  0  0  0  0  0  0  0
    1.8371    5.9181   -2.3542 C   0  0  0  0  0  0  0  0  0  0  0  0
    1.4244    7.1656   -1.8785 C   0  0  0  0  0  0  0  0  0  0  0  0
    0.7865    7.2529   -0.6415 C   0  0  0  0  0  0  0  0  0  0  0  0
    0.5686    6.1076    0.1213 C   0  0  0  0  0  0  0  0  0  0  0  0
    0.9898    4.8596   -0.3479 C   0  0  0  0  0  0  0  0  0  0  0  0
    0.7643    3.7027    0.3941 C   0  0  0  0  0  0  0  0  0  0  0  0
    1.6967    8.2244   -2.7022 O   0  0  0  0  0  0  0  0  0  0  0  0
    1.3064    9.5060   -2.2204 C   0  0  0  0  0  0  0  0  0  0  0  0
   -0.8594    1.3328    0.6808 C   0  0  0  0  0  0  0  0  0  0  0  0
   -1.3811    1.8147    1.6807 O   0  0  0  0  0  0  0  0  0  0  0  0
   -1.4798    0.9622   -0.4748 O   0  0  0  0  0  0  0  0  0  0  0  0
   -2.9155    1.0221   -0.5210 C   0  0  0  0  0  0  0  0  0  0  0  0
   -3.4985   -0.2041    0.2039 C   0  0  0  0  0  0  0  0  0  0  0  0
   -3.3025   -0.1327    1.7193 C   0  0  0  0  0  0  0  0  0  0  0  0
   -3.8592    1.1781    2.3217 C   0  0  0  0  0  0  0  0  0  0  0  0
   -5.2743    1.1278    2.4648 O   0  0  0  0  0  0  0  0  0  0  0  0
   -6.0287    1.4178    1.2972 N   0  0  0  0  0  0  0  0  0  0  0  0
   -5.4581    1.8597    0.3094 O   0  0  0  0  0  0  0  0  0  0  0  0
   -7.2257    1.1576    1.4448 O   0  0  0  0  0  0  0  0  0  0  0  0
  2  1  1  6
  2  3  1  0
  2 15  1  0
  3  4  2  0
  3 12  1  0
  4  5  1  0
  5  6  2  0
  6  7  1  0
  6 11  1  0
  7  8  2  0
  8  9  1  0
  8 13  1  0
  9 10  2  0
 10 11  1  0
 11 12  2  0
 13 14  1  0
 15 16  2  0
 15 17  1  0
 17 18  1  0
 18 19  1  0
 19 20  1  0
 20 21  1  0
 21 22  1  0
 22 23  1  0
 23 24  2  0
 23 25  1  0
M  CHG  2  23   1  25  -1
M  END
>  <DRUGBANK_ID>  (1) 
DB06682

>  <COMMON_NAME>  (1) 
Naproxcinod

>  <CAS_NUMBER>  (1) 
163133-43-5

>  <UNII>  (1) 
V24GR4LI3I

>  <SYNONYMS>  (1) 
(S)-2-(6-Methoxy-2-naphthyl)propanoic acid 4-nitrooxybutyl ester; Naproxcinod; Naproxcinodum; Naproxen-N-butyl nitrate

$$$$
