
     RDKit          3D

 28 31  0  0  0  0  0  0  0  0999 V2000
   -2.5317    2.5351    1.5824 C   0  0  2  0  0  0  0  0  0  0  0  0
   -1.6139    2.1032    2.9197 C   0  0  1  0  0  0  0  0  0  0  0  0
   -1.9169    3.5355    0.5934 C   0  0  2  0  0  0  0  0  0  0  0  0
   -4.0602    2.5621    1.4830 C   0  0  0  0  0  0  0  0  0  0  0  0
   -0.3028    1.5800    2.3228 C   0  0  2  0  0  0  0  0  0  0  0  0
   -1.0414    3.0961    4.0955 C   0  0  0  0  0  0  0  0  0  0  0  0
   -2.5313    3.5493   -0.8936 C   0  0  2  0  0  0  0  0  0  0  0  0
   -0.4075    3.2165    0.3748 C   0  0  2  0  0  0  0  0  0  0  0  0
   -4.6405    2.4787   -0.0969 C   0  0  1  0  0  0  0  0  0  0  0  0
    0.7093    1.2664    3.5069 C   0  0  2  0  0  0  0  0  0  0  0  0
    0.3492    2.8528    1.5620 C   0  0  0  0  0  0  0  0  0  0  0  0
   -0.5454    0.4472    1.2514 C   0  0  0  0  0  0  0  0  0  0  0  0
    0.6078    2.6753    4.1560 C   0  0  2  0  0  0  0  0  0  0  0  0
   -3.8649    2.9595   -1.4284 C   0  0  0  0  0  0  0  0  0  0  0  0
   -1.7624    2.3735   -1.4287 C   0  0  0  0  0  0  0  0  0  0  0  0
   -2.3441    5.0060   -1.4284 C   0  0  0  0  0  0  0  0  0  0  0  0
    0.2565    4.2059   -0.3820 O   0  0  0  0  0  0  0  0  0  0  0  0
   -4.8848    1.1423   -0.2812 F   0  0  0  0  0  0  0  0  0  0  0  0
    1.6945    0.3666    2.6798 C   0  0  0  0  0  0  0  0  0  0  0  0
    0.7118    0.4685    4.6724 O   0  0  0  0  0  0  0  0  0  0  0  0
    1.3584    3.2385    5.3999 C   0  0  0  0  0  0  0  0  0  0  0  0
   -3.8173    2.2429   -2.7036 C   0  0  0  0  0  0  0  0  0  0  0  0
   -1.2850    2.3424   -2.6682 C   0  0  0  0  0  0  0  0  0  0  0  0
    1.5301   -1.2405    2.8340 C   0  0  0  0  0  0  0  0  0  0  0  0
    2.4376    0.8118    1.8029 O   0  0  0  0  0  0  0  0  0  0  0  0
   -2.3868    1.4635   -3.0522 C   0  0  0  0  0  0  0  0  0  0  0  0
    0.5853   -2.1344    2.2656 O   0  0  0  0  0  0  0  0  0  0  0  0
   -2.1920    0.2615   -3.2968 O   0  0  0  0  0  0  0  0  0  0  0  0
  1  4  1  1
  1  2  1  0
  1  3  1  0
  2  5  1  0
  2  6  1  1
  3  7  1  0
  3  8  1  6
  4  9  1  0
  5 10  1  0
  5 11  1  0
  5 12  1  6
  6 13  1  0
  7 14  1  0
  7 15  1  0
  7 16  1  6
  8 11  1  0
  8 17  1  1
  9 14  1  0
  9 18  1  6
 10 13  1  0
 10 20  1  1
 10 19  1  0
 13 21  1  1
 14 22  2  0
 15 23  2  0
 19 24  1  0
 19 25  2  0
 22 26  1  0
 23 26  1  0
 24 27  1  0
 26 28  2  0
M  END
>  <DRUGBANK_ID>  (1) 
DB01384

>  <COMMON_NAME>  (1) 
Paramethasone

>  <CAS_NUMBER>  (1) 
53-33-8

>  <UNII>  (1) 
VFC6ZX3584

>  <SYNONYMS>  (1) 
Parametasona; Parametasone; Paramethasone; Paramethasonum

$$$$
