FCF
     RDKit          3D

 25 26  0  0  0  0  0  0  0  0999 V2000
    1.4100   -2.3909    2.3155 O   0  0  0  0  0  0  0  0  0  0  0  0
    0.5871   -3.4409    2.2122 C   0  0  0  0  0  0  0  0  0  0  0  0
    0.8966   -4.4404    1.5612 O   0  0  0  0  0  0  0  0  0  0  0  0
   -0.7411   -3.2375    2.8976 C   0  0  0  0  0  0  0  0  0  0  0  0
   -1.4178   -4.4077    3.2797 C   0  0  0  0  0  0  0  0  0  0  0  0
   -2.7991   -4.3473    3.4886 C   0  0  0  0  0  0  0  0  0  0  0  0
   -1.4822   -2.0080    2.7376 C   0  0  0  0  0  0  0  0  0  0  0  0
   -2.8839   -1.9243    2.9729 C   0  0  0  0  0  0  0  0  0  0  0  0
   -3.5096   -3.1170    3.4108 C   0  0  0  0  0  0  0  0  0  0  0  0
   -3.7655   -0.8301    2.2432 C   0  0  0  0  0  0  0  0  0  0  0  0
   -5.0680   -0.7946    2.3788 N   0  0  0  0  0  0  0  0  0  0  0  0
   -5.7286    0.0231    1.3985 O   0  0  0  0  0  0  0  0  0  0  0  0
   -7.1736   -0.0760    1.5782 C   0  0  0  0  0  0  0  0  0  0  0  0
   -7.8429   -1.2048    0.7682 C   0  0  0  0  0  0  0  0  0  0  0  0
   -7.4706   -2.5249    1.2253 O   0  0  0  0  0  0  0  0  0  0  0  0
   -6.2704   -2.8662    0.5831 N   0  0  0  0  0  0  0  0  0  0  0  0
   -5.7465   -3.9750    1.0059 C   0  0  0  0  0  0  0  0  0  0  0  0
   -4.3543   -4.3562    0.5722 C   0  0  0  0  0  0  0  0  0  0  0  0
   -3.8685   -5.6223    0.4892 N   0  0  0  0  0  0  0  0  0  0  0  0
   -3.5090   -3.3362    0.4258 C   0  0  0  0  0  0  0  0  0  0  0  0
   -2.0764   -3.5572    0.2219 C   0  0  0  0  0  0  0  0  0  0  0  0
   -1.2938   -2.6139    0.0446 O   0  0  0  0  0  0  0  0  0  0  0  0
   -1.6718   -4.8430    0.3721 N   0  0  0  0  0  0  0  0  0  0  0  0
   -2.5235   -5.9125    0.3844 C   0  0  0  0  0  0  0  0  0  0  0  0
   -2.1135   -7.0581    0.3213 O   0  0  0  0  0  0  0  0  0  0  0  0
  2  1  1  0
  3  2  2  0
  4  2  1  0
  4  7  2  0
  5  4  1  0
  6  5  2  0
  6  9  1  0
  8  7  1  0
  8 10  1  0
  9  8  2  0
 11 10  2  0
 11 12  1  0
 13 12  1  0
 13 14  1  0
 14 15  1  0
 15 16  1  0
 16 17  2  0
 17 18  1  0
 18 20  2  0
 19 18  1  0
 19 24  1  0
 20 21  1  0
 21 22  2  0
 23 21  1  0
 24 23  1  0
 25 24  2  0
M  END
>  <DRUGBANK_ID>  (1) 
DB07760

>  <COMMON_NAME>  (1) 
3-[(1E,7E)-8-(2,6-dioxo-1,2,3,6-tetrahydropyrimidin-4-yl)-3,6-dioxa-2,7-diazaocta-1,7-dien-1-yl]benzoic acid

$$$$
