
     RDKit          3D

 34 36  0  0  0  0  0  0  0  0999 V2000
    1.0306    0.0206    0.0970 F   0  0  0  0  0  0  0  0  0  0  0  0
    2.3814    0.0328    0.1124 C   0  0  0  0  0  0  0  0  0  0  0  0
    2.7845   -0.7184    1.1638 F   0  0  0  0  0  0  0  0  0  0  0  0
    2.7825   -0.6445   -0.9828 F   0  0  0  0  0  0  0  0  0  0  0  0
    2.9470    1.4366    0.2086 C   0  0  0  0  0  0  0  0  0  0  0  0
    2.5293    2.3451   -0.8236 O   0  0  0  0  0  0  0  0  0  0  0  0
    2.7697    1.9867   -2.0899 C   0  0  0  0  0  0  0  0  0  0  0  0
    3.5041    1.0689   -2.4460 O   0  0  0  0  0  0  0  0  0  0  0  0
    1.9326    2.6954   -2.8778 N   0  0  0  0  0  0  0  0  0  0  0  0
    2.1128    4.1480   -2.9314 C   0  0  0  0  0  0  0  0  0  0  0  0
    0.7871    4.7458   -3.4315 C   0  0  0  0  0  0  0  0  0  0  0  0
    0.4185    4.2943   -4.7904 N   0  0  0  0  0  0  0  0  0  0  0  0
    1.2317    4.8409   -5.9263 C   0  0  0  0  0  0  0  0  0  0  0  0
    2.7099    4.4686   -6.0680 C   0  0  0  0  0  0  0  0  0  0  0  0
    3.0108    3.1372   -6.4691 C   0  0  0  0  0  0  0  0  0  0  0  0
    4.2271    2.5570   -6.1074 C   0  0  0  0  0  0  0  0  0  0  0  0
    5.2788    3.3810   -5.7465 C   0  0  0  0  0  0  0  0  0  0  0  0
    5.0612    4.7781   -5.7082 C   0  0  0  0  0  0  0  0  0  0  0  0
    3.7686    5.3455   -5.7250 C   0  0  0  0  0  0  0  0  0  0  0  0
    3.5983    6.6578   -5.3450 N   0  0  0  0  0  0  0  0  0  0  0  0
    2.9431    7.1591   -4.1501 C   0  0  0  0  0  0  0  0  0  0  0  0
    2.2454    8.4147   -4.6336 C   0  0  0  0  0  0  0  0  0  0  0  0
    3.3244    9.0085   -5.5216 C   0  0  0  0  0  0  0  0  0  0  0  0
    4.0790    7.7944   -6.1171 C   0  0  0  0  0  0  0  0  0  0  0  0
    6.6288    2.7859   -5.4472 C   0  0  0  0  0  0  0  0  0  0  0  0
    7.5279    3.0929   -6.4203 F   0  0  0  0  0  0  0  0  0  0  0  0
    7.1673    3.2291   -4.2774 F   0  0  0  0  0  0  0  0  0  0  0  0
    6.6300    1.4238   -5.3589 F   0  0  0  0  0  0  0  0  0  0  0  0
    0.2968    2.8237   -4.7448 C   0  0  0  0  0  0  0  0  0  0  0  0
    1.5277    2.1297   -4.1359 C   0  0  0  0  0  0  0  0  0  0  0  0
    2.4183    1.9951    1.5064 C   0  0  0  0  0  0  0  0  0  0  0  0
    2.8468    1.2940    2.5757 F   0  0  0  0  0  0  0  0  0  0  0  0
    2.8527    3.2703    1.6845 F   0  0  0  0  0  0  0  0  0  0  0  0
    1.0686    2.0394    1.5535 F   0  0  0  0  0  0  0  0  0  0  0  0
  1  2  1  0
  2  3  1  0
  2  4  1  0
  2  5  1  0
  5  6  1  0
  5 31  1  0
  6  7  1  0
  7  8  2  0
  7  9  1  0
  9 10  1  0
  9 30  1  0
 10 11  1  0
 11 12  1  0
 12 13  1  0
 12 29  1  0
 13 14  1  0
 14 15  2  0
 14 19  1  0
 15 16  1  0
 16 17  2  0
 17 18  1  0
 17 25  1  0
 18 19  2  0
 19 20  1  0
 20 21  1  0
 20 24  1  0
 21 22  1  0
 22 23  1  0
 23 24  1  0
 25 26  1  0
 25 27  1  0
 25 28  1  0
 29 30  1  0
 31 32  1  0
 31 33  1  0
 31 34  1  0
M  END
>  <DRUGBANK_ID>  (1) 
DB16036

>  <COMMON_NAME>  (1) 
ABX-1431

>  <CAS_NUMBER>  (1) 
1446817-84-0

>  <UNII>  (1) 
FB39E94UXK

$$$$
