
     RDKit          3D

 21 23  0  0  0  0  0  0  0  0999 V2000
    1.4992   -0.4610   -0.0208 C   0  0  0  0  0  0  0  0  0  0  0  0
   -4.1558    2.3336   -3.9586 C   0  0  0  0  0  0  0  0  0  0  0  0
   -2.0229    5.6829   -1.9717 C   0  0  0  0  0  0  0  0  0  0  0  0
    0.5446   -1.4751   -0.0303 C   0  0  0  0  0  0  0  0  0  0  0  0
    1.0632    0.8451    0.0423 C   0  0  0  0  0  0  0  0  0  0  0  0
   -3.2403    1.2788   -3.9754 C   0  0  0  0  0  0  0  0  0  0  0  0
   -4.7222    2.7143   -2.7556 C   0  0  0  0  0  0  0  0  0  0  0  0
   -3.2158    5.7602   -1.0204 C   0  0  0  0  0  0  0  0  0  0  0  0
   -1.6531    4.2529   -2.2320 C   0  0  0  0  0  0  0  0  0  0  0  0
   -0.8410   -1.2106   -0.0845 C   0  0  0  0  0  0  0  0  0  0  0  0
   -0.2988    1.0543    0.1368 C   0  0  0  0  0  0  0  0  0  0  0  0
   -2.8398    0.6378   -2.7850 C   0  0  0  0  0  0  0  0  0  0  0  0
   -4.3650    2.0378   -1.5849 C   0  0  0  0  0  0  0  0  0  0  0  0
   -3.2935    1.3020    1.0278 C   0  0  0  0  0  0  0  0  0  0  0  0
   -3.0037    4.9884    0.2896 C   0  0  0  0  0  0  0  0  0  0  0  0
   -1.5290    3.5124   -0.9173 C   0  0  0  0  0  0  0  0  0  0  0  0
   -2.6862    2.7283    1.2117 C   0  0  0  0  0  0  0  0  0  0  0  0
   -1.3099    0.1082   -0.0624 C   0  0  0  0  0  0  0  0  0  0  0  0
   -3.3582    1.0340   -1.5458 C   0  0  0  0  0  0  0  0  0  0  0  0
   -2.8240    0.4600   -0.1919 C   0  0  0  0  0  0  0  0  0  0  0  0
   -2.6653    3.6035    0.0166 N   0  0  0  0  0  0  0  0  0  0  0  0
  4  1  2  0
  5  1  1  0
  6  2  2  0
  7  2  1  0
  8  3  1  0
  9  3  1  0
 10  4  1  0
 11  5  2  0
 12  6  1  0
 13  7  2  0
 15  8  1  0
 16  9  1  0
 17 14  1  0
 18 10  2  0
 18 11  1  0
 19 12  2  0
 19 13  1  0
 20 14  1  0
 20 18  1  0
 20 19  1  0
 21 15  1  0
 21 16  1  0
 21 17  1  0
M  END
>  <DRUGBANK_ID>  (1) 
DB13439

>  <COMMON_NAME>  (1) 
Fenpiprane

>  <CAS_NUMBER>  (1) 
3540-95-2

>  <UNII>  (1) 
S2FVB1RL5X

>  <SYNONYMS>  (1) 
Fenpiprane

$$$$
