ROK
     RDKit          3D

 17 17  0  0  0  0  0  0  0  0999 V2000
    0.8249   -0.1652    0.0111 O   0  0  0  0  0  0  0  0  0  0  0  0
    2.2661    0.0861   -0.1302 S   0  0  0  0  0  0  0  0  0  0  0  0
    2.9721    0.6503    0.9881 O   0  0  0  0  0  0  0  0  0  0  0  0
    3.0183   -1.4825   -0.4551 N   0  0  0  0  0  0  0  0  0  0  0  0
    4.0602   -2.0205   -1.2936 C   0  0  0  0  0  0  0  0  0  0  0  0
    4.1008   -3.2492   -1.5225 O   0  0  0  0  0  0  0  0  0  0  0  0
    5.0568   -1.2425   -1.8547 N   0  0  0  0  0  0  0  0  0  0  0  0
    4.8492    0.0897   -1.5215 C   0  0  0  0  0  0  0  0  0  0  0  0
    5.7045    1.3080   -1.6204 C   0  0  0  0  0  0  0  0  0  0  0  0
    6.8006    1.5049   -3.0181 S   0  0  0  0  0  0  0  0  0  0  0  0
    2.3768    1.4867   -1.6257 C   0  0  0  0  0  0  0  0  0  0  0  0
    2.5108    2.8175   -1.1847 C   0  0  0  0  0  0  0  0  0  0  0  0
    2.9719    3.8064   -2.1041 C   0  0  0  0  0  0  0  0  0  0  0  0
    3.4843    3.4821   -3.3784 C   0  0  0  0  0  0  0  0  0  0  0  0
    4.2089    4.3996   -4.1473 N   0  0  0  0  0  0  0  0  0  0  0  0
    3.4513    2.1599   -3.7765 C   0  0  0  0  0  0  0  0  0  0  0  0
    2.7358    1.2162   -3.0048 C   0  0  0  0  0  0  0  0  0  0  0  0
  1  2  2  0
  2  3  2  0
  2  4  1  0
  2 11  1  0
  4  5  1  0
  5  6  2  0
  5  7  1  0
  7  8  1  0
  8  9  1  0
  9 10  1  0
 11 12  2  0
 11 17  1  0
 12 13  1  0
 13 14  2  0
 14 15  1  0
 14 16  1  0
 16 17  2  0
M  END
>  <DRUGBANK_ID>  (1) 
DB08484

>  <COMMON_NAME>  (1) 
4-AMINO-N-[(2-SULFANYLETHYL)CARBAMOYL]BENZENESULFONAMIDE

$$$$
