
     RDKit          3D

 24 24  0  0  1  0  0  0  0  0999 V2000
    0.8072    1.2429   -0.4272 C   0  0  1  0  0  0  0  0  0  0  0  0
    1.6685   -0.1426   -0.2592 C   0  0  1  0  0  0  0  0  0  0  0  0
    0.7780   -1.3771   -0.5236 C   0  0  2  0  0  0  0  0  0  0  0  0
   -0.6311   -1.2498    0.0122 C   0  0  1  0  0  0  0  0  0  0  0  0
   -1.3809    0.0280   -0.3266 C   0  0  2  0  0  0  0  0  0  0  0  0
   -0.6777    1.2475    0.2058 C   0  0  1  0  0  0  0  0  0  0  0  0
   -0.7511    1.2201    1.6668 O   0  0  0  0  0  0  0  0  0  0  0  0
    0.1145   -0.1512    2.2695 P   0  0  0  0  0  0  0  0  0  0  0  0
   -1.2388   -0.5555    2.7604 O   0  0  0  0  0  0  0  0  0  0  0  0
    1.2786    0.7755    1.9375 O   0  0  0  0  0  0  0  0  0  0  0  0
    0.9801   -1.5224    2.8721 O   0  0  0  0  0  0  0  0  0  0  0  0
   -2.7266   -0.1102    0.1419 O   0  0  0  0  0  0  0  0  0  0  0  0
   -1.4544   -2.3244   -0.2468 O   0  0  0  0  0  0  0  0  0  0  0  0
   -1.4438   -2.2997   -1.9766 P   0  0  0  0  0  0  0  0  0  0  0  0
   -1.7931   -3.7786   -2.1012 O   0  0  0  0  0  0  0  0  0  0  0  0
   -2.9044   -1.5771   -2.0184 O   0  0  0  0  0  0  0  0  0  0  0  0
   -1.4332   -2.2750   -3.7064 O   0  0  0  0  0  0  0  0  0  0  0  0
    1.3414   -2.4109    0.2501 O   0  0  0  0  0  0  0  0  0  0  0  0
    0.6577   -3.8353    0.9549 P   0  0  0  0  0  0  0  0  0  0  0  0
    0.0430   -4.2616   -0.3639 O   0  0  0  0  0  0  0  0  0  0  0  0
    2.1344   -4.5234    0.8715 O   0  0  0  0  0  0  0  0  0  0  0  0
   -0.0259   -5.2597    1.6597 O   0  0  0  0  0  0  0  0  0  0  0  0
    2.9684   -0.1000   -0.8561 O   0  0  0  0  0  0  0  0  0  0  0  0
    1.5165    2.3933    0.0787 O   0  0  0  0  0  0  0  0  0  0  0  0
  1  2  1  0
  1  6  1  0
  1 24  1  1
  2  3  1  0
  2 23  1  6
  3  4  1  0
  3 18  1  1
  4  5  1  0
  4 13  1  6
  5  6  1  0
  5 12  1  1
  6  7  1  1
  7  8  1  0
  8  9  2  0
  8 10  1  0
  8 11  1  0
 13 14  1  0
 14 15  2  0
 14 16  1  0
 14 17  1  0
 18 19  1  0
 19 20  2  0
 19 21  1  0
 19 22  1  0
M  END
>  <DRUGBANK_ID>  (1) 
DB03956

>  <SECONDARY_ACCESSION_NUMBERS>  (1) 
EXPT01809

>  <COMMON_NAME>  (1) 
Inositol 2,4,5-trisphosphate

>  <CAS_NUMBER>  (1) 
91840-07-2

$$$$
