BPY
     RDKit          3D

 14 15  0  0  0  0  0  0  0  0999 V2000
   -1.9090    0.6947   -0.0240 C   0  0  0  0  0  0  0  0  0  0  0  0
   -0.7020    1.4154   -0.0245 C   0  0  0  0  0  0  0  0  0  0  0  0
    0.4950    0.6876   -0.0317 C   0  0  0  0  0  0  0  0  0  0  0  0
    0.4887   -0.7090   -0.0237 C   0  0  0  0  0  0  0  0  0  0  0  0
   -0.7110   -1.4106   -0.0196 C   0  0  0  0  0  0  0  0  0  0  0  0
   -1.9138   -0.7050   -0.0242 C   0  0  0  0  0  0  0  0  0  0  0  0
   -0.7128    2.8825    0.0420 C   0  0  0  0  0  0  0  0  0  0  0  0
   -1.2994    3.5324    1.1380 C   0  0  0  0  0  0  0  0  0  0  0  0
   -1.2448    4.9213    1.2581 C   0  0  0  0  0  0  0  0  0  0  0  0
   -0.5888    5.6755    0.2880 C   0  0  0  0  0  0  0  0  0  0  0  0
   -0.0008    5.0470   -0.8067 C   0  0  0  0  0  0  0  0  0  0  0  0
   -0.0860    3.6603   -0.9430 C   0  0  0  0  0  0  0  0  0  0  0  0
    1.6983   -1.3484   -0.0078 O   0  0  0  0  0  0  0  0  0  0  0  0
    1.7045    1.3368   -0.0196 O   0  0  0  0  0  0  0  0  0  0  0  0
  1  2  2  0
  1  6  1  0
  2  3  1  0
  2  7  1  0
  3  4  2  0
  3 14  1  0
  4  5  1  0
  4 13  1  0
  5  6  2  0
  7  8  2  0
  7 12  1  0
  8  9  1  0
  9 10  2  0
 10 11  1  0
 11 12  2  0
M  END
>  <DRUGBANK_ID>  (1) 
DB02923

>  <SECONDARY_ACCESSION_NUMBERS>  (1) 
EXPT00746

>  <COMMON_NAME>  (1) 
Biphenyl-2,3-Diol

>  <CAS_NUMBER>  (1) 
1133-63-7

>  <UNII>  (1) 
XQT8N5388Z

$$$$
