
     RDKit          3D

 34 39  0  0  0  0  0  0  0  0999 V2000
    1.0026    0.0772   -0.0367 O   0  0  0  0  0  0  0  0  0  0  0  0
    2.2092    0.1205   -0.0373 C   0  0  0  0  0  0  0  0  0  0  0  0
    2.9170    1.3052   -0.1075 N   0  0  0  0  0  0  0  0  0  0  0  0
    4.3017    1.3641   -0.1366 N   0  0  0  0  0  0  0  0  0  0  0  0
    5.1073    0.2529   -0.0307 C   0  0  0  0  0  0  0  0  0  0  0  0
    6.3126    0.2938   -0.0509 O   0  0  0  0  0  0  0  0  0  0  0  0
    4.4191   -1.0408    0.1093 C   0  0  0  0  0  0  0  0  0  0  0  0
    5.2150   -2.1838    0.3177 C   0  0  0  0  0  0  0  0  0  0  0  0
    4.6164   -3.4202    0.3482 C   0  0  0  0  0  0  0  0  0  0  0  0
    3.2486   -3.5233   -0.0300 C   0  0  0  0  0  0  0  0  0  0  0  0
    2.4279   -2.3737    0.0013 C   0  0  0  0  0  0  0  0  0  0  0  0
    3.0302   -1.1157    0.0420 C   0  0  0  0  0  0  0  0  0  0  0  0
    5.4959   -4.6085    0.5158 N   0  0  0  0  0  0  0  0  0  0  0  0
    5.3482   -5.5346   -0.5218 N   0  0  0  0  0  0  0  0  0  0  0  0
    6.2463   -6.4451   -0.2266 C   0  0  0  0  0  0  0  0  0  0  0  0
    6.4424   -7.5600   -1.1408 C   0  0  0  0  0  0  0  0  0  0  0  0
    7.1678   -8.6624   -0.8637 C   0  0  0  0  0  0  0  0  0  0  0  0
    7.3693   -9.8056   -1.7758 C   0  0  0  0  0  0  0  0  0  0  0  0
    7.7569   -9.6441   -3.1120 C   0  0  0  0  0  0  0  0  0  0  0  0
    7.7452  -10.7349   -3.9900 C   0  0  0  0  0  0  0  0  0  0  0  0
    7.4894  -12.0170   -3.5111 C   0  0  0  0  0  0  0  0  0  0  0  0
    7.2891  -12.2125   -2.1480 C   0  0  0  0  0  0  0  0  0  0  0  0
    7.1867  -11.1096   -1.2922 C   0  0  0  0  0  0  0  0  0  0  0  0
    6.9445   -6.2883    0.8993 N   0  0  0  0  0  0  0  0  0  0  0  0
    6.5766   -4.9869    1.3710 N   0  0  0  0  0  0  0  0  0  0  0  0
    6.9265   -4.6964    2.8795 C   0  0  0  0  0  0  0  0  0  0  0  0
    8.0063   -4.1320    3.5807 N   0  0  0  0  0  0  0  0  0  0  0  0
    7.8614   -4.2693    5.1692 C   0  0  0  0  0  0  0  0  0  0  0  0
    6.5367   -4.6299    5.2486 C   0  0  0  0  0  0  0  0  0  0  0  0
    6.2722   -5.8506    4.0645 S   0  0  0  0  0  0  0  0  0  0  0  0
    5.6265   -3.8289    5.9287 C   0  0  0  0  0  0  0  0  0  0  0  0
    6.0515   -2.9219    6.8937 C   0  0  0  0  0  0  0  0  0  0  0  0
    7.3786   -2.9240    7.2681 C   0  0  0  0  0  0  0  0  0  0  0  0
    8.3311   -3.5810    6.4127 C   0  0  0  0  0  0  0  0  0  0  0  0
  1  2  2  0
  2  3  1  0
  2 12  1  0
  3  4  1  0
  4  5  1  0
  5  6  2  0
  5  7  1  0
  7  8  1  0
  7 12  2  0
  8  9  2  0
  9 10  1  0
  9 13  1  0
 10 11  2  0
 11 12  1  0
 13 14  2  0
 13 25  1  0
 14 15  1  0
 15 16  1  0
 15 24  2  0
 16 17  2  0
 17 18  1  0
 18 19  2  0
 18 23  1  0
 19 20  1  0
 20 21  2  0
 21 22  1  0
 22 23  2  0
 24 25  1  0
 25 26  1  0
 26 27  2  0
 26 30  1  0
 27 28  1  0
 28 29  2  0
 28 34  1  0
 29 30  1  0
 29 31  1  0
 31 32  2  0
 32 33  1  0
 33 34  2  0
M  CHG  1  13   1
M  END
>  <DRUGBANK_ID>  (1) 
DB01897

>  <SECONDARY_ACCESSION_NUMBERS>  (1) 
EXPT02404

>  <COMMON_NAME>  (1) 
2-(2f-Benzothiazolyl)-5-Styryl-3-(4f-Phthalhydrazidyl)Tetrazolium Chloride

$$$$
