
     RDKit          3D

 27 29  0  0  1  0  0  0  0  0999 V2000
    0.6020   -2.8404    0.0366 C   0  0  0  0  0  0  0  0  0  0  0  0
    1.2974   -1.5416    0.1489 C   0  0  0  0  0  0  0  0  0  0  0  0
    2.6216   -1.2192   -0.0825 C   0  0  0  0  0  0  0  0  0  0  0  0
    3.2035    0.1442   -0.0405 C   0  0  0  0  0  0  0  0  0  0  0  0
    2.4152    1.2606   -0.0589 C   0  0  0  0  0  0  0  0  0  0  0  0
    1.1124    0.8454   -0.0919 C   0  0  0  0  0  0  0  0  0  0  0  0
    0.5685   -0.4819    0.3399 C   0  0  0  0  0  0  0  0  0  0  0  0
   -0.7848   -1.0949    2.1153 Br  0  0  0  0  0  0  0  0  0  0  0  0
    2.7728    2.6618   -0.0609 N   0  0  0  0  0  0  0  0  0  0  0  0
    2.1264    3.8962   -0.0343 C   0  0  0  0  0  0  0  0  0  0  0  0
    2.8088    4.9116   -0.0532 O   0  0  0  0  0  0  0  0  0  0  0  0
    0.7706    4.1126   -0.1125 N   0  0  0  0  0  0  0  0  0  0  0  0
   -0.3376    3.3404    0.1683 C   0  0  0  0  0  0  0  0  0  0  0  0
   -1.1818    2.9607   -0.9201 C   0  0  0  0  0  0  0  0  0  0  0  0
   -1.8133    1.7377   -1.1382 N   0  0  0  0  0  0  0  0  0  0  0  0
   -1.6778    0.8580   -0.1352 C   0  0  0  0  0  0  0  0  0  0  0  0
   -0.9589    1.4696    1.1077 C   0  0  0  0  0  0  0  0  0  0  0  0
   -0.3273    2.6645    1.2875 N   0  0  0  0  0  0  0  0  0  0  0  0
   -2.0588   -0.7189   -0.5599 C   0  0  0  0  0  0  0  0  0  0  0  0
    4.5658    0.3404    0.0091 O   0  0  0  0  0  0  0  0  0  0  0  0
    5.2983   -0.8855    0.0076 C   0  0  0  0  0  0  0  0  0  0  0  0
    5.0418   -1.6999    1.2897 C   0  0  2  0  0  0  0  0  0  0  0  0
    6.0713   -1.3433    2.3515 C   0  0  0  0  0  0  0  0  0  0  0  0
    5.8814   -2.1581    3.5638 N   0  0  0  0  0  0  0  0  0  0  0  0
    5.8748   -3.5829    3.1725 C   0  0  0  0  0  0  0  0  0  0  0  0
    4.8035   -3.8853    2.1198 C   0  0  0  0  0  0  0  0  0  0  0  0
    5.0539   -3.0998    0.9504 O   0  0  0  0  0  0  0  0  0  0  0  0
  1  2  1  0
  2  3  2  0
  2  7  1  0
  3  4  1  0
  4  5  2  0
  4 20  1  0
  5  6  1  0
  5  9  1  0
  6  7  2  0
  7  8  1  0
  9 10  1  0
 10 11  2  0
 10 12  1  0
 12 13  1  0
 13 14  2  0
 13 18  1  0
 14 15  1  0
 15 16  2  0
 16 17  1  0
 16 19  1  0
 17 18  2  0
 20 21  1  0
 22 21  1  6
 22 23  1  0
 22 27  1  0
 23 24  1  0
 24 25  1  0
 25 26  1  0
 26 27  1  0
M  END
>  <DRUGBANK_ID>  (1) 
DB11662

>  <COMMON_NAME>  (1) 
Rabusertib

>  <CAS_NUMBER>  (1) 
911222-45-2

>  <UNII>  (1) 
3S9L1NU6U7

>  <SYNONYMS>  (1) 
Rabusertib

$$$$
