6EA
     RDKit          3D

 30 34  0  0  0  0  0  0  0  0999 V2000
   -1.7486   -0.2175    0.0835 N   0  0  0  0  0  0  0  0  0  0  0  0
   -1.3051    0.9570   -0.0034 C   0  0  0  0  0  0  0  0  0  0  0  0
   -0.0758    0.5915   -0.2319 C   0  0  0  0  0  0  0  0  0  0  0  0
    1.0839   -0.8719   -0.2345 C   0  0  0  0  0  0  0  0  0  0  0  0
    0.4562   -1.9135   -0.0006 C   0  0  0  0  0  0  0  0  0  0  0  0
   -0.8404   -1.4768    0.0569 C   0  0  0  0  0  0  0  0  0  0  0  0
    2.8804   -1.0981    0.5780 C   0  0  0  0  0  0  0  0  0  0  0  0
    3.3723    0.3883    1.4260 C   0  0  0  0  0  0  0  0  0  0  0  0
    5.3741    1.2124    0.7648 C   0  0  0  0  0  0  0  0  0  0  0  0
    5.5381    0.3339   -0.9257 C   0  0  0  0  0  0  0  0  0  0  0  0
    5.4370   -1.0303   -1.1123 C   0  0  0  0  0  0  0  0  0  0  0  0
    4.1062   -1.7028   -0.3780 N   0  0  0  0  0  0  0  0  0  0  0  0
    4.1432   -0.0318   -1.9946 C   0  0  0  0  0  0  0  0  0  0  0  0
    3.9108   -1.2801   -3.0660 C   0  0  0  0  0  0  0  0  0  0  0  0
    5.0843   -1.8076   -3.3494 N   0  0  0  0  0  0  0  0  0  0  0  0
    5.9356   -1.3722   -2.4006 C   0  0  0  0  0  0  0  0  0  0  0  0
    2.7009    0.1090   -1.5038 O   0  0  0  0  0  0  0  0  0  0  0  0
    1.8956    0.8610   -0.0449 C   0  0  0  0  0  0  0  0  0  0  0  0
    1.6150    1.8158   -0.9614 C   0  0  1  0  0  0  0  0  0  0  0  0
    0.9906    1.0689   -2.1690 N   0  0  0  0  0  0  0  0  0  0  0  0
    1.2672    2.3330    0.9052 C   0  0  0  0  0  0  0  0  0  0  0  0
    2.9227    2.7598    1.5524 C   0  0  0  0  0  0  0  0  0  0  0  0
    3.7155    2.5521    0.4016 C   0  0  0  0  0  0  0  0  0  0  0  0
    4.0484    0.8739    0.1153 N   0  0  0  0  0  0  0  0  0  0  0  0
    4.7668    0.6072    2.1538 C   0  0  0  0  0  0  0  0  0  0  0  0
    3.9211    1.9843    2.7317 C   0  0  0  0  0  0  0  0  0  0  0  0
    5.3505   -0.4646    2.7371 C   0  0  0  0  0  0  0  0  0  0  0  0
    5.0424   -0.1265    4.0371 C   0  0  0  0  0  0  0  0  0  0  0  0
    4.2064    0.9482    4.6636 C   0  0  0  0  0  0  0  0  0  0  0  0
    3.5600    1.9951    4.0558 C   0  0  0  0  0  0  0  0  0  0  0  0
  1  2  2  0
  1  6  1  0
  2  3  1  0
  3  4  2  0
  4  5  1  0
  4  7  1  0
  5  6  2  0
  7  8  2  0
  7 12  1  0
  8  9  1  0
  9 10  2  0
 10 11  1  0
 10 13  1  0
 11 12  2  0
 11 16  1  0
 13 14  2  0
 13 17  1  0
 14 15  1  0
 15 16  2  0
 17 18  1  0
 18 19  1  0
 19 20  1  6
 19 21  1  0
 21 22  1  0
 22 23  2  0
 22 26  1  0
 23 24  1  0
 24 25  1  0
 25 26  2  0
 25 27  1  0
 26 30  1  0
 27 28  2  0
 28 29  1  0
 29 30  2  0
M  END
>  <DRUGBANK_ID>  (1) 
DB07204

>  <COMMON_NAME>  (1) 
(1S)-1-(1H-INDOL-3-YLMETHYL)-2-(2-PYRIDIN-4-YL-[1,7]NAPHTYRIDIN-5-YLOXY)-EHYLAMINE

$$$$
