
     RDKit          3D

 17 18  0  0  0  0  0  0  0  0999 V2000
    0.9416    0.1263   -0.0522 C   0  0  0  0  0  0  0  0  0  0  0  0
   -1.5113    0.2485    5.7931 C   0  0  0  0  0  0  0  0  0  0  0  0
   -0.7789    0.8772    4.6054 C   0  0  0  0  0  0  0  0  0  0  0  0
   -0.7005   -0.8920    6.3781 C   0  0  0  0  0  0  0  0  0  0  0  0
    0.0321    0.3921    2.2732 C   0  0  0  0  0  0  0  0  0  0  0  0
    0.1468   -2.3597    2.7155 C   0  0  0  0  0  0  0  0  0  0  0  0
    0.4646   -0.4704    1.2384 C   0  0  0  0  0  0  0  0  0  0  0  0
   -0.3590   -0.1019    3.5284 C   0  0  0  0  0  0  0  0  0  0  0  0
    0.5154   -1.8553    1.4749 C   0  0  0  0  0  0  0  0  0  0  0  0
   -0.2835   -1.4893    3.7164 C   0  0  0  0  0  0  0  0  0  0  0  0
   -0.0156   -2.8759   -0.9880 N   0  0  0  0  0  0  0  0  0  0  0  0
    0.3888   -3.1345    5.6053 O   0  0  0  0  0  0  0  0  0  0  0  0
   -2.0614   -2.7359    5.0987 O   0  0  0  0  0  0  0  0  0  0  0  0
    2.3786   -2.5862   -0.2212 O   0  0  0  0  0  0  0  0  0  0  0  0
    0.8905   -4.3640    0.7785 O   0  0  0  0  0  0  0  0  0  0  0  0
   -0.7058   -2.2513    5.2489 S   0  0  0  0  0  0  0  0  0  0  0  0
    1.0968   -3.0257    0.2681 S   0  0  0  0  0  0  0  0  0  0  0  0
  3  2  1  0
  4  2  1  0
  7  1  1  0
  7  5  1  0
  8  3  1  0
  8  5  2  0
  9  6  1  0
  9  7  2  0
 10  6  2  0
 10  8  1  0
 16  4  1  0
 16 10  1  0
 16 12  2  0
 16 13  2  0
 17  9  1  0
 17 11  1  0
 17 14  2  0
 17 15  2  0
M  END
>  <DRUGBANK_ID>  (1) 
DB13284

>  <COMMON_NAME>  (1) 
Meticrane

>  <CAS_NUMBER>  (1) 
1084-65-7

>  <UNII>  (1) 
I7EKN1924Q

>  <SYNONYMS>  (1) 
Meticrane

$$$$
