1431
     RDKit          3D

 22 25  0  0  1  0  0  0  0  0999 V2000
   -0.5845   -2.3881    9.4521 O   0  0  0  0  0  0  0  0  0  0  0  0
    0.1693   -2.9608    6.6520 C   0  0  1  0  0  0  0  0  0  0  0  0
   -1.1043   -2.6860    5.9546 C   0  0  2  0  0  0  0  0  0  0  0  0
   -1.6674   -3.1126    4.6192 C   0  0  1  0  0  0  0  0  0  0  0  0
   -1.2987   -4.5827    4.0095 C   0  0  2  0  0  0  0  0  0  0  0  0
   -1.0102   -2.9656    8.2050 C   0  0  2  0  0  0  0  0  0  0  0  0
    0.8257   -4.2473    5.7114 C   0  0  0  0  0  0  0  0  0  0  0  0
   -1.5219   -1.3656    6.7073 C   0  0  0  0  0  0  0  0  0  0  0  0
    0.2966   -4.5236    4.1726 C   0  0  0  0  0  0  0  0  0  0  0  0
   -2.2488   -1.9767    7.8427 C   0  0  0  0  0  0  0  0  0  0  0  0
   -2.3008   -5.0424    2.5002 C   0  0  2  0  0  0  0  0  0  0  0  0
   -3.1423   -3.1403    4.9915 C   0  0  0  0  0  0  0  0  0  0  0  0
    1.0510   -1.7680    6.0297 C   0  0  0  0  0  0  0  0  0  0  0  0
   -3.8675   -3.4933    3.7688 C   0  0  0  0  0  0  0  0  0  0  0  0
   -3.4109   -4.9083    3.5263 C   0  0  0  0  0  0  0  0  0  0  0  0
   -1.6265   -4.4190    8.5511 C   0  0  0  0  0  0  0  0  0  0  0  0
   -3.7448   -5.7736    1.5365 C   0  0  0  0  0  0  0  0  0  0  0  0
   -5.3333   -5.5406    1.9948 C   0  0  0  0  0  0  0  0  0  0  0  0
   -4.0965   -5.9954    3.9346 C   0  0  0  0  0  0  0  0  0  0  0  0
   -5.5073   -5.8205    3.5043 C   0  0  0  0  0  0  0  0  0  0  0  0
   -0.4265   -5.1834    8.2600 C   0  0  0  0  0  0  0  0  0  0  0  0
    0.6818   -5.5992    8.9175 C   0  0  0  0  0  0  0  0  0  0  0  0
  2  3  1  0
  2  6  1  0
  2  7  1  0
  2 13  1  1
  3  4  1  0
  3  8  1  6
  4  5  1  0
  4 12  1  1
  5  9  1  6
  5 11  1  0
  6  1  1  1
  6 10  1  0
  6 16  1  0
  7  9  1  0
  8 10  1  0
 11 15  1  0
 11 17  1  1
 12 14  1  0
 14 15  1  0
 15 19  2  0
 16 21  1  0
 17 18  1  0
 18 20  1  0
 19 20  1  0
 21 22  2  0
M  END
>  <DRUGBANK_ID>  (1) 
DB01431

>  <COMMON_NAME>  (1) 
Allylestrenol

>  <CAS_NUMBER>  (1) 
432-60-0

>  <UNII>  (1) 
I47VB5DZ8O

>  <SYNONYMS>  (1) 
17α-allylestr-4-en-17β-ol; 3-deketo-17α-allyl-19-nortestosterone; Alilestrenol; Allilestrenolo; Allyl estrenol; Allylestrenol; Allylestrenolum; Allyloestrenol

$$$$
