
     RDKit          3D

 30 34  0  0  0  0  0  0  0  0999 V2000
   -2.1263   -0.0783   -0.1051 C   0  0  0  0  0  0  0  0  0  0  0  0
   -0.6870   -0.1543   -0.1608 N   0  0  0  0  0  0  0  0  0  0  0  0
    0.0009    1.0105   -0.2355 N   0  0  0  0  0  0  0  0  0  0  0  0
    1.2762    0.6213   -0.2990 C   0  0  0  0  0  0  0  0  0  0  0  0
    1.3992   -0.7637   -0.1912 C   0  0  0  0  0  0  0  0  0  0  0  0
    2.6453   -1.4780   -0.1040 C   0  0  0  0  0  0  0  0  0  0  0  0
    3.6167   -1.4033    0.8599 C   0  0  0  0  0  0  0  0  0  0  0  0
    4.5772   -2.2882    0.4298 N   0  0  0  0  0  0  0  0  0  0  0  0
    5.7316   -2.5187    1.0737 N   0  0  0  0  0  0  0  0  0  0  0  0
    5.8733   -1.7925    2.1472 C   0  0  0  0  0  0  0  0  0  0  0  0
    4.9938   -0.8692    2.6479 N   0  0  0  0  0  0  0  0  0  0  0  0
    3.8312   -0.6571    2.0744 C   0  0  0  0  0  0  0  0  0  0  0  0
    2.9774    0.1941    2.7426 N   0  0  0  0  0  0  0  0  0  0  0  0
    3.0522    1.6178    2.7912 C   0  0  0  0  0  0  0  0  0  0  0  0
    1.5192    1.6461    2.7194 C   0  0  0  0  0  0  0  0  0  0  0  0
    1.5845    0.1346    2.9887 C   0  0  0  0  0  0  0  0  0  0  0  0
    4.1321   -2.8735   -0.7455 C   0  0  0  0  0  0  0  0  0  0  0  0
    4.8727   -3.8865   -1.5477 C   0  0  0  0  0  0  0  0  0  0  0  0
    2.9446   -2.4005   -1.0694 N   0  0  0  0  0  0  0  0  0  0  0  0
    0.1170   -1.2658   -0.1180 C   0  0  0  0  0  0  0  0  0  0  0  0
   -0.3233   -2.6348    0.0540 C   0  0  0  0  0  0  0  0  0  0  0  0
   -1.1523   -3.1023   -0.9039 N   0  0  0  0  0  0  0  0  0  0  0  0
   -1.4846   -4.4132   -0.8351 C   0  0  0  0  0  0  0  0  0  0  0  0
   -1.0595   -5.2688    0.1724 C   0  0  0  0  0  0  0  0  0  0  0  0
   -0.2316   -4.7431    1.1667 C   0  0  0  0  0  0  0  0  0  0  0  0
    0.1472   -3.4103    1.1071 C   0  0  0  0  0  0  0  0  0  0  0  0
   -1.4682   -6.7054    0.2147 C   0  0  0  0  0  0  0  0  0  0  0  0
   -0.4006   -7.5499    0.1885 F   0  0  0  0  0  0  0  0  0  0  0  0
   -2.1492   -7.0057    1.3558 F   0  0  0  0  0  0  0  0  0  0  0  0
   -2.2745   -7.0833   -0.8129 F   0  0  0  0  0  0  0  0  0  0  0  0
  1  2  1  0
  2  3  1  0
  2 20  1  0
  3  4  2  0
  4  5  1  0
  5  6  1  0
  5 20  2  0
  6  7  2  0
  6 19  1  0
  7  8  1  0
  7 12  1  0
  8  9  1  0
  8 17  1  0
  9 10  2  0
 10 11  1  0
 11 12  2  0
 12 13  1  0
 13 14  1  0
 13 16  1  0
 14 15  1  0
 15 16  1  0
 17 18  1  0
 17 19  2  0
 20 21  1  0
 21 22  2  0
 21 26  1  0
 22 23  1  0
 23 24  2  0
 24 25  1  0
 24 27  1  0
 25 26  2  0
 27 28  1  0
 27 29  1  0
 27 30  1  0
M  END
>  <DRUGBANK_ID>  (1) 
DB14885

>  <COMMON_NAME>  (1) 
PF-05180999

>  <CAS_NUMBER>  (1) 
1394033-54-5

>  <UNII>  (1) 
5L84K4IEN9

$$$$
