
     RDKit          3D

 13 12  0  0  1  0  0  0  0  0999 V2000
    0.9917   -0.1798    0.1647 N   0  0  0  0  0  0  0  0  0  0  0  0
    0.4887    1.0098    0.8706 C   0  0  1  0  0  0  0  0  0  0  0  0
    1.0351    2.2930    0.2424 C   0  0  0  0  0  0  0  0  0  0  0  0
    0.5635    2.5583   -1.1765 C   0  0  0  0  0  0  0  0  0  0  0  0
   -0.0497    3.5744   -1.4870 O   0  0  0  0  0  0  0  0  0  0  0  0
    0.8529    1.5799   -2.0750 O   0  0  0  0  0  0  0  0  0  0  0  0
    0.2762    1.7797   -3.6938 P   0  0  0  0  0  0  0  0  0  0  0  0
    0.5513    0.1656   -3.8173 O   0  0  0  0  0  0  0  0  0  0  0  0
   -1.2309    1.6314   -3.0595 O   0  0  0  0  0  0  0  0  0  0  0  0
   -0.2399    1.9585   -5.1426 O   0  0  0  0  0  0  0  0  0  0  0  0
   -1.0491    1.0366    0.8625 C   0  0  0  0  0  0  0  0  0  0  0  0
   -1.6444    0.9159    2.0679 O   0  0  0  0  0  0  0  0  0  0  0  0
   -1.7069    1.2064   -0.1616 O   0  0  0  0  0  0  0  0  0  0  0  0
  2  1  1  6
  2  3  1  0
  2 11  1  0
  3  4  1  0
  4  5  2  0
  4  6  1  0
  6  7  1  0
  7  8  1  0
  7  9  1  0
  7 10  2  0
 11 12  1  0
 11 13  2  0
M  END
>  <DRUGBANK_ID>  (1) 
DB01857

>  <SECONDARY_ACCESSION_NUMBERS>  (1) 
EXPT00574; DB03713; DB04247

>  <COMMON_NAME>  (1) 
Phosphoaspartate

$$$$
