
     RDKit          3D

 24 26  0  0  0  0  0  0  0  0999 V2000
    1.1939    0.1923    0.0064 C   0  0  0  0  0  0  0  0  0  0  0  0
   -0.5084    1.2030   -1.3117 C   0  0  0  0  0  0  0  0  0  0  0  0
   -0.9304    4.2620    4.1647 C   0  0  0  0  0  0  0  0  0  0  0  0
   -1.4149    4.2547    5.4320 N   0  0  0  0  0  0  0  0  0  0  0  0
   -0.6614    5.3804    3.7054 O   0  0  0  0  0  0  0  0  0  0  0  0
   -1.4430    1.2133    4.9935 N   0  0  0  0  0  0  0  0  0  0  0  0
   -1.6833   -0.0427    5.5076 C   0  0  0  0  0  0  0  0  0  0  0  0
   -2.1185   -0.0969    6.6622 O   0  0  0  0  0  0  0  0  0  0  0  0
    0.8077    5.2419   -0.8031 C   0  0  0  0  0  0  0  0  0  0  0  0
   -1.2800    3.9306   -0.6917 C   0  0  0  0  0  0  0  0  0  0  0  0
   -0.2749    1.7971    1.3554 C   0  0  0  0  0  0  0  0  0  0  0  0
   -0.2756    3.0175    2.0214 C   0  0  0  0  0  0  0  0  0  0  0  0
   -1.1033    0.7062    2.3417 S   0  0  0  0  0  0  0  0  0  0  0  0
    0.3316    1.5107   -0.0574 C   0  0  0  0  0  0  0  0  0  0  0  0
   -0.7873    3.0158    3.3865 C   0  0  0  0  0  0  0  0  0  0  0  0
    0.1715    4.2379    1.3145 C   0  0  0  0  0  0  0  0  0  0  0  0
   -1.0762    1.7042    3.7455 C   0  0  0  0  0  0  0  0  0  0  0  0
    1.0102    2.7652   -0.4378 O   0  0  0  0  0  0  0  0  0  0  0  0
    0.1925    3.9789   -0.1890 C   0  0  0  0  0  0  0  0  0  0  0  0
   -1.3832   -1.2272    4.7237 C   0  0  0  0  0  0  0  0  0  0  0  0
   -0.1482   -1.5428    4.0960 C   0  0  0  0  0  0  0  0  0  0  0  0
   -2.3359   -2.1177    4.3985 N   0  0  0  0  0  0  0  0  0  0  0  0
   -0.4644   -2.5313    3.1970 C   0  0  0  0  0  0  0  0  0  0  0  0
   -1.7546   -2.8800    3.4618 N   0  0  0  0  0  0  0  0  0  0  0  0
  1 14  1  0
  2 14  1  0
  3  4  1  0
  3  5  2  0
  3 15  1  0
  6  7  1  0
  6 17  1  0
  7  8  2  0
  7 20  1  0
  9 19  1  0
 10 19  1  0
 11 12  2  0
 11 13  1  0
 11 14  1  0
 12 15  1  0
 12 16  1  0
 13 17  1  0
 14 18  1  0
 15 17  2  0
 16 19  1  0
 18 19  1  0
 20 21  1  0
 20 22  2  0
 21 23  2  0
 22 24  1  0
 23 24  1  0
M  END
>  <DRUGBANK_ID>  (1) 
DB16835

>  <COMMON_NAME>  (1) 
GLPG-1837

>  <CAS_NUMBER>  (1) 
1654725-02-6

>  <UNII>  (1) 
MM4S7BD3DF

$$$$
