SM5
     RDKit          3D

 28 32  0  0  0  0  0  0  0  0999 V2000
   -1.5321    0.0257   -0.1333 C   0  0  0  0  0  0  0  0  0  0  0  0
   -2.8699    0.0700    0.4686 N   0  0  0  0  0  0  0  0  0  0  0  0
   -8.2496    2.3413    0.3155 C   0  0  0  0  0  0  0  0  0  0  0  0
   -7.0180    1.6788    0.1108 C   0  0  0  0  0  0  0  0  0  0  0  0
   -6.1514    1.4076    1.1883 C   0  0  0  0  0  0  0  0  0  0  0  0
   -6.5265    1.8011    2.4769 C   0  0  0  0  0  0  0  0  0  0  0  0
   -7.7352    2.4548    2.6691 C   0  0  0  0  0  0  0  0  0  0  0  0
   -8.5871    2.7254    1.6063 C   0  0  0  0  0  0  0  0  0  0  0  0
   -4.9610   -1.5966    3.8843 C   0  0  0  0  0  0  0  0  0  0  0  0
   -3.2618   -0.8936    1.3261 N   0  0  0  0  0  0  0  0  0  0  0  0
   -5.8687   -2.2690    4.6855 C   0  0  0  0  0  0  0  0  0  0  0  0
   -7.2955   -2.6468    2.9194 C   0  0  0  0  0  0  0  0  0  0  0  0
    0.6860   -1.2099   -0.2747 C   0  0  0  0  0  0  0  0  0  0  0  0
   -6.5012   -1.9175    2.0594 C   0  0  0  0  0  0  0  0  0  0  0  0
   -3.8333    1.0272    0.2633 C   0  0  0  0  0  0  0  0  0  0  0  0
   -5.3123   -1.3828    2.5531 C   0  0  0  0  0  0  0  0  0  0  0  0
   -4.9169    0.6545    1.0285 C   0  0  0  0  0  0  0  0  0  0  0  0
   -0.7216    1.2739    0.2423 C   0  0  0  0  0  0  0  0  0  0  0  0
    0.7124    1.1935   -0.2699 C   0  0  0  0  0  0  0  0  0  0  0  0
   -4.5073   -0.5530    1.6720 C   0  0  0  0  0  0  0  0  0  0  0  0
   -7.0240   -2.8060    4.2314 N   0  0  0  0  0  0  0  0  0  0  0  0
    1.3685   -0.0153    0.2147 N   0  0  0  0  0  0  0  0  0  0  0  0
   -0.7499   -1.2517    0.2298 C   0  0  0  0  0  0  0  0  0  0  0  0
   -8.2577    2.9108    3.9874 C   0  0  0  0  0  0  0  0  0  0  0  0
   -9.5843    3.5973    3.6558 C   0  0  0  0  0  0  0  0  0  0  0  0
   -9.7540    3.4247    2.1564 C   0  0  0  0  0  0  0  0  0  0  0  0
  -10.7646    3.8377    1.4440 N   0  0  0  0  0  0  0  0  0  0  0  0
  -11.7125    4.4823    2.2565 O   0  0  0  0  0  0  0  0  0  0  0  0
  2  1  1  0
  2 15  1  0
  4  3  2  0
  5  4  1  0
  6  7  1  0
  6  5  2  0
  7  8  2  0
  8 26  1  0
  8  3  1  0
 10 20  2  0
 10  2  1  0
 11  9  2  0
 12 14  1  0
 12 21  2  0
 14 16  2  0
 16 20  1  0
 16  9  1  0
 17 15  2  0
 17  5  1  0
 18 19  1  0
 18  1  1  0
 20 17  1  0
 21 11  1  0
 22 13  1  0
 22 19  1  0
 23 13  1  0
 23  1  1  0
 24  7  1  0
 24 25  1  0
 25 26  1  0
 26 27  2  0
 27 28  1  0
M  END
>  <DRUGBANK_ID>  (1) 
DB08553

>  <COMMON_NAME>  (1) 
(1E)-5-(1-piperidin-4-yl-3-pyridin-4-yl-1H-pyrazol-4-yl)-2,3-dihydro-1H-inden-1-one oxime

$$$$
