
     RDKit          3D

  8  7  0  0  1  0  0  0  0  0999 V2000
    1.0068    0.0085    0.0680 C   0  0  0  0  0  0  0  0  0  0  0  0
    1.0163    2.2350   -1.2359 C   0  0  0  0  0  0  0  0  0  0  0  0
    0.4868    1.4490   -0.0366 C   0  0  1  0  0  0  0  0  0  0  0  0
   -1.0230    1.5030    0.0463 C   0  0  0  0  0  0  0  0  0  0  0  0
    0.5580   -0.9171   -0.9700 N   0  0  0  0  0  0  0  0  0  0  0  0
    0.5857    1.7486   -2.4983 O   0  0  0  0  0  0  0  0  0  0  0  0
   -1.6690    2.0646    0.9131 O   0  0  0  0  0  0  0  0  0  0  0  0
   -1.6437    0.8317   -0.9483 O   0  0  0  0  0  0  0  0  0  0  0  0
  3  1  1  6
  3  2  1  0
  3  4  1  0
  5  1  1  0
  6  2  1  0
  7  4  2  0
  8  4  1  0
M  END
>  <DRUGBANK_ID>  (1) 
DB02904

>  <SECONDARY_ACCESSION_NUMBERS>  (1) 
EXPT00762

>  <COMMON_NAME>  (1) 
Beta-3-Serine

$$$$
