FHM
     RDKit          3D

 28 29  0  0  0  0  0  0  0  0999 V2000
   -1.1420    1.1598   -0.3862 C   0  0  0  0  0  0  0  0  0  0  0  0
    0.2341    1.1519   -0.1903 C   0  0  0  0  0  0  0  0  0  0  0  0
    0.8793   -0.0610   -0.0354 C   0  0  0  0  0  0  0  0  0  0  0  0
    2.2126   -0.0822    0.0704 F   0  0  0  0  0  0  0  0  0  0  0  0
    0.1623   -1.2526   -0.0110 C   0  0  0  0  0  0  0  0  0  0  0  0
   -1.2310   -1.2229   -0.0606 C   0  0  0  0  0  0  0  0  0  0  0  0
   -1.8912   -0.0067   -0.2064 C   0  0  0  0  0  0  0  0  0  0  0  0
   -3.2463   -0.0718   -0.0603 O   0  0  0  0  0  0  0  0  0  0  0  0
   -3.9709    1.1525    0.0073 C   0  0  0  0  0  0  0  0  0  0  0  0
   -3.7611    2.0266    1.2788 C   0  0  1  0  0  0  0  0  0  0  0  0
   -2.3958    2.4080    1.5121 O   0  0  0  0  0  0  0  0  0  0  0  0
   -4.4898    3.3143    0.9264 C   0  0  0  0  0  0  0  0  0  0  0  0
   -4.1879    1.3110    2.6058 C   0  0  0  0  0  0  0  0  0  0  0  0
   -4.7203    0.1972    2.5935 O   0  0  0  0  0  0  0  0  0  0  0  0
   -3.8183    1.8396    3.8443 N   0  0  0  0  0  0  0  0  0  0  0  0
   -3.2773    3.1085    4.1364 C   0  0  0  0  0  0  0  0  0  0  0  0
   -3.8665    4.2449    3.5999 C   0  0  0  0  0  0  0  0  0  0  0  0
   -2.2106    3.2949    5.0030 C   0  0  0  0  0  0  0  0  0  0  0  0
   -1.7041    4.5965    5.2051 C   0  0  0  0  0  0  0  0  0  0  0  0
   -2.1573    5.6870    4.4252 C   0  0  0  0  0  0  0  0  0  0  0  0
   -1.4993    6.9983    4.6003 N   0  0  0  0  0  0  0  0  0  0  0  0
   -0.6233    7.0898    5.4593 O   0  0  0  0  0  0  0  0  0  0  0  0
   -1.8649    7.9435    3.8838 O   0  0  0  0  0  0  0  0  0  0  0  0
   -3.2444    5.5080    3.5735 C   0  0  0  0  0  0  0  0  0  0  0  0
   -3.8134    6.5727    2.6636 C   0  0  0  0  0  0  0  0  0  0  0  0
   -4.4031    7.5746    3.3606 F   0  0  0  0  0  0  0  0  0  0  0  0
   -2.9026    7.1194    1.8141 F   0  0  0  0  0  0  0  0  0  0  0  0
   -4.7968    6.1029    1.8368 F   0  0  0  0  0  0  0  0  0  0  0  0
  1  2  2  0
  1  7  1  0
  2  3  1  0
  3  4  1  0
  3  5  2  0
  5  6  1  0
  6  7  2  0
  7  8  1  0
  8  9  1  0
  9 10  1  0
 10 11  1  0
 10 12  1  6
 10 13  1  0
 13 14  2  0
 13 15  1  0
 15 16  1  0
 16 17  2  0
 16 18  1  0
 17 24  1  0
 18 19  2  0
 19 20  1  0
 20 21  1  0
 20 24  2  0
 21 22  2  0
 21 23  1  0
 24 25  1  0
 25 26  1  0
 25 27  1  0
 25 28  1  0
M  CHG  2  21   1  23  -1
M  END
>  <DRUGBANK_ID>  (1) 
DB07769

>  <COMMON_NAME>  (1) 
S-3-(4-FLUOROPHENOXY)-2-HYDROXY-2-METHYL-N-[4-NITRO-3-(TRIFLUOROMETHYL)PHENYL]PROPANAMIDE

$$$$
