
     RDKit          3D

 12 12  0  0  0  0  0  0  0  0999 V2000
    0.8760   -0.0133    0.1575 N   0  0  0  0  0  0  0  0  0  0  0  0
    0.2617    0.8460    0.9749 C   0  0  0  0  0  0  0  0  0  0  0  0
   -1.0252    0.9268    1.0416 N   0  0  0  0  0  0  0  0  0  0  0  0
    1.0063    1.6350    1.7642 N   0  0  0  0  0  0  0  0  0  0  0  0
    2.4355    1.7564    1.9016 C   0  0  0  0  0  0  0  0  0  0  0  0
    2.8824    3.1554    1.5501 C   0  0  0  0  0  0  0  0  0  0  0  0
    2.4313    4.2593    2.2868 C   0  0  0  0  0  0  0  0  0  0  0  0
    2.6933    5.5467    1.8312 C   0  0  0  0  0  0  0  0  0  0  0  0
    2.1394    6.5916    2.4599 F   0  0  0  0  0  0  0  0  0  0  0  0
    3.5024    5.7658    0.7234 C   0  0  0  0  0  0  0  0  0  0  0  0
    4.0755    4.6786    0.0694 C   0  0  0  0  0  0  0  0  0  0  0  0
    3.7313    3.3797    0.4527 C   0  0  0  0  0  0  0  0  0  0  0  0
  1  2  1  0
  2  3  2  0
  2  4  1  0
  4  5  1  0
  5  6  1  0
  6  7  2  0
  6 12  1  0
  7  8  1  0
  8  9  1  0
  8 10  2  0
 10 11  1  0
 11 12  2  0
M  ISO  1   9  18
M  END
>  <DRUGBANK_ID>  (1) 
DB17128

>  <COMMON_NAME>  (1) 
M-(18F)-fluorobenzylguanidine

>  <CAS_NUMBER>  (1) 
156021-12-4

>  <UNII>  (1) 
CD7WXM716P

>  <SYNONYMS>  (1) 
18F-meta-fluorobenzylguanidine; Guanidine, ((3-(fluoro-18f)phenyl)methyl)-; Meta-fluoro benzylguanidine F-18

$$$$
