
     RDKit          3D

 28 31  0  0  0  0  0  0  0  0999 V2000
    2.3937    1.7065   -0.8709 C   0  0  0  0  0  0  0  0  0  0  0  0
    0.9979    1.6239   -0.4969 C   0  0  2  0  0  0  0  0  0  0  0  0
   -2.5281   -0.6728   -0.2458 C   0  0  2  0  0  0  0  0  0  0  0  0
   -3.6852   -1.4308    0.4367 C   0  0  1  0  0  0  0  0  0  0  0  0
   -0.0094   -0.6242   -0.3025 C   0  0  2  0  0  0  0  0  0  0  0  0
    2.4947    0.0534   -0.5408 C   0  0  0  0  0  0  0  0  0  0  0  0
    1.4894   -0.8988   -0.2820 C   0  0  0  0  0  0  0  0  0  0  0  0
   -0.0281    0.7874    0.2110 C   0  0  2  0  0  0  0  0  0  0  0  0
   -1.2359   -1.4187    0.2402 C   0  0  1  0  0  0  0  0  0  0  0  0
    2.0639    2.9203   -1.7020 C   0  0  0  0  0  0  0  0  0  0  0  0
   -2.4991    0.7624    0.3328 C   0  0  0  0  0  0  0  0  0  0  0  0
   -3.1229   -1.4936    1.8958 C   0  0  0  0  0  0  0  0  0  0  0  0
   -4.9638   -0.7321    0.2068 O   0  0  0  0  0  0  0  0  0  0  0  0
   -1.3157    1.5360   -0.0195 C   0  0  0  0  0  0  0  0  0  0  0  0
   -1.5350   -1.5108    1.7532 C   0  0  0  0  0  0  0  0  0  0  0  0
    0.8256    1.1249   -2.2594 C   0  0  0  0  0  0  0  0  0  0  0  0
   -3.8052   -2.9283   -0.0592 C   0  0  0  0  0  0  0  0  0  0  0  0
   -5.2867    0.4818    0.7570 C   0  0  0  0  0  0  0  0  0  0  0  0
    0.3691    3.2242   -2.1002 C   0  0  0  0  0  0  0  0  0  0  0  0
   -4.7150    1.0377    1.6866 O   0  0  0  0  0  0  0  0  0  0  0  0
   -3.6817   -3.8787    0.7234 O   0  0  0  0  0  0  0  0  0  0  0  0
    4.0678   -0.5461   -0.0671 Cl  0  0  0  0  0  0  0  0  0  0  0  0
   -0.3242    4.1130   -1.7009 O   0  0  0  0  0  0  0  0  0  0  0  0
   -0.1251    2.0431   -2.8925 C   0  0  0  0  0  0  0  0  0  0  0  0
   -6.4424    1.1744    0.1035 C   0  0  0  0  0  0  0  0  0  0  0  0
   -4.0135   -3.2610   -1.5209 C   0  0  0  0  0  0  0  0  0  0  0  0
    1.1455    2.9193    0.5287 C   0  0  0  0  0  0  0  0  0  0  0  0
   -2.6750   -0.5642   -1.7667 C   0  0  0  0  0  0  0  0  0  0  0  0
  2  1  1  0
  2 27  1  6
  3  9  1  0
  3 28  1  6
  4  3  1  0
  4 13  1  1
  4 17  1  0
  5  7  1  1
  6  1  1  0
  7  6  2  0
  8  2  1  0
  8  5  1  0
  9  5  1  0
 10  1  2  0
 11 14  1  0
 11  3  1  0
 12 15  1  0
 12  4  1  0
  8 14  1  6
  9 15  1  1
 16  2  1  0
 18 13  1  0
 19 10  1  0
 20 18  2  0
 21 17  2  0
 22  6  1  0
 23 19  2  0
 24 19  1  0
 24 16  1  0
 25 18  1  0
 26 17  1  0
M  END
>  <DRUGBANK_ID>  (1) 
DB15903

>  <COMMON_NAME>  (1) 
Chlormadinone acetate

>  <CAS_NUMBER>  (1) 
302-22-7

>  <UNII>  (1) 
0SY050L61N

>  <SYNONYMS>  (1) 
Chlormadinone acetate

$$$$
