417
     RDKit          3D

 29 32  0  0  0  0  0  0  0  0999 V2000
    3.5523    6.2740    0.2568 C   0  0  0  0  0  0  0  0  0  0  0  0
    3.5792    4.9088    0.1269 C   0  0  0  0  0  0  0  0  0  0  0  0
    2.4093    4.2025    0.0317 C   0  0  0  0  0  0  0  0  0  0  0  0
    1.1443    4.8558    0.0856 C   0  0  0  0  0  0  0  0  0  0  0  0
    1.1192    6.2359    0.1987 C   0  0  0  0  0  0  0  0  0  0  0  0
    2.3229    6.9300    0.2761 C   0  0  0  0  0  0  0  0  0  0  0  0
    2.5904    2.7195   -0.0248 C   0  0  1  0  0  0  0  0  0  0  0  0
    3.0073    1.9464   -1.5211 C   0  0  0  0  0  0  0  0  0  0  0  0
    2.9355    0.2553   -1.5968 C   0  0  0  0  0  0  0  0  0  0  0  0
    3.3785   -0.6087   -0.0685 C   0  0  1  0  0  0  0  0  0  0  0  0
    3.5884    0.2315    1.6087 C   0  0  0  0  0  0  0  0  0  0  0  0
    3.3580    2.0198    1.5247 C   0  0  2  0  0  0  0  0  0  0  0  0
    2.0263   -0.9814    0.4207 N   0  0  0  0  0  0  0  0  0  0  0  0
    1.5658    0.3866    0.4084 C   0  0  0  0  0  0  0  0  0  0  0  0
    0.3880    1.0015    1.0410 C   0  0  0  0  0  0  0  0  0  0  0  0
   -0.0872    0.0154    1.8870 N   0  0  0  0  0  0  0  0  0  0  0  0
    0.0368   -1.3334    1.5136 C   0  0  0  0  0  0  0  0  0  0  0  0
    0.8357   -1.7113    0.2084 C   0  0  0  0  0  0  0  0  0  0  0  0
   -0.1245    0.0807    3.2619 C   0  0  0  0  0  0  0  0  0  0  0  0
   -0.2097   -1.1604    3.6811 N   0  0  0  0  0  0  0  0  0  0  0  0
   -0.1053   -2.0322    2.6012 N   0  0  0  0  0  0  0  0  0  0  0  0
   -0.0559    6.8809    0.2338 F   0  0  0  0  0  0  0  0  0  0  0  0
    4.7331    4.2343    0.1075 F   0  0  0  0  0  0  0  0  0  0  0  0
    2.8348    2.5740    2.8058 N   0  0  0  0  0  0  0  0  0  0  0  0
   -0.0491    1.3266    4.1017 C   0  0  0  0  0  0  0  0  0  0  0  0
    0.9054    1.2423    5.0685 F   0  0  0  0  0  0  0  0  0  0  0  0
   -1.2265    1.5872    4.7217 F   0  0  0  0  0  0  0  0  0  0  0  0
    0.2448    2.4718    3.4176 F   0  0  0  0  0  0  0  0  0  0  0  0
    2.3143    8.2648    0.3650 F   0  0  0  0  0  0  0  0  0  0  0  0
  1  2  2  0
  1  6  1  0
  2 23  1  0
  2  3  1  0
  3  4  2  0
  4  5  1  0
  5  6  2  0
  5 22  1  0
  6 29  1  0
  7 12  1  0
  7  8  1  0
  7  3  1  6
  8  9  1  0
  9 10  1  0
 10 11  1  0
 10 13  1  1
 11 12  1  0
 12 24  1  1
 13 14  1  0
 13 18  1  0
 14 15  1  0
 15 16  1  0
 16 19  1  0
 16 17  1  0
 17 21  2  0
 17 18  1  0
 19 25  1  0
 19 20  2  0
 20 21  1  0
 25 27  1  0
 25 26  1  0
 25 28  1  0
M  END
>  <DRUGBANK_ID>  (1) 
DB07072

>  <COMMON_NAME>  (1) 
(1S,2R,5S)-5-[3-(TRIFLUOROMETHYL)-5,6-DIHYDRO[1,2,4]TRIAZOLO[4,3-A]PYRAZIN-7(8H)-YL]-2-(2,4,5-TRIFLUOROPHENYL)CYCLOHEXANAMINE

$$$$
