
     RDKit          3D

 11 11  0  0  0  0  0  0  0  0999 V2000
    0.9002   -0.0947    0.1152 C   0  0  0  0  0  0  0  0  0  0  0  0
    0.3994   -1.4770   -0.3760 C   0  0  1  0  0  0  0  0  0  0  0  0
    1.0028   -2.6184    0.4699 C   0  0  0  0  0  0  0  0  0  0  0  0
    0.0931   -3.4499    1.0428 O   0  0  0  0  0  0  0  0  0  0  0  0
    2.2061   -2.7654    0.6643 O   0  0  0  0  0  0  0  0  0  0  0  0
   -1.0822   -1.5226   -0.4275 N   0  0  0  0  0  0  0  0  0  0  0  0
    0.4334    0.2393    1.5206 C   0  0  0  0  0  0  0  0  0  0  0  0
   -0.0079   -0.6205    2.5065 C   0  0  0  0  0  0  0  0  0  0  0  0
   -0.3869    0.0081    3.7062 C   0  0  0  0  0  0  0  0  0  0  0  0
   -0.1968    1.3631    3.6337 C   0  0  0  0  0  0  0  0  0  0  0  0
    0.4105    1.8534    2.1031 S   0  0  0  0  0  0  0  0  0  0  0  0
  1  2  1  0
  1  7  1  0
  2  3  1  0
  2  6  1  1
  3  4  1  0
  3  5  2  0
  7  8  2  0
  7 11  1  0
  8  9  1  0
  9 10  2  0
 11 10  1  0
M  END
>  <DRUGBANK_ID>  (1) 
DB03673

>  <SECONDARY_ACCESSION_NUMBERS>  (1) 
EXPT03063

>  <COMMON_NAME>  (1) 
beta-2-Thienyl-L-alanine

>  <CAS_NUMBER>  (1) 
22951-96-8

>  <UNII>  (1) 
2EMW41BM77

>  <SYNONYMS>  (1) 
beta-(2-Thienyl)-L-alanine; L-3-(2-thienyl)alanine

$$$$
