
     RDKit          3D

 15 16  0  0  0  0  0  0  0  0999 V2000
    2.5216    1.7743    4.8121 S   0  0  0  0  0  0  0  0  0  0  0  0
   -0.4998   -1.2298    2.0452 O   0  0  0  0  0  0  0  0  0  0  0  0
    2.3956   -1.5056    2.4425 O   0  0  0  0  0  0  0  0  0  0  0  0
    1.3347    1.7189    3.6638 O   0  0  0  0  0  0  0  0  0  0  0  0
   -0.3823   -2.1394    4.8621 O   0  0  0  0  0  0  0  0  0  0  0  0
    3.4346    0.3062    2.7864 O   0  0  0  0  0  0  0  0  0  0  0  0
    3.8526    2.3078    4.0637 O   0  0  0  0  0  0  0  0  0  0  0  0
    2.8003    0.4370    5.2759 O   0  0  0  0  0  0  0  0  0  0  0  0
    2.1929    2.8263    5.7552 O   0  0  0  0  0  0  0  0  0  0  0  0
   -0.0748   -0.3808    3.1719 C   0  0  1  0  0  0  0  0  0  0  0  0
    0.5588   -1.3649    4.1267 C   0  0  2  0  0  0  0  0  0  0  0  0
    1.3450   -2.1854    3.1150 C   0  0  1  0  0  0  0  0  0  0  0  0
    1.0296    0.6309    2.7349 C   0  0  2  0  0  0  0  0  0  0  0  0
    0.3313   -2.4221    2.0240 C   0  0  0  0  0  0  0  0  0  0  0  0
    2.2575   -0.1300    2.1749 C   0  0  2  0  0  0  0  0  0  0  0  0
  1  4  1  0
  1  7  1  0
  1  8  2  0
  1  9  2  0
 10  2  1  6
  2 14  1  0
  3 12  1  0
  3 15  1  0
 10 11  1  0
 10 13  1  0
 11  5  1  6
 11 12  1  0
 12 14  1  6
 13 15  1  0
 13  4  1  1
 15  6  1  1
M  END
>  <DRUGBANK_ID>  (1) 
DB01981

>  <SECONDARY_ACCESSION_NUMBERS>  (1) 
EXPT01183

>  <COMMON_NAME>  (1) 
3,6-Anhydro-2-(hydrogen sulfate)-alpha-D-galactopyranose

>  <CAS_NUMBER>  (1) 
96519-18-5

>  <UNII>  (1) 
1EE1TT025N

$$$$
