
     RDKit          3D

 23 25  0  0  0  0  0  0  0  0999 V2000
   -1.9381   -1.0116   -0.1239 C   0  0  0  0  0  0  0  0  0  0  0  0
   -3.0267   -0.1500   -0.0490 C   0  0  0  0  0  0  0  0  0  0  0  0
   -2.8152    1.2263    0.0354 C   0  0  0  0  0  0  0  0  0  0  0  0
   -1.5175    1.7396    0.0641 C   0  0  0  0  0  0  0  0  0  0  0  0
   -0.6361   -0.4994   -0.1379 C   0  0  0  0  0  0  0  0  0  0  0  0
   -0.4416    0.8643   -0.0112 C   0  0  0  0  0  0  0  0  0  0  0  0
    1.7616   -0.8958   -0.0057 C   0  0  0  0  0  0  0  0  0  0  0  0
    3.0091   -2.5640    1.4791 C   0  0  0  0  0  0  0  0  0  0  0  0
    1.8801   -4.9582    1.6591 C   0  0  0  0  0  0  0  0  0  0  0  0
    2.9934   -1.7849    0.1178 C   0  0  1  0  0  0  0  0  0  0  0  0
    3.2015   -2.6512   -1.1276 C   0  0  0  0  0  0  0  0  0  0  0  0
    3.4317   -4.2976   -3.4037 C   0  0  0  0  0  0  0  0  0  0  0  0
    3.3397   -2.9120   -3.5380 C   0  0  0  0  0  0  0  0  0  0  0  0
    3.2228   -2.0895   -2.4112 C   0  0  0  0  0  0  0  0  0  0  0  0
    3.3520   -4.0372   -1.0358 C   0  0  0  0  0  0  0  0  0  0  0  0
    3.4478   -4.8621   -2.1441 C   0  0  0  0  0  0  0  0  0  0  0  0
    0.5205   -1.3638   -0.2381 C   0  0  0  0  0  0  0  0  0  0  0  0
    0.2030   -2.6705   -0.5312 O   0  0  0  0  0  0  0  0  0  0  0  0
    0.8526    1.4017    0.0429 O   0  0  0  0  0  0  0  0  0  0  0  0
    1.9707    0.5792    0.0515 C   0  0  0  0  0  0  0  0  0  0  0  0
    3.1049    1.0721    0.0518 O   0  0  0  0  0  0  0  0  0  0  0  0
    1.8053   -3.4547    1.8346 C   0  0  0  0  0  0  0  0  0  0  0  0
    0.7472   -2.9578    2.2226 O   0  0  0  0  0  0  0  0  0  0  0  0
  1  2  2  0
  1  5  1  0
  2  3  1  0
  3  4  2  0
  4  6  1  0
  6  5  2  0
  6 19  1  0
  7 10  1  0
  8 22  1  0
 10  8  1  1
 10 11  1  0
 11 15  1  0
 12 13  2  0
 12 16  1  0
 13 14  1  0
 14 11  2  0
 15 16  2  0
 17  5  1  0
 17  7  2  0
 17 18  1  0
 19 20  1  0
 20  7  1  0
 20 21  2  0
 22  9  1  0
 22 23  2  0
M  END
>  <DRUGBANK_ID>  (1) 
DB14055

>  <SECONDARY_ACCESSION_NUMBERS>  (1) 
EXPT02984; DB02507

>  <COMMON_NAME>  (1) 
(S)-Warfarin

>  <CAS_NUMBER>  (1) 
5543-57-7

>  <UNII>  (1) 
HP31W7FNP4

>  <SYNONYMS>  (1) 
(-)-Warfarin; (S)-4-Hydroxy-3-(3-oxo-1-phenylbutyl)-2-benzopyrone; 4-hydroxy-3-[(1S)-3-oxo-1-phenylbutyl]-2H-chromen-2-one; Levrowarfarin; S-Warfarin

$$$$
