
     RDKit          3D

 12 12  0  0  1  0  0  0  0  0999 V2000
    0.6154    0.3777    2.4262 O   0  0  0  0  0  0  0  0  0  0  0  0
    0.5860    0.9230    1.1034 C   0  0  1  0  0  0  0  0  0  0  0  0
   -0.8749    1.0999    0.6338 C   0  0  2  0  0  0  0  0  0  0  0  0
   -1.5369   -0.1712    0.5811 O   0  0  0  0  0  0  0  0  0  0  0  0
   -0.9641    1.8041   -0.7376 C   0  0  1  0  0  0  0  0  0  0  0  0
   -2.3371    2.0934   -1.0304 O   0  0  0  0  0  0  0  0  0  0  0  0
   -0.1363    3.1011   -0.7805 C   0  0  2  0  0  0  0  0  0  0  0  0
   -0.1997    3.6533   -2.0997 O   0  0  0  0  0  0  0  0  0  0  0  0
    1.3188    2.8572   -0.3640 C   0  0  2  0  0  0  0  0  0  0  0  0
    1.9720    2.0270   -1.3356 O   0  0  0  0  0  0  0  0  0  0  0  0
    1.3708    2.2482    1.0449 C   0  0  1  0  0  0  0  0  0  0  0  0
    0.8844    3.1695    2.0298 O   0  0  0  0  0  0  0  0  0  0  0  0
  2  3  1  0
  2 11  1  0
  2  1  1  1
  3  4  1  6
  3  5  1  0
  5  7  1  0
  5  6  1  1
  7  8  1  6
  9  7  1  0
  9 10  1  6
 11  9  1  0
 11 12  1  1
M  END
>  <DRUGBANK_ID>  (1) 
DB15350

>  <COMMON_NAME>  (1) 
D-chiro-Inositol

>  <CAS_NUMBER>  (1) 
643-12-9

>  <UNII>  (1) 
6R79WV4R10

>  <SYNONYMS>  (1) 
D-Inositol

$$$$
