MXA
     RDKit          3D

 24 26  0  0  0  0  0  0  0  0999 V2000
    1.3340   -1.2534    0.0168 N   0  0  0  0  0  0  0  0  0  0  0  0
    2.4835   -0.5985    0.0573 C   0  0  0  0  0  0  0  0  0  0  0  0
    3.6217   -1.3343    0.0621 N   0  0  0  0  0  0  0  0  0  0  0  0
    2.5889    0.7281    0.0645 N   0  0  0  0  0  0  0  0  0  0  0  0
    1.4672    1.4511    0.0222 C   0  0  0  0  0  0  0  0  0  0  0  0
    1.6821    2.8110   -0.1600 N   0  0  0  0  0  0  0  0  0  0  0  0
    0.1936    0.8737   -0.0288 C   0  0  0  0  0  0  0  0  0  0  0  0
   -1.0697    1.5380   -0.0915 C   0  0  0  0  0  0  0  0  0  0  0  0
   -1.3320    3.0161   -0.0146 C   0  0  0  0  0  0  0  0  0  0  0  0
   -2.2113    0.7602   -0.2662 C   0  0  0  0  0  0  0  0  0  0  0  0
   -1.9863   -0.6096   -0.4662 C   0  0  0  0  0  0  0  0  0  0  0  0
   -0.8306   -1.2533   -0.2811 N   0  0  0  0  0  0  0  0  0  0  0  0
    0.2519   -0.5307   -0.0663 C   0  0  0  0  0  0  0  0  0  0  0  0
   -3.5798    1.4262   -0.1226 C   0  0  0  0  0  0  0  0  0  0  0  0
   -4.5409    1.0599   -1.1815 C   0  0  0  0  0  0  0  0  0  0  0  0
   -5.0612   -0.2225   -1.2637 C   0  0  0  0  0  0  0  0  0  0  0  0
   -4.8987   -1.2385   -0.3541 O   0  0  0  0  0  0  0  0  0  0  0  0
   -4.5091   -1.0383    1.0219 C   0  0  0  0  0  0  0  0  0  0  0  0
   -5.7648   -0.5218   -2.4282 C   0  0  0  0  0  0  0  0  0  0  0  0
   -6.1917    0.4992   -3.3054 C   0  0  0  0  0  0  0  0  0  0  0  0
   -5.7157    1.8017   -3.1811 C   0  0  0  0  0  0  0  0  0  0  0  0
   -6.1253    2.7229   -4.1056 O   0  0  0  0  0  0  0  0  0  0  0  0
   -5.4940    4.0058   -4.0510 C   0  0  0  0  0  0  0  0  0  0  0  0
   -4.8393    2.0557   -2.1456 C   0  0  0  0  0  0  0  0  0  0  0  0
  1  2  2  0
  1 13  1  0
  2  3  1  0
  2  4  1  0
  4  5  2  0
  5  6  1  0
  5  7  1  0
  7  8  1  0
  7 13  2  0
  8  9  1  0
  8 10  2  0
 10 11  1  0
 10 14  1  0
 11 12  2  0
 12 13  1  0
 14 15  1  0
 15 16  2  0
 15 24  1  0
 16 17  1  0
 16 19  1  0
 17 18  1  0
 19 20  2  0
 20 21  1  0
 21 22  1  0
 21 24  2  0
 22 23  1  0
M  END
>  <DRUGBANK_ID>  (1) 
DB03695

>  <SECONDARY_ACCESSION_NUMBERS>  (1) 
EXPT02259; DB12918

>  <COMMON_NAME>  (1) 
Piritrexim

>  <CAS_NUMBER>  (1) 
72732-56-0

>  <UNII>  (1) 
MK2A783ZUT

>  <SYNONYMS>  (1) 
Piritrexim

$$$$
