
     RDKit          3D

 13 14  0  0  0  0  0  0  0  0999 V2000
    1.1886    0.0454    0.0120 C   0  0  0  0  0  0  0  0  0  0  0  0
    0.4503    1.3975   -0.1593 C   0  0  0  0  0  0  0  0  0  0  0  0
    0.2942    1.9612   -1.5965 C   0  0  1  0  0  0  0  0  0  0  0  0
   -0.3885    0.8054   -2.3499 C   0  0  0  0  0  0  0  0  0  0  0  0
   -1.3043    0.1871   -1.2601 C   0  0  0  0  0  0  0  0  0  0  0  0
   -1.0954    1.1405   -0.0266 C   0  0  2  0  0  0  0  0  0  0  0  0
   -1.7840    2.4936   -0.2964 C   0  0  0  0  0  0  0  0  0  0  0  0
   -3.5908    2.3451   -1.0002 Br  0  0  0  0  0  0  0  0  0  0  0  0
   -1.8103    3.6495    1.2597 Br  0  0  0  0  0  0  0  0  0  0  0  0
   -0.8365    3.0076   -1.3654 C   0  0  0  0  0  0  0  0  0  0  0  0
   -0.9446    4.0592   -1.9899 O   0  0  0  0  0  0  0  0  0  0  0  0
    1.5537    2.5167   -2.2341 C   0  0  0  0  0  0  0  0  0  0  0  0
    1.1814    2.4126    0.7396 C   0  0  0  0  0  0  0  0  0  0  0  0
  1  2  1  0
  2 13  1  0
  3  2  1  0
  3  4  1  0
  3 10  1  0
  3 12  1  6
  5  4  1  0
  6  5  1  6
  6  2  1  0
  6  7  1  0
  7  8  1  0
  7  9  1  0
  7 10  1  0
 10 11  2  0
M  END
>  <DRUGBANK_ID>  (1) 
DB15659

>  <COMMON_NAME>  (1) 
alpha,alpha-Dibromo-D-camphor

>  <CAS_NUMBER>  (1) 
514-12-5

>  <UNII>  (1) 
F89Z8SAG3O

>  <SYNONYMS>  (1) 
(+)-3,3-Dibromocamphor; 3,3-dibromocamphor; alpha,alpha-Dibromocamphor

$$$$
