PUZ
     RDKit          3D

 27 29  0  0  0  0  0  0  0  0999 V2000
    0.9673   -0.0894    0.0307 C   0  0  0  0  0  0  0  0  0  0  0  0
   -0.3366   -0.0894    0.0307 C   0  0  0  0  0  0  0  0  0  0  0  0
   -1.8566   -0.0894    0.0307 C   0  0  0  0  0  0  0  0  0  0  0  0
   -2.3251   -1.4887   -0.1809 C   0  0  0  0  0  0  0  0  0  0  0  0
   -1.7213   -2.3008    0.9348 C   0  0  0  0  0  0  0  0  0  0  0  0
   -1.9438   -1.7579    2.2638 N   0  0  0  0  0  0  0  0  0  0  0  0
   -1.7180   -0.4855    2.7828 C   0  0  0  0  0  0  0  0  0  0  0  0
   -1.0091    0.5336    2.2536 N   0  0  0  0  0  0  0  0  0  0  0  0
   -2.4647   -0.3562    3.9019 C   0  0  0  0  0  0  0  0  0  0  0  0
   -2.6135    0.9855    4.3814 C   0  0  0  0  0  0  0  0  0  0  0  0
   -3.1556    1.4182    5.5762 N   0  0  0  0  0  0  0  0  0  0  0  0
   -2.2262    2.0204    3.5887 N   0  0  0  0  0  0  0  0  0  0  0  0
   -1.4522    1.7389    2.5621 C   0  0  0  0  0  0  0  0  0  0  0  0
   -1.2616    2.7011    1.6303 F   0  0  0  0  0  0  0  0  0  0  0  0
   -2.8246   -1.6422    4.2772 N   0  0  0  0  0  0  0  0  0  0  0  0
   -2.5330   -2.4775    3.2616 C   0  0  0  0  0  0  0  0  0  0  0  0
   -2.8265   -3.9892    3.0797 C   0  0  0  0  0  0  0  0  0  0  0  0
   -2.1538   -4.8277    4.1163 C   0  0  0  0  0  0  0  0  0  0  0  0
   -2.4501   -4.6309    5.4603 C   0  0  0  0  0  0  0  0  0  0  0  0
   -3.4452   -3.8500    5.9877 O   0  0  0  0  0  0  0  0  0  0  0  0
   -4.6317   -3.5048    5.2620 C   0  0  0  0  0  0  0  0  0  0  0  0
   -1.5830   -5.2057    6.3929 C   0  0  0  0  0  0  0  0  0  0  0  0
   -0.5153   -6.0391    6.0120 C   0  0  0  0  0  0  0  0  0  0  0  0
   -0.2945   -6.3388    4.6742 C   0  0  0  0  0  0  0  0  0  0  0  0
   -1.1195   -5.7310    3.7270 C   0  0  0  0  0  0  0  0  0  0  0  0
    0.6932   -7.1556    4.1885 O   0  0  0  0  0  0  0  0  0  0  0  0
    1.5711   -7.7347    5.1548 C   0  0  0  0  0  0  0  0  0  0  0  0
  1  2  3  0
  2  3  1  0
  3  4  1  0
  4  5  1  0
  5  6  1  0
  6  7  1  0
  6 16  1  0
  7  8  2  0
  7  9  1  0
  8 13  1  0
  9 10  2  0
  9 15  1  0
 10 11  1  0
 10 12  1  0
 12 13  2  0
 13 14  1  0
 15 16  2  0
 16 17  1  0
 17 18  1  0
 18 19  2  0
 18 25  1  0
 19 20  1  0
 19 22  1  0
 20 21  1  0
 22 23  2  0
 23 24  1  0
 24 25  2  0
 24 26  1  0
 26 27  1  0
M  END
>  <DRUGBANK_ID>  (1) 
DB03137

>  <SECONDARY_ACCESSION_NUMBERS>  (1) 
EXPT02704

>  <COMMON_NAME>  (1) 
8-(2,5-Dimethoxy-Benzyl)-2-Fluoro-9-Pent-9h-Purin-6-Ylamine

$$$$
