1246
     RDKit          3D

 21 23  0  0  1  0  0  0  0  0999 V2000
    0.0414    1.7790    0.4179 S   0  0  0  0  0  0  0  0  0  0  0  0
    0.0258   -1.2645    0.6506 N   0  0  0  0  0  0  0  0  0  0  0  0
   -3.0693   -2.6395    2.6779 N   0  0  0  0  0  0  0  0  0  0  0  0
   -0.7538   -1.6107    3.1681 C   0  0  0  0  0  0  0  0  0  0  0  0
    0.1017   -2.0508    1.9432 C   0  0  0  0  0  0  0  0  0  0  0  0
   -2.2621   -1.4156    2.9345 C   0  0  0  0  0  0  0  0  0  0  0  0
   -0.6183   -2.5932    4.3569 C   0  0  0  0  0  0  0  0  0  0  0  0
    1.2825   -0.7143    0.3082 C   0  0  0  0  0  0  0  0  0  0  0  0
   -1.1288   -0.7134    0.0613 C   0  0  0  0  0  0  0  0  0  0  0  0
    1.4072    0.6693    0.0700 C   0  0  0  0  0  0  0  0  0  0  0  0
   -1.3073    0.6860   -0.0169 C   0  0  0  0  0  0  0  0  0  0  0  0
    2.3656   -1.5686    0.0565 C   0  0  0  0  0  0  0  0  0  0  0  0
   -2.1091   -1.4789   -0.5888 C   0  0  0  0  0  0  0  0  0  0  0  0
   -4.3942   -2.2285    2.2169 C   0  0  0  0  0  0  0  0  0  0  0  0
   -2.4720   -3.5329    1.6973 C   0  0  0  0  0  0  0  0  0  0  0  0
    2.5908    1.1666   -0.4577 C   0  0  0  0  0  0  0  0  0  0  0  0
   -2.5170    1.2295   -0.4704 C   0  0  0  0  0  0  0  0  0  0  0  0
    3.5423   -1.0652   -0.4735 C   0  0  0  0  0  0  0  0  0  0  0  0
   -3.3637   -0.9644   -0.9121 C   0  0  0  0  0  0  0  0  0  0  0  0
    3.6497    0.3014   -0.7438 C   0  0  0  0  0  0  0  0  0  0  0  0
   -3.5793    0.4088   -0.8352 C   0  0  0  0  0  0  0  0  0  0  0  0
  1 10  1  0
  1 11  1  0
  2  5  1  0
  2  8  1  0
  2  9  1  0
  3  6  1  0
  3 14  1  0
  3 15  1  0
  4  5  1  0
  4  6  1  0
  4  7  1  0
  8 10  2  0
  8 12  1  0
  9 11  2  0
  9 13  1  0
 10 16  1  0
 11 17  1  0
 12 18  2  0
 13 19  2  0
 16 20  2  0
 17 21  2  0
 18 20  1  0
 19 21  1  0
M  END
>  <DRUGBANK_ID>  (1) 
DB01246

>  <SECONDARY_ACCESSION_NUMBERS>  (1) 
APRD00258

>  <COMMON_NAME>  (1) 
Alimemazine

>  <CAS_NUMBER>  (1) 
84-96-8

>  <UNII>  (1) 
76H78MJJ52

>  <SYNONYMS>  (1) 
Alimemazina; Alimemazine; Alimemazinum; Methylpromazine; Trimeprazine

$$$$
