
     RDKit          3D

 15 14  0  0  0  0  0  0  0  0999 V2000
    1.1703   -0.4295    0.5280 O   0  0  0  0  0  0  0  0  0  0  0  0
    2.7903   -0.8277   -0.9777 O   0  0  0  0  0  0  0  0  0  0  0  0
    0.9792    3.8731    1.0078 O   0  0  0  0  0  0  0  0  0  0  0  0
    0.3833    2.5684   -1.9792 N   0  0  0  0  0  0  0  0  0  0  0  0
    1.9330    0.2769    3.2232 C   0  0  0  0  0  0  0  0  0  0  0  0
    2.3157    1.7644    3.0438 C   0  0  0  0  0  0  0  0  0  0  0  0
    0.4740   -0.0117    2.8943 C   0  0  0  0  0  0  0  0  0  0  0  0
    1.6169    2.8479    3.8095 C   0  0  0  0  0  0  0  0  0  0  0  0
    0.2382    0.2570    1.4378 C   0  0  0  0  0  0  0  0  0  0  0  0
    1.9890    2.5797    5.2249 C   0  0  0  0  0  0  0  0  0  0  0  0
    3.2081    1.0430    0.3945 C   0  0  0  0  0  0  0  0  0  0  0  0
    2.7870    2.5042    0.1203 C   0  0  0  0  0  0  0  0  0  0  0  0
    2.3426   -0.0943   -0.0684 C   0  0  0  0  0  0  0  0  0  0  0  0
    1.3097    2.9660    0.2302 C   0  0  0  0  0  0  0  0  0  0  0  0
    0.2253    2.2826   -0.5864 C   0  0  0  0  0  0  0  0  0  0  0  0
  1  9  1  0
  1 13  1  0
  2 13  2  0
  3 14  2  0
  4 15  1  0
  5  6  1  0
  5  7  1  0
  6  8  1  0
  7  9  1  0
  8 10  1  0
 11 12  1  0
 11 13  1  0
 12 14  1  0
 14 15  1  0
M  END
>  <DRUGBANK_ID>  (1) 
DB06261

>  <COMMON_NAME>  (1) 
Hexaminolevulinate

>  <CAS_NUMBER>  (1) 
140898-97-1

>  <UNII>  (1) 
G7H20TKI67

>  <SYNONYMS>  (1) 
4-Hexyloxycarbonyl-2-oxobutylammoniumchloride; Hexaminolevulinato; Hexyl 5-amino-4-oxopentanoate hydrochloride; Hexyl(5-amino-4-oxopentanoat)-hydrochlorid; Pentanoic acid, 5-amino-4-oxo-, hexyl ester, hydrochloride

$$$$
