
     RDKit          3D

 32 35  0  0  1  0  0  0  0  0999 V2000
   -6.9041   -0.6796   -6.3195 C   0  0  0  0  0  0  0  0  0  0  0  0
   -7.8070   -1.2677   -5.4359 C   0  0  0  0  0  0  0  0  0  0  0  0
   -5.3079    2.7600   -1.1850 C   0  0  2  0  0  0  0  0  0  0  0  0
   -5.6254    1.0755   -1.4013 C   0  0  2  0  0  0  0  0  0  0  0  0
   -5.1792    2.1611   -3.0633 C   0  0  0  0  0  0  0  0  0  0  0  0
   -6.4645    0.0599   -2.2146 C   0  0  0  0  0  0  0  0  0  0  0  0
   -6.3095    1.2357   -4.2991 C   0  0  2  0  0  0  0  0  0  0  0  0
   -6.8558    0.1458   -3.4872 C   0  0  0  0  0  0  0  0  0  0  0  0
   -7.8601   -0.8208   -4.0206 C   0  0  0  0  0  0  0  0  0  0  0  0
   -5.8403    0.3530   -5.7739 C   0  0  2  0  0  0  0  0  0  0  0  0
   -5.3750    3.1548    0.9645 C   0  0  1  0  0  0  0  0  0  0  0  0
   -6.7698    1.2396   -0.4999 C   0  0  0  0  0  0  0  0  0  0  0  0
   -4.3695    0.4322   -1.4293 O   0  0  0  0  0  0  0  0  0  0  0  0
   -6.6400    2.4743    1.1882 C   0  0  0  0  0  0  0  0  0  0  0  0
   -4.8416    2.9730    2.7606 N   0  0  0  0  0  0  0  0  0  0  0  0
   -6.9620   -0.9785   -1.4304 O   0  0  0  0  0  0  0  0  0  0  0  0
   -6.2149    1.2559    0.8380 C   0  0  0  0  0  0  0  0  0  0  0  0
   -7.8960    1.5732   -0.8770 O   0  0  0  0  0  0  0  0  0  0  0  0
   -7.8042    3.2466    0.9822 O   0  0  0  0  0  0  0  0  0  0  0  0
   -4.7530    4.1020    3.8901 C   0  0  0  0  0  0  0  0  0  0  0  0
   -4.4817    1.7775    3.7353 C   0  0  0  0  0  0  0  0  0  0  0  0
   -4.5414    0.9710    1.0528 C   0  0  0  0  0  0  0  0  0  0  0  0
   -8.8019   -1.1141   -3.2876 O   0  0  0  0  0  0  0  0  0  0  0  0
   -3.4469    1.5833    0.3778 N   0  0  0  0  0  0  0  0  0  0  0  0
   -4.2324    0.1261    1.8848 O   0  0  0  0  0  0  0  0  0  0  0  0
   -7.1353   -0.9714   -7.7249 C   0  0  0  0  0  0  0  0  0  0  0  0
   -8.7668   -2.1849   -5.9361 C   0  0  0  0  0  0  0  0  0  0  0  0
   -8.1657   -1.8027   -8.2073 C   0  0  0  0  0  0  0  0  0  0  0  0
   -8.9698   -2.4391   -7.2958 C   0  0  0  0  0  0  0  0  0  0  0  0
   -9.5048   -2.9711   -5.1000 O   0  0  0  0  0  0  0  0  0  0  0  0
   -5.4820    1.1136   -6.9442 O   0  0  0  0  0  0  0  0  0  0  0  0
   -4.4984   -0.1341   -5.2788 C   0  0  0  0  0  0  0  0  0  0  0  0
  1 26  1  0
  1  2  2  0
  2 27  1  0
  3 11  1  0
  3  4  1  0
  3  5  1  1
  4 12  1  0
  4  6  1  0
  4 13  1  1
  7  5  1  1
  6  8  2  0
  6 16  1  0
  7  8  1  0
  7 10  1  0
  8  9  1  0
  9  2  1  0
  9 23  2  0
 10  1  1  0
 10 31  1  0
 10 32  1  1
 11 14  1  0
 11 15  1  1
 12 17  1  0
 12 18  2  0
 14 17  2  0
 14 19  1  0
 15 20  1  0
 15 21  1  0
 17 22  1  0
 22 24  1  0
 22 25  2  0
 26 28  2  0
 27 29  2  0
 27 30  1  0
 28 29  1  0
M  END
>  <DRUGBANK_ID>  (1) 
DB00759

>  <SECONDARY_ACCESSION_NUMBERS>  (1) 
APRD00572

>  <COMMON_NAME>  (1) 
Tetracycline

>  <CAS_NUMBER>  (1) 
60-54-8

>  <UNII>  (1) 
F8VB5M810T

>  <SYNONYMS>  (1) 
(4S,4aS,5aS,12aS)-4-(Dimethylamino)-1,4,4a,5,5a,6,11,12a-octahydro-3,6,10,12,12a-pentahydroxy-6-methyl-1,11-dioxo-2-naphthacenecarboxamide; Abramycin; Anhydrotetracycline; Deschlorobiomycin; Tetracyclin; TÃ©tracycline; Tetracycline; Tetracyclinum; Tetrazyklin; Tsiklomitsin

$$$$
