185
     RDKit          3D

 29 31  0  0  0  0  0  0  0  0999 V2000
    1.9031    0.0551   -0.0617 C   0  0  0  0  0  0  0  0  0  0  0  0
    3.3035   -0.0385   -0.0982 O   0  0  0  0  0  0  0  0  0  0  0  0
    1.1422    1.2537   -0.0872 C   0  0  0  0  0  0  0  0  0  0  0  0
    1.6884    2.6450   -0.1797 C   0  0  0  0  0  0  0  0  0  0  0  0
   -0.2639    1.2072   -0.0037 C   0  0  0  0  0  0  0  0  0  0  0  0
   -0.9526    0.0054    0.0281 C   0  0  0  0  0  0  0  0  0  0  0  0
   -0.2316   -1.1813    0.0253 C   0  0  0  0  0  0  0  0  0  0  0  0
    1.1859   -1.1786   -0.0106 C   0  0  0  0  0  0  0  0  0  0  0  0
    1.8227   -2.5468   -0.0242 C   0  0  0  0  0  0  0  0  0  0  0  0
    4.1190    1.0924    0.0244 C   0  0  0  0  0  0  0  0  0  0  0  0
    4.8566    1.4096   -1.0830 N   0  0  0  0  0  0  0  0  0  0  0  0
    5.5094    2.5873   -1.0668 C   0  0  0  0  0  0  0  0  0  0  0  0
    6.3645    2.9464   -2.1141 N   0  0  0  0  0  0  0  0  0  0  0  0
    5.3413    3.4811   -0.0832 N   0  0  0  0  0  0  0  0  0  0  0  0
    4.6522    3.1381    1.0254 C   0  0  0  0  0  0  0  0  0  0  0  0
    4.4030    4.2819    1.9855 C   0  0  0  0  0  0  0  0  0  0  0  0
    4.1247    1.8638    1.1843 C   0  0  0  0  0  0  0  0  0  0  0  0
    7.1731    4.0974   -2.1823 C   0  0  0  0  0  0  0  0  0  0  0  0
    8.0456    4.4441   -1.1380 C   0  0  0  0  0  0  0  0  0  0  0  0
    8.8065    5.6202   -1.1795 C   0  0  0  0  0  0  0  0  0  0  0  0
    8.7139    6.4746   -2.2781 C   0  0  0  0  0  0  0  0  0  0  0  0
    7.8293    6.1605   -3.3142 C   0  0  0  0  0  0  0  0  0  0  0  0
    7.0762    4.9743   -3.2708 C   0  0  0  0  0  0  0  0  0  0  0  0
    9.5543    7.6364   -2.3567 C   0  0  0  0  0  0  0  0  0  0  0  0
   10.2641    8.5506   -2.4296 N   0  0  0  0  0  0  0  0  0  0  0  0
   -2.3890    0.0054    0.0154 C   0  0  0  0  0  0  0  0  0  0  0  0
   -3.5425    0.0218   -0.0166 N   0  0  0  0  0  0  0  0  0  0  0  0
    5.5936    4.6409    2.6714 O   0  0  0  0  0  0  0  0  0  0  0  0
    3.2382    1.3254    2.7826 Br  0  0  0  0  0  0  0  0  0  0  0  0
  1  2  1  0
  1  3  2  0
  1  8  1  0
  2 10  1  0
  3  4  1  0
  3  5  1  0
  5  6  2  0
  6  7  1  0
  6 26  1  0
  7  8  2  0
  8  9  1  0
 10 11  2  0
 10 17  1  0
 11 12  1  0
 12 13  1  0
 12 14  2  0
 13 18  1  0
 14 15  1  0
 15 16  1  0
 15 17  2  0
 16 28  1  0
 17 29  1  0
 18 19  2  0
 18 23  1  0
 19 20  1  0
 20 21  2  0
 21 22  1  0
 21 24  1  0
 22 23  2  0
 24 25  3  0
 26 27  3  0
M  END
>  <DRUGBANK_ID>  (1) 
DB06874

>  <COMMON_NAME>  (1) 
(6-[4-(AMINOMETHYL)-2,6-DIMETHYLPHENOXY]-2-{[4-(AMINOMETHYL)PHENYL]AMINO}-5-BROMOPYRIMIDIN-4-YL)METHANOL

$$$$
