
     RDKit          3D

 21 23  0  0  0  0  0  0  0  0999 V2000
   -2.9878    4.1269    4.7338 Cl  0  0  0  0  0  0  0  0  0  0  0  0
   -4.3664    6.9151    5.7013 Cl  0  0  0  0  0  0  0  0  0  0  0  0
   -9.3355    4.6131    1.8472 O   0  0  0  0  0  0  0  0  0  0  0  0
   -4.8057    2.3973   -1.5327 N   0  0  0  0  0  0  0  0  0  0  0  0
   -7.9512    4.5010    1.6719 N   0  0  0  0  0  0  0  0  0  0  0  0
   -6.1758    2.6156   -1.0408 C   0  0  1  0  0  0  0  0  0  0  0  0
   -4.3446    3.7352   -1.9140 C   0  0  2  0  0  0  0  0  0  0  0  0
   -6.2298    3.4112    0.2858 C   0  0  1  0  0  0  0  0  0  0  0  0
   -5.4353    4.7405    0.1740 C   0  0  2  0  0  0  0  0  0  0  0  0
   -4.1613    4.6401   -0.6902 C   0  0  0  0  0  0  0  0  0  0  0  0
   -6.7289    3.4290   -2.2228 C   0  0  0  0  0  0  0  0  0  0  0  0
   -5.5204    4.1904   -2.7806 C   0  0  0  0  0  0  0  0  0  0  0  0
   -5.0818    5.2951    1.5402 C   0  0  0  0  0  0  0  0  0  0  0  0
   -3.9039    1.6548   -0.6702 C   0  0  0  0  0  0  0  0  0  0  0  0
   -7.6785    3.6834    0.7008 C   0  0  0  0  0  0  0  0  0  0  0  0
   -4.2705    4.5752    2.4310 C   0  0  0  0  0  0  0  0  0  0  0  0
   -5.6336    6.5139    1.9477 C   0  0  0  0  0  0  0  0  0  0  0  0
   -4.0199    5.0625    3.7126 C   0  0  0  0  0  0  0  0  0  0  0  0
   -5.4053    6.9899    3.2351 C   0  0  0  0  0  0  0  0  0  0  0  0
   -4.5996    6.2671    4.1190 C   0  0  0  0  0  0  0  0  0  0  0  0
   -9.5765    5.5473    2.9011 C   0  0  0  0  0  0  0  0  0  0  0  0
  1 18  1  0
  2 20  1  0
  3  5  1  0
  3 21  1  0
  4  6  1  0
  4  7  1  0
  4 14  1  0
  5 15  2  0
  6  8  1  0
  6 11  1  6
  7 10  1  1
  7 12  1  0
  8  9  1  0
  8 15  1  6
  9 10  1  0
  9 13  1  1
 11 12  1  0
 13 16  2  0
 13 17  1  0
 16 18  1  0
 17 19  2  0
 18 20  2  0
 19 20  1  0
M  END
>  <DRUGBANK_ID>  (1) 
DB04857

>  <COMMON_NAME>  (1) 
Brasofensine

>  <CAS_NUMBER>  (1) 
171655-91-7

>  <UNII>  (1) 
1YP2S94RVH

>  <SYNONYMS>  (1) 
Brasofensine

$$$$
