
     RDKit          3D

 26 29  0  0  0  0  0  0  0  0999 V2000
    0.9889    0.0039   -0.1451 C   0  0  0  0  0  0  0  0  0  0  0  0
    0.4263    0.2795   -1.5120 C   0  0  0  0  0  0  0  0  0  0  0  0
   -0.2164   -0.5670   -2.1227 O   0  0  0  0  0  0  0  0  0  0  0  0
    0.7773    1.5200   -1.9403 O   0  0  0  0  0  0  0  0  0  0  0  0
    0.3943    1.8670   -3.1710 C   0  0  0  0  0  0  0  0  0  0  0  0
    1.1941    2.4458   -4.1413 C   0  0  0  0  0  0  0  0  0  0  0  0
    0.5102    2.6875   -5.3714 C   0  0  0  0  0  0  0  0  0  0  0  0
   -0.8148    2.3188   -5.2772 C   0  0  0  0  0  0  0  0  0  0  0  0
   -1.7815    2.4255   -6.4082 C   0  0  0  0  0  0  0  0  0  0  0  0
   -1.1812    3.3784   -7.4492 C   0  0  0  0  0  0  0  0  0  0  0  0
    0.2376    3.1314   -7.7723 N   0  0  0  0  0  0  0  0  0  0  0  0
    1.1156    3.3008   -6.5990 C   0  0  0  0  0  0  0  0  0  0  0  0
    0.7547    3.9194   -8.9434 C   0  0  0  0  0  0  0  0  0  0  0  0
    0.6582    5.4698   -8.6819 C   0  0  0  0  0  0  0  0  0  0  0  0
    1.5856    6.2684   -8.5919 O   0  0  0  0  0  0  0  0  0  0  0  0
   -0.6671    6.0656   -8.4095 C   0  0  0  0  0  0  0  0  0  0  0  0
   -1.8614    5.7895   -9.2796 C   0  0  0  0  0  0  0  0  0  0  0  0
   -1.2143    7.1426   -9.2988 C   0  0  0  0  0  0  0  0  0  0  0  0
    2.1562    3.4243   -9.3578 C   0  0  0  0  0  0  0  0  0  0  0  0
    3.2957    4.2476   -9.3417 C   0  0  0  0  0  0  0  0  0  0  0  0
    4.5703    3.7752   -9.6318 C   0  0  0  0  0  0  0  0  0  0  0  0
    4.7498    2.4432   -9.9549 C   0  0  0  0  0  0  0  0  0  0  0  0
    3.6458    1.5935   -9.9959 C   0  0  0  0  0  0  0  0  0  0  0  0
    2.3665    2.0819   -9.7080 C   0  0  0  0  0  0  0  0  0  0  0  0
    1.3398    1.2192   -9.7496 F   0  0  0  0  0  0  0  0  0  0  0  0
   -1.2393    1.7823   -3.7289 S   0  0  0  0  0  0  0  0  0  0  0  0
  1  2  1  0
  2  3  2  0
  2  4  1  0
  4  5  1  0
  5  6  2  0
  5 26  1  0
  6  7  1  0
  7  8  2  0
  7 12  1  0
  8  9  1  0
  8 26  1  0
  9 10  1  0
 10 11  1  0
 11 12  1  0
 11 13  1  0
 13 14  1  0
 13 19  1  0
 14 15  2  0
 14 16  1  0
 16 17  1  0
 16 18  1  0
 17 18  1  0
 19 20  2  0
 19 24  1  0
 20 21  1  0
 21 22  2  0
 22 23  1  0
 23 24  2  0
 24 25  1  0
M  END
>  <DRUGBANK_ID>  (1) 
DB06209

>  <COMMON_NAME>  (1) 
Prasugrel

>  <CAS_NUMBER>  (1) 
150322-43-3

>  <UNII>  (1) 
34K66TBT99

>  <SYNONYMS>  (1) 
Prasugrel

$$$$
