D93
     RDKit          3D

 32 36  0  0  0  0  0  0  0  0999 V2000
    5.4344  -10.7588    2.2399 Cl  0  0  0  0  0  0  0  0  0  0  0  0
    4.6537   -9.9020    0.9663 C   0  0  0  0  0  0  0  0  0  0  0  0
    3.9092  -10.5499   -0.0173 C   0  0  0  0  0  0  0  0  0  0  0  0
    3.2482   -9.8472   -1.0626 C   0  0  0  0  0  0  0  0  0  0  0  0
    3.5433   -8.4915   -1.2026 C   0  0  0  0  0  0  0  0  0  0  0  0
    3.1101   -7.4600   -2.0444 N   0  0  0  0  0  0  0  0  0  0  0  0
    4.8863   -8.5538    0.8463 C   0  0  0  0  0  0  0  0  0  0  0  0
    4.4879   -7.9465   -0.3673 C   0  0  0  0  0  0  0  0  0  0  0  0
    4.8595   -6.7369   -0.9945 C   0  0  0  0  0  0  0  0  0  0  0  0
    3.7787   -6.2468   -1.7631 C   0  0  0  0  0  0  0  0  0  0  0  0
    3.1689   -4.8568   -2.1118 C   0  0  0  0  0  0  0  0  0  0  0  0
    2.3817   -4.7757   -3.0623 O   0  0  0  0  0  0  0  0  0  0  0  0
    3.2754   -3.6241   -1.3570 N   0  0  0  0  0  0  0  0  0  0  0  0
    3.8879   -3.2762   -0.0168 C   0  0  2  0  0  0  0  0  0  0  0  0
    4.5071   -4.5335    0.4277 C   0  0  0  0  0  0  0  0  0  0  0  0
    3.3185   -5.5281    0.7992 C   0  0  0  0  0  0  0  0  0  0  0  0
    2.4188   -5.1864    1.9215 C   0  0  0  0  0  0  0  0  0  0  0  0
    1.8965   -3.8210    1.5634 C   0  0  0  0  0  0  0  0  0  0  0  0
    3.0600   -2.8559    1.2504 C   0  0  1  0  0  0  0  0  0  0  0  0
    3.9823   -2.8199    2.4522 N   0  0  0  0  0  0  0  0  0  0  0  0
    4.1001   -1.7233    3.2973 C   0  0  0  0  0  0  0  0  0  0  0  0
    3.4756   -0.7163    3.0456 O   0  0  0  0  0  0  0  0  0  0  0  0
    5.0005   -1.8857    4.4679 C   0  0  0  0  0  0  0  0  0  0  0  0
    4.5864   -1.1456    5.9841 S   0  0  0  0  0  0  0  0  0  0  0  0
    6.0758   -1.6521    6.6471 C   0  0  0  0  0  0  0  0  0  0  0  0
    6.5676   -1.3926    8.0545 C   0  0  0  0  0  0  0  0  0  0  0  0
    8.0369   -1.6259    8.1868 N   0  0  0  0  0  0  0  0  0  0  0  0
    8.7983   -0.4780    7.6793 C   0  0  0  0  0  0  0  0  0  0  0  0
    8.4292   -2.8750    7.4839 C   0  0  0  0  0  0  0  0  0  0  0  0
    8.1722   -2.8313    5.9592 C   0  0  0  0  0  0  0  0  0  0  0  0
    6.7867   -2.3469    5.6863 C   0  0  0  0  0  0  0  0  0  0  0  0
    6.1583   -2.5264    4.4575 N   0  0  0  0  0  0  0  0  0  0  0  0
  1  2  1  0
  2  7  2  0
  2  3  1  0
  3  4  2  0
  4  5  1  0
  5  8  2  0
  5  6  1  0
  6 10  1  0
  7  8  1  0
  8  9  1  0
  9 10  2  0
 10 11  1  0
 11 12  2  0
 11 13  1  0
 14 19  1  0
 14 15  1  0
 14 13  1  6
 15 16  1  0
 16 17  1  0
 17 18  1  0
 18 19  1  0
 19 20  1  1
 20 21  1  0
 21 23  1  0
 21 22  2  0
 23 32  2  0
 23 24  1  0
 24 25  1  0
 25 26  1  0
 25 31  2  0
 26 27  1  0
 27 28  1  0
 27 29  1  0
 29 30  1  0
 30 31  1  0
 31 32  1  0
M  END
>  <DRUGBANK_ID>  (1) 
DB07630

>  <COMMON_NAME>  (1) 
N-((1R,2R)-2-(5-CHLORO-1H-INDOLE-2-CARBOXAMIDO)CYCLOHEXYL)-5-METHYL-4,5,6,7-TETRAHYDROTHIAZOLO[5,4-C]PYRIDINE-2-CARBOXAMIDE

$$$$
