
     RDKit          3D

 33 36  0  0  1  0  0  0  0  0999 V2000
    3.3342    1.0629    1.5045 C   0  0  0  0  0  0  0  0  0  0  0  0
    2.9947    0.7939    0.0509 C   0  0  2  0  0  0  0  0  0  0  0  0
    2.1197    1.8972   -0.5764 C   0  0  0  0  0  0  0  0  0  0  0  0
    0.7197    1.8860    0.0578 C   0  0  0  0  0  0  0  0  0  0  0  0
   -0.0015    0.5085   -0.0242 C   0  0  1  0  0  0  0  0  0  0  0  0
    0.9029   -0.6588    0.4672 C   0  0  2  0  0  0  0  0  0  0  0  0
    2.2374   -0.5387   -0.2159 C   0  0  2  0  0  0  0  0  0  0  0  0
    3.2281   -1.6394    0.0784 C   0  0  0  0  0  0  0  0  0  0  0  0
    4.5780   -1.0102   -0.2129 C   0  0  0  0  0  0  0  0  0  0  0  0
    4.3409    0.5121   -0.6269 C   0  0  2  0  0  0  0  0  0  0  0  0
    5.5125    1.3602   -0.5104 O   0  0  0  0  0  0  0  0  0  0  0  0
    6.3394    1.7935   -1.5350 C   0  0  0  0  0  0  0  0  0  0  0  0
    7.2947    2.5188   -1.2423 O   0  0  0  0  0  0  0  0  0  0  0  0
    6.1120    1.5036   -3.0519 C   0  0  0  0  0  0  0  0  0  0  0  0
    6.2812    0.0697   -3.5782 C   0  0  0  0  0  0  0  0  0  0  0  0
    5.1719   -0.7277   -3.0197 C   0  0  0  0  0  0  0  0  0  0  0  0
    3.7579   -0.2247   -3.3583 C   0  0  0  0  0  0  0  0  0  0  0  0
    3.3633   -0.6436   -4.7178 C   0  0  0  0  0  0  0  0  0  0  0  0
    3.3256   -2.1653   -4.7106 C   0  0  0  0  0  0  0  0  0  0  0  0
    2.2409   -2.7326   -3.7705 C   0  0  0  0  0  0  0  0  0  0  0  0
    0.8581   -2.1783   -4.1016 C   0  0  0  0  0  0  0  0  0  0  0  0
    0.5503   -2.4741   -5.5359 C   0  0  0  0  0  0  0  0  0  0  0  0
   -0.4567   -3.2606   -5.9134 C   0  0  0  0  0  0  0  0  0  0  0  0
    0.2434   -2.0198    0.1609 C   0  0  0  0  0  0  0  0  0  0  0  0
   -1.1146   -2.1260    0.8366 C   0  0  0  0  0  0  0  0  0  0  0  0
   -1.9725   -0.9444    0.4538 C   0  0  0  0  0  0  0  0  0  0  0  0
   -3.1546   -1.1392   -0.1503 C   0  0  0  0  0  0  0  0  0  0  0  0
   -3.9855   -0.0100   -0.6330 C   0  0  0  0  0  0  0  0  0  0  0  0
   -5.0368   -0.1947   -1.1992 O   0  0  0  0  0  0  0  0  0  0  0  0
   -3.4602    1.3545   -0.3971 C   0  0  0  0  0  0  0  0  0  0  0  0
   -2.2869    1.5493    0.2114 C   0  0  0  0  0  0  0  0  0  0  0  0
   -1.3739    0.4461    0.7151 C   0  0  2  0  0  0  0  0  0  0  0  0
   -1.2048    0.6543    2.2346 C   0  0  0  0  0  0  0  0  0  0  0  0
  2  1  1  1
  2  3  1  0
  2  7  1  0
  2 10  1  0
  3  4  1  0
  5  4  1  1
  5  6  1  0
  5 32  1  0
  6  7  1  0
  6 24  1  6
  7  8  1  1
  8  9  1  0
  9 10  1  0
 10 11  1  1
 11 12  1  0
 12 13  2  0
 12 14  1  0
 14 15  1  0
 15 16  1  0
 16 17  1  0
 17 18  1  0
 18 19  1  0
 19 20  1  0
 20 21  1  0
 21 22  1  0
 22 23  2  0
 24 25  1  0
 25 26  1  0
 26 27  2  0
 26 32  1  0
 27 28  1  0
 28 29  2  0
 28 30  1  0
 30 31  2  0
 31 32  1  0
 32 33  1  1
M  END
>  <DRUGBANK_ID>  (1) 
DB14639

>  <SECONDARY_ACCESSION_NUMBERS>  (1) 
DBSALT001616

>  <COMMON_NAME>  (1) 
Boldenone undecylenate

>  <CAS_NUMBER>  (1) 
13103-34-9

>  <UNII>  (1) 
ZS6D2ITA30

>  <SYNONYMS>  (1) 
17beta-Hydroxyandrosta-1,4-dien-3-one 10-undecenoate; Boldenone 10-undecenoate; Boldenone undecylenate

$$$$
