
     RDKit          3D

 24 25  0  0  0  0  0  0  0  0999 V2000
   -0.7986    0.3946    0.6972 N   0  0  0  0  0  0  0  0  0  0  0  0
    0.2133    1.3478    0.2190 C   0  0  1  0  0  0  0  0  0  0  0  0
   -1.8938   -1.2827    0.0212 C   0  0  2  0  0  0  0  0  0  0  0  0
    0.9448   -1.1342   -0.5293 S   0  0  0  0  0  0  0  0  0  0  0  0
    0.3438    2.5644    1.1624 C   0  0  0  0  0  0  0  0  0  0  0  0
   -1.9745   -2.0055   -1.2843 N   0  0  0  0  0  0  0  0  0  0  0  0
   -0.4969    3.5922    0.8980 O   0  0  0  0  0  0  0  0  0  0  0  0
    1.0991    2.6354    2.1213 O   0  0  0  0  0  0  0  0  0  0  0  0
   -2.2433   -3.3507   -1.2871 C   0  0  0  0  0  0  0  0  0  0  0  0
   -2.1769   -4.0491   -2.6293 C   0  0  0  0  0  0  0  0  0  0  0  0
   -1.4045   -6.3048   -1.6256 C   0  0  0  0  0  0  0  0  0  0  0  0
   -2.7749   -6.9758   -1.8232 C   0  0  1  0  0  0  0  0  0  0  0  0
   -2.8672   -7.6403   -3.2139 C   0  0  0  0  0  0  0  0  0  0  0  0
   -3.0668   -8.9790   -3.1846 O   0  0  0  0  0  0  0  0  0  0  0  0
   -2.7769   -7.0365   -4.2735 O   0  0  0  0  0  0  0  0  0  0  0  0
   -1.1204   -5.1602   -2.6200 C   0  0  0  0  0  0  0  0  0  0  0  0
   -2.5179   -3.9466   -0.2484 O   0  0  0  0  0  0  0  0  0  0  0  0
   -3.0209   -7.9427   -0.7376 N   0  0  0  0  0  0  0  0  0  0  0  0
   -1.9784    0.2618    0.0063 C   0  0  0  0  0  0  0  0  0  0  0  0
   -2.6614    1.1077   -0.5199 O   0  0  0  0  0  0  0  0  0  0  0  0
    2.4157    1.0981   -1.0926 C   0  0  0  0  0  0  0  0  0  0  0  0
    1.5292    0.5433    0.0224 C   0  0  0  0  0  0  0  0  0  0  0  0
    2.3569    0.3380    1.2996 C   0  0  0  0  0  0  0  0  0  0  0  0
   -0.4858   -1.0526    0.6075 C   0  0  1  0  0  0  0  0  0  0  0  0
  1  2  1  0
  1 19  1  0
  2 22  1  0
  2  5  1  1
  3 19  1  0
  3  6  1  6
  4 22  1  0
  5  7  1  0
  5  8  2  0
  6  9  1  0
  9 10  1  0
  9 17  2  0
 10 16  1  0
 11 12  1  0
 12 13  1  0
 12 18  1  1
 13 14  1  0
 13 15  2  0
 16 11  1  0
 19 20  2  0
 22 21  1  0
 22 23  1  0
 24  1  1  0
 24  3  1  0
 24  4  1  6
M  END
>  <DRUGBANK_ID>  (1) 
DB03550

>  <SECONDARY_ACCESSION_NUMBERS>  (1) 
EXPT01909

>  <COMMON_NAME>  (1) 
Isopenicillin N

>  <CAS_NUMBER>  (1) 
58678-43-6

$$$$
