
     RDKit          3D

 25 27  0  0  0  0  0  0  0  0999 V2000
    0.7976   -0.4915    0.1362 C   0  0  0  0  0  0  0  0  0  0  0  0
    0.3839   -0.6638    1.5789 C   0  0  0  0  0  0  0  0  0  0  0  0
    0.9817    0.1168    2.7358 C   0  0  0  0  0  0  0  0  0  0  0  0
   -1.0762   -0.3682    1.5213 C   0  0  0  0  0  0  0  0  0  0  0  0
   -1.7224    0.8321    1.4013 C   0  0  0  0  0  0  0  0  0  0  0  0
   -3.1511    0.7524    1.4789 N   0  0  0  0  0  0  0  0  0  0  0  0
   -4.0518    1.9036    1.4330 C   0  0  0  0  0  0  0  0  0  0  0  0
   -4.8466    2.0144    0.1499 C   0  0  0  0  0  0  0  0  0  0  0  0
   -5.9806    1.0816   -0.2227 C   0  0  0  0  0  0  0  0  0  0  0  0
   -4.6860    1.0315   -0.9898 C   0  0  0  0  0  0  0  0  0  0  0  0
   -3.8275   -0.4668    1.6456 C   0  0  0  0  0  0  0  0  0  0  0  0
   -5.0119   -0.6068    1.9510 O   0  0  0  0  0  0  0  0  0  0  0  0
   -3.1321   -1.5967    1.4159 N   0  0  0  0  0  0  0  0  0  0  0  0
   -1.8054   -1.6638    1.4651 C   0  0  0  0  0  0  0  0  0  0  0  0
   -1.2404   -2.7640    1.4436 O   0  0  0  0  0  0  0  0  0  0  0  0
   -0.9959    2.3048    1.2551 C   0  0  0  0  0  0  0  0  0  0  0  0
   -1.6272    3.3554    1.3862 O   0  0  0  0  0  0  0  0  0  0  0  0
    0.4957    2.5880    1.1258 C   0  0  0  0  0  0  0  0  0  0  0  0
    1.2975    2.2730    0.0203 C   0  0  0  0  0  0  0  0  0  0  0  0
    2.6824    2.0413    0.1905 C   0  0  0  0  0  0  0  0  0  0  0  0
    3.4697    1.2087   -0.7975 C   0  0  0  0  0  0  0  0  0  0  0  0
    3.2980    2.4543    1.3710 C   0  0  0  0  0  0  0  0  0  0  0  0
    2.5445    3.0745    2.3726 C   0  0  0  0  0  0  0  0  0  0  0  0
    3.2174    3.5713    3.6142 C   0  0  0  0  0  0  0  0  0  0  0  0
    1.1431    3.1334    2.2506 C   0  0  0  0  0  0  0  0  0  0  0  0
  1  2  1  0
  2  3  1  0
  2  4  1  0
  4  5  2  0
  4 14  1  0
  5  6  1  0
  5 16  1  0
  6  7  1  0
  6 11  1  0
  7  8  1  0
  8  9  1  0
  8 10  1  0
  9 10  1  0
 11 12  2  0
 11 13  1  0
 13 14  1  0
 14 15  2  0
 16 17  2  0
 16 18  1  0
 18 19  2  0
 18 25  1  0
 19 20  1  0
 20 21  1  0
 20 22  2  0
 22 23  1  0
 23 24  1  0
 23 25  2  0
M  END
>  <DRUGBANK_ID>  (1) 
DB14888

>  <COMMON_NAME>  (1) 
IQP-0528

>  <CAS_NUMBER>  (1) 
301297-45-0

>  <UNII>  (1) 
1Y42TZL33O

$$$$
