
     RDKit          3D

 23 25  0  0  1  0  0  0  0  0999 V2000
    1.1216   -1.6027    0.0161 C   0  0  1  0  0  0  0  0  0  0  0  0
   -0.0024   -0.6980    0.1778 C   0  0  0  0  0  0  0  0  0  0  0  0
    2.5219   -1.2441   -0.3342 C   0  0  2  0  0  0  0  0  0  0  0  0
    1.1401   -2.7342    0.9827 C   0  0  0  0  0  0  0  0  0  0  0  0
    0.1697    0.6611    0.1033 C   0  0  0  0  0  0  0  0  0  0  0  0
   -1.2553   -1.2983    0.1413 C   0  0  0  0  0  0  0  0  0  0  0  0
    2.4260    0.2875   -0.8469 C   0  0  0  0  0  0  0  0  0  0  0  0
    2.8356   -2.6554   -1.2399 C   0  0  0  0  0  0  0  0  0  0  0  0
    1.3204   -3.9525    0.4140 C   0  0  0  0  0  0  0  0  0  0  0  0
    1.4629    1.1416   -0.0328 O   0  0  0  0  0  0  0  0  0  0  0  0
   -1.0040    1.4507    0.1047 C   0  0  0  0  0  0  0  0  0  0  0  0
   -2.3695   -0.5454    0.2529 C   0  0  0  0  0  0  0  0  0  0  0  0
   -1.3990   -2.6377   -0.1003 O   0  0  0  0  0  0  0  0  0  0  0  0
    1.7058   -3.8742   -1.0490 C   0  0  0  0  0  0  0  0  0  0  0  0
    1.1127   -5.1922    1.2017 C   0  0  0  0  0  0  0  0  0  0  0  0
   -2.2944    0.8345    0.1410 C   0  0  0  0  0  0  0  0  0  0  0  0
   -3.6290    1.5454    0.0420 C   0  0  0  0  0  0  0  0  0  0  0  0
   -4.5343    1.0795   -1.1417 C   0  0  0  0  0  0  0  0  0  0  0  0
   -5.0425   -0.3820   -1.1244 C   0  0  0  0  0  0  0  0  0  0  0  0
   -5.7330   -0.7703    0.1924 C   0  0  0  0  0  0  0  0  0  0  0  0
   -7.0412   -0.0230    0.3417 C   0  0  0  0  0  0  0  0  0  0  0  0
    3.7943    1.0522   -0.8327 C   0  0  0  0  0  0  0  0  0  0  0  0
    1.9419    0.4129   -2.2896 C   0  0  0  0  0  0  0  0  0  0  0  0
  1  2  1  0
  1  3  1  0
  1  4  1  1
  2  5  2  0
  2  6  1  0
  3  7  1  0
  3  8  1  6
  4  9  2  0
  5 10  1  0
  5 11  1  0
  6 12  2  0
  6 13  1  0
  7 10  1  0
  7 22  1  0
  7 23  1  0
  8 14  1  0
  9 14  1  0
  9 15  1  0
 11 16  2  0
 12 16  1  0
 16 17  1  0
 17 18  1  0
 18 19  1  0
 19 20  1  0
 20 21  1  0
M  END
>  <DRUGBANK_ID>  (1) 
DB00470

>  <SECONDARY_ACCESSION_NUMBERS>  (1) 
APRD00571

>  <COMMON_NAME>  (1) 
Dronabinol

>  <CAS_NUMBER>  (1) 
1972-08-3

>  <UNII>  (1) 
7J8897W37S

>  <SYNONYMS>  (1) 
.DELTA.1-THC; (-)-delta9-trans-Tetrahydrocannabinol; 1-trans-delta-9-Tetrahydrocannabinol; 3-Pentyl-6,6,9-trimethyl-6a,7,8,10a-tetrahydro-6H-dibenzo(b,d)pyran-1-ol; 6,6,9-Trimethyl-3-pentyl-6a,7,8,10a-tetrahydro-6H-benzo[c]chromen-1-ol; delta-9-tetrahydrocannabinol; delta-9-THC; delta(1)-tetrahydrocannabinol; delta(9)-THC; delta9-tetrahydrocannabinol; Dronabinol; Dronabinolum; Tetrahydrocannabinol; THC; Î”9-tetrahydrocannabinol

$$$$
