
     RDKit          3D

 11 10  0  0  0  0  0  0  0  0999 V2000
    0.6044   -0.4994    0.1557 O   0  0  0  0  0  0  0  0  0  0  0  0
    0.4012   -1.1516   -1.0641 N   0  0  0  0  0  0  0  0  0  0  0  0
    1.3500   -1.7557   -1.8180 C   0  0  0  0  0  0  0  0  0  0  0  0
    0.9941   -2.4944   -2.7470 O   0  0  0  0  0  0  0  0  0  0  0  0
    2.8286   -1.5146   -1.5598 C   0  0  0  0  0  0  0  0  0  0  0  0
    3.3001   -0.0939   -1.8578 C   0  0  0  0  0  0  0  0  0  0  0  0
    2.7395    0.9566   -0.9258 C   0  0  0  0  0  0  0  0  0  0  0  0
    3.2147    0.8000    0.7861 P   0  0  0  0  0  0  0  0  0  0  0  0
    4.7858    1.0675    0.6935 O   0  0  0  0  0  0  0  0  0  0  0  0
    2.5478    2.1147    1.3999 O   0  0  0  0  0  0  0  0  0  0  0  0
    2.8628   -0.4687    1.4897 O   0  0  0  0  0  0  0  0  0  0  0  0
  1  2  1  0
  2  3  1  0
  3  4  2  0
  3  5  1  0
  5  6  1  0
  6  7  1  0
  7  8  1  0
  8  9  1  0
  8 10  1  0
  8 11  2  0
M  END
>  <DRUGBANK_ID>  (1) 
DB01695

>  <SECONDARY_ACCESSION_NUMBERS>  (1) 
EXPT00226

>  <COMMON_NAME>  (1) 
N-Hydroxy-4-phosphonobutanamide

>  <CAS_NUMBER>  (1) 
146086-80-8

>  <UNII>  (1) 
6Y7ZLE6WCN

>  <SYNONYMS>  (1) 
4PBH; N-hydroxy-4-phosphono-butanamide

$$$$
