
     RDKit          3D

 22 25  0  0  0  0  0  0  0  0999 V2000
   -2.3258   -0.5463    6.2633 O   0  0  0  0  0  0  0  0  0  0  0  0
   -5.5684   -7.8815   -1.1081 O   0  0  0  0  0  0  0  0  0  0  0  0
   -3.1909   -2.0860    4.2562 C   0  0  2  0  0  0  0  0  0  0  0  0
   -3.8509   -3.5261    4.5903 C   0  0  1  0  0  0  0  0  0  0  0  0
   -3.7406   -4.6468    3.5387 C   0  0  2  0  0  0  0  0  0  0  0  0
   -4.2164   -4.2521    2.0807 C   0  0  2  0  0  0  0  0  0  0  0  0
   -3.5189   -5.2455    1.0273 C   0  0  2  0  0  0  0  0  0  0  0  0
   -2.3824   -1.8858    5.7524 C   0  0  2  0  0  0  0  0  0  0  0  0
   -4.5161   -1.9886    3.2272 C   0  0  0  0  0  0  0  0  0  0  0  0
   -3.9057   -2.7655    1.9392 C   0  0  0  0  0  0  0  0  0  0  0  0
   -3.3131   -3.9946    5.9351 C   0  0  0  0  0  0  0  0  0  0  0  0
   -4.2231   -6.0454    3.9655 C   0  0  0  0  0  0  0  0  0  0  0  0
   -4.1090   -6.6653    1.5053 C   0  0  2  0  0  0  0  0  0  0  0  0
   -3.1167   -2.7601    6.7531 C   0  0  0  0  0  0  0  0  0  0  0  0
   -3.7352   -7.0584    2.9315 C   0  0  0  0  0  0  0  0  0  0  0  0
   -2.5692   -0.8737    3.5145 C   0  0  0  0  0  0  0  0  0  0  0  0
   -2.0094   -4.8973    1.1692 C   0  0  0  0  0  0  0  0  0  0  0  0
   -0.8540   -2.2645    5.6227 C   0  0  0  0  0  0  0  0  0  0  0  0
   -3.5779   -5.1908   -0.5486 C   0  0  0  0  0  0  0  0  0  0  0  0
   -3.7573   -7.7722    0.5198 C   0  0  0  0  0  0  0  0  0  0  0  0
   -3.9978   -6.1640   -1.3819 C   0  0  0  0  0  0  0  0  0  0  0  0
   -4.4887   -7.3615   -0.7220 C   0  0  0  0  0  0  0  0  0  0  0  0
  2 22  2  0
  3  4  1  0
  3  8  1  0
  3  9  1  0
  3 16  1  6
  4  5  1  0
  4 11  1  1
  5  6  1  0
  5 12  1  1
  6  7  1  0
  6 10  1  6
  7 13  1  0
  7 19  1  0
  7 17  1  6
  8 14  1  0
  8  1  1  0
  8 18  1  6
  9 10  1  0
 11 14  1  0
 12 15  1  0
 13 15  1  1
 13 20  1  0
 19 21  2  0
 20 22  1  0
 21 22  1  0
M  END
>  <DRUGBANK_ID>  (1) 
DB01572

>  <COMMON_NAME>  (1) 
Methyl-1-testosterone

>  <CAS_NUMBER>  (1) 
65-04-3

>  <UNII>  (1) 
21O907N0NH

>  <SYNONYMS>  (1) 
(+)-Methyl-1-testosterone; (5α,17β)-17-Hydroxy-17-methylandrost-1-en-3-one; 17alpha-Methyl-17beta-hydroxy-5alpha-androst-1-en-3-one; 17alpha-Methyl-17beta-hydroxy-delta1-5alpha-androsten-3-one; 17beta-Hydroxy-17alpha-methyl-5alpha-androst-1-ene-3-one

$$$$
