
     RDKit          3D

  9  9  0  0  0  0  0  0  0  0999 V2000
    1.1351   -0.0968   -0.0148 N   0  0  0  0  0  0  0  0  0  0  0  0
   -1.0316   -0.1383   -3.4850 N   0  0  0  0  0  0  0  0  0  0  0  0
    1.0313   -0.1235   -2.2911 N   0  0  0  0  0  0  0  0  0  0  0  0
    0.3384   -0.1381   -3.3903 C   0  0  0  0  0  0  0  0  0  0  0  0
   -1.0569   -0.1067   -1.0755 C   0  0  0  0  0  0  0  0  0  0  0  0
   -1.7017   -0.1235   -2.3832 C   0  0  0  0  0  0  0  0  0  0  0  0
    0.4097   -0.1080   -1.0808 C   0  0  0  0  0  0  0  0  0  0  0  0
    1.0429   -0.1590   -4.7252 C   0  0  0  0  0  0  0  0  0  0  0  0
   -1.7547   -0.0921    0.0668 C   0  0  0  0  0  0  0  0  0  0  0  0
  1  7  2  0
  2  4  1  0
  2  6  2  0
  3  4  2  0
  3  7  1  0
  4  8  1  0
  5  6  1  0
  5  7  1  0
  5  9  2  0
M  END
>  <DRUGBANK_ID>  (1) 
DB01788

>  <SECONDARY_ACCESSION_NUMBERS>  (1) 
EXPT01833

>  <COMMON_NAME>  (1) 
2-methyl-5-methylidenepyrimidin-4-imine

>  <CAS_NUMBER>  (1) 
918960-40-4

>  <SYNONYMS>  (1) 
2-Methyl-5-methylene-4(5H)-pyrimidinimine; 4-Imino-5-Methidyl-2-Methylpyrimidine

$$$$
