
     RDKit          3D

 23 22  0  0  1  0  0  0  0  0999 V2000
   -0.1832   -1.4921    6.5558 C   0  0  0  0  0  0  0  0  0  0  0  0
    0.0356    2.9464    9.2585 C   0  0  0  0  0  0  0  0  0  0  0  0
    1.1523    5.1072    4.8981 C   0  0  0  0  0  0  0  0  0  0  0  0
    2.0095    0.3664    5.2451 C   0  0  0  0  0  0  0  0  0  0  0  0
    2.4644   -1.0462    5.4070 C   0  0  0  0  0  0  0  0  0  0  0  0
    0.4674    0.4727    5.1187 C   0  0  0  0  0  0  0  0  0  0  0  0
    2.0229   -1.7829    4.2032 C   0  0  0  0  0  0  0  0  0  0  0  0
    0.5597    0.7989    7.6405 C   0  0  0  0  0  0  0  0  0  0  0  0
    0.9475    3.0287    6.5018 C   0  0  0  0  0  0  0  0  0  0  0  0
   -0.2380    5.0100    6.8398 C   0  0  0  0  0  0  0  0  0  0  0  0
    1.8371   -1.2656    0.5762 C   0  0  0  0  0  0  0  0  0  0  0  0
    1.0888   -3.1601    1.9819 C   0  0  0  0  0  0  0  0  0  0  0  0
   -0.1620    0.0535    6.4565 C   0  0  2  0  0  0  0  0  0  0  0  0
    0.6297    2.3652    7.6827 C   0  0  0  0  0  0  0  0  0  0  0  0
    0.6365    4.4072    6.1433 C   0  0  0  0  0  0  0  0  0  0  0  0
    2.2643   -2.1893    1.7163 C   0  0  2  0  0  0  0  0  0  0  0  0
    2.6359   -1.3090    2.9117 C   0  0  2  0  0  0  0  0  0  0  0  0
   -1.1829    4.3648    7.8054 C   0  0  0  0  0  0  0  0  0  0  0  0
    2.2186   -1.4242   -0.5812 O   0  0  0  0  0  0  0  0  0  0  0  0
    0.9829   -3.7711    3.2646 O   0  0  0  0  0  0  0  0  0  0  0  0
    4.0463   -1.3132    3.1000 O   0  0  0  0  0  0  0  0  0  0  0  0
   -1.2673    5.1352    8.7382 O   0  0  0  0  0  0  0  0  0  0  0  0
   -1.6972    2.9103    7.7976 O   0  0  0  0  0  0  0  0  0  0  0  0
  5  4  1  0
  6  4  1  0
  7  5  1  0
 13  8  1  0
 13  6  1  0
 13  1  1  1
 14  2  1  0
 14  8  1  0
 14  9  2  0
 15  3  1  0
 15  9  1  0
 15 10  2  3
 16 12  1  1
 16 11  1  0
 17 21  1  1
 17 16  1  0
 17  7  1  0
 18 10  1  0
 19 11  2  0
 20 12  1  0
 22 18  2  0
 23 18  1  0
M  END
>  <DRUGBANK_ID>  (1) 
DB07740

>  <COMMON_NAME>  (1) 
(7R,12R,13R)-13-formyl-12,14-dihydroxy-3,5,7-trimethyltetradeca-2,4-dienoic acid

$$$$
