
     RDKit          3D

 10 10  0  0  1  0  0  0  0  0999 V2000
    0.9056   -0.0450    0.0945 C   0  0  0  0  0  0  0  0  0  0  0  0
    0.2388    2.9036   -0.1411 C   0  0  0  0  0  0  0  0  0  0  0  0
    1.4057    3.0480   -1.1091 C   0  0  1  0  0  0  0  0  0  0  0  0
    0.4154    0.8104   -1.0799 C   0  0  1  0  0  0  0  0  0  0  0  0
    1.5251    1.6624   -1.7916 C   0  0  0  0  0  0  0  0  0  0  0  0
    1.1538    4.0987   -2.0538 O   0  0  0  0  0  0  0  0  0  0  0  0
   -0.2790   -0.0532   -1.9788 O   0  0  0  0  0  0  0  0  0  0  0  0
    1.2452    1.7226   -3.1957 O   0  0  0  0  0  0  0  0  0  0  0  0
    2.8356    1.1436   -1.6723 O   0  0  0  0  0  0  0  0  0  0  0  0
   -0.5316    1.7888   -0.6077 O   0  0  0  0  0  0  0  0  0  0  0  0
  3  2  1  0
  3  6  1  6
  4  1  1  1
  4  7  1  0
  5  3  1  0
  5  4  1  0
  8  5  1  0
  9  5  1  0
 10  2  1  0
 10  4  1  0
M  END
>  <DRUGBANK_ID>  (1) 
DB04346

>  <SECONDARY_ACCESSION_NUMBERS>  (1) 
EXPT02502

>  <COMMON_NAME>  (1) 
(2r,4s)-2-Methyl-2,3,3,4-Tetrahydroxytetrahydrofuran

$$$$
