
     RDKit          3D

 42 47  0  0  0  0  0  0  0  0999 V2000
    1.2767    0.6821   -0.2692 O   0  0  0  0  0  0  0  0  0  0  0  0
   -1.7580    0.1292   -0.6047 O   0  0  0  0  0  0  0  0  0  0  0  0
    0.0130    2.9578    2.0434 O   0  0  0  0  0  0  0  0  0  0  0  0
   -1.7485   -3.7185   -1.6481 O   0  0  0  0  0  0  0  0  0  0  0  0
    0.7215   -2.3699   -5.9437 O   0  0  0  0  0  0  0  0  0  0  0  0
    4.1747   -3.0429   -2.8388 O   0  0  0  0  0  0  0  0  0  0  0  0
    2.2694   -1.2613    0.3562 N   0  0  0  0  0  0  0  0  0  0  0  0
   -0.7742   -2.3923   -0.1062 N   0  0  0  0  0  0  0  0  0  0  0  0
    3.9608   -2.7047    0.6040 N   0  0  0  0  0  0  0  0  0  0  0  0
    2.1065   -0.5782    2.5629 N   0  0  0  0  0  0  0  0  0  0  0  0
    5.9486   -2.3926    2.9293 N   0  0  0  0  0  0  0  0  0  0  0  0
    4.0741   -1.2674    3.8407 N   0  0  0  0  0  0  0  0  0  0  0  0
   -0.0728   -1.2219    0.4430 C   0  0  2  0  0  0  0  0  0  0  0  0
   -0.8820    0.0577    0.5194 C   0  0  1  0  0  0  0  0  0  0  0  0
    1.1344   -0.7238   -0.3040 C   0  0  1  0  0  0  0  0  0  0  0  0
    0.1535    1.1869    0.4392 C   0  0  1  0  0  0  0  0  0  0  0  0
    0.5945    1.6819    1.8106 C   0  0  0  0  0  0  0  0  0  0  0  0
    2.7159   -1.2065    1.5998 C   0  0  0  0  0  0  0  0  0  0  0  0
    3.1213   -2.0879   -0.1642 C   0  0  0  0  0  0  0  0  0  0  0  0
   -0.7887   -3.0097   -1.3535 C   0  0  0  0  0  0  0  0  0  0  0  0
    3.8800   -1.9515    1.6715 C   0  0  0  0  0  0  0  0  0  0  0  0
    4.6746   -1.8835    2.8003 C   0  0  0  0  0  0  0  0  0  0  0  0
    0.3163   -2.9152   -2.3779 C   0  0  0  0  0  0  0  0  0  0  0  0
    2.8519   -0.6926    3.6551 C   0  0  0  0  0  0  0  0  0  0  0  0
    1.6520   -3.2329   -2.0835 C   0  0  0  0  0  0  0  0  0  0  0  0
    0.0471   -2.6444   -3.7049 C   0  0  0  0  0  0  0  0  0  0  0  0
    6.8496   -2.6704    1.8477 C   0  0  0  0  0  0  0  0  0  0  0  0
    1.0987   -2.5389   -4.6392 C   0  0  0  0  0  0  0  0  0  0  0  0
    2.7687   -3.0194   -2.9859 C   0  0  0  0  0  0  0  0  0  0  0  0
    8.5051   -1.8567    1.8804 C   0  0  0  0  0  0  0  0  0  0  0  0
    2.4398   -2.6420   -4.2602 C   0  0  0  0  0  0  0  0  0  0  0  0
    9.4401   -0.3293    2.0917 C   0  0  0  0  0  0  0  0  0  0  0  0
    9.1299   -3.0498    1.1929 C   0  0  0  0  0  0  0  0  0  0  0  0
    9.6781   -0.5820    0.9702 C   0  0  0  0  0  0  0  0  0  0  0  0
   10.6034    1.2230    2.3797 C   0  0  0  0  0  0  0  0  0  0  0  0
   10.4328   -2.8906    0.8637 C   0  0  0  0  0  0  0  0  0  0  0  0
   10.7896   -1.5818    0.8825 C   0  0  0  0  0  0  0  0  0  0  0  0
    9.2067    0.6637    0.7068 C   0  0  0  0  0  0  0  0  0  0  0  0
   10.4824    2.3713    1.5760 C   0  0  0  0  0  0  0  0  0  0  0  0
   10.3650    1.4492    0.6036 C   0  0  0  0  0  0  0  0  0  0  0  0
    1.8028   -2.3106   -6.8736 C   0  0  0  0  0  0  0  0  0  0  0  0
    4.8538   -3.1211   -1.5845 C   0  0  0  0  0  0  0  0  0  0  0  0
  1 15  1  0
  1 16  1  0
  3 17  1  0
  4 20  2  0
  5 28  1  0
  5 41  1  0
  6 29  1  0
  6 42  1  0
  7 18  1  0
  7 19  1  0
  8 20  1  0
  9 19  2  0
  9 21  1  0
 10 18  1  0
 10 24  2  0
 11 22  1  0
 11 27  1  0
 12 22  2  0
 12 24  1  0
 13 14  1  0
 13 15  1  0
 13  8  1  6
 14  2  1  6
 14 16  1  0
 15  7  1  1
 16 17  1  1
 18 21  2  0
 20 23  1  0
 21 22  1  0
 23 25  2  0
 23 26  1  0
 25 29  1  0
 26 28  2  0
 27 30  1  0
 28 31  1  0
 29 31  2  0
 30 32  1  0
 30 33  2  0
 32 34  2  0
 32 35  1  0
 33 36  1  0
 34 37  1  0
 34 38  1  0
 35 39  2  0
 36 37  2  0
 38 40  2  0
 39 40  1  0
M  END
>  <DRUGBANK_ID>  (1) 
DB03331

>  <SECONDARY_ACCESSION_NUMBERS>  (1) 
EXPT02362

>  <COMMON_NAME>  (1) 
N-naphthalen-1-ylmethyl-2'-[3,5-dimethoxybenzamido]-2'-deoxy-adenosine

>  <SYNONYMS>  (1) 
2'-Deoxy-2'-[(3,5-dimethoxybenzoyl)amino]-N-(1-naphthylmethyl)adenosine

$$$$
