WAY
     RDKit          3D

 30 32  0  0  0  0  0  0  0  0999 V2000
    0.1653    1.3280   -0.3620 C   0  0  0  0  0  0  0  0  0  0  0  0
    1.0317    0.1258   -0.5557 C   0  0  0  0  0  0  0  0  0  0  0  0
    0.3334   -1.1352   -0.2958 C   0  0  0  0  0  0  0  0  0  0  0  0
   -1.0515   -1.2841   -0.0817 C   0  0  0  0  0  0  0  0  0  0  0  0
   -1.8450   -0.1716   -0.0662 C   0  0  0  0  0  0  0  0  0  0  0  0
   -1.2456    1.0833   -0.1352 C   0  0  0  0  0  0  0  0  0  0  0  0
    2.6844   -0.2642   -0.7250 C   0  0  0  0  0  0  0  0  0  0  0  0
    2.9890   -1.4619   -0.5796 O   0  0  0  0  0  0  0  0  0  0  0  0
    3.8710    0.4958   -0.8997 N   0  0  0  0  0  0  0  0  0  0  0  0
    4.0333    1.7642   -0.3828 O   0  0  0  0  0  0  0  0  0  0  0  0
   -2.2040    2.1888    0.0860 C   0  0  0  0  0  0  0  0  0  0  0  0
    0.6065    2.7243    0.0543 N   0  0  0  0  0  0  0  0  0  0  0  0
   -0.0077    4.3441   -0.1983 S   0  0  0  0  0  0  0  0  0  0  0  0
    1.9931    2.8552    0.3309 C   0  0  0  0  0  0  0  0  0  0  0  0
    3.0156   -0.0762    2.9200 C   0  0  0  0  0  0  0  0  0  0  0  0
    3.7490    0.6601    3.7882 C   0  0  0  0  0  0  0  0  0  0  0  0
    3.9406    1.9920    3.6245 N   0  0  0  0  0  0  0  0  0  0  0  0
    3.3411    2.6385    2.5723 C   0  0  0  0  0  0  0  0  0  0  0  0
    2.4236    2.0591    1.7145 C   0  0  0  0  0  0  0  0  0  0  0  0
    2.2932    0.6539    1.9796 C   0  0  0  0  0  0  0  0  0  0  0  0
    0.4859    5.0736    1.3934 C   0  0  0  0  0  0  0  0  0  0  0  0
    0.5977    6.4470    1.3412 C   0  0  0  0  0  0  0  0  0  0  0  0
    0.6542    7.1721    2.5151 C   0  0  0  0  0  0  0  0  0  0  0  0
    0.6818    6.5354    3.7567 C   0  0  0  0  0  0  0  0  0  0  0  0
    0.6134    5.1412    3.8144 C   0  0  0  0  0  0  0  0  0  0  0  0
    0.5299    4.3953    2.6295 C   0  0  0  0  0  0  0  0  0  0  0  0
    0.7648    7.1970    4.9522 O   0  0  0  0  0  0  0  0  0  0  0  0
    0.9210    8.6128    4.8511 C   0  0  0  0  0  0  0  0  0  0  0  0
    0.8473    4.9757   -1.2295 O   0  0  0  0  0  0  0  0  0  0  0  0
   -1.3963    4.6145   -0.2324 O   0  0  0  0  0  0  0  0  0  0  0  0
  1  2  2  0
  1  6  1  0
  1 12  1  0
  2  3  1  0
  2  7  1  0
  3  4  2  0
  4  5  1  0
  5  6  2  0
  6 11  1  0
  7  8  2  0
  7  9  1  0
  9 10  1  0
 12 13  1  0
 12 14  1  0
 13 21  1  0
 13 29  2  0
 13 30  2  0
 14 19  1  0
 15 16  2  0
 15 20  1  0
 16 17  1  0
 17 18  2  0
 18 19  1  0
 19 20  2  0
 21 22  2  0
 21 26  1  0
 22 23  1  0
 23 24  2  0
 24 25  1  0
 24 27  1  0
 25 26  2  0
 27 28  1  0
M  END
>  <DRUGBANK_ID>  (1) 
DB02071

>  <SECONDARY_ACCESSION_NUMBERS>  (1) 
EXPT03240

>  <COMMON_NAME>  (1) 
WAY-151693

>  <SYNONYMS>  (1) 
N-Hydroxy-2-{[(4-methoxyphenyl)sulfonyl](3-pyridinylmethyl)amino}-3-methylbenzamide

$$$$
