
     RDKit          3D

 37 38  0  0  0  0  0  0  0  0999 V2000
    0.9584   -0.0482    0.0771 P   0  0  0  0  0  0  0  0  0  0  0  0
    0.9257   -0.4856    1.9571 C   0  0  0  0  0  0  0  0  0  0  0  0
    2.0600   -0.6298    2.7410 O   0  0  0  0  0  0  0  0  0  0  0  0
    1.6875   -0.5171    4.0653 C   0  0  0  0  0  0  0  0  0  0  0  0
    0.2994   -0.4385    4.1255 C   0  0  0  0  0  0  0  0  0  0  0  0
   -0.1871   -0.4384    2.7873 C   0  0  0  0  0  0  0  0  0  0  0  0
    2.6253   -0.2308    5.2466 C   0  0  0  0  0  0  0  0  0  0  0  0
    2.5269   -1.1737    6.2633 N   0  0  0  0  0  0  0  0  0  0  0  0
    3.3798   -0.9003    7.2022 C   0  0  0  0  0  0  0  0  0  0  0  0
    4.3610    0.4371    6.9647 S   0  0  0  0  0  0  0  0  0  0  0  0
    3.4831    0.8701    5.5510 C   0  0  0  0  0  0  0  0  0  0  0  0
    3.4442    2.3421    5.3170 C   0  0  0  0  0  0  0  0  0  0  0  0
    4.7077    3.3520    5.0726 C   0  0  0  0  0  0  0  0  0  0  0  0
    5.6959    3.3748    3.8539 C   0  0  0  0  0  0  0  0  0  0  0  0
    4.0809    4.7769    5.0767 C   0  0  0  0  0  0  0  0  0  0  0  0
    5.5790    3.1585    6.2950 C   0  0  0  0  0  0  0  0  0  0  0  0
    2.3526    2.8926    5.5205 O   0  0  0  0  0  0  0  0  0  0  0  0
    3.5335   -1.6011    8.3167 N   0  0  0  0  0  0  0  0  0  0  0  0
    0.9005    1.5664   -0.3999 N   0  0  0  0  0  0  0  0  0  0  0  0
    0.1809    2.7522    0.1310 C   0  0  0  0  0  0  0  0  0  0  0  0
    0.8881    3.1761    1.3365 C   0  0  0  0  0  0  0  0  0  0  0  0
    1.3933    4.2870    1.5799 O   0  0  0  0  0  0  0  0  0  0  0  0
    0.9145    2.0960    2.1053 O   0  0  0  0  0  0  0  0  0  0  0  0
    1.8226    2.3184    3.0941 C   0  0  0  0  0  0  0  0  0  0  0  0
    3.2083    2.2390    2.4920 C   0  0  0  0  0  0  0  0  0  0  0  0
    0.3234    3.9747   -0.7961 C   0  0  0  0  0  0  0  0  0  0  0  0
   -1.2623    2.5514    0.6811 C   0  0  0  0  0  0  0  0  0  0  0  0
   -0.8216   -0.0482    0.0771 N   0  0  0  0  0  0  0  0  0  0  0  0
   -1.3667    0.2338   -1.3963 C   0  0  0  0  0  0  0  0  0  0  0  0
   -0.8995   -0.8261   -2.3970 C   0  0  0  0  0  0  0  0  0  0  0  0
   -1.6536   -1.4143   -3.1467 O   0  0  0  0  0  0  0  0  0  0  0  0
    0.4651   -0.9257   -2.4210 O   0  0  0  0  0  0  0  0  0  0  0  0
    0.9988   -1.8073   -3.4193 C   0  0  0  0  0  0  0  0  0  0  0  0
    0.6028   -3.2349   -3.0982 C   0  0  0  0  0  0  0  0  0  0  0  0
   -2.9016    0.1975   -1.3058 C   0  0  0  0  0  0  0  0  0  0  0  0
   -1.0187    1.5333   -2.2183 C   0  0  0  0  0  0  0  0  0  0  0  0
    2.5067   -0.0482    0.0771 O   0  0  0  0  0  0  0  0  0  0  0  0
  1  2  1  0
  1 19  1  0
  1 28  1  0
  1 37  2  0
  2  6  2  0
  3  2  1  0
  3  4  1  0
  4  7  1  0
  5  4  2  0
  6  5  1  0
  7 11  2  0
  8  7  1  0
  9  8  2  0
  9 18  1  0
 10  9  1  0
 10 11  1  0
 11 12  1  0
 12 13  1  0
 12 17  2  0
 13 14  1  0
 13 15  1  0
 13 16  1  0
 19 20  1  0
 20 26  1  0
 20 27  1  0
 21 20  1  0
 21 22  2  0
 21 23  1  0
 23 24  1  0
 24 25  1  0
 28 29  1  0
 29 35  1  0
 29 36  1  0
 30 29  1  0
 30 31  2  0
 30 32  1  0
 32 33  1  0
 33 34  1  0
M  END
>  <DRUGBANK_ID>  (1) 
DB05053

>  <COMMON_NAME>  (1) 
MB-07803

>  <CAS_NUMBER>  (1) 
882757-24-6

>  <UNII>  (1) 
GG81XF45C2

$$$$
