
     RDKit          3D

 22 23  0  0  0  0  0  0  0  0999 V2000
    0.5705    2.1580    4.7858 C   0  0  0  0  0  0  0  0  0  0  0  0
   -2.8488    5.2975   -0.9914 C   0  0  0  0  0  0  0  0  0  0  0  0
    3.0716   -3.2307    0.3053 C   0  0  0  0  0  0  0  0  0  0  0  0
    2.0133   -2.4219   -0.0929 C   0  0  0  0  0  0  0  0  0  0  0  0
   -0.8511    3.1193    1.3724 C   0  0  0  0  0  0  0  0  0  0  0  0
    3.6379   -0.5060    4.3430 C   0  0  0  0  0  0  0  0  0  0  0  0
   -0.4673    3.0207    2.7617 C   0  0  0  0  0  0  0  0  0  0  0  0
   -1.6155    4.0753    0.8247 C   0  0  0  0  0  0  0  0  0  0  0  0
    3.6747   -3.0214    1.5389 C   0  0  0  0  0  0  0  0  0  0  0  0
    3.9388   -1.8407    3.7090 C   0  0  0  0  0  0  0  0  0  0  0  0
    2.1353   -0.3505    4.3533 C   0  0  0  0  0  0  0  0  0  0  0  0
    1.5480   -1.4048    0.7466 C   0  0  0  0  0  0  0  0  0  0  0  0
    0.8830    0.9328    2.5504 C   0  0  0  0  0  0  0  0  0  0  0  0
   -1.5789    3.2217   -1.5134 C   0  0  0  0  0  0  0  0  0  0  0  0
    0.3033    2.0553    3.3109 C   0  0  0  0  0  0  0  0  0  0  0  0
   -1.9796    4.1331   -0.5977 C   0  0  0  0  0  0  0  0  0  0  0  0
    3.2350   -1.9891    2.3791 C   0  0  0  0  0  0  0  0  0  0  0  0
    1.6429   -0.1115    2.9503 C   0  0  0  0  0  0  0  0  0  0  0  0
    2.1444   -1.1637    1.9965 C   0  0  0  0  0  0  0  0  0  0  0  0
   -1.8843    3.1843   -2.9557 C   0  0  0  0  0  0  0  0  0  0  0  0
   -1.4754    2.3125   -3.7110 O   0  0  0  0  0  0  0  0  0  0  0  0
   -2.6541    4.1836   -3.3988 O   0  0  0  0  0  0  0  0  0  0  0  0
  4  3  2  0
  7  5  1  0
  8  5  2  0
  9  3  1  0
 10  6  1  0
 11  6  1  0
 12  4  1  0
 15  1  1  0
 15  7  2  0
 15 13  1  0
 16  2  1  0
 16  8  1  0
 16 14  2  0
 17  9  2  0
 17 10  1  0
 18 11  1  0
 18 13  2  0
 19 12  2  0
 19 17  1  0
 19 18  1  0
 20 14  1  0
 21 20  2  0
 22 20  1  0
M  END
>  <DRUGBANK_ID>  (1) 
DB12316

>  <COMMON_NAME>  (1) 
9CUAB30

>  <CAS_NUMBER>  (1) 
205252-57-9

>  <UNII>  (1) 
PFP09575EX

>  <SYNONYMS>  (1) 
RETINOID 9CUAB30

$$$$
