
     RDKit          3D

 35 39  0  0  0  0  0  0  0  0999 V2000
    2.4409    0.0016    0.0583 C   0  0  0  0  0  0  0  0  0  0  0  0
    1.0277   -0.0042   -0.2984 N   0  0  0  0  0  0  0  0  0  0  0  0
    0.3464   -1.2025    0.2466 C   0  0  0  0  0  0  0  0  0  0  0  0
   -1.1370   -1.2571   -0.1846 C   0  0  0  0  0  0  0  0  0  0  0  0
   -1.8149   -0.0199    0.2088 N   0  0  0  0  0  0  0  0  0  0  0  0
   -1.1602    1.2325   -0.1898 C   0  0  0  0  0  0  0  0  0  0  0  0
    0.3341    1.1950    0.2293 C   0  0  0  0  0  0  0  0  0  0  0  0
   -3.0679   -0.0238    0.7729 C   0  0  0  0  0  0  0  0  0  0  0  0
   -3.2954   -0.6418    2.0090 C   0  0  0  0  0  0  0  0  0  0  0  0
   -4.5408   -0.5615    2.6629 C   0  0  0  0  0  0  0  0  0  0  0  0
   -5.6057    0.1364    2.0864 C   0  0  0  0  0  0  0  0  0  0  0  0
   -6.8683    0.1970    2.7001 N   0  0  0  0  0  0  0  0  0  0  0  0
   -8.0154    0.8113    2.1959 C   0  0  0  0  0  0  0  0  0  0  0  0
   -8.3893    0.4538    0.9608 N   0  0  0  0  0  0  0  0  0  0  0  0
   -9.4222    1.0623    0.3507 C   0  0  0  0  0  0  0  0  0  0  0  0
   -9.7514    0.6617   -0.9279 O   0  0  0  0  0  0  0  0  0  0  0  0
   -9.0030   -0.3722   -1.4718 C   0  0  0  0  0  0  0  0  0  0  0  0
   -9.2577   -1.6998   -1.1785 C   0  0  0  0  0  0  0  0  0  0  0  0
   -8.6839   -2.6800   -1.9950 C   0  0  0  0  0  0  0  0  0  0  0  0
   -8.0943   -2.3226   -3.2222 C   0  0  0  0  0  0  0  0  0  0  0  0
   -7.9869   -0.9756   -3.5597 C   0  0  0  0  0  0  0  0  0  0  0  0
   -7.8249   -0.5711   -4.9094 N   0  0  0  0  0  0  0  0  0  0  0  0
   -8.0676    0.6286   -5.5622 C   0  0  0  0  0  0  0  0  0  0  0  0
   -7.7961    0.7307   -6.7499 O   0  0  0  0  0  0  0  0  0  0  0  0
   -8.5819    1.8528   -4.8680 C   0  0  0  0  0  0  0  0  0  0  0  0
   -9.4932    1.9032   -3.8920 C   0  0  0  0  0  0  0  0  0  0  0  0
   -8.1536   -0.0673   -2.5298 C   0  0  0  0  0  0  0  0  0  0  0  0
  -10.0548    2.0894    1.0266 C   0  0  0  0  0  0  0  0  0  0  0  0
  -11.0847    2.9151    0.6618 O   0  0  0  0  0  0  0  0  0  0  0  0
  -11.2965    3.7636    1.7142 C   0  0  0  0  0  0  0  0  0  0  0  0
  -10.4147    3.4953    2.7388 C   0  0  0  0  0  0  0  0  0  0  0  0
   -9.6269    2.4025    2.3080 C   0  0  0  0  0  0  0  0  0  0  0  0
   -8.6300    1.7412    2.9417 N   0  0  0  0  0  0  0  0  0  0  0  0
   -5.3649    0.7601    0.8552 C   0  0  0  0  0  0  0  0  0  0  0  0
   -4.1381    0.6503    0.1929 C   0  0  0  0  0  0  0  0  0  0  0  0
  1  2  1  0
  2  3  1  0
  2  7  1  0
  3  4  1  0
  4  5  1  0
  5  6  1  0
  5  8  1  0
  6  7  1  0
  8  9  2  0
  8 35  1  0
  9 10  1  0
 10 11  2  0
 11 12  1  0
 11 34  1  0
 12 13  1  0
 13 14  2  0
 13 33  1  0
 14 15  1  0
 15 16  1  0
 15 28  2  0
 16 17  1  0
 17 18  2  0
 17 27  1  0
 18 19  1  0
 19 20  2  0
 20 21  1  0
 21 22  1  0
 21 27  2  0
 22 23  1  0
 23 24  2  0
 23 25  1  0
 25 26  2  0
 28 29  1  0
 28 32  1  0
 29 30  1  0
 30 31  2  0
 31 32  1  0
 32 33  2  0
 34 35  2  0
M  END
>  <DRUGBANK_ID>  (1) 
DB16299

>  <COMMON_NAME>  (1) 
Poseltinib

>  <CAS_NUMBER>  (1) 
1353552-97-2

>  <UNII>  (1) 
D01E4B1U35

>  <SYNONYMS>  (1) 
Poseltinib

$$$$
