304
     RDKit          3D

 24 25  0  0  0  0  0  0  0  0999 V2000
    0.3001    1.1823    0.0033 C   0  0  0  0  0  0  0  0  0  0  0  0
   -1.0994    1.1482   -0.0012 C   0  0  0  0  0  0  0  0  0  0  0  0
    0.3182   -1.2100   -0.0025 C   0  0  0  0  0  0  0  0  0  0  0  0
   -3.0311   -5.3427   -0.7375 C   0  0  0  0  0  0  0  0  0  0  0  0
    1.0262   -0.0066   -0.0022 C   0  0  0  0  0  0  0  0  0  0  0  0
   -1.8072   -0.0774   -0.0126 C   0  0  0  0  0  0  0  0  0  0  0  0
   -1.0839   -1.2895   -0.0064 C   0  0  0  0  0  0  0  0  0  0  0  0
   -1.9545   -4.9898    0.0412 C   0  0  0  0  0  0  0  0  0  0  0  0
   -2.8118   -7.2715    0.3719 C   0  0  0  0  0  0  0  0  0  0  0  0
    2.5268    0.0353   -0.0150 C   0  0  0  0  0  0  0  0  0  0  0  0
   -1.1110   -3.8157    0.0495 C   0  0  0  0  0  0  0  0  0  0  0  0
   -3.3110   -0.0177   -0.0399 C   0  0  0  0  0  0  0  0  0  0  0  0
   -4.4281  -10.7125    2.5189 C   0  0  0  0  0  0  0  0  0  0  0  0
   -1.7059  -10.5377    1.1675 C   0  0  0  0  0  0  0  0  0  0  0  0
    4.6660   -1.2151   -0.0729 C   0  0  0  0  0  0  0  0  0  0  0  0
   -3.3588   -9.6980    2.9059 C   0  0  0  0  0  0  0  0  0  0  0  0
   -2.3983   -9.3119    1.7661 C   0  0  2  0  0  0  0  0  0  0  0  0
   -3.5172   -6.6308   -0.5388 N   0  0  0  0  0  0  0  0  0  0  0  0
   -1.7435   -2.5651   -0.0101 N   0  0  0  0  0  0  0  0  0  0  0  0
   -3.0931   -8.5503    0.7335 N   0  0  0  0  0  0  0  0  0  0  0  0
    3.2232   -1.1634   -0.0458 N   0  0  0  0  0  0  0  0  0  0  0  0
    3.0921    1.1251   -0.0031 O   0  0  0  0  0  0  0  0  0  0  0  0
    0.1131   -3.9653    0.1155 O   0  0  0  0  0  0  0  0  0  0  0  0
   -1.5250   -6.3275    1.0270 S   0  0  0  0  0  0  0  0  0  0  0  0
  1  2  2  0
  1  5  1  0
  2  6  1  0
  3  5  2  0
  3  7  1  0
  4  8  2  0
  4 18  1  0
  5 10  1  0
  6  7  2  0
  6 12  1  0
  7 19  1  0
  8 11  1  0
  8 24  1  0
  9 18  2  0
  9 20  1  0
  9 24  1  0
 10 21  1  0
 10 22  2  0
 11 19  1  0
 11 23  2  0
 13 16  1  0
 15 21  1  0
 17 20  1  0
 17 16  1  0
 17 14  1  6
M  END
>  <DRUGBANK_ID>  (1) 
DB06991

>  <COMMON_NAME>  (1) 
N-[2-methyl-5-(methylcarbamoyl)phenyl]-2-{[(1R)-1-methylpropyl]amino}-1,3-thiazole-5-carboxamide

$$$$
