TH2
     RDKit          3D

 28 31  0  0  0  0  0  0  0  0999 V2000
   -2.2449   -1.5424    0.2120 C   0  0  0  0  0  0  0  0  0  0  0  0
   -3.7197   -1.3335   -0.0998 C   0  0  0  0  0  0  0  0  0  0  0  0
   -4.1569    0.0220    0.3907 C   0  0  0  0  0  0  0  0  0  0  0  0
   -5.2971    0.2453    0.7879 O   0  0  0  0  0  0  0  0  0  0  0  0
   -3.1998    1.1421    0.2590 C   0  0  0  0  0  0  0  0  0  0  0  0
   -1.9538    0.9365   -0.1988 C   0  0  0  0  0  0  0  0  0  0  0  0
   -1.0987    2.1258   -0.5522 C   0  0  0  0  0  0  0  0  0  0  0  0
    0.3083    2.0295    0.0001 C   0  0  0  0  0  0  0  0  0  0  0  0
    0.9372    0.6656   -0.3033 C   0  0  2  0  0  0  0  0  0  0  0  0
    0.0638   -0.4770    0.2681 C   0  0  1  0  0  0  0  0  0  0  0  0
   -1.3434   -0.4531   -0.4217 C   0  0  1  0  0  0  0  0  0  0  0  0
    0.7623   -1.8641    0.2388 C   0  0  0  0  0  0  0  0  0  0  0  0
    2.2219   -1.8421    0.7054 C   0  0  0  0  0  0  0  0  0  0  0  0
    3.0147   -0.7639   -0.0474 C   0  0  1  0  0  0  0  0  0  0  0  0
    2.3278    0.5894    0.2592 C   0  0  1  0  0  0  0  0  0  0  0  0
    3.2433    1.6828   -0.2553 C   0  0  0  0  0  0  0  0  0  0  0  0
    4.6162    1.0674   -0.1431 C   0  0  0  0  0  0  0  0  0  0  0  0
    4.3921   -0.4557    0.5224 C   0  0  2  0  0  0  0  0  0  0  0  0
    5.4493   -1.4160    0.2883 O   0  0  0  0  0  0  0  0  0  0  0  0
    3.2105   -1.0931   -1.5268 C   0  0  0  0  0  0  0  0  0  0  0  0
    6.3564   -1.8847    1.2109 C   0  0  0  0  0  0  0  0  0  0  0  0
    7.2760   -2.6118    0.8224 O   0  0  0  0  0  0  0  0  0  0  0  0
    6.5930   -0.3283    3.3967 C   0  0  0  0  0  0  0  0  0  0  0  0
    6.1959   -1.6516    2.7401 C   0  0  0  0  0  0  0  0  0  0  0  0
    5.6531    0.7126    3.0158 C   0  0  0  0  0  0  0  0  0  0  0  0
    4.5588    1.0392    3.3591 O   0  0  0  0  0  0  0  0  0  0  0  0
    6.0428    1.0084    1.7951 O   0  0  0  0  0  0  0  0  0  0  0  0
   -1.2279   -0.7147   -1.9415 C   0  0  0  0  0  0  0  0  0  0  0  0
  1  2  1  0
  1 11  1  0
  2  3  1  0
  3  4  2  0
  3  5  1  0
  5  6  2  0
  6  7  1  0
  6 11  1  0
  7  8  1  0
  9  8  1  1
  9 10  1  0
  9 15  1  0
 10 11  1  0
 10 12  1  6
 11 28  1  6
 12 13  1  0
 13 14  1  0
 14 15  1  0
 14 18  1  0
 14 20  1  6
 15 16  1  6
 16 17  1  0
 17 18  1  0
 18 19  1  6
 19 21  1  0
 21 22  2  0
 21 24  1  0
 23 24  1  0
 23 25  1  0
 25 26  2  0
 25 27  1  0
M  END
>  <DRUGBANK_ID>  (1) 
DB08619

>  <COMMON_NAME>  (1) 
Testosterone succinate

>  <CAS_NUMBER>  (1) 
521-15-3

>  <UNII>  (1) 
4114I54YIH

>  <SYNONYMS>  (1) 
Testosterone 17-hemisuccinate; Testosterone hemisuccinate; Testosterone-17-succinate

$$$$
