I06
     RDKit          3D

 20 22  0  0  0  0  0  0  0  0999 V2000
   -2.4453   -0.6645   -0.0717 C   0  0  0  0  0  0  0  0  0  0  0  0
   -1.2320   -1.3278   -0.0733 C   0  0  0  0  0  0  0  0  0  0  0  0
   -0.0472   -0.5935   -0.1800 C   0  0  0  0  0  0  0  0  0  0  0  0
   -0.0460    0.7718    0.0281 C   0  0  0  0  0  0  0  0  0  0  0  0
   -1.2672    1.4394    0.0843 C   0  0  0  0  0  0  0  0  0  0  0  0
   -2.4495    0.7236   -0.1261 C   0  0  0  0  0  0  0  0  0  0  0  0
    1.1922   -1.2588   -0.6109 C   0  0  0  0  0  0  0  0  0  0  0  0
    1.1356   -2.3215   -1.2050 O   0  0  0  0  0  0  0  0  0  0  0  0
    2.3617   -0.6267   -0.2242 N   0  0  0  0  0  0  0  0  0  0  0  0
    2.3891    0.7435    0.0743 N   0  0  0  0  0  0  0  0  0  0  0  0
    1.2340    1.5089    0.0644 C   0  0  0  0  0  0  0  0  0  0  0  0
    1.2602    2.7255    0.0805 O   0  0  0  0  0  0  0  0  0  0  0  0
    3.6255   -1.3502   -0.1576 C   0  0  0  0  0  0  0  0  0  0  0  0
    3.8000   -2.2416    1.1159 C   0  0  0  0  0  0  0  0  0  0  0  0
    2.7785   -3.3476    1.3355 C   0  0  0  0  0  0  0  0  0  0  0  0
    3.1134   -4.7005    1.2504 C   0  0  0  0  0  0  0  0  0  0  0  0
    1.4361   -3.0505    1.5731 C   0  0  0  0  0  0  0  0  0  0  0  0
    2.1158   -5.6688    1.0615 C   0  0  0  0  0  0  0  0  0  0  0  0
    0.4386   -4.0060    1.3558 C   0  0  0  0  0  0  0  0  0  0  0  0
    0.7778   -5.3012    1.0115 C   0  0  0  0  0  0  0  0  0  0  0  0
  1  2  2  0
  1  6  1  0
  2  3  1  0
  3  4  2  0
  3  7  1  0
  4  5  1  0
  4 11  1  0
  5  6  2  0
  7  8  2  0
  7  9  1  0
  9 10  1  0
  9 13  1  0
 10 11  1  0
 11 12  2  0
 13 14  1  0
 14 15  1  0
 15 16  2  0
 15 17  1  0
 16 18  1  0
 17 19  2  0
 18 20  2  0
 19 20  1  0
M  END
>  <DRUGBANK_ID>  (1) 
DB03421

>  <SECONDARY_ACCESSION_NUMBERS>  (1) 
EXPT01806

>  <COMMON_NAME>  (1) 
2-Phenethyl-2,3-Dihydro-Phthalazine-1,4-Dione

$$$$
