
     RDKit          3D

 13 12  0  0  0  0  0  0  0  0999 V2000
    0.7022    0.2250   -0.3077 C   0  0  0  0  0  0  0  0  0  0  0  0
    0.4836    0.0615    1.2896 C   0  0  2  0  0  0  0  0  0  0  0  0
    0.6873    1.3640    2.0799 C   0  0  0  0  0  0  0  0  0  0  0  0
    2.1614    1.6577    2.3221 C   0  0  0  0  0  0  0  0  0  0  0  0
    2.8932    0.5746    3.1332 C   0  0  2  0  0  0  0  0  0  0  0  0
    2.6515   -0.8459    2.6295 C   0  0  0  0  0  0  0  0  0  0  0  0
    1.1961   -1.0760    2.1446 C   0  0  0  0  0  0  0  0  0  0  0  0
    2.5000    0.5846    4.6043 C   0  0  0  0  0  0  0  0  0  0  0  0
    4.2944    0.8455    3.0310 O   0  0  0  0  0  0  0  0  0  0  0  0
    0.0563    1.4770   -0.9388 C   0  0  0  0  0  0  0  0  0  0  0  0
    0.2344   -1.0524   -1.0490 C   0  0  0  0  0  0  0  0  0  0  0  0
    2.0754    0.3960   -0.6874 O   0  0  0  0  0  0  0  0  0  0  0  0
    3.1122   -1.5558   -0.1583 O   0  0  0  0  0  0  0  0  0  0  0  0
  1 10  1  0
  1 11  1  0
  1 12  1  0
  2  1  1  6
  2  3  1  0
  2  7  1  0
  3  4  1  0
  4  5  1  0
  5  6  1  0
  5  9  1  0
  5  8  1  1
  6  7  1  0
M  END
>  <DRUGBANK_ID>  (1) 
DB13163

>  <COMMON_NAME>  (1) 
Terpin hydrate

>  <CAS_NUMBER>  (1) 
2451-01-6

>  <UNII>  (1) 
S3V868548T

>  <SYNONYMS>  (1) 
cis-p-methane-1,8-diol monohydrate; cis-terpin hydrate; Terpin cis-form hydrate; Terpin hydrate; Terpin monohydrate; Terpinene hydrate; Terpinol hydrate

$$$$
