
     RDKit          3D

  6  5  0  0  0  0  0  0  0  0999 V2000
    0.9723   -0.0892   -0.0565 C   0  0  0  0  0  0  0  0  0  0  0  0
    0.4946    0.1716   -1.4600 C   0  0  0  0  0  0  0  0  0  0  0  0
   -0.3874   -0.8831   -2.1275 C   0  0  1  0  0  0  0  0  0  0  0  0
   -1.7401   -0.2825   -2.4734 C   0  0  0  0  0  0  0  0  0  0  0  0
    0.8220    1.2003   -2.0597 O   0  0  0  0  0  0  0  0  0  0  0  0
    0.2345   -1.3533   -3.3174 O   0  0  0  0  0  0  0  0  0  0  0  0
  1  2  1  0
  2  3  1  0
  2  5  2  0
  3  4  1  6
  3  6  1  0
M  END
>  <DRUGBANK_ID>  (1) 
DB04364

>  <SECONDARY_ACCESSION_NUMBERS>  (1) 
EXPT01701

>  <COMMON_NAME>  (1) 
(R)-acetoin

>  <SYNONYMS>  (1) 
(R)-2-acetoin; (R)-3-hydroxy-2-butanone; (R)-3-hydroxybutan-2-one; (R)-dimethylketol

$$$$
