SEH
     RDKit          3D

 17 17  0  0  0  0  0  0  0  0999 V2000
    1.0277    0.0836   -0.0032 C   0  0  0  0  0  0  0  0  0  0  0  0
    0.3968    0.3256   -1.6916 S   0  0  0  0  0  0  0  0  0  0  0  0
    0.5400   -1.2593    0.5325 C   0  0  0  0  0  0  0  0  0  0  0  0
    1.8725    2.7383   -1.3577 C   0  0  0  0  0  0  0  0  0  0  0  0
    3.2294    3.0080   -1.9705 C   0  0  0  0  0  0  0  0  0  0  0  0
    3.6604    4.3239   -2.1906 C   0  0  0  0  0  0  0  0  0  0  0  0
    4.0942    1.9483   -2.2783 C   0  0  0  0  0  0  0  0  0  0  0  0
    4.9352    4.5737   -2.7000 C   0  0  0  0  0  0  0  0  0  0  0  0
    5.3852    2.2034   -2.7395 C   0  0  0  0  0  0  0  0  0  0  0  0
    5.7975    3.5137   -2.9717 C   0  0  0  0  0  0  0  0  0  0  0  0
    0.9807    1.8946   -2.2545 C   0  0  0  0  0  0  0  0  0  0  0  0
    0.6836    2.3934   -3.4220 N   0  0  0  0  0  0  0  0  0  0  0  0
   -0.1101    1.5425   -4.2353 O   0  0  0  0  0  0  0  0  0  0  0  0
   -0.4380    2.1620   -5.7324 S   0  0  0  0  0  0  0  0  0  0  0  0
   -1.2865    3.3272   -5.6145 O   0  0  0  0  0  0  0  0  0  0  0  0
    0.7702    2.2028   -6.5351 O   0  0  0  0  0  0  0  0  0  0  0  0
   -1.3629    1.0301   -6.4224 O   0  0  0  0  0  0  0  0  0  0  0  0
  1  2  1  0
  1  3  1  0
  2 11  1  0
  4  5  1  0
  4 11  1  0
  5  6  2  0
  5  7  1  0
  6  8  1  0
  7  9  2  0
  8 10  2  0
  9 10  1  0
 11 12  2  0
 12 13  1  0
 13 14  1  0
 14 15  2  0
 14 16  2  0
 14 17  1  0
M  END
>  <DRUGBANK_ID>  (1) 
DB04779

>  <COMMON_NAME>  (1) 
ETHYL (1E)-2-PHENYL-N-(SULFOOXY)ETHANIMIDOTHIOATE

$$$$
