952
     RDKit          3D

 23 25  0  0  0  0  0  0  0  0999 V2000
    0.8787    0.0274    0.0126 S   0  0  0  0  0  0  0  0  0  0  0  0
    0.3287    1.2721   -0.5013 O   0  0  0  0  0  0  0  0  0  0  0  0
    0.4157   -1.2444   -0.4690 O   0  0  0  0  0  0  0  0  0  0  0  0
    0.6677   -0.5695   -4.5162 N   0  0  0  0  0  0  0  0  0  0  0  0
    1.7119    4.9830   -4.1507 N   0  0  0  0  0  0  0  0  0  0  0  0
    0.4367    0.0143    1.6302 N   0  0  0  0  0  0  0  0  0  0  0  0
    0.2828    1.9592   -5.8825 C   0  0  0  0  0  0  0  0  0  0  0  0
   -0.9007    1.1821   -5.2859 C   0  0  0  0  0  0  0  0  0  0  0  0
    1.3130    0.9359   -6.4089 C   0  0  0  0  0  0  0  0  0  0  0  0
   -0.4430    0.3434   -4.1166 C   0  0  0  0  0  0  0  0  0  0  0  0
    1.7985    0.0344   -5.2825 C   0  0  0  0  0  0  0  0  0  0  0  0
    0.9238    3.0188   -4.9364 C   0  0  0  0  0  0  0  0  0  0  0  0
    1.6952    2.8485   -3.7144 C   0  0  0  0  0  0  0  0  0  0  0  0
    0.9965    4.3809   -5.1718 C   0  0  0  0  0  0  0  0  0  0  0  0
    2.2073    4.0485   -3.2726 C   0  0  0  0  0  0  0  0  0  0  0  0
    1.0862   -1.3313   -3.3389 C   0  0  0  0  0  0  0  0  0  0  0  0
    2.0933    1.7652   -2.9183 C   0  0  0  0  0  0  0  0  0  0  0  0
    3.0052    1.6680   -1.8965 C   0  0  0  0  0  0  0  0  0  0  0  0
    3.0492    4.0906   -2.1249 C   0  0  0  0  0  0  0  0  0  0  0  0
    3.3478    0.3141   -1.3108 C   0  0  0  0  0  0  0  0  0  0  0  0
    3.4553    2.8860   -1.4717 C   0  0  0  0  0  0  0  0  0  0  0  0
    2.6963    0.0756    0.0464 C   0  0  0  0  0  0  0  0  0  0  0  0
    0.8424    1.1743    2.4175 C   0  0  0  0  0  0  0  0  0  0  0  0
  1  2  2  0
  1  3  2  0
  1  6  1  0
  1 22  1  0
  4 10  1  0
  4 11  1  0
  4 16  1  0
  5 14  1  0
  5 15  1  0
  6 23  1  0
  7  8  1  0
  7  9  1  0
  7 12  1  0
  8 10  1  0
  9 11  1  0
 12 13  1  0
 12 14  2  0
 13 15  2  0
 13 17  1  0
 15 19  1  0
 17 18  2  0
 18 20  1  0
 18 21  1  0
 19 21  2  0
 20 22  1  0
M  END
>  <DRUGBANK_ID>  (1) 
DB00952

>  <SECONDARY_ACCESSION_NUMBERS>  (1) 
APRD00220

>  <COMMON_NAME>  (1) 
Naratriptan

>  <CAS_NUMBER>  (1) 
121679-13-8

>  <UNII>  (1) 
QX3KXL1ZA2

>  <SYNONYMS>  (1) 
N-methyl-2-(3-(1-methylpiperiden-4-yl)indole-5-yl)ethanesulfonamide; N-methyl-2-[3-(1-methyl-4-piperidyl)-1H-indol-5-yl]-ethanesulfonamide; NaratriptÃ¡n; Naratriptan; Naratriptanum

$$$$
