
     RDKit          3D

 37 42  0  0  0  0  0  0  0  0999 V2000
    1.8870   -0.8420    0.0421 C   0  0  0  0  0  0  0  0  0  0  0  0
    1.0047   -1.7672   -0.5698 O   0  0  0  0  0  0  0  0  0  0  0  0
    1.0311   -1.5908   -1.9793 C   0  0  0  0  0  0  0  0  0  0  0  0
    0.2340   -0.3842   -2.5910 C   0  0  0  0  0  0  0  0  0  0  0  0
    0.4151    1.0077   -2.2313 O   0  0  0  0  0  0  0  0  0  0  0  0
    0.0303    1.5519   -1.0287 C   0  0  0  0  0  0  0  0  0  0  0  0
   -0.2861    0.8131    0.0886 C   0  0  0  0  0  0  0  0  0  0  0  0
    0.2775    1.1909    1.3255 C   0  0  0  0  0  0  0  0  0  0  0  0
    0.8106    2.4392    1.5878 C   0  0  0  0  0  0  0  0  0  0  0  0
    0.6102    3.3527    0.5068 C   0  0  0  0  0  0  0  0  0  0  0  0
    0.2968    2.8998   -0.8116 C   0  0  0  0  0  0  0  0  0  0  0  0
    0.8753    2.7663    2.9454 N   0  0  0  0  0  0  0  0  0  0  0  0
    1.6854    2.5479    4.1380 C   0  0  0  0  0  0  0  0  0  0  0  0
    0.8621    2.0866    5.4067 C   0  0  0  0  0  0  0  0  0  0  0  0
   -0.3289    2.8091    5.8844 N   0  0  0  0  0  0  0  0  0  0  0  0
   -1.1572    2.6168    4.7513 C   0  0  0  0  0  0  0  0  0  0  0  0
   -0.4336    3.1459    3.3074 C   0  0  0  0  0  0  0  0  0  0  0  0
   -0.4989    4.2529    6.1825 C   0  0  0  0  0  0  0  0  0  0  0  0
   -0.5953    5.2699    4.9930 C   0  0  0  0  0  0  0  0  0  0  0  0
   -1.8180    5.2895    3.9681 N   0  0  0  0  0  0  0  0  0  0  0  0
   -2.7079    4.2170    3.2028 C   0  0  0  0  0  0  0  0  0  0  0  0
   -2.7787    4.7332    1.9372 C   0  0  0  0  0  0  0  0  0  0  0  0
   -2.3891    6.0617    1.9899 C   0  0  0  0  0  0  0  0  0  0  0  0
   -1.7783    6.3970    3.1394 N   0  0  0  0  0  0  0  0  0  0  0  0
   -3.1867    3.7487    0.8861 C   0  0  0  0  0  0  0  0  0  0  0  0
   -3.6925    3.9093   -0.2716 N   0  0  0  0  0  0  0  0  0  0  0  0
   -4.1300    2.6313   -0.5681 C   0  0  0  0  0  0  0  0  0  0  0  0
   -3.7019    1.6503    0.2369 N   0  0  0  0  0  0  0  0  0  0  0  0
   -3.1245    2.3911    1.1903 N   0  0  0  0  0  0  0  0  0  0  0  0
   -2.8845    1.8876    2.4600 C   0  0  0  0  0  0  0  0  0  0  0  0
   -2.9635    2.7975    3.4386 N   0  0  0  0  0  0  0  0  0  0  0  0
   -2.5474    0.5067    2.6230 N   0  0  0  0  0  0  0  0  0  0  0  0
   -5.0888    2.4134   -1.6366 C   0  0  0  0  0  0  0  0  0  0  0  0
   -6.2969    1.7517   -1.5451 C   0  0  0  0  0  0  0  0  0  0  0  0
   -6.8788    1.8648   -2.8293 C   0  0  0  0  0  0  0  0  0  0  0  0
   -5.9791    2.5617   -3.6030 C   0  0  0  0  0  0  0  0  0  0  0  0
   -4.9192    2.9476   -2.8680 O   0  0  0  0  0  0  0  0  0  0  0  0
  1  2  1  0
  2  3  1  0
  3  4  1  0
  4  5  1  0
  5  6  1  0
  6  7  2  0
  6 11  1  0
  7  8  1  0
  8  9  2  0
  9 10  1  0
  9 12  1  0
 10 11  2  0
 12 13  1  0
 12 17  1  0
 13 14  1  0
 14 15  1  0
 15 16  1  0
 15 18  1  0
 16 17  1  0
 18 19  1  0
 19 20  1  0
 20 21  1  0
 20 24  1  0
 21 22  2  0
 21 31  1  0
 22 23  1  0
 22 25  1  0
 23 24  2  0
 25 26  2  0
 25 29  1  0
 26 27  1  0
 27 28  2  0
 27 33  1  0
 28 29  1  0
 29 30  1  0
 30 31  2  0
 30 32  1  0
 33 34  2  0
 33 37  1  0
 34 35  1  0
 35 36  2  0
 36 37  1  0
M  END
>  <DRUGBANK_ID>  (1) 
DB11864

>  <COMMON_NAME>  (1) 
Preladenant

>  <CAS_NUMBER>  (1) 
377727-87-2

>  <UNII>  (1) 
950O97NUPO

>  <SYNONYMS>  (1) 
Preladenant

$$$$
