
     RDKit          3D

 32 32  0  0  1  0  0  0  0  0999 V2000
   11.2161  -11.2868   -5.8170 C   0  0  0  0  0  0  0  0  0  0  0  0
   11.0274   -9.7940   -6.0227 C   0  0  0  0  0  0  0  0  0  0  0  0
   11.6517   -9.0834   -4.9452 O   0  0  0  0  0  0  0  0  0  0  0  0
   11.0194   -9.2059   -3.7386 C   0  0  0  0  0  0  0  0  0  0  0  0
    9.9707   -9.7955   -3.5505 O   0  0  0  0  0  0  0  0  0  0  0  0
   11.8098   -8.5854   -2.7678 O   0  0  0  0  0  0  0  0  0  0  0  0
   11.2255   -8.5298   -1.4961 C   0  0  0  0  0  0  0  0  0  0  0  0
   11.0248   -9.7569   -0.8561 C   0  0  0  0  0  0  0  0  0  0  0  0
   10.6137   -9.8095    0.4664 C   0  0  0  0  0  0  0  0  0  0  0  0
   10.4107   -8.6261    1.1800 C   0  0  0  0  0  0  0  0  0  0  0  0
    9.9641   -8.7196    2.6211 C   0  0  0  0  0  0  0  0  0  0  0  0
   10.9967   -8.1817    3.6182 C   0  0  0  0  0  0  0  0  0  0  0  0
   11.2168   -6.7391    3.4902 N   0  0  0  0  0  0  0  0  0  0  0  0
   10.9196   -5.7016    4.3383 C   0  0  0  0  0  0  0  0  0  0  0  0
   11.1204   -4.5422    3.9793 O   0  0  0  0  0  0  0  0  0  0  0  0
   10.3237   -6.0533    5.7026 C   0  0  2  0  0  0  0  0  0  0  0  0
    8.8001   -6.2996    5.6124 C   0  0  0  0  0  0  0  0  0  0  0  0
    8.3156   -7.7326    5.9267 C   0  0  0  0  0  0  0  0  0  0  0  0
    8.5355   -8.4568    7.6036 S   0  0  0  0  0  0  0  0  0  0  0  0
   10.3249   -8.4104    7.7847 C   0  0  0  0  0  0  0  0  0  0  0  0
   10.6534   -5.0886    6.7782 N   0  0  0  0  0  0  0  0  0  0  0  0
   11.5835   -5.3219    7.7788 C   0  0  0  0  0  0  0  0  0  0  0  0
   11.6466   -4.2918    8.8712 C   0  0  0  0  0  0  0  0  0  0  0  0
   12.2953   -6.3220    7.8579 O   0  0  0  0  0  0  0  0  0  0  0  0
   10.5895   -7.3854    0.5221 C   0  0  0  0  0  0  0  0  0  0  0  0
   10.9724   -7.3237   -0.8287 C   0  0  0  0  0  0  0  0  0  0  0  0
   11.0667   -6.0088   -1.3831 O   0  0  0  0  0  0  0  0  0  0  0  0
   10.9770   -5.7841   -2.7544 C   0  0  0  0  0  0  0  0  0  0  0  0
   10.7863   -6.6414   -3.6182 O   0  0  0  0  0  0  0  0  0  0  0  0
   11.1410   -4.4730   -3.0870 O   0  0  0  0  0  0  0  0  0  0  0  0
   11.2543   -4.3179   -4.5219 C   0  0  0  0  0  0  0  0  0  0  0  0
   12.6233   -4.8037   -4.9947 C   0  0  0  0  0  0  0  0  0  0  0  0
  1  2  1  0
  2  3  1  0
  3  4  1  0
  4  5  2  0
  4  6  1  0
  6  7  1  0
  7  8  2  0
  7 26  1  0
  8  9  1  0
  9 10  2  0
 10 11  1  0
 10 25  1  0
 11 12  1  0
 12 13  1  0
 13 14  1  0
 14 15  2  0
 16 21  1  0
 16 17  1  6
 16 14  1  0
 17 18  1  0
 18 19  1  0
 19 20  1  0
 21 22  1  0
 22 23  1  0
 22 24  2  0
 25 26  2  0
 26 27  1  0
 27 28  1  0
 28 29  2  0
 28 30  1  0
 30 31  1  0
 31 32  1  0
M  END
>  <DRUGBANK_ID>  (1) 
DB18046

>  <COMMON_NAME>  (1) 
Docarpamine

>  <CAS_NUMBER>  (1) 
74639-40-0

>  <UNII>  (1) 
RPQ57D8S72

>  <SYNONYMS>  (1) 
(-)-(s)-2-acetamido-n-(3,4-dihydroxyphenethyl)-4-(methylthio)butyramide bis(ethyl carbonate) (ester); Docarpamine; Tanadopa

$$$$
