798
     RDKit          3D

 26 29  0  0  0  0  0  0  0  0999 V2000
    3.8931   -0.4878   -0.8723 O   0  0  0  0  0  0  0  0  0  0  0  0
    3.6013   -0.2085   -2.0344 C   0  0  0  0  0  0  0  0  0  0  0  0
    3.5959   -1.2523   -3.0816 C   0  0  0  0  0  0  0  0  0  0  0  0
    3.0216   -2.4917   -2.7999 C   0  0  0  0  0  0  0  0  0  0  0  0
    2.8983   -3.4409   -3.8171 C   0  0  0  0  0  0  0  0  0  0  0  0
    3.3634   -3.1576   -5.1092 C   0  0  0  0  0  0  0  0  0  0  0  0
    3.3428   -4.1780   -6.1445 C   0  0  0  0  0  0  0  0  0  0  0  0
    2.1742   -4.7637   -6.5868 C   0  0  0  0  0  0  0  0  0  0  0  0
    2.4588   -5.9574   -7.7836 S   0  0  0  0  0  0  0  0  0  0  0  0
    4.1479   -5.6973   -7.7248 C   0  0  0  0  0  0  0  0  0  0  0  0
    4.4858   -4.7201   -6.8156 C   0  0  0  0  0  0  0  0  0  0  0  0
    3.9461   -1.9140   -5.3793 C   0  0  0  0  0  0  0  0  0  0  0  0
    4.1062   -0.9797   -4.3572 C   0  0  0  0  0  0  0  0  0  0  0  0
    3.2976    1.1856   -2.4245 C   0  0  0  0  0  0  0  0  0  0  0  0
    2.2449    1.5076   -3.2943 C   0  0  0  0  0  0  0  0  0  0  0  0
    2.0984    2.8228   -3.7494 C   0  0  0  0  0  0  0  0  0  0  0  0
    2.9667    3.8188   -3.2971 C   0  0  0  0  0  0  0  0  0  0  0  0
    4.0240    3.4708   -2.4498 C   0  0  0  0  0  0  0  0  0  0  0  0
    4.1652    2.1724   -1.9766 C   0  0  0  0  0  0  0  0  0  0  0  0
    2.6376    5.1041   -3.6468 O   0  0  0  0  0  0  0  0  0  0  0  0
    3.3129    6.1732   -2.9567 C   0  0  0  0  0  0  0  0  0  0  0  0
    3.1869    6.1925   -1.3937 C   0  0  2  0  0  0  0  0  0  0  0  0
    2.3104    5.1594   -0.8170 N   0  0  0  0  0  0  0  0  0  0  0  0
    0.9441    5.6690   -0.8741 C   0  0  0  0  0  0  0  0  0  0  0  0
    1.0675    7.1787   -1.0158 C   0  0  0  0  0  0  0  0  0  0  0  0
    2.5498    7.4573   -0.8468 C   0  0  0  0  0  0  0  0  0  0  0  0
  1  2  2  0
  2  3  1  0
  3  4  2  0
  4  5  1  0
  6  5  2  0
  6  7  1  0
  7  8  2  0
  8  9  1  0
 10  9  1  0
 11  7  1  0
 11 10  2  0
 12  6  1  0
 13  3  1  0
 13 12  2  0
 14  2  1  0
 14 19  1  0
 15 14  2  0
 16 15  1  0
 16 17  2  0
 17 18  1  0
 18 19  2  0
 20 17  1  0
 21 20  1  0
 22 23  1  0
 22 26  1  0
 22 21  1  6
 23 24  1  0
 24 25  1  0
 26 25  1  0
M  END
>  <DRUGBANK_ID>  (1) 
DB07237

>  <COMMON_NAME>  (1) 
{4-[(2R)-pyrrolidin-2-ylmethoxy]phenyl}(4-thiophen-3-ylphenyl)methanone

$$$$
