
     RDKit          3D

 20 19  0  0  0  0  0  0  0  0999 V2000
    0.9200    0.1220   -0.0199 C   0  0  0  0  0  0  0  0  0  0  0  0
    0.4765   -0.6801   -1.2328 C   0  0  0  0  0  0  0  0  0  0  0  0
    0.9700   -2.1243   -1.1305 C   0  0  0  0  0  0  0  0  0  0  0  0
    0.4100   -2.8199    0.1144 C   0  0  0  0  0  0  0  0  0  0  0  0
   -1.1236   -2.8158    0.0971 C   0  0  0  0  0  0  0  0  0  0  0  0
   -1.6558   -3.5766   -1.1235 C   0  0  0  0  0  0  0  0  0  0  0  0
   -1.1803   -5.0266   -1.0940 C   0  0  0  0  0  0  0  0  0  0  0  0
   -1.5980   -5.6906    0.2075 C   0  0  0  0  0  0  0  0  0  0  0  0
   -3.0900   -5.7662    0.2457 C   0  0  0  0  0  0  0  0  0  0  0  0
   -3.7531   -6.9175    0.2102 C   0  0  0  0  0  0  0  0  0  0  0  0
   -3.0711   -8.2435    0.2979 C   0  0  0  0  0  0  0  0  0  0  0  0
   -3.4745   -8.9044    1.6061 C   0  0  0  0  0  0  0  0  0  0  0  0
   -4.9652   -9.2273    1.5934 C   0  0  0  0  0  0  0  0  0  0  0  0
   -5.3031  -10.0910    0.3742 C   0  0  0  0  0  0  0  0  0  0  0  0
   -4.5076  -11.4039    0.4124 C   0  0  0  0  0  0  0  0  0  0  0  0
   -4.9329  -12.2582    1.6035 C   0  0  0  0  0  0  0  0  0  0  0  0
   -6.4359  -12.5372    1.6151 C   0  0  0  0  0  0  0  0  0  0  0  0
   -6.9216  -13.4408    0.4928 C   0  0  0  0  0  0  0  0  0  0  0  0
   -7.3161  -14.5817    0.7497 O   0  0  0  0  0  0  0  0  0  0  0  0
   -6.9572  -12.7441   -1.1038 Cl  0  0  0  0  0  0  0  0  0  0  0  0
  1  2  1  0
  2  3  1  0
  3  4  1  0
  4  5  1  0
  5  6  1  0
  6  7  1  0
  7  8  1  0
  8  9  1  0
  9 10  2  0
 10 11  1  0
 11 12  1  0
 12 13  1  0
 13 14  1  0
 14 15  1  0
 15 16  1  0
 16 17  1  0
 17 18  1  0
 18 19  2  0
 18 20  1  0
M  END
>  <DRUGBANK_ID>  (1) 
DB14666

>  <SECONDARY_ACCESSION_NUMBERS>  (1) 
DBSALT002228

>  <COMMON_NAME>  (1) 
Oleoyl chloride

>  <CAS_NUMBER>  (1) 
112-77-6

>  <UNII>  (1) 
U83VP176UX

>  <SYNONYMS>  (1) 
Oleic acid chloride; Oleic chloride; Oleyl chloride

$$$$
