CXB
     RDKit          3D

 17 17  0  0  0  0  0  0  0  0999 V2000
    1.0911    0.0327    0.0250 C   0  0  0  0  0  0  0  0  0  0  0  0
    0.6178    1.3622    0.1828 O   0  0  0  0  0  0  0  0  0  0  0  0
    0.9488    2.0787    1.3026 N   0  0  0  0  0  0  0  0  0  0  0  0
    0.5102    3.3104    1.4489 C   0  0  0  0  0  0  0  0  0  0  0  0
   -0.3637    3.9385    0.3755 C   0  0  0  0  0  0  0  0  0  0  0  0
   -0.7873    5.1284    0.5168 O   0  0  0  0  0  0  0  0  0  0  0  0
   -0.7188    3.1697   -0.8261 N   0  0  0  0  0  0  0  0  0  0  0  0
   -0.2288    1.7935   -0.9895 C   0  0  0  0  0  0  0  0  0  0  0  0
   -1.4732    0.7948   -1.1081 B   0  0  0  0  0  0  0  0  0  0  0  0
   -1.6483   -0.0423   -2.3404 O   0  0  0  0  0  0  0  0  0  0  0  0
   -2.4648    0.6957    0.0131 O   0  0  0  0  0  0  0  0  0  0  0  0
    0.8774    4.1054    2.6913 C   0  0  0  0  0  0  0  0  0  0  0  0
   -0.0905    4.6709    3.4357 C   0  0  0  0  0  0  0  0  0  0  0  0
    0.5652    5.3404    4.8740 S   0  0  0  0  0  0  0  0  0  0  0  0
    2.1361    4.7742    4.3779 C   0  0  0  0  0  0  0  0  0  0  0  0
    3.2122    4.9757    5.1467 N   0  0  0  0  0  0  0  0  0  0  0  0
    2.1551    4.1573    3.2268 N   0  0  0  0  0  0  0  0  0  0  0  0
  1  2  1  0
  2  3  1  0
  3  4  2  0
  4  5  1  0
  4 12  1  0
  5  6  2  0
  5  7  1  0
  7  8  1  0
  8  9  1  0
  9 10  1  0
  9 11  1  0
 12 13  2  0
 12 17  1  0
 13 14  1  0
 14 15  1  0
 15 16  1  0
 15 17  2  0
M  END
>  <DRUGBANK_ID>  (1) 
DB07599

>  <COMMON_NAME>  (1) 
[(2-AMINO-ALPHA-METHOXYIMINO-4-THIAZOLYLACETYL)AMINO]METHYLBORONIC ACID

$$$$
