978
     RDKit          3D

 25 27  0  0  1  0  0  0  0  0999 V2000
    0.9378   -0.1084    0.3845 F   0  0  0  0  0  0  0  0  0  0  0  0
    4.9888   -2.4625    0.0532 F   0  0  0  0  0  0  0  0  0  0  0  0
    6.3441    2.2814    0.0207 O   0  0  0  0  0  0  0  0  0  0  0  0
    4.4584    6.0998    0.0356 O   0  0  0  0  0  0  0  0  0  0  0  0
    6.3911    5.0046    0.0344 O   0  0  0  0  0  0  0  0  0  0  0  0
    2.1378   -2.4790    0.0048 N   0  0  0  0  0  0  0  0  0  0  0  0
    1.0133   -5.0041   -0.8532 N   0  0  0  0  0  0  0  0  0  0  0  0
    2.2849    2.4193    0.0329 N   0  0  0  0  0  0  0  0  0  0  0  0
    2.1412   -4.9374    0.1233 C   0  0  0  0  0  0  0  0  0  0  0  0
    2.1686   -3.6086    0.9376 C   0  0  0  0  0  0  0  0  0  0  0  0
    1.0170   -2.4934   -0.9470 C   0  0  0  0  0  0  0  0  0  0  0  0
    1.0482   -3.8168   -1.7359 C   0  0  0  0  0  0  0  0  0  0  0  0
    2.8992   -1.3316    0.1366 C   0  0  0  0  0  0  0  0  0  0  0  0
    3.4838   -5.1274   -0.5886 C   0  0  0  0  0  0  0  0  0  0  0  0
    2.2698   -0.0774    0.1997 C   0  0  0  0  0  0  0  0  0  0  0  0
    2.9359    1.1636    0.1027 C   0  0  0  0  0  0  0  0  0  0  0  0
    4.2959   -1.3152    0.1068 C   0  0  0  0  0  0  0  0  0  0  0  0
    4.3334    1.1101    0.0607 C   0  0  0  0  0  0  0  0  0  0  0  0
    5.0117   -0.1178    0.0737 C   0  0  0  0  0  0  0  0  0  0  0  0
    0.8055    2.4454    0.0014 C   0  0  0  0  0  0  0  0  0  0  0  0
    5.1209    2.3663    0.0299 C   0  0  0  0  0  0  0  0  0  0  0  0
    3.0515    3.5837    0.0260 C   0  0  0  0  0  0  0  0  0  0  0  0
    4.3955    3.6752    0.0294 C   0  0  0  0  0  0  0  0  0  0  0  0
    0.2325    1.8519   -1.2878 C   0  0  0  0  0  0  0  0  0  0  0  0
    5.1672    4.9502    0.0327 C   0  0  0  0  0  0  0  0  0  0  0  0
  1 15  1  0
  2 17  1  0
  3 21  2  0
  4 25  1  0
  5 25  2  0
  6 10  1  0
  6 11  1  0
  6 13  1  0
  7  9  1  0
  7 12  1  0
  8 16  1  0
  8 20  1  0
  8 22  1  0
  9 10  1  0
  9 14  1  0
 11 12  1  0
 13 15  1  0
 13 17  2  0
 15 16  2  0
 16 18  1  0
 17 19  1  0
 18 19  2  0
 18 21  1  0
 20 24  1  0
 21 23  1  0
 22 23  2  0
 23 25  1  0
M  END
>  <DRUGBANK_ID>  (1) 
DB00978

>  <SECONDARY_ACCESSION_NUMBERS>  (1) 
APRD01076

>  <COMMON_NAME>  (1) 
Lomefloxacin

>  <CAS_NUMBER>  (1) 
98079-51-7

>  <UNII>  (1) 
L6BR2WJD8V

>  <SYNONYMS>  (1) 
(Â±)-1-ethyl-6,8-difluoro-1,4-dihydro-7-(3-methyl-1-piperazinyl)-4-oxo-3-quinolinecarboxylic acid; 1,4-Dihydro-6,8-difluoro-1-ethyl-7-(3-methyl-1-piperazinyl)-4-oxo-3-quinolinecarboxylic acid; LFLX; Lomefloxacin; Lomefloxacine; Lomefloxacino; Lomefloxacinum

$$$$
