
     RDKit          3D

 42 47  0  0  1  0  0  0  0  0999 V2000
   -2.0335    0.0322   -0.0049 C   0  0  0  0  0  0  0  0  0  0  0  0
   -1.3176    1.2433   -0.0221 C   0  0  0  0  0  0  0  0  0  0  0  0
    0.0535    1.2231   -0.2420 C   0  0  0  0  0  0  0  0  0  0  0  0
    0.6048   -0.0152   -0.5554 C   0  0  0  0  0  0  0  0  0  0  0  0
    0.0011   -1.2130   -0.1900 C   0  0  0  0  0  0  0  0  0  0  0  0
   -1.3596   -1.1952    0.0035 C   0  0  0  0  0  0  0  0  0  0  0  0
   -2.0668   -2.3958    0.0357 N   0  0  0  0  0  0  0  0  0  0  0  0
   -1.8929   -3.4105    1.0168 C   0  0  0  0  0  0  0  0  0  0  0  0
   -3.0684   -4.3237    0.7207 C   0  0  1  0  0  0  0  0  0  0  0  0
   -3.4634   -4.0153   -0.6238 O   0  0  0  0  0  0  0  0  0  0  0  0
   -2.9178   -2.8086   -0.9653 C   0  0  0  0  0  0  0  0  0  0  0  0
   -3.1525   -2.2428   -2.0203 O   0  0  0  0  0  0  0  0  0  0  0  0
   -2.7199   -5.7991    0.8381 C   0  0  0  0  0  0  0  0  0  0  0  0
   -2.3289   -6.1254    2.1653 O   0  0  0  0  0  0  0  0  0  0  0  0
    1.8095   -0.0917   -1.1308 F   0  0  0  0  0  0  0  0  0  0  0  0
    0.7594    2.3890   -0.0882 O   0  0  0  0  0  0  0  0  0  0  0  0
    2.2123    2.3473   -0.0050 C   0  0  0  0  0  0  0  0  0  0  0  0
    2.8220    1.6967    1.2864 C   0  0  0  0  0  0  0  0  0  0  0  0
    4.3622    1.8107    1.2665 C   0  0  0  0  0  0  0  0  0  0  0  0
    4.9686    0.9035    2.3400 C   0  0  0  0  0  0  0  0  0  0  0  0
    4.4589   -0.4419    2.0675 N   0  0  0  0  0  0  0  0  0  0  0  0
    3.0739   -0.6421    2.4131 C   0  0  0  0  0  0  0  0  0  0  0  0
    2.4208    0.2271    1.3988 C   0  0  0  0  0  0  0  0  0  0  0  0
    5.2916   -1.5213    1.9201 C   0  0  0  0  0  0  0  0  0  0  0  0
    5.3603   -2.4117    0.8247 C   0  0  0  0  0  0  0  0  0  0  0  0
    6.1835   -3.6253    0.9610 C   0  0  0  0  0  0  0  0  0  0  0  0
    6.5422   -4.1069    2.2223 C   0  0  0  0  0  0  0  0  0  0  0  0
    6.7422   -3.0515    3.1091 C   0  0  0  0  0  0  0  0  0  0  0  0
    6.1336   -1.8098    2.9698 C   0  0  0  0  0  0  0  0  0  0  0  0
    6.2844   -0.9233    3.9641 F   0  0  0  0  0  0  0  0  0  0  0  0
    7.5107   -5.3556    2.1819 C   0  0  0  0  0  0  0  0  0  0  0  0
    7.0984   -6.5397    2.1237 O   0  0  0  0  0  0  0  0  0  0  0  0
    8.9553   -5.1280    1.9430 C   0  0  0  0  0  0  0  0  0  0  0  0
    8.7968   -4.0805    1.0757 C   0  0  0  0  0  0  0  0  0  0  0  0
    7.4498   -3.8726    0.1375 N   0  0  0  0  0  0  0  0  0  0  0  0
    7.1431   -5.1175   -0.9205 C   0  0  0  0  0  0  0  0  0  0  0  0
    7.0624   -6.6582   -0.6987 C   0  0  0  0  0  0  0  0  0  0  0  0
    8.3446   -5.9841   -1.0730 C   0  0  0  0  0  0  0  0  0  0  0  0
    9.9195   -6.3028    1.7604 C   0  0  0  0  0  0  0  0  0  0  0  0
   10.0019   -7.0836    0.8192 O   0  0  0  0  0  0  0  0  0  0  0  0
   10.7953   -6.4908    2.7760 O   0  0  0  0  0  0  0  0  0  0  0  0
    2.3235    2.3947    2.4340 O   0  0  0  0  0  0  0  0  0  0  0  0
  1  2  2  0
  1  6  1  0
  2  3  1  0
  3  4  2  0
  3 16  1  0
  4  5  1  0
  4 15  1  0
  5  6  2  0
  6  7  1  0
  7  8  1  0
  7 11  1  0
  8  9  1  0
  9 10  1  0
  9 13  1  6
 10 11  1  0
 11 12  2  0
 13 14  1  0
 16 17  1  0
 17 18  1  0
 18 19  1  0
 18 23  1  0
 18 42  1  0
 19 20  1  0
 20 21  1  0
 21 22  1  0
 21 24  1  0
 22 23  1  0
 24 25  2  0
 24 29  1  0
 25 26  1  0
 26 27  2  0
 26 35  1  0
 27 28  1  0
 27 31  1  0
 28 29  2  0
 29 30  1  0
 31 32  2  0
 31 33  1  0
 33 34  2  0
 33 39  1  0
 34 35  1  0
 35 36  1  0
 36 37  1  0
 36 38  1  0
 37 38  1  0
 39 40  2  0
 39 41  1  0
M  END
>  <DRUGBANK_ID>  (1) 
DB11847

>  <COMMON_NAME>  (1) 
Cadazolid

>  <CAS_NUMBER>  (1) 
1025097-10-2

>  <UNII>  (1) 
2OEA2UN10Y

>  <SYNONYMS>  (1) 
Cadazolid

$$$$
