VPU
     RDKit          3D

 28 29  0  0  0  0  0  0  0  0999 V2000
    1.4463   -0.2129   -0.6251 C   0  0  0  0  0  0  0  0  0  0  0  0
    0.9173   -1.2786   -1.5785 C   0  0  0  0  0  0  0  0  0  0  0  0
    1.0956   -2.6211   -0.8741 C   0  0  0  0  0  0  0  0  0  0  0  0
    0.3486   -2.8151    0.4873 C   0  0  0  0  0  0  0  0  0  0  0  0
   -1.2083   -2.7287    0.5105 C   0  0  0  0  0  0  0  0  0  0  0  0
   -1.8577   -3.7381    0.8036 O   0  0  0  0  0  0  0  0  0  0  0  0
   -1.9308   -1.5540    0.2762 N   0  0  0  0  0  0  0  0  0  0  0  0
   -1.3473   -0.1897    0.2255 C   0  0  2  0  0  0  0  0  0  0  0  0
   -0.7340    0.0863    1.6475 C   0  0  1  0  0  0  0  0  0  0  0  0
    0.6515    0.2763    1.9244 O   0  0  0  0  0  0  0  0  0  0  0  0
   -1.5404    1.1999    2.2360 C   0  0  2  0  0  0  0  0  0  0  0  0
   -2.8906    0.7619    2.4062 O   0  0  0  0  0  0  0  0  0  0  0  0
   -1.4618    2.4467    1.3324 C   0  0  1  0  0  0  0  0  0  0  0  0
   -0.0606    3.0945    1.1850 C   0  0  0  0  0  0  0  0  0  0  0  0
    0.8564    2.7556    2.2212 O   0  0  0  0  0  0  0  0  0  0  0  0
   -1.9881    2.2211   -0.0031 O   0  0  0  0  0  0  0  0  0  0  0  0
   -1.4856    1.1556   -0.6717 C   0  0  0  0  0  0  0  0  0  0  0  0
   -0.9997    1.2389   -1.8944 N   0  0  0  0  0  0  0  0  0  0  0  0
   -0.9852    2.5550   -2.4521 O   0  0  0  0  0  0  0  0  0  0  0  0
   -0.2543    2.6890   -3.6396 C   0  0  0  0  0  0  0  0  0  0  0  0
    0.4532    1.7975   -4.1714 O   0  0  0  0  0  0  0  0  0  0  0  0
   -0.4023    3.9088   -4.2853 N   0  0  0  0  0  0  0  0  0  0  0  0
   -0.9980    5.0460   -3.7114 C   0  0  0  0  0  0  0  0  0  0  0  0
   -0.7844    5.3101   -2.3589 C   0  0  0  0  0  0  0  0  0  0  0  0
   -1.3535    6.4191   -1.7497 C   0  0  0  0  0  0  0  0  0  0  0  0
   -2.1196    7.2997   -2.5032 C   0  0  0  0  0  0  0  0  0  0  0  0
   -2.2986    7.0765   -3.8704 C   0  0  0  0  0  0  0  0  0  0  0  0
   -1.7495    5.9399   -4.4795 C   0  0  0  0  0  0  0  0  0  0  0  0
  1  2  1  0
  2  3  1  0
  3  4  1  0
  4  5  1  0
  5  6  2  0
  5  7  1  0
  8  7  1  1
  8  9  1  0
  8 17  1  0
  9 11  1  0
  9 10  1  6
 11 12  1  6
 11 13  1  0
 13 16  1  0
 13 14  1  6
 14 15  1  0
 16 17  1  0
 17 18  2  0
 18 19  1  0
 19 20  1  0
 20 21  2  0
 20 22  1  0
 22 23  1  0
 23 24  2  0
 23 28  1  0
 24 25  1  0
 25 26  2  0
 26 27  1  0
 27 28  2  0
M  END
>  <DRUGBANK_ID>  (1) 
DB08704

>  <COMMON_NAME>  (1) 
[[(3R,4R,5S,6R)-4,5-dihydroxy-6-(hydroxymethyl)-3-(pentanoylamino)oxan-2-ylidene]amino] N-phenylcarbamate

$$$$
