
     RDKit          3D

 11 12  0  0  1  0  0  0  0  0999 V2000
    1.0145   -0.0813    0.4470 C   0  0  0  0  0  0  0  0  0  0  0  0
    0.5025   -1.1990   -0.5077 C   0  0  0  0  0  0  0  0  0  0  0  0
    1.7626   -1.8974   -1.0356 C   0  0  0  0  0  0  0  0  0  0  0  0
   -0.4433   -2.3380    0.0164 C   0  0  2  0  0  0  0  0  0  0  0  0
   -0.9696   -2.9906   -1.2994 C   0  0  0  0  0  0  0  0  0  0  0  0
   -1.1085   -1.8014   -2.2488 C   0  0  0  0  0  0  0  0  0  0  0  0
   -0.6642   -0.6111   -1.3790 C   0  0  2  0  0  0  0  0  0  0  0  0
   -0.3841    0.6279   -2.2271 C   0  0  0  0  0  0  0  0  0  0  0  0
   -1.6968   -0.3352   -0.1999 C   0  0  1  0  0  0  0  0  0  0  0  0
   -3.0244   -0.0473   -0.5600 O   0  0  0  0  0  0  0  0  0  0  0  0
   -1.5999   -1.5923    0.6760 C   0  0  0  0  0  0  0  0  0  0  0  0
  1  2  1  0
  2  3  1  0
  4  2  1  0
  4  5  1  6
  4 11  1  0
  5  6  1  0
  7  6  1  0
  7  2  1  0
  7  9  1  0
  7  8  1  6
  9 11  1  0
  9 10  1  6
M  END
>  <DRUGBANK_ID>  (1) 
DB17066

>  <COMMON_NAME>  (1) 
D-Borneol

>  <CAS_NUMBER>  (1) 
464-43-7

>  <UNII>  (1) 
8D24LWT4FK

>  <SYNONYMS>  (1) 
(1r,2s,4r)-borneol; Borneol d-form; Borneol, (+)-; Borneol, d-; D-camphanol

$$$$
