
     RDKit          3D

 27 30  0  0  1  0  0  0  0  0999 V2000
    2.3651   -0.2248    1.2810 C   0  0  0  0  0  0  0  0  0  0  0  0
    2.5863    0.5727    2.9973 C   0  0  1  0  0  0  0  0  0  0  0  0
    1.8310    0.0161    4.2117 C   0  0  0  0  0  0  0  0  0  0  0  0
    1.5131   -1.3747    3.9718 C   0  0  1  0  0  0  0  0  0  0  0  0
    2.7864   -2.1971    3.8703 C   0  0  2  0  0  0  0  0  0  0  0  0
    3.8217   -1.4749    2.8447 C   0  0  1  0  0  0  0  0  0  0  0  0
    3.8345    0.4554    2.4219 C   0  0  1  0  0  0  0  0  0  0  0  0
    2.6241    1.8611    1.6782 C   0  0  0  0  0  0  0  0  0  0  0  0
    1.5639    2.4503    2.7304 C   0  0  0  0  0  0  0  0  0  0  0  0
    0.4146    1.8055    2.3357 C   0  0  0  0  0  0  0  0  0  0  0  0
    2.9189    2.2232    3.3568 C   0  0  2  0  0  0  0  0  0  0  0  0
    4.2391    3.2120    2.5500 C   0  0  0  0  0  0  0  0  0  0  0  0
    4.0388    4.2607    1.9020 O   0  0  0  0  0  0  0  0  0  0  0  0
    5.6605    2.7246    2.5516 C   0  0  0  0  0  0  0  0  0  0  0  0
    6.0258    2.8217    3.9093 O   0  0  0  0  0  0  0  0  0  0  0  0
    3.1146    2.5004    4.7256 O   0  0  0  0  0  0  0  0  0  0  0  0
    4.9784   -2.5575    2.8772 C   0  0  0  0  0  0  0  0  0  0  0  0
    4.4026   -4.1935    2.4299 C   0  0  0  0  0  0  0  0  0  0  0  0
    2.8640   -4.7952    2.5624 C   0  0  0  0  0  0  0  0  0  0  0  0
    2.0057   -5.4123    1.5224 C   0  0  0  0  0  0  0  0  0  0  0  0
    0.8185   -4.4108    0.9038 C   0  0  0  0  0  0  0  0  0  0  0  0
    0.6492   -4.0134   -0.2324 O   0  0  0  0  0  0  0  0  0  0  0  0
    0.2317   -3.7182    2.0524 C   0  0  0  0  0  0  0  0  0  0  0  0
    1.4227   -3.2007    2.3337 C   0  0  0  0  0  0  0  0  0  0  0  0
    2.2381   -3.7005    3.4785 C   0  0  2  0  0  0  0  0  0  0  0  0
    1.5726   -4.3644    4.7383 C   0  0  0  0  0  0  0  0  0  0  0  0
    0.5602   -1.8590    4.8927 O   0  0  0  0  0  0  0  0  0  0  0  0
  2  3  1  0
  2  7  1  0
  2 11  1  0
  2  1  1  6
  3  4  1  0
  4 27  1  1
  5  4  1  6
  5  6  1  0
  5 25  1  0
  6  7  1  0
  6 17  1  1
  7  8  1  6
  8  9  1  0
  9 11  1  0
  9 10  2  0
 11 16  1  1
 11 12  1  0
 12 13  2  0
 12 14  1  0
 14 15  1  0
 17 18  1  0
 18 19  1  0
 19 20  2  0
 19 25  1  0
 20 21  1  0
 21 23  1  0
 21 22  2  0
 23 24  2  0
 24 25  1  0
 25 26  1  1
M  END
>  <DRUGBANK_ID>  (1) 
DB13208

>  <COMMON_NAME>  (1) 
Prednylidene

>  <CAS_NUMBER>  (1) 
599-33-7

>  <UNII>  (1) 
IF8PQP966U

>  <SYNONYMS>  (1) 
Prednylidene

$$$$
