
     RDKit          3D

 23 27  0  0  0  0  0  0  0  0999 V2000
    3.6319    0.1432    0.9754 C   0  0  0  0  0  0  0  0  0  0  0  0
   -3.6109   -0.0428    0.8456 C   0  0  0  0  0  0  0  0  0  0  0  0
    3.2937   -1.1722    0.6998 C   0  0  0  0  0  0  0  0  0  0  0  0
   -3.1780   -1.3589    0.6911 C   0  0  0  0  0  0  0  0  0  0  0  0
    2.6691    1.1269    0.7867 C   0  0  0  0  0  0  0  0  0  0  0  0
   -2.8649    1.0093    0.3125 C   0  0  0  0  0  0  0  0  0  0  0  0
    2.0044   -1.4564    0.2627 C   0  0  0  0  0  0  0  0  0  0  0  0
   -1.9995   -1.6255   -0.0042 C   0  0  0  0  0  0  0  0  0  0  0  0
    0.4767    2.0165    0.0031 C   0  0  0  0  0  0  0  0  0  0  0  0
   -0.7810    1.8625   -0.8585 C   0  0  0  0  0  0  0  0  0  0  0  0
    0.7570   -3.2437   -3.9980 C   0  0  0  0  0  0  0  0  0  0  0  0
    2.4437   -2.5204   -2.4527 C   0  0  0  0  0  0  0  0  0  0  0  0
    1.4036   -2.2447   -4.9791 C   0  0  0  0  0  0  0  0  0  0  0  0
    2.9393   -1.4131   -3.3733 C   0  0  0  0  0  0  0  0  0  0  0  0
    0.7674   -0.4038   -3.4920 C   0  0  0  0  0  0  0  0  0  0  0  0
    1.4431    0.8581    0.1388 C   0  0  0  0  0  0  0  0  0  0  0  0
   -1.6693    0.7481   -0.3684 C   0  0  0  0  0  0  0  0  0  0  0  0
    0.9176   -2.7141   -2.5559 C   0  0  0  0  0  0  0  0  0  0  0  0
    1.1642   -0.4651   -0.2527 C   0  0  0  0  0  0  0  0  0  0  0  0
   -1.2352   -0.5779   -0.5303 C   0  0  0  0  0  0  0  0  0  0  0  0
    0.1512   -1.3729   -2.4318 C   0  0  0  0  0  0  0  0  0  0  0  0
    1.8728   -1.0155   -4.3030 N   0  0  0  0  0  0  0  0  0  0  0  0
    0.0579   -0.8385   -1.0207 N   0  0  0  0  0  0  0  0  0  0  0  0
  3  1  2  0
  4  2  2  0
  5  1  1  0
  6  2  1  0
  7  3  1  0
  8  4  1  0
 10  9  1  0
 13 11  1  0
 14 12  1  0
 16  5  2  0
 16  9  1  0
 17  6  2  0
 17 10  1  0
 18 11  1  0
 18 12  1  0
 19  7  2  0
 19 16  1  0
 20  8  2  0
 20 17  1  0
 21 15  1  0
 21 18  1  0
 22 13  1  0
 22 14  1  0
 22 15  1  0
 23 19  1  0
 23 20  1  0
 23 21  1  0
M  END
>  <DRUGBANK_ID>  (1) 
DB13246

>  <COMMON_NAME>  (1) 
Quinupramine

>  <CAS_NUMBER>  (1) 
31721-17-2

>  <UNII>  (1) 
29O61HFF4L

>  <SYNONYMS>  (1) 
Quinupramine

$$$$
