
     RDKit          3D

 24 26  0  0  0  0  0  0  0  0999 V2000
    1.9551    0.4841    0.6968 C   0  0  1  0  0  0  0  0  0  0  0  0
    1.9541   -1.3093    0.9108 C   0  0  2  0  0  0  0  0  0  0  0  0
   -0.1470   -0.1808    2.2074 N   0  0  0  0  0  0  0  0  0  0  0  0
    2.5524   -0.4362    0.0104 O   0  0  0  0  0  0  0  0  0  0  0  0
   -0.0290    1.1079    1.1804 C   0  0  2  0  0  0  0  0  0  0  0  0
    0.0547   -1.6872    1.2689 C   0  0  1  0  0  0  0  0  0  0  0  0
    1.5509    0.2296   -1.9117 C   0  0  2  0  0  0  0  0  0  0  0  0
    0.1029    0.1356   -3.0165 C   0  0  0  0  0  0  0  0  0  0  0  0
    1.3869   -1.8353   -1.4831 C   0  0  0  0  0  0  0  0  0  0  0  0
   -1.6618   -1.7387    0.1731 C   0  0  0  0  0  0  0  0  0  0  0  0
   -1.5860    1.4159   -0.0135 C   0  0  0  0  0  0  0  0  0  0  0  0
   -1.4346   -0.0255   -2.5318 O   0  0  0  0  0  0  0  0  0  0  0  0
   -2.2813   -0.1420   -0.8703 C   0  0  1  0  0  0  0  0  0  0  0  0
    0.4087   -0.0137   -4.2012 O   0  0  0  0  0  0  0  0  0  0  0  0
    1.0946   -0.1840    3.0742 C   0  0  0  0  0  0  0  0  0  0  0  0
   -1.4745   -0.0581    2.7355 C   0  0  0  0  0  0  0  0  0  0  0  0
    1.4732   -2.9630   -2.2998 O   0  0  0  0  0  0  0  0  0  0  0  0
    1.3835    1.9591   -0.8989 C   0  0  0  0  0  0  0  0  0  0  0  0
    1.6298    2.5420    0.8794 C   0  0  0  0  0  0  0  0  0  0  0  0
    1.2332    3.3824    1.8725 C   0  0  0  0  0  0  0  0  0  0  0  0
    0.6459    4.2383    1.0687 C   0  0  0  0  0  0  0  0  0  0  0  0
    0.5969    4.1015   -0.5175 C   0  0  0  0  0  0  0  0  0  0  0  0
    0.7961    3.0085   -1.4869 C   0  0  0  0  0  0  0  0  0  0  0  0
   -0.1026   -0.2729   -0.5928 Br  0  0  0  0  0  0  0  0  0  0  0  0
  1  4  1  6
  2  4  1  6
  2  1  1  0
  5 11  1  6
  5  3  1  0
  5  1  1  0
  6 10  1  6
  6  3  1  0
  6  2  1  0
  7 18  1  0
  7  8  1  0
  8 12  1  0
  9 17  1  0
  7  9  1  1
 13 11  1  0
 13 10  1  0
 13 12  1  6
 14  8  2  0
 15  3  1  0
 16  3  1  0
 18 19  2  0
 19 20  1  0
 20 21  2  0
 21 22  1  0
 22 23  2  0
 23 18  1  0
M  CHG  2   3   1  24  -1
M  END
>  <DRUGBANK_ID>  (1) 
DB00462

>  <SECONDARY_ACCESSION_NUMBERS>  (1) 
APRD00314

>  <COMMON_NAME>  (1) 
Methscopolamine bromide

>  <CAS_NUMBER>  (1) 
155-41-9

>  <UNII>  (1) 
RTN51LK7WL

>  <SYNONYMS>  (1) 
(−)-scopolamine methobromide; (−)-scopolamine methyl bromide; Hyoscine methobromide; Hyoscine methyl bromide; Methscopolamine bromide; Methylscopolamine bromide; N-methylhyoscine bromide; N-methylscopolammonium bromide; Scopolamine methobromide; Scopolamine methyl bromide

$$$$
