FR3
     RDKit          3D

 23 25  0  0  0  0  0  0  0  0999 V2000
   -1.1942    0.0429   -0.0645 C   0  0  0  0  0  0  0  0  0  0  0  0
   -0.3322   -1.0208   -0.0599 N   0  0  0  0  0  0  0  0  0  0  0  0
    0.9339   -0.5229    0.0478 C   0  0  0  0  0  0  0  0  0  0  0  0
    0.9384    0.7834    0.0221 N   0  0  0  0  0  0  0  0  0  0  0  0
   -0.3883    1.1711   -0.0227 C   0  0  0  0  0  0  0  0  0  0  0  0
   -0.7845    2.5779   -0.0035 C   0  0  0  0  0  0  0  0  0  0  0  0
    0.0132    3.5164    0.0075 O   0  0  0  0  0  0  0  0  0  0  0  0
   -2.1263    2.8361    0.0052 N   0  0  0  0  0  0  0  0  0  0  0  0
   -0.6903   -2.4327   -0.0341 C   0  0  1  0  0  0  0  0  0  0  0  0
   -0.1949   -3.1775   -1.2809 C   0  0  0  0  0  0  0  0  0  0  0  0
    1.2262   -3.2457   -1.3342 O   0  0  0  0  0  0  0  0  0  0  0  0
   -0.1599   -3.1052    1.2391 C   0  0  0  0  0  0  0  0  0  0  0  0
   -0.7499   -2.4953    2.5198 C   0  0  0  0  0  0  0  0  0  0  0  0
   -2.2610   -2.5894    2.5696 C   0  0  0  0  0  0  0  0  0  0  0  0
   -3.0104   -1.3988    2.5430 C   0  0  0  0  0  0  0  0  0  0  0  0
   -4.3996   -1.4354    2.5498 C   0  0  0  0  0  0  0  0  0  0  0  0
   -5.0565   -2.6631    2.5831 C   0  0  0  0  0  0  0  0  0  0  0  0
   -4.3375   -3.8701    2.5749 C   0  0  0  0  0  0  0  0  0  0  0  0
   -2.9251   -3.8452    2.5858 C   0  0  0  0  0  0  0  0  0  0  0  0
   -5.0050   -5.1070    2.5557 C   0  0  0  0  0  0  0  0  0  0  0  0
   -2.2464   -5.0857    2.6029 C   0  0  0  0  0  0  0  0  0  0  0  0
   -4.2996   -6.3116    2.5208 C   0  0  0  0  0  0  0  0  0  0  0  0
   -2.9161   -6.3010    2.5308 C   0  0  0  0  0  0  0  0  0  0  0  0
  1  2  1  0
  1  5  2  0
  2  3  1  0
  3  4  2  0
  4  5  1  0
  5  6  1  0
  6  7  2  0
  6  8  1  0
  9  2  1  0
  9 10  1  6
  9 12  1  0
 10 11  1  0
 12 13  1  0
 13 14  1  0
 14 15  2  0
 14 19  1  0
 15 16  1  0
 16 17  2  0
 17 18  1  0
 18 19  2  0
 18 20  1  0
 19 21  1  0
 20 22  2  0
 21 23  2  0
 22 23  1  0
M  END
>  <DRUGBANK_ID>  (1) 
DB03572

>  <SECONDARY_ACCESSION_NUMBERS>  (1) 
EXPT01484

>  <COMMON_NAME>  (1) 
FR230513

$$$$
