1185
     RDKit          3D

 24 27  0  0  1  0  0  0  0  0999 V2000
    6.0230    4.7607   -6.1300 F   0  0  0  0  0  0  0  0  0  0  0  0
    4.3337    7.4460   -7.2124 O   0  0  0  0  0  0  0  0  0  0  0  0
    4.2535    2.4981   -7.0754 O   0  0  0  0  0  0  0  0  0  0  0  0
    6.5577    0.3570   -4.1208 O   0  0  0  0  0  0  0  0  0  0  0  0
    5.0608    5.6736   -8.6717 C   0  0  2  0  0  0  0  0  0  0  0  0
    6.4845    6.1562   -8.0985 C   0  0  1  0  0  0  0  0  0  0  0  0
    7.4570    4.8432   -7.8395 C   0  0  2  0  0  0  0  0  0  0  0  0
    6.4776    3.8433   -7.0907 C   0  0  1  0  0  0  0  0  0  0  0  0
    4.2481    6.9897   -8.5870 C   0  0  2  0  0  0  0  0  0  0  0  0
    4.3265    4.6334   -7.8532 C   0  0  0  0  0  0  0  0  0  0  0  0
    7.0119    2.6740   -6.2518 C   0  0  1  0  0  0  0  0  0  0  0  0
    5.1490    3.3934   -7.7647 C   0  0  2  0  0  0  0  0  0  0  0  0
    6.5581    7.6448   -8.7334 C   0  0  0  0  0  0  0  0  0  0  0  0
    5.1607    7.8622   -9.4327 C   0  0  0  0  0  0  0  0  0  0  0  0
    8.6836    4.9654   -6.8016 C   0  0  0  0  0  0  0  0  0  0  0  0
    5.3565    5.1083  -10.1035 C   0  0  0  0  0  0  0  0  0  0  0  0
    8.4635    2.4283   -5.9569 C   0  0  0  0  0  0  0  0  0  0  0  0
    9.3778    3.5241   -6.5216 C   0  0  0  0  0  0  0  0  0  0  0  0
    6.4840    3.1456   -4.7007 C   0  0  0  0  0  0  0  0  0  0  0  0
    2.7510    7.0238   -8.8894 C   0  0  0  0  0  0  0  0  0  0  0  0
    6.7751    1.2985   -7.0604 C   0  0  0  0  0  0  0  0  0  0  0  0
    7.2703    2.5398   -3.5557 C   0  0  0  0  0  0  0  0  0  0  0  0
    8.6678    1.3136   -5.1406 C   0  0  0  0  0  0  0  0  0  0  0  0
    7.4673    1.2505   -4.1474 C   0  0  0  0  0  0  0  0  0  0  0  0
  4 24  2  0
  5  6  1  0
  5  9  1  0
  5 10  1  0
  5 16  1  6
  6  7  1  0
  6 13  1  6
  7  8  1  0
  7 15  1  1
  8 11  1  0
  8 12  1  0
  8  1  1  1
  9 14  1  0
  9 20  1  6
  9  2  1  0
 10 12  1  0
 11 17  1  0
 11 19  1  0
 11 21  1  6
 12  3  1  1
 13 14  1  0
 15 18  1  0
 17 18  1  0
 17 23  2  0
 19 22  1  0
 22 24  1  0
 23 24  1  0
M  END
>  <DRUGBANK_ID>  (1) 
DB01185

>  <SECONDARY_ACCESSION_NUMBERS>  (1) 
APRD00981

>  <COMMON_NAME>  (1) 
Fluoxymesterone

>  <CAS_NUMBER>  (1) 
76-43-7

>  <UNII>  (1) 
9JU12S4YFY

>  <SYNONYMS>  (1) 
11β,17β-Dihydroxy-9α-fluoro-17α-methyl-4-androster-3-one; 17α-Methyl-9α-fluoro-11β-hydroxytesterone; 9-Fluoro-11β,17β-dihydroxy-17-methylandrost-4-en-3-one; 9α-Fluoro-11β-hydroxy-17-methyltestosterone; Fluoximesterona; Fluoxymesterone; Fluoxymestérone; Fluoxymesteronum

$$$$
