
     RDKit          3D

 23 25  0  0  1  0  0  0  0  0999 V2000
    1.0382   -0.2047   -0.0123 N   0  0  0  0  0  0  0  0  0  0  0  0
    0.2930   -1.0912    0.7380 C   0  0  0  0  0  0  0  0  0  0  0  0
    0.7762   -1.9624    1.5548 N   0  0  0  0  0  0  0  0  0  0  0  0
   -0.0634   -2.9868    2.0166 C   0  0  0  0  0  0  0  0  0  0  0  0
    0.3772   -3.8137    2.8398 O   0  0  0  0  0  0  0  0  0  0  0  0
   -1.4682   -3.0740    1.4646 C   0  0  0  0  0  0  0  0  0  0  0  0
   -1.9376   -2.0760    0.5934 C   0  0  0  0  0  0  0  0  0  0  0  0
   -0.9707   -1.1113    0.1950 N   0  0  0  0  0  0  0  0  0  0  0  0
   -3.1125   -2.7349   -0.1872 N   0  0  0  0  0  0  0  0  0  0  0  0
   -3.1550   -4.0447    0.4128 C   0  0  0  0  0  0  0  0  0  0  0  0
   -2.2788   -4.2168    1.3986 N   0  0  0  0  0  0  0  0  0  0  0  0
   -3.7769   -2.5453   -1.7379 C   0  0  1  0  0  0  0  0  0  0  0  0
   -4.2607   -1.1339   -1.8963 C   0  0  0  0  0  0  0  0  0  0  0  0
   -4.0112   -0.7089   -3.3741 C   0  0  2  0  0  0  0  0  0  0  0  0
   -5.1160   -1.2470   -4.1130 O   0  0  0  0  0  0  0  0  0  0  0  0
   -2.8442   -1.4585   -3.9573 C   0  0  1  0  0  0  0  0  0  0  0  0
   -1.3648   -0.8172   -3.9708 C   0  0  0  0  0  0  0  0  0  0  0  0
   -0.4644   -1.9042   -3.7021 O   0  0  0  0  0  0  0  0  0  0  0  0
   -0.9242   -2.7697   -2.2765 P   0  0  0  0  0  0  0  0  0  0  0  0
   -1.7911   -1.4656   -1.9401 O   0  0  0  0  0  0  0  0  0  0  0  0
   -1.2943   -3.9567   -3.3091 O   0  0  0  0  0  0  0  0  0  0  0  0
   -1.3357   -3.5444   -1.0005 O   0  0  0  0  0  0  0  0  0  0  0  0
   -3.1102   -2.7639   -3.1697 O   0  0  0  0  0  0  0  0  0  0  0  0
  1  2  1  0
  2  3  2  0
  2  8  1  0
  3  4  1  0
  4  5  2  0
  4  6  1  0
  6  7  2  0
  6 11  1  0
  7  8  1  0
  7  9  1  0
  9 10  1  0
 10 11  2  0
 12  9  1  1
 12 13  1  0
 12 23  1  0
 13 14  1  0
 14 15  1  6
 14 16  1  0
 16 23  1  0
 16 17  1  1
 17 18  1  0
 18 19  1  0
 19 20  1  0
 19 21  1  0
 19 22  2  0
M  END
>  <DRUGBANK_ID>  (1) 
DB04457

>  <SECONDARY_ACCESSION_NUMBERS>  (1) 
EXPT01182

>  <COMMON_NAME>  (1) 
2'-Deoxyguanosine-5'-Monophosphate

>  <CAS_NUMBER>  (1) 
902-04-5

>  <UNII>  (1) 
7EAM4TG712

$$$$
