
     RDKit          3D

 13 13  0  0  1  0  0  0  0  0999 V2000
    1.1123    0.0220   -0.0893 C   0  0  0  0  0  0  0  0  0  0  0  0
    0.4719   -1.3175   -0.5612 C   0  0  2  0  0  0  0  0  0  0  0  0
   -0.2604   -2.1574    0.5085 C   0  0  1  0  0  0  0  0  0  0  0  0
    0.2606   -3.5664    0.7895 C   0  0  1  0  0  0  0  0  0  0  0  0
    1.0838   -4.2219   -0.2919 C   0  0  2  0  0  0  0  0  0  0  0  0
    1.6489   -3.2969   -1.3610 C   0  0  0  0  0  0  0  0  0  0  0  0
    1.4071   -2.0389   -1.4581 N   0  0  0  0  0  0  0  0  0  0  0  0
    2.4695   -3.9648   -2.2517 N   0  0  0  0  0  0  0  0  0  0  0  0
    0.7488    0.4647    1.2156 O   0  0  0  0  0  0  0  0  0  0  0  0
   -0.3632   -1.5144    1.7867 O   0  0  0  0  0  0  0  0  0  0  0  0
    1.0623   -3.5979    1.9915 O   0  0  0  0  0  0  0  0  0  0  0  0
    0.4015   -5.3332   -0.8708 O   0  0  0  0  0  0  0  0  0  0  0  0
    2.9407   -3.2782   -3.3594 O   0  0  0  0  0  0  0  0  0  0  0  0
  2  1  1  1
  3  2  1  0
  3 10  1  1
  4  3  1  0
  4 11  1  1
  5  4  1  0
  5 12  1  6
  6  5  1  0
  7  2  1  0
  7  6  2  0
  8  6  1  0
  9  1  1  0
 13  8  1  0
M  END
>  <DRUGBANK_ID>  (1) 
DB02525

>  <SECONDARY_ACCESSION_NUMBERS>  (1) 
EXPT01656

>  <COMMON_NAME>  (1) 
D-galactohydroximo-1,5-lactam

$$$$
