
     RDKit          3D

 23 24  0  0  1  0  0  0  0  0999 V2000
  -11.6959    5.4847    6.4453 O   0  0  0  0  0  0  0  0  0  0  0  0
  -11.6005    4.1858    6.0278 C   0  0  0  0  0  0  0  0  0  0  0  0
  -12.2543    3.2411    6.8190 C   0  0  0  0  0  0  0  0  0  0  0  0
  -12.9660    3.5468    7.9340 O   0  0  0  0  0  0  0  0  0  0  0  0
  -12.1956    1.9311    6.4824 C   0  0  0  0  0  0  0  0  0  0  0  0
  -11.4892    1.5951    5.3468 C   0  0  0  0  0  0  0  0  0  0  0  0
  -10.8171    2.4750    4.4800 C   0  0  0  0  0  0  0  0  0  0  0  0
  -10.0841    2.0154    3.2386 C   0  0  0  0  0  0  0  0  0  0  0  0
   -9.9600    0.7409    2.7645 C   0  0  0  0  0  0  0  0  0  0  0  0
   -9.1894    0.4340    1.5359 C   0  0  0  0  0  0  0  0  0  0  0  0
   -9.0951   -0.8785    1.1258 N   0  0  0  0  0  0  0  0  0  0  0  0
   -8.3428   -1.2918   -0.0718 C   0  0  2  0  0  0  0  0  0  0  0  0
   -6.9071   -0.7555   -0.0695 C   0  0  0  0  0  0  0  0  0  0  0  0
   -9.0989   -0.9579   -1.3467 C   0  0  0  0  0  0  0  0  0  0  0  0
   -9.8142   -1.9380   -2.0508 C   0  0  0  0  0  0  0  0  0  0  0  0
  -10.5763   -1.5877   -3.1712 C   0  0  0  0  0  0  0  0  0  0  0  0
  -10.6571   -0.2569   -3.5809 C   0  0  0  0  0  0  0  0  0  0  0  0
   -9.9610    0.7230   -2.8880 C   0  0  0  0  0  0  0  0  0  0  0  0
   -9.1497    0.3632   -1.8190 C   0  0  0  0  0  0  0  0  0  0  0  0
   -8.6397    1.3708    0.9485 O   0  0  0  0  0  0  0  0  0  0  0  0
  -10.6385   -0.3396    3.5905 C   0  0  0  0  0  0  0  0  0  0  0  0
  -11.2015   -1.2360    4.2758 N   0  0  0  0  0  0  0  0  0  0  0  0
  -10.8823    3.8204    4.8627 C   0  0  0  0  0  0  0  0  0  0  0  0
  1  2  1  0
  2  3  2  0
  2 23  1  0
  3  4  1  0
  3  5  1  0
  5  6  2  0
  6  7  1  0
  7  8  1  0
  7 23  2  0
  8  9  2  0
  9 10  1  0
  9 21  1  0
 10 11  1  0
 10 20  2  0
 12 14  1  0
 12 13  1  6
 12 11  1  0
 14 15  2  0
 14 19  1  0
 15 16  1  0
 16 17  2  0
 17 18  1  0
 18 19  2  0
 21 22  3  0
M  END
>  <DRUGBANK_ID>  (1) 
DB16762

>  <COMMON_NAME>  (1) 
Tyrphostin B44

>  <CAS_NUMBER>  (1) 
133550-32-0

>  <SYNONYMS>  (1) 
AG 527; AG527; Tyrphostin AG 527; Tyrphostin B-44; Tyrphostin B44, (-) enantiomer; Tyrphostin B44(-)

$$$$
