
     RDKit          3D

 25 28  0  0  0  0  0  0  0  0999 V2000
    0.3662   -1.0703   -0.0410 N   0  0  0  0  0  0  0  0  0  0  0  0
   -0.9219   -0.6527    0.0004 C   0  0  0  0  0  0  0  0  0  0  0  0
    1.3633   -0.1444   -0.0119 C   0  0  0  0  0  0  0  0  0  0  0  0
   -0.9933    1.0828    0.0435 S   0  0  0  0  0  0  0  0  0  0  0  0
    0.8280    1.2648    0.0366 C   0  0  2  0  0  0  0  0  0  0  0  0
   -0.7807    7.3227   -0.8817 O   0  0  0  0  0  0  0  0  0  0  0  0
   -0.2847    6.0514   -1.0185 C   0  0  0  0  0  0  0  0  0  0  0  0
   -0.5001    5.2528   -2.1512 C   0  0  0  0  0  0  0  0  0  0  0  0
   -1.9002   -1.3721    0.0114 O   0  0  0  0  0  0  0  0  0  0  0  0
    1.3368    2.0767   -1.1538 C   0  0  0  0  0  0  0  0  0  0  0  0
    2.5520   -0.4379   -0.0119 O   0  0  0  0  0  0  0  0  0  0  0  0
    0.0198    3.9576   -2.1864 C   0  0  0  0  0  0  0  0  0  0  0  0
   -1.8444    7.6084   -1.8011 C   0  0  1  0  0  0  0  0  0  0  0  0
    0.8083    3.4881   -1.1315 C   0  0  0  0  0  0  0  0  0  0  0  0
    0.5040    5.5937    0.0294 C   0  0  0  0  0  0  0  0  0  0  0  0
   -1.2715    5.7683   -3.3297 C   0  0  0  0  0  0  0  0  0  0  0  0
   -2.2138    9.0870   -1.6720 C   0  0  0  0  0  0  0  0  0  0  0  0
    1.0640    4.3229   -0.0342 C   0  0  0  0  0  0  0  0  0  0  0  0
   -1.4067    7.2740   -3.2269 C   0  0  0  0  0  0  0  0  0  0  0  0
   -3.3770    9.4485   -2.5611 C   0  0  0  0  0  0  0  0  0  0  0  0
   -4.6065    8.7901   -2.4103 C   0  0  0  0  0  0  0  0  0  0  0  0
   -3.2409   10.4245   -3.5539 C   0  0  0  0  0  0  0  0  0  0  0  0
   -4.3440   10.7952   -4.3211 C   0  0  0  0  0  0  0  0  0  0  0  0
   -5.6870    9.1149   -3.2237 C   0  0  0  0  0  0  0  0  0  0  0  0
   -5.5574   10.1238   -4.1738 C   0  0  0  0  0  0  0  0  0  0  0  0
  2  1  1  0
  3  1  1  0
  4  2  1  0
  4  5  1  0
  5  3  1  0
  6  7  1  0
  7 15  1  0
  7  8  2  0
  8 12  1  0
  9  2  2  0
  5 10  1  6
 11  3  2  0
 12 14  2  0
 13  6  1  0
 13 17  1  6
 13 19  1  0
 14 10  1  0
 15 18  2  0
 16  8  1  0
 18 14  1  0
 19 16  1  0
 20 17  1  0
 21 20  2  0
 22 20  1  0
 23 22  2  0
 24 21  1  0
 25 23  1  0
 25 24  2  0
M  END
>  <DRUGBANK_ID>  (1) 
DB14035

>  <COMMON_NAME>  (1) 
Englitazone

>  <CAS_NUMBER>  (1) 
109229-58-5

>  <UNII>  (1) 
ZQW5577C3O

>  <SYNONYMS>  (1) 
Englitazone

$$$$
