
     RDKit          3D

  5  5  0  0  0  0  0  0  0  0999 V2000
   -0.2389   -1.0251    0.0011 N   0  0  0  0  0  0  0  0  0  0  0  0
    1.0602   -0.6069   -0.0013 C   0  0  0  0  0  0  0  0  0  0  0  0
    1.0170    0.7666   -0.0008 C   0  0  0  0  0  0  0  0  0  0  0  0
   -0.3549    1.0781    0.0020 C   0  0  0  0  0  0  0  0  0  0  0  0
   -1.1235   -0.0137    0.0027 N   0  0  0  0  0  0  0  0  0  0  0  0
  1  2  1  0
  1  5  1  0
  2  3  2  0
  3  4  1  0
  4  5  2  0
M  END
>  <DRUGBANK_ID>  (1) 
DB02757

>  <SECONDARY_ACCESSION_NUMBERS>  (1) 
EXPT02727

>  <COMMON_NAME>  (1) 
Pyrazole

>  <CAS_NUMBER>  (1) 
288-13-1

>  <UNII>  (1) 
3QD5KJZ7ZJ

>  <SYNONYMS>  (1) 
1,2-Diazole; 1H-Pyrazol; 1H-pyrazole

$$$$
