1094
     RDKit          3D

 22 24  0  0  1  0  0  0  0  0999 V2000
    0.7501   -2.1431    0.0613 O   0  0  0  0  0  0  0  0  0  0  0  0
    2.2887    1.6525   -0.0241 O   0  0  0  0  0  0  0  0  0  0  0  0
   -0.1138    2.6456   -0.0824 O   0  0  0  0  0  0  0  0  0  0  0  0
    5.1720   -6.5474    0.9281 O   0  0  0  0  0  0  0  0  0  0  0  0
    2.6912   -6.6130   -0.9892 O   0  0  0  0  0  0  0  0  0  0  0  0
   -3.6815   -0.4312    0.0454 O   0  0  0  0  0  0  0  0  0  0  0  0
    2.1070   -1.9019   -0.3512 C   0  0  1  0  0  0  0  0  0  0  0  0
    2.6849   -0.6734    0.3326 C   0  0  0  0  0  0  0  0  0  0  0  0
    2.9086   -3.1504   -0.0238 C   0  0  0  0  0  0  0  0  0  0  0  0
    0.3914    0.2704   -0.0324 C   0  0  0  0  0  0  0  0  0  0  0  0
    1.8355    0.5098    0.0433 C   0  0  0  0  0  0  0  0  0  0  0  0
   -0.0699   -1.0482   -0.0047 C   0  0  0  0  0  0  0  0  0  0  0  0
    2.5377   -4.3695   -0.5979 C   0  0  0  0  0  0  0  0  0  0  0  0
    4.0129   -3.1456    0.8375 C   0  0  0  0  0  0  0  0  0  0  0  0
   -0.5109    1.3361   -0.0534 C   0  0  0  0  0  0  0  0  0  0  0  0
   -1.4422   -1.3010    0.0140 C   0  0  0  0  0  0  0  0  0  0  0  0
    3.2360   -5.5508   -0.3267 C   0  0  0  0  0  0  0  0  0  0  0  0
   -1.8773    1.0861   -0.0229 C   0  0  0  0  0  0  0  0  0  0  0  0
   -2.3332   -0.2294    0.0103 C   0  0  0  0  0  0  0  0  0  0  0  0
    4.7127   -4.3179    1.1121 C   0  0  0  0  0  0  0  0  0  0  0  0
    4.3421   -5.5374    0.5326 C   0  0  0  0  0  0  0  0  0  0  0  0
    4.9509   -7.8395    0.4094 C   0  0  0  0  0  0  0  0  0  0  0  0
  1  7  1  0
  1 12  1  0
  2 11  2  0
  3 15  1  0
  4 21  1  0
  4 22  1  0
  5 17  1  0
  6 19  1  0
  7  8  1  0
  7  9  1  1
  8 11  1  0
  9 13  2  0
  9 14  1  0
 10 11  1  0
 10 12  2  0
 10 15  1  0
 12 16  1  0
 13 17  1  0
 14 20  2  0
 15 18  2  0
 16 19  2  0
 17 21  2  0
 18 19  1  0
 20 21  1  0
M  END
>  <DRUGBANK_ID>  (1) 
DB01094

>  <SECONDARY_ACCESSION_NUMBERS>  (1) 
APRD00117

>  <COMMON_NAME>  (1) 
Hesperetin

>  <CAS_NUMBER>  (1) 
520-33-2

>  <UNII>  (1) 
Q9Q3D557F1

>  <SYNONYMS>  (1) 
(−)-(S)-hesperetin; (−)-hesperetin; (S)-2,3-dihydro-5,7-dihydroxy-2-(3-hydroxy-4-methoxyphenyl)-4H-1-benzopyran-4-one; 3',5,7-Trihydroxy-4'-methoxyflavanone; Hesperitin

$$$$
