
     RDKit          3D

 15 16  0  0  1  0  0  0  0  0999 V2000
   -1.1227    0.0461    0.1476 N   0  0  0  0  0  0  0  0  0  0  0  0
   -0.3487   -1.0995    0.0506 C   0  0  0  0  0  0  0  0  0  0  0  0
   -1.7667   -2.7113   -1.2372 C   0  0  0  0  0  0  0  0  0  0  0  0
   -0.9680   -2.4759    0.0569 C   0  0  2  0  0  0  0  0  0  0  0  0
   -1.9613   -1.6881   -2.1941 C   0  0  0  0  0  0  0  0  0  0  0  0
   -1.8102   -2.6392    1.3281 C   0  0  0  0  0  0  0  0  0  0  0  0
   -2.7151   -1.8731   -3.3486 C   0  0  0  0  0  0  0  0  0  0  0  0
    0.9849   -0.7489    0.0107 C   0  0  0  0  0  0  0  0  0  0  0  0
   -3.2935   -3.1041   -3.5977 C   0  0  0  0  0  0  0  0  0  0  0  0
    1.0048    0.6199    0.0090 N   0  0  0  0  0  0  0  0  0  0  0  0
   -0.2887    1.0512    0.0667 C   0  0  0  0  0  0  0  0  0  0  0  0
   -2.3440   -3.9824   -1.5177 C   0  0  0  0  0  0  0  0  0  0  0  0
   -2.1972   -5.1754   -0.5982 C   0  0  0  0  0  0  0  0  0  0  0  0
   -3.1208   -4.1603   -2.6950 C   0  0  0  0  0  0  0  0  0  0  0  0
   -3.7902   -5.4754   -2.9913 C   0  0  0  0  0  0  0  0  0  0  0  0
  1 11  2  0
  2  1  1  0
  2  8  2  0
  3 12  1  0
  3  5  2  0
  4  3  1  0
  4  2  1  0
  4  6  1  1
  5  7  1  0
  7  9  2  0
  8 10  1  0
 10 11  1  0
 12 14  2  0
 12 13  1  0
 14  9  1  0
 14 15  1  0
M  END
>  <DRUGBANK_ID>  (1) 
DB00633

>  <SECONDARY_ACCESSION_NUMBERS>  (1) 
APRD00578

>  <COMMON_NAME>  (1) 
Dexmedetomidine

>  <CAS_NUMBER>  (1) 
113775-47-6

>  <UNII>  (1) 
67VB76HONO

>  <SYNONYMS>  (1) 
(+)-4-((S)-alpha,2,3-Trimethylbenzyl)imidazole; (+)-4-((S)-α,2,3-trimethylbenzyl)imidazole; Dexmedetomidin; Dexmedetomidina; Dexmédétomidine; Dexmedetomidine; Dexmedetomidinum

$$$$
