
     RDKit          3D

 25 26  0  0  1  0  0  0  0  0999 V2000
    1.1430   -0.8408   -0.3601 C   0  0  2  0  0  0  0  0  0  0  0  0
    2.3738   -1.6131   -0.2241 N   0  0  0  0  0  0  0  0  0  0  0  0
    1.3612    0.5569   -0.1641 O   0  0  0  0  0  0  0  0  0  0  0  0
   -0.0173   -1.2696    0.5260 C   0  0  0  0  0  0  0  0  0  0  0  0
    3.0880   -1.6701    0.9715 C   0  0  0  0  0  0  0  0  0  0  0  0
    2.6745   -2.4527   -1.2737 C   0  0  0  0  0  0  0  0  0  0  0  0
    0.1685    1.0917    0.4455 C   0  0  1  0  0  0  0  0  0  0  0  0
   -0.8651   -0.0232    0.5320 C   0  0  1  0  0  0  0  0  0  0  0  0
    4.1421   -2.5645    0.9753 N   0  0  0  0  0  0  0  0  0  0  0  0
    2.8152   -1.0240    1.9784 O   0  0  0  0  0  0  0  0  0  0  0  0
    3.5422   -3.4619   -1.1718 C   0  0  0  0  0  0  0  0  0  0  0  0
    0.5537    1.6135    1.8269 C   0  0  0  0  0  0  0  0  0  0  0  0
   -1.7284   -0.0146   -0.6050 O   0  0  0  0  0  0  0  0  0  0  0  0
    4.3197   -3.5749    0.0743 C   0  0  0  0  0  0  0  0  0  0  0  0
    3.6818   -4.4987   -2.2305 C   0  0  0  0  0  0  0  0  0  0  0  0
    0.0099    2.9214    2.0023 O   0  0  0  0  0  0  0  0  0  0  0  0
    5.0727   -4.5291    0.2831 O   0  0  0  0  0  0  0  0  0  0  0  0
    0.6226    4.0370    0.8306 P   0  0  2  0  0  0  0  0  0  0  0  0
   -0.5231    5.0377    1.4059 O   0  0  0  0  0  0  0  0  0  0  0  0
    1.7806    4.3436    1.9531 O   0  0  0  0  0  0  0  0  0  0  0  0
    1.1710    5.0355   -0.2181 O   0  0  0  0  0  0  0  0  0  0  0  0
   -1.7934    5.4308    0.5382 P   0  0  0  0  0  0  0  0  0  0  0  0
   -2.3585    6.6682    1.3760 O   0  0  0  0  0  0  0  0  0  0  0  0
   -1.1588    6.1087   -0.7577 O   0  0  0  0  0  0  0  0  0  0  0  0
   -2.7855    4.3482    0.2900 O   0  0  0  0  0  0  0  0  0  0  0  0
  1  3  1  0
  1  4  1  0
  1  2  1  1
  2  5  1  0
  2  6  1  0
  3  7  1  0
  4  8  1  0
  5  9  1  0
  5 10  2  0
  6 11  2  0
  7  8  1  0
  7 12  1  1
  8 13  1  6
  9 14  1  0
 11 15  1  0
 11 14  1  0
 12 16  1  0
 14 17  2  0
 16 18  1  0
 18 19  1  0
 18 20  1  1
 18 21  2  0
 19 22  1  0
 22 23  1  0
 22 24  1  0
 22 25  2  0
M  END
>  <DRUGBANK_ID>  (1) 
DB03103

>  <SECONDARY_ACCESSION_NUMBERS>  (1) 
EXPT03136

>  <COMMON_NAME>  (1) 
Thymidine-5'- Diphosphate

>  <UNII>  (1) 
QQ3K1P45DF

$$$$
