
     RDKit          3D

 13 12  0  0  1  0  0  0  0  0999 V2000
   -4.3871    1.5424   -2.6783 C   0  0  0  0  0  0  0  0  0  0  0  0
   -4.0970    0.3697   -3.5947 C   0  0  0  0  0  0  0  0  0  0  0  0
   -2.9165    0.6700   -4.5132 C   0  0  0  0  0  0  0  0  0  0  0  0
   -1.5959    0.8701   -3.7675 C   0  0  0  0  0  0  0  0  0  0  0  0
    0.4372   -0.3485   -2.8680 C   0  0  0  0  0  0  0  0  0  0  0  0
    1.7623    0.2603   -4.9579 C   0  0  0  0  0  0  0  0  0  0  0  0
   -1.0975   -0.3412   -2.9563 C   0  0  2  0  0  0  0  0  0  0  0  0
   -1.6398   -1.6791   -3.4197 C   0  0  0  0  0  0  0  0  0  0  0  0
    1.1305   -0.6180   -4.1264 N   0  0  0  0  0  0  0  0  0  0  0  0
    2.1637   -0.0236   -6.0814 O   0  0  0  0  0  0  0  0  0  0  0  0
   -2.2017   -2.5023   -2.7054 O   0  0  0  0  0  0  0  0  0  0  0  0
   -1.4992   -1.9024   -4.7383 O   0  0  0  0  0  0  0  0  0  0  0  0
    1.0277   -1.9465   -4.5863 O   0  0  0  0  0  0  0  0  0  0  0  0
  2  1  1  0
  3  2  1  0
  4  3  1  0
  7  8  1  0
  7  5  1  6
  7  4  1  0
  9  5  1  0
  9  6  1  0
 10  6  2  0
 11  8  2  0
 12  8  1  0
 13  9  1  0
M  END
>  <DRUGBANK_ID>  (1) 
DB02625

>  <SECONDARY_ACCESSION_NUMBERS>  (1) 
EXPT00756

>  <COMMON_NAME>  (1) 
(2r)-2-{[Formyl(Hydroxy)Amino]Methyl}Hexanoic Acid

$$$$
