
     RDKit          3D

 33 35  0  0  0  0  0  0  0  0999 V2000
    1.3880   -0.3896   -0.0066 S   0  0  0  0  0  0  0  0  0  0  0  0
    0.7596    1.1881    0.0536 C   0  0  0  0  0  0  0  0  0  0  0  0
   -0.5348    1.2620    0.0760 N   0  0  0  0  0  0  0  0  0  0  0  0
   -1.1346    0.0296    0.0298 C   0  0  0  0  0  0  0  0  0  0  0  0
   -0.2495   -1.0704    0.0010 C   0  0  0  0  0  0  0  0  0  0  0  0
    1.5302    2.4215    0.0487 C   0  0  0  0  0  0  0  0  0  0  0  0
    1.2594    3.3967    1.0266 C   0  0  0  0  0  0  0  0  0  0  0  0
    1.8089    4.6741    0.9267 C   0  0  0  0  0  0  0  0  0  0  0  0
    2.6962    4.9728   -0.1153 C   0  0  0  0  0  0  0  0  0  0  0  0
    2.9318    4.0117   -1.1109 C   0  0  0  0  0  0  0  0  0  0  0  0
    2.3436    2.7491   -1.0356 C   0  0  0  0  0  0  0  0  0  0  0  0
    3.4382    6.2841   -0.1121 C   0  0  0  0  0  0  0  0  0  0  0  0
    2.6164    7.3662   -0.1687 F   0  0  0  0  0  0  0  0  0  0  0  0
    4.1829    6.4363    1.0193 F   0  0  0  0  0  0  0  0  0  0  0  0
    4.3109    6.4153   -1.1492 F   0  0  0  0  0  0  0  0  0  0  0  0
   -2.6021    0.3073    0.0578 C   0  0  0  0  0  0  0  0  0  0  0  0
   -0.3133   -2.5696   -0.0043 C   0  0  0  0  0  0  0  0  0  0  0  0
    0.6721   -3.2932    0.0108 O   0  0  0  0  0  0  0  0  0  0  0  0
   -1.5307   -3.2523   -0.0025 N   0  0  0  0  0  0  0  0  0  0  0  0
   -2.8080   -2.6272    0.1084 C   0  0  0  0  0  0  0  0  0  0  0  0
   -3.6311   -2.6148   -1.1581 C   0  0  0  0  0  0  0  0  0  0  0  0
   -3.8538   -3.8851   -1.6261 C   0  0  0  0  0  0  0  0  0  0  0  0
   -4.7074   -4.0965   -2.6795 C   0  0  0  0  0  0  0  0  0  0  0  0
   -5.3861   -3.0769   -3.3477 C   0  0  0  0  0  0  0  0  0  0  0  0
   -5.2218   -1.7910   -2.8831 C   0  0  0  0  0  0  0  0  0  0  0  0
   -4.3223   -1.5626   -1.8269 C   0  0  0  0  0  0  0  0  0  0  0  0
   -6.1840   -3.2437   -4.4495 O   0  0  0  0  0  0  0  0  0  0  0  0
   -6.2669   -4.5742   -4.9953 C   0  0  0  0  0  0  0  0  0  0  0  0
   -4.8901   -5.0988   -5.4730 C   0  0  0  0  0  0  0  0  0  0  0  0
   -7.0212   -5.5037   -4.0206 C   0  0  0  0  0  0  0  0  0  0  0  0
   -7.1359   -4.5628   -6.2760 C   0  0  0  0  0  0  0  0  0  0  0  0
   -7.6056   -3.3488   -6.6523 O   0  0  0  0  0  0  0  0  0  0  0  0
   -7.3894   -5.5692   -6.9176 O   0  0  0  0  0  0  0  0  0  0  0  0
  1  2  1  0
  2  3  2  0
  2  6  1  0
  3  4  1  0
  4 16  1  0
  4  5  2  0
  5 17  1  0
  5  1  1  0
  6  7  2  0
  7  8  1  0
  8  9  2  0
  9 10  1  0
  9 12  1  0
 10 11  2  0
 11  6  1  0
 12 13  1  0
 12 14  1  0
 12 15  1  0
 17 18  2  0
 17 19  1  0
 19 20  1  0
 20 21  1  0
 21 22  2  0
 22 23  1  0
 23 24  2  0
 24 25  1  0
 24 27  1  0
 25 26  2  0
 26 21  1  0
 27 28  1  0
 28 29  1  0
 28 30  1  0
 28 31  1  0
 31 32  1  0
 31 33  2  0
M  END
>  <DRUGBANK_ID>  (1) 
DB07215

>  <COMMON_NAME>  (1) 
GW-590735

>  <CAS_NUMBER>  (1) 
343321-96-0

>  <UNII>  (1) 
QKY617BBX5

$$$$
