
     RDKit          3D

 30 32  0  0  0  0  0  0  0  0999 V2000
    1.9631    3.3058    0.7641 C   0  0  0  0  0  0  0  0  0  0  0  0
    1.6688    6.1415    0.0762 C   0  0  0  0  0  0  0  0  0  0  0  0
    1.2994    5.2489   -2.4060 C   0  0  0  0  0  0  0  0  0  0  0  0
    1.2660    3.8022   -2.9338 C   0  0  0  0  0  0  0  0  0  0  0  0
    1.8769    4.3117    1.8865 C   0  0  0  0  0  0  0  0  0  0  0  0
    1.0582    7.3311   -0.0957 C   0  0  0  0  0  0  0  0  0  0  0  0
    2.2895    5.6738    1.3936 C   0  0  0  0  0  0  0  0  0  0  0  0
    0.9878    8.3603    0.9220 C   0  0  0  0  0  0  0  0  0  0  0  0
    2.0443    8.7711    1.6536 C   0  0  0  0  0  0  0  0  0  0  0  0
    3.4606    8.2305    1.4941 C   0  0  0  0  0  0  0  0  0  0  0  0
    1.9195    9.7961    2.7444 C   0  0  0  0  0  0  0  0  0  0  0  0
    4.5250    9.2866    1.3447 C   0  0  2  0  0  0  0  0  0  0  0  0
    2.9832   10.8829    2.5446 C   0  0  2  0  0  0  0  0  0  0  0  0
    4.4043   10.3067    2.4590 C   0  0  0  0  0  0  0  0  0  0  0  0
    2.9152   11.8347    3.5981 O   0  0  0  0  0  0  0  0  0  0  0  0
   -0.0304    0.9913   -0.4913 C   0  0  0  0  0  0  0  0  0  0  0  0
    0.5414    1.5785   -1.7849 C   0  0  2  0  0  0  0  0  0  0  0  0
    1.3965    0.4589   -2.3189 C   0  0  0  0  0  0  0  0  0  0  0  0
    1.1259   -0.1906   -3.4414 C   0  0  0  0  0  0  0  0  0  0  0  0
   -0.2393   -2.4676   -4.9031 C   0  0  0  0  0  0  0  0  0  0  0  0
    0.9284   -2.6736   -3.9296 C   0  0  0  0  0  0  0  0  0  0  0  0
    1.7149   -3.9309   -4.3137 C   0  0  0  0  0  0  0  0  0  0  0  0
    1.8714   -1.4332   -3.8723 C   0  0  1  0  0  0  0  0  0  0  0  0
    2.5485   -1.1268   -5.2079 C   0  0  0  0  0  0  0  0  0  0  0  0
    1.4038    2.8617   -1.6937 C   0  0  2  0  0  0  0  0  0  0  0  0
    1.8479    5.0946   -0.9896 C   0  0  2  0  0  0  0  0  0  0  0  0
    1.1826    3.7894   -0.4852 C   0  0  2  0  0  0  0  0  0  0  0  0
   -0.3128    4.1011   -0.1921 C   0  0  0  0  0  0  0  0  0  0  0  0
    0.3919   -2.9095   -2.6174 O   0  0  0  0  0  0  0  0  0  0  0  0
    4.4131    9.9043    0.0659 O   0  0  0  0  0  0  0  0  0  0  0  0
  1  5  1  0
  2  6  2  0
  2  7  1  0
  3  4  1  0
  5  7  1  0
  6  8  1  0
  8  9  2  0
  9 10  1  0
  9 11  1  0
 10 12  1  0
 11 13  1  0
 12 14  1  0
 12 30  1  6
 13 15  1  1
 13 14  1  0
 17 18  1  0
 17 16  1  1
 18 19  2  0
 19 23  1  0
 21 20  1  0
 21 22  1  0
 21 29  1  0
 23 21  1  0
 23 24  1  6
 25  4  1  6
 25 17  1  0
 26 27  1  0
 26  2  1  0
 26  3  1  6
 27 25  1  0
 27  1  1  0
 27 28  1  1
M  END
>  <DRUGBANK_ID>  (1) 
DB00910

>  <SECONDARY_ACCESSION_NUMBERS>  (1) 
APRD01165

>  <COMMON_NAME>  (1) 
Paricalcitol

>  <CAS_NUMBER>  (1) 
131918-61-1

>  <UNII>  (1) 
6702D36OG5

>  <SYNONYMS>  (1) 
19-Nor-1alpha,25-dihydroxyvitamin D2; Paricalcitol

$$$$
