
     RDKit          3D

 12 12  0  0  0  0  0  0  0  0999 V2000
    0.7441    1.2515   -0.2232 C   0  0  2  0  0  0  0  0  0  0  0  0
    1.4754   -0.0300    0.2262 C   0  0  1  0  0  0  0  0  0  0  0  0
    0.7111   -1.2930   -0.2403 C   0  0  1  0  0  0  0  0  0  0  0  0
   -0.7527   -1.2613    0.2523 C   0  0  2  0  0  0  0  0  0  0  0  0
   -1.4747    0.0264   -0.2124 C   0  0  1  0  0  0  0  0  0  0  0  0
   -0.7115    1.2682    0.2979 C   0  0  1  0  0  0  0  0  0  0  0  0
    0.7838    1.2850   -1.6668 O   0  0  0  0  0  0  0  0  0  0  0  0
    2.8115   -0.0472   -0.2919 O   0  0  0  0  0  0  0  0  0  0  0  0
    0.7030   -1.4161   -1.6758 O   0  0  0  0  0  0  0  0  0  0  0  0
   -0.7713   -1.3173    1.6843 O   0  0  0  0  0  0  0  0  0  0  0  0
   -1.6308    0.1038   -1.6320 O   0  0  0  0  0  0  0  0  0  0  0  0
   -0.7513    1.3618    1.7239 O   0  0  0  0  0  0  0  0  0  0  0  0
  1  2  1  0
  1  6  1  0
  1  7  1  6
  2  3  1  0
  2  8  1  6
  3  4  1  0
  3  9  1  6
  4  5  1  0
  4 10  1  1
  5  6  1  0
  5 11  1  6
  6 12  1  1
M  END
>  <DRUGBANK_ID>  (1) 
DB13178

>  <SECONDARY_ACCESSION_NUMBERS>  (1) 
DB11196

>  <COMMON_NAME>  (1) 
Inositol

>  <CAS_NUMBER>  (1) 
87-89-8

>  <UNII>  (1) 
4L6452S749

>  <SYNONYMS>  (1) 
1,2,3,5/4,6-cyclohexanehexol; cis-1,2,3,5-trans-4,6-cyclohexanehexol; Inositol; L-myo-Inositol; Meat sugar; meso-Inositol; myo-inositol

$$$$
