433
     RDKit          3D

 25 28  0  0  0  0  0  0  0  0999 V2000
    1.3174    0.9068   -0.7195 Cl  0  0  0  0  0  0  0  0  0  0  0  0
    7.4320    0.2530    0.0844 S   0  0  0  0  0  0  0  0  0  0  0  0
    1.8324   -3.0873    0.4669 N   0  0  0  0  0  0  0  0  0  0  0  0
   -0.7226   -3.4170   -0.9978 N   0  0  0  0  0  0  0  0  0  0  0  0
    5.5765   -2.3286   -0.1298 N   0  0  0  0  0  0  0  0  0  0  0  0
    1.1601   -4.3784    0.4564 C   0  0  0  0  0  0  0  0  0  0  0  0
    0.8357   -2.0277    0.3586 C   0  0  0  0  0  0  0  0  0  0  0  0
    2.7846   -2.8608    1.5550 C   0  0  0  0  0  0  0  0  0  0  0  0
    0.2714   -4.4999   -0.8075 C   0  0  0  0  0  0  0  0  0  0  0  0
   -0.0165   -2.1253   -0.9302 C   0  0  0  0  0  0  0  0  0  0  0  0
    4.0111   -3.7439    1.3557 C   0  0  0  0  0  0  0  0  0  0  0  0
    4.7063   -3.5506   -0.0119 C   0  0  0  0  0  0  0  0  0  0  0  0
   -1.7356   -3.4432    0.0580 C   0  0  0  0  0  0  0  0  0  0  0  0
    4.9576   -1.0338   -0.2700 C   0  0  0  0  0  0  0  0  0  0  0  0
    6.9981   -2.5362   -0.0416 C   0  0  0  0  0  0  0  0  0  0  0  0
    5.6903    0.1577   -0.0629 C   0  0  0  0  0  0  0  0  0  0  0  0
    7.8933   -1.4417   -0.0116 C   0  0  0  0  0  0  0  0  0  0  0  0
    3.6162   -0.7885   -0.6253 C   0  0  0  0  0  0  0  0  0  0  0  0
    7.6272   -3.8037   -0.0255 C   0  0  0  0  0  0  0  0  0  0  0  0
    5.0748    1.4209    0.0173 C   0  0  0  0  0  0  0  0  0  0  0  0
    9.2884   -1.6063   -0.0181 C   0  0  0  0  0  0  0  0  0  0  0  0
    2.9853    0.4836   -0.4644 C   0  0  0  0  0  0  0  0  0  0  0  0
    9.0251   -3.9648   -0.0192 C   0  0  0  0  0  0  0  0  0  0  0  0
    3.7292    1.5789   -0.0715 C   0  0  0  0  0  0  0  0  0  0  0  0
    9.8589   -2.8607   -0.0261 C   0  0  0  0  0  0  0  0  0  0  0  0
  1 22  1  0
  2 16  1  0
  2 17  1  0
  3  6  1  0
  3  7  1  0
  3  8  1  0
  4  9  1  0
  4 10  1  0
  4 13  1  0
  5 12  1  0
  5 14  1  0
  5 15  1  0
  6  9  1  0
  7 10  1  0
  8 11  1  0
 11 12  1  0
 14 16  2  0
 14 18  1  0
 15 17  2  0
 15 19  1  0
 16 20  1  0
 17 21  1  0
 18 22  2  0
 19 23  2  0
 20 24  2  0
 21 25  2  0
 22 24  1  0
 23 25  1  0
M  END
>  <DRUGBANK_ID>  (1) 
DB00433

>  <SECONDARY_ACCESSION_NUMBERS>  (1) 
APRD00624

>  <COMMON_NAME>  (1) 
Prochlorperazine

>  <CAS_NUMBER>  (1) 
58-38-8

>  <UNII>  (1) 
YHP6YLT61T

>  <SYNONYMS>  (1) 
2-Chloro-10-(3-(1-methyl-4-piperazinyl)propyl)-phenothiazine; 2-Chloro-10-(3-(4-methyl-1-piperazinyl)propyl)phenothiazine; 3-Chloro-10-(3-(1-methyl-4-piperazinyl)propyl)phenothiazine; 3-Chloro-10-(3-(4-methyl-1-piperazinyl)propyl)phenothiazine; Capazine; Chlormeprazine; Chloro-3 (N-methylpiperazinyl-3 propyl)-10 phenothiazine; Chloropernazine; N-(gamma-(4'-Methylpiperazinyl-1')propyl)-3-chlorophenothiazine; Prochlorperazin; Prochlorp√©razine; Prochlorperazine; Prochlorperazinum; Prochlorpermazine; Prochlorpromazine; Procloperazine; Proclorperazina

$$$$
