
     RDKit          3D

  7  6  0  0  0  0  0  0  0  0999 V2000
    0.9446    0.0832    0.0028 C   0  0  0  0  0  0  0  0  0  0  0  0
   -1.9164   -2.3319   -0.8319 C   0  0  0  0  0  0  0  0  0  0  0  0
   -2.3866    1.4991   -0.2702 C   0  0  0  0  0  0  0  0  0  0  0  0
   -0.3592    0.0832    0.0028 C   0  0  0  0  0  0  0  0  0  0  0  0
   -2.3844   -0.8980   -1.0701 C   0  0  0  0  0  0  0  0  0  0  0  0
   -1.8792    0.0832    0.0028 C   0  0  0  0  0  0  0  0  0  0  0  0
   -2.3314   -0.3218    1.2902 O   0  0  0  0  0  0  0  0  0  0  0  0
  4  1  3  0
  5  2  1  0
  6  3  1  0
  6  4  1  0
  6  5  1  0
  7  6  1  0
M  END
>  <DRUGBANK_ID>  (1) 
DB13733

>  <COMMON_NAME>  (1) 
Methylpentynol

>  <CAS_NUMBER>  (1) 
77-75-8

>  <UNII>  (1) 
B017BC5B1N

>  <SYNONYMS>  (1) 
Meparfynol; Methylpentynol

$$$$
