
     RDKit          3D

 42 46  0  0  1  0  0  0  0  0999 V2000
    1.0170   -0.0421    0.0678 C   0  0  0  0  0  0  0  0  0  0  0  0
    0.5361    1.3288    0.4462 C   0  0  0  0  0  0  0  0  0  0  0  0
    1.2317    2.4712    0.0041 C   0  0  0  0  0  0  0  0  0  0  0  0
    0.8092    3.7043    0.3108 N   0  0  0  0  0  0  0  0  0  0  0  0
   -0.3358    3.8078    1.0109 C   0  0  0  0  0  0  0  0  0  0  0  0
   -1.0964    2.7699    1.4145 N   0  0  0  0  0  0  0  0  0  0  0  0
   -0.6565    1.5230    1.1543 C   0  0  0  0  0  0  0  0  0  0  0  0
   -1.4328    0.4837    1.6329 N   0  0  0  0  0  0  0  0  0  0  0  0
   -2.7431    0.2089    1.0595 C   0  0  0  0  0  0  0  0  0  0  0  0
   -3.7677    0.0250    2.1835 C   0  0  0  0  0  0  0  0  0  0  0  0
   -3.3176   -1.0514    3.1874 C   0  0  0  0  0  0  0  0  0  0  0  0
   -1.8672   -0.7413    3.6647 C   0  0  0  0  0  0  0  0  0  0  0  0
   -0.9101   -0.5506    2.5091 C   0  0  0  0  0  0  0  0  0  0  0  0
   -4.2256   -1.1438    4.3837 C   0  0  0  0  0  0  0  0  0  0  0  0
   -5.6083   -1.1722    4.3891 C   0  0  0  0  0  0  0  0  0  0  0  0
   -6.2575   -0.8413    5.6002 C   0  0  0  0  0  0  0  0  0  0  0  0
   -5.4489   -0.5383    6.6952 C   0  0  0  0  0  0  0  0  0  0  0  0
   -4.2519   -1.2058    6.6594 C   0  0  0  0  0  0  0  0  0  0  0  0
   -3.5756   -1.2938    5.5353 N   0  0  0  0  0  0  0  0  0  0  0  0
   -3.5697   -1.4662    7.8639 N   0  0  0  0  0  0  0  0  0  0  0  0
   -2.8688   -0.2378    8.0976 C   0  0  0  0  0  0  0  0  0  0  0  0
   -3.9839    0.8303    8.3274 C   0  0  0  0  0  0  0  0  0  0  0  0
   -5.5351    0.2574    7.9862 C   0  0  0  0  0  0  0  0  0  0  0  0
   -0.7996    5.1914    1.3704 C   0  0  0  0  0  0  0  0  0  0  0  0
    2.3082    2.3376   -0.8698 N   0  0  0  0  0  0  0  0  0  0  0  0
    3.2152    3.4291   -1.2472 C   0  0  0  0  0  0  0  0  0  0  0  0
    4.6632    3.2416   -0.7045 C   0  0  1  0  0  0  0  0  0  0  0  0
    5.2430    1.9541   -1.3026 C   0  0  0  0  0  0  0  0  0  0  0  0
    6.0104    1.8583   -2.2145 O   0  0  0  0  0  0  0  0  0  0  0  0
    4.7388    0.8308   -0.7297 O   0  0  0  0  0  0  0  0  0  0  0  0
    5.5365    4.4107   -1.0828 N   0  0  0  0  0  0  0  0  0  0  0  0
    7.1388    4.4501   -0.4983 S   0  0  0  0  0  0  0  0  0  0  0  0
    7.8212    3.2325   -0.8454 O   0  0  0  0  0  0  0  0  0  0  0  0
    7.6792    5.7360   -0.8990 O   0  0  0  0  0  0  0  0  0  0  0  0
    6.9572    4.4494    1.2632 C   0  0  0  0  0  0  0  0  0  0  0  0
    6.9385    5.6519    1.9635 C   0  0  0  0  0  0  0  0  0  0  0  0
    6.8868    5.6313    3.3593 C   0  0  0  0  0  0  0  0  0  0  0  0
    6.8580    4.4171    4.0532 C   0  0  0  0  0  0  0  0  0  0  0  0
    6.8867    3.2163    3.3394 C   0  0  0  0  0  0  0  0  0  0  0  0
    6.9508    3.2269    1.9463 C   0  0  0  0  0  0  0  0  0  0  0  0
    6.8138    4.2793    5.4139 O   0  0  0  0  0  0  0  0  0  0  0  0
    6.7942    5.4855    6.1691 C   0  0  0  0  0  0  0  0  0  0  0  0
  1  2  1  0
  2  3  2  0
  2  7  1  0
  3  4  1  0
  3 25  1  0
  4  5  2  0
  5  6  1  0
  5 24  1  0
  6  7  2  0
  7  8  1  0
  8  9  1  0
  8 13  1  0
  9 10  1  0
 10 11  1  0
 11 12  1  0
 11 14  1  0
 12 13  1  0
 14 15  2  0
 14 19  1  0
 15 16  1  0
 16 17  2  0
 17 18  1  0
 17 23  1  0
 18 19  2  0
 18 20  1  0
 20 21  1  0
 21 22  1  0
 22 23  1  0
 25 26  1  0
 27 26  1  6
 27 28  1  0
 27 31  1  0
 28 29  2  0
 28 30  1  0
 31 32  1  0
 32 33  2  0
 32 34  2  0
 32 35  1  0
 35 36  2  0
 35 40  1  0
 36 37  1  0
 37 38  2  0
 38 39  1  0
 38 41  1  0
 39 40  2  0
 41 42  1  0
M  END
>  <DRUGBANK_ID>  (1) 
DB12297

>  <COMMON_NAME>  (1) 
GLPG-0187

>  <CAS_NUMBER>  (1) 
1320346-97-1

>  <UNII>  (1) 
43A5P87Z4T

$$$$
