WAC
     RDKit          3D

 28 31  0  0  0  0  0  0  0  0999 V2000
    3.4695   -0.1420    0.0079 C   0  0  0  0  0  0  0  0  0  0  0  0
    2.5116   -1.1644   -0.0662 C   0  0  0  0  0  0  0  0  0  0  0  0
    1.1738   -0.7682   -0.2608 C   0  0  0  0  0  0  0  0  0  0  0  0
    0.8604    0.5752   -0.5419 C   0  0  0  0  0  0  0  0  0  0  0  0
    1.7803    1.5597   -0.1724 C   0  0  0  0  0  0  0  0  0  0  0  0
    3.0969    1.1982    0.0413 C   0  0  0  0  0  0  0  0  0  0  0  0
   -0.0530   -1.4416   -0.1907 N   0  0  0  0  0  0  0  0  0  0  0  0
   -1.0368   -0.4141   -0.3703 C   0  0  0  0  0  0  0  0  0  0  0  0
   -0.4931    0.6830   -0.9644 C   0  0  0  0  0  0  0  0  0  0  0  0
   -2.0403    0.1180    0.5939 C   0  0  2  0  0  0  0  0  0  0  0  0
   -3.3698    0.4901    0.4216 N   0  0  0  0  0  0  0  0  0  0  0  0
   -3.0192    1.5931   -0.7065 C   0  0  0  0  0  0  0  0  0  0  0  0
   -1.3864    1.8777   -1.0641 C   0  0  0  0  0  0  0  0  0  0  0  0
   -1.8894    1.8040    1.3461 C   0  0  0  0  0  0  0  0  0  0  0  0
   -0.8637    1.4474    2.2626 C   0  0  0  0  0  0  0  0  0  0  0  0
   -1.7256    0.3953    2.9371 C   0  0  0  0  0  0  0  0  0  0  0  0
   -3.3847    0.3398    2.1774 C   0  0  0  0  0  0  0  0  0  0  0  0
   -0.1055   -2.9326   -0.1135 C   0  0  0  0  0  0  0  0  0  0  0  0
   -0.7532   -3.6954    1.0720 C   0  0  0  0  0  0  0  0  0  0  0  0
   -2.2309   -3.3910    1.2292 C   0  0  0  0  0  0  0  0  0  0  0  0
   -2.9804   -3.6195   -0.0230 N   0  0  0  0  0  0  0  0  0  0  0  0
   -4.6719   -3.3835   -0.1173 S   0  0  0  0  0  0  0  0  0  0  0  0
   -4.7902   -1.6454   -0.2349 C   0  0  0  0  0  0  0  0  0  0  0  0
   -4.1526   -1.1542   -1.5322 C   0  0  0  0  0  0  0  0  0  0  0  0
   -6.1278   -0.9466   -0.0678 C   0  0  0  0  0  0  0  0  0  0  0  0
   -5.1143   -3.9208   -1.3542 O   0  0  0  0  0  0  0  0  0  0  0  0
   -5.2274   -3.7901    1.1845 O   0  0  0  0  0  0  0  0  0  0  0  0
   -0.9289    3.0185   -1.1313 O   0  0  0  0  0  0  0  0  0  0  0  0
  1  2  2  0
  1  6  1  0
  2  3  1  0
  3  4  2  0
  3  7  1  0
  4  5  1  0
  4  9  1  0
  5  6  2  0
  7  8  1  0
  7 18  1  0
  8  9  2  0
  8 10  1  0
  9 13  1  0
 10 11  1  0
 10 14  1  6
 11 12  1  0
 11 17  1  0
 12 13  1  0
 13 28  2  0
 14 15  1  0
 15 16  1  0
 16 17  1  0
 18 19  1  0
 19 20  1  0
 20 21  1  0
 21 22  1  0
 22 23  1  0
 22 26  2  0
 22 27  2  0
 23 24  1  0
 23 25  1  0
M  END
>  <DRUGBANK_ID>  (1) 
DB01967

>  <SECONDARY_ACCESSION_NUMBERS>  (1) 
EXPT03238

>  <COMMON_NAME>  (1) 
N-{3-[(7ar,12as,12bs)-7-Oxo-1,3,4,6,7,7a,12a,12b-Octahydroindolo[2,3-a]Quinolizin-12(2h)-Yl]Propyl}Propane-2-Sulfonamide

$$$$
