623
     RDKit          3D

 29 31  0  0  0  0  0  0  0  0999 V2000
    0.7631    1.1737    0.0772 C   0  0  0  0  0  0  0  0  0  0  0  0
    1.5024    2.2808    0.1880 F   0  0  0  0  0  0  0  0  0  0  0  0
    1.4558   -0.0158   -0.0007 C   0  0  0  0  0  0  0  0  0  0  0  0
    0.7329   -1.1891   -0.0718 C   0  0  0  0  0  0  0  0  0  0  0  0
    1.4499   -2.3117   -0.1771 F   0  0  0  0  0  0  0  0  0  0  0  0
   -0.6758   -1.1915   -0.0264 C   0  0  0  0  0  0  0  0  0  0  0  0
   -1.2992    0.0179    0.0042 N   0  0  0  0  0  0  0  0  0  0  0  0
   -0.6453    1.2109    0.0356 C   0  0  0  0  0  0  0  0  0  0  0  0
    2.9507   -0.0515    0.0075 C   0  0  0  0  0  0  0  0  0  0  0  0
   -1.4541   -2.3491   -0.0192 O   0  0  0  0  0  0  0  0  0  0  0  0
   -1.3919    2.3903    0.0413 O   0  0  0  0  0  0  0  0  0  0  0  0
   -0.7056    3.5947   -0.0013 C   0  0  0  0  0  0  0  0  0  0  0  0
    0.0704    3.9534   -1.1117 C   0  0  0  0  0  0  0  0  0  0  0  0
    0.8782    5.1054   -1.0870 C   0  0  0  0  0  0  0  0  0  0  0  0
    0.9581    5.8426    0.0994 C   0  0  0  0  0  0  0  0  0  0  0  0
    0.1682    5.4910    1.1988 C   0  0  0  0  0  0  0  0  0  0  0  0
   -0.7404    4.4319    1.1107 C   0  0  0  0  0  0  0  0  0  0  0  0
    1.6508    5.4866   -2.3121 C   0  0  0  0  0  0  0  0  0  0  0  0
    2.3429    6.5842   -2.4156 N   0  0  0  0  0  0  0  0  0  0  0  0
    1.6686    4.6985   -3.4149 N   0  0  0  0  0  0  0  0  0  0  0  0
   -0.8031   -3.5728   -0.0003 C   0  0  0  0  0  0  0  0  0  0  0  0
   -0.8818   -4.3931   -1.1223 C   0  0  0  0  0  0  0  0  0  0  0  0
   -0.0128   -5.4818   -1.2364 C   0  0  0  0  0  0  0  0  0  0  0  0
    0.7760   -5.8770   -0.1516 C   0  0  0  0  0  0  0  0  0  0  0  0
    0.7369   -5.1545    1.0460 C   0  0  0  0  0  0  0  0  0  0  0  0
   -0.0269   -3.9734    1.0958 C   0  0  0  0  0  0  0  0  0  0  0  0
    1.5074   -5.5862    2.2561 C   0  0  0  0  0  0  0  0  0  0  0  0
    2.1589   -6.7101    2.3336 N   0  0  0  0  0  0  0  0  0  0  0  0
    1.5661   -4.8193    3.3723 N   0  0  0  0  0  0  0  0  0  0  0  0
  1  2  1  0
  1  3  2  0
  1  8  1  0
  3  4  1  0
  3  9  1  0
  4  5  1  0
  4  6  2  0
  6  7  1  0
  6 10  1  0
  7  8  2  0
  8 11  1  0
 10 21  1  0
 11 12  1  0
 12 13  2  0
 12 17  1  0
 13 14  1  0
 14 15  2  0
 14 18  1  0
 15 16  1  0
 16 17  2  0
 18 19  2  0
 18 20  1  0
 21 22  2  0
 21 26  1  0
 22 23  1  0
 23 24  2  0
 24 25  1  0
 25 26  2  0
 25 27  1  0
 27 28  2  0
 27 29  1  0
M  CHG  1   7   1
M  END
>  <DRUGBANK_ID>  (1) 
DB04432

>  <SECONDARY_ACCESSION_NUMBERS>  (1) 
EXPT00266

>  <COMMON_NAME>  (1) 
ZK-805623

$$$$
