
     RDKit          3D

 19 21  0  0  0  0  0  0  0  0999 V2000
    0.8525    0.0778   -0.2273 C   0  0  0  0  0  0  0  0  0  0  0  0
    0.4513   -1.4054   -0.1767 C   0  0  0  0  0  0  0  0  0  0  0  0
    1.0165   -2.2855    0.9977 C   0  0  0  0  0  0  0  0  0  0  0  0
    2.5367   -2.3562    0.9077 C   0  0  0  0  0  0  0  0  0  0  0  0
    3.2876   -1.3972    1.0845 O   0  0  0  0  0  0  0  0  0  0  0  0
    3.0954   -3.5564    0.5981 N   0  0  0  0  0  0  0  0  0  0  0  0
    2.4586   -4.7479    0.5006 C   0  0  0  0  0  0  0  0  0  0  0  0
    3.0741   -5.7837    0.2808 O   0  0  0  0  0  0  0  0  0  0  0  0
    1.1123   -4.7405    0.6606 N   0  0  0  0  0  0  0  0  0  0  0  0
    0.3220   -3.6497    0.8787 C   0  0  0  0  0  0  0  0  0  0  0  0
   -0.8948   -3.8109    0.9745 O   0  0  0  0  0  0  0  0  0  0  0  0
    0.6518   -1.6859    2.3330 C   0  0  0  0  0  0  0  0  0  0  0  0
    0.6233   -0.3355    2.5119 C   0  0  0  0  0  0  0  0  0  0  0  0
    0.0455    0.3844    3.9687 C   0  0  0  0  0  0  0  0  0  0  0  0
    0.3581   -0.4128    5.7101 C   0  0  0  0  0  0  0  0  0  0  0  0
   -0.8201   -1.1921    5.6893 C   0  0  0  0  0  0  0  0  0  0  0  0
   -0.1138   -1.2810    4.3681 C   0  0  0  0  0  0  0  0  0  0  0  0
    1.3749    0.1198    4.3427 C   0  0  0  0  0  0  0  0  0  0  0  0
    0.2353   -2.4781    3.5413 C   0  0  0  0  0  0  0  0  0  0  0  0
  1  2  1  0
  2  3  1  0
  3  4  1  0
  3 10  1  0
  3 12  1  0
  4  5  2  0
  4  6  1  0
  6  7  1  0
  7  8  2  0
  7  9  1  0
  9 10  1  0
 10 11  2  0
 12 13  2  0
 12 19  1  0
 13 14  1  0
 14 15  1  0
 14 18  1  0
 15 16  1  0
 16 17  1  0
 17 18  1  0
 17 19  1  0
M  END
>  <DRUGBANK_ID>  (1) 
DB13805

>  <COMMON_NAME>  (1) 
Reposal

>  <CAS_NUMBER>  (1) 
3625-25-0

>  <UNII>  (1) 
3T5TIX1AYI

$$$$
