BP6
     RDKit          3D

 16 17  0  0  0  0  0  0  0  0999 V2000
   -0.7134   -1.4072   -0.0098 C   0  0  0  0  0  0  0  0  0  0  0  0
    0.4926   -0.6820   -0.0409 C   0  0  0  0  0  0  0  0  0  0  0  0
    1.7365   -1.2642   -0.0972 O   0  0  0  0  0  0  0  0  0  0  0  0
    0.4887    0.7165   -0.0161 C   0  0  0  0  0  0  0  0  0  0  0  0
    1.6699    1.4053   -0.0174 O   0  0  0  0  0  0  0  0  0  0  0  0
   -0.6971    1.4297    0.0138 C   0  0  0  0  0  0  0  0  0  0  0  0
   -1.9041    0.7391    0.0207 C   0  0  0  0  0  0  0  0  0  0  0  0
   -1.9109   -0.6617    0.0205 C   0  0  0  0  0  0  0  0  0  0  0  0
   -0.7707   -2.8898   -0.0037 C   0  0  0  0  0  0  0  0  0  0  0  0
   -0.2128   -3.6478    1.0527 C   0  0  0  0  0  0  0  0  0  0  0  0
   -0.2224   -5.0480    1.0374 C   0  0  0  0  0  0  0  0  0  0  0  0
   -0.8211   -5.7330   -0.0125 C   0  0  0  0  0  0  0  0  0  0  0  0
   -1.4087   -5.0186   -1.0503 C   0  0  0  0  0  0  0  0  0  0  0  0
   -1.3808   -3.6168   -1.0524 C   0  0  0  0  0  0  0  0  0  0  0  0
    0.5341   -2.9085    2.4326 Cl  0  0  0  0  0  0  0  0  0  0  0  0
   -2.1078   -2.8444   -2.4253 Cl  0  0  0  0  0  0  0  0  0  0  0  0
  1  2  2  0
  1  8  1  0
  1  9  1  0
  2  3  1  0
  2  4  1  0
  4  5  1  0
  4  6  2  0
  6  7  1  0
  7  8  2  0
  9 10  2  0
  9 14  1  0
 10 11  1  0
 10 15  1  0
 11 12  2  0
 12 13  1  0
 13 14  2  0
 14 16  1  0
M  END
>  <DRUGBANK_ID>  (1) 
DB03259

>  <SECONDARY_ACCESSION_NUMBERS>  (1) 
EXPT00743

>  <COMMON_NAME>  (1) 
2',6'-Dichloro-Biphenyl-2,6-Diol

$$$$
