
     RDKit          3D

 25 24  0  0  0  0  0  0  0  0999 V2000
    1.0640    0.1058    0.0040 C   0  0  0  0  0  0  0  0  0  0  0  0
    0.6231   -1.2369   -0.5583 C   0  0  0  0  0  0  0  0  0  0  0  0
    1.1134   -2.3924    0.3190 C   0  0  0  0  0  0  0  0  0  0  0  0
    0.5634   -2.3039    1.7400 C   0  0  0  0  0  0  0  0  0  0  0  0
   -0.9559   -2.2353    1.7405 C   0  0  0  0  0  0  0  0  0  0  0  0
   -1.5417   -3.5156    1.2188 C   0  0  0  0  0  0  0  0  0  0  0  0
   -2.3102   -4.3182    1.9539 C   0  0  0  0  0  0  0  0  0  0  0  0
   -2.6753   -3.9859    3.3493 C   0  0  0  0  0  0  0  0  0  0  0  0
   -4.1515   -3.9121    3.5020 C   0  0  0  0  0  0  0  0  0  0  0  0
   -4.7978   -4.6447    4.4070 C   0  0  0  0  0  0  0  0  0  0  0  0
   -4.0763   -5.6069    5.2736 C   0  0  0  0  0  0  0  0  0  0  0  0
   -4.3021   -5.3115    6.7103 C   0  0  0  0  0  0  0  0  0  0  0  0
   -4.7980   -6.2330    7.5319 C   0  0  0  0  0  0  0  0  0  0  0  0
   -5.2018   -7.5642    7.0262 C   0  0  0  0  0  0  0  0  0  0  0  0
   -4.5067   -8.6448    7.7565 C   0  0  0  0  0  0  0  0  0  0  0  0
   -5.2000   -9.6126    8.3508 C   0  0  0  0  0  0  0  0  0  0  0  0
   -6.6967   -9.6478    8.3024 C   0  0  0  0  0  0  0  0  0  0  0  0
   -7.2557  -10.9907    7.9179 C   0  0  0  0  0  0  0  0  0  0  0  0
   -6.7844  -12.1039    8.8296 C   0  0  0  0  0  0  0  0  0  0  0  0
   -7.3213  -12.0369   10.2616 C   0  0  0  0  0  0  0  0  0  0  0  0
   -8.0873  -12.9256   10.6306 O   0  0  0  0  0  0  0  0  0  0  0  0
   -6.8784  -10.9081   11.2115 C   0  0  0  0  0  0  0  0  0  0  0  0
   -5.5459  -10.6421   11.1313 F   0  0  0  0  0  0  0  0  0  0  0  0
   -7.5329   -9.7284   11.0237 F   0  0  0  0  0  0  0  0  0  0  0  0
   -7.1216  -11.2092   12.5175 F   0  0  0  0  0  0  0  0  0  0  0  0
  1  2  1  0
  2  3  1  0
  3  4  1  0
  4  5  1  0
  5  6  1  0
  6  7  2  0
  7  8  1  0
  8  9  1  0
  9 10  2  0
 10 11  1  0
 11 12  1  0
 12 13  2  0
 13 14  1  0
 14 15  1  0
 15 16  2  0
 16 17  1  0
 17 18  1  0
 18 19  1  0
 19 20  1  0
 20 21  2  0
 20 22  1  0
 22 23  1  0
 22 24  1  0
 22 25  1  0
M  END
>  <DRUGBANK_ID>  (1) 
DB17022

>  <COMMON_NAME>  (1) 
Arachidonyltrifluoromethane

>  <CAS_NUMBER>  (1) 
149301-79-1

>  <UNII>  (1) 
00XIW1CR0F

>  <SYNONYMS>  (1) 
6,9,12,15-heneicosatetraen-2-one, 1,1,1-trifluoro-, (6z,9z,12z,15z)-; Aacocf3; Arachidonyl trifluoromethyl ketone

$$$$
