
     RDKit          3D

 23 24  0  0  1  0  0  0  0  0999 V2000
    1.0820    0.1880    1.1208 C   0  0  1  0  0  0  0  0  0  0  0  0
   -0.2188    0.7933    0.5871 C   0  0  1  0  0  0  0  0  0  0  0  0
    1.4260   -1.0206    0.4298 O   0  0  0  0  0  0  0  0  0  0  0  0
   -1.3591   -0.2554    0.5236 C   0  0  2  0  0  0  0  0  0  0  0  0
    0.4291   -2.0534    0.5231 C   0  0  1  0  0  0  0  0  0  0  0  0
   -0.9117   -1.6125   -0.1181 C   0  0  2  0  0  0  0  0  0  0  0  0
    2.1326    1.1290    0.9325 O   0  0  0  0  0  0  0  0  0  0  0  0
   -0.6042    2.0876    1.0255 O   0  0  0  0  0  0  0  0  0  0  0  0
   -2.5973    0.2171   -0.0242 O   0  0  0  0  0  0  0  0  0  0  0  0
   -0.9954   -1.7613   -1.5647 O   0  0  0  0  0  0  0  0  0  0  0  0
    0.8884   -3.4524    0.0116 C   0  0  0  0  0  0  0  0  0  0  0  0
    1.8913   -3.4701   -0.9907 O   0  0  0  0  0  0  0  0  0  0  0  0
   -0.1153   -1.0576   -2.4813 C   0  0  1  0  0  0  0  0  0  0  0  0
   -0.4866    0.4192   -2.5145 C   0  0  1  0  0  0  0  0  0  0  0  0
    1.2237   -1.3418   -2.1389 O   0  0  0  0  0  0  0  0  0  0  0  0
    0.6490    1.4209   -2.8033 C   0  0  2  0  0  0  0  0  0  0  0  0
    2.2922   -0.5711   -2.6828 C   0  0  1  0  0  0  0  0  0  0  0  0
    2.1066    0.9502   -2.5343 C   0  0  2  0  0  0  0  0  0  0  0  0
   -1.7854    0.6982   -3.0380 O   0  0  0  0  0  0  0  0  0  0  0  0
    0.3874    2.7228   -2.2390 O   0  0  0  0  0  0  0  0  0  0  0  0
    2.6552    1.5288   -1.3503 O   0  0  0  0  0  0  0  0  0  0  0  0
    3.6233   -1.1280   -2.0842 C   0  0  0  0  0  0  0  0  0  0  0  0
    4.7341   -0.2407   -2.1282 O   0  0  0  0  0  0  0  0  0  0  0  0
  1  2  1  0
  1  3  1  0
  1  7  1  6
  2  4  1  0
  2  8  1  1
  3  5  1  0
  4  6  1  0
  4  9  1  6
  5  6  1  0
  5 11  1  6
  6 10  1  6
 12 11  1  0
 13 14  1  0
 13 15  1  0
 13 10  1  1
 14 16  1  0
 14 19  1  6
 15 17  1  0
 16 18  1  0
 16 20  1  1
 17 18  1  0
 17 22  1  1
 18 21  1  1
 22 23  1  0
M  END
>  <DRUGBANK_ID>  (1) 
DB02743

>  <SECONDARY_ACCESSION_NUMBERS>  (1) 
EXPT00610

>  <COMMON_NAME>  (1) 
beta-D-galactopyranosyl-(1->4)-beta-D-galactopyranose

>  <SYNONYMS>  (1) 
4-O-β-D-galactopyranosyl-β-D-galactopyranose; Galactobiose; β-D-galactopyranosyl-(1→4)-β-D-galactopyranose; β-D-Galp-(1→4)-β-D-Galp

$$$$
