
     RDKit          3D

 18 18  0  0  1  0  0  0  0  0999 V2000
    3.7690    5.1211   -5.1648 C   0  0  0  0  0  0  0  0  0  0  0  0
   -0.8895    5.0088   -3.1880 C   0  0  0  0  0  0  0  0  0  0  0  0
   -3.6348    0.6993   -3.3133 C   0  0  0  0  0  0  0  0  0  0  0  0
   -2.3025    1.2300   -2.7605 C   0  0  2  0  0  0  0  0  0  0  0  0
   -2.6035    2.0156   -1.4789 C   0  0  2  0  0  0  0  0  0  0  0  0
   -1.3335    2.3682   -0.7279 C   0  0  1  0  0  0  0  0  0  0  0  0
   -0.2074    2.7159   -1.6861 C   0  0  2  0  0  0  0  0  0  0  0  0
   -0.1837    2.2396   -3.2836 C   0  0  2  0  0  0  0  0  0  0  0  0
    0.6074    3.0852   -4.3768 N   0  0  0  0  0  0  0  0  0  0  0  0
   -3.4169   -0.1095   -4.4618 O   0  0  0  0  0  0  0  0  0  0  0  0
   -3.3395    1.1964   -0.5479 O   0  0  0  0  0  0  0  0  0  0  0  0
   -1.6834    3.4774    0.1919 O   0  0  0  0  0  0  0  0  0  0  0  0
    1.0804    2.6629   -1.1016 O   0  0  0  0  0  0  0  0  0  0  0  0
    2.5933    4.0954   -3.0448 O   0  0  0  0  0  0  0  0  0  0  0  0
    2.4791    4.5468   -5.3715 O   0  0  0  0  0  0  0  0  0  0  0  0
    0.4754    4.6930   -2.5545 O   0  0  0  0  0  0  0  0  0  0  0  0
   -1.5757    2.0287   -3.7307 O   0  0  0  0  0  0  0  0  0  0  0  0
    1.4772    4.6199   -3.9630 P   0  0  0  0  0  0  0  0  0  0  0  0
  4  3  1  6
  5  4  1  0
  5 11  1  1
  6  5  1  0
  6 12  1  1
  7  6  1  0
  7 13  1  1
  8  7  1  0
  8  9  1  6
 10  3  1  0
 15  1  1  0
 16  2  1  0
 17  4  1  0
 17  8  1  0
 18  9  1  0
 18 14  2  0
 18 15  1  0
 18 16  1  0
M  END
>  <DRUGBANK_ID>  (1) 
DB03392

>  <SECONDARY_ACCESSION_NUMBERS>  (1) 
EXPT01599

>  <COMMON_NAME>  (1) 
(3,4,5-Trihydroxy-6-Hydroxymethyl-Tetrahydro-Pyran-2-Yl)-Phosphoramidic Acid Dimethyl Ester

$$$$
