DT2
     RDKit          3D

 27 30  0  0  0  0  0  0  0  0999 V2000
    1.0214   -0.1377    0.0838 O   0  0  0  0  0  0  0  0  0  0  0  0
    2.4605    0.0223    0.0883 S   0  0  0  0  0  0  0  0  0  0  0  0
    3.1032    1.2298    0.5380 O   0  0  0  0  0  0  0  0  0  0  0  0
    3.0886   -1.1953    1.0773 N   0  0  0  0  0  0  0  0  0  0  0  0
    3.0697   -0.3727   -1.5282 C   0  0  0  0  0  0  0  0  0  0  0  0
    3.6272    0.6324   -2.3283 C   0  0  0  0  0  0  0  0  0  0  0  0
    4.1438    0.3233   -3.6000 C   0  0  0  0  0  0  0  0  0  0  0  0
    4.1414   -0.9955   -4.0685 C   0  0  0  0  0  0  0  0  0  0  0  0
    3.6368   -1.9883   -3.2067 C   0  0  0  0  0  0  0  0  0  0  0  0
    3.0503   -1.6855   -1.9774 C   0  0  0  0  0  0  0  0  0  0  0  0
    4.5643   -1.3112   -5.3772 N   0  0  0  0  0  0  0  0  0  0  0  0
    4.4776   -2.5766   -5.9549 C   0  0  0  0  0  0  0  0  0  0  0  0
    5.6479   -3.2340   -6.4028 N   0  0  0  0  0  0  0  0  0  0  0  0
    6.9457   -2.8143   -6.4413 N   0  0  0  0  0  0  0  0  0  0  0  0
    7.5740   -3.9000   -6.9000 C   0  0  0  0  0  0  0  0  0  0  0  0
    5.5910   -4.5528   -6.8589 C   0  0  0  0  0  0  0  0  0  0  0  0
    6.7947   -4.9753   -7.1687 N   0  0  0  0  0  0  0  0  0  0  0  0
    4.4279   -5.2360   -6.9141 N   0  0  0  0  0  0  0  0  0  0  0  0
    3.3267   -4.6498   -6.5334 C   0  0  0  0  0  0  0  0  0  0  0  0
    3.3088   -3.2436   -6.0443 C   0  0  0  0  0  0  0  0  0  0  0  0
    2.1438   -5.3554   -6.5650 N   0  0  0  0  0  0  0  0  0  0  0  0
    2.0391   -6.7380   -7.0233 C   0  0  0  0  0  0  0  0  0  0  0  0
    2.8627   -7.6678   -6.1183 C   0  0  0  0  0  0  0  0  0  0  0  0
    2.9117   -9.0925   -6.6483 C   0  0  0  0  0  0  0  0  0  0  0  0
    3.3957   -9.1273   -8.0944 C   0  0  0  0  0  0  0  0  0  0  0  0
    2.5101   -8.2727   -8.9955 C   0  0  0  0  0  0  0  0  0  0  0  0
    2.4369   -6.8353   -8.5042 C   0  0  0  0  0  0  0  0  0  0  0  0
  1  2  2  0
  2  3  2  0
  2  4  1  0
  2  5  1  0
  5  6  2  0
  5 10  1  0
  6  7  1  0
  7  8  2  0
  8  9  1  0
  8 11  1  0
  9 10  2  0
 11 12  1  0
 12 13  1  0
 12 20  2  0
 13 14  1  0
 13 16  1  0
 14 15  2  0
 15 17  1  0
 16 17  2  0
 16 18  1  0
 18 19  2  0
 19 20  1  0
 19 21  1  0
 21 22  1  0
 22 23  1  0
 22 27  1  0
 23 24  1  0
 24 25  1  0
 25 26  1  0
 26 27  1  0
M  END
>  <DRUGBANK_ID>  (1) 
DB07686

>  <COMMON_NAME>  (1) 
4-{[5-(CYCLOHEXYLAMINO)[1,2,4]TRIAZOLO[1,5-A]PYRIMIDIN-7-YL]AMINO}BENZENESULFONAMIDE

$$$$
