
     RDKit          3D

 21 23  0  0  1  0  0  0  0  0999 V2000
    0.9661   -0.0640    0.0755 C   0  0  0  0  0  0  0  0  0  0  0  0
    0.4258   -0.4157   -1.3102 C   0  0  1  0  0  0  0  0  0  0  0  0
    0.9265   -1.7874   -1.7547 C   0  0  0  0  0  0  0  0  0  0  0  0
    2.0324   -1.9464   -2.6184 C   0  0  0  0  0  0  0  0  0  0  0  0
    2.4867   -3.2228   -3.0290 C   0  0  0  0  0  0  0  0  0  0  0  0
    1.7742   -4.3142   -2.5355 C   0  0  0  0  0  0  0  0  0  0  0  0
    0.6940   -4.1951   -1.6840 C   0  0  0  0  0  0  0  0  0  0  0  0
    0.2904   -2.9365   -1.2606 C   0  0  0  0  0  0  0  0  0  0  0  0
    0.1676   -5.4093   -1.3787 N   0  0  0  0  0  0  0  0  0  0  0  0
    0.9542   -6.2454   -2.0183 C   0  0  0  0  0  0  0  0  0  0  0  0
    1.9662   -5.6593   -2.7474 O   0  0  0  0  0  0  0  0  0  0  0  0
    0.8355   -7.6911   -2.0343 C   0  0  0  0  0  0  0  0  0  0  0  0
    1.8663   -8.5061   -1.5513 C   0  0  0  0  0  0  0  0  0  0  0  0
    1.6898   -9.8906   -1.4828 C   0  0  0  0  0  0  0  0  0  0  0  0
    0.4851  -10.4543   -1.8912 C   0  0  0  0  0  0  0  0  0  0  0  0
   -0.5546   -9.6605   -2.3582 C   0  0  0  0  0  0  0  0  0  0  0  0
   -0.3820   -8.2771   -2.4225 C   0  0  0  0  0  0  0  0  0  0  0  0
    0.3217  -11.7819   -1.8253 F   0  0  0  0  0  0  0  0  0  0  0  0
   -1.1001   -0.2923   -1.3231 C   0  0  0  0  0  0  0  0  0  0  0  0
   -1.7559    0.3998   -2.0922 O   0  0  0  0  0  0  0  0  0  0  0  0
   -1.7317   -1.0610   -0.4096 O   0  0  0  0  0  0  0  0  0  0  0  0
  2  1  1  1
  2  3  1  0
  2 19  1  0
  3  4  2  0
  3  8  1  0
  4  5  1  0
  5  6  2  0
  6  7  1  0
  6 11  1  0
  7  8  2  0
  7  9  1  0
  9 10  2  0
 10 11  1  0
 10 12  1  0
 12 13  2  0
 12 17  1  0
 13 14  1  0
 14 15  2  0
 15 16  1  0
 15 18  1  0
 16 17  2  0
 19 20  2  0
 19 21  1  0
M  END
>  <DRUGBANK_ID>  (1) 
DB13317

>  <COMMON_NAME>  (1) 
Flunoxaprofen

>  <CAS_NUMBER>  (1) 
66934-18-7

>  <UNII>  (1) 
UKU5U19W9M

>  <SYNONYMS>  (1) 
Flunoxaprofen; flunoxaprofeno

$$$$
