818
     RDKit          3D

 13 13  0  0  0  0  0  0  0  0999 V2000
    2.2733    0.0327    0.0195 O   0  0  0  0  0  0  0  0  0  0  0  0
    0.8634   -2.6103    0.0460 C   0  0  0  0  0  0  0  0  0  0  0  0
    0.9896    2.5200    0.0493 C   0  0  0  0  0  0  0  0  0  0  0  0
    0.1971   -1.2448    0.0132 C   0  0  0  0  0  0  0  0  0  0  0  0
    0.2306    1.2031    0.0161 C   0  0  0  0  0  0  0  0  0  0  0  0
    0.9069   -0.0307    0.0146 C   0  0  0  0  0  0  0  0  0  0  0  0
   -1.2127   -1.1859   -0.0043 C   0  0  0  0  0  0  0  0  0  0  0  0
   -1.1745    1.2116   -0.0021 C   0  0  0  0  0  0  0  0  0  0  0  0
    0.4896   -3.3700    1.3215 C   0  0  0  0  0  0  0  0  0  0  0  0
    0.5175   -3.4203   -1.2056 C   0  0  0  0  0  0  0  0  0  0  0  0
    0.6911    3.3490   -1.2006 C   0  0  0  0  0  0  0  0  0  0  0  0
    0.6611    3.2953    1.3268 C   0  0  0  0  0  0  0  0  0  0  0  0
   -1.8938    0.0256   -0.0156 C   0  0  0  0  0  0  0  0  0  0  0  0
  1  6  1  0
  2  4  1  0
  2  9  1  0
  2 10  1  0
  3  5  1  0
  3 11  1  0
  3 12  1  0
  4  6  2  0
  4  7  1  0
  5  6  1  0
  5  8  2  0
  7 13  2  0
  8 13  1  0
M  END
>  <DRUGBANK_ID>  (1) 
DB00818

>  <SECONDARY_ACCESSION_NUMBERS>  (1) 
APRD01201; EXPT02558; DB05893

>  <COMMON_NAME>  (1) 
Propofol

>  <CAS_NUMBER>  (1) 
2078-54-8

>  <UNII>  (1) 
YI7VU623SF

>  <SYNONYMS>  (1) 
2,6-bis(1-methylethyl)phenol; 2,6-Diisopropylphenol; Propofol; Propofolum

$$$$
