AM4
     RDKit          3D

 13 13  0  0  0  0  0  0  0  0999 V2000
    1.4076   -0.1771   -0.0222 C   0  0  0  0  0  0  0  0  0  0  0  0
    0.5286   -1.2656    0.0079 C   0  0  0  0  0  0  0  0  0  0  0  0
   -0.8620   -1.0746    0.0030 C   0  0  0  0  0  0  0  0  0  0  0  0
   -1.7824   -2.2650    0.0379 C   0  0  0  0  0  0  0  0  0  0  0  0
   -3.0765   -2.1779    0.0572 N   0  0  0  0  0  0  0  0  0  0  0  0
   -1.2980   -3.5340    0.0526 N   0  0  0  0  0  0  0  0  0  0  0  0
   -1.3526    0.2414   -0.0032 C   0  0  0  0  0  0  0  0  0  0  0  0
   -0.4755    1.3370   -0.0013 C   0  0  0  0  0  0  0  0  0  0  0  0
    0.9004    1.1207   -0.0772 C   0  0  0  0  0  0  0  0  0  0  0  0
    2.0129    2.4950   -0.3018 S   0  0  0  0  0  0  0  0  0  0  0  0
    1.5185    3.2495   -1.8356 C   0  0  0  0  0  0  0  0  0  0  0  0
    1.7470    3.4322    0.7747 O   0  0  0  0  0  0  0  0  0  0  0  0
    3.3389    1.9481   -0.5057 O   0  0  0  0  0  0  0  0  0  0  0  0
  1  2  2  0
  1  9  1  0
  2  3  1  0
  3  4  1  0
  3  7  2  0
  4  5  2  0
  4  6  1  0
  7  8  1  0
  8  9  2  0
  9 10  1  0
 10 11  1  0
 10 12  2  0
 10 13  2  0
M  END
>  <DRUGBANK_ID>  (1) 
DB07368

>  <COMMON_NAME>  (1) 
4-(METHYLSULFONYL)BENZENECARBOXIMIDAMIDE

$$$$
