ETP
     RDKit          3D

 27 29  0  0  0  0  0  0  0  0999 V2000
    1.0050   -0.0767    0.0640 B   0  0  0  0  0  0  0  0  0  0  0  0
    0.2550   -1.3753    0.0292 O   0  0  0  0  0  0  0  0  0  0  0  0
    0.2550    1.2219    0.0988 O   0  0  0  0  0  0  0  0  0  0  0  0
    2.6050   -0.0767    0.0640 C   0  0  0  0  0  0  0  0  0  0  0  0
    3.2564    1.0800    0.0950 C   0  0  0  0  0  0  0  0  0  0  0  0
    4.6212    1.1102    0.2513 C   0  0  0  0  0  0  0  0  0  0  0  0
    5.3069    2.4039    0.3822 N   0  0  0  0  0  0  0  0  0  0  0  0
    5.3506   -0.0457    0.2868 C   0  0  0  0  0  0  0  0  0  0  0  0
    4.6635   -1.1727    0.3283 C   0  0  0  0  0  0  0  0  0  0  0  0
    3.2845   -1.2833    0.0317 C   0  0  0  0  0  0  0  0  0  0  0  0
    7.0546    2.4571    0.5829 S   0  0  0  0  0  0  0  0  0  0  0  0
    7.6771    3.2439   -0.5728 O   0  0  0  0  0  0  0  0  0  0  0  0
    7.3952    3.1422    1.9084 O   0  0  0  0  0  0  0  0  0  0  0  0
    9.3918    0.3963    0.5688 S   0  0  0  0  0  0  0  0  0  0  0  0
    9.0448   -1.2911    0.5676 C   0  0  0  0  0  0  0  0  0  0  0  0
    7.6897   -1.5260    0.5939 C   0  0  0  0  0  0  0  0  0  0  0  0
    6.9374   -0.3465    0.6084 C   0  0  0  0  0  0  0  0  0  0  0  0
    7.7129    0.7711    0.5886 C   0  0  0  0  0  0  0  0  0  0  0  0
    6.9589   -3.1818    0.6084 S   0  0  0  0  0  0  0  0  0  0  0  0
    6.1173   -3.3570    1.8746 O   0  0  0  0  0  0  0  0  0  0  0  0
    6.0687   -3.3574   -0.6241 O   0  0  0  0  0  0  0  0  0  0  0  0
    8.2761   -4.4229    0.5830 C   0  0  0  0  0  0  0  0  0  0  0  0
    9.1630   -4.4426    1.5711 C   0  0  0  0  0  0  0  0  0  0  0  0
   10.0807   -5.4607    1.6670 C   0  0  0  0  0  0  0  0  0  0  0  0
   10.1639   -6.4256    0.7019 C   0  0  0  0  0  0  0  0  0  0  0  0
    9.2204   -6.4151   -0.2220 C   0  0  0  0  0  0  0  0  0  0  0  0
    8.3430   -5.3310   -0.4608 C   0  0  0  0  0  0  0  0  0  0  0  0
  1  2  1  0
  1  3  1  0
  1  4  1  0
  4  5  2  0
  4 10  1  0
  5  6  1  0
  6  7  1  0
  6  8  2  0
  7 11  1  0
  8  9  1  0
  9 10  2  0
 11 12  2  0
 11 13  2  0
 11 18  1  0
 14 15  1  0
 14 18  1  0
 15 16  2  0
 16 17  1  0
 16 19  1  0
 17 18  2  0
 19 20  2  0
 19 21  2  0
 19 22  1  0
 22 23  2  0
 22 27  1  0
 23 24  1  0
 24 25  2  0
 25 26  1  0
 26 27  2  0
M  END
>  <DRUGBANK_ID>  (1) 
DB02858

>  <SECONDARY_ACCESSION_NUMBERS>  (1) 
EXPT01371

>  <COMMON_NAME>  (1) 
3-(4-Benzenesulfonyl-Thiophene-2-Sulfonylamino)-Phenylboronic Acid

$$$$
