
     RDKit          3D

 24 24  0  0  0  0  0  0  0  0999 V2000
    0.9383   -0.5313    0.2224 O   0  0  0  0  0  0  0  0  0  0  0  0
    0.1206    0.5895    0.5853 C   0  0  0  0  0  0  0  0  0  0  0  0
    2.2736   -0.3059    0.0744 C   0  0  0  0  0  0  0  0  0  0  0  0
    0.6087    1.9747    1.6444 C   0  0  0  0  0  0  0  0  0  0  0  0
    2.8846    0.9149   -0.0098 C   0  0  0  0  0  0  0  0  0  0  0  0
    3.0998   -1.3879    0.1481 C   0  0  0  0  0  0  0  0  0  0  0  0
    1.2493    3.3827    1.2883 N   0  0  0  0  0  0  0  0  0  0  0  0
    0.4592    1.6833    2.8534 O   0  0  0  0  0  0  0  0  0  0  0  0
    2.1184    1.9807   -0.2537 O   0  0  0  0  0  0  0  0  0  0  0  0
    4.2894    1.1251    0.2080 C   0  0  0  0  0  0  0  0  0  0  0  0
    4.4420   -1.1978    0.5163 C   0  0  0  0  0  0  0  0  0  0  0  0
    1.6947    4.0762    2.5029 C   0  0  0  0  0  0  0  0  0  0  0  0
    1.7729    4.3055   -0.0936 C   0  0  0  0  0  0  0  0  0  0  0  0
    0.9344    2.1335   -1.1044 C   0  0  0  0  0  0  0  0  0  0  0  0
    5.1226    0.0537    0.4660 C   0  0  0  0  0  0  0  0  0  0  0  0
    3.2065    4.2938    2.4858 C   0  0  0  0  0  0  0  0  0  0  0  0
    2.9399    3.8210   -1.2492 C   0  0  0  0  0  0  0  0  0  0  0  0
    6.6786    0.2299    0.5186 C   0  0  0  0  0  0  0  0  0  0  0  0
    7.3198   -0.6063    1.6171 C   0  0  0  0  0  0  0  0  0  0  0  0
    7.9628   -1.7732    1.2731 O   0  0  0  0  0  0  0  0  0  0  0  0
    7.1873   -0.2902    2.7654 O   0  0  0  0  0  0  0  0  0  0  0  0
    8.4313   -2.3252   -0.0073 C   0  0  0  0  0  0  0  0  0  0  0  0
    7.3581   -3.0119   -0.8847 C   0  0  0  0  0  0  0  0  0  0  0  0
    6.4195   -2.0071   -1.4625 C   0  0  0  0  0  0  0  0  0  0  0  0
  1  2  1  0
  1  3  1  0
  2  4  1  0
  3  5  2  0
  3  6  1  0
  4  7  1  0
  4  8  2  0
  5  9  1  0
  5 10  1  0
  6 11  2  0
  7 12  1  0
  7 13  1  0
  9 14  1  0
 10 15  2  0
 11 15  1  0
 12 16  1  0
 13 17  1  0
 15 18  1  0
 18 19  1  0
 19 20  1  0
 19 21  2  0
 20 22  1  0
 22 23  1  0
 23 24  1  0
M  END
>  <DRUGBANK_ID>  (1) 
DB13234

>  <COMMON_NAME>  (1) 
Propanidid

>  <CAS_NUMBER>  (1) 
1421-14-3

>  <UNII>  (1) 
AO82L471NS

>  <SYNONYMS>  (1) 
Propanidid; Propanidido; Propanididum

$$$$
