CMW
     RDKit          3D

 24 25  0  0  0  0  0  0  0  0999 V2000
    1.0882   -0.0970    0.0127 O   0  0  0  0  0  0  0  0  0  0  0  0
    2.2417    0.3178   -0.1085 C   0  0  0  0  0  0  0  0  0  0  0  0
    3.2042   -0.2995   -0.9388 N   0  0  0  0  0  0  0  0  0  0  0  0
    4.7770   -0.1766   -1.1267 C   0  0  0  0  0  0  0  0  0  0  0  0
    5.8351   -0.1891   -0.0409 C   0  0  0  0  0  0  0  0  0  0  0  0
    7.1752   -0.5079   -0.0408 C   0  0  0  0  0  0  0  0  0  0  0  0
    7.5946   -1.0516   -1.1471 N   0  0  0  0  0  0  0  0  0  0  0  0
    6.6936   -1.0972   -2.2017 C   0  0  0  0  0  0  0  0  0  0  0  0
    5.3333   -0.6651   -2.2746 C   0  0  0  0  0  0  0  0  0  0  0  0
    2.6030    1.4081    0.6049 O   0  0  0  0  0  0  0  0  0  0  0  0
    3.9396    1.3499    0.9887 C   0  0  0  0  0  0  0  0  0  0  0  0
    4.1930    0.0356    1.8836 C   0  0  0  0  0  0  0  0  0  0  0  0
    3.8767   -1.6929    1.2997 C   0  0  0  0  0  0  0  0  0  0  0  0
    4.4971   -2.2803   -0.0655 N   0  0  0  0  0  0  0  0  0  0  0  0
    4.0208   -3.3825   -1.2310 S   0  0  0  0  0  0  0  0  0  0  0  0
    2.5575   -3.3838   -1.2465 O   0  0  0  0  0  0  0  0  0  0  0  0
    4.7729   -3.3030   -2.4480 O   0  0  0  0  0  0  0  0  0  0  0  0
    4.7126   -4.7243   -0.4351 C   0  0  0  0  0  0  0  0  0  0  0  0
    5.6745   -4.5378    0.5829 C   0  0  0  0  0  0  0  0  0  0  0  0
    6.0361   -5.6106    1.3315 C   0  0  0  0  0  0  0  0  0  0  0  0
    5.5161   -6.8433    0.9561 C   0  0  0  0  0  0  0  0  0  0  0  0
    5.8867   -8.0433    1.7366 C   0  0  0  0  0  0  0  0  0  0  0  0
    4.6679   -7.0110   -0.1593 C   0  0  0  0  0  0  0  0  0  0  0  0
    4.2648   -5.9336   -0.8837 C   0  0  0  0  0  0  0  0  0  0  0  0
  1  2  2  0
  2  3  1  0
  2 10  1  0
  3  4  1  0
  4  5  2  0
  4  9  1  0
  5  6  1  0
  6  7  2  0
  7  8  1  0
  8  9  2  0
 10 11  1  0
 11 12  1  0
 12 13  1  0
 13 14  1  0
 14 15  1  0
 15 16  2  0
 15 17  2  0
 15 18  1  0
 18 19  2  0
 18 24  1  0
 19 20  1  0
 20 21  2  0
 21 22  1  0
 21 23  1  0
 23 24  2  0
M  END
>  <DRUGBANK_ID>  (1) 
DB07572

>  <COMMON_NAME>  (1) 
3-{[(4-methylphenyl)sulfonyl]amino}propyl pyridin-4-ylcarbamate

$$$$
