N5T
     RDKit          3D

 24 26  0  0  0  0  0  0  0  0999 V2000
    1.3585    0.0237    0.0061 C   0  0  0  0  0  0  0  0  0  0  0  0
    0.6685    1.2406    0.0299 C   0  0  0  0  0  0  0  0  0  0  0  0
   -0.7356    1.2615    0.0796 C   0  0  0  0  0  0  0  0  0  0  0  0
   -1.4028    0.0269    0.0581 C   0  0  0  0  0  0  0  0  0  0  0  0
   -0.7091   -1.1881    0.0219 C   0  0  0  0  0  0  0  0  0  0  0  0
    0.6831   -1.1912    0.0065 C   0  0  0  0  0  0  0  0  0  0  0  0
   -1.4870    2.5243    0.0647 C   0  0  0  0  0  0  0  0  0  0  0  0
   -2.5296    2.9652    1.0579 C   0  0  0  0  0  0  0  0  0  0  0  0
   -3.0275    4.2467    0.5009 N   0  0  0  0  0  0  0  0  0  0  0  0
   -2.4437    4.4899   -0.8128 C   0  0  1  0  0  0  0  0  0  0  0  0
   -1.4096    3.4049   -0.9361 C   0  0  0  0  0  0  0  0  0  0  0  0
   -3.4445    4.5416   -1.9988 C   0  0  0  0  0  0  0  0  0  0  0  0
   -4.6308    5.3015   -1.9582 C   0  0  0  0  0  0  0  0  0  0  0  0
   -5.1499    5.9546   -3.0680 C   0  0  0  0  0  0  0  0  0  0  0  0
   -4.7803    5.4980   -4.3073 C   0  0  0  0  0  0  0  0  0  0  0  0
   -3.8147    4.4957   -4.3947 C   0  0  0  0  0  0  0  0  0  0  0  0
   -3.1167    4.0569   -3.2600 C   0  0  0  0  0  0  0  0  0  0  0  0
   -3.9547    5.0029    1.1921 C   0  0  0  0  0  0  0  0  0  0  0  0
   -4.2670    6.3183    0.8171 N   0  0  0  0  0  0  0  0  0  0  0  0
   -5.5456    6.8865    1.2785 C   0  0  0  0  0  0  0  0  0  0  0  0
   -3.5535    7.1989   -0.1235 C   0  0  0  0  0  0  0  0  0  0  0  0
   -4.5574    4.4772    2.1544 O   0  0  0  0  0  0  0  0  0  0  0  0
   -2.7428   -0.0126    0.0299 F   0  0  0  0  0  0  0  0  0  0  0  0
    2.6984    0.0243   -0.0158 F   0  0  0  0  0  0  0  0  0  0  0  0
  1  2  2  0
  1  6  1  0
  1 24  1  0
  2  3  1  0
  3  4  2  0
  3  7  1  0
  4  5  1  0
  4 23  1  0
  5  6  2  0
  7  8  1  0
  7 11  2  0
  8  9  1  0
  9 10  1  0
  9 18  1  0
 10 11  1  0
 10 12  1  6
 12 13  2  0
 12 17  1  0
 13 14  1  0
 14 15  2  0
 15 16  1  0
 16 17  2  0
 18 19  1  0
 18 22  2  0
 19 20  1  0
 19 21  1  0
M  END
>  <DRUGBANK_ID>  (1) 
DB08246

>  <COMMON_NAME>  (1) 
(2S)-4-(2,5-DIFLUOROPHENYL)-N,N-DIMETHYL-2-PHENYL-2,5-DIHYDRO-1H-PYRROLE-1-CARBOXAMIDE

$$$$
