
     RDKit          3D

 16 17  0  0  0  0  0  0  0  0999 V2000
    0.9052   -0.0302    0.0088 C   0  0  0  0  0  0  0  0  0  0  0  0
    0.1766   -1.2159    0.0048 C   0  0  0  0  0  0  0  0  0  0  0  0
    0.2590    1.1969    0.0213 C   0  0  0  0  0  0  0  0  0  0  0  0
   -1.2256   -1.1629   -0.0128 C   0  0  0  0  0  0  0  0  0  0  0  0
   -1.1334    1.2499    0.0207 C   0  0  0  0  0  0  0  0  0  0  0  0
   -4.5892    3.5431   -1.1259 C   0  0  0  0  0  0  0  0  0  0  0  0
   -3.9249    2.3118   -1.1318 C   0  0  0  0  0  0  0  0  0  0  0  0
   -5.6676    2.9405    0.9567 C   0  0  0  0  0  0  0  0  0  0  0  0
   -1.8922    0.0741   -0.0206 C   0  0  0  0  0  0  0  0  0  0  0  0
   -5.4611    3.8432   -0.0827 C   0  0  0  0  0  0  0  0  0  0  0  0
   -4.1181    1.4035   -0.0808 C   0  0  0  0  0  0  0  0  0  0  0  0
   -5.0000    1.7134    0.9588 C   0  0  0  0  0  0  0  0  0  0  0  0
   -3.3871    0.1121   -0.0415 C   0  0  0  0  0  0  0  0  0  0  0  0
   -6.1475    5.0205   -0.0355 O   0  0  0  0  0  0  0  0  0  0  0  0
   -4.0400   -0.9292    0.0027 O   0  0  0  0  0  0  0  0  0  0  0  0
    2.2674   -0.0079    0.0055 O   0  0  0  0  0  0  0  0  0  0  0  0
  1  2  2  0
  1  3  1  0
  1 16  1  0
  2  4  1  0
  3  5  2  0
  4  9  2  0
  5  9  1  0
  6  7  2  0
  6 10  1  0
  7 11  1  0
  8 10  2  0
  8 12  1  0
  9 13  1  0
 10 14  1  0
 11 12  2  0
 11 13  1  0
 13 15  2  0
M  END
>  <DRUGBANK_ID>  (1) 
DB07635

>  <COMMON_NAME>  (1) 
4,4'-Dihydroxybenzophenone

>  <CAS_NUMBER>  (1) 
611-99-4

>  <UNII>  (1) 
HZR7D31SBY

>  <SYNONYMS>  (1) 
4,4-Dihydroxybenzophenone; 4,4'-Dihydroxydiphenyl ketone; Bis(4-hydroxyphenyl) ketone; Bis(p-hydroxy)benzophenone; p,p'-Dihydroxybenzophenone

$$$$
