
     RDKit          3D

 14 15  0  0  0  0  0  0  0  0999 V2000
    1.8134    1.6116    0.0130 C   0  0  0  0  0  0  0  0  0  0  0  0
    1.9559   -1.2477    0.1604 C   0  0  0  0  0  0  0  0  0  0  0  0
   -1.8691    0.6832    0.0222 C   0  0  0  0  0  0  0  0  0  0  0  0
   -0.6978    1.4377    0.0447 C   0  0  0  0  0  0  0  0  0  0  0  0
   -1.8111   -0.7149   -0.0154 C   0  0  0  0  0  0  0  0  0  0  0  0
   -0.5379   -2.9168   -0.0909 C   0  0  0  0  0  0  0  0  0  0  0  0
    1.4868   -3.6158   -1.6718 C   0  0  0  0  0  0  0  0  0  0  0  0
    0.4130   -4.3632   -3.3324 C   0  0  0  0  0  0  0  0  0  0  0  0
    0.5440    0.8044    0.0827 C   0  0  0  0  0  0  0  0  0  0  0  0
    0.6038   -0.6046    0.1265 C   0  0  0  0  0  0  0  0  0  0  0  0
   -0.5744   -1.3874    0.0052 C   0  0  0  0  0  0  0  0  0  0  0  0
    0.1544   -3.4718   -1.3119 C   0  0  0  0  0  0  0  0  0  0  0  0
    1.6319   -4.0527   -2.9534 N   0  0  0  0  0  0  0  0  0  0  0  0
   -0.4980   -4.0781   -2.3578 N   0  0  0  0  0  0  0  0  0  0  0  0
  4  3  2  0
  5  3  1  0
  9  1  1  0
  9  4  1  0
 10  2  1  0
 10  9  2  0
 11  5  2  0
 11  6  1  0
 11 10  1  0
 12  6  1  0
 12  7  2  0
 13  7  1  0
 13  8  2  0
 14  8  1  0
 14 12  1  0
M  END
>  <DRUGBANK_ID>  (1) 
DB11556

>  <COMMON_NAME>  (1) 
Detomidine

>  <CAS_NUMBER>  (1) 
76631-46-4

>  <UNII>  (1) 
7N8K34P2XH

>  <SYNONYMS>  (1) 
4-(2,3-dimethylbenzyl)imidazole; Detomidine

$$$$
