
     RDKit          3D

 29 32  0  0  1  0  0  0  0  0999 V2000
   -1.2645   -0.0483    0.0127 I   0  0  0  0  0  0  0  0  0  0  0  0
   10.8772    2.2340    3.1372 O   0  0  0  0  0  0  0  0  0  0  0  0
   10.9413   -0.6886    1.0639 O   0  0  0  0  0  0  0  0  0  0  0  0
   13.1642    0.4045    2.0431 O   0  0  0  0  0  0  0  0  0  0  0  0
   13.3008    4.4820    1.2671 O   0  0  0  0  0  0  0  0  0  0  0  0
    8.6637    1.2539    2.3810 N   0  0  0  0  0  0  0  0  0  0  0  0
    6.4937    1.0399    2.9726 N   0  0  0  0  0  0  0  0  0  0  0  0
   11.1062    4.6536    1.1360 N   0  0  0  0  0  0  0  0  0  0  0  0
    8.2127    2.4401    0.2411 N   0  0  0  0  0  0  0  0  0  0  0  0
    4.2677    2.7700    1.3533 N   0  0  0  0  0  0  0  0  0  0  0  0
    6.1304    3.5989    0.2755 N   0  0  0  0  0  0  0  0  0  0  0  0
   10.8994    0.7264    1.2535 C   0  0  1  0  0  0  0  0  0  0  0  0
   10.1528    1.0784    2.5363 C   0  0  1  0  0  0  0  0  0  0  0  0
   12.2865    1.3646    1.4240 C   0  0  1  0  0  0  0  0  0  0  0  0
   12.0696    2.5784    2.3421 C   0  0  1  0  0  0  0  0  0  0  0  0
   12.2280    3.9858    1.5481 C   0  0  0  0  0  0  0  0  0  0  0  0
    7.8691    1.8828    1.4149 C   0  0  0  0  0  0  0  0  0  0  0  0
    7.7353    0.6429    3.2045 C   0  0  0  0  0  0  0  0  0  0  0  0
    6.5756    1.9177    1.9139 C   0  0  0  0  0  0  0  0  0  0  0  0
    5.6507    2.7341    1.1968 C   0  0  0  0  0  0  0  0  0  0  0  0
    9.9089    3.9825    1.0560 C   0  0  0  0  0  0  0  0  0  0  0  0
    7.3637    3.4149   -0.1482 C   0  0  0  0  0  0  0  0  0  0  0  0
    3.5830    2.5712    0.0716 C   0  0  0  0  0  0  0  0  0  0  0  0
    2.8809    1.2353    0.0353 C   0  0  0  0  0  0  0  0  0  0  0  0
    1.4808    1.1964    0.0343 C   0  0  0  0  0  0  0  0  0  0  0  0
    3.5981    0.0287   -0.0071 C   0  0  0  0  0  0  0  0  0  0  0  0
    0.8124   -0.0259    0.0215 C   0  0  0  0  0  0  0  0  0  0  0  0
    2.9229   -1.1937   -0.0048 C   0  0  0  0  0  0  0  0  0  0  0  0
    1.5277   -1.2220    0.0151 C   0  0  0  0  0  0  0  0  0  0  0  0
  1 27  1  0
  2 13  1  0
  2 15  1  0
  5 16  2  0
  6 17  1  0
  6 18  1  0
  7 18  2  0
  7 19  1  0
  8 16  1  0
  8 21  1  0
  9 17  1  0
  9 22  2  0
 10 20  1  0
 10 23  1  0
 11 20  2  0
 11 22  1  0
 12  3  1  1
 12 13  1  0
 12 14  1  0
 13  6  1  6
 14  4  1  1
 14 15  1  0
 15 16  1  6
 17 19  2  0
 19 20  1  0
 23 24  1  0
 24 25  2  0
 24 26  1  0
 25 27  1  0
 26 28  2  0
 27 29  2  0
 28 29  1  0
M  END
>  <DRUGBANK_ID>  (1) 
DB05511

>  <COMMON_NAME>  (1) 
Piclidenoson

>  <CAS_NUMBER>  (1) 
152918-18-8

>  <UNII>  (1) 
30679UMI0N

>  <SYNONYMS>  (1) 
Piclidenoson

$$$$
