854
     RDKit          3D

 19 22  0  0  1  0  0  0  0  0999 V2000
    0.9306    0.0735    0.1685 O   0  0  0  0  0  0  0  0  0  0  0  0
   -2.7231    0.4158   -4.5788 N   0  0  0  0  0  0  0  0  0  0  0  0
   -0.1750   -0.8905   -4.5141 C   0  0  1  0  0  0  0  0  0  0  0  0
   -0.6782   -0.2538   -5.8257 C   0  0  1  0  0  0  0  0  0  0  0  0
   -1.5651    0.9790   -5.4234 C   0  0  2  0  0  0  0  0  0  0  0  0
   -1.4313   -1.7277   -4.1206 C   0  0  0  0  0  0  0  0  0  0  0  0
    1.0415   -1.8565   -4.7171 C   0  0  0  0  0  0  0  0  0  0  0  0
    0.0733   -0.7630   -7.0727 C   0  0  0  0  0  0  0  0  0  0  0  0
    0.1684    0.1530   -3.4048 C   0  0  0  0  0  0  0  0  0  0  0  0
   -0.8489    2.1075   -4.6847 C   0  0  0  0  0  0  0  0  0  0  0  0
   -2.7662   -1.0344   -4.4308 C   0  0  0  0  0  0  0  0  0  0  0  0
    0.7295   -2.9401   -5.7411 C   0  0  0  0  0  0  0  0  0  0  0  0
    0.0838   -2.3507   -7.0044 C   0  0  0  0  0  0  0  0  0  0  0  0
   -0.0950    1.5505   -3.5221 C   0  0  0  0  0  0  0  0  0  0  0  0
    0.5480   -0.2979   -2.1454 C   0  0  0  0  0  0  0  0  0  0  0  0
   -3.3644    1.0374   -3.4260 C   0  0  0  0  0  0  0  0  0  0  0  0
    0.0548    2.4216   -2.4171 C   0  0  0  0  0  0  0  0  0  0  0  0
    0.6229    0.5651   -1.0520 C   0  0  0  0  0  0  0  0  0  0  0  0
    0.3576    1.9274   -1.1775 C   0  0  0  0  0  0  0  0  0  0  0  0
  1 18  1  0
  2 11  1  0
  2 16  1  0
  3  4  1  0
  3  6  1  1
  3  7  1  0
  3  9  1  0
  4  5  1  0
  4  8  1  6
  5  2  1  0
  5 10  1  1
  6 11  1  0
  7 12  1  0
  8 13  1  0
  9 14  2  0
  9 15  1  0
 10 14  1  0
 12 13  1  0
 14 17  1  0
 15 18  2  0
 17 19  2  0
 18 19  1  0
M  END
>  <DRUGBANK_ID>  (1) 
DB00854

>  <SECONDARY_ACCESSION_NUMBERS>  (1) 
APRD00764

>  <COMMON_NAME>  (1) 
Levorphanol

>  <CAS_NUMBER>  (1) 
77-07-6

>  <UNII>  (1) 
27618J1N2X

>  <SYNONYMS>  (1) 
Levorfanol; Levorfanolo; LÃ©vorphanol; Levorphanol; Levorphanolum

$$$$
