422
     RDKit          3D

 17 18  0  0  1  0  0  0  0  0999 V2000
    0.8670    0.1255    0.0826 O   0  0  0  0  0  0  0  0  0  0  0  0
    0.8865    0.7183    2.2932 O   0  0  0  0  0  0  0  0  0  0  0  0
   -3.2100    1.4883   -0.0632 N   0  0  0  0  0  0  0  0  0  0  0  0
   -1.7447    1.4280    0.1582 C   0  0  0  0  0  0  0  0  0  0  0  0
   -1.2830    2.8262    0.6142 C   0  0  0  0  0  0  0  0  0  0  0  0
   -1.2749    0.3490    1.1911 C   0  0  0  0  0  0  0  0  0  0  0  0
   -1.6783    3.8946   -0.3981 C   0  0  0  0  0  0  0  0  0  0  0  0
   -3.1689    3.8420   -0.7028 C   0  0  0  0  0  0  0  0  0  0  0  0
   -3.5795    2.4424   -1.1006 C   0  0  0  0  0  0  0  0  0  0  0  0
   -1.7656   -1.0884    0.9518 C   0  0  0  0  0  0  0  0  0  0  0  0
    0.2700    0.4367    1.2763 C   0  0  0  0  0  0  0  0  0  0  0  0
   -0.8899   -2.1690    1.1242 C   0  0  0  0  0  0  0  0  0  0  0  0
   -3.1075   -1.4094    0.6692 C   0  0  0  0  0  0  0  0  0  0  0  0
   -1.3105   -3.4825    0.9243 C   0  0  0  0  0  0  0  0  0  0  0  0
   -3.5276   -2.7158    0.4362 C   0  0  0  0  0  0  0  0  0  0  0  0
   -2.6215   -3.7543    0.5525 C   0  0  0  0  0  0  0  0  0  0  0  0
    2.2995    0.0783    0.1135 C   0  0  0  0  0  0  0  0  0  0  0  0
  1 11  1  0
  1 17  1  0
  2 11  2  0
  3  4  1  0
  3  9  1  0
  4  5  1  0
  4  6  1  0
  5  7  1  0
  6 10  1  0
  6 11  1  0
  7  8  1  0
  8  9  1  0
 10 12  2  0
 10 13  1  0
 12 14  1  0
 13 15  2  0
 14 16  2  0
 15 16  1  0
M  END
>  <DRUGBANK_ID>  (1) 
DB00422

>  <SECONDARY_ACCESSION_NUMBERS>  (1) 
APRD00657

>  <COMMON_NAME>  (1) 
Methylphenidate

>  <CAS_NUMBER>  (1) 
113-45-1

>  <UNII>  (1) 
207ZZ9QZ49

>  <SYNONYMS>  (1) 
Methyl phenidylacetate; methyl phenyl(piperidin-2-yl)acetate; methyl α-phenyl-α-(2-piperidyl)acetate; methyl α-phenyl-α-2-piperidinylacetate; Methylphenidan; Methylphenidate; Methylphenidatum; Metilfenidato; MPH; α-phenyl-2-piperidineacetic acid methyl ester

$$$$
