
     RDKit          3D

 24 24  0  0  0  0  0  0  0  0999 V2000
   -1.5509   -1.7462    0.0130 C   0  0  0  0  0  0  0  0  0  0  0  0
   -0.4288   -0.7499   -0.0079 C   0  0  0  0  0  0  0  0  0  0  0  0
   -0.6663    0.6298    0.0006 C   0  0  0  0  0  0  0  0  0  0  0  0
    0.4139    1.5269    0.0202 C   0  0  0  0  0  0  0  0  0  0  0  0
    1.7197    0.9868    0.0331 C   0  0  0  0  0  0  0  0  0  0  0  0
    1.8480   -0.4039   -0.0210 C   0  0  0  0  0  0  0  0  0  0  0  0
    0.8169   -1.2734   -0.0354 N   0  0  0  0  0  0  0  0  0  0  0  0
    2.9401    1.8763    0.1420 C   0  0  0  0  0  0  0  0  0  0  0  0
    3.6875    1.7438    1.3662 O   0  0  0  0  0  0  0  0  0  0  0  0
    3.0333    1.7117    2.5467 C   0  0  0  0  0  0  0  0  0  0  0  0
    1.8506    2.0155    2.7295 O   0  0  0  0  0  0  0  0  0  0  0  0
    3.9177    1.2487    3.6641 C   0  0  0  0  0  0  0  0  0  0  0  0
    4.1950   -0.2714    3.6758 C   0  0  0  0  0  0  0  0  0  0  0  0
    4.9409   -0.9864    2.5198 C   0  0  0  0  0  0  0  0  0  0  0  0
    5.8028   -1.8352    2.7152 O   0  0  0  0  0  0  0  0  0  0  0  0
    4.6444   -0.4600    1.3054 O   0  0  0  0  0  0  0  0  0  0  0  0
    5.5876   -0.5195    0.1961 C   0  0  0  0  0  0  0  0  0  0  0  0
    6.7589    0.5237    0.2251 C   0  0  0  0  0  0  0  0  0  0  0  0
    7.6478    0.4215    1.3952 N   0  0  0  0  0  0  0  0  0  0  0  0
    8.8845    1.1783    1.2795 C   0  0  0  0  0  0  0  0  0  0  0  0
    7.0171    0.9658    2.5820 C   0  0  0  0  0  0  0  0  0  0  0  0
    0.2245    3.0255   -0.0109 C   0  0  0  0  0  0  0  0  0  0  0  0
    0.6928    3.6869    1.1520 O   0  0  0  0  0  0  0  0  0  0  0  0
   -1.9715    1.0347   -0.0184 O   0  0  0  0  0  0  0  0  0  0  0  0
  1  2  1  0
  2  3  2  0
  2  7  1  0
  3  4  1  0
  3 24  1  0
  4  5  2  0
  4 22  1  0
  5  6  1  0
  5  8  1  0
  6  7  2  0
  8  9  1  0
  9 10  1  0
 10 11  2  0
 10 12  1  0
 12 13  1  0
 13 14  1  0
 14 15  2  0
 14 16  1  0
 16 17  1  0
 17 18  1  0
 18 19  1  0
 19 20  1  0
 19 21  1  0
 22 23  1  0
M  END
>  <DRUGBANK_ID>  (1) 
DB13412

>  <COMMON_NAME>  (1) 
Pirisudanol

>  <CAS_NUMBER>  (1) 
33605-94-6

>  <UNII>  (1) 
W618Z2SMVL

>  <SYNONYMS>  (1) 
Pirisudanol

$$$$
