
     RDKit          3D

 28 30  0  0  0  0  0  0  0  0999 V2000
    1.1990    0.1501   -0.4855 C   0  0  0  0  0  0  0  0  0  0  0  0
    0.4634    1.4089   -0.5724 N   0  0  0  0  0  0  0  0  0  0  0  0
   -0.9958    1.2915   -0.5410 C   0  0  0  0  0  0  0  0  0  0  0  0
    0.9221    2.3144    0.5071 C   0  0  0  0  0  0  0  0  0  0  0  0
    0.4265    2.0236    1.9814 C   0  0  0  0  0  0  0  0  0  0  0  0
    0.7552    0.6077    2.5285 C   0  0  0  0  0  0  0  0  0  0  0  0
    1.8215    0.4434    3.4007 C   0  0  0  0  0  0  0  0  0  0  0  0
    2.0257   -0.7411    4.0594 C   0  0  0  0  0  0  0  0  0  0  0  0
    1.4959   -1.9149    3.5651 C   0  0  0  0  0  0  0  0  0  0  0  0
    1.8988   -3.1832    4.0164 O   0  0  0  0  0  0  0  0  0  0  0  0
    2.7023   -3.2537    5.1299 C   0  0  0  0  0  0  0  0  0  0  0  0
    3.1286   -2.3490    5.8625 O   0  0  0  0  0  0  0  0  0  0  0  0
    3.0604   -4.6083    5.4988 C   0  0  0  0  0  0  0  0  0  0  0  0
    3.5498   -5.5191    4.5674 C   0  0  0  0  0  0  0  0  0  0  0  0
    4.1372   -6.6931    5.0355 C   0  0  0  0  0  0  0  0  0  0  0  0
    4.2405   -6.9413    6.4151 C   0  0  0  0  0  0  0  0  0  0  0  0
    4.7868   -8.2363    6.9314 C   0  0  0  0  0  0  0  0  0  0  0  0
    3.7789   -5.9924    7.3318 C   0  0  0  0  0  0  0  0  0  0  0  0
    3.1423   -4.8536    6.8749 C   0  0  0  0  0  0  0  0  0  0  0  0
    0.5598   -1.8396    2.5463 C   0  0  0  0  0  0  0  0  0  0  0  0
    0.0783   -0.5784    2.1578 C   0  0  0  0  0  0  0  0  0  0  0  0
    0.9476    3.1619    2.9542 C   0  0  0  0  0  0  0  0  0  0  0  0
    2.3659    3.2833    2.7354 O   0  0  0  0  0  0  0  0  0  0  0  0
    0.6254    2.8399    4.4455 C   0  0  0  0  0  0  0  0  0  0  0  0
   -0.8686    2.7991    4.6962 C   0  0  0  0  0  0  0  0  0  0  0  0
   -1.4421    4.1724    4.4494 C   0  0  0  0  0  0  0  0  0  0  0  0
   -1.1400    4.6592    3.0325 C   0  0  0  0  0  0  0  0  0  0  0  0
    0.3458    4.5615    2.6861 C   0  0  0  0  0  0  0  0  0  0  0  0
  1  2  1  0
  2  3  1  0
  2  4  1  0
  4  5  1  0
  5  6  1  0
  5 22  1  0
  6  7  2  0
  6 21  1  0
  7  8  1  0
  8  9  2  0
  9 10  1  0
  9 20  1  0
 10 11  1  0
 11 12  2  0
 11 13  1  0
 13 14  2  0
 13 19  1  0
 14 15  1  0
 15 16  2  0
 16 17  1  0
 16 18  1  0
 18 19  2  0
 20 21  2  0
 22 23  1  0
 22 24  1  0
 22 28  1  0
 24 25  1  0
 25 26  1  0
 26 27  1  0
 27 28  1  0
M  END
>  <DRUGBANK_ID>  (1) 
DB15052

>  <COMMON_NAME>  (1) 
Ansofaxine

>  <CAS_NUMBER>  (1) 
916918-80-4

>  <UNII>  (1) 
A7CGH459FN

$$$$
