
     RDKit          3D

 12 13  0  0  0  0  0  0  0  0999 V2000
   -1.0283    1.4865    0.0008 C   0  0  0  0  0  0  0  0  0  0  0  0
   -2.1744    0.6589    0.0137 C   0  0  0  0  0  0  0  0  0  0  0  0
   -0.9077   -1.5218   -0.0121 C   0  0  0  0  0  0  0  0  0  0  0  0
    1.4142    1.2119   -0.0010 C   0  0  0  0  0  0  0  0  0  0  0  0
    0.1362    0.7260   -0.0044 C   0  0  0  0  0  0  0  0  0  0  0  0
   -2.1147   -0.7811    0.0030 C   0  0  0  0  0  0  0  0  0  0  0  0
    0.2372   -0.7129   -0.0079 C   0  0  0  0  0  0  0  0  0  0  0  0
    2.2086    0.0992    0.0078 N   0  0  0  0  0  0  0  0  0  0  0  0
    1.5323   -1.0649   -0.0040 N   0  0  0  0  0  0  0  0  0  0  0  0
   -3.3795   -1.5375    0.0076 N   0  0  0  0  0  0  0  0  0  0  0  0
   -3.3115   -2.7754   -0.0082 O   0  0  0  0  0  0  0  0  0  0  0  0
   -4.4381   -0.8951    0.0259 O   0  0  0  0  0  0  0  0  0  0  0  0
  2  1  2  0
  5  1  1  0
  5  4  2  0
  6  2  1  0
  6  3  2  0
  7  3  1  0
  7  5  1  0
  8  4  1  0
  9  7  2  0
  9  8  1  0
 10  6  1  0
 11 10  1  0
 12 10  2  0
M  CHG  2  10   1  11  -1
M  END
>  <DRUGBANK_ID>  (1) 
DB03100

>  <SECONDARY_ACCESSION_NUMBERS>  (1) 
EXPT00288

>  <COMMON_NAME>  (1) 
6-Nitroindazole

$$$$
