
     RDKit          3D

 14 15  0  0  0  0  0  0  0  0999 V2000
   -1.6262    1.8073   -0.0706 S   0  0  0  0  0  0  0  0  0  0  0  0
    0.1724   -1.6078    0.3816 O   0  0  0  0  0  0  0  0  0  0  0  0
    2.1232    0.9060    0.0718 N   0  0  0  0  0  0  0  0  0  0  0  0
    1.0724    2.5409    1.2347 N   0  0  0  0  0  0  0  0  0  0  0  0
    2.0764   -0.3029   -0.7735 C   0  0  1  0  0  0  0  0  0  0  0  0
    3.5241   -0.5508   -1.2693 C   0  0  0  0  0  0  0  0  0  0  0  0
    1.5557   -1.5147    0.0261 C   0  0  0  0  0  0  0  0  0  0  0  0
    3.6825   -1.7850   -2.1661 C   0  0  0  0  0  0  0  0  0  0  0  0
   -0.6318   -0.5502    0.1375 C   0  0  0  0  0  0  0  0  0  0  0  0
    1.0022    1.3938    0.4906 C   0  0  0  0  0  0  0  0  0  0  0  0
   -0.2783    0.7791    0.2047 C   0  0  0  0  0  0  0  0  0  0  0  0
    2.7951   -1.7078   -3.3985 C   0  0  0  0  0  0  0  0  0  0  0  0
   -2.0309   -0.7189   -0.0994 C   0  0  0  0  0  0  0  0  0  0  0  0
   -2.6835    0.4839   -0.2508 C   0  0  0  0  0  0  0  0  0  0  0  0
  1 11  1  0
  1 14  1  0
  2  7  1  0
  2  9  1  0
  3  5  1  0
  3 10  2  0
  4 10  1  0
  5  6  1  1
  5  7  1  0
  6  8  1  0
  8 12  1  0
  9 11  2  0
  9 13  1  0
 10 11  1  0
 13 14  2  0
M  END
>  <DRUGBANK_ID>  (1) 
DB07001

>  <COMMON_NAME>  (1) 
(3S,5E)-3-propyl-3,4-dihydrothieno[2,3-f][1,4]oxazepin-5(2H)-imine

$$$$
