
     RDKit          3D

 22 23  0  0  1  0  0  0  0  0999 V2000
    1.3615    0.0749    0.5084 O   0  0  0  0  0  0  0  0  0  0  0  0
    2.6616    0.0735    0.2115 C   0  0  0  0  0  0  0  0  0  0  0  0
    3.4299   -0.8360    1.0991 C   0  0  0  0  0  0  0  0  0  0  0  0
    3.1950    0.9238   -0.4979 O   0  0  0  0  0  0  0  0  0  0  0  0
    4.2496    0.0049    1.9174 O   0  0  0  0  0  0  0  0  0  0  0  0
    4.2031   -1.8343    0.3228 C   0  0  0  0  0  0  0  0  0  0  0  0
    5.3426   -1.4519   -0.3851 C   0  0  0  0  0  0  0  0  0  0  0  0
    3.7657   -3.1626    0.3168 C   0  0  0  0  0  0  0  0  0  0  0  0
    4.5754   -4.1346   -0.2377 C   0  0  0  0  0  0  0  0  0  0  0  0
    5.7311   -3.7576   -0.9201 C   0  0  0  0  0  0  0  0  0  0  0  0
    6.1106   -2.4184   -1.0039 C   0  0  0  0  0  0  0  0  0  0  0  0
   -0.4905    1.0190    1.2745 C   0  0  0  0  0  0  0  0  0  0  0  0
   -0.8533   -0.4999    0.8353 C   0  0  0  0  0  0  0  0  0  0  0  0
   -0.3132    1.5599    2.4143 C   0  0  0  0  0  0  0  0  0  0  0  0
    0.1775   -0.4060    2.6178 C   0  0  0  0  0  0  0  0  0  0  0  0
    0.4965   -0.9018    1.2093 C   0  0  0  0  0  0  0  0  0  0  0  0
   -1.5726    1.7988    1.7932 N   0  0  0  0  0  0  0  0  0  0  0  0
    0.4372   -0.1898   -2.6069 Br  0  0  0  0  0  0  0  0  0  0  0  0
   -0.1620    2.2261    3.6859 C   0  0  0  0  0  0  0  0  0  0  0  0
    0.8289    1.5050    2.8441 C   0  0  0  0  0  0  0  0  0  0  0  0
   -2.7217    1.3467    2.5408 C   0  0  0  0  0  0  0  0  0  0  0  0
   -1.6889    3.2049    1.1765 C   0  0  0  0  0  0  0  0  0  0  0  0
  2  1  1  0
  2  4  2  0
  3  2  1  0
  3  6  1  0
  3  5  1  0
  6  8  1  0
  7  6  2  0
  7 11  1  0
  8  9  2  0
  9 10  1  0
 10 11  2  0
 12 17  1  0
 12 20  1  0
 13 12  1  0
 14 17  1  0
 14 19  1  0
 15 14  1  0
 15 16  1  0
 16  1  1  0
 16 13  1  0
 17 21  1  0
 17 22  1  0
 20 19  1  0
M  CHG  2  17   1  18  -1
M  END
>  <DRUGBANK_ID>  (1) 
DB00725

>  <SECONDARY_ACCESSION_NUMBERS>  (1) 
APRD01017

>  <COMMON_NAME>  (1) 
Homatropine methylbromide

>  <CAS_NUMBER>  (1) 
80-49-9

>  <UNII>  (1) 
68JRS2HC1C

>  <SYNONYMS>  (1) 
3-alpha-Hydroxy-8-methyl-1-alpha-H,5-alpha-H-tropanium bromide mandelate; 8-Methylhomatropinium bromide; Homatropine methylbromide; Homatropini methylbromidum; MÃ©thylbromure d'homatropine; Methylhomatropine; Methylhomatropine bromide; Methylhomatropinum bromatum; Metilbromuro de homatropina; Omatropina metilbromuro; Tropinium methobromide mandelate

$$$$
