
     RDKit          3D

 19 22  0  0  0  0  0  0  0  0999 V2000
    1.0283   -0.0669    0.0356 C   0  0  0  0  0  0  0  0  0  0  0  0
    0.5216   -0.3485    1.4374 C   0  0  0  0  0  0  0  0  0  0  0  0
    0.4820   -1.6065    2.0193 C   0  0  0  0  0  0  0  0  0  0  0  0
    0.0530   -1.4837    3.3165 N   0  0  0  0  0  0  0  0  0  0  0  0
   -0.2280   -0.1689    3.6042 C   0  0  0  0  0  0  0  0  0  0  0  0
   -0.7053    0.4322    4.7836 C   0  0  0  0  0  0  0  0  0  0  0  0
   -0.9140    1.8186    4.7926 C   0  0  0  0  0  0  0  0  0  0  0  0
   -0.6727    2.5745    3.6645 C   0  0  0  0  0  0  0  0  0  0  0  0
   -0.2459    1.9440    2.5041 C   0  0  0  0  0  0  0  0  0  0  0  0
    0.0261    0.5612    2.4444 C   0  0  0  0  0  0  0  0  0  0  0  0
    0.6848    1.2862   -0.5104 C   0  0  0  0  0  0  0  0  0  0  0  0
   -0.3478    1.6196   -1.3649 C   0  0  0  0  0  0  0  0  0  0  0  0
   -0.3967    2.9887   -1.4702 N   0  0  0  0  0  0  0  0  0  0  0  0
    0.6072    3.5600   -0.7170 C   0  0  0  0  0  0  0  0  0  0  0  0
    0.8898    4.9052   -0.4404 C   0  0  0  0  0  0  0  0  0  0  0  0
    1.9279    5.1794    0.4610 C   0  0  0  0  0  0  0  0  0  0  0  0
    2.6407    4.1545    1.0761 C   0  0  0  0  0  0  0  0  0  0  0  0
    2.3614    2.8214    0.7725 C   0  0  0  0  0  0  0  0  0  0  0  0
    1.3338    2.5151   -0.1486 C   0  0  0  0  0  0  0  0  0  0  0  0
  1  2  1  0
  1 11  1  0
  2  3  2  0
  2 10  1  0
  3  4  1  0
  4  5  1  0
  5  6  1  0
  5 10  2  0
  6  7  2  0
  7  8  1  0
  8  9  2  0
  9 10  1  0
 11 12  2  0
 11 19  1  0
 12 13  1  0
 13 14  1  0
 14 15  1  0
 14 19  2  0
 15 16  2  0
 16 17  1  0
 17 18  2  0
 18 19  1  0
M  END
>  <DRUGBANK_ID>  (1) 
DB11875

>  <COMMON_NAME>  (1) 
3,3'-diindolylmethane

>  <CAS_NUMBER>  (1) 
1968-05-4

>  <UNII>  (1) 
SSZ9HQT61Z

>  <SYNONYMS>  (1) 
Diindolylmethane

$$$$
