
     RDKit          3D

 24 27  0  0  0  0  0  0  0  0999 V2000
    0.9569   -0.0936    0.0094 C   0  0  0  0  0  0  0  0  0  0  0  0
    0.5837    0.5608    1.2170 O   0  0  0  0  0  0  0  0  0  0  0  0
    0.8656   -0.0369    2.4213 C   0  0  0  0  0  0  0  0  0  0  0  0
   -0.0014   -0.0395    3.4465 C   0  0  0  0  0  0  0  0  0  0  0  0
    0.8345   -0.5237    4.5496 C   0  0  0  0  0  0  0  0  0  0  0  0
    0.3669   -0.6320    5.9091 C   0  0  0  0  0  0  0  0  0  0  0  0
    0.8789   -0.0074    7.0352 C   0  0  0  0  0  0  0  0  0  0  0  0
    0.1050   -0.3866    8.1653 C   0  0  0  0  0  0  0  0  0  0  0  0
    0.1351   -0.0402    9.5314 C   0  0  0  0  0  0  0  0  0  0  0  0
   -0.8144   -0.5837   10.4030 C   0  0  0  0  0  0  0  0  0  0  0  0
   -1.7671   -1.4841    9.9334 C   0  0  0  0  0  0  0  0  0  0  0  0
   -1.7989   -1.8664    8.5842 C   0  0  0  0  0  0  0  0  0  0  0  0
   -0.8598   -1.2859    7.7156 C   0  0  0  0  0  0  0  0  0  0  0  0
   -0.6683   -1.4308    6.3535 N   0  0  0  0  0  0  0  0  0  0  0  0
    2.0608   -0.8105    4.2175 N   0  0  0  0  0  0  0  0  0  0  0  0
    2.1632   -0.5400    2.8642 C   0  0  0  0  0  0  0  0  0  0  0  0
    3.2941   -0.7179    2.1577 C   0  0  0  0  0  0  0  0  0  0  0  0
    4.5064   -1.1905    2.7185 C   0  0  0  0  0  0  0  0  0  0  0  0
    4.5477   -2.4164    3.3362 N   0  0  0  0  0  0  0  0  0  0  0  0
    5.8194   -2.6658    3.7954 C   0  0  0  0  0  0  0  0  0  0  0  0
    6.1637   -3.8934    4.5535 C   0  0  0  0  0  0  0  0  0  0  0  0
    6.6025   -1.5875    3.4365 C   0  0  0  0  0  0  0  0  0  0  0  0
    5.7841   -0.6609    2.7333 C   0  0  0  0  0  0  0  0  0  0  0  0
    6.2130    0.6434    2.1683 C   0  0  0  0  0  0  0  0  0  0  0  0
  1  2  1  0
  2  3  1  0
  3  4  2  0
  3 16  1  0
  4  5  1  0
  5  6  1  0
  5 15  2  0
  6  7  2  0
  6 14  1  0
  7  8  1  0
  8  9  2  0
  8 13  1  0
  9 10  1  0
 10 11  2  0
 11 12  1  0
 12 13  2  0
 13 14  1  0
 15 16  1  0
 16 17  2  0
 17 18  1  0
 18 19  1  0
 18 23  2  0
 19 20  1  0
 20 21  1  0
 20 22  2  0
 22 23  1  0
 23 24  1  0
M  END
>  <DRUGBANK_ID>  (1) 
DB12191

>  <SECONDARY_ACCESSION_NUMBERS>  (1) 
DB05567

>  <COMMON_NAME>  (1) 
Obatoclax

>  <CAS_NUMBER>  (1) 
803712-67-6

>  <UNII>  (1) 
QN4128B52A

>  <SYNONYMS>  (1) 
Obatoclax

$$$$
