
     RDKit          3D

 28 30  0  0  1  0  0  0  0  0999 V2000
    0.9658   -0.0911   -0.1559 O   0  0  0  0  0  0  0  0  0  0  0  0
    0.2592    1.1065   -0.1366 C   0  0  0  0  0  0  0  0  0  0  0  0
   -0.5216    1.3399    0.9414 N   0  0  0  0  0  0  0  0  0  0  0  0
   -1.1803    2.5388    1.0027 C   0  0  0  0  0  0  0  0  0  0  0  0
   -2.1196    2.8188    2.1737 C   0  0  0  0  0  0  0  0  0  0  0  0
   -3.1503    1.9320    2.2581 F   0  0  0  0  0  0  0  0  0  0  0  0
   -1.4935    2.8022    3.3835 F   0  0  0  0  0  0  0  0  0  0  0  0
   -2.7124    4.0509    2.0945 F   0  0  0  0  0  0  0  0  0  0  0  0
   -1.0300    3.5185    0.0142 C   0  0  0  0  0  0  0  0  0  0  0  0
   -0.2246    3.2599   -1.0952 C   0  0  0  0  0  0  0  0  0  0  0  0
    0.3931    2.0106   -1.1849 C   0  0  0  0  0  0  0  0  0  0  0  0
   -0.0151    4.2922   -2.1677 C   0  0  0  0  0  0  0  0  0  0  0  0
    1.3832    4.6921   -2.2371 N   0  0  0  0  0  0  0  0  0  0  0  0
    2.3464   -0.0246   -0.0622 C   0  0  0  0  0  0  0  0  0  0  0  0
    3.0482    1.1757    0.0297 C   0  0  0  0  0  0  0  0  0  0  0  0
    4.4257    1.2451    0.1979 C   0  0  0  0  0  0  0  0  0  0  0  0
    5.0877    2.5925    0.2368 C   0  0  0  0  0  0  0  0  0  0  0  0
    6.3156    2.6592    0.2300 O   0  0  0  0  0  0  0  0  0  0  0  0
    4.2721    3.7150    0.0845 N   0  0  0  0  0  0  0  0  0  0  0  0
    3.3256    4.2385    1.0789 C   0  0  0  0  0  0  0  0  0  0  0  0
    3.2307    5.7473    0.8317 C   0  0  2  0  0  0  0  0  0  0  0  0
    4.3450    6.0707   -0.1693 C   0  0  1  0  0  0  0  0  0  0  0  0
    4.6023    4.7444   -0.8756 C   0  0  0  0  0  0  0  0  0  0  0  0
    3.9732    7.1117   -1.0756 O   0  0  0  0  0  0  0  0  0  0  0  0
    3.4356    6.4285    1.9886 F   0  0  0  0  0  0  0  0  0  0  0  0
    5.1411    0.0444    0.2317 C   0  0  0  0  0  0  0  0  0  0  0  0
    4.4593   -1.1824    0.1441 C   0  0  0  0  0  0  0  0  0  0  0  0
    3.0668   -1.2160   -0.0274 C   0  0  0  0  0  0  0  0  0  0  0  0
  1  2  1  0
  1 14  1  0
  2  3  2  0
  2 11  1  0
  3  4  1  0
  4  5  1  0
  4  9  2  0
  5  6  1  0
  5  7  1  0
  5  8  1  0
 10  9  1  0
 10 12  1  0
 11 10  2  0
 12 13  1  0
 14 15  2  0
 14 28  1  0
 15 16  1  0
 16 17  1  0
 16 26  2  0
 17 18  2  0
 17 19  1  0
 19 20  1  0
 19 23  1  0
 20 21  1  0
 21 22  1  0
 21 25  1  1
 22 24  1  6
 23 22  1  0
 27 26  1  0
 28 27  2  0
M  END
>  <DRUGBANK_ID>  (1) 
DB16735

>  <COMMON_NAME>  (1) 
PAT-1251

>  <CAS_NUMBER>  (1) 
2098884-52-5

>  <UNII>  (1) 
Y3HMF6G24B

$$$$
