
     RDKit          3D

 10  9  0  0  0  0  0  0  0  0999 V2000
    0.9278   -0.0498    0.0480 O   0  0  0  0  0  0  0  0  0  0  0  0
   -0.0072   -1.1591   -1.1318 Al  0  0  0  0  0  3  0  0  0  0  0  0
    2.3478   -0.0498    0.0480 C   0  0  0  0  0  0  0  0  0  0  0  0
    0.9278   -2.2685   -2.3117 O   0  0  0  0  0  0  0  0  0  0  0  0
   -1.8772   -1.1591   -1.1318 O   0  0  0  0  0  0  0  0  0  0  0  0
    3.1078   -0.9515   -0.9110 C   0  0  0  0  0  0  0  0  0  0  0  0
    2.9833    0.7041    0.8499 O   0  0  0  0  0  0  0  0  0  0  0  0
    2.3478   -2.2685   -2.3117 C   0  0  0  0  0  0  0  0  0  0  0  0
    3.1078   -1.3668   -1.3527 C   0  0  0  0  0  0  0  0  0  0  0  0
    2.9833   -3.0224   -3.1136 O   0  0  0  0  0  0  0  0  0  0  0  0
  1  2  1  0
  1  3  1  0
  2  4  1  0
  2  5  1  0
  3  6  1  0
  3  7  2  0
  4  8  1  0
  8  9  1  0
  8 10  2  0
M  END
>  <DRUGBANK_ID>  (1) 
DB15679

>  <COMMON_NAME>  (1) 
Aluminum subacetate

>  <CAS_NUMBER>  (1) 
142-03-0

>  <UNII>  (1) 
FGL8577C9S

>  <SYNONYMS>  (1) 
Aluminum diaceate; Aluminum diacetate; Aluminum hydroxyacetate; Aluminum subacetate

$$$$
