
     RDKit          3D

 25 27  0  0  0  0  0  0  0  0999 V2000
    1.5777   -0.0773   -0.1217 N   0  0  0  0  0  0  0  0  0  0  0  0
    0.8459   -1.3137    0.7263 S   0  0  0  0  0  0  0  0  0  0  0  0
    1.5949   -1.5274    1.9497 O   0  0  0  0  0  0  0  0  0  0  0  0
   -0.4156   -0.6534    0.7120 O   0  0  0  0  0  0  0  0  0  0  0  0
    0.9514   -2.7831   -0.3055 C   0  0  0  0  0  0  0  0  0  0  0  0
    2.0046   -2.7846   -1.2517 C   0  0  0  0  0  0  0  0  0  0  0  0
    2.4267   -3.9539   -1.9109 C   0  0  0  0  0  0  0  0  0  0  0  0
    1.8121   -5.1567   -1.5770 C   0  0  0  0  0  0  0  0  0  0  0  0
    0.8005   -5.2267   -0.5903 C   0  0  0  0  0  0  0  0  0  0  0  0
    0.4365   -6.5022   -0.1851 N   0  0  0  0  0  0  0  0  0  0  0  0
    1.3795   -7.4960    0.3375 C   0  0  0  0  0  0  0  0  0  0  0  0
    0.7692   -8.8129   -0.1285 C   0  0  0  0  0  0  0  0  0  0  0  0
   -0.7277   -8.5589    0.0104 C   0  0  0  0  0  0  0  0  0  0  0  0
   -0.9140   -7.0461   -0.2263 C   0  0  0  0  0  0  0  0  0  0  0  0
    0.2786   -4.0002   -0.0268 C   0  0  0  0  0  0  0  0  0  0  0  0
   -0.7947   -4.1920    0.8279 O   0  0  0  0  0  0  0  0  0  0  0  0
   -1.6326   -3.1807    1.2329 C   0  0  0  0  0  0  0  0  0  0  0  0
   -2.2693   -2.2613    0.3913 C   0  0  0  0  0  0  0  0  0  0  0  0
   -2.9061   -1.1305    0.9598 C   0  0  0  0  0  0  0  0  0  0  0  0
   -3.0258   -1.0039    2.3444 C   0  0  0  0  0  0  0  0  0  0  0  0
   -2.5536   -2.0242    3.1635 C   0  0  0  0  0  0  0  0  0  0  0  0
   -1.8116   -3.0750    2.6150 C   0  0  0  0  0  0  0  0  0  0  0  0
    3.5809   -3.8478   -2.8615 C   0  0  0  0  0  0  0  0  0  0  0  0
    3.9989   -4.9731   -3.4774 O   0  0  0  0  0  0  0  0  0  0  0  0
    4.1393   -2.7788   -3.0587 O   0  0  0  0  0  0  0  0  0  0  0  0
  1  2  1  0
  2  3  2  0
  2  4  2  0
  2  5  1  0
  5  6  2  0
  5 15  1  0
  6  7  1  0
  7  8  2  0
  7 23  1  0
  8  9  1  0
  9 10  1  0
  9 15  2  0
 10 11  1  0
 10 14  1  0
 11 12  1  0
 12 13  1  0
 13 14  1  0
 15 16  1  0
 16 17  1  0
 17 18  2  0
 17 22  1  0
 18 19  1  0
 19 20  2  0
 20 21  1  0
 21 22  2  0
 23 24  1  0
 23 25  2  0
M  END
>  <DRUGBANK_ID>  (1) 
DB02925

>  <SECONDARY_ACCESSION_NUMBERS>  (1) 
EXPT03308

>  <COMMON_NAME>  (1) 
Piretanide

>  <CAS_NUMBER>  (1) 
55837-27-9

>  <UNII>  (1) 
DQ6KK6GV93

>  <SYNONYMS>  (1) 
Piretanida; Piretanide

$$$$
