
     RDKit          3D

 32 32  0  0  1  0  0  0  0  0999 V2000
    2.6465    1.8406    0.5365 C   0  0  0  0  0  0  0  0  0  0  0  0
    1.3313    1.1540    0.7489 C   0  0  0  0  0  0  0  0  0  0  0  0
    0.1396    1.7703    0.7465 C   0  0  0  0  0  0  0  0  0  0  0  0
   -1.1019    0.9180    0.8193 C   0  0  0  0  0  0  0  0  0  0  0  0
   -2.1252    1.4798    1.1637 O   0  0  0  0  0  0  0  0  0  0  0  0
   -1.0272   -0.6114    0.5602 C   0  0  0  0  0  0  0  0  0  0  0  0
    0.2041   -1.1705    0.6937 C   0  0  0  0  0  0  0  0  0  0  0  0
    1.4319   -0.3244    0.5827 C   0  0  0  0  0  0  0  0  0  0  0  0
    2.4857   -0.8124    0.2168 O   0  0  0  0  0  0  0  0  0  0  0  0
    0.6305   -2.6216    0.8827 C   0  0  0  0  0  0  0  0  0  0  0  0
   -2.3566   -1.4197    0.3330 C   0  0  0  0  0  0  0  0  0  0  0  0
   -2.5532   -2.2586   -0.9963 C   0  0  0  0  0  0  0  0  0  0  0  0
   -1.5934   -3.4031   -1.2171 C   0  0  1  0  0  0  0  0  0  0  0  0
   -1.7325   -4.3369   -0.0042 C   0  0  0  0  0  0  0  0  0  0  0  0
   -1.6881   -4.2199   -2.5081 C   0  0  0  0  0  0  0  0  0  0  0  0
   -1.5482   -3.4036   -3.8000 C   0  0  0  0  0  0  0  0  0  0  0  0
   -0.2015   -2.7582   -3.9740 C   0  0  0  0  0  0  0  0  0  0  0  0
    0.7487   -2.8906   -4.9054 C   0  0  0  0  0  0  0  0  0  0  0  0
    0.5394   -3.7954   -6.0565 C   0  0  0  0  0  0  0  0  0  0  0  0
    2.0650   -2.1177   -4.8403 C   0  0  0  0  0  0  0  0  0  0  0  0
    1.9284   -0.6065   -5.0107 C   0  0  0  0  0  0  0  0  0  0  0  0
    1.2594    0.0117   -3.8757 C   0  0  0  0  0  0  0  0  0  0  0  0
    1.6902    0.9744   -3.0485 C   0  0  0  0  0  0  0  0  0  0  0  0
    3.0702    1.5289   -3.0235 C   0  0  0  0  0  0  0  0  0  0  0  0
    0.6790    1.3838   -2.0533 C   0  0  0  0  0  0  0  0  0  0  0  0
   -0.7002    1.9845   -2.3966 C   0  0  0  0  0  0  0  0  0  0  0  0
   -1.6925    1.0501   -3.0120 C   0  0  0  0  0  0  0  0  0  0  0  0
   -2.9131    0.6894   -2.5710 C   0  0  0  0  0  0  0  0  0  0  0  0
   -3.6968   -0.3391   -3.3258 C   0  0  0  0  0  0  0  0  0  0  0  0
   -3.5781    1.1762   -1.3301 C   0  0  0  0  0  0  0  0  0  0  0  0
   -0.3864   -2.6844   -1.3635 O   0  0  0  0  0  0  0  0  0  0  0  0
   -0.0390    3.2696    0.4170 C   0  0  0  0  0  0  0  0  0  0  0  0
  1  2  1  0
  2  3  2  0
  2  8  1  0
  3  4  1  0
  3 32  1  0
  4  5  2  0
  4  6  1  0
  6  7  2  0
  6 11  1  0
  7  8  1  0
  7 10  1  0
  8  9  2  0
 11 12  1  0
 12 13  1  0
 13 14  1  1
 13 15  1  0
 13 31  1  0
 15 16  1  0
 16 17  1  0
 17 18  2  0
 18 19  1  0
 18 20  1  0
 20 21  1  0
 21 22  1  0
 22 23  2  0
 23 24  1  0
 23 25  1  0
 25 26  1  0
 26 27  1  0
 27 28  2  3
 28 29  1  0
 28 30  1  0
M  END
>  <DRUGBANK_ID>  (1) 
DB11917

>  <COMMON_NAME>  (1) 
Vatiquinone

>  <CAS_NUMBER>  (1) 
1213269-98-7

>  <UNII>  (1) 
6O85FK9I0X

>  <SYNONYMS>  (1) 
alpha-Tocotrienol quinone; Vatiquinone

$$$$
