1041
     RDKit          3D

 19 21  0  0  1  0  0  0  0  0999 V2000
   -2.2041   -1.0328   -0.2144 O   0  0  0  0  0  0  0  0  0  0  0  0
   -4.0248    0.6305    1.2104 O   0  0  0  0  0  0  0  0  0  0  0  0
   -1.7713    3.3787   -1.7175 O   0  0  0  0  0  0  0  0  0  0  0  0
    2.2850   -0.9854    0.0125 O   0  0  0  0  0  0  0  0  0  0  0  0
   -2.5046    1.7714   -0.1613 N   0  0  0  0  0  0  0  0  0  0  0  0
    0.0272   -0.9189   -0.0357 N   0  0  0  0  0  0  0  0  0  0  0  0
   -1.2498    1.1715    0.3052 C   0  0  0  0  0  0  0  0  0  0  0  0
   -0.0170    1.8239   -0.3239 C   0  0  0  0  0  0  0  0  0  0  0  0
    1.2807    1.1847    0.1147 C   0  0  0  0  0  0  0  0  0  0  0  0
   -1.2147   -0.3300   -0.0253 C   0  0  0  0  0  0  0  0  0  0  0  0
   -3.7360    1.4393    0.3555 C   0  0  0  0  0  0  0  0  0  0  0  0
   -2.6172    2.7844   -1.0772 C   0  0  0  0  0  0  0  0  0  0  0  0
   -4.7142    2.2992   -0.3112 C   0  0  0  0  0  0  0  0  0  0  0  0
   -4.0236    3.1238   -1.1733 C   0  0  0  0  0  0  0  0  0  0  0  0
    1.2554   -0.3170    0.0110 C   0  0  0  0  0  0  0  0  0  0  0  0
   -6.0825    2.3906   -0.1724 C   0  0  0  0  0  0  0  0  0  0  0  0
   -4.6399    4.0916   -1.9400 C   0  0  0  0  0  0  0  0  0  0  0  0
   -6.7384    3.3615   -0.9393 C   0  0  0  0  0  0  0  0  0  0  0  0
   -6.0232    4.2053   -1.8154 C   0  0  0  0  0  0  0  0  0  0  0  0
  1 10  2  0
  2 11  2  0
  3 12  2  0
  4 15  2  0
  5  7  1  0
  5 11  1  0
  5 12  1  0
  6 10  1  0
  6 15  1  0
  7  8  1  0
  7 10  1  0
  8  9  1  0
  9 15  1  0
 11 13  1  0
 12 14  1  0
 13 14  2  0
 13 16  1  0
 14 17  1  0
 16 18  2  0
 17 19  2  0
 18 19  1  0
M  END
>  <DRUGBANK_ID>  (1) 
DB01041

>  <SECONDARY_ACCESSION_NUMBERS>  (1) 
APRD01251

>  <COMMON_NAME>  (1) 
Thalidomide

>  <CAS_NUMBER>  (1) 
50-35-1

>  <UNII>  (1) 
4Z8R6ORS6L

>  <SYNONYMS>  (1) 
(+-)-N-(2,6-dioxo-3-Piperidyl)phthalimide; (+-)-Thalidomide; (±)-N-(2,6-dioxo-3-piperidyl)phthalimide; (±)-thalidomide; 1,3-dioxo-2-(2,6-dioxopiperidin-3-yl)isoindoline; 2,6-dioxo-3-phthalimidopiperidine; 3-Phthalimidoglutarimide; alpha-(N-Phthalimido)glutarimide; alpha-N-Phthalylglutaramide; N-(2,6-dioxo-3-piperidyl)phthalimide; N-Phthaloylglutamimide; N-Phthalyl-glutaminsaeure-imid; N-Phthalylglutamic acid imide; Talidomida; Thalidomide; Thalidomidum; α-(N-phthalimido)glutarimide; α-N-phthalylglutaramide; α-phthalimidoglutarimide

$$$$
