
     RDKit          3D

 28 30  0  0  0  0  0  0  0  0999 V2000
    0.7185    1.3372   -0.2482 C   0  0  0  0  0  0  0  0  0  0  0  0
   -0.7257    1.2302    0.3353 C   0  0  1  0  0  0  0  0  0  0  0  0
   -1.4463   -0.0271   -0.1608 N   0  0  0  0  0  0  0  0  0  0  0  0
   -0.6935   -1.2691    0.2275 C   0  0  0  0  0  0  0  0  0  0  0  0
    0.7361   -1.3859   -0.2784 C   0  0  0  0  0  0  0  0  0  0  0  0
    1.8138   -0.0534    0.2511 S   0  0  0  0  0  0  0  0  0  0  0  0
   -0.7241    1.3031    1.8841 C   0  0  0  0  0  0  0  0  0  0  0  0
   -1.3390    2.4022    2.4362 N   0  0  0  0  0  0  0  0  0  0  0  0
   -3.1171    0.0044    0.3461 S   0  0  0  0  0  0  0  0  0  0  0  0
   -3.1493   -0.0728    1.7847 O   0  0  0  0  0  0  0  0  0  0  0  0
   -3.7279    1.1319   -0.3376 O   0  0  0  0  0  0  0  0  0  0  0  0
   -3.8629   -1.4954   -0.2365 C   0  0  0  0  0  0  0  0  0  0  0  0
   -3.3970   -2.6905    0.3066 C   0  0  0  0  0  0  0  0  0  0  0  0
   -3.9189   -3.9050   -0.0962 C   0  0  0  0  0  0  0  0  0  0  0  0
   -5.0475   -3.9528   -0.9076 C   0  0  0  0  0  0  0  0  0  0  0  0
   -5.6139   -2.7417   -1.3406 C   0  0  0  0  0  0  0  0  0  0  0  0
   -4.9850   -1.5105   -1.0633 C   0  0  0  0  0  0  0  0  0  0  0  0
   -5.6353   -5.1343   -1.3313 O   0  0  0  0  0  0  0  0  0  0  0  0
   -4.3872   -7.8396    0.7966 C   0  0  0  0  0  0  0  0  0  0  0  0
   -5.0388   -6.6738    0.4379 C   0  0  0  0  0  0  0  0  0  0  0  0
   -5.0725   -6.3263   -0.9125 C   0  0  0  0  0  0  0  0  0  0  0  0
   -4.5417   -7.1973   -1.8589 C   0  0  0  0  0  0  0  0  0  0  0  0
   -3.9318   -8.3556   -1.3991 C   0  0  0  0  0  0  0  0  0  0  0  0
   -3.8277   -8.6863   -0.0922 N   0  0  0  0  0  0  0  0  0  0  0  0
   -1.4172    2.3911    3.8519 O   0  0  0  0  0  0  0  0  0  0  0  0
    1.4165    2.5971    0.2718 C   0  0  0  0  0  0  0  0  0  0  0  0
    0.7032    1.3604   -1.7908 C   0  0  0  0  0  0  0  0  0  0  0  0
   -0.2086    0.4535    2.6146 O   0  0  0  0  0  0  0  0  0  0  0  0
  1  6  1  0
  1  2  1  0
  1 26  1  0
  1 27  1  0
  2  3  1  0
  2  7  1  1
  3  4  1  0
  3  9  1  0
  4  5  1  0
  5  6  1  0
  7  8  1  0
  7 28  2  0
  8 25  1  0
  9 10  2  0
  9 11  2  0
  9 12  1  0
 12 13  2  0
 12 17  1  0
 13 14  1  0
 14 15  2  0
 15 16  1  0
 15 18  1  0
 16 17  2  0
 18 21  1  0
 19 20  2  0
 19 24  1  0
 20 21  1  0
 21 22  2  0
 22 23  1  0
 23 24  2  0
M  END
>  <DRUGBANK_ID>  (1) 
DB05100

>  <COMMON_NAME>  (1) 
Prinomastat

>  <CAS_NUMBER>  (1) 
192329-42-3

>  <UNII>  (1) 
10T6626FRK

>  <SYNONYMS>  (1) 
Prinomastat; Prinomastatum

$$$$
