NC4
     RDKit          3D

 16 16  0  0  0  0  0  0  0  0999 V2000
   -1.4346    0.3280   -0.2979 C   0  0  0  0  0  0  0  0  0  0  0  0
   -1.6232    0.3660   -1.7539 N   0  0  0  0  0  0  0  0  0  0  0  0
   -2.8457    0.6502   -2.3053 C   0  0  0  0  0  0  0  0  0  0  0  0
   -2.8434    0.7034   -3.6756 N   0  0  0  0  0  0  0  0  0  0  0  0
   -4.0818    0.9502   -4.4050 C   0  0  0  0  0  0  0  0  0  0  0  0
   -3.9463    2.1182   -5.3853 C   0  0  0  0  0  0  0  0  0  0  0  0
   -2.9198    1.8815   -6.4939 C   0  0  0  0  0  0  0  0  0  0  0  0
   -3.2664    0.6873   -7.3549 C   0  0  0  0  0  0  0  0  0  0  0  0
   -3.4449    0.9568   -8.6619 O   0  0  0  0  0  0  0  0  0  0  0  0
   -3.8439    0.8798   -1.6333 O   0  0  0  0  0  0  0  0  0  0  0  0
   -3.3596   -0.4554   -6.9234 O   0  0  0  0  0  0  0  0  0  0  0  0
   -0.9966   -1.0608    0.1851 C   0  0  0  0  0  0  0  0  0  0  0  0
    0.4309   -1.3945   -0.2427 C   0  0  0  0  0  0  0  0  0  0  0  0
    1.4172   -0.3279    0.2254 C   0  0  0  0  0  0  0  0  0  0  0  0
    1.0004    1.0649   -0.2402 C   0  0  0  0  0  0  0  0  0  0  0  0
   -0.4335    1.3923    0.1731 C   0  0  0  0  0  0  0  0  0  0  0  0
  1  2  1  0
  1 12  1  0
  1 16  1  0
  2  3  1  0
  3  4  1  0
  3 10  2  0
  4  5  1  0
  5  6  1  0
  6  7  1  0
  7  8  1  0
  8  9  1  0
  8 11  2  0
 12 13  1  0
 13 14  1  0
 14 15  1  0
 15 16  1  0
M  END
>  <DRUGBANK_ID>  (1) 
DB08257

>  <COMMON_NAME>  (1) 
4-{[(CYCLOHEXYLAMINO)CARBONYL]AMINO}BUTANOIC ACID

>  <UNII>  (1) 
N2N8NLK6Q8

$$$$
