244
     RDKit          3D

 20 22  0  0  0  0  0  0  0  0999 V2000
    2.1222   -0.6828   -0.0001 C   0  0  0  0  0  0  0  0  0  0  0  0
    0.8951   -1.4051    0.0155 C   0  0  0  0  0  0  0  0  0  0  0  0
   -0.2862   -0.6278    0.0109 C   0  0  0  0  0  0  0  0  0  0  0  0
   -0.2709    0.7628   -0.0009 C   0  0  0  0  0  0  0  0  0  0  0  0
    0.9586    1.4410   -0.0071 C   0  0  0  0  0  0  0  0  0  0  0  0
    2.1416    0.7090   -0.0046 C   0  0  0  0  0  0  0  0  0  0  0  0
   -1.5994   -1.0687    0.0320 O   0  0  0  0  0  0  0  0  0  0  0  0
   -2.4080    0.0498    0.0348 C   0  0  0  0  0  0  0  0  0  0  0  0
   -1.6208    1.1796    0.0034 C   0  0  0  0  0  0  0  0  0  0  0  0
    3.3026    1.4281   -0.0011 O   0  0  0  0  0  0  0  0  0  0  0  0
    0.9070   -2.9116    0.0503 C   0  0  0  0  0  0  0  0  0  0  0  0
    0.2494   -3.4402    1.2501 C   0  0  0  0  0  0  0  0  0  0  0  0
   -0.2603   -3.8607    2.2110 N   0  0  0  0  0  0  0  0  0  0  0  0
   -3.8683   -0.0969    0.0113 C   0  0  0  0  0  0  0  0  0  0  0  0
   -4.5805   -0.7420    1.0286 C   0  0  0  0  0  0  0  0  0  0  0  0
   -5.9751   -0.8985    0.9374 C   0  0  0  0  0  0  0  0  0  0  0  0
   -6.6837   -0.2965   -0.0957 C   0  0  0  0  0  0  0  0  0  0  0  0
   -6.0186    0.4920   -1.0230 C   0  0  0  0  0  0  0  0  0  0  0  0
   -4.6146    0.5410   -0.9993 C   0  0  0  0  0  0  0  0  0  0  0  0
   -8.0304   -0.5072   -0.1536 O   0  0  0  0  0  0  0  0  0  0  0  0
  1  2  2  0
  1  6  1  0
  2  3  1  0
  2 11  1  0
  3  4  2  0
  3  7  1  0
  4  5  1  0
  4  9  1  0
  5  6  2  0
  6 10  1  0
  7  8  1  0
  8  9  2  0
  8 14  1  0
 11 12  1  0
 12 13  3  0
 14 15  2  0
 14 19  1  0
 15 16  1  0
 16 17  2  0
 17 18  1  0
 17 20  1  0
 18 19  2  0
M  END
>  <DRUGBANK_ID>  (1) 
DB06927

>  <COMMON_NAME>  (1) 
[5-HYDROXY-2-(4-HYDROXYPHENYL)-1-BENZOFURAN-7-YL]ACETONITRILE

>  <UNII>  (1) 
7B877S86BL

$$$$
