
     RDKit          3D

 36 40  0  0  1  0  0  0  0  0999 V2000
    3.4189    2.1729    3.5094 C   0  0  0  0  0  0  0  0  0  0  0  0
    2.7333    1.0493    2.7064 C   0  0  0  0  0  0  0  0  0  0  0  0
    2.6590   -0.3498    3.2890 C   0  0  0  0  0  0  0  0  0  0  0  0
    1.7661   -1.4470    2.8448 C   0  0  0  0  0  0  0  0  0  0  0  0
    1.2984   -0.9840    1.4882 C   0  0  0  0  0  0  0  0  0  0  0  0
    1.3973    0.3588    0.7857 C   0  0  0  0  0  0  0  0  0  0  0  0
    2.0655    1.3927    1.4960 C   0  0  0  0  0  0  0  0  0  0  0  0
    2.0893    2.7295    1.1923 O   0  0  0  0  0  0  0  0  0  0  0  0
    1.3418    3.0565    0.0483 C   0  0  2  0  0  0  0  0  0  0  0  0
   -0.1881    2.6217    0.2213 C   0  0  0  0  0  0  0  0  0  0  0  0
   -0.9053    3.1917   -0.9988 C   0  0  0  0  0  0  0  0  0  0  0  0
   -2.0348    2.5774   -1.5211 C   0  0  0  0  0  0  0  0  0  0  0  0
   -2.7786    3.2093   -2.5157 C   0  0  0  0  0  0  0  0  0  0  0  0
   -2.3785    4.4354   -3.0328 C   0  0  0  0  0  0  0  0  0  0  0  0
   -1.2374    5.0338   -2.5528 C   0  0  0  0  0  0  0  0  0  0  0  0
   -0.4481    4.3525   -1.6528 C   0  0  0  0  0  0  0  0  0  0  0  0
    2.2446    2.8362   -1.3168 C   0  0  0  0  0  0  0  0  0  0  0  0
    2.3768    3.6504   -2.2222 O   0  0  0  0  0  0  0  0  0  0  0  0
    2.9328    1.6581   -1.4266 O   0  0  0  0  0  0  0  0  0  0  0  0
    0.7007    0.4393   -0.6739 C   0  0  0  0  0  0  0  0  0  0  0  0
    1.7290   -3.1845    3.3407 C   0  0  0  0  0  0  0  0  0  0  0  0
    1.0550   -4.5906    4.4595 C   0  0  0  0  0  0  0  0  0  0  0  0
    0.3749   -5.9485    5.5651 C   0  0  0  0  0  0  0  0  0  0  0  0
    0.7266   -6.1730    6.9239 C   0  0  0  0  0  0  0  0  0  0  0  0
    1.9442   -5.9226    6.4260 C   0  0  0  0  0  0  0  0  0  0  0  0
    2.0875   -4.6046    5.9656 C   0  0  0  0  0  0  0  0  0  0  0  0
    2.3138   -4.7323    4.6501 C   0  0  0  0  0  0  0  0  0  0  0  0
    2.7942   -5.6076    3.6610 C   0  0  0  0  0  0  0  0  0  0  0  0
    2.9649   -4.9121    2.5182 C   0  0  0  0  0  0  0  0  0  0  0  0
    2.7626   -3.5916    2.3201 C   0  0  0  0  0  0  0  0  0  0  0  0
    3.5872   -3.1375    1.0623 C   0  0  0  0  0  0  0  0  0  0  0  0
    4.1426   -4.2229    0.3622 C   0  0  0  0  0  0  0  0  0  0  0  0
    2.7925   -5.6465    1.0863 S   0  0  0  0  0  0  0  0  0  0  0  0
    4.7022   -5.5041   -0.0059 C   0  0  0  0  0  0  0  0  0  0  0  0
    3.9112   -1.6826    0.5125 C   0  0  0  0  0  0  0  0  0  0  0  0
    3.3823   -7.4261    3.7136 Br  0  0  0  0  0  0  0  0  0  0  0  0
  1  2  1  0
  2  3  2  0
  2  7  1  0
  3  4  1  0
  4  5  2  0
  4 21  1  0
  5  6  1  0
  6  7  2  0
  6 20  1  0
  7  8  1  0
  9 17  1  0
  9 10  1  6
  9  8  1  0
 10 11  1  0
 11 12  2  0
 11 16  1  0
 12 13  1  0
 13 14  2  0
 14 15  1  0
 15 16  2  0
 17 18  2  0
 17 19  1  0
 21 22  1  0
 21 30  2  0
 22 23  2  0
 22 27  1  0
 23 24  1  0
 24 25  2  0
 25 26  1  0
 26 27  2  0
 27 28  1  0
 28 29  2  0
 28 36  1  0
 29 30  1  0
 29 33  1  0
 30 31  1  0
 31 32  2  0
 31 35  1  0
 32 33  1  0
 32 34  1  0
M  END
>  <DRUGBANK_ID>  (1) 
DB06521

>  <COMMON_NAME>  (1) 
Ertiprotafib

>  <CAS_NUMBER>  (1) 
251303-04-5

>  <UNII>  (1) 
5TPM2EB426

>  <SYNONYMS>  (1) 
Ertiprotafib

$$$$
