
     RDKit          3D

 26 29  0  0  0  0  0  0  0  0999 V2000
    0.9306    1.5901    0.0932 C   0  0  0  0  0  0  0  0  0  0  0  0
    2.2345    1.0857    0.0307 C   0  0  0  0  0  0  0  0  0  0  0  0
    2.4140   -0.3094   -0.0500 C   0  0  0  0  0  0  0  0  0  0  0  0
    1.2754   -1.0646   -0.4314 C   0  0  0  0  0  0  0  0  0  0  0  0
    0.1205   -0.4128   -0.8436 C   0  0  0  0  0  0  0  0  0  0  0  0
   -0.1342    0.6846   -0.0696 C   0  0  0  0  0  0  0  0  0  0  0  0
   -1.3098    0.1041    0.7414 C   0  0  0  0  0  0  0  0  0  0  0  0
   -0.9942   -1.2816   -1.1306 C   0  0  0  0  0  0  0  0  0  0  0  0
   -2.5380   -0.4717   -0.8433 C   0  0  0  0  0  0  0  0  0  0  0  0
   -2.4895    0.8198    0.4810 C   0  0  1  0  0  0  0  0  0  0  0  0
   -3.2708   -1.1025    1.9755 C   0  0  2  0  0  0  0  0  0  0  0  0
   -1.7599   -1.0951    1.4556 C   0  0  0  0  0  0  0  0  0  0  0  0
   -2.3436    1.1685    2.1311 N   0  0  0  0  0  0  0  0  0  0  0  0
   -3.3247    0.2237    2.7400 C   0  0  0  0  0  0  0  0  0  0  0  0
   -0.4951   -2.5140   -0.6886 C   0  0  0  0  0  0  0  0  0  0  0  0
    0.8772   -2.3807   -0.3784 N   0  0  0  0  0  0  0  0  0  0  0  0
   -4.2100   -2.1765    2.6846 C   0  0  0  0  0  0  0  0  0  0  0  0
   -0.8353    0.8690    2.8489 C   0  0  0  0  0  0  0  0  0  0  0  0
   -5.2569   -2.6622    1.8498 N   0  0  0  0  0  0  0  0  0  0  0  0
   -6.4227   -3.4470    2.3518 C   0  0  1  0  0  0  0  0  0  0  0  0
   -7.7756   -2.7351    2.0861 C   0  0  0  0  0  0  0  0  0  0  0  0
   -8.1305   -2.5952    0.6068 C   0  0  0  0  0  0  0  0  0  0  0  0
   -4.1375   -2.4482    3.8475 O   0  0  0  0  0  0  0  0  0  0  0  0
   -6.4602   -4.8637    1.7370 C   0  0  0  0  0  0  0  0  0  0  0  0
   -5.2310   -5.5451    1.9352 O   0  0  0  0  0  0  0  0  0  0  0  0
    1.7200   -3.4690    0.0565 C   0  0  0  0  0  0  0  0  0  0  0  0
  1  2  2  0
  1  6  1  0
  2  3  1  0
  3  4  2  0
  4  5  1  0
  4 16  1  0
  5  8  1  0
  6  5  2  0
  7  6  1  0
  7 10  1  0
  8  9  1  0
  8 15  2  0
 10  9  1  1
 10 13  1  0
 11 12  1  0
 11 14  1  0
 11 17  1  1
 12  7  2  0
 13 14  1  0
 13 18  1  0
 16 15  1  0
 16 26  1  0
 17 19  1  0
 17 23  2  0
 19 20  1  0
 20 21  1  6
 20 24  1  0
 21 22  1  0
 24 25  1  0
M  END
>  <DRUGBANK_ID>  (1) 
DB00247

>  <SECONDARY_ACCESSION_NUMBERS>  (1) 
APRD00463

>  <COMMON_NAME>  (1) 
Methysergide

>  <CAS_NUMBER>  (1) 
361-37-5

>  <UNII>  (1) 
XZA9HY6Z98

>  <SYNONYMS>  (1) 
(+)-9,10-Didehydro-N-(1-(hydroxymethyl)propyl)-1,6-dimethylergoline-8β-carboxamide; (+)-N-(1-(Hydroxymethyl)propyl)-1-methyl-D-lysergamide; 1-Methyl-D-lysergic acid butanolamide; 1-Methyl-dextro-lysergic acid (+)-1-hydroxy-2-butylamide; 1-Methyllysergic acid butanolamide; 1-Methylmethylergonovine; 9,10-Didehydro-N-(1-(hydroxymethyl)propyl)-1,6-dimethylergoline-8-carboxamide; Méthysergide; Methysergide; Methysergidum; Metisergida; Metisergido; N-(1-(Hydroxymethyl)propyl)-1-methyl-dextro-(+)-lysergamide

$$$$
