
     RDKit          3D

 32 36  0  0  1  0  0  0  0  0999 V2000
    1.0624   -0.0050   -0.0191 Si  0  0  0  0  0  4  0  0  0  0  0  0
    6.3125    6.2939    4.7845 O   0  0  0  0  0  0  0  0  0  0  0  0
    4.1257    8.3656    4.4078 O   0  0  0  0  0  0  0  0  0  0  0  0
    5.3418    3.6692    3.2933 O   0  0  0  0  0  0  0  0  0  0  0  0
    5.6709    6.0651    6.9203 O   0  0  0  0  0  0  0  0  0  0  0  0
    3.0583    3.8717    3.2462 N   0  0  0  0  0  0  0  0  0  0  0  0
   -0.5094    4.1008    2.7605 N   0  0  0  0  0  0  0  0  0  0  0  0
    1.2511    2.4611    3.0468 C   0  0  0  0  0  0  0  0  0  0  0  0
    2.7417    2.4587    3.1860 C   0  0  0  0  0  0  0  0  0  0  0  0
    0.3677    1.3839    2.9556 C   0  0  0  0  0  0  0  0  0  0  0  0
    1.9271    4.6662    3.2956 C   0  0  0  0  0  0  0  0  0  0  0  0
    0.5096   -0.8201    1.6146 C   0  0  0  0  0  0  0  0  0  0  0  0
    0.8840   -0.0433    2.8985 C   0  0  0  0  0  0  0  0  0  0  0  0
    0.7780    3.7778    2.9723 C   0  0  0  0  0  0  0  0  0  0  0  0
    3.4309    6.3444    4.2260 C   0  0  0  0  0  0  0  0  0  0  0  0
    4.0375    7.2786    5.3587 C   0  0  2  0  0  0  0  0  0  0  0  0
    4.4295    5.8398    3.4408 C   0  0  0  0  0  0  0  0  0  0  0  0
    2.0828    5.9553    3.6890 C   0  0  0  0  0  0  0  0  0  0  0  0
    4.3468    4.3550    3.2799 C   0  0  0  0  0  0  0  0  0  0  0  0
   -1.0043    1.6914    2.7891 C   0  0  0  0  0  0  0  0  0  0  0  0
    4.0516    8.3223    6.5922 C   0  0  0  0  0  0  0  0  0  0  0  0
    5.7939    6.4420    3.4715 C   0  0  0  0  0  0  0  0  0  0  0  0
    0.4058    1.7390   -0.1831 C   0  0  0  0  0  0  0  0  0  0  0  0
    0.3803   -0.9881   -1.4390 C   0  0  0  0  0  0  0  0  0  0  0  0
    2.9161   -0.0122    0.0229 C   0  0  0  0  0  0  0  0  0  0  0  0
   -1.3884    3.0580    2.6511 C   0  0  0  0  0  0  0  0  0  0  0  0
    5.4009    6.4519    5.7851 C   0  0  0  0  0  0  0  0  0  0  0  0
   -1.9875    0.6764    2.6988 C   0  0  0  0  0  0  0  0  0  0  0  0
    2.8967    8.6187    7.5021 C   0  0  0  0  0  0  0  0  0  0  0  0
   -2.7415    3.2944    2.3923 C   0  0  0  0  0  0  0  0  0  0  0  0
   -3.3039    0.9458    2.3720 C   0  0  0  0  0  0  0  0  0  0  0  0
   -3.6887    2.2643    2.2409 C   0  0  0  0  0  0  0  0  0  0  0  0
  1 12  1  0
  1 23  1  0
  1 24  1  0
  1 25  1  0
  2 22  1  0
  2 27  1  0
  4 19  2  0
  5 27  2  0
  6  9  1  0
  6 11  1  0
  6 19  1  0
  7 14  2  0
  7 26  1  0
  8  9  1  0
  8 10  2  0
  8 14  1  0
 10 13  1  0
 10 20  1  0
 11 14  1  0
 11 18  2  0
 12 13  1  0
 15 16  1  0
 15 17  2  0
 15 18  1  0
 16 27  1  0
 16 21  1  0
 16  3  1  6
 17 19  1  0
 17 22  1  0
 20 26  2  0
 20 28  1  0
 21 29  1  0
 26 30  1  0
 28 31  2  0
 30 32  2  0
 31 32  1  0
M  END
>  <DRUGBANK_ID>  (1) 
DB05806

>  <COMMON_NAME>  (1) 
Cositecan

>  <CAS_NUMBER>  (1) 
203923-89-1

>  <UNII>  (1) 
24R60NVC41

>  <SYNONYMS>  (1) 
Cositecan; Karenitecin

$$$$
