219
     RDKit          3D

 20 21  0  0  0  0  0  0  0  0999 V2000
    1.7099   -0.1564   -0.0302 C   0  0  0  0  0  0  0  0  0  0  0  0
    0.9343   -1.3578   -0.0040 C   0  0  0  0  0  0  0  0  0  0  0  0
   -0.3529   -1.2124    0.2133 C   0  0  0  0  0  0  0  0  0  0  0  0
   -0.6526    0.0979    0.5976 C   0  0  0  0  0  0  0  0  0  0  0  0
   -0.0759    1.3983    0.5151 C   0  0  0  0  0  0  0  0  0  0  0  0
    1.1922    1.2277    0.0793 C   0  0  0  0  0  0  0  0  0  0  0  0
   -1.9129    0.1380    0.4713 C   0  0  0  0  0  0  0  0  0  0  0  0
   -1.0115    2.5930    0.4595 O   0  0  0  0  0  0  0  0  0  0  0  0
   -2.5891    2.5715    1.2186 P   0  0  1  0  0  0  0  0  0  0  0  0
   -3.6893    1.2227    0.8042 O   0  0  0  0  0  0  0  0  0  0  0  0
   -2.4026    2.9360    2.6702 O   0  0  0  0  0  0  0  0  0  0  0  0
   -3.8571    0.3736   -0.7118 C   0  0  0  0  0  0  0  0  0  0  0  0
   -1.9514    0.9371   -0.4752 O   0  0  0  0  0  0  0  0  0  0  0  0
   -3.7362    3.6396    0.8535 O   0  0  0  0  0  0  0  0  0  0  0  0
   -4.9809    0.8803   -1.4209 C   0  0  0  0  0  0  0  0  0  0  0  0
   -5.0169    2.3131   -1.0245 C   0  0  0  0  0  0  0  0  0  0  0  0
   -6.2786    2.9733   -1.3689 C   0  0  0  0  0  0  0  0  0  0  0  0
   -7.3798    2.0633   -0.7945 C   0  0  0  0  0  0  0  0  0  0  0  0
   -7.2671    0.5830   -1.2077 C   0  0  0  0  0  0  0  0  0  0  0  0
   -5.9857    0.0003   -0.7598 C   0  0  0  0  0  0  0  0  0  0  0  0
  1  2  2  0
  1  6  1  0
  2  3  1  0
  3  4  2  0
  4  5  1  0
  4  7  1  0
  5  6  2  0
  5  8  1  0
  7 13  2  0
  9  8  1  0
  9 10  1  0
  9 11  2  0
  9 14  1  0
 10 12  1  0
 12 15  1  0
 15 16  1  0
 15 20  1  0
 16 17  1  0
 17 18  1  0
 18 19  1  0
 19 20  1  0
M  END
>  <DRUGBANK_ID>  (1) 
DB03114

>  <SECONDARY_ACCESSION_NUMBERS>  (1) 
EXPT00088

>  <COMMON_NAME>  (1) 
PAS219

$$$$
