
     RDKit          3D

 34 37  0  0  1  0  0  0  0  0999 V2000
    1.0508   -0.1142   -1.5343 C   0  0  0  0  0  0  0  0  0  0  0  0
    0.4717   -0.8308   -2.7356 C   0  0  0  0  0  0  0  0  0  0  0  0
   -0.8270   -0.1921   -3.1550 C   0  0  0  0  0  0  0  0  0  0  0  0
   -1.5632    0.1217   -2.0587 C   0  0  0  0  0  0  0  0  0  0  0  0
   -1.2715   -0.7082   -0.8351 C   0  0  1  0  0  0  0  0  0  0  0  0
    0.2501   -0.7756   -0.7005 C   0  0  0  0  0  0  0  0  0  0  0  0
   -2.5413    1.2369   -1.9190 C   0  0  2  0  0  0  0  0  0  0  0  0
   -3.4620    1.1602   -0.6138 C   0  0  0  0  0  0  0  0  0  0  0  0
   -2.5670    1.0583    0.7814 C   0  0  2  0  0  0  0  0  0  0  0  0
   -1.8347   -0.2939    0.5279 C   0  0  2  0  0  0  0  0  0  0  0  0
   -3.1997    1.0685    2.5647 C   0  0  1  0  0  0  0  0  0  0  0  0
   -2.4730   -0.0752    2.9516 C   0  0  2  0  0  0  0  0  0  0  0  0
   -1.6955   -1.2808    2.6995 C   0  0  0  0  0  0  0  0  0  0  0  0
   -0.8392   -0.9230    1.5620 C   0  0  2  0  0  0  0  0  0  0  0  0
   -2.5260    0.6540    4.4941 C   0  0  0  0  0  0  0  0  0  0  0  0
   -3.1455   -0.5619    5.1634 C   0  0  2  0  0  0  0  0  0  0  0  0
   -3.9027   -0.2223    3.9964 C   0  0  1  0  0  0  0  0  0  0  0  0
    0.7574   -1.9948   -2.9997 O   0  0  0  0  0  0  0  0  0  0  0  0
   -1.9278   -2.1009   -1.0797 C   0  0  0  0  0  0  0  0  0  0  0  0
   -3.0053   -1.0739    0.6724 F   0  0  0  0  0  0  0  0  0  0  0  0
    0.3778   -0.2656    1.9526 O   0  0  0  0  0  0  0  0  0  0  0  0
   -1.2398    1.3318    2.8658 C   0  0  0  0  0  0  0  0  0  0  0  0
   -4.6044    1.3181    4.3932 O   0  0  0  0  0  0  0  0  0  0  0  0
   -3.8283   -0.4603    6.5175 C   0  0  0  0  0  0  0  0  0  0  0  0
   -3.2883    1.3258   -3.0513 F   0  0  0  0  0  0  0  0  0  0  0  0
   -4.9039   -1.2970    3.5675 C   0  0  0  0  0  0  0  0  0  0  0  0
   -4.7553   -1.9941    2.5758 O   0  0  0  0  0  0  0  0  0  0  0  0
   -6.2204   -1.5531    4.6959 S   0  0  0  0  0  0  0  0  0  0  0  0
   -6.7714   -3.1528    4.1389 C   0  0  0  0  0  0  0  0  0  0  0  0
   -7.4278   -2.9951    2.9651 F   0  0  0  0  0  0  0  0  0  0  0  0
   -4.1736    2.6754    4.5693 C   0  0  0  0  0  0  0  0  0  0  0  0
   -2.6431    3.2419    4.7805 C   0  0  0  0  0  0  0  0  0  0  0  0
   -2.0456    4.1772    3.7149 C   0  0  0  0  0  0  0  0  0  0  0  0
   -5.0542    3.5390    4.6101 O   0  0  0  0  0  0  0  0  0  0  0  0
  1  2  1  0
  1  6  2  0
  2  3  1  0
  2 18  2  0
  3  4  2  0
  4  5  1  0
  4  7  1  0
  5  6  1  0
  5 10  1  0
  5 19  1  6
  7  8  1  0
  7 25  1  6
  9  8  1  6
  9 10  1  0
  9 11  1  0
 10 14  1  0
 10 20  1  1
 11 12  1  0
 11 15  1  1
 12 13  1  0
 12 17  1  0
 12 22  1  1
 13 14  1  0
 14 21  1  1
 15 16  1  0
 16 17  1  0
 16 24  1  1
 17 23  1  1
 17 26  1  0
 26 27  2  0
 26 28  1  0
 28 29  1  0
 29 30  1  0
 31 32  1  0
 31 23  1  0
 31 34  2  0
 32 33  1  0
M  END
>  <DRUGBANK_ID>  (1) 
DB00588

>  <SECONDARY_ACCESSION_NUMBERS>  (1) 
APRD00065

>  <COMMON_NAME>  (1) 
Fluticasone propionate

>  <CAS_NUMBER>  (1) 
80474-14-2

>  <UNII>  (1) 
O2GMZ0LF5W

>  <SYNONYMS>  (1) 
Fluticasone propionate

$$$$
