
     RDKit          3D

 20 21  0  0  0  0  0  0  0  0999 V2000
    1.1427    0.0425    0.0370 C   0  0  0  0  0  0  0  0  0  0  0  0
    0.5224    1.2483    0.6604 N   0  0  0  0  0  0  0  0  0  0  0  0
   -0.9565    1.0959    0.4246 C   0  0  0  0  0  0  0  0  0  0  0  0
    1.1867    1.5383    2.2680 S   0  0  0  0  0  0  0  0  0  0  0  0
    0.5943    0.5131    3.1108 O   0  0  0  0  0  0  0  0  0  0  0  0
    2.6142    1.6596    2.1454 O   0  0  0  0  0  0  0  0  0  0  0  0
    0.5662    3.0422    2.7774 N   0  0  0  0  0  0  0  0  0  0  0  0
   -0.4439    3.5865    1.8761 C   0  0  0  0  0  0  0  0  0  0  0  0
    0.2783    4.0868    0.5951 C   0  0  0  0  0  0  0  0  0  0  0  0
    1.0695    5.2388    1.0153 N   0  0  0  0  0  0  0  0  0  0  0  0
    2.1061    4.9389    2.0171 C   0  0  0  0  0  0  0  0  0  0  0  0
    1.4307    4.2042    3.2156 C   0  0  0  0  0  0  0  0  0  0  0  0
    0.9166    6.4399    0.3774 C   0  0  0  0  0  0  0  0  0  0  0  0
   -0.3316    7.0378    0.3618 C   0  0  0  0  0  0  0  0  0  0  0  0
   -0.4590    8.2231   -0.3176 C   0  0  0  0  0  0  0  0  0  0  0  0
    0.5552    8.8028   -0.9714 N   0  0  0  0  0  0  0  0  0  0  0  0
    1.7382    8.1575   -0.9173 C   0  0  0  0  0  0  0  0  0  0  0  0
    2.8973    8.7879   -1.6620 C   0  0  0  0  0  0  0  0  0  0  0  0
    3.9837    9.1511   -0.8073 O   0  0  0  0  0  0  0  0  0  0  0  0
    1.9612    7.0070   -0.2412 N   0  0  0  0  0  0  0  0  0  0  0  0
  1  2  1  0
  2  3  1  0
  2  4  1  0
  4  5  2  0
  4  6  2  0
  4  7  1  0
  7  8  1  0
  7 12  1  0
  8  9  1  0
  9 10  1  0
 10 11  1  0
 10 13  1  0
 11 12  1  0
 13 14  2  0
 13 20  1  0
 14 15  1  0
 15 16  2  0
 16 17  1  0
 17 18  1  0
 17 20  2  0
 18 19  1  0
M  END
>  <DRUGBANK_ID>  (1) 
DB04478

>  <SECONDARY_ACCESSION_NUMBERS>  (1) 
EXPT00235

>  <COMMON_NAME>  (1) 
Cp-166572, 2-Hydroxymethyl-4-(4-N,N-Dimethylaminosulfonyl-1-Piperazino)-Pyrimidine

>  <UNII>  (1) 
ZI4EMQ9WYE

$$$$
