CN2
     RDKit          3D

 30 32  0  0  0  0  0  0  0  0999 V2000
    0.6664   -4.2330    0.4879 O   0  0  0  0  0  0  0  0  0  0  0  0
    0.1240   -3.1212    0.5088 C   0  0  0  0  0  0  0  0  0  0  0  0
   -1.2768   -2.9321    0.0085 C   0  0  0  0  0  0  0  0  0  0  0  0
   -2.5637   -3.0164    1.1629 S   0  0  0  0  0  0  0  0  0  0  0  0
    0.7657   -1.9741    0.8999 N   0  0  0  0  0  0  0  0  0  0  0  0
    2.1647   -1.8921    1.2555 C   0  0  2  0  0  0  0  0  0  0  0  0
    2.6014   -2.8831    2.3634 C   0  0  0  0  0  0  0  0  0  0  0  0
    3.9435   -2.5601    2.7318 C   0  0  0  0  0  0  0  0  0  0  0  0
    2.5017   -0.5480    1.9684 C   0  0  0  0  0  0  0  0  0  0  0  0
    2.1396    0.1779    3.2359 C   0  0  0  0  0  0  0  0  0  0  0  0
    0.7125   -0.1610    3.4977 C   0  0  0  0  0  0  0  0  0  0  0  0
    0.0921    1.0747    3.4260 C   0  0  0  0  0  0  0  0  0  0  0  0
   -1.2367    1.2172    3.2922 C   0  0  0  0  0  0  0  0  0  0  0  0
   -2.0107    0.0630    3.3587 C   0  0  0  0  0  0  0  0  0  0  0  0
   -1.4139   -1.2819    3.6213 C   0  0  0  0  0  0  0  0  0  0  0  0
   -2.3475   -2.3208    3.8889 O   0  0  0  0  0  0  0  0  0  0  0  0
   -3.8104   -2.1892    3.5469 C   0  0  0  0  0  0  0  0  0  0  0  0
   -3.3611    0.1609    3.1143 O   0  0  0  0  0  0  0  0  0  0  0  0
   -4.0033    1.4130    2.9248 C   0  0  0  0  0  0  0  0  0  0  0  0
   -1.7500    2.4573    3.0644 O   0  0  0  0  0  0  0  0  0  0  0  0
   -0.8769    3.5736    3.1889 C   0  0  0  0  0  0  0  0  0  0  0  0
    0.1015   -1.4662    3.6132 C   0  0  0  0  0  0  0  0  0  0  0  0
    1.2490   -2.8420    3.4821 C   0  0  0  0  0  0  0  0  0  0  0  0
    1.7520   -3.5125    4.5705 C   0  0  0  0  0  0  0  0  0  0  0  0
    2.8268   -2.7137    5.2790 C   0  0  0  0  0  0  0  0  0  0  0  0
    4.1683   -2.8475    5.0313 C   0  0  0  0  0  0  0  0  0  0  0  0
    4.3601   -1.8409    4.0002 C   0  0  0  0  0  0  0  0  0  0  0  0
    4.7785   -0.6536    4.1107 O   0  0  0  0  0  0  0  0  0  0  0  0
    4.7620   -4.0767    4.6983 O   0  0  0  0  0  0  0  0  0  0  0  0
    6.1450   -4.0386    4.2747 C   0  0  0  0  0  0  0  0  0  0  0  0
  1  2  2  0
  2  3  1  0
  2  5  1  0
  3  4  1  0
  6  7  1  0
  6  9  1  0
  6  5  1  1
  7  8  2  0
  7 23  1  0
  8 27  1  0
  9 10  1  0
 10 11  1  0
 11 12  1  0
 11 22  2  0
 12 13  2  0
 13 14  1  0
 13 20  1  0
 14 15  2  0
 14 18  1  0
 15 16  1  0
 15 22  1  0
 16 17  1  0
 18 19  1  0
 20 21  1  0
 22 23  1  0
 23 24  2  0
 24 25  1  0
 25 26  2  0
 26 27  1  0
 26 29  1  0
 27 28  2  0
 29 30  1  0
M  END
>  <DRUGBANK_ID>  (1) 
DB07574

>  <COMMON_NAME>  (1) 
2-MERCAPTO-N-[1,2,3,10-TETRAMETHOXY-9-OXO-5,6,7,9-TETRAHYDRO-BENZO[A]HEPTALEN-7-YL]ACETAMIDE

$$$$
