
     RDKit          3D

 12 12  0  0  0  0  0  0  0  0999 V2000
    0.7350    1.2907   -0.2183 C   0  0  1  0  0  0  0  0  0  0  0  0
    1.3702    2.4696    0.2880 O   0  0  0  0  0  0  0  0  0  0  0  0
    1.4783    0.0239    0.2316 C   0  0  2  0  0  0  0  0  0  0  0  0
    2.8088    0.0028   -0.2912 O   0  0  0  0  0  0  0  0  0  0  0  0
    0.7260   -1.2532   -0.1920 C   0  0  2  0  0  0  0  0  0  0  0  0
   -1.3571   -0.0747   -0.2582 C   0  0  1  0  0  0  0  0  0  0  0  0
   -1.5131   -0.1293   -1.6709 O   0  0  0  0  0  0  0  0  0  0  0  0
   -0.6409   -1.2190    0.2262 O   0  0  0  0  0  0  0  0  0  0  0  0
   -0.7207    1.2336    0.2260 C   0  0  1  0  0  0  0  0  0  0  0  0
    1.4942   -2.4951    0.3221 C   0  0  0  0  0  0  0  0  0  0  0  0
    0.6828   -3.4802    0.9420 O   0  0  0  0  0  0  0  0  0  0  0  0
   -0.7484    1.2675    1.5936 F   0  0  0  0  0  0  0  0  0  0  0  0
  1  3  1  0
  1  2  1  1
  3  5  1  0
  3  4  1  6
  5  8  1  0
  5 10  1  1
  6  8  1  0
  6  9  1  0
  6  7  1  6
  9  1  1  0
  9 12  1  1
 10 11  1  0
M  END
>  <DRUGBANK_ID>  (1) 
DB04084

>  <SECONDARY_ACCESSION_NUMBERS>  (1) 
EXPT02107

>  <COMMON_NAME>  (1) 
2-deoxy-2-fluoro-Î±-D-mannose

>  <CAS_NUMBER>  (1) 
62182-14-3

>  <SYNONYMS>  (1) 
2-deoxy-2-fluoro-alpha-D-mannose

$$$$
