4BB
     RDKit          3D

 25 26  0  0  0  0  0  0  0  0999 V2000
    1.0731   -0.0963    0.0485 C   0  0  0  0  0  0  0  0  0  0  0  0
    0.5644   -0.1644   -1.4167 C   0  0  0  0  0  0  0  0  0  0  0  0
    1.0582   -1.4391   -2.0870 C   0  0  0  0  0  0  0  0  0  0  0  0
   -0.9924   -0.1832   -1.3755 C   0  0  0  0  0  0  0  0  0  0  0  0
    1.0950    1.0559   -2.1677 C   0  0  0  0  0  0  0  0  0  0  0  0
    0.5651    2.2467   -1.7621 C   0  0  0  0  0  0  0  0  0  0  0  0
    1.2006    3.4091   -2.1240 C   0  0  0  0  0  0  0  0  0  0  0  0
    2.1714    1.1343   -3.0778 C   0  0  0  0  0  0  0  0  0  0  0  0
    2.6081    2.3789   -3.6136 C   0  0  0  0  0  0  0  0  0  0  0  0
    2.0199    3.5601   -3.2008 C   0  0  0  0  0  0  0  0  0  0  0  0
    2.1972    4.9044   -3.8504 C   0  0  0  0  0  0  0  0  0  0  0  0
    3.0741    4.9941   -4.7282 O   0  0  0  0  0  0  0  0  0  0  0  0
    1.3754    6.0345   -3.6143 N   0  0  0  0  0  0  0  0  0  0  0  0
    0.5897    6.3121   -2.4878 N   0  0  0  0  0  0  0  0  0  0  0  0
   -0.3849    5.4742   -2.3107 C   0  0  0  0  0  0  0  0  0  0  0  0
   -1.2493    5.3234   -1.1083 C   0  0  0  0  0  0  0  0  0  0  0  0
   -2.5365    5.7101   -1.4588 C   0  0  0  0  0  0  0  0  0  0  0  0
   -3.6001    5.4516   -0.6099 C   0  0  0  0  0  0  0  0  0  0  0  0
   -5.3035    6.0808   -1.1289 Br  0  0  0  0  0  0  0  0  0  0  0  0
   -3.4170    4.7183    0.5614 C   0  0  0  0  0  0  0  0  0  0  0  0
   -4.4546    4.5170    1.4291 O   0  0  0  0  0  0  0  0  0  0  0  0
   -2.1607    4.2027    0.8677 C   0  0  0  0  0  0  0  0  0  0  0  0
   -2.0007    2.9211    2.2854 Br  0  0  0  0  0  0  0  0  0  0  0  0
   -1.0460    4.5626    0.0836 C   0  0  0  0  0  0  0  0  0  0  0  0
    0.1335    4.0558    0.5747 O   0  0  0  0  0  0  0  0  0  0  0  0
  1  2  1  0
  2  3  1  0
  2  4  1  0
  2  5  1  0
  5  6  2  0
  5  8  1  0
  6  7  1  0
  7 10  2  0
  8  9  2  0
  9 10  1  0
 10 11  1  0
 11 12  2  0
 11 13  1  0
 13 14  1  0
 14 15  2  0
 15 16  1  0
 16 17  2  0
 16 24  1  0
 17 18  1  0
 18 19  1  0
 18 20  2  0
 20 21  1  0
 20 22  1  0
 22 23  1  0
 22 24  2  0
 24 25  1  0
M  END
>  <DRUGBANK_ID>  (1) 
DB07097

>  <COMMON_NAME>  (1) 
4-tert-butyl-N'-[(1E)-(3,5-dibromo-2,4-dihydroxyphenyl)methylidene]benzohydrazide

$$$$
