
     RDKit          3D

 18 18  0  0  0  0  0  0  0  0999 V2000
    0.9040   -0.0154    0.0827 C   0  0  0  0  0  0  0  0  0  0  0  0
    0.4823   -0.6107    1.4034 C   0  0  0  0  0  0  0  0  0  0  0  0
   -0.2180    0.0154    2.1970 O   0  0  0  0  0  0  0  0  0  0  0  0
    0.7899   -1.9239    1.6716 N   0  0  0  0  0  0  0  0  0  0  0  0
    1.6347   -2.7879    0.9510 C   0  0  0  0  0  0  0  0  0  0  0  0
    2.8332   -2.3150    0.3843 C   0  0  0  0  0  0  0  0  0  0  0  0
    3.6465   -3.1223   -0.4176 C   0  0  0  0  0  0  0  0  0  0  0  0
    3.3608   -4.4663   -0.5234 C   0  0  0  0  0  0  0  0  0  0  0  0
    2.3192   -4.9599    0.2542 C   0  0  0  0  0  0  0  0  0  0  0  0
    1.3357   -4.1520    0.8331 C   0  0  0  0  0  0  0  0  0  0  0  0
    0.0391   -4.6596    1.1549 N   0  0  0  0  0  0  0  0  0  0  0  0
   -0.5683   -5.8703    0.8713 C   0  0  0  0  0  0  0  0  0  0  0  0
   -1.7364   -6.0702    1.2036 O   0  0  0  0  0  0  0  0  0  0  0  0
    0.1579   -6.9422    0.0626 C   0  0  0  0  0  0  0  0  0  0  0  0
    0.4678   -6.4750   -1.3402 N   0  0  0  0  0  0  0  0  0  0  0  0
    4.0646   -5.3262   -1.5214 C   0  0  0  0  0  0  0  0  0  0  0  0
    3.4067   -6.4860   -1.7986 O   0  0  0  0  0  0  0  0  0  0  0  0
    4.9808   -4.9091   -2.2137 O   0  0  0  0  0  0  0  0  0  0  0  0
  1  2  1  0
  2  3  2  0
  2  4  1  0
  4  5  1  0
  5  6  2  0
  5 10  1  0
  6  7  1  0
  7  8  2  0
  8  9  1  0
  8 16  1  0
  9 10  2  0
 10 11  1  0
 11 12  1  0
 12 13  2  0
 12 14  1  0
 14 15  1  0
 16 17  1  0
 16 18  2  0
M  CHG  1  15   1
M  END
>  <DRUGBANK_ID>  (1) 
DB02829

>  <SECONDARY_ACCESSION_NUMBERS>  (1) 
EXPT02963

>  <COMMON_NAME>  (1) 
4-(Acetylamino)-3-[(Aminoacetyl)Amino]Benzoic Acid

$$$$
