
     RDKit          3D

  9  8  0  0  1  0  0  0  0  0999 V2000
    0.9098    2.3595   -0.1775 C   0  0  0  0  0  0  0  0  0  0  0  0
    1.0959    2.0576   -1.6709 C   0  0  0  0  0  0  0  0  0  0  0  0
    0.3974    1.1716    0.6376 C   0  0  1  0  0  0  0  0  0  0  0  0
   -1.1407    1.1681    0.5885 C   0  0  0  0  0  0  0  0  0  0  0  0
    0.9558   -0.1000    0.1441 N   0  0  0  0  0  0  0  0  0  0  0  0
    0.4497    4.1807   -2.4491 N   0  0  0  0  0  0  0  0  0  0  0  0
   -1.7505    1.3115    1.7858 O   0  0  0  0  0  0  0  0  0  0  0  0
   -1.7856    1.0462   -0.4494 O   0  0  0  0  0  0  0  0  0  0  0  0
    1.5488    3.2278   -2.3582 O   0  0  0  0  0  0  0  0  0  0  0  0
  1  2  1  0
  2  9  1  0
  3  4  1  0
  3  5  1  6
  3  1  1  0
  4  7  1  0
  4  8  2  0
  6  9  1  0
M  END
>  <DRUGBANK_ID>  (1) 
DB02821

>  <SECONDARY_ACCESSION_NUMBERS>  (1) 
EXPT00828

>  <COMMON_NAME>  (1) 
Canaline

>  <CAS_NUMBER>  (1) 
496-93-5

>  <UNII>  (1) 
T7H2XP1ZNS

$$$$
