
     RDKit          3D

 24 27  0  0  1  0  0  0  0  0999 V2000
    0.4690   -0.2526   -0.1268 C   0  0  0  0  0  0  0  0  0  0  0  0
    0.5623   -1.7209   -0.2310 C   0  0  0  0  0  0  0  0  0  0  0  0
    1.4537   -2.2595    0.8900 C   0  0  0  0  0  0  0  0  0  0  0  0
    0.7443   -2.7275    1.8129 O   0  0  0  0  0  0  0  0  0  0  0  0
    3.1531   -2.1017    1.1872 C   0  0  1  0  0  0  0  0  0  0  0  0
    4.8506   -1.5907    0.7628 C   0  0  0  0  0  0  0  0  0  0  0  0
    4.9219   -0.1037    0.2919 C   0  0  0  0  0  0  0  0  0  0  0  0
    3.4603    0.1152    0.3406 C   0  0  1  0  0  0  0  0  0  0  0  0
    2.9151   -0.5466    1.7723 C   0  0  1  0  0  0  0  0  0  0  0  0
    3.1987    0.7881    2.5459 C   0  0  0  0  0  0  0  0  0  0  0  0
    2.3186    2.0396    2.2158 C   0  0  0  0  0  0  0  0  0  0  0  0
    2.5412    2.7930    0.8836 C   0  0  0  0  0  0  0  0  0  0  0  0
    2.4517    4.1278    0.3915 C   0  0  0  0  0  0  0  0  0  0  0  0
    2.1773    5.9533    0.6273 C   0  0  0  0  0  0  0  0  0  0  0  0
    3.4698    6.9136    0.2874 C   0  0  0  0  0  0  0  0  0  0  0  0
    4.3363    5.7841    0.3685 C   0  0  0  0  0  0  0  0  0  0  0  0
    4.6693    5.3240    1.5210 O   0  0  0  0  0  0  0  0  0  0  0  0
    4.2344    5.0049   -0.8613 C   0  0  0  0  0  0  0  0  0  0  0  0
    3.2191    4.1327   -0.8564 C   0  0  0  0  0  0  0  0  0  0  0  0
    3.2506    3.1219   -1.9640 C   0  0  0  0  0  0  0  0  0  0  0  0
    3.1100    1.6793   -1.6184 C   0  0  0  0  0  0  0  0  0  0  0  0
    2.8654    1.5587   -0.1184 C   0  0  1  0  0  0  0  0  0  0  0  0
    3.5051   -1.2309    3.1178 C   0  0  0  0  0  0  0  0  0  0  0  0
    3.0832   -3.5343    2.2281 C   0  0  0  0  0  0  0  0  0  0  0  0
  1  2  1  0
  2  3  1  0
  3  4  2  0
  5  3  1  0
  5  6  1  0
  5  9  1  0
  5 24  1  1
  6  7  1  0
  8  7  1  1
  8  9  1  0
  8 22  1  0
  9 10  1  0
  9 23  1  6
 10 11  1  0
 11 12  1  0
 12 13  2  0
 12 22  1  0
 13 14  1  0
 13 19  1  0
 14 15  1  0
 15 16  1  0
 16 17  2  0
 16 18  1  0
 18 19  2  0
 19 20  1  0
 20 21  1  0
 22 21  1  6
M  END
>  <DRUGBANK_ID>  (1) 
DB13602

>  <COMMON_NAME>  (1) 
Promegestone

>  <CAS_NUMBER>  (1) 
34184-77-5

>  <UNII>  (1) 
9XE0V2SQYX

>  <SYNONYMS>  (1) 
promegestona; Promegestone

$$$$
