OVA
     RDKit          3D

 21 22  0  0  0  0  0  0  0  0999 V2000
    0.7224    1.4818   -0.3296 C   0  0  0  0  0  0  0  0  0  0  0  0
    1.4153    0.2824    0.1907 C   0  0  0  0  0  0  0  0  0  0  0  0
    0.8372   -1.1472   -0.2040 C   0  0  2  0  0  0  0  0  0  0  0  0
   -0.6526   -1.1809    0.2655 C   0  0  1  0  0  0  0  0  0  0  0  0
   -1.4237    0.2097   -0.2249 C   0  0  1  0  0  0  0  0  0  0  0  0
   -0.6555    1.4420    0.2499 C   0  0  0  0  0  0  0  0  0  0  0  0
   -1.4720    0.2671   -1.6644 O   0  0  0  0  0  0  0  0  0  0  0  0
   -2.8646    0.5597    0.3151 C   0  0  0  0  0  0  0  0  0  0  0  0
   -1.4745   -2.4312   -0.1449 C   0  0  1  0  0  0  0  0  0  0  0  0
   -1.0933   -3.8983    0.0585 C   0  0  1  0  0  0  0  0  0  0  0  0
   -2.2170   -4.8215    0.4901 C   0  0  0  0  0  0  0  0  0  0  0  0
   -2.4795   -4.6497    1.9756 C   0  0  0  0  0  0  0  0  0  0  0  0
   -3.6113   -4.1994    2.5566 C   0  0  0  0  0  0  0  0  0  0  0  0
   -2.9006   -2.1094   -0.1487 C   0  0  0  0  0  0  0  0  0  0  0  0
   -1.1092   -3.2712   -1.2399 O   0  0  0  0  0  0  0  0  0  0  0  0
   -3.6943   -3.9640    4.0398 C   0  0  0  0  0  0  0  0  0  0  0  0
   -4.8694   -3.8911    1.7950 C   0  0  0  0  0  0  0  0  0  0  0  0
    1.4969   -2.3311    0.2741 O   0  0  0  0  0  0  0  0  0  0  0  0
    2.6053   -2.0218    1.0977 C   0  0  0  0  0  0  0  0  0  0  0  0
    2.4019    0.5050    0.9269 O   0  0  0  0  0  0  0  0  0  0  0  0
   -0.6306   -1.1968    1.7116 O   0  0  0  0  0  0  0  0  0  0  0  0
  1  2  1  0
  1  6  1  0
  2  3  1  0
  2 20  2  0
  3  4  1  0
  3 18  1  1
  4  5  1  0
  4 21  1  1
  5  6  1  0
  5  7  1  0
  5  8  1  1
  9  4  1  0
  9 10  1  0
  9 14  1  6
  9 15  1  0
 10 15  1  0
 10 11  1  6
 11 12  1  0
 12 13  2  3
 13 16  1  0
 13 17  1  0
 18 19  1  0
M  END
>  <DRUGBANK_ID>  (1) 
DB04324

>  <SECONDARY_ACCESSION_NUMBERS>  (1) 
EXPT02454

>  <COMMON_NAME>  (1) 
Ovalicin

$$$$
