BPZ
     RDKit          3D

 20 22  0  0  0  0  0  0  0  0999 V2000
    2.3340   -0.0404    0.0280 O   0  0  0  0  0  0  0  0  0  0  0  0
    0.9722   -0.0487    0.0122 C   0  0  0  0  0  0  0  0  0  0  0  0
    0.3345    1.1738   -0.0201 C   0  0  0  0  0  0  0  0  0  0  0  0
   -1.0556    1.2229   -0.0789 C   0  0  0  0  0  0  0  0  0  0  0  0
    0.2374   -1.2290    0.0144 C   0  0  0  0  0  0  0  0  0  0  0  0
   -1.1641   -1.1732   -0.0044 C   0  0  0  0  0  0  0  0  0  0  0  0
   -1.8489    0.0575   -0.0483 C   0  0  0  0  0  0  0  0  0  0  0  0
   -3.4076    0.1231   -0.0619 C   0  0  0  0  0  0  0  0  0  0  0  0
   -3.9276   -0.6583   -1.3180 C   0  0  0  0  0  0  0  0  0  0  0  0
   -5.4555   -0.8439   -1.3487 C   0  0  0  0  0  0  0  0  0  0  0  0
   -3.9710   -0.6179    1.1969 C   0  0  0  0  0  0  0  0  0  0  0  0
   -5.4975   -0.7407    1.1727 C   0  0  0  0  0  0  0  0  0  0  0  0
   -5.9770   -1.4822   -0.0717 C   0  0  0  0  0  0  0  0  0  0  0  0
   -3.9189    1.5962   -0.0506 C   0  0  0  0  0  0  0  0  0  0  0  0
   -3.6713    2.4372    1.0544 C   0  0  0  0  0  0  0  0  0  0  0  0
   -4.0480    3.7841    1.0387 C   0  0  0  0  0  0  0  0  0  0  0  0
   -4.7592    4.2790   -0.0494 C   0  0  0  0  0  0  0  0  0  0  0  0
   -5.1666    5.5769   -0.1151 O   0  0  0  0  0  0  0  0  0  0  0  0
   -5.0543    3.4724   -1.1266 C   0  0  0  0  0  0  0  0  0  0  0  0
   -4.5845    2.1649   -1.1524 C   0  0  0  0  0  0  0  0  0  0  0  0
  1  2  1  0
  2  5  2  0
  2  3  1  0
  3  4  2  0
  4  7  1  0
  5  6  1  0
  6  7  2  0
  7  8  1  0
  8 14  1  0
  8 11  1  0
  8  9  1  0
  9 10  1  0
 10 13  1  0
 12 11  1  0
 12 13  1  0
 14 20  1  0
 15 14  2  0
 15 16  1  0
 16 17  2  0
 17 18  1  0
 17 19  1  0
 20 19  2  0
M  END
>  <DRUGBANK_ID>  (1) 
DB07485

>  <COMMON_NAME>  (1) 
Bisphenol Z

>  <CAS_NUMBER>  (1) 
843-55-0

>  <UNII>  (1) 
64ZF6464QY

>  <SYNONYMS>  (1) 
4,4'-cyclohexane-1,1-diyldiphenol; 4,4'-cyclohexylidenebisphenol; Antigene W; Bis-Z

$$$$
