612
     RDKit          3D

 22 23  0  0  0  0  0  0  0  0999 V2000
   -1.5044    0.3942   -0.2394 C   0  0  0  0  0  0  0  0  0  0  0  0
   -0.5774    1.4283    0.4203 C   0  0  0  0  0  0  0  0  0  0  0  0
    0.8957    1.2193    0.0742 C   0  0  0  0  0  0  0  0  0  0  0  0
    1.3713   -0.0538    0.7111 C   0  0  0  0  0  0  0  0  0  0  0  0
    0.2596   -1.0639    0.5780 C   0  0  0  0  0  0  0  0  0  0  0  0
   -1.2286   -0.8536    0.5568 C   0  0  0  0  0  0  0  0  0  0  0  0
   -1.5552    0.1427   -2.1318 S   0  0  0  0  0  0  0  0  0  0  0  0
    0.0560   -0.2041   -2.8248 C   0  0  0  0  0  0  0  0  0  0  0  0
    0.6701   -1.4229   -2.6632 C   0  0  0  0  0  0  0  0  0  0  0  0
    0.2318   -2.6666   -1.8398 C   0  0  0  0  0  0  0  0  0  0  0  0
    1.2439   -3.2125   -0.7394 C   0  0  0  0  0  0  0  0  0  0  0  0
   -0.1745   -3.8860   -2.6152 C   0  0  0  0  0  0  0  0  0  0  0  0
    2.0433   -1.5613   -3.1944 C   0  0  0  0  0  0  0  0  0  0  0  0
    2.7368   -2.5716   -3.0040 O   0  0  0  0  0  0  0  0  0  0  0  0
    0.6812    0.8163   -3.6074 N   0  0  0  0  0  0  0  0  0  0  0  0
    1.9339    0.6252   -4.1845 C   0  0  0  0  0  0  0  0  0  0  0  0
    2.5182    1.4170   -4.9188 O   0  0  0  0  0  0  0  0  0  0  0  0
    2.5608   -0.5380   -3.8848 N   0  0  0  0  0  0  0  0  0  0  0  0
    0.0817    2.1093   -3.9663 C   0  0  0  0  0  0  0  0  0  0  0  0
    0.9008    3.2433   -3.6023 O   0  0  0  0  0  0  0  0  0  0  0  0
    1.1810    3.3738   -2.2238 C   0  0  0  0  0  0  0  0  0  0  0  0
   -0.0930    3.6180   -1.4599 C   0  0  0  0  0  0  0  0  0  0  0  0
  1  6  1  0
  1  2  1  0
  2  3  1  0
  3  4  1  0
  5  4  1  0
  6  5  1  0
  7  1  1  0
  8  7  1  0
  9  8  2  0
  9 10  1  0
 10 12  1  0
 10 11  1  0
 13  9  1  0
 14 13  2  0
 15  8  1  0
 15 19  1  0
 16 15  1  0
 17 16  2  0
 18 13  1  0
 18 16  1  0
 19 20  1  0
 21 20  1  0
 21 22  1  0
M  END
>  <DRUGBANK_ID>  (1) 
DB07184

>  <COMMON_NAME>  (1) 
6-(cyclohexylsulfanyl)-1-(ethoxymethyl)-5-(1-methylethyl)pyrimidine-2,4(1H,3H)-dione

$$$$
