
     RDKit          3D

 23 25  0  0  0  0  0  0  0  0999 V2000
    1.0469   -0.0811   -0.0156 C   0  0  0  0  0  0  0  0  0  0  0  0
    8.6963    1.1238    6.1187 C   0  0  0  0  0  0  0  0  0  0  0  0
    6.7985   -0.2515    0.9976 C   0  0  0  0  0  0  0  0  0  0  0  0
    0.5898   -0.8537    1.2258 C   0  0  0  0  0  0  0  0  0  0  0  0
    2.4804   -1.4168    8.5246 C   0  0  0  0  0  0  0  0  0  0  0  0
    1.7787   -1.9581    7.4591 C   0  0  0  0  0  0  0  0  0  0  0  0
    3.0717   -0.1716    8.4319 C   0  0  0  0  0  0  0  0  0  0  0  0
    1.5558   -1.2143    6.3411 C   0  0  0  0  0  0  0  0  0  0  0  0
    2.7307    0.6248    7.3916 C   0  0  0  0  0  0  0  0  0  0  0  0
    1.7964    1.0195    5.2635 C   0  0  0  0  0  0  0  0  0  0  0  0
    1.4821    0.2532    3.5219 C   0  0  0  0  0  0  0  0  0  0  0  0
    5.0876    1.0405    5.1931 C   0  0  0  0  0  0  0  0  0  0  0  0
    5.1687   -0.0727    2.9887 C   0  0  0  0  0  0  0  0  0  0  0  0
    1.9912    0.0926    6.3830 C   0  0  0  0  0  0  0  0  0  0  0  0
    3.3507    0.6845    4.4191 C   0  0  0  0  0  0  0  0  0  0  0  0
    1.3348   -0.3178    2.3827 C   0  0  0  0  0  0  0  0  0  0  0  0
    4.3824    0.5805    3.8527 C   0  0  0  0  0  0  0  0  0  0  0  0
    3.1886    0.3462    3.8099 C   0  0  0  0  0  0  0  0  0  0  0  0
    6.6695    0.7218    4.5444 C   0  0  0  0  0  0  0  0  0  0  0  0
    6.4571    0.2565    3.2630 C   0  0  0  0  0  0  0  0  0  0  0  0
    2.5633   -0.2808    2.5092 N   0  0  0  0  0  0  0  0  0  0  0  0
    8.0721    0.7345    4.8770 O   0  0  0  0  0  0  0  0  0  0  0  0
    7.3620    0.1549    2.2647 O   0  0  0  0  0  0  0  0  0  0  0  0
  4  1  1  0
  6  5  2  0
  7  5  1  0
  8  6  1  0
  9  7  2  0
 14  8  2  0
 14  9  1  0
 14 10  1  0
 15 11  2  0
 15 12  1  0
 16  4  1  0
 16 11  1  0
 17 13  1  0
 17 15  1  0
 18 10  1  0
 18 17  2  0
 19 12  2  0
 20 13  2  0
 20 19  1  0
 21 16  2  0
 21 18  1  0
 22  2  1  0
 22 19  1  0
 23  3  1  0
 23 20  1  0
M  END
>  <DRUGBANK_ID>  (1) 
DB12251

>  <COMMON_NAME>  (1) 
Moxaverine

>  <CAS_NUMBER>  (1) 
10539-19-2

>  <UNII>  (1) 
P3P08Y1XJ4

>  <SYNONYMS>  (1) 
Moxaverine

$$$$
