
     RDKit          3D

 33 35  0  0  0  0  0  0  0  0999 V2000
    0.3945   -0.3530    0.1734 O   0  0  0  0  0  0  0  0  0  0  0  0
    0.3482   -1.1299   -0.9804 N   0  0  0  0  0  0  0  0  0  0  0  0
    1.3538   -1.7618   -1.6366 C   0  0  0  0  0  0  0  0  0  0  0  0
    1.0349   -2.6059   -2.4800 O   0  0  0  0  0  0  0  0  0  0  0  0
    2.8416   -1.4796   -1.4058 C   0  0  0  0  0  0  0  0  0  0  0  0
    3.3034   -0.0830   -1.8258 C   0  0  0  0  0  0  0  0  0  0  0  0
    2.7113    1.0019   -0.9380 C   0  0  0  0  0  0  0  0  0  0  0  0
    3.0784    0.7823    0.5529 C   0  0  0  0  0  0  0  0  0  0  0  0
    4.5466    0.9605    0.8069 C   0  0  0  0  0  0  0  0  0  0  0  0
    4.9426    2.3418    0.3892 C   0  0  0  0  0  0  0  0  0  0  0  0
    4.2702    3.3576    1.1871 N   0  0  0  0  0  0  0  0  0  0  0  0
    4.8553    4.2380    2.0471 C   0  0  0  0  0  0  0  0  0  0  0  0
    4.1859    4.9369    2.8093 O   0  0  0  0  0  0  0  0  0  0  0  0
    6.3076    4.3154    2.0572 C   0  0  0  0  0  0  0  0  0  0  0  0
    7.0482    4.3134    0.9015 C   0  0  0  0  0  0  0  0  0  0  0  0
    8.3790    4.1986    0.8798 N   0  0  0  0  0  0  0  0  0  0  0  0
    9.0280    4.1921    2.0594 C   0  0  0  0  0  0  0  0  0  0  0  0
    8.3660    4.2553    3.2418 N   0  0  0  0  0  0  0  0  0  0  0  0
    7.0193    4.3120    3.2216 C   0  0  0  0  0  0  0  0  0  0  0  0
   10.4490    4.1122    2.0428 N   0  0  0  0  0  0  0  0  0  0  0  0
   11.1679    4.0661    0.8019 C   0  0  0  0  0  0  0  0  0  0  0  0
   11.0169    5.0814   -0.1559 C   0  0  0  0  0  0  0  0  0  0  0  0
   11.8017    5.0986   -1.3073 C   0  0  0  0  0  0  0  0  0  0  0  0
   12.7439    4.0955   -1.5201 C   0  0  0  0  0  0  0  0  0  0  0  0
   12.9020    3.0752   -0.5832 C   0  0  0  0  0  0  0  0  0  0  0  0
   12.0957    3.0413    0.5558 C   0  0  0  0  0  0  0  0  0  0  0  0
   11.1898    4.1436    3.2676 C   0  0  0  0  0  0  0  0  0  0  0  0
   10.9938    3.1264    4.2187 C   0  0  0  0  0  0  0  0  0  0  0  0
   11.7597    3.0776    5.3825 C   0  0  0  0  0  0  0  0  0  0  0  0
   12.7476    4.0329    5.6059 C   0  0  0  0  0  0  0  0  0  0  0  0
   12.9560    5.0511    4.6782 C   0  0  0  0  0  0  0  0  0  0  0  0
   12.1478    5.1403    3.5435 C   0  0  0  0  0  0  0  0  0  0  0  0
   12.2937    6.5837    2.5964 Cl  0  0  0  0  0  0  0  0  0  0  0  0
  1  2  1  0
  2  3  1  0
  3  4  2  0
  3  5  1  0
  5  6  1  0
  6  7  1  0
  7  8  1  0
  8  9  1  0
  9 10  1  0
 10 11  1  0
 11 12  1  0
 12 13  2  0
 12 14  1  0
 14 15  2  0
 14 19  1  0
 15 16  1  0
 16 17  2  0
 17 18  1  0
 17 20  1  0
 18 19  2  0
 20 21  1  0
 20 27  1  0
 21 22  2  0
 21 26  1  0
 22 23  1  0
 23 24  2  0
 24 25  1  0
 25 26  2  0
 27 28  2  0
 27 32  1  0
 28 29  1  0
 29 30  2  0
 30 31  1  0
 31 32  2  0
 32 33  1  0
M  END
>  <DRUGBANK_ID>  (1) 
DB15449

>  <COMMON_NAME>  (1) 
Citarinostat

>  <CAS_NUMBER>  (1) 
1316215-12-9

>  <UNII>  (1) 
441P620G3P

>  <SYNONYMS>  (1) 
(2-((2-chlorophenyl)(phenyl)amino)-N-(7-(hydroxyamino)-7-oxoheptyl)pyrimidine-5-carboxamide); Citarinostat

$$$$
