
     RDKit          3D

 16 16  0  0  1  0  0  0  0  0999 V2000
    0.9961   -0.3380    0.1158 N   0  0  0  0  0  0  0  0  0  0  0  0
    0.4336    0.2097    1.3857 C   0  0  1  0  0  0  0  0  0  0  0  0
    0.9764    1.6343    1.6715 C   0  0  0  0  0  0  0  0  0  0  0  0
    0.5976    2.7164    0.6844 C   0  0  0  0  0  0  0  0  0  0  0  0
   -0.3029    2.4690   -0.3452 C   0  0  0  0  0  0  0  0  0  0  0  0
   -0.8443    3.4607   -1.1200 C   0  0  0  0  0  0  0  0  0  0  0  0
   -0.3055    4.7210   -1.0848 C   0  0  0  0  0  0  0  0  0  0  0  0
   -0.5523    5.6507   -2.0540 O   0  0  0  0  0  0  0  0  0  0  0  0
   -1.3329    5.1969   -3.1808 C   0  0  0  0  0  0  0  0  0  0  0  0
   -0.6625    4.1678   -4.1177 C   0  0  0  0  0  0  0  0  0  0  0  0
   -0.4919    2.9393   -3.5650 F   0  0  0  0  0  0  0  0  0  0  0  0
    0.6023    5.0261   -0.0673 C   0  0  0  0  0  0  0  0  0  0  0  0
    1.0575    4.0279    0.8159 C   0  0  0  0  0  0  0  0  0  0  0  0
   -1.1393    0.1163    1.4875 C   0  0  0  0  0  0  0  0  0  0  0  0
   -1.6006   -0.7650    2.4002 O   0  0  0  0  0  0  0  0  0  0  0  0
   -1.9699    0.7623    0.8547 O   0  0  0  0  0  0  0  0  0  0  0  0
  2  1  1  6
  2  3  1  0
  2 14  1  0
  3  4  1  0
  4  5  2  0
  4 13  1  0
  5  6  1  0
  6  7  2  0
  7  8  1  0
  7 12  1  0
  8  9  1  0
  9 10  1  0
 10 11  1  0
 12 13  2  0
 14 15  1  0
 14 16  2  0
M  ISO  1  11  18
M  END
>  <DRUGBANK_ID>  (1) 
DB15405

>  <COMMON_NAME>  (1) 
FET F-18

>  <CAS_NUMBER>  (1) 
178433-03-9

>  <UNII>  (1) 
1326R5J1IA

>  <SYNONYMS>  (1) 
18F-FET; FLUOROETHYL-L-TYROSINE (18F); O-(2-FLUOROETHYL)-L-TYROSINE F-18; O-18F-fluoroethyl-L-tyrosine

$$$$
