N20
     RDKit          3D

 25 28  0  0  0  0  0  0  0  0999 V2000
   -1.9215   -0.7469    0.2511 C   0  0  0  0  0  0  0  0  0  0  0  0
   -3.4103   -6.9885   -0.2260 O   0  0  0  0  0  0  0  0  0  0  0  0
    2.3700    0.0324   -0.0105 C   0  0  0  0  0  0  0  0  0  0  0  0
   -2.2516    3.3675    0.1679 C   0  0  0  0  0  0  0  0  0  0  0  0
   -3.0976    3.1692   -1.1199 C   0  0  0  0  0  0  0  0  0  0  0  0
   -4.3223    4.0943   -1.1660 C   0  0  0  0  0  0  0  0  0  0  0  0
   -5.2311    3.7538   -2.3562 C   0  0  0  0  0  0  0  0  0  0  0  0
   -5.7017    2.3015   -2.3318 C   0  0  0  0  0  0  0  0  0  0  0  0
   -4.5172    1.3714   -2.3375 C   0  0  0  0  0  0  0  0  0  0  0  0
   -3.5706    1.7258   -1.2287 C   0  0  0  0  0  0  0  0  0  0  0  0
   -2.7344   -5.0113    0.9474 C   0  0  0  0  0  0  0  0  0  0  0  0
   -3.3527   -5.6299   -0.1291 C   0  0  0  0  0  0  0  0  0  0  0  0
   -3.9279   -4.8752   -1.1469 C   0  0  0  0  0  0  0  0  0  0  0  0
   -3.9002   -3.4738   -1.0837 C   0  0  0  0  0  0  0  0  0  0  0  0
   -1.9810    0.5861    0.4849 N   0  0  0  0  0  0  0  0  0  0  0  0
   -0.8729    1.3632    0.2853 C   0  0  0  0  0  0  0  0  0  0  0  0
   -0.9614    2.7378    0.1490 O   0  0  0  0  0  0  0  0  0  0  0  0
    0.3525    0.7217    0.1142 C   0  0  0  0  0  0  0  0  0  0  0  0
    1.6622    1.1419   -0.0012 N   0  0  0  0  0  0  0  0  0  0  0  0
    1.5783   -1.0813   -0.0130 N   0  0  0  0  0  0  0  0  0  0  0  0
    0.2928   -0.6508    0.0532 C   0  0  0  0  0  0  0  0  0  0  0  0
   -0.7881   -1.4338    0.0693 N   0  0  0  0  0  0  0  0  0  0  0  0
   -3.1275   -1.4401    0.0566 N   0  0  0  0  0  0  0  0  0  0  0  0
   -3.2750   -2.8314   -0.0075 C   0  0  0  0  0  0  0  0  0  0  0  0
   -2.6941   -3.6205    0.9956 C   0  0  0  0  0  0  0  0  0  0  0  0
  1 15  2  0
  1 22  1  0
  1 23  1  0
  2 12  1  0
  3 19  2  0
  3 20  1  0
  4  5  1  0
  4 17  1  0
  5  6  1  0
  5 10  1  0
  6  7  1  0
  7  8  1  0
  8  9  1  0
  9 10  1  0
 11 12  2  0
 11 25  1  0
 12 13  1  0
 13 14  2  0
 14 24  1  0
 15 16  1  0
 16 17  1  0
 16 18  2  0
 18 19  1  0
 18 21  1  0
 20 21  1  0
 21 22  2  0
 23 24  1  0
 24 25  2  0
M  END
>  <DRUGBANK_ID>  (1) 
DB08233

>  <COMMON_NAME>  (1) 
6-CYCLOHEXYLMETHYLOXY-2-(4'-HYDROXYANILINO)PURINE

$$$$
