
     RDKit          3D

 22 23  0  0  0  0  0  0  0  0999 V2000
    2.7296   -1.1068    0.0164 C   0  0  0  0  0  0  0  0  0  0  0  0
    1.3627   -0.4509    0.0177 C   0  0  0  0  0  0  0  0  0  0  0  0
    0.1543   -1.0740    0.1352 C   0  0  0  0  0  0  0  0  0  0  0  0
    0.0912   -2.5224    0.3816 C   0  0  0  0  0  0  0  0  0  0  0  0
   -0.9515   -3.3035    0.7046 C   0  0  0  0  0  0  0  0  0  0  0  0
   -0.9636   -4.7867    0.8150 C   0  0  0  0  0  0  0  0  0  0  0  0
   -2.0540   -5.3502    0.7168 O   0  0  0  0  0  0  0  0  0  0  0  0
    0.2224   -5.4713    0.8785 N   0  0  0  0  0  0  0  0  0  0  0  0
    1.4100   -5.1006    1.6618 C   0  0  0  0  0  0  0  0  0  0  0  0
    2.6738   -5.2122    0.7882 C   0  0  0  0  0  0  0  0  0  0  0  0
    2.7518   -6.5309    0.1395 N   0  0  0  0  0  0  0  0  0  0  0  0
    1.5413   -6.8876   -0.6169 C   0  0  0  0  0  0  0  0  0  0  0  0
    0.2974   -6.8024    0.2830 C   0  0  0  0  0  0  0  0  0  0  0  0
    3.8800   -7.2887    0.2935 C   0  0  0  0  0  0  0  0  0  0  0  0
    3.9076   -8.4985   -0.3049 N   0  0  0  0  0  0  0  0  0  0  0  0
    4.8573   -6.9356    0.9526 O   0  0  0  0  0  0  0  0  0  0  0  0
   -1.1726   -0.2851   -0.0119 C   0  0  0  0  0  0  0  0  0  0  0  0
   -2.1282   -0.9119   -1.0629 C   0  0  0  0  0  0  0  0  0  0  0  0
   -1.8605   -0.1759    1.3679 C   0  0  0  0  0  0  0  0  0  0  0  0
   -0.9299    1.1567   -0.5471 C   0  0  0  0  0  0  0  0  0  0  0  0
    0.2362    1.8407    0.1347 C   0  0  0  0  0  0  0  0  0  0  0  0
    1.5059    1.0548   -0.1391 C   0  0  0  0  0  0  0  0  0  0  0  0
  1  2  1  0
  2  3  2  0
  2 22  1  0
  3  4  1  0
  3 17  1  0
  4  5  2  0
  5  6  1  0
  6  7  2  0
  6  8  1  0
  8  9  1  0
  8 13  1  0
  9 10  1  0
 10 11  1  0
 11 12  1  0
 11 14  1  0
 12 13  1  0
 14 15  1  0
 14 16  2  0
 17 18  1  0
 17 19  1  0
 17 20  1  0
 20 21  1  0
 21 22  1  0
M  END
>  <DRUGBANK_ID>  (1) 
DB17820

>  <COMMON_NAME>  (1) 
BC9KBY85WY

>  <CAS_NUMBER>  (1) 
1259013-14-3

>  <UNII>  (1) 
BC9KBY85WY

>  <SYNONYMS>  (1) 
1-piperazinecarboxamide, 4-((2e)-1-oxo-3-(2,6,6-trimethyl-1-cyclohexen-1-yl)-2-propen-1-yl)-; 4-((2E)-1-Oxo-3-(2,6,6-trimethyl-1-cyclohexen-1-yl)-2-propen-1-yl)-1-piperazinecarboxamide

$$$$
