
     RDKit          3D

 25 26  0  0  0  0  0  0  0  0999 V2000
    2.6208   -0.1268   -0.0106 C   0  0  0  0  0  0  0  0  0  0  0  0
    1.1371   -0.1614    0.0123 C   0  0  0  0  0  0  0  0  0  0  0  0
    0.5239    1.0578   -0.0025 C   0  0  0  0  0  0  0  0  0  0  0  0
   -0.8389    1.1011   -0.0828 C   0  0  0  0  0  0  0  0  0  0  0  0
   -1.6749   -0.0261   -0.0245 C   0  0  0  0  0  0  0  0  0  0  0  0
   -1.0462   -1.2625    0.0044 C   0  0  0  0  0  0  0  0  0  0  0  0
    0.3551   -1.3264    0.0072 C   0  0  0  0  0  0  0  0  0  0  0  0
   -3.1667   -0.0053   -0.0097 C   0  0  0  0  0  0  0  0  0  0  0  0
   -3.8417   -1.0524   -0.1051 O   0  0  0  0  0  0  0  0  0  0  0  0
   -3.8407    1.1533    0.1457 N   0  0  0  0  0  0  0  0  0  0  0  0
   -3.2962    2.4727    0.3282 C   0  0  0  0  0  0  0  0  0  0  0  0
   -3.3996    3.2382   -0.9317 C   0  0  0  0  0  0  0  0  0  0  0  0
   -4.8157    3.6326   -0.7892 C   0  0  0  0  0  0  0  0  0  0  0  0
   -5.3665    4.5865    0.2310 C   0  0  0  0  0  0  0  0  0  0  0  0
   -4.7865    5.9310   -0.0969 C   0  0  0  0  0  0  0  0  0  0  0  0
   -5.2853    6.6085   -1.4254 C   0  0  0  0  0  0  0  0  0  0  0  0
   -5.5238    7.8225   -1.3576 O   0  0  0  0  0  0  0  0  0  0  0  0
   -5.1916    6.0458   -2.7015 N   0  0  0  0  0  0  0  0  0  0  0  0
   -5.7878    4.8543   -3.3046 C   0  0  0  0  0  0  0  0  0  0  0  0
   -6.7216    4.0724   -2.5976 C   0  0  0  0  0  0  0  0  0  0  0  0
   -6.7188    2.6616   -2.7350 C   0  0  0  0  0  0  0  0  0  0  0  0
   -6.0275    2.0611   -3.7678 C   0  0  0  0  0  0  0  0  0  0  0  0
   -5.3988    2.8870   -4.6971 C   0  0  0  0  0  0  0  0  0  0  0  0
   -5.2463    4.2851   -4.4793 C   0  0  0  0  0  0  0  0  0  0  0  0
   -4.3140    4.9655   -5.2908 N   0  0  0  0  0  0  0  0  0  0  0  0
  1  2  1  0
  2  3  2  0
  2  7  1  0
  3  4  1  0
  4  5  2  0
  5  6  1  0
  5  8  1  0
  6  7  2  0
  8  9  2  0
  8 10  1  0
 10 11  1  0
 11 12  1  0
 12 13  1  0
 13 14  1  0
 14 15  1  0
 15 16  1  0
 16 17  2  0
 16 18  1  0
 18 19  1  0
 19 20  2  0
 19 24  1  0
 20 21  1  0
 21 22  2  0
 22 23  1  0
 23 24  2  0
 24 25  1  0
M  END
>  <DRUGBANK_ID>  (1) 
DB16955

>  <COMMON_NAME>  (1) 
RG-2833

>  <CAS_NUMBER>  (1) 
1215493-56-3

>  <UNII>  (1) 
17V14R89EU

>  <SYNONYMS>  (1) 
N-(6-(2-aminophenylamino)-6-oxohexyl)-4-methylbenzamide

$$$$
