
     RDKit          3D

 33 37  0  0  1  0  0  0  0  0999 V2000
    1.3627    0.2022    0.0423 C   0  0  0  0  0  0  0  0  0  0  0  0
    0.8353   -1.1878    0.2255 C   0  0  0  0  0  0  0  0  0  0  0  0
    0.9970   -1.8531    1.4918 N   0  0  0  0  0  0  0  0  0  0  0  0
    0.0526   -2.3206    2.3583 C   0  0  0  0  0  0  0  0  0  0  0  0
    0.4311   -2.7688    3.4356 O   0  0  0  0  0  0  0  0  0  0  0  0
   -1.2939   -2.2242    2.1068 N   0  0  0  0  0  0  0  0  0  0  0  0
   -2.0065   -1.8809    0.9348 C   0  0  0  0  0  0  0  0  0  0  0  0
   -1.6570   -2.4187   -0.3091 C   0  0  0  0  0  0  0  0  0  0  0  0
   -2.0130   -1.7429   -1.4953 C   0  0  0  0  0  0  0  0  0  0  0  0
   -2.8684   -0.6223   -1.4881 C   0  0  0  0  0  0  0  0  0  0  0  0
   -3.3932   -0.2505   -0.2355 C   0  0  0  0  0  0  0  0  0  0  0  0
   -2.9367   -0.8379    0.9698 C   0  0  0  0  0  0  0  0  0  0  0  0
   -3.1899    0.1040   -2.7485 C   0  0  0  0  0  0  0  0  0  0  0  0
   -3.6990   -0.6636   -3.7369 N   0  0  0  0  0  0  0  0  0  0  0  0
   -3.9703   -0.0453   -4.9026 C   0  0  0  0  0  0  0  0  0  0  0  0
   -3.6890    1.2974   -5.1021 C   0  0  0  0  0  0  0  0  0  0  0  0
   -3.1818    2.0382   -4.0389 C   0  0  0  0  0  0  0  0  0  0  0  0
   -2.9122    1.4386   -2.8542 N   0  0  0  0  0  0  0  0  0  0  0  0
   -2.9587    3.3937   -4.2884 N   0  0  0  0  0  0  0  0  0  0  0  0
   -4.1403    4.2710   -4.4050 C   0  0  0  0  0  0  0  0  0  0  0  0
   -3.9055    5.3183   -5.5110 C   0  0  0  0  0  0  0  0  0  0  0  0
   -2.7279    6.0887   -5.2360 O   0  0  0  0  0  0  0  0  0  0  0  0
   -1.5781    5.2274   -5.2064 C   0  0  0  0  0  0  0  0  0  0  0  0
   -1.6815    4.1096   -4.1146 C   0  0  2  0  0  0  0  0  0  0  0  0
   -0.4653    3.2051   -4.2728 C   0  0  0  0  0  0  0  0  0  0  0  0
   -3.9355    1.9400   -6.4313 C   0  0  0  0  0  0  0  0  0  0  0  0
   -4.0631    0.9489   -7.5618 C   0  0  0  0  0  0  0  0  0  0  0  0
   -5.0437   -0.0637   -7.1883 N   0  0  0  0  0  0  0  0  0  0  0  0
   -4.5243   -0.8784   -6.0566 C   0  0  0  0  0  0  0  0  0  0  0  0
   -5.5089   -0.9239   -8.2894 C   0  0  0  0  0  0  0  0  0  0  0  0
   -4.4150   -1.7367   -8.9953 C   0  0  0  0  0  0  0  0  0  0  0  0
   -4.9839   -1.3746  -10.2923 O   0  0  0  0  0  0  0  0  0  0  0  0
   -5.6225   -0.2206   -9.6628 C   0  0  0  0  0  0  0  0  0  0  0  0
  1  2  1  0
  2  3  1  0
  3  4  1  0
  4  5  2  0
  4  6  1  0
  6  7  1  0
  7  8  2  0
  7 12  1  0
  8  9  1  0
  9 10  2  0
 10 11  1  0
 10 13  1  0
 11 12  2  0
 13 14  2  0
 13 18  1  0
 14 15  1  0
 15 16  2  0
 15 29  1  0
 16 17  1  0
 16 26  1  0
 17 18  2  0
 17 19  1  0
 19 20  1  0
 19 24  1  0
 20 21  1  0
 21 22  1  0
 22 23  1  0
 23 24  1  0
 24 25  1  6
 26 27  1  0
 27 28  1  0
 28 29  1  0
 28 30  1  0
 30 31  1  0
 30 33  1  0
 31 32  1  0
 32 33  1  0
M  END
>  <DRUGBANK_ID>  (1) 
DB13072

>  <COMMON_NAME>  (1) 
GDC-0349

>  <CAS_NUMBER>  (1) 
1207360-89-1

>  <UNII>  (1) 
579255I6O9

$$$$
