696
     RDKit          3D

 25 28  0  0  0  0  0  0  0  0999 V2000
    2.2000   -0.7217   -0.0112 C   0  0  0  0  0  0  0  0  0  0  0  0
    2.1254    0.6875   -0.0200 C   0  0  0  0  0  0  0  0  0  0  0  0
    0.9027    1.3864    0.0077 C   0  0  0  0  0  0  0  0  0  0  0  0
   -0.2708    0.6293    0.0317 C   0  0  0  0  0  0  0  0  0  0  0  0
   -0.2457   -0.7608    0.0494 C   0  0  0  0  0  0  0  0  0  0  0  0
    0.9882   -1.4302    0.0325 C   0  0  0  0  0  0  0  0  0  0  0  0
    3.4923   -1.4528   -0.0561 C   0  0  0  0  0  0  0  0  0  0  0  0
    3.5287   -2.7761   -0.0455 N   0  0  0  0  0  0  0  0  0  0  0  0
    4.6355   -0.8066   -0.1041 N   0  0  0  0  0  0  0  0  0  0  0  0
   -1.6025    0.9967   -0.0070 N   0  0  0  0  0  0  0  0  0  0  0  0
   -1.5800   -1.2207    0.0428 C   0  0  0  0  0  0  0  0  0  0  0  0
   -2.4069   -0.1220    0.0062 C   0  0  0  0  0  0  0  0  0  0  0  0
   -3.8705   -0.0717   -0.1266 C   0  0  0  0  0  0  0  0  0  0  0  0
   -4.6123   -0.7410    0.8700 C   0  0  0  0  0  0  0  0  0  0  0  0
   -5.9946   -0.7859    0.8239 C   0  0  0  0  0  0  0  0  0  0  0  0
   -6.6444   -0.1520   -0.2224 C   0  0  0  0  0  0  0  0  0  0  0  0
   -5.9263    0.5223   -1.2450 C   0  0  0  0  0  0  0  0  0  0  0  0
   -4.4885    0.5823   -1.2390 C   0  0  0  0  0  0  0  0  0  0  0  0
   -3.8040    1.1733   -2.1544 O   0  0  0  0  0  0  0  0  0  0  0  0
   -6.7366    1.1614   -2.3116 C   0  0  0  0  0  0  0  0  0  0  0  0
   -6.6471    0.7379   -3.6463 C   0  0  0  0  0  0  0  0  0  0  0  0
   -7.3994    1.3539   -4.6478 C   0  0  0  0  0  0  0  0  0  0  0  0
   -8.2823    2.3813   -4.3211 C   0  0  0  0  0  0  0  0  0  0  0  0
   -8.4151    2.7900   -2.9954 C   0  0  0  0  0  0  0  0  0  0  0  0
   -7.6271    2.2028   -2.0041 C   0  0  0  0  0  0  0  0  0  0  0  0
  1  2  2  0
  1  6  1  0
  1  7  1  0
  2  3  1  0
  3  4  2  0
  4  5  1  0
  4 10  1  0
  5  6  2  0
  5 11  1  0
  7  8  1  0
  7  9  2  0
 10 12  1  0
 11 12  2  0
 12 13  1  0
 13 14  2  0
 13 18  1  0
 14 15  1  0
 15 16  2  0
 16 17  1  0
 17 18  2  0
 17 20  1  0
 18 19  1  0
 20 21  2  0
 20 25  1  0
 21 22  1  0
 22 23  2  0
 23 24  1  0
 24 25  2  0
M  CHG  2   9   1  19  -1
M  END
>  <DRUGBANK_ID>  (1) 
DB03159

>  <SECONDARY_ACCESSION_NUMBERS>  (1) 
EXPT00282

>  <COMMON_NAME>  (1) 
CRA_8696

$$$$
