
     RDKit          3D

 27 28  0  0  0  0  0  0  0  0999 V2000
   -2.0290   -4.0904   -1.0700 N   0  0  0  0  0  0  0  0  0  0  0  0
   -1.0585   -3.4662   -1.9806 C   0  0  0  0  0  0  0  0  0  0  0  0
   -1.3011   -2.2085   -2.4846 N   0  0  0  0  0  0  0  0  0  0  0  0
   -0.4095   -1.6126   -3.3706 C   0  0  0  0  0  0  0  0  0  0  0  0
    0.7330   -2.2838   -3.7510 C   0  0  0  0  0  0  0  0  0  0  0  0
    1.7425   -1.6912   -4.7000 N   0  0  0  0  0  0  0  0  0  0  0  0
    1.1321   -0.5258   -5.4750 C   0  0  2  0  0  0  0  0  0  0  0  0
    0.4884    0.4378   -4.4717 C   0  0  2  0  0  0  0  0  0  0  0  0
   -0.7489   -0.2372   -3.8828 N   0  0  0  0  0  0  0  0  0  0  0  0
   -1.3767   -0.2304   -9.4703 O   0  0  0  0  0  0  0  0  0  0  0  0
   -0.8138   -1.3248   -8.7618 C   0  0  2  0  0  0  0  0  0  0  0  0
   -1.9088   -2.0503   -7.9970 C   0  0  0  0  0  0  0  0  0  0  0  0
   -1.3932   -2.6918   -6.8398 O   0  0  0  0  0  0  0  0  0  0  0  0
   -0.2025   -3.8561   -7.3080 P   0  0  0  0  0  0  0  0  0  0  0  0
   -1.2340   -4.9928   -7.1048 O   0  0  0  0  0  0  0  0  0  0  0  0
   -0.0562   -3.0863   -8.8504 O   0  0  0  0  0  0  0  0  0  0  0  0
    0.9883   -5.0205   -7.7763 O   0  0  0  0  0  0  0  0  0  0  0  0
    0.2320   -0.8120   -7.7852 C   0  0  0  0  0  0  0  0  0  0  0  0
    0.0864   -1.0386   -6.4517 C   0  0  0  0  0  0  0  0  0  0  0  0
   -1.3527   -1.9505   -5.8405 S   0  0  0  0  0  0  0  0  0  0  0  0
   -1.0133   -1.4226   -8.9482 S   0  0  0  0  0  0  0  0  0  0  0  0
    0.9888   -3.5495   -3.2482 C   0  0  0  0  0  0  0  0  0  0  0  0
    2.0456   -4.1646   -3.5947 O   0  0  0  0  0  0  0  0  0  0  0  0
    0.0954   -4.1523   -2.3654 N   0  0  0  0  0  0  0  0  0  0  0  0
    0.9948   -0.0640    0.0766 O   0  0  0  0  0  0  0  0  0  0  0  0
    2.9638   -0.0640    0.0766 Mo  0  0  0  0  0  4  0  0  0  0  0  0
    4.9328   -0.0640    0.0766 O   0  0  0  0  0  0  0  0  0  0  0  0
  1  2  1  0
  2  3  2  0
  2 24  1  0
  3  4  1  0
  4  5  2  0
  4  9  1  0
  5  6  1  0
  5 22  1  0
  7  6  1  1
  7  8  1  0
  7 19  1  0
  8  9  1  1
  8 10  1  0
 11 10  1  0
 11 18  1  0
 11 12  1  1
 12 13  1  0
 13 14  1  0
 14 15  2  0
 14 16  1  0
 14 17  1  0
 18 19  2  0
 18 21  1  0
 19 20  1  0
 22 23  2  0
 22 24  1  0
 25 26  2  0
 26 27  2  0
M  CHG  5  16  -1  17  -1  20  -1  21  -1  26   2
M  END
>  <DRUGBANK_ID>  (1) 
DB02137

>  <SECONDARY_ACCESSION_NUMBERS>  (1) 
EXPT02517

>  <COMMON_NAME>  (1) 
Molybdenum cofactor

>  <CAS_NUMBER>  (1) 
872689-63-9

>  <UNII>  (1) 
EPP8L4V5E3

>  <SYNONYMS>  (1) 
MoCO

$$$$
