
     RDKit          3D

 30 31  0  0  0  0  0  0  0  0999 V2000
   -6.2352    4.9584    0.1959 O   0  0  0  0  0  0  0  0  0  0  0  0
   -2.9438    4.0920    0.6989 O   0  0  0  0  0  0  0  0  0  0  0  0
   -5.1207    6.5924    2.6070 O   0  0  0  0  0  0  0  0  0  0  0  0
   -4.3800    1.4293    3.2141 O   0  0  0  0  0  0  0  0  0  0  0  0
   -4.2789    5.1094    3.9091 O   0  0  0  0  0  0  0  0  0  0  0  0
   -1.8039    1.9320    5.7210 O   0  0  0  0  0  0  0  0  0  0  0  0
   -1.4934    0.8883    3.7533 O   0  0  0  0  0  0  0  0  0  0  0  0
   -2.7972    8.7567   -0.5106 O   0  0  0  0  0  0  0  0  0  0  0  0
   -4.6781    9.9381   -0.2502 O   0  0  0  0  0  0  0  0  0  0  0  0
    0.8118    5.4659   -0.2712 O   0  0  0  0  0  0  0  0  0  0  0  0
   -4.6008    3.2014    1.9419 N   0  0  0  0  0  0  0  0  0  0  0  0
   -4.1828    6.4112   -0.1666 N   0  0  0  0  0  0  0  0  0  0  0  0
   -4.1519    4.4264    1.3644 C   0  0  2  0  0  0  0  0  0  0  0  0
   -4.8450    5.0936    0.1113 C   0  0  1  0  0  0  0  0  0  0  0  0
   -2.5419    3.0988    3.7143 C   0  0  2  0  0  0  0  0  0  0  0  0
   -3.8952    2.5355    2.9340 C   0  0  0  0  0  0  0  0  0  0  0  0
   -4.5352    5.3978    2.7428 C   0  0  0  0  0  0  0  0  0  0  0  0
   -7.0202    6.1114    0.2688 C   0  0  0  0  0  0  0  0  0  0  0  0
   -6.3724    7.4404   -0.0040 C   0  0  0  0  0  0  0  0  0  0  0  0
   -4.8963    7.4824   -0.2524 C   0  0  0  0  0  0  0  0  0  0  0  0
   -1.3911    3.9542    2.9809 C   0  0  0  0  0  0  0  0  0  0  0  0
   -2.4045    2.7858    0.5133 C   0  0  0  0  0  0  0  0  0  0  0  0
   -1.9238    1.8547    4.3723 C   0  0  0  0  0  0  0  0  0  0  0  0
   -0.1288    3.4131    2.6586 C   0  0  0  0  0  0  0  0  0  0  0  0
   -1.5968    5.2324    2.4256 C   0  0  0  0  0  0  0  0  0  0  0  0
   -4.1233    8.8466   -0.3676 C   0  0  0  0  0  0  0  0  0  0  0  0
   -7.1143    8.5239    0.2618 C   0  0  0  0  0  0  0  0  0  0  0  0
    0.6979    3.9753    1.6468 C   0  0  0  0  0  0  0  0  0  0  0  0
   -0.9168    5.6573    1.2673 C   0  0  0  0  0  0  0  0  0  0  0  0
    0.2372    5.0336    0.8814 C   0  0  0  0  0  0  0  0  0  0  0  0
  1 14  1  0
  1 18  1  0
  2 22  1  0
  3 17  1  0
  4 16  2  0
  5 17  2  0
  6 23  1  0
  7 23  2  0
  8 26  1  0
  9 26  2  0
 10 30  1  0
 11 16  1  0
 14 12  1  1
 12 20  2  0
 13 14  1  0
 13 17  1  0
 13 11  1  1
 13  2  1  0
 15 23  1  6
 15 21  1  0
 15 16  1  0
 18 19  1  0
 19 20  1  0
 19 27  2  0
 20 26  1  0
 21 24  2  0
 21 25  1  0
 24 28  1  0
 25 29  2  0
 28 30  2  0
 29 30  1  0
M  END
>  <DRUGBANK_ID>  (1) 
DB04740

>  <COMMON_NAME>  (1) 
Moxalactam (hydrolyzed)

$$$$
