
     RDKit          3D

 18 19  0  0  0  0  0  0  0  0999 V2000
   -0.8141   -0.0435    1.3422 O   0  0  0  0  0  0  0  0  0  0  0  0
    1.1662   -1.2449    1.3155 O   0  0  0  0  0  0  0  0  0  0  0  0
    0.8779    2.5393    1.0324 O   0  0  0  0  0  0  0  0  0  0  0  0
    3.1180    2.0691    2.9476 O   0  0  0  0  0  0  0  0  0  0  0  0
    4.6091   -0.4448    2.4235 O   0  0  0  0  0  0  0  0  0  0  0  0
   -1.6618   -1.8538    4.5314 O   0  0  0  0  0  0  0  0  0  0  0  0
    1.1396   -2.8997    3.5194 O   0  0  0  0  0  0  0  0  0  0  0  0
    0.8316   -0.9523    4.6831 N   0  0  0  0  0  0  0  0  0  0  0  0
    1.2498    1.2646    1.5664 C   0  0  1  0  0  0  0  0  0  0  0  0
    0.5860    0.0010    0.9749 C   0  0  2  0  0  0  0  0  0  0  0  0
    2.7496    1.1072    1.9350 C   0  0  2  0  0  0  0  0  0  0  0  0
   -1.2355   -0.3135    2.7062 C   0  0  2  0  0  0  0  0  0  0  0  0
    3.1869   -0.3216    2.3607 C   0  0  1  0  0  0  0  0  0  0  0  0
   -0.8627    0.7164    3.8012 C   0  0  0  0  0  0  0  0  0  0  0  0
   -0.9715   -1.7227    3.2550 C   0  0  1  0  0  0  0  0  0  0  0  0
    2.5794   -1.3478    1.4138 C   0  0  0  0  0  0  0  0  0  0  0  0
    0.5265    0.4291    4.3968 C   0  0  0  0  0  0  0  0  0  0  0  0
    0.4522   -1.9345    3.7500 C   0  0  0  0  0  0  0  0  0  0  0  0
  2 10  1  0
  2 16  1  0
  7 18  2  0
  8 17  1  0
  8 18  1  0
  9  3  1  6
  9 10  1  0
  9 11  1  0
 10  1  1  1
 11  4  1  1
 11 13  1  0
 12  1  1  6
 12 14  1  0
 12 15  1  0
 13  5  1  6
 13 16  1  0
 14 17  1  0
 15  6  1  1
 15 18  1  0
M  END
>  <DRUGBANK_ID>  (1) 
DB03717

>  <SECONDARY_ACCESSION_NUMBERS>  (1) 
EXPT03258

>  <COMMON_NAME>  (1) 
3-Hydroxy-4-(3,4,5-trihydroxy-tetrahydro-pyran-2-yloxy)-piperidin-2-one

>  <CAS_NUMBER>  (1) 
284045-95-0

$$$$
