
     RDKit          3D

 10 10  0  0  0  0  0  0  0  0999 V2000
    2.4299   -0.0004    0.0551 C   0  0  0  0  0  0  0  0  0  0  0  0
    0.3396   -1.2053    0.2532 C   0  0  0  0  0  0  0  0  0  0  0  0
    0.3296    1.1926    0.2511 C   0  0  0  0  0  0  0  0  0  0  0  0
   -1.1396   -1.2500   -0.1742 C   0  0  0  0  0  0  0  0  0  0  0  0
   -1.1623    1.2185   -0.1452 C   0  0  0  0  0  0  0  0  0  0  0  0
   -3.0891   -0.0073    0.7785 C   0  0  0  0  0  0  0  0  0  0  0  0
    1.0114   -0.0046   -0.2889 N   0  0  0  0  0  0  0  0  0  0  0  0
   -1.8387   -0.0265    0.2229 N   0  0  0  0  0  0  0  0  0  0  0  0
   -3.7422    0.9798    1.0819 O   0  0  0  0  0  0  0  0  0  0  0  0
   -3.5963   -1.2327    1.0118 O   0  0  0  0  0  0  0  0  0  0  0  0
  4  2  1  0
  5  3  1  0
  7  1  1  0
  7  2  1  0
  7  3  1  0
  8  4  1  0
  8  5  1  0
  8  6  1  0
  9  6  2  0
 10  6  1  0
M  END
>  <DRUGBANK_ID>  (1) 
DB04451

>  <SECONDARY_ACCESSION_NUMBERS>  (1) 
EXPT02419

>  <COMMON_NAME>  (1) 
4-Methylpiperazin-1-Yl Carbonyl Group

$$$$
