5502
     RDKit          3D

 28 30  0  0  1  0  0  0  0  0999 V2000
    1.0186    0.0114    0.1632 O   0  0  0  0  0  0  0  0  0  0  0  0
   -1.1265   -1.0647   -1.5318 O   0  0  0  0  0  0  0  0  0  0  0  0
   -3.2690   -5.3491   -3.1324 O   0  0  0  0  0  0  0  0  0  0  0  0
   -5.8446   -5.2860   -2.4843 O   0  0  0  0  0  0  0  0  0  0  0  0
   -1.1628   -5.5254    3.6587 N   0  0  0  0  0  0  0  0  0  0  0  0
   -1.9872   -5.4254    2.5890 N   0  0  0  0  0  0  0  0  0  0  0  0
    0.2977   -3.4559    3.4707 C   0  0  0  0  0  0  0  0  0  0  0  0
   -0.0487   -3.0127    2.0543 C   0  0  0  0  0  0  0  0  0  0  0  0
   -0.1219   -2.2796    4.3962 C   0  0  0  0  0  0  0  0  0  0  0  0
   -1.0902   -3.4679    1.2526 C   0  0  0  0  0  0  0  0  0  0  0  0
   -0.2014   -4.7697    4.0394 C   0  0  0  0  0  0  0  0  0  0  0  0
    0.6880   -1.8741    1.5943 C   0  0  0  0  0  0  0  0  0  0  0  0
   -1.9607   -4.6496    1.5655 C   0  0  0  0  0  0  0  0  0  0  0  0
   -1.3905   -2.7138    0.0788 C   0  0  0  0  0  0  0  0  0  0  0  0
    0.3115   -2.3899    5.8398 C   0  0  0  0  0  0  0  0  0  0  0  0
    0.3899   -1.1733    0.4229 C   0  0  0  0  0  0  0  0  0  0  0  0
   -0.6682   -1.5978   -0.3560 C   0  0  0  0  0  0  0  0  0  0  0  0
    0.5292   -5.3492    5.2760 C   0  0  0  0  0  0  0  0  0  0  0  0
   -2.9966   -5.0355    0.5390 C   0  0  0  0  0  0  0  0  0  0  0  0
   -2.6147   -5.3201   -0.7783 C   0  0  0  0  0  0  0  0  0  0  0  0
   -4.3432   -5.0187    0.8911 C   0  0  0  0  0  0  0  0  0  0  0  0
   -3.5767   -5.3351   -1.7923 C   0  0  0  0  0  0  0  0  0  0  0  0
   -5.3108   -5.2060   -0.0958 C   0  0  0  0  0  0  0  0  0  0  0  0
   -4.9431   -5.2817   -1.4469 C   0  0  0  0  0  0  0  0  0  0  0  0
    2.4285   -0.1054    0.0203 C   0  0  0  0  0  0  0  0  0  0  0  0
   -0.4457    0.0794   -2.0298 C   0  0  0  0  0  0  0  0  0  0  0  0
   -1.8894   -5.2888   -3.4825 C   0  0  0  0  0  0  0  0  0  0  0  0
   -7.2230   -5.2095   -2.1391 C   0  0  0  0  0  0  0  0  0  0  0  0
  1 16  1  0
  1 25  1  0
  2 17  1  0
  2 26  1  0
  3 22  1  0
  3 27  1  0
  4 24  1  0
  4 28  1  0
  5  6  1  0
  5 11  2  0
  6 13  2  0
  7  8  1  0
  7  9  1  0
  7 11  1  0
  8 10  2  0
  8 12  1  0
  9 15  1  0
 10 13  1  0
 10 14  1  0
 11 18  1  0
 12 16  2  0
 13 19  1  0
 14 17  2  0
 16 17  1  0
 19 20  2  0
 19 21  1  0
 20 22  1  0
 21 23  2  0
 22 24  2  0
 23 24  1  0
M  END
>  <DRUGBANK_ID>  (1) 
DB08811

>  <COMMON_NAME>  (1) 
Tofisopam

>  <CAS_NUMBER>  (1) 
22345-47-7

>  <UNII>  (1) 
UZC80HAU42

>  <SYNONYMS>  (1) 
Tofisopam; Tofisopamum

$$$$
