
     RDKit          3D

 20 20  0  0  0  0  0  0  0  0999 V2000
    0.9326    0.3780   -0.3018 O   0  0  0  0  0  0  0  0  0  0  0  0
   -1.9455   -1.6745   -0.1436 O   0  0  0  0  0  0  0  0  0  0  0  0
    0.6908    2.6728    0.0853 O   0  0  0  0  0  0  0  0  0  0  0  0
    8.5805   -1.0255    0.1582 O   0  0  0  0  0  0  0  0  0  0  0  0
   -0.4621   -0.8047    1.3663 O   0  0  0  0  0  0  0  0  0  0  0  0
   -2.1435   -2.0817    2.0129 O   0  0  0  0  0  0  0  0  0  0  0  0
    6.5184   -0.1235    0.2081 N   0  0  0  0  0  0  0  0  0  0  0  0
   -1.4594   -1.5039    1.1823 N   0  0  0  0  0  0  0  0  0  0  0  0
   -1.7813    0.5200   -1.3022 C   0  0  0  0  0  0  0  0  0  0  0  0
   -1.2945    1.3830   -0.1568 C   0  0  0  0  0  0  0  0  0  0  0  0
   -1.3432   -0.9457   -1.2098 C   0  0  0  0  0  0  0  0  0  0  0  0
    0.2101    1.5643   -0.1119 C   0  0  0  0  0  0  0  0  0  0  0  0
    2.3308    0.2429   -0.1623 C   0  0  0  0  0  0  0  0  0  0  0  0
    5.1111   -0.0456    0.1620 C   0  0  0  0  0  0  0  0  0  0  0  0
    3.1597    1.3502   -0.0774 C   0  0  0  0  0  0  0  0  0  0  0  0
    2.8770   -1.0285   -0.0747 C   0  0  0  0  0  0  0  0  0  0  0  0
    4.5367    1.2180    0.0771 C   0  0  0  0  0  0  0  0  0  0  0  0
    4.2479   -1.1461    0.1545 C   0  0  0  0  0  0  0  0  0  0  0  0
    7.3618   -1.2042    0.1949 C   0  0  0  0  0  0  0  0  0  0  0  0
    6.8002   -2.5952    0.2268 C   0  0  0  0  0  0  0  0  0  0  0  0
  1 12  1  0
  1 13  1  0
  2  8  1  0
  2 11  1  0
  3 12  2  0
  4 19  2  0
  5  8  1  0
  6  8  2  0
  7 14  1  0
  7 19  1  0
  9 10  1  0
  9 11  1  0
 10 12  1  0
 13 15  2  0
 13 16  1  0
 14 17  2  0
 14 18  1  0
 15 17  1  0
 16 18  2  0
 19 20  1  0
M  CHG  2   5  -1   8   1
M  END
>  <DRUGBANK_ID>  (1) 
DB05409

>  <COMMON_NAME>  (1) 
NCX 701

>  <UNII>  (1) 
F8Y1ZV5V9P

$$$$
