786
     RDKit          3D

 23 22  0  0  1  0  0  0  0  0999 V2000
    0.9546    0.3069   -0.1187 O   0  0  0  0  0  0  0  0  0  0  0  0
   -0.2779   -2.1454   -3.7961 O   0  0  0  0  0  0  0  0  0  0  0  0
    3.8546   -4.8929   -0.9790 O   0  0  0  0  0  0  0  0  0  0  0  0
    0.6117   -2.4754    1.4823 O   0  0  0  0  0  0  0  0  0  0  0  0
    3.5517   -0.9832    0.6354 O   0  0  0  0  0  0  0  0  0  0  0  0
    0.5172   -3.6937   -2.3841 N   0  0  0  0  0  0  0  0  0  0  0  0
    2.8788   -6.2124   -2.4805 N   0  0  0  0  0  0  0  0  0  0  0  0
    2.6497   -2.0283    0.8047 N   0  0  0  0  0  0  0  0  0  0  0  0
    0.5858   -4.9804   -0.1505 C   0  0  0  0  0  0  0  0  0  0  0  0
    1.3763   -4.3453   -1.3149 C   0  0  1  0  0  0  0  0  0  0  0  0
    1.0723   -1.1752   -2.0229 C   0  0  1  0  0  0  0  0  0  0  0  0
    2.5847   -0.9137   -2.4126 C   0  0  0  0  0  0  0  0  0  0  0  0
    3.4539   -2.1574   -2.2310 C   0  0  0  0  0  0  0  0  0  0  0  0
    0.3418   -2.3599   -2.7429 C   0  0  0  0  0  0  0  0  0  0  0  0
    0.2048   -6.3658   -0.6205 C   0  0  0  0  0  0  0  0  0  0  0  0
    1.5597   -5.2086    1.0614 C   0  0  0  0  0  0  0  0  0  0  0  0
   -0.7887   -4.2916    0.1055 C   0  0  0  0  0  0  0  0  0  0  0  0
    0.6982   -1.0415   -0.5183 C   0  0  1  0  0  0  0  0  0  0  0  0
    2.8083   -5.1877   -1.5708 C   0  0  0  0  0  0  0  0  0  0  0  0
    3.1485   -3.0554   -3.4193 C   0  0  0  0  0  0  0  0  0  0  0  0
    4.9220   -2.0892   -1.8505 C   0  0  0  0  0  0  0  0  0  0  0  0
    1.3246   -1.8893    0.6266 C   0  0  0  0  0  0  0  0  0  0  0  0
    1.7398   -6.7637   -3.1318 C   0  0  0  0  0  0  0  0  0  0  0  0
  2 14  2  0
  3 19  2  0
  4 22  2  0
  5  8  1  0
  6 14  1  0
  7 19  1  0
  7 23  1  0
  8 22  1  0
  9 10  1  0
  9 15  1  0
  9 16  1  0
  9 17  1  0
 10  6  1  6
 10 19  1  0
 11 12  1  1
 11 14  1  0
 11 18  1  0
 12 13  1  0
 13 20  1  0
 13 21  1  0
 18  1  1  1
 18 22  1  0
M  END
>  <DRUGBANK_ID>  (1) 
DB00786

>  <SECONDARY_ACCESSION_NUMBERS>  (1) 
APRD00559

>  <COMMON_NAME>  (1) 
Marimastat

>  <CAS_NUMBER>  (1) 
154039-60-8

>  <UNII>  (1) 
D5EQV23TDS

>  <SYNONYMS>  (1) 
Marimastat

$$$$
