1403
     RDKit          3D

 23 25  0  0  1  0  0  0  0  0999 V2000
    3.5405   -1.0617   -0.4745 C   0  0  0  0  0  0  0  0  0  0  0  0
    3.6446    0.3056   -0.7431 C   0  0  0  0  0  0  0  0  0  0  0  0
    2.5809    1.1683   -0.4600 C   0  0  0  0  0  0  0  0  0  0  0  0
    2.3645   -1.5661    0.0530 C   0  0  0  0  0  0  0  0  0  0  0  0
    1.2775   -0.7150    0.3015 C   0  0  0  0  0  0  0  0  0  0  0  0
    1.3941    0.6682    0.0602 C   0  0  0  0  0  0  0  0  0  0  0  0
    0.0116    1.7638    0.3949 S   0  0  0  0  0  0  0  0  0  0  0  0
    0.0264   -1.2723    0.6521 N   0  0  0  0  0  0  0  0  0  0  0  0
   -1.1386   -0.7453    0.0608 C   0  0  0  0  0  0  0  0  0  0  0  0
   -1.3300    0.6520   -0.0280 C   0  0  0  0  0  0  0  0  0  0  0  0
   -2.5455    1.1659   -0.4837 C   0  0  0  0  0  0  0  0  0  0  0  0
   -3.5987    0.3131   -0.8371 C   0  0  0  0  0  0  0  0  0  0  0  0
   -3.3881   -1.0707   -0.8760 C   0  0  0  0  0  0  0  0  0  0  0  0
   -2.1181   -1.5447   -0.5713 C   0  0  0  0  0  0  0  0  0  0  0  0
    0.1185   -2.0415    1.9518 C   0  0  0  0  0  0  0  0  0  0  0  0
   -0.7252   -1.5972    3.1850 C   0  0  1  0  0  0  0  0  0  0  0  0
   -2.2291   -1.3898    2.9683 C   0  0  0  0  0  0  0  0  0  0  0  0
   -0.5945   -2.5838    4.3733 C   0  0  0  0  0  0  0  0  0  0  0  0
   -3.0340   -2.6196    2.7635 N   0  0  0  0  0  0  0  0  0  0  0  0
   -4.3729   -2.2010    2.3548 C   0  0  0  0  0  0  0  0  0  0  0  0
   -2.4277   -3.5393    1.8128 C   0  0  0  0  0  0  0  0  0  0  0  0
   -4.4927   -1.8277   -1.1822 O   0  0  0  0  0  0  0  0  0  0  0  0
   -4.4667   -3.2271   -0.8979 C   0  0  0  0  0  0  0  0  0  0  0  0
  1  2  2  0
  2  3  1  0
  3  6  2  0
  4  1  1  0
  5  6  1  0
  5  4  2  0
  6  7  1  0
  7 10  1  0
  8 15  1  0
  8  5  1  0
  9  8  1  0
  9 10  2  0
 10 11  1  0
 11 12  2  0
 12 13  1  0
 13 14  2  0
 13 22  1  0
 14  9  1  0
 15 16  1  0
 16 17  1  0
 16 18  1  1
 17 19  1  0
 19 20  1  0
 19 21  1  0
 22 23  1  0
M  END
>  <DRUGBANK_ID>  (1) 
DB01403

>  <COMMON_NAME>  (1) 
Methotrimeprazine

>  <CAS_NUMBER>  (1) 
60-99-1

>  <UNII>  (1) 
9G0LAW7ATQ

>  <SYNONYMS>  (1) 
(-)-(2R)-3-(2-methoxy-10H-phenothiazin-10-yl)-N,N,2-trimethylpropan-1-amine; (-)-10-(3-(Dimethylamino)-2-methylpropyl)-2-methoxyphenothiazine; 2-Methoxytrimeprazine; Levomepromazina; Levomepromazine; Lévomépromazine; Levomepromazinum; Methotrimeprazine

$$$$
