
     RDKit          3D

 22 23  0  0  0  0  0  0  0  0999 V2000
   -0.6079    1.0989    0.1853 C   0  0  0  0  0  0  0  0  0  0  0  0
   -1.3819    0.0184    0.0604 C   0  0  0  0  0  0  0  0  0  0  0  0
    0.7785    1.0540    0.1330 N   0  0  0  0  0  0  0  0  0  0  0  0
    1.4052   -0.1708    0.0072 C   0  0  0  0  0  0  0  0  0  0  0  0
    0.6647   -1.3184   -0.0134 N   0  0  0  0  0  0  0  0  0  0  0  0
   -0.6374   -1.2559    0.0015 C   0  0  0  0  0  0  0  0  0  0  0  0
    1.6548    2.2339    0.0904 C   0  0  2  0  0  0  0  0  0  0  0  0
    1.3382    3.1396    1.1673 O   0  0  0  0  0  0  0  0  0  0  0  0
    1.3082    4.5119    0.6879 C   0  0  1  0  0  0  0  0  0  0  0  0
    2.0228    4.4133   -0.7794 C   0  0  2  0  0  0  0  0  0  0  0  0
    2.6549   -0.2274   -0.0601 O   0  0  0  0  0  0  0  0  0  0  0  0
   -1.1929    2.9476   -1.6794 O   0  0  0  0  0  0  0  0  0  0  0  0
   -0.9200    4.3888   -1.3930 P   0  0  0  0  0  0  0  0  0  0  0  0
   -1.2485    4.2647    0.3010 O   0  0  0  0  0  0  0  0  0  0  0  0
   -0.2180    4.9511    1.0559 C   0  0  0  0  0  0  0  0  0  0  0  0
    1.6733    3.0007   -1.2212 C   0  0  1  0  0  0  0  0  0  0  0  0
    2.3326    2.5542   -2.3840 O   0  0  0  0  0  0  0  0  0  0  0  0
   -1.3090   -2.4414   -0.0162 N   0  0  0  0  0  0  0  0  0  0  0  0
    3.4188    4.7155   -0.7532 O   0  0  0  0  0  0  0  0  0  0  0  0
    0.1429    5.5254   -1.2094 O   0  0  0  0  0  0  0  0  0  0  0  0
   -2.8802    0.0238    0.0084 C   0  0  0  0  0  0  0  0  0  0  0  0
   -0.5915    4.5128   -3.0869 O   0  0  0  0  0  0  0  0  0  0  0  0
  1  2  2  0
  2  6  1  0
  2 21  1  0
  3  1  1  0
  3  4  1  0
  4 11  2  0
  4  5  1  0
  5  6  2  0
  6 18  1  0
  7  3  1  6
  7  8  1  0
  7 16  1  0
  8  9  1  0
  9 10  1  0
  9 15  1  6
 10 19  1  1
 13 12  2  0
 13 14  1  0
 13 22  1  0
 15 14  1  0
 16 10  1  0
 16 17  1  6
 20 13  1  0
M  END
>  <DRUGBANK_ID>  (1) 
DB01995

>  <SECONDARY_ACCESSION_NUMBERS>  (1) 
EXPT00251

>  <COMMON_NAME>  (1) 
5-methylcytidine 5'-monophosphate

>  <CAS_NUMBER>  (1) 
3590-36-1

>  <SYNONYMS>  (1) 
5-methyl-CMP; 5-methylcytidine-5'-monophosphate; 5-methylcytidylic acid

$$$$
