
     RDKit          3D

 29 32  0  0  0  0  0  0  0  0999 V2000
    0.9013   -0.1073   -0.1366 N   0  0  0  0  0  0  0  0  0  0  0  0
    0.2351    0.2098   -1.2940 C   0  0  0  0  0  0  0  0  0  0  0  0
   -0.8227    1.0101   -1.1797 N   0  0  0  0  0  0  0  0  0  0  0  0
   -1.3970    1.4109   -2.3217 C   0  0  0  0  0  0  0  0  0  0  0  0
   -1.0142    0.8934   -3.5605 C   0  0  0  0  0  0  0  0  0  0  0  0
    0.0514   -0.0085   -3.5528 C   0  0  0  0  0  0  0  0  0  0  0  0
    0.6189   -0.4680   -4.7429 N   0  0  0  0  0  0  0  0  0  0  0  0
    0.7154   -0.3044   -2.4257 N   0  0  0  0  0  0  0  0  0  0  0  0
   -1.6704    1.3377   -4.7252 C   0  0  0  0  0  0  0  0  0  0  0  0
   -1.5158    0.5960   -5.8651 O   0  0  0  0  0  0  0  0  0  0  0  0
   -2.2765    0.9597   -7.0196 C   0  0  0  0  0  0  0  0  0  0  0  0
   -3.8176    0.8675   -6.7937 C   0  0  0  0  0  0  0  0  0  0  0  0
   -4.4510   -0.2528   -7.6190 C   0  0  0  0  0  0  0  0  0  0  0  0
   -4.4315    0.1345   -9.0777 C   0  0  0  0  0  0  0  0  0  0  0  0
   -5.0163    1.4240   -9.4297 N   0  0  0  0  0  0  0  0  0  0  0  0
   -4.9051    1.6746  -10.8821 C   0  0  0  0  0  0  0  0  0  0  0  0
   -3.4939    1.8394  -11.4312 C   0  0  0  0  0  0  0  0  0  0  0  0
   -2.5635    0.7723  -11.5198 C   0  0  0  0  0  0  0  0  0  0  0  0
   -2.9497   -0.9238  -11.4473 Cl  0  0  0  0  0  0  0  0  0  0  0  0
   -1.2339    0.9931  -11.8575 C   0  0  0  0  0  0  0  0  0  0  0  0
   -0.9004    2.1699  -12.4928 C   0  0  0  0  0  0  0  0  0  0  0  0
   -1.7938    3.2327  -12.4796 C   0  0  0  0  0  0  0  0  0  0  0  0
   -3.0424    3.1009  -11.8659 C   0  0  0  0  0  0  0  0  0  0  0  0
   -3.9737    4.5532  -11.7182 Cl  0  0  0  0  0  0  0  0  0  0  0  0
   -4.4176    2.5056   -8.6573 C   0  0  0  0  0  0  0  0  0  0  0  0
   -4.5357    2.1859   -7.1774 C   0  0  0  0  0  0  0  0  0  0  0  0
   -2.4347    2.4873   -4.6418 C   0  0  0  0  0  0  0  0  0  0  0  0
   -2.8002    3.0307   -3.4282 C   0  0  0  0  0  0  0  0  0  0  0  0
   -2.3540    2.4165   -2.2665 C   0  0  0  0  0  0  0  0  0  0  0  0
  1  2  1  0
  2  3  2  0
  2  8  1  0
  3  4  1  0
  4  5  2  0
  4 29  1  0
  5  6  1  0
  5  9  1  0
  6  7  1  0
  6  8  2  0
  9 10  1  0
  9 27  2  0
 10 11  1  0
 11 12  1  0
 12 13  1  0
 12 26  1  0
 13 14  1  0
 14 15  1  0
 15 16  1  0
 15 25  1  0
 16 17  1  0
 17 18  2  0
 17 23  1  0
 18 19  1  0
 18 20  1  0
 20 21  2  0
 21 22  1  0
 22 23  2  0
 23 24  1  0
 25 26  1  0
 27 28  1  0
 28 29  2  0
M  END
>  <DRUGBANK_ID>  (1) 
DB16938

>  <COMMON_NAME>  (1) 
D-157495

>  <CAS_NUMBER>  (1) 
1005504-62-0

>  <UNII>  (1) 
KSV93L7URW

>  <SYNONYMS>  (1) 
2,4-quinazolinediamine, 5-((1-((2,6-dichlorophenyl)methyl)-4-piperidinyl)methoxy)-; 5-(1-(2,6-dichlorobenzyl)-piperidin-4-yl)methoxyquinazoline-2,4-diamine; 5-[1-(2,6-Dichlorobenzyl)-Piperidin-4-yl]Methoxyquinazoline-2,4-Diamine; RG-3039; RG3039

$$$$
