
     RDKit          3D

 29 31  0  0  1  0  0  0  0  0999 V2000
   -4.0193   -1.2674   -2.3858 C   0  0  0  0  0  0  0  0  0  0  0  0
   -4.0789   -0.2859   -3.3746 C   0  0  0  0  0  0  0  0  0  0  0  0
   -3.3382   -0.9706   -1.2385 C   0  0  0  0  0  0  0  0  0  0  0  0
   -3.6239    1.0345   -3.1532 C   0  0  0  0  0  0  0  0  0  0  0  0
   -2.7964    0.3073   -1.1068 C   0  0  0  0  0  0  0  0  0  0  0  0
   -2.5546    2.7100   -1.4951 C   0  0  0  0  0  0  0  0  0  0  0  0
   -3.1733    3.2977   -0.1815 C   0  0  0  0  0  0  0  0  0  0  0  0
    0.4425    2.5101   -0.0722 C   0  0  0  0  0  0  0  0  0  0  0  0
   -0.1402    3.3772    0.8747 C   0  0  0  0  0  0  0  0  0  0  0  0
    1.8166    0.4085   -0.2621 C   0  0  0  0  0  0  0  0  0  0  0  0
   -3.7989    1.2239    1.4603 C   0  0  0  0  0  0  0  0  0  0  0  0
    3.8436    0.6409    1.2073 C   0  0  0  0  0  0  0  0  0  0  0  0
   -3.0589    1.3699   -1.9445 C   0  0  0  0  0  0  0  0  0  0  0  0
   -2.9643    2.4864    1.1777 C   0  0  2  0  0  0  0  0  0  0  0  0
    0.9838    1.3886    0.4978 C   0  0  0  0  0  0  0  0  0  0  0  0
   -0.1551    2.8364    2.1423 C   0  0  0  0  0  0  0  0  0  0  0  0
   -0.8935    3.3602    3.2706 C   0  0  0  0  0  0  0  0  0  0  0  0
   -3.1487    3.4147    2.3760 C   0  0  0  0  0  0  0  0  0  0  0  0
   -0.0234    3.7690    4.4828 C   0  0  0  0  0  0  0  0  0  0  0  0
    5.0626    1.0928    1.0466 N   0  0  0  0  0  0  0  0  0  0  0  0
   -2.1675    3.6233    3.3212 N   0  0  0  0  0  0  0  0  0  0  0  0
    5.1646    1.4282   -0.2840 N   0  0  0  0  0  0  0  0  0  0  0  0
    4.0254    1.1967   -0.9245 N   0  0  0  0  0  0  0  0  0  0  0  0
    3.2061    0.6875    0.0091 N   0  0  0  0  0  0  0  0  0  0  0  0
   -4.2669    3.9149    2.5256 O   0  0  0  0  0  0  0  0  0  0  0  0
   -0.4343    4.3949    5.4622 O   0  0  0  0  0  0  0  0  0  0  0  0
    1.2645    3.4432    4.3611 O   0  0  0  0  0  0  0  0  0  0  0  0
   -2.7855   -0.3291    1.9987 S   0  0  0  0  0  0  0  0  0  0  0  0
    0.6603    1.3243    2.1808 S   0  0  0  0  0  0  0  0  0  0  0  0
  2  1  2  0
  3  1  1  0
  4  2  1  0
  5  3  2  0
  7  6  1  0
  9  8  1  0
 13  4  2  0
 13  5  1  0
 13  6  1  0
 14 18  1  0
 14 11  1  1
 14  7  1  0
 15  8  2  0
 15 10  1  0
 16  9  2  0
 17 16  1  0
 19 17  1  0
 20 12  2  0
 21 17  2  3
 21 18  1  0
 22 20  1  0
 23 22  2  0
 24 10  1  0
 24 12  1  0
 24 23  1  0
 25 18  2  0
 26 19  2  0
 27 19  1  0
 28 11  1  0
 29 15  1  0
 29 16  1  0
M  END
>  <DRUGBANK_ID>  (1) 
DB02706

>  <SECONDARY_ACCESSION_NUMBERS>  (1) 
EXPT02134

>  <COMMON_NAME>  (1) 
Mercaptocarboxylate Inhibitor

$$$$
