
     RDKit          3D

 26 27  0  0  0  0  0  0  0  0999 V2000
    1.0992   -0.0829    0.1021 O   0  0  0  0  0  0  0  0  0  0  0  0
   -5.8629    7.5227    7.0755 O   0  0  0  0  0  0  0  0  0  0  0  0
    3.0666   -0.7803   -0.7908 O   0  0  0  0  0  0  0  0  0  0  0  0
   -5.5829    9.3641    5.6214 O   0  0  0  0  0  0  0  0  0  0  0  0
   -1.6568    3.9774    3.0954 C   0  0  0  0  0  0  0  0  0  0  0  0
   -2.8215    3.7244    4.0879 C   0  0  0  0  0  0  0  0  0  0  0  0
   -1.0909    2.9167    2.1407 C   0  0  0  0  0  0  0  0  0  0  0  0
   -3.4599    4.7858    4.9295 C   0  0  0  0  0  0  0  0  0  0  0  0
   -0.1339    3.2096    1.1738 C   0  0  0  0  0  0  0  0  0  0  0  0
   -3.8227    5.9939    4.3556 C   0  0  0  0  0  0  0  0  0  0  0  0
   -1.4620    1.5660    2.0990 C   0  0  0  0  0  0  0  0  0  0  0  0
   -3.8507    4.5458    6.2653 C   0  0  0  0  0  0  0  0  0  0  0  0
    0.3834    0.9142    0.7582 C   0  0  0  0  0  0  0  0  0  0  0  0
   -5.0704    6.6154    6.3320 C   0  0  0  0  0  0  0  0  0  0  0  0
   -1.0710    5.2173    3.1300 C   0  0  0  0  0  0  0  0  0  0  0  0
   -3.4284    2.5242    4.2547 C   0  0  0  0  0  0  0  0  0  0  0  0
    0.6044    2.2470    0.5027 C   0  0  0  0  0  0  0  0  0  0  0  0
   -4.5722    6.9117    5.0670 C   0  0  0  0  0  0  0  0  0  0  0  0
   -0.6947    0.5523    1.5228 C   0  0  0  0  0  0  0  0  0  0  0  0
   -4.7626    5.3878    6.9116 C   0  0  0  0  0  0  0  0  0  0  0  0
    2.4790   -0.0215   -0.0223 C   0  0  0  0  0  0  0  0  0  0  0  0
   -6.0151    8.8435    6.6581 C   0  0  0  0  0  0  0  0  0  0  0  0
    0.0687    5.9050    2.4205 C   0  0  0  0  0  0  0  0  0  0  0  0
   -4.6625    2.0514    4.9648 C   0  0  0  0  0  0  0  0  0  0  0  0
    3.2171    0.9655    0.8482 C   0  0  0  0  0  0  0  0  0  0  0  0
   -6.7776    9.6630    7.6318 C   0  0  0  0  0  0  0  0  0  0  0  0
  1 13  1  0
  1 21  1  0
  2 14  1  0
  2 22  1  0
  3 21  2  0
  4 22  2  0
  5  6  1  0
  5  7  1  0
  5 15  2  0
  6  8  1  0
  6 16  2  0
  7  9  2  0
  7 11  1  0
  8 10  2  0
  8 12  1  0
  9 17  1  0
 10 18  1  0
 11 19  2  0
 12 20  2  0
 13 17  2  0
 13 19  1  0
 14 18  2  0
 14 20  1  0
 15 23  1  0
 16 24  1  0
 21 25  1  0
 22 26  1  0
M  END
>  <DRUGBANK_ID>  (1) 
DB14668

>  <SECONDARY_ACCESSION_NUMBERS>  (1) 
DBSALT002243

>  <COMMON_NAME>  (1) 
Dienestrol diacetate

>  <CAS_NUMBER>  (1) 
24705-61-1

>  <UNII>  (1) 
D20D148WPQ

>  <SYNONYMS>  (1) 
Dienestrol acetate; Lipamone

$$$$
