
     RDKit          3D

 34 37  0  0  0  0  0  0  0  0999 V2000
    1.6343    8.1742   -0.6641 C   0  0  1  0  0  0  0  0  0  0  0  0
    3.1547    8.2548   -0.9096 C   0  0  1  0  0  0  0  0  0  0  0  0
    6.1986    7.6545   -0.9264 C   0  0  2  0  0  0  0  0  0  0  0  0
    0.9607    8.7054   -1.9181 C   0  0  0  0  0  0  0  0  0  0  0  0
    5.7350    8.6459   -2.0039 C   0  0  1  0  0  0  0  0  0  0  0  0
    4.2242    9.4051   -1.4148 C   0  0  1  0  0  0  0  0  0  0  0  0
    3.5775    7.1608    0.0205 C   0  0  2  0  0  0  0  0  0  0  0  0
    7.2840    6.7275   -1.5790 C   0  0  2  0  0  0  0  0  0  0  0  0
    1.4966    6.6312   -0.9822 C   0  0  0  0  0  0  0  0  0  0  0  0
    4.7979    6.7736   -0.7572 C   0  0  0  0  0  0  0  0  0  0  0  0
    7.1375    8.8399   -2.8283 C   0  0  0  0  0  0  0  0  0  0  0  0
    8.1981    7.8141   -2.2334 C   0  0  1  0  0  0  0  0  0  0  0  0
    3.3403    9.9937   -2.5537 C   0  0  0  0  0  0  0  0  0  0  0  0
    1.7842   10.0680   -2.1790 C   0  0  2  0  0  0  0  0  0  0  0  0
    0.3064    7.6794   -2.6556 C   0  0  0  0  0  0  0  0  0  0  0  0
    4.5701    4.9473    1.2271 C   0  0  0  0  0  0  0  0  0  0  0  0
    0.4685    5.8974   -0.6335 C   0  0  0  0  0  0  0  0  0  0  0  0
    6.4306    5.4981   -2.2075 C   0  0  0  0  0  0  0  0  0  0  0  0
   -0.1848    6.2262   -1.8990 C   0  0  0  0  0  0  0  0  0  0  0  0
    5.4878    6.4952    1.7115 C   0  0  0  0  0  0  0  0  0  0  0  0
    4.8867    4.1991    0.0217 O   0  0  0  0  0  0  0  0  0  0  0  0
    3.2248    7.6508   -2.2237 F   0  0  0  0  0  0  0  0  0  0  0  0
    3.6135    4.5347    1.8948 O   0  0  0  0  0  0  0  0  0  0  0  0
    5.9640    4.2290   -1.0858 C   0  0  0  0  0  0  0  0  0  0  0  0
    5.9033    5.5957   -3.3206 O   0  0  0  0  0  0  0  0  0  0  0  0
   -0.9236    5.3265   -2.4063 O   0  0  0  0  0  0  0  0  0  0  0  0
    1.2372    8.6763    0.8365 C   0  0  0  0  0  0  0  0  0  0  0  0
    7.0810    8.5624    0.2083 C   0  0  0  0  0  0  0  0  0  0  0  0
    2.6442    6.3089    0.7779 O   0  0  0  0  0  0  0  0  0  0  0  0
    1.7829   10.7554   -0.9715 F   0  0  0  0  0  0  0  0  0  0  0  0
    9.2545    8.6904   -1.3856 C   0  0  0  0  0  0  0  0  0  0  0  0
    5.0354    8.3490    1.5938 C   0  0  0  0  0  0  0  0  0  0  0  0
    5.3848    6.6038    3.1808 C   0  0  0  0  0  0  0  0  0  0  0  0
    6.8927    5.9847    1.3297 C   0  0  0  0  0  0  0  0  0  0  0  0
  1 27  1  1
  2  1  1  0
  2 22  1  6
  3 10  1  0
  3 28  1  1
  4  1  1  0
  5  6  1  0
  5  3  1  0
  6  2  1  0
  6 13  1  6
  7  2  1  0
  7 29  1  6
  8  3  1  0
  8 12  1  0
  8 18  1  6
  9  1  1  0
 10  7  1  0
  5 11  1  1
 12 11  1  0
 12 31  1  1
 13 14  1  0
 14  4  1  0
 14 30  1  1
 15  4  2  0
 15 19  1  0
 16 21  1  0
 17  9  2  0
 19 17  1  0
 20 16  1  0
 21 24  1  0
 23 16  2  0
 24 18  1  0
 25 18  2  0
 26 19  2  0
 32 20  1  0
 33 20  1  0
 34 20  1  0
M  END
>  <DRUGBANK_ID>  (1) 
DB14664

>  <SECONDARY_ACCESSION_NUMBERS>  (1) 
DBSALT001924

>  <COMMON_NAME>  (1) 
Difluocortolone pivalate

>  <CAS_NUMBER>  (1) 
15845-96-2

>  <UNII>  (1) 
ZR05N78276

>  <SYNONYMS>  (1) 
Diflucortolone pivalate

$$$$
