LZG
     RDKit          3D

 33 36  0  0  0  0  0  0  0  0999 V2000
    2.1200   -0.3081   -0.0798 Cl  0  0  0  0  0  0  0  0  0  0  0  0
    0.4353   -0.0616    0.0698 C   0  0  0  0  0  0  0  0  0  0  0  0
   -0.1206    1.1577    0.2496 C   0  0  0  0  0  0  0  0  0  0  0  0
   -1.5034    0.9935    0.4027 C   0  0  0  0  0  0  0  0  0  0  0  0
   -0.6883   -1.3373    0.0058 S   0  0  0  0  0  0  0  0  0  0  0  0
   -2.0371   -0.2869    0.2491 C   0  0  0  0  0  0  0  0  0  0  0  0
   -3.4519   -0.7929    0.1839 C   0  0  0  0  0  0  0  0  0  0  0  0
   -3.7553   -2.0013    0.1020 O   0  0  0  0  0  0  0  0  0  0  0  0
   -4.5447    0.0892    0.1442 N   0  0  0  0  0  0  0  0  0  0  0  0
   -4.2452    1.3904   -0.2748 C   0  0  0  0  0  0  0  0  0  0  0  0
   -4.3531    2.7999    0.0691 C   0  0  1  0  0  0  0  0  0  0  0  0
   -3.2447    3.1894    0.7799 F   0  0  0  0  0  0  0  0  0  0  0  0
   -4.5167    3.4212   -1.5409 C   0  0  0  0  0  0  0  0  0  0  0  0
   -3.5602    1.4523   -1.6699 C   0  0  0  0  0  0  0  0  0  0  0  0
   -3.5620    2.7482   -2.3327 N   0  0  0  0  0  0  0  0  0  0  0  0
   -2.3770    3.6280   -2.3342 C   0  0  0  0  0  0  0  0  0  0  0  0
   -1.9634    4.2177   -0.9622 C   0  0  0  0  0  0  0  0  0  0  0  0
   -0.7948    3.9897   -0.6018 O   0  0  0  0  0  0  0  0  0  0  0  0
   -2.7373    5.0386   -0.1103 N   0  0  0  0  0  0  0  0  0  0  0  0
   -4.1523    5.5354    0.1204 C   0  0  0  0  0  0  0  0  0  0  0  0
   -5.5204    4.9991   -0.0731 C   0  0  0  0  0  0  0  0  0  0  0  0
   -6.1423    3.8078    0.0364 F   0  0  0  0  0  0  0  0  0  0  0  0
   -4.1573    6.8853    0.3282 C   0  0  0  0  0  0  0  0  0  0  0  0
   -5.3352    7.5704    0.0205 C   0  0  0  0  0  0  0  0  0  0  0  0
   -6.4207    6.9015   -0.5784 C   0  0  0  0  0  0  0  0  0  0  0  0
   -6.4126    5.6142   -0.8337 C   0  0  0  0  0  0  0  0  0  0  0  0
   -7.6566    7.4392   -0.8520 N   0  0  0  0  0  0  0  0  0  0  0  0
   -7.6867    8.4079   -1.8069 C   0  0  0  0  0  0  0  0  0  0  0  0
   -6.6765    8.8333   -2.4379 O   0  0  0  0  0  0  0  0  0  0  0  0
   -9.0059    8.9576   -2.0867 C   0  0  0  0  0  0  0  0  0  0  0  0
  -10.0617    8.5474   -1.3587 C   0  0  0  0  0  0  0  0  0  0  0  0
   -9.9825    7.4112   -0.4845 C   0  0  0  0  0  0  0  0  0  0  0  0
   -8.8013    6.8244   -0.3301 C   0  0  0  0  0  0  0  0  0  0  0  0
  1  2  1  0
  2  3  2  0
  2  5  1  0
  3  4  1  0
  4  6  2  0
  5  6  1  0
  6  7  1  0
  7  8  2  0
  7  9  1  0
 10  9  1  0
 10 11  1  0
 10 14  1  0
 11 12  1  6
 11 13  1  0
 13 15  1  0
 14 15  1  0
 15 16  1  0
 16 17  1  0
 17 18  2  0
 17 19  1  0
 19 20  1  0
 20 21  2  0
 20 23  1  0
 21 22  1  0
 21 26  1  0
 23 24  2  0
 24 25  1  0
 25 26  2  0
 25 27  1  0
 27 28  1  0
 27 33  1  0
 28 29  2  0
 28 30  1  0
 30 31  2  0
 31 32  1  0
 32 33  2  0
M  END
>  <DRUGBANK_ID>  (1) 
DB08143

>  <COMMON_NAME>  (1) 
5-CHLORO-THIOPHENE-2-CARBOXYLIC ACID ((3S,4S)-4-FLUORO- 1-{[2-FLUORO-4-(2-OXO-2H-PYRIDIN-1-YL)-PHENYLCARBAMOYL]-METHYL}-PYRROLIDIN-3-YL)-AMIDE

$$$$
