GVP
     RDKit          3D

 24 27  0  0  0  0  0  0  0  0999 V2000
   -2.2347   -0.0816   -0.0008 Cl  0  0  0  0  0  0  0  0  0  0  0  0
   -0.5203   -0.0605   -0.0216 C   0  0  0  0  0  0  0  0  0  0  0  0
    0.1470    1.1471   -0.0158 C   0  0  0  0  0  0  0  0  0  0  0  0
    1.5402    1.1605   -0.0066 C   0  0  0  0  0  0  0  0  0  0  0  0
    2.3255   -0.0069   -0.0178 C   0  0  0  0  0  0  0  0  0  0  0  0
    1.6008   -1.2127   -0.0828 C   0  0  0  0  0  0  0  0  0  0  0  0
    0.2014   -1.2434   -0.0548 C   0  0  0  0  0  0  0  0  0  0  0  0
    3.8968    0.0367    0.0439 C   0  0  0  0  0  0  0  0  0  0  0  0
    4.4047    0.7792    1.3166 C   0  0  0  0  0  0  0  0  0  0  0  0
    4.2015    2.2915    1.2838 C   0  0  0  0  0  0  0  0  0  0  0  0
    4.7129    2.9085    0.0630 N   0  0  0  0  0  0  0  0  0  0  0  0
    4.2460    2.3021   -1.1798 C   0  0  0  0  0  0  0  0  0  0  0  0
    4.4588    0.7963   -1.1948 C   0  0  0  0  0  0  0  0  0  0  0  0
    4.4922   -1.4089    0.0991 C   0  0  0  0  0  0  0  0  0  0  0  0
    5.2471   -1.9562   -0.9538 C   0  0  0  0  0  0  0  0  0  0  0  0
    5.5880   -3.3064   -0.9654 C   0  0  0  0  0  0  0  0  0  0  0  0
    5.2240   -4.1282    0.0976 C   0  0  0  0  0  0  0  0  0  0  0  0
    4.4984   -3.6094    1.1672 C   0  0  0  0  0  0  0  0  0  0  0  0
    4.1706   -2.2538    1.1847 C   0  0  0  0  0  0  0  0  0  0  0  0
    5.7101   -5.4817    0.1329 C   0  0  0  0  0  0  0  0  0  0  0  0
    4.9490   -6.6163    0.2130 C   0  0  0  0  0  0  0  0  0  0  0  0
    5.8358   -7.6558    0.2384 N   0  0  0  0  0  0  0  0  0  0  0  0
    7.1229   -7.2651    0.1846 N   0  0  0  0  0  0  0  0  0  0  0  0
    7.0450   -5.9358    0.1198 C   0  0  0  0  0  0  0  0  0  0  0  0
  1  2  1  0
  2  3  2  0
  2  7  1  0
  3  4  1  0
  4  5  2  0
  5  6  1  0
  5  8  1  0
  6  7  2  0
  8  9  1  0
  8 13  1  0
  8 14  1  0
  9 10  1  0
 10 11  1  0
 11 12  1  0
 12 13  1  0
 14 19  1  0
 14 15  2  0
 15 16  1  0
 16 17  2  0
 17 18  1  0
 17 20  1  0
 18 19  2  0
 20 21  2  0
 20 24  1  0
 21 22  1  0
 22 23  1  0
 23 24  2  0
M  END
>  <DRUGBANK_ID>  (1) 
DB07859

>  <COMMON_NAME>  (1) 
4-(4-CHLOROPHENYL)-4-[4-(1H-PYRAZOL-4-YL)PHENYL]PIPERIDINE

>  <UNII>  (1) 
ERF7YL2CE2

$$$$
