SCJ
     RDKit          3D

 24 27  0  0  0  0  0  0  0  0999 V2000
    1.5427   -1.2133    0.0016 C   0  0  0  0  0  0  0  0  0  0  0  0
    0.2250   -0.8121    0.0092 C   0  0  0  0  0  0  0  0  0  0  0  0
    0.2694    0.5937   -0.0018 N   0  0  0  0  0  0  0  0  0  0  0  0
    1.5650    1.0403   -0.0010 N   0  0  0  0  0  0  0  0  0  0  0  0
    2.3146   -0.0568   -0.0023 C   0  0  0  0  0  0  0  0  0  0  0  0
   -0.9463   -1.5133    0.0220 N   0  0  0  0  0  0  0  0  0  0  0  0
   -2.0412   -0.8013   -0.0100 C   0  0  0  0  0  0  0  0  0  0  0  0
   -2.1028    0.6895   -0.0169 C   0  0  0  0  0  0  0  0  0  0  0  0
   -0.9326    1.3633   -0.0036 C   0  0  0  0  0  0  0  0  0  0  0  0
   -0.9181    2.7570    0.0171 N   0  0  0  0  0  0  0  0  0  0  0  0
   -3.3579   -1.4744    0.0034 C   0  0  0  0  0  0  0  0  0  0  0  0
    0.2179    3.6586    0.0048 C   0  0  0  0  0  0  0  0  0  0  0  0
    0.2203    4.5182   -1.2238 C   0  0  0  0  0  0  0  0  0  0  0  0
    1.3644    4.6325   -2.0099 C   0  0  0  0  0  0  0  0  0  0  0  0
    1.4792    5.4795   -3.0579 N   0  0  0  0  0  0  0  0  0  0  0  0
    0.4355    6.3046   -3.2822 C   0  0  0  0  0  0  0  0  0  0  0  0
   -0.7251    6.3013   -2.5283 C   0  0  0  0  0  0  0  0  0  0  0  0
   -0.8645    5.3361   -1.5418 C   0  0  0  0  0  0  0  0  0  0  0  0
   -4.2504   -1.3037   -1.0605 C   0  0  0  0  0  0  0  0  0  0  0  0
   -5.4962   -1.9311   -1.0192 C   0  0  0  0  0  0  0  0  0  0  0  0
   -5.8998   -2.6012    0.1361 C   0  0  0  0  0  0  0  0  0  0  0  0
   -5.0302   -2.7093    1.2221 C   0  0  0  0  0  0  0  0  0  0  0  0
   -3.7236   -2.2324    1.1178 C   0  0  0  0  0  0  0  0  0  0  0  0
    2.2354   -2.9456   -0.0005 Br  0  0  0  0  0  0  0  0  0  0  0  0
  1  2  2  0
  1 24  1  0
  2  6  1  0
  3  9  1  0
  3  2  1  0
  4  5  2  0
  4  3  1  0
  5  1  1  0
  6  7  2  0
  7 11  1  0
  8  7  1  0
  9  8  2  0
 10 12  1  0
 10  9  1  0
 11 19  2  0
 13 14  2  0
 13 12  1  0
 15 14  1  0
 16 15  2  0
 17 16  1  0
 17 18  2  0
 18 13  1  0
 19 20  1  0
 21 20  2  0
 22 21  1  0
 23 11  1  0
 23 22  2  0
M  END
>  <DRUGBANK_ID>  (1) 
DB08535

>  <COMMON_NAME>  (1) 
3-bromo-5-phenyl-N-(pyridin-3-ylmethyl)pyrazolo[1,5-a]pyrimidin-7-amine

$$$$
