
     RDKit          3D

 14 14  0  0  1  0  0  0  0  0999 V2000
    1.6717    1.2303    0.0220 C   0  0  0  0  0  0  0  0  0  0  0  0
    1.6040   -1.1608   -0.2362 C   0  0  0  0  0  0  0  0  0  0  0  0
    0.2725    1.2509    0.0061 C   0  0  0  0  0  0  0  0  0  0  0  0
    0.2197   -1.1561   -0.1446 C   0  0  0  0  0  0  0  0  0  0  0  0
    4.3580   -0.7547    1.3444 C   0  0  0  0  0  0  0  0  0  0  0  0
    4.4896   -0.7067   -1.2187 C   0  0  0  0  0  0  0  0  0  0  0  0
    2.3537    0.0098   -0.0498 C   0  0  0  0  0  0  0  0  0  0  0  0
    3.8749   -0.0610    0.0455 C   0  0  1  0  0  0  0  0  0  0  0  0
   -0.4443    0.0549   -0.0300 C   0  0  0  0  0  0  0  0  0  0  0  0
    4.0187   -2.2199    1.4599 C   0  0  0  0  0  0  0  0  0  0  0  0
   -2.1614    0.0649    0.0282 Cl  0  0  0  0  0  0  0  0  0  0  0  0
    4.0788   -0.0081   -2.4404 N   0  0  0  0  0  0  0  0  0  0  0  0
    4.7402   -3.1486    1.1249 O   0  0  0  0  0  0  0  0  0  0  0  0
    2.7649   -2.4537    1.8859 O   0  0  0  0  0  0  0  0  0  0  0  0
  3  1  2  0
  4  2  1  0
  7  1  1  0
  7  2  2  0
  8  5  1  1
  8  6  1  0
  8  7  1  0
  9  3  1  0
  9  4  2  0
 10  5  1  0
 11  9  1  0
 12  6  1  0
 13 10  2  0
 14 10  1  0
M  END
>  <DRUGBANK_ID>  (1) 
DB08891

>  <COMMON_NAME>  (1) 
Arbaclofen

>  <CAS_NUMBER>  (1) 
69308-37-8

>  <UNII>  (1) 
NYU6UTW25B

>  <SYNONYMS>  (1) 
(R)-4-amino-3-(4-chlorophenyl)butanÂ­oic acid; (R)-Baclofen; Arbaclofen

$$$$
