
     RDKit          3D

 25 25  0  0  1  0  0  0  0  0999 V2000
   -1.2184   -0.9811   -5.3570 N   0  0  0  0  0  0  0  0  0  0  0  0
   -2.3728   -0.3276   -4.7739 C   0  0  2  0  0  0  0  0  0  0  0  0
   -2.2850    1.4415   -4.8381 C   0  0  0  0  0  0  0  0  0  0  0  0
   -1.0224    1.9308   -5.4235 C   0  0  0  0  0  0  0  0  0  0  0  0
   -1.6477    1.7447   -6.7866 C   0  0  0  0  0  0  0  0  0  0  0  0
   -0.5851    1.9769   -7.7528 C   0  0  0  0  0  0  0  0  0  0  0  0
    0.6703    1.1770   -7.4047 C   0  0  0  0  0  0  0  0  0  0  0  0
    1.3427    1.5575   -6.0803 C   0  0  0  0  0  0  0  0  0  0  0  0
    0.3787    1.2627   -4.9947 C   0  0  0  0  0  0  0  0  0  0  0  0
   -2.4574   -1.4444   -3.4340 C   0  0  0  0  0  0  0  0  0  0  0  0
   -3.1875   -2.4381   -3.4965 O   0  0  0  0  0  0  0  0  0  0  0  0
   -1.6954   -1.2921   -2.2611 N   0  0  0  0  0  0  0  0  0  0  0  0
   -1.2482   -0.0543   -1.6186 C   0  0  2  0  0  0  0  0  0  0  0  0
   -1.9284    0.9126   -0.5829 C   0  0  0  0  0  0  0  0  0  0  0  0
   -1.9229    2.6113   -0.8504 C   0  0  0  0  0  0  0  0  0  0  0  0
   -2.5094    3.5914   -2.0091 C   0  0  0  0  0  0  0  0  0  0  0  0
   -3.7468    4.0910   -1.7988 O   0  0  0  0  0  0  0  0  0  0  0  0
   -1.8838    4.0420   -2.9553 O   0  0  0  0  0  0  0  0  0  0  0  0
   -1.8152    0.8227   -2.5662 C   0  0  0  0  0  0  0  0  0  0  0  0
   -0.9520    1.6360   -2.8958 O   0  0  0  0  0  0  0  0  0  0  0  0
   -3.2694    0.7749   -2.8035 N   0  0  0  0  0  0  0  0  0  0  0  0
   -4.4450   -0.0071   -2.4304 C   0  0  0  0  0  0  0  0  0  0  0  0
   -5.3962    1.1667   -2.1997 C   0  0  0  0  0  0  0  0  0  0  0  0
   -6.4443    1.2039   -3.0729 O   0  0  0  0  0  0  0  0  0  0  0  0
   -5.1421    2.0717   -1.4594 O   0  0  0  0  0  0  0  0  0  0  0  0
  2 10  1  0
  2  3  1  0
  2  1  1  1
  3  4  1  0
  4  5  1  0
  4  9  1  0
  5  6  1  0
  6  7  1  0
  7  8  1  0
  8  9  1  0
 10 11  2  0
 10 12  1  0
 13 19  1  0
 13 14  1  1
 13 12  1  0
 14 15  1  0
 15 16  1  0
 16 17  1  0
 16 18  2  0
 19 20  2  0
 19 21  1  0
 21 22  1  0
 22 23  1  0
 23 24  1  0
 23 25  2  0
M  END
>  <DRUGBANK_ID>  (1) 
DB16176

>  <COMMON_NAME>  (1) 
AIM-102

>  <CAS_NUMBER>  (1) 
551936-17-5

>  <UNII>  (1) 
3JX85UOO24

$$$$
