
     RDKit          3D

 28 31  0  0  0  0  0  0  0  0999 V2000
    1.1324    0.0613    0.4110 F   0  0  0  0  0  0  0  0  0  0  0  0
    2.4894    0.0510    0.3652 C   0  0  0  0  0  0  0  0  0  0  0  0
    2.8512    0.2690   -0.9237 F   0  0  0  0  0  0  0  0  0  0  0  0
    2.9915    1.1214    1.1914 O   0  0  0  0  0  0  0  0  0  0  0  0
    3.8195    0.4247    2.0195 C   0  0  0  0  0  0  0  0  0  0  0  0
    4.5205    0.8994    3.1132 C   0  0  0  0  0  0  0  0  0  0  0  0
    5.1868   -0.0313    3.9371 C   0  0  0  0  0  0  0  0  0  0  0  0
    5.2017   -1.4058    3.6173 C   0  0  0  0  0  0  0  0  0  0  0  0
    5.6391   -2.4513    4.6386 C   0  0  0  0  0  0  0  0  0  0  0  0
    4.6002   -3.2143    5.3614 N   0  0  0  0  0  0  0  0  0  0  0  0
    3.7363   -4.0377    4.5118 C   0  0  0  0  0  0  0  0  0  0  0  0
    2.5841   -3.2248    3.8993 C   0  0  0  0  0  0  0  0  0  0  0  0
    1.7328   -2.6174    4.8712 N   0  0  0  0  0  0  0  0  0  0  0  0
    2.5516   -1.6894    5.6887 C   0  0  0  0  0  0  0  0  0  0  0  0
    3.7494   -2.4576    6.3148 C   0  0  0  0  0  0  0  0  0  0  0  0
    0.3603   -2.5491    4.8335 C   0  0  0  0  0  0  0  0  0  0  0  0
   -0.2448   -1.7459    5.5355 O   0  0  0  0  0  0  0  0  0  0  0  0
   -0.3963   -3.3331    3.9769 N   0  0  0  0  0  0  0  0  0  0  0  0
   -0.0287   -4.3120    3.0138 C   0  0  0  0  0  0  0  0  0  0  0  0
    0.8138   -5.3944    3.2947 C   0  0  0  0  0  0  0  0  0  0  0  0
    0.9716   -5.9841    4.9109 Cl  0  0  0  0  0  0  0  0  0  0  0  0
    1.6508   -5.9017    2.2900 C   0  0  0  0  0  0  0  0  0  0  0  0
    1.4818   -5.4220    1.0030 C   0  0  0  0  0  0  0  0  0  0  0  0
    0.4742   -4.5917    0.6597 N   0  0  0  0  0  0  0  0  0  0  0  0
   -0.2795   -4.0720    1.6660 C   0  0  0  0  0  0  0  0  0  0  0  0
    4.6598   -1.8048    2.3808 C   0  0  0  0  0  0  0  0  0  0  0  0
    3.8750   -0.9024    1.6842 C   0  0  0  0  0  0  0  0  0  0  0  0
    2.9687   -1.2484    0.7270 O   0  0  0  0  0  0  0  0  0  0  0  0
  1  2  1  0
  2  3  1  0
  2  4  1  0
  2 28  1  0
  4  5  1  0
  5  6  2  0
  5 27  1  0
  6  7  1  0
  7  8  2  0
  8  9  1  0
  8 26  1  0
  9 10  1  0
 10 11  1  0
 10 15  1  0
 11 12  1  0
 12 13  1  0
 13 14  1  0
 13 16  1  0
 14 15  1  0
 16 17  2  0
 16 18  1  0
 18 19  1  0
 19 20  2  0
 19 25  1  0
 20 21  1  0
 20 22  1  0
 22 23  2  0
 23 24  1  0
 24 25  2  0
 26 27  2  0
 27 28  1  0
M  END
>  <DRUGBANK_ID>  (1) 
DB15173

>  <COMMON_NAME>  (1) 
JNJ-42165279

>  <CAS_NUMBER>  (1) 
1346528-50-4

>  <UNII>  (1) 
AH2E5UQ11Y

$$$$
