
     RDKit          3D

 37 40  0  0  1  0  0  0  0  0999 V2000
    0.6967    1.2071    0.0334 C   0  0  1  0  0  0  0  0  0  0  0  0
   -0.7991    1.1480    0.4318 C   0  0  1  0  0  0  0  0  0  0  0  0
    1.7531    3.3970   -2.2347 C   0  0  0  0  0  0  0  0  0  0  0  0
    1.4233    2.2474   -2.8612 C   0  0  0  0  0  0  0  0  0  0  0  0
    1.0077    1.7396   -4.3511 C   0  0  0  0  0  0  0  0  0  0  0  0
    1.4110    2.5969   -5.2616 C   0  0  0  0  0  0  0  0  0  0  0  0
    1.8379    3.8136   -4.6981 C   0  0  0  0  0  0  0  0  0  0  0  0
    2.0323    4.2277   -3.2589 C   0  0  0  0  0  0  0  0  0  0  0  0
    1.8333    4.8790   -5.7094 C   0  0  0  0  0  0  0  0  0  0  0  0
    0.4554    0.2195   -5.0919 C   0  0  0  0  0  0  0  0  0  0  0  0
   -0.5860    0.4596   -5.9426 F   0  0  0  0  0  0  0  0  0  0  0  0
    0.8863    5.7863   -5.3745 F   0  0  0  0  0  0  0  0  0  0  0  0
    1.6062    3.5303   -0.6944 C   0  0  2  0  0  0  0  0  0  0  0  0
    1.5724    2.3535    0.2114 O   0  0  0  0  0  0  0  0  0  0  0  0
    0.3509    4.3770   -0.4715 C   0  0  0  0  0  0  0  0  0  0  0  0
    1.4101   -0.0338    0.2519 O   0  0  0  0  0  0  0  0  0  0  0  0
    0.7076   -1.2796    0.4186 C   0  0  0  0  0  0  0  0  0  0  0  0
   -0.8090   -1.3016    0.5065 C   0  0  0  0  0  0  0  0  0  0  0  0
   -1.4766   -0.1208   -0.0754 N   0  0  0  0  0  0  0  0  0  0  0  0
   -0.8939    1.3386    1.9220 C   0  0  0  0  0  0  0  0  0  0  0  0
   -0.2063    2.3923    2.5371 C   0  0  0  0  0  0  0  0  0  0  0  0
   -0.2267    2.5329    3.9089 C   0  0  0  0  0  0  0  0  0  0  0  0
   -0.9369    1.6150    4.6655 C   0  0  0  0  0  0  0  0  0  0  0  0
   -1.6567    0.5910    4.0791 C   0  0  0  0  0  0  0  0  0  0  0  0
   -1.6481    0.4725    2.7114 C   0  0  0  0  0  0  0  0  0  0  0  0
   -0.9479    1.7300    5.9941 F   0  0  0  0  0  0  0  0  0  0  0  0
   -1.4992   -0.3147   -1.5697 C   0  0  0  0  0  0  0  0  0  0  0  0
   -0.1344   -0.7979   -2.1368 C   0  0  0  0  0  0  0  0  0  0  0  0
    0.5413    0.2091   -2.6599 N   0  0  0  0  0  0  0  0  0  0  0  0
    1.9048   -0.2183   -2.9678 C   0  0  0  0  0  0  0  0  0  0  0  0
    1.9312   -1.4444   -2.5024 N   0  0  0  0  0  0  0  0  0  0  0  0
    0.6031   -1.8609   -2.2169 N   0  0  0  0  0  0  0  0  0  0  0  0
    2.8639    0.3004   -3.6036 O   0  0  0  0  0  0  0  0  0  0  0  0
    1.4322   -0.4120   -5.8032 F   0  0  0  0  0  0  0  0  0  0  0  0
   -0.1132   -0.8316   -4.3993 F   0  0  0  0  0  0  0  0  0  0  0  0
    3.0276    5.4855   -5.7905 F   0  0  0  0  0  0  0  0  0  0  0  0
    1.5055    4.4195   -6.9467 F   0  0  0  0  0  0  0  0  0  0  0  0
  1  2  1  0
  1 16  1  0
  1 14  1  1
  2 19  1  0
  2 20  1  1
  3  4  2  0
  3  8  1  0
  3 13  1  0
  4  5  1  0
  5  6  2  0
  5 10  1  0
  6  7  1  0
  7  8  2  0
  7  9  1  0
  9 12  1  0
  9 36  1  0
  9 37  1  0
 10 11  1  0
 10 34  1  0
 10 35  1  0
 13 14  1  0
 13 15  1  6
 16 17  1  0
 17 18  1  0
 18 19  1  0
 19 27  1  0
 20 21  2  0
 20 25  1  0
 21 22  1  0
 22 23  2  0
 23 24  1  0
 23 26  1  0
 24 25  2  0
 27 28  1  0
 28 29  1  0
 28 32  2  0
 29 30  1  0
 30 31  1  0
 30 33  2  0
 31 32  1  0
M  END
>  <DRUGBANK_ID>  (1) 
DB00673

>  <SECONDARY_ACCESSION_NUMBERS>  (1) 
APRD00100

>  <COMMON_NAME>  (1) 
Aprepitant

>  <CAS_NUMBER>  (1) 
170729-80-3

>  <UNII>  (1) 
1NF15YR6UY

>  <SYNONYMS>  (1) 
Aprepitant; AprÃ©pitant; Aprepitantum

$$$$
