PD7
     RDKit          3D

 26 25  0  0  0  0  0  0  0  0999 V2000
    0.5072   -0.0703   -0.5116 O   0  0  0  0  0  0  0  0  0  0  0  0
    1.6856    0.2782   -0.5266 C   0  0  0  0  0  0  0  0  0  0  0  0
    2.2420    1.1977    0.6003 C   0  0  0  0  0  0  0  0  0  0  0  0
    2.1953    2.6589    0.7049 C   0  0  0  0  0  0  0  0  0  0  0  0
    0.7754    2.7227    1.1588 C   0  0  0  0  0  0  0  0  0  0  0  0
    0.5902    2.1056    2.5785 C   0  0  0  0  0  0  0  0  0  0  0  0
    1.4575    2.8129    3.6210 C   0  0  0  0  0  0  0  0  0  0  0  0
    1.2025    4.3019    3.5087 C   0  0  0  0  0  0  0  0  0  0  0  0
    2.5904   -0.2849   -1.4438 O   0  0  0  0  0  0  0  0  0  0  0  0
    4.0677   -0.6495   -1.3894 C   0  0  0  0  0  0  0  0  0  0  0  0
    5.0362    0.5764   -1.3612 C   0  0  2  0  0  0  0  0  0  0  0  0
    4.9620    1.5154   -0.1515 C   0  0  0  0  0  0  0  0  0  0  0  0
    4.8798    0.9656    1.2064 O   0  0  0  0  0  0  0  0  0  0  0  0
    4.3031   -0.6455    1.4607 P   0  0  0  0  0  0  0  0  0  0  0  0
    5.6631   -1.2467    0.8503 O   0  0  0  0  0  0  0  0  0  0  0  0
    3.7870   -2.0875    1.6882 O   0  0  0  0  0  0  0  0  0  0  0  0
    2.8446   -0.8254    0.9321 O   0  0  0  0  0  0  0  0  0  0  0  0
    4.5550    1.2688   -2.5339 O   0  0  0  0  0  0  0  0  0  0  0  0
    4.9647    2.5169   -2.8611 C   0  0  0  0  0  0  0  0  0  0  0  0
    5.6981    3.2005   -2.2212 O   0  0  0  0  0  0  0  0  0  0  0  0
    4.3466    2.8948   -4.1826 C   0  0  0  0  0  0  0  0  0  0  0  0
    4.8349    1.9369   -5.2682 C   0  0  0  0  0  0  0  0  0  0  0  0
    4.2848    0.5049   -5.1303 C   0  0  0  0  0  0  0  0  0  0  0  0
    2.7518    0.4716   -5.1245 C   0  0  0  0  0  0  0  0  0  0  0  0
    2.1887    0.9928   -6.4454 C   0  0  0  0  0  0  0  0  0  0  0  0
    2.6832    0.1419   -7.6048 C   0  0  0  0  0  0  0  0  0  0  0  0
  2  1  2  0
  2  9  1  0
  3  2  1  0
  4  3  1  0
  4  5  1  0
  6  5  1  0
  6  7  1  0
  8  7  1  0
  9 10  1  0
 11 10  1  1
 11 12  1  0
 11 18  1  0
 12 13  1  0
 13 14  1  0
 14 17  1  0
 14 15  1  0
 16 14  2  0
 19 18  1  0
 20 19  2  0
 21 19  1  0
 22 21  1  0
 23 22  1  0
 24 23  1  0
 25 24  1  0
 26 25  1  0
M  END
>  <DRUGBANK_ID>  (1) 
DB08376

>  <COMMON_NAME>  (1) 
(2R)-3-(phosphonooxy)propane-1,2-diyl diheptanoate

$$$$
