
     RDKit          3D

 26 29  0  0  1  0  0  0  0  0999 V2000
    0.4342   -5.6016    2.9883 C   0  0  0  0  0  0  0  0  0  0  0  0
    0.0142   -4.6384    1.6846 C   0  0  0  0  0  0  0  0  0  0  0  0
    1.1514   -4.0484    0.8243 C   0  0  0  0  0  0  0  0  0  0  0  0
    1.4723   -3.1280    1.7499 C   0  0  0  0  0  0  0  0  0  0  0  0
    1.9442   -3.7019    3.0548 C   0  0  2  0  0  0  0  0  0  0  0  0
    1.8959   -5.3274    2.8279 C   0  0  0  0  0  0  0  0  0  0  0  0
    1.0887   -1.6782    1.7478 C   0  0  0  0  0  0  0  0  0  0  0  0
    0.2320   -1.1405    3.0275 C   0  0  0  0  0  0  0  0  0  0  0  0
    0.9007   -1.5000    4.4737 C   0  0  2  0  0  0  0  0  0  0  0  0
    1.0164   -3.1276    4.3302 C   0  0  2  0  0  0  0  0  0  0  0  0
    0.5836   -0.5886    6.1285 C   0  0  1  0  0  0  0  0  0  0  0  0
    0.5465   -1.8621    6.7807 C   0  0  2  0  0  0  0  0  0  0  0  0
    0.4958   -3.3105    6.6367 C   0  0  0  0  0  0  0  0  0  0  0  0
    1.4267   -3.8298    5.6262 C   0  0  2  0  0  0  0  0  0  0  0  0
    0.9437   -0.7287    8.1646 C   0  0  0  0  0  0  0  0  0  0  0  0
   -0.1847   -1.4403    8.9565 C   0  0  0  0  0  0  0  0  0  0  0  0
   -0.8289   -1.2271    7.6953 C   0  0  2  0  0  0  0  0  0  0  0  0
   -1.1064   -4.2143    1.4047 O   0  0  0  0  0  0  0  0  0  0  0  0
   -2.2493   -1.6914    7.5282 C   0  0  0  0  0  0  0  0  0  0  0  0
   -2.5030   -3.1501    7.4374 C   0  0  0  0  0  0  0  0  0  0  0  0
   -3.1596   -0.8590    7.4453 O   0  0  0  0  0  0  0  0  0  0  0  0
   -3.5541   -3.7353    8.7543 S   0  0  0  0  0  0  0  0  0  0  0  0
   -1.0358    0.2739    7.7780 O   0  0  0  0  0  0  0  0  0  0  0  0
    2.7558   -3.6363    6.0038 O   0  0  0  0  0  0  0  0  0  0  0  0
    3.3790   -3.2578    3.2009 C   0  0  0  0  0  0  0  0  0  0  0  0
    2.3549   -1.2143    6.6315 C   0  0  0  0  0  0  0  0  0  0  0  0
  1  2  1  0
  1  6  1  0
  2  3  1  0
  2 18  2  0
  3  4  2  0
  4  5  1  0
  4  7  1  0
  5  6  1  0
  5 10  1  0
  5 25  1  1
  7  8  1  0
  9  8  1  6
  9 10  1  0
  9 11  1  0
 10 14  1  1
 11 12  1  0
 11 15  1  1
 12 13  1  0
 12 17  1  0
 12 26  1  1
 13 14  1  0
 14 24  1  1
 15 16  1  0
 16 17  1  0
 17 23  1  6
 17 19  1  0
 19 20  1  0
 19 21  2  0
 20 22  1  0
M  END
>  <DRUGBANK_ID>  (1) 
DB09091

>  <COMMON_NAME>  (1) 
Tixocortol

>  <CAS_NUMBER>  (1) 
61951-99-3

>  <UNII>  (1) 
ZX3KEK657Z

>  <SYNONYMS>  (1) 
Tixocortol

$$$$
