HMDB02124.mol
     RDKit          3D

 20 22  0  0  0  0  0  0  0  0999 V2000
    2.3319   -0.2555   -0.0019 C   0  0  0  0  0  0  0  0  0  0  0  0
    1.8936    1.0660   -0.0134 C   0  0  0  0  0  0  0  0  0  0  0  0
    0.5233    1.3292    0.0062 C   0  0  0  0  0  0  0  0  0  0  0  0
   -0.4021    0.2763    0.0235 C   0  0  0  0  0  0  0  0  0  0  0  0
    0.0553   -1.0474    0.0438 C   0  0  0  0  0  0  0  0  0  0  0  0
    1.4272   -1.3140    0.0365 C   0  0  0  0  0  0  0  0  0  0  0  0
   -1.8618    0.5076   -0.0031 C   0  0  0  0  0  0  0  0  0  0  0  0
   -2.7107   -0.6874   -0.0639 C   0  0  0  0  0  0  0  0  0  0  0  0
   -2.1491   -1.9015   -0.0347 C   0  0  0  0  0  0  0  0  0  0  0  0
   -0.7895   -2.1370    0.0634 O   0  0  0  0  0  0  0  0  0  0  0  0
   -2.3967    1.6094    0.0063 O   0  0  0  0  0  0  0  0  0  0  0  0
   -3.0072   -3.0940   -0.1034 C   0  0  0  0  0  0  0  0  0  0  0  0
   -3.0337   -4.0303    0.9397 C   0  0  0  0  0  0  0  0  0  0  0  0
   -3.9096   -5.1241    0.8920 C   0  0  0  0  0  0  0  0  0  0  0  0
   -4.7530   -5.2802   -0.2046 C   0  0  0  0  0  0  0  0  0  0  0  0
   -4.7267   -4.3710   -1.2534 C   0  0  0  0  0  0  0  0  0  0  0  0
   -3.8578   -3.2809   -1.2038 C   0  0  0  0  0  0  0  0  0  0  0  0
   -5.6361   -6.3144   -0.3016 O   0  0  0  0  0  0  0  0  0  0  0  0
    0.0966    2.6262    0.0002 O   0  0  0  0  0  0  0  0  0  0  0  0
    3.6629   -0.5530   -0.0329 O   0  0  0  0  0  0  0  0  0  0  0  0
  1  2  2  0
  1  6  1  0
  1 20  1  0
  2  3  1  0
  3  4  2  0
  3 19  1  0
  4  5  1  0
  4  7  1  0
  5  6  2  0
  5 10  1  0
  7  8  1  0
  7 11  2  0
  8  9  2  0
  9 10  1  0
  9 12  1  0
 12 13  2  0
 12 17  1  0
 13 14  1  0
 14 15  2  0
 15 16  1  0
 15 18  1  0
 16 17  2  0
M  END
>  <DRUGBANK_ID>  (1) 
DB07352

>  <COMMON_NAME>  (1) 
Apigenin

>  <CAS_NUMBER>  (1) 
520-36-5

>  <UNII>  (1) 
7V515PI7F6

$$$$
