
     RDKit          3D

 13 12  0  0  0  0  0  0  0  0999 V2000
    1.0377    0.9078    0.0343 Na  0  0  0  0  0 15  0  0  0  0  0  0
   -2.1648   -3.7098    1.6180 O   0  0  0  0  0  0  0  0  0  0  0  0
   -2.7122   -0.7325    3.3690 O   0  0  0  0  0  0  0  0  0  0  0  0
   -3.3961   -3.2810    4.9997 O   0  0  0  0  0  0  0  0  0  0  0  0
   -2.5298   -4.2231    2.8263 C   0  0  0  0  0  0  0  0  0  0  0  0
   -2.5581   -5.4146    3.0952 O   0  0  0  0  0  0  0  0  0  0  0  0
   -2.8789   -3.1186    3.7422 C   0  0  0  0  0  0  0  0  0  0  0  0
   -2.6100   -1.9609    3.1234 C   0  0  0  0  0  0  0  0  0  0  0  0
   -1.0242   -0.0708   -0.1271 O   0  0  0  0  0  0  0  0  0  0  0  0
   -0.4673   -1.3683    0.0924 C   0  0  0  0  0  0  0  0  0  0  0  0
   -0.6206   -1.8397    1.5326 C   0  0  2  0  0  0  0  0  0  0  0  0
    0.3668   -2.8670    1.7130 O   0  0  0  0  0  0  0  0  0  0  0  0
   -2.0839   -2.2894    1.7637 C   0  0  1  0  0  0  0  0  0  0  0  0
  2  5  1  0
  5  6  2  0
  5  7  1  0
  7  4  1  0
  7  8  2  0
  8  3  1  0
  9 10  1  0
 11 12  1  6
 11 13  1  0
 11 10  1  0
 13  2  1  1
 13  8  1  0
M  CHG  2   1   1   3  -1
M  END
>  <DRUGBANK_ID>  (1) 
DB14482

>  <SECONDARY_ACCESSION_NUMBERS>  (1) 
DBSALT001764

>  <COMMON_NAME>  (1) 
Sodium ascorbate

>  <CAS_NUMBER>  (1) 
134-03-2

>  <UNII>  (1) 
S033EH8359

>  <SYNONYMS>  (1) 
Ascorbato s√≥dico; Ascorbic acid sodium salt; L-Ascorbic acid sodium salt; L-Ascorbic acid, monosodium salt; Monosodium L-ascorbate; Sodium ascorbate; sodium L-ascorbate; Vitamin C sodium; Vitamin C, sodium salt

$$$$
