
     RDKit          3D

 40 44  0  0  1  0  0  0  0  0999 V2000
    0.8497   -0.1061    0.0135 C   0  0  0  0  0  0  0  0  0  0  0  0
    0.2107   -0.6459    1.1753 O   0  0  0  0  0  0  0  0  0  0  0  0
    0.6498   -1.8584    1.6307 C   0  0  0  0  0  0  0  0  0  0  0  0
    1.9593   -2.2821    1.5231 C   0  0  0  0  0  0  0  0  0  0  0  0
    2.4451   -3.4608    2.1089 C   0  0  0  0  0  0  0  0  0  0  0  0
    3.7469   -3.8694    1.9919 O   0  0  0  0  0  0  0  0  0  0  0  0
    4.7025   -3.0275    1.3272 C   0  0  0  0  0  0  0  0  0  0  0  0
    4.4466   -2.9598   -0.1852 C   0  0  0  0  0  0  0  0  0  0  0  0
    4.9164   -1.6812    2.0382 C   0  0  0  0  0  0  0  0  0  0  0  0
    1.5576   -4.2541    2.8422 C   0  0  0  0  0  0  0  0  0  0  0  0
    0.2154   -3.8511    2.9432 C   0  0  0  0  0  0  0  0  0  0  0  0
   -0.2331   -2.6645    2.3308 C   0  0  0  0  0  0  0  0  0  0  0  0
    1.9564   -5.5916    3.3544 C   0  0  0  0  0  0  0  0  0  0  0  0
    1.3481   -6.6667    2.9314 N   0  0  0  0  0  0  0  0  0  0  0  0
    2.0304   -7.8283    3.5886 C   0  0  2  0  0  0  0  0  0  0  0  0
    3.3305   -7.2205    4.1773 C   0  0  2  0  0  0  0  0  0  0  0  0
    3.0304   -5.7900    4.2446 N   0  0  0  0  0  0  0  0  0  0  0  0
    3.6136   -4.8387    5.0917 C   0  0  0  0  0  0  0  0  0  0  0  0
    3.1704   -3.6948    5.2205 O   0  0  0  0  0  0  0  0  0  0  0  0
    4.5696   -5.3104    5.9796 N   0  0  0  0  0  0  0  0  0  0  0  0
    4.5021   -4.9596    7.3964 C   0  0  0  0  0  0  0  0  0  0  0  0
    4.7547   -6.2697    8.1443 C   0  0  0  0  0  0  0  0  0  0  0  0
    6.0334   -6.8511    7.7587 N   0  0  0  0  0  0  0  0  0  0  0  0
    6.5767   -6.6938    6.5038 C   0  0  0  0  0  0  0  0  0  0  0  0
    7.6120   -7.3040    6.2109 O   0  0  0  0  0  0  0  0  0  0  0  0
    5.9321   -5.6439    5.5697 C   0  0  0  0  0  0  0  0  0  0  0  0
    4.5328   -7.4818    3.2719 C   0  0  0  0  0  0  0  0  0  0  0  0
    4.5685   -6.9746    1.9610 C   0  0  0  0  0  0  0  0  0  0  0  0
    5.6952   -7.1246    1.1651 C   0  0  0  0  0  0  0  0  0  0  0  0
    6.8142   -7.7602    1.6861 C   0  0  0  0  0  0  0  0  0  0  0  0
    8.2143   -7.9430    0.7087 Cl  0  0  0  0  0  0  0  0  0  0  0  0
    6.7984   -8.2765    2.9801 C   0  0  0  0  0  0  0  0  0  0  0  0
    5.6313   -8.2148    3.7406 C   0  0  0  0  0  0  0  0  0  0  0  0
    2.2296   -9.0423    2.6765 C   0  0  0  0  0  0  0  0  0  0  0  0
    2.8385  -10.2185    3.1591 C   0  0  0  0  0  0  0  0  0  0  0  0
    3.1054  -11.2927    2.3008 C   0  0  0  0  0  0  0  0  0  0  0  0
    2.7335  -11.2169    0.9612 C   0  0  0  0  0  0  0  0  0  0  0  0
    3.1042  -12.5109   -0.1110 Cl  0  0  0  0  0  0  0  0  0  0  0  0
    2.0939  -10.0822    0.4743 C   0  0  0  0  0  0  0  0  0  0  0  0
    1.8804   -8.9894    1.3174 C   0  0  0  0  0  0  0  0  0  0  0  0
  1  2  1  0
  2  3  1  0
  3  4  2  0
  3 12  1  0
  4  5  1  0
  5  6  1  0
  5 10  2  0
  6  7  1  0
  7  8  1  0
  7  9  1  0
 10 11  1  0
 10 13  1  0
 11 12  2  0
 13 14  2  0
 13 17  1  0
 15 14  1  0
 15 16  1  0
 15 34  1  6
 16 17  1  0
 16 27  1  6
 17 18  1  0
 18 19  2  0
 18 20  1  0
 20 21  1  0
 20 26  1  0
 21 22  1  0
 22 23  1  0
 23 24  1  0
 24 25  2  0
 24 26  1  0
 27 28  2  0
 27 33  1  0
 28 29  1  0
 29 30  2  0
 30 31  1  0
 30 32  1  0
 32 33  2  0
 34 35  2  0
 34 40  1  0
 35 36  1  0
 36 37  2  0
 37 38  1  0
 37 39  1  0
 39 40  2  0
M  END
>  <DRUGBANK_ID>  (1) 
DB17039

>  <COMMON_NAME>  (1) 
Nutlin-3

>  <CAS_NUMBER>  (1) 
548472-68-0

>  <UNII>  (1) 
53IA0V845C

>  <SYNONYMS>  (1) 
2-piperazinone, 4-(((4r,5s)-4,5-bis(4-chlorophenyl)-4,5-dihydro-2-(4-methoxy-2-(1-methylethoxy)phenyl)-1h-imidazol-1-yl)carbonyl)-, rel-

$$$$
