
     RDKit          3D

 26 29  0  0  0  0  0  0  0  0999 V2000
    1.6584    1.2626   -0.0159 C   0  0  0  0  0  0  0  0  0  0  0  0
    0.2567    1.2842   -0.0275 C   0  0  0  0  0  0  0  0  0  0  0  0
   -0.4765    0.0980   -0.0297 C   0  0  0  0  0  0  0  0  0  0  0  0
    0.1777   -1.1154   -0.0371 C   0  0  0  0  0  0  0  0  0  0  0  0
    1.5683   -1.1323   -0.0230 C   0  0  0  0  0  0  0  0  0  0  0  0
    2.3484    0.0493    0.0023 C   0  0  0  0  0  0  0  0  0  0  0  0
    3.8797    0.0722    0.0905 C   0  0  0  0  0  0  0  0  0  0  0  0
    4.4011   -0.6333    1.3337 C   0  0  0  0  0  0  0  0  0  0  0  0
    4.2340   -2.0200    1.3751 C   0  0  0  0  0  0  0  0  0  0  0  0
    4.3168   -2.6533    2.5937 C   0  0  0  0  0  0  0  0  0  0  0  0
    4.8769   -1.8997    3.6676 C   0  0  0  0  0  0  0  0  0  0  0  0
    5.2496   -2.6092    4.7990 C   0  0  0  0  0  0  0  0  0  0  0  0
    6.1317   -2.0838    5.6990 C   0  0  0  0  0  0  0  0  0  0  0  0
    6.3420   -0.7235    5.7196 C   0  0  0  0  0  0  0  0  0  0  0  0
    5.8412    0.1489    4.7136 C   0  0  0  0  0  0  0  0  0  0  0  0
    5.1938   -0.4730    3.5702 C   0  0  0  0  0  0  0  0  0  0  0  0
    4.8736    0.1346    2.3904 N   0  0  0  0  0  0  0  0  0  0  0  0
    6.3503    1.6124    5.0066 C   0  0  0  0  0  0  0  0  0  0  0  0
    7.8912    1.4812    5.0307 C   0  0  0  0  0  0  0  0  0  0  0  0
    8.3531    0.5803    6.1967 C   0  0  0  0  0  0  0  0  0  0  0  0
    7.1868   -0.1706    6.8285 C   0  0  0  0  0  0  0  0  0  0  0  0
    3.8774   -4.1306    2.6964 C   0  0  0  0  0  0  0  0  0  0  0  0
    4.0487   -4.9025    3.6023 O   0  0  0  0  0  0  0  0  0  0  0  0
    3.1614   -4.5854    1.6337 O   0  0  0  0  0  0  0  0  0  0  0  0
    4.0384   -2.7713    0.2442 O   0  0  0  0  0  0  0  0  0  0  0  0
   -2.1926    0.1174   -0.0094 Cl  0  0  0  0  0  0  0  0  0  0  0  0
  1  2  2  0
  1  6  1  0
  2  3  1  0
  3  4  2  0
  3 26  1  0
  4  5  1  0
  5  6  2  0
  6  7  1  0
  7  8  1  0
  8  9  2  0
  8 17  1  0
  9 10  1  0
  9 25  1  0
 10 11  2  0
 10 22  1  0
 11 12  1  0
 11 16  1  0
 12 13  2  0
 13 14  1  0
 14 15  2  0
 14 21  1  0
 15 16  1  0
 15 18  1  0
 16 17  2  0
 18 19  1  0
 19 20  1  0
 20 21  1  0
 22 23  2  0
 22 24  1  0
M  END
>  <DRUGBANK_ID>  (1) 
DB12211

>  <COMMON_NAME>  (1) 
PSI-697

>  <CAS_NUMBER>  (1) 
851546-61-7

>  <UNII>  (1) 
LH1XC916ME

$$$$
