
     RDKit          3D

 23 26  0  0  0  0  0  0  0  0999 V2000
    1.1360   -0.0025   -0.2540 O   0  0  0  0  0  0  0  0  0  0  0  0
   -4.0604   -9.0632    4.1598 O   0  0  0  0  0  0  0  0  0  0  0  0
   -0.5124   -1.1581    1.5849 C   0  0  1  0  0  0  0  0  0  0  0  0
   -0.5180   -2.6349    1.6964 C   0  0  2  0  0  0  0  0  0  0  0  0
   -1.2669   -3.7913    2.2678 C   0  0  2  0  0  0  0  0  0  0  0  0
    0.5480   -1.3007   -0.3554 C   0  0  2  0  0  0  0  0  0  0  0  0
   -2.2882   -1.1584    2.3351 C   0  0  0  0  0  0  0  0  0  0  0  0
    0.9768   -2.6043    1.7321 C   0  0  0  0  0  0  0  0  0  0  0  0
   -2.9814   -2.4954    3.3062 C   0  0  0  0  0  0  0  0  0  0  0  0
    1.3589   -2.4758    0.2882 C   0  0  0  0  0  0  0  0  0  0  0  0
   -1.0983   -4.7509    1.0913 C   0  0  0  0  0  0  0  0  0  0  0  0
   -0.1745   -1.1082    3.4093 C   0  0  0  0  0  0  0  0  0  0  0  0
   -3.2026   -5.1340    2.9548 C   0  0  0  0  0  0  0  0  0  0  0  0
   -1.2182   -6.1072    1.6216 C   0  0  0  0  0  0  0  0  0  0  0  0
   -2.4232   -6.2312    2.4983 C   0  0  0  0  0  0  0  0  0  0  0  0
   -0.9720   -1.3007   -0.3554 C   0  0  0  0  0  0  0  0  0  0  0  0
   -4.3026   -5.4179    3.7669 C   0  0  0  0  0  0  0  0  0  0  0  0
   -2.6769   -7.5278    2.9099 C   0  0  0  0  0  0  0  0  0  0  0  0
   -4.5654   -6.7473    4.1537 C   0  0  0  0  0  0  0  0  0  0  0  0
   -3.7476   -7.8020    3.7334 C   0  0  0  0  0  0  0  0  0  0  0  0
   -2.2759   -1.3007   -0.3554 C   0  0  0  0  0  0  0  0  0  0  0  0
   -2.7989   -3.7353    2.4814 C   0  0  2  0  0  0  0  0  0  0  0  0
   -3.1911  -10.0974    3.6902 C   0  0  0  0  0  0  0  0  0  0  0  0
  2 20  1  0
  2 23  1  0
  3  4  1  0
  3  6  1  0
  3  7  1  0
  3 12  1  1
  4  5  1  0
  4  8  1  1
  5 11  1  6
  5 22  1  0
  6  1  1  6
  6 10  1  0
  6 16  1  0
  7  9  1  0
  8 10  1  0
 11 14  1  0
 13 15  2  0
 13 17  1  0
 14 15  1  0
 15 18  1  0
 16 21  3  0
 17 19  2  0
 18 20  2  0
 19 20  1  0
 22  9  1  1
 22 13  1  0
M  END
>  <DRUGBANK_ID>  (1) 
DB01357

>  <COMMON_NAME>  (1) 
Mestranol

>  <CAS_NUMBER>  (1) 
72-33-3

>  <UNII>  (1) 
B2V233XGE7

>  <SYNONYMS>  (1) 
Mestranol

$$$$
