
     RDKit          3D

  8  7  0  0  1  0  0  0  0  0999 V2000
   -0.5510    2.2152   -0.7799 C   0  0  0  0  0  0  0  0  0  0  0  0
    0.3351    2.1922   -2.0042 C   0  0  0  0  0  0  0  0  0  0  0  0
    0.5433    3.2267   -2.6441 O   0  0  0  0  0  0  0  0  0  0  0  0
    0.9522    0.8603   -2.4391 C   0  0  2  0  0  0  0  0  0  0  0  0
    0.5939   -0.2462   -1.4997 N   0  0  0  0  0  0  0  0  0  0  0  0
    2.4725    0.9667   -2.5489 C   0  0  0  0  0  0  0  0  0  0  0  0
    2.9870    0.6731   -3.7664 O   0  0  0  0  0  0  0  0  0  0  0  0
    3.1992    1.1911   -1.5843 O   0  0  0  0  0  0  0  0  0  0  0  0
  1  2  1  0
  2  3  2  0
  4  6  1  0
  4  5  1  1
  4  2  1  0
  6  7  1  0
  6  8  2  0
M  END
>  <DRUGBANK_ID>  (1) 
DB03915

>  <SECONDARY_ACCESSION_NUMBERS>  (1) 
EXPT00482

>  <COMMON_NAME>  (1) 
2-Amino-3-Ketobutyric Acid

$$$$
