482
     RDKit          3D

 26 28  0  0  0  0  0  0  0  0999 V2000
    0.9509   -0.0095   -0.0228 S   0  0  0  0  0  0  0  0  0  0  0  0
   10.1897    2.1556    1.2125 F   0  0  0  0  0  0  0  0  0  0  0  0
   10.1373    0.2806    2.3433 F   0  0  0  0  0  0  0  0  0  0  0  0
   11.3015    0.4198    0.5107 F   0  0  0  0  0  0  0  0  0  0  0  0
    0.5379    0.4767    1.2662 O   0  0  0  0  0  0  0  0  0  0  0  0
    0.4993    0.5935   -1.2616 O   0  0  0  0  0  0  0  0  0  0  0  0
    6.9255    0.0096   -0.3800 N   0  0  0  0  0  0  0  0  0  0  0  0
    7.6616    0.6668    0.5576 N   0  0  0  0  0  0  0  0  0  0  0  0
    0.4488   -1.6198   -0.0777 N   0  0  0  0  0  0  0  0  0  0  0  0
    7.7280   -0.6308   -1.3049 C   0  0  0  0  0  0  0  0  0  0  0  0
    5.5099   -0.0199   -0.2880 C   0  0  0  0  0  0  0  0  0  0  0  0
    7.2626   -1.3678   -2.4618 C   0  0  0  0  0  0  0  0  0  0  0  0
    9.0268   -0.4214   -0.9002 C   0  0  0  0  0  0  0  0  0  0  0  0
    8.9446    0.3534    0.2762 C   0  0  0  0  0  0  0  0  0  0  0  0
    4.8251   -1.2444   -0.2715 C   0  0  0  0  0  0  0  0  0  0  0  0
    4.8054    1.1839   -0.1935 C   0  0  0  0  0  0  0  0  0  0  0  0
    2.7251   -0.0607   -0.0656 C   0  0  0  0  0  0  0  0  0  0  0  0
    7.5998   -2.7191   -2.5553 C   0  0  0  0  0  0  0  0  0  0  0  0
    6.5031   -0.7616   -3.4666 C   0  0  0  0  0  0  0  0  0  0  0  0
    3.4294   -1.2654   -0.1485 C   0  0  0  0  0  0  0  0  0  0  0  0
    3.4128    1.1613   -0.0599 C   0  0  0  0  0  0  0  0  0  0  0  0
    6.4424   -2.8642   -4.6673 C   0  0  0  0  0  0  0  0  0  0  0  0
    7.1947   -3.4643   -3.6536 C   0  0  0  0  0  0  0  0  0  0  0  0
    6.0551   -1.5234   -4.5440 C   0  0  0  0  0  0  0  0  0  0  0  0
   10.1271    0.8054    1.0899 C   0  0  0  0  0  0  0  0  0  0  0  0
    6.1151   -3.6241   -5.9152 C   0  0  0  0  0  0  0  0  0  0  0  0
  1  5  2  0
  1  6  2  0
  1  9  1  0
  1 17  1  0
  2 25  1  0
  3 25  1  0
  4 25  1  0
  7  8  1  0
  7 10  1  0
  7 11  1  0
  8 14  2  0
 10 12  1  0
 10 13  2  0
 11 15  2  0
 11 16  1  0
 12 18  2  0
 12 19  1  0
 13 14  1  0
 14 25  1  0
 15 20  1  0
 16 21  2  0
 17 20  2  0
 17 21  1  0
 18 23  1  0
 19 24  2  0
 22 23  2  0
 22 24  1  0
 22 26  1  0
M  END
>  <DRUGBANK_ID>  (1) 
DB00482

>  <SECONDARY_ACCESSION_NUMBERS>  (1) 
APRD00373

>  <COMMON_NAME>  (1) 
Celecoxib

>  <CAS_NUMBER>  (1) 
169590-42-5

>  <UNII>  (1) 
JCX84Q7J1L

>  <SYNONYMS>  (1) 
Celecoxib; Célécoxib; Celecoxibum; p-(5-p-Tolyl-3-(trifluoromethyl)pyrazol-1-yl)benzenesulfonamide

$$$$
