S57
     RDKit          3D

 21 22  0  0  0  0  0  0  0  0999 V2000
    0.9908    0.0722    0.0335 C   0  0  0  0  0  0  0  0  0  0  0  0
    0.3597    0.9602    0.9606 O   0  0  0  0  0  0  0  0  0  0  0  0
    0.7191    0.8278    2.2732 C   0  0  0  0  0  0  0  0  0  0  0  0
    2.0206    0.9254    2.7088 C   0  0  0  0  0  0  0  0  0  0  0  0
    2.2363    1.1426    4.0828 C   0  0  0  0  0  0  0  0  0  0  0  0
    3.2171    2.5291    4.5218 Cl  0  0  0  0  0  0  0  0  0  0  0  0
    1.3441    0.7051    5.0411 C   0  0  0  0  0  0  0  0  0  0  0  0
    0.0235    0.7351    4.6207 C   0  0  0  0  0  0  0  0  0  0  0  0
   -0.2824    0.8872    3.2456 C   0  0  0  0  0  0  0  0  0  0  0  0
    1.6529    0.3555    6.3281 O   0  0  0  0  0  0  0  0  0  0  0  0
    3.0110   -0.0090    6.6966 C   0  0  0  0  0  0  0  0  0  0  0  0
    3.5822   -1.3117    6.1026 C   0  0  0  0  0  0  0  0  0  0  0  0
    3.7206   -1.3681    4.5886 C   0  0  0  0  0  0  0  0  0  0  0  0
    4.7056   -0.3678    3.9772 C   0  0  0  0  0  0  0  0  0  0  0  0
    6.1469   -0.5673    4.3964 C   0  0  0  0  0  0  0  0  0  0  0  0
    6.6534   -1.8075    3.6963 C   0  0  0  0  0  0  0  0  0  0  0  0
    6.5505   -1.6811    2.2487 N   0  0  0  0  0  0  0  0  0  0  0  0
    6.2018   -2.6880    1.3929 C   0  0  0  0  0  0  0  0  0  0  0  0
    6.0097   -2.2521    0.1747 N   0  0  0  0  0  0  0  0  0  0  0  0
    6.1981   -0.8953    0.2427 C   0  0  0  0  0  0  0  0  0  0  0  0
    6.5227   -0.5202    1.5095 C   0  0  0  0  0  0  0  0  0  0  0  0
  1  2  1  0
  2  3  1  0
  3  4  2  0
  3  9  1  0
  4  5  1  0
  5  6  1  0
  5  7  2  0
  7  8  1  0
  7 10  1  0
  8  9  2  0
 10 11  1  0
 11 12  1  0
 12 13  1  0
 13 14  1  0
 14 15  1  0
 15 16  1  0
 16 17  1  0
 17 18  1  0
 17 21  1  0
 18 19  2  0
 19 20  1  0
 20 21  2  0
M  END
>  <DRUGBANK_ID>  (1) 
DB08509

>  <COMMON_NAME>  (1) 
1-[6-(2-CHLORO-4-METHYXYPHENOXY)-HEXYL]-IMIDAZOLE

$$$$
