
     RDKit          3D

 28 31  0  0  0  0  0  0  0  0999 V2000
   -0.7812    1.2597    0.3764 C   0  0  0  0  0  0  0  0  0  0  0  0
    0.6571    1.1732   -0.0446 C   0  0  0  0  0  0  0  0  0  0  0  0
    1.3674   -0.0640    0.2737 N   0  0  0  0  0  0  0  0  0  0  0  0
    0.6452   -1.2387   -0.2240 C   0  0  0  0  0  0  0  0  0  0  0  0
   -0.7857   -1.2852    0.2835 C   0  0  0  0  0  0  0  0  0  0  0  0
   -1.5534   -0.0017   -0.0497 C   0  0  0  0  0  0  0  0  0  0  0  0
   -2.8871    0.0064    0.5561 N   0  0  0  0  0  0  0  0  0  0  0  0
   -3.9892    0.1006   -0.3321 C   0  0  0  0  0  0  0  0  0  0  0  0
   -4.1841   -0.8957   -1.2320 N   0  0  0  0  0  0  0  0  0  0  0  0
   -5.3367   -0.8297   -1.9498 C   0  0  0  0  0  0  0  0  0  0  0  0
   -6.2389    0.2134   -1.8251 C   0  0  0  0  0  0  0  0  0  0  0  0
   -6.0342    1.2388   -0.9731 N   0  0  0  0  0  0  0  0  0  0  0  0
   -4.8999    1.1549   -0.2325 C   0  0  0  0  0  0  0  0  0  0  0  0
   -2.9997    0.0669    1.9593 C   0  0  0  0  0  0  0  0  0  0  0  0
   -2.0102    0.1279    2.6991 O   0  0  0  0  0  0  0  0  0  0  0  0
   -4.3147   -0.0073    2.5370 C   0  0  0  0  0  0  0  0  0  0  0  0
   -5.4018   -0.7983    2.2269 C   0  0  0  0  0  0  0  0  0  0  0  0
   -6.4420   -0.4060    3.0906 C   0  0  0  0  0  0  0  0  0  0  0  0
   -5.9172    0.5643    3.9105 C   0  0  0  0  0  0  0  0  0  0  0  0
   -4.6222    0.8101    3.5885 O   0  0  0  0  0  0  0  0  0  0  0  0
    2.7471   -0.0331   -0.2707 C   0  0  0  0  0  0  0  0  0  0  0  0
    2.9117   -0.0303   -1.8268 C   0  0  0  0  0  0  0  0  0  0  0  0
    2.3436    1.2030   -2.5129 C   0  0  0  0  0  0  0  0  0  0  0  0
    1.0977    1.1598   -3.1811 C   0  0  0  0  0  0  0  0  0  0  0  0
    0.3960    2.3454   -3.4400 C   0  0  0  0  0  0  0  0  0  0  0  0
    0.9632    3.5756   -3.1109 C   0  0  0  0  0  0  0  0  0  0  0  0
    2.2139    3.6253   -2.4955 C   0  0  0  0  0  0  0  0  0  0  0  0
    2.9144    2.4498   -2.2239 C   0  0  0  0  0  0  0  0  0  0  0  0
  1  2  1  0
  1  6  1  0
  2  3  1  0
  3  4  1  0
  3 21  1  0
  4  5  1  0
  5  6  1  0
  6  7  1  0
  7  8  1  0
  7 14  1  0
  8  9  2  0
  8 13  1  0
  9 10  1  0
 10 11  2  0
 11 12  1  0
 12 13  2  0
 14 15  2  0
 14 16  1  0
 16 17  2  0
 16 20  1  0
 17 18  1  0
 18 19  2  0
 19 20  1  0
 21 22  1  0
 22 23  1  0
 23 24  2  0
 23 28  1  0
 24 25  1  0
 25 26  2  0
 26 27  1  0
 27 28  2  0
M  END
>  <DRUGBANK_ID>  (1) 
DB09175

>  <COMMON_NAME>  (1) 
Mirfentanil

>  <CAS_NUMBER>  (1) 
117523-47-4

>  <UNII>  (1) 
Q2U943H24P

>  <SYNONYMS>  (1) 
Mirfentanil

$$$$
