
     RDKit          3D

  8  7  0  0  0  0  0  0  0  0999 V2000
    1.0872   -0.1241    0.0097 N   0  0  0  0  0  0  0  0  0  0  0  0
    0.6324    0.3605    1.3384 C   0  0  0  0  0  0  0  0  0  0  0  0
    1.1386    1.7839    1.5398 C   0  0  0  0  0  0  0  0  0  0  0  0
    0.5554    2.7909    0.5307 C   0  0  0  0  0  0  0  0  0  0  0  0
   -0.9776    2.8496    0.5165 C   0  0  0  0  0  0  0  0  0  0  0  0
   -1.5331    3.2330    1.8668 C   0  0  0  0  0  0  0  0  0  0  0  0
   -2.2637    4.3553    1.8902 O   0  0  0  0  0  0  0  0  0  0  0  0
   -1.3364    2.5525    2.8674 O   0  0  0  0  0  0  0  0  0  0  0  0
  1  2  1  0
  2  3  1  0
  3  4  1  0
  4  5  1  0
  5  6  1  0
  6  7  1  0
  6  8  2  0
M  CHG  1   1   1
M  END
>  <DRUGBANK_ID>  (1) 
DB02068

>  <SECONDARY_ACCESSION_NUMBERS>  (1) 
EXPT01116

>  <COMMON_NAME>  (1) 
Delta-Amino Valeric Acid

$$$$
