
     RDKit          3D

 11 10  0  0  0  0  0  0  0  0999 V2000
    1.1483    0.0268    0.0539 C   0  0  0  0  0  0  0  0  0  0  0  0
    0.5893    1.3852    0.5379 C   0  0  0  0  0  0  0  0  0  0  0  0
    1.0381    2.4457   -0.5031 C   0  0  0  0  0  0  0  0  0  0  0  0
   -0.9606    1.3064    0.5499 C   0  0  0  0  0  0  0  0  0  0  0  0
   -1.6931    0.1609    1.7369 S   0  0  0  0  0  0  0  0  0  0  0  0
   -1.0877    0.2786    3.0382 O   0  0  0  0  0  0  0  0  0  0  0  0
   -3.1332    0.1724    1.5804 O   0  0  0  0  0  0  0  0  0  0  0  0
   -1.2119   -1.2558    1.1326 O   0  0  0  0  0  0  0  0  0  0  0  0
    1.1240    1.7413    1.8747 N   0  0  0  0  0  0  0  0  0  0  0  0
    2.8828    1.6984    2.0413 Cl  0  0  0  0  0  0  0  0  0  0  0  0
    0.5295    3.2741    2.5382 Cl  0  0  0  0  0  0  0  0  0  0  0  0
  1  2  1  0
  2  3  1  0
  2  4  1  0
  2  9  1  0
  4  5  1  0
  5  6  2  0
  5  7  2  0
  5  8  1  0
  9 10  1  0
  9 11  1  0
M  END
>  <DRUGBANK_ID>  (1) 
DB12197

>  <COMMON_NAME>  (1) 
Auriclosene

>  <CAS_NUMBER>  (1) 
846056-87-9

>  <UNII>  (1) 
BKR7Y95229

>  <SYNONYMS>  (1) 
Auriclosene

$$$$
