1053
     RDKit          3D

 23 25  0  0  1  0  0  0  0  0999 V2000
    0.9056   -1.0069   -0.6554 S   0  0  0  0  0  0  0  0  0  0  0  0
   -2.8220    1.2677   -0.6508 O   0  0  0  0  0  0  0  0  0  0  0  0
   -0.5075    3.6528    0.9417 O   0  0  0  0  0  0  0  0  0  0  0  0
    1.1028    2.6350    2.0920 O   0  0  0  0  0  0  0  0  0  0  0  0
   -2.1668   -3.9797   -2.4108 O   0  0  0  0  0  0  0  0  0  0  0  0
   -0.8664    0.5893    0.4108 N   0  0  0  0  0  0  0  0  0  0  0  0
   -2.0077   -2.0272   -1.3321 N   0  0  0  0  0  0  0  0  0  0  0  0
   -0.5468   -0.8187    0.3942 C   0  0  1  0  0  0  0  0  0  0  0  0
    1.5324    0.6197   -0.0325 C   0  0  0  0  0  0  0  0  0  0  0  0
    0.2332    1.4930    0.0912 C   0  0  2  0  0  0  0  0  0  0  0  0
   -1.9624   -1.1278   -0.1573 C   0  0  1  0  0  0  0  0  0  0  0  0
   -2.0433    0.4235   -0.2490 C   0  0  0  0  0  0  0  0  0  0  0  0
    2.4574    1.1337   -1.1227 C   0  0  0  0  0  0  0  0  0  0  0  0
    2.3312    0.3726    1.2671 C   0  0  0  0  0  0  0  0  0  0  0  0
    0.3493    2.6249    1.1297 C   0  0  0  0  0  0  0  0  0  0  0  0
   -2.1470   -3.4021   -1.3184 C   0  0  0  0  0  0  0  0  0  0  0  0
   -2.3912   -4.1900   -0.0031 C   0  0  0  0  0  0  0  0  0  0  0  0
   -1.2631   -4.2198    1.0194 C   0  0  0  0  0  0  0  0  0  0  0  0
   -0.4286   -5.3126    1.2396 C   0  0  0  0  0  0  0  0  0  0  0  0
   -1.0203   -3.1338    1.8471 C   0  0  0  0  0  0  0  0  0  0  0  0
    0.7041   -5.2025    2.0773 C   0  0  0  0  0  0  0  0  0  0  0  0
    0.2040   -2.9408    2.5021 C   0  0  0  0  0  0  0  0  0  0  0  0
    1.0748   -3.9857    2.6301 C   0  0  0  0  0  0  0  0  0  0  0  0
  8  1  1  6
  1  9  1  0
  2 12  2  0
  3 15  1  0
  4 15  2  0
  5 16  2  0
  6  8  1  0
  6 10  1  0
  6 12  1  0
  7 16  1  0
  8 11  1  0
  9 10  1  0
  9 13  1  0
  9 14  1  0
 10 15  1  1
 11 12  1  0
 11  7  1  6
 16 17  1  0
 17 18  1  0
 18 19  2  0
 18 20  1  0
 19 21  1  0
 20 22  2  0
 21 23  2  0
 22 23  1  0
M  END
>  <DRUGBANK_ID>  (1) 
DB01053

>  <SECONDARY_ACCESSION_NUMBERS>  (1) 
APRD00646; DB11612

>  <COMMON_NAME>  (1) 
Benzylpenicillin

>  <CAS_NUMBER>  (1) 
61-33-6

>  <UNII>  (1) 
Q42T66VG0C

>  <SYNONYMS>  (1) 
(2S,5R,6R)-3,3-dimethyl-7-oxo-6-(phenylacetamido)-4-thia-1-azabicyclo[3.2.0]heptane-2-carboxylic acid; 6-(2-phenylacetamido)penicillanic acid; Bencilpenicilina; Bensylpenicillin; Benzyl benicillin; Benzylpenicillin; Benzylp√©nicilline; Benzylpenicillinic acid; Benzylpenicillinum; Free penicillin II; PCG; Penicillin G; PG

$$$$
