
     RDKit          3D

 11 11  0  0  0  0  0  0  0  0999 V2000
   -1.3900   -0.1120   -0.0540 C   0  0  0  0  0  0  0  0  0  0  0  0
   -3.4558   -0.2009   -0.2799 Hg  0  0  0  0  0  2  0  0  0  0  0  0
   -0.7320    1.1400    0.1000 C   0  0  0  0  0  0  0  0  0  0  0  0
   -0.6590   -1.2280   -0.0510 C   0  0  0  0  0  0  0  0  0  0  0  0
   -5.4223   -0.2855   -0.4949 O   0  0  0  0  0  0  0  0  0  0  0  0
    0.6630    1.2080   -0.0480 C   0  0  0  0  0  0  0  0  0  0  0  0
    0.7450   -1.1270    0.1040 C   0  0  0  0  0  0  0  0  0  0  0  0
   -6.0104   -1.3427   -1.2384 C   0  0  0  0  0  0  0  0  0  0  0  0
    1.3710    0.1170   -0.0510 C   0  0  0  0  0  0  0  0  0  0  0  0
   -5.1302   -2.4095   -1.8692 C   0  0  0  0  0  0  0  0  0  0  0  0
   -7.2726   -1.3971   -1.3764 O   0  0  0  0  0  0  0  0  0  0  0  0
  1  2  1  0
  1  3  2  0
  1  4  1  0
  2  5  1  0
  3  6  1  0
  4  7  2  0
  5  8  1  0
  6  9  2  0
  7  9  1  0
  8 10  1  0
  8 11  2  0
M  END
>  <DRUGBANK_ID>  (1) 
DB17044

>  <COMMON_NAME>  (1) 
Phenylmercuric acetate

>  <CAS_NUMBER>  (1) 
62-38-4

>  <UNII>  (1) 
OSX88361UX

>  <SYNONYMS>  (1) 
(acetato)phenylmercury; Mercury, (acetato-o)phenyl-; Phenyl mercuric acetate; Phenylmercury acetate

$$$$
