
     RDKit          3D

 14 13  0  0  0  0  0  0  0  0999 V2000
    1.0229   -0.0339    0.2447 C   0  0  0  0  0  0  0  0  0  0  0  0
    0.2835   -0.7804   -0.8734 C   0  0  1  0  0  0  0  0  0  0  0  0
    0.4643    0.5765    1.1490 O   0  0  0  0  0  0  0  0  0  0  0  0
   -0.5468   -1.8352   -0.2349 N   0  0  0  0  0  0  0  0  0  0  0  0
   -0.0238    1.6700   -2.5357 S   0  0  0  0  0  0  0  0  0  0  0  0
   -0.6452    0.1647   -1.6607 C   0  0  0  0  0  0  0  0  0  0  0  0
    2.3756   -0.1207    0.1779 O   0  0  0  0  0  0  0  0  0  0  0  0
    2.8718    1.9847   -4.1729 C   0  0  0  0  0  0  0  0  0  0  0  0
    3.4901    2.8356   -3.0618 C   0  0  1  0  0  0  0  0  0  0  0  0
    2.7404    2.3101   -5.3374 O   0  0  0  0  0  0  0  0  0  0  0  0
    4.3831    3.8514   -3.6964 N   0  0  0  0  0  0  0  0  0  0  0  0
    1.2335    2.6367   -1.2251 S   0  0  0  0  0  0  0  0  0  0  0  0
    2.4422    3.5830   -2.2220 C   0  0  0  0  0  0  0  0  0  0  0  0
    2.4230    0.7866   -3.7395 O   0  0  0  0  0  0  0  0  0  0  0  0
  1  2  1  0
  1  3  2  0
  2  4  1  1
  2  6  1  0
  5  6  1  0
  5 12  1  0
  7  1  1  0
  8  9  1  0
  8 10  2  0
  9 11  1  6
  9 13  1  0
 12 13  1  0
 14  8  1  0
M  END
>  <DRUGBANK_ID>  (1) 
DB00138

>  <SECONDARY_ACCESSION_NUMBERS>  (1) 
NUTR00023

>  <COMMON_NAME>  (1) 
Cystine

>  <CAS_NUMBER>  (1) 
56-89-3

>  <UNII>  (1) 
48TCX9A1VT

>  <SYNONYMS>  (1) 
(R,R)-3,3'-dithiobis(2-aminopropanoic acid); Cistina; Cystine; L-alpha-Diamino-beta-dithiolactic acid; L-Cystine; L-Dicysteine; β,β'-dithiodialanine

$$$$
