
     RDKit          3D

 18 20  0  0  0  0  0  0  0  0999 V2000
    1.0875    0.0807    0.0027 C   0  0  0  0  0  0  0  0  0  0  0  0
    0.4878   -1.3365    0.0456 C   0  0  0  0  0  0  0  0  0  0  0  0
   -0.6724   -1.3965   -0.9640 C   0  0  0  0  0  0  0  0  0  0  0  0
    0.0475   -1.6428    1.4858 C   0  0  0  0  0  0  0  0  0  0  0  0
   -0.5971   -3.0140    1.5447 C   0  0  0  0  0  0  0  0  0  0  0  0
    0.2309   -3.9952    0.7787 C   0  0  0  0  0  0  0  0  0  0  0  0
    1.2018   -3.6298   -0.0796 C   0  0  0  0  0  0  0  0  0  0  0  0
    1.4916   -2.2970   -0.3703 O   0  0  0  0  0  0  0  0  0  0  0  0
    2.0010   -4.6361   -0.8113 C   0  0  0  0  0  0  0  0  0  0  0  0
    3.0112   -4.2705   -1.7160 C   0  0  0  0  0  0  0  0  0  0  0  0
    3.7539   -5.2446   -2.3981 C   0  0  0  0  0  0  0  0  0  0  0  0
    3.5003   -6.5986   -2.1924 C   0  0  0  0  0  0  0  0  0  0  0  0
    2.5012   -6.9823   -1.3083 C   0  0  0  0  0  0  0  0  0  0  0  0
    1.7610   -6.0074   -0.6278 C   0  0  0  0  0  0  0  0  0  0  0  0
    0.7085   -6.4605    0.2932 C   0  0  0  0  0  0  0  0  0  0  0  0
    0.4787   -7.6516    0.4717 O   0  0  0  0  0  0  0  0  0  0  0  0
   -0.0965   -5.4156    1.0220 C   0  0  0  0  0  0  0  0  0  0  0  0
   -0.9992   -5.7450    1.7838 O   0  0  0  0  0  0  0  0  0  0  0  0
  1  2  1  0
  2  3  1  0
  2  4  1  0
  2  8  1  0
  4  5  1  0
  5  6  1  0
  6  7  2  0
  6 17  1  0
  7  8  1  0
  7  9  1  0
  9 10  2  0
  9 14  1  0
 10 11  1  0
 11 12  2  0
 12 13  1  0
 13 14  2  0
 14 15  1  0
 15 16  2  0
 15 17  1  0
 17 18  2  0
M  END
>  <DRUGBANK_ID>  (1) 
DB11948

>  <SECONDARY_ACCESSION_NUMBERS>  (1) 
DB05515

>  <COMMON_NAME>  (1) 
Lapachone

>  <CAS_NUMBER>  (1) 
4707-32-8

>  <UNII>  (1) 
6N4FA2QQ6A

$$$$
