
     RDKit          3D

 13 13  0  0  0  0  0  0  0  0999 V2000
    2.4944    0.0094   -0.0118 C   0  0  0  0  0  0  0  0  0  0  0  0
   -4.9737   -1.3456    1.2241 C   0  0  0  0  0  0  0  0  0  0  0  0
   -5.6605   -2.6417   -1.3608 C   0  0  0  0  0  0  0  0  0  0  0  0
    0.2737    1.2123    0.0061 C   0  0  0  0  0  0  0  0  0  0  0  0
    0.3024   -1.1954    0.0077 C   0  0  0  0  0  0  0  0  0  0  0  0
   -1.1258    1.1960   -0.0035 C   0  0  0  0  0  0  0  0  0  0  0  0
   -1.0929   -1.2127   -0.0031 C   0  0  0  0  0  0  0  0  0  0  0  0
    0.9962    0.0153    0.0057 C   0  0  0  0  0  0  0  0  0  0  0  0
   -4.1216   -1.3070   -0.0423 C   0  0  0  0  0  0  0  0  0  0  0  0
   -1.8251   -0.0201   -0.0180 C   0  0  0  0  0  0  0  0  0  0  0  0
   -3.3236    0.0106   -0.0550 C   0  0  0  0  0  0  0  0  0  0  0  0
   -4.9215   -1.3889   -1.2798 N   0  0  0  0  0  0  0  0  0  0  0  0
   -3.9000    1.1052   -0.0734 O   0  0  0  0  0  0  0  0  0  0  0  0
  6  4  2  0
  7  5  1  0
  8  1  1  0
  8  4  1  0
  8  5  2  0
  9  2  1  0
 10  6  1  0
 10  7  2  0
 11  9  1  0
 11 10  1  0
 12  3  1  0
 12  9  1  0
 13 11  2  0
M  END
>  <DRUGBANK_ID>  (1) 
DB13108

>  <COMMON_NAME>  (1) 
Mephedrone

>  <CAS_NUMBER>  (1) 
1189805-46-6

>  <UNII>  (1) 
8BA8T27317

$$$$
