
     RDKit          3D

  1  0  0  0  0  0  0  0  0  0999 V2000
    0.9925   -0.0326    0.0630 N   0  0  0  0  0  0  0  0  0  0  0  0
M  ISO  1   1  13
M  END
>  <DRUGBANK_ID>  (1) 
DB09326

>  <COMMON_NAME>  (1) 
Ammonia N-13

>  <CAS_NUMBER>  (1) 
34819-78-8

>  <UNII>  (1) 
9OQO0E343Z

>  <SYNONYMS>  (1) 
(13N)Ammonia; Ammonia N 13

$$$$
