1054
     RDKit          3D

 26 27  0  0  1  0  0  0  0  0999 V2000
    1.0022    0.1652   -0.1733 O   0  0  0  0  0  0  0  0  0  0  0  0
   -5.4520    3.4535    2.0548 O   0  0  0  0  0  0  0  0  0  0  0  0
    1.0749    1.3593    1.7862 O   0  0  0  0  0  0  0  0  0  0  0  0
   -3.8349    4.3704    0.8987 O   0  0  0  0  0  0  0  0  0  0  0  0
    2.7177    6.0706    1.8639 O   0  0  0  0  0  0  0  0  0  0  0  0
    2.6898    4.3447    0.5094 O   0  0  0  0  0  0  0  0  0  0  0  0
   -3.0141   -0.3194    0.7231 N   0  0  0  0  0  0  0  0  0  0  0  0
    2.1573    5.0981    1.3400 N   0  0  0  0  0  0  0  0  0  0  0  0
   -1.8883    2.2488    0.7751 C   0  0  0  0  0  0  0  0  0  0  0  0
   -1.0399    0.9158    0.7493 C   0  0  0  0  0  0  0  0  0  0  0  0
   -3.4446    2.0165    1.1358 C   0  0  0  0  0  0  0  0  0  0  0  0
   -1.1738    3.3698    1.5489 C   0  0  0  0  0  0  0  0  0  0  0  0
   -1.6601   -0.2801    0.7553 C   0  0  0  0  0  0  0  0  0  0  0  0
   -3.8265    0.7059    1.0995 C   0  0  0  0  0  0  0  0  0  0  0  0
    0.0781    3.8052    1.0792 C   0  0  0  0  0  0  0  0  0  0  0  0
    0.4336    0.8556    0.8502 C   0  0  0  0  0  0  0  0  0  0  0  0
   -1.7226    4.0612    2.6362 C   0  0  0  0  0  0  0  0  0  0  0  0
   -1.0675   -1.6520    0.8806 C   0  0  0  0  0  0  0  0  0  0  0  0
   -5.1298    0.1201    1.4312 C   0  0  0  0  0  0  0  0  0  0  0  0
   -4.2923    3.3087    1.3341 C   0  0  0  0  0  0  0  0  0  0  0  0
    0.7735    4.8238    1.7271 C   0  0  0  0  0  0  0  0  0  0  0  0
   -1.1439    5.2418    3.0994 C   0  0  0  0  0  0  0  0  0  0  0  0
    0.1429    5.5864    2.7065 C   0  0  0  0  0  0  0  0  0  0  0  0
    2.4369    0.0764   -0.0865 C   0  0  0  0  0  0  0  0  0  0  0  0
   -6.4910    2.5051    2.3104 C   0  0  0  0  0  0  0  0  0  0  0  0
    2.9567   -1.0151   -1.0051 C   0  0  0  0  0  0  0  0  0  0  0  0
  1 16  1  0
  1 24  1  0
  2 20  1  0
  2 25  1  0
  3 16  2  0
  4 20  2  0
  5  8  1  0
  6  8  2  0
  7 13  1  0
  7 14  1  0
  8 21  1  0
  9 10  1  0
  9 11  1  0
  9 12  1  0
 10 13  2  0
 10 16  1  0
 11 14  2  0
 11 20  1  0
 12 15  2  0
 12 17  1  0
 13 18  1  0
 14 19  1  0
 15 21  1  0
 17 22  2  0
 21 23  2  0
 22 23  1  0
 24 26  1  0
M  CHG  2   5  -1   8   1
M  END
>  <DRUGBANK_ID>  (1) 
DB01054

>  <SECONDARY_ACCESSION_NUMBERS>  (1) 
APRD00421

>  <COMMON_NAME>  (1) 
Nitrendipine

>  <CAS_NUMBER>  (1) 
39562-70-4

>  <UNII>  (1) 
9B627AW319

>  <SYNONYMS>  (1) 
1,4-dihydro-2,6-dimethyl-4-(3-nitrophenyl)-3,5-pyridinedicarboxylic acid ethyl methyl ester; Nitrendipine; Nitrendipino; Nitrendipinum

$$$$
