
     RDKit          3D

 26 28  0  0  1  0  0  0  0  0999 V2000
    0.8607    0.0885   -0.0713 C   0  0  0  0  0  0  0  0  0  0  0  0
    0.4178   -0.4126    1.1988 O   0  0  0  0  0  0  0  0  0  0  0  0
    0.8656   -1.6816    1.4715 C   0  0  0  0  0  0  0  0  0  0  0  0
    2.1518   -2.1325    1.1652 C   0  0  0  0  0  0  0  0  0  0  0  0
    3.1291   -1.2050    0.9390 O   0  0  0  0  0  0  0  0  0  0  0  0
    4.4886   -1.6234    0.8160 C   0  0  0  0  0  0  0  0  0  0  0  0
    5.2071   -1.8801    2.1512 C   0  0  0  0  0  0  0  0  0  0  0  0
    4.7184   -3.0584    2.9703 C   0  0  0  0  0  0  0  0  0  0  0  0
    4.9159   -4.2027    2.2588 F   0  0  0  0  0  0  0  0  0  0  0  0
    2.4119   -3.4853    1.2555 C   0  0  0  0  0  0  0  0  0  0  0  0
    1.6258   -4.3236    2.0348 C   0  0  0  0  0  0  0  0  0  0  0  0
    2.2401   -5.5909    2.5474 C   0  0  0  0  0  0  0  0  0  0  0  0
    1.3051   -6.6134    3.1633 C   0  0  0  0  0  0  0  0  0  0  0  0
   -0.0803   -6.2510    3.2426 N   0  0  0  0  0  0  0  0  0  0  0  0
   -0.9939   -7.2882    3.6791 C   0  0  0  0  0  0  0  0  0  0  0  0
   -2.1695   -7.3629    2.6978 C   0  0  1  0  0  0  0  0  0  0  0  0
   -3.2267   -8.3689    3.1767 C   0  0  0  0  0  0  0  0  0  0  0  0
   -4.3978   -8.5138    2.1919 C   0  0  0  0  0  0  0  0  0  0  0  0
   -3.9212   -8.9810    0.8137 C   0  0  0  0  0  0  0  0  0  0  0  0
   -5.4732   -9.4312    2.7420 C   0  0  0  0  0  0  0  0  0  0  0  0
   -2.7599   -5.9577    2.4853 C   0  0  2  0  0  0  0  0  0  0  0  0
   -3.7554   -5.8840    1.4705 O   0  0  0  0  0  0  0  0  0  0  0  0
   -1.6912   -5.0127    2.0194 C   0  0  0  0  0  0  0  0  0  0  0  0
   -0.5814   -4.8933    3.0498 C   0  0  2  0  0  0  0  0  0  0  0  0
    0.3716   -3.8882    2.4418 C   0  0  0  0  0  0  0  0  0  0  0  0
   -0.0168   -2.5640    2.1103 C   0  0  0  0  0  0  0  0  0  0  0  0
  1  2  1  0
  2  3  1  0
  3  4  2  0
  3 26  1  0
  4  5  1  0
  4 10  1  0
  5  6  1  0
  6  7  1  0
  7  8  1  0
  8  9  1  0
 10 11  2  0
 11 12  1  0
 11 25  1  0
 12 13  1  0
 13 14  1  0
 14 15  1  0
 16 15  1  0
 16 17  1  1
 16 21  1  0
 17 18  1  0
 18 19  1  0
 18 20  1  0
 21 22  1  6
 21 23  1  0
 24 23  1  6
 24 14  1  0
 24 25  1  0
 25 26  2  0
M  ISO  1   9  18
M  END
>  <DRUGBANK_ID>  (1) 
DB14945

>  <COMMON_NAME>  (1) 
Florbenazine F-18

>  <CAS_NUMBER>  (1) 
956903-29-0

>  <UNII>  (1) 
KM31LBX59H

>  <SYNONYMS>  (1) 
18F-AV-133

$$$$
