
     RDKit          3D

 29 31  0  0  0  0  0  0  0  0999 V2000
   -1.9422    0.9249   -1.8003 C   0  0  1  0  0  0  0  0  0  0  0  0
   -2.0107    0.7783   -0.2288 C   0  0  1  0  0  0  0  0  0  0  0  0
   -3.5589    0.9987   -2.0886 C   0  0  2  0  0  0  0  0  0  0  0  0
   -0.7468    1.3498    0.4350 C   0  0  0  0  0  0  0  0  0  0  0  0
   -3.9397    1.1169   -4.9619 C   0  0  0  0  0  0  0  0  0  0  0  0
   -0.6781    2.4696    1.2055 C   0  0  0  0  0  0  0  0  0  0  0  0
   -3.1383    1.8049   -5.7264 C   0  0  0  0  0  0  0  0  0  0  0  0
    0.6710    4.2063    2.3738 C   0  0  0  0  0  0  0  0  0  0  0  0
   -3.3079    1.5425    0.2270 C   0  0  0  0  0  0  0  0  0  0  0  0
   -4.3547    1.1600   -0.7744 C   0  0  0  0  0  0  0  0  0  0  0  0
    0.5591    3.1215    1.5590 C   0  0  0  0  0  0  0  0  0  0  0  0
   -2.2040    2.6068   -6.6177 C   0  0  0  0  0  0  0  0  0  0  0  0
    0.9879    5.3901    4.9941 C   0  0  0  0  0  0  0  0  0  0  0  0
    2.1840    4.7143    4.3065 C   0  0  1  0  0  0  0  0  0  0  0  0
   -0.3241    4.7309    4.5613 C   0  0  1  0  0  0  0  0  0  0  0  0
    2.0233    4.7622    2.7730 C   0  0  0  0  0  0  0  0  0  0  0  0
   -0.5032    4.8514    3.0486 C   0  0  0  0  0  0  0  0  0  0  0  0
   -4.2880   -0.2602   -2.9073 C   0  0  1  0  0  0  0  0  0  0  0  0
   -0.4418    1.3409   -2.1757 C   0  0  0  0  0  0  0  0  0  0  0  0
   -1.7161    0.2267   -3.1365 C   0  0  0  0  0  0  0  0  0  0  0  0
   -4.9330    0.3493   -4.1636 C   0  0  0  0  0  0  0  0  0  0  0  0
   -2.6502    2.5207   -7.9655 O   0  0  0  0  0  0  0  0  0  0  0  0
    3.4247    5.2726    4.7269 O   0  0  0  0  0  0  0  0  0  0  0  0
   -0.3418    3.3570    4.9659 O   0  0  0  0  0  0  0  0  0  0  0  0
    0.4972    0.6464    0.0346 C   0  0  0  0  0  0  0  0  0  0  0  0
    0.7687    0.9447   -1.3834 C   0  0  0  0  0  0  0  0  0  0  0  0
   -2.2229    4.0711   -6.1869 C   0  0  0  0  0  0  0  0  0  0  0  0
   -0.7840    2.0515   -6.5259 C   0  0  0  0  0  0  0  0  0  0  0  0
   -3.4695   -1.5269   -3.3606 C   0  0  0  0  0  0  0  0  0  0  0  0
  1 20  1  6
  2  1  1  0
  3  1  1  0
  3 18  1  0
  4  2  1  0
  5 21  1  0
  6  4  2  0
  7  5  3  0
  8 11  2  0
  2  9  1  1
  3 10  1  1
 10  9  1  0
 11  6  1  0
 12  7  1  0
 13 15  1  0
 13 14  1  0
 14 16  1  0
 14 23  1  6
 15 17  1  0
 15 24  1  6
 16  8  1  0
 17  8  1  0
 18 29  1  6
 19  1  1  0
 21 18  1  0
 22 12  1  0
 25 26  1  0
 25  4  1  0
 26 19  1  0
 27 12  1  0
 28 12  1  0
M  END
>  <DRUGBANK_ID>  (1) 
DB04796

>  <COMMON_NAME>  (1) 
Inecalcitol

>  <CAS_NUMBER>  (1) 
163217-09-2

>  <UNII>  (1) 
05FZV98342

>  <SYNONYMS>  (1) 
(7E)-19-Nor-9,10-seco-14beta-cholesta-5,7-dien-23-yne-1alpha,3beta,25-triol; Inecalcitol

$$$$
