
     RDKit          3D

 24 26  0  0  0  0  0  0  0  0999 V2000
    0.9738   -0.0083    0.1131 C   0  0  0  0  0  0  0  0  0  0  0  0
    0.3875    0.0580    1.4046 O   0  0  0  0  0  0  0  0  0  0  0  0
    0.8637   -0.7955    2.3576 C   0  0  0  0  0  0  0  0  0  0  0  0
    2.1695   -1.2685    2.4634 C   0  0  0  0  0  0  0  0  0  0  0  0
    2.5521   -2.0590    3.5662 C   0  0  0  0  0  0  0  0  0  0  0  0
    1.6390   -2.3764    4.5866 C   0  0  0  0  0  0  0  0  0  0  0  0
    1.9834   -3.3048    5.6063 N   0  0  0  0  0  0  0  0  0  0  0  0
    1.1966   -3.5222    6.6882 C   0  0  0  0  0  0  0  0  0  0  0  0
    1.4322   -3.2694    7.9581 N   0  0  0  0  0  0  0  0  0  0  0  0
    0.2885   -3.6136    8.6528 N   0  0  0  0  0  0  0  0  0  0  0  0
   -0.5434   -4.1249    7.7704 C   0  0  0  0  0  0  0  0  0  0  0  0
   -0.0320   -4.1199    6.4975 O   0  0  0  0  0  0  0  0  0  0  0  0
   -1.8138   -4.7981    8.0040 C   0  0  0  0  0  0  0  0  0  0  0  0
   -1.9209   -6.1633    7.7456 C   0  0  0  0  0  0  0  0  0  0  0  0
   -3.0310   -6.8982    8.1879 C   0  0  0  0  0  0  0  0  0  0  0  0
   -4.1254   -6.2859    8.8056 C   0  0  0  0  0  0  0  0  0  0  0  0
   -4.0039   -4.9107    9.0850 C   0  0  0  0  0  0  0  0  0  0  0  0
   -2.8714   -4.1743    8.6769 C   0  0  0  0  0  0  0  0  0  0  0  0
   -5.4341   -6.9555    9.1542 C   0  0  0  0  0  0  0  0  0  0  0  0
   -6.3109   -6.2900    9.6964 O   0  0  0  0  0  0  0  0  0  0  0  0
   -5.7359   -8.2535    8.8332 N   0  0  0  0  0  0  0  0  0  0  0  0
   -4.9033   -9.2287    8.2905 O   0  0  0  0  0  0  0  0  0  0  0  0
    0.3472   -1.8495    4.4756 C   0  0  0  0  0  0  0  0  0  0  0  0
   -0.0475   -1.1104    3.3599 C   0  0  0  0  0  0  0  0  0  0  0  0
  1  2  1  0
  2  3  1  0
  3  4  2  0
  3 24  1  0
  4  5  1  0
  5  6  2  0
  6  7  1  0
  6 23  1  0
  7  8  1  0
  8  9  2  0
  8 12  1  0
  9 10  1  0
 10 11  2  0
 11 12  1  0
 11 13  1  0
 13 14  2  0
 13 18  1  0
 14 15  1  0
 15 16  2  0
 16 17  1  0
 16 19  1  0
 17 18  2  0
 19 20  2  0
 19 21  1  0
 21 22  1  0
 23 24  2  0
M  END
>  <DRUGBANK_ID>  (1) 
DB17306

>  <COMMON_NAME>  (1) 
Metavert

>  <CAS_NUMBER>  (1) 
1841125-91-4

>  <UNII>  (1) 
IZB8PZ86FH

>  <SYNONYMS>  (1) 
Benzamide, n-hydroxy-4-(5-((4-methoxyphenyl)amino)-1,3,4-oxadiazol-2-yl)-; N-hydroxy-4-(5-((4-methoxyphenyl)amino)-1,3,4-oxadiazol-2-yl)benzamide

$$$$
