
     RDKit          3D

 14 14  0  0  0  0  0  0  0  0999 V2000
    0.9592    0.2884    0.0185 N   0  0  0  0  0  0  0  0  0  0  0  0
    0.4309    0.0220   -1.3316 C   0  0  1  0  0  0  0  0  0  0  0  0
    0.9564   -1.3055   -1.9241 C   0  0  0  0  0  0  0  0  0  0  0  0
    0.4625   -2.4859   -1.2413 O   0  0  0  0  0  0  0  0  0  0  0  0
    0.9296   -2.7197    0.0061 C   0  0  0  0  0  0  0  0  0  0  0  0
    1.7744   -2.0681    0.6085 O   0  0  0  0  0  0  0  0  0  0  0  0
    0.3119   -3.7587    0.6031 N   0  0  0  0  0  0  0  0  0  0  0  0
   -1.1189    0.0430   -1.3497 C   0  0  0  0  0  0  0  0  0  0  0  0
   -1.6350    1.2924   -0.6773 C   0  0  0  0  0  0  0  0  0  0  0  0
   -2.1287    1.2206    0.6321 C   0  0  0  0  0  0  0  0  0  0  0  0
   -2.3296    2.3861    1.3657 C   0  0  0  0  0  0  0  0  0  0  0  0
   -2.0280    3.6237    0.7993 C   0  0  0  0  0  0  0  0  0  0  0  0
   -1.5424    3.6993   -0.5055 C   0  0  0  0  0  0  0  0  0  0  0  0
   -1.4012    2.5418   -1.2642 C   0  0  0  0  0  0  0  0  0  0  0  0
  2  1  1  1
  2  3  1  0
  2  8  1  0
  3  4  1  0
  4  5  1  0
  5  6  2  0
  5  7  1  0
  8  9  1  0
  9 10  2  0
  9 14  1  0
 10 11  1  0
 11 12  2  0
 12 13  1  0
 13 14  2  0
M  END
>  <DRUGBANK_ID>  (1) 
DB14754

>  <SECONDARY_ACCESSION_NUMBERS>  (1) 
DB05795

>  <COMMON_NAME>  (1) 
Solriamfetol

>  <CAS_NUMBER>  (1) 
178429-62-4

>  <UNII>  (1) 
939U7C91AI

>  <SYNONYMS>  (1) 
(2R)-2-amino-3-phenylpropyl carbamate; Solriamfetol

$$$$
