
     RDKit          3D

 38 43  0  0  0  0  0  0  0  0999 V2000
    2.5839   -0.4912    0.0025 C   0  0  0  0  0  0  0  0  0  0  0  0
    2.2234    2.1210   -7.8625 C   0  0  0  0  0  0  0  0  0  0  0  0
    1.4732    3.0664   -8.5721 C   0  0  0  0  0  0  0  0  0  0  0  0
   -3.5549    1.8613   -1.6648 C   0  0  0  0  0  0  0  0  0  0  0  0
   -2.6408   -0.4807   -2.2143 C   0  0  0  0  0  0  0  0  0  0  0  0
    0.5173   -1.8470    0.4118 C   0  0  0  0  0  0  0  0  0  0  0  0
    0.4500    0.3248    0.3802 C   0  0  0  0  0  0  0  0  0  0  0  0
   -1.0394   -1.7334    0.2865 C   0  0  0  0  0  0  0  0  0  0  0  0
   -1.3063    0.5648    0.4965 C   0  0  0  0  0  0  0  0  0  0  0  0
   -2.1232   -0.2200    2.1771 C   0  0  0  0  0  0  0  0  0  0  0  0
   -4.7474    1.0924   -1.0780 C   0  0  0  0  0  0  0  0  0  0  0  0
   -3.8675   -1.0691   -1.4835 C   0  0  0  0  0  0  0  0  0  0  0  0
   -0.7746    0.5077    2.7429 C   0  0  0  0  0  0  0  0  0  0  0  0
    1.5229    2.9399    0.3299 C   0  0  0  0  0  0  0  0  0  0  0  0
   -0.6438    2.4727   -0.6955 C   0  0  0  0  0  0  0  0  0  0  0  0
    3.5706    3.0634   -2.6246 C   0  0  0  0  0  0  0  0  0  0  0  0
   -1.3992    4.7395   -7.4132 C   0  0  0  0  0  0  0  0  0  0  0  0
   -2.6398    1.0235   -2.5904 C   0  0  0  0  0  0  0  0  0  0  0  0
    0.1533    2.7403    0.6280 C   0  0  0  0  0  0  0  0  0  0  0  0
    1.9214    1.8297   -6.5391 C   0  0  0  0  0  0  0  0  0  0  0  0
    1.9250    2.8942   -1.0658 C   0  0  0  0  0  0  0  0  0  0  0  0
    0.4039    3.6710   -7.9393 C   0  0  0  0  0  0  0  0  0  0  0  0
   -0.3972    2.4459   -2.0438 C   0  0  0  0  0  0  0  0  0  0  0  0
    1.0002    2.6196   -2.2195 C   0  0  0  0  0  0  0  0  0  0  0  0
    0.8754    2.5078   -5.8898 C   0  0  0  0  0  0  0  0  0  0  0  0
    0.0993    3.3894   -6.6410 C   0  0  0  0  0  0  0  0  0  0  0  0
    1.5011    2.5379   -3.4662 C   0  0  0  0  0  0  0  0  0  0  0  0
    2.8176    0.5627   -5.7623 Cl  0  0  0  0  0  0  0  0  0  0  0  0
    3.2412    3.0333   -1.3330 N   0  0  0  0  0  0  0  0  0  0  0  0
    2.7936    2.8558   -3.7021 N   0  0  0  0  0  0  0  0  0  0  0  0
    0.6148    2.3598   -4.5586 N   0  0  0  0  0  0  0  0  0  0  0  0
    1.1347   -0.7415   -0.2734 N   0  0  0  0  0  0  0  0  0  0  0  0
   -1.8969   -0.6410    0.8173 N   0  0  0  0  0  0  0  0  0  0  0  0
   -4.4067   -0.1679   -0.5267 O   0  0  0  0  0  0  0  0  0  0  0  0
   -0.1337    2.0356    2.0989 O   0  0  0  0  0  0  0  0  0  0  0  0
   -0.4398    4.5905   -8.4819 O   0  0  0  0  0  0  0  0  0  0  0  0
   -0.9812    4.0965   -6.1928 O   0  0  0  0  0  0  0  0  0  0  0  0
   -1.2373    1.6174   -2.9146 O   0  0  0  0  0  0  0  0  0  0  0  0
  3  2  2  0
  8  6  1  0
  9  7  1  0
 11  4  1  0
 12  5  1  0
 13 10  1  0
 18  4  1  0
 18  5  1  0
 19 14  2  0
 19 15  1  0
 20  2  1  0
 21 14  1  0
 22  3  1  0
 23 15  2  0
 24 21  2  0
 24 23  1  0
 25 20  2  0
 26 22  2  0
 26 25  1  0
 27 24  1  0
 28 20  1  0
 29 16  2  0
 29 21  1  0
 30 16  1  0
 30 27  2  0
 31 25  1  0
 31 27  1  0
 32  1  1  0
 32  6  1  0
 32  7  1  0
 33  8  1  0
 33  9  1  0
 33 10  1  0
 34 11  1  0
 34 12  1  0
 35 13  1  0
 35 19  1  0
 36 17  1  0
 36 22  1  0
 37 17  1  0
 37 26  1  0
 38 18  1  0
 38 23  1  0
M  END
>  <DRUGBANK_ID>  (1) 
DB11805

>  <COMMON_NAME>  (1) 
Saracatinib

>  <CAS_NUMBER>  (1) 
379231-04-6

>  <UNII>  (1) 
9KD24QGH76

>  <SYNONYMS>  (1) 
Saracatinib

$$$$
