947
     RDKit          3D

  2  1  0  0  0  0  0  0  0  0999 V2000
    0.9831   -0.0533    0.0093 N   0  0  0  0  0  0  0  0  0  0  0  0
    2.4031   -0.0533    0.0093 N   0  0  0  0  0  0  0  0  0  0  0  0
  1  2  3  0
M  END
>  <DRUGBANK_ID>  (1) 
DB09152

>  <COMMON_NAME>  (1) 
Nitrogen

>  <CAS_NUMBER>  (1) 
7727-37-9

>  <UNII>  (1) 
N762921K75

$$$$
