
     RDKit          3D

 21 21  0  0  0  0  0  0  0  0999 V2000
    1.8929    0.3836   -1.0012 O   0  0  0  0  0  0  0  0  0  0  0  0
    0.7079    0.6698   -0.0319 C   0  0  0  0  0  0  0  0  0  0  0  0
    0.4776    2.0708   -0.0138 C   0  0  1  0  0  0  0  0  0  0  0  0
    1.1203    2.6127   -1.3441 C   0  0  1  0  0  0  0  0  0  0  0  0
    0.6009    3.9217   -1.4827 O   0  0  0  0  0  0  0  0  0  0  0  0
    2.7004    2.6316   -1.4062 C   0  0  0  0  0  0  0  0  0  0  0  0
    3.2365    3.1716   -0.2103 O   0  0  0  0  0  0  0  0  0  0  0  0
   -0.9649    2.1126    0.1175 O   0  0  0  0  0  0  0  0  0  0  0  0
   -1.5500    0.8628    0.4128 C   0  0  0  0  0  0  0  0  0  0  0  0
   -2.6508    0.5252    0.3153 O   0  0  0  0  0  0  0  0  0  0  0  0
   -0.4081   -0.0835    0.5003 C   0  0  0  0  0  0  0  0  0  0  0  0
   -0.8200   -1.4760    0.5763 O   0  0  0  0  0  0  0  0  0  0  0  0
    1.7630   -1.2596    0.5194 C   0  0  0  0  0  0  0  0  0  0  0  0
    0.7927   -1.4287   -1.1754 C   0  0  0  0  0  0  0  0  0  0  0  0
    1.0163   -2.4872   -1.9461 C   0  0  0  0  0  0  0  0  0  0  0  0
    0.1666   -2.6527   -3.0997 C   0  0  0  0  0  0  0  0  0  0  0  0
   -0.8582   -1.7859   -3.5948 C   0  0  0  0  0  0  0  0  0  0  0  0
   -1.0757   -0.6118   -3.0818 N   0  0  0  0  0  0  0  0  0  0  0  0
   -0.3050   -0.4672   -1.9794 C   0  0  0  0  0  0  0  0  0  0  0  0
    1.3099   -1.2156    1.6888 O   0  0  0  0  0  0  0  0  0  0  0  0
    3.0638   -0.4688    0.6450 N   0  0  0  0  0  0  0  0  0  0  0  0
  1  2  1  0
  2  3  1  0
  2 11  2  0
  3  4  1  0
  3  8  1  6
  4  5  1  1
  4  6  1  0
  6  7  1  0
  8  9  1  0
  9 10  2  0
  9 11  1  0
 11 12  1  0
 13 14  1  0
 13 20  2  0
 13 21  1  0
 14 15  2  0
 14 19  1  0
 15 16  1  0
 16 17  2  0
 17 18  1  0
 18 19  2  0
M  END
>  <DRUGBANK_ID>  (1) 
DB14486

>  <SECONDARY_ACCESSION_NUMBERS>  (1) 
DBSALT002426

>  <COMMON_NAME>  (1) 
Niacinamide ascorbate

>  <CAS_NUMBER>  (1) 
1987-71-9

>  <UNII>  (1) 
JTL8B7TVW7

>  <SYNONYMS>  (1) 
Ascorbic acid nicotinamide complex; Niacinamide ascorbate; Nicotinamide-ascorbic acid complex

$$$$
