
     RDKit          3D

 25 28  0  0  1  0  0  0  0  0999 V2000
    1.6090   -0.1942   -0.3314 C   0  0  0  0  0  0  0  0  0  0  0  0
    1.3190   -0.9053   -1.6969 C   0  0  2  0  0  0  0  0  0  0  0  0
    2.9418   -1.3692   -2.7438 C   0  0  0  0  0  0  0  0  0  0  0  0
    2.7881   -1.8565   -4.3838 C   0  0  0  0  0  0  0  0  0  0  0  0
    1.4055   -1.9334   -4.0380 C   0  0  0  0  0  0  0  0  0  0  0  0
    1.0642   -2.9107   -3.3636 O   0  0  0  0  0  0  0  0  0  0  0  0
    0.8472   -0.5315   -4.0101 C   0  0  0  0  0  0  0  0  0  0  0  0
    0.7521   -0.0052   -2.7752 C   0  0  0  0  0  0  0  0  0  0  0  0
   -0.1764    1.1515   -2.4559 C   0  0  0  0  0  0  0  0  0  0  0  0
   -1.6575    0.7385   -1.9687 C   0  0  0  0  0  0  0  0  0  0  0  0
   -1.6765   -0.2528   -0.6931 C   0  0  2  0  0  0  0  0  0  0  0  0
   -0.3852   -1.4105   -1.1468 C   0  0  0  0  0  0  0  0  0  0  0  0
   -0.8628   -2.6558   -0.9749 C   0  0  0  0  0  0  0  0  0  0  0  0
   -2.3182   -2.9470   -0.7035 C   0  0  0  0  0  0  0  0  0  0  0  0
   -3.1124   -2.0045    0.0925 C   0  0  1  0  0  0  0  0  0  0  0  0
   -3.3017   -0.6085    0.3237 C   0  0  1  0  0  0  0  0  0  0  0  0
   -4.1812   -1.9727    1.6316 C   0  0  0  0  0  0  0  0  0  0  0  0
   -5.0739   -3.0452    0.9234 C   0  0  0  0  0  0  0  0  0  0  0  0
   -4.9124   -2.0617   -0.1105 C   0  0  2  0  0  0  0  0  0  0  0  0
   -5.5817   -2.3868   -1.4134 C   0  0  0  0  0  0  0  0  0  0  0  0
   -5.0804   -3.1402   -2.2393 O   0  0  0  0  0  0  0  0  0  0  0  0
   -6.9698   -1.7642   -1.6328 C   0  0  0  0  0  0  0  0  0  0  0  0
   -7.9745   -2.1780   -0.7239 O   0  0  0  0  0  0  0  0  0  0  0  0
   -5.8093   -0.9850    0.4905 O   0  0  0  0  0  0  0  0  0  0  0  0
   -2.0868   -1.4300    1.5871 C   0  0  0  0  0  0  0  0  0  0  0  0
  2  1  1  1
  2  3  1  0
  2  8  1  0
  2 12  1  0
  3  4  1  0
  4  5  1  0
  5  6  2  0
  5  7  1  0
  7  8  2  0
  8  9  1  0
  9 10  1  0
 11 10  1  6
 11 12  1  0
 11 16  1  0
 12 13  2  0
 13 14  1  0
 14 15  1  0
 15 16  1  0
 15 19  1  0
 15 25  1  1
 16 17  1  1
 17 18  1  0
 18 19  1  0
 19 24  1  1
 19 20  1  0
 20 21  2  0
 20 22  1  0
 22 23  1  0
M  END
>  <DRUGBANK_ID>  (1) 
DB12081

>  <COMMON_NAME>  (1) 
Anecortave

>  <CAS_NUMBER>  (1) 
10184-70-0

>  <UNII>  (1) 
R5Y8O51589

$$$$
