INQ
     RDKit          3D

 29 32  0  0  0  0  0  0  0  0999 V2000
    1.1009    0.1932    0.0263 S   0  0  0  0  0  0  0  0  0  0  0  0
    0.4235    1.2521    0.7150 O   0  0  0  0  0  0  0  0  0  0  0  0
    0.5188    0.1691   -1.5544 N   0  0  0  0  0  0  0  0  0  0  0  0
    0.4978   -1.3061    0.7291 C   0  0  0  0  0  0  0  0  0  0  0  0
   -0.4774   -1.6701    1.6585 C   0  0  0  0  0  0  0  0  0  0  0  0
   -0.6884   -3.0966    1.6499 C   0  0  0  0  0  0  0  0  0  0  0  0
    0.3108   -3.6795    0.9332 C   0  0  0  0  0  0  0  0  0  0  0  0
    1.2460   -2.6569    0.0151 S   0  0  0  0  0  0  0  0  0  0  0  0
   -1.5579   -3.9559    2.4408 C   0  0  0  0  0  0  0  0  0  0  0  0
   -1.2631   -5.2329    2.8295 C   0  0  0  0  0  0  0  0  0  0  0  0
   -0.2159   -5.9719    2.1401 N   0  0  0  0  0  0  0  0  0  0  0  0
    0.7270   -5.3389    0.9022 S   0  0  0  0  0  0  0  0  0  0  0  0
    2.1176   -5.3858    1.2893 O   0  0  0  0  0  0  0  0  0  0  0  0
    0.2399   -5.8128   -0.3794 O   0  0  0  0  0  0  0  0  0  0  0  0
   -1.7976   -5.8375    4.1538 C   0  0  0  0  0  0  0  0  0  0  0  0
   -1.4443   -3.9581    5.7359 C   0  0  0  0  0  0  0  0  0  0  0  0
   -0.4154   -3.0379    5.0590 C   0  0  0  0  0  0  0  0  0  0  0  0
    0.9429   -3.3973    5.3102 O   0  0  0  0  0  0  0  0  0  0  0  0
    1.1594   -4.7524    4.8615 C   0  0  0  0  0  0  0  0  0  0  0  0
    0.2212   -5.6896    5.6326 C   0  0  0  0  0  0  0  0  0  0  0  0
   -1.2196   -5.3824    5.4419 N   0  0  0  0  0  0  0  0  0  0  0  0
   -1.2003   -8.1781    2.0838 C   0  0  0  0  0  0  0  0  0  0  0  0
   -0.0835   -7.3738    2.2893 C   0  0  0  0  0  0  0  0  0  0  0  0
    1.1739   -7.9267    2.5565 C   0  0  0  0  0  0  0  0  0  0  0  0
    1.3117   -9.3005    2.6367 C   0  0  0  0  0  0  0  0  0  0  0  0
    0.1861  -10.1069    2.4822 C   0  0  0  0  0  0  0  0  0  0  0  0
   -1.0584   -9.5438    2.2128 C   0  0  0  0  0  0  0  0  0  0  0  0
   -2.1331  -10.3685    2.0845 O   0  0  0  0  0  0  0  0  0  0  0  0
    2.5470    0.0871   -0.0426 O   0  0  0  0  0  0  0  0  0  0  0  0
  1  2  2  0
  1  3  1  0
  1  4  1  0
  1 29  2  0
  4  5  2  0
  4  8  1  0
  5  6  1  0
  6  7  2  0
  6  9  1  0
  7  8  1  0
  7 12  1  0
  9 10  2  0
 10 11  1  0
 10 15  1  0
 11 12  1  0
 11 23  1  0
 12 13  2  0
 12 14  2  0
 15 21  1  0
 16 17  1  0
 16 21  1  0
 17 18  1  0
 18 19  1  0
 19 20  1  0
 20 21  1  0
 22 23  2  0
 22 27  1  0
 23 24  1  0
 24 25  2  0
 25 26  1  0
 26 27  2  0
 27 28  1  0
M  END
>  <DRUGBANK_ID>  (1) 
DB03262

>  <SECONDARY_ACCESSION_NUMBERS>  (1) 
EXPT01890

>  <COMMON_NAME>  (1) 
Al-6619, [2h-Thieno[3,2-E]-1,2-Thiazine-6-Sulfonamide,2-(3-Hydroxyphenyl)-3-(4-Morpholinyl)-, 1,1-Dioxide]

$$$$
