
     RDKit          3D

 39 44  0  0  0  0  0  0  0  0999 V2000
    1.0063   -0.2715    0.1286 N   0  0  0  0  0  0  0  0  0  0  0  0
    0.3477   -0.6439   -1.0703 C   0  0  0  0  0  0  0  0  0  0  0  0
    0.7337   -1.8195   -1.7320 C   0  0  0  0  0  0  0  0  0  0  0  0
    0.0984   -2.2187   -2.9302 C   0  0  0  0  0  0  0  0  0  0  0  0
   -0.9572   -1.4954   -3.5070 C   0  0  0  0  0  0  0  0  0  0  0  0
   -1.4439   -1.9467   -4.7811 N   0  0  0  0  0  0  0  0  0  0  0  0
   -2.4789   -1.3688   -5.5667 C   0  0  0  0  0  0  0  0  0  0  0  0
   -2.3212   -0.0558   -6.0313 C   0  0  0  0  0  0  0  0  0  0  0  0
   -3.4327    0.7390   -6.3594 C   0  0  0  0  0  0  0  0  0  0  0  0
   -4.7255    0.2020   -6.3462 C   0  0  0  0  0  0  0  0  0  0  0  0
   -4.8686   -1.1689   -6.0588 C   0  0  0  0  0  0  0  0  0  0  0  0
   -3.7625   -1.9397   -5.6314 C   0  0  0  0  0  0  0  0  0  0  0  0
   -5.9710    1.0306   -6.4999 C   0  0  0  0  0  0  0  0  0  0  0  0
   -5.8172    2.3727   -6.5808 O   0  0  0  0  0  0  0  0  0  0  0  0
   -7.0865    0.5327   -6.5176 O   0  0  0  0  0  0  0  0  0  0  0  0
   -1.3427   -0.3236   -2.8104 C   0  0  0  0  0  0  0  0  0  0  0  0
   -2.6021    0.3961   -3.1001 C   0  0  0  0  0  0  0  0  0  0  0  0
   -3.6143   -0.1660   -3.4390 O   0  0  0  0  0  0  0  0  0  0  0  0
   -2.7630    1.7913   -2.7133 C   0  0  0  0  0  0  0  0  0  0  0  0
   -3.7886    2.5529   -3.2803 C   0  0  0  0  0  0  0  0  0  0  0  0
   -4.1570    3.7531   -2.6874 C   0  0  0  0  0  0  0  0  0  0  0  0
   -3.5048    4.1764   -1.5310 C   0  0  0  0  0  0  0  0  0  0  0  0
   -2.4678    3.4206   -0.9864 C   0  0  0  0  0  0  0  0  0  0  0  0
   -2.0905    2.2278   -1.5928 C   0  0  0  0  0  0  0  0  0  0  0  0
   -1.0642    1.3859   -0.9792 C   0  0  0  0  0  0  0  0  0  0  0  0
   -0.5343    1.7736    0.0555 O   0  0  0  0  0  0  0  0  0  0  0  0
   -0.6741    0.1141   -1.6401 C   0  0  0  0  0  0  0  0  0  0  0  0
    1.6881   -2.6477   -1.1864 N   0  0  0  0  0  0  0  0  0  0  0  0
    2.8879   -2.9705   -1.9487 C   0  0  0  0  0  0  0  0  0  0  0  0
    3.2724   -4.4269   -1.6565 C   0  0  0  0  0  0  0  0  0  0  0  0
    3.3447   -4.8102   -0.2193 N   0  0  0  0  0  0  0  0  0  0  0  0
    2.0254   -4.5099    0.3975 C   0  0  0  0  0  0  0  0  0  0  0  0
    1.5332   -3.0613    0.2160 C   0  0  0  0  0  0  0  0  0  0  0  0
    4.4895   -4.2346    0.5415 C   0  0  0  0  0  0  0  0  0  0  0  0
    4.4355   -2.7240    0.8246 C   0  0  0  0  0  0  0  0  0  0  0  0
    5.6612   -2.0324    1.3451 C   0  0  0  0  0  0  0  0  0  0  0  0
    6.8666   -2.4244    0.5288 C   0  0  0  0  0  0  0  0  0  0  0  0
    7.0225   -3.9402    0.5253 C   0  0  0  0  0  0  0  0  0  0  0  0
    5.8233   -4.6339   -0.1116 C   0  0  0  0  0  0  0  0  0  0  0  0
  1  2  1  0
  2  3  2  0
  2 27  1  0
  3  4  1  0
  3 28  1  0
  4  5  2  0
  5  6  1  0
  5 16  1  0
  6  7  1  0
  7  8  2  0
  7 12  1  0
  8  9  1  0
  9 10  2  0
 10 11  1  0
 10 13  1  0
 11 12  2  0
 13 14  1  0
 13 15  2  0
 16 17  1  0
 16 27  2  0
 17 18  2  0
 17 19  1  0
 19 20  2  0
 19 24  1  0
 20 21  1  0
 21 22  2  0
 22 23  1  0
 23 24  2  0
 24 25  1  0
 25 26  2  0
 25 27  1  0
 28 29  1  0
 28 33  1  0
 29 30  1  0
 30 31  1  0
 31 32  1  0
 31 34  1  0
 32 33  1  0
 34 35  1  0
 34 39  1  0
 35 36  1  0
 36 37  1  0
 37 38  1  0
 38 39  1  0
M  END
>  <DRUGBANK_ID>  (1) 
DB18052

>  <COMMON_NAME>  (1) 
VMD-928

>  <CAS_NUMBER>  (1) 
1802770-18-8

>  <UNII>  (1) 
1JT6DVS51P

>  <SYNONYMS>  (1) 
4-((4-AMINO-3-(4-CYCLOHEXYLPIPERAZIN-1-YL)-9,10-DIOXO-9,10-DIHYDROANTHRACEN-1-YL)AMINO)BENZOIC ACID; 4-{[4-Amino-3-(4-cyclohexylpiperazin-1-yl)-9,10-dioxo-9,10-dihydroanthracen-1-yl]amino}benzoic acid; BENZOIC ACID, 4-((4-AMINO-3-(4-CYCLOHEXYL-1-PIPERAZINYL)-9,10-DIHYDRO-9,10-DIOXO-1-ANTHRACENYL)AMINO)-

$$$$
