
     RDKit          3D

 29 32  0  0  0  0  0  0  0  0999 V2000
   -1.2205    1.2929    0.1613 C   0  0  0  0  0  0  0  0  0  0  0  0
    0.1789    1.2805    0.0818 C   0  0  0  0  0  0  0  0  0  0  0  0
    0.8650    0.0742    0.1346 C   0  0  0  0  0  0  0  0  0  0  0  0
    0.1876   -1.1000    0.4031 C   0  0  0  0  0  0  0  0  0  0  0  0
   -1.1913   -1.0575    0.6601 C   0  0  0  0  0  0  0  0  0  0  0  0
   -1.9288    0.0997    0.3621 C   0  0  0  0  0  0  0  0  0  0  0  0
   -3.4251    0.0252    0.0890 C   0  0  0  0  0  0  0  0  0  0  0  0
   -3.9239   -0.6842   -1.2178 C   0  0  0  0  0  0  0  0  0  0  0  0
   -3.5157   -2.1652   -1.3079 C   0  0  0  0  0  0  0  0  0  0  0  0
   -2.1108   -2.3548   -1.8484 C   0  0  0  0  0  0  0  0  0  0  0  0
   -1.8802   -1.6027   -3.0569 N   0  0  0  0  0  0  0  0  0  0  0  0
   -2.1078   -0.1622   -2.9127 C   0  0  0  0  0  0  0  0  0  0  0  0
   -3.5568    0.0481   -2.5246 C   0  0  0  0  0  0  0  0  0  0  0  0
   -0.9428   -2.1680   -3.9069 C   0  0  0  0  0  0  0  0  0  0  0  0
   -0.3836   -3.2156   -3.5926 O   0  0  0  0  0  0  0  0  0  0  0  0
   -0.6692   -1.4907   -5.2840 C   0  0  0  0  0  0  0  0  0  0  0  0
   -0.8948   -0.3031   -5.4858 O   0  0  0  0  0  0  0  0  0  0  0  0
   -0.0783   -2.2263   -6.2938 N   0  0  0  0  0  0  0  0  0  0  0  0
    0.2236   -3.5918   -6.2843 C   0  0  0  0  0  0  0  0  0  0  0  0
   -0.7244   -4.5269   -5.8079 C   0  0  0  0  0  0  0  0  0  0  0  0
   -0.4042   -5.8715   -5.6512 C   0  0  0  0  0  0  0  0  0  0  0  0
    0.8453   -6.2419   -6.0686 C   0  0  0  0  0  0  0  0  0  0  0  0
    1.7599   -5.3570   -6.6036 C   0  0  0  0  0  0  0  0  0  0  0  0
    1.4781   -4.0129   -6.7344 C   0  0  0  0  0  0  0  0  0  0  0  0
    2.9430   -5.9838   -6.9677 O   0  0  0  0  0  0  0  0  0  0  0  0
    2.6768   -7.3192   -6.6453 C   0  0  0  0  0  0  0  0  0  0  0  0
    3.4657   -8.2447   -6.8543 O   0  0  0  0  0  0  0  0  0  0  0  0
    1.4361   -7.4697   -6.0879 N   0  0  0  0  0  0  0  0  0  0  0  0
    2.1848    0.0399   -0.0897 F   0  0  0  0  0  0  0  0  0  0  0  0
  1  2  2  0
  1  6  1  0
  2  3  1  0
  3  4  2  0
  3 29  1  0
  4  5  1  0
  5  6  2  0
  6  7  1  0
  7  8  1  0
  8  9  1  0
  8 13  1  0
  9 10  1  0
 10 11  1  0
 11 12  1  0
 11 14  1  0
 12 13  1  0
 14 15  2  0
 14 16  1  0
 16 17  2  0
 16 18  1  0
 18 19  1  0
 19 20  2  0
 19 24  1  0
 20 21  1  0
 21 22  2  0
 22 23  1  0
 22 28  1  0
 23 24  2  0
 23 25  1  0
 25 26  1  0
 26 27  2  0
 26 28  1  0
M  END
>  <DRUGBANK_ID>  (1) 
DB12260

>  <COMMON_NAME>  (1) 
Radiprodil

>  <CAS_NUMBER>  (1) 
496054-87-6

>  <UNII>  (1) 
5XGC17ZKUF

>  <SYNONYMS>  (1) 
Radiprodil

$$$$
