
     RDKit          3D

 41 45  0  0  1  0  0  0  0  0999 V2000
    0.9753   -0.0759   -0.0586 C   0  0  0  0  0  0  0  0  0  0  0  0
    0.4782   -1.3401    0.3406 O   0  0  0  0  0  0  0  0  0  0  0  0
    0.7841   -2.3249   -0.5532 C   0  0  0  0  0  0  0  0  0  0  0  0
    2.0858   -2.6264   -0.9658 C   0  0  0  0  0  0  0  0  0  0  0  0
    2.3214   -3.7462   -1.7546 C   0  0  0  0  0  0  0  0  0  0  0  0
    1.2472   -4.5629   -2.0945 C   0  0  0  0  0  0  0  0  0  0  0  0
   -0.0672   -4.2790   -1.6372 C   0  0  0  0  0  0  0  0  0  0  0  0
   -0.2843   -3.1274   -0.9128 C   0  0  0  0  0  0  0  0  0  0  0  0
   -1.0383   -5.2379   -1.5385 N   0  0  0  0  0  0  0  0  0  0  0  0
   -0.5332   -6.4154   -0.9155 C   0  0  0  0  0  0  0  0  0  0  0  0
   -0.5366   -7.3195   -2.0978 C   0  0  0  0  0  0  0  0  0  0  0  0
   -1.9068   -7.9327   -2.2510 N   0  0  0  0  0  0  0  0  0  0  0  0
   -2.6094   -6.7536   -2.9194 C   0  0  0  0  0  0  0  0  0  0  0  0
   -2.4105   -5.3925   -2.0949 C   0  0  0  0  0  0  0  0  0  0  0  0
   -2.3525   -8.9026   -1.1934 C   0  0  0  0  0  0  0  0  0  0  0  0
   -1.8739   -8.6576    0.0796 N   0  0  0  0  0  0  0  0  0  0  0  0
   -1.1806   -9.7365    0.8910 C   0  0  0  0  0  0  0  0  0  0  0  0
   -0.8407  -10.9236    0.1751 C   0  0  0  0  0  0  0  0  0  0  0  0
   -0.6843  -12.1717    0.7890 C   0  0  0  0  0  0  0  0  0  0  0  0
   -0.8626  -12.2980    2.1541 C   0  0  0  0  0  0  0  0  0  0  0  0
   -1.0435  -11.1517    2.9309 C   0  0  0  0  0  0  0  0  0  0  0  0
   -1.2015   -9.8740    2.3172 C   0  0  0  0  0  0  0  0  0  0  0  0
   -1.7370   -8.9224    3.1059 F   0  0  0  0  0  0  0  0  0  0  0  0
   -0.9765  -10.8949   -1.3334 C   0  0  1  0  0  0  0  0  0  0  0  0
   -2.3111  -10.2958   -1.7403 N   0  0  0  0  0  0  0  0  0  0  0  0
   -3.3683  -11.3964   -1.6672 C   0  0  0  0  0  0  0  0  0  0  0  0
   -4.0354  -11.8202   -2.8432 C   0  0  0  0  0  0  0  0  0  0  0  0
   -4.8316  -13.0322   -2.8783 C   0  0  0  0  0  0  0  0  0  0  0  0
   -4.9089  -13.8950   -1.7769 C   0  0  0  0  0  0  0  0  0  0  0  0
   -4.2251  -13.5603   -0.6499 C   0  0  0  0  0  0  0  0  0  0  0  0
   -3.6325  -12.2910   -0.5633 C   0  0  0  0  0  0  0  0  0  0  0  0
   -3.6801  -12.0263    0.7882 O   0  0  0  0  0  0  0  0  0  0  0  0
   -3.7582  -10.6657    1.0274 C   0  0  0  0  0  0  0  0  0  0  0  0
   -5.5724  -13.5052   -4.1036 C   0  0  0  0  0  0  0  0  0  0  0  0
   -5.1468  -14.7404   -4.4989 F   0  0  0  0  0  0  0  0  0  0  0  0
   -6.9133  -13.6352   -3.8930 F   0  0  0  0  0  0  0  0  0  0  0  0
   -5.4266  -12.6908   -5.1767 F   0  0  0  0  0  0  0  0  0  0  0  0
    0.1406   -9.9663   -1.6873 C   0  0  0  0  0  0  0  0  0  0  0  0
    0.2832   -9.8229   -3.1876 C   0  0  0  0  0  0  0  0  0  0  0  0
   -0.1695   -9.0644   -3.9799 O   0  0  0  0  0  0  0  0  0  0  0  0
    1.1916  -10.7049   -3.6320 O   0  0  0  0  0  0  0  0  0  0  0  0
  1  2  1  0
  2  3  1  0
  3  4  2  0
  3  8  1  0
  4  5  1  0
  5  6  2  0
  6  7  1  0
  7  8  2  0
  7  9  1  0
  9 10  1  0
  9 14  1  0
 10 11  1  0
 11 12  1  0
 12 13  1  0
 12 15  1  0
 13 14  1  0
 15 16  2  0
 15 25  1  0
 16 17  1  0
 17 18  2  0
 17 22  1  0
 18 19  1  0
 18 24  1  0
 19 20  2  0
 20 21  1  0
 21 22  2  0
 22 23  1  0
 24 25  1  0
 24 38  1  6
 25 26  1  0
 26 27  2  0
 26 31  1  0
 27 28  1  0
 28 29  2  0
 28 34  1  0
 29 30  1  0
 30 31  2  0
 31 32  1  0
 32 33  1  0
 34 35  1  0
 34 36  1  0
 34 37  1  0
 38 39  1  0
 39 40  2  0
 39 41  1  0
M  END
>  <DRUGBANK_ID>  (1) 
DB12070

>  <COMMON_NAME>  (1) 
Letermovir

>  <CAS_NUMBER>  (1) 
917389-32-3

>  <UNII>  (1) 
1H09Y5WO1F

>  <SYNONYMS>  (1) 
Letermovir

$$$$
