
     RDKit          3D

  7  7  0  0  0  0  0  0  0  0999 V2000
   -0.1731   -1.2254   -0.0025 C   0  0  0  0  0  0  0  0  0  0  0  0
    1.0088   -0.6421   -0.0009 N   0  0  0  0  0  0  0  0  0  0  0  0
    0.9222    0.7437    0.0006 N   0  0  0  0  0  0  0  0  0  0  0  0
   -0.3276    1.1510    0.0003 C   0  0  0  0  0  0  0  0  0  0  0  0
   -1.4838   -0.1128   -0.0018 S   0  0  0  0  0  0  0  0  0  0  0  0
   -0.7746    2.8417    0.0016 S   0  0  0  0  0  0  0  0  0  0  0  0
   -0.3767   -2.5506   -0.0044 N   0  0  0  0  0  0  0  0  0  0  0  0
  1  2  2  0
  1  5  1  0
  1  7  1  0
  2  3  1  0
  3  4  2  0
  4  5  1  0
  4  6  1  0
M  END
>  <DRUGBANK_ID>  (1) 
DB12348

>  <COMMON_NAME>  (1) 
5-amino-1,3,4-thiadiazole-2-thiol

>  <CAS_NUMBER>  (1) 
2349-67-9

>  <UNII>  (1) 
B1HEG7V21S

>  <SYNONYMS>  (1) 
ATT

$$$$
