
     RDKit          3D

 17 19  0  0  0  0  0  0  0  0999 V2000
   -1.7691   -1.9483   -0.0393 C   0  0  0  0  0  0  0  0  0  0  0  0
   -0.6769   -0.9161    0.0173 C   0  0  0  0  0  0  0  0  0  0  0  0
    0.6301   -1.2265   -0.0154 C   0  0  0  0  0  0  0  0  0  0  0  0
    1.3461   -2.4004   -0.2459 N   0  0  0  0  0  0  0  0  0  0  0  0
    1.6544   -3.5001    0.6391 C   0  0  0  0  0  0  0  0  0  0  0  0
    1.0350   -3.7094   -0.7402 C   0  0  0  0  0  0  0  0  0  0  0  0
    1.5802   -0.0229    0.0331 C   0  0  0  0  0  0  0  0  0  0  0  0
    2.7870   -0.2204    0.0926 O   0  0  0  0  0  0  0  0  0  0  0  0
    1.0660    1.4047   -0.0605 C   0  0  0  0  0  0  0  0  0  0  0  0
    2.1554    2.4380   -0.1726 C   0  0  0  0  0  0  0  0  0  0  0  0
    2.0502    3.1925   -1.3760 O   0  0  0  0  0  0  0  0  0  0  0  0
   -0.2430    1.7078   -0.0431 C   0  0  0  0  0  0  0  0  0  0  0  0
   -0.9777    2.8673   -0.2698 N   0  0  0  0  0  0  0  0  0  0  0  0
   -0.6954    4.1744   -0.7818 C   0  0  0  0  0  0  0  0  0  0  0  0
   -1.2766    3.9683    0.6137 C   0  0  0  0  0  0  0  0  0  0  0  0
   -1.1869    0.5127    0.0670 C   0  0  0  0  0  0  0  0  0  0  0  0
   -2.3940    0.7150    0.1394 O   0  0  0  0  0  0  0  0  0  0  0  0
  1  2  1  0
  2  3  2  0
  2 16  1  0
  3  4  1  0
  3  7  1  0
  4  5  1  0
  4  6  1  0
  5  6  1  0
  7  8  2  0
  7  9  1  0
  9 10  1  0
  9 12  2  0
 10 11  1  0
 12 13  1  0
 12 16  1  0
 13 14  1  0
 13 15  1  0
 14 15  1  0
 16 17  2  0
M  END
>  <DRUGBANK_ID>  (1) 
DB04090

>  <SECONDARY_ACCESSION_NUMBERS>  (1) 
EXPT02778; DB06312; DB12103

>  <COMMON_NAME>  (1) 
RH-1

>  <CAS_NUMBER>  (1) 
221635-42-3

>  <UNII>  (1) 
IJ5CEP760Y

>  <SYNONYMS>  (1) 
2,5-Cyclohexadiene-1,4-dione, 2,5-bis(1-aziridinyl)-3-(hydroxymethyl)-6-methyl-

$$$$
