
     RDKit          3D

 28 30  0  0  0  0  0  0  0  0999 V2000
    1.0905   -0.1347    0.0703 C   0  0  0  0  0  0  0  0  0  0  0  0
    2.0110    6.7378   -1.6886 C   0  0  0  0  0  0  0  0  0  0  0  0
    2.9207    2.7663   -5.3791 C   0  0  0  0  0  0  0  0  0  0  0  0
    7.3572   -4.1147   -9.5482 C   0  0  0  0  0  0  0  0  0  0  0  0
    4.4887   -6.4363   -8.4688 C   0  0  0  0  0  0  0  0  0  0  0  0
    0.6549    1.3005    0.1545 C   0  0  0  0  0  0  0  0  0  0  0  0
    0.7643    5.8597   -1.5695 C   0  0  0  0  0  0  0  0  0  0  0  0
    5.2519   -1.7129   -6.7275 C   0  0  0  0  0  0  0  0  0  0  0  0
    3.4528   -1.4257   -4.9366 C   0  0  0  0  0  0  0  0  0  0  0  0
    5.9483   -2.4927   -7.6761 C   0  0  0  0  0  0  0  0  0  0  0  0
    3.2271   -0.0947   -4.9402 C   0  0  0  0  0  0  0  0  0  0  0  0
    3.7090   -3.5059   -6.3920 C   0  0  0  0  0  0  0  0  0  0  0  0
    4.1214   -2.1993   -6.0515 C   0  0  0  0  0  0  0  0  0  0  0  0
    5.5387   -3.7890   -7.9927 C   0  0  0  0  0  0  0  0  0  0  0  0
    4.3976   -4.3034   -7.3513 C   0  0  0  0  0  0  0  0  0  0  0  0
    2.6334    0.7305   -3.8887 C   0  0  0  0  0  0  0  0  0  0  0  0
    1.9299    2.7195   -3.1015 C   0  0  0  0  0  0  0  0  0  0  0  0
    1.7073    1.7719   -2.1511 C   0  0  0  0  0  0  0  0  0  0  0  0
    1.5700    4.0806   -2.9652 C   0  0  0  0  0  0  0  0  0  0  0  0
    0.7920    3.5336   -0.7102 C   0  0  0  0  0  0  0  0  0  0  0  0
    2.1432    0.5280   -2.6488 N   0  0  0  0  0  0  0  0  0  0  0  0
    2.5141    2.0931   -4.1661 N   0  0  0  0  0  0  0  0  0  0  0  0
    1.1038    2.1638   -0.9336 N   0  0  0  0  0  0  0  0  0  0  0  0
    1.0867    4.4401   -1.7253 N   0  0  0  0  0  0  0  0  0  0  0  0
    1.6646    4.8939   -3.8881 O   0  0  0  0  0  0  0  0  0  0  0  0
    0.2620    3.9175    0.3392 O   0  0  0  0  0  0  0  0  0  0  0  0
    6.1962   -4.5848   -8.8880 O   0  0  0  0  0  0  0  0  0  0  0  0
    3.8479   -5.5566   -7.5419 O   0  0  0  0  0  0  0  0  0  0  0  0
  6  1  1  0
  7  2  1  0
 10  8  2  0
 11  9  2  0
 13  8  1  0
 13  9  1  0
 13 12  2  0
 14 10  1  0
 15 12  1  0
 15 14  2  0
 16 11  1  0
 18 17  2  0
 19 17  1  0
 21 16  2  0
 21 18  1  0
 22  3  1  0
 22 16  1  0
 22 17  1  0
 23  6  1  0
 23 18  1  0
 23 20  1  0
 24  7  1  0
 24 19  1  0
 24 20  1  0
 25 19  2  0
 26 20  2  0
 27  4  1  0
 27 14  1  0
 28  5  1  0
 28 15  1  0
M  END
>  <DRUGBANK_ID>  (1) 
DB11757

>  <COMMON_NAME>  (1) 
Istradefylline

>  <CAS_NUMBER>  (1) 
155270-99-8

>  <UNII>  (1) 
2GZ0LIK7T4

>  <SYNONYMS>  (1) 
Istradefylline

$$$$
