613
     RDKit          3D

 25 27  0  0  0  0  0  0  0  0999 V2000
    3.2263    0.4176    0.0040 Cl  0  0  0  0  0  0  0  0  0  0  0  0
   -8.2927   -4.0793    0.2089 O   0  0  0  0  0  0  0  0  0  0  0  0
   -7.5443   -0.9155   -2.1300 N   0  0  0  0  0  0  0  0  0  0  0  0
   -2.9598   -2.5180   -0.0029 N   0  0  0  0  0  0  0  0  0  0  0  0
   -1.6734    1.5129   -0.0111 N   0  0  0  0  0  0  0  0  0  0  0  0
   -7.3959   -2.3817   -2.1330 C   0  0  0  0  0  0  0  0  0  0  0  0
   -6.5209   -2.9238   -1.0267 C   0  0  0  0  0  0  0  0  0  0  0  0
   -8.3378   -0.4430   -3.2772 C   0  0  0  0  0  0  0  0  0  0  0  0
   -7.9513   -0.3416   -0.8372 C   0  0  0  0  0  0  0  0  0  0  0  0
   -5.1566   -2.5881   -1.0436 C   0  0  0  0  0  0  0  0  0  0  0  0
   -4.2902   -2.9688   -0.0121 C   0  0  0  0  0  0  0  0  0  0  0  0
   -6.9966   -3.6790    0.0521 C   0  0  0  0  0  0  0  0  0  0  0  0
   -9.7944   -0.9025   -3.3472 C   0  0  0  0  0  0  0  0  0  0  0  0
   -9.3037   -0.7754   -0.2830 C   0  0  0  0  0  0  0  0  0  0  0  0
   -4.7944   -3.7172    1.0522 C   0  0  0  0  0  0  0  0  0  0  0  0
   -2.5016   -1.1790    0.0117 C   0  0  0  0  0  0  0  0  0  0  0  0
   -6.1449   -4.0627    1.0858 C   0  0  0  0  0  0  0  0  0  0  0  0
   -1.1189   -0.8511   -0.0101 C   0  0  0  0  0  0  0  0  0  0  0  0
   -0.7692    0.5198   -0.0163 C   0  0  0  0  0  0  0  0  0  0  0  0
   -3.4236   -0.1247    0.0298 C   0  0  0  0  0  0  0  0  0  0  0  0
   -0.0767   -1.8127   -0.0082 C   0  0  0  0  0  0  0  0  0  0  0  0
    0.5683    0.8882   -0.0193 C   0  0  0  0  0  0  0  0  0  0  0  0
   -2.9735    1.1745    0.0141 C   0  0  0  0  0  0  0  0  0  0  0  0
    1.2616   -1.4203   -0.0003 C   0  0  0  0  0  0  0  0  0  0  0  0
    1.5770   -0.0716   -0.0070 C   0  0  0  0  0  0  0  0  0  0  0  0
  1 25  1  0
  2 12  1  0
  3  6  1  0
  3  8  1  0
  3  9  1  0
  4 11  1  0
  4 16  1  0
  5 19  2  0
  5 23  1  0
  6  7  1  0
  7 10  2  0
  7 12  1  0
  8 13  1  0
  9 14  1  0
 10 11  1  0
 11 15  2  0
 12 17  2  0
 15 17  1  0
 16 18  2  0
 16 20  1  0
 18 19  1  0
 18 21  1  0
 19 22  1  0
 20 23  2  0
 21 24  2  0
 22 25  2  0
 24 25  1  0
M  END
>  <DRUGBANK_ID>  (1) 
DB00613

>  <SECONDARY_ACCESSION_NUMBERS>  (1) 
APRD00796

>  <COMMON_NAME>  (1) 
Amodiaquine

>  <CAS_NUMBER>  (1) 
86-42-0

>  <UNII>  (1) 
220236ED28

>  <SYNONYMS>  (1) 
Amodiaquina; Amodiaquine; Amodiaquinum

$$$$
