
     RDKit          3D

 10  9  0  0  0  0  0  0  0  0999 V2000
    1.0159    0.0559    0.0818 C   0  0  0  0  0  0  0  0  0  0  0  0
    0.4863   -0.4286    1.4693 C   0  0  0  0  0  0  0  0  0  0  0  0
    1.1180    0.5165    2.8629 Cl  0  0  0  0  0  0  0  0  0  0  0  0
   -1.2969   -0.3393    1.5077 Cl  0  0  0  0  0  0  0  0  0  0  0  0
    1.0079   -2.1187    1.7562 Cl  0  0  0  0  0  0  0  0  0  0  0  0
    0.5646    1.3626   -0.3621 O   0  0  0  0  0  0  0  0  0  0  0  0
    1.1412    2.5623    0.7428 P   0  0  0  0  0  0  0  0  0  0  0  0
    2.3910    2.7843   -0.0979 O   0  0  0  0  0  0  0  0  0  0  0  0
   -0.0240    3.5586    0.2235 O   0  0  0  0  0  0  0  0  0  0  0  0
    1.7179    3.7621    1.8478 O   0  0  0  0  0  0  0  0  0  0  0  0
  1  2  1  0
  1  6  1  0
  2  3  1  0
  2  4  1  0
  2  5  1  0
  6  7  1  0
  7  8  2  0
  7  9  1  0
  7 10  1  0
M  END
>  <DRUGBANK_ID>  (1) 
DB06753

>  <COMMON_NAME>  (1) 
Triclofos

>  <CAS_NUMBER>  (1) 
306-52-5

>  <UNII>  (1) 
J712EO9048

>  <SYNONYMS>  (1) 
Triclofos

$$$$
