
     RDKit          3D

  9  8  0  0  1  0  0  0  0  0999 V2000
    1.5208    6.1205   -4.2330 C   0  0  0  0  0  0  0  0  0  0  0  0
    1.1223    5.4616   -2.9225 C   0  0  0  0  0  0  0  0  0  0  0  0
   -0.3678    5.6587   -2.6378 C   0  0  0  0  0  0  0  0  0  0  0  0
   -1.2677    5.0346   -3.7147 C   0  0  0  0  0  0  0  0  0  0  0  0
   -1.0560    3.5207   -3.8518 C   0  0  0  0  0  0  0  0  0  0  0  0
   -1.5091    2.7859   -2.5880 C   0  0  2  0  0  0  0  0  0  0  0  0
   -1.0540    1.4433   -2.6160 O   0  0  0  0  0  0  0  0  0  0  0  0
   -3.0026    2.7830   -2.5118 C   0  0  0  0  0  0  0  0  0  0  0  0
   -3.6995    3.4328   -1.5634 C   0  0  0  0  0  0  0  0  0  0  0  0
  1  2  1  0
  2  3  1  0
  3  4  1  0
  4  5  1  0
  6  8  1  0
  6  7  1  6
  6  5  1  0
  8  9  2  0
M  END
>  <DRUGBANK_ID>  (1) 
DB03025

>  <SECONDARY_ACCESSION_NUMBERS>  (1) 
EXPT00184

>  <COMMON_NAME>  (1) 
(S)-oct-1-en-3-ol

>  <CAS_NUMBER>  (1) 
24587-53-9

>  <UNII>  (1) 
07D31239FH

>  <SYNONYMS>  (1) 
(S)-(+)-1-Octen-3-ol

$$$$
