UA5
     RDKit          3D

 13 13  0  0  0  0  0  0  0  0999 V2000
    1.0797    0.0643   -0.2548 O   0  0  0  0  0  0  0  0  0  0  0  0
    2.5096    0.0936   -0.0398 S   0  0  0  0  0  0  0  0  0  0  0  0
    3.0839    0.0301    1.2783 O   0  0  0  0  0  0  0  0  0  0  0  0
    3.1276   -1.1506   -0.8550 O   0  0  0  0  0  0  0  0  0  0  0  0
    3.1096    1.3883   -0.9047 N   0  0  0  0  0  0  0  0  0  0  0  0
    4.0154    2.3374   -0.3614 C   0  0  0  0  0  0  0  0  0  0  0  0
    3.8915    3.6900   -0.6924 C   0  0  0  0  0  0  0  0  0  0  0  0
    4.8544    4.6089   -0.2519 C   0  0  0  0  0  0  0  0  0  0  0  0
    5.9045    4.1988    0.5818 C   0  0  0  0  0  0  0  0  0  0  0  0
    6.8712    5.1912    1.1740 C   0  0  0  0  0  0  0  0  0  0  0  0
    7.6709    5.9224    0.1112 C   0  0  0  0  0  0  0  0  0  0  0  0
    6.0199    2.8461    0.9010 C   0  0  0  0  0  0  0  0  0  0  0  0
    5.0956    1.9268    0.4142 C   0  0  0  0  0  0  0  0  0  0  0  0
  1  2  2  0
  2  5  1  0
  2  3  2  0
  2  4  1  0
  5  6  1  0
  6 13  2  0
  6  7  1  0
  7  8  2  0
  8  9  1  0
  9 12  2  0
  9 10  1  0
 10 11  1  0
 12 13  1  0
M  END
>  <DRUGBANK_ID>  (1) 
DB08678

>  <COMMON_NAME>  (1) 
(4-ETHYLPHENYL)SULFAMIC ACID

$$$$
