K44
     RDKit          3D

 17 19  0  0  0  0  0  0  0  0999 V2000
    3.0904   -0.1403    0.0432 C   0  0  0  0  0  0  0  0  0  0  0  0
    2.7017    1.2137    0.0030 C   0  0  0  0  0  0  0  0  0  0  0  0
    1.3375    1.5552   -0.0420 C   0  0  0  0  0  0  0  0  0  0  0  0
    2.1107   -1.1781    0.0282 C   0  0  0  0  0  0  0  0  0  0  0  0
   -0.4562   -1.6390   -0.0699 N   0  0  0  0  0  0  0  0  0  0  0  0
    0.7239   -0.8456   -0.0250 C   0  0  0  0  0  0  0  0  0  0  0  0
    0.3928    0.5158   -0.0411 C   0  0  0  0  0  0  0  0  0  0  0  0
   -0.9590    0.4900   -0.0536 N   0  0  0  0  0  0  0  0  0  0  0  0
   -1.4572   -0.7788   -0.0567 C   0  0  0  0  0  0  0  0  0  0  0  0
   -2.8068   -0.7161   -0.0038 N   0  0  0  0  0  0  0  0  0  0  0  0
   -3.8057   -1.6865   -0.3751 C   0  0  0  0  0  0  0  0  0  0  0  0
   -1.9988    1.4970   -0.0911 C   0  0  0  0  0  0  0  0  0  0  0  0
   -3.2265    0.6645    0.2593 C   0  0  0  0  0  0  0  0  0  0  0  0
    2.6124   -3.0160    0.0879 Br  0  0  0  0  0  0  0  0  0  0  0  0
    4.9678   -0.5745    0.1091 Br  0  0  0  0  0  0  0  0  0  0  0  0
    4.0114    2.6263    0.0089 Br  0  0  0  0  0  0  0  0  0  0  0  0
    0.7433    3.3646   -0.1203 Br  0  0  0  0  0  0  0  0  0  0  0  0
  1  2  2  0
  1  4  1  0
  1 15  1  0
  2  3  1  0
  2 16  1  0
  3  7  2  0
  3 17  1  0
  4  6  2  0
  4 14  1  0
  5  6  1  0
  5  9  2  0
  6  7  1  0
  7  8  1  0
  8  9  1  0
  8 12  1  0
  9 10  1  0
 10 11  1  0
 10 13  1  0
 12 13  1  0
M  END
>  <DRUGBANK_ID>  (1) 
DB04721

>  <COMMON_NAME>  (1) 
N1,N2-ETHYLENE-2-METHYLAMINO-4,5,6,7-TETRABROMO-BENZIMIDAZOLE

$$$$
