
     RDKit          3D

 29 32  0  0  1  0  0  0  0  0999 V2000
   -2.5002    0.6285   -3.2157 C   0  0  0  0  0  0  0  0  0  0  0  0
   -2.0126    1.5651   -4.2018 N   0  0  0  0  0  0  0  0  0  0  0  0
   -0.7890    1.6115   -4.8039 C   0  0  0  0  0  0  0  0  0  0  0  0
   -0.5675    2.4613   -5.6638 O   0  0  0  0  0  0  0  0  0  0  0  0
    0.2476    0.5937   -4.4081 C   0  0  0  0  0  0  0  0  0  0  0  0
    0.6676    0.7329   -2.9311 C   0  0  1  0  0  0  0  0  0  0  0  0
    1.1961   -0.5928   -2.3880 C   0  0  0  0  0  0  0  0  0  0  0  0
    2.2856   -1.0653   -3.1779 O   0  0  0  0  0  0  0  0  0  0  0  0
    3.2203   -0.0811   -3.4266 C   0  0  0  0  0  0  0  0  0  0  0  0
    3.0005    1.3050   -3.1982 C   0  0  0  0  0  0  0  0  0  0  0  0
    4.0395    2.1872   -3.5053 C   0  0  0  0  0  0  0  0  0  0  0  0
    5.2540    1.7165   -4.0141 C   0  0  0  0  0  0  0  0  0  0  0  0
    5.4372    0.3583   -4.2319 C   0  0  0  0  0  0  0  0  0  0  0  0
    6.6062   -0.0798   -4.7165 F   0  0  0  0  0  0  0  0  0  0  0  0
    4.4268   -0.5481   -3.9537 C   0  0  0  0  0  0  0  0  0  0  0  0
    1.7088    1.7560   -2.7327 N   0  0  0  0  0  0  0  0  0  0  0  0
    1.4753    3.0347   -2.1825 C   0  0  0  0  0  0  0  0  0  0  0  0
    2.3278    3.9051   -2.0143 O   0  0  0  0  0  0  0  0  0  0  0  0
    0.1124    3.4090   -1.6924 C   0  0  0  0  0  0  0  0  0  0  0  0
   -0.5095    2.7017   -0.6516 C   0  0  0  0  0  0  0  0  0  0  0  0
   -1.7737    3.0941   -0.2016 C   0  0  0  0  0  0  0  0  0  0  0  0
   -2.4024    4.2275   -0.7427 C   0  0  0  0  0  0  0  0  0  0  0  0
   -3.6327    4.6809   -0.3251 O   0  0  0  0  0  0  0  0  0  0  0  0
   -4.3363    3.7229    0.4604 C   0  0  0  0  0  0  0  0  0  0  0  0
   -3.4633    3.0041    1.4723 C   0  0  0  0  0  0  0  0  0  0  0  0
   -3.7077    2.8943    2.6714 O   0  0  0  0  0  0  0  0  0  0  0  0
   -2.3788    2.4100    0.8664 N   0  0  0  0  0  0  0  0  0  0  0  0
   -1.7512    4.9781   -1.7191 C   0  0  0  0  0  0  0  0  0  0  0  0
   -0.4973    4.5695   -2.1952 C   0  0  0  0  0  0  0  0  0  0  0  0
  1  2  1  0
  2  3  1  0
  3  4  2  0
  3  5  1  0
  6  7  1  0
  6 16  1  0
  6  5  1  6
  7  8  1  0
  8  9  1  0
  9 10  2  0
  9 15  1  0
 10 11  1  0
 10 16  1  0
 11 12  2  0
 12 13  1  0
 13 14  1  0
 13 15  2  0
 16 17  1  0
 17 18  2  0
 17 19  1  0
 19 20  2  0
 19 29  1  0
 20 21  1  0
 21 22  2  0
 21 27  1  0
 22 23  1  0
 22 28  1  0
 23 24  1  0
 24 25  1  0
 25 26  2  0
 25 27  1  0
 28 29  2  0
M  END
>  <DRUGBANK_ID>  (1) 
DB15418

>  <COMMON_NAME>  (1) 
AZD-9977

>  <CAS_NUMBER>  (1) 
1850385-64-6

>  <UNII>  (1) 
6C9UKZ0CYE

$$$$
