
     RDKit          3D

 11 11  0  0  0  0  0  0  0  0999 V2000
    1.0256   -0.0550    0.0745 N   0  0  0  0  0  0  0  0  0  0  0  0
    0.2857   -0.4698    1.1503 C   0  0  0  0  0  0  0  0  0  0  0  0
   -0.9380   -0.4445    1.1108 O   0  0  0  0  0  0  0  0  0  0  0  0
    1.0474   -0.9210    2.3410 C   0  0  0  0  0  0  0  0  0  0  0  0
    2.1387   -0.1635    2.7949 C   0  0  0  0  0  0  0  0  0  0  0  0
    2.8737   -0.5821    3.9099 C   0  0  0  0  0  0  0  0  0  0  0  0
    2.5294   -1.7603    4.5778 C   0  0  0  0  0  0  0  0  0  0  0  0
    1.4344   -2.4999    4.1355 C   0  0  0  0  0  0  0  0  0  0  0  0
    1.0602   -3.6626    4.7561 O   0  0  0  0  0  0  0  0  0  0  0  0
    0.6877   -2.0818    3.0289 C   0  0  0  0  0  0  0  0  0  0  0  0
   -0.3697   -2.8471    2.6177 O   0  0  0  0  0  0  0  0  0  0  0  0
  1  2  1  0
  2  3  2  0
  2  4  1  0
  4  5  2  0
  4 10  1  0
  5  6  1  0
  6  7  2  0
  7  8  1  0
  8  9  1  0
  8 10  2  0
 10 11  1  0
M  END
>  <DRUGBANK_ID>  (1) 
DB04476

>  <SECONDARY_ACCESSION_NUMBERS>  (1) 
EXPT01118

>  <COMMON_NAME>  (1) 
Trencam-3,2-Hopo

>  <UNII>  (1) 
Z33JA2LC96

$$$$
