1623
     RDKit          3D

 30 33  0  0  0  0  0  0  0  0999 V2000
    1.0584    0.1949   -0.0000 S   0  0  0  0  0  0  0  0  0  0  0  0
    7.3512    0.3697   -0.0453 S   0  0  0  0  0  0  0  0  0  0  0  0
    0.7369   -0.4794   -1.2568 O   0  0  0  0  0  0  0  0  0  0  0  0
    0.6645   -0.3901    1.2524 O   0  0  0  0  0  0  0  0  0  0  0  0
    3.0070   -5.6490   -1.1345 N   0  0  0  0  0  0  0  0  0  0  0  0
    2.3218   -8.4622   -1.0386 N   0  0  0  0  0  0  0  0  0  0  0  0
    0.4372    1.7611   -0.1178 N   0  0  0  0  0  0  0  0  0  0  0  0
    2.2097   -6.1973   -0.0223 C   0  0  0  0  0  0  0  0  0  0  0  0
    2.6474   -6.3161   -2.3814 C   0  0  0  0  0  0  0  0  0  0  0  0
    2.5754   -7.6597    0.1703 C   0  0  0  0  0  0  0  0  0  0  0  0
    2.9577   -7.8148   -2.2179 C   0  0  0  0  0  0  0  0  0  0  0  0
    2.8293   -4.2248   -1.2333 C   0  0  0  0  0  0  0  0  0  0  0  0
    3.3702   -3.6725    0.0723 C   0  0  0  0  0  0  0  0  0  0  0  0
    0.8773   -8.5610   -1.2429 C   0  0  0  0  0  0  0  0  0  0  0  0
    4.8328   -3.4305   -0.0011 C   0  0  0  0  0  0  0  0  0  0  0  0
    5.5582   -2.2919   -0.0378 C   0  0  0  0  0  0  0  0  0  0  0  0
    4.8868   -0.9487   -0.0361 C   0  0  0  0  0  0  0  0  0  0  0  0
    7.0587   -2.4489   -0.0384 C   0  0  0  0  0  0  0  0  0  0  0  0
    5.5980    0.2431   -0.0141 C   0  0  0  0  0  0  0  0  0  0  0  0
    3.5076   -0.7747   -0.0836 C   0  0  0  0  0  0  0  0  0  0  0  0
    7.8883   -1.3153   -0.0367 C   0  0  0  0  0  0  0  0  0  0  0  0
    2.8178    0.4089    0.0433 C   0  0  0  0  0  0  0  0  0  0  0  0
    4.9216    1.4804    0.0361 C   0  0  0  0  0  0  0  0  0  0  0  0
    7.7060   -3.7073   -0.0342 C   0  0  0  0  0  0  0  0  0  0  0  0
    3.5355    1.5682    0.1324 C   0  0  0  0  0  0  0  0  0  0  0  0
    9.2841   -1.4484   -0.0333 C   0  0  0  0  0  0  0  0  0  0  0  0
    9.0950   -3.8301   -0.0326 C   0  0  0  0  0  0  0  0  0  0  0  0
    9.8858   -2.6968   -0.0327 C   0  0  0  0  0  0  0  0  0  0  0  0
    0.8541    2.4790   -1.3423 C   0  0  0  0  0  0  0  0  0  0  0  0
   -1.0403    1.7483   -0.0128 C   0  0  0  0  0  0  0  0  0  0  0  0
  1  3  2  0
  1  4  2  0
  1  7  1  0
  1 22  1  0
  2 19  1  0
  2 21  1  0
  5  8  1  0
  5  9  1  0
  5 12  1  0
  6 10  1  0
  6 11  1  0
  6 14  1  0
  7 29  1  0
  7 30  1  0
  8 10  1  0
  9 11  1  0
 12 13  1  0
 13 15  1  0
 15 16  2  0
 16 17  1  0
 16 18  1  0
 17 19  2  0
 17 20  1  0
 18 21  2  0
 18 24  1  0
 19 23  1  0
 20 22  2  0
 21 26  1  0
 22 25  1  0
 23 25  2  0
 24 27  2  0
 26 28  2  0
 27 28  1  0
M  END
>  <DRUGBANK_ID>  (1) 
DB01623

>  <COMMON_NAME>  (1) 
Thiothixene

>  <CAS_NUMBER>  (1) 
3313-26-6

>  <UNII>  (1) 
7318FJ13YJ

>  <SYNONYMS>  (1) 
cis-thiothixene; Thiothixene; Tiotixene; Tiotixeno; Tiotixenum

$$$$
