
     RDKit          3D

 26 29  0  0  1  0  0  0  0  0999 V2000
    3.1081   -7.5922    1.8208 F   0  0  0  0  0  0  0  0  0  0  0  0
    4.0252   -7.4774    0.7925 C   0  0  0  0  0  0  0  0  0  0  0  0
    4.1670   -6.1405   -0.0239 C   0  0  0  0  0  0  0  0  0  0  0  0
    4.3335   -5.8503   -1.4061 C   0  0  0  0  0  0  0  0  0  0  0  0
    4.4618   -7.0691   -2.0992 C   0  0  0  0  0  0  0  0  0  0  0  0
    4.3690   -8.4314   -1.3846 C   0  0  0  0  0  0  0  0  0  0  0  0
    4.0498   -9.4760   -2.1769 F   0  0  0  0  0  0  0  0  0  0  0  0
    4.0820   -8.6384    0.0282 C   0  0  0  0  0  0  0  0  0  0  0  0
    3.7139   -4.4511   -2.0846 C   0  0  0  0  0  0  0  0  0  0  0  0
    3.7280   -4.2835   -3.2484 O   0  0  0  0  0  0  0  0  0  0  0  0
    3.2106   -3.3535   -1.2892 N   0  0  0  0  0  0  0  0  0  0  0  0
    2.5819   -3.1980    0.0587 C   0  0  2  0  0  0  0  0  0  0  0  0
    2.5303   -1.7259    0.5074 C   0  0  0  0  0  0  0  0  0  0  0  0
    1.9332   -1.6790    1.9414 C   0  0  0  0  0  0  0  0  0  0  0  0
    2.8068   -2.4336    2.9523 C   0  0  0  0  0  0  0  0  0  0  0  0
    3.8985   -3.0840    2.2610 N   0  0  0  0  0  0  0  0  0  0  0  0
    4.7718   -2.0761    1.5714 C   0  0  0  0  0  0  0  0  0  0  0  0
    3.9794   -1.2285    0.5618 C   0  0  0  0  0  0  0  0  0  0  0  0
    3.2718   -3.9464    1.2230 C   0  0  1  0  0  0  0  0  0  0  0  0
    2.1719   -5.2189    1.6871 C   0  0  0  0  0  0  0  0  0  0  0  0
    1.3132   -6.1872    0.5139 C   0  0  0  0  0  0  0  0  0  0  0  0
   -0.0057   -6.2097    0.2852 C   0  0  0  0  0  0  0  0  0  0  0  0
   -0.6289   -6.9205   -0.7810 N   0  0  0  0  0  0  0  0  0  0  0  0
    0.0890   -7.6190   -1.7343 C   0  0  0  0  0  0  0  0  0  0  0  0
    1.3813   -7.6413   -1.7284 C   0  0  0  0  0  0  0  0  0  0  0  0
    1.7866   -6.9795   -0.5806 C   0  0  0  0  0  0  0  0  0  0  0  0
  1  2  1  0
  2  3  2  0
  2  8  1  0
  3  4  1  0
  4  5  2  0
  4  9  1  0
  5  6  1  0
  6  7  1  0
  6  8  2  0
  9 10  2  0
  9 11  1  0
 12 13  1  0
 12 19  1  0
 12 11  1  6
 13 14  1  0
 13 18  1  0
 14 15  1  0
 15 16  1  0
 16 17  1  0
 17 18  1  0
 19 16  1  0
 19 20  1  1
 20 21  1  0
 21 22  2  0
 21 26  1  0
 22 23  1  0
 23 24  2  0
 24 25  1  0
 25 26  2  0
M  END
>  <DRUGBANK_ID>  (1) 
DB14854

>  <COMMON_NAME>  (1) 
TC-6987

>  <CAS_NUMBER>  (1) 
1196701-27-5

>  <UNII>  (1) 
Q2U4R164OG

$$$$
