
     RDKit          3D

 21 23  0  0  0  0  0  0  0  0999 V2000
   -0.4026   -1.0829    0.0055 N   0  0  0  0  0  0  0  0  0  0  0  0
   -1.2723    0.0047    0.0024 C   0  0  0  0  0  0  0  0  0  0  0  0
   -0.5081    1.1528    0.0026 C   0  0  0  0  0  0  0  0  0  0  0  0
    0.8060    0.8568   -0.0201 N   0  0  0  0  0  0  0  0  0  0  0  0
    0.8462   -0.4596   -0.0409 C   0  0  0  0  0  0  0  0  0  0  0  0
   -0.7494   -2.4903    0.0123 C   0  0  0  0  0  0  0  0  0  0  0  0
    0.1561   -3.4894    0.0938 C   0  0  0  0  0  0  0  0  0  0  0  0
   -2.2284   -2.8409    0.0173 C   0  0  0  0  0  0  0  0  0  0  0  0
    1.4447   -5.7313   -0.6256 C   0  0  1  0  0  0  0  0  0  0  0  0
   -0.2545   -5.1557   -0.1511 S   0  0  0  0  0  0  0  0  0  0  0  0
    1.8756   -3.3015    0.3002 S   0  0  0  0  0  0  0  0  0  0  0  0
    2.2407   -4.4750   -1.0175 C   0  0  0  0  0  0  0  0  0  0  0  0
    2.1164   -6.6013    0.4388 C   0  0  0  0  0  0  0  0  0  0  0  0
    2.2338   -8.6124    1.8131 C   0  0  0  0  0  0  0  0  0  0  0  0
    1.5261   -7.7749    0.9464 C   0  0  0  0  0  0  0  0  0  0  0  0
    3.4332   -6.3066    0.8720 C   0  0  0  0  0  0  0  0  0  0  0  0
    4.1499   -7.1638    1.6986 C   0  0  0  0  0  0  0  0  0  0  0  0
    3.5471   -8.3194    2.1593 C   0  0  0  0  0  0  0  0  0  0  0  0
   -0.0590   -8.3213    0.5187 Cl  0  0  0  0  0  0  0  0  0  0  0  0
    4.4432   -9.4041    3.1411 Cl  0  0  0  0  0  0  0  0  0  0  0  0
   -3.4554   -3.1319    0.0214 N   0  0  0  0  0  0  0  0  0  0  0  0
  1  2  1  0
  1  5  1  0
  1  6  1  0
  2  3  2  0
  3  4  1  0
  4  5  2  0
  6  7  2  0
  6  8  1  0
  7 11  1  0
  8 21  3  0
  9 10  1  0
  9 12  1  0
  9 13  1  1
 10  7  1  0
 11 12  1  0
 13 16  2  0
 14 15  2  0
 14 18  1  0
 15 13  1  0
 15 19  1  0
 16 17  1  0
 17 18  2  0
 18 20  1  0
M  END
>  <DRUGBANK_ID>  (1) 
DB08933

>  <COMMON_NAME>  (1) 
Luliconazole

>  <CAS_NUMBER>  (1) 
187164-19-8

>  <UNII>  (1) 
RE91AN4S8G

>  <SYNONYMS>  (1) 
Luliconazole

$$$$
