
     RDKit          3D

 32 32  0  0  0  0  0  0  0  0999 V2000
    5.3297   -3.7443    3.5073 O   0  0  0  0  0  0  0  0  0  0  0  0
    4.8428   -2.4198    3.7415 C   0  0  1  0  0  0  0  0  0  0  0  0
    4.2983   -2.6902    5.1306 C   0  0  0  0  0  0  0  0  0  0  0  0
    5.9063   -1.2825    3.4197 C   0  0  0  0  0  0  0  0  0  0  0  0
    6.5227   -0.8758    1.8445 C   0  0  0  0  0  0  0  0  0  0  0  0
    5.6697   -0.2340    0.5250 C   0  0  0  0  0  0  0  0  0  0  0  0
    5.2251   -0.8276   -0.6560 C   0  0  0  0  0  0  0  0  0  0  0  0
    5.4697   -2.2193   -1.2780 C   0  0  0  0  0  0  0  0  0  0  0  0
    4.9546    1.0295    0.9590 C   0  0  0  0  0  0  0  0  0  0  0  0
    5.3282    1.6228    2.0059 O   0  0  0  0  0  0  0  0  0  0  0  0
    3.7373    1.5038    0.2532 C   0  0  0  0  0  0  0  0  0  0  0  0
    3.2255    2.8729    0.5644 C   0  0  0  0  0  0  0  0  0  0  0  0
    3.1494    0.7564   -0.7061 C   0  0  0  0  0  0  0  0  0  0  0  0
    1.8626    1.0788   -1.4235 C   0  0  0  0  0  0  0  0  0  0  0  0
    3.8536   -0.4172   -1.1981 C   0  0  0  0  0  0  0  0  0  0  0  0
    3.2479   -1.1403   -2.0279 O   0  0  0  0  0  0  0  0  0  0  0  0
    3.5631   -2.0911    3.0169 C   0  0  0  0  0  0  0  0  0  0  0  0
    3.8223   -2.0505    1.5953 C   0  0  0  0  0  0  0  0  0  0  0  0
    4.6154   -3.2453    1.0908 C   0  0  0  0  0  0  0  0  0  0  0  0
    3.7688   -4.3310    0.4279 C   0  0  2  0  0  0  0  0  0  0  0  0
    4.5904   -5.4904   -0.1041 C   0  0  0  0  0  0  0  0  0  0  0  0
    2.7604   -3.9523   -0.6794 C   0  0  0  0  0  0  0  0  0  0  0  0
    1.5334   -4.8572   -0.7618 C   0  0  0  0  0  0  0  0  0  0  0  0
    0.8397   -4.9913    0.5765 C   0  0  0  0  0  0  0  0  0  0  0  0
    0.2428   -3.6800    1.1333 C   0  0  2  0  0  0  0  0  0  0  0  0
    0.4582   -2.3721    0.3445 C   0  0  0  0  0  0  0  0  0  0  0  0
    0.7188   -3.5439    2.5827 C   0  0  0  0  0  0  0  0  0  0  0  0
    0.4068   -2.1569    3.1710 C   0  0  0  0  0  0  0  0  0  0  0  0
   -1.1106   -2.0439    3.2547 C   0  0  0  0  0  0  0  0  0  0  0  0
   -1.6672   -3.1865    4.1136 C   0  0  0  0  0  0  0  0  0  0  0  0
   -1.1201   -3.0821    5.5332 C   0  0  0  0  0  0  0  0  0  0  0  0
   -3.1741   -3.2043    4.0607 C   0  0  0  0  0  0  0  0  0  0  0  0
  2  1  1  0
  2  3  1  1
  4  2  1  0
  5  4  1  0
  5  6  1  0
  6  9  1  0
  7  6  2  0
  7  8  1  0
  7 15  1  0
  9 10  2  0
  9 11  1  0
 11 13  2  0
 12 11  1  0
 13 15  1  0
 14 13  1  0
 15 16  2  0
 17  2  1  0
 17 18  1  0
 18 19  1  0
 20 22  1  0
 20 21  1  6
 20 19  1  0
 22 23  1  0
 23 24  1  0
 25 27  1  0
 25 26  1  6
 25 24  1  0
 27 28  1  0
 28 29  1  0
 29 30  1  0
 30 31  1  0
 30 32  1  0
M  END
>  <DRUGBANK_ID>  (1) 
DB14094

>  <COMMON_NAME>  (1) 
Tocopherylquinone

>  <CAS_NUMBER>  (1) 
7559-04-8

>  <UNII>  (1) 
ZO763K43XR

>  <SYNONYMS>  (1) 
alpha-Tocopherol quinone; alpha-Tocopherolquinone; alpha-Tocopheroquinone; alpha-Tocopherylquinone; alpha-Tocoquinone; ATQ; Metarene; Vitamin E quinone

$$$$
