
     RDKit          3D

 15 16  0  0  0  0  0  0  0  0999 V2000
   -1.5672   -1.1513   -0.0770 C   0  0  0  0  0  0  0  0  0  0  0  0
   -2.3056   -0.0043   -0.2966 C   0  0  0  0  0  0  0  0  0  0  0  0
   -1.5016    1.0743   -0.0668 N   0  0  0  0  0  0  0  0  0  0  0  0
   -0.1940    0.6646   -0.0149 C   0  0  0  0  0  0  0  0  0  0  0  0
   -0.2032   -0.7313   -0.0054 C   0  0  0  0  0  0  0  0  0  0  0  0
    1.0280   -1.4117    0.0381 C   0  0  0  0  0  0  0  0  0  0  0  0
    0.9803    1.4197    0.0098 C   0  0  0  0  0  0  0  0  0  0  0  0
    2.1881    0.7194   -0.0135 C   0  0  0  0  0  0  0  0  0  0  0  0
    2.2150   -0.6740    0.0029 C   0  0  0  0  0  0  0  0  0  0  0  0
   -5.3854   -2.4305    0.9105 O   0  0  0  0  0  0  0  0  0  0  0  0
   -4.2729   -2.0243    1.2292 C   0  0  0  0  0  0  0  0  0  0  0  0
   -4.1176   -0.7490    1.6280 O   0  0  0  0  0  0  0  0  0  0  0  0
   -2.9740   -2.8497    1.2116 C   0  0  1  0  0  0  0  0  0  0  0  0
   -3.3367   -4.2978    1.1991 N   0  0  0  0  0  0  0  0  0  0  0  0
   -2.0920   -2.5545   -0.0188 C   0  0  0  0  0  0  0  0  0  0  0  0
  1  2  2  0
  1  5  1  0
  1 15  1  0
  2  3  1  0
  3  4  1  0
  4  5  2  0
  4  7  1  0
  5  6  1  0
  6  9  2  0
  7  8  2  0
  8  9  1  0
 11 10  2  0
 12 11  1  0
 13 11  1  0
 13 14  1  6
 15 13  1  0
M  END
>  <DRUGBANK_ID>  (1) 
DB00150

>  <SECONDARY_ACCESSION_NUMBERS>  (1) 
NUTR00058; EXPT02064

>  <COMMON_NAME>  (1) 
Tryptophan

>  <CAS_NUMBER>  (1) 
73-22-3

>  <UNII>  (1) 
8DUH1N11BX

>  <SYNONYMS>  (1) 
(2S)-2-amino-3-(1H-indol-3-yl)propanoic acid; (S)-alpha-Amino-beta-(3-indolyl)-propionic acid; (S)-Tryptophan; (S)-α-amino-1H-indole-3-propanoic acid; L-(-)-Tryptophan; L-(−)-tryptophan; L-Tryptophan; L-β-3-indolylalanine; Triptofano; Trp; Tryptophan; Tryptophane; Tryptophanum; W

$$$$
