TRT
     RDKit          3D

 25 25  0  0  0  0  0  0  0  0999 V2000
    1.6818    0.5152    0.5193 C   0  0  0  0  0  0  0  0  0  0  0  0
    1.1252   -0.4321    1.4429 O   0  0  0  0  0  0  0  0  0  0  0  0
    1.4509   -1.8765    1.3104 C   0  0  0  0  0  0  0  0  0  0  0  0
    1.3183   -2.8101    0.0017 C   0  0  0  0  0  0  0  0  0  0  0  0
    1.8724   -2.0564   -1.0362 O   0  0  0  0  0  0  0  0  0  0  0  0
    0.7684   -1.2385   -1.4218 C   0  0  0  0  0  0  0  0  0  0  0  0
   -0.4252   -0.9197   -0.2867 C   0  0  0  0  0  0  0  0  0  0  0  0
   -1.3106   -1.5103    0.6974 O   0  0  0  0  0  0  0  0  0  0  0  0
   -1.4883   -2.9048    0.5190 C   0  0  0  0  0  0  0  0  0  0  0  0
   -1.8210   -3.4597   -1.0154 C   0  0  0  0  0  0  0  0  0  0  0  0
   -1.6027   -2.8766   -2.3886 O   0  0  0  0  0  0  0  0  0  0  0  0
   -1.9249   -1.6470   -2.9305 C   0  0  0  0  0  0  0  0  0  0  0  0
   -2.0908   -0.5031   -2.1892 C   0  0  0  0  0  0  0  0  0  0  0  0
   -1.3709    0.6395   -2.5534 C   0  0  0  0  0  0  0  0  0  0  0  0
   -1.8419   -1.3212   -4.2522 C   0  0  0  0  0  0  0  0  0  0  0  0
   -1.8957    0.0541   -4.6694 C   0  0  0  0  0  0  0  0  0  0  0  0
   -1.7688    1.0825   -3.7118 C   0  0  0  0  0  0  0  0  0  0  0  0
   -2.2242    2.5348   -3.8026 C   0  0  0  0  0  0  0  0  0  0  0  0
   -1.2353    3.1700   -4.7703 C   0  0  0  0  0  0  0  0  0  0  0  0
   -3.6132    2.5347   -4.4436 C   0  0  0  0  0  0  0  0  0  0  0  0
   -2.2600    3.3865   -2.4141 C   0  0  0  0  0  0  0  0  0  0  0  0
   -3.2549    2.9999   -1.2206 C   0  0  0  0  0  0  0  0  0  0  0  0
   -3.0895    1.6265   -0.6338 C   0  0  0  0  0  0  0  0  0  0  0  0
   -3.0421    3.8945   -0.0103 C   0  0  0  0  0  0  0  0  0  0  0  0
   -4.7205    3.0171   -1.6350 C   0  0  0  0  0  0  0  0  0  0  0  0
  1  2  1  0
  2  3  1  0
  3  4  1  0
  4  5  1  0
  5  6  1  0
  6  7  1  0
  7  8  1  0
  8  9  1  0
  9 10  1  0
 10 11  1  0
 11 12  1  0
 12 13  2  0
 12 15  1  0
 13 14  1  0
 14 17  2  0
 15 16  2  0
 16 17  1  0
 17 18  1  0
 18 19  1  0
 18 20  1  0
 18 21  1  0
 21 22  1  0
 22 23  1  0
 22 24  1  0
 22 25  1  0
M  END
>  <DRUGBANK_ID>  (1) 
DB02080

>  <SECONDARY_ACCESSION_NUMBERS>  (1) 
EXPT03116

>  <COMMON_NAME>  (1) 
1-{2-[2-(2-Methoxyethoxy)Ethoxy]Ethoxy}-4-(1,1,3,3-Tetramethylbutyl)Benzene

$$$$
