
     RDKit          3D

 12 12  0  0  1  0  0  0  0  0999 V2000
    1.0774   -0.1827   -0.1908 C   0  0  0  0  0  0  0  0  0  0  0  0
    0.3538    1.1660   -0.4700 C   0  0  2  0  0  0  0  0  0  0  0  0
    1.5859    3.0155    0.8573 C   0  0  2  0  0  0  0  0  0  0  0  0
    0.3784    3.0432    1.8172 C   0  0  2  0  0  0  0  0  0  0  0  0
    1.2124    2.4641   -0.5341 C   0  0  2  0  0  0  0  0  0  0  0  0
   -0.3220    1.6756    1.8126 C   0  0  2  0  0  0  0  0  0  0  0  0
    0.6244   -1.2267   -1.0567 O   0  0  0  0  0  0  0  0  0  0  0  0
    2.6410    2.2560    1.4739 O   0  0  0  0  0  0  0  0  0  0  0  0
   -0.5520    4.0679    1.4389 O   0  0  0  0  0  0  0  0  0  0  0  0
    0.4176    0.6754    2.4808 O   0  0  0  0  0  0  0  0  0  0  0  0
   -0.7179    1.3159    0.4807 O   0  0  0  0  0  0  0  0  0  0  0  0
    0.2848    3.7751   -1.4816 S   0  0  0  0  0  0  0  0  0  0  0  0
  2  1  1  1
  3  8  1  1
  4  3  1  0
  4  9  1  6
  5  2  1  0
  5  3  1  0
  5 12  1  1
  6  4  1  0
  6 10  1  6
  7  1  1  0
 11  2  1  0
 11  6  1  0
M  END
>  <DRUGBANK_ID>  (1) 
DB03584

>  <SECONDARY_ACCESSION_NUMBERS>  (1) 
EXPT01645; EXPT02895; EXPT01648; DB03188; DB03599

>  <COMMON_NAME>  (1) 
4-Thio-beta-D-glucopyranose

>  <SYNONYMS>  (1) 
4-deoxy-4-Thio-beta-D-glucopyranose; 4-Thio-Î²-D-glucopyranose

$$$$
