
     RDKit          3D

 29 31  0  0  0  0  0  0  0  0999 V2000
    1.1273   -0.0348    0.0837 C   0  0  0  0  0  0  0  0  0  0  0  0
    0.4069   -1.1957   -0.0712 C   0  0  0  0  0  0  0  0  0  0  0  0
    0.2722    1.2148   -0.0021 C   0  0  0  0  0  0  0  0  0  0  0  0
    2.6691    0.0274    0.1822 C   0  0  0  0  0  0  0  0  0  0  0  0
   -1.0995   -1.2718   -0.1360 C   0  0  0  0  0  0  0  0  0  0  0  0
    0.9959   -2.5859   -0.2289 C   0  0  0  0  0  0  0  0  0  0  0  0
    0.2213    1.9241   -1.2205 C   0  0  0  0  0  0  0  0  0  0  0  0
   -0.6571    1.5564    0.9995 C   0  0  0  0  0  0  0  0  0  0  0  0
    3.3530    1.2414    0.1019 C   0  0  0  0  0  0  0  0  0  0  0  0
    3.5184   -1.0905    0.3649 C   0  0  0  0  0  0  0  0  0  0  0  0
   -1.8331   -0.5092   -1.0560 C   0  0  0  0  0  0  0  0  0  0  0  0
   -1.8175   -2.1282    0.7083 C   0  0  0  0  0  0  0  0  0  0  0  0
    1.7997   -2.7231   -1.5273 C   0  0  0  0  0  0  0  0  0  0  0  0
   -0.7402    2.9276   -1.4471 C   0  0  0  0  0  0  0  0  0  0  0  0
   -1.6106    2.5710    0.7803 C   0  0  0  0  0  0  0  0  0  0  0  0
    4.7565    1.3209    0.1702 C   0  0  0  0  0  0  0  0  0  0  0  0
    4.9179   -1.0308    0.3575 C   0  0  0  0  0  0  0  0  0  0  0  0
   -3.2242   -0.4905   -1.0560 C   0  0  0  0  0  0  0  0  0  0  0  0
   -3.2103   -2.2252    0.6063 C   0  0  0  0  0  0  0  0  0  0  0  0
   -1.5841    3.3244   -0.4082 C   0  0  0  0  0  0  0  0  0  0  0  0
    5.5424    0.1805    0.2633 C   0  0  0  0  0  0  0  0  0  0  0  0
    5.3998    2.5198    0.1639 O   0  0  0  0  0  0  0  0  0  0  0  0
   -3.9138   -1.3751   -0.2462 C   0  0  0  0  0  0  0  0  0  0  0  0
   -2.1320    4.5893   -0.3051 O   0  0  0  0  0  0  0  0  0  0  0  0
   -1.6157    5.6531   -1.1435 C   0  0  0  0  0  0  0  0  0  0  0  0
   -0.1421    6.2105   -0.9522 C   0  0  0  0  0  0  0  0  0  0  0  0
    0.9364    5.2160   -0.9872 N   0  0  0  0  0  0  0  0  0  0  0  0
    2.2824    5.6733   -1.2950 C   0  0  0  0  0  0  0  0  0  0  0  0
    1.0254    4.5507    0.3086 C   0  0  0  0  0  0  0  0  0  0  0  0
  1  2  2  0
  1  3  1  0
  1  4  1  0
  2  5  1  0
  2  6  1  0
  3  7  2  0
  3  8  1  0
  4  9  2  0
  4 10  1  0
  5 11  2  0
  5 12  1  0
  6 13  1  0
  7 14  1  0
  8 15  2  0
  9 16  1  0
 10 17  2  0
 11 18  1  0
 12 19  2  0
 14 20  2  0
 15 20  1  0
 16 21  2  0
 16 22  1  0
 17 21  1  0
 18 23  2  0
 19 23  1  0
 20 24  1  0
 24 25  1  0
 25 26  1  0
 26 27  1  0
 27 28  1  0
 27 29  1  0
M  END
>  <DRUGBANK_ID>  (1) 
DB15641

>  <COMMON_NAME>  (1) 
Droloxifene

>  <CAS_NUMBER>  (1) 
82413-20-5

>  <UNII>  (1) 
0M67U6Z98F

>  <SYNONYMS>  (1) 
Droloxifene; Droloxifeno; Droloxifenum

$$$$
