
     RDKit          3D

 39 41  0  0  1  0  0  0  0  0999 V2000
   -0.9526   -1.2745   -5.3835 C   0  0  0  0  0  0  0  0  0  0  0  0
   -1.4612   -0.0322   -4.6990 C   0  0  0  0  0  0  0  0  0  0  0  0
   -2.9887   -0.1067   -4.5660 C   0  0  0  0  0  0  0  0  0  0  0  0
   -0.6976    0.0854   -3.3573 C   0  0  0  0  0  0  0  0  0  0  0  0
    0.7238    0.6650   -3.5383 C   0  0  1  0  0  0  0  0  0  0  0  0
    1.0655    1.8494   -4.4792 C   0  0  0  0  0  0  0  0  0  0  0  0
    0.6672    3.2806   -4.0489 C   0  0  2  0  0  0  0  0  0  0  0  0
    1.1727    3.5798   -2.7488 O   0  0  0  0  0  0  0  0  0  0  0  0
   -0.8340    3.5931   -4.1495 C   0  0  2  0  0  0  0  0  0  0  0  0
   -1.6098    2.6673   -3.2003 C   0  0  0  0  0  0  0  0  0  0  0  0
   -2.7139    2.8394   -2.2197 C   0  0  0  0  0  0  0  0  0  0  0  0
   -3.5070    1.7628   -1.7301 C   0  0  0  0  0  0  0  0  0  0  0  0
   -4.5096    2.0038   -0.8026 C   0  0  0  0  0  0  0  0  0  0  0  0
   -4.6543    3.2951   -0.3125 C   0  0  0  0  0  0  0  0  0  0  0  0
   -3.7709    4.3077   -0.6900 C   0  0  0  0  0  0  0  0  0  0  0  0
   -2.8181    4.0832   -1.6532 C   0  0  0  0  0  0  0  0  0  0  0  0
   -1.1413    3.5266   -5.5817 N   0  0  0  0  0  0  0  0  0  0  0  0
   -1.8914    4.4374   -6.2873 C   0  0  0  0  0  0  0  0  0  0  0  0
   -2.0025    4.3127   -7.5066 O   0  0  0  0  0  0  0  0  0  0  0  0
   -2.7295    5.4260   -5.4547 C   0  0  0  0  0  0  0  0  0  0  0  0
   -3.5532    5.0346   -4.3574 O   0  0  0  0  0  0  0  0  0  0  0  0
   -4.7198    4.3001   -4.4419 C   0  0  0  0  0  0  0  0  0  0  0  0
   -4.9093    3.1125   -5.1901 C   0  0  0  0  0  0  0  0  0  0  0  0
   -3.9294    2.5970   -6.1506 C   0  0  0  0  0  0  0  0  0  0  0  0
   -6.0396    2.3102   -5.0601 C   0  0  0  0  0  0  0  0  0  0  0  0
   -7.0184    2.6565   -4.1607 C   0  0  0  0  0  0  0  0  0  0  0  0
   -6.8513    3.7957   -3.3766 C   0  0  0  0  0  0  0  0  0  0  0  0
   -5.7338    4.6472   -3.5313 C   0  0  0  0  0  0  0  0  0  0  0  0
   -5.7291    5.9435   -2.7649 C   0  0  0  0  0  0  0  0  0  0  0  0
    1.3811    0.8730   -2.2624 N   0  0  0  0  0  0  0  0  0  0  0  0
    2.2712    0.0534   -1.6058 C   0  0  0  0  0  0  0  0  0  0  0  0
    2.6839    0.3307   -0.5111 O   0  0  0  0  0  0  0  0  0  0  0  0
    2.7019   -1.1858   -2.3034 C   0  0  0  0  0  0  0  0  0  0  0  0
    3.1087   -1.1630   -3.6424 C   0  0  0  0  0  0  0  0  0  0  0  0
    3.4212   -2.3383   -4.3104 C   0  0  0  0  0  0  0  0  0  0  0  0
    3.4717   -3.5383   -3.6106 C   0  0  0  0  0  0  0  0  0  0  0  0
    4.0132   -4.6655   -4.2266 N   0  0  0  0  0  0  0  0  0  0  0  0
    3.2122   -3.5266   -2.2330 C   0  0  0  0  0  0  0  0  0  0  0  0
    2.7437   -2.3758   -1.5915 C   0  0  0  0  0  0  0  0  0  0  0  0
  1  2  1  0
  2  3  1  0
  2  4  1  0
  5  4  1  1
  5  6  1  0
  5 30  1  0
  7  8  1  1
  7  6  1  0
  9 17  1  0
  9 10  1  1
  9  7  1  0
 10 11  1  0
 11 12  2  0
 11 16  1  0
 12 13  1  0
 13 14  2  0
 14 15  1  0
 15 16  2  0
 17 18  1  0
 18 19  2  0
 18 20  1  0
 20 21  1  0
 21 22  1  0
 22 23  2  0
 22 28  1  0
 23 24  1  0
 23 25  1  0
 25 26  2  0
 26 27  1  0
 27 28  2  0
 28 29  1  0
 30 31  1  0
 31 32  2  0
 31 33  1  0
 33 34  2  0
 33 39  1  0
 34 35  1  0
 35 36  2  0
 36 37  1  0
 36 38  1  0
 38 39  2  0
M  END
>  <DRUGBANK_ID>  (1) 
DB04378

>  <SECONDARY_ACCESSION_NUMBERS>  (1) 
EXPT02746

>  <COMMON_NAME>  (1) 
3-Amino-N-{4-[2-(2,6-Dimethyl-Phenoxy)-Acetylamino]-3-Hydroxy-1-Isobutyl-5-Phenyl-Pentyl}-Benzamide

$$$$
