
     RDKit          3D

 13 13  0  0  0  0  0  0  0  0999 V2000
    1.4139   -0.1966    0.0269 C   0  0  0  0  0  0  0  0  0  0  0  0
    2.8789   -0.4900    0.1539 C   0  0  0  0  0  0  0  0  0  0  0  0
    0.5253   -1.2853    0.0082 C   0  0  0  0  0  0  0  0  0  0  0  0
    0.8857    1.1003   -0.0116 C   0  0  0  0  0  0  0  0  0  0  0  0
    3.7543    0.5734    0.2178 N   0  0  0  0  0  0  0  0  0  0  0  0
    3.2595   -1.6547    0.2422 O   0  0  0  0  0  0  0  0  0  0  0  0
   -0.8575   -1.0823   -0.0210 C   0  0  0  0  0  0  0  0  0  0  0  0
   -0.4991    1.3002    0.0172 C   0  0  0  0  0  0  0  0  0  0  0  0
    5.1916    0.3777    0.3530 C   0  0  0  0  0  0  0  0  0  0  0  0
   -1.3688    0.2122   -0.0104 C   0  0  0  0  0  0  0  0  0  0  0  0
    5.9571    0.9633   -0.8201 C   0  0  0  0  0  0  0  0  0  0  0  0
    6.8707    1.7751   -0.7420 O   0  0  0  0  0  0  0  0  0  0  0  0
    5.5843    0.4690   -2.0171 O   0  0  0  0  0  0  0  0  0  0  0  0
  1  2  1  0
  1  3  2  0
  1  4  1  0
  2  5  1  0
  2  6  2  0
  3  7  1  0
  4  8  2  0
  5  9  1  0
  7 10  2  0
  8 10  1  0
  9 11  1  0
 11 12  2  0
 11 13  1  0
M  END
>  <DRUGBANK_ID>  (1) 
DB16842

>  <COMMON_NAME>  (1) 
Hippuric acid

>  <CAS_NUMBER>  (1) 
495-69-2

>  <UNII>  (1) 
TE0865N2ET

>  <SYNONYMS>  (1) 
Acido ippurico; Benzamidoacetic acid; Benzoylaminoacetic acid; N-Benzoylglycine

$$$$
