
     RDKit          3D

 42 43  0  0  0  0  0  0  0  0999 V2000
    0.9936    0.0553    0.0011 O   0  0  0  0  0  0  0  0  0  0  0  0
    1.0667    0.0447   -5.0551 O   0  0  0  0  0  0  0  0  0  0  0  0
    1.5667    2.1988    4.1650 O   0  0  0  0  0  0  0  0  0  0  0  0
    6.0895    2.2972   -6.5247 O   0  0  0  0  0  0  0  0  0  0  0  0
    1.5947   -0.0039    4.1287 O   0  0  0  0  0  0  0  0  0  0  0  0
    6.0416    0.0880   -6.4560 O   0  0  0  0  0  0  0  0  0  0  0  0
    6.1790    0.0321   -2.4141 O   0  0  0  0  0  0  0  0  0  0  0  0
    2.2873    1.1197    2.2305 N   0  0  0  0  0  0  0  0  0  0  0  0
    4.0573    1.1967   -6.1547 N   0  0  0  0  0  0  0  0  0  0  0  0
    2.9503    0.0304   -0.9837 N   0  0  0  0  0  0  0  0  0  0  0  0
    2.9190    0.0756   -3.8375 N   0  0  0  0  0  0  0  0  0  0  0  0
    4.3067    0.0679   -1.2023 N   0  0  0  0  0  0  0  0  0  0  0  0
    4.2814    0.0285   -3.5864 N   0  0  0  0  0  0  0  0  0  0  0  0
    3.0214   -2.5792    1.3453 C   0  0  0  0  0  0  0  0  0  0  0  0
    2.9157   -2.5137   -6.3834 C   0  0  0  0  0  0  0  0  0  0  0  0
    2.6171   -1.3513    2.1428 C   0  0  0  0  0  0  0  0  0  0  0  0
    3.8137   -1.2906   -6.4518 C   0  0  0  0  0  0  0  0  0  0  0  0
    2.8784   -0.0007    1.5001 C   0  0  1  0  0  0  0  0  0  0  0  0
    3.1339    0.0609   -6.2913 C   0  0  1  0  0  0  0  0  0  0  0  0
    4.5197   -2.5906    1.0906 C   0  0  0  0  0  0  0  0  0  0  0  0
    2.6126   -3.8060    2.1547 C   0  0  0  0  0  0  0  0  0  0  0  0
    1.9230   -2.4985   -7.5329 C   0  0  0  0  0  0  0  0  0  0  0  0
    3.8238   -3.7400   -6.4456 C   0  0  0  0  0  0  0  0  0  0  0  0
    2.2191    0.0323    0.1491 C   0  0  0  0  0  0  0  0  0  0  0  0
    2.2978    0.0873   -5.0423 C   0  0  0  0  0  0  0  0  0  0  0  0
    1.7746    1.0297    3.5126 C   0  0  0  0  0  0  0  0  0  0  0  0
    5.4229    1.1290   -6.3743 C   0  0  0  0  0  0  0  0  0  0  0  0
    4.9452    0.0385   -2.4039 C   0  0  0  0  0  0  0  0  0  0  0  0
    1.9533    3.4767    3.6636 C   0  0  0  0  0  0  0  0  0  0  0  0
    5.4713    3.5818   -6.5915 C   0  0  0  0  0  0  0  0  0  0  0  0
    3.4515    3.6600    3.5286 C   0  0  0  0  0  0  0  0  0  0  0  0
    4.5759    3.7680   -7.8000 C   0  0  0  0  0  0  0  0  0  0  0  0
    3.9584    4.9526    3.3968 C   0  0  0  0  0  0  0  0  0  0  0  0
    3.9963    2.6888   -8.4924 C   0  0  0  0  0  0  0  0  0  0  0  0
    4.3731    2.5939    3.5269 C   0  0  0  0  0  0  0  0  0  0  0  0
    4.1881    5.0501   -8.1783 C   0  0  0  0  0  0  0  0  0  0  0  0
    5.3348    5.1530    3.2675 C   0  0  0  0  0  0  0  0  0  0  0  0
    2.9252    2.8371   -9.3531 C   0  0  0  0  0  0  0  0  0  0  0  0
    5.7354    2.7847    3.3700 C   0  0  0  0  0  0  0  0  0  0  0  0
    3.1591    5.2150   -9.1105 C   0  0  0  0  0  0  0  0  0  0  0  0
    6.2171    4.0711    3.2310 C   0  0  0  0  0  0  0  0  0  0  0  0
    2.5213    4.1120   -9.6847 C   0  0  0  0  0  0  0  0  0  0  0  0
  1 24  2  0
  2 25  2  0
  3 26  1  0
  3 29  1  0
  4 27  1  0
  4 30  1  0
  5 26  2  0
  6 27  2  0
  7 28  2  0
  8 26  1  0
  9 27  1  0
 10 12  1  0
 10 24  1  0
 11 13  1  0
 11 25  1  0
 12 28  1  0
 13 28  1  0
 14 16  1  0
 14 20  1  0
 14 21  1  0
 15 17  1  0
 15 22  1  0
 15 23  1  0
 18 16  1  1
 19 17  1  1
 18  8  1  0
 18 24  1  0
 19  9  1  0
 19 25  1  0
 29 31  1  0
 30 32  1  0
 31 33  2  0
 31 35  1  0
 32 34  2  0
 32 36  1  0
 33 37  1  0
 34 38  1  0
 35 39  2  0
 36 40  2  0
 37 41  2  0
 38 42  2  0
 39 41  1  0
 40 42  1  0
M  END
>  <DRUGBANK_ID>  (1) 
DB03891

>  <SECONDARY_ACCESSION_NUMBERS>  (1) 
EXPT01880

>  <COMMON_NAME>  (1) 
Dibenzyl (carbonylbis{2,1-hydrazinediyl[(2S)-4-methyl-1-oxo-1,2-pentanediyl]})biscarbamate

>  <SYNONYMS>  (1) 
1,5-Bis(N-benzyloxycarbonyl-L-leucinyl)carbohydrazide

$$$$
