
     RDKit          3D

 17 18  0  0  0  0  0  0  0  0999 V2000
    1.0005    0.0716   -0.0720 C   0  0  0  0  0  0  0  0  0  0  0  0
    0.4507   -1.2515   -0.3444 N   0  0  0  0  0  0  0  0  0  0  0  0
   -1.0152   -1.2313   -0.4752 C   0  0  0  0  0  0  0  0  0  0  0  0
   -1.7747   -0.2938    0.4881 C   0  0  0  0  0  0  0  0  0  0  0  0
   -2.6652   -1.3914    0.6719 N   0  0  0  0  0  0  0  0  0  0  0  0
   -1.6687   -2.3660    0.3716 C   0  0  0  0  0  0  0  0  0  0  0  0
   -3.9634   -1.4512    1.1928 C   0  0  0  0  0  0  0  0  0  0  0  0
   -4.9394   -0.7058    0.5474 C   0  0  0  0  0  0  0  0  0  0  0  0
   -6.2240   -0.7876    1.0223 C   0  0  0  0  0  0  0  0  0  0  0  0
   -7.2630   -0.0834    0.4772 N   0  0  0  0  0  0  0  0  0  0  0  0
   -6.5300   -1.5749    2.0448 N   0  0  0  0  0  0  0  0  0  0  0  0
   -5.5361   -2.2360    2.6574 C   0  0  0  0  0  0  0  0  0  0  0  0
   -5.9309   -3.0373    3.8749 C   0  0  0  0  0  0  0  0  0  0  0  0
   -6.5645   -2.1982    5.0145 C   0  0  0  0  0  0  0  0  0  0  0  0
   -7.8656   -1.4917    4.6092 C   0  0  0  0  0  0  0  0  0  0  0  0
   -6.8762   -3.0993    6.2145 C   0  0  0  0  0  0  0  0  0  0  0  0
   -4.2508   -2.2326    2.2493 N   0  0  0  0  0  0  0  0  0  0  0  0
  1  2  1  0
  2  3  1  0
  3  4  1  0
  3  6  1  0
  4  5  1  0
  5  6  1  0
  5  7  1  0
  7  8  2  0
  7 17  1  0
  8  9  1  0
  9 10  1  0
  9 11  2  0
 11 12  1  0
 12 13  1  0
 12 17  2  0
 13 14  1  0
 14 15  1  0
 14 16  1  0
M  END
>  <DRUGBANK_ID>  (1) 
DB15220

>  <COMMON_NAME>  (1) 
Seliforant

>  <CAS_NUMBER>  (1) 
1164115-89-2

>  <UNII>  (1) 
B61N8R7TDH

>  <SYNONYMS>  (1) 
Seliforant

$$$$
