228
     RDKit          3D

 31 35  0  0  0  0  0  0  0  0999 V2000
    3.8613   -7.9381   -3.4122 C   0  0  0  0  0  0  0  0  0  0  0  0
    4.2626   -8.2660   -4.6765 C   0  0  0  0  0  0  0  0  0  0  0  0
    4.5549   -7.3739   -5.6538 O   0  0  0  0  0  0  0  0  0  0  0  0
    4.9249   -8.2704   -6.7157 C   0  0  0  0  0  0  0  0  0  0  0  0
    4.7656   -9.6666   -6.3766 O   0  0  0  0  0  0  0  0  0  0  0  0
    4.4108   -9.5719   -5.0682 C   0  0  0  0  0  0  0  0  0  0  0  0
    4.2042  -10.6225   -4.1980 C   0  0  0  0  0  0  0  0  0  0  0  0
    3.8659  -10.3171   -2.8796 C   0  0  0  0  0  0  0  0  0  0  0  0
    3.6960   -8.9755   -2.4852 C   0  0  0  0  0  0  0  0  0  0  0  0
    3.4588   -8.6355   -1.0445 C   0  0  0  0  0  0  0  0  0  0  0  0
    4.7129   -7.9556   -0.5026 C   0  0  0  0  0  0  0  0  0  0  0  0
    4.8366   -6.5439   -0.8717 N   0  0  0  0  0  0  0  0  0  0  0  0
    4.5486   -5.3478   -0.2773 C   0  0  0  0  0  0  0  0  0  0  0  0
    4.6890   -4.3550   -0.9879 O   0  0  0  0  0  0  0  0  0  0  0  0
    4.1010   -5.2153    1.2175 C   0  0  1  0  0  0  0  0  0  0  0  0
    4.2447   -6.4565    2.0776 C   0  0  0  0  0  0  0  0  0  0  0  0
    5.7767   -6.5754    2.1956 C   0  0  0  0  0  0  0  0  0  0  0  0
    6.2064   -5.1092    2.3997 C   0  0  0  0  0  0  0  0  0  0  0  0
    5.0575   -4.3483    1.9058 N   0  0  0  0  0  0  0  0  0  0  0  0
    4.8055   -3.0694    2.3104 C   0  0  0  0  0  0  0  0  0  0  0  0
    5.7276   -2.1481    2.0070 N   0  0  0  0  0  0  0  0  0  0  0  0
    3.6561   -2.7158    3.0054 C   0  0  0  0  0  0  0  0  0  0  0  0
    3.5354   -1.4039    3.4421 C   0  0  0  0  0  0  0  0  0  0  0  0
    2.3306   -0.9193    4.1957 C   0  0  0  0  0  0  0  0  0  0  0  0
    4.4900   -0.4868    3.2068 N   0  0  0  0  0  0  0  0  0  0  0  0
    5.5248   -0.8940    2.4487 C   0  0  0  0  0  0  0  0  0  0  0  0
    6.4536    0.0858    2.0499 N   0  0  0  0  0  0  0  0  0  0  0  0
    6.8346    0.3893    0.7644 C   0  0  0  0  0  0  0  0  0  0  0  0
    7.7471    1.4101    0.8900 C   0  0  0  0  0  0  0  0  0  0  0  0
    7.9514    1.7259    2.2098 N   0  0  0  0  0  0  0  0  0  0  0  0
    7.1442    0.9293    2.8795 C   0  0  0  0  0  0  0  0  0  0  0  0
  1  9  2  0
  1  2  1  0
  2  3  1  0
  2  6  2  0
  3  4  1  0
  4  5  1  0
  5  6  1  0
  6  7  1  0
  7  8  2  0
  8  9  1  0
  9 10  1  0
 10 11  1  0
 11 12  1  0
 12 13  1  0
 13 14  2  0
 15 16  1  0
 15 19  1  0
 15 13  1  6
 16 17  1  0
 17 18  1  0
 18 19  1  0
 19 20  1  0
 20 22  1  0
 20 21  2  0
 21 26  1  0
 22 23  2  0
 23 24  1  0
 23 25  1  0
 25 26  2  0
 26 27  1  0
 27 28  1  0
 27 31  1  0
 28 29  2  0
 29 30  1  0
 30 31  2  0
M  END
>  <DRUGBANK_ID>  (1) 
DB06916

>  <COMMON_NAME>  (1) 
N-[2-(1,3-BENZODIOXOL-5-YL)ETHYL]-1-[2-(1H-IMIDAZOL-1-YL)-6-METHYLPYRIMIDIN-4-YL]-D-PROLINAMIDE

$$$$
