
     RDKit          3D

 23 22  0  0  0  0  0  0  0  0999 V2000
    1.2123    0.0123    0.0763 C   0  0  0  0  0  0  0  0  0  0  0  0
    0.3936    1.2502    0.4039 C   0  0  0  0  0  0  0  0  0  0  0  0
   -0.4871    1.7102   -0.7602 C   0  0  0  0  0  0  0  0  0  0  0  0
   -1.5810    0.7011   -1.1057 C   0  0  0  0  0  0  0  0  0  0  0  0
   -2.4247    0.3812    0.1408 C   0  0  0  0  0  0  0  0  0  0  0  0
   -3.1928    1.6291    0.5840 C   0  0  0  0  0  0  0  0  0  0  0  0
   -4.1039    2.0994   -0.5444 C   0  0  0  0  0  0  0  0  0  0  0  0
    2.4442    0.0568    0.0519 O   0  0  0  0  0  0  0  0  0  0  0  0
    0.5137   -1.1432   -0.1679 N   0  0  0  0  0  0  0  0  0  0  0  0
   -5.0265    0.9698   -0.9725 C   0  0  0  0  0  0  0  0  0  0  0  0
   -9.9911   -0.0045   -0.5598 C   0  0  0  0  0  0  0  0  0  0  0  0
  -14.2574    1.7943   -0.8422 C   0  0  0  0  0  0  0  0  0  0  0  0
  -13.5001    0.5134   -1.1538 C   0  0  0  0  0  0  0  0  0  0  0  0
  -12.3929    0.7806   -2.1748 C   0  0  0  0  0  0  0  0  0  0  0  0
  -11.3802    1.8013   -1.6458 C   0  0  0  0  0  0  0  0  0  0  0  0
  -10.7470    1.3113   -0.3377 C   0  0  0  0  0  0  0  0  0  0  0  0
   -7.2539    0.8802    0.1056 C   0  0  0  0  0  0  0  0  0  0  0  0
   -7.9473    1.3052   -1.1481 C   0  0  0  0  0  0  0  0  0  0  0  0
   -5.9450    0.6572    0.1628 C   0  0  0  0  0  0  0  0  0  0  0  0
   -8.8802    0.1896   -1.5880 C   0  0  0  0  0  0  0  0  0  0  0  0
    1.1240   -2.3707   -0.6453 C   0  0  0  0  0  0  0  0  0  0  0  0
    0.7111   -3.5288    0.2546 C   0  0  0  0  0  0  0  0  0  0  0  0
   -0.6911   -3.7805    0.1376 O   0  0  0  0  0  0  0  0  0  0  0  0
  2  1  1  0
  3  2  1  0
  3  4  1  0
  5  4  1  0
  5  6  1  0
  7  6  1  0
  7 10  1  0
  8  1  2  0
  9  1  1  0
  9 21  1  0
 10 19  1  0
 11 20  1  0
 12 13  1  0
 13 14  1  0
 14 15  1  0
 15 16  1  0
 16 11  1  0
 18 17  1  0
 19 17  2  0
 20 18  1  0
 21 22  1  0
 22 23  1  0
M  END
>  <DRUGBANK_ID>  (1) 
DB16495

>  <COMMON_NAME>  (1) 
Oleic monoethanolamide

>  <CAS_NUMBER>  (1) 
111-58-0

>  <UNII>  (1) 
1HI5J9N8E6

>  <SYNONYMS>  (1) 
N-(2-Hydroxyethyl)oleamide; N-OEA; N-oleoyl ethanolamine; N-oleoylethanolamine; OEA; Oleamide MEA; Oleoyl Ethanolamide; Oleoyl monoethanolamide; Oleoylethanolamide; Oleylethanolamide

$$$$
