GW3
     RDKit          3D

 20 22  0  0  0  0  0  0  0  0999 V2000
   -1.1698    0.7711    0.0109 C   0  0  0  0  0  0  0  0  0  0  0  0
   -0.5179   -0.4665    0.0166 C   0  0  0  0  0  0  0  0  0  0  0  0
   -1.3693   -1.5869    0.0056 C   0  0  0  0  0  0  0  0  0  0  0  0
   -2.7078   -1.4788   -0.0008 N   0  0  0  0  0  0  0  0  0  0  0  0
   -3.2170   -0.2514   -0.0005 C   0  0  0  0  0  0  0  0  0  0  0  0
   -2.5082    0.8783    0.0030 N   0  0  0  0  0  0  0  0  0  0  0  0
   -0.9187   -2.8854    0.0272 N   0  0  0  0  0  0  0  0  0  0  0  0
   -0.4123    1.9355    0.0097 C   0  0  0  0  0  0  0  0  0  0  0  0
    0.9926    1.9388    0.0152 C   0  0  0  0  0  0  0  0  0  0  0  0
    1.6490    0.7024    0.0126 C   0  0  0  0  0  0  0  0  0  0  0  0
    0.9238   -0.5039    0.0114 C   0  0  0  0  0  0  0  0  0  0  0  0
    1.8892   -1.5451   -0.0188 C   0  0  0  0  0  0  0  0  0  0  0  0
    3.1228   -0.9833   -0.1429 C   0  0  0  0  0  0  0  0  0  0  0  0
    2.9963    0.3704   -0.0053 N   0  0  0  0  0  0  0  0  0  0  0  0
   -4.5814   -0.1398   -0.0035 N   0  0  0  0  0  0  0  0  0  0  0  0
    4.1547    1.2707   -0.0015 C   0  0  0  0  0  0  0  0  0  0  0  0
    5.0310    1.0813    1.2651 C   0  0  0  0  0  0  0  0  0  0  0  0
    5.6875   -0.2915    1.4084 C   0  0  0  0  0  0  0  0  0  0  0  0
    4.9928    1.1195   -1.2899 C   0  0  0  0  0  0  0  0  0  0  0  0
    4.1784    1.3660   -2.5503 C   0  0  0  0  0  0  0  0  0  0  0  0
  1  2  1  0
  1  6  2  0
  1  8  1  0
  2  3  2  0
  2 11  1  0
  3  4  1  0
  3  7  1  0
  4  5  2  0
  5  6  1  0
  5 15  1  0
  8  9  2  0
  9 10  1  0
 10 11  2  0
 10 14  1  0
 11 12  1  0
 12 13  2  0
 13 14  1  0
 14 16  1  0
 16 17  1  0
 16 19  1  0
 17 18  1  0
 19 20  1  0
M  END
>  <DRUGBANK_ID>  (1) 
DB07862

>  <COMMON_NAME>  (1) 
7-(1-ETHYL-PROPYL)-7H-PYRROLO-[3,2-F]QUINAZOLINE-1,3-DIAMINE

$$$$
