
     RDKit          3D

 14 15  0  0  1  0  0  0  0  0999 V2000
    1.0374   -0.1552   -0.0838 C   0  0  0  0  0  0  0  0  0  0  0  0
    0.9051    1.5786    1.8009 C   0  0  0  0  0  0  0  0  0  0  0  0
    1.6448    5.8777    2.1464 C   0  0  0  0  0  0  0  0  0  0  0  0
   -0.2634    2.7187   -0.1469 C   0  0  0  0  0  0  0  0  0  0  0  0
    0.4714    0.1908    1.2943 C   0  0  1  0  0  0  0  0  0  0  0  0
    0.3178    4.7252    0.1647 C   0  0  0  0  0  0  0  0  0  0  0  0
    0.5399    6.1046    0.1229 C   0  0  0  0  0  0  0  0  0  0  0  0
    0.8333    4.0241    1.2456 C   0  0  0  0  0  0  0  0  0  0  0  0
    0.0818    6.8657   -0.9284 N   0  0  0  0  0  0  0  0  0  0  0  0
    1.2105    6.6779    1.1420 N   0  0  0  0  0  0  0  0  0  0  0  0
    1.5154    4.5347    2.2810 N   0  0  0  0  0  0  0  0  0  0  0  0
   -0.3507    3.9053   -0.7003 N   0  0  0  0  0  0  0  0  0  0  0  0
    0.4917    2.7173    0.9967 N   0  0  0  0  0  0  0  0  0  0  0  0
   -0.9444    0.0094    1.3395 O   0  0  0  0  0  0  0  0  0  0  0  0
  5  1  1  6
  5  2  1  0
  5 14  1  0
  7  6  2  0
  8  6  1  0
  9  7  1  0
 10  3  2  0
 10  7  1  0
 11  3  1  0
 11  8  2  0
 12  4  2  0
 12  6  1  0
 13  2  1  0
 13  4  1  0
 13  8  1  0
M  END
>  <DRUGBANK_ID>  (1) 
DB03000

>  <SECONDARY_ACCESSION_NUMBERS>  (1) 
EXPT00545

>  <COMMON_NAME>  (1) 
S-9-(2-hydroxypropyl)adenine

>  <CAS_NUMBER>  (1) 
14047-27-9

>  <SYNONYMS>  (1) 
9-Hydroxypropyladenine, S-Isomer

$$$$
