L05
     RDKit          3D

 29 32  0  0  0  0  0  0  0  0999 V2000
    1.0947    0.0398    0.0464 C   0  0  0  0  0  0  0  0  0  0  0  0
    0.5417    0.9163   -0.9235 O   0  0  0  0  0  0  0  0  0  0  0  0
    0.9635    2.2131   -0.8634 C   0  0  0  0  0  0  0  0  0  0  0  0
    2.2732    2.6313   -0.6274 C   0  0  0  0  0  0  0  0  0  0  0  0
    2.6076    3.9980   -0.6860 C   0  0  0  0  0  0  0  0  0  0  0  0
    1.6435    4.9549   -1.0177 C   0  0  0  0  0  0  0  0  0  0  0  0
    1.9178    6.3331   -0.9576 N   0  0  0  0  0  0  0  0  0  0  0  0
    0.9817    7.3411   -1.0931 C   0  0  0  0  0  0  0  0  0  0  0  0
   -0.1616    7.6046   -0.4411 C   0  0  0  0  0  0  0  0  0  0  0  0
   -0.8592    8.6979   -1.1452 C   0  0  0  0  0  0  0  0  0  0  0  0
   -1.9714    9.0987   -0.8773 O   0  0  0  0  0  0  0  0  0  0  0  0
   -0.0380    9.1128   -2.1481 N   0  0  0  0  0  0  0  0  0  0  0  0
   -0.3875   10.1831   -3.0717 C   0  0  0  0  0  0  0  0  0  0  0  0
    0.5966   11.3324   -3.0283 C   0  0  0  0  0  0  0  0  0  0  0  0
    1.9289   11.1226   -3.4116 C   0  0  0  0  0  0  0  0  0  0  0  0
    2.8777   12.1326   -3.3759 C   0  0  0  0  0  0  0  0  0  0  0  0
    2.4818   13.4183   -3.0533 C   0  0  0  0  0  0  0  0  0  0  0  0
    1.1445   13.6746   -2.7454 C   0  0  0  0  0  0  0  0  0  0  0  0
    0.2145   12.6298   -2.6729 C   0  0  0  0  0  0  0  0  0  0  0  0
    1.0364    8.2847   -2.2311 C   0  0  0  0  0  0  0  0  0  0  0  0
    1.9065    8.2047   -3.0852 O   0  0  0  0  0  0  0  0  0  0  0  0
   -0.6687    6.7868    0.6562 C   0  0  0  0  0  0  0  0  0  0  0  0
   -1.8700    6.0815    0.5113 C   0  0  0  0  0  0  0  0  0  0  0  0
   -2.1992    5.0706    1.4146 C   0  0  0  0  0  0  0  0  0  0  0  0
   -1.3356    4.7643    2.4657 C   0  0  0  0  0  0  0  0  0  0  0  0
   -0.1468    5.4724    2.6234 C   0  0  0  0  0  0  0  0  0  0  0  0
    0.1624    6.5133    1.7518 C   0  0  0  0  0  0  0  0  0  0  0  0
    0.3643    4.4900   -1.3429 C   0  0  0  0  0  0  0  0  0  0  0  0
    0.0046    3.1549   -1.1999 C   0  0  0  0  0  0  0  0  0  0  0  0
  1  2  1  0
  2  3  1  0
  3  4  2  0
  3 29  1  0
  4  5  1  0
  5  6  2  0
  6  7  1  0
  6 28  1  0
  7  8  1  0
  8  9  2  0
  8 20  1  0
  9 10  1  0
  9 22  1  0
 10 11  2  0
 10 12  1  0
 12 13  1  0
 12 20  1  0
 13 14  1  0
 14 15  2  0
 14 19  1  0
 15 16  1  0
 16 17  2  0
 17 18  1  0
 18 19  2  0
 20 21  2  0
 22 23  2  0
 22 27  1  0
 23 24  1  0
 24 25  2  0
 25 26  1  0
 26 27  2  0
 28 29  2  0
M  END
>  <DRUGBANK_ID>  (1) 
DB08063

>  <COMMON_NAME>  (1) 
1-BENZYL-3-(4-METHOXYPHENYLAMINO)-4-PHENYLPYRROLE-2,5-DIONE

$$$$
