
     RDKit          3D

 24 25  0  0  1  0  0  0  0  0999 V2000
    2.1862   -0.2528   -0.0745 C   0  0  0  0  0  0  0  0  0  0  0  0
    1.8977    0.9360    0.7866 C   0  0  0  0  0  0  0  0  0  0  0  0
    1.7286    0.8206    2.0050 O   0  0  0  0  0  0  0  0  0  0  0  0
    1.8260    2.1758    0.2265 N   0  0  0  0  0  0  0  0  0  0  0  0
    1.7916    2.5587   -1.1960 C   0  0  2  0  0  0  0  0  0  0  0  0
    3.1144    2.3669   -1.9653 C   0  0  1  0  0  0  0  0  0  0  0  0
    3.4539    0.9931   -2.1628 O   0  0  0  0  0  0  0  0  0  0  0  0
    3.0580    2.9488   -3.3777 C   0  0  2  0  0  0  0  0  0  0  0  0
    4.3651    2.9017   -3.9587 O   0  0  0  0  0  0  0  0  0  0  0  0
    2.5444    4.3767   -3.4016 C   0  0  1  0  0  0  0  0  0  0  0  0
    2.3084    4.7985   -4.8603 C   0  0  0  0  0  0  0  0  0  0  0  0
    2.5939    6.1857   -5.0116 O   0  0  0  0  0  0  0  0  0  0  0  0
    1.3074    4.5055   -2.7043 O   0  0  0  0  0  0  0  0  0  0  0  0
    1.3586    4.0623   -1.3462 C   0  0  1  0  0  0  0  0  0  0  0  0
    0.1146    4.3594   -0.6758 O   0  0  0  0  0  0  0  0  0  0  0  0
   -1.0114    3.7023   -1.0920 C   0  0  0  0  0  0  0  0  0  0  0  0
   -1.0629    2.8466   -2.1940 C   0  0  0  0  0  0  0  0  0  0  0  0
   -2.1878    2.0876   -2.4736 C   0  0  0  0  0  0  0  0  0  0  0  0
   -3.3262    2.2583   -1.6929 C   0  0  0  0  0  0  0  0  0  0  0  0
   -3.3166    3.1374   -0.6011 C   0  0  0  0  0  0  0  0  0  0  0  0
   -2.1620    3.8805   -0.3204 C   0  0  0  0  0  0  0  0  0  0  0  0
   -4.5598    1.5834   -2.0993 N   0  0  0  0  0  0  0  0  0  0  0  0
   -5.5801    1.7989   -1.4326 O   0  0  0  0  0  0  0  0  0  0  0  0
   -4.5129    0.8618   -3.1066 O   0  0  0  0  0  0  0  0  0  0  0  0
  1  2  1  0
  2  3  2  0
  2  4  1  0
  5  6  1  0
  5 14  1  0
  5  4  1  1
  6  7  1  6
  6  8  1  0
  8  9  1  1
  8 10  1  0
 10 13  1  0
 10 11  1  6
 11 12  1  0
 14 13  1  0
 14 15  1  6
 15 16  1  0
 16 17  2  0
 16 21  1  0
 17 18  1  0
 18 19  2  0
 19 20  1  0
 19 22  1  0
 20 21  2  0
 22 23  1  0
 22 24  2  0
M  CHG  2  22   1  23  -1
M  END
>  <DRUGBANK_ID>  (1) 
DB18294

>  <COMMON_NAME>  (1) 
AVR-48

>  <CAS_NUMBER>  (1) 
3459-18-5

>  <UNII>  (1) 
GVY9AA7Y5C

>  <SYNONYMS>  (1) 
.beta.-d-glucopyranoside, 4-nitrophenyl 2-(acetylamino)-2-deoxy-; 4-nitrophenyl 2-acetamido-2-deoxy-beta-d-glucopyranoside; 4-nitrophenyl-n-acetyl-beta-d-glucosaminide; N-((2s,3r,4r,5s,6r)-4,5-dihydroxy-6-(hydroxymethyl)-2-(4-nitrophenoxy)tetrahydro-2h-pyran-3-yl) acetamide; N-((2S,3R,4S,5S,6R)-4,5-dihydroxy-6-(hydroxymethyl)-2-(4-nitrophenoxy)tetrahydro-2H-pyran-3-yl)acetamide

$$$$
