
     RDKit          3D

 22 24  0  0  0  0  0  0  0  0999 V2000
    0.7542   -0.1381   -0.3872 C   0  0  0  0  0  0  0  0  0  0  0  0
    0.3643   -1.5896   -0.3131 C   0  0  0  0  0  0  0  0  0  0  0  0
    0.9661   -2.3278    0.8975 C   0  0  0  0  0  0  0  0  0  0  0  0
    0.5619   -1.7909    2.2361 N   0  0  0  0  0  0  0  0  0  0  0  0
    0.7552   -0.4858    2.6854 C   0  0  0  0  0  0  0  0  0  0  0  0
    0.1636   -0.0070    3.8166 C   0  0  0  0  0  0  0  0  0  0  0  0
   -0.5592   -0.8782    4.7000 C   0  0  0  0  0  0  0  0  0  0  0  0
   -1.2339   -0.4354    5.6109 O   0  0  0  0  0  0  0  0  0  0  0  0
   -0.4013   -2.2435    4.4224 N   0  0  0  0  0  0  0  0  0  0  0  0
   -0.0098   -2.7406    3.1877 C   0  0  0  0  0  0  0  0  0  0  0  0
   -0.0978   -3.9135    2.8440 O   0  0  0  0  0  0  0  0  0  0  0  0
   -0.8822   -3.1948    5.4293 C   0  0  0  0  0  0  0  0  0  0  0  0
    0.0291   -3.2764    6.6699 C   0  0  0  0  0  0  0  0  0  0  0  0
    0.1524   -1.9654    7.4305 C   0  0  0  0  0  0  0  0  0  0  0  0
    0.2810    1.3684    3.9112 N   0  0  0  0  0  0  0  0  0  0  0  0
    0.9478    1.7268    2.8351 C   0  0  0  0  0  0  0  0  0  0  0  0
    1.4314    0.6025    2.2094 N   0  0  0  0  0  0  0  0  0  0  0  0
    1.2850    3.0840    2.3038 C   0  0  0  0  0  0  0  0  0  0  0  0
    2.4367    3.6977    3.0851 C   0  0  0  0  0  0  0  0  0  0  0  0
    2.3445    5.1969    2.8356 C   0  0  0  0  0  0  0  0  0  0  0  0
    0.9444    5.4590    2.2826 C   0  0  0  0  0  0  0  0  0  0  0  0
    0.1878    4.1368    2.4105 C   0  0  0  0  0  0  0  0  0  0  0  0
  1  2  1  0
  2  3  1  0
  3  4  1  0
  4  5  1  0
  4 10  1  0
  5  6  2  0
  5 17  1  0
  6  7  1  0
  6 15  1  0
  7  8  2  0
  7  9  1  0
  9 10  1  0
  9 12  1  0
 10 11  2  0
 12 13  1  0
 13 14  1  0
 15 16  2  0
 16 17  1  0
 16 18  1  0
 18 19  1  0
 18 22  1  0
 19 20  1  0
 20 21  1  0
 21 22  1  0
M  END
>  <DRUGBANK_ID>  (1) 
DB12946

>  <COMMON_NAME>  (1) 
DPCPX

>  <CAS_NUMBER>  (1) 
102146-07-6

>  <UNII>  (1) 
9PTP4FOI9E

>  <SYNONYMS>  (1) 
8-cyclopentyl-1,3-dipropyl-1H-purine-2,6(3H,7H)-dione; 8-cyclopentyl-1,3-dipropylxanthine; CPX

$$$$
