Esculin
     RDKit          3D

 24 26  0  0  1  0  0  0  0  0999 V2000
    0.5582    0.1896    1.5020 O   0  0  0  0  0  0  0  0  0  0  0  0
    1.0796   -1.0307    1.9893 C   0  0  0  0  0  0  0  0  0  0  0  0
    0.8703   -2.2651    1.0847 C   0  0  1  0  0  0  0  0  0  0  0  0
    1.4615   -2.5579   -0.2174 O   0  0  0  0  0  0  0  0  0  0  0  0
    0.6948   -3.6954   -0.7902 C   0  0  1  0  0  0  0  0  0  0  0  0
    0.9881   -4.1040   -2.1519 O   0  0  0  0  0  0  0  0  0  0  0  0
    2.2116   -4.6518   -2.4184 C   0  0  0  0  0  0  0  0  0  0  0  0
    2.7140   -5.8773   -1.9437 C   0  0  0  0  0  0  0  0  0  0  0  0
    2.0443   -6.8481   -1.2539 O   0  0  0  0  0  0  0  0  0  0  0  0
    4.0178   -6.2574   -2.2036 C   0  0  0  0  0  0  0  0  0  0  0  0
    4.7628   -5.5128   -3.0920 C   0  0  0  0  0  0  0  0  0  0  0  0
    6.0436   -6.0076   -3.3726 O   0  0  0  0  0  0  0  0  0  0  0  0
    6.8482   -5.3717   -4.2894 C   0  0  0  0  0  0  0  0  0  0  0  0
    7.9842   -5.7818   -4.5545 O   0  0  0  0  0  0  0  0  0  0  0  0
    6.3054   -4.1737   -4.9468 C   0  0  0  0  0  0  0  0  0  0  0  0
    5.0845   -3.6918   -4.6813 C   0  0  0  0  0  0  0  0  0  0  0  0
    4.2521   -4.3726   -3.7045 C   0  0  0  0  0  0  0  0  0  0  0  0
    2.9709   -3.9342   -3.3537 C   0  0  0  0  0  0  0  0  0  0  0  0
    0.6915   -4.9210    0.1400 C   0  0  2  0  0  0  0  0  0  0  0  0
   -0.1374   -5.9814   -0.3678 O   0  0  0  0  0  0  0  0  0  0  0  0
    0.3833   -4.6462    1.5822 C   0  0  1  0  0  0  0  0  0  0  0  0
    0.7222   -5.7947    2.3710 O   0  0  0  0  0  0  0  0  0  0  0  0
    1.2219   -3.4633    1.9990 C   0  0  2  0  0  0  0  0  0  0  0  0
    1.0373   -3.2478    3.3938 O   0  0  0  0  0  0  0  0  0  0  0  0
  1  2  1  0
  3  4  1  0
  3 23  1  0
  3  2  1  1
  4  5  1  0
  5  6  1  6
  5 19  1  0
  6  7  1  0
  7  8  2  0
  7 18  1  0
  8  9  1  0
  8 10  1  0
 10 11  2  0
 11 12  1  0
 11 17  1  0
 12 13  1  0
 13 14  2  0
 13 15  1  0
 15 16  2  0
 16 17  1  0
 17 18  2  0
 19 20  1  6
 19 21  1  0
 21 22  1  1
 21 23  1  0
 23 24  1  1
M  END
>  <DRUGBANK_ID>  (1) 
DB13155

>  <COMMON_NAME>  (1) 
Esculin

>  <CAS_NUMBER>  (1) 
531-75-9

>  <UNII>  (1) 
1Y1L18LQAF

>  <SYNONYMS>  (1) 
6-(beta-D-Glucopyranosyloxy)-7-hydroxy-2H-1-benzopyran-2-one; 6-(beta-D-Glucopyranosyloxy)-7-hydroxy-cumarin; 6,7-Dihydroxycoumarin 6-glucoside; 6,7-Dihydroxycoumarin-6-O-glucoside; Aesculin; Aesculinum; Esculetin 6-O-glucoside; esculetin 6-Î²-D-glucoside; Esculina; Esculoside

$$$$
