
     RDKit          3D

 10 10  0  0  1  0  0  0  0  0999 V2000
   -2.6238   -0.5051    0.5090 O   0  0  0  0  0  0  0  0  0  0  0  0
   -1.4180   -0.4410   -0.2512 C   0  0  2  0  0  0  0  0  0  0  0  0
   -0.6228   -1.7335   -0.0582 C   0  0  0  0  0  0  0  0  0  0  0  0
    0.6402   -1.6954   -0.7121 O   0  0  0  0  0  0  0  0  0  0  0  0
    1.4698   -0.6251   -0.2731 C   0  0  2  0  0  0  0  0  0  0  0  0
    1.8914   -0.8248    1.0719 O   0  0  0  0  0  0  0  0  0  0  0  0
    0.7968    0.7449   -0.4869 C   0  0  2  0  0  0  0  0  0  0  0  0
    1.6247    1.8122   -0.0142 O   0  0  0  0  0  0  0  0  0  0  0  0
   -0.5839    0.7760    0.1876 C   0  0  1  0  0  0  0  0  0  0  0  0
   -1.2709    1.9972   -0.1255 O   0  0  0  0  0  0  0  0  0  0  0  0
  2  1  1  1
  2  3  1  0
  2  9  1  0
  3  4  1  0
  4  5  1  0
  5  6  1  1
  5  7  1  0
  7  8  1  1
  7  9  1  0
  9 10  1  6
M  END
>  <DRUGBANK_ID>  (1) 
DB03389

>  <SECONDARY_ACCESSION_NUMBERS>  (1) 
EXPT03270

>  <COMMON_NAME>  (1) 
alpha-D-Xylopyranose

>  <UNII>  (1) 
C791ZE5K1W

$$$$
