
     RDKit          3D

 29 30  0  0  0  0  0  0  0  0999 V2000
    0.9619    0.0376   -0.0581 C   0  0  0  0  0  0  0  0  0  0  0  0
    0.5051   -0.3700   -1.4605 C   0  0  0  0  0  0  0  0  0  0  0  0
    0.9957   -1.7628   -1.8599 C   0  0  0  0  0  0  0  0  0  0  0  0
    0.4784   -2.7857   -0.8853 C   0  0  0  0  0  0  0  0  0  0  0  0
   -1.0520   -2.8953   -0.7996 C   0  0  1  0  0  0  0  0  0  0  0  0
   -1.6510   -3.3435   -2.1315 C   0  0  0  0  0  0  0  0  0  0  0  0
   -1.1514   -4.7215   -2.5365 C   0  0  0  0  0  0  0  0  0  0  0  0
   -1.4061   -3.8077    0.3620 C   0  0  0  0  0  0  0  0  0  0  0  0
   -0.8078   -3.2179    1.5351 O   0  0  0  0  0  0  0  0  0  0  0  0
    0.4177   -3.6174    1.9561 C   0  0  0  0  0  0  0  0  0  0  0  0
    1.1660   -4.3858    1.3532 O   0  0  0  0  0  0  0  0  0  0  0  0
    0.7910   -3.0005    3.2439 C   0  0  0  0  0  0  0  0  0  0  0  0
   -0.0997   -2.7082    4.2440 C   0  0  0  0  0  0  0  0  0  0  0  0
    0.4028   -2.2479    5.5832 C   0  0  0  0  0  0  0  0  0  0  0  0
    1.4001   -1.2720    5.7070 C   0  0  0  0  0  0  0  0  0  0  0  0
    1.7813   -0.7875    6.9525 C   0  0  0  0  0  0  0  0  0  0  0  0
    1.1053   -1.2044    8.0917 C   0  0  0  0  0  0  0  0  0  0  0  0
    0.0819   -2.1430    7.9904 C   0  0  0  0  0  0  0  0  0  0  0  0
   -0.2244   -2.7105    6.7535 C   0  0  0  0  0  0  0  0  0  0  0  0
   -1.5881   -2.8626    4.0750 C   0  0  0  0  0  0  0  0  0  0  0  0
   -2.1468   -4.0382    3.5597 C   0  0  0  0  0  0  0  0  0  0  0  0
   -3.5064   -4.1260    3.2758 C   0  0  0  0  0  0  0  0  0  0  0  0
   -4.3715   -3.1199    3.6848 C   0  0  0  0  0  0  0  0  0  0  0  0
   -3.8499   -2.0096    4.3520 C   0  0  0  0  0  0  0  0  0  0  0  0
   -2.4641   -1.8430    4.4781 C   0  0  0  0  0  0  0  0  0  0  0  0
   -5.7243   -3.1290    3.4823 O   0  0  0  0  0  0  0  0  0  0  0  0
   -6.2219   -4.1942    2.6737 C   0  0  0  0  0  0  0  0  0  0  0  0
    2.2854   -2.9221    3.5104 C   0  0  0  0  0  0  0  0  0  0  0  0
    3.5251   -2.8572    3.7315 N   0  0  0  0  0  0  0  0  0  0  0  0
  1  2  1  0
  2  3  1  0
  3  4  1  0
  5  4  1  6
  5  6  1  0
  5  8  1  0
  6  7  1  0
  8  9  1  0
  9 10  1  0
 10 11  2  0
 10 12  1  0
 12 13  2  3
 12 28  1  0
 13 14  1  0
 13 20  1  0
 14 15  2  0
 14 19  1  0
 15 16  1  0
 16 17  2  0
 17 18  1  0
 18 19  2  0
 20 21  2  0
 20 25  1  0
 21 22  1  0
 22 23  2  0
 23 24  1  0
 23 26  1  0
 24 25  2  0
 26 27  1  0
 28 29  3  0
M  END
>  <DRUGBANK_ID>  (1) 
DB11226

>  <COMMON_NAME>  (1) 
Ethylhexyl methoxycrylene

>  <CAS_NUMBER>  (1) 
947753-66-4

>  <UNII>  (1) 
S3KFG6Q5X8

$$$$
