
     RDKit          3D

 39 44  0  0  0  0  0  0  0  0999 V2000
    0.7146    0.0767   -0.0399 O   0  0  0  0  0  0  0  0  0  0  0  0
    0.1655    0.9413   -0.9085 C   0  0  0  0  0  0  0  0  0  0  0  0
    0.8458    1.6465   -1.6407 O   0  0  0  0  0  0  0  0  0  0  0  0
   -1.3092    0.8876   -0.8993 C   0  0  0  0  0  0  0  0  0  0  0  0
   -2.0099    0.8428    0.2971 C   0  0  0  0  0  0  0  0  0  0  0  0
   -3.3893    0.8991    0.2174 C   0  0  0  0  0  0  0  0  0  0  0  0
   -4.0894    0.9926   -0.9449 N   0  0  0  0  0  0  0  0  0  0  0  0
   -3.4013    0.9804   -2.1061 C   0  0  0  0  0  0  0  0  0  0  0  0
   -2.0072    0.9483   -2.1094 C   0  0  0  0  0  0  0  0  0  0  0  0
   -4.0636    1.0675   -3.3355 N   0  0  0  0  0  0  0  0  0  0  0  0
   -4.1009    0.1959   -4.4655 C   0  0  0  0  0  0  0  0  0  0  0  0
   -4.7316    1.3862   -5.2530 C   0  0  0  0  0  0  0  0  0  0  0  0
   -3.7619    2.2398   -5.9400 O   0  0  0  0  0  0  0  0  0  0  0  0
   -5.0994    1.9142   -3.8130 C   0  0  0  0  0  0  0  0  0  0  0  0
   -5.8977    1.0883   -6.2704 C   0  0  0  0  0  0  0  0  0  0  0  0
   -5.7064    0.4004   -7.4891 C   0  0  0  0  0  0  0  0  0  0  0  0
   -4.1820   -0.3316   -7.8564 Cl  0  0  0  0  0  0  0  0  0  0  0  0
   -6.7053    0.3251   -8.4638 C   0  0  0  0  0  0  0  0  0  0  0  0
   -7.9345    0.9355   -8.2419 C   0  0  0  0  0  0  0  0  0  0  0  0
   -8.8918    0.8009   -9.2077 O   0  0  0  0  0  0  0  0  0  0  0  0
  -10.2415    1.1894   -8.8653 C   0  0  0  0  0  0  0  0  0  0  0  0
  -10.8030    0.5362   -7.6407 C   0  0  0  0  0  0  0  0  0  0  0  0
  -10.8074   -0.7944   -7.2714 C   0  0  0  0  0  0  0  0  0  0  0  0
  -11.3574   -0.8926   -6.0238 O   0  0  0  0  0  0  0  0  0  0  0  0
  -11.7457    0.3509   -5.5659 N   0  0  0  0  0  0  0  0  0  0  0  0
  -11.4549    1.2107   -6.5478 C   0  0  0  0  0  0  0  0  0  0  0  0
  -11.7626    2.6403   -6.4461 C   0  0  0  0  0  0  0  0  0  0  0  0
  -12.6364    3.2381   -7.3757 C   0  0  0  0  0  0  0  0  0  0  0  0
  -13.4637    2.3334   -8.6031 Cl  0  0  0  0  0  0  0  0  0  0  0  0
  -12.8767    4.6157   -7.3539 C   0  0  0  0  0  0  0  0  0  0  0  0
  -12.2435    5.4243   -6.4159 C   0  0  0  0  0  0  0  0  0  0  0  0
  -11.3740    4.8553   -5.4904 C   0  0  0  0  0  0  0  0  0  0  0  0
  -11.1491    3.4720   -5.4866 C   0  0  0  0  0  0  0  0  0  0  0  0
  -10.0685    2.8851   -4.2675 Cl  0  0  0  0  0  0  0  0  0  0  0  0
  -10.3834   -2.0315   -8.0631 C   0  0  0  0  0  0  0  0  0  0  0  0
   -9.0144   -2.2509   -8.6547 C   0  0  0  0  0  0  0  0  0  0  0  0
  -10.1450   -1.9081   -9.5608 C   0  0  0  0  0  0  0  0  0  0  0  0
   -8.1352    1.6027   -7.0499 C   0  0  0  0  0  0  0  0  0  0  0  0
   -7.1581    1.6582   -6.0763 C   0  0  0  0  0  0  0  0  0  0  0  0
  1  2  1  0
  2  3  2  0
  2  4  1  0
  4  5  2  0
  4  9  1  0
  5  6  1  0
  6  7  2  0
  7  8  1  0
  8  9  2  0
  8 10  1  0
 10 11  1  0
 10 14  1  0
 11 12  1  0
 12 13  1  0
 12 14  1  0
 12 15  1  0
 15 16  2  0
 15 39  1  0
 16 17  1  0
 16 18  1  0
 18 19  2  0
 19 20  1  0
 19 38  1  0
 20 21  1  0
 21 22  1  0
 22 23  2  0
 22 26  1  0
 23 24  1  0
 23 35  1  0
 24 25  1  0
 25 26  2  0
 26 27  1  0
 27 28  2  0
 27 33  1  0
 28 29  1  0
 28 30  1  0
 30 31  2  0
 31 32  1  0
 32 33  2  0
 33 34  1  0
 35 36  1  0
 35 37  1  0
 36 37  1  0
 38 39  2  0
M  END
>  <DRUGBANK_ID>  (1) 
DB15168

>  <COMMON_NAME>  (1) 
Cilofexor

>  <CAS_NUMBER>  (1) 
1418274-28-8

>  <UNII>  (1) 
YUN2306954

>  <SYNONYMS>  (1) 
2-[3-(2-chloro-4-{[5-cyclopropyl-3-(2,6-dichlorophenyl)-1,2-oxazol-4-yl]methoxy}phenyl)-3-hydroxyazetidin-1-yl]pyridine-4-carboxylic acid; Cilofexor

$$$$
