
     RDKit          3D

 12 11  0  0  1  0  0  0  0  0999 V2000
    1.0206    0.0544    0.0826 C   0  0  2  0  0  0  0  0  0  0  0  0
    0.4502    1.4552    0.3266 C   0  0  0  0  0  0  0  0  0  0  0  0
    0.3440   -0.5526   -1.1882 C   0  0  1  0  0  0  0  0  0  0  0  0
    0.8953   -0.8117    1.2769 N   0  0  0  0  0  0  0  0  0  0  0  0
   -0.2246    2.1143   -0.4472 O   0  0  0  0  0  0  0  0  0  0  0  0
    0.8159    1.9775    1.5189 O   0  0  0  0  0  0  0  0  0  0  0  0
    0.9166   -1.7928   -1.6129 O   0  0  0  0  0  0  0  0  0  0  0  0
   -1.2175   -3.0405   -0.2581 O   0  0  0  0  0  0  0  0  0  0  0  0
   -1.6663   -1.1192    1.2449 O   0  0  0  0  0  0  0  0  0  0  0  0
   -3.2373   -1.7156   -0.6069 O   0  0  0  0  0  0  0  0  0  0  0  0
   -1.0715   -0.6444   -1.1432 O   0  0  0  0  0  0  0  0  0  0  0  0
   -1.8920   -1.5870   -0.1119 S   0  0  0  0  0  0  0  0  0  0  0  0
  1  4  1  1
  2  1  1  0
  3  1  1  0
  3  7  1  1
  5  2  2  0
  6  2  1  0
 11  3  1  0
 12  8  1  0
 12  9  2  0
 12 10  2  0
 12 11  1  0
M  END
>  <DRUGBANK_ID>  (1) 
DB02735

>  <SECONDARY_ACCESSION_NUMBERS>  (1) 
EXPT00503

>  <COMMON_NAME>  (1) 
2-Amino-3-Oxo-4-Sulfo-Butyric Acid

$$$$
