
     RDKit          3D

 16 16  0  0  1  0  0  0  0  0999 V2000
    0.9920   -0.5604    0.0837 O   0  0  0  0  0  0  0  0  0  0  0  0
   -2.7931   -0.6384    2.3736 O   0  0  0  0  0  0  0  0  0  0  0  0
    1.0256   -1.7444   -1.8137 O   0  0  0  0  0  0  0  0  0  0  0  0
   -1.7162   -1.1511    0.4906 N   0  0  0  0  0  0  0  0  0  0  0  0
   -0.6712   -0.3099   -3.8733 N   0  0  0  0  0  0  0  0  0  0  0  0
   -0.5227    1.7557   -4.6679 N   0  0  0  0  0  0  0  0  0  0  0  0
   -0.1989    1.7045    0.1090 N   0  0  0  0  0  0  0  0  0  0  0  0
   -1.1929   -1.0935   -0.8978 C   0  0  1  0  0  0  0  0  0  0  0  0
   -1.8754   -0.0009   -1.7419 C   0  0  0  0  0  0  0  0  0  0  0  0
   -1.2450    0.5012   -2.9557 C   0  0  0  0  0  0  0  0  0  0  0  0
   -2.3942   -0.2579    1.2709 C   0  0  0  0  0  0  0  0  0  0  0  0
   -2.7231    1.1366    0.7808 C   0  0  0  0  0  0  0  0  0  0  0  0
    0.3662   -1.2020   -0.9219 C   0  0  0  0  0  0  0  0  0  0  0  0
   -1.0967    1.7888   -3.4328 C   0  0  0  0  0  0  0  0  0  0  0  0
   -1.5111    2.1022    0.6055 C   0  0  0  0  0  0  0  0  0  0  0  0
   -0.3113    0.4827   -4.9158 C   0  0  0  0  0  0  0  0  0  0  0  0
  1 13  1  0
  2 11  2  0
  3 13  2  0
  4 11  1  0
  5 10  1  0
  5 16  1  0
  6 14  1  0
  6 16  2  0
  7 15  1  0
  8  4  1  0
  8  9  1  1
  8 13  1  0
  9 10  1  0
 10 14  2  0
 11 12  1  0
 12 15  1  0
M  END
>  <DRUGBANK_ID>  (1) 
DB11695

>  <COMMON_NAME>  (1) 
Carnosine

>  <CAS_NUMBER>  (1) 
305-84-0

>  <UNII>  (1) 
8HO6PVN24W

>  <SYNONYMS>  (1) 
L-Carnosine

$$$$
