
     RDKit          3D

 27 28  0  0  1  0  0  0  0  0999 V2000
    1.0194   -0.0914    0.1044 C   0  0  0  0  0  0  0  0  0  0  0  0
    0.4762    0.0827    1.5407 C   0  0  2  0  0  0  0  0  0  0  0  0
    0.4659    1.5622    1.9335 C   0  0  0  0  0  0  0  0  0  0  0  0
    2.0543    1.8761    2.6884 S   0  0  0  0  0  0  0  0  0  0  0  0
    2.2027    0.1965    3.0906 C   0  0  0  0  0  0  0  0  0  0  0  0
    1.3658   -0.6554    2.5485 N   0  0  0  0  0  0  0  0  0  0  0  0
    3.3310   -0.0192    4.0492 C   0  0  0  0  0  0  0  0  0  0  0  0
    3.1370    0.2034    5.4192 C   0  0  0  0  0  0  0  0  0  0  0  0
    4.1243   -0.1908    6.3389 C   0  0  0  0  0  0  0  0  0  0  0  0
    5.2931   -0.8726    5.9100 C   0  0  0  0  0  0  0  0  0  0  0  0
    5.5612   -1.0404    4.5137 C   0  0  0  0  0  0  0  0  0  0  0  0
    4.5882   -0.4942    3.5843 C   0  0  0  0  0  0  0  0  0  0  0  0
    4.6218   -0.8103    2.2392 O   0  0  0  0  0  0  0  0  0  0  0  0
    6.3499   -2.2210    4.2091 O   0  0  0  0  0  0  0  0  0  0  0  0
    6.3513   -2.9242    2.8748 C   0  0  0  0  0  0  0  0  0  0  0  0
    5.1026   -3.7684    2.1993 C   0  0  0  0  0  0  0  0  0  0  0  0
    3.7658   -3.4002    2.6080 O   0  0  0  0  0  0  0  0  0  0  0  0
    3.5852   -2.9766    3.9724 C   0  0  0  0  0  0  0  0  0  0  0  0
    4.0470   -3.5623    5.3358 C   0  0  0  0  0  0  0  0  0  0  0  0
    4.7738   -4.7777    5.6188 O   0  0  0  0  0  0  0  0  0  0  0  0
    4.8409   -5.4978    4.4076 C   0  0  0  0  0  0  0  0  0  0  0  0
    3.5253   -6.0879    3.7570 C   0  0  0  0  0  0  0  0  0  0  0  0
    2.2897   -5.3467    3.7906 O   0  0  0  0  0  0  0  0  0  0  0  0
    1.6964   -5.1381    5.0787 C   0  0  0  0  0  0  0  0  0  0  0  0
   -0.9727   -0.4386    1.5415 C   0  0  0  0  0  0  0  0  0  0  0  0
   -1.6244   -0.8209    0.5216 O   0  0  0  0  0  0  0  0  0  0  0  0
   -1.6189   -0.3882    2.7132 O   0  0  0  0  0  0  0  0  0  0  0  0
  2  1  1  6
  2  3  1  0
  2  6  1  0
  2 25  1  0
  3  4  1  0
  4  5  1  0
  5  6  2  0
  5  7  1  0
  7  8  2  0
  7 12  1  0
  8  9  1  0
  9 10  2  0
 10 11  1  0
 11 12  2  0
 11 14  1  0
 12 13  1  0
 14 15  1  0
 15 16  1  0
 16 17  1  0
 17 18  1  0
 18 19  1  0
 19 20  1  0
 20 21  1  0
 21 22  1  0
 22 23  1  0
 23 24  1  0
 25 26  2  0
 25 27  1  0
M  END
>  <DRUGBANK_ID>  (1) 
DB13120

>  <COMMON_NAME>  (1) 
Deferitazole

>  <CAS_NUMBER>  (1) 
945635-15-4

>  <UNII>  (1) 
4D8DC53Y1L

>  <SYNONYMS>  (1) 
Deferitazole

$$$$
