U01
     RDKit          3D

 23 25  0  0  0  0  0  0  0  0999 V2000
    2.9726   -2.6323    1.3649 C   0  0  0  0  0  0  0  0  0  0  0  0
    3.7308   -2.0977    2.5463 C   0  0  0  0  0  0  0  0  0  0  0  0
    3.1478   -4.1389    3.7553 C   0  0  0  0  0  0  0  0  0  0  0  0
    2.3808   -4.5929    2.7053 C   0  0  0  0  0  0  0  0  0  0  0  0
    2.3588   -3.8352    1.4741 C   0  0  0  0  0  0  0  0  0  0  0  0
    1.7075   -0.9259    0.0453 C   0  0  0  0  0  0  0  0  0  0  0  0
    1.5829    0.4658    0.1477 C   0  0  0  0  0  0  0  0  0  0  0  0
    0.3007    1.0543    0.0716 C   0  0  0  0  0  0  0  0  0  0  0  0
   -0.8411    0.2639   -0.1008 C   0  0  0  0  0  0  0  0  0  0  0  0
   -0.7261   -1.1021   -0.1988 C   0  0  0  0  0  0  0  0  0  0  0  0
    0.5276   -1.6618   -0.1264 C   0  0  0  0  0  0  0  0  0  0  0  0
    3.0175   -1.7241    0.1156 C   0  0  2  0  0  0  0  0  0  0  0  0
    3.2462   -2.5451   -1.2049 C   0  0  0  0  0  0  0  0  0  0  0  0
    3.2909   -1.6926   -2.4652 C   0  0  0  0  0  0  0  0  0  0  0  0
    4.4480   -3.4906   -1.1060 C   0  0  0  0  0  0  0  0  0  0  0  0
    3.2744   -4.8957    4.9108 C   0  0  0  0  0  0  0  0  0  0  0  0
    2.5974   -6.1155    5.0116 C   0  0  0  0  0  0  0  0  0  0  0  0
    1.7852   -6.5644    3.9731 C   0  0  0  0  0  0  0  0  0  0  0  0
    1.6776   -5.8021    2.8225 C   0  0  0  0  0  0  0  0  0  0  0  0
    4.2914   -1.0146    2.5220 O   0  0  0  0  0  0  0  0  0  0  0  0
    3.8165   -2.9122    3.6764 O   0  0  0  0  0  0  0  0  0  0  0  0
    1.6755   -4.5433    0.5160 O   0  0  0  0  0  0  0  0  0  0  0  0
   -2.5735    0.9987   -0.2031 Br  0  0  0  0  0  0  0  0  0  0  0  0
  1  2  1  0
  1  5  2  0
  2 20  2  0
  2 21  1  0
  3  4  2  0
  3 16  1  0
  3 21  1  0
  4  5  1  0
  4 19  1  0
  5 22  1  0
  6  7  2  0
  6 11  1  0
  7  8  1  0
  8  9  2  0
  9 10  1  0
  9 23  1  0
 10 11  2  0
 12 13  1  6
 12  6  1  0
 12  1  1  0
 13 14  1  0
 13 15  1  0
 16 17  2  0
 17 18  1  0
 18 19  2  0
M  END
>  <DRUGBANK_ID>  (1) 
DB08662

>  <COMMON_NAME>  (1) 
3-[1-(4-BROMO-PHENYL)-2-METHYL-PROPYL]-4-HYDROXY-CHROMEN-2-ONE

$$$$
