
     RDKit          3D

  5  4  0  0  0  0  0  0  0  0999 V2000
    0.8893   -0.0765    0.0495 O   0  0  0  0  0  0  0  0  0  0  0  0
    0.3204   -0.7298   -0.9842 C   0  0  0  0  0  0  0  0  0  0  0  0
    1.0168   -1.2329   -1.8536 O   0  0  0  0  0  0  0  0  0  0  0  0
   -1.1783   -0.6955   -0.9784 C   0  0  0  0  0  0  0  0  0  0  0  0
   -1.8292   -1.6020    0.6072 Br  0  0  0  0  0  0  0  0  0  0  0  0
  1  2  1  0
  2  3  2  0
  2  4  1  0
  4  5  1  0
M  END
>  <DRUGBANK_ID>  (1) 
DB02198

>  <SECONDARY_ACCESSION_NUMBERS>  (1) 
EXPT00753

>  <COMMON_NAME>  (1) 
2-Bromoacetyl Group

>  <CAS_NUMBER>  (1) 
79-08-3

>  <UNII>  (1) 
2B3HS32431

$$$$
