
     RDKit          3D

 24 26  0  0  0  0  0  0  0  0999 V2000
    1.9572    1.4874    0.4363 C   0  0  0  0  0  0  0  0  0  0  0  0
    0.1896    4.6483   -0.2853 C   0  0  0  0  0  0  0  0  0  0  0  0
   -0.0967    3.6042    0.7755 C   0  0  0  0  0  0  0  0  0  0  0  0
   -0.1394    1.1202   -1.4216 C   0  0  0  0  0  0  0  0  0  0  0  0
    4.6174    3.7229    0.1789 C   0  0  0  0  0  0  0  0  0  0  0  0
    2.6117    6.3576   -2.6492 C   0  0  0  0  0  0  0  0  0  0  0  0
    0.7470    1.8029   -2.6986 C   0  0  1  0  0  0  0  0  0  0  0  0
    4.1852    5.9024   -1.2862 C   0  0  0  0  0  0  0  0  0  0  0  0
    0.1821    2.4844   -4.0389 C   0  0  2  0  0  0  0  0  0  0  0  0
    0.9864    3.8314   -4.2560 C   0  0  2  0  0  0  0  0  0  0  0  0
    5.2910    5.8491   -0.4124 C   0  0  0  0  0  0  0  0  0  0  0  0
    3.4765    4.7603   -1.4429 C   0  0  0  0  0  0  0  0  0  0  0  0
    1.4894    4.1163   -2.8700 C   0  0  2  0  0  0  0  0  0  0  0  0
    6.1817    6.8818   -0.2763 N   0  0  0  0  0  0  0  0  0  0  0  0
   -1.3249    3.4161   -1.5001 N   0  0  0  0  0  0  0  0  0  0  0  0
    5.4882    4.7233    0.3227 N   0  0  0  0  0  0  0  0  0  0  0  0
    3.6172    3.6368   -0.6917 N   0  0  0  0  0  0  0  0  0  0  0  0
    3.6400    6.9196   -2.0513 N   0  0  0  0  0  0  0  0  0  0  0  0
    2.5885    4.9842   -2.4797 N   0  0  0  0  0  0  0  0  0  0  0  0
   -1.2373    2.6602   -4.0313 O   0  0  0  0  0  0  0  0  0  0  0  0
    0.1787    4.9059   -4.7755 O   0  0  0  0  0  0  0  0  0  0  0  0
   -0.8753    4.7448   -1.2881 O   0  0  0  0  0  0  0  0  0  0  0  0
    1.5743    2.8534   -2.1834 O   0  0  0  0  0  0  0  0  0  0  0  0
    0.1937    1.7118    0.4576 S   0  0  0  0  0  0  0  0  0  0  0  0
  3  2  1  0
  7 23  1  0
  7  4  1  1
  9  7  1  0
  9 10  1  0
  9 20  1  1
 10 13  1  0
 10 21  1  1
 11  8  2  0
 12  8  1  0
 13 23  1  0
 13 19  1  6
 14 11  1  0
 16  5  2  0
 16 11  1  0
 17  5  1  0
 17 12  2  0
 18  6  2  0
 18  8  1  0
 19  6  1  0
 19 12  1  0
 22  2  1  0
 22 15  1  0
 24  1  1  6
 24  3  1  0
 24  4  1  0
M  CHG  1  24   1
M  END
>  <DRUGBANK_ID>  (1) 
DB02523

>  <SECONDARY_ACCESSION_NUMBERS>  (1) 
EXPT00380

>  <COMMON_NAME>  (1) 
2-aminooxyethyl-[[(2R,3S,4R,5R)-5-(6-aminopurin-9-yl)-3,4-dihydroxy-tetrahydrofuran-2-yl]methyl]-methyl-sulfonium

$$$$
