620
     RDKit          3D

 28 31  0  0  1  0  0  0  0  0999 V2000
    6.0909   -1.8461    7.4049 F   0  0  0  0  0  0  0  0  0  0  0  0
    2.8940    2.1200    6.7942 O   0  0  0  0  0  0  0  0  0  0  0  0
    3.9368   -2.3771    5.6915 O   0  0  0  0  0  0  0  0  0  0  0  0
    6.5190    3.1133    7.0947 O   0  0  0  0  0  0  0  0  0  0  0  0
    2.0564    2.7527    9.0292 O   0  0  0  0  0  0  0  0  0  0  0  0
    3.2346   -0.2571   10.1947 O   0  0  0  0  0  0  0  0  0  0  0  0
    5.2612   -2.6240    1.2252 O   0  0  0  0  0  0  0  0  0  0  0  0
    4.8113    0.8664    7.0991 C   0  0  2  0  0  0  0  0  0  0  0  0
    6.1685    0.6861    7.9774 C   0  0  1  0  0  0  0  0  0  0  0  0
    7.1323   -0.0909    6.5979 C   0  0  2  0  0  0  0  0  0  0  0  0
    6.1931   -1.3006    6.0928 C   0  0  2  0  0  0  0  0  0  0  0  0
    3.9906    1.9613    7.7314 C   0  0  1  0  0  0  0  0  0  0  0  0
    4.0065   -0.4048    6.8566 C   0  0  0  0  0  0  0  0  0  0  0  0
    5.8938    2.1940    8.9413 C   0  0  0  0  0  0  0  0  0  0  0  0
    4.6929   -1.1505    5.7980 C   0  0  2  0  0  0  0  0  0  0  0  0
    5.3054    3.0761    7.9114 C   0  0  1  0  0  0  0  0  0  0  0  0
    6.7256   -2.5521    5.1485 C   0  0  1  0  0  0  0  0  0  0  0  0
    8.4720   -0.9604    6.6546 C   0  0  0  0  0  0  0  0  0  0  0  0
    5.1381    1.6406    5.6085 C   0  0  0  0  0  0  0  0  0  0  0  0
    8.9933   -1.6473    5.1026 C   0  0  0  0  0  0  0  0  0  0  0  0
    7.8922   -2.2868    4.0748 C   0  0  0  0  0  0  0  0  0  0  0  0
    3.0055    1.9473    9.0006 C   0  0  0  0  0  0  0  0  0  0  0  0
    6.6714   -3.7150    6.2089 C   0  0  0  0  0  0  0  0  0  0  0  0
    5.7323   -2.9186    4.1042 C   0  0  0  0  0  0  0  0  0  0  0  0
    7.6412   -2.4653    2.6005 C   0  0  0  0  0  0  0  0  0  0  0  0
    3.2262    1.1394   10.3039 C   0  0  0  0  0  0  0  0  0  0  0  0
    5.4016   -1.8611    3.3167 C   0  0  0  0  0  0  0  0  0  0  0  0
    5.9905   -2.2800    2.0844 C   0  0  0  0  0  0  0  0  0  0  0  0
  5 22  2  0
  6 26  1  0
  7 28  2  0
  8  9  1  0
  8 12  1  0
  8 13  1  0
  8 19  1  6
  9 10  1  0
  9 14  1  6
 10 11  1  0
 10 18  1  1
 11 15  1  0
 11 17  1  0
 11  1  1  1
 12 16  1  0
 12 22  1  0
 12  2  1  6
 13 15  1  0
 14 16  1  0
 15  3  1  1
 16  4  1  6
 17 21  1  0
 17 24  1  0
 17 23  1  1
 18 20  1  0
 20 21  1  0
 21 25  2  0
 22 26  1  0
 24 27  2  0
 25 28  1  0
 27 28  1  0
M  END
>  <DRUGBANK_ID>  (1) 
DB00620

>  <SECONDARY_ACCESSION_NUMBERS>  (1) 
APRD00422

>  <COMMON_NAME>  (1) 
Triamcinolone

>  <CAS_NUMBER>  (1) 
124-94-7

>  <UNII>  (1) 
1ZK20VI6TY

>  <SYNONYMS>  (1) 
11β,16α,17α,21-tetrahydroxy-9α-fluoro-1,4-pregnadiene-3,20-dione; 9-fluoro-11β,16α,17,21-tetrahydroxypregna-1,4-diene-3,20-dione; 9α-fluoro-11β,16α,17,21-tetrahydroxypregna-1,4-diene-3,20-dione; 9α-fluoro-11β,16α,17α,21-tetrahydroxypregna-1,4-diene-3,20-dione; 9α-fluoro-16α-hydroxyprednisolone; Fluoxyprednisolone; Tiamcinolonum; Triamcinolona; Triamcinolone; Triamcinolonum

$$$$
