4PI
     RDKit          3D

 22 24  0  0  0  0  0  0  0  0999 V2000
    0.9896   -0.0110   -0.0034 C   0  0  0  0  0  0  0  0  0  0  0  0
    0.2535   -1.2047   -0.0039 C   0  0  0  0  0  0  0  0  0  0  0  0
   -1.1497   -1.1814   -0.0073 C   0  0  0  0  0  0  0  0  0  0  0  0
   -4.7359    1.9247    0.8868 C   0  0  0  0  0  0  0  0  0  0  0  0
   -6.0654    2.3733    0.3130 C   0  0  0  0  0  0  0  0  0  0  0  0
   -5.8682    3.2914   -0.9254 C   0  0  0  0  0  0  0  0  0  0  0  0
   -4.9965    2.5709   -1.9622 C   0  0  0  0  0  0  0  0  0  0  0  0
   -3.6835    2.1296   -1.3333 C   0  0  0  0  0  0  0  0  0  0  0  0
   -8.0762    4.5585   -0.6260 C   0  0  0  0  0  0  0  0  0  0  0  0
   -9.3847    4.8783   -0.9979 C   0  0  0  0  0  0  0  0  0  0  0  0
   -9.7336    5.9915    1.1315 C   0  0  0  0  0  0  0  0  0  0  0  0
    2.4884   -0.0219   -0.0164 C   0  0  0  0  0  0  0  0  0  0  0  0
   -3.3292    0.0819    0.0171 C   0  0  0  0  0  0  0  0  0  0  0  0
   -3.9139    1.3266   -0.1451 N   0  0  0  0  0  0  0  0  0  0  0  0
  -10.1987    5.6116   -0.1289 C   0  0  0  0  0  0  0  0  0  0  0  0
   -8.4395    5.6827    1.5109 C   0  0  0  0  0  0  0  0  0  0  0  0
   -7.6094    5.0333    0.6113 C   0  0  0  0  0  0  0  0  0  0  0  0
   -3.9873   -0.9411    0.2079 O   0  0  0  0  0  0  0  0  0  0  0  0
   -7.2161    3.7122   -1.5416 C   0  0  0  0  0  0  0  0  0  0  0  0
   -1.8297    0.0407   -0.0026 C   0  0  0  0  0  0  0  0  0  0  0  0
   -1.0811    1.2245    0.0473 C   0  0  0  0  0  0  0  0  0  0  0  0
    0.3088    1.2036    0.0191 C   0  0  0  0  0  0  0  0  0  0  0  0
  1 12  1  0
  1 22  2  0
  1  2  1  0
  2  3  2  0
  3 20  1  0
  4 14  1  0
  4  5  1  0
  5  6  1  0
  6  7  1  0
  6 19  1  0
  7  8  1  0
  8 14  1  0
  9 17  1  0
  9 19  1  0
  9 10  2  0
 10 15  1  0
 11 16  1  0
 11 15  2  0
 13 18  2  0
 13 20  1  0
 13 14  1  0
 16 17  2  0
 20 21  2  0
 21 22  1  0
M  END
>  <DRUGBANK_ID>  (1) 
DB07123

>  <COMMON_NAME>  (1) 
N-(4-METHYLBENZOYL)-4-BENZYLPIPERIDINE

$$$$
