SB7
     RDKit          3D

 13 13  0  0  0  0  0  0  0  0999 V2000
    1.5828   -0.1996   -0.0154 C   0  0  0  0  0  0  0  0  0  0  0  0
    0.7117   -1.2892    0.0418 C   0  0  0  0  0  0  0  0  0  0  0  0
   -0.6611   -1.0795    0.1519 C   0  0  0  0  0  0  0  0  0  0  0  0
   -1.0865    0.2552    0.1452 C   0  0  0  0  0  0  0  0  0  0  0  0
   -0.2418    1.3471    0.0825 C   0  0  0  0  0  0  0  0  0  0  0  0
    1.1167    1.1139   -0.0088 C   0  0  0  0  0  0  0  0  0  0  0  0
   -1.5775   -2.2782    0.2472 C   0  0  0  0  0  0  0  0  0  0  0  0
   -2.6832   -2.1704    1.2994 C   0  0  0  0  0  0  0  0  0  0  0  0
   -3.6359   -0.9737    1.2177 C   0  0  0  0  0  0  0  0  0  0  0  0
   -4.4621   -0.7839    0.0151 N   0  0  0  0  0  0  0  0  0  0  0  0
   -5.0392    0.5450    0.1536 O   0  0  0  0  0  0  0  0  0  0  0  0
   -3.9407   -0.8719   -1.3506 C   0  0  0  0  0  0  0  0  0  0  0  0
   -3.1453    0.2159   -1.7770 O   0  0  0  0  0  0  0  0  0  0  0  0
  1  2  2  0
  1  6  1  0
  2  3  1  0
  3  4  2  0
  3  7  1  0
  4  5  1  0
  5  6  2  0
  7  8  1  0
  8  9  1  0
  9 10  1  0
 10 11  1  0
 10 12  1  0
 12 13  1  0
M  END
>  <DRUGBANK_ID>  (1) 
DB08523

>  <COMMON_NAME>  (1) 
[HYDROXY(3-PHENYLPROPYL)AMINO]METHANOL

$$$$
