
     RDKit          3D

 21 24  0  0  0  0  0  0  0  0999 V2000
   -1.7119   -1.7898   -2.4327 C   0  0  0  0  0  0  0  0  0  0  0  0
    0.9080   -1.7653   -2.7953 C   0  0  1  0  0  0  0  0  0  0  0  0
   -0.2393   -2.7672   -2.7361 C   0  0  0  0  0  0  0  0  0  0  0  0
   -1.3241   -2.0074   -1.5532 C   0  0  0  0  0  0  0  0  0  0  0  0
    4.6465   -1.3100   -4.5877 C   0  0  0  0  0  0  0  0  0  0  0  0
    3.5437   -0.7246   -5.2109 C   0  0  0  0  0  0  0  0  0  0  0  0
   -2.7148   -2.2053   -1.4332 C   0  0  2  0  0  0  0  0  0  0  0  0
   -3.6502   -2.7774   -2.2530 O   0  0  0  0  0  0  0  0  0  0  0  0
    3.0774   -2.3270   -2.8887 C   0  0  0  0  0  0  0  0  0  0  0  0
    2.1651   -2.8921   -1.8777 O   0  0  0  0  0  0  0  0  0  0  0  0
    0.3250   -2.7006   -1.9379 C   0  0  1  0  0  0  0  0  0  0  0  0
    4.4556   -2.1053   -3.3872 C   0  0  0  0  0  0  0  0  0  0  0  0
    2.1032   -1.7486   -3.5922 C   0  0  0  0  0  0  0  0  0  0  0  0
    2.2730   -0.9193   -4.6932 C   0  0  0  0  0  0  0  0  0  0  0  0
    1.0243   -0.3626   -5.2715 C   0  0  0  0  0  0  0  0  0  0  0  0
   -0.1870   -0.2814   -3.4016 C   0  0  0  0  0  0  0  0  0  0  0  0
    0.6600   -0.5429   -2.0728 C   0  0  0  0  0  0  0  0  0  0  0  0
    0.3590    0.5788   -4.3911 N   0  0  0  0  0  0  0  0  0  0  0  0
   -0.9570    1.0421   -4.9395 C   0  0  0  0  0  0  0  0  0  0  0  0
    5.7056   -2.5727   -2.9786 O   0  0  0  0  0  0  0  0  0  0  0  0
    6.0566   -2.1728   -1.6614 C   0  0  0  0  0  0  0  0  0  0  0  0
 11  1  1  1
  1  7  1  0
  2 13  1  0
  2 17  1  1
  3  4  2  0
  3  2  1  0
  4  7  1  0
  5  6  2  0
  5 12  1  0
  6 14  1  0
  7  8  1  6
  9 12  2  0
  9 10  1  0
 10 11  1  0
 11  2  1  0
 12 20  1  0
 13  9  1  0
 14 15  1  0
 14 13  2  0
 15 18  1  0
 16 17  1  0
 18 16  1  0
 18 19  1  0
 20 21  1  0
M  END
>  <DRUGBANK_ID>  (1) 
DB00674

>  <SECONDARY_ACCESSION_NUMBERS>  (1) 
APRD00206; EXPT01628

>  <COMMON_NAME>  (1) 
Galantamine

>  <CAS_NUMBER>  (1) 
357-70-0

>  <UNII>  (1) 
0D3Q044KCA

>  <SYNONYMS>  (1) 
(-)-Galanthamine; Galantamina; Galantamine; Galanthamine

$$$$
