
     RDKit          3D

 21 21  0  0  1  0  0  0  0  0999 V2000
    1.0073   -0.0050    0.0989 C   0  0  0  0  0  0  0  0  0  0  0  0
    0.6110    1.3376    0.7519 C   0  0  0  0  0  0  0  0  0  0  0  0
    1.1440    2.5572   -0.0048 C   0  0  0  0  0  0  0  0  0  0  0  0
   -2.5835    0.1733   -2.8671 C   0  0  0  0  0  0  0  0  0  0  0  0
   -2.6409    1.6494   -2.5603 C   0  0  0  0  0  0  0  0  0  0  0  0
   -2.4767   -0.6492   -1.5675 C   0  0  0  0  0  0  0  0  0  0  0  0
    0.3769    3.5739   -0.4648 C   0  0  0  0  0  0  0  0  0  0  0  0
   -1.3717    2.0021   -1.8588 C   0  0  0  0  0  0  0  0  0  0  0  0
   -3.7011   -0.4360   -0.6749 C   0  0  0  0  0  0  0  0  0  0  0  0
   -0.0872    1.6760   -2.6440 C   0  0  0  0  0  0  0  0  0  0  0  0
    0.6911    4.4348   -1.7141 C   0  0  0  0  0  0  0  0  0  0  0  0
   -4.9946   -0.6929   -1.4440 C   0  0  0  0  0  0  0  0  0  0  0  0
    1.2291    2.5160   -4.5774 C   0  0  0  0  0  0  0  0  0  0  0  0
    1.7958    3.6746   -4.9090 C   0  0  0  0  0  0  0  0  0  0  0  0
    0.0173    2.6952   -3.7300 C   0  0  2  0  0  0  0  0  0  0  0  0
    0.0910    4.1411   -3.1691 C   0  0  2  0  0  0  0  0  0  0  0  0
    1.0219    4.7216   -4.2119 C   0  0  0  0  0  0  0  0  0  0  0  0
   -5.0874   -2.1191   -1.9179 C   0  0  0  0  0  0  0  0  0  0  0  0
    1.1625    5.9102   -4.4526 O   0  0  0  0  0  0  0  0  0  0  0  0
   -5.9128   -2.9428   -1.5330 O   0  0  0  0  0  0  0  0  0  0  0  0
   -4.1547   -2.4671   -2.8219 O   0  0  0  0  0  0  0  0  0  0  0  0
  2  1  1  0
  3  2  1  0
  5  4  1  0
  6  4  1  0
  7  3  2  3
  7 11  1  0
  8  5  1  0
  9  6  1  0
 10  8  1  0
 12  9  1  0
 14 13  2  0
 15 10  1  1
 15 13  1  0
 16 11  1  1
 16 15  1  0
 17 14  1  0
 17 16  1  0
 18 12  1  0
 19 17  2  0
 20 18  2  0
 21 18  1  0
M  END
>  <DRUGBANK_ID>  (1) 
DB03007

>  <SECONDARY_ACCESSION_NUMBERS>  (1) 
EXPT02441

>  <COMMON_NAME>  (1) 
9r,13r-Opda

$$$$
