
     RDKit          3D

 34 36  0  0  0  0  0  0  0  0999 V2000
    0.9880    0.6051    0.1171 F   0  0  0  0  0  0  0  0  0  0  0  0
    5.2313   -4.0691   -0.4793 O   0  0  0  0  0  0  0  0  0  0  0  0
    2.3388   -6.4599   -1.6858 O   0  0  0  0  0  0  0  0  0  0  0  0
    5.0283   -2.2928    1.2404 O   0  0  0  0  0  0  0  0  0  0  0  0
    0.4677   -4.9142   -2.9183 O   0  0  0  0  0  0  0  0  0  0  0  0
    4.4063    1.3749    0.8246 O   0  0  0  0  0  0  0  0  0  0  0  0
    1.4158   -4.5814    0.5528 O   0  0  0  0  0  0  0  0  0  0  0  0
    2.9215   -3.5731    2.3546 O   0  0  0  0  0  0  0  0  0  0  0  0
   -1.4533   -6.7883   -2.1660 O   0  0  0  0  0  0  0  0  0  0  0  0
    1.8034   -1.6503    0.1327 O   0  0  0  0  0  0  0  0  0  0  0  0
    0.0102   -6.1926    0.9540 O   0  0  0  0  0  0  0  0  0  0  0  0
   -1.9871   -4.0007   -1.3423 O   0  0  0  0  0  0  0  0  0  0  0  0
    6.7580   -5.4482   -2.4162 O   0  0  0  0  0  0  0  0  0  0  0  0
    2.5357    1.6749    2.2345 O   0  0  0  0  0  0  0  0  0  0  0  0
    6.9165    1.2662    1.9040 O   0  0  0  0  0  0  0  0  0  0  0  0
    2.4894   -2.6220   -2.6904 O   0  0  0  0  0  0  0  0  0  0  0  0
    3.2195   -5.4933   -1.0041 C   0  0  1  0  0  0  0  0  0  0  0  0
    2.7491   -5.0760    0.4402 C   0  0  1  0  0  0  0  0  0  0  0  0
    3.4255   -3.9020    1.0507 C   0  0  2  0  0  0  0  0  0  0  0  0
    4.7809   -5.4194   -0.9923 C   0  0  1  0  0  0  0  0  0  0  0  0
    4.8596   -3.7110    0.8666 C   0  0  1  0  0  0  0  0  0  0  0  0
    4.2988   -1.1476    0.6387 C   0  0  1  0  0  0  0  0  0  0  0  0
    0.9147   -6.1553   -2.2133 C   0  0  2  0  0  0  0  0  0  0  0  0
   -0.2716   -6.6553   -1.3472 C   0  0  1  0  0  0  0  0  0  0  0  0
    2.7320   -0.8449    0.7959 C   0  0  1  0  0  0  0  0  0  0  0  0
    4.8782    0.1088    1.3552 C   0  0  1  0  0  0  0  0  0  0  0  0
   -0.6380   -5.6908   -0.2361 C   0  0  2  0  0  0  0  0  0  0  0  0
   -0.6453   -4.1661   -0.8092 C   0  0  1  0  0  0  0  0  0  0  0  0
    0.2517   -3.7598   -2.0596 C   0  0  1  0  0  0  0  0  0  0  0  0
    2.3459    0.4707    0.1315 C   0  0  2  0  0  0  0  0  0  0  0  0
    5.3363   -5.4382   -2.4514 C   0  0  0  0  0  0  0  0  0  0  0  0
    2.9930    1.5689    0.8956 C   0  0  2  0  0  0  0  0  0  0  0  0
    6.3991    0.1002    1.2754 C   0  0  0  0  0  0  0  0  0  0  0  0
    1.6005   -3.3037   -1.8517 C   0  0  0  0  0  0  0  0  0  0  0  0
 30  1  1  1
  2 20  1  0
  2 21  1  0
  5 23  1  0
  5 29  1  0
  6 26  1  0
  6 32  1  0
 13 31  1  0
 15 33  1  0
 16 34  1  0
 17 18  1  0
 17 20  1  0
 17  3  1  1
 18  7  1  6
 18 19  1  0
 19 21  1  0
 19  8  1  1
 20 31  1  6
 21  4  1  6
 22 25  1  0
 22 26  1  0
 22  4  1  1
 23  3  1  1
 23 24  1  0
 24  9  1  6
 24 27  1  0
 25 10  1  6
 25 30  1  0
 26 33  1  6
 27 28  1  0
 27 11  1  1
 28 12  1  6
 28 29  1  0
 29 34  1  1
 30 32  1  0
 32 14  1  1
M  END
>  <DRUGBANK_ID>  (1) 
DB01633

>  <SECONDARY_ACCESSION_NUMBERS>  (1) 
EXPT01406

>  <COMMON_NAME>  (1) 
Deoxy-2-fluoro-beta-D-cellotrioside

>  <SYNONYMS>  (1) 
β-D-Glucopyranosyl-(1->4)-β-D-glucopyranosyl-(1->4)-2-deoxy-2-fluoro-α-D-glucopyranose

$$$$
