694
     RDKit          3D

 21 22  0  0  0  0  0  0  0  0999 V2000
   -1.2262   -1.1548   -0.1432 C   0  0  0  0  0  0  0  0  0  0  0  0
    0.1724   -1.2009   -0.0464 C   0  0  0  0  0  0  0  0  0  0  0  0
    0.8870   -0.0110   -0.0143 C   0  0  0  0  0  0  0  0  0  0  0  0
    0.2220    1.2104   -0.0289 C   0  0  0  0  0  0  0  0  0  0  0  0
   -1.1750    1.2561   -0.1154 C   0  0  0  0  0  0  0  0  0  0  0  0
   -1.9181    0.0747   -0.2085 C   0  0  0  0  0  0  0  0  0  0  0  0
   -3.3906    0.0984   -0.1043 C   0  0  0  0  0  0  0  0  0  0  0  0
   -4.1266   -0.2762    0.9985 C   0  0  0  0  0  0  0  0  0  0  0  0
   -5.5511   -0.2653    0.7828 C   0  0  0  0  0  0  0  0  0  0  0  0
   -5.8620    0.3572   -0.4272 C   0  0  0  0  0  0  0  0  0  0  0  0
   -4.4123    0.7389   -1.3085 S   0  0  0  0  0  0  0  0  0  0  0  0
   -7.1437    0.7440   -1.0260 C   0  0  0  0  0  0  0  0  0  0  0  0
   -8.2363    0.3905   -0.2975 O   0  0  0  0  0  0  0  0  0  0  0  0
   -7.2904    1.3644   -2.0795 O   0  0  0  0  0  0  0  0  0  0  0  0
   -6.5815   -0.6794    1.5786 O   0  0  0  0  0  0  0  0  0  0  0  0
   -6.2355   -1.4706    2.7082 C   0  0  0  0  0  0  0  0  0  0  0  0
   -5.6443   -2.8580    2.4171 C   0  0  0  0  0  0  0  0  0  0  0  0
   -4.5378   -3.1864    3.1230 O   0  0  0  0  0  0  0  0  0  0  0  0
   -6.1275   -3.6359    1.6068 O   0  0  0  0  0  0  0  0  0  0  0  0
   -3.1663   -0.5988    2.6242 Br  0  0  0  0  0  0  0  0  0  0  0  0
    2.2492    0.0160    0.0435 O   0  0  0  0  0  0  0  0  0  0  0  0
  1  2  2  0
  1  6  1  0
  2  3  1  0
  3  4  2  0
  3 21  1  0
  4  5  1  0
  5  6  2  0
  6  7  1  0
  7  8  2  0
  7 11  1  0
  8  9  1  0
  8 20  1  0
  9 10  2  0
  9 15  1  0
 10 11  1  0
 10 12  1  0
 12 13  1  0
 12 14  2  0
 15 16  1  0
 16 17  1  0
 17 18  1  0
 17 19  2  0
M  END
>  <DRUGBANK_ID>  (1) 
DB07197

>  <COMMON_NAME>  (1) 
4-BROMO-3-(CARBOXYMETHOXY)-5-(4-HYDROXYPHENYL)THIOPHENE-2-CARBOXYLIC ACID

$$$$
