
     RDKit          3D

 12 12  0  0  1  0  0  0  0  0999 V2000
    1.0360    2.4934   -0.0520 N   0  0  0  0  0  0  0  0  0  0  0  0
    0.5015    1.2271    0.5126 C   0  0  2  0  0  0  0  0  0  0  0  0
    1.0374   -0.0941   -0.1190 C   0  0  0  0  0  0  0  0  0  0  0  0
    1.6039    0.0599   -1.5172 C   0  0  0  0  0  0  0  0  0  0  0  0
    0.9002    0.7817   -2.4923 C   0  0  0  0  0  0  0  0  0  0  0  0
    1.5301    1.2170   -3.6510 C   0  0  0  0  0  0  0  0  0  0  0  0
    2.8348    0.8209   -3.9121 C   0  0  0  0  0  0  0  0  0  0  0  0
    3.5094    0.0026   -3.0054 C   0  0  0  0  0  0  0  0  0  0  0  0
    2.8905   -0.3988   -1.8197 C   0  0  0  0  0  0  0  0  0  0  0  0
   -1.0391    1.2243    0.4608 C   0  0  0  0  0  0  0  0  0  0  0  0
   -1.6459    1.3633    1.6610 O   0  0  0  0  0  0  0  0  0  0  0  0
   -1.6962    1.0982   -0.5687 O   0  0  0  0  0  0  0  0  0  0  0  0
  2 10  1  0
  2  3  1  0
  2  1  1  6
  3  4  1  0
  4  5  2  0
  4  9  1  0
  5  6  1  0
  6  7  2  0
  7  8  1  0
  8  9  2  0
 10 11  1  0
 10 12  2  0
M  END
>  <DRUGBANK_ID>  (1) 
DB02556

>  <SECONDARY_ACCESSION_NUMBERS>  (1) 
EXPT01257

>  <COMMON_NAME>  (1) 
D-Phenylalanine

>  <CAS_NUMBER>  (1) 
673-06-3

>  <UNII>  (1) 
032K16VRCU

$$$$
