
     RDKit          3D

 24 26  0  0  0  0  0  0  0  0999 V2000
    2.7258    0.6632    0.0688 S   0  0  0  0  0  0  0  0  0  0  0  0
    2.8060   -1.0498    0.0127 C   0  0  0  0  0  0  0  0  0  0  0  0
    1.6283   -1.6736    0.0050 N   0  0  0  0  0  0  0  0  0  0  0  0
    0.5997   -0.7323    0.0223 C   0  0  0  0  0  0  0  0  0  0  0  0
    1.0147    0.6009    0.0300 C   0  0  0  0  0  0  0  0  0  0  0  0
   -0.7929   -0.9937    0.0129 C   0  0  0  0  0  0  0  0  0  0  0  0
   -1.6934    0.0801    0.0007 C   0  0  0  0  0  0  0  0  0  0  0  0
   -1.2483    1.3979   -0.0076 C   0  0  0  0  0  0  0  0  0  0  0  0
    0.1183    1.6780    0.0068 C   0  0  0  0  0  0  0  0  0  0  0  0
    4.1331   -1.6308   -0.1764 C   0  0  0  0  0  0  0  0  0  0  0  0
    4.4645   -2.2202   -1.4067 C   0  0  0  0  0  0  0  0  0  0  0  0
    5.7661   -2.6934   -1.6750 C   0  0  0  0  0  0  0  0  0  0  0  0
    6.7290   -2.7039   -0.6488 C   0  0  0  0  0  0  0  0  0  0  0  0
    6.4227   -2.0661    0.5761 C   0  0  0  0  0  0  0  0  0  0  0  0
    5.1282   -1.5612    0.8179 C   0  0  0  0  0  0  0  0  0  0  0  0
    7.7135   -3.6845   -0.5390 O   0  0  0  0  0  0  0  0  0  0  0  0
    7.7045   -4.8446   -1.4158 C   0  0  0  0  0  0  0  0  0  0  0  0
    6.6545   -6.0323   -1.2407 C   0  0  0  0  0  0  0  0  0  0  0  0
    5.2235   -5.6911   -1.2162 N   0  0  0  0  0  0  0  0  0  0  0  0
    4.2421   -6.7296   -1.4950 C   0  0  0  0  0  0  0  0  0  0  0  0
    4.0454   -7.6312   -0.2913 C   0  0  0  0  0  0  0  0  0  0  0  0
    4.8241   -4.9736   -0.0088 C   0  0  0  0  0  0  0  0  0  0  0  0
    5.1200   -5.3143    1.4353 C   0  0  0  0  0  0  0  0  0  0  0  0
   -3.3893   -0.2275   -0.0069 Cl  0  0  0  0  0  0  0  0  0  0  0  0
  1  2  1  0
  1  5  1  0
  2  3  2  0
  2 10  1  0
  3  4  1  0
  4  5  2  0
  4  6  1  0
  5  9  1  0
  6  7  2  0
  7  8  1  0
  7 24  1  0
  8  9  2  0
 10 11  2  0
 10 15  1  0
 11 12  1  0
 12 13  2  0
 13 14  1  0
 13 16  1  0
 14 15  2  0
 16 17  1  0
 17 18  1  0
 18 19  1  0
 19 20  1  0
 19 22  1  0
 20 21  1  0
 22 23  1  0
M  END
>  <DRUGBANK_ID>  (1) 
DB15942

>  <COMMON_NAME>  (1) 
Haletazole

>  <CAS_NUMBER>  (1) 
15599-36-7

>  <UNII>  (1) 
U89MCO87LX

>  <SYNONYMS>  (1) 
Haletazole; Halethazole

$$$$
