
     RDKit          3D

  9  8  0  0  0  0  0  0  0  0999 V2000
    1.0249   -0.1812    0.0748 O   0  0  0  0  0  0  0  0  0  0  0  0
    0.4316   -0.8849    1.0540 C   0  0  0  0  0  0  0  0  0  0  0  0
    1.1054   -1.4988    1.8701 O   0  0  0  0  0  0  0  0  0  0  0  0
   -1.0752   -0.8228    1.0304 C   0  0  0  0  0  0  0  0  0  0  0  0
   -1.6305    0.5984    1.1734 C   0  0  0  0  0  0  0  0  0  0  0  0
   -1.2436    1.5533    0.0387 C   0  0  0  0  0  0  0  0  0  0  0  0
   -1.6784    1.0350   -1.3202 C   0  0  0  0  0  0  0  0  0  0  0  0
   -2.4697    1.8803   -2.0104 O   0  0  0  0  0  0  0  0  0  0  0  0
   -1.3658   -0.0514   -1.7848 O   0  0  0  0  0  0  0  0  0  0  0  0
  1  2  1  0
  2  3  2  0
  2  4  1  0
  4  5  1  0
  5  6  1  0
  6  7  1  0
  7  8  1  0
  7  9  2  0
M  END
>  <DRUGBANK_ID>  (1) 
DB03553

>  <SECONDARY_ACCESSION_NUMBERS>  (1) 
EXPT01668

>  <COMMON_NAME>  (1) 
Glutaric Acid

>  <CAS_NUMBER>  (1) 
110-94-1

>  <UNII>  (1) 
H849F7N00B

$$$$
