
     RDKit          3D

 33 38  0  0  0  0  0  0  0  0999 V2000
   -2.3337    0.2577    0.0132 O   0  0  0  0  0  0  0  0  0  0  0  0
    2.1192    0.3558    0.0105 O   0  0  0  0  0  0  0  0  0  0  0  0
   -3.9869  -10.2141   -2.2979 N   0  0  0  0  0  0  0  0  0  0  0  0
   -3.4574   -6.9998   -0.4797 N   0  0  0  0  0  0  0  0  0  0  0  0
   -0.1402    0.5552   -0.0103 N   0  0  0  0  0  0  0  0  0  0  0  0
    3.0473   -4.0692    0.5670 N   0  0  0  0  0  0  0  0  0  0  0  0
   -4.6453  -10.8506   -1.1762 C   0  0  2  0  0  0  0  0  0  0  0  0
   -4.5782  -12.3119   -1.5799 C   0  0  0  0  0  0  0  0  0  0  0  0
   -3.2109  -12.3404   -2.2984 C   0  0  0  0  0  0  0  0  0  0  0  0
   -5.7871   -9.9275   -1.0415 C   0  0  0  0  0  0  0  0  0  0  0  0
   -2.7297  -10.9001   -2.3447 C   0  0  0  0  0  0  0  0  0  0  0  0
   -4.8929   -8.3496   -0.0673 C   0  0  0  0  0  0  0  0  0  0  0  0
   -3.7940   -8.8260   -2.0558 C   0  0  0  0  0  0  0  0  0  0  0  0
   -3.7128   -5.7626    0.8012 C   0  0  0  0  0  0  0  0  0  0  0  0
   -1.9845   -5.7335   -0.0668 C   0  0  0  0  0  0  0  0  0  0  0  0
   -1.8741   -3.9500    0.1895 C   0  0  0  0  0  0  0  0  0  0  0  0
   -3.2233   -4.2069    0.6284 C   0  0  0  0  0  0  0  0  0  0  0  0
   -0.9569   -2.2415    0.0850 C   0  0  0  0  0  0  0  0  0  0  0  0
   -3.6597   -6.9494    1.2314 C   0  0  0  0  0  0  0  0  0  0  0  0
    0.4216   -1.7445    0.0496 C   0  0  0  0  0  0  0  0  0  0  0  0
   -4.1998   -3.4315    0.0330 C   0  0  0  0  0  0  0  0  0  0  0  0
    1.5012   -2.6301   -0.0134 C   0  0  0  0  0  0  0  0  0  0  0  0
   -1.2704   -0.3676    0.0287 C   0  0  0  0  0  0  0  0  0  0  0  0
   -4.7510   -5.8205    0.2819 C   0  0  0  0  0  0  0  0  0  0  0  0
   -4.3282   -4.5140   -0.7755 C   0  0  0  0  0  0  0  0  0  0  0  0
    0.9914   -0.1392    0.0071 C   0  0  0  0  0  0  0  0  0  0  0  0
    1.5996   -3.5566   -1.0458 C   0  0  0  0  0  0  0  0  0  0  0  0
    2.4756   -2.8667    0.9190 C   0  0  0  0  0  0  0  0  0  0  0  0
    2.5445   -4.4910   -0.6518 C   0  0  0  0  0  0  0  0  0  0  0  0
    0.8942   -3.6983   -2.2478 C   0  0  0  0  0  0  0  0  0  0  0  0
    2.8292   -5.5975   -1.4549 C   0  0  0  0  0  0  0  0  0  0  0  0
    1.1940   -4.7668   -3.0693 C   0  0  0  0  0  0  0  0  0  0  0  0
    2.1512   -5.6971   -2.6812 C   0  0  0  0  0  0  0  0  0  0  0  0
  1 23  2  0
  2 26  2  0
  3  7  1  0
  3 11  1  0
  3 13  1  0
  4 12  1  0
  4 14  1  0
  4 15  1  0
  5 23  1  0
  5 26  1  0
  6 28  1  0
  6 29  1  0
  7  8  1  0
  7 10  1  6
  8  9  1  0
  9 11  1  0
 10 12  1  0
 14 17  2  0
 14 19  1  0
 15 16  2  0
 16 17  1  0
 16 18  1  0
 17 21  1  0
 18 20  2  0
 18 23  1  0
 19 24  2  0
 20 22  1  0
 20 26  1  0
 21 25  2  0
 22 27  1  0
 22 28  2  0
 24 25  1  0
 27 29  2  0
 27 30  1  0
 29 31  1  0
 30 32  2  0
 31 33  2  0
 32 33  1  0
M  END
>  <DRUGBANK_ID>  (1) 
DB07456

>  <COMMON_NAME>  (1) 
3-(1H-indol-3-yl)-4-(1-{2-[(2S)-1-methylpyrrolidinyl]ethyl}-1H-indol-3-yl)-1H-pyrrole-2,5-dione

$$$$
