4PY
     RDKit          3D

 29 33  0  0  0  0  0  0  0  0999 V2000
   -4.1753   -5.7804   -3.7794 C   0  0  0  0  0  0  0  0  0  0  0  0
   -5.0844   -5.3481   -0.3600 C   0  0  0  0  0  0  0  0  0  0  0  0
   -4.2657   -3.3489   -1.8955 C   0  0  0  0  0  0  0  0  0  0  0  0
   -5.5537   -7.9660   -2.4265 C   0  0  0  0  0  0  0  0  0  0  0  0
   -4.9236   -2.0821   -1.3736 C   0  0  1  0  0  0  0  0  0  0  0  0
   -2.8270   -2.8586    0.8806 C   0  0  0  0  0  0  0  0  0  0  0  0
   -2.4562   -3.7498    1.8666 C   0  0  0  0  0  0  0  0  0  0  0  0
   -0.7300   -3.7345   -2.2986 C   0  0  0  0  0  0  0  0  0  0  0  0
   -1.0454   -4.7944    0.3136 C   0  0  0  0  0  0  0  0  0  0  0  0
    0.3979   -4.6107   -2.2802 C   0  0  0  0  0  0  0  0  0  0  0  0
    0.9936   -4.8173   -3.3890 C   0  0  0  0  0  0  0  0  0  0  0  0
    1.0089   -4.0548   -4.5834 C   0  0  0  0  0  0  0  0  0  0  0  0
   -4.6959   -5.7420   -2.4453 C   0  0  0  0  0  0  0  0  0  0  0  0
   -4.7816   -4.6883   -1.6491 C   0  0  0  0  0  0  0  0  0  0  0  0
   -5.2458   -6.8704   -1.7476 C   0  0  0  0  0  0  0  0  0  0  0  0
   -5.4304   -6.5931   -0.4289 N   0  0  0  0  0  0  0  0  0  0  0  0
   -4.4355   -6.8929   -4.4763 C   0  0  0  0  0  0  0  0  0  0  0  0
   -5.2003   -8.0688   -3.8894 C   0  0  0  0  0  0  0  0  0  0  0  0
   -5.1149   -2.1828    0.1638 C   0  0  0  0  0  0  0  0  0  0  0  0
   -4.1275   -0.8650   -1.6435 N   0  0  0  0  0  0  0  0  0  0  0  0
   -3.9277   -2.0501    1.0326 O   0  0  0  0  0  0  0  0  0  0  0  0
   -2.0143   -2.8014   -0.2795 C   0  0  0  0  0  0  0  0  0  0  0  0
   -1.3052   -3.8760   -0.7503 C   0  0  0  0  0  0  0  0  0  0  0  0
   -1.5439   -4.7121    1.6108 N   0  0  0  0  0  0  0  0  0  0  0  0
   -1.0589   -3.0531   -3.3972 N   0  0  0  0  0  0  0  0  0  0  0  0
    0.0892   -2.8818   -4.5755 C   0  0  0  0  0  0  0  0  0  0  0  0
    1.7299   -6.0014   -3.6153 C   0  0  0  0  0  0  0  0  0  0  0  0
    1.8888   -4.5936   -5.3952 N   0  0  0  0  0  0  0  0  0  0  0  0
    2.3394   -5.9069   -4.7471 N   0  0  0  0  0  0  0  0  0  0  0  0
  1 17  2  0
  1 13  1  0
  2 16  2  0
  2 14  1  0
  3 14  1  0
  3  5  1  0
  4 18  1  0
  4 15  2  0
  5 19  1  0
  5 20  1  1
  6  7  2  0
  6 22  1  0
  6 21  1  0
  7 24  1  0
  8 25  2  0
  8 23  1  0
  8 10  1  0
  9 24  2  0
  9 23  1  0
 10 11  2  0
 11 12  1  0
 11 27  1  0
 12 26  1  0
 12 28  2  0
 13 15  1  0
 13 14  2  0
 15 16  1  0
 17 18  1  0
 19 21  1  0
 22 23  2  0
 25 26  1  0
 27 29  2  0
 28 29  1  0
M  END
>  <DRUGBANK_ID>  (1) 
DB07124

>  <COMMON_NAME>  (1) 
(2S)-1-(6H-INDOL-3-YL)-3-{[5-(7H-PYRAZOLO[3,4-C]PYRIDIN-5-YL)PYRIDIN-3-YL]OXY}PROPAN-2-AMINE

$$$$
