835
     RDKit          3D

 19 20  0  0  1  0  0  0  0  0999 V2000
   -1.6739   -0.1668   -0.0045 Br  0  0  0  0  0  0  0  0  0  0  0  0
    4.9622    3.1318    0.0443 N   0  0  0  0  0  0  0  0  0  0  0  0
    6.5345    0.9299    1.3707 N   0  0  0  0  0  0  0  0  0  0  0  0
    4.6630   -0.1527    0.0680 C   0  0  0  0  0  0  0  0  0  0  0  0
    5.2014    0.7508   -1.0856 C   0  0  0  0  0  0  0  0  0  0  0  0
    4.7893    2.2602   -1.1425 C   0  0  0  0  0  0  0  0  0  0  0  0
    3.0813   -0.1503    0.0646 C   0  0  0  0  0  0  0  0  0  0  0  0
    5.4473    0.0990    1.4162 C   0  0  0  0  0  0  0  0  0  0  0  0
    2.3656   -1.3414    0.0588 C   0  0  0  0  0  0  0  0  0  0  0  0
    2.2693    1.0136   -0.0191 C   0  0  0  0  0  0  0  0  0  0  0  0
    4.8623   -0.2115    2.6478 C   0  0  0  0  0  0  0  0  0  0  0  0
    4.6255    4.5240   -0.1997 C   0  0  0  0  0  0  0  0  0  0  0  0
    4.2566    2.8230    1.2865 C   0  0  0  0  0  0  0  0  0  0  0  0
    0.9485   -1.3587    0.0234 C   0  0  0  0  0  0  0  0  0  0  0  0
    0.8727    1.0223   -0.0141 C   0  0  0  0  0  0  0  0  0  0  0  0
    5.2749    0.4811    3.7995 C   0  0  0  0  0  0  0  0  0  0  0  0
    0.2129   -0.1653    0.0098 C   0  0  0  0  0  0  0  0  0  0  0  0
    6.8560    1.6492    2.4821 C   0  0  0  0  0  0  0  0  0  0  0  0
    6.2515    1.4662    3.7120 C   0  0  0  0  0  0  0  0  0  0  0  0
  1 17  1  0
  2  6  1  0
  2 12  1  0
  2 13  1  0
  3  8  2  0
  3 18  1  0
  4  5  1  0
  4  7  1  0
  4  8  1  0
  5  6  1  0
  7  9  2  0
  7 10  1  0
  8 11  1  0
  9 14  1  0
 10 15  2  0
 11 16  2  0
 14 17  2  0
 15 17  1  0
 16 19  1  0
 18 19  2  0
M  END
>  <DRUGBANK_ID>  (1) 
DB00835

>  <SECONDARY_ACCESSION_NUMBERS>  (1) 
APRD00832

>  <COMMON_NAME>  (1) 
Brompheniramine

>  <CAS_NUMBER>  (1) 
86-22-6

>  <UNII>  (1) 
H57G17P2FN

>  <SYNONYMS>  (1) 
[3-(4-Bromo-phenyl)-3-pyridin-2-yl-propyl]-dimethyl-amine; 1-(p-bromophenyl)-1-(2-pyridyl)-3-dimethylaminopropane; 2-(p-bromo-α-(2-dimethylaminoethyl)benzyl)pyridine; 3-(4-bromophenyl)-N,N-dimethyl-3-(2-pyridinyl)-1-propanamine; 3-(p-bromophenyl)-3-(2-pyridyl)-N,N-dimethylpropylamine; BPN; Bromfeniramina; Brompheniramin; Bromphéniramine; Brompheniramine; Brompheniraminum

$$$$
