842
     RDKit          3D

 20 22  0  0  1  0  0  0  0  0999 V2000
    1.1016    0.0257    0.0316 Cl  0  0  0  0  0  0  0  0  0  0  0  0
    6.4736    1.6468   -2.4271 O   0  0  0  0  0  0  0  0  0  0  0  0
    9.0865    0.6062   -0.5007 O   0  0  0  0  0  0  0  0  0  0  0  0
    7.0148   -0.0368    0.0847 N   0  0  0  0  0  0  0  0  0  0  0  0
    6.6102    2.9515   -0.3609 N   0  0  0  0  0  0  0  0  0  0  0  0
    4.9037    1.2516    0.1846 C   0  0  0  0  0  0  0  0  0  0  0  0
    5.5745    2.5775    0.3061 C   0  0  0  0  0  0  0  0  0  0  0  0
    5.6177    0.0454    0.1049 C   0  0  0  0  0  0  0  0  0  0  0  0
    4.9941    3.5343    1.2904 C   0  0  0  0  0  0  0  0  0  0  0  0
    7.2545    2.0392   -1.3076 C   0  0  0  0  0  0  0  0  0  0  0  0
    3.5005    1.2367    0.1656 C   0  0  0  0  0  0  0  0  0  0  0  0
    4.9172   -1.1620    0.0070 C   0  0  0  0  0  0  0  0  0  0  0  0
    7.8720    0.8462   -0.5250 C   0  0  0  0  0  0  0  0  0  0  0  0
    2.8196    0.0304    0.0545 C   0  0  0  0  0  0  0  0  0  0  0  0
    3.5212   -1.1671   -0.0397 C   0  0  0  0  0  0  0  0  0  0  0  0
    4.6438    4.8344    0.9150 C   0  0  0  0  0  0  0  0  0  0  0  0
    4.7768    3.0923    2.5997 C   0  0  0  0  0  0  0  0  0  0  0  0
    4.1484    5.7142    1.8810 C   0  0  0  0  0  0  0  0  0  0  0  0
    4.1920    3.9449    3.5310 C   0  0  0  0  0  0  0  0  0  0  0  0
    3.9244    5.2686    3.1860 C   0  0  0  0  0  0  0  0  0  0  0  0
  1 14  1  0
  2 10  1  0
  3 13  2  0
  4  8  1  0
  4 13  1  0
  5  7  2  0
  5 10  1  0
  6  7  1  0
  6  8  2  0
  6 11  1  0
  7  9  1  0
  8 12  1  0
  9 16  2  0
  9 17  1  0
 10 13  1  0
 11 14  2  0
 12 15  2  0
 14 15  1  0
 16 18  1  0
 17 19  2  0
 18 20  2  0
 19 20  1  0
M  END
>  <DRUGBANK_ID>  (1) 
DB00842

>  <SECONDARY_ACCESSION_NUMBERS>  (1) 
APRD01152

>  <COMMON_NAME>  (1) 
Oxazepam

>  <CAS_NUMBER>  (1) 
604-75-1

>  <UNII>  (1) 
6GOW6DWN2A

>  <SYNONYMS>  (1) 
(+-)-Oxazepam; (RS)-Oxazepam; Oxazepam

$$$$
