
     RDKit          3D

  6  5  0  0  0  0  0  0  0  0999 V2000
    1.1096   -0.1034   -0.0653 N   0  0  0  0  0  0  0  0  0  0  0  0
    0.6594   -0.8100    1.1569 C   0  0  0  0  0  0  0  0  0  0  0  0
    1.1275   -0.0557    2.3965 C   0  0  0  0  0  0  0  0  0  0  0  0
    0.5713    1.3711    2.5094 C   0  0  0  0  0  0  0  0  0  0  0  0
   -0.9539    1.4333    2.5221 C   0  0  0  0  0  0  0  0  0  0  0  0
   -1.4799    0.7532    3.6420 O   0  0  0  0  0  0  0  0  0  0  0  0
  1  2  1  0
  2  3  1  0
  3  4  1  0
  4  5  1  0
  5  6  1  0
M  CHG  1   1   1
M  END
>  <DRUGBANK_ID>  (1) 
DB02541

>  <SECONDARY_ACCESSION_NUMBERS>  (1) 
EXPT00214

>  <COMMON_NAME>  (1) 
4-Hydroxybutan-1-Aminium

$$$$
