
     RDKit          3D

 40 42  0  0  1  0  0  0  0  0999 V2000
   -0.2457   -2.0019   -0.4544 C   0  0  0  0  0  0  0  0  0  0  0  0
   -0.6801   -1.5810   -1.8411 C   0  0  0  0  0  0  0  0  0  0  0  0
   -0.1554   -2.5789   -2.8841 C   0  0  0  0  0  0  0  0  0  0  0  0
   -0.7611   -3.9714   -2.6807 C   0  0  0  0  0  0  0  0  0  0  0  0
   -2.2921   -3.9221   -2.6454 C   0  0  0  0  0  0  0  0  0  0  0  0
   -2.8341   -3.3622   -3.9350 C   0  0  0  0  0  0  0  0  0  0  0  0
   -3.2147   -4.2732   -4.8694 C   0  0  0  0  0  0  0  0  0  0  0  0
   -3.5453   -3.8520   -6.1505 C   0  0  0  0  0  0  0  0  0  0  0  0
   -3.7066   -2.5473   -6.5371 C   0  0  0  0  0  0  0  0  0  0  0  0
   -3.2892   -1.6088   -5.6127 C   0  0  0  0  0  0  0  0  0  0  0  0
   -2.8170   -2.0234   -4.3518 C   0  0  0  0  0  0  0  0  0  0  0  0
   -4.1441   -2.1988   -7.9268 C   0  0  0  0  0  0  0  0  0  0  0  0
   -4.0871   -1.0149   -8.2622 O   0  0  0  0  0  0  0  0  0  0  0  0
   -4.5056   -3.1501   -8.8886 N   0  0  0  0  0  0  0  0  0  0  0  0
   -5.0693   -4.4376   -8.7820 C   0  0  0  0  0  0  0  0  0  0  0  0
   -6.0348   -4.6962   -7.8339 C   0  0  0  0  0  0  0  0  0  0  0  0
   -6.5333   -6.0017   -7.7157 C   0  0  0  0  0  0  0  0  0  0  0  0
   -5.9637   -7.0969   -8.4150 C   0  0  0  0  0  0  0  0  0  0  0  0
   -5.0722   -6.8276   -9.4402 C   0  0  0  0  0  0  0  0  0  0  0  0
   -4.6431   -5.4907   -9.6257 C   0  0  0  0  0  0  0  0  0  0  0  0
   -6.1047   -8.8782   -7.8015 S   0  0  0  0  0  0  0  0  0  0  0  0
   -7.1979   -9.2204   -8.6887 O   0  0  0  0  0  0  0  0  0  0  0  0
   -4.9212   -9.6614   -7.9694 O   0  0  0  0  0  0  0  0  0  0  0  0
   -6.4214   -8.9034   -6.0126 N   0  0  0  0  0  0  0  0  0  0  0  0
   -7.7242   -8.4031   -5.5903 C   0  0  0  0  0  0  0  0  0  0  0  0
   -8.8074   -8.9005   -6.4537 C   0  0  0  0  0  0  0  0  0  0  0  0
   -9.2205  -10.2700   -6.2021 N   0  0  0  0  0  0  0  0  0  0  0  0
   -8.4522  -11.3698   -6.8774 C   0  0  0  0  0  0  0  0  0  0  0  0
   -8.6260  -11.5098   -8.4137 C   0  0  0  0  0  0  0  0  0  0  0  0
   -9.9852  -11.3443   -8.8387 O   0  0  0  0  0  0  0  0  0  0  0  0
  -10.5220  -10.1302   -8.2953 C   0  0  0  0  0  0  0  0  0  0  0  0
  -10.5772  -10.2697   -6.7631 C   0  0  0  0  0  0  0  0  0  0  0  0
   -5.3491   -8.5617   -4.8915 C   0  0  2  0  0  0  0  0  0  0  0  0
   -5.0367   -7.0436   -4.7329 C   0  0  0  0  0  0  0  0  0  0  0  0
   -4.4448   -6.7556   -6.0405 C   0  0  0  0  0  0  0  0  0  0  0  0
   -6.1189   -5.9842   -4.3758 C   0  0  0  0  0  0  0  0  0  0  0  0
   -4.0042   -9.3727   -4.9172 C   0  0  0  0  0  0  0  0  0  0  0  0
   -3.6697   -9.9619   -3.8749 O   0  0  0  0  0  0  0  0  0  0  0  0
   -3.0798   -9.4194   -5.9091 N   0  0  0  0  0  0  0  0  0  0  0  0
   -2.9475   -8.7549   -7.1261 O   0  0  0  0  0  0  0  0  0  0  0  0
  1  2  1  0
  2  3  1  0
  3  4  1  0
  4  5  1  0
  5  6  1  0
  6  7  2  0
  6 11  1  0
  7  8  1  0
  8  9  2  0
  9 10  1  0
  9 12  1  0
 10 11  2  0
 12 13  2  0
 12 14  1  0
 14 15  1  0
 15 16  2  0
 15 20  1  0
 16 17  1  0
 17 18  2  0
 18 19  1  0
 18 21  1  0
 19 20  2  0
 21 22  2  0
 21 23  2  0
 21 24  1  0
 24 25  1  0
 25 26  1  0
 26 27  1  0
 27 28  1  0
 27 32  1  0
 28 29  1  0
 29 30  1  0
 30 31  1  0
 31 32  1  0
 33 37  1  6
 33 34  1  0
 33 24  1  0
 34 35  1  0
 34 36  1  0
 37 38  2  0
 37 39  1  0
 39 40  1  0
M  END
>  <DRUGBANK_ID>  (1) 
DB01630

>  <SECONDARY_ACCESSION_NUMBERS>  (1) 
EXPT01815

>  <COMMON_NAME>  (1) 
SC-74020

$$$$
