
     RDKit          3D

 20 20  0  0  0  0  0  0  0  0999 V2000
    1.6352    0.5113    0.8341 C   0  0  0  0  0  0  0  0  0  0  0  0
   -0.2754   -5.4519    1.0024 C   0  0  0  0  0  0  0  0  0  0  0  0
    1.4024   -0.8832    0.4648 C   0  0  0  0  0  0  0  0  0  0  0  0
    0.9647   -4.8247    1.5673 C   0  0  0  0  0  0  0  0  0  0  0  0
    1.4564   -1.9192    1.4726 C   0  0  0  0  0  0  0  0  0  0  0  0
    2.0630   -4.6360    0.4807 C   0  0  0  0  0  0  0  0  0  0  0  0
   -0.9504    1.9779   -0.9607 C   0  0  0  0  0  0  0  0  0  0  0  0
    0.0379    1.4772   -1.8132 C   0  0  0  0  0  0  0  0  0  0  0  0
   -1.7066    1.0789   -0.1902 C   0  0  0  0  0  0  0  0  0  0  0  0
    0.1855    0.0676   -1.9959 C   0  0  0  0  0  0  0  0  0  0  0  0
    0.4314   -1.6030    2.5423 C   0  0  0  0  0  0  0  0  0  0  0  0
    1.6452   -4.2105   -1.0188 C   0  0  0  0  0  0  0  0  0  0  0  0
   -1.4902   -0.3357   -0.2605 C   0  0  0  0  0  0  0  0  0  0  0  0
   -0.6451   -0.8927   -1.3160 C   0  0  0  0  0  0  0  0  0  0  0  0
   -1.8660   -1.0604    1.0751 C   0  0  0  0  0  0  0  0  0  0  0  0
   -0.3079   -2.4565   -1.2145 C   0  0  0  0  0  0  0  0  0  0  0  0
   -3.0681   -1.0193    1.3594 O   0  0  0  0  0  0  0  0  0  0  0  0
   -1.1446   -3.1664   -0.7434 O   0  0  0  0  0  0  0  0  0  0  0  0
   -1.0135   -1.5707    2.0473 O   0  0  0  0  0  0  0  0  0  0  0  0
    1.0178   -2.8745   -1.4280 O   0  0  0  0  0  0  0  0  0  0  0  0
  3  1  1  0
  4  2  1  0
  5  3  1  0
  6  4  1  0
  8  7  2  0
  9  7  1  0
 10  8  1  0
 11  5  1  0
 12  6  1  0
 13  9  2  0
 14 10  2  0
 14 13  1  0
 15 13  1  0
 16 14  1  0
 17 15  2  0
 18 16  2  0
 19 11  1  0
 19 15  1  0
 20 12  1  0
 20 16  1  0
M  END
>  <DRUGBANK_ID>  (1) 
DB13716

>  <COMMON_NAME>  (1) 
Dibutylphthalate

>  <CAS_NUMBER>  (1) 
84-74-2

>  <UNII>  (1) 
2286E5R2KE

>  <SYNONYMS>  (1) 
Dibutyl phthalate

$$$$
