ZAH
     RDKit          3D

 23 24  0  0  0  0  0  0  0  0999 V2000
    4.0700    1.3785    0.2385 C   0  0  0  0  0  0  0  0  0  0  0  0
    4.1686    0.7298    1.2728 O   0  0  0  0  0  0  0  0  0  0  0  0
    4.5032    2.6583    0.1703 O   0  0  0  0  0  0  0  0  0  0  0  0
    3.2252    0.9660   -0.9837 C   0  0  2  0  0  0  0  0  0  0  0  0
    4.2848    0.9781   -2.0860 C   0  0  0  0  0  0  0  0  0  0  0  0
    3.5079    0.7818   -3.3616 C   0  0  0  0  0  0  0  0  0  0  0  0
    2.1607    1.4483   -3.0838 C   0  0  0  0  0  0  0  0  0  0  0  0
    2.1348    1.7591   -1.6404 N   0  0  0  0  0  0  0  0  0  0  0  0
    1.0338    2.4836   -1.1652 C   0  0  0  0  0  0  0  0  0  0  0  0
    0.1972    2.9120   -1.9776 O   0  0  0  0  0  0  0  0  0  0  0  0
    0.7343    2.7691    0.3467 C   0  0  2  0  0  0  0  0  0  0  0  0
    1.9206    2.7524    1.2385 C   0  0  0  0  0  0  0  0  0  0  0  0
   -0.1827    1.7961    0.8929 N   0  0  0  0  0  0  0  0  0  0  0  0
   -0.9872    2.1251    1.9476 C   0  0  0  0  0  0  0  0  0  0  0  0
   -1.3144    1.2872    2.7553 O   0  0  0  0  0  0  0  0  0  0  0  0
   -1.3438    3.4368    1.9129 O   0  0  0  0  0  0  0  0  0  0  0  0
   -2.4495    3.8767    2.7158 C   0  0  0  0  0  0  0  0  0  0  0  0
   -3.7669    3.4380    2.1182 C   0  0  0  0  0  0  0  0  0  0  0  0
   -4.0389    2.0689    1.9873 C   0  0  0  0  0  0  0  0  0  0  0  0
   -5.2173    1.5828    1.4529 C   0  0  0  0  0  0  0  0  0  0  0  0
   -6.2141    2.4743    1.1158 C   0  0  0  0  0  0  0  0  0  0  0  0
   -6.0071    3.8440    1.2978 C   0  0  0  0  0  0  0  0  0  0  0  0
   -4.7688    4.3346    1.7380 C   0  0  0  0  0  0  0  0  0  0  0  0
  1  2  2  0
  1  3  1  0
  4  1  1  1
  4  5  1  0
  4  8  1  0
  5  6  1  0
  6  7  1  0
  7  8  1  0
  8  9  1  0
  9 10  2  0
 11 13  1  0
 11 12  1  1
 11  9  1  0
 13 14  1  0
 14 15  2  0
 14 16  1  0
 16 17  1  0
 17 18  1  0
 18 19  2  0
 18 23  1  0
 19 20  1  0
 20 21  2  0
 21 22  1  0
 22 23  2  0
M  END
>  <DRUGBANK_ID>  (1) 
DB04033

>  <SECONDARY_ACCESSION_NUMBERS>  (1) 
EXPT03282

>  <COMMON_NAME>  (1) 
Z-Ala Prolinal

>  <UNII>  (1) 
P6X7ZC6L89

$$$$
