
     RDKit          3D

 21 22  0  0  1  0  0  0  0  0999 V2000
    0.4760    1.2815    0.3688 C   0  0  2  0  0  0  0  0  0  0  0  0
    0.8670    2.6791    0.0483 C   0  0  0  0  0  0  0  0  0  0  0  0
    1.6612    0.4679    0.2832 O   0  0  0  0  0  0  0  0  0  0  0  0
   -0.6197    0.6505   -0.4864 C   0  0  1  0  0  0  0  0  0  0  0  0
    1.2283    3.0580   -1.3420 C   0  0  0  0  0  0  0  0  0  0  0  0
    1.0190    3.5971    1.0081 C   0  0  0  0  0  0  0  0  0  0  0  0
    1.3192   -0.7464   -0.3836 C   0  0  1  0  0  0  0  0  0  0  0  0
   -0.2106   -0.8062   -0.4823 C   0  0  1  0  0  0  0  0  0  0  0  0
   -1.9159    0.8677    0.0592 O   0  0  0  0  0  0  0  0  0  0  0  0
    1.7835    4.2943   -1.5009 N   0  0  0  0  0  0  0  0  0  0  0  0
    1.0647    2.3103   -2.2974 O   0  0  0  0  0  0  0  0  0  0  0  0
    1.5708    4.8136    0.7407 N   0  0  0  0  0  0  0  0  0  0  0  0
    2.0171   -0.8148   -1.7379 C   0  0  0  0  0  0  0  0  0  0  0  0
   -0.7466   -1.5099    0.6431 O   0  0  0  0  0  0  0  0  0  0  0  0
    2.0054    5.1884   -0.4984 C   0  0  0  0  0  0  0  0  0  0  0  0
    1.3373   -1.7441   -2.5724 O   0  0  0  0  0  0  0  0  0  0  0  0
    2.5704    6.2637   -0.6907 O   0  0  0  0  0  0  0  0  0  0  0  0
    1.2796   -3.3125   -1.8445 P   0  0  0  0  0  0  0  0  0  0  0  0
    0.1892   -3.6450   -3.0121 O   0  0  0  0  0  0  0  0  0  0  0  0
    2.6306   -3.6265   -2.7114 O   0  0  0  0  0  0  0  0  0  0  0  0
    1.2279   -4.7161   -1.1930 O   0  0  0  0  0  0  0  0  0  0  0  0
  1  3  1  0
  1  4  1  0
  1  2  1  6
  2  5  1  0
  2  6  2  0
  3  7  1  0
  4  8  1  0
  4  9  1  1
  5 10  1  0
  5 11  2  0
  6 12  1  0
  7  8  1  0
  7 13  1  6
  8 14  1  1
 10 15  1  0
 12 15  1  0
 13 16  1  0
 15 17  2  0
 16 18  1  0
 18 19  1  0
 18 20  1  0
 18 21  2  0
M  END
>  <DRUGBANK_ID>  (1) 
DB03829

>  <SECONDARY_ACCESSION_NUMBERS>  (1) 
EXPT02677

>  <COMMON_NAME>  (1) 
Pseudouridine-5'-Monophosphate

>  <UNII>  (1) 
88NC65Q5EZ

$$$$
