
     RDKit          3D

 34 36  0  0  0  0  0  0  0  0999 V2000
    0.6039    0.8502   -0.4241 C   0  0  0  0  0  0  0  0  0  0  0  0
   -0.0077   -0.3899   -0.6839 O   0  0  0  0  0  0  0  0  0  0  0  0
    0.2356   -1.1415   -1.7822 C   0  0  0  0  0  0  0  0  0  0  0  0
    1.4790   -1.1554   -2.3780 C   0  0  0  0  0  0  0  0  0  0  0  0
    1.6716   -2.1256   -3.3276 C   0  0  0  0  0  0  0  0  0  0  0  0
    0.6312   -2.9910   -3.7643 C   0  0  0  0  0  0  0  0  0  0  0  0
    0.8439   -3.8692   -4.8594 C   0  0  0  0  0  0  0  0  0  0  0  0
    0.1946   -4.8244   -5.5772 C   0  0  0  0  0  0  0  0  0  0  0  0
    0.7777   -5.5501   -6.7499 C   0  0  0  0  0  0  0  0  0  0  0  0
   -0.0602   -6.2206   -7.3939 O   0  0  0  0  0  0  0  0  0  0  0  0
    2.2504   -5.5002   -7.2324 C   0  0  0  0  0  0  0  0  0  0  0  0
    2.6901   -4.1276   -7.8786 C   0  0  0  0  0  0  0  0  0  0  0  0
    2.8780   -3.0504   -6.8318 C   0  0  0  0  0  0  0  0  0  0  0  0
    1.7334   -1.9417   -6.6795 C   0  0  0  0  0  0  0  0  0  0  0  0
    2.7841   -1.0526   -6.0051 C   0  0  0  0  0  0  0  0  0  0  0  0
    3.8732   -1.8898   -6.6947 C   0  0  0  0  0  0  0  0  0  0  0  0
    3.3418   -6.3865   -6.4398 C   0  0  0  0  0  0  0  0  0  0  0  0
    3.9282   -7.2788   -7.0442 O   0  0  0  0  0  0  0  0  0  0  0  0
    3.8180   -6.1799   -4.9761 C   0  0  0  0  0  0  0  0  0  0  0  0
    3.1248   -5.4964   -4.0670 C   0  0  0  0  0  0  0  0  0  0  0  0
    3.3090   -4.8405   -2.7253 C   0  0  0  0  0  0  0  0  0  0  0  0
    4.5408   -4.2088   -2.5894 C   0  0  0  0  0  0  0  0  0  0  0  0
    4.7968   -3.3194   -1.5439 C   0  0  0  0  0  0  0  0  0  0  0  0
    3.8125   -2.9681   -0.6266 C   0  0  0  0  0  0  0  0  0  0  0  0
    3.9909   -1.9294    0.2198 O   0  0  0  0  0  0  0  0  0  0  0  0
    5.2002   -1.7657    0.8950 C   0  0  0  0  0  0  0  0  0  0  0  0
    2.5300   -3.5001   -0.7108 C   0  0  0  0  0  0  0  0  0  0  0  0
    1.4783   -2.9994    0.0703 O   0  0  0  0  0  0  0  0  0  0  0  0
    1.6846   -1.7761    0.8511 C   0  0  0  0  0  0  0  0  0  0  0  0
    2.2927   -4.4753   -1.7520 C   0  0  0  0  0  0  0  0  0  0  0  0
   -0.5383   -3.0609   -3.0916 C   0  0  0  0  0  0  0  0  0  0  0  0
   -0.7416   -2.1334   -2.1079 C   0  0  0  0  0  0  0  0  0  0  0  0
   -1.9482   -2.3720   -1.5160 O   0  0  0  0  0  0  0  0  0  0  0  0
   -2.2678   -1.4967   -0.4678 C   0  0  0  0  0  0  0  0  0  0  0  0
  1  2  1  0
  2  3  1  0
  3  4  2  0
  3 32  1  0
  4  5  1  0
  5  6  2  0
  6  7  1  0
  6 31  1  0
  7  8  2  0
  8  9  1  0
  9 10  2  0
  9 11  1  0
 11 12  1  0
 11 17  1  0
 12 13  1  0
 13 14  1  0
 13 16  1  0
 14 15  1  0
 15 16  1  0
 17 18  2  0
 17 19  1  0
 19 20  2  0
 20 21  1  0
 21 22  2  0
 21 30  1  0
 22 23  1  0
 23 24  2  0
 24 25  1  0
 24 27  1  0
 25 26  1  0
 27 28  1  0
 27 30  2  0
 28 29  1  0
 31 32  2  0
 32 33  1  0
 33 34  1  0
M  END
>  <DRUGBANK_ID>  (1) 
DB16931

>  <COMMON_NAME>  (1) 
ASC-JM-17

>  <CAS_NUMBER>  (1) 
1039760-91-2

>  <UNII>  (1) 
5VLL140BN9

>  <SYNONYMS>  (1) 
(1e,6e)-1,7-bis(3,4-dimethoxyphenyl)-4-cyclobutylmethyl-1,6-heptadiene-3,5-dione; (1e,6e)-4-(cyclobutylmethyl)-1,7-bis(3,4-dimethoxyphenyl)-1,6-heptadiene-3,5-dione; 1,6-heptadiene-3,5-dione, 4-(cyclobutylmethyl)-1,7-bis(3,4-dimethoxyphenyl)-, (1e,6e)-

$$$$
