
     RDKit          3D

 12 12  0  0  0  0  0  0  0  0999 V2000
    0.9486    0.0000   -0.0850 C   0  0  0  0  0  0  0  0  0  0  0  0
    0.4690    0.0458    1.2568 O   0  0  0  0  0  0  0  0  0  0  0  0
    0.2712   -1.1607    1.8823 C   0  0  0  0  0  0  0  0  0  0  0  0
    0.4901   -2.4218    1.3192 C   0  0  0  0  0  0  0  0  0  0  0  0
    0.1960   -3.6022    2.0304 C   0  0  0  0  0  0  0  0  0  0  0  0
   -0.3040   -3.4880    3.3369 C   0  0  0  0  0  0  0  0  0  0  0  0
   -0.4994   -2.2372    3.9234 C   0  0  0  0  0  0  0  0  0  0  0  0
   -0.2116   -1.0891    3.1962 C   0  0  0  0  0  0  0  0  0  0  0  0
   -0.4155    0.1212    3.8094 O   0  0  0  0  0  0  0  0  0  0  0  0
    0.4112   -4.9629    1.3925 C   0  0  0  0  0  0  0  0  0  0  0  0
    0.1262   -5.9842    2.0965 O   0  0  0  0  0  0  0  0  0  0  0  0
    0.8580   -4.9805    0.2036 O   0  0  0  0  0  0  0  0  0  0  0  0
  1  2  1  0
  2  3  1  0
  3  4  2  0
  3  8  1  0
  4  5  1  0
  5  6  2  0
  5 10  1  0
  6  7  1  0
  7  8  2  0
  8  9  1  0
 10 11  1  0
 10 12  2  0
M  CHG  1  11  -1
M  END
>  <DRUGBANK_ID>  (1) 
DB02130

>  <SECONDARY_ACCESSION_NUMBERS>  (1) 
EXPT03229

>  <COMMON_NAME>  (1) 
Vanillic acid

>  <CAS_NUMBER>  (1) 
121-34-6

>  <UNII>  (1) 
GM8Q3JM2Y8

>  <SYNONYMS>  (1) 
4-Hydroxy-3-methoxybenzoic acid; VA

$$$$
