
     RDKit          3D

 35 38  0  0  1  0  0  0  0  0999 V2000
    0.9769   -0.0205   -0.1101 C   0  0  0  0  0  0  0  0  0  0  0  0
    1.6797   -5.0309   -0.6685 C   0  0  0  0  0  0  0  0  0  0  0  0
    2.5733   -3.9733   -0.7344 C   0  0  0  0  0  0  0  0  0  0  0  0
    0.3834   -4.7854   -0.2754 C   0  0  0  0  0  0  0  0  0  0  0  0
    2.1729   -2.6678   -0.4379 C   0  0  0  0  0  0  0  0  0  0  0  0
   -7.8340   -0.8909    0.4753 C   0  0  0  0  0  0  0  0  0  0  0  0
   -7.2777   -2.2808    0.5536 C   0  0  0  0  0  0  0  0  0  0  0  0
   -2.0306   -2.3310   -0.9854 C   0  0  0  0  0  0  0  0  0  0  0  0
   -3.8344   -2.0848    0.3977 C   0  0  0  0  0  0  0  0  0  0  0  0
   -6.8886   -0.7976    2.4841 C   0  0  0  0  0  0  0  0  0  0  0  0
   -4.9826   -1.2914   -2.5722 C   0  0  0  0  0  0  0  0  0  0  0  0
   -7.8195   -0.2620    1.6287 C   0  0  0  0  0  0  0  0  0  0  0  0
   -3.2410   -1.7629   -0.7835 C   0  0  0  0  0  0  0  0  0  0  0  0
   -0.0535   -3.4669   -0.0959 C   0  0  0  0  0  0  0  0  0  0  0  0
   -3.9088   -0.7705   -1.6794 C   0  0  2  0  0  0  0  0  0  0  0  0
   -1.4805   -3.2036    0.0029 C   0  0  0  0  0  0  0  0  0  0  0  0
   -3.3655   -2.9545    1.3780 C   0  0  0  0  0  0  0  0  0  0  0  0
   -6.3328   -3.1397    1.3746 C   0  0  0  0  0  0  0  0  0  0  0  0
   -6.1821   -2.0341    2.3204 C   0  0  0  0  0  0  0  0  0  0  0  0
    0.8676   -2.4046   -0.0637 C   0  0  0  0  0  0  0  0  0  0  0  0
   -6.0187   -1.7257   -1.7036 C   0  0  0  0  0  0  0  0  0  0  0  0
   -2.2179   -3.7083    1.1130 C   0  0  0  0  0  0  0  0  0  0  0  0
   -8.8846    0.6979    2.0092 C   0  0  0  0  0  0  0  0  0  0  0  0
   -4.3055   -3.1935    2.5012 C   0  0  0  0  0  0  0  0  0  0  0  0
   -4.2520    0.5303   -0.9269 C   0  0  0  0  0  0  0  0  0  0  0  0
   -9.0086    1.0089    3.2651 N   0  0  0  0  0  0  0  0  0  0  0  0
   -9.7937    1.2000    1.1134 N   0  0  0  0  0  0  0  0  0  0  0  0
   -5.3776   -3.9547    2.2290 N   0  0  0  0  0  0  0  0  0  0  0  0
   -5.2482   -2.4877    3.2666 N   0  0  0  0  0  0  0  0  0  0  0  0
   -7.0457   -1.0005   -1.8440 O   0  0  0  0  0  0  0  0  0  0  0  0
   -5.7870   -2.8928   -1.2782 O   0  0  0  0  0  0  0  0  0  0  0  0
   -1.8349   -4.7171    1.8414 O   0  0  0  0  0  0  0  0  0  0  0  0
   -3.7555    1.6131   -1.2214 O   0  0  0  0  0  0  0  0  0  0  0  0
   -5.1056    0.4327    0.1156 O   0  0  0  0  0  0  0  0  0  0  0  0
    0.4722   -1.2040    0.4822 O   0  0  0  0  0  0  0  0  0  0  0  0
  3  2  2  0
  4  2  1  0
  5  3  1  0
  7  6  2  0
 12  6  1  0
 12 10  2  0
 13  8  2  0
 13  9  1  0
 14  4  2  0
 15 11  1  1
 15 13  1  0
 15 25  1  0
 16  8  1  0
 16 14  1  0
 17  9  2  0
 18  7  1  0
 19 10  1  0
 19 18  2  0
 20  5  2  0
 20 14  1  0
 21 11  1  0
 22 16  2  0
 22 17  1  0
 23 12  1  0
 24 17  1  0
 26 23  2  0
 27 23  1  0
 28 18  1  0
 28 24  2  0
 29 19  1  0
 29 24  1  0
 30 21  2  0
 31 21  1  0
 32 22  1  0
 33 25  2  0
 34 25  1  0
 35  1  1  0
 35 20  1  0
M  CHG  2  31  -1  32  -1
M  END
>  <DRUGBANK_ID>  (1) 
DB02084

>  <SECONDARY_ACCESSION_NUMBERS>  (1) 
EXPT00149

>  <COMMON_NAME>  (1) 
CRA_17312

$$$$
