
     RDKit          3D

 23 25  0  0  0  0  0  0  0  0999 V2000
    1.1228    0.0534    0.3192 O   0  0  0  0  0  0  0  0  0  0  0  0
    0.7668    0.5139   -3.8876 O   0  0  0  0  0  0  0  0  0  0  0  0
    0.3035   -0.6503   -2.0615 O   0  0  0  0  0  0  0  0  0  0  0  0
    3.1921   -0.5797    1.0240 N   0  0  0  0  0  0  0  0  0  0  0  0
    5.0531   -1.0027    2.3119 C   0  0  1  0  0  0  0  0  0  0  0  0
    3.9022   -1.7962    2.9499 C   0  0  2  0  0  0  0  0  0  0  0  0
    4.3054    0.1276    1.6233 C   0  0  0  0  0  0  0  0  0  0  0  0
    2.8131   -1.7268    1.8549 C   0  0  0  0  0  0  0  0  0  0  0  0
    6.1161   -0.5438    3.2881 C   0  0  0  0  0  0  0  0  0  0  0  0
    3.3724   -1.1560    4.2430 C   0  0  0  0  0  0  0  0  0  0  0  0
    2.3333    0.0255    0.1336 C   0  0  0  0  0  0  0  0  0  0  0  0
    5.5334    0.1838    4.4901 C   0  0  0  0  0  0  0  0  0  0  0  0
    4.4344   -0.6075    5.1919 C   0  0  0  0  0  0  0  0  0  0  0  0
    2.9970    0.6108   -1.1196 C   0  0  0  0  0  0  0  0  0  0  0  0
    2.6490   -0.1410   -2.4317 C   0  0  1  0  0  0  0  0  0  0  0  0
    1.1545   -0.0999   -2.7526 C   0  0  0  0  0  0  0  0  0  0  0  0
    3.4999    0.3666   -3.6216 C   0  0  0  0  0  0  0  0  0  0  0  0
    4.9835    0.2611   -3.3997 C   0  0  0  0  0  0  0  0  0  0  0  0
    5.7393    1.4268   -3.2179 C   0  0  0  0  0  0  0  0  0  0  0  0
    5.5966   -0.9893   -3.2641 C   0  0  0  0  0  0  0  0  0  0  0  0
    7.0798    1.3422   -2.8554 C   0  0  0  0  0  0  0  0  0  0  0  0
    6.9230   -1.0692   -2.8478 C   0  0  0  0  0  0  0  0  0  0  0  0
    7.6691    0.0943   -2.6644 C   0  0  0  0  0  0  0  0  0  0  0  0
  1 11  2  0
  2 16  1  0
  3 16  2  0
  4  7  1  0
  4  8  1  0
  4 11  1  0
  5  6  1  0
  5  7  1  1
  5  9  1  0
  6  8  1  6
  6 10  1  0
  9 12  1  0
 10 13  1  0
 11 14  1  0
 12 13  1  0
 15 14  1  1
 15 16  1  0
 15 17  1  0
 17 18  1  0
 18 19  2  0
 18 20  1  0
 19 21  1  0
 20 22  2  0
 21 23  2  0
 22 23  1  0
M  END
>  <DRUGBANK_ID>  (1) 
DB01252

>  <COMMON_NAME>  (1) 
Mitiglinide

>  <CAS_NUMBER>  (1) 
145375-43-5

>  <UNII>  (1) 
D86I0XLB13

>  <SYNONYMS>  (1) 
Mitiglinide

$$$$
