
     RDKit          3D

  1  0  0  0  0  0  0  0  0  0999 V2000
    1.0177    0.0385   -0.0906 Cr  0  0  0  0  0 15  0  0  0  0  0  0
M  ISO  1   1  51
M  END
>  <DRUGBANK_ID>  (1) 
DB11140

>  <COMMON_NAME>  (1) 
Chromium Cr-51

>  <CAS_NUMBER>  (1) 
14392-02-0

>  <UNII>  (1) 
9QAU17N705

>  <SYNONYMS>  (1) 
Chromium (51 Cr); Chromium Cr 51; Chromium-51

$$$$
