
     RDKit          3D

 36 41  0  0  0  0  0  0  0  0999 V2000
   -1.3124   -1.4773    0.9922 C   0  0  0  0  0  0  0  0  0  0  0  0
   -3.4030   -1.4706   -3.0892 C   0  0  0  0  0  0  0  0  0  0  0  0
    0.1600    1.0748    0.1493 C   0  0  1  0  0  0  0  0  0  0  0  0
   -2.3199    2.2614   -0.2095 C   0  0  0  0  0  0  0  0  0  0  0  0
   -0.0588   -0.6406    0.6868 C   0  0  1  0  0  0  0  0  0  0  0  0
   -1.9708    0.2327   -2.1574 C   0  0  2  0  0  0  0  0  0  0  0  0
   -3.4584    1.4813    0.2972 C   0  0  1  0  0  0  0  0  0  0  0  0
   -4.2121   -0.4630   -2.9869 C   0  0  0  0  0  0  0  0  0  0  0  0
   -2.4227   -1.1275   -2.5979 C   0  0  0  0  0  0  0  0  0  0  0  0
   -0.5643   -0.2343   -2.0546 C   0  0  0  0  0  0  0  0  0  0  0  0
   -1.8001   -2.5305   -2.4938 C   0  0  0  0  0  0  0  0  0  0  0  0
    0.1177   -1.4055   -2.0961 C   0  0  0  0  0  0  0  0  0  0  0  0
   -3.5911   -0.8780   -1.1048 C   0  0  2  0  0  0  0  0  0  0  0  0
   -3.4481    0.6074   -1.0684 C   0  0  2  0  0  0  0  0  0  0  0  0
   -4.5499    1.1405   -1.6696 F   0  0  0  0  0  0  0  0  0  0  0  0
   -1.3124    1.3023    0.4189 C   0  0  2  0  0  0  0  0  0  0  0  0
   -0.9134    2.7929    1.3882 C   0  0  0  0  0  0  0  0  0  0  0  0
   -2.2707   -0.4924    0.2985 C   0  0  2  0  0  0  0  0  0  0  0  0
   -0.0205   -3.6639   -1.4390 O   0  0  0  0  0  0  0  0  0  0  0  0
   -0.4808   -2.7022   -2.0276 C   0  0  0  0  0  0  0  0  0  0  0  0
   -1.7781    1.3314   -3.1703 C   0  0  0  0  0  0  0  0  0  0  0  0
    1.3435    1.0508    0.9762 O   0  0  0  0  0  0  0  0  0  0  0  0
    0.7239    2.3232   -1.1964 C   0  0  0  0  0  0  0  0  0  0  0  0
   -3.1553    1.1065    1.6992 O   0  0  0  0  0  0  0  0  0  0  0  0
    0.2813    3.8435   -1.4206 C   0  0  0  0  0  0  0  0  0  0  0  0
    1.2964    4.8978   -1.3426 O   0  0  0  0  0  0  0  0  0  0  0  0
    1.6038    2.1372   -2.0669 O   0  0  0  0  0  0  0  0  0  0  0  0
    1.1592   -1.2624    0.9091 O   0  0  0  0  0  0  0  0  0  0  0  0
    2.0125   -0.2019    0.5570 C   0  0  0  0  0  0  0  0  0  0  0  0
    2.1409    5.1216   -0.3034 C   0  0  0  0  0  0  0  0  0  0  0  0
    1.9648    4.2512    0.8810 C   0  0  0  0  0  0  0  0  0  0  0  0
    2.9540    6.0403   -0.2935 O   0  0  0  0  0  0  0  0  0  0  0  0
    2.4410   -0.1919   -0.9116 C   0  0  0  0  0  0  0  0  0  0  0  0
    3.2648   -0.4498    1.2916 C   0  0  0  0  0  0  0  0  0  0  0  0
    4.3824   -0.2042    0.2913 C   0  0  0  0  0  0  0  0  0  0  0  0
    3.8611    0.0864   -1.0786 C   0  0  0  0  0  0  0  0  0  0  0  0
  2  8  1  0
  3  5  1  0
  3 22  1  0
  3 23  1  6
  4  7  1  0
  5  1  1  1
  5 28  1  0
  6  9  1  0
  6 10  1  0
  6 21  1  6
  7 24  1  1
  8  9  1  0
  9 11  2  0
 10 12  2  0
 11 20  1  0
 12 20  1  0
 13 14  1  0
 13  2  1  6
 14  6  1  0
 14  7  1  0
 14 15  1  6
 16  3  1  0
 16  4  1  0
 16 17  1  1
 18 13  1  0
 18 16  1  0
 18  1  1  6
 20 19  2  0
 22 29  1  0
 23 25  1  0
 23 27  2  0
 25 26  1  0
 26 30  1  0
 28 29  1  0
 29 34  1  0
 30 31  1  0
 30 32  2  0
 33 29  1  0
 33 36  1  0
 34 35  1  0
 36 35  1  0
M  END
>  <DRUGBANK_ID>  (1) 
DB00288

>  <SECONDARY_ACCESSION_NUMBERS>  (1) 
APRD00788

>  <COMMON_NAME>  (1) 
Amcinonide

>  <CAS_NUMBER>  (1) 
51022-69-6

>  <UNII>  (1) 
423W026MA9

>  <SYNONYMS>  (1) 
Amcin√≥nida; Amcinonide; Amcinonidum; Triamcinolonacetatcyclopentanonid

$$$$
