
     RDKit          3D

 26 28  0  0  1  0  0  0  0  0999 V2000
    2.3021   -0.5383    0.3576 C   0  0  0  0  0  0  0  0  0  0  0  0
    1.5893   -1.6642    0.4671 C   0  0  0  0  0  0  0  0  0  0  0  0
    0.2653   -1.4838    0.1978 C   0  0  0  0  0  0  0  0  0  0  0  0
   -0.3278   -0.1665    0.0895 C   0  0  0  0  0  0  0  0  0  0  0  0
    0.4479    0.9761    0.0133 C   0  0  0  0  0  0  0  0  0  0  0  0
    1.7091    0.6389   -0.1100 C   0  0  0  0  0  0  0  0  0  0  0  0
    0.1670    2.3738   -0.0172 N   0  0  0  0  0  0  0  0  0  0  0  0
    0.9597    3.4806   -0.0052 C   0  0  0  0  0  0  0  0  0  0  0  0
    0.3697    4.6079   -0.0005 O   0  0  0  0  0  0  0  0  0  0  0  0
    2.2923    3.5761    0.0327 N   0  0  0  0  0  0  0  0  0  0  0  0
    3.6486    2.8684    0.0002 C   0  0  2  0  0  0  0  0  0  0  0  0
    4.1018    3.0291   -1.4546 C   0  0  0  0  0  0  0  0  0  0  0  0
    3.8288    1.6661   -2.1684 C   0  0  0  0  0  0  0  0  0  0  0  0
    4.3463    0.7220   -1.1754 N   0  0  0  0  0  0  0  0  0  0  0  0
    4.2037    1.3907    0.2409 C   0  0  0  0  0  0  0  0  0  0  0  0
    4.5474   -0.6121   -1.6113 C   0  0  0  0  0  0  0  0  0  0  0  0
    5.7751   -0.9566   -2.1358 C   0  0  0  0  0  0  0  0  0  0  0  0
    6.1194   -2.3051   -2.3936 C   0  0  0  0  0  0  0  0  0  0  0  0
    5.2387   -3.3529   -2.1298 C   0  0  0  0  0  0  0  0  0  0  0  0
    4.0012   -2.9576   -1.6966 C   0  0  0  0  0  0  0  0  0  0  0  0
    3.6497   -1.6358   -1.5263 N   0  0  0  0  0  0  0  0  0  0  0  0
    5.5862   -4.8016   -2.3191 C   0  0  0  0  0  0  0  0  0  0  0  0
    5.5984   -5.5193   -1.1591 F   0  0  0  0  0  0  0  0  0  0  0  0
    4.7157   -5.4532   -3.1407 F   0  0  0  0  0  0  0  0  0  0  0  0
    6.8190   -4.9839   -2.8728 F   0  0  0  0  0  0  0  0  0  0  0  0
   -2.1931   -0.0689    0.0045 Br  0  0  0  0  0  0  0  0  0  0  0  0
  1  2  2  0
  1  6  1  0
  2  3  1  0
  3  4  2  0
  4  5  1  0
  4 26  1  0
  5  6  2  0
  5  7  1  0
  7  8  1  0
  8  9  2  0
  8 10  1  0
 11 10  1  6
 11 12  1  0
 11 15  1  0
 12 13  1  0
 13 14  1  0
 14 15  1  0
 14 16  1  0
 16 17  2  0
 16 21  1  0
 17 18  1  0
 18 19  2  0
 19 20  1  0
 19 22  1  0
 20 21  2  0
 22 23  1  0
 22 24  1  0
 22 25  1  0
M  END
>  <DRUGBANK_ID>  (1) 
DB11883

>  <COMMON_NAME>  (1) 
SB-705498

>  <CAS_NUMBER>  (1) 
501951-42-4

>  <UNII>  (1) 
T74V9O0Y2W

$$$$
