962
     RDKit          3D

 23 25  0  0  0  0  0  0  0  0999 V2000
    1.0830    0.0316   -0.0243 O   0  0  0  0  0  0  0  0  0  0  0  0
    3.0490    0.8401    0.8803 N   0  0  0  0  0  0  0  0  0  0  0  0
    7.1139    1.9772   -2.5127 N   0  0  0  0  0  0  0  0  0  0  0  0
    6.3750    3.1111   -2.3577 N   0  0  0  0  0  0  0  0  0  0  0  0
    8.5317    0.8896   -4.1499 N   0  0  0  0  0  0  0  0  0  0  0  0
    8.1554    3.9617   -6.6989 N   0  0  0  0  0  0  0  0  0  0  0  0
    6.5810    0.9406   -0.3040 C   0  0  0  0  0  0  0  0  0  0  0  0
    4.4689    0.9070    0.9116 C   0  0  0  0  0  0  0  0  0  0  0  0
    7.2696    0.9220   -1.6031 C   0  0  0  0  0  0  0  0  0  0  0  0
    5.1888    1.0599   -0.2734 C   0  0  0  0  0  0  0  0  0  0  0  0
    2.3096    1.6352    1.8751 C   0  0  0  0  0  0  0  0  0  0  0  0
    7.2726    0.7857    0.8967 C   0  0  0  0  0  0  0  0  0  0  0  0
    5.1741    0.7401    2.1074 C   0  0  0  0  0  0  0  0  0  0  0  0
    7.7474    1.9428   -3.7616 C   0  0  0  0  0  0  0  0  0  0  0  0
    6.5683    0.6409    2.0915 C   0  0  0  0  0  0  0  0  0  0  0  0
    8.0061   -0.1496   -1.9555 C   0  0  0  0  0  0  0  0  0  0  0  0
    2.3189    0.0697   -0.0340 C   0  0  0  0  0  0  0  0  0  0  0  0
    1.4411    2.7022    1.2148 C   0  0  0  0  0  0  0  0  0  0  0  0
    7.4025    3.1223   -4.3807 C   0  0  0  0  0  0  0  0  0  0  0  0
    8.6427   -0.0835   -3.2977 C   0  0  0  0  0  0  0  0  0  0  0  0
    6.5630    3.7923   -3.4850 C   0  0  0  0  0  0  0  0  0  0  0  0
    3.0293   -0.7985   -1.0564 C   0  0  0  0  0  0  0  0  0  0  0  0
    7.8267    3.5636   -5.6638 C   0  0  0  0  0  0  0  0  0  0  0  0
  1 17  2  0
  2  8  1  0
  2 11  1  0
  2 17  1  0
  3  4  1  0
  3  9  1  0
  3 14  1  0
  4 21  2  0
  5 14  1  0
  5 20  2  0
  6 23  3  0
  7  9  1  0
  7 10  1  0
  7 12  2  0
  8 10  2  0
  8 13  1  0
  9 16  2  0
 11 18  1  0
 12 15  1  0
 13 15  2  0
 14 19  2  0
 16 20  1  0
 17 22  1  0
 19 21  1  0
 19 23  1  0
M  END
>  <DRUGBANK_ID>  (1) 
DB00962

>  <SECONDARY_ACCESSION_NUMBERS>  (1) 
APRD00411

>  <COMMON_NAME>  (1) 
Zaleplon

>  <CAS_NUMBER>  (1) 
151319-34-5

>  <UNII>  (1) 
S62U433RMH

>  <SYNONYMS>  (1) 
3'-(3-Cyanopyrazolo(1,5-a)pyrimidin-7-yl)-N-ethylacetanilide; Zaleplon

$$$$
