524
     RDKit          3D

 24 26  0  0  1  0  0  0  0  0999 V2000
    0.9809    0.3105   -0.0158 Cl  0  0  0  0  0  0  0  0  0  0  0  0
    2.5634   -2.7365    0.1042 S   0  0  0  0  0  0  0  0  0  0  0  0
    7.6316   -0.9933    0.0636 O   0  0  0  0  0  0  0  0  0  0  0  0
    2.8818   -3.3939   -1.1364 O   0  0  0  0  0  0  0  0  0  0  0  0
    2.8493   -3.3451    1.3891 O   0  0  0  0  0  0  0  0  0  0  0  0
    7.5729    1.2912   -0.3441 N   0  0  0  0  0  0  0  0  0  0  0  0
    5.5551    2.4578   -0.0982 N   0  0  0  0  0  0  0  0  0  0  0  0
    0.9066   -2.5128    0.0665 N   0  0  0  0  0  0  0  0  0  0  0  0
    6.9538    2.4249    0.3130 C   0  0  0  0  0  0  0  0  0  0  0  0
    4.8333    1.2741   -0.0503 C   0  0  0  0  0  0  0  0  0  0  0  0
    5.4954    0.0413    0.0379 C   0  0  0  0  0  0  0  0  0  0  0  0
    6.9964    0.0459   -0.0741 C   0  0  0  0  0  0  0  0  0  0  0  0
    8.5526    1.4798   -1.3794 C   0  0  0  0  0  0  0  0  0  0  0  0
    7.0361    2.2629    1.8423 C   0  0  0  0  0  0  0  0  0  0  0  0
    4.7699   -1.1601    0.0960 C   0  0  0  0  0  0  0  0  0  0  0  0
    3.4361    1.2764   -0.0513 C   0  0  0  0  0  0  0  0  0  0  0  0
    3.3562   -1.1459    0.0809 C   0  0  0  0  0  0  0  0  0  0  0  0
    8.3354    1.0266   -2.7008 C   0  0  0  0  0  0  0  0  0  0  0  0
    2.6920    0.0813    0.0121 C   0  0  0  0  0  0  0  0  0  0  0  0
    9.7369    2.1941   -1.1226 C   0  0  0  0  0  0  0  0  0  0  0  0
    9.2990    1.2774   -3.7062 C   0  0  0  0  0  0  0  0  0  0  0  0
    7.0591    0.3836   -3.1616 C   0  0  0  0  0  0  0  0  0  0  0  0
   10.6346    2.5224   -2.1564 C   0  0  0  0  0  0  0  0  0  0  0  0
   10.4111    2.0714   -3.4517 C   0  0  0  0  0  0  0  0  0  0  0  0
  1 19  1  0
  2  4  2  0
  2  5  2  0
  2  8  1  0
  2 17  1  0
  3 12  2  0
  6  9  1  0
  6 12  1  0
  6 13  1  0
  7  9  1  0
  7 10  1  0
  9 14  1  0
 10 11  2  0
 10 16  1  0
 11 12  1  0
 11 15  1  0
 13 18  2  0
 13 20  1  0
 15 17  2  0
 16 19  2  0
 17 19  1  0
 18 21  1  0
 18 22  1  0
 20 23  2  0
 21 24  2  0
 23 24  1  0
M  END
>  <DRUGBANK_ID>  (1) 
DB00524

>  <SECONDARY_ACCESSION_NUMBERS>  (1) 
APRD01109

>  <COMMON_NAME>  (1) 
Metolazone

>  <CAS_NUMBER>  (1) 
17560-51-9

>  <UNII>  (1) 
TZ7V40X7VX

>  <SYNONYMS>  (1) 
2-Methyl-3-o-tolyl-6-sulfamyl-7-chloro-1,2,3,4-tetrahydro-4-quinazolinone; 7-Chloro-1,2,3,4-tetrahydro-2-methyl-3-(2-methylphenyl)-4-oxo-6-quinazolinesulfonamide; 7-Chloro-1,2,3,4-tetrahydro-2-methyl-4-oxo-3-o-tolyl-6-quinazolinesulfonamide; Metolazon; Metolazona; MÃ©tolazone; Metolazone; Metolazonum

$$$$
