
     RDKit          3D

 26 28  0  0  1  0  0  0  0  0999 V2000
    0.7210    2.9188    4.1456 N   0  0  0  0  0  0  0  0  0  0  0  0
    1.6515    3.4703    3.2848 C   0  0  0  0  0  0  0  0  0  0  0  0
    1.7164    4.6886    3.1470 O   0  0  0  0  0  0  0  0  0  0  0  0
    2.4230    2.4483    2.3815 C   0  0  2  0  0  0  0  0  0  0  0  0
    3.8438    2.8586    2.7051 C   0  0  0  0  0  0  0  0  0  0  0  0
    4.6946    2.1350    1.6973 C   0  0  0  0  0  0  0  0  0  0  0  0
    3.8260    2.0543    0.4542 C   0  0  0  0  0  0  0  0  0  0  0  0
    2.4813    2.4354    0.8836 N   0  0  0  0  0  0  0  0  0  0  0  0
    1.5194    2.4501   -0.1082 C   0  0  0  0  0  0  0  0  0  0  0  0
    1.8316    2.3179   -1.3015 O   0  0  0  0  0  0  0  0  0  0  0  0
    0.0464    2.7476    0.1841 C   0  0  2  0  0  0  0  0  0  0  0  0
   -0.2684    3.2288    1.5474 C   0  0  0  0  0  0  0  0  0  0  0  0
   -1.5959    3.2509    2.1805 C   0  0  0  0  0  0  0  0  0  0  0  0
   -2.4346    4.2815    2.5316 C   0  0  0  0  0  0  0  0  0  0  0  0
   -3.5322    3.7900    3.1763 N   0  0  0  0  0  0  0  0  0  0  0  0
   -3.3367    2.4962    3.2759 C   0  0  0  0  0  0  0  0  0  0  0  0
   -2.1248    2.1397    2.7814 N   0  0  0  0  0  0  0  0  0  0  0  0
   -0.9182    1.7484   -0.2077 N   0  0  0  0  0  0  0  0  0  0  0  0
   -2.2047    2.0386   -0.5910 C   0  0  0  0  0  0  0  0  0  0  0  0
   -3.0308    1.1270   -0.4841 O   0  0  0  0  0  0  0  0  0  0  0  0
   -2.5571    3.4115   -1.2495 C   0  0  2  0  0  0  0  0  0  0  0  0
   -1.7394    4.6487   -0.9397 C   0  0  0  0  0  0  0  0  0  0  0  0
   -2.5717    5.8431   -1.2718 C   0  0  0  0  0  0  0  0  0  0  0  0
   -3.9570    5.2995   -1.0473 C   0  0  0  0  0  0  0  0  0  0  0  0
   -4.9571    5.9635   -0.9927 O   0  0  0  0  0  0  0  0  0  0  0  0
   -3.8700    3.9140   -0.9331 N   0  0  0  0  0  0  0  0  0  0  0  0
  1  2  1  0
  2  3  2  0
  4  2  1  6
  4  5  1  0
  4  8  1  0
  5  6  1  0
  6  7  1  0
  7  8  1  0
  8  9  1  0
  9 10  2  0
 11 18  1  0
 11 12  1  1
 11  9  1  0
 12 13  1  0
 13 14  2  0
 13 17  1  0
 14 15  1  0
 15 16  2  0
 16 17  1  0
 18 19  1  0
 19 20  2  0
 21 19  1  1
 21 22  1  0
 21 26  1  0
 22 23  1  0
 23 24  1  0
 24 25  2  0
 24 26  1  0
M  END
>  <DRUGBANK_ID>  (1) 
DB09421

>  <COMMON_NAME>  (1) 
Protirelin

>  <CAS_NUMBER>  (1) 
24305-27-9

>  <UNII>  (1) 
5Y5F15120W

>  <SYNONYMS>  (1) 
5-oxo-L-prolyl-L-histidyl-L-prolinamide; L-pyroglutamyl-L-histidyl-L-prolineamide; Protirelin; Protirelina; Thyroliberin; Thyrotropic releasing hormone; Thyrotropic-releasing factor; Thyrotropin releasing hormone; Thyrotropin-releasing factor; TRH; TSH-releasing factor; TSH-releasing hormone

$$$$
