
     RDKit          3D

 16 16  0  0  0  0  0  0  0  0999 V2000
   -2.3810   -1.1073   -0.1658 O   0  0  0  0  0  0  0  0  0  0  0  0
    2.4590   -1.0119    0.0845 O   0  0  0  0  0  0  0  0  0  0  0  0
   -0.0200    2.6821   -0.0031 O   0  0  0  0  0  0  0  0  0  0  0  0
   -1.1443    0.7272    0.0041 N   0  0  0  0  0  0  0  0  0  0  0  0
    1.1573    0.7664   -0.0103 N   0  0  0  0  0  0  0  0  0  0  0  0
    0.0520   -1.4579   -0.1383 C   0  0  0  0  0  0  0  0  0  0  0  0
    1.3063   -0.5816    0.0215 C   0  0  0  0  0  0  0  0  0  0  0  0
   -1.2489   -0.6282   -0.0869 C   0  0  0  0  0  0  0  0  0  0  0  0
    0.0159   -2.4975    1.0585 C   0  0  0  0  0  0  0  0  0  0  0  0
    0.1090   -2.0457   -1.5583 C   0  0  0  0  0  0  0  0  0  0  0  0
   -0.0041    1.4483   -0.0083 C   0  0  0  0  0  0  0  0  0  0  0  0
   -1.2012   -3.4755    1.0796 C   0  0  0  0  0  0  0  0  0  0  0  0
    1.3375   -3.2712    1.2491 C   0  0  0  0  0  0  0  0  0  0  0  0
    1.1316   -2.0625   -2.4259 C   0  0  0  0  0  0  0  0  0  0  0  0
   -1.3923   -4.4021   -0.1258 C   0  0  0  0  0  0  0  0  0  0  0  0
   -0.2143   -5.3153   -0.4112 C   0  0  0  0  0  0  0  0  0  0  0  0
  1  8  2  0
  2  7  2  0
  3 11  2  0
  4  8  1  0
  4 11  1  0
  5  7  1  0
  5 11  1  0
  6  7  1  0
  6  8  1  0
  6  9  1  0
  6 10  1  0
  9 12  1  0
  9 13  1  0
 10 14  2  0
 12 15  1  0
 15 16  1  0
M  END
>  <DRUGBANK_ID>  (1) 
DB13770

>  <COMMON_NAME>  (1) 
Vinylbital

>  <CAS_NUMBER>  (1) 
2430-49-1

>  <UNII>  (1) 
3W58ITX06Q

>  <SYNONYMS>  (1) 
Vinilbital; Vinylbital; Vinylbitalum

$$$$
