1OH
     RDKit          3D

 16 17  0  0  0  0  0  0  0  0999 V2000
    2.3437    0.0342    0.0298 O   0  0  0  0  0  0  0  0  0  0  0  0
    0.9819    0.0094    0.0108 C   0  0  0  0  0  0  0  0  0  0  0  0
    0.2888   -1.1913   -0.0279 C   0  0  0  0  0  0  0  0  0  0  0  0
   -1.1049   -1.1690   -0.0855 C   0  0  0  0  0  0  0  0  0  0  0  0
    0.3036    1.2162    0.0190 C   0  0  0  0  0  0  0  0  0  0  0  0
   -1.0929    1.2325    0.0008 C   0  0  0  0  0  0  0  0  0  0  0  0
   -1.8343    0.0348   -0.0469 C   0  0  0  0  0  0  0  0  0  0  0  0
   -3.3834    0.0774   -0.0624 C   0  0  0  0  0  0  0  0  0  0  0  0
   -3.8298    0.8899   -1.3081 C   0  0  0  0  0  0  0  0  0  0  0  0
   -3.9063    0.8384    1.1867 C   0  0  0  0  0  0  0  0  0  0  0  0
   -4.0378   -1.3254   -0.0360 C   0  0  0  0  0  0  0  0  0  0  0  0
   -3.8093   -2.1883    1.0565 C   0  0  0  0  0  0  0  0  0  0  0  0
   -4.3476   -3.4734    1.0925 C   0  0  0  0  0  0  0  0  0  0  0  0
   -5.1917   -3.8943    0.0706 C   0  0  0  0  0  0  0  0  0  0  0  0
   -5.4641   -3.0499   -0.9983 C   0  0  0  0  0  0  0  0  0  0  0  0
   -4.8594   -1.7948   -1.0745 C   0  0  0  0  0  0  0  0  0  0  0  0
  2  1  1  0
  2  3  2  0
  4  3  1  0
  5  2  1  0
  6  5  2  0
  6  7  1  0
  7  4  2  0
  8  7  1  0
  8 10  1  0
  8  9  1  0
 11  8  1  0
 12 11  2  0
 13 12  1  0
 14 15  1  0
 14 13  2  0
 15 16  2  0
 16 11  1  0
M  END
>  <DRUGBANK_ID>  (1) 
DB06902

>  <COMMON_NAME>  (1) 
p-Cumylphenol

>  <CAS_NUMBER>  (1) 
599-64-4

>  <UNII>  (1) 
2RLA3OL3QT

>  <SYNONYMS>  (1) 
4-(alpha,alpha-Dimethylbenzyl)phenol; 4-Cumylphenol

$$$$
