581
     RDKit          3D

 23 24  0  0  1  0  0  0  0  0999 V2000
    2.9133   -0.3664    1.1676 O   0  0  0  0  0  0  0  0  0  0  0  0
    5.8987    0.6211   -0.1687 O   0  0  0  0  0  0  0  0  0  0  0  0
    2.5994   -1.0412   -1.0561 O   0  0  0  0  0  0  0  0  0  0  0  0
    5.2481   -2.7588    0.9932 O   0  0  0  0  0  0  0  0  0  0  0  0
    7.3892   -0.9658    0.6508 O   0  0  0  0  0  0  0  0  0  0  0  0
    2.1857    2.3812    0.3208 O   0  0  0  0  0  0  0  0  0  0  0  0
    2.7793    2.8991   -2.4570 O   0  0  0  0  0  0  0  0  0  0  0  0
    4.1357    0.5395   -2.9631 O   0  0  0  0  0  0  0  0  0  0  0  0
    6.3916    2.7606    1.7005 O   0  0  0  0  0  0  0  0  0  0  0  0
    6.6607   -2.7065   -1.6939 O   0  0  0  0  0  0  0  0  0  0  0  0
    2.1351   -3.2120   -2.7004 O   0  0  0  0  0  0  0  0  0  0  0  0
    4.3503   -0.4567    1.2977 C   0  0  1  0  0  0  0  0  0  0  0  0
    5.0088   -1.4991    0.3737 C   0  0  1  0  0  0  0  0  0  0  0  0
    5.0914    0.8563    1.0175 C   0  0  1  0  0  0  0  0  0  0  0  0
    6.2475   -0.7792   -0.1784 C   0  0  1  0  0  0  0  0  0  0  0  0
    2.2926   -0.0430   -0.0999 C   0  0  2  0  0  0  0  0  0  0  0  0
    2.6138    1.3799   -0.5998 C   0  0  1  0  0  0  0  0  0  0  0  0
    2.1930    1.6576   -2.0331 C   0  0  2  0  0  0  0  0  0  0  0  0
    2.6980    0.5234   -2.9316 C   0  0  2  0  0  0  0  0  0  0  0  0
    2.1571   -0.8086   -2.3971 C   0  0  1  0  0  0  0  0  0  0  0  0
    5.9193    1.4781    2.1371 C   0  0  0  0  0  0  0  0  0  0  0  0
    6.6398   -1.2815   -1.5972 C   0  0  0  0  0  0  0  0  0  0  0  0
    2.6506   -1.9931   -3.2366 C   0  0  0  0  0  0  0  0  0  0  0  0
  2 14  1  0
  2 15  1  0
  3 16  1  0
  3 20  1  0
  9 21  1  0
 10 22  1  0
 11 23  1  0
 12  1  1  6
 12 13  1  0
 12 14  1  0
 13  4  1  1
 13 15  1  0
 14 21  1  1
 15 22  1  0
 15  5  1  1
 16 17  1  0
 16  1  1  1
 17  6  1  1
 17 18  1  0
 18  7  1  6
 18 19  1  0
 19  8  1  1
 19 20  1  0
 20 23  1  6
M  END
>  <DRUGBANK_ID>  (1) 
DB00581

>  <SECONDARY_ACCESSION_NUMBERS>  (1) 
APRD01063

>  <COMMON_NAME>  (1) 
Lactulose

>  <CAS_NUMBER>  (1) 
4618-18-2

>  <UNII>  (1) 
9XH2P2N8EP

>  <SYNONYMS>  (1) 
4-O-beta-D-Galactopyranosyl-D-fructofuranose; 4-O-beta-D-Galactopyranosyl-D-fructose; Lactulosa; Lactulose; Lactulosum

$$$$
