
     RDKit          3D

 23 24  0  0  0  0  0  0  0  0999 V2000
    0.6868   -0.0705    0.2554 C   0  0  0  0  0  0  0  0  0  0  0  0
    0.2786   -1.2144    1.1547 C   0  0  0  0  0  0  0  0  0  0  0  0
    3.5937    0.3344   -0.1486 C   0  0  0  0  0  0  0  0  0  0  0  0
    4.4059    2.2356    1.0477 C   0  0  0  0  0  0  0  0  0  0  0  0
    4.2579   -0.5264    0.7245 C   0  0  0  0  0  0  0  0  0  0  0  0
    5.2626    1.3867    1.7649 C   0  0  0  0  0  0  0  0  0  0  0  0
    3.9974    5.6861   -2.8225 C   0  0  0  0  0  0  0  0  0  0  0  0
    2.8505    5.9414   -2.0685 C   0  0  0  0  0  0  0  0  0  0  0  0
    0.4337    1.3768    0.6250 C   0  0  0  0  0  0  0  0  0  0  0  0
    3.9705    3.3846   -2.1007 C   0  0  0  0  0  0  0  0  0  0  0  0
    3.4655    1.6835    0.1802 C   0  0  0  0  0  0  0  0  0  0  0  0
    5.1032    0.0048    1.6821 C   0  0  0  0  0  0  0  0  0  0  0  0
    4.5470    4.4124   -2.8263 C   0  0  0  0  0  0  0  0  0  0  0  0
    2.8409    3.6314   -1.3103 C   0  0  0  0  0  0  0  0  0  0  0  0
    2.2744    4.9180   -1.3050 C   0  0  0  0  0  0  0  0  0  0  0  0
    0.8367   -1.0100    2.5318 C   0  0  0  0  0  0  0  0  0  0  0  0
    2.3624    2.5047   -0.4444 C   0  0  0  0  0  0  0  0  0  0  0  0
    5.9520   -1.0471    2.7421 Cl  0  0  0  0  0  0  0  0  0  0  0  0
    5.6669    4.1713   -3.5181 F   0  0  0  0  0  0  0  0  0  0  0  0
    0.1329   -0.7434    3.5799 N   0  0  0  0  0  0  0  0  0  0  0  0
    1.0883    2.3105   -0.3111 N   0  0  0  0  0  0  0  0  0  0  0  0
    1.1984    5.2163   -0.5176 O   0  0  0  0  0  0  0  0  0  0  0  0
    2.1540   -1.0541    2.6791 O   0  0  0  0  0  0  0  0  0  0  0  0
  2  1  1  0
  5  3  2  0
  6  4  1  0
  8  7  2  0
  9  1  1  0
 11  3  1  0
 11  4  2  0
 12  5  1  0
 12  6  2  0
 13  7  1  0
 13 10  2  0
 14 10  1  0
 15  8  1  0
 15 14  2  0
 16  2  1  0
 17 11  1  0
 17 14  1  0
 18 12  1  0
 19 13  1  0
 20 16  2  0
 21  9  1  0
 21 17  2  3
 22 15  1  0
 23 16  1  0
M  END
>  <DRUGBANK_ID>  (1) 
DB00837

>  <SECONDARY_ACCESSION_NUMBERS>  (1) 
APRD00072

>  <COMMON_NAME>  (1) 
Progabide

>  <CAS_NUMBER>  (1) 
62666-20-0

>  <UNII>  (1) 
38C836J57Z

>  <SYNONYMS>  (1) 
Halogabide; Progabida; Progabide; Progabidum

$$$$
