IOK
     RDKit          3D

 30 33  0  0  0  0  0  0  0  0999 V2000
   -1.9402   -0.0534   -0.2139 C   0  0  0  0  0  0  0  0  0  0  0  0
   -1.2941   -1.2940   -0.0883 C   0  0  0  0  0  0  0  0  0  0  0  0
    0.0970   -1.3959   -0.1947 C   0  0  0  0  0  0  0  0  0  0  0  0
    0.8301   -0.2671   -0.5101 C   0  0  0  0  0  0  0  0  0  0  0  0
    2.1888   -0.3288   -0.6538 O   0  0  0  0  0  0  0  0  0  0  0  0
    0.2133    0.9751   -0.5963 C   0  0  0  0  0  0  0  0  0  0  0  0
   -1.1513    1.0750   -0.4397 C   0  0  0  0  0  0  0  0  0  0  0  0
   -3.4474    0.0701   -0.1588 C   0  0  0  0  0  0  0  0  0  0  0  0
   -4.0023    0.8907    1.0182 C   0  0  0  0  0  0  0  0  0  0  0  0
   -3.4905    2.3401    1.1465 C   0  0  1  0  0  0  0  0  0  0  0  0
   -3.9081    3.1284   -0.0829 C   0  0  0  0  0  0  0  0  0  0  0  0
   -3.8447    3.0652    2.3649 N   0  0  0  0  0  0  0  0  0  0  0  0
   -2.9690    3.5363    3.3229 C   0  0  0  0  0  0  0  0  0  0  0  0
   -3.4414    4.1505    4.3015 O   0  0  0  0  0  0  0  0  0  0  0  0
   -1.4656    3.2821    3.2208 C   0  0  0  0  0  0  0  0  0  0  0  0
   -1.0593    1.8313    3.3436 C   0  0  0  0  0  0  0  0  0  0  0  0
    0.2169    1.3224    3.0690 C   0  0  0  0  0  0  0  0  0  0  0  0
    0.0601   -0.0587    3.0234 N   0  0  0  0  0  0  0  0  0  0  0  0
   -1.2266   -0.4430    3.3711 C   0  0  0  0  0  0  0  0  0  0  0  0
   -1.8623   -1.7051    3.3990 C   0  0  0  0  0  0  0  0  0  0  0  0
   -3.2358   -1.7655    3.7014 C   0  0  0  0  0  0  0  0  0  0  0  0
   -3.9367   -0.6220    4.0470 C   0  0  0  0  0  0  0  0  0  0  0  0
   -3.2711    0.6056    4.0974 C   0  0  0  0  0  0  0  0  0  0  0  0
   -1.9163    0.7237    3.6848 C   0  0  0  0  0  0  0  0  0  0  0  0
    1.4558    2.0685    2.7116 C   0  0  0  0  0  0  0  0  0  0  0  0
    2.1520    1.8169    1.5406 C   0  0  0  0  0  0  0  0  0  0  0  0
    3.0999    2.6601    0.9511 C   0  0  0  0  0  0  0  0  0  0  0  0
    3.5297    3.7453    1.6747 C   0  0  0  0  0  0  0  0  0  0  0  0
    2.9612    3.9669    2.9324 C   0  0  0  0  0  0  0  0  0  0  0  0
    1.9332    3.1417    3.4431 C   0  0  0  0  0  0  0  0  0  0  0  0
  1  7  1  0
  1  8  1  0
  1  2  2  0
  2  3  1  0
  3  4  2  0
  4  6  1  0
  4  5  1  0
  6  7  2  0
  8  9  1  0
  9 10  1  0
 10 11  1  6
 10 12  1  0
 12 13  1  0
 13 14  2  0
 13 15  1  0
 15 16  1  0
 16 24  1  0
 16 17  2  0
 17 18  1  0
 17 25  1  0
 18 19  1  0
 19 24  2  0
 19 20  1  0
 20 21  2  0
 21 22  1  0
 22 23  2  0
 23 24  1  0
 25 26  2  0
 25 30  1  0
 26 27  1  0
 27 28  2  0
 28 29  1  0
 29 30  2  0
M  END
>  <DRUGBANK_ID>  (1) 
DB07991

>  <COMMON_NAME>  (1) 
N-[(1R)-3-(4-HYDROXYPHENYL)-1-METHYLPROPYL]-2-(2-PHENYL-1H-INDOL-3-YL)ACETAMIDE

$$$$
