
     RDKit          3D

 24 26  0  0  0  0  0  0  0  0999 V2000
   -0.9626    1.3050    0.0332 C   0  0  0  0  0  0  0  0  0  0  0  0
    0.4037    1.2214    0.0394 C   0  0  0  0  0  0  0  0  0  0  0  0
    1.0072   -0.0350    0.0418 C   0  0  0  0  0  0  0  0  0  0  0  0
    0.2777   -1.2313    0.0761 C   0  0  0  0  0  0  0  0  0  0  0  0
   -1.1090   -1.1669    0.0907 C   0  0  0  0  0  0  0  0  0  0  0  0
   -1.6876    0.1224    0.0412 C   0  0  0  0  0  0  0  0  0  0  0  0
    2.3680   -0.0334   -0.0087 O   0  0  0  0  0  0  0  0  0  0  0  0
   -2.0352   -2.7495    0.0663 S   0  0  0  0  0  0  0  0  0  0  0  0
   -2.8729   -2.7967    1.2554 O   0  0  0  0  0  0  0  0  0  0  0  0
   -3.0201   -2.6956   -1.3468 N   0  0  0  0  0  0  0  0  0  0  0  0
   -1.0786   -3.8095   -0.1475 O   0  0  0  0  0  0  0  0  0  0  0  0
   -2.2754   -2.7243   -2.6333 C   0  0  0  0  0  0  0  0  0  0  0  0
   -2.1140   -1.2606   -2.9650 C   0  0  0  0  0  0  0  0  0  0  0  0
   -3.4705   -0.6810   -2.5908 C   0  0  0  0  0  0  0  0  0  0  0  0
   -4.0575   -1.6280   -1.4999 C   0  0  2  0  0  0  0  0  0  0  0  0
   -4.4996   -1.0551   -0.1603 C   0  0  0  0  0  0  0  0  0  0  0  0
   -5.1469    0.2857   -0.2833 C   0  0  0  0  0  0  0  0  0  0  0  0
   -6.5045   -0.0139   -0.6797 N   0  0  0  0  0  0  0  0  0  0  0  0
   -6.9797    0.9221   -1.6880 C   0  0  0  0  0  0  0  0  0  0  0  0
   -7.0355    2.3394   -1.1384 C   0  0  0  0  0  0  0  0  0  0  0  0
   -7.8574    2.3918    0.1585 C   0  0  0  0  0  0  0  0  0  0  0  0
   -7.4125    1.3391    1.1799 C   0  0  0  0  0  0  0  0  0  0  0  0
   -7.3376   -0.0407    0.5265 C   0  0  0  0  0  0  0  0  0  0  0  0
   -7.7623    3.7786    0.7699 C   0  0  0  0  0  0  0  0  0  0  0  0
  1  2  2  0
  2  3  1  0
  3  7  1  0
  3  4  2  0
  4  5  1  0
  5  6  2  0
  5  8  1  0
  6  1  1  0
  8  9  2  0
  8 10  1  0
  8 11  2  0
 10 12  1  0
 12 13  1  0
 13 14  1  0
 14 15  1  0
 15 10  1  0
 15 16  1  1
 16 17  1  0
 17 18  1  0
 18 19  1  0
 18 23  1  0
 19 20  1  0
 20 21  1  0
 21 22  1  0
 21 24  1  0
 22 23  1  0
M  END
>  <DRUGBANK_ID>  (1) 
DB13988

>  <COMMON_NAME>  (1) 
SB-269970

>  <CAS_NUMBER>  (1) 
201038-74-6

>  <UNII>  (1) 
KC8KP5XU6F

$$$$
