C26
     RDKit          3D

 13 12  0  0  0  0  0  0  0  0999 V2000
    4.6187   -2.8263   -1.9593 O   0  0  0  0  0  0  0  0  0  0  0  0
    4.9249   -1.5303   -1.3802 S   0  0  0  0  0  0  0  0  0  0  0  0
    6.2065   -0.9415   -1.6738 O   0  0  0  0  0  0  0  0  0  0  0  0
    3.7006   -0.5632   -1.8453 O   0  0  0  0  0  0  0  0  0  0  0  0
    4.7797   -1.5653    0.2341 O   0  0  0  0  0  0  0  0  0  0  0  0
    4.3560   -0.4603    1.0267 C   0  0  0  0  0  0  0  0  0  0  0  0
    5.0569    0.9372    1.0150 C   0  0  2  0  0  0  0  0  0  0  0  0
    4.5667    1.8903   -0.1181 C   0  0  0  0  0  0  0  0  0  0  0  0
    5.3984    1.7817   -1.3794 C   0  0  0  0  0  0  0  0  0  0  0  0
    6.5949    0.9465    1.1443 C   0  0  0  0  0  0  0  0  0  0  0  0
    7.1465    2.3967    1.1775 C   0  0  0  0  0  0  0  0  0  0  0  0
    6.6349    3.1941    2.3732 C   0  0  0  0  0  0  0  0  0  0  0  0
    7.0893    2.5426    3.6615 C   0  0  0  0  0  0  0  0  0  0  0  0
  1  2  2  0
  2  3  2  0
  2  4  1  0
  2  5  1  0
  5  6  1  0
  7 10  1  6
  7  8  1  0
  7  6  1  0
  8  9  1  0
 10 11  1  0
 11 12  1  0
 12 13  1  0
M  END
>  <DRUGBANK_ID>  (1) 
DB07518

>  <COMMON_NAME>  (1) 
(2R)-2-ETHYL-1-HEXANESULFONIC ACID

$$$$
