
     RDKit          3D

  7  6  0  0  0  0  0  0  0  0999 V2000
    1.0439   -0.0643    0.0431 N   0  0  0  0  0  0  0  0  0  0  0  0
    0.5270    0.8511    1.1880 C   0  0  0  0  0  0  0  0  0  0  0  0
    0.9840    2.3100    1.0998 C   0  0  0  0  0  0  0  0  0  0  0  0
    0.4907    2.8733   -0.0336 F   0  0  0  0  0  0  0  0  0  0  0  0
    0.5308    0.4139   -1.3156 C   0  0  0  0  0  0  0  0  0  0  0  0
    0.5086   -1.4783    0.2788 C   0  0  0  0  0  0  0  0  0  0  0  0
    2.5642   -0.1204    0.0223 C   0  0  0  0  0  0  0  0  0  0  0  0
  1  2  1  0
  1  5  1  0
  1  6  1  0
  1  7  1  0
  2  3  1  0
  3  4  1  0
M  CHG  1   1   1
M  ISO  1   4  18
M  END
>  <DRUGBANK_ID>  (1) 
DB15887

>  <COMMON_NAME>  (1) 
Fluorocholine F-18

>  <CAS_NUMBER>  (1) 
407582-13-2

>  <UNII>  (1) 
700YTQ6F2B

>  <SYNONYMS>  (1) 
(18F)Fluorocholine; 18F-FCH; Fluorocholine(18F); Fluourine-18 Fluoromethylcholine

$$$$
