623
     RDKit          3D

 30 33  0  0  0  0  0  0  0  0999 V2000
    0.0205    1.7355    0.3219 S   0  0  0  0  0  0  0  0  0  0  0  0
    5.1099   -2.6806    0.3150 F   0  0  0  0  0  0  0  0  0  0  0  0
    4.2903   -2.9813   -1.6749 F   0  0  0  0  0  0  0  0  0  0  0  0
    5.7712   -1.4233   -1.3344 F   0  0  0  0  0  0  0  0  0  0  0  0
   -5.0660   -5.1643    3.1266 O   0  0  0  0  0  0  0  0  0  0  0  0
   -2.7440   -2.0849    2.5658 N   0  0  0  0  0  0  0  0  0  0  0  0
   -4.1294   -2.7959    5.0508 N   0  0  0  0  0  0  0  0  0  0  0  0
    0.0858   -1.3187    0.6110 N   0  0  0  0  0  0  0  0  0  0  0  0
   -4.0335   -1.4759    2.8984 C   0  0  0  0  0  0  0  0  0  0  0  0
   -2.5689   -3.4244    3.1392 C   0  0  0  0  0  0  0  0  0  0  0  0
   -4.2310   -1.4696    4.4287 C   0  0  0  0  0  0  0  0  0  0  0  0
   -2.8891   -3.4792    4.6462 C   0  0  0  0  0  0  0  0  0  0  0  0
   -1.7713   -1.0680    2.9426 C   0  0  0  0  0  0  0  0  0  0  0  0
   -0.3646   -1.5436    3.0729 C   0  0  0  0  0  0  0  0  0  0  0  0
   -5.3901   -3.5318    4.9233 C   0  0  0  0  0  0  0  0  0  0  0  0
    0.1289   -2.2049    1.7959 C   0  0  0  0  0  0  0  0  0  0  0  0
   -5.8611   -4.0690    3.5584 C   0  0  0  0  0  0  0  0  0  0  0  0
    1.3080   -0.7261    0.3102 C   0  0  0  0  0  0  0  0  0  0  0  0
   -1.1203   -0.8108    0.0801 C   0  0  0  0  0  0  0  0  0  0  0  0
    1.4161    0.6580    0.0579 C   0  0  0  0  0  0  0  0  0  0  0  0
   -1.2847    0.5864   -0.1134 C   0  0  0  0  0  0  0  0  0  0  0  0
    2.4045   -1.5575    0.0623 C   0  0  0  0  0  0  0  0  0  0  0  0
   -2.2015   -1.6424   -0.2299 C   0  0  0  0  0  0  0  0  0  0  0  0
    3.5686   -1.0580   -0.4738 C   0  0  0  0  0  0  0  0  0  0  0  0
    2.5878    1.1692   -0.4561 C   0  0  0  0  0  0  0  0  0  0  0  0
   -2.5101    1.1155   -0.5387 C   0  0  0  0  0  0  0  0  0  0  0  0
    3.6624    0.3207   -0.7445 C   0  0  0  0  0  0  0  0  0  0  0  0
   -3.4303   -1.1081   -0.6390 C   0  0  0  0  0  0  0  0  0  0  0  0
   -3.5825    0.2679   -0.7951 C   0  0  0  0  0  0  0  0  0  0  0  0
    4.6781   -2.0168   -0.7939 C   0  0  0  0  0  0  0  0  0  0  0  0
  1 20  1  0
  1 21  1  0
  2 30  1  0
  3 30  1  0
  4 30  1  0
  5 17  1  0
  6  9  1  0
  6 10  1  0
  6 13  1  0
  7 11  1  0
  7 12  1  0
  7 15  1  0
  8 16  1  0
  8 18  1  0
  8 19  1  0
  9 11  1  0
 10 12  1  0
 13 14  1  0
 14 16  1  0
 15 17  1  0
 18 20  2  0
 18 22  1  0
 19 21  2  0
 19 23  1  0
 20 25  1  0
 21 26  1  0
 22 24  2  0
 23 28  2  0
 24 27  1  0
 24 30  1  0
 25 27  2  0
 26 29  2  0
 28 29  1  0
M  END
>  <DRUGBANK_ID>  (1) 
DB00623

>  <SECONDARY_ACCESSION_NUMBERS>  (1) 
APRD00633

>  <COMMON_NAME>  (1) 
Fluphenazine

>  <CAS_NUMBER>  (1) 
69-23-8

>  <UNII>  (1) 
S79426A41Z

>  <SYNONYMS>  (1) 
1-(2-hydroxyethyl)-4-(3-(trifluoromethyl-10-phenothiazinyl)propyl)-piperazine; 10-(3-(2-hydroxyethyl)piperazinopropyl)-2-(trifluoromethyl)phenothiazine; 10-(3'-(4''-(β-hydroxyethyl)-1''-piperazinyl)-propyl)-3-trifluoromethylphenothiazine; 2-(4-(3-[2-(trifluoromethyl)-10H-phenothiazin-10-yl]propyl)-1-piperazinyl)ethanol; 2-(trifluoromethyl)-10-(3-(1-(β-hydroxyethyl)-4-piperazinyl)propyl)phenothiazine; 4-(3-(-trifluoromethyl-10-phenothiazyl)-propyl)-1-piperazineethanol; 4-(3-(2-(trifluoromethyl)-10H-phenothiazin-10-yl)propyl)-1-piperazineethanol; 4-(3-(2-trifluoromethyl-10-phenothiazyl)-propyl)-1-piperazineethanol; Flufenazina; Fluorfenazine; Fluorophenazine; Fluorphenazine; Fluphenazin; Fluphénazine; Fluphenazine; Fluphenazinum; Triflumethazine

$$$$
