
     RDKit          3D

 28 31  0  0  1  0  0  0  0  0999 V2000
   -0.6270    0.2456   -7.0218 C   0  0  0  0  0  0  0  0  0  0  0  0
   -1.8024    0.8150   -6.3753 N   0  0  0  0  0  0  0  0  0  0  0  0
   -1.6856    1.0657   -4.9415 C   0  0  0  0  0  0  0  0  0  0  0  0
   -2.9906    0.9041   -7.1342 C   0  0  0  0  0  0  0  0  0  0  0  0
   -3.0373    0.5418   -8.3155 O   0  0  0  0  0  0  0  0  0  0  0  0
   -4.2328    1.5138   -6.5520 C   0  0  0  0  0  0  0  0  0  0  0  0
   -4.0975    2.6252   -5.7252 C   0  0  0  0  0  0  0  0  0  0  0  0
   -5.1369    3.4097   -5.2248 C   0  0  0  0  0  0  0  0  0  0  0  0
   -4.9724    4.5606   -4.4837 O   0  0  0  0  0  0  0  0  0  0  0  0
   -3.6071    4.9937   -4.2716 C   0  0  1  0  0  0  0  0  0  0  0  0
   -2.9694    5.3943   -5.6146 C   0  0  0  0  0  0  0  0  0  0  0  0
   -1.5906    5.9296   -5.3445 C   0  0  0  0  0  0  0  0  0  0  0  0
   -1.6858    7.1940   -4.7031 O   0  0  0  0  0  0  0  0  0  0  0  0
   -2.5445    7.2127   -3.6325 C   0  0  0  0  0  0  0  0  0  0  0  0
   -2.4267    8.3345   -2.8138 C   0  0  0  0  0  0  0  0  0  0  0  0
   -3.2036    8.4234   -1.6696 C   0  0  0  0  0  0  0  0  0  0  0  0
   -3.0770    9.4903   -0.8704 F   0  0  0  0  0  0  0  0  0  0  0  0
   -4.0923    7.4129   -1.3310 C   0  0  0  0  0  0  0  0  0  0  0  0
   -4.2237    6.3095   -2.1722 C   0  0  0  0  0  0  0  0  0  0  0  0
   -5.0594    5.3277   -1.8077 F   0  0  0  0  0  0  0  0  0  0  0  0
   -3.4860    6.2003   -3.3540 C   0  0  0  0  0  0  0  0  0  0  0  0
   -6.3944    2.9695   -5.6076 C   0  0  0  0  0  0  0  0  0  0  0  0
   -7.6448    3.4648   -5.3533 N   0  0  0  0  0  0  0  0  0  0  0  0
   -8.5593    2.6450   -5.9605 C   0  0  0  0  0  0  0  0  0  0  0  0
  -10.0149    2.8845   -5.8464 C   0  0  0  0  0  0  0  0  0  0  0  0
   -7.9610    1.6707   -6.6163 N   0  0  0  0  0  0  0  0  0  0  0  0
   -6.6127    1.8553   -6.4187 C   0  0  0  0  0  0  0  0  0  0  0  0
   -5.5193    1.1132   -6.9171 C   0  0  0  0  0  0  0  0  0  0  0  0
  1  2  1  0
  2  3  1  0
  2  4  1  0
  4  5  2  0
  4  6  1  0
  6  7  2  0
  6 28  1  0
  7  8  1  0
  8  9  1  0
  8 22  2  0
 10 11  1  0
 10 21  1  0
 10  9  1  6
 11 12  1  0
 12 13  1  0
 13 14  1  0
 14 15  2  0
 14 21  1  0
 15 16  1  0
 16 17  1  0
 16 18  2  0
 18 19  1  0
 19 20  1  0
 19 21  2  0
 22 23  1  0
 22 27  1  0
 23 24  1  0
 24 25  1  0
 24 26  2  0
 26 27  1  0
 27 28  2  0
M  END
>  <DRUGBANK_ID>  (1) 
DB16690

>  <COMMON_NAME>  (1) 
Tegoprazan

>  <CAS_NUMBER>  (1) 
942195-55-3

>  <UNII>  (1) 
W017G7IF4S

>  <SYNONYMS>  (1) 
CJ-12420; IN-A001; K-CAB; LXI-15028; RQ-00000004; Tegoprazan

$$$$
