ISF
     RDKit          3D

 19 20  0  0  0  0  0  0  0  0999 V2000
  -15.5133    2.4379    0.5492 S   0  0  0  0  0  0  0  0  0  0  0  0
  -14.0707    1.5088    0.4193 C   0  0  0  0  0  0  0  0  0  0  0  0
  -12.9651    2.3348    0.3032 C   0  0  0  0  0  0  0  0  0  0  0  0
  -13.3005    3.7192    0.3425 C   0  0  0  0  0  0  0  0  0  0  0  0
  -14.6535    3.8951    0.4681 C   0  0  0  0  0  0  0  0  0  0  0  0
  -15.5476    5.7428    0.5458 I   0  0  0  0  0  0  0  0  0  0  0  0
  -14.1460    0.0547    0.4218 C   0  0  0  0  0  0  0  0  0  0  0  0
  -15.1872   -0.6010    0.4571 O   0  0  0  0  0  0  0  0  0  0  0  0
  -12.8849   -0.7238    0.3678 C   0  0  0  0  0  0  0  0  0  0  0  0
  -11.9063   -0.5760    1.3557 C   0  0  0  0  0  0  0  0  0  0  0  0
  -10.7476   -1.3560    1.3106 C   0  0  0  0  0  0  0  0  0  0  0  0
  -10.5551   -2.2958    0.2818 C   0  0  0  0  0  0  0  0  0  0  0  0
  -11.5986   -2.4948   -0.6363 C   0  0  0  0  0  0  0  0  0  0  0  0
  -12.7254   -1.6766   -0.6365 C   0  0  0  0  0  0  0  0  0  0  0  0
   -9.2213   -3.0315    0.1421 C   0  0  2  0  0  0  0  0  0  0  0  0
   -8.0319   -2.0547    0.1641 C   0  0  0  0  0  0  0  0  0  0  0  0
   -9.1172   -3.8873   -1.1127 C   0  0  0  0  0  0  0  0  0  0  0  0
   -9.0297   -5.1097   -1.1491 O   0  0  0  0  0  0  0  0  0  0  0  0
   -9.1893   -3.1784   -2.2613 O   0  0  0  0  0  0  0  0  0  0  0  0
  1  2  1  0
  1  5  1  0
  2  3  2  0
  2  7  1  0
  3  4  1  0
  4  5  2  0
  5  6  1  0
  7  8  2  0
  7  9  1  0
  9 10  2  0
  9 14  1  0
 10 11  1  0
 11 12  2  0
 12 13  1  0
 13 14  2  0
 15 17  1  0
 15 16  1  6
 15 12  1  0
 17 18  2  0
 17 19  1  0
M  END
>  <DRUGBANK_ID>  (1) 
DB03752

>  <SECONDARY_ACCESSION_NUMBERS>  (1) 
EXPT01934

>  <COMMON_NAME>  (1) 
P-(2'-Iodo-5'-Thenoyl)Hydrotropic Acid

$$$$
