
     RDKit          3D

 12 12  0  0  1  0  0  0  0  0999 V2000
   -1.3861   -0.4257    0.0630 C   0  0  0  0  0  0  0  0  0  0  0  0
   -0.8649   -2.8466    0.0074 C   0  0  0  0  0  0  0  0  0  0  0  0
   -0.4622   -1.4003    0.0284 C   0  0  0  0  0  0  0  0  0  0  0  0
   -1.0889    1.0278    0.0520 C   0  0  1  0  0  0  0  0  0  0  0  0
    1.0041   -1.1311   -0.0429 C   0  0  2  0  0  0  0  0  0  0  0  0
    0.4124    1.4349    0.1259 C   0  0  1  0  0  0  0  0  0  0  0  0
    1.4845    0.3309    0.0848 C   0  0  1  0  0  0  0  0  0  0  0  0
   -1.6716    1.5727   -1.1909 N   0  0  0  0  0  0  0  0  0  0  0  0
   -1.6404   -3.1290    1.1631 O   0  0  0  0  0  0  0  0  0  0  0  0
    1.4481   -1.6644   -1.2942 O   0  0  0  0  0  0  0  0  0  0  0  0
    0.6827    2.2862   -1.0224 O   0  0  0  0  0  0  0  0  0  0  0  0
    2.3659    0.4991    1.2164 O   0  0  0  0  0  0  0  0  0  0  0  0
  3  1  2  0
  3  2  1  0
  4  1  1  0
  4  8  1  6
  5  3  1  0
  5 10  1  6
  6  4  1  0
  6 11  1  6
  7  5  1  0
  7  6  1  0
  7 12  1  1
  9  2  1  0
M  END
>  <DRUGBANK_ID>  (1) 
DB02120

>  <SECONDARY_ACCESSION_NUMBERS>  (1) 
EXPT00413

>  <COMMON_NAME>  (1) 
6-Amino-4-Hydroxymethyl-Cyclohex-4-Ene-1,2,3-Triol

>  <CAS_NUMBER>  (1) 
38231-86-6

$$$$
