
     RDKit          3D

 10  9  0  0  1  0  0  0  0  0999 V2000
   -2.7611   -0.0649   -1.9660 C   0  0  0  0  0  0  0  0  0  0  0  0
   -1.3867   -0.0003   -1.4882 N   0  0  0  0  0  0  0  0  0  0  0  0
   -0.9335   -1.2148   -0.7942 C   0  0  2  0  0  0  0  0  0  0  0  0
    0.6005   -1.1920   -0.7273 C   0  0  0  0  0  0  0  0  0  0  0  0
   -1.4052   -2.5165   -1.4719 C   0  0  0  0  0  0  0  0  0  0  0  0
   -0.8867   -3.7848   -0.8053 C   0  0  0  0  0  0  0  0  0  0  0  0
   -1.4051   -3.9030    0.5990 C   0  0  0  0  0  0  0  0  0  0  0  0
   -2.2181   -4.8875    1.0296 C   0  0  0  0  0  0  0  0  0  0  0  0
   -2.7285   -4.9135    2.4383 C   0  0  0  0  0  0  0  0  0  0  0  0
   -2.6401   -5.9974    0.1156 C   0  0  0  0  0  0  0  0  0  0  0  0
  1  2  1  0
  3  5  1  0
  3  4  1  6
  3  2  1  0
  5  6  1  0
  6  7  1  0
  7  8  2  3
  8  9  1  0
  8 10  1  0
M  END
>  <DRUGBANK_ID>  (1) 
DB16136

>  <COMMON_NAME>  (1) 
Dexisometheptene mucate

>  <CAS_NUMBER>  (1) 
1620401-56-0

>  <UNII>  (1) 
GOO8ZCK7RT

>  <SYNONYMS>  (1) 
(R)-isometheptene; Dexisometheptene; Isometheptene, (r)-

$$$$
