
     RDKit          3D

 29 32  0  0  0  0  0  0  0  0999 V2000
    1.0003   -1.5119   -0.4604 C   0  0  0  0  0  0  0  0  0  0  0  0
    0.3523   -2.6879   -1.1960 C   0  0  0  0  0  0  0  0  0  0  0  0
   -0.8134   -2.3068   -2.3537 C   0  0  0  0  0  0  0  0  0  0  0  0
   -1.5346   -1.1625   -2.1123 C   0  0  0  0  0  0  0  0  0  0  0  0
   -1.1915   -0.7107   -0.7718 C   0  0  1  0  0  0  0  0  0  0  0  0
    0.3115   -0.5092   -0.9655 C   0  0  0  0  0  0  0  0  0  0  0  0
   -2.5020   -0.2263   -2.7907 C   0  0  2  0  0  0  0  0  0  0  0  0
   -3.3562    0.7586   -1.7856 C   0  0  0  0  0  0  0  0  0  0  0  0
   -2.3666    1.6931   -0.7714 C   0  0  2  0  0  0  0  0  0  0  0  0
   -1.6824    0.5184   -0.0370 C   0  0  2  0  0  0  0  0  0  0  0  0
   -2.9228    3.0640    0.4159 C   0  0  1  0  0  0  0  0  0  0  0  0
   -2.2098    2.4778    1.5192 C   0  0  2  0  0  0  0  0  0  0  0  0
   -1.4118    1.4162    2.1589 C   0  0  0  0  0  0  0  0  0  0  0  0
   -0.6609    0.7246    1.1145 C   0  0  2  0  0  0  0  0  0  0  0  0
   -2.2871    4.2359    2.0005 C   0  0  0  0  0  0  0  0  0  0  0  0
   -2.7793    3.7079    3.3932 C   0  0  2  0  0  0  0  0  0  0  0  0
   -3.6158    2.9411    2.5073 C   0  0  1  0  0  0  0  0  0  0  0  0
    0.5062   -3.8172   -0.7492 O   0  0  0  0  0  0  0  0  0  0  0  0
   -1.8790   -1.9181    0.1310 C   0  0  0  0  0  0  0  0  0  0  0  0
    0.5706    1.3935    0.8904 O   0  0  0  0  0  0  0  0  0  0  0  0
   -1.0125    3.5122    0.4225 C   0  0  0  0  0  0  0  0  0  0  0  0
   -2.8253    0.0525    0.5871 F   0  0  0  0  0  0  0  0  0  0  0  0
   -3.3348   -0.9219   -3.6056 F   0  0  0  0  0  0  0  0  0  0  0  0
   -4.6160    3.9424    1.9603 O   0  0  0  0  0  0  0  0  0  0  0  0
   -3.4604    4.5822    4.4183 C   0  0  0  0  0  0  0  0  0  0  0  0
   -4.5724    1.9604    3.1620 C   0  0  0  0  0  0  0  0  0  0  0  0
   -4.5034    0.5293    2.7688 C   0  0  0  0  0  0  0  0  0  0  0  0
   -5.4271    2.3277    3.9802 O   0  0  0  0  0  0  0  0  0  0  0  0
   -4.0119   -0.3010    3.7952 O   0  0  0  0  0  0  0  0  0  0  0  0
  1  2  1  0
  1  6  2  0
  2  3  1  0
  2 18  2  0
  3  4  2  0
  4  5  1  0
  4  7  1  0
  5  6  1  0
  5 10  1  0
  5 19  1  1
  7  8  1  0
  7 23  1  1
  9  8  1  1
  9 10  1  0
  9 11  1  0
 10 14  1  0
 10 22  1  1
 11 12  1  0
 11 15  1  6
 12 13  1  0
 12 17  1  0
 12 21  1  1
 13 14  1  0
 14 20  1  6
 15 16  1  0
 16 17  1  0
 16 25  1  1
 17 24  1  6
 17 26  1  0
 26 27  1  0
 26 28  2  0
 27 29  1  0
M  END
>  <DRUGBANK_ID>  (1) 
DB00663

>  <SECONDARY_ACCESSION_NUMBERS>  (1) 
APRD00975

>  <COMMON_NAME>  (1) 
Flumethasone

>  <CAS_NUMBER>  (1) 
2135-17-3

>  <UNII>  (1) 
LR3CD8SX89

>  <SYNONYMS>  (1) 
6alpha,9-Difluoro-11beta,17,21-trihydroxy-16alpha-methylpregna-1,4-diene-3,20-dione; Flumetasona; Flum√©tasone; Flumetasone; Flumetasonum; Flumethasone

$$$$
