
     RDKit          3D

 12 12  0  0  0  0  0  0  0  0999 V2000
    0.6781    0.1498   -0.0159 C   0  0  0  0  0  0  0  0  0  0  0  0
    0.4942    0.2697   -1.5089 C   0  0  0  0  0  0  0  0  0  0  0  0
    4.2745    0.6842    0.4019 C   0  0  0  0  0  0  0  0  0  0  0  0
    3.5368   -0.2537   -0.3136 C   0  0  0  0  0  0  0  0  0  0  0  0
    5.2713    1.3898   -0.2493 C   0  0  0  0  0  0  0  0  0  0  0  0
    4.5789    0.4194   -2.3499 C   0  0  0  0  0  0  0  0  0  0  0  0
    3.5253   -0.2335   -1.7035 C   0  0  0  0  0  0  0  0  0  0  0  0
    5.5129    1.1616   -1.6072 C   0  0  0  0  0  0  0  0  0  0  0  0
    2.4949   -0.9840   -2.4653 C   0  0  0  0  0  0  0  0  0  0  0  0
    6.5448    1.8575   -2.2398 N   0  0  0  0  0  0  0  0  0  0  0  0
    2.8765   -1.7923   -3.3208 O   0  0  0  0  0  0  0  0  0  0  0  0
    1.1659   -0.8075   -2.2280 O   0  0  0  0  0  0  0  0  0  0  0  0
  2  1  1  0
  4  3  2  0
  5  3  1  0
  7  4  1  0
  7  6  2  0
  8  5  2  0
  8  6  1  0
  9  7  1  0
 10  8  1  0
 11  9  2  0
 12  2  1  0
 12  9  1  0
M  END
>  <DRUGBANK_ID>  (1) 
DB11552

>  <COMMON_NAME>  (1) 
Tricaine

>  <CAS_NUMBER>  (1) 
582-33-2

>  <UNII>  (1) 
02591PHL19

>  <SYNONYMS>  (1) 
Tricaine mesylate

$$$$
