
     RDKit          3D

 23 25  0  0  0  0  0  0  0  0999 V2000
    0.8738   -0.0282    0.0139 C   0  0  0  0  0  0  0  0  0  0  0  0
    1.3885   -4.9783    0.7781 C   0  0  0  0  0  0  0  0  0  0  0  0
    2.4054   -4.0239    0.5665 C   0  0  0  0  0  0  0  0  0  0  0  0
   -0.1672   -3.2002    1.1069 C   0  0  0  0  0  0  0  0  0  0  0  0
   -3.6208   -9.8629    1.6597 C   0  0  0  0  0  0  0  0  0  0  0  0
   -1.3657   -9.0372    2.0783 C   0  0  0  0  0  0  0  0  0  0  0  0
    0.0632   -4.5913    1.0423 C   0  0  0  0  0  0  0  0  0  0  0  0
   -2.3670   -9.9944    2.2624 C   0  0  0  0  0  0  0  0  0  0  0  0
    2.1209   -2.6583    0.6106 C   0  0  0  0  0  0  0  0  0  0  0  0
   -3.8913   -8.7130    0.9134 C   0  0  0  0  0  0  0  0  0  0  0  0
    0.8248   -2.2372    0.8706 C   0  0  0  0  0  0  0  0  0  0  0  0
   -1.6393   -7.8943    1.3339 C   0  0  0  0  0  0  0  0  0  0  0  0
   -2.9184   -7.7079    0.8135 C   0  0  0  0  0  0  0  0  0  0  0  0
   -3.2163   -6.3409    0.3571 C   0  0  0  0  0  0  0  0  0  0  0  0
   -2.3528   -5.2807    0.9718 C   0  0  0  0  0  0  0  0  0  0  0  0
   -1.0493   -5.6060    1.0877 C   0  0  0  0  0  0  0  0  0  0  0  0
   -2.0669  -11.0515    3.0733 O   0  0  0  0  0  0  0  0  0  0  0  0
    3.1164   -1.7404    0.4435 O   0  0  0  0  0  0  0  0  0  0  0  0
   -5.1174   -8.5438    0.3361 O   0  0  0  0  0  0  0  0  0  0  0  0
   -4.0744   -6.0592   -0.4560 O   0  0  0  0  0  0  0  0  0  0  0  0
   -2.8732   -4.0228    1.1954 O   0  0  0  0  0  0  0  0  0  0  0  0
    0.4102   -0.9374    1.0074 O   0  0  0  0  0  0  0  0  0  0  0  0
   -0.6429   -6.9517    1.1452 O   0  0  0  0  0  0  0  0  0  0  0  0
  3  2  2  0
  7  2  1  0
  7  4  2  0
  8  5  2  0
  8  6  1  0
  9  3  1  0
 10  5  1  0
 11  4  1  0
 11  9  2  0
 12  6  2  0
 13 10  2  0
 13 12  1  0
 14 13  1  0
 15 14  1  0
 16  7  1  0
 16 15  2  0
 17  8  1  0
 18  9  1  0
 19 10  1  0
 20 14  2  0
 21 15  1  0
 22  1  1  0
 22 11  1  0
 23 12  1  0
 23 16  1  0
M  END
>  <DRUGBANK_ID>  (1) 
DB16767

>  <COMMON_NAME>  (1) 
Isorhamnetin

>  <CAS_NUMBER>  (1) 
480-19-3

>  <UNII>  (1) 
07X3IB4R4Z

>  <SYNONYMS>  (1) 
3-Methylquercetin; 3-Methylquercetine; 3'-Methoxy-3,4',5,7-tetrahydroxyflavone; 3'-Methoxyquercetin; 3'-Methylquercetin; 3'-O-Methylquercetin; Isorhamnetol; Quercetin 3'-methyl ether

$$$$
