
     RDKit          3D

 34 36  0  0  1  0  0  0  0  0999 V2000
   10.5046    2.3557    0.9215 C   0  0  0  0  0  0  0  0  0  0  0  0
   10.5397    1.0827    1.7717 C   0  0  2  0  0  0  0  0  0  0  0  0
   11.8981    0.3829    1.4982 C   0  0  0  0  0  0  0  0  0  0  0  0
   11.8697   -0.1853    0.1450 N   0  0  0  0  0  0  0  0  0  0  0  0
   10.7917   -1.1637   -0.0610 C   0  0  0  0  0  0  0  0  0  0  0  0
    9.4043   -0.5863    0.2723 C   0  0  0  0  0  0  0  0  0  0  0  0
    9.3523    0.1419    1.5879 N   0  0  0  0  0  0  0  0  0  0  0  0
    7.7581    0.7620    1.8169 S   0  0  0  0  0  0  0  0  0  0  0  0
    7.5228    1.8598    0.9130 O   0  0  0  0  0  0  0  0  0  0  0  0
    6.8576   -0.3813    1.7908 O   0  0  0  0  0  0  0  0  0  0  0  0
    7.7360    1.4333    3.4566 C   0  0  0  0  0  0  0  0  0  0  0  0
    8.5669    2.5020    3.7860 C   0  0  0  0  0  0  0  0  0  0  0  0
    8.4835    3.1007    5.0276 C   0  0  0  0  0  0  0  0  0  0  0  0
    7.4521    2.7453    5.8768 C   0  0  0  0  0  0  0  0  0  0  0  0
    6.4787    1.8112    5.4838 C   0  0  0  0  0  0  0  0  0  0  0  0
    6.7336    1.0408    4.3365 C   0  0  0  0  0  0  0  0  0  0  0  0
    5.1465    1.7250    6.2338 C   0  0  2  0  0  0  0  0  0  0  0  0
    3.9814    1.2802    5.3191 C   0  0  0  0  0  0  0  0  0  0  0  0
    4.7068    3.1111    6.8330 C   0  0  0  0  0  0  0  0  0  0  0  0
    3.5003    3.0382    7.4406 F   0  0  0  0  0  0  0  0  0  0  0  0
    5.5743    3.5630    7.7725 F   0  0  0  0  0  0  0  0  0  0  0  0
    4.6175    4.0651    5.8739 F   0  0  0  0  0  0  0  0  0  0  0  0
    5.3334    0.7294    7.2554 O   0  0  0  0  0  0  0  0  0  0  0  0
   12.7789    0.1664   -0.8317 C   0  0  0  0  0  0  0  0  0  0  0  0
   14.1516   -0.0605   -0.5847 C   0  0  0  0  0  0  0  0  0  0  0  0
   15.1417    0.2198   -1.5368 C   0  0  0  0  0  0  0  0  0  0  0  0
   14.7778    0.7285   -2.7680 C   0  0  0  0  0  0  0  0  0  0  0  0
   13.4479    0.9574   -3.0565 C   0  0  0  0  0  0  0  0  0  0  0  0
   12.4429    0.7380   -2.0835 C   0  0  0  0  0  0  0  0  0  0  0  0
   11.1072    1.3191   -2.4800 C   0  0  0  0  0  0  0  0  0  0  0  0
   11.1945    2.6656   -2.7008 F   0  0  0  0  0  0  0  0  0  0  0  0
   10.6226    0.7853   -3.6351 F   0  0  0  0  0  0  0  0  0  0  0  0
   10.1039    1.1920   -1.5969 F   0  0  0  0  0  0  0  0  0  0  0  0
   15.7121    1.0407   -3.6742 F   0  0  0  0  0  0  0  0  0  0  0  0
  2  1  1  6
  2  3  1  0
  2  7  1  0
  3  4  1  0
  4  5  1  0
  4 24  1  0
  5  6  1  0
  6  7  1  0
  7  8  1  0
  8  9  2  0
  8 10  2  0
  8 11  1  0
 11 12  2  0
 11 16  1  0
 12 13  1  0
 13 14  2  0
 14 15  1  0
 15 16  2  0
 17 19  1  0
 17 23  1  0
 17 18  1  6
 17 15  1  0
 19 20  1  0
 19 21  1  0
 19 22  1  0
 24 25  2  0
 24 29  1  0
 25 26  1  0
 26 27  2  0
 27 28  1  0
 27 34  1  0
 28 29  2  0
 29 30  1  0
 30 31  1  0
 30 32  1  0
 30 33  1  0
M  END
>  <DRUGBANK_ID>  (1) 
DB12419

>  <COMMON_NAME>  (1) 
HSD-016

>  <CAS_NUMBER>  (1) 
946396-92-5

>  <UNII>  (1) 
C4I13768E1

$$$$
