
     RDKit          3D

 29 31  0  0  1  0  0  0  0  0999 V2000
    1.9061    3.2569    0.7436 C   0  0  0  0  0  0  0  0  0  0  0  0
    1.5473    6.1218    0.0152 C   0  0  0  0  0  0  0  0  0  0  0  0
    1.2691    5.2316   -2.4484 C   0  0  0  0  0  0  0  0  0  0  0  0
    1.2577    3.7787   -2.9565 C   0  0  0  0  0  0  0  0  0  0  0  0
    1.7109    4.2194    1.8769 C   0  0  0  0  0  0  0  0  0  0  0  0
    1.0659    7.3669   -0.1380 C   0  0  0  0  0  0  0  0  0  0  0  0
    2.0221    5.5814    1.3347 C   0  0  0  0  0  0  0  0  0  0  0  0
    1.0904    8.3446    0.9397 C   0  0  0  0  0  0  0  0  0  0  0  0
    2.1759    8.7325    1.6503 C   0  0  0  0  0  0  0  0  0  0  0  0
    3.5801    8.2939    1.4264 C   0  0  0  0  0  0  0  0  0  0  0  0
    2.0464    9.7455    2.7589 C   0  0  0  0  0  0  0  0  0  0  0  0
    4.6003    9.3706    1.2280 C   0  0  0  0  0  0  0  0  0  0  0  0
    4.1617    7.1652    1.8012 C   0  0  0  0  0  0  0  0  0  0  0  0
    3.1069   10.8440    2.6117 C   0  0  2  0  0  0  0  0  0  0  0  0
    4.5122   10.2556    2.4686 C   0  0  0  0  0  0  0  0  0  0  0  0
    3.0694   11.7099    3.7406 O   0  0  0  0  0  0  0  0  0  0  0  0
   -0.0681    1.0845   -0.4071 C   0  0  0  0  0  0  0  0  0  0  0  0
    0.5634    1.5633   -1.7251 C   0  0  2  0  0  0  0  0  0  0  0  0
    1.4164    0.3611   -2.1759 C   0  0  0  0  0  0  0  0  0  0  0  0
    0.5236   -0.8697   -2.3832 C   0  0  0  0  0  0  0  0  0  0  0  0
    0.7985   -1.4725   -5.2546 C   0  0  0  0  0  0  0  0  0  0  0  0
   -1.1948   -0.0159   -5.7638 C   0  0  0  0  0  0  0  0  0  0  0  0
   -0.6029   -0.5928   -3.3935 C   0  0  0  0  0  0  0  0  0  0  0  0
    1.4139    2.8480   -1.7040 C   0  0  2  0  0  0  0  0  0  0  0  0
    1.7880    5.0830   -1.0305 C   0  0  2  0  0  0  0  0  0  0  0  0
    1.1479    3.7673   -0.5146 C   0  0  2  0  0  0  0  0  0  0  0  0
   -0.3505    4.1048   -0.2293 C   0  0  0  0  0  0  0  0  0  0  0  0
   -0.0549   -0.2887   -4.8001 C   0  0  0  0  0  0  0  0  0  0  0  0
    0.7205    0.9097   -4.8087 O   0  0  0  0  0  0  0  0  0  0  0  0
  1  5  1  0
  2  6  2  0
  2  7  1  0
  3  4  1  0
  5  7  1  0
  6  8  1  0
  8  9  2  0
  9 10  1  0
  9 11  1  0
 10 12  1  0
 10 13  2  0
 11 14  1  0
 12 15  1  0
 14 16  1  1
 14 15  1  0
 18 19  1  0
 18 17  1  1
 19 20  1  0
 20 23  1  0
 23 28  1  0
 24  4  1  6
 24 18  1  0
 25 26  1  0
 25  2  1  0
 25  3  1  6
 26 24  1  0
 26  1  1  0
 26 27  1  1
 28 21  1  0
 28 22  1  0
 28 29  1  0
M  END
>  <DRUGBANK_ID>  (1) 
DB00146

>  <SECONDARY_ACCESSION_NUMBERS>  (1) 
NUTR00006; APRD00428

>  <COMMON_NAME>  (1) 
Calcifediol

>  <CAS_NUMBER>  (1) 
19356-17-3

>  <UNII>  (1) 
T0WXW8F54E

>  <SYNONYMS>  (1) 
(3S,5Z,7E)-9,10-secocholesta-5,7,10-triene-3,25-diol; (3β,5Z,7E)-9,10-secocholesta-5,7,10(19)-triene-3,25-diol; (5Z,7E)-(3S)-9,10-secocholesta-5,7,10(19)-triene-3,25-diol; 25-hydroxycholecalciferol; 25-Hydroxyvitamin D3; Calcidiol; Calcifédiol; Calcifediol; Calcifediol anhydrous; Calcifediolum

$$$$
