NS7
     RDKit          3D

 28 31  0  0  0  0  0  0  0  0999 V2000
    1.2415   -0.1508    0.1841 C   0  0  0  0  0  0  0  0  0  0  0  0
    0.2993   -1.2673   -0.2055 C   0  0  0  0  0  0  0  0  0  0  0  0
   -1.1030   -0.7074    0.0168 C   0  0  0  0  0  0  0  0  0  0  0  0
   -0.9697    0.8099    0.0892 C   0  0  0  0  0  0  0  0  0  0  0  0
    0.4895    1.1068   -0.2620 C   0  0  0  0  0  0  0  0  0  0  0  0
    1.0237    2.4005    0.3497 C   0  0  1  0  0  0  0  0  0  0  0  0
    0.9455    2.3663    1.8766 C   0  0  0  0  0  0  0  0  0  0  0  0
    2.4335    2.5624   -0.0863 N   0  0  0  0  0  0  0  0  0  0  0  0
    3.1007    4.0631    0.2942 S   0  0  0  0  0  0  0  0  0  0  0  0
    4.5254    3.9402    0.1797 O   0  0  0  0  0  0  0  0  0  0  0  0
    2.3371    5.0607   -0.4359 O   0  0  0  0  0  0  0  0  0  0  0  0
    2.6762    4.2415    1.9858 C   0  0  0  0  0  0  0  0  0  0  0  0
    3.3626    5.2104    2.7063 C   0  0  0  0  0  0  0  0  0  0  0  0
    1.7041    3.4388    2.5795 C   0  0  0  0  0  0  0  0  0  0  0  0
    1.4907    3.5445    3.9444 C   0  0  0  0  0  0  0  0  0  0  0  0
    2.2495    4.4261    4.7144 C   0  0  0  0  0  0  0  0  0  0  0  0
    1.9626    4.3277    6.1786 C   0  0  0  0  0  0  0  0  0  0  0  0
    3.1085    5.3552    4.0691 C   0  0  0  0  0  0  0  0  0  0  0  0
    3.9925    6.6911    4.8961 S   0  0  0  0  0  0  0  0  0  0  0  0
    4.6485    6.0729    6.0295 O   0  0  0  0  0  0  0  0  0  0  0  0
    4.7805    7.3729    3.8884 O   0  0  0  0  0  0  0  0  0  0  0  0
    2.8458    7.8085    5.4665 N   0  0  0  0  0  0  0  0  0  0  0  0
    1.8745    7.3840    6.4886 C   0  0  0  0  0  0  0  0  0  0  0  0
    0.5894    6.8964    5.7848 C   0  0  0  0  0  0  0  0  0  0  0  0
   -0.0795    7.9587    5.0320 N   0  0  0  0  0  0  0  0  0  0  0  0
   -1.2934    7.4070    4.4237 C   0  0  0  0  0  0  0  0  0  0  0  0
    0.8803    8.4265    3.9967 C   0  0  0  0  0  0  0  0  0  0  0  0
    2.2330    8.8662    4.6110 C   0  0  0  0  0  0  0  0  0  0  0  0
  1  2  1  0
  1  5  1  0
  2  3  1  0
  3  4  1  0
  5  4  1  0
  6  5  1  6
  7  6  1  0
  8  6  1  0
  9  8  1  0
  9 10  2  0
 11  9  2  0
 12  9  1  0
 12 14  2  0
 13 12  1  0
 14  7  1  0
 15 14  1  0
 16 15  2  0
 17 16  1  0
 18 13  2  0
 18 16  1  0
 19 18  1  0
 19 22  1  0
 20 19  2  0
 21 19  2  0
 22 28  1  0
 23 22  1  0
 23 24  1  0
 24 25  1  0
 25 27  1  0
 26 25  1  0
 28 27  1  0
M  END
>  <DRUGBANK_ID>  (1) 
DB08305

>  <COMMON_NAME>  (1) 
(3R)-3-cyclopentyl-6-methyl-7-[(4-methylpiperazin-1-yl)sulfonyl]-3,4-dihydro-2H-1,2-benzothiazine 1,1-dioxide

$$$$
