
     RDKit          3D

 20 21  0  0  0  0  0  0  0  0999 V2000
    0.8948    0.7633    2.5435 C   0  0  0  0  0  0  0  0  0  0  0  0
   -0.4336    1.2131   -3.2597 C   0  0  0  0  0  0  0  0  0  0  0  0
    0.4742    1.0285    1.1185 C   0  0  0  0  0  0  0  0  0  0  0  0
   -0.2179    1.2474   -1.7686 C   0  0  0  0  0  0  0  0  0  0  0  0
    0.1673    3.7091    2.4630 C   0  0  0  0  0  0  0  0  0  0  0  0
   -2.1168    3.3492    1.7765 C   0  0  0  0  0  0  0  0  0  0  0  0
   -1.1617    4.6086   -1.0106 C   0  0  0  0  0  0  0  0  0  0  0  0
   -2.6145    3.0796   -2.1703 C   0  0  0  0  0  0  0  0  0  0  0  0
   -0.2623    4.5462    3.4934 C   0  0  0  0  0  0  0  0  0  0  0  0
   -2.5414    4.2582    2.7484 C   0  0  0  0  0  0  0  0  0  0  0  0
   -1.9365    5.6836   -1.4499 C   0  0  0  0  0  0  0  0  0  0  0  0
   -3.3281    4.1578   -2.6963 C   0  0  0  0  0  0  0  0  0  0  0  0
   -0.7567    3.0456    1.6305 C   0  0  0  0  0  0  0  0  0  0  0  0
   -1.4861    3.2874   -1.3558 C   0  0  0  0  0  0  0  0  0  0  0  0
   -1.6165    4.8215    3.6189 C   0  0  0  0  0  0  0  0  0  0  0  0
   -2.9926    5.4493   -2.3202 C   0  0  0  0  0  0  0  0  0  0  0  0
   -0.2864    2.0341    0.6234 C   0  0  0  0  0  0  0  0  0  0  0  0
   -0.6508    2.1456   -0.8478 C   0  0  0  0  0  0  0  0  0  0  0  0
   -2.0846    5.6494    4.5949 O   0  0  0  0  0  0  0  0  0  0  0  0
   -3.7325    6.4717   -2.8330 O   0  0  0  0  0  0  0  0  0  0  0  0
  3  1  1  0
  4  2  1  0
  9  5  2  0
 10  6  1  0
 11  7  2  0
 12  8  1  0
 13  5  1  0
 13  6  2  0
 14  7  1  0
 14  8  2  0
 15  9  1  0
 15 10  2  0
 16 11  1  0
 16 12  2  0
 17  3  2  0
 17 13  1  0
 18  4  2  0
 18 14  1  0
 18 17  1  0
 19 15  1  0
 20 16  1  0
M  END
>  <DRUGBANK_ID>  (1) 
DB00890

>  <SECONDARY_ACCESSION_NUMBERS>  (1) 
APRD00917

>  <COMMON_NAME>  (1) 
Dienestrol

>  <CAS_NUMBER>  (1) 
13029-44-2

>  <UNII>  (1) 
RRW32X4U1F

>  <SYNONYMS>  (1) 
4,4'-Hydroxy-γ,δ-diphenyl-β,δ-hexadiene; alpha-dienestrol diacetate; Cycladiene; Dehydrostilbestrol; Dienestrol; Diènestrol; Dienestrolum; p,p'-(Diethylideneethylene)diphenol

$$$$
