
     RDKit          3D

  6  5  0  0  0  0  0  0  0  0999 V2000
    0.9722    0.0787   -0.0666 N   0  0  0  0  0  0  0  0  0  0  0  0
    0.2801   -0.1864   -1.2196 C   0  0  0  0  0  0  0  0  0  0  0  0
   -1.0604   -0.1949   -1.2568 C   0  0  0  0  0  0  0  0  0  0  0  0
    0.9939   -0.4873   -2.5287 C   0  0  0  0  0  0  0  0  0  0  0  0
    2.3561   -0.4778   -2.4872 N   0  0  0  0  0  0  0  0  0  0  0  0
    0.4110   -0.7292   -3.5806 O   0  0  0  0  0  0  0  0  0  0  0  0
  1  2  1  0
  2  3  2  0
  2  4  1  0
  4  5  1  0
  4  6  2  0
M  END
>  <DRUGBANK_ID>  (1) 
DB02002

>  <SECONDARY_ACCESSION_NUMBERS>  (1) 
EXPT02725

>  <COMMON_NAME>  (1) 
2-Aminoprop-2-Enamide

$$$$
