
     RDKit          3D

 25 28  0  0  1  0  0  0  0  0999 V2000
    2.5606   -2.3483    0.9665 C   0  0  1  0  0  0  0  0  0  0  0  0
    4.5937   -2.6419   -0.3029 C   0  0  1  0  0  0  0  0  0  0  0  0
    6.0597   -2.8954   -0.2392 C   0  0  2  0  0  0  0  0  0  0  0  0
    6.5341   -4.1529    0.5452 C   0  0  2  0  0  0  0  0  0  0  0  0
    8.1041   -3.8383    0.2013 C   0  0  1  0  0  0  0  0  0  0  0  0
    4.0568   -2.4420    1.0602 C   0  0  2  0  0  0  0  0  0  0  0  0
    1.4423   -1.6682    0.3193 C   0  0  0  0  0  0  0  0  0  0  0  0
    0.4540   -2.5489    0.9829 C   0  0  0  0  0  0  0  0  0  0  0  0
    1.0811   -3.9897    1.7656 C   0  0  0  0  0  0  0  0  0  0  0  0
    1.2243   -4.1414    2.9521 O   0  0  0  0  0  0  0  0  0  0  0  0
    1.7078   -4.8859    0.7441 C   0  0  0  0  0  0  0  0  0  0  0  0
    2.0659   -3.7413   -0.1048 C   0  0  0  0  0  0  0  0  0  0  0  0
    1.1314   -3.5645   -0.7119 H   0  0  0  0  0  0  0  0  0  0  0  0
    0.9559   -5.5479    0.3331 H   0  0  0  0  0  0  0  0  0  0  0  0
    2.4239   -1.2830   -1.0483 C   0  0  0  0  0  0  0  0  0  0  0  0
    2.0618   -1.8482   -1.9117 H   0  0  0  0  0  0  0  0  0  0  0  0
    4.0822   -1.4719   -1.1262 C   0  0  0  0  0  0  0  0  0  0  0  0
    8.3603   -3.8231   -1.2288 O   0  0  0  0  0  0  0  0  0  0  0  0
    8.2022   -2.4477    0.8247 C   0  0  0  0  0  0  0  0  0  0  0  0
    6.8950   -1.7820    0.4116 C   0  0  0  0  0  0  0  0  0  0  0  0
    5.8663   -5.4529    0.0094 C   0  0  0  0  0  0  0  0  0  0  0  0
    5.9516   -3.9612    2.0343 C   0  0  0  0  0  0  0  0  0  0  0  0
    4.4611   -3.5680    2.0230 C   0  0  0  0  0  0  0  0  0  0  0  0
    4.4088   -1.6413   -2.1665 H   0  0  0  0  0  0  0  0  0  0  0  0
    2.2208   -1.4305    2.3099 C   0  0  0  0  0  0  0  0  0  0  0  0
  1 25  1  1
  2  6  1  0
  3  2  1  0
  4  3  1  0
  4 21  1  6
  5  4  1  0
  5 18  1  6
  6  1  1  0
  7  1  1  0
  8  7  2  0
  9  8  1  0
 10  9  2  0
 11  9  1  0
 11 12  1  0
 12  1  1  0
 13 12  1  0
 14 11  1  0
 15  7  1  0
 16 15  1  0
  2 17  1  6
 17 15  1  0
 19  5  1  0
 19 20  1  0
  3 20  1  1
 22  4  1  0
 22 23  1  0
  6 23  1  1
 24 17  1  0
M  ISO  4  13   3  14   3  16   3  24   3
M  END
>  <DRUGBANK_ID>  (1) 
DB14093

>  <COMMON_NAME>  (1) 
(1,2,6,7-3H)Testosterone

>  <CAS_NUMBER>  (1) 
67308-98-9

>  <UNII>  (1) 
P57HP4MCQZ

>  <SYNONYMS>  (1) 
Testosterone, 1,2,6,7-H-3

$$$$
