1156
     RDKit          3D

 17 18  0  0  1  0  0  0  0  0999 V2000
   -0.3533   -0.1760   -0.2882 C   0  0  0  0  0  0  0  0  0  0  0  0
    0.3425    1.0220   -0.4482 C   0  0  0  0  0  0  0  0  0  0  0  0
    0.3492   -1.3383   -0.1116 C   0  0  0  0  0  0  0  0  0  0  0  0
    1.7670    1.0978   -0.1304 C   0  0  0  0  0  0  0  0  0  0  0  0
    1.7502   -1.3285   -0.0674 C   0  0  0  0  0  0  0  0  0  0  0  0
    2.4567   -0.1099   -0.0599 C   0  0  0  0  0  0  0  0  0  0  0  0
   -2.0705   -0.1344   -0.1308 Cl  0  0  0  0  0  0  0  0  0  0  0  0
    2.5191    2.4163    0.2926 C   0  0  2  0  0  0  0  0  0  0  0  0
    2.7373    3.9217    0.9528 C   0  0  1  0  0  0  0  0  0  0  0  0
    2.4740    5.0592    0.0125 N   0  0  0  0  0  0  0  0  0  0  0  0
    3.3481    4.9564   -1.1724 C   0  0  0  0  0  0  0  0  0  0  0  0
    2.9919    3.6350   -1.8684 C   0  0  0  0  0  0  0  0  0  0  0  0
    3.0625    2.4818   -1.0456 O   0  0  0  0  0  0  0  0  0  0  0  0
    3.0692    6.1225   -2.1447 C   0  0  0  0  0  0  0  0  0  0  0  0
    4.8402    5.0415   -0.7808 C   0  0  0  0  0  0  0  0  0  0  0  0
    1.8867    4.2503    2.2501 C   0  0  0  0  0  0  0  0  0  0  0  0
    1.2356    2.4752    0.9415 O   0  0  0  0  0  0  0  0  0  0  0  0
  1  2  2  0
  1  3  1  0
  1  7  1  0
  2  4  1  0
  3  5  2  0
  4  6  2  0
  4  8  1  0
  5  6  1  0
  8  9  1  0
  8 13  1  0
  8 17  1  1
  9 10  1  0
  9 16  1  1
 10 11  1  0
 11 12  1  0
 11 14  1  0
 11 15  1  0
 12 13  1  0
M  END
>  <DRUGBANK_ID>  (1) 
DB11790

>  <COMMON_NAME>  (1) 
Radafaxine

>  <CAS_NUMBER>  (1) 
192374-14-4

>  <UNII>  (1) 
Q47741214K

>  <SYNONYMS>  (1) 
Radafaxine

$$$$
