
     RDKit          3D

 26 28  0  0  0  0  0  0  0  0999 V2000
    0.7743   -0.3825   -0.1362 O   0  0  0  0  0  0  0  0  0  0  0  0
    5.6400    1.4122   -0.6823 N   0  0  0  0  0  0  0  0  0  0  0  0
    2.9510   -1.2773    0.3089 N   0  0  0  0  0  0  0  0  0  0  0  0
    4.5527   -1.2084    0.3543 C   0  0  0  0  0  0  0  0  0  0  0  0
    5.2326   -0.1898    1.3018 C   0  0  0  0  0  0  0  0  0  0  0  0
    5.2807   -1.1218   -1.0282 C   0  0  0  0  0  0  0  0  0  0  0  0
    5.3293    1.2096    0.7314 C   0  0  0  0  0  0  0  0  0  0  0  0
    5.3842    0.3100   -1.6658 C   0  0  0  0  0  0  0  0  0  0  0  0
    5.2677    2.8303   -1.0505 C   0  0  0  0  0  0  0  0  0  0  0  0
    3.7414    3.3111   -1.0031 C   0  0  0  0  0  0  0  0  0  0  0  0
    2.3502   -2.5136    0.7036 C   0  0  0  0  0  0  0  0  0  0  0  0
    1.9623   -0.4274   -0.3351 C   0  0  0  0  0  0  0  0  0  0  0  0
    2.7999    3.2335    0.3641 C   0  0  0  0  0  0  0  0  0  0  0  0
    3.3882    4.5380   -1.8803 C   0  0  0  0  0  0  0  0  0  0  0  0
    2.5487    0.5832   -1.2179 C   0  0  0  0  0  0  0  0  0  0  0  0
    1.2655   -2.9687   -0.0721 C   0  0  0  0  0  0  0  0  0  0  0  0
    2.7877   -3.2917    1.7677 C   0  0  0  0  0  0  0  0  0  0  0  0
    2.3766    2.0604    1.1381 C   0  0  0  0  0  0  0  0  0  0  0  0
    2.4805    4.3705    1.0438 C   0  0  0  0  0  0  0  0  0  0  0  0
    1.8514    1.2094   -2.3668 C   0  0  0  0  0  0  0  0  0  0  0  0
    0.6111   -4.1481    0.1860 C   0  0  0  0  0  0  0  0  0  0  0  0
    2.1762   -4.5314    1.9825 C   0  0  0  0  0  0  0  0  0  0  0  0
    1.8912    1.8962    2.4160 C   0  0  0  0  0  0  0  0  0  0  0  0
    2.1067    4.2562    2.4137 C   0  0  0  0  0  0  0  0  0  0  0  0
    1.0832   -4.9438    1.2087 C   0  0  0  0  0  0  0  0  0  0  0  0
    1.8416    3.0470    3.1014 C   0  0  0  0  0  0  0  0  0  0  0  0
  1 12  2  0
  2  7  1  0
  2  8  1  0
  2  9  1  0
  3  4  1  0
  3 11  1  0
  3 12  1  0
  4  5  1  0
  4  6  1  0
  5  7  1  0
  6  8  1  0
  9 10  1  0
 10 13  1  0
 10 14  1  0
 11 16  2  0
 11 17  1  0
 12 15  1  0
 13 18  2  0
 13 19  1  0
 15 20  1  0
 16 21  1  0
 17 22  2  0
 18 23  1  0
 19 24  2  0
 21 25  2  0
 22 25  1  0
 23 26  2  0
 24 26  1  0
M  END
>  <DRUGBANK_ID>  (1) 
DB09171

>  <COMMON_NAME>  (1) 
Î²-Methylfentanyl

>  <CAS_NUMBER>  (1) 
79146-56-8

>  <UNII>  (1) 
9658A8O6GK

>  <SYNONYMS>  (1) 
beta-Methylfentanyl; Betamethylfentanyl

$$$$
