459
     RDKit          3D

 20 22  0  0  0  0  0  0  0  0999 V2000
   -1.8851   -2.0600   -0.7307 C   0  0  0  0  0  0  0  0  0  0  0  0
   -0.6204   -1.2096   -0.6630 C   0  0  2  0  0  0  0  0  0  0  0  0
   -0.4966   -0.3921   -1.9157 C   0  0  1  0  0  0  0  0  0  0  0  0
    0.3081    0.8148   -1.3994 C   0  0  1  0  0  0  0  0  0  0  0  0
   -0.5286    1.8282   -0.6548 C   0  0  0  0  0  0  0  0  0  0  0  0
    1.6984    0.6232   -0.8322 C   0  0  0  0  0  0  0  0  0  0  0  0
    1.7943   -0.6068    0.0114 C   0  0  0  0  0  0  0  0  0  0  0  0
    0.7848   -1.7602   -0.3392 C   0  0  1  0  0  0  0  0  0  0  0  0
    0.7124   -2.5176    1.0028 C   0  0  0  0  0  0  0  0  0  0  0  0
    1.7714   -3.4376    1.1543 O   0  0  0  0  0  0  0  0  0  0  0  0
    1.3865   -2.5121   -1.5676 C   0  0  0  0  0  0  0  0  0  0  0  0
    1.1586   -1.9963   -2.8937 O   0  0  0  0  0  0  0  0  0  0  0  0
    0.0678   -1.1118   -3.1807 C   0  0  2  0  0  0  0  0  0  0  0  0
    0.4642    0.1012   -4.1451 C   0  0  0  0  0  0  0  0  0  0  0  0
    1.8058    0.5170   -4.0244 C   0  0  0  0  0  0  0  0  0  0  0  0
    2.0890    1.8819   -3.7782 C   0  0  0  0  0  0  0  0  0  0  0  0
    1.0547    2.8292   -3.7889 C   0  0  0  0  0  0  0  0  0  0  0  0
    1.1944    3.9863   -3.0474 O   0  0  0  0  0  0  0  0  0  0  0  0
   -0.2408    2.4646   -4.1720 C   0  0  0  0  0  0  0  0  0  0  0  0
   -0.5390    1.0954   -4.4013 C   0  0  0  0  0  0  0  0  0  0  0  0
  2  3  1  0
  2  8  1  0
  2  1  1  6
  3  4  1  1
  3 13  1  0
  4  6  1  0
  4  5  1  1
  6  7  1  0
  7  8  1  0
  8 11  1  0
  8  9  1  1
  9 10  1  0
 11 12  1  0
 12 13  1  0
 13 14  1  6
 14 15  2  0
 14 20  1  0
 15 16  1  0
 16 17  2  0
 17 18  1  0
 17 19  1  0
 19 20  2  0
M  END
>  <DRUGBANK_ID>  (1) 
DB07087

>  <COMMON_NAME>  (1) 
4-[(1S,2S,5S,9R)-5-(HYDROXYMETHYL)-8,9-DIMETHYL-3-OXABICYCLO[3.3.1]NON-7-EN-2-YL]PHENOL

$$$$
