
     RDKit          3D

 31 34  0  0  0  0  0  0  0  0999 V2000
    0.6324    2.4460   -1.2998 C   0  0  0  0  0  0  0  0  0  0  0  0
    0.2379    1.7599    0.0283 C   0  0  0  0  0  0  0  0  0  0  0  0
   -1.2765    1.9122    0.2440 C   0  0  0  0  0  0  0  0  0  0  0  0
   -2.1764    0.7770   -0.1713 C   0  0  0  0  0  0  0  0  0  0  0  0
   -1.6546   -0.6608   -0.0230 C   0  0  0  0  0  0  0  0  0  0  0  0
   -0.1376   -0.7791    0.0265 C   0  0  0  0  0  0  0  0  0  0  0  0
    0.7273    0.3195    0.0201 C   0  0  0  0  0  0  0  0  0  0  0  0
    2.1181    0.0767   -0.0194 C   0  0  0  0  0  0  0  0  0  0  0  0
    2.6684   -1.2186   -0.0627 C   0  0  0  0  0  0  0  0  0  0  0  0
    1.7927   -2.3194   -0.1303 C   0  0  0  0  0  0  0  0  0  0  0  0
    0.4217   -2.0732   -0.0030 C   0  0  0  0  0  0  0  0  0  0  0  0
    2.2725   -3.7090   -0.3341 C   0  0  0  0  0  0  0  0  0  0  0  0
    1.6049   -4.8317   -0.0175 C   0  0  0  0  0  0  0  0  0  0  0  0
    2.2478   -6.1505    0.0861 C   0  0  0  0  0  0  0  0  0  0  0  0
    3.3118   -6.4034    0.9671 C   0  0  0  0  0  0  0  0  0  0  0  0
    3.8537   -7.6802    1.1215 C   0  0  0  0  0  0  0  0  0  0  0  0
    3.3062   -8.7443    0.4121 C   0  0  0  0  0  0  0  0  0  0  0  0
    2.1980   -8.5163   -0.4163 C   0  0  0  0  0  0  0  0  0  0  0  0
    1.7006   -7.2223   -0.6112 C   0  0  0  0  0  0  0  0  0  0  0  0
    3.8987  -10.0988    0.4681 C   0  0  0  0  0  0  0  0  0  0  0  0
    3.4918  -11.0752   -0.1497 O   0  0  0  0  0  0  0  0  0  0  0  0
    4.9972  -10.1663    1.2390 O   0  0  0  0  0  0  0  0  0  0  0  0
    4.1814   -1.3332   -0.0444 C   0  0  0  0  0  0  0  0  0  0  0  0
    4.7312   -1.9597    1.1654 N   0  0  0  0  0  0  0  0  0  0  0  0
    4.3631   -3.1270    1.7623 C   0  0  0  0  0  0  0  0  0  0  0  0
    5.3072   -3.4670    2.6836 C   0  0  0  0  0  0  0  0  0  0  0  0
    6.1167   -2.3319    2.7282 C   0  0  0  0  0  0  0  0  0  0  0  0
    5.7995   -1.4195    1.7984 N   0  0  0  0  0  0  0  0  0  0  0  0
   -2.1799   -1.4060   -1.2780 C   0  0  0  0  0  0  0  0  0  0  0  0
   -2.3021   -1.3028    1.2251 C   0  0  0  0  0  0  0  0  0  0  0  0
    0.8720    2.5258    1.2146 C   0  0  0  0  0  0  0  0  0  0  0  0
  1  2  1  0
  2  3  1  0
  2  7  1  0
  2 31  1  0
  3  4  1  0
  4  5  1  0
  5  6  1  0
  5 29  1  0
  5 30  1  0
  6  7  2  0
  6 11  1  0
  7  8  1  0
  8  9  2  0
  9 10  1  0
  9 23  1  0
 10 11  2  0
 10 12  1  0
 12 13  2  0
 13 14  1  0
 14 15  2  0
 14 19  1  0
 15 16  1  0
 16 17  2  0
 17 18  1  0
 17 20  1  0
 18 19  2  0
 20 21  2  0
 20 22  1  0
 23 24  1  0
 24 25  1  0
 24 28  1  0
 25 26  2  0
 26 27  1  0
 27 28  2  0
M  END
>  <DRUGBANK_ID>  (1) 
DB05467

>  <SECONDARY_ACCESSION_NUMBERS>  (1) 
DB12320; DB16749

>  <COMMON_NAME>  (1) 
Palovarotene

>  <CAS_NUMBER>  (1) 
410528-02-8

>  <UNII>  (1) 
28K6I5M16G

>  <SYNONYMS>  (1) 
Palovarotene

$$$$
