NTS
     RDKit          3D

 22 23  0  0  0  0  0  0  0  0999 V2000
    1.2601   -1.4208    0.0084 C   0  0  0  0  0  0  0  0  0  0  0  0
    2.4801   -0.7192   -0.0235 C   0  0  0  0  0  0  0  0  0  0  0  0
    2.4648    0.6757   -0.0188 C   0  0  0  0  0  0  0  0  0  0  0  0
    1.2432    1.3730    0.0141 C   0  0  0  0  0  0  0  0  0  0  0  0
   -1.2348    1.3940    0.0001 C   0  0  0  0  0  0  0  0  0  0  0  0
   -2.4617    0.7111   -0.0092 C   0  0  0  0  0  0  0  0  0  0  0  0
   -2.4771   -0.6774   -0.0035 C   0  0  0  0  0  0  0  0  0  0  0  0
   -1.2672   -1.3815    0.0139 C   0  0  0  0  0  0  0  0  0  0  0  0
   -0.0010   -0.7381    0.0141 C   0  0  0  0  0  0  0  0  0  0  0  0
    0.0019    0.6885    0.0118 C   0  0  0  0  0  0  0  0  0  0  0  0
    0.6602   -3.5976    1.3011 O   0  0  0  0  0  0  0  0  0  0  0  0
    0.6171   -3.6549   -1.1661 O   0  0  0  0  0  0  0  0  0  0  0  0
    2.7576   -3.5828    0.0293 O   0  0  0  0  0  0  0  0  0  0  0  0
    3.8902    2.4157   -1.2976 O   0  0  0  0  0  0  0  0  0  0  0  0
    3.9958    2.3952    1.1638 O   0  0  0  0  0  0  0  0  0  0  0  0
    5.0787    0.6074   -0.1315 O   0  0  0  0  0  0  0  0  0  0  0  0
   -3.9759    2.4147    1.2126 O   0  0  0  0  0  0  0  0  0  0  0  0
   -3.9683    2.4073   -1.2548 O   0  0  0  0  0  0  0  0  0  0  0  0
   -5.0668    0.5885   -0.0190 O   0  0  0  0  0  0  0  0  0  0  0  0
    1.3305   -3.2586    0.0467 S   0  0  0  0  0  0  0  0  0  0  0  0
    4.0275    1.6233   -0.0769 S   0  0  0  0  0  0  0  0  0  0  0  0
   -4.0381    1.6308   -0.0190 S   0  0  0  0  0  0  0  0  0  0  0  0
  1  2  2  0
  1  9  1  0
  1 20  1  0
  2  3  1  0
  3  4  2  0
  3 21  1  0
  4 10  1  0
  5  6  1  0
  5 10  2  0
  6  7  2  0
  6 22  1  0
  7  8  1  0
  8  9  2  0
  9 10  1  0
 11 20  2  0
 12 20  2  0
 13 20  1  0
 14 21  2  0
 15 21  2  0
 16 21  1  0
 17 22  2  0
 18 22  2  0
 19 22  1  0
M  CHG  3  13  -1  16  -1  19  -1
M  END
>  <DRUGBANK_ID>  (1) 
DB04409

>  <SECONDARY_ACCESSION_NUMBERS>  (1) 
EXPT02393

>  <COMMON_NAME>  (1) 
Naphthalene Trisulfonate

$$$$
