1241
     RDKit          3D

 18 18  0  0  0  0  0  0  0  0999 V2000
    1.0578   -0.2083    0.1581 O   0  0  0  0  0  0  0  0  0  0  0  0
    1.3865    1.6933   -2.1017 O   0  0  0  0  0  0  0  0  0  0  0  0
    2.0488    3.6371   -2.8445 O   0  0  0  0  0  0  0  0  0  0  0  0
    2.0893    3.6601   -0.1683 C   0  0  0  0  0  0  0  0  0  0  0  0
    1.6138    2.8032    1.3850 C   0  0  0  0  0  0  0  0  0  0  0  0
    0.2731    2.0609    1.3926 C   0  0  0  0  0  0  0  0  0  0  0  0
    1.3477    4.9472   -0.1177 C   0  0  0  0  0  0  0  0  0  0  0  0
    3.7706    4.1696   -0.1302 C   0  0  0  0  0  0  0  0  0  0  0  0
    0.1104    0.9959    0.2817 C   0  0  0  0  0  0  0  0  0  0  0  0
    1.7487    2.9838   -1.8155 C   0  0  0  0  0  0  0  0  0  0  0  0
    2.4319   -0.4384    0.1415 C   0  0  0  0  0  0  0  0  0  0  0  0
    3.4760    0.4507    0.0651 C   0  0  0  0  0  0  0  0  0  0  0  0
    3.0577   -1.6399    0.0374 C   0  0  0  0  0  0  0  0  0  0  0  0
    4.5367   -1.7055   -0.0318 C   0  0  0  0  0  0  0  0  0  0  0  0
    4.8810    0.5160    0.0253 C   0  0  0  0  0  0  0  0  0  0  0  0
    5.4561   -0.6549   -0.0274 C   0  0  0  0  0  0  0  0  0  0  0  0
    3.2209    1.7756   -0.2020 C   0  0  0  0  0  0  0  0  0  0  0  0
    5.2711   -2.9703   -0.0823 C   0  0  0  0  0  0  0  0  0  0  0  0
  1  9  1  0
  1 11  1  0
  2 10  1  0
  3 10  2  0
  4  5  1  0
  4  7  1  0
  4  8  1  0
  4 10  1  0
  5  6  1  0
  6  9  1  0
 11 12  2  0
 11 13  1  0
 12 15  1  0
 12 17  1  0
 13 14  2  0
 14 16  1  0
 14 18  1  0
 15 16  2  0
M  END
>  <DRUGBANK_ID>  (1) 
DB01241

>  <SECONDARY_ACCESSION_NUMBERS>  (1) 
APRD00293

>  <COMMON_NAME>  (1) 
Gemfibrozil

>  <CAS_NUMBER>  (1) 
25812-30-0

>  <UNII>  (1) 
Q8X02027X3

>  <SYNONYMS>  (1) 
2,2-Dimethyl-5-(2,5-dimethylphenoxy)valeriansäure; 2,2-Dimethyl-5-(2,5-xylyloxy)valeriansäure; 2,2-Dimethyl-5-(2,5-xylyloxy)valeric acid; Gemfibrozil; Gemfibrozilo; Gemfibrozilum

$$$$
