
     RDKit          3D

 27 28  0  0  1  0  0  0  0  0999 V2000
   -4.3074   -0.5041    6.5201 C   0  0  0  0  0  0  0  0  0  0  0  0
   -5.1273   -1.0061    5.3687 C   0  0  0  0  0  0  0  0  0  0  0  0
   -5.7118   -0.1360    4.5185 N   0  0  0  0  0  0  0  0  0  0  0  0
   -6.4803   -0.6620    3.5281 C   0  0  0  0  0  0  0  0  0  0  0  0
   -7.2223    0.3108    2.6515 C   0  0  0  0  0  0  0  0  0  0  0  0
   -6.6875   -2.0172    3.3987 C   0  0  0  0  0  0  0  0  0  0  0  0
   -7.4062   -2.6871    2.2709 C   0  0  0  0  0  0  0  0  0  0  0  0
   -6.5157   -3.4538    1.3680 N   0  0  0  0  0  0  0  0  0  0  0  0
   -6.5170   -3.1115    0.0838 C   0  0  0  0  0  0  0  0  0  0  0  0
   -5.4887   -4.0885   -0.8285 S   0  0  0  0  0  0  0  0  0  0  0  0
   -5.1688   -5.0955    0.5037 C   0  0  0  0  0  0  0  0  0  0  0  0
   -4.3485   -6.3400    0.4511 C   0  0  0  0  0  0  0  0  0  0  0  0
   -5.0608   -7.3977   -0.3893 C   0  0  0  0  0  0  0  0  0  0  0  0
   -5.0761   -6.9816   -1.7532 O   0  0  0  0  0  0  0  0  0  0  0  0
   -3.6198   -6.4020   -2.3027 P   0  0  0  0  0  0  0  0  0  0  0  0
   -4.4344   -5.3093   -3.3683 O   0  0  0  0  0  0  0  0  0  0  0  0
   -3.2513   -7.1724   -3.5648 O   0  0  0  0  0  0  0  0  0  0  0  0
   -2.8052   -7.4946   -1.2372 O   0  0  0  0  0  0  0  0  0  0  0  0
   -1.1022   -7.4213   -1.5322 P   0  0  0  0  0  0  0  0  0  0  0  0
   -1.2465   -8.7035   -2.6846 O   0  0  0  0  0  0  0  0  0  0  0  0
   -0.4134   -8.5224   -0.7143 O   0  0  0  0  0  0  0  0  0  0  0  0
   -0.9730   -6.2736   -0.5009 O   0  0  0  0  0  0  0  0  0  0  0  0
   -5.7231   -4.5886    1.6329 C   0  0  0  0  0  0  0  0  0  0  0  0
   -5.4360   -5.2359    2.9279 C   0  0  0  0  0  0  0  0  0  0  0  0
   -6.2278   -2.7615    4.4570 C   0  0  0  0  0  0  0  0  0  0  0  0
   -6.8068   -3.9571    4.7998 N   0  0  0  0  0  0  0  0  0  0  0  0
   -5.3563   -2.3114    5.3599 N   0  0  0  0  0  0  0  0  0  0  0  0
  1  2  1  0
  2  3  2  0
  2 27  1  0
  3  4  1  0
  4  5  1  0
  4  6  2  0
  6  7  1  0
  6 25  1  0
  7  8  1  0
  8  9  2  0
  8 23  1  0
  9 10  1  0
 10 11  1  0
 11 12  1  0
 11 23  2  0
 12 13  1  0
 13 14  1  0
 15 17  2  0
 15 18  1  0
 15 16  1  0
 15 14  1  0
 19 21  1  0
 19 22  2  0
 19 20  1  0
 19 18  1  0
 23 24  1  0
 25 26  1  0
 25 27  2  0
M  CHG  2   8   1  21  -1
M  END
>  <DRUGBANK_ID>  (1) 
DB01682

>  <SECONDARY_ACCESSION_NUMBERS>  (1) 
EXPT02089

>  <COMMON_NAME>  (1) 
6'-Methyl-Thiamin Diphosphate

$$$$
