
     RDKit          3D

 41 46  0  0  0  0  0  0  0  0999 V2000
    2.4538    0.0044    0.0604 C   0  0  0  0  0  0  0  0  0  0  0  0
    1.0435   -0.0029   -0.3004 N   0  0  0  0  0  0  0  0  0  0  0  0
    0.3619   -1.2022    0.2309 C   0  0  0  0  0  0  0  0  0  0  0  0
   -1.1026   -1.2759   -0.2455 C   0  0  0  0  0  0  0  0  0  0  0  0
   -1.8208   -0.0434    0.0600 N   0  0  0  0  0  0  0  0  0  0  0  0
   -1.1471    1.2301   -0.2326 C   0  0  0  0  0  0  0  0  0  0  0  0
    0.3391    1.1913    0.2173 C   0  0  0  0  0  0  0  0  0  0  0  0
   -3.0372   -0.0766    0.6859 C   0  0  0  0  0  0  0  0  0  0  0  0
   -3.1351   -0.5043    1.9702 C   0  0  0  0  0  0  0  0  0  0  0  0
   -4.2719   -0.1838    2.7114 C   0  0  0  0  0  0  0  0  0  0  0  0
   -5.5161    0.0560    2.1804 C   0  0  0  0  0  0  0  0  0  0  0  0
   -5.4179    0.6814    0.9230 C   0  0  0  0  0  0  0  0  0  0  0  0
   -4.1777    0.5281    0.1904 C   0  0  0  0  0  0  0  0  0  0  0  0
   -6.4050    1.5396    0.4238 N   0  0  0  0  0  0  0  0  0  0  0  0
   -6.1888    2.4095   -0.7375 C   0  0  0  0  0  0  0  0  0  0  0  0
   -6.1841    1.5336   -1.9975 C   0  0  0  0  0  0  0  0  0  0  0  0
   -5.6673    2.2855   -3.1995 C   0  0  0  0  0  0  0  0  0  0  0  0
   -4.4417    2.9562   -2.9125 O   0  0  0  0  0  0  0  0  0  0  0  0
   -4.5877    3.9649   -1.9152 C   0  0  0  0  0  0  0  0  0  0  0  0
   -4.9748    3.3545   -0.5827 C   0  0  0  0  0  0  0  0  0  0  0  0
   -6.7339   -0.2259    3.1013 C   0  0  0  0  0  0  0  0  0  0  0  0
   -7.7848    0.4071    2.8165 O   0  0  0  0  0  0  0  0  0  0  0  0
   -6.7742   -1.1199    4.2867 N   0  0  0  0  0  0  0  0  0  0  0  0
   -5.7352   -1.9828    4.7969 C   0  0  0  0  0  0  0  0  0  0  0  0
   -5.2693   -2.7041    6.0539 C   0  0  0  0  0  0  0  0  0  0  0  0
   -5.5727   -3.5154    7.2194 C   0  0  0  0  0  0  0  0  0  0  0  0
   -4.5653   -3.7089    8.2578 C   0  0  0  0  0  0  0  0  0  0  0  0
   -3.3657   -3.0091    8.1526 C   0  0  0  0  0  0  0  0  0  0  0  0
   -2.9336   -2.5425    6.9454 C   0  0  0  0  0  0  0  0  0  0  0  0
   -3.8889   -2.4836    5.9527 C   0  0  0  0  0  0  0  0  0  0  0  0
   -3.6805   -2.2493    4.6511 N   0  0  0  0  0  0  0  0  0  0  0  0
   -4.7849   -2.3080    3.9230 N   0  0  0  0  0  0  0  0  0  0  0  0
   -4.7275   -4.5510    9.5340 C   0  0  0  0  0  0  0  0  0  0  0  0
   -3.5876   -5.5211    9.9274 C   0  0  0  0  0  0  0  0  0  0  0  0
   -2.2725   -5.0919   10.2065 C   0  0  0  0  0  0  0  0  0  0  0  0
   -1.2659   -5.9689   10.6073 C   0  0  0  0  0  0  0  0  0  0  0  0
   -1.5432   -7.2956   10.8462 C   0  0  0  0  0  0  0  0  0  0  0  0
   -2.8478   -7.7292   10.6608 C   0  0  0  0  0  0  0  0  0  0  0  0
   -3.8508   -6.8799   10.1636 C   0  0  0  0  0  0  0  0  0  0  0  0
   -3.1645   -8.9833   11.0095 F   0  0  0  0  0  0  0  0  0  0  0  0
   -0.0283   -5.4930   10.8037 F   0  0  0  0  0  0  0  0  0  0  0  0
  1  2  1  0
  2  3  1  0
  2  7  1  0
  3  4  1  0
  4  5  1  0
  5  6  1  0
  5  8  1  0
  6  7  1  0
  8  9  2  0
  8 13  1  0
  9 10  1  0
 10 11  2  0
 11 12  1  0
 11 21  1  0
 12 13  2  0
 12 14  1  0
 14 15  1  0
 15 16  1  0
 15 20  1  0
 16 17  1  0
 17 18  1  0
 18 19  1  0
 19 20  1  0
 21 22  2  0
 21 23  1  0
 23 24  1  0
 24 25  1  0
 24 32  2  0
 25 26  2  0
 25 30  1  0
 26 27  1  0
 27 28  2  0
 27 33  1  0
 28 29  1  0
 29 30  2  0
 30 31  1  0
 31 32  1  0
 33 34  1  0
 34 35  2  0
 34 39  1  0
 35 36  1  0
 36 37  2  0
 36 41  1  0
 37 38  1  0
 38 39  2  0
 38 40  1  0
M  END
>  <DRUGBANK_ID>  (1) 
DB11986

>  <COMMON_NAME>  (1) 
Entrectinib

>  <CAS_NUMBER>  (1) 
1108743-60-7

>  <UNII>  (1) 
L5ORF0AN1I

>  <SYNONYMS>  (1) 
Entrectinib; N-[5-[(3,5-difluorophenyl)methyl]-1H-indazol-3-yl]-4-(4-methylpiperazin-1-yl)-2-(oxan-4-ylamino)benzamide

$$$$
