751
     RDKit          3D

 19 22  0  0  1  0  0  0  0  0999 V2000
   -0.1701    4.3466    0.3775 N   0  0  0  0  0  0  0  0  0  0  0  0
   -0.4951    2.1640    1.0301 N   0  0  0  0  0  0  0  0  0  0  0  0
    1.0956    2.4893   -0.3842 N   0  0  0  0  0  0  0  0  0  0  0  0
   -1.5751    4.1141    0.0354 C   0  0  0  0  0  0  0  0  0  0  0  0
   -1.7610    4.8736   -1.2719 C   0  0  0  0  0  0  0  0  0  0  0  0
   -1.6802    2.5860    0.2054 C   0  0  0  0  0  0  0  0  0  0  0  0
   -0.0656    5.4915    1.2691 C   0  0  0  0  0  0  0  0  0  0  0  0
   -1.9339    6.2715   -1.1353 C   0  0  0  0  0  0  0  0  0  0  0  0
   -2.0921    6.8539    0.2408 C   0  0  0  0  0  0  0  0  0  0  0  0
   -0.8837    6.6778    1.1570 C   0  0  0  0  0  0  0  0  0  0  0  0
    0.3666    3.0870    0.6240 C   0  0  0  0  0  0  0  0  0  0  0  0
   -1.4877    4.3575   -2.5380 C   0  0  0  0  0  0  0  0  0  0  0  0
   -1.8685    7.1241   -2.2553 C   0  0  0  0  0  0  0  0  0  0  0  0
    0.9068    5.4913    2.2840 C   0  0  0  0  0  0  0  0  0  0  0  0
   -0.6542    7.7812    2.0149 C   0  0  0  0  0  0  0  0  0  0  0  0
   -1.4328    5.2169   -3.6559 C   0  0  0  0  0  0  0  0  0  0  0  0
   -1.6245    6.5871   -3.5056 C   0  0  0  0  0  0  0  0  0  0  0  0
    1.1132    6.6031    3.1177 C   0  0  0  0  0  0  0  0  0  0  0  0
    0.3501    7.7555    2.9667 C   0  0  0  0  0  0  0  0  0  0  0  0
  1  4  1  0
  1  7  1  0
  1 11  1  0
  2  6  1  0
  2 11  2  0
  3 11  1  0
  4  5  1  0
  4  6  1  0
  5  8  2  0
  5 12  1  0
  7 10  2  0
  7 14  1  0
  8  9  1  0
  8 13  1  0
  9 10  1  0
 10 15  1  0
 12 16  2  0
 13 17  2  0
 14 18  2  0
 15 19  2  0
 16 17  1  0
 18 19  1  0
M  END
>  <DRUGBANK_ID>  (1) 
DB00751

>  <SECONDARY_ACCESSION_NUMBERS>  (1) 
APRD00043

>  <COMMON_NAME>  (1) 
Epinastine

>  <CAS_NUMBER>  (1) 
80012-43-7

>  <UNII>  (1) 
Q13WX941EF

>  <SYNONYMS>  (1) 
(±)-epinastine; 3-amino-9,13b-dihydro-1H-dibenz(c,f)imidazo(1,5-a)azepine; Epinastin; Epinastina; Epinastine; épinastine; Epinastinum

$$$$
