
     RDKit          3D

 41 45  0  0  1  0  0  0  0  0999 V2000
   -0.1480    0.2987   -2.8097 C   0  0  0  0  0  0  0  0  0  0  0  0
   -1.4490   -0.2363   -3.3707 C   0  0  0  0  0  0  0  0  0  0  0  0
   -1.1876   -1.3400   -4.2650 O   0  0  0  0  0  0  0  0  0  0  0  0
   -0.5109   -1.0803   -5.4106 C   0  0  0  0  0  0  0  0  0  0  0  0
   -0.1037    0.0347   -5.7187 O   0  0  0  0  0  0  0  0  0  0  0  0
   -0.2543   -2.2795   -6.3247 C   0  0  2  0  0  0  0  0  0  0  0  0
   -1.4679   -3.0466   -6.7301 C   0  0  0  0  0  0  0  0  0  0  0  0
   -1.5116   -4.1738   -5.7028 C   0  0  0  0  0  0  0  0  0  0  0  0
   -0.1293   -4.3280   -5.1156 C   0  0  0  0  0  0  0  0  0  0  0  0
    0.6562   -3.3178   -5.7981 N   0  0  0  0  0  0  0  0  0  0  0  0
   -1.7936   -5.4314   -6.4393 C   0  0  0  0  0  0  0  0  0  0  0  0
   -3.1625   -5.1947   -7.0404 C   0  0  0  0  0  0  0  0  0  0  0  0
   -4.3181   -4.8875   -5.8731 N   0  0  0  0  0  0  0  0  0  0  0  0
   -3.9996   -3.7100   -5.1113 C   0  0  0  0  0  0  0  0  0  0  0  0
   -2.5712   -3.9144   -4.5960 C   0  0  0  0  0  0  0  0  0  0  0  0
   -5.4845   -5.7960   -5.3049 C   0  0  0  0  0  0  0  0  0  0  0  0
   -5.5618   -7.8407   -5.4617 C   0  0  0  0  0  0  0  0  0  0  0  0
   -6.8355   -8.7453   -5.5192 C   0  0  0  0  0  0  0  0  0  0  0  0
   -6.5336   -9.7626   -4.4477 O   0  0  0  0  0  0  0  0  0  0  0  0
   -5.0931  -10.3298   -4.1848 C   0  0  2  0  0  0  0  0  0  0  0  0
   -3.8738   -9.6150   -3.3912 C   0  0  0  0  0  0  0  0  0  0  0  0
   -2.9313  -10.3554   -2.6638 C   0  0  0  0  0  0  0  0  0  0  0  0
   -1.8260   -9.7083   -2.0258 C   0  0  0  0  0  0  0  0  0  0  0  0
   -1.5926   -8.3427   -2.1315 C   0  0  0  0  0  0  0  0  0  0  0  0
   -0.3506   -7.4662   -1.3674 Cl  0  0  0  0  0  0  0  0  0  0  0  0
   -2.4356   -7.6170   -2.8712 C   0  0  0  0  0  0  0  0  0  0  0  0
   -3.5172   -8.2482   -3.4280 C   0  0  0  0  0  0  0  0  0  0  0  0
   -4.2140   -7.2180   -4.0551 C   0  0  0  0  0  0  0  0  0  0  0  0
   -5.7412   -7.1221   -3.3902 C   0  0  0  0  0  0  0  0  0  0  0  0
   -6.8868   -6.8519   -4.4616 C   0  0  0  0  0  0  0  0  0  0  0  0
   -6.6732   -6.7084   -6.4904 C   0  0  0  0  0  0  0  0  0  0  0  0
   -5.0431   -6.8007   -7.1334 C   0  0  0  0  0  0  0  0  0  0  0  0
   -3.7648   -7.0605   -5.8118 C   0  0  0  0  0  0  0  0  0  0  0  0
   -4.5817  -11.0624   -5.4491 C   0  0  0  0  0  0  0  0  0  0  0  0
   -3.5959  -11.9493   -5.1752 F   0  0  0  0  0  0  0  0  0  0  0  0
   -5.5889  -11.7544   -6.0281 F   0  0  0  0  0  0  0  0  0  0  0  0
   -4.0866  -10.2206   -6.3822 F   0  0  0  0  0  0  0  0  0  0  0  0
   -8.3166   -7.9228   -5.6091 N   0  0  0  0  0  0  0  0  0  0  0  0
   -8.4188   -6.1619   -5.5558 C   0  0  0  0  0  0  0  0  0  0  0  0
   -9.6501   -5.6898   -5.2084 N   0  0  0  0  0  0  0  0  0  0  0  0
   -7.0713   -5.0297   -5.3414 N   0  0  0  0  0  0  0  0  0  0  0  0
  1  2  1  0
  2  3  1  0
  3  4  1  0
  4  5  2  0
  6  4  1  1
  6  7  1  0
  6 10  1  0
  7  8  1  0
  8  9  1  0
  8 11  1  0
  8 15  1  0
  9 10  1  0
 11 12  1  0
 12 13  1  0
 13 14  1  0
 13 16  1  0
 14 15  1  0
 16 17  2  0
 16 41  1  0
 17 18  1  0
 18 19  1  0
 18 38  2  0
 20 34  1  0
 20 21  1  0
 20 19  1  6
 21 22  2  0
 21 27  1  0
 22 23  1  0
 23 24  2  0
 24 25  1  0
 24 26  1  0
 26 27  2  0
 27 28  1  0
 28 29  2  0
 28 33  1  0
 29 30  1  0
 30 31  2  0
 31 32  1  0
 32 33  2  0
 34 35  1  0
 34 36  1  0
 34 37  1  0
 38 39  1  0
 39 40  1  0
 39 41  2  0
M  END
>  <DRUGBANK_ID>  (1) 
DB18479

>  <COMMON_NAME>  (1) 
Rodatristat ethyl

>  <CAS_NUMBER>  (1) 
1673571-51-1

>  <UNII>  (1) 
507FY6OL37

>  <SYNONYMS>  (1) 
2,8-diazaspiro(4.5)decane-3-carboxylic acid, 8-(2-amino-6-((1r)-1-(5-chloro(1,1'-biphenyl)-2-yl)-2,2,2-trifluoroethoxy)-4-pyrimidinyl)-, ethyl ester, (3s)-; Ethyl (3s)-8-(2-amino-6-((1r)-1-(5-chloro(1,1'-biphenyl)-2-yl)-2,2,2-trifluoroethoxy)pyrimidin-4-yl)-2,8-diazaspiro(4.5)decane-3-carboxylate

$$$$
