
     RDKit          3D

 35 34  0  0  1  0  0  0  0  0999 V2000
  -13.1493  -14.6701   -0.5448 C   0  0  0  0  0  0  0  0  0  0  0  0
  -11.6308  -14.7091   -0.5825 C   0  0  0  0  0  0  0  0  0  0  0  0
  -11.1496  -15.0240   -1.9987 C   0  0  0  0  0  0  0  0  0  0  0  0
  -11.6311  -13.9568   -2.9871 C   0  0  0  0  0  0  0  0  0  0  0  0
  -11.1090  -12.5769   -2.5745 C   0  0  0  0  0  0  0  0  0  0  0  0
   -9.5795  -12.5865   -2.5763 C   0  0  0  0  0  0  0  0  0  0  0  0
   -9.0845  -12.9366   -3.9814 C   0  0  0  0  0  0  0  0  0  0  0  0
   -9.6086  -11.8892   -4.9668 C   0  0  0  0  0  0  0  0  0  0  0  0
   -9.0823  -10.5271   -4.5264 C   0  0  0  0  0  0  0  0  0  0  0  0
   -7.5499  -10.6437   -4.4610 C   0  0  0  0  0  0  0  0  0  0  0  0
   -7.0288  -11.0775   -5.8357 C   0  0  0  0  0  0  0  0  0  0  0  0
   -7.5154  -10.0480   -6.7672 C   0  0  0  0  0  0  0  0  0  0  0  0
   -7.0013   -8.7411   -6.1259 C   0  0  0  0  0  0  0  0  0  0  0  0
   -5.4329   -8.7128   -6.1821 C   0  0  0  0  0  0  0  0  0  0  0  0
   -4.6083   -8.9176   -7.4602 C   0  0  0  0  0  0  0  0  0  0  0  0
   -4.6306   -7.6598   -8.2075 C   0  0  0  0  0  0  0  0  0  0  0  0
   -4.5105   -6.3388   -7.8693 O   0  0  0  0  0  0  0  0  0  0  0  0
   -5.4927   -5.8474   -7.0273 C   0  0  0  0  0  0  0  0  0  0  0  0
   -7.0656   -5.7456   -7.2147 C   0  0  2  0  0  0  0  0  0  0  0  0
   -7.8059   -5.3311   -8.5475 C   0  0  0  0  0  0  0  0  0  0  0  0
   -8.3023   -6.4790   -9.5109 O   0  0  0  0  0  0  0  0  0  0  0  0
   -7.1692   -7.6696   -9.4858 P   0  0  1  0  0  0  0  0  0  0  0  0
   -6.2172   -6.5122   -9.6820 O   0  0  0  0  0  0  0  0  0  0  0  0
   -7.5199   -8.3184   -8.3169 O   0  0  0  0  0  0  0  0  0  0  0  0
   -6.0469   -8.7355  -10.3837 O   0  0  0  0  0  0  0  0  0  0  0  0
   -4.6522   -8.3214  -11.0084 C   0  0  0  0  0  0  0  0  0  0  0  0
   -4.8038   -7.5439  -12.3048 C   0  0  0  0  0  0  0  0  0  0  0  0
   -5.8142   -6.4002  -12.2256 N   0  0  0  0  0  0  0  0  0  0  0  0
   -5.2391   -5.2416  -11.2053 C   0  0  0  0  0  0  0  0  0  0  0  0
   -6.1732   -5.7084  -13.4447 C   0  0  0  0  0  0  0  0  0  0  0  0
   -7.2012   -6.9949  -12.0245 C   0  0  0  0  0  0  0  0  0  0  0  0
   -7.5403   -5.0188   -6.0530 O   0  0  0  0  0  0  0  0  0  0  0  0
   -7.1942   -3.7475   -5.8487 C   0  0  0  0  0  0  0  0  0  0  0  0
   -6.3489   -3.0711   -6.8908 C   0  0  0  0  0  0  0  0  0  0  0  0
   -7.5735   -3.1611   -4.8420 O   0  0  0  0  0  0  0  0  0  0  0  0
  1  2  1  0
  2  3  1  0
  3  4  1  0
  4  5  1  0
  5  6  1  0
  6  7  1  0
  7  8  1  0
  8  9  1  0
  9 10  1  0
 10 11  1  0
 11 12  1  0
 12 13  1  0
 13 14  1  0
 14 15  1  0
 15 16  1  0
 16 17  1  0
 17 18  1  0
 19 32  1  0
 19 20  1  6
 19 18  1  0
 20 21  1  0
 22 21  1  0
 22 23  1  1
 22 24  2  0
 22 25  1  0
 25 26  1  0
 26 27  1  0
 27 28  1  0
 28 29  1  0
 28 30  1  0
 28 31  1  0
 32 33  1  0
 33 34  1  0
 33 35  2  0
M  CHG  2  23  -1  28   1
M  END
>  <DRUGBANK_ID>  (1) 
DB02261

>  <SECONDARY_ACCESSION_NUMBERS>  (1) 
EXPT02559

>  <COMMON_NAME>  (1) 
Platelet Activating Factor

>  <CAS_NUMBER>  (1) 
74389-68-7

>  <UNII>  (1) 
42EWD89I80

>  <SYNONYMS>  (1) 
1-hexadecyl-2-acetyl-glycero-3-phosphocholine; Blood platelet-activating factor; PAF; PAF 16; PAF acether; Platelet-activating factor

$$$$
