BHM
     RDKit          3D

 21 21  0  0  0  0  0  0  0  0999 V2000
    0.9576    0.1803    0.1178 Br  0  0  0  0  0  0  0  0  0  0  0  0
    2.8944    0.0565    0.1059 C   0  0  0  0  0  0  0  0  0  0  0  0
    3.4642   -0.4490   -1.2248 C   0  0  1  0  0  0  0  0  0  0  0  0
    3.0207    0.3928   -2.2971 O   0  0  0  0  0  0  0  0  0  0  0  0
    4.9592   -0.1969   -1.0563 C   0  0  0  0  0  0  0  0  0  0  0  0
    3.0932   -1.9641   -1.5110 C   0  0  0  0  0  0  0  0  0  0  0  0
    2.4479   -2.6266   -0.6911 O   0  0  0  0  0  0  0  0  0  0  0  0
    3.3743   -2.5698   -2.7283 N   0  0  0  0  0  0  0  0  0  0  0  0
    4.2355   -2.1299   -3.7440 C   0  0  0  0  0  0  0  0  0  0  0  0
    5.5229   -1.7343   -3.4157 C   0  0  0  0  0  0  0  0  0  0  0  0
    3.8837   -2.1319   -5.0844 C   0  0  0  0  0  0  0  0  0  0  0  0
    4.7659   -1.5640   -6.0243 C   0  0  0  0  0  0  0  0  0  0  0  0
    5.9302   -0.8785   -5.6057 C   0  0  0  0  0  0  0  0  0  0  0  0
    6.7200   -0.1536   -6.6217 N   0  0  0  0  0  0  0  0  0  0  0  0
    6.3612   -0.2407   -7.7952 O   0  0  0  0  0  0  0  0  0  0  0  0
    7.7057    0.5009   -6.2477 O   0  0  0  0  0  0  0  0  0  0  0  0
    6.3160   -0.9447   -4.2683 C   0  0  0  0  0  0  0  0  0  0  0  0
    7.5044   -0.2204   -3.6782 C   0  0  0  0  0  0  0  0  0  0  0  0
    8.6814   -0.7060   -4.1413 F   0  0  0  0  0  0  0  0  0  0  0  0
    7.4832    1.1241   -3.8827 F   0  0  0  0  0  0  0  0  0  0  0  0
    7.5864   -0.3473   -2.3181 F   0  0  0  0  0  0  0  0  0  0  0  0
  1  2  1  0
  2  3  1  0
  3  4  1  0
  3  5  1  1
  3  6  1  0
  6  7  2  0
  6  8  1  0
  8  9  1  0
  9 10  2  0
  9 11  1  0
 10 17  1  0
 11 12  2  0
 12 13  1  0
 13 14  1  0
 13 17  2  0
 14 15  2  0
 14 16  1  0
 17 18  1  0
 18 19  1  0
 18 20  1  0
 18 21  1  0
M  CHG  2  14   1  16  -1
M  END
>  <DRUGBANK_ID>  (1) 
DB07454

>  <COMMON_NAME>  (1) 
(R)-3-BROMO-2-HYDROXY-2-METHYL-N-[4-NITRO-3-(TRIFLUOROMETHYL)PHENYL]PROPANAMIDE

$$$$
