
     RDKit          3D

 25 22  0  0  0  0  0  0  0  0999 V2000
    0.4522   -0.0824   -0.4360 P   0  0  0  0  0  0  0  0  0  0  0  0
    1.9870    7.3875   -0.4217 P   0  0  0  0  0  0  0  0  0  0  0  0
   -0.5303   -0.5081    2.0393 Na  0  0  0  0  0 15  0  0  0  0  0  0
    0.3485   -1.4220   -2.6629 Na  0  0  0  0  0 15  0  0  0  0  0  0
    2.1815   -2.2364    0.7782 Na  0  0  0  0  0 15  0  0  0  0  0  0
    3.1978    0.6660   -0.0924 Na  0  0  0  0  0 15  0  0  0  0  0  0
    0.7827    0.8989   -1.6769 O   0  0  0  0  0  0  0  0  0  0  0  0
    0.9216    6.5532   -1.4995 O   0  0  0  0  0  0  0  0  0  0  0  0
    0.1084   -1.5046   -0.7638 O   0  0  0  0  0  0  0  0  0  0  0  0
   -0.6122    0.5055    0.4676 O   0  0  0  0  0  0  0  0  0  0  0  0
    1.7797   -0.4179    0.1546 O   0  0  0  0  0  0  0  0  0  0  0  0
    0.7609    8.2951   -0.1476 O   0  0  0  0  0  0  0  0  0  0  0  0
    2.0626    6.2144    0.5946 O   0  0  0  0  0  0  0  0  0  0  0  0
    2.9405    8.1343    0.5430 O   0  0  0  0  0  0  0  0  0  0  0  0
    0.0550    3.0312   -2.4628 C   0  0  0  0  0  0  0  0  0  0  0  0
    0.0260    4.4717   -2.4645 C   0  0  0  0  0  0  0  0  0  0  0  0
    0.9142    2.2979   -1.5737 C   0  0  0  0  0  0  0  0  0  0  0  0
    1.8262    3.0168   -0.7828 C   0  0  0  0  0  0  0  0  0  0  0  0
    0.9141    5.1675   -1.6435 C   0  0  0  0  0  0  0  0  0  0  0  0
    1.8236    4.3845   -0.9606 C   0  0  0  0  0  0  0  0  0  0  0  0
   -0.7967    2.3539   -3.3555 C   0  0  0  0  0  0  0  0  0  0  0  0
   -0.8699    5.1340   -3.3212 C   0  0  0  0  0  0  0  0  0  0  0  0
    2.9028    2.7603    0.2471 C   0  0  0  0  0  0  0  0  0  0  0  0
   -1.6650    3.0286   -4.2050 C   0  0  0  0  0  0  0  0  0  0  0  0
   -1.7053    4.4158   -4.1812 C   0  0  0  0  0  0  0  0  0  0  0  0
  1  7  1  0
  1  9  1  0
  1 10  1  0
  1 11  2  0
  2  8  1  0
  2 12  1  0
  2 13  1  0
  2 14  2  0
  7 17  1  0
  8 19  1  0
 15 16  1  0
 15 17  2  0
 15 21  1  0
 16 19  2  0
 16 22  1  0
 17 18  1  0
 18 20  2  0
 18 23  1  0
 19 20  1  0
 21 24  2  0
 22 25  2  0
 24 25  1  0
M  CHG  8   3   1   4   1   5   1   6   1   9  -1  10  -1  12  -1  13  -1
M  END
>  <DRUGBANK_ID>  (1) 
DB09332

>  <COMMON_NAME>  (1) 
Kappadione

>  <CAS_NUMBER>  (1) 
131-13-5

>  <UNII>  (1) 
R2L46WE615

>  <SYNONYMS>  (1) 
Menadiol sodium diphosphate

$$$$
