
     RDKit          3D

 12 11  0  0  0  0  0  0  0  0999 V2000
    0.9117   -0.0739   -0.0419 C   0  0  0  0  0  0  0  0  0  0  0  0
    0.1813   -0.0055    1.3142 C   0  0  0  0  0  0  0  0  0  0  0  0
    0.5858   -1.1554    2.2731 C   0  0  0  0  0  0  0  0  0  0  0  0
   -0.2605   -1.0904    3.5483 C   0  0  0  0  0  0  0  0  0  0  0  0
   -0.2241   -0.1777    4.3571 O   0  0  0  0  0  0  0  0  0  0  0  0
    0.2934    1.2910    1.8830 O   0  0  0  0  0  0  0  0  0  0  0  0
    2.2473    0.1185    0.0555 O   0  0  0  0  0  0  0  0  0  0  0  0
    0.4011   -0.2687   -1.1277 O   0  0  0  0  0  0  0  0  0  0  0  0
   -1.0397   -2.1713    3.7852 O   0  0  0  0  0  0  0  0  0  0  0  0
    2.6572    0.0148    3.3484 C   0  0  0  0  0  0  0  0  0  0  0  0
    2.1029   -1.2155    2.6238 C   0  0  0  0  0  0  0  0  0  0  0  0
    2.4526   -2.4621    3.4307 C   0  0  0  0  0  0  0  0  0  0  0  0
  2  1  1  0
  2  6  1  0
  3  2  1  0
  3 11  1  0
  4  3  1  0
  5  4  2  0
  7  1  1  0
  8  1  2  0
  9  4  1  0
 11 10  1  0
 12 11  1  0
M  END
>  <DRUGBANK_ID>  (1) 
DB04279

>  <SECONDARY_ACCESSION_NUMBERS>  (1) 
EXPT01919

>  <COMMON_NAME>  (1) 
3-Isopropylmalic Acid

>  <UNII>  (1) 
29405QVM5W

$$$$
