
     RDKit          3D

 10 11  0  0  1  0  0  0  0  0999 V2000
    0.0378    0.8552   -0.1389 C   0  0  0  0  0  0  0  0  0  0  0  0
    0.7876   -0.4240    0.1432 C   0  0  1  0  0  0  0  0  0  0  0  0
   -0.5761   -0.4358   -0.2854 O   0  0  0  0  0  0  0  0  0  0  0  0
    1.8223   -0.9524   -0.8103 C   0  0  1  0  0  0  0  0  0  0  0  0
    3.2076   -0.2752   -0.5768 C   0  0  1  0  0  0  0  0  0  0  0  0
    3.6246   -0.3540    0.8705 C   0  0  2  0  0  0  0  0  0  0  0  0
    5.0496   -0.3386    1.3523 C   0  0  0  0  0  0  0  0  0  0  0  0
    4.3013   -1.5655    1.2397 O   0  0  0  0  0  0  0  0  0  0  0  0
    4.2038   -0.8570   -1.4210 O   0  0  0  0  0  0  0  0  0  0  0  0
    1.9426   -2.3733   -0.6376 O   0  0  0  0  0  0  0  0  0  0  0  0
  2  1  1  6
  1  3  1  0
  2  3  1  0
  2  4  1  0
  4  5  1  0
  4 10  1  1
  5  9  1  6
  6  5  1  0
  6  7  1  6
  6  8  1  0
  7  8  1  0
M  END
>  <DRUGBANK_ID>  (1) 
DB12873

>  <COMMON_NAME>  (1) 
Dianhydrogalactitol

>  <CAS_NUMBER>  (1) 
23261-20-3

>  <UNII>  (1) 
4S465RYF7M

>  <SYNONYMS>  (1) 
1,2:5,6-Dianhdrogalactitol; 1,2:5,6-Dianhydrogalactitol; Dianhydrogalactitol

$$$$
