F21
     RDKit          3D

 21 23  0  0  0  0  0  0  0  0999 V2000
    1.0382    1.2311    0.2762 C   0  0  0  0  0  0  0  0  0  0  0  0
   -0.3339    1.3273   -0.3712 C   0  0  0  0  0  0  0  0  0  0  0  0
   -1.4051   -0.0408    0.1125 S   0  0  0  0  0  0  0  0  0  0  0  0
   -0.2681   -1.3649   -0.3923 C   0  0  0  0  0  0  0  0  0  0  0  0
    1.0987   -1.2434    0.2834 C   0  0  0  0  0  0  0  0  0  0  0  0
    1.8359    0.0219   -0.1041 N   0  0  0  0  0  0  0  0  0  0  0  0
    3.4338   -0.0020    0.6070 S   0  0  0  0  0  0  0  0  0  0  0  0
    3.2664    0.0938    2.0393 O   0  0  0  0  0  0  0  0  0  0  0  0
    4.1308   -1.1307    0.0163 O   0  0  0  0  0  0  0  0  0  0  0  0
    4.2540    1.4897    0.0670 C   0  0  0  0  0  0  0  0  0  0  0  0
    3.7737    2.7373    0.4854 C   0  0  0  0  0  0  0  0  0  0  0  0
    4.3850    3.9122    0.0551 C   0  0  0  0  0  0  0  0  0  0  0  0
    3.8039    5.2742    0.3467 C   0  0  0  0  0  0  0  0  0  0  0  0
    4.7865    6.2575    0.7888 N   0  0  0  0  0  0  0  0  0  0  0  0
    6.1705    6.0098    0.3393 C   0  0  1  0  0  0  0  0  0  0  0  0
    7.0270    5.3836    1.4745 C   0  0  0  0  0  0  0  0  0  0  0  0
    6.3824    5.4366    2.6726 F   0  0  0  0  0  0  0  0  0  0  0  0
    6.2797    5.1414   -0.9419 C   0  0  0  0  0  0  0  0  0  0  0  0
    5.5713    3.8336   -0.6876 C   0  0  0  0  0  0  0  0  0  0  0  0
    6.0998    2.5903   -1.0482 C   0  0  0  0  0  0  0  0  0  0  0  0
    5.4312    1.4153   -0.6853 C   0  0  0  0  0  0  0  0  0  0  0  0
  1  2  1  0
  1  6  1  0
  2  3  1  0
  3  4  1  0
  4  5  1  0
  5  6  1  0
  6  7  1  0
  7  8  2  0
  7  9  2  0
  7 10  1  0
 10 11  2  0
 10 21  1  0
 11 12  1  0
 12 13  1  0
 12 19  2  0
 13 14  1  0
 14 15  1  0
 15 18  1  0
 15 16  1  1
 16 17  1  0
 18 19  1  0
 19 20  1  0
 20 21  2  0
M  END
>  <DRUGBANK_ID>  (1) 
DB07739

>  <COMMON_NAME>  (1) 
(3R)-3-(FLUOROMETHYL)-7-(THIOMORPHOLIN-4-YLSULFONYL)-1,2,3,4-TETRAHYDROISOQUINOLINE

$$$$
