MSD
     RDKit          3D

 27 29  0  0  0  0  0  0  0  0999 V2000
    0.6195    0.2773    0.4589 C   0  0  0  0  0  0  0  0  0  0  0  0
   -0.0964   -0.7457    1.0294 C   0  0  0  0  0  0  0  0  0  0  0  0
   -1.4596   -0.7161    1.2385 N   0  0  0  0  0  0  0  0  0  0  0  0
   -2.2035    0.2566    0.6749 C   0  0  0  0  0  0  0  0  0  0  0  0
   -1.5469    1.4060    0.2426 C   0  0  0  0  0  0  0  0  0  0  0  0
   -0.1249    1.4152    0.1635 C   0  0  0  0  0  0  0  0  0  0  0  0
   -3.5707    0.0282    0.3151 N   0  0  0  0  0  0  0  0  0  0  0  0
   -4.2645   -1.1476    0.1058 C   0  0  0  0  0  0  0  0  0  0  0  0
   -5.9256   -1.0662   -0.1991 S   0  0  0  0  0  0  0  0  0  0  0  0
   -3.6467   -2.3700   -0.0386 N   0  0  0  0  0  0  0  0  0  0  0  0
   -2.2193   -2.7297   -0.0645 C   0  0  2  0  0  0  0  0  0  0  0  0
   -1.1149   -2.0255   -0.9687 C   0  0  0  0  0  0  0  0  0  0  0  0
   -1.5705   -3.3584   -1.2522 C   0  0  2  0  0  0  0  0  0  0  0  0
   -2.3075   -3.7088   -2.4946 C   0  0  0  0  0  0  0  0  0  0  0  0
   -3.1187   -2.8736   -3.3344 C   0  0  0  0  0  0  0  0  0  0  0  0
   -3.7840   -3.4126   -4.4165 C   0  0  0  0  0  0  0  0  0  0  0  0
   -3.6619   -4.7480   -4.7244 C   0  0  0  0  0  0  0  0  0  0  0  0
   -2.8600   -5.5919   -3.9530 C   0  0  0  0  0  0  0  0  0  0  0  0
   -2.1916   -5.0764   -2.8470 C   0  0  0  0  0  0  0  0  0  0  0  0
   -1.4233   -5.9501   -2.1092 O   0  0  0  0  0  0  0  0  0  0  0  0
   -2.7772   -7.0211   -4.3490 C   0  0  0  0  0  0  0  0  0  0  0  0
   -3.4112   -7.4007   -5.3323 O   0  0  0  0  0  0  0  0  0  0  0  0
   -1.9275   -7.9792   -3.5528 C   0  0  0  0  0  0  0  0  0  0  0  0
   -3.4707   -1.5377   -3.3531 O   0  0  0  0  0  0  0  0  0  0  0  0
    1.9943    0.1116    0.1388 C   0  0  0  0  0  0  0  0  0  0  0  0
    3.1373   -0.0611   -0.1119 N   0  0  0  0  0  0  0  0  0  0  0  0
   -2.6452   -0.7017   -2.6392 C   0  0  0  0  0  0  0  0  0  0  0  0
  1  2  2  0
  1  6  1  0
  1 25  1  0
  2  3  1  0
  3  4  2  0
  4  5  1  0
  4  7  1  0
  5  6  2  0
  7  8  1  0
  8  9  2  0
  8 10  1  0
 11 10  1  6
 11 12  1  0
 11 13  1  0
 12 13  1  0
 13 14  1  6
 14 15  2  0
 14 19  1  0
 15 16  1  0
 15 24  1  0
 16 17  2  0
 17 18  1  0
 18 19  2  0
 18 21  1  0
 19 20  1  0
 21 22  2  0
 21 23  1  0
 24 27  1  0
 25 26  3  0
M  END
>  <DRUGBANK_ID>  (1) 
DB08212

>  <COMMON_NAME>  (1) 
1-[2-(3-ACETYL-2-HYDROXY-6-METHOXY-PHENYL)-CYCLOPROPYL]-3-(5-CYANO-PYRIDIN-2-YL)-THIOUREA

$$$$
