BD4
     RDKit          3D

 24 27  0  0  0  0  0  0  0  0999 V2000
    1.2318   -0.1538   -0.1408 O   0  0  0  0  0  0  0  0  0  0  0  0
    2.4454   -0.0250   -0.0567 C   0  0  0  0  0  0  0  0  0  0  0  0
    3.3267   -1.0607   -0.1442 N   0  0  0  0  0  0  0  0  0  0  0  0
    4.5140   -0.8208    0.4789 C   0  0  0  0  0  0  0  0  0  0  0  0
    5.1943   -1.7499    0.9159 O   0  0  0  0  0  0  0  0  0  0  0  0
    4.5765    0.6073    0.5342 C   0  0  0  0  0  0  0  0  0  0  0  0
    3.2968    1.1011    0.2181 C   0  0  0  0  0  0  0  0  0  0  0  0
    2.9539    2.4431    0.1869 C   0  0  0  0  0  0  0  0  0  0  0  0
    1.5878    2.9150   -0.2079 C   0  0  0  0  0  0  0  0  0  0  0  0
    3.9801    3.3415    0.5250 C   0  0  0  0  0  0  0  0  0  0  0  0
    5.3147    2.9369    0.7503 C   0  0  0  0  0  0  0  0  0  0  0  0
    5.5754    1.5942    0.7824 C   0  0  0  0  0  0  0  0  0  0  0  0
    6.8833    1.2817    1.0667 C   0  0  0  0  0  0  0  0  0  0  0  0
    7.5824    0.0861    1.2416 C   0  0  0  0  0  0  0  0  0  0  0  0
    8.9242    0.0461    1.5670 C   0  0  0  0  0  0  0  0  0  0  0  0
    9.5175   -1.3169    1.7524 C   0  0  0  0  0  0  0  0  0  0  0  0
    9.5994    1.2505    1.7003 C   0  0  0  0  0  0  0  0  0  0  0  0
    8.9410    2.4996    1.5130 C   0  0  0  0  0  0  0  0  0  0  0  0
    7.5505    2.5176    1.1934 C   0  0  0  0  0  0  0  0  0  0  0  0
    6.5875    3.5469    0.9452 N   0  0  0  0  0  0  0  0  0  0  0  0
    6.8973    4.9948    0.9457 C   0  0  0  0  0  0  0  0  0  0  0  0
    6.6646    5.7978   -0.3632 C   0  0  0  0  0  0  0  0  0  0  0  0
    5.2157    5.8266   -0.8190 C   0  0  0  0  0  0  0  0  0  0  0  0
    4.3684    6.4760    0.1851 N   0  0  0  0  0  0  0  0  0  0  0  0
  1  2  2  0
  2  3  1  0
  2  7  1  0
  3  4  1  0
  4  5  2  0
  4  6  1  0
  6  7  2  0
  6 12  1  0
  7  8  1  0
  8  9  1  0
  8 10  2  0
 10 11  1  0
 11 12  2  0
 11 20  1  0
 12 13  1  0
 13 14  2  0
 13 19  1  0
 14 15  1  0
 15 16  1  0
 15 17  2  0
 17 18  1  0
 18 19  2  0
 19 20  1  0
 20 21  1  0
 21 22  1  0
 22 23  1  0
 23 24  1  0
M  END
>  <DRUGBANK_ID>  (1) 
DB07444

>  <COMMON_NAME>  (1) 
6-(3-AMINOPROPYL)-4,9-DIMETHYLPYRROLO[3,4-C]CARBAZOLE-1,3(2H,6H)-DIONE

$$$$
