I46
     RDKit          3D

 19 21  0  0  0  0  0  0  0  0999 V2000
   -1.2576   -1.1995   -0.0254 C   0  0  0  0  0  0  0  0  0  0  0  0
   -1.2502    1.2256   -0.0294 C   0  0  0  0  0  0  0  0  0  0  0  0
    0.1369   -1.2073   -0.0117 C   0  0  0  0  0  0  0  0  0  0  0  0
    0.1461    1.2141   -0.0196 C   0  0  0  0  0  0  0  0  0  0  0  0
   -4.0920   -2.6376    2.3599 C   0  0  0  0  0  0  0  0  0  0  0  0
   -3.4893   -3.2885    3.4238 C   0  0  0  0  0  0  0  0  0  0  0  0
   -3.0537   -0.6121    3.1428 C   0  0  0  0  0  0  0  0  0  0  0  0
   -4.2328    0.5659   -0.9106 C   0  0  0  0  0  0  0  0  0  0  0  0
   -1.9557    0.0171   -0.0335 C   0  0  0  0  0  0  0  0  0  0  0  0
    0.8244   -0.0003   -0.0107 C   0  0  0  0  0  0  0  0  0  0  0  0
   -3.8464   -1.2747    2.2053 C   0  0  0  0  0  0  0  0  0  0  0  0
   -2.5011   -1.3542    4.1654 C   0  0  0  0  0  0  0  0  0  0  0  0
   -3.4016    0.0112    0.0304 C   0  0  0  0  0  0  0  0  0  0  0  0
   -4.2680   -0.5737    1.0007 C   0  0  0  0  0  0  0  0  0  0  0  0
   -5.5018    0.2991   -0.4862 N   0  0  0  0  0  0  0  0  0  0  0  0
   -2.6893   -2.6795    4.3252 N   0  0  0  0  0  0  0  0  0  0  0  0
   -5.5537   -0.4096    0.6588 N   0  0  0  0  0  0  0  0  0  0  0  0
    2.1637   -0.0067    0.0025 F   0  0  0  0  0  0  0  0  0  0  0  0
   -1.6953   -0.7322    5.0386 F   0  0  0  0  0  0  0  0  0  0  0  0
  1  3  2  0
  2  9  2  0
  2  4  1  0
  4 10  2  0
  5 11  2  0
  6  5  1  0
  6 16  2  0
  9  1  1  0
 10  3  1  0
 10 18  1  0
 11  7  1  0
 11 14  1  0
 12  7  2  0
 12 19  1  0
 13  8  2  0
 13  9  1  0
 14 13  1  0
 15  8  1  0
 16 12  1  0
 17 14  2  0
 17 15  1  0
M  END
>  <DRUGBANK_ID>  (1) 
DB07942

>  <COMMON_NAME>  (1) 
2-fluoro-4-[4-(4-fluorophenyl)-1H-pyrazol-3-yl]pyridine

$$$$
