TQT
     RDKit          3D

 22 25  0  0  0  0  0  0  0  0999 V2000
    2.3885    0.2279   -0.6551 C   0  0  1  0  0  0  0  0  0  0  0  0
    0.7229   -1.5693   -0.5814 C   0  0  1  0  0  0  0  0  0  0  0  0
    0.0293   -1.0250    0.6174 C   0  0  1  0  0  0  0  0  0  0  0  0
   -2.2213   -0.6915   -0.6065 C   0  0  2  0  0  0  0  0  0  0  0  0
   -1.5768    0.5388   -1.3587 C   0  0  0  0  0  0  0  0  0  0  0  0
    0.3259    0.4916    0.4826 C   0  0  1  0  0  0  0  0  0  0  0  0
   -3.7510   -0.3844   -0.3026 C   0  0  0  0  0  0  0  0  0  0  0  0
   -3.7473    1.9863    0.6868 C   0  0  0  0  0  0  0  0  0  0  0  0
   -3.9956    0.7742    1.9332 C   0  0  1  0  0  0  0  0  0  0  0  0
   -2.1255    0.8297    2.0594 C   0  0  0  0  0  0  0  0  0  0  0  0
   -1.3816    2.1734    1.5227 C   0  0  0  0  0  0  0  0  0  0  0  0
   -1.7507    3.5973    1.8567 C   0  0  0  0  0  0  0  0  0  0  0  0
   -3.4127    3.9669    1.6564 C   0  0  0  0  0  0  0  0  0  0  0  0
   -4.6530    2.5538    2.1364 C   0  0  2  0  0  0  0  0  0  0  0  0
   -3.3992    2.3069    2.6996 C   0  0  0  0  0  0  0  0  0  0  0  0
    1.7179    0.8848    0.3892 N   0  0  0  0  0  0  0  0  0  0  0  0
    3.7188    0.6261   -0.5117 N   0  0  0  0  0  0  0  0  0  0  0  0
    2.1083   -1.1637   -0.4929 N   0  0  0  0  0  0  0  0  0  0  0  0
    0.6876   -2.9976   -0.6540 N   0  0  0  0  0  0  0  0  0  0  0  0
   -1.4491   -1.4560    0.5839 C   0  0  0  0  0  0  0  0  0  0  0  0
   -0.3349    1.2253   -0.7985 C   0  0  0  0  0  0  0  0  0  0  0  0
   -4.3150    0.6776    0.5682 N   0  0  0  0  0  0  0  0  0  0  0  0
  1 16  1  0
  1 17  1  1
  1 18  1  0
  2  3  1  0
  2 18  1  0
  2 19  1  1
  3  6  1  0
  3 20  1  6
  4  5  1  0
  4 20  1  0
  4  7  1  1
  5 21  1  0
  6 16  1  0
  6 21  1  6
  7 22  1  0
  8 15  1  0
  8 22  1  0
  9 10  1  6
  9 14  1  0
  9 22  1  0
 10 11  1  0
 11 12  1  0
 12 13  1  0
 14 13  1  6
 14 15  1  0
M  END
>  <DRUGBANK_ID>  (1) 
DB02559

>  <SECONDARY_ACCESSION_NUMBERS>  (1) 
EXPT03103

>  <COMMON_NAME>  (1) 
6-(Octahydro-1h-Indol-1-Ylmethyl)Decahydroquinazoline-2,4-Diamine

$$$$
