HAB
     RDKit          3D

 18 19  0  0  0  0  0  0  0  0999 V2000
    1.4935   -0.2940   -0.0183 C   0  0  0  0  0  0  0  0  0  0  0  0
    0.5750   -1.3828   -0.0551 C   0  0  0  0  0  0  0  0  0  0  0  0
   -0.8183   -1.1145   -0.0286 C   0  0  0  0  0  0  0  0  0  0  0  0
   -1.3252    0.1839    0.0013 C   0  0  0  0  0  0  0  0  0  0  0  0
   -0.4449    1.2523    0.0323 C   0  0  0  0  0  0  0  0  0  0  0  0
    0.9380    1.0139   -0.0060 C   0  0  0  0  0  0  0  0  0  0  0  0
    4.6989   -1.6953    0.4524 C   0  0  0  0  0  0  0  0  0  0  0  0
    5.4678   -1.0305    1.4008 C   0  0  0  0  0  0  0  0  0  0  0  0
    6.7830   -1.4153    1.6521 C   0  0  0  0  0  0  0  0  0  0  0  0
    7.3276   -2.4993    0.9705 C   0  0  0  0  0  0  0  0  0  0  0  0
    6.5664   -3.2249    0.0650 C   0  0  0  0  0  0  0  0  0  0  0  0
    5.2636   -2.7990   -0.2233 C   0  0  0  0  0  0  0  0  0  0  0  0
    0.8840   -2.8522   -0.1303 C   0  0  0  0  0  0  0  0  0  0  0  0
    2.9287   -0.3493    0.0007 N   0  0  0  0  0  0  0  0  0  0  0  0
    3.3215   -1.4489    0.4238 N   0  0  0  0  0  0  0  0  0  0  0  0
    0.0651   -3.7393    0.0943 O   0  0  0  0  0  0  0  0  0  0  0  0
    2.1204   -3.1936   -0.4978 O   0  0  0  0  0  0  0  0  0  0  0  0
    8.6237   -2.8728    1.1626 O   0  0  0  0  0  0  0  0  0  0  0  0
  1  2  2  0
  1  6  1  0
  1 14  1  0
  2  3  1  0
  2 13  1  0
  3  4  2  0
  4  5  1  0
  5  6  2  0
  7  8  2  0
  7 12  1  0
  7 15  1  0
  8  9  1  0
  9 10  2  0
 10 11  1  0
 10 18  1  0
 11 12  2  0
 13 16  2  0
 13 17  1  0
 14 15  2  0
M  END
>  <DRUGBANK_ID>  (1) 
DB07880

>  <COMMON_NAME>  (1) 
2-((4'-HYDROXYPHENYL)-AZO)BENZOIC ACID

$$$$
