1561
     RDKit          3D

 21 24  0  0  1  0  0  0  0  0999 V2000
   -4.9264    1.0799    0.8353 O   0  0  0  0  0  0  0  0  0  0  0  0
    5.5993    0.0743    0.9092 O   0  0  0  0  0  0  0  0  0  0  0  0
    0.1494    0.4012    0.1599 C   0  0  1  0  0  0  0  0  0  0  0  0
   -0.6538   -0.8552   -0.3078 C   0  0  2  0  0  0  0  0  0  0  0  0
    1.6338    0.3711   -0.3408 C   0  0  2  0  0  0  0  0  0  0  0  0
   -2.0670   -0.7599    0.2762 C   0  0  1  0  0  0  0  0  0  0  0  0
   -2.7934    0.5198   -0.1811 C   0  0  2  0  0  0  0  0  0  0  0  0
    2.2789   -0.9503    0.1830 C   0  0  1  0  0  0  0  0  0  0  0  0
   -0.5924    1.7266   -0.1446 C   0  0  0  0  0  0  0  0  0  0  0  0
    0.0508   -2.1409    0.1475 C   0  0  0  0  0  0  0  0  0  0  0  0
   -2.0408    1.7277    0.3608 C   0  0  0  0  0  0  0  0  0  0  0  0
    1.5137   -2.1930   -0.2878 C   0  0  0  0  0  0  0  0  0  0  0  0
   -3.0767   -1.8757    0.0154 C   0  0  0  0  0  0  0  0  0  0  0  0
    2.4237    1.5497    0.2889 C   0  0  0  0  0  0  0  0  0  0  0  0
   -4.1404    0.2298    0.4452 C   0  0  0  0  0  0  0  0  0  0  0  0
    1.6988    0.4791   -1.8839 C   0  0  0  0  0  0  0  0  0  0  0  0
    3.7698   -1.0579   -0.1469 C   0  0  0  0  0  0  0  0  0  0  0  0
   -4.4102   -1.2643    0.4814 C   0  0  0  0  0  0  0  0  0  0  0  0
   -3.0322    0.6412   -1.6965 C   0  0  0  0  0  0  0  0  0  0  0  0
    3.9182    1.5116    0.0005 C   0  0  0  0  0  0  0  0  0  0  0  0
    4.5068    0.1663    0.3503 C   0  0  0  0  0  0  0  0  0  0  0  0
  1 15  2  0
  2 21  2  0
  3  4  1  0
  3  5  1  0
  3  9  1  6
  4  6  1  0
  4 10  1  1
  5  8  1  0
  5 14  1  0
  5 16  1  6
  6  7  1  0
  6 13  1  6
  7 11  1  0
  7 15  1  0
  7 19  1  6
  8 12  1  6
  8 17  1  0
  9 11  1  0
 10 12  1  0
 13 18  1  0
 14 20  1  0
 15 18  1  0
 17 21  1  0
 20 21  1  0
M  END
>  <DRUGBANK_ID>  (1) 
DB01561

>  <SECONDARY_ACCESSION_NUMBERS>  (1) 
DB03620

>  <COMMON_NAME>  (1) 
Androstanedione

>  <CAS_NUMBER>  (1) 
846-46-8

>  <UNII>  (1) 
2KR72RNR8Z

>  <SYNONYMS>  (1) 
5alpha-Androstan-3,17-dione; 5Î±-androstane-3,17-dione

$$$$
