ODE
     RDKit          3D

 31 34  0  0  0  0  0  0  0  0999 V2000
   -1.0308   -1.2922    0.1341 C   0  0  0  0  0  0  0  0  0  0  0  0
    0.3452   -1.2773    0.0450 C   0  0  0  0  0  0  0  0  0  0  0  0
    1.0218   -0.0529    0.0245 C   0  0  0  0  0  0  0  0  0  0  0  0
    2.3792   -0.0031   -0.0307 O   0  0  0  0  0  0  0  0  0  0  0  0
    0.3564    1.1605    0.0517 C   0  0  0  0  0  0  0  0  0  0  0  0
   -1.0130    1.1443    0.1447 C   0  0  0  0  0  0  0  0  0  0  0  0
   -1.6884   -0.0807    0.2283 C   0  0  0  0  0  0  0  0  0  0  0  0
   -3.1057   -0.1248    0.1695 C   0  0  0  0  0  0  0  0  0  0  0  0
   -4.0463   -0.5051    1.2674 C   0  0  2  0  0  0  0  0  0  0  0  0
   -5.1551   -0.9986    0.5059 O   0  0  0  0  0  0  0  0  0  0  0  0
   -4.7772    0.7120    1.8659 C   0  0  1  0  0  0  0  0  0  0  0  0
   -3.8505    1.7087    2.4662 C   0  0  0  0  0  0  0  0  0  0  0  0
   -3.0327    2.3441    1.7710 O   0  0  0  0  0  0  0  0  0  0  0  0
   -3.9212    1.9423    3.7821 O   0  0  0  0  0  0  0  0  0  0  0  0
   -4.9080    1.3175    4.6126 C   0  0  0  0  0  0  0  0  0  0  0  0
   -6.3219    1.7831    4.2849 C   0  0  0  0  0  0  0  0  0  0  0  0
   -5.6681    1.2773    0.7098 C   0  0  1  0  0  0  0  0  0  0  0  0
   -5.6161    2.7688    0.3273 C   0  0  0  0  0  0  0  0  0  0  0  0
   -5.4060    3.6110    1.2044 O   0  0  0  0  0  0  0  0  0  0  0  0
   -6.0264    3.2211   -0.8993 O   0  0  0  0  0  0  0  0  0  0  0  0
   -6.3965    2.5763   -2.1997 C   0  0  0  0  0  0  0  0  0  0  0  0
   -5.5670    1.4234   -2.5305 C   0  0  0  0  0  0  0  0  0  0  0  0
   -5.2989    0.2075   -0.3101 C   0  0  1  0  0  0  0  0  0  0  0  0
   -3.7551    0.3559   -0.8869 C   0  0  0  0  0  0  0  0  0  0  0  0
   -2.9789    1.2399   -2.0898 C   0  0  0  0  0  0  0  0  0  0  0  0
   -3.1436    2.6838   -2.3288 C   0  0  0  0  0  0  0  0  0  0  0  0
   -2.9427    3.3153   -3.5827 C   0  0  0  0  0  0  0  0  0  0  0  0
   -2.2686    2.6137   -4.5513 C   0  0  0  0  0  0  0  0  0  0  0  0
   -1.8847    3.2290   -5.7083 O   0  0  0  0  0  0  0  0  0  0  0  0
   -1.9535    1.2671   -4.3325 C   0  0  0  0  0  0  0  0  0  0  0  0
   -2.3526    0.5681   -3.1506 C   0  0  0  0  0  0  0  0  0  0  0  0
  1  7  2  0
  1  2  1  0
  2  3  2  0
  3  5  1  0
  3  4  1  0
  5  6  2  0
  6  7  1  0
  7  8  1  0
  9  8  1  6
  8 24  2  0
  9 10  1  0
  9 11  1  0
 10 23  1  0
 11 17  1  0
 11 12  1  6
 12 14  1  0
 12 13  2  0
 14 15  1  0
 15 16  1  0
 17 23  1  0
 17 18  1  6
 18 20  1  0
 18 19  2  0
 20 21  1  0
 21 22  1  0
 23 24  1  1
 24 25  1  0
 25 31  1  0
 25 26  2  0
 26 27  1  0
 27 28  2  0
 28 30  1  0
 28 29  1  0
 30 31  2  0
M  END
>  <DRUGBANK_ID>  (1) 
DB08320

>  <COMMON_NAME>  (1) 
DIETHYL (1R,2S,3R,4S)-5,6-BIS(4-HYDROXYPHENYL)-7-OXABICYCLO[2.2.1]HEPT-5-ENE-2,3-DICARBOXYLATE

$$$$
