Indole-3-acetic acid.mol
     RDKit          3D

 10 10  0  0  0  0  0  0  0  0999 V2000
    1.1898   -0.1915    0.0504 N   0  0  0  0  0  0  0  0  0  0  0  0
    0.5659    0.3331    1.2721 C   0  0  0  0  0  0  0  0  0  0  0  0
    0.9595    1.7839    1.6092 C   0  0  0  0  0  0  0  0  0  0  0  0
    0.4944    2.8611    0.6487 C   0  0  0  0  0  0  0  0  0  0  0  0
    0.8431    4.1968    0.8983 C   0  0  0  0  0  0  0  0  0  0  0  0
    0.5624    5.1963   -0.0415 C   0  0  0  0  0  0  0  0  0  0  0  0
   -0.0409    4.8509   -1.2477 C   0  0  0  0  0  0  0  0  0  0  0  0
   -0.2767    5.7666   -2.2284 O   0  0  0  0  0  0  0  0  0  0  0  0
   -0.4392    3.5510   -1.4894 C   0  0  0  0  0  0  0  0  0  0  0  0
   -0.2261    2.5761   -0.5208 C   0  0  0  0  0  0  0  0  0  0  0  0
  1  2  1  0
  2  3  1  0
  3  4  1  0
  4  5  2  0
  4 10  1  0
  5  6  1  0
  6  7  2  0
  7  8  1  0
  7  9  1  0
  9 10  2  0
M  END
>  <DRUGBANK_ID>  (1) 
DB08841

>  <COMMON_NAME>  (1) 
Tyramine

>  <CAS_NUMBER>  (1) 
51-67-2

>  <UNII>  (1) 
X8ZC7V0OX3

$$$$
