1422
     RDKit          3D

 14 15  0  0  0  0  0  0  0  0999 V2000
   -1.6630    2.0128    0.0065 O   0  0  0  0  0  0  0  0  0  0  0  0
    0.8847   -3.8546   -0.0568 O   0  0  0  0  0  0  0  0  0  0  0  0
   -1.2572   -4.2274   -0.0289 O   0  0  0  0  0  0  0  0  0  0  0  0
    0.9713    1.3688   -0.0044 N   0  0  0  0  0  0  0  0  0  0  0  0
   -0.2871   -3.4580   -0.0327 N   0  0  0  0  0  0  0  0  0  0  0  0
    0.4572   -1.0041   -0.0030 C   0  0  0  0  0  0  0  0  0  0  0  0
    0.0692    0.3627   -0.0025 C   0  0  0  0  0  0  0  0  0  0  0  0
   -0.5709   -2.0003   -0.0109 C   0  0  0  0  0  0  0  0  0  0  0  0
   -1.2964    0.6846    0.0053 C   0  0  0  0  0  0  0  0  0  0  0  0
   -1.9300   -1.6299    0.0002 C   0  0  0  0  0  0  0  0  0  0  0  0
    1.8577   -1.2352    0.0087 C   0  0  0  0  0  0  0  0  0  0  0  0
   -2.2923   -0.2879    0.0148 C   0  0  0  0  0  0  0  0  0  0  0  0
    2.7750   -0.1955    0.0115 C   0  0  0  0  0  0  0  0  0  0  0  0
    2.2856    1.0842    0.0020 C   0  0  0  0  0  0  0  0  0  0  0  0
  1  9  1  0
  2  5  1  0
  3  5  2  0
  4  7  2  0
  4 14  1  0
  5  8  1  0
  6  7  1  0
  6  8  1  0
  6 11  2  0
  7  9  1  0
  8 10  2  0
  9 12  2  0
 10 12  1  0
 11 13  1  0
 13 14  2  0
M  CHG  2   2  -1   5   1
M  END
>  <DRUGBANK_ID>  (1) 
DB01422

>  <COMMON_NAME>  (1) 
Nitroxoline

>  <CAS_NUMBER>  (1) 
4008-48-4

>  <UNII>  (1) 
A8M33244M6

>  <SYNONYMS>  (1) 
5-Nitro-8-hydroxyquinoline; 5-Nitro-8-oxyquinoline; 5-Nitro-8-quinolinol; 5-Nitrox; 5-NOK; 5NOK; 8-Hydroxy-5-nitroquinoline; Nitroxolina; Nitroxoline; Nitroxolinum

$$$$
