
     RDKit          3D

 37 39  0  0  1  0  0  0  0  0999 V2000
    0.5151    1.4940    0.3880 C   0  0  2  0  0  0  0  0  0  0  0  0
    0.7370    2.8581    0.0017 N   0  0  0  0  0  0  0  0  0  0  0  0
    1.7170    0.7791    0.1673 O   0  0  0  0  0  0  0  0  0  0  0  0
   -0.6212    0.8850   -0.4428 C   0  0  1  0  0  0  0  0  0  0  0  0
    1.1977    3.0918   -1.2904 C   0  0  0  0  0  0  0  0  0  0  0  0
    0.0683    3.8146    0.7255 C   0  0  0  0  0  0  0  0  0  0  0  0
    1.3502   -0.4651   -0.4095 C   0  0  1  0  0  0  0  0  0  0  0  0
   -0.2015   -0.5438   -0.5020 C   0  0  1  0  0  0  0  0  0  0  0  0
   -1.9065    1.0618    0.1476 O   0  0  0  0  0  0  0  0  0  0  0  0
    0.9912    4.3423   -1.7722 N   0  0  0  0  0  0  0  0  0  0  0  0
    1.6937    2.2519   -2.0454 O   0  0  0  0  0  0  0  0  0  0  0  0
   -0.2947    4.9620    0.1622 C   0  0  0  0  0  0  0  0  0  0  0  0
    2.0329   -0.7559   -1.7676 C   0  0  0  0  0  0  0  0  0  0  0  0
   -0.8102   -1.2810    0.5847 O   0  0  0  0  0  0  0  0  0  0  0  0
    0.0846    5.2082   -1.2399 C   0  0  0  0  0  0  0  0  0  0  0  0
    1.3373   -1.7441   -2.5724 O   0  0  0  0  0  0  0  0  0  0  0  0
   -0.3991    6.1304   -1.8734 O   0  0  0  0  0  0  0  0  0  0  0  0
    1.2796   -3.3125   -1.8445 P   0  0  2  0  0  0  0  0  0  0  0  0
    3.0085   -3.3723   -1.8362 O   0  0  0  0  0  0  0  0  0  0  0  0
    0.9588   -2.7641   -0.3735 O   0  0  0  0  0  0  0  0  0  0  0  0
    1.2279   -4.7161   -1.1930 O   0  0  0  0  0  0  0  0  0  0  0  0
    3.5682   -4.0783   -3.3131 P   0  0  1  0  0  0  0  0  0  0  0  0
    2.8050   -2.8677   -4.1667 O   0  0  0  0  0  0  0  0  0  0  0  0
    4.9663   -3.3130   -2.9359 O   0  0  0  0  0  0  0  0  0  0  0  0
    4.0690   -4.7103   -4.6349 O   0  0  0  0  0  0  0  0  0  0  0  0
    1.5292   -3.2177   -4.7309 C   0  0  1  0  0  0  0  0  0  0  0  0
    0.5706   -2.1526   -4.6282 O   0  0  0  0  0  0  0  0  0  0  0  0
    1.5088   -3.6616   -6.1706 C   0  0  1  0  0  0  0  0  0  0  0  0
    1.0243   -0.9361   -5.2462 C   0  0  1  0  0  0  0  0  0  0  0  0
    1.8731   -2.4751   -7.0619 C   0  0  2  0  0  0  0  0  0  0  0  0
    2.3023   -4.8147   -6.3957 O   0  0  0  0  0  0  0  0  0  0  0  0
    1.0224   -1.2139   -6.7423 C   0  0  2  0  0  0  0  0  0  0  0  0
    0.0585    0.2177   -4.9218 C   0  0  0  0  0  0  0  0  0  0  0  0
    1.6729   -2.8455   -8.4282 O   0  0  0  0  0  0  0  0  0  0  0  0
    1.4875   -0.0791   -7.4680 O   0  0  0  0  0  0  0  0  0  0  0  0
    0.6261    1.3506   -4.4402 O   0  0  0  0  0  0  0  0  0  0  0  0
   -1.1558    0.1424   -5.0528 O   0  0  0  0  0  0  0  0  0  0  0  0
  1  3  1  0
  1  4  1  0
  1  2  1  6
  2  5  1  0
  2  6  1  0
  3  7  1  0
  4  8  1  0
  4  9  1  1
  5 10  1  0
  5 11  2  0
  6 12  2  0
  7  8  1  0
  7 13  1  6
  8 14  1  1
 10 15  1  0
 12 15  1  0
 13 16  1  0
 15 17  2  0
 16 18  1  0
 18 19  1  0
 18 20  1  1
 18 21  2  0
 19 22  1  0
 22 23  1  0
 22 24  1  1
 22 25  2  0
 26 23  1  6
 26 27  1  0
 26 28  1  0
 27 29  1  0
 28 30  1  0
 28 31  1  1
 29 32  1  0
 29 33  1  6
 30 34  1  6
 30 32  1  0
 32 35  1  6
 33 36  1  0
 33 37  2  0
M  END
>  <DRUGBANK_ID>  (1) 
DB03041

>  <SECONDARY_ACCESSION_NUMBERS>  (1) 
EXPT03177

>  <COMMON_NAME>  (1) 
UDP-alpha-D-glucuronic acid

>  <CAS_NUMBER>  (1) 
2616-64-0

>  <UNII>  (1) 
04SZC4MEFQ

>  <SYNONYMS>  (1) 
UDP-alpha-D-glucuronate; UDP-D-glucuronate; UDP-glucuronate; UDP-Glucuronic Acid; UDPglucuronate; uridine diphosphate glucuronic acid; Uridine-5'-diphosphate-glucuronic acid

$$$$
