
     RDKit          3D

 30 33  0  0  0  0  0  0  0  0999 V2000
   -1.2832   -0.0507   -3.8626 C   0  0  0  0  0  0  0  0  0  0  0  0
    0.1859   -0.4679   -3.8362 C   0  0  0  0  0  0  0  0  0  0  0  0
    0.2987   -1.9962   -3.8072 C   0  0  0  0  0  0  0  0  0  0  0  0
    0.7304   -0.0079   -5.0725 O   0  0  0  0  0  0  0  0  0  0  0  0
    0.9685    0.1366   -2.6233 C   0  0  1  0  0  0  0  0  0  0  0  0
    2.5022    0.0169   -2.8008 C   0  0  0  0  0  0  0  0  0  0  0  0
    3.0612    0.9651   -3.8674 C   0  0  0  0  0  0  0  0  0  0  0  0
    2.5906    2.4075   -3.6535 C   0  0  1  0  0  0  0  0  0  0  0  0
    1.0837    2.5404   -3.4224 C   0  0  0  0  0  0  0  0  0  0  0  0
    0.6134    1.6045   -2.3150 C   0  0  0  0  0  0  0  0  0  0  0  0
    3.2573    2.9656   -2.4776 N   0  0  0  0  0  0  0  0  0  0  0  0
    4.1871    3.9574   -2.6089 C   0  0  0  0  0  0  0  0  0  0  0  0
    3.6823    5.2576   -3.1264 C   0  0  0  0  0  0  0  0  0  0  0  0
    4.5336    6.2880   -3.2084 C   0  0  0  0  0  0  0  0  0  0  0  0
    5.8691    6.0876   -2.8361 C   0  0  0  0  0  0  0  0  0  0  0  0
    6.8759    6.9358   -2.8262 N   0  0  0  0  0  0  0  0  0  0  0  0
    7.9310    6.2086   -2.3594 C   0  0  0  0  0  0  0  0  0  0  0  0
    7.5790    4.8980   -2.0817 C   0  0  0  0  0  0  0  0  0  0  0  0
    8.4246    3.8222   -1.5913 C   0  0  0  0  0  0  0  0  0  0  0  0
    8.6451    2.6707   -2.3537 C   0  0  0  0  0  0  0  0  0  0  0  0
    9.6095    1.7408   -1.9615 C   0  0  0  0  0  0  0  0  0  0  0  0
   10.3830    1.9756   -0.8262 C   0  0  0  0  0  0  0  0  0  0  0  0
   10.2043    3.1462   -0.0778 C   0  0  0  0  0  0  0  0  0  0  0  0
    9.1737    4.0293   -0.4274 C   0  0  0  0  0  0  0  0  0  0  0  0
   11.1869    3.5367    0.9936 C   0  0  0  0  0  0  0  0  0  0  0  0
   11.8071    4.7161    0.7012 F   0  0  0  0  0  0  0  0  0  0  0  0
   10.6158    3.7062    2.2152 F   0  0  0  0  0  0  0  0  0  0  0  0
   12.1895    2.6301    1.1641 F   0  0  0  0  0  0  0  0  0  0  0  0
    6.2350    4.8267   -2.3842 N   0  0  0  0  0  0  0  0  0  0  0  0
    5.4140    3.7363   -2.2325 N   0  0  0  0  0  0  0  0  0  0  0  0
  1  2  1  0
  2  3  1  0
  2  4  1  0
  5  6  1  0
  5 10  1  0
  5  2  1  6
  6  7  1  0
  8  7  1  0
  8  9  1  0
  8 11  1  1
  9 10  1  0
 11 12  1  0
 12 13  1  0
 12 30  2  0
 13 14  2  0
 14 15  1  0
 15 16  2  0
 15 29  1  0
 16 17  1  0
 17 18  2  0
 18 19  1  0
 18 29  1  0
 19 20  2  0
 19 24  1  0
 20 21  1  0
 21 22  2  0
 22 23  1  0
 23 24  2  0
 23 25  1  0
 25 26  1  0
 25 27  1  0
 25 28  1  0
 29 30  1  0
M  END
>  <DRUGBANK_ID>  (1) 
DB18109

>  <COMMON_NAME>  (1) 
TP-3654

>  <CAS_NUMBER>  (1) 
1361951-15-6

>  <UNII>  (1) 
EOB0N7BOY4

>  <SYNONYMS>  (1) 
2-(4-((3-(3-(trifluoromethyl)phenyl)imidazo(1,2-b)pyridazin-6-yl)amino)cyclohexyl)propan-2-ol; 2-(trans-4-((3-(3-(trifluoromethyl)phenyl)imidazo[1,2-b]pyridazin6-yl)amino)cyclohexyl)propan-2-ol hydrochloride; 4-((3-(3-(trifluoromethyl)phenyl)imidazo(1,2-b)pyridazin-6-yl)amino) -trans-cyclohexyl)propan-2-ol

$$$$
