
     RDKit          3D

 21 20  0  0  0  0  0  0  0  0999 V2000
   -4.5310    0.2678   -2.5974 O   0  0  0  0  0  0  0  0  0  0  0  0
    0.8388    4.2317    1.3814 O   0  0  0  0  0  0  0  0  0  0  0  0
   -2.5442   -0.0618   -3.5822 O   0  0  0  0  0  0  0  0  0  0  0  0
   -5.9658    4.5337   -3.1833 O   0  0  0  0  0  0  0  0  0  0  0  0
   -3.6215    0.9399    1.8845 O   0  0  0  0  0  0  0  0  0  0  0  0
   -3.8990    2.4817    3.4862 O   0  0  0  0  0  0  0  0  0  0  0  0
   -4.2409    3.0953   -3.1956 N   0  0  0  0  0  0  0  0  0  0  0  0
   -1.1687    3.3733    1.7726 N   0  0  0  0  0  0  0  0  0  0  0  0
   -5.4420    2.6188   -0.3731 N   0  0  0  0  0  0  0  0  0  0  0  0
   -1.5841    1.3477   -0.8098 C   0  0  0  0  0  0  0  0  0  0  0  0
   -2.7604    2.1623   -1.3642 C   0  0  0  0  0  0  0  0  0  0  0  0
   -0.2910    2.0349   -1.1340 C   0  0  0  0  0  0  0  0  0  0  0  0
   -3.1171    2.1792   -2.8232 C   0  0  1  0  0  0  0  0  0  0  0  0
   -0.2207    3.4901   -0.6306 C   0  0  0  0  0  0  0  0  0  0  0  0
   -0.1675    3.7071    0.8943 C   0  0  0  0  0  0  0  0  0  0  0  0
   -3.3850    0.7263   -3.1318 C   0  0  0  0  0  0  0  0  0  0  0  0
   -2.5901    3.1755    1.5485 C   0  0  2  0  0  0  0  0  0  0  0  0
   -5.1964    3.8229   -2.5314 C   0  0  0  0  0  0  0  0  0  0  0  0
   -3.2678    4.4977    1.2539 C   0  0  0  0  0  0  0  0  0  0  0  0
   -5.2086    3.9076   -1.0262 C   0  0  0  0  0  0  0  0  0  0  0  0
   -3.4086    2.1815    2.3997 C   0  0  0  0  0  0  0  0  0  0  0  0
  1 16  1  0
  2 15  2  0
  3 16  2  0
  4 18  2  0
  5 21  1  0
  6 21  2  0
  7 18  1  0
  8 15  1  0
  9 20  1  0
 10 11  1  0
 10 12  1  0
 13 11  1  1
 12 14  1  0
 13  7  1  0
 13 16  1  0
 14 15  1  0
 17 21  1  0
 17 19  1  1
 17  8  1  0
 18 20  1  0
M  END
>  <DRUGBANK_ID>  (1) 
DB03927

>  <SECONDARY_ACCESSION_NUMBERS>  (1) 
EXPT02774

>  <COMMON_NAME>  (1) 
Glycyl-L-alpha-amino-epsilon-pimelyl-D-alanine

$$$$
