277
     RDKit          3D

 23 24  0  0  0  0  0  0  0  0999 V2000
   -3.2337   -1.7715   -2.3944 C   0  0  0  0  0  0  0  0  0  0  0  0
   -1.9082   -2.2474   -1.8259 C   0  0  0  0  0  0  0  0  0  0  0  0
   -1.6094   -3.6853   -2.2041 C   0  0  2  0  0  0  0  0  0  0  0  0
   -1.5110   -3.7912   -3.7237 C   0  0  0  0  0  0  0  0  0  0  0  0
   -2.7789   -3.3029   -4.4361 C   0  0  0  0  0  0  0  0  0  0  0  0
   -3.2377   -1.9016   -3.9341 C   0  0  2  0  0  0  0  0  0  0  0  0
   -2.5807   -4.7260   -1.5679 C   0  0  1  0  0  0  0  0  0  0  0  0
   -2.4344   -4.7046   -0.0158 C   0  0  1  0  0  0  0  0  0  0  0  0
   -3.7453   -4.3457    0.7615 C   0  0  0  0  0  0  0  0  0  0  0  0
   -3.7847   -3.1770    1.4906 N   0  0  0  0  0  0  0  0  0  0  0  0
   -2.3990   -0.8205   -4.4960 N   0  0  0  0  0  0  0  0  0  0  0  0
   -2.6436    0.4988   -4.0845 C   0  0  0  0  0  0  0  0  0  0  0  0
   -1.3024   -1.1249   -5.4093 C   0  0  0  0  0  0  0  0  0  0  0  0
   -1.6383    1.5127   -4.5496 C   0  0  0  0  0  0  0  0  0  0  0  0
   -3.5730    0.8569   -3.3840 O   0  0  0  0  0  0  0  0  0  0  0  0
   -4.7006   -5.1317    0.7845 O   0  0  0  0  0  0  0  0  0  0  0  0
   -2.0211   -6.0611    0.4195 N   0  0  0  0  0  0  0  0  0  0  0  0
   -4.0738   -4.6847   -1.9288 C   0  0  0  0  0  0  0  0  0  0  0  0
   -3.2750   -1.8655    1.1343 C   0  0  0  0  0  0  0  0  0  0  0  0
   -4.1554   -0.8678    1.8588 C   0  0  2  0  0  0  0  0  0  0  0  0
   -4.5916   -1.6275    3.0874 C   0  0  0  0  0  0  0  0  0  0  0  0
   -4.6798   -3.0738    2.6166 C   0  0  0  0  0  0  0  0  0  0  0  0
   -5.2485   -0.6064    1.0877 F   0  0  0  0  0  0  0  0  0  0  0  0
  1  2  1  0
  1  6  1  0
  3  2  1  6
  3  4  1  0
  3  7  1  0
  4  5  1  0
  5  6  1  0
  6 11  1  6
  7 18  1  1
  8  9  1  0
  8 17  1  1
  8  7  1  0
  9 10  1  0
  9 16  2  0
 10 19  1  0
 10 22  1  0
 11 13  1  0
 11 12  1  0
 12 15  2  0
 12 14  1  0
 19 20  1  0
 20 21  1  0
 20 23  1  6
 21 22  1  0
M  END
>  <DRUGBANK_ID>  (1) 
DB06939

>  <COMMON_NAME>  (1) 
N-(TRANS-4-{(1S,2S)-2-AMINO-3-[(3S)-3-FLUOROPYRROLIDIN-1-YL]-1-METHYL-3-OXOPROPYL}CYCLOHEXYL)-N-METHYLACETAMIDE

$$$$
