
     RDKit          3D

 30 33  0  0  1  0  0  0  0  0999 V2000
    1.1347    0.1767    0.2246 N   0  0  0  0  0  0  0  0  0  0  0  0
    0.6442   -0.9436    0.8269 C   0  0  0  0  0  0  0  0  0  0  0  0
   -0.4583   -1.4872    0.4664 N   0  0  0  0  0  0  0  0  0  0  0  0
    1.3766   -1.6402    1.8962 C   0  0  0  0  0  0  0  0  0  0  0  0
    2.3590   -1.0303    2.6541 C   0  0  0  0  0  0  0  0  0  0  0  0
    3.0809   -1.8189    3.5485 C   0  0  0  0  0  0  0  0  0  0  0  0
    2.7691   -3.1819    3.7102 C   0  0  0  0  0  0  0  0  0  0  0  0
    3.5139   -3.9607    4.5473 O   0  0  0  0  0  0  0  0  0  0  0  0
    1.7226   -3.7825    3.0149 C   0  0  0  0  0  0  0  0  0  0  0  0
    1.3439   -5.2388    3.1434 C   0  0  0  0  0  0  0  0  0  0  0  0
    0.0004   -5.4433    3.6738 N   0  0  0  0  0  0  0  0  0  0  0  0
   -0.2483   -6.1009    4.9338 C   0  0  0  0  0  0  0  0  0  0  0  0
   -1.7423   -6.4122    4.8912 C   0  0  0  0  0  0  0  0  0  0  0  0
   -2.2972   -5.2862    4.0358 C   0  0  2  0  0  0  0  0  0  0  0  0
   -3.5666   -5.6122    3.3723 N   0  0  0  0  0  0  0  0  0  0  0  0
   -4.6776   -4.3482    3.2607 S   0  0  0  0  0  0  0  0  0  0  0  0
   -5.7714   -4.8215    2.4488 O   0  0  0  0  0  0  0  0  0  0  0  0
   -4.9118   -3.9169    4.6283 O   0  0  0  0  0  0  0  0  0  0  0  0
   -3.9992   -2.9478    2.3944 C   0  0  0  0  0  0  0  0  0  0  0  0
   -4.0642   -2.5125    1.0796 C   0  0  0  0  0  0  0  0  0  0  0  0
   -3.4255   -1.2411    0.8823 C   0  0  0  0  0  0  0  0  0  0  0  0
   -2.8524   -0.7767    2.0663 C   0  0  0  0  0  0  0  0  0  0  0  0
   -3.0964   -1.8621    3.3584 S   0  0  0  0  0  0  0  0  0  0  0  0
   -2.1100    0.4130    2.0872 C   0  0  0  0  0  0  0  0  0  0  0  0
   -1.9721    1.1031    0.8890 C   0  0  0  0  0  0  0  0  0  0  0  0
   -2.5870    0.5925   -0.2436 C   0  0  0  0  0  0  0  0  0  0  0  0
   -3.3106   -0.5532   -0.2987 N   0  0  0  0  0  0  0  0  0  0  0  0
   -1.1863   -5.1299    3.0243 C   0  0  0  0  0  0  0  0  0  0  0  0
   -1.3421   -4.7927    1.8597 O   0  0  0  0  0  0  0  0  0  0  0  0
    1.0509   -2.9835    2.0972 C   0  0  0  0  0  0  0  0  0  0  0  0
  1  2  1  0
  2  3  2  0
  2  4  1  0
  4  5  2  0
  4 30  1  0
  5  6  1  0
  6  7  2  0
  7  8  1  0
  7  9  1  0
  9 10  1  0
  9 30  2  0
 10 11  1  0
 11 12  1  0
 11 28  1  0
 12 13  1  0
 13 14  1  0
 14 28  1  0
 14 15  1  6
 15 16  1  0
 16 17  2  0
 16 18  2  0
 16 19  1  0
 19 20  2  0
 19 23  1  0
 20 21  1  0
 21 22  2  0
 21 27  1  0
 22 23  1  0
 22 24  1  0
 24 25  2  0
 25 26  1  0
 26 27  2  0
 28 29  2  0
M  END
>  <DRUGBANK_ID>  (1) 
DB02744

>  <SECONDARY_ACCESSION_NUMBERS>  (1) 
EXPT02653

>  <COMMON_NAME>  (1) 
RPR131247

$$$$
