
     RDKit          3D

 30 31  0  0  1  0  0  0  0  0999 V2000
   -2.8778    1.1566   -2.0702 O   0  0  0  0  0  0  0  0  0  0  0  0
   -1.4284    1.1430   -1.9964 C   0  0  0  0  0  0  0  0  0  0  0  0
   -0.8881    0.6891   -3.3320 C   0  0  1  0  0  0  0  0  0  0  0  0
   -1.4242    1.7120   -4.1718 O   0  0  0  0  0  0  0  0  0  0  0  0
    0.5964    0.4768   -3.6088 C   0  0  2  0  0  0  0  0  0  0  0  0
    1.2524    0.6904   -2.3532 O   0  0  0  0  0  0  0  0  0  0  0  0
    1.0971    1.3980   -4.7684 C   0  0  1  0  0  0  0  0  0  0  0  0
    2.5396    1.3258   -4.7889 O   0  0  0  0  0  0  0  0  0  0  0  0
    0.6483    1.0982   -6.2632 C   0  0  0  0  0  0  0  0  0  0  0  0
   -0.7435    1.0122   -6.6222 N   0  0  0  0  0  0  0  0  0  0  0  0
   -1.4579   -0.0604   -6.1417 C   0  0  0  0  0  0  0  0  0  0  0  0
   -0.8706   -0.9882   -5.5757 O   0  0  0  0  0  0  0  0  0  0  0  0
   -2.8106    0.2812   -6.2535 N   0  0  0  0  0  0  0  0  0  0  0  0
   -3.8555   -0.2264   -5.4689 C   0  0  0  0  0  0  0  0  0  0  0  0
   -3.8589   -1.7117   -5.6285 C   0  0  0  0  0  0  0  0  0  0  0  0
   -2.8391   -2.5356   -4.7629 C   0  0  0  0  0  0  0  0  0  0  0  0
   -2.6697   -2.2352   -3.2628 C   0  0  0  0  0  0  0  0  0  0  0  0
   -3.7950   -2.6722   -2.5400 O   0  0  0  0  0  0  0  0  0  0  0  0
   -5.2698   -2.0203   -3.1668 P   0  0  0  0  0  0  0  0  0  0  0  0
   -4.5760   -0.6043   -3.1636 O   0  0  0  0  0  0  0  0  0  0  0  0
   -5.2312   -3.2547   -4.1950 O   0  0  0  0  0  0  0  0  0  0  0  0
   -6.5898   -1.4370   -3.7279 O   0  0  0  0  0  0  0  0  0  0  0  0
   -2.8917    1.4702   -6.8855 C   0  0  0  0  0  0  0  0  0  0  0  0
   -1.6617    1.8913   -7.1342 C   0  0  0  0  0  0  0  0  0  0  0  0
   -1.4494    2.9846   -7.8782 N   0  0  0  0  0  0  0  0  0  0  0  0
   -2.4967    3.6149   -8.5045 C   0  0  0  0  0  0  0  0  0  0  0  0
   -2.2994    4.4645   -9.3694 O   0  0  0  0  0  0  0  0  0  0  0  0
   -3.7684    3.2350   -8.1459 N   0  0  0  0  0  0  0  0  0  0  0  0
   -4.0925    2.2139   -7.2922 C   0  0  0  0  0  0  0  0  0  0  0  0
   -5.2325    1.9583   -6.9664 O   0  0  0  0  0  0  0  0  0  0  0  0
  1  2  1  0
  2  3  1  0
  3  4  1  6
  5  7  1  0
  5  6  1  1
  5  3  1  0
  7  8  1  6
  7  9  1  0
  9 10  1  0
 10 11  1  0
 10 24  1  0
 11 12  2  0
 11 13  1  0
 13 14  1  0
 13 23  1  0
 14 15  1  0
 15 16  1  0
 16 17  1  0
 17 18  1  0
 18 19  1  0
 19 20  1  0
 19 21  1  0
 19 22  2  0
 23 24  2  0
 23 29  1  0
 24 25  1  0
 25 26  1  0
 26 27  2  0
 26 28  1  0
 28 29  1  0
 29 30  2  0
M  END
>  <DRUGBANK_ID>  (1) 
DB02711

>  <SECONDARY_ACCESSION_NUMBERS>  (1) 
EXPT03117

>  <COMMON_NAME>  (1) 
4-{2,6,8-Trioxo-9-[(2S,3R,4R)-2,3,4,5-Tetrahydroxypentyl]-1,2,3,6,8,9-Hexahydro-7h-Purin-7-Yl}Butyl Dihydrogen Phosphate

$$$$
