
     RDKit          3D

 28 31  0  0  0  0  0  0  0  0999 V2000
    1.4424   -0.3428    0.2501 C   0  0  0  0  0  0  0  0  0  0  0  0
    0.5751   -1.4446    0.1777 C   0  0  0  0  0  0  0  0  0  0  0  0
   -0.8026   -1.2472    0.2039 C   0  0  0  0  0  0  0  0  0  0  0  0
   -1.2899    0.0018    0.5538 C   0  0  0  0  0  0  0  0  0  0  0  0
   -0.4023    1.0494    0.8523 C   0  0  0  0  0  0  0  0  0  0  0  0
    0.9252    0.9522    0.4106 C   0  0  0  0  0  0  0  0  0  0  0  0
    1.7296    2.2008   -0.0800 C   0  0  0  0  0  0  0  0  0  0  0  0
    1.3672    2.7778   -1.4048 N   0  0  0  0  0  0  0  0  0  0  0  0
    1.8428    3.2793    0.9881 C   0  0  0  0  0  0  0  0  0  0  0  0
   -0.9091    1.4059   -2.7736 N   0  0  0  0  0  0  0  0  0  0  0  0
   -1.1008    2.4237   -1.7503 C   0  0  0  0  0  0  0  0  0  0  0  0
    0.0295    3.4011   -1.4592 C   0  0  0  0  0  0  0  0  0  0  0  0
    1.5891    1.8333   -2.5147 C   0  0  0  0  0  0  0  0  0  0  0  0
    0.4504    0.8300   -2.7453 C   0  0  0  0  0  0  0  0  0  0  0  0
    2.1514    2.8382    2.2743 C   0  0  0  0  0  0  0  0  0  0  0  0
    1.6660    4.6619    0.7670 C   0  0  0  0  0  0  0  0  0  0  0  0
    1.6913    5.5568    1.8258 C   0  0  0  0  0  0  0  0  0  0  0  0
    1.9472    5.0834    3.1068 C   0  0  0  0  0  0  0  0  0  0  0  0
    2.1955    3.7306    3.3273 C   0  0  0  0  0  0  0  0  0  0  0  0
   -1.3204    1.9318   -4.0615 C   0  0  0  0  0  0  0  0  0  0  0  0
   -0.5631    3.1459   -4.4691 C   0  0  0  0  0  0  0  0  0  0  0  0
    0.4468    3.1340   -5.3762 C   0  0  0  0  0  0  0  0  0  0  0  0
    1.3816    4.2504   -5.4711 C   0  0  0  0  0  0  0  0  0  0  0  0
    3.1445    5.6995   -4.5964 C   0  0  0  0  0  0  0  0  0  0  0  0
    2.1640    4.7314   -4.4003 C   0  0  0  0  0  0  0  0  0  0  0  0
    1.5780    4.7904   -6.7350 C   0  0  0  0  0  0  0  0  0  0  0  0
    2.5702    5.7454   -6.9367 C   0  0  0  0  0  0  0  0  0  0  0  0
    3.3469    6.2063   -5.8723 C   0  0  0  0  0  0  0  0  0  0  0  0
  1  2  2  0
  1  6  1  0
  2  3  1  0
  3  4  2  0
  4  5  1  0
  5  6  2  0
  6  7  1  0
  7  8  1  0
  7  9  1  0
  8 13  1  0
  9 16  1  0
 10 11  1  0
 10 14  1  0
 10 20  1  0
 11 12  1  0
 12  8  1  0
 13 14  1  0
 15  9  2  0
 15 19  1  0
 16 17  2  0
 17 18  1  0
 18 19  2  0
 20 21  1  0
 21 22  2  0
 22 23  1  0
 23 26  2  0
 24 25  2  0
 24 28  1  0
 25 23  1  0
 26 27  1  0
 27 28  2  0
M  END
>  <DRUGBANK_ID>  (1) 
DB00568

>  <SECONDARY_ACCESSION_NUMBERS>  (1) 
APRD00332

>  <COMMON_NAME>  (1) 
Cinnarizine

>  <CAS_NUMBER>  (1) 
298-57-7

>  <UNII>  (1) 
3DI2E1X18L

>  <SYNONYMS>  (1) 
1-(Diphenylmethyl)-4-(3-phenyl-2-propenyl)piperazine; 1-Benzhydryl-4-cinnamylpiperazin; 1-Cinnamyl-4-(diphenylmethyl)piperazine; Cinarizina; Cinnarizine; Cinnarizinum

$$$$
