
     RDKit          3D

 15 16  0  0  0  0  0  0  0  0999 V2000
    2.0105    0.1145    0.9298 C   0  0  0  0  0  0  0  0  0  0  0  0
    1.1961    1.6089    2.6782 C   0  0  0  0  0  0  0  0  0  0  0  0
   -1.2878   -0.7804   -1.7217 C   0  0  0  0  0  0  0  0  0  0  0  0
   -2.2472    4.3071    1.2409 C   0  0  0  0  0  0  0  0  0  0  0  0
    0.0573   -0.3687   -0.3877 C   0  0  0  0  0  0  0  0  0  0  0  0
   -0.2961    4.1279   -0.5114 C   0  0  0  0  0  0  0  0  0  0  0  0
   -0.6490   -0.7414    0.7265 C   0  0  0  0  0  0  0  0  0  0  0  0
    0.2943    3.1177   -1.2101 C   0  0  0  0  0  0  0  0  0  0  0  0
   -1.6539    1.2954    1.3135 C   0  0  0  0  0  0  0  0  0  0  0  0
    0.8635    0.3162    2.0436 C   0  0  0  0  0  0  0  0  0  0  0  0
   -0.3801    0.5647   -1.4265 C   0  0  0  0  0  0  0  0  0  0  0  0
   -1.3274    3.5840    0.3508 C   0  0  0  0  0  0  0  0  0  0  0  0
   -0.7092    0.3474    1.6465 C   0  0  0  0  0  0  0  0  0  0  0  0
   -0.4648    1.8574   -0.9131 C   0  0  0  0  0  0  0  0  0  0  0  0
   -1.2465    2.2006    0.2769 C   0  0  0  0  0  0  0  0  0  0  0  0
  7  5  2  0
  8  6  2  0
 10  1  1  0
 10  2  1  0
 11  3  1  0
 11  5  1  0
 12  4  1  0
 12  6  1  0
 13  7  1  0
 13  9  2  0
 13 10  1  0
 14  8  1  0
 14 11  2  0
 15  9  1  0
 15 12  2  0
 15 14  1  0
M  END
>  <DRUGBANK_ID>  (1) 
DB13329

>  <COMMON_NAME>  (1) 
Guaiazulen

>  <CAS_NUMBER>  (1) 
489-84-9

>  <UNII>  (1) 
2OZ1K9JKQC

>  <SYNONYMS>  (1) 
Guaiazulene

$$$$
