MI2
     RDKit          3D

 19 21  0  0  0  0  0  0  0  0999 V2000
   -0.2254   -0.7512    0.0441 C   0  0  0  0  0  0  0  0  0  0  0  0
   -0.2502    0.6401    0.0449 C   0  0  0  0  0  0  0  0  0  0  0  0
   -1.5767    1.0132    0.0716 N   0  0  0  0  0  0  0  0  0  0  0  0
   -2.3886   -0.0986    0.0092 C   0  0  0  0  0  0  0  0  0  0  0  0
   -1.5647   -1.2028    0.0360 C   0  0  0  0  0  0  0  0  0  0  0  0
   -3.8395   -0.0553   -0.1147 C   0  0  0  0  0  0  0  0  0  0  0  0
   -4.6081   -0.7106    0.8615 C   0  0  0  0  0  0  0  0  0  0  0  0
   -5.9981   -0.7526    0.7683 C   0  0  0  0  0  0  0  0  0  0  0  0
   -6.6343   -0.1538   -0.3134 C   0  0  0  0  0  0  0  0  0  0  0  0
   -5.8804    0.4828   -1.3015 C   0  0  0  0  0  0  0  0  0  0  0  0
   -4.4775    0.5390   -1.2190 C   0  0  0  0  0  0  0  0  0  0  0  0
   -3.7274    1.2079   -2.3396 C   0  0  0  0  0  0  0  0  0  0  0  0
    0.9176    1.4057    0.0110 C   0  0  0  0  0  0  0  0  0  0  0  0
    2.1386    0.7134   -0.0273 C   0  0  0  0  0  0  0  0  0  0  0  0
    2.2001   -0.6895   -0.0172 C   0  0  0  0  0  0  0  0  0  0  0  0
    1.0079   -1.4227    0.0239 C   0  0  0  0  0  0  0  0  0  0  0  0
    3.5220   -1.3975   -0.0583 C   0  0  0  0  0  0  0  0  0  0  0  0
    3.6540   -2.6912   -0.0515 N   0  0  0  0  0  0  0  0  0  0  0  0
    4.6912   -0.7162   -0.1070 N   0  0  0  0  0  0  0  0  0  0  0  0
  1  2  2  0
  1  5  1  0
  1 16  1  0
  2  3  1  0
  2 13  1  0
  3  4  1  0
  4  5  2  0
  4  6  1  0
  6  7  2  0
  6 11  1  0
  7  8  1  0
  8  9  2  0
  9 10  1  0
 10 11  2  0
 11 12  1  0
 13 14  2  0
 14 15  1  0
 15 16  2  0
 15 17  1  0
 17 18  2  0
 17 19  1  0
M  END
>  <DRUGBANK_ID>  (1) 
DB08184

>  <COMMON_NAME>  (1) 
2-(2-METHYLPHENYL)-1H-INDOLE-5-CARBOXIMIDAMIDE

$$$$
