
     RDKit          3D

 28 27  0  0  1  0  0  0  0  0999 V2000
   -5.9191   -4.4356   -6.7266 C   0  0  0  0  0  0  0  0  0  0  0  0
   -6.9430   -3.7297   -5.8856 C   0  0  0  0  0  0  0  0  0  0  0  0
   -7.0206   -4.7621   -4.7872 C   0  0  0  0  0  0  0  0  0  0  0  0
   -5.4339   -5.0476   -4.3742 C   0  0  0  0  0  0  0  0  0  0  0  0
   -3.5889   -4.1384   -4.0312 C   0  0  0  0  0  0  0  0  0  0  0  0
   -2.8674   -4.1154   -2.9908 O   0  0  0  0  0  0  0  0  0  0  0  0
   -3.0026   -2.9804   -4.5754 O   0  0  0  0  0  0  0  0  0  0  0  0
   -2.4144   -1.5019   -3.7708 C   0  0  0  0  0  0  0  0  0  0  0  0
   -3.3696   -0.1581   -2.8220 C   0  0  2  0  0  0  0  0  0  0  0  0
   -3.0024   -0.8137   -1.0504 C   0  0  0  0  0  0  0  0  0  0  0  0
   -3.6530   -2.3911   -0.7663 O   0  0  0  0  0  0  0  0  0  0  0  0
   -5.3822   -2.4132   -0.8137 P   0  0  1  0  0  0  0  0  0  0  0  0
   -5.9728   -4.3317   -0.0169 S   0  0  0  0  0  0  0  0  0  0  0  0
   -5.1644   -2.8016    1.2244 S   0  0  0  0  0  0  0  0  0  0  0  0
   -7.1114   -2.4353   -0.8611 O   0  0  0  0  0  0  0  0  0  0  0  0
   -7.8637   -3.4637   -1.9155 C   0  0  0  0  0  0  0  0  0  0  0  0
   -7.3110   -3.0557   -3.3735 C   0  0  0  0  0  0  0  0  0  0  0  0
   -5.3621   -3.1995   -3.3181 N   0  0  0  0  0  0  0  0  0  0  0  0
   -4.6964   -4.9072   -2.4077 C   0  0  0  0  0  0  0  0  0  0  0  0
   -4.9538   -2.2593   -4.9479 C   0  0  0  0  0  0  0  0  0  0  0  0
   -4.4739   -1.9443   -2.8342 C   0  0  0  0  0  0  0  0  0  0  0  0
   -5.1739    0.1937   -3.2573 O   0  0  0  0  0  0  0  0  0  0  0  0
   -6.4603   -0.5347   -3.0002 C   0  0  0  0  0  0  0  0  0  0  0  0
   -6.3506   -1.6854   -2.5250 O   0  0  0  0  0  0  0  0  0  0  0  0
   -7.9482   -0.7470   -2.4044 C   0  0  0  0  0  0  0  0  0  0  0  0
   -8.1277   -0.2370   -1.0416 C   0  0  0  0  0  0  0  0  0  0  0  0
   -7.4987    1.0178   -1.5017 C   0  0  0  0  0  0  0  0  0  0  0  0
   -7.9535    1.3119   -3.0357 C   0  0  0  0  0  0  0  0  0  0  0  0
  1  2  1  0
  2  3  1  0
  3  4  1  0
  4  5  1  0
  5  6  2  0
  5  7  1  0
  7  8  1  0
  9 22  1  0
  9 10  1  1
  9  8  1  0
 10 11  1  0
 12 11  1  0
 12 13  1  6
 12 14  2  0
 12 15  1  0
 15 16  1  0
 16 17  1  0
 17 18  1  0
 18 19  1  0
 18 20  1  0
 18 21  1  0
 22 23  1  0
 23 24  2  0
 23 25  1  0
 25 26  1  0
 26 27  1  0
 27 28  1  0
M  CHG  2  13  -1  18   1
M  END
>  <DRUGBANK_ID>  (1) 
DB02225

>  <SECONDARY_ACCESSION_NUMBERS>  (1) 
EXPT02514

>  <COMMON_NAME>  (1) 
1,2-Di-N-Pentanoyl-Sn-Glycero-3-Dithiophosphocholine

$$$$
