
     RDKit          3D

 23 26  0  0  0  0  0  0  0  0999 V2000
    0.9082    0.0882    0.0792 C   0  0  0  0  0  0  0  0  0  0  0  0
    0.2720   -0.9486   -0.7401 N   0  0  0  0  0  0  0  0  0  0  0  0
   -0.2593   -2.0381    0.0983 C   0  0  0  0  0  0  0  0  0  0  0  0
    0.8284   -2.7899    0.8820 C   0  0  0  0  0  0  0  0  0  0  0  0
    1.8030   -3.4972   -0.0880 C   0  0  0  0  0  0  0  0  0  0  0  0
    2.1650   -4.8410   -0.1337 C   0  0  0  0  0  0  0  0  0  0  0  0
    3.2739   -5.2591   -1.0938 C   0  0  0  0  0  0  0  0  0  0  0  0
    4.1652   -4.2683   -1.5624 C   0  0  0  0  0  0  0  0  0  0  0  0
    4.9460   -4.3332   -2.7049 C   0  0  0  0  0  0  0  0  0  0  0  0
    5.2482   -5.5829   -3.1507 C   0  0  0  0  0  0  0  0  0  0  0  0
    4.6122   -6.6748   -2.5441 C   0  0  0  0  0  0  0  0  0  0  0  0
    3.5716   -6.5367   -1.5627 C   0  0  0  0  0  0  0  0  0  0  0  0
    2.8648   -7.7952   -1.1120 C   0  0  0  0  0  0  0  0  0  0  0  0
    2.5311   -7.9610    0.3851 C   0  0  0  0  0  0  0  0  0  0  0  0
    1.5150   -7.0879    0.9539 N   0  0  0  0  0  0  0  0  0  0  0  0
    1.3705   -5.7173    0.7277 C   0  0  0  0  0  0  0  0  0  0  0  0
    0.3230   -5.3111    1.4185 N   0  0  0  0  0  0  0  0  0  0  0  0
   -0.1532   -6.3010    2.1761 C   0  0  0  0  0  0  0  0  0  0  0  0
    0.5209   -7.4625    1.8928 C   0  0  0  0  0  0  0  0  0  0  0  0
    0.1511   -8.7177    2.4926 C   0  0  0  0  0  0  0  0  0  0  0  0
    0.6995   -9.8086    2.2924 O   0  0  0  0  0  0  0  0  0  0  0  0
    2.3061   -2.3419   -0.9787 C   0  0  0  0  0  0  0  0  0  0  0  0
    1.2206   -1.5388   -1.6749 C   0  0  0  0  0  0  0  0  0  0  0  0
  1  2  1  0
  2  3  1  0
  2 23  1  0
  3  4  1  0
  4  5  1  0
  5  6  2  3
  5 22  1  0
  6  7  1  0
  6 16  1  0
  7  8  2  0
  7 12  1  0
  8  9  1  0
  9 10  2  0
 10 11  1  0
 11 12  2  0
 12 13  1  0
 13 14  1  0
 14 15  1  0
 15 16  1  0
 15 19  1  0
 16 17  2  0
 17 18  1  0
 18 19  2  0
 19 20  1  0
 20 21  2  0
 22 23  1  0
M  END
>  <DRUGBANK_ID>  (1) 
DB06766

>  <COMMON_NAME>  (1) 
Alcaftadine

>  <CAS_NUMBER>  (1) 
147084-10-4

>  <UNII>  (1) 
7Z8O94ECSX

>  <SYNONYMS>  (1) 
Alcaftadina; Alcaftadine; Alcaftadinum

$$$$
