II4
     RDKit          3D

 17 19  0  0  0  0  0  0  0  0999 V2000
   -2.1386   -0.7302    0.0359 C   0  0  0  0  0  0  0  0  0  0  0  0
   -0.9047   -1.3971    0.0136 C   0  0  0  0  0  0  0  0  0  0  0  0
    0.2887   -0.6506    0.0143 C   0  0  0  0  0  0  0  0  0  0  0  0
    0.2200    0.7411    0.0467 C   0  0  0  0  0  0  0  0  0  0  0  0
   -0.9923    1.4343    0.0363 C   0  0  0  0  0  0  0  0  0  0  0  0
    2.1796    5.3619    2.4958 C   0  0  0  0  0  0  0  0  0  0  0  0
    1.5350    1.1524    0.0040 N   0  0  0  0  0  0  0  0  0  0  0  0
    2.3159    0.0225   -0.0583 C   0  0  0  0  0  0  0  0  0  0  0  0
    1.5913   -1.0823   -0.0355 N   0  0  0  0  0  0  0  0  0  0  0  0
   -3.3273   -1.4396   -0.0964 N   0  0  0  0  0  0  0  0  0  0  0  0
    2.2992    4.5572    1.2342 C   0  0  0  0  0  0  0  0  0  0  0  0
    1.6909    3.3005    1.1212 C   0  0  0  0  0  0  0  0  0  0  0  0
   -2.1634    0.6686    0.0187 C   0  0  0  0  0  0  0  0  0  0  0  0
    2.8194    2.9427   -1.0057 C   0  0  0  0  0  0  0  0  0  0  0  0
    2.0085    2.4805    0.0313 C   0  0  0  0  0  0  0  0  0  0  0  0
    3.3018    4.2499   -0.9587 C   0  0  0  0  0  0  0  0  0  0  0  0
    3.0851    5.0340    0.1769 C   0  0  0  0  0  0  0  0  0  0  0  0
  1  2  2  0
  1 10  1  0
  1 13  1  0
  2  3  1  0
  3  4  2  0
  3  9  1  0
  4  5  1  0
  4  7  1  0
  5 13  2  0
  6 11  1  0
  7  8  1  0
  7 15  1  0
  8  9  2  0
 11 12  2  0
 11 17  1  0
 12 15  1  0
 14 15  2  0
 14 16  1  0
 16 17  2  0
M  END
>  <DRUGBANK_ID>  (1) 
DB07972

>  <COMMON_NAME>  (1) 
1-(3-METHYLPHENYL)-1H-BENZIMIDAZOL-5-AMINE

$$$$
