
     RDKit          3D

 15 15  0  0  1  0  0  0  0  0999 V2000
   -0.1575    0.0097   -0.0671 C   0  0  0  0  0  0  0  0  0  0  0  0
   -0.4016    0.7001    1.2696 C   0  0  0  0  0  0  0  0  0  0  0  0
   -1.0053    1.7865    1.3247 O   0  0  0  0  0  0  0  0  0  0  0  0
    0.2818    0.3169    2.4220 N   0  0  0  0  0  0  0  0  0  0  0  0
    1.5895   -0.4269    2.7377 C   0  0  2  0  0  0  0  0  0  0  0  0
    2.8651    0.4283    2.4579 C   0  0  1  0  0  0  0  0  0  0  0  0
    4.0627   -0.0635    3.0468 O   0  0  0  0  0  0  0  0  0  0  0  0
    3.0195    0.6272    0.9490 C   0  0  2  0  0  0  0  0  0  0  0  0
    2.0422    1.5694    0.5687 O   0  0  0  0  0  0  0  0  0  0  0  0
    2.9108   -0.7343    0.2069 C   0  0  1  0  0  0  0  0  0  0  0  0
    4.3023   -1.3416    0.1899 C   0  0  0  0  0  0  0  0  0  0  0  0
    4.6283   -1.7884   -1.1127 O   0  0  0  0  0  0  0  0  0  0  0  0
    2.0007   -1.7303    0.7680 O   0  0  0  0  0  0  0  0  0  0  0  0
    1.8208   -1.7830    2.1052 C   0  0  0  0  0  0  0  0  0  0  0  0
    1.9288   -2.8400    2.7308 O   0  0  0  0  0  0  0  0  0  0  0  0
  1  2  1  0
  2  3  2  0
  2  4  1  0
  5  4  1  6
  5  6  1  0
  5 14  1  0
  6  8  1  0
  6  7  1  6
  8  9  1  6
  8 10  1  0
 10 13  1  0
 10 11  1  1
 11 12  1  0
 13 14  1  0
 14 15  2  0
M  END
>  <DRUGBANK_ID>  (1) 
DB02813

>  <SECONDARY_ACCESSION_NUMBERS>  (1) 
EXPT01570

>  <COMMON_NAME>  (1) 
2-Acetamido-2-Deoxy-D-Glucono-1,5-Lactone

>  <CAS_NUMBER>  (1) 
19026-22-3

>  <UNII>  (1) 
09ICI1V6AX

$$$$
