
     RDKit          3D

 19 20  0  0  0  0  0  0  0  0999 V2000
    1.0149   -0.1068    0.0636 S   0  0  0  0  0  0  0  0  0  0  0  0
    0.3348    0.2013   -1.4298 N   0  0  0  0  0  0  0  0  0  0  0  0
   -0.3873   -0.5159   -2.3990 C   0  0  0  0  0  0  0  0  0  0  0  0
    0.6344   -1.7535    0.6368 C   0  0  0  0  0  0  0  0  0  0  0  0
    0.3578    0.8222    0.9760 O   0  0  0  0  0  0  0  0  0  0  0  0
    2.4417   -0.0439   -0.1144 O   0  0  0  0  0  0  0  0  0  0  0  0
   -0.6008   -0.0254   -3.4994 O   0  0  0  0  0  0  0  0  0  0  0  0
   -1.0442   -1.7763   -2.0529 C   0  0  0  0  0  0  0  0  0  0  0  0
   -0.3831   -1.9834    1.5790 C   0  0  0  0  0  0  0  0  0  0  0  0
    1.3161   -2.8373    0.0828 C   0  0  0  0  0  0  0  0  0  0  0  0
   -0.1735   -4.3966    1.2438 C   0  0  0  0  0  0  0  0  0  0  0  0
   -0.8085   -5.6397    1.2170 N   0  0  0  0  0  0  0  0  0  0  0  0
    0.8936   -4.1453    0.3708 C   0  0  0  0  0  0  0  0  0  0  0  0
   -0.7868   -3.3032    1.8675 C   0  0  0  0  0  0  0  0  0  0  0  0
   -1.8732   -1.7602   -0.9406 C   0  0  0  0  0  0  0  0  0  0  0  0
   -0.9606   -2.9256   -2.8468 C   0  0  0  0  0  0  0  0  0  0  0  0
   -1.6026   -4.0955   -2.4250 C   0  0  0  0  0  0  0  0  0  0  0  0
   -2.4860   -2.9317   -0.5155 C   0  0  0  0  0  0  0  0  0  0  0  0
   -2.2879   -4.1153   -1.2144 C   0  0  0  0  0  0  0  0  0  0  0  0
  2  1  1  0
  3  2  1  0
  4  1  1  0
  5  1  2  0
  6  1  2  0
  7  3  2  0
  8  3  1  0
  9  4  2  0
 10  4  1  0
 11 13  1  0
 11 14  2  0
 12 11  1  0
 13 10  2  0
 14  9  1  0
 15  8  2  0
 16  8  1  0
 17 16  2  0
 18 15  1  0
 18 19  2  0
 19 17  1  0
M  END
>  <DRUGBANK_ID>  (1) 
DB09355

>  <COMMON_NAME>  (1) 
Sulfabenzamide

>  <CAS_NUMBER>  (1) 
127-71-9

>  <UNII>  (1) 
G58F8OPL4I

>  <SYNONYMS>  (1) 
N-Benzoylsulfanilamide; N-Sulfanilylbenzamide; Sulfabenzamida; Sulfabenzamide; Sulfabenzamidum; Sulfabenzoylamide; Sulfamylbenzamide

$$$$
