KPV
     RDKit          3D

 14 14  0  0  0  0  0  0  0  0999 V2000
    1.3115   -0.2469    0.0782 C   0  0  0  0  0  0  0  0  0  0  0  0
    0.7502    1.0410    0.1331 C   0  0  0  0  0  0  0  0  0  0  0  0
   -0.6204    1.2542    0.0799 C   0  0  0  0  0  0  0  0  0  0  0  0
   -1.4685    0.1658   -0.0152 C   0  0  0  0  0  0  0  0  0  0  0  0
   -0.9402   -1.1254   -0.0318 C   0  0  0  0  0  0  0  0  0  0  0  0
    0.4401   -1.3327    0.0057 C   0  0  0  0  0  0  0  0  0  0  0  0
    2.8003   -0.4937    0.1655 C   0  0  0  0  0  0  0  0  0  0  0  0
    3.6116    0.0948   -0.9971 C   0  0  0  0  0  0  0  0  0  0  0  0
    3.5274    1.6129   -1.1482 C   0  0  0  0  0  0  0  0  0  0  0  0
    3.9311    2.3329    0.1339 C   0  0  0  0  0  0  0  0  0  0  0  0
    5.0193    3.3911    0.0602 C   0  0  0  0  0  0  0  0  0  0  0  0
    5.4702    3.9730    1.0309 O   0  0  0  0  0  0  0  0  0  0  0  0
    5.4460    3.6397   -1.1762 O   0  0  0  0  0  0  0  0  0  0  0  0
    3.4250    2.1329    1.2352 O   0  0  0  0  0  0  0  0  0  0  0  0
  1  6  2  0
  1  2  1  0
  1  7  1  0
  2  3  2  0
  3  4  1  0
  4  5  2  0
  5  6  1  0
  7  8  1  0
  8  9  1  0
  9 10  1  0
 10 11  1  0
 10 14  2  0
 11 12  2  0
 11 13  1  0
M  END
>  <DRUGBANK_ID>  (1) 
DB08050

>  <COMMON_NAME>  (1) 
5-phenyl-2-keto-valeric acid

$$$$
