
     RDKit          3D

 42 46  0  0  0  0  0  0  0  0999 V2000
    1.1002    0.0656   -0.1318 N   0  0  0  0  0  0  0  0  0  0  0  0
    0.3532    0.0052   -1.3901 C   0  0  0  0  0  0  0  0  0  0  0  0
    0.5574   -1.3455   -2.0940 C   0  0  0  0  0  0  0  0  0  0  0  0
   -0.0134   -1.3474   -3.4833 C   0  0  0  0  0  0  0  0  0  0  0  0
    0.4268   -0.1996   -4.1979 O   0  0  0  0  0  0  0  0  0  0  0  0
   -0.0477    1.0169   -3.6223 C   0  0  0  0  0  0  0  0  0  0  0  0
    0.5459    1.2474   -2.2493 C   0  0  0  0  0  0  0  0  0  0  0  0
    0.3781    0.1734    1.0769 C   0  0  0  0  0  0  0  0  0  0  0  0
    0.8134    1.1370    2.0295 C   0  0  0  0  0  0  0  0  0  0  0  0
    0.1823    1.2738    3.2429 C   0  0  0  0  0  0  0  0  0  0  0  0
    0.4983    2.2188    4.3292 C   0  0  0  0  0  0  0  0  0  0  0  0
    0.7915    1.7649    5.6336 C   0  0  0  0  0  0  0  0  0  0  0  0
    1.1634    2.6511    6.6505 C   0  0  0  0  0  0  0  0  0  0  0  0
    1.1598    4.0249    6.4093 C   0  0  0  0  0  0  0  0  0  0  0  0
    1.9033    4.9747    7.3360 C   0  0  0  0  0  0  0  0  0  0  0  0
    3.1589    5.6047    6.8530 N   0  0  0  0  0  0  0  0  0  0  0  0
    3.0286    6.3689    5.5976 C   0  0  0  0  0  0  0  0  0  0  0  0
    3.1797    5.5133    4.3168 C   0  0  0  0  0  0  0  0  0  0  0  0
    4.3726    4.7259    4.3188 O   0  0  0  0  0  0  0  0  0  0  0  0
    4.3472    3.8609    5.4728 C   0  0  0  0  0  0  0  0  0  0  0  0
    4.3375    4.7195    6.7430 C   0  0  0  0  0  0  0  0  0  0  0  0
    0.5527    4.4735    5.2253 C   0  0  0  0  0  0  0  0  0  0  0  0
    0.3327    3.5883    4.1572 C   0  0  0  0  0  0  0  0  0  0  0  0
   -0.8973    0.4423    3.4586 C   0  0  0  0  0  0  0  0  0  0  0  0
   -1.4260   -0.5171    2.6100 C   0  0  0  0  0  0  0  0  0  0  0  0
   -2.6119   -1.3617    3.0185 C   0  0  0  0  0  0  0  0  0  0  0  0
   -3.1009   -2.2467    2.3337 O   0  0  0  0  0  0  0  0  0  0  0  0
   -3.2638   -1.2387    4.2043 N   0  0  0  0  0  0  0  0  0  0  0  0
   -3.1615   -0.4009    5.3730 C   0  0  0  0  0  0  0  0  0  0  0  0
   -4.3088    0.5185    5.4705 C   0  0  0  0  0  0  0  0  0  0  0  0
   -4.0536    1.9958    5.3973 C   0  0  0  0  0  0  0  0  0  0  0  0
   -2.9327    2.4786    5.1794 O   0  0  0  0  0  0  0  0  0  0  0  0
   -5.1336    2.8055    5.6179 N   0  0  0  0  0  0  0  0  0  0  0  0
   -6.3967    2.3248    5.8678 C   0  0  0  0  0  0  0  0  0  0  0  0
   -7.5091    3.2834    6.1022 C   0  0  0  0  0  0  0  0  0  0  0  0
   -6.6176    1.0048    5.9052 C   0  0  0  0  0  0  0  0  0  0  0  0
   -5.5474    0.0646    5.7184 C   0  0  0  0  0  0  0  0  0  0  0  0
   -5.8755   -1.3915    5.8430 C   0  0  0  0  0  0  0  0  0  0  0  0
   -0.7651   -0.6656    1.3834 C   0  0  0  0  0  0  0  0  0  0  0  0
   -1.1831   -1.7611    0.4430 C   0  0  0  0  0  0  0  0  0  0  0  0
    2.5764    0.0885   -0.0527 C   0  0  0  0  0  0  0  0  0  0  0  0
    3.3686   -0.0314   -1.3498 C   0  0  0  0  0  0  0  0  0  0  0  0
  1  2  1  0
  1  8  1  0
  1 41  1  0
  2  3  1  0
  2  7  1  0
  3  4  1  0
  4  5  1  0
  6  5  1  0
  7  6  1  0
  8  9  2  0
  8 39  1  0
  9 10  1  0
 10 11  1  0
 10 24  2  0
 11 12  2  0
 11 23  1  0
 12 13  1  0
 13 14  2  0
 14 15  1  0
 15 16  1  0
 16 17  1  0
 16 21  1  0
 17 18  1  0
 18 19  1  0
 20 19  1  0
 21 20  1  0
 22 14  1  0
 23 22  2  0
 25 24  1  0
 25 26  1  0
 26 27  2  0
 26 28  1  0
 28 29  1  0
 29 30  1  0
 30 31  1  0
 30 37  2  0
 31 32  2  0
 31 33  1  0
 33 34  1  0
 34 35  1  0
 36 34  2  0
 37 36  1  0
 37 38  1  0
 39 25  2  0
 39 40  1  0
 41 42  1  0
M  END
>  <DRUGBANK_ID>  (1) 
DB12887

>  <COMMON_NAME>  (1) 
Tazemetostat

>  <CAS_NUMBER>  (1) 
1403254-99-8

>  <UNII>  (1) 
Q40W93WPE1

>  <SYNONYMS>  (1) 
Tazemetostat; Tazémétostat; Tazemetostatum

$$$$
