
     RDKit          3D

 22 24  0  0  0  0  0  0  0  0999 V2000
    1.4272   -0.2634    0.0178 C   0  0  0  0  0  0  0  0  0  0  0  0
    0.5208   -1.3244    0.0226 C   0  0  0  0  0  0  0  0  0  0  0  0
   -0.8545   -1.0824   -0.0179 C   0  0  0  0  0  0  0  0  0  0  0  0
   -1.3337    0.2324   -0.0649 C   0  0  0  0  0  0  0  0  0  0  0  0
   -2.8240    0.5079   -0.1997 C   0  0  1  0  0  0  0  0  0  0  0  0
   -3.4254    1.2570    0.9979 C   0  0  0  0  0  0  0  0  0  0  0  0
   -2.8737    2.5515    1.2276 O   0  0  0  0  0  0  0  0  0  0  0  0
   -3.1640    1.2036   -1.5004 C   0  0  0  0  0  0  0  0  0  0  0  0
   -3.8994    0.7272   -2.3634 O   0  0  0  0  0  0  0  0  0  0  0  0
   -2.5382    2.4031   -1.5864 O   0  0  0  0  0  0  0  0  0  0  0  0
   -2.7603    3.1718   -2.7661 C   0  0  2  0  0  0  0  0  0  0  0  0
   -1.3914    3.6574   -3.2678 C   0  0  0  0  0  0  0  0  0  0  0  0
   -1.2899    5.1673   -3.4679 C   0  0  2  0  0  0  0  0  0  0  0  0
   -1.0648    5.8451   -2.1000 C   0  0  2  0  0  0  0  0  0  0  0  0
   -2.4672    6.1754   -1.6025 C   0  0  0  0  0  0  0  0  0  0  0  0
   -3.3976    5.6675   -2.7148 C   0  0  2  0  0  0  0  0  0  0  0  0
   -3.8297    4.2259   -2.4416 C   0  0  0  0  0  0  0  0  0  0  0  0
   -2.5610    5.7655   -3.9215 N   0  0  0  0  0  0  0  0  0  0  0  0
   -3.1394    5.1364   -5.1120 C   0  0  0  0  0  0  0  0  0  0  0  0
   -0.3057    7.0434   -2.2478 O   0  0  0  0  0  0  0  0  0  0  0  0
   -0.4002    1.2840   -0.0465 C   0  0  0  0  0  0  0  0  0  0  0  0
    0.9657    1.0434   -0.0300 C   0  0  0  0  0  0  0  0  0  0  0  0
  1 22  2  0
  2  1  1  0
  2  3  2  0
  3  4  1  0
  4  5  1  0
  5  6  1  1
  5  8  1  0
  7  6  1  0
  8 10  1  0
  9  8  2  0
 11 10  1  1
 11 12  1  0
 13 12  1  1
 13 18  1  0
 14 13  1  0
 14 20  1  6
 15 14  1  0
 16 15  1  1
 16 18  1  0
 17 16  1  0
 17 11  1  0
 19 18  1  0
 21  4  2  0
 22 21  1  0
M  END
>  <DRUGBANK_ID>  (1) 
DB16896

>  <COMMON_NAME>  (1) 
Raceanisodamine

>  <CAS_NUMBER>  (1) 
85760-60-7

>  <UNII>  (1) 
U5AC4ZPQ36

$$$$
