
     RDKit          3D

 29 33  0  0  0  0  0  0  0  0999 V2000
   -1.7224    0.6498   -0.1700 C   0  0  0  0  0  0  0  0  0  0  0  0
   -0.7246    1.7141   -0.2308 C   0  0  0  0  0  0  0  0  0  0  0  0
   -1.4055   -0.6608   -0.2564 C   0  0  0  0  0  0  0  0  0  0  0  0
    0.5541    1.4275   -0.1766 C   0  0  0  0  0  0  0  0  0  0  0  0
    2.7545   -5.1315    3.1265 C   0  0  0  0  0  0  0  0  0  0  0  0
    2.3904   -6.4746    3.3263 C   0  0  0  0  0  0  0  0  0  0  0  0
    0.5276   -4.1799    3.6901 C   0  0  0  0  0  0  0  0  0  0  0  0
    1.5760   -3.0180   -0.1942 C   0  0  0  0  0  0  0  0  0  0  0  0
    3.4668   -2.4404    1.9509 C   0  0  0  0  0  0  0  0  0  0  0  0
    2.5003   -1.5580    3.9310 C   0  0  0  0  0  0  0  0  0  0  0  0
    0.4883   -1.3652    1.6286 C   0  0  0  0  0  0  0  0  0  0  0  0
   -1.0255   -6.0806    4.2869 C   0  0  0  0  0  0  0  0  0  0  0  0
    3.4528   -0.1444    2.3067 C   0  0  0  0  0  0  0  0  0  0  0  0
    3.0976   -1.2821   -1.2769 C   0  0  0  0  0  0  0  0  0  0  0  0
    1.9239   -3.9868    3.3335 C   0  0  0  0  0  0  0  0  0  0  0  0
    2.6427   -2.6636    3.1151 C   0  0  0  0  0  0  0  0  0  0  0  0
    0.3522   -2.1877    0.3115 C   0  0  0  0  0  0  0  0  0  0  0  0
    0.1772   -5.5409    3.8920 C   0  0  0  0  0  0  0  0  0  0  0  0
    2.6456   -2.7365   -1.3444 C   0  0  1  0  0  0  0  0  0  0  0  0
    3.6414   -1.1605    1.3717 C   0  0  0  0  0  0  0  0  0  0  0  0
   -0.0020   -1.0604   -0.3373 C   0  0  0  0  0  0  0  0  0  0  0  0
    1.0718   -6.6622    3.7412 C   0  0  0  0  0  0  0  0  0  0  0  0
    0.9014    0.0552    0.1680 C   0  0  2  0  0  0  0  0  0  0  0  0
    3.9872   -3.3890   -1.2544 N   0  0  0  0  0  0  0  0  0  0  0  0
    2.9789   -0.3286    3.5948 N   0  0  0  0  0  0  0  0  0  0  0  0
    0.8103   -0.1016    1.5993 N   0  0  0  0  0  0  0  0  0  0  0  0
   -0.7972   -7.4321    4.3918 N   0  0  0  0  0  0  0  0  0  0  0  0
    0.4467   -7.8047    4.0585 N   0  0  0  0  0  0  0  0  0  0  0  0
    3.8591   -0.8636    0.0067 O   0  0  0  0  0  0  0  0  0  0  0  0
  2  1  1  0
  3  1  2  0
  4  2  2  0
  6  5  2  0
 15  5  1  0
 15  7  2  0
 16  9  2  0
 16 10  1  0
 16 15  1  0
 17  8  1  0
 17 11  1  0
 18  7  1  0
 18 12  2  0
 19  8  1  0
 19 14  1  0
 19 24  1  1
 20  9  1  0
 20 13  2  0
 21  3  1  0
 21 17  2  0
 22  6  1  0
 22 18  1  0
 23  4  1  1
 23 21  1  0
 25 10  2  0
 25 13  1  0
 26 11  2  0
 26 23  1  0
 27 12  1  0
 28 22  2  0
 28 27  1  0
 29 14  1  0
 29 20  1  0
M  END
>  <DRUGBANK_ID>  (1) 
DB06977

>  <COMMON_NAME>  (1) 
(2S)-1-{[5-(1H-Indazol-5-yl)-3-pyridinyl]oxy}-3-(7aH-indol-3-yl)-2-propanamine

$$$$
