
     RDKit          3D

 30 31  0  0  0  0  0  0  0  0999 V2000
   -2.1867    2.2034   -8.8743 C   0  0  1  0  0  0  0  0  0  0  0  0
   -1.4520    2.7518  -10.0888 C   0  0  1  0  0  0  0  0  0  0  0  0
   -2.3507    3.1835   -7.7172 C   0  0  0  0  0  0  0  0  0  0  0  0
   -3.4235    1.2203   -9.2177 C   0  0  1  0  0  0  0  0  0  0  0  0
   -2.3311    3.5040  -10.9817 O   0  0  0  0  0  0  0  0  0  0  0  0
   -0.1425    3.4520   -9.6808 C   0  0  0  0  0  0  0  0  0  0  0  0
   -3.6252    2.9608   -6.8863 C   0  0  0  0  0  0  0  0  0  0  0  0
   -1.5276    4.2873   -7.7078 C   0  0  0  0  0  0  0  0  0  0  0  0
   -2.8303   -0.1289   -9.6254 C   0  0  0  0  0  0  0  0  0  0  0  0
   -4.5847    0.8459   -8.1155 C   0  0  2  0  0  0  0  0  0  0  0  0
   -3.2505    4.5165  -10.8010 C   0  0  0  0  0  0  0  0  0  0  0  0
   -0.4669    4.7264   -8.9602 C   0  0  2  0  0  0  0  0  0  0  0  0
   -4.6568    2.0709   -7.1593 C   0  0  0  0  0  0  0  0  0  0  0  0
   -3.4097    5.2728   -9.4429 C   0  0  2  0  0  0  0  0  0  0  0  0
   -3.9757    4.7976  -11.7523 O   0  0  0  0  0  0  0  0  0  0  0  0
   -0.5816    5.7957  -10.3002 C   0  0  0  0  0  0  0  0  0  0  0  0
   -4.8230    5.6494   -9.0139 C   0  0  0  0  0  0  0  0  0  0  0  0
   -2.6406    6.5091   -8.8761 C   0  0  0  0  0  0  0  0  0  0  0  0
   -5.2008    4.9531   -7.7401 C   0  0  0  0  0  0  0  0  0  0  0  0
   -4.4824   -0.6460   -7.3606 C   0  0  0  0  0  0  0  0  0  0  0  0
   -1.7966   -0.7423   -8.5366 C   0  0  0  0  0  0  0  0  0  0  0  0
   -1.5999   -0.1357   -7.0317 C   0  0  2  0  0  0  0  0  0  0  0  0
   -2.8449   -0.2589   -2.3244 C   0  0  0  0  0  0  0  0  0  0  0  0
   -3.5524   -0.7383   -3.5230 C   0  0  0  0  0  0  0  0  0  0  0  0
   -3.0038    0.1374   -4.6059 C   0  0  1  0  0  0  0  0  0  0  0  0
   -1.9824   -0.7551   -5.6685 C   0  0  0  0  0  0  0  0  0  0  0  0
   -4.1969    0.8526   -5.0025 O   0  0  0  0  0  0  0  0  0  0  0  0
   -3.6177    0.1915   -1.3340 O   0  0  0  0  0  0  0  0  0  0  0  0
   -1.5874   -0.2032   -2.2805 O   0  0  0  0  0  0  0  0  0  0  0  0
   -2.3460    0.9824   -6.9355 O   0  0  0  0  0  0  0  0  0  0  0  0
  1  2  1  0
  1  3  1  6
  1  4  1  0
  2  5  1  1
  2  6  1  0
  3  7  1  0
  3  8  2  0
  4 10  1  0
  4  9  1  1
  5 11  1  0
  6 12  1  0
  7 13  2  0
  8 12  1  0
  9 21  1  0
 10 13  1  0
 10 20  1  1
 11 15  2  0
 12 16  1  6
 14 18  1  6
 14 17  1  0
 14 11  1  0
 17 19  1  0
 22 30  1  6
 22 26  1  0
 22 21  1  0
 23 24  1  0
 23 28  1  0
 23 29  2  0
 25 27  1  6
 25 26  1  0
 25 24  1  0
M  END
>  <DRUGBANK_ID>  (1) 
DB03785

>  <SECONDARY_ACCESSION_NUMBERS>  (1) 
EXPT02067

>  <COMMON_NAME>  (1) 
Mevinolinic acid

>  <CAS_NUMBER>  (1) 
75225-51-3

>  <UNII>  (1) 
5CLV35Y90C

>  <SYNONYMS>  (1) 
Lovastatin acid

$$$$
