
     RDKit          3D

 24 28  0  0  1  0  0  0  0  0999 V2000
   -1.7196   -0.0575   -1.4105 C   0  0  0  0  0  0  0  0  0  0  0  0
   -2.3918   -1.1196   -0.8618 C   0  0  0  0  0  0  0  0  0  0  0  0
   -1.3875   -1.9301   -0.4447 N   0  0  0  0  0  0  0  0  0  0  0  0
   -0.1237   -1.3027   -0.4753 C   0  0  0  0  0  0  0  0  0  0  0  0
   -0.2524    0.0347   -0.8161 C   0  0  0  0  0  0  0  0  0  0  0  0
    0.9054    1.0908   -0.2977 C   0  0  0  0  0  0  0  0  0  0  0  0
    2.1211    0.4349   -0.0168 C   0  0  0  0  0  0  0  0  0  0  0  0
    2.0633   -0.9619    0.0471 C   0  0  0  0  0  0  0  0  0  0  0  0
    1.0076   -1.8497   -0.0288 N   0  0  0  0  0  0  0  0  0  0  0  0
    3.4483    1.1952    0.1286 C   0  0  0  0  0  0  0  0  0  0  0  0
    3.5583    2.3898    0.1501 O   0  0  0  0  0  0  0  0  0  0  0  0
    4.6058    0.4317    0.1840 N   0  0  0  0  0  0  0  0  0  0  0  0
    0.9624    2.5962    0.0137 N   0  0  0  0  0  0  0  0  0  0  0  0
   -0.0583    3.7821    0.0608 C   0  0  2  0  0  0  0  0  0  0  0  0
   -0.9207    3.7861    1.3480 C   0  0  1  0  0  0  0  0  0  0  0  0
   -2.3895    4.3132    1.2425 C   0  0  0  0  0  0  0  0  0  0  0  0
   -3.1322    3.7517    0.0108 C   0  0  1  0  0  0  0  0  0  0  0  0
   -2.3422    4.1671   -1.2818 C   0  0  0  0  0  0  0  0  0  0  0  0
   -0.8843    3.7358   -1.1982 C   0  0  2  0  0  0  0  0  0  0  0  0
   -1.1658    2.2997   -1.2263 C   0  0  0  0  0  0  0  0  0  0  0  0
   -1.8066    1.7653    0.4360 C   0  0  1  0  0  0  0  0  0  0  0  0
   -1.1242    2.3592    1.6733 C   0  0  0  0  0  0  0  0  0  0  0  0
   -3.2422    2.2433    0.3148 C   0  0  0  0  0  0  0  0  0  0  0  0
   -2.0418    0.4963    1.0832 O   0  0  0  0  0  0  0  0  0  0  0  0
  1  2  2  0
  1  5  1  0
  2  3  1  0
  3  4  1  0
  4  5  2  0
  4  9  1  0
  5  6  1  0
  6  7  2  0
  6 13  1  0
  7  8  1  0
  7 10  1  0
  8  9  2  0
 10 11  2  0
 10 12  1  0
 14 15  1  0
 14 19  1  0
 14 13  1  1
 15 22  1  6
 15 16  1  0
 17 16  1  1
 17 23  1  0
 17 18  1  0
 19 18  1  1
 19 20  1  0
 20 21  1  0
 21 22  1  0
 21 23  1  0
 21 24  1  1
M  END
>  <DRUGBANK_ID>  (1) 
DB11708

>  <COMMON_NAME>  (1) 
Peficitinib

>  <CAS_NUMBER>  (1) 
944118-01-8

>  <UNII>  (1) 
HPH1166CKX

>  <SYNONYMS>  (1) 
Peficitinib

$$$$
