
     RDKit          3D

 34 37  0  0  0  0  0  0  0  0999 V2000
    0.9990    0.0676    0.0707 C   0  0  0  0  0  0  0  0  0  0  0  0
    0.5096   -0.9033    1.1619 C   0  0  0  0  0  0  0  0  0  0  0  0
    0.9976   -0.4059    2.5357 C   0  0  0  0  0  0  0  0  0  0  0  0
   -1.0547   -0.8510    1.1658 C   0  0  0  0  0  0  0  0  0  0  0  0
   -1.6367   -1.3156   -0.0508 O   0  0  0  0  0  0  0  0  0  0  0  0
    1.0091   -2.2784    0.9426 N   0  0  0  0  0  0  0  0  0  0  0  0
    0.3053   -3.4077    1.3076 C   0  0  0  0  0  0  0  0  0  0  0  0
    1.0132   -4.5327    0.9503 C   0  0  0  0  0  0  0  0  0  0  0  0
    2.2044   -4.0604    0.3212 C   0  0  0  0  0  0  0  0  0  0  0  0
    2.2169   -2.6733    0.3829 C   0  0  0  0  0  0  0  0  0  0  0  0
    3.2299   -1.8947   -0.0633 N   0  0  0  0  0  0  0  0  0  0  0  0
    4.2597   -2.5824   -0.5877 C   0  0  0  0  0  0  0  0  0  0  0  0
    4.3358   -3.9019   -0.7215 N   0  0  0  0  0  0  0  0  0  0  0  0
    3.2993   -4.6332   -0.3135 C   0  0  0  0  0  0  0  0  0  0  0  0
    5.3616   -1.9320   -1.0610 N   0  0  0  0  0  0  0  0  0  0  0  0
    0.5206   -5.8880    1.1972 C   0  0  0  0  0  0  0  0  0  0  0  0
   -0.5758   -6.1538    1.6397 O   0  0  0  0  0  0  0  0  0  0  0  0
    1.4040   -6.9839    0.7937 C   0  0  0  0  0  0  0  0  0  0  0  0
    2.7265   -7.1011    1.2643 C   0  0  0  0  0  0  0  0  0  0  0  0
    3.5956   -7.9700    0.6013 C   0  0  0  0  0  0  0  0  0  0  0  0
    3.0476   -8.6359   -0.5075 C   0  0  0  0  0  0  0  0  0  0  0  0
    1.7517   -8.6089   -0.8997 N   0  0  0  0  0  0  0  0  0  0  0  0
    0.9387   -7.7902   -0.2280 C   0  0  0  0  0  0  0  0  0  0  0  0
    4.8622   -8.2536    1.1873 N   0  0  0  0  0  0  0  0  0  0  0  0
    5.6673   -9.3732    1.0698 C   0  0  0  0  0  0  0  0  0  0  0  0
    6.7505   -9.3839    1.6625 O   0  0  0  0  0  0  0  0  0  0  0  0
    5.2238  -10.5771    0.2636 C   0  0  0  0  0  0  0  0  0  0  0  0
    4.0114  -11.3187    0.8342 C   0  0  0  0  0  0  0  0  0  0  0  0
    2.9296  -10.6859    1.4635 C   0  0  0  0  0  0  0  0  0  0  0  0
    1.7141  -11.3029    1.7007 C   0  0  0  0  0  0  0  0  0  0  0  0
    1.6783  -12.6612    1.5783 C   0  0  0  0  0  0  0  0  0  0  0  0
    2.8179  -13.2877    1.0914 C   0  0  0  0  0  0  0  0  0  0  0  0
    3.9452  -12.6493    0.6456 N   0  0  0  0  0  0  0  0  0  0  0  0
    0.3062  -13.5136    2.1391 Cl  0  0  0  0  0  0  0  0  0  0  0  0
  1  2  1  0
  2  3  1  0
  2  4  1  0
  2  6  1  0
  4  5  1  0
  6  7  1  0
  6 10  1  0
  7  8  2  0
  8  9  1  0
  8 16  1  0
  9 10  2  0
  9 14  1  0
 10 11  1  0
 11 12  2  0
 12 13  1  0
 12 15  1  0
 13 14  2  0
 16 17  2  0
 16 18  1  0
 18 19  2  0
 18 23  1  0
 19 20  1  0
 20 21  2  0
 20 24  1  0
 21 22  1  0
 22 23  2  0
 24 25  1  0
 25 26  2  0
 25 27  1  0
 27 28  1  0
 28 29  2  0
 28 33  1  0
 29 30  1  0
 30 31  2  0
 31 32  1  0
 31 34  1  0
 32 33  2  0
M  END
>  <DRUGBANK_ID>  (1) 
DB12269

>  <COMMON_NAME>  (1) 
PF-06273340

>  <CAS_NUMBER>  (1) 
1402438-74-7

>  <UNII>  (1) 
I136775ABW

$$$$
