
     RDKit          3D

 38 43  0  0  1  0  0  0  0  0999 V2000
    1.0515   -3.4607    0.4396 C   0  0  0  0  0  0  0  0  0  0  0  0
   -0.3248    0.4777    4.9405 C   0  0  0  0  0  0  0  0  0  0  0  0
    5.1245    2.6354    8.3180 C   0  0  0  0  0  0  0  0  0  0  0  0
    1.9862    6.1246    7.7343 C   0  0  0  0  0  0  0  0  0  0  0  0
    2.2408    2.4684    2.2440 C   0  0  0  0  0  0  0  0  0  0  0  0
    3.4960    2.2933    3.0610 C   0  0  0  0  0  0  0  0  0  0  0  0
    1.8392    7.4250    7.9254 C   0  0  0  0  0  0  0  0  0  0  0  0
   -1.3341    1.3090    2.4802 C   0  0  0  0  0  0  0  0  0  0  0  0
    1.3248    1.5372    6.8144 C   0  0  0  0  0  0  0  0  0  0  0  0
    2.6110    3.4031    6.5302 C   0  0  0  0  0  0  0  0  0  0  0  0
   -0.6660    2.3727    3.6098 C   0  0  0  0  0  0  0  0  0  0  0  0
    2.6503    1.4624    7.7846 C   0  0  0  0  0  0  0  0  0  0  0  0
    3.7773    1.8562    5.9891 C   0  0  0  0  0  0  0  0  0  0  0  0
    0.8508    0.4686    2.0087 C   0  0  0  0  0  0  0  0  0  0  0  0
    4.2297    6.3924    6.9414 C   0  0  0  0  0  0  0  0  0  0  0  0
   -0.0083   -2.6486    1.1439 C   0  0  1  0  0  0  0  0  0  0  0  0
    3.2571    5.5530    7.3425 C   0  0  0  0  0  0  0  0  0  0  0  0
    1.2607    1.4387    2.8105 C   0  0  0  0  0  0  0  0  0  0  0  0
   -0.5029   -0.0369    2.3071 C   0  0  1  0  0  0  0  0  0  0  0  0
    3.2740    4.1151    7.6322 C   0  0  2  0  0  0  0  0  0  0  0  0
    1.6637    1.7186    5.1001 C   0  0  2  0  0  0  0  0  0  0  0  0
    3.0178    2.7884    4.4235 C   0  0  1  0  0  0  0  0  0  0  0  0
    2.9519    8.3464    7.6215 C   0  0  0  0  0  0  0  0  0  0  0  0
   -1.3650   -2.4261    0.4051 C   0  0  1  0  0  0  0  0  0  0  0  0
   -2.5390   -1.7915    1.2594 C   0  0  2  0  0  0  0  0  0  0  0  0
   -2.5495   -2.3200    2.6923 C   0  0  2  0  0  0  0  0  0  0  0  0
   -1.0945   -2.3389    3.1987 C   0  0  1  0  0  0  0  0  0  0  0  0
    0.5021    1.5870    4.1637 C   0  0  2  0  0  0  0  0  0  0  0  0
    3.9498    2.8569    7.4061 C   0  0  1  0  0  0  0  0  0  0  0  0
    4.2228    3.0894    5.6039 C   0  0  1  0  0  0  0  0  0  0  0  0
    2.8382    9.5223    7.8620 O   0  0  0  0  0  0  0  0  0  0  0  0
   -1.1530   -1.6663   -0.7884 O   0  0  0  0  0  0  0  0  0  0  0  0
   -3.7904   -1.8949    0.5850 O   0  0  0  0  0  0  0  0  0  0  0  0
   -3.1666   -3.6117    2.7145 O   0  0  0  0  0  0  0  0  0  0  0  0
    5.5225    3.3075    5.2166 O   0  0  0  0  0  0  0  0  0  0  0  0
    4.0782    7.7894    7.0401 O   0  0  0  0  0  0  0  0  0  0  0  0
   -0.2447   -3.1907    2.4327 O   0  0  0  0  0  0  0  0  0  0  0  0
   -0.4988   -1.0645    3.2883 O   0  0  0  0  0  0  0  0  0  0  0  0
  6  5  1  0
  7  4  2  0
 11  8  1  0
 12  9  1  0
 13 10  1  0
 16  1  1  6
 17  4  1  0
 17 15  2  0
 18  5  1  0
 18 14  2  0
 19  8  1  0
 19 14  1  0
 19 38  1  1
 20 10  1  0
 20 17  1  6
 21  9  1  1
 22  6  1  6
 22 21  1  0
 23  7  1  0
 24 16  1  0
 24 32  1  6
 25 24  1  0
 25 33  1  6
 26 25  1  0
 26 34  1  6
 27 26  1  0
 27 38  1  6
 28 11  1  0
 28 18  1  0
 28 21  1  0
 28  2  1  1
 29 12  1  0
 29 20  1  0
 29  3  1  1
 30 13  1  0
 30 22  1  0
 30 29  1  0
 30 35  1  1
 31 23  2  0
 36 15  1  0
 36 23  1  0
 37 16  1  0
 37 27  1  0
M  END
>  <DRUGBANK_ID>  (1) 
DB13307

>  <COMMON_NAME>  (1) 
Proscillaridin

>  <CAS_NUMBER>  (1) 
466-06-8

>  <UNII>  (1) 
KC6BL281EN

>  <SYNONYMS>  (1) 
Proscillaridin

$$$$
