C92
     RDKit          3D

 27 29  0  0  0  0  0  0  0  0999 V2000
    1.2154   -0.0503    0.2878 C   0  0  0  0  0  0  0  0  0  0  0  0
    0.4783    1.1775   -0.2075 C   0  0  0  0  0  0  0  0  0  0  0  0
   -0.9732    0.8725    0.1314 C   0  0  0  0  0  0  0  0  0  0  0  0
   -1.1222   -0.6458    0.0584 C   0  0  0  0  0  0  0  0  0  0  0  0
    0.2877   -1.1971   -0.1307 C   0  0  0  0  0  0  0  0  0  0  0  0
    0.4873   -1.6168   -1.5860 C   0  0  0  0  0  0  0  0  0  0  0  0
    1.8774   -2.1408   -1.8079 C   0  0  0  0  0  0  0  0  0  0  0  0
    2.1849   -3.3217   -0.9988 N   0  0  0  0  0  0  0  0  0  0  0  0
    2.5841   -4.5380   -1.4912 C   0  0  0  0  0  0  0  0  0  0  0  0
    2.1398   -5.5972   -1.0257 O   0  0  0  0  0  0  0  0  0  0  0  0
    3.6375   -4.5484   -2.5205 C   0  0  0  0  0  0  0  0  0  0  0  0
    4.1267   -5.7460   -3.1135 C   0  0  0  0  0  0  0  0  0  0  0  0
    4.2120   -3.3102   -2.8308 C   0  0  0  0  0  0  0  0  0  0  0  0
    4.9694   -3.1833   -3.9210 C   0  0  0  0  0  0  0  0  0  0  0  0
    5.2276   -4.3379   -4.6104 C   0  0  0  0  0  0  0  0  0  0  0  0
    5.9769   -4.0668   -5.7990 C   0  0  0  0  0  0  0  0  0  0  0  0
    5.0799   -5.6470   -4.1323 C   0  0  0  0  0  0  0  0  0  0  0  0
    5.8924   -6.8417   -4.7364 C   0  0  0  0  0  0  0  0  0  0  0  0
    5.4192   -7.9656   -4.5101 O   0  0  0  0  0  0  0  0  0  0  0  0
    7.0766   -6.8178   -5.5903 N   0  0  0  0  0  0  0  0  0  0  0  0
    8.0571   -5.8165   -6.0742 C   0  0  0  0  0  0  0  0  0  0  0  0
    8.6466   -4.8114   -5.2532 C   0  0  0  0  0  0  0  0  0  0  0  0
    8.9379   -3.5298   -5.7992 C   0  0  0  0  0  0  0  0  0  0  0  0
    8.9234   -3.3414   -7.1717 C   0  0  0  0  0  0  0  0  0  0  0  0
    9.1330   -2.0649   -7.6949 N   0  0  0  0  0  0  0  0  0  0  0  0
    8.5190   -4.3235   -8.0011 N   0  0  0  0  0  0  0  0  0  0  0  0
    8.0735   -5.5104   -7.4514 C   0  0  0  0  0  0  0  0  0  0  0  0
  1  5  1  0
  2  1  1  0
  2  3  1  0
  3  4  1  0
  4  5  1  0
  5  6  1  0
  6  7  1  0
  7  8  1  0
  8  9  1  0
  9 11  1  0
 10  9  2  0
 11 13  1  0
 11 12  2  0
 12 17  1  0
 13 14  2  0
 14 15  1  0
 15 16  1  0
 17 15  2  0
 17 18  1  0
 18 19  2  0
 18 20  1  0
 20 21  1  0
 21 27  1  0
 21 22  2  0
 22 23  1  0
 23 24  2  0
 24 25  1  0
 26 24  1  0
 27 26  2  0
M  END
>  <DRUGBANK_ID>  (1) 
DB07537

>  <COMMON_NAME>  (1) 
N'-(6-aminopyridin-3-yl)-N-(2-cyclopentylethyl)-4-methyl-benzene-1,3-dicarboxamide

$$$$
