
     RDKit          3D

 16 18  0  0  1  0  0  0  0  0999 V2000
    1.0580    0.0798   -0.1297 N   0  0  0  0  0  0  0  0  0  0  0  0
    0.3999    0.7302   -1.1216 C   0  0  0  0  0  0  0  0  0  0  0  0
    0.7380    0.6978   -2.3716 N   0  0  0  0  0  0  0  0  0  0  0  0
    0.0405    1.4871   -3.2744 C   0  0  0  0  0  0  0  0  0  0  0  0
   -0.9487    2.3527   -2.8964 C   0  0  0  0  0  0  0  0  0  0  0  0
   -1.5696    3.1861   -3.8295 N   0  0  0  0  0  0  0  0  0  0  0  0
   -1.3760    2.9585   -5.2412 C   0  0  2  0  0  0  0  0  0  0  0  0
    0.0755    2.5743   -5.5214 C   0  0  0  0  0  0  0  0  0  0  0  0
    0.3941    1.4622   -4.6322 N   0  0  0  0  0  0  0  0  0  0  0  0
   -1.8298    4.2442   -5.8802 C   0  0  0  0  0  0  0  0  0  0  0  0
   -2.4565    4.9884   -4.8338 O   0  0  0  0  0  0  0  0  0  0  0  0
   -2.2633    4.3562   -3.6324 C   0  0  0  0  0  0  0  0  0  0  0  0
   -2.6375    4.8858   -2.5960 O   0  0  0  0  0  0  0  0  0  0  0  0
   -1.3087    2.3591   -1.4538 C   0  0  0  0  0  0  0  0  0  0  0  0
   -2.1809    3.0416   -0.9343 O   0  0  0  0  0  0  0  0  0  0  0  0
   -0.6263    1.4857   -0.6718 N   0  0  0  0  0  0  0  0  0  0  0  0
  1  2  1  0
  2  3  2  0
  2 16  1  0
  3  4  1  0
  4  5  2  0
  4  9  1  0
  5  6  1  0
  5 14  1  0
  6 12  1  0
  7  6  1  0
  7  8  1  1
  7 10  1  0
  8  9  1  0
 10 11  1  0
 11 12  1  0
 12 13  2  0
 14 15  2  0
 14 16  1  0
M  END
>  <DRUGBANK_ID>  (1) 
DB03332

>  <SECONDARY_ACCESSION_NUMBERS>  (1) 
EXPT00534

>  <COMMON_NAME>  (1) 
5,6-Cyclic-Tetrahydropteridine

$$$$
