
     RDKit          3D

 14 13  0  0  0  0  0  0  0  0999 V2000
    0.8989   -0.3166    0.1054 C   0  0  0  0  0  0  0  0  0  0  0  0
    0.9112   -1.8005   -1.8030 C   0  0  0  0  0  0  0  0  0  0  0  0
   -1.1551   -0.4811   -1.2922 C   0  0  0  0  0  0  0  0  0  0  0  0
    4.5718    5.3680    0.2300 C   0  0  0  0  0  0  0  0  0  0  0  0
    2.5055    6.7690    0.4273 C   0  0  0  0  0  0  0  0  0  0  0  0
    2.5178    4.5430    1.3702 C   0  0  0  0  0  0  0  0  0  0  0  0
    0.9473    2.5789   -0.7808 C   0  0  0  0  0  0  0  0  0  0  0  0
    2.4695    2.4468   -0.8152 C   0  0  0  0  0  0  0  0  0  0  0  0
    0.3470    2.0212   -2.0550 C   0  0  0  0  0  0  0  0  0  0  0  0
    3.0697    3.5549   -1.6559 C   0  0  0  0  0  0  0  0  0  0  0  0
    0.7959    0.5920   -2.3714 C   0  0  0  0  0  0  0  0  0  0  0  0
    2.6208    4.9571   -1.2354 C   0  0  0  0  0  0  0  0  0  0  0  0
    0.3649   -0.4517   -1.3229 N   0  0  0  0  0  0  0  0  0  0  0  0
    3.0518    5.3572    0.1889 N   0  0  0  0  0  0  0  0  0  0  0  0
  8  7  1  0
  9  7  1  0
 10  8  1  0
 11  9  1  0
 12 10  1  0
 13  1  1  0
 13  2  1  0
 13  3  1  0
 13 11  1  0
 14  4  1  0
 14  5  1  0
 14  6  1  0
 14 12  1  0
M  CHG  2  13   1  14   1
M  END
>  <DRUGBANK_ID>  (1) 
DB08960

>  <COMMON_NAME>  (1) 
Hexamethonium

>  <CAS_NUMBER>  (1) 
60-26-4

>  <UNII>  (1) 
3C9PSP36Z2

>  <SYNONYMS>  (1) 
N,N,N,N',N',N'-hexamethylhexane-1,6-diaminium

$$$$
