
     RDKit          3D

 33 34  0  0  0  0  0  0  0  0999 V2000
   12.5575   -2.9772    4.4617 S   0  0  0  0  0  0  0  0  0  0  0  0
   12.7454    1.7824    4.4194 O   0  0  0  0  0  0  0  0  0  0  0  0
    7.8218   -0.7853    5.8012 O   0  0  0  0  0  0  0  0  0  0  0  0
    9.2373   -0.4734    0.9676 O   0  0  0  0  0  0  0  0  0  0  0  0
   11.0415   -1.6012    0.4773 O   0  0  0  0  0  0  0  0  0  0  0  0
    9.6870    1.5609    3.5183 O   0  0  0  0  0  0  0  0  0  0  0  0
    6.8009    1.0848    4.2276 O   0  0  0  0  0  0  0  0  0  0  0  0
    5.2420   -3.9232    9.4714 O   0  0  0  0  0  0  0  0  0  0  0  0
    5.7041   -1.6970    9.3701 O   0  0  0  0  0  0  0  0  0  0  0  0
    3.3564   -1.4365    5.5358 O   0  0  0  0  0  0  0  0  0  0  0  0
   12.2276   -0.5217    3.8527 N   0  0  0  0  0  0  0  0  0  0  0  0
   10.0409    0.6312    5.5974 N   0  0  0  0  0  0  0  0  0  0  0  0
    5.2921   -2.2873    6.5808 N   0  0  0  0  0  0  0  0  0  0  0  0
    3.0925   -3.8300    7.5090 N   0  0  0  0  0  0  0  0  0  0  0  0
   12.3205   -1.3017    5.1352 C   0  0  1  0  0  0  0  0  0  0  0  0
   10.9651   -1.1031    2.9426 C   0  0  2  0  0  0  0  0  0  0  0  0
   10.1011   -2.2784    3.8453 C   0  0  1  0  0  0  0  0  0  0  0  0
   11.5425   -0.0151    5.7919 C   0  0  1  0  0  0  0  0  0  0  0  0
   12.2658    0.6166    4.6077 C   0  0  0  0  0  0  0  0  0  0  0  0
   10.9134   -3.4829    4.1645 C   0  0  0  0  0  0  0  0  0  0  0  0
    9.4297   -1.6668    5.4311 C   0  0  0  0  0  0  0  0  0  0  0  0
   10.4203   -0.9975    1.3644 C   0  0  0  0  0  0  0  0  0  0  0  0
    9.5658    0.6170    4.3213 C   0  0  0  0  0  0  0  0  0  0  0  0
    8.4585   -0.8099    3.6384 C   0  0  0  0  0  0  0  0  0  0  0  0
    7.6564   -2.4639    4.3601 C   0  0  0  0  0  0  0  0  0  0  0  0
    8.0436   -3.3517    5.9140 C   0  0  0  0  0  0  0  0  0  0  0  0
    6.7199    0.2458    5.1529 C   0  0  0  0  0  0  0  0  0  0  0  0
    7.5626   -2.7951    7.3077 C   0  0  0  0  0  0  0  0  0  0  0  0
    6.0849   -3.1111    7.4480 C   0  0  1  0  0  0  0  0  0  0  0  0
    5.3467   -0.1888    5.1484 C   0  0  0  0  0  0  0  0  0  0  0  0
    5.7057   -2.8100    8.8634 C   0  0  0  0  0  0  0  0  0  0  0  0
    3.9385   -1.9818    6.4775 C   0  0  0  0  0  0  0  0  0  0  0  0
    3.0751   -2.3746    7.5987 C   0  0  0  0  0  0  0  0  0  0  0  0
  1 20  1  0
  2 19  2  0
  3 21  1  0
  3 27  1  0
  4 22  1  0
  5 22  2  0
  6 23  1  0
  7 27  2  0
  8 31  1  0
  9 31  2  0
 10 32  2  0
 11 16  1  0
 11 19  1  0
 11 15  1  0
 12 23  2  0
 13 32  1  0
 14 33  1  0
 15  1  1  6
 15 18  1  0
 16 17  1  0
 16 22  1  6
 17 20  1  0
 17 21  1  1
 18 19  1  0
 18 12  1  6
 23 24  1  0
 24 25  1  0
 25 26  1  0
 26 28  1  0
 27 30  1  0
 29 31  1  0
 29 28  1  1
 29 13  1  0
 32 33  1  0
M  CHG  1   6  -1
M  END
>  <DRUGBANK_ID>  (1) 
DB04488

>  <SECONDARY_ACCESSION_NUMBERS>  (1) 
EXPT01675

>  <COMMON_NAME>  (1) 
(6S)-N-[(2S,3R,6R,7R)-3-(Acetyloxymethyl)-2-carboxy-8-oxo-5-thia-1-azabicyclo[4.2.0]octan-7-yl]-6-[(2-aminoacetyl)amino]-7-hydroxy-7-oxoheptanimidate

$$$$
