B29
     RDKit          3D

 30 33  0  0  0  0  0  0  0  0999 V2000
    0.7351   -0.5779    0.0052 C   0  0  0  0  0  0  0  0  0  0  0  0
    1.7402   -1.5607    0.0318 C   0  0  0  0  0  0  0  0  0  0  0  0
    3.0806   -1.1505    0.0305 C   0  0  0  0  0  0  0  0  0  0  0  0
    3.4263    0.2051   -0.0114 C   0  0  0  0  0  0  0  0  0  0  0  0
    2.4436    1.1956   -0.0367 C   0  0  0  0  0  0  0  0  0  0  0  0
    1.1300    0.7588   -0.0165 C   0  0  0  0  0  0  0  0  0  0  0  0
    0.0490    1.5712   -0.0121 O   0  0  0  0  0  0  0  0  0  0  0  0
   -1.0566    0.7791   -0.0027 C   0  0  0  0  0  0  0  0  0  0  0  0
   -0.6869   -0.5683   -0.0079 C   0  0  0  0  0  0  0  0  0  0  0  0
   -1.7047   -1.5404   -0.0232 C   0  0  0  0  0  0  0  0  0  0  0  0
   -3.0379   -1.1202   -0.0188 C   0  0  0  0  0  0  0  0  0  0  0  0
   -3.3619    0.2445    0.0062 C   0  0  0  0  0  0  0  0  0  0  0  0
   -2.3636    1.2449    0.0123 C   0  0  0  0  0  0  0  0  0  0  0  0
   -2.6499    2.6839    0.0181 C   0  0  0  0  0  0  0  0  0  0  0  0
   -3.3247    3.2683    1.0872 C   0  0  0  0  0  0  0  0  0  0  0  0
   -2.2927    3.5106   -1.0498 C   0  0  0  0  0  0  0  0  0  0  0  0
   -2.6710    4.8565   -1.0617 C   0  0  0  0  0  0  0  0  0  0  0  0
   -3.4959    5.3642   -0.0646 C   0  0  0  0  0  0  0  0  0  0  0  0
   -3.9020    4.5464    0.9873 C   0  0  0  0  0  0  0  0  0  0  0  0
   -5.0497    4.9915    1.8746 C   0  0  0  0  0  0  0  0  0  0  0  0
   -6.2963    4.0668    1.7408 C   0  0  0  0  0  0  0  0  0  0  0  0
   -5.8357    2.3547    2.1943 P   0  0  0  0  0  0  0  0  0  0  0  0
   -5.2708    2.7790    3.5598 O   0  0  0  0  0  0  0  0  0  0  0  0
   -5.4002    0.7363    2.6230 O   0  0  0  0  0  0  0  0  0  0  0  0
   -7.3679    1.8383    2.3906 O   0  0  0  0  0  0  0  0  0  0  0  0
   -7.6417    4.6472    2.8371 P   0  0  0  0  0  0  0  0  0  0  0  0
   -8.6780    3.9242    1.9708 O   0  0  0  0  0  0  0  0  0  0  0  0
   -7.3386    3.7067    4.1465 O   0  0  0  0  0  0  0  0  0  0  0  0
   -8.9135    5.1960    3.8736 O   0  0  0  0  0  0  0  0  0  0  0  0
   -6.7640    4.0632    0.3691 O   0  0  0  0  0  0  0  0  0  0  0  0
  1  6  1  0
  1  2  2  0
  1  9  1  0
  2  3  1  0
  3  4  2  0
  4  5  1  0
  5  6  2  0
  6  7  1  0
  7  8  1  0
  8  9  2  0
  8 13  1  0
  9 10  1  0
 10 11  2  0
 11 12  1  0
 12 13  2  0
 13 14  1  0
 14 16  1  0
 14 15  2  0
 15 19  1  0
 16 17  2  0
 17 18  1  0
 18 19  2  0
 19 20  1  0
 20 21  1  0
 21 22  1  0
 21 26  1  0
 21 30  1  0
 22 23  2  0
 22 25  1  0
 22 24  1  0
 26 27  2  0
 26 28  1  0
 26 29  1  0
M  END
>  <DRUGBANK_ID>  (1) 
DB07410

>  <COMMON_NAME>  (1) 
[2-(3-DIBENZOFURAN-4-YL-PHENYL)-1-HYDROXY-1-PHOSPHONO-ETHYL]-PHOSPHONIC ACID

$$$$
