
     RDKit          3D

 21 22  0  0  0  0  0  0  0  0999 V2000
   -1.5677   -0.0144   -0.1134 C   0  0  0  0  0  0  0  0  0  0  0  0
   -0.8416    1.2173    0.4098 C   0  0  0  0  0  0  0  0  0  0  0  0
    0.5908    1.1750   -0.0698 C   0  0  0  0  0  0  0  0  0  0  0  0
    1.3419   -0.0408    0.2162 N   0  0  0  0  0  0  0  0  0  0  0  0
    0.6459   -1.2648   -0.2524 C   0  0  0  0  0  0  0  0  0  0  0  0
   -0.8027   -1.2856    0.2596 C   0  0  0  0  0  0  0  0  0  0  0  0
    1.4255   -2.4782    0.3219 C   0  0  0  0  0  0  0  0  0  0  0  0
    1.8791   -3.4160   -0.6140 N   0  0  0  0  0  0  0  0  0  0  0  0
    2.6161   -4.5691   -0.2086 C   0  0  0  0  0  0  0  0  0  0  0  0
    3.8188   -4.9218   -0.8743 C   0  0  0  0  0  0  0  0  0  0  0  0
    4.5269   -6.0698   -0.4618 C   0  0  0  0  0  0  0  0  0  0  0  0
    4.0496   -6.8752    0.5651 C   0  0  0  0  0  0  0  0  0  0  0  0
    2.8591   -6.5449    1.1986 C   0  0  0  0  0  0  0  0  0  0  0  0
    2.1288   -5.4040    0.8258 C   0  0  0  0  0  0  0  0  0  0  0  0
    0.8045   -5.1859    1.5121 C   0  0  0  0  0  0  0  0  0  0  0  0
    4.4409   -4.0868   -1.9615 C   0  0  0  0  0  0  0  0  0  0  0  0
    1.7108   -2.5070    1.5114 O   0  0  0  0  0  0  0  0  0  0  0  0
    2.7393   -0.0074   -0.2547 C   0  0  0  0  0  0  0  0  0  0  0  0
    2.9214    0.0096   -1.7880 C   0  0  0  0  0  0  0  0  0  0  0  0
    2.4155    1.2598   -2.5106 C   0  0  0  0  0  0  0  0  0  0  0  0
    2.9603    2.5310   -1.8774 C   0  0  0  0  0  0  0  0  0  0  0  0
  1  2  1  0
  1  6  1  0
  2  3  1  0
  3  4  1  0
  4  5  1  0
  4 18  1  0
  5  6  1  0
  5  7  1  0
  7  8  1  0
  7 17  2  0
  8  9  1  0
  9 10  2  0
 10 11  1  0
 10 16  1  0
 11 12  2  0
 12 13  1  0
 13 14  2  0
 14  9  1  0
 14 15  1  0
 18 19  1  0
 19 20  1  0
 20 21  1  0
M  END
>  <DRUGBANK_ID>  (1) 
DB00297

>  <SECONDARY_ACCESSION_NUMBERS>  (1) 
APRD00247

>  <COMMON_NAME>  (1) 
Bupivacaine

>  <CAS_NUMBER>  (1) 
38396-39-3

>  <UNII>  (1) 
Y8335394RO

>  <SYNONYMS>  (1) 
(Â±)-bupivacaine; (RS)-bupivacaine; 1-Butyl-2',6'-pipecoloxylidide; 1-Butyl-N-(2,6-dimethylphenyl)-2-piperidinecarboxamide; Bupivacaina; Bupivacaine; Bupivacainum; dl-1-Butyl-2',6'-pipecoloxylidide; DL-Bupivacaine; Racemic bupivacaine

$$$$
