
     RDKit          3D

 23 25  0  0  0  0  0  0  0  0999 V2000
    0.9371   -0.0620    0.0791 C   0  0  0  0  0  0  0  0  0  0  0  0
    0.5285   -0.5469   -1.3076 C   0  0  0  0  0  0  0  0  0  0  0  0
    0.9980   -1.8813   -1.6073 O   0  0  0  0  0  0  0  0  0  0  0  0
    2.3578   -2.0459   -1.6704 C   0  0  0  0  0  0  0  0  0  0  0  0
    3.1612   -1.1339   -1.5103 O   0  0  0  0  0  0  0  0  0  0  0  0
    2.7878   -3.4376   -1.8639 C   0  0  0  0  0  0  0  0  0  0  0  0
    2.3573   -4.3321   -2.8359 C   0  0  0  0  0  0  0  0  0  0  0  0
    1.3751   -4.1657   -3.9430 C   0  0  0  0  0  0  0  0  0  0  0  0
    3.0864   -5.4982   -2.6884 N   0  0  0  0  0  0  0  0  0  0  0  0
    4.0025   -5.3802   -1.6646 C   0  0  0  0  0  0  0  0  0  0  0  0
    4.8982   -6.4521   -1.3399 C   0  0  0  0  0  0  0  0  0  0  0  0
    5.8498   -6.9242   -2.1696 C   0  0  0  0  0  0  0  0  0  0  0  0
    6.0671   -6.4252   -3.5792 C   0  0  0  0  0  0  0  0  0  0  0  0
    5.4116   -5.6301   -4.2292 O   0  0  0  0  0  0  0  0  0  0  0  0
    7.1713   -7.1015   -4.0451 N   0  0  0  0  0  0  0  0  0  0  0  0
    7.6701   -7.9853   -3.1023 C   0  0  0  0  0  0  0  0  0  0  0  0
    6.9065   -7.9448   -1.9255 C   0  0  0  0  0  0  0  0  0  0  0  0
    7.2539   -8.7966   -0.8859 C   0  0  0  0  0  0  0  0  0  0  0  0
    8.3581   -9.6611   -1.0578 C   0  0  0  0  0  0  0  0  0  0  0  0
    9.1107   -9.6621   -2.2464 C   0  0  0  0  0  0  0  0  0  0  0  0
    8.7628   -8.8131   -3.2913 C   0  0  0  0  0  0  0  0  0  0  0  0
    3.8297   -4.1136   -1.1259 C   0  0  0  0  0  0  0  0  0  0  0  0
    4.5994   -3.5275    0.0019 C   0  0  0  0  0  0  0  0  0  0  0  0
  1  2  1  0
  2  3  1  0
  3  4  1  0
  4  5  2  0
  4  6  1  0
  6  7  2  0
  6 22  1  0
  7  8  1  0
  7  9  1  0
  9 10  1  0
 10 11  1  0
 10 22  2  0
 11 12  2  0
 12 13  1  0
 12 17  1  0
 13 14  2  0
 13 15  1  0
 15 16  1  0
 16 17  2  0
 16 21  1  0
 17 18  1  0
 18 19  2  0
 19 20  1  0
 20 21  2  0
 22 23  1  0
M  END
>  <DRUGBANK_ID>  (1) 
DB17061

>  <COMMON_NAME>  (1) 
VEGFR 2 Kinase inhibitor I

>  <CAS_NUMBER>  (1) 
15966-93-5

>  <UNII>  (1) 
U07H877HUF

>  <SYNONYMS>  (1) 
3-(2,4-dimethyl-3-ethoxycarbonylpyrrol-5-methylidenyl)-2-indolinone; Ethyl 2,4-dimethyl-5-(((3z)-2-oxo-2,3-dihydro-1h-indol-3-ylidene)methyl)-1h-pyrrole-3-carboxylate; Vegf receptor 2 kinase inhibitor i; Vegfr-2 inhi

$$$$
