
     RDKit          3D

 23 23  0  0  0  0  0  0  0  0999 V2000
   -1.6848    3.0084    3.8976 C   0  0  2  0  0  0  0  0  0  0  0  0
   -1.4330    3.4984    2.4714 C   0  0  2  0  0  0  0  0  0  0  0  0
   -1.2428    2.2105    1.5864 C   0  0  2  0  0  0  0  0  0  0  0  0
   -0.5930    1.2723    2.6572 C   0  0  1  0  0  0  0  0  0  0  0  0
   -0.7002    1.8544    4.0555 C   0  0  0  0  0  0  0  0  0  0  0  0
   -3.1074    2.6011    4.0677 C   0  0  0  0  0  0  0  0  0  0  0  0
   -4.0450    2.8548    3.3018 O   0  0  0  0  0  0  0  0  0  0  0  0
   -3.2577    1.6983    5.0535 O   0  0  0  0  0  0  0  0  0  0  0  0
   -0.2684    4.3229    2.6200 O   0  0  0  0  0  0  0  0  0  0  0  0
   -0.9900   -0.1933    2.7035 N   0  0  0  0  0  0  0  0  0  0  0  0
   -2.1321   -0.8805    2.8092 C   0  0  0  0  0  0  0  0  0  0  0  0
   -2.2577   -2.1522    2.6424 N   0  0  0  0  0  0  0  0  0  0  0  0
   -3.1410   -0.1419    3.2035 N   0  0  0  0  0  0  0  0  0  0  0  0
    0.3792    1.4356   -0.5881 C   0  0  0  0  0  0  0  0  0  0  0  0
    1.0243    1.7905   -1.9332 C   0  0  0  0  0  0  0  0  0  0  0  0
    1.8706    3.0303   -1.8131 C   0  0  0  0  0  0  0  0  0  0  0  0
    1.5863    0.9726    0.2714 C   0  0  0  0  0  0  0  0  0  0  0  0
    1.0854   -0.1366    1.0890 C   0  0  0  0  0  0  0  0  0  0  0  0
    0.2411    3.7810    0.2717 N   0  0  0  0  0  0  0  0  0  0  0  0
    0.1194    4.9810   -0.3751 C   0  0  0  0  0  0  0  0  0  0  0  0
    0.9969    5.8301   -0.2202 O   0  0  0  0  0  0  0  0  0  0  0  0
   -0.9717    5.1192   -1.3983 C   0  0  0  0  0  0  0  0  0  0  0  0
   -0.5251    2.5376    0.1553 C   0  0  2  0  0  0  0  0  0  0  0  0
  1  2  1  0
  1  5  1  0
  1  6  1  6
  2  3  1  0
  2  9  1  1
  3  4  1  0
  4  5  1  0
  4 10  1  1
  6  7  2  0
  6  8  1  0
 10 11  1  0
 11 12  2  0
 11 13  1  0
 14 15  1  0
 14 17  1  0
 15 16  1  0
 17 18  1  0
 19 20  1  0
 20 21  2  0
 20 22  1  0
 23 19  1  1
 23 14  1  0
  3 23  1  6
M  END
>  <DRUGBANK_ID>  (1) 
DB06614

>  <SECONDARY_ACCESSION_NUMBERS>  (1) 
EXPT00645; DB03655

>  <COMMON_NAME>  (1) 
Peramivir

>  <CAS_NUMBER>  (1) 
330600-85-6

>  <UNII>  (1) 
9ZS94HQO3B

>  <SYNONYMS>  (1) 
Peramivir; Peramivir anhydrous

$$$$
