
     RDKit          3D

  3  0  0  0  0  0  0  0  0  0999 V2000
    0.7797    1.4930   -1.6817 Cl  0  0  0  0  0  0  0  0  0  0  0  0
    1.1993   -1.4606    1.7279 Cl  0  0  0  0  0  0  0  0  0  0  0  0
    0.9754    0.0668    0.0658 Fe  0  0  0  0  0 15  0  0  0  0  0  0
M  CHG  3   1  -1   2  -1   3   2
M  END
>  <DRUGBANK_ID>  (1) 
DB13569

>  <COMMON_NAME>  (1) 
Ferrous chloride

>  <CAS_NUMBER>  (1) 
7758-94-3

>  <UNII>  (1) 
S3Y25PHP1W

$$$$
