E6C
     RDKit          3D

 22 21  0  0  0  0  0  0  0  0999 V2000
    6.8274    2.8005    0.0056 O   0  0  0  0  0  0  0  0  0  0  0  0
    6.0053    0.9282    1.5889 C   0  0  0  0  0  0  0  0  0  0  0  0
    6.4469    1.4254    0.1882 C   0  0  1  0  0  0  0  0  0  0  0  0
    5.6524    0.7794   -0.9532 C   0  0  0  0  0  0  0  0  0  0  0  0
    6.2165   -0.0234   -1.7040 O   0  0  0  0  0  0  0  0  0  0  0  0
    4.3304    1.0596   -1.1666 N   0  0  0  0  0  0  0  0  0  0  0  0
    3.2993    1.8931   -0.4472 C   0  0  2  0  0  0  0  0  0  0  0  0
    2.3222    2.5204   -1.4114 C   0  0  0  0  0  0  0  0  0  0  0  0
    1.1226    2.2644   -1.3749 O   0  0  0  0  0  0  0  0  0  0  0  0
    2.8309    3.5126   -2.1963 N   0  0  0  0  0  0  0  0  0  0  0  0
    4.2313    3.9188   -2.2349 C   0  0  0  0  0  0  0  0  0  0  0  0
    4.8260    3.8552   -3.5828 C   0  0  0  0  0  0  0  0  0  0  0  0
    4.0711    4.8157   -4.4658 C   0  0  0  0  0  0  0  0  0  0  0  0
    4.1801    6.2530   -3.9470 C   0  0  0  0  0  0  0  0  0  0  0  0
    4.6530    4.6540   -5.8439 C   0  0  0  0  0  0  0  0  0  0  0  0
    4.5956    0.5025    1.8520 C   0  0  0  0  0  0  0  0  0  0  0  0
    3.9797   -0.5352    1.6347 O   0  0  0  0  0  0  0  0  0  0  0  0
    3.9158    1.5190    2.3150 O   0  0  0  0  0  0  0  0  0  0  0  0
    3.7914    3.0973    0.4417 C   0  0  0  0  0  0  0  0  0  0  0  0
    2.9959    3.8931    1.5167 C   0  0  0  0  0  0  0  0  0  0  0  0
    2.1552    3.2051    2.6313 C   0  0  0  0  0  0  0  0  0  0  0  0
    4.1136    4.7407    2.1921 C   0  0  0  0  0  0  0  0  0  0  0  0
  2  3  1  0
  2 16  1  0
  3  1  1  1
  3  4  1  0
  4  5  2  0
  4  6  1  0
  7 19  1  6
  7  8  1  0
  7  6  1  0
  8  9  2  0
  8 10  1  0
 10 11  1  0
 11 12  1  0
 12 13  1  0
 13 14  1  0
 13 15  1  0
 16 17  2  0
 16 18  1  0
 19 20  1  0
 20 21  1  0
 20 22  1  0
M  END
>  <DRUGBANK_ID>  (1) 
DB04126

>  <SECONDARY_ACCESSION_NUMBERS>  (1) 
EXPT01318

>  <COMMON_NAME>  (1) 
N-[1-Hydroxycarboxyethyl-Carbonyl]Leucylamino-2-Methyl-Butane

$$$$
