
     RDKit          3D

 26 28  0  0  0  0  0  0  0  0999 V2000
    0.9813   -0.1203   -0.3185 C   0  0  0  0  0  0  0  0  0  0  0  0
   -1.4272   -3.3302   -0.9887 C   0  0  0  0  0  0  0  0  0  0  0  0
   -1.7134   -1.8207    0.4327 C   0  0  0  0  0  0  0  0  0  0  0  0
    2.1112   -8.6001    5.0716 C   0  0  0  0  0  0  0  0  0  0  0  0
    3.2100   -6.7828    3.8887 C   0  0  0  0  0  0  0  0  0  0  0  0
   -2.2089    1.4723    2.0751 C   0  0  0  0  0  0  0  0  0  0  0  0
   -1.6619    2.2333    3.0246 C   0  0  0  0  0  0  0  0  0  0  0  0
   -1.5602    0.2768    1.8901 C   0  0  0  0  0  0  0  0  0  0  0  0
   -0.5616    1.7201    3.7577 C   0  0  0  0  0  0  0  0  0  0  0  0
    1.3673   -3.9939    5.6825 C   0  0  0  0  0  0  0  0  0  0  0  0
    1.5293   -2.6022    5.6587 C   0  0  0  0  0  0  0  0  0  0  0  0
    0.6008   -3.9101    3.3800 C   0  0  0  0  0  0  0  0  0  0  0  0
    0.9258   -2.2406    0.9379 C   0  0  0  0  0  0  0  0  0  0  0  0
    0.4999   -1.6345   -0.4293 C   0  0  0  0  0  0  0  0  0  0  0  0
    0.9160   -4.6523    4.5382 C   0  0  0  0  0  0  0  0  0  0  0  0
   -0.3763   -0.3594    2.5223 C   0  0  0  0  0  0  0  0  0  0  0  0
    0.7371   -2.4869    3.3611 C   0  0  0  0  0  0  0  0  0  0  0  0
    0.0674    0.4436    3.5513 C   0  0  0  0  0  0  0  0  0  0  0  0
    1.2234   -1.8495    4.5156 C   0  0  0  0  0  0  0  0  0  0  0  0
   -0.9735   -1.9761   -0.7775 N   0  0  0  0  0  0  0  0  0  0  0  0
    2.1917   -7.1165    4.9076 N   0  0  0  0  0  0  0  0  0  0  0  0
    0.2670   -1.6628    2.2562 N   0  0  0  0  0  0  0  0  0  0  0  0
   -0.1825   -6.6925    5.7653 O   0  0  0  0  0  0  0  0  0  0  0  0
    0.2342   -6.8731    3.2859 O   0  0  0  0  0  0  0  0  0  0  0  0
    1.4410   -0.0666    4.5700 S   0  0  0  0  0  0  0  0  0  0  0  0
    0.6359   -6.4242    4.6274 S   0  0  0  0  0  0  0  0  0  0  0  0
  7  6  2  0
  8  6  1  0
  9  7  1  0
 11 10  1  0
 14  1  1  0
 14 13  1  0
 15 10  2  0
 15 12  1  0
 16  8  2  0
 17 12  2  0
 18  9  2  0
 18 16  1  0
 19 11  2  0
 19 17  1  0
 20  2  1  0
 20  3  1  0
 20 14  1  0
 21  4  1  0
 21  5  1  0
 22 13  1  0
 22 16  1  0
 22 17  1  0
 25 18  1  0
 25 19  1  0
 26 15  1  0
 26 21  1  0
 26 23  2  0
 26 24  2  0
M  END
>  <DRUGBANK_ID>  (1) 
DB08967

>  <COMMON_NAME>  (1) 
Dimetotiazine

>  <CAS_NUMBER>  (1) 
7456-24-8

>  <UNII>  (1) 
1FTA475ZDB

>  <SYNONYMS>  (1) 
Dimetotiazine

$$$$
