
     RDKit          3D

 25 28  0  0  1  0  0  0  0  0999 V2000
    0.9088    0.0103   -0.3006 C   0  0  0  0  0  0  0  0  0  0  0  0
    0.4568    1.3835   -0.1911 N   0  0  0  0  0  0  0  0  0  0  0  0
    1.2291    2.3169   -1.0097 C   0  0  0  0  0  0  0  0  0  0  0  0
    1.4502    3.5793   -0.1825 C   0  0  0  0  0  0  0  0  0  0  0  0
    0.5206    3.4313    1.0223 C   0  0  1  0  0  0  0  0  0  0  0  0
   -0.8118    4.1479    0.8188 C   0  0  0  0  0  0  0  0  0  0  0  0
    0.4601    1.8679    1.1936 C   0  0  2  0  0  0  0  0  0  0  0  0
    1.4876    1.5637    2.2009 N   0  0  0  0  0  0  0  0  0  0  0  0
    2.2265    0.3396    2.3954 C   0  0  0  0  0  0  0  0  0  0  0  0
    1.7535    2.7321    2.8938 C   0  0  0  0  0  0  0  0  0  0  0  0
    2.4767    2.8849    4.0511 C   0  0  0  0  0  0  0  0  0  0  0  0
    2.5878    4.1564    4.6211 C   0  0  0  0  0  0  0  0  0  0  0  0
    1.9974    5.2829    4.0359 C   0  0  0  0  0  0  0  0  0  0  0  0
    2.0550    6.5831    4.6141 O   0  0  0  0  0  0  0  0  0  0  0  0
    2.6985    6.8814    5.8267 C   0  0  0  0  0  0  0  0  0  0  0  0
    3.3376    6.0820    6.5174 O   0  0  0  0  0  0  0  0  0  0  0  0
    2.6823    8.1945    6.2324 N   0  0  0  0  0  0  0  0  0  0  0  0
    2.1386    9.2709    5.5324 C   0  0  0  0  0  0  0  0  0  0  0  0
    0.8711    9.1851    4.9643 C   0  0  0  0  0  0  0  0  0  0  0  0
    0.4387   10.1758    4.0901 C   0  0  0  0  0  0  0  0  0  0  0  0
    1.2258   11.3058    3.8789 C   0  0  0  0  0  0  0  0  0  0  0  0
    2.4194   11.4686    4.5828 C   0  0  0  0  0  0  0  0  0  0  0  0
    2.8926   10.4380    5.3953 C   0  0  0  0  0  0  0  0  0  0  0  0
    1.2974    5.1453    2.8389 C   0  0  0  0  0  0  0  0  0  0  0  0
    1.1861    3.8628    2.2968 C   0  0  0  0  0  0  0  0  0  0  0  0
  1  2  1  0
  2  3  1  0
  3  4  1  0
  5  4  1  0
  5  6  1  6
  5  7  1  0
  5 25  1  0
  7  2  1  6
  7  8  1  0
  8  9  1  0
  8 10  1  0
 10 11  1  0
 10 25  2  0
 11 12  2  0
 12 13  1  0
 13 14  1  0
 13 24  2  0
 14 15  1  0
 15 16  2  0
 15 17  1  0
 17 18  1  0
 18 19  2  0
 18 23  1  0
 19 20  1  0
 20 21  2  0
 21 22  1  0
 22 23  2  0
 24 25  1  0
M  END
>  <DRUGBANK_ID>  (1) 
DB15317

>  <COMMON_NAME>  (1) 
Posiphen

>  <CAS_NUMBER>  (1) 
116839-68-0

>  <UNII>  (1) 
Z0O4TJ588O

>  <SYNONYMS>  (1) 
(+)-Posiphen

$$$$
