ANH
     RDKit          3D

 30 31  0  0  0  0  0  0  0  0999 V2000
    1.2592    0.0265   -0.0422 N   0  0  0  0  0  0  0  0  0  0  0  0
    0.3080   -0.9220   -0.7842 C   0  0  1  0  0  0  0  0  0  0  0  0
   -0.6502   -1.7800    0.1410 C   0  0  0  0  0  0  0  0  0  0  0  0
   -0.4471   -0.4276   -2.1045 C   0  0  0  0  0  0  0  0  0  0  0  0
   -0.0999   -0.6684   -3.2498 O   0  0  0  0  0  0  0  0  0  0  0  0
   -1.5152    0.3155   -1.8063 O   0  0  0  0  0  0  0  0  0  0  0  0
   -2.3511    1.1446   -2.6134 C   0  0  0  0  0  0  0  0  0  0  0  0
   -1.7994   -1.0489    0.8606 C   0  0  0  0  0  0  0  0  0  0  0  0
   -2.6035   -1.6064    1.8210 C   0  0  0  0  0  0  0  0  0  0  0  0
   -3.3880   -0.7425    2.6281 C   0  0  0  0  0  0  0  0  0  0  0  0
   -3.3269    0.6692    2.5548 C   0  0  0  0  0  0  0  0  0  0  0  0
   -2.6158    1.2512    1.5553 C   0  0  0  0  0  0  0  0  0  0  0  0
   -2.0643    0.3223    0.6550 C   0  0  0  0  0  0  0  0  0  0  0  0
   -2.1528    2.7555    1.6567 C   0  0  0  0  0  0  0  0  0  0  0  0
   -1.3561    3.3901    0.7136 N   0  0  0  0  0  0  0  0  0  0  0  0
   -2.4011    3.4178    2.7464 N   0  0  0  0  0  0  0  0  0  0  0  0
    0.9126    0.9635    0.8554 C   0  0  0  0  0  0  0  0  0  0  0  0
    1.6921    1.9299    1.5837 C   0  0  0  0  0  0  0  0  0  0  0  0
    1.3661    3.3062    1.1396 N   0  0  0  0  0  0  0  0  0  0  0  0
   -0.2134    1.2530    1.2067 O   0  0  0  0  0  0  0  0  0  0  0  0
    7.6478    3.7144    1.0513 C   0  0  0  0  0  0  0  0  0  0  0  0
    6.1905    3.9616    1.2315 C   0  0  0  0  0  0  0  0  0  0  0  0
    5.3934    2.8697    1.4762 C   0  0  0  0  0  0  0  0  0  0  0  0
    4.1450    3.1190    1.9779 C   0  0  0  0  0  0  0  0  0  0  0  0
    3.5639    4.3893    2.0007 C   0  0  0  0  0  0  0  0  0  0  0  0
    4.3393    5.4838    1.7142 C   0  0  0  0  0  0  0  0  0  0  0  0
    5.6591    5.2632    1.3265 C   0  0  0  0  0  0  0  0  0  0  0  0
    1.8160    4.5742    2.1357 S   0  0  0  0  0  0  0  0  0  0  0  0
    1.3984    5.7709    1.4367 O   0  0  0  0  0  0  0  0  0  0  0  0
    1.4163    4.2981    3.4921 O   0  0  0  0  0  0  0  0  0  0  0  0
  1 17  1  0
  2  1  1  0
  2  3  1  1
  2  4  1  0
  3  8  1  0
  4  5  2  0
  4  6  1  0
  6  7  1  0
  8  9  2  0
  8 13  1  0
  9 10  1  0
 10 11  2  0
 11 12  1  0
 12 13  2  0
 12 14  1  0
 14 15  1  0
 14 16  2  0
 17 18  1  0
 17 20  2  0
 18 19  1  0
 19 28  1  0
 21 22  1  0
 22 23  2  0
 22 27  1  0
 23 24  1  0
 24 25  2  0
 25 26  1  0
 25 28  1  0
 26 27  2  0
 28 29  2  0
 28 30  2  0
M  END
>  <DRUGBANK_ID>  (1) 
DB01737

>  <SECONDARY_ACCESSION_NUMBERS>  (1) 
EXPT00521

>  <COMMON_NAME>  (1) 
Nalpha-(2-Naphthylsulfonylglycyl)-3-Amidino-D,L-Phenylalanine-Isopropylester

>  <CAS_NUMBER>  (1) 
133397-81-6

$$$$
