
     RDKit          3D

 28 29  0  0  0  0  0  0  0  0999 V2000
   -1.1957    1.1247    0.3384 C   0  0  0  0  0  0  0  0  0  0  0  0
    0.2410    1.2990   -0.1952 C   0  0  0  0  0  0  0  0  0  0  0  0
   -1.7708   -0.3017   -0.0752 C   0  0  0  0  0  0  0  0  0  0  0  0
   -1.3577    1.5538    1.8390 C   0  0  0  0  0  0  0  0  0  0  0  0
    1.0437    0.2040   -0.0588 C   0  0  0  0  0  0  0  0  0  0  0  0
    0.7776    2.5356   -0.8402 C   0  0  0  0  0  0  0  0  0  0  0  0
   -0.8394   -1.2668    0.0605 C   0  0  0  0  0  0  0  0  0  0  0  0
   -3.2388   -0.4073   -0.4730 C   0  0  0  0  0  0  0  0  0  0  0  0
   -0.9716    2.7982    2.4349 C   0  0  0  0  0  0  0  0  0  0  0  0
   -2.1193    0.6997    2.6571 C   0  0  0  0  0  0  0  0  0  0  0  0
    0.4592   -0.9857    0.3168 N   0  0  0  0  0  0  0  0  0  0  0  0
    2.5428   -0.0014   -0.1601 C   0  0  0  0  0  0  0  0  0  0  0  0
    0.0477    3.6816   -0.9358 O   0  0  0  0  0  0  0  0  0  0  0  0
    1.8910    2.5343   -1.3349 O   0  0  0  0  0  0  0  0  0  0  0  0
   -1.1119   -2.6901    0.1106 C   0  0  0  0  0  0  0  0  0  0  0  0
   -3.9364   -1.5366   -0.8038 O   0  0  0  0  0  0  0  0  0  0  0  0
   -3.8972    0.6475   -0.4957 O   0  0  0  0  0  0  0  0  0  0  0  0
   -1.4386    3.1781    3.6947 C   0  0  0  0  0  0  0  0  0  0  0  0
    0.1061    4.0263    1.8702 Cl  0  0  0  0  0  0  0  0  0  0  0  0
   -2.4442    1.0350    3.9705 C   0  0  0  0  0  0  0  0  0  0  0  0
    3.0370   -0.4577    1.1240 O   0  0  0  0  0  0  0  0  0  0  0  0
   -1.3712    3.8516   -0.8030 C   0  0  0  0  0  0  0  0  0  0  0  0
   -3.5748   -2.9229   -1.0198 C   0  0  0  0  0  0  0  0  0  0  0  0
   -2.1246    2.2816    4.4808 C   0  0  0  0  0  0  0  0  0  0  0  0
    2.6321    0.3415    2.2541 C   0  0  0  0  0  0  0  0  0  0  0  0
   -2.0522    3.0505   -1.8840 C   0  0  0  0  0  0  0  0  0  0  0  0
    3.2227    1.7618    2.2668 C   0  0  0  0  0  0  0  0  0  0  0  0
    2.7325    2.6422    1.2303 N   0  0  0  0  0  0  0  0  0  0  0  0
  1  2  1  0
  1  3  1  0
  1  4  1  0
  2  5  2  0
  2  6  1  0
  3  7  2  0
  3  8  1  0
  4  9  2  0
  4 10  1  0
  5 11  1  0
  5 12  1  0
  6 13  1  0
  6 14  2  0
  7 15  1  0
  7 11  1  0
  8 16  1  0
  8 17  2  0
  9 18  1  0
  9 19  1  0
 10 20  2  0
 12 21  1  0
 13 22  1  0
 16 23  1  0
 18 24  2  0
 20 24  1  0
 21 25  1  0
 22 26  1  0
 25 27  1  0
 27 28  1  0
M  END
>  <DRUGBANK_ID>  (1) 
DB00381

>  <SECONDARY_ACCESSION_NUMBERS>  (1) 
APRD00520

>  <COMMON_NAME>  (1) 
Amlodipine

>  <CAS_NUMBER>  (1) 
88150-42-9

>  <UNII>  (1) 
1J444QC288

>  <SYNONYMS>  (1) 
(RS)-3-ethyl 5-methyl 2-[(2-aminoethoxy)methyl]-4-(2-chlorophenyl)-6-methyl-1,4-dihydropyridine-3,5-dicarboxylate; 3-Ethyl 5-methylester, (Â±)-2-[(2-aminoethoxy)methyl]-4-(o-chlorophenyl)-1,4-dihydro-6-methyl-3,5-pyridinedicarboxylate; Amlodipine; Amlodipine free base; Amlodipino; Amlodipinum

$$$$
