
     RDKit          3D

 21 24  0  0  0  0  0  0  0  0999 V2000
    0.3866    0.4917    0.6230 O   0  0  0  0  0  0  0  0  0  0  0  0
   -6.0938   -6.4485   -2.8966 O   0  0  0  0  0  0  0  0  0  0  0  0
   -0.8616   -2.3358    1.1374 C   0  0  2  0  0  0  0  0  0  0  0  0
    0.5883   -2.0409    0.6933 C   0  0  2  0  0  0  0  0  0  0  0  0
   -1.6427   -2.7518   -0.0810 C   0  0  1  0  0  0  0  0  0  0  0  0
   -1.3849   -4.2268   -0.4559 C   0  0  2  0  0  0  0  0  0  0  0  0
    1.0616   -3.5885    0.5189 C   0  0  0  0  0  0  0  0  0  0  0  0
    0.1921   -4.2688   -0.8010 C   0  0  0  0  0  0  0  0  0  0  0  0
    0.7993   -0.6440    1.4971 C   0  0  2  0  0  0  0  0  0  0  0  0
   -3.1174   -2.6523    0.0802 C   0  0  1  0  0  0  0  0  0  0  0  0
   -1.4195   -1.1474    1.9158 C   0  0  0  0  0  0  0  0  0  0  0  0
   -2.8602   -4.8995   -1.1614 C   0  0  2  0  0  0  0  0  0  0  0  0
   -0.2182   -0.5403    2.5993 C   0  0  0  0  0  0  0  0  0  0  0  0
   -3.5900   -2.7591   -1.5792 C   0  0  0  0  0  0  0  0  0  0  0  0
    1.1308   -1.5365   -0.6470 C   0  0  0  0  0  0  0  0  0  0  0  0
   -3.3384   -4.1463   -2.3265 C   0  0  0  0  0  0  0  0  0  0  0  0
   -4.6376   -4.8040   -0.5546 C   0  0  0  0  0  0  0  0  0  0  0  0
   -3.3816   -3.6536    1.3775 C   0  0  0  0  0  0  0  0  0  0  0  0
   -5.8682   -4.5242   -1.5713 C   0  0  0  0  0  0  0  0  0  0  0  0
   -4.0527   -5.0664   -3.0936 C   0  0  0  0  0  0  0  0  0  0  0  0
   -5.4641   -5.3998   -2.6292 C   0  0  0  0  0  0  0  0  0  0  0  0
  2 21  2  0
  3  4  1  0
  3  5  1  0
  3 11  1  6
  4  7  1  0
  4  9  1  0
  4 15  1  6
  5  6  1  0
  5 10  1  1
  6  8  1  6
  6 12  1  0
  7  8  1  0
  9  1  1  6
  9 13  1  0
 10 14  1  0
 10 18  1  1
 11 13  1  0
 12 16  1  0
 12 17  1  1
 14 16  1  0
 16 20  2  0
 17 19  1  0
 19 21  1  0
 20 21  1  0
M  END
>  <DRUGBANK_ID>  (1) 
DB05830

>  <COMMON_NAME>  (1) 
Trestolone

>  <CAS_NUMBER>  (1) 
3764-87-2

>  <UNII>  (1) 
40P3287I94

>  <SYNONYMS>  (1) 
17beta-Hydroxy-7alpha-methylestr-4-en-3-one; 17beta-Hydroxy-7alpha-methylestr-4-enone; 19-Nor-7alpha-methyltestosterone; 19-Nor-methyltestosterone; 7alpha-Methyl-17beta-hydroxy-4-estren-3-one; 7alpha-Methyl-19-nortestosterone; 7alpha-Methyl-3-oxo-4-estren-17beta-ol; 7alpha-Methylnandrolone; 7Î±-methyl-19-nortestosterone; MENT; Trestolona; Trestolone; Trestolonum

$$$$
