
     RDKit          3D

  6  5  0  0  0  0  0  0  0  0999 V2000
    0.9328   -0.0837    0.1530 C   0  0  0  0  0  0  0  0  0  0  0  0
    0.3999    0.3431   -1.2050 C   0  0  0  0  0  0  0  0  0  0  0  0
    1.0223   -0.3056   -2.3112 O   0  0  0  0  0  0  0  0  0  0  0  0
    2.4516   -0.2619   -2.3600 C   0  0  0  0  0  0  0  0  0  0  0  0
    3.0416    1.1380   -2.5532 C   0  0  0  0  0  0  0  0  0  0  0  0
    2.8539    1.9821   -1.4214 O   0  0  0  0  0  0  0  0  0  0  0  0
  1  2  1  0
  2  3  1  0
  3  4  1  0
  4  5  1  0
  5  6  1  0
M  END
>  <DRUGBANK_ID>  (1) 
DB02249

>  <SECONDARY_ACCESSION_NUMBERS>  (1) 
EXPT01374

>  <COMMON_NAME>  (1) 
2-Ethoxyethanol

>  <CAS_NUMBER>  (1) 
110-80-5

>  <UNII>  (1) 
IDK7C2HS09

$$$$
