
     RDKit          3D

 28 31  0  0  0  0  0  0  0  0999 V2000
   -2.9549   -0.2410    0.0096 N   0  0  0  0  0  0  0  0  0  0  0  0
   -2.5836    1.0448    0.0183 C   0  0  0  0  0  0  0  0  0  0  0  0
   -1.3080    1.4351    0.0142 N   0  0  0  0  0  0  0  0  0  0  0  0
   -2.0153   -1.1866    0.0037 C   0  0  0  0  0  0  0  0  0  0  0  0
   -0.6831   -0.8911    0.0041 C   0  0  0  0  0  0  0  0  0  0  0  0
   -0.3723    0.4573    0.0108 C   0  0  0  0  0  0  0  0  0  0  0  0
    0.9964    0.8113   -0.0031 N   0  0  0  0  0  0  0  0  0  0  0  0
    2.0093   -0.1284   -0.0838 C   0  0  0  0  0  0  0  0  0  0  0  0
    1.6291   -1.5958   -0.0149 C   0  0  0  0  0  0  0  0  0  0  0  0
    0.3308   -1.9233    0.0037 C   0  0  0  0  0  0  0  0  0  0  0  0
    2.5535   -2.6485   -0.0303 O   0  0  0  0  0  0  0  0  0  0  0  0
    3.1817    0.2269   -0.2323 O   0  0  0  0  0  0  0  0  0  0  0  0
    1.3496    2.2182   -0.0004 C   0  0  0  0  0  0  0  0  0  0  0  0
   -3.5590    2.0079    0.0427 N   0  0  0  0  0  0  0  0  0  0  0  0
   -4.9784    1.6813   -0.0012 C   0  0  0  0  0  0  0  0  0  0  0  0
   -5.4121    0.9100    1.2518 C   0  0  0  0  0  0  0  0  0  0  0  0
   -6.8304    0.3894    1.1184 C   0  0  0  0  0  0  0  0  0  0  0  0
   -7.0017   -0.3450   -0.0914 O   0  0  0  0  0  0  0  0  0  0  0  0
   -6.7855    0.4575   -1.2497 C   0  0  0  0  0  0  0  0  0  0  0  0
   -5.3572    0.9638   -1.3020 C   0  0  0  0  0  0  0  0  0  0  0  0
    3.8937   -2.3753    0.0338 C   0  0  0  0  0  0  0  0  0  0  0  0
    4.6896   -2.8001   -1.0310 C   0  0  0  0  0  0  0  0  0  0  0  0
    6.0492   -2.4894   -1.0316 C   0  0  0  0  0  0  0  0  0  0  0  0
    6.5889   -1.7486    0.0193 C   0  0  0  0  0  0  0  0  0  0  0  0
    5.8087   -1.3447    1.0947 C   0  0  0  0  0  0  0  0  0  0  0  0
    4.4675   -1.6988    1.1154 C   0  0  0  0  0  0  0  0  0  0  0  0
    3.7040   -1.3026    2.1460 F   0  0  0  0  0  0  0  0  0  0  0  0
    7.8879   -1.4242   -0.0080 F   0  0  0  0  0  0  0  0  0  0  0  0
  1  4  2  0
  1  2  1  0
  2 14  1  0
  2  3  2  0
  3  6  1  0
  5  4  1  0
  5 10  1  0
  5  6  2  0
  6  7  1  0
  7  8  1  0
  7 13  1  0
  8  9  1  0
  8 12  2  0
  9 10  2  0
  9 11  1  0
 11 21  1  0
 14 15  1  0
 15 16  1  0
 15 20  1  0
 16 17  1  0
 17 18  1  0
 18 19  1  0
 19 20  1  0
 21 22  2  0
 22 23  1  0
 23 24  2  0
 24 25  1  0
 24 28  1  0
 25 26  2  0
 26 21  1  0
 26 27  1  0
M  END
>  <DRUGBANK_ID>  (1) 
DB06518

>  <COMMON_NAME>  (1) 
R-1487

>  <CAS_NUMBER>  (1) 
449811-92-1

>  <UNII>  (1) 
IO0DCY55NQ

$$$$
