
     RDKit          3D

 30 34  0  0  1  0  0  0  0  0999 V2000
    2.5489   -0.2328   -0.0084 C   0  0  0  0  0  0  0  0  0  0  0  0
    1.0669   -0.2490   -0.0141 C   0  0  0  0  0  0  0  0  0  0  0  0
    0.2635   -1.3824    0.0006 C   0  0  0  0  0  0  0  0  0  0  0  0
   -1.1346   -1.2401   -0.0022 C   0  0  0  0  0  0  0  0  0  0  0  0
   -1.7035    0.0310    0.0079 C   0  0  0  0  0  0  0  0  0  0  0  0
   -0.7766    1.0677   -0.0059 C   0  0  0  0  0  0  0  0  0  0  0  0
    0.5560    0.9736   -0.0282 N   0  0  0  0  0  0  0  0  0  0  0  0
   -3.2091    0.2376   -0.0161 C   0  0  0  0  0  0  0  0  0  0  0  0
   -3.8197    1.0118    1.1464 C   0  0  0  0  0  0  0  0  0  0  0  0
   -4.7265    0.3549    1.9685 C   0  0  0  0  0  0  0  0  0  0  0  0
   -5.3023    1.0383    3.0392 C   0  0  0  0  0  0  0  0  0  0  0  0
   -4.9547    2.3439    3.3878 C   0  0  0  0  0  0  0  0  0  0  0  0
   -4.0082    3.0170    2.5914 C   0  0  0  0  0  0  0  0  0  0  0  0
   -3.5357    2.3754    1.4247 C   0  0  0  0  0  0  0  0  0  0  0  0
   -2.7935    3.1559    0.5402 C   0  0  0  0  0  0  0  0  0  0  0  0
   -2.1574    4.3272    0.9266 C   0  0  0  0  0  0  0  0  0  0  0  0
   -2.5603    4.9388    2.0912 C   0  0  0  0  0  0  0  0  0  0  0  0
   -3.5379    4.3241    2.8764 C   0  0  0  0  0  0  0  0  0  0  0  0
   -5.5706    2.9997    4.4747 N   0  0  0  0  0  0  0  0  0  0  0  0
   -6.4927    2.3650    5.1166 C   0  0  0  0  0  0  0  0  0  0  0  0
   -6.9195    1.0929    4.8312 N   0  0  0  0  0  0  0  0  0  0  0  0
   -6.3462    0.3616    3.8014 C   0  0  0  0  0  0  0  0  0  0  0  0
   -6.6643   -0.7730    3.4826 O   0  0  0  0  0  0  0  0  0  0  0  0
   -7.9273    0.4266    5.6557 C   0  0  1  0  0  0  0  0  0  0  0  0
   -9.1836    0.0917    4.8340 C   0  0  0  0  0  0  0  0  0  0  0  0
  -10.2018   -0.6966    5.6446 C   0  0  0  0  0  0  0  0  0  0  0  0
   -9.5759   -1.9277    6.2949 C   0  0  0  0  0  0  0  0  0  0  0  0
   -8.3803   -1.5588    7.1666 C   0  0  0  0  0  0  0  0  0  0  0  0
   -7.3289   -0.8247    6.3473 C   0  0  2  0  0  0  0  0  0  0  0  0
   -6.2283   -0.4627    7.1853 O   0  0  0  0  0  0  0  0  0  0  0  0
  1  2  1  0
  2  3  2  0
  2  7  1  0
  3  4  1  0
  4  5  2  0
  5  6  1  0
  5  8  1  0
  6  7  2  0
  8  9  1  0
  9 10  2  0
  9 14  1  0
 10 11  1  0
 11 12  2  0
 11 22  1  0
 12 13  1  0
 12 19  1  0
 13 14  2  0
 13 18  1  0
 14 15  1  0
 15 16  2  0
 16 17  1  0
 17 18  2  0
 19 20  2  0
 20 21  1  0
 21 22  1  0
 22 23  2  0
 24 21  1  6
 24 25  1  0
 24 29  1  0
 25 26  1  0
 26 27  1  0
 27 28  1  0
 28 29  1  0
 29 30  1  1
M  END
>  <DRUGBANK_ID>  (1) 
DB12897

>  <COMMON_NAME>  (1) 
MK-7622

>  <CAS_NUMBER>  (1) 
1227923-29-6

>  <UNII>  (1) 
57R7D1Q49R

$$$$
