
     RDKit          3D

 21 20  0  0  0  0  0  0  0  0999 V2000
    4.8952    0.0563   -0.2801 C   0  0  0  0  0  0  0  0  0  0  0  0
    4.0982    1.1832   -0.3756 C   0  0  0  0  0  0  0  0  0  0  0  0
    2.7481    0.9722   -0.3216 C   0  0  0  0  0  0  0  0  0  0  0  0
    1.5391    2.2758    0.1300 C   0  0  0  0  0  0  0  0  0  0  0  0
   -0.2231    1.9190    0.4045 C   0  0  0  0  0  0  0  0  0  0  0  0
   -0.8431    0.2124    0.1876 C   0  0  0  0  0  0  0  0  0  0  0  0
    0.3521   -1.1126   -0.2488 C   0  0  0  0  0  0  0  0  0  0  0  0
    2.1590   -0.7769   -0.4360 C   0  0  0  0  0  0  0  0  0  0  0  0
    3.1011   -1.6874   -0.5791 N   0  0  0  0  0  0  0  0  0  0  0  0
    4.3738   -1.2607   -0.3232 C   0  0  0  0  0  0  0  0  0  0  0  0
   -0.0963   -2.4025   -0.3084 O   0  0  0  0  0  0  0  0  0  0  0  0
   -2.8688   -0.0944   -0.0160 I   0  0  0  0  0  0  0  0  0  0  0  0
    2.1248    3.9093    0.1346 S   0  0  0  0  0  0  0  0  0  0  0  0
    2.8280    4.1970    1.3584 O   0  0  0  0  0  0  0  0  0  0  0  0
    2.7340    4.1194   -1.1654 O   0  0  0  0  0  0  0  0  0  0  0  0
    0.7834    4.8048    0.1296 O   0  0  0  0  0  0  0  0  0  0  0  0
    1.1770    0.3046    1.3470 C   0  0  0  0  0  0  0  0  0  0  0  0
    0.3138   -0.3314    2.0400 O   0  0  0  0  0  0  0  0  0  0  0  0
    0.9282    0.6231   -0.4054 O   0  0  0  0  0  0  0  0  0  0  0  0
    2.3014    0.6031    1.8709 O   0  0  0  0  0  0  0  0  0  0  0  0
    1.7843    0.1019   -2.7087 Na  0  0  0  0  0 15  0  0  0  0  0  0
  1  2  2  0
  1 10  1  0
  2  3  1  0
  3  4  2  0
  3  8  1  0
  4  5  1  0
  4 13  1  0
  5  6  2  0
  6  7  1  0
  6 12  1  0
  7  8  2  0
  7 11  1  0
  8  9  1  0
  9 10  2  0
 13 14  2  0
 13 15  2  0
 13 16  1  0
 17 18  2  0
 17 19  1  0
 17 20  1  0
M  CHG  2  20  -1  21   1
M  END
>  <DRUGBANK_ID>  (1) 
DB13379

>  <COMMON_NAME>  (1) 
Chiniofon

>  <CAS_NUMBER>  (1) 
8002-90-2

>  <UNII>  (1) 
98F8Y85B6W

>  <SYNONYMS>  (1) 
Chiniofon

$$$$
