158
     RDKit          3D

 32 34  0  0  1  0  0  0  0  0999 V2000
    0.9496   -0.1387   -0.0120 O   0  0  0  0  0  0  0  0  0  0  0  0
   -2.9288   -2.4763   -0.2161 O   0  0  0  0  0  0  0  0  0  0  0  0
    1.0883    1.2815   -1.7198 O   0  0  0  0  0  0  0  0  0  0  0  0
   -2.5471    4.6652   -0.2481 O   0  0  0  0  0  0  0  0  0  0  0  0
   -1.4429    3.4732   -1.7877 O   0  0  0  0  0  0  0  0  0  0  0  0
   -4.1968    5.6834    7.5000 O   0  0  0  0  0  0  0  0  0  0  0  0
   -1.7883   -0.6456   -0.8679 N   0  0  0  0  0  0  0  0  0  0  0  0
   -4.6708    1.4988    4.5054 N   0  0  0  0  0  0  0  0  0  0  0  0
   -4.1265    2.9822    7.0057 N   0  0  0  0  0  0  0  0  0  0  0  0
   -1.8901    3.4824    9.8874 N   0  0  0  0  0  0  0  0  0  0  0  0
   -2.4209    1.4857    8.7221 N   0  0  0  0  0  0  0  0  0  0  0  0
   -2.7445    5.5866    9.2563 N   0  0  0  0  0  0  0  0  0  0  0  0
   -1.3016    5.3866   10.9988 N   0  0  0  0  0  0  0  0  0  0  0  0
   -1.1276    0.6894   -0.8679 C   0  0  1  0  0  0  0  0  0  0  0  0
   -1.3778    1.5042    0.3915 C   0  0  0  0  0  0  0  0  0  0  0  0
   -1.0095    2.9616    0.5253 C   0  0  0  0  0  0  0  0  0  0  0  0
   -2.6628   -1.2920   -0.0215 C   0  0  0  0  0  0  0  0  0  0  0  0
   -3.3023   -0.6209    1.1361 C   0  0  0  0  0  0  0  0  0  0  0  0
    0.3916    0.6094   -0.9952 C   0  0  0  0  0  0  0  0  0  0  0  0
   -4.2300    0.7880    3.4109 C   0  0  0  0  0  0  0  0  0  0  0  0
   -4.8286    0.9349    5.8363 C   0  0  0  0  0  0  0  0  0  0  0  0
   -4.0315    0.5637    1.0049 C   0  0  0  0  0  0  0  0  0  0  0  0
   -3.1872   -1.1845    2.3948 C   0  0  0  0  0  0  0  0  0  0  0  0
   -4.3133    1.3450    2.1381 C   0  0  0  0  0  0  0  0  0  0  0  0
   -3.7676   -0.5323    3.4851 C   0  0  0  0  0  0  0  0  0  0  0  0
   -3.9803    1.6436    6.8642 C   0  0  0  0  0  0  0  0  0  0  0  0
   -1.6484    3.7292   -0.6138 C   0  0  0  0  0  0  0  0  0  0  0  0
   -3.4007    3.5427    8.0144 C   0  0  0  0  0  0  0  0  0  0  0  0
   -2.5716    2.8225    8.8709 C   0  0  0  0  0  0  0  0  0  0  0  0
   -3.1309    0.9221    7.7057 C   0  0  0  0  0  0  0  0  0  0  0  0
   -3.4807    5.0116    8.2374 C   0  0  0  0  0  0  0  0  0  0  0  0
   -2.0152    4.8243   10.0047 C   0  0  0  0  0  0  0  0  0  0  0  0
  1 19  1  0
  2 17  2  0
  3 19  2  0
  4 27  1  0
  5 27  2  0
  6 31  2  0
  7 17  1  0
  8 20  1  0
  8 21  1  0
  9 26  2  0
  9 28  1  0
 10 29  1  0
 10 32  1  0
 11 29  1  0
 11 30  2  0
 12 31  1  0
 12 32  2  0
 13 32  1  0
 14  7  1  0
 14 15  1  1
 14 19  1  0
 15 16  1  0
 16 27  1  0
 17 18  1  0
 18 22  2  0
 18 23  1  0
 20 24  2  0
 20 25  1  0
 21 26  1  0
 22 24  1  0
 23 25  2  0
 26 30  1  0
 28 29  2  0
 28 31  1  0
M  END
>  <DRUGBANK_ID>  (1) 
DB00158

>  <SECONDARY_ACCESSION_NUMBERS>  (1) 
NUTR00025

>  <COMMON_NAME>  (1) 
Folic acid

>  <CAS_NUMBER>  (1) 
59-30-3

>  <UNII>  (1) 
935E97BOY8

>  <SYNONYMS>  (1) 
Acide folique; ácido fólico; Acidum folicum; Folacin; Folate; Folic acid; Folsäure; N-[(4-{[(2-amino-4-oxo-1,4-dihydropteridin-6-yl)methyl]amino}phenyl)carbonyl]-L-glutamic acid; N-pteroyl-L-glutamic acid; PGA; PteGlu; Pteroyl-L-glutamate; Pteroyl-L-glutamic acid; Pteroyl-L-monoglutamic acid; Pteroylglutamic acid; Vitamin B9; Vitamin Bc; Vitamin M

$$$$
