L22
     RDKit          3D

 13 14  0  0  0  0  0  0  0  0999 V2000
    2.0867    0.0424    0.0396 N   0  0  0  0  0  0  0  0  0  0  0  0
    0.7717   -0.2027    0.0176 C   0  0  0  0  0  0  0  0  0  0  0  0
   -0.3664    1.0851   -0.0113 S   0  0  0  0  0  0  0  0  0  0  0  0
   -1.6464   -0.0532   -0.0261 C   0  0  0  0  0  0  0  0  0  0  0  0
    0.2570   -1.4085    0.0391 N   0  0  0  0  0  0  0  0  0  0  0  0
   -1.1301   -1.3332   -0.0163 C   0  0  0  0  0  0  0  0  0  0  0  0
   -1.9743   -2.5194    0.0044 C   0  0  0  0  0  0  0  0  0  0  0  0
   -1.8507   -3.4220    1.0375 C   0  0  0  0  0  0  0  0  0  0  0  0
   -2.6951   -4.5004    0.9746 C   0  0  0  0  0  0  0  0  0  0  0  0
   -3.5786   -4.6919   -0.0190 N   0  0  0  0  0  0  0  0  0  0  0  0
   -3.6249   -3.7574   -0.9755 C   0  0  0  0  0  0  0  0  0  0  0  0
   -2.8645   -2.6580   -1.0022 N   0  0  0  0  0  0  0  0  0  0  0  0
   -4.5317   -3.9400   -1.9743 N   0  0  0  0  0  0  0  0  0  0  0  0
  1  2  1  0
  2  3  1  0
  2  5  2  0
  3  4  1  0
  4  6  2  0
  5  6  1  0
  6  7  1  0
  7  8  2  0
  7 12  1  0
  8  9  1  0
  9 10  2  0
 10 11  1  0
 11 12  2  0
 11 13  1  0
M  END
>  <DRUGBANK_ID>  (1) 
DB08075

>  <COMMON_NAME>  (1) 
4-(2-amino-1,3-thiazol-4-yl)pyrimidin-2-amine

$$$$
