
     RDKit          3D

  8  7  0  0  0  0  0  0  0  0999 V2000
    0.9108   -0.0104   -0.0352 O   0  0  0  0  0  0  0  0  0  0  0  0
    3.7721    1.8621   -0.2815 N   0  0  0  0  0  0  0  0  0  0  0  0
    2.9794   -0.0702    2.9133 N   0  0  0  0  0  0  0  0  0  0  0  0
    4.8295    1.4097    2.4295 C   0  0  0  0  0  0  0  0  0  0  0  0
    3.8195    0.4298    1.8215 C   0  0  2  0  0  0  0  0  0  0  0  0
    2.9696    1.0916    0.6960 C   0  0  2  0  0  0  0  0  0  0  0  0
    2.1362    0.0335   -0.0520 C   0  0  0  0  0  0  0  0  0  0  0  0
    2.8598   -0.8904   -0.7331 O   0  0  0  0  0  0  0  0  0  0  0  0
  5  4  1  1
  5  3  1  0
  6  7  1  0
  6  5  1  0
  6  2  1  6
  7  1  2  0
  7  8  1  0
M  END
>  <DRUGBANK_ID>  (1) 
DB04802

>  <COMMON_NAME>  (1) 
D-Erythro-2,3-diaminobutyric acid

>  <CAS_NUMBER>  (1) 
25023-78-3

>  <UNII>  (1) 
60CFB2VK6V

>  <SYNONYMS>  (1) 
(2R,3R)-2,3-Diaminobutanoic acid

$$$$
