
     RDKit          3D

 18 19  0  0  0  0  0  0  0  0999 V2000
   -0.7590   -0.9477   -0.2287 O   0  0  0  0  0  0  0  0  0  0  0  0
    1.7987    0.6983    1.3608 O   0  0  0  0  0  0  0  0  0  0  0  0
    0.0045    2.5174    0.4826 O   0  0  0  0  0  0  0  0  0  0  0  0
   -3.5323   -0.0234    0.0904 O   0  0  0  0  0  0  0  0  0  0  0  0
    2.3034   -3.2732    0.4822 O   0  0  0  0  0  0  0  0  0  0  0  0
    1.2604   -1.9497   -1.0856 N   0  0  0  0  0  0  0  0  0  0  0  0
    2.9061   -3.5900   -1.6846 N   0  0  0  0  0  0  0  0  0  0  0  0
    3.7544   -3.6463   -3.8286 N   0  0  0  0  0  0  0  0  0  0  0  0
    1.2524    0.3980    0.0604 C   0  0  2  0  0  0  0  0  0  0  0  0
    0.0083    1.2663   -0.1915 C   0  0  1  0  0  0  0  0  0  0  0  0
    0.6800   -1.0811   -0.0344 C   0  0  1  0  0  0  0  0  0  0  0  0
   -1.1345    0.3667    0.2412 C   0  0  1  0  0  0  0  0  0  0  0  0
    2.3600    0.7423   -0.9362 C   0  0  0  0  0  0  0  0  0  0  0  0
   -2.4731    0.8230   -0.3494 C   0  0  0  0  0  0  0  0  0  0  0  0
    1.2423   -1.5125   -2.3957 C   0  0  0  0  0  0  0  0  0  0  0  0
    2.1628   -2.9593   -0.7065 C   0  0  0  0  0  0  0  0  0  0  0  0
    2.2213   -1.8544   -3.2316 C   0  0  0  0  0  0  0  0  0  0  0  0
    2.9792   -3.0602   -2.8671 C   0  0  0  0  0  0  0  0  0  0  0  0
  1 11  1  0
  1 12  1  0
  4 14  1  0
  5 16  2  0
  6 15  1  0
  6 16  1  0
  7 16  1  0
  7 18  2  0
  8 18  1  0
  9  2  1  0
  9 10  1  0
  9 11  1  0
  9 13  1  6
 10  3  1  1
 10 12  1  0
 11  6  1  6
 12 14  1  6
 15 17  2  0
 17 18  1  0
M  END
>  <DRUGBANK_ID>  (1) 
DB13921

>  <COMMON_NAME>  (1) 
2'-C-methylcytidine

>  <CAS_NUMBER>  (1) 
20724-73-6

>  <UNII>  (1) 
27FS20C1D8

>  <SYNONYMS>  (1) 
2'-C-Mecytosin; 2'C-Me-C

$$$$
