
     RDKit          3D

 24 27  0  0  0  0  0  0  0  0999 V2000
    3.2881   -1.9018   -0.0904 O   0  0  0  0  0  0  0  0  0  0  0  0
    2.0796   -1.7864   -0.2583 C   0  0  0  0  0  0  0  0  0  0  0  0
    1.4175   -1.8463   -1.6180 C   0  0  0  0  0  0  0  0  0  0  0  0
    0.0750   -1.7883   -1.6593 C   0  0  0  0  0  0  0  0  0  0  0  0
   -0.8169   -1.5200   -0.4565 C   0  0  1  0  0  0  0  0  0  0  0  0
   -0.0357   -0.7632    0.6544 C   0  0  1  0  0  0  0  0  0  0  0  0
    0.3109    0.6744    0.1950 C   0  0  0  0  0  0  0  0  0  0  0  0
    1.3703    1.4137    0.7565 C   0  0  0  0  0  0  0  0  0  0  0  0
    1.7392    2.6733    0.2576 C   0  0  0  0  0  0  0  0  0  0  0  0
    0.9963    3.2294   -0.7871 C   0  0  0  0  0  0  0  0  0  0  0  0
   -0.1037    2.5527   -1.3144 C   0  0  0  0  0  0  0  0  0  0  0  0
   -0.4682    1.2907   -0.8196 C   0  0  0  0  0  0  0  0  0  0  0  0
   -1.6901    0.6249   -1.4252 C   0  0  0  0  0  0  0  0  0  0  0  0
   -2.0941   -0.7160   -0.7705 C   0  0  2  0  0  0  0  0  0  0  0  0
   -2.9213   -0.6553    0.4632 N   0  0  0  0  0  0  0  0  0  0  0  0
   -2.2742    0.0256    1.5845 C   0  0  0  0  0  0  0  0  0  0  0  0
   -0.9351   -0.6416    1.9053 C   0  0  0  0  0  0  0  0  0  0  0  0
   -4.2622   -0.1302    0.2376 C   0  0  0  0  0  0  0  0  0  0  0  0
    2.7785    3.4586    0.6978 O   0  0  0  0  0  0  0  0  0  0  0  0
    3.5984    2.9266    1.7372 C   0  0  0  0  0  0  0  0  0  0  0  0
    2.0678    0.9129    1.8181 O   0  0  0  0  0  0  0  0  0  0  0  0
    1.1710   -1.6831    0.9448 C   0  0  0  0  0  0  0  0  0  0  0  0
    2.1060   -1.9814   -2.8128 O   0  0  0  0  0  0  0  0  0  0  0  0
    3.5265   -2.0079   -2.7334 C   0  0  0  0  0  0  0  0  0  0  0  0
  1  2  2  0
  2  3  1  0
  3  4  2  0
  3 23  1  0
  5  4  1  6
  5  6  1  0
  6  7  1  0
  6 17  1  1
  6 22  1  0
  7  8  2  0
  8  9  1  0
  8 21  1  0
  9 10  2  0
  9 19  1  0
 10 11  1  0
 11 12  2  0
 12  7  1  0
 12 13  1  0
 14 13  1  1
 14  5  1  0
 14 15  1  0
 15 16  1  0
 15 18  1  0
 16 17  1  0
 19 20  1  0
 22  2  1  0
 23 24  1  0
M  END
>  <DRUGBANK_ID>  (1) 
DB16892

>  <COMMON_NAME>  (1) 
Sinomenine

>  <CAS_NUMBER>  (1) 
115-53-7

>  <UNII>  (1) 
63LT81K70N

>  <SYNONYMS>  (1) 
Coculine; Kukoline

$$$$
