
     RDKit          3D

 19 20  0  0  0  0  0  0  0  0999 V2000
    1.0907    0.2623    0.1336 C   0  0  0  0  0  0  0  0  0  0  0  0
    0.3289   -0.4538    1.1989 N   0  0  0  0  0  0  0  0  0  0  0  0
    0.9651   -0.0749    2.5336 C   0  0  0  0  0  0  0  0  0  0  0  0
   -1.1622   -0.6893    1.1981 C   0  0  0  0  0  0  0  0  0  0  0  0
   -1.6843   -1.4648   -0.0278 C   0  0  0  0  0  0  0  0  0  0  0  0
   -1.3221   -2.9271   -0.0867 O   0  0  0  0  0  0  0  0  0  0  0  0
   -0.0474   -3.5190   -0.3012 C   0  0  0  0  0  0  0  0  0  0  0  0
    1.4339   -3.4679    1.0330 C   0  0  0  0  0  0  0  0  0  0  0  0
    3.1095   -3.4673    0.8033 C   0  0  0  0  0  0  0  0  0  0  0  0
    3.6541   -3.7328   -0.5453 C   0  0  0  0  0  0  0  0  0  0  0  0
    2.7946   -3.9961   -1.8688 C   0  0  0  0  0  0  0  0  0  0  0  0
    1.0532   -3.6895   -2.0190 C   0  0  0  0  0  0  0  0  0  0  0  0
    0.6094   -1.7873    1.1212 C   0  0  0  0  0  0  0  0  0  0  0  0
    1.3367   -2.5038   -0.6383 C   0  0  0  0  0  0  0  0  0  0  0  0
    1.3336   -4.6073   -0.4934 C   0  0  0  0  0  0  0  0  0  0  0  0
    0.0216   -5.3999   -1.4794 C   0  0  0  0  0  0  0  0  0  0  0  0
   -0.9580   -4.4004   -2.5651 C   0  0  0  0  0  0  0  0  0  0  0  0
   -0.8841   -2.7047   -2.6695 C   0  0  0  0  0  0  0  0  0  0  0  0
    0.1913   -1.7773   -1.8452 C   0  0  0  0  0  0  0  0  0  0  0  0
  1  2  1  0
  2  3  1  0
  2  4  1  0
  2 13  1  0
  4  5  1  0
  5  6  1  0
  6  7  1  0
  7  8  2  0
  7 12  1  0
  8  9  1  0
  9 10  2  0
 10 11  1  0
 11 12  2  0
 13 14  1  0
 14 15  2  0
 14 19  1  0
 15 16  1  0
 16 17  2  0
 17 18  1  0
 18 19  2  0
M  CHG  1   2   1
M  END
>  <DRUGBANK_ID>  (1) 
DB13462

>  <COMMON_NAME>  (1) 
Bephenium

>  <CAS_NUMBER>  (1) 
7181-73-9

>  <UNII>  (1) 
PXO9B4983I

$$$$
