
     RDKit          3D

 31 35  0  0  1  0  0  0  0  0999 V2000
   12.8003   -3.2714   -8.8914 C   0  0  0  0  0  0  0  0  0  0  0  0
   11.4062   -3.2625   -8.7373 C   0  0  0  0  0  0  0  0  0  0  0  0
   13.6305   -3.6685   -7.8396 C   0  0  0  0  0  0  0  0  0  0  0  0
   10.8242   -3.6352   -7.5256 C   0  0  0  0  0  0  0  0  0  0  0  0
   13.7088   -4.5470   -5.3993 C   0  0  0  0  0  0  0  0  0  0  0  0
   12.5232   -5.2342   -4.6793 C   0  0  0  0  0  0  0  0  0  0  0  0
    8.9532   -7.2241   -3.0061 C   0  0  0  0  0  0  0  0  0  0  0  0
    8.1149   -7.6786   -2.0257 C   0  0  0  0  0  0  0  0  0  0  0  0
    6.5069   -7.2319    0.6329 C   0  0  0  0  0  0  0  0  0  0  0  0
    5.2028   -8.0106   -1.2337 C   0  0  0  0  0  0  0  0  0  0  0  0
    4.7212   -8.6204    1.9179 C   0  0  0  0  0  0  0  0  0  0  0  0
    7.1958   -3.6562   -3.5860 C   0  0  0  0  0  0  0  0  0  0  0  0
   13.0408   -4.0682   -6.6494 C   0  0  0  0  0  0  0  0  0  0  0  0
    5.9251   -8.6628    0.9517 C   0  0  1  0  0  0  0  0  0  0  0  0
    6.0713   -6.8649   -0.8120 C   0  0  2  0  0  0  0  0  0  0  0  0
   11.6493   -4.0393   -6.4873 C   0  0  0  0  0  0  0  0  0  0  0  0
    8.5055   -5.9407   -3.3815 C   0  0  0  0  0  0  0  0  0  0  0  0
   11.2436   -4.4506   -5.0952 C   0  0  1  0  0  0  0  0  0  0  0  0
    5.7283   -9.2083   -0.5008 C   0  0  1  0  0  0  0  0  0  0  0  0
    8.9794   -4.9776   -4.2837 C   0  0  0  0  0  0  0  0  0  0  0  0
    7.3788   -5.6465   -2.6162 C   0  0  0  0  0  0  0  0  0  0  0  0
    2.7605  -10.2215    0.4159 N   0  0  0  0  0  0  0  0  0  0  0  0
    8.3085   -3.8048   -4.3468 N   0  0  0  0  0  0  0  0  0  0  0  0
    6.6551   -4.5149   -2.6924 N   0  0  0  0  0  0  0  0  0  0  0  0
   10.0329   -5.2527   -5.1441 N   0  0  0  0  0  0  0  0  0  0  0  0
    7.1648   -6.7153   -1.7691 N   0  0  0  0  0  0  0  0  0  0  0  0
    4.7947  -10.1350   -1.0070 O   0  0  0  0  0  0  0  0  0  0  0  0
    4.9771  -11.5687    0.7495 O   0  0  0  0  0  0  0  0  0  0  0  0
    2.9551  -12.0098    2.1179 O   0  0  0  0  0  0  0  0  0  0  0  0
    4.2912   -9.8877    2.4325 O   0  0  0  0  0  0  0  0  0  0  0  0
    3.8075  -11.0641    1.4244 S   0  0  0  0  0  0  0  0  0  0  0  0
  2  1  2  0
  3  1  1  0
  4  2  1  0
  6  5  1  0
  8  7  2  0
 13  3  2  0
 13  5  1  0
 14  9  1  0
 14 11  1  6
 15  9  1  0
 15 10  1  0
 15 26  1  6
 16  4  2  0
 16 13  1  0
 17  7  1  0
 18  6  1  0
 18 16  1  0
 18 25  1  6
 19 10  1  0
 19 14  1  0
 19 27  1  1
 20 17  2  0
 21 17  1  0
 23 12  2  0
 23 20  1  0
 24 12  1  0
 24 21  2  0
 25 20  1  0
 26  8  1  0
 26 21  1  0
 30 11  1  0
 31 22  1  0
 31 28  2  0
 31 29  2  0
 31 30  1  0
M  END
>  <DRUGBANK_ID>  (1) 
DB11759

>  <COMMON_NAME>  (1) 
Pevonedistat

>  <CAS_NUMBER>  (1) 
905579-51-3

>  <UNII>  (1) 
S3AZD8D215

>  <SYNONYMS>  (1) 
Pevonedistat

$$$$
