CCO
     RDKit          3D

 17 18  0  0  0  0  0  0  0  0999 V2000
    1.7511   -1.2336    0.0303 C   0  0  0  0  0  0  0  0  0  0  0  0
    2.4335   -0.0095    0.0405 C   0  0  0  0  0  0  0  0  0  0  0  0
    1.7264    1.1968    0.0092 C   0  0  0  0  0  0  0  0  0  0  0  0
    0.3319    1.1885   -0.0126 C   0  0  0  0  0  0  0  0  0  0  0  0
   -0.3501   -0.0271   -0.0196 C   0  0  0  0  0  0  0  0  0  0  0  0
    0.3491   -1.2365   -0.0149 C   0  0  0  0  0  0  0  0  0  0  0  0
   -2.0719   -0.0312   -0.0165 Cl  0  0  0  0  0  0  0  0  0  0  0  0
    3.2773   -4.4012   -0.4925 O   0  0  0  0  0  0  0  0  0  0  0  0
    3.8209   -3.9914    0.6956 C   0  0  0  0  0  0  0  0  0  0  0  0
    4.9395   -4.9957    1.5701 S   0  0  0  0  0  0  0  0  0  0  0  0
    3.3706   -2.8155    1.0796 N   0  0  0  0  0  0  0  0  0  0  0  0
    2.4971   -2.4819    0.0572 C   0  0  0  0  0  0  0  0  0  0  0  0
    2.3908   -3.4101   -0.9030 N   0  0  0  0  0  0  0  0  0  0  0  0
    5.3414   -4.0290    3.0407 C   0  0  0  0  0  0  0  0  0  0  0  0
    6.0527   -2.7407    2.7001 C   0  0  0  0  0  0  0  0  0  0  0  0
    5.4795   -1.6249    3.2071 O   0  0  0  0  0  0  0  0  0  0  0  0
    7.0967   -2.6859    2.0600 O   0  0  0  0  0  0  0  0  0  0  0  0
  1  2  2  0
  1  6  1  0
  1 12  1  0
  2  3  1  0
  3  4  2  0
  4  5  1  0
  5  6  2  0
  5  7  1  0
  8  9  1  0
  8 13  1  0
  9 10  1  0
  9 11  2  0
 10 14  1  0
 11 12  1  0
 12 13  2  0
 14 15  1  0
 15 16  1  0
 15 17  2  0
M  END
>  <DRUGBANK_ID>  (1) 
DB03928

>  <SECONDARY_ACCESSION_NUMBERS>  (1) 
EXPT00861

>  <COMMON_NAME>  (1) 
Carboxymethylthio-3-(3-Chlorophenyl)-1,2,4-Oxadiazol

$$$$
