
     RDKit          3D

 11 10  0  0  1  0  0  0  0  0999 V2000
   -4.1605    4.6971    1.4387 C   0  0  0  0  0  0  0  0  0  0  0  0
   -2.8824    3.8733    1.3567 C   0  0  2  0  0  0  0  0  0  0  0  0
   -1.8114    4.6555    1.9172 O   0  0  0  0  0  0  0  0  0  0  0  0
   -2.4649    3.4352   -0.0648 C   0  0  1  0  0  0  0  0  0  0  0  0
   -1.1936    2.7800    0.0551 O   0  0  0  0  0  0  0  0  0  0  0  0
   -3.4583    2.4703   -0.7476 C   0  0  1  0  0  0  0  0  0  0  0  0
   -4.7574    3.0620   -0.8710 O   0  0  0  0  0  0  0  0  0  0  0  0
   -2.9974    2.0365   -2.1525 C   0  0  2  0  0  0  0  0  0  0  0  0
   -1.6459    1.9306   -2.2393 F   0  0  0  0  0  0  0  0  0  0  0  0
   -3.5172    3.0066   -3.1861 C   0  0  0  0  0  0  0  0  0  0  0  0
   -4.2207    2.6842   -4.1359 O   0  0  0  0  0  0  0  0  0  0  0  0
  2  3  1  0
  2  1  1  6
  4  2  1  0
  4  5  1  1
  4  6  1  0
  6  7  1  6
  8 10  1  0
  8  9  1  1
  8  6  1  0
 10 11  2  0
M  END
>  <DRUGBANK_ID>  (1) 
DB15302

>  <COMMON_NAME>  (1) 
2-fluorofucose

>  <CAS_NUMBER>  (1) 
70763-62-1

>  <UNII>  (1) 
W39886N0ZG

>  <SYNONYMS>  (1) 
SGN-2FF

$$$$
