
     RDKit          3D

 12 12  0  0  0  0  0  0  0  0999 V2000
    0.9934    0.0699    0.0826 N   0  0  0  0  0  0  0  0  0  0  0  0
    0.4070    1.6058   -0.2689 S   0  0  0  0  0  0  0  0  0  0  0  0
    1.0871    1.9755   -1.4845 O   0  0  0  0  0  0  0  0  0  0  0  0
   -1.0356    1.4942   -0.1919 O   0  0  0  0  0  0  0  0  0  0  0  0
    0.9234    2.6744    1.0084 C   0  0  0  0  0  0  0  0  0  0  0  0
    0.6598    4.0309    0.8465 C   0  0  0  0  0  0  0  0  0  0  0  0
    0.1009    4.4955   -0.2788 F   0  0  0  0  0  0  0  0  0  0  0  0
    0.9600    4.9459    1.8560 C   0  0  0  0  0  0  0  0  0  0  0  0
    1.5453    4.5037    3.0396 C   0  0  0  0  0  0  0  0  0  0  0  0
    1.8496    3.1505    3.1884 C   0  0  0  0  0  0  0  0  0  0  0  0
    1.5399    2.2413    2.1716 C   0  0  0  0  0  0  0  0  0  0  0  0
    1.8632    0.9579    2.3708 F   0  0  0  0  0  0  0  0  0  0  0  0
  1  2  1  0
  2  3  2  0
  2  4  2  0
  2  5  1  0
  5  6  2  0
  5 11  1  0
  6  7  1  0
  6  8  1  0
  8  9  2  0
  9 10  1  0
 10 11  2  0
 11 12  1  0
M  END
>  <DRUGBANK_ID>  (1) 
DB03270

>  <SECONDARY_ACCESSION_NUMBERS>  (1) 
EXPT01397

>  <COMMON_NAME>  (1) 
2,6-Difluorobenzenesulfonamide

>  <UNII>  (1) 
XUJ3WJ7RKA

$$$$
