
     RDKit          3D

 22 23  0  0  0  0  0  0  0  0999 V2000
    0.2565   -1.2438    0.0010 C   0  0  0  0  0  0  0  0  0  0  0  0
    0.9761   -0.0491    0.0036 C   0  0  0  0  0  0  0  0  0  0  0  0
    0.3368    1.1778   -0.0555 C   0  0  0  0  0  0  0  0  0  0  0  0
   -1.0395    1.2123   -0.1732 C   0  0  0  0  0  0  0  0  0  0  0  0
   -1.7858    0.0283   -0.1268 C   0  0  0  0  0  0  0  0  0  0  0  0
   -1.1349   -1.2052   -0.0434 C   0  0  0  0  0  0  0  0  0  0  0  0
   -3.2788    0.1108   -0.0520 C   0  0  0  0  0  0  0  0  0  0  0  0
   -3.6621    0.7503    1.2810 C   0  0  0  0  0  0  0  0  0  0  0  0
   -3.5074    2.1977    1.3346 N   0  0  0  0  0  0  0  0  0  0  0  0
   -4.3545    3.2512    1.2039 C   0  0  0  0  0  0  0  0  0  0  0  0
   -3.8902    4.3812    1.1857 O   0  0  0  0  0  0  0  0  0  0  0  0
   -5.8282    3.0869    1.1482 C   0  0  0  0  0  0  0  0  0  0  0  0
   -6.5241    1.9515    1.1281 C   0  0  0  0  0  0  0  0  0  0  0  0
   -7.9518    1.7669    1.1437 C   0  0  0  0  0  0  0  0  0  0  0  0
   -8.7447    2.4374    0.2308 C   0  0  0  0  0  0  0  0  0  0  0  0
  -10.0930    2.1425    0.1832 C   0  0  0  0  0  0  0  0  0  0  0  0
  -10.6279    1.1615    1.0272 C   0  0  0  0  0  0  0  0  0  0  0  0
   -9.8136    0.4538    1.9083 C   0  0  0  0  0  0  0  0  0  0  0  0
   -8.4642    0.7490    1.9609 C   0  0  0  0  0  0  0  0  0  0  0  0
  -11.9449    0.8157    1.0555 O   0  0  0  0  0  0  0  0  0  0  0  0
  -10.7956    2.8659   -0.7313 O   0  0  0  0  0  0  0  0  0  0  0  0
    2.3367   -0.0262    0.0437 O   0  0  0  0  0  0  0  0  0  0  0  0
  1  2  2  0
  1  6  1  0
  2  3  1  0
  2 22  1  0
  3  4  2  0
  4  5  1  0
  5  6  2  0
  5  7  1  0
  8  7  1  0
  8  9  1  0
 10  9  1  0
 10 12  1  0
 11 10  2  0
 13 12  2  0
 14 13  1  0
 14 19  1  0
 15 14  2  0
 15 16  1  0
 16 17  2  0
 16 21  1  0
 17 18  1  0
 17 20  1  0
 18 19  2  0
M  END
>  <DRUGBANK_ID>  (1) 
DB08754

>  <COMMON_NAME>  (1) 
N-Caffeoyltyramine

>  <CAS_NUMBER>  (1) 
103188-48-3

>  <UNII>  (1) 
3LZ974DQ9J

>  <SYNONYMS>  (1) 
N-Caffeoyltyramine; N-trans-Caffeoyltyramine; trans-N-Caffeoyltyramine; Typheramide

$$$$
