
     RDKit          3D

 25 26  0  0  0  0  0  0  0  0999 V2000
    0.8736   -5.0614   -2.0448 S   0  0  0  0  0  0  0  0  0  0  0  0
    1.4820   -2.1605    2.0729 O   0  0  0  0  0  0  0  0  0  0  0  0
    1.9116   -4.3377    2.4007 O   0  0  0  0  0  0  0  0  0  0  0  0
   -2.9819   -6.8372   -3.0126 O   0  0  0  0  0  0  0  0  0  0  0  0
   -3.9280   -2.6928    0.7043 O   0  0  0  0  0  0  0  0  0  0  0  0
    0.9752   -3.5079   -5.0603 O   0  0  0  0  0  0  0  0  0  0  0  0
   -0.2397   -4.7225    0.3373 N   0  0  0  0  0  0  0  0  0  0  0  0
   -3.1466   -4.2837   -0.6708 N   0  0  0  0  0  0  0  0  0  0  0  0
   -1.5093   -1.0045    0.6202 N   0  0  0  0  0  0  0  0  0  0  0  0
    1.9340   -4.1092   -0.8069 C   0  0  0  0  0  0  0  0  0  0  0  0
    0.9219   -3.7403    0.2715 C   0  0  2  0  0  0  0  0  0  0  0  0
   -0.6406   -5.2562   -0.9884 C   0  0  1  0  0  0  0  0  0  0  0  0
   -2.1828   -5.0728   -1.5291 C   0  0  1  0  0  0  0  0  0  0  0  0
    2.8606   -5.1945   -0.3316 C   0  0  0  0  0  0  0  0  0  0  0  0
    2.9230   -2.9489   -1.2240 C   0  0  0  0  0  0  0  0  0  0  0  0
    1.4944   -3.4731    1.6810 C   0  0  0  0  0  0  0  0  0  0  0  0
   -2.7405   -6.4617   -1.8643 C   0  0  0  0  0  0  0  0  0  0  0  0
   -3.0122   -3.0449   -0.0455 C   0  0  0  0  0  0  0  0  0  0  0  0
   -1.6853   -2.2404   -0.1814 C   0  0  1  0  0  0  0  0  0  0  0  0
   -1.0610   -2.1089   -1.6229 C   0  0  0  0  0  0  0  0  0  0  0  0
    0.2349   -1.6683   -1.9421 C   0  0  0  0  0  0  0  0  0  0  0  0
   -1.7250   -2.5953   -2.7392 C   0  0  0  0  0  0  0  0  0  0  0  0
    0.8978   -2.0265   -3.1706 C   0  0  0  0  0  0  0  0  0  0  0  0
   -1.0396   -3.1260   -3.8696 C   0  0  0  0  0  0  0  0  0  0  0  0
    0.2899   -2.8594   -4.0776 C   0  0  0  0  0  0  0  0  0  0  0  0
  1 10  1  0
  1 12  1  0
  2 16  1  0
  3 16  2  0
  4 17  2  0
  5 18  2  0
  6 25  1  0
  7 11  1  0
 12  7  1  1
  8 18  1  0
 10 11  1  0
 10 14  1  0
 10 15  1  0
 11 16  1  1
 13 17  1  1
 13 12  1  0
 13  8  1  0
 19 20  1  0
 19 18  1  0
 19  9  1  6
 20 21  2  0
 20 22  1  0
 21 23  1  0
 22 24  2  0
 23 25  2  0
 24 25  1  0
M  END
>  <DRUGBANK_ID>  (1) 
DB03658

>  <SECONDARY_ACCESSION_NUMBERS>  (1) 
EXPT00594

>  <COMMON_NAME>  (1) 
(2R,4S)-2-[(1R)-1-{[(2R)-2-Amino-2-(4-hydroxyphenyl)acetyl]amino}-2-oxoethyl]-5,5-dimethyl-1,3-thiazolidine-4-carboxylic acid

>  <SYNONYMS>  (1) 
(2R,4S)-2-[(1R)-1-[[(2R)-2-Amino-2-(4-hydroxyphenyl)acetyl]amino]-2-oxoethyl]-5,5-dimethyl-1,3-thiazolidine-4-carboxylic acid

$$$$
