L02
     RDKit          3D

 18 20  0  0  0  0  0  0  0  0999 V2000
   -0.2377   -1.0057   -0.1245 N   0  0  0  0  0  0  0  0  0  0  0  0
   -1.1312    0.0011   -0.0183 N   0  0  0  0  0  0  0  0  0  0  0  0
   -0.3965    1.1122   -0.1104 C   0  0  0  0  0  0  0  0  0  0  0  0
    0.9767    0.7897   -0.2709 C   0  0  0  0  0  0  0  0  0  0  0  0
    1.0729   -0.5818   -0.2102 C   0  0  0  0  0  0  0  0  0  0  0  0
    2.2288   -1.5112    0.0991 C   0  0  0  0  0  0  0  0  0  0  0  0
    2.8766   -1.0091    1.4008 C   0  0  0  0  0  0  0  0  0  0  0  0
    3.8966    0.1053    1.1492 C   0  0  0  0  0  0  0  0  0  0  0  0
    4.9464   -0.3365    0.2372 N   0  0  0  0  0  0  0  0  0  0  0  0
    4.3818   -0.6794   -1.0697 C   0  0  0  0  0  0  0  0  0  0  0  0
    3.3209   -1.7735   -0.9523 C   0  0  0  0  0  0  0  0  0  0  0  0
   -1.7335    2.9015    1.0274 C   0  0  0  0  0  0  0  0  0  0  0  0
   -0.9391    2.4642   -0.0412 C   0  0  0  0  0  0  0  0  0  0  0  0
   -0.5925    3.3702   -1.0537 C   0  0  0  0  0  0  0  0  0  0  0  0
   -1.0414    4.6898   -1.0148 C   0  0  0  0  0  0  0  0  0  0  0  0
   -1.8337    5.1152    0.0477 C   0  0  0  0  0  0  0  0  0  0  0  0
   -2.1797    4.2306    1.0701 C   0  0  0  0  0  0  0  0  0  0  0  0
   -2.3814    6.7458    0.0937 Cl  0  0  0  0  0  0  0  0  0  0  0  0
  1  2  1  0
  1  5  1  0
  2  3  2  0
  3  4  1  0
  3 13  1  0
  4  5  2  0
  5  6  1  0
  6  7  1  0
  6 11  1  0
  7  8  1  0
  8  9  1  0
  9 10  1  0
 10 11  1  0
 12 13  2  0
 12 17  1  0
 13 14  1  0
 14 15  2  0
 15 16  1  0
 16 17  2  0
 16 18  1  0
M  END
>  <DRUGBANK_ID>  (1) 
DB08061

>  <COMMON_NAME>  (1) 
4-[3-(4-CHLOROPHENYL)-1H-PYRAZOL-5-YL]PIPERIDINE

>  <UNII>  (1) 
3M2B2SQW0I

$$$$
