
     RDKit          3D

 18 19  0  0  0  0  0  0  0  0999 V2000
   -3.1493   -1.2674   -0.0003 N   0  0  0  0  0  0  0  0  0  0  0  0
   -1.9206   -0.7153    0.0012 C   0  0  0  0  0  0  0  0  0  0  0  0
   -0.8695   -1.4677    0.0072 N   0  0  0  0  0  0  0  0  0  0  0  0
    0.3805   -0.8426    0.0130 C   0  0  0  0  0  0  0  0  0  0  0  0
    1.4449   -1.6778    0.0201 N   0  0  0  0  0  0  0  0  0  0  0  0
    2.6645   -1.0914    0.0429 C   0  0  0  0  0  0  0  0  0  0  0  0
    2.8442    0.2907    0.0351 C   0  0  0  0  0  0  0  0  0  0  0  0
    4.2314    0.8843   -0.0160 C   0  0  0  0  0  0  0  0  0  0  0  0
    4.4261    1.6595   -1.1998 O   0  0  0  0  0  0  0  0  0  0  0  0
    4.1757    0.6795   -2.6033 P   0  0  0  0  0  0  0  0  0  0  0  0
    3.0433    1.7848   -2.9996 O   0  0  0  0  0  0  0  0  0  0  0  0
    5.4782    1.4656   -3.1995 O   0  0  0  0  0  0  0  0  0  0  0  0
    3.9515   -0.1976   -3.8594 O   0  0  0  0  0  0  0  0  0  0  0  0
    1.7826    1.1332   -0.0106 N   0  0  0  0  0  0  0  0  0  0  0  0
    0.5594    0.5321    0.0049 C   0  0  0  0  0  0  0  0  0  0  0  0
   -0.6667    1.3556   -0.0006 C   0  0  0  0  0  0  0  0  0  0  0  0
   -0.6556    2.5783   -0.0060 O   0  0  0  0  0  0  0  0  0  0  0  0
   -1.8494    0.6472   -0.0026 N   0  0  0  0  0  0  0  0  0  0  0  0
  1  2  1  0
  2  3  2  0
  2 18  1  0
  3  4  1  0
  4  5  2  0
  4 15  1  0
  5  6  1  0
  6  7  2  0
  7  8  1  0
  7 14  1  0
  8  9  1  0
  9 10  1  0
 10 11  1  0
 10 12  1  0
 10 13  2  0
 14 15  2  0
 15 16  1  0
 16 17  2  0
 16 18  1  0
M  END
>  <DRUGBANK_ID>  (1) 
DB03592

>  <SECONDARY_ACCESSION_NUMBERS>  (1) 
EXPT02619

>  <COMMON_NAME>  (1) 
Pterin-6-Yl-Methyl-Monophosphate

$$$$
