
     RDKit          3D

 20 22  0  0  0  0  0  0  0  0999 V2000
    0.2439    6.9627    0.4853 N   0  0  0  0  0  0  0  0  0  0  0  0
    0.9869    7.4582   -0.4916 N   0  0  0  0  0  0  0  0  0  0  0  0
    0.2178    5.6472    0.2590 N   0  0  0  0  0  0  0  0  0  0  0  0
    1.0388    5.3253   -0.7881 C   0  0  0  0  0  0  0  0  0  0  0  0
    1.4892    6.4554   -1.2885 N   0  0  0  0  0  0  0  0  0  0  0  0
    5.5867    3.3987    2.3401 N   0  0  0  0  0  0  0  0  0  0  0  0
    4.9937    4.7512    2.1972 C   0  0  2  0  0  0  0  0  0  0  0  0
    2.8503    3.9162    3.2623 C   0  0  2  0  0  0  0  0  0  0  0  0
    6.0618    5.8325    2.2509 C   0  0  0  0  0  0  0  0  0  0  0  0
    3.9458    4.9919    3.2960 C   0  0  0  0  0  0  0  0  0  0  0  0
    3.4383    2.5093    3.2921 C   0  0  2  0  0  0  0  0  0  0  0  0
    4.5606    2.3576    2.2439 C   0  0  0  0  0  0  0  0  0  0  0  0
    1.9827    4.1597    2.0414 C   0  0  0  0  0  0  0  0  0  0  0  0
    6.3039    6.6560    1.3703 O   0  0  0  0  0  0  0  0  0  0  0  0
    2.2928    1.5043    3.0997 C   0  0  0  0  0  0  0  0  0  0  0  0
    1.3591    3.9383   -1.2198 C   0  0  0  0  0  0  0  0  0  0  0  0
    6.7503    5.8576    3.4088 O   0  0  0  0  0  0  0  0  0  0  0  0
    1.5350    2.9753    1.1566 C   0  0  2  0  0  0  0  0  0  0  0  0
    1.7561    1.5519    1.6847 C   0  0  0  0  0  0  0  0  0  0  0  0
    2.2046    3.1412   -0.2335 C   0  0  0  0  0  0  0  0  0  0  0  0
  2  1  2  0
  3  1  1  0
  4  3  1  0
  5  2  1  0
  5  4  2  0
  6 12  1  0
  6  7  1  0
  7 10  1  0
  7  9  1  1
  8 13  1  6
 10  8  1  0
 11 15  1  6
 11  8  1  0
 12 11  1  0
 13 18  1  0
 14  9  2  0
 15 19  1  0
 16  4  1  0
 17  9  1  0
 18 20  1  6
 19 18  1  0
 20 16  1  0
M  END
>  <DRUGBANK_ID>  (1) 
DB06354

>  <COMMON_NAME>  (1) 
Tezampanel

>  <CAS_NUMBER>  (1) 
154652-83-2

>  <UNII>  (1) 
GA36S2O9C2

>  <SYNONYMS>  (1) 
Tezampanel; Tezampanel (anhydrous); Tezampanel, anhydrous

$$$$
