
     RDKit          3D

 21 22  0  0  0  0  0  0  0  0999 V2000
    0.5331    1.3794    0.0071 C   0  0  0  0  0  0  0  0  0  0  0  0
   -0.4886    3.9593   -0.1327 S   0  0  0  0  0  0  0  0  0  0  0  0
    0.7636    2.8223    0.0477 N   0  0  0  0  0  0  0  0  0  0  0  0
   -0.6377    0.6339   -0.0024 C   0  0  0  0  0  0  0  0  0  0  0  0
    1.5635    0.4519    0.0067 O   0  0  0  0  0  0  0  0  0  0  0  0
    1.0816   -0.8460   -0.0001 N   0  0  0  0  0  0  0  0  0  0  0  0
   -0.2422   -0.7273   -0.0065 C   0  0  0  0  0  0  0  0  0  0  0  0
    2.1535    3.2282   -0.0255 C   0  0  0  0  0  0  0  0  0  0  0  0
   -0.3874    4.9269    1.3535 C   0  0  0  0  0  0  0  0  0  0  0  0
   -0.1618    4.8058   -1.2580 O   0  0  0  0  0  0  0  0  0  0  0  0
   -1.8467    3.4843   -0.0276 O   0  0  0  0  0  0  0  0  0  0  0  0
    3.1019    2.4429   -0.0138 O   0  0  0  0  0  0  0  0  0  0  0  0
   -0.4829    4.3184    2.6107 C   0  0  0  0  0  0  0  0  0  0  0  0
   -0.3607    6.3115    1.2239 C   0  0  0  0  0  0  0  0  0  0  0  0
   -2.0499    1.0319    0.0084 C   0  0  0  0  0  0  0  0  0  0  0  0
   -0.4682    6.5214    3.6365 C   0  0  0  0  0  0  0  0  0  0  0  0
   -0.4097    7.3232    4.7612 N   0  0  0  0  0  0  0  0  0  0  0  0
   -0.5147    5.1271    3.7505 C   0  0  0  0  0  0  0  0  0  0  0  0
   -0.3786    7.1000    2.3672 C   0  0  0  0  0  0  0  0  0  0  0  0
    2.4738    4.7059   -0.0741 C   0  0  0  0  0  0  0  0  0  0  0  0
   -1.1561   -1.8981   -0.0060 C   0  0  0  0  0  0  0  0  0  0  0  0
  2  3  1  0
  3  1  1  0
  4  1  2  0
  5  1  1  0
  6  5  1  0
  6  7  2  0
  7  4  1  0
  8  3  1  0
  9  2  1  0
 10  2  2  0
 11  2  2  0
 12  8  2  0
 13  9  2  0
 14  9  1  0
 15  4  1  0
 16 19  1  0
 17 16  1  0
 18 13  1  0
 18 16  2  0
 19 14  2  0
 20  8  1  0
 21  7  1  0
M  END
>  <DRUGBANK_ID>  (1) 
DB14033

>  <SECONDARY_ACCESSION_NUMBERS>  (1) 
DBSALT000856

>  <COMMON_NAME>  (1) 
Acetyl sulfisoxazole

>  <CAS_NUMBER>  (1) 
80-74-0

>  <UNII>  (1) 
WBT5QH3KED

>  <SYNONYMS>  (1) 
Sulfisoxazole acetyl

$$$$
