
     RDKit          3D

 29 32  0  0  1  0  0  0  0  0999 V2000
    0.9694    0.6827   -0.2875 C   0  0  2  0  0  0  0  0  0  0  0  0
    0.0788   -0.4709    0.2618 C   0  0  1  0  0  0  0  0  0  0  0  0
    2.3365    0.6098    0.3542 C   0  0  1  0  0  0  0  0  0  0  0  0
    0.3218    2.0395    0.0014 C   0  0  0  0  0  0  0  0  0  0  0  0
   -1.3342   -0.4506   -0.4260 C   0  0  2  0  0  0  0  0  0  0  0  0
    0.7820   -1.8577    0.2365 C   0  0  0  0  0  0  0  0  0  0  0  0
    3.0423   -0.7244    0.0610 C   0  0  2  0  0  0  0  0  0  0  0  0
    3.3585    1.6797   -0.0112 C   0  0  0  0  0  0  0  0  0  0  0  0
   -1.0876    2.1299   -0.5566 C   0  0  0  0  0  0  0  0  0  0  0  0
   -1.9472    0.9399   -0.2047 C   0  0  0  0  0  0  0  0  0  0  0  0
   -2.2375   -1.5422    0.2122 C   0  0  0  0  0  0  0  0  0  0  0  0
   -1.2275   -0.7156   -1.9462 C   0  0  0  0  0  0  0  0  0  0  0  0
    2.2307   -1.8367    0.7402 C   0  0  0  0  0  0  0  0  0  0  0  0
    4.3477   -0.4144    0.7759 C   0  0  2  0  0  0  0  0  0  0  0  0
    3.2865   -1.0479   -1.4236 C   0  0  0  0  0  0  0  0  0  0  0  0
    4.6809    1.0452    0.3879 C   0  0  0  0  0  0  0  0  0  0  0  0
   -3.1971    1.1424    0.2475 C   0  0  0  0  0  0  0  0  0  0  0  0
   -3.7155   -1.3369   -0.0933 C   0  0  0  0  0  0  0  0  0  0  0  0
    5.4228   -1.2766    0.4681 O   0  0  0  0  0  0  0  0  0  0  0  0
   -4.1523    0.0204    0.3919 C   0  0  0  0  0  0  0  0  0  0  0  0
   -5.2900    0.2430    0.7971 O   0  0  0  0  0  0  0  0  0  0  0  0
    6.5664   -1.0664    1.1602 C   0  0  0  0  0  0  0  0  0  0  0  0
    6.4601   -0.3044    2.4797 C   0  0  0  0  0  0  0  0  0  0  0  0
    7.6349   -1.4999    0.7302 O   0  0  0  0  0  0  0  0  0  0  0  0
    6.7656   -1.2063    3.6552 C   0  0  0  0  0  0  0  0  0  0  0  0
    8.2293   -1.6210    3.6419 C   0  0  0  0  0  0  0  0  0  0  0  0
    9.1626   -0.4012    3.6340 C   0  0  0  0  0  0  0  0  0  0  0  0
    8.9656    0.4809    4.8689 C   0  0  0  0  0  0  0  0  0  0  0  0
    9.2525   -0.3100    6.1339 C   0  0  0  0  0  0  0  0  0  0  0  0
  1  2  1  0
  1  3  1  0
  1  4  1  1
  2  5  1  0
  2  6  1  6
  3  7  1  0
  3  8  1  6
  4  9  1  0
  5 10  1  0
  5 11  1  0
  5 12  1  6
  6 13  1  0
  7 14  1  0
  7 15  1  6
  7 13  1  0
  8 16  1  0
  9 10  1  0
 10 17  2  0
 11 18  1  0
 14 16  1  0
 14 19  1  6
 17 20  1  0
 18 20  1  0
 19 22  1  0
 20 21  2  0
 22 23  1  0
 22 24  2  0
 23 25  1  0
 25 26  1  0
 26 27  1  0
 27 28  1  0
 28 29  1  0
M  END
>  <DRUGBANK_ID>  (1) 
DB13944

>  <SECONDARY_ACCESSION_NUMBERS>  (1) 
DBSALT001030; DBSALT001031; DB13945

>  <COMMON_NAME>  (1) 
Testosterone enanthate

>  <CAS_NUMBER>  (1) 
315-37-7

>  <UNII>  (1) 
7Z6522T8N9

>  <SYNONYMS>  (1) 
Testosterone enanthate; Testosterone heptanoate

$$$$
