SP6
     RDKit          3D

 28 31  0  0  0  0  0  0  0  0999 V2000
   -0.2021    0.4857   -0.1683 N   0  0  0  0  0  0  0  0  0  0  0  0
    3.3314    1.5010    0.0333 C   0  0  0  0  0  0  0  0  0  0  0  0
    0.8713    1.3108    0.1060 C   0  0  0  0  0  0  0  0  0  0  0  0
   -1.4906    0.9044   -0.3738 C   0  0  0  0  0  0  0  0  0  0  0  0
   -3.9323   -0.0113   -0.2582 C   0  0  0  0  0  0  0  0  0  0  0  0
   -2.4341   -0.0519   -0.3717 C   0  0  0  0  0  0  0  0  0  0  0  0
    3.6335    3.8310   -3.6054 C   0  0  0  0  0  0  0  0  0  0  0  0
    2.6531    4.1280   -2.6736 C   0  0  0  0  0  0  0  0  0  0  0  0
    2.6252    3.4336   -1.4709 C   0  0  0  0  0  0  0  0  0  0  0  0
    4.4832    2.0789   -2.1561 C   0  0  0  0  0  0  0  0  0  0  0  0
   -3.2346    2.5546    1.4478 C   0  0  0  0  0  0  0  0  0  0  0  0
    3.4857    2.3542   -1.2148 C   0  0  0  0  0  0  0  0  0  0  0  0
   -4.5785   -1.0560   -0.1969 O   0  0  0  0  0  0  0  0  0  0  0  0
   -4.6011    1.1563   -0.0795 O   0  0  0  0  0  0  0  0  0  0  0  0
   -3.9987    2.4389    0.1341 C   0  0  0  0  0  0  0  0  0  0  0  0
   -2.7687    3.8088    1.8470 C   0  0  0  0  0  0  0  0  0  0  0  0
   -1.9032    3.9222    2.9404 C   0  0  0  0  0  0  0  0  0  0  0  0
   -2.8144    1.4371    2.2044 C   0  0  0  0  0  0  0  0  0  0  0  0
   -1.8451    1.5354    3.1961 C   0  0  0  0  0  0  0  0  0  0  0  0
   -1.4167    2.7876    3.5914 C   0  0  0  0  0  0  0  0  0  0  0  0
   -0.1451   -0.8659   -0.1224 C   0  0  0  0  0  0  0  0  0  0  0  0
   -1.6859   -1.6359   -0.2079 S   0  0  0  0  0  0  0  0  0  0  0  0
    1.0160   -1.5021   -0.0012 C   0  0  0  0  0  0  0  0  0  0  0  0
    2.2459   -0.6932   -0.0012 C   0  0  0  0  0  0  0  0  0  0  0  0
    3.3241   -1.2995   -0.0053 O   0  0  0  0  0  0  0  0  0  0  0  0
    0.7023    2.4898    0.4161 O   0  0  0  0  0  0  0  0  0  0  0  0
    2.1146    0.6835    0.0217 N   0  0  0  0  0  0  0  0  0  0  0  0
    4.5662    2.8292   -3.3341 C   0  0  0  0  0  0  0  0  0  0  0  0
  1 21  1  0
  1  3  1  0
  1  4  1  0
  2 27  1  0
  2 12  1  0
  3 27  1  0
  3 26  2  0
  4  6  2  0
  5  6  1  0
  5 14  1  0
  5 13  2  0
  6 22  1  0
  7  8  2  0
  7 28  1  0
  8  9  1  0
  9 12  2  0
 10 12  1  0
 10 28  2  0
 11 15  1  0
 11 18  1  0
 11 16  2  0
 14 15  1  0
 16 17  1  0
 17 20  2  0
 18 19  2  0
 19 20  1  0
 21 23  2  0
 21 22  1  0
 23 24  1  0
 24 25  2  0
 24 27  1  0
M  END
>  <DRUGBANK_ID>  (1) 
DB08561

>  <COMMON_NAME>  (1) 
BENZYL 6-BENZYL-5,7-DIOXO-6,7-DIHYDRO-5H-[1,3]THIAZOLO[3,2-C]PYRIMIDINE-2-CARBOXYLATE

$$$$
