263
     RDKit          3D

 18 19  0  0  0  0  0  0  0  0999 V2000
    0.9832    0.0846    0.0227 S   0  0  0  0  0  0  0  0  0  0  0  0
    2.1244    3.0761   -0.9952 O   0  0  0  0  0  0  0  0  0  0  0  0
    0.6008   -0.5789   -1.2013 O   0  0  0  0  0  0  0  0  0  0  0  0
    0.5017   -0.4284    1.2994 O   0  0  0  0  0  0  0  0  0  0  0  0
    0.3265    1.6610   -0.0836 N   0  0  0  0  0  0  0  0  0  0  0  0
    2.8506    4.1933   -0.6171 N   0  0  0  0  0  0  0  0  0  0  0  0
    6.9775   -0.0883    0.2115 N   0  0  0  0  0  0  0  0  0  0  0  0
    2.7643   -0.0055    0.1321 C   0  0  0  0  0  0  0  0  0  0  0  0
    1.1416    2.8229   -0.0796 C   0  0  0  0  0  0  0  0  0  0  0  0
    1.0838    3.8955    0.7990 C   0  0  0  0  0  0  0  0  0  0  0  0
    2.2292    4.6835    0.4596 C   0  0  0  0  0  0  0  0  0  0  0  0
    3.5500    1.1138    0.3113 C   0  0  0  0  0  0  0  0  0  0  0  0
    3.4267   -1.2346    0.0369 C   0  0  0  0  0  0  0  0  0  0  0  0
    0.1095    4.1846    1.8754 C   0  0  0  0  0  0  0  0  0  0  0  0
    4.9270    1.1054    0.1542 C   0  0  0  0  0  0  0  0  0  0  0  0
    4.8409   -1.2707    0.0519 C   0  0  0  0  0  0  0  0  0  0  0  0
    5.6002   -0.0942    0.0487 C   0  0  0  0  0  0  0  0  0  0  0  0
    2.7392    5.9245    1.1010 C   0  0  0  0  0  0  0  0  0  0  0  0
  1  3  2  0
  1  4  2  0
  1  5  1  0
  1  8  1  0
  2  6  1  0
  2  9  1  0
  5  9  1  0
  6 11  2  0
  7 17  1  0
  8 12  2  0
  8 13  1  0
  9 10  2  0
 10 11  1  0
 10 14  1  0
 11 18  1  0
 12 15  1  0
 13 16  2  0
 15 17  2  0
 16 17  1  0
M  END
>  <DRUGBANK_ID>  (1) 
DB00263

>  <SECONDARY_ACCESSION_NUMBERS>  (1) 
APRD00595

>  <COMMON_NAME>  (1) 
Sulfisoxazole

>  <CAS_NUMBER>  (1) 
127-69-5

>  <UNII>  (1) 
740T4C525W

>  <SYNONYMS>  (1) 
3,4-Dimethyl-5-sulfanilamidoisoxazole; 3,4-Dimethyl-5-sulfonamidoisoxazole; 3,4-Dimethyl-5-sulphanilamidoisoxazole; 3,4-Dimethyl-5-sulphonamidoisoxazole; 3,4-Dimethylisoxazole-5-sulfanilamide; 3,4-Dimethylisoxazole-5-sulphanilamide; 4-Amino-N-(3,4-dimethyl-5-isoxazolyl)benzenesulfonamide; 4-Amino-N-(3,4-dimethyl-5-isoxazolyl)benzenesulphonamide; 5-(4-Aminophenylsulfonamido)-3,4-dimethylisoxazole; 5-(p-Aminobenzenesulfonamido)-3,4-dimethylisoxazole; 5-(p-Aminobenzenesulphonamido)-3,4-dimethylisoxazole; 5-Sulfanilamido-3,4-dimethylisoxazole; 5-Sulphanilamido-3,4-dimethyl-isoxazole; N'-(3,4)Dimethylisoxazol-5-yl-sulphanilamide; N1-(3,4-dimethyl-5-isoxazolyl)sulfanilamide; N1-(3,4-dimethyl-5-isoxazolyl)sulphanilamide; Sulfadimethylisoxazole; Sulfafurazol; Sulfafurazole; Sulfafurazolum; Sulfaisoxazole; Sulfasoxazole; Sulfisonazole; Sulfisoxasole; Sulfisoxazol; Sulfisoxazole; Sulfofurazole; Sulphadimethylisoxazole; Sulphafurazol; Sulphafurazole; Sulphaisoxazole; Sulphisoxazol; Sulphofurazole

$$$$
