
     RDKit          3D

 24 25  0  0  0  0  0  0  0  0999 V2000
    1.3440   -0.2250    0.0360 C   0  0  0  0  0  0  0  0  0  0  0  0
    0.5020   -1.2510   -0.0040 C   0  0  0  0  0  0  0  0  0  0  0  0
   -0.8560   -1.0420    0.0030 C   0  0  0  0  0  0  0  0  0  0  0  0
   -1.3730    0.2230   -0.0410 C   0  0  0  0  0  0  0  0  0  0  0  0
   -0.5090    1.2150    0.0750 C   0  0  0  0  0  0  0  0  0  0  0  0
    0.8920    1.0800   -0.0700 C   0  0  0  0  0  0  0  0  0  0  0  0
    1.7867    2.2212   -0.3113 N   0  0  0  0  0  0  0  0  0  0  0  0
    1.2343    3.5797   -0.4122 C   0  0  0  0  0  0  0  0  0  0  0  0
    1.8438    4.4562    0.6698 C   0  0  0  0  0  0  0  0  0  0  0  0
    3.3026    4.5062    0.4957 N   0  0  0  0  0  0  0  0  0  0  0  0
    3.9713    5.7945    0.2627 C   0  0  0  0  0  0  0  0  0  0  0  0
    3.6278    6.8363    1.0109 C   0  0  0  0  0  0  0  0  0  0  0  0
    4.3288    8.0154    0.9322 C   0  0  0  0  0  0  0  0  0  0  0  0
    5.3351    8.1756    0.0206 C   0  0  0  0  0  0  0  0  0  0  0  0
    5.6961    7.0976   -0.6514 C   0  0  0  0  0  0  0  0  0  0  0  0
    4.9371    5.9057   -0.7240 C   0  0  0  0  0  0  0  0  0  0  0  0
    6.1913    9.9031   -0.2715 As  0  0  0  0  0  5  0  0  0  0  0  0
    7.8087    9.7808    0.0612 O   0  0  0  0  0  0  0  0  0  0  0  0
    5.9614   10.4151   -2.0343 O   0  0  0  0  0  0  0  0  0  0  0  0
    5.4264   11.1667    0.8424 O   0  0  0  0  0  0  0  0  0  0  0  0
   -2.0633   -2.5715    0.0767 As  0  0  0  0  0  5  0  0  0  0  0  0
   -3.0028   -2.4681    1.4363 O   0  0  0  0  0  0  0  0  0  0  0  0
   -3.1468   -2.5748   -1.4228 O   0  0  0  0  0  0  0  0  0  0  0  0
   -1.0756   -4.1349    0.1272 O   0  0  0  0  0  0  0  0  0  0  0  0
  1  2  2  0
  1  6  1  0
  2  3  1  0
  3  4  2  0
  3 21  1  0
  4  5  1  0
  5  6  2  0
  6  7  1  0
  7  8  1  0
  8  9  1  0
  9 10  1  0
 10 11  1  0
 11 12  2  0
 11 16  1  0
 12 13  1  0
 13 14  2  0
 14 15  1  0
 14 17  1  0
 15 16  2  0
 17 18  2  0
 17 19  1  0
 17 20  1  0
 21 22  2  0
 21 23  1  0
 21 24  1  0
M  END
>  <DRUGBANK_ID>  (1) 
DB13599

>  <COMMON_NAME>  (1) 
Difetarsone

>  <CAS_NUMBER>  (1) 
3639-19-8

>  <UNII>  (1) 
G4G9J3Q65W

>  <SYNONYMS>  (1) 
Difetarsone

$$$$
