P89
     RDKit          3D

 28 28  0  0  0  0  0  0  0  0999 V2000
    1.0656    0.0481   -0.0582 C   0  0  0  0  0  0  0  0  0  0  0  0
    0.5589   -1.2302    0.5897 C   0  0  0  0  0  0  0  0  0  0  0  0
    1.0656   -1.3082    2.0206 C   0  0  0  0  0  0  0  0  0  0  0  0
    0.5589   -0.1080    2.8037 C   0  0  0  0  0  0  0  0  0  0  0  0
   -0.9611   -0.1080    2.8037 C   0  0  0  0  0  0  0  0  0  0  0  0
   -1.4678   -1.3863    3.4516 C   0  0  0  0  0  0  0  0  0  0  0  0
   -0.9611   -1.4643    4.8825 C   0  0  0  0  0  0  0  0  0  0  0  0
   -1.4678   -0.2641    5.6656 C   0  0  0  0  0  0  0  0  0  0  0  0
   -2.9878   -0.2641    5.6656 C   0  0  0  0  0  0  0  0  0  0  0  0
   -3.4944   -1.5424    6.3135 C   0  0  0  0  0  0  0  0  0  0  0  0
   -4.2251   -1.4822    7.3516 O   0  0  0  0  0  0  0  0  0  0  0  0
   -3.1272   -2.8926    5.7198 C   0  0  0  0  0  0  0  0  0  0  0  0
   -3.6255   -2.9726    4.3391 N   0  0  0  0  0  0  0  0  0  0  0  0
   -4.9136   -2.8586    4.0969 C   0  0  0  0  0  0  0  0  0  0  0  0
   -5.4288   -2.9414    2.6693 C   0  0  0  0  0  0  0  0  0  0  0  0
   -4.9608   -3.9347    1.8092 C   0  0  0  0  0  0  0  0  0  0  0  0
   -4.0234   -4.8278    2.2656 O   0  0  0  0  0  0  0  0  0  0  0  0
   -5.4241   -3.9717    0.4934 C   0  0  0  0  0  0  0  0  0  0  0  0
   -4.9338   -4.9948   -0.4911 C   0  0  0  0  0  0  0  0  0  0  0  0
   -6.3438   -3.1050    0.0533 N   0  0  0  0  0  0  0  0  0  0  0  0
   -6.8068   -2.1613    0.8763 C   0  0  0  0  0  0  0  0  0  0  0  0
   -6.3645   -2.0151    2.1977 C   0  0  0  0  0  0  0  0  0  0  0  0
   -6.8814   -0.8936    3.0840 C   0  0  0  0  0  0  0  0  0  0  0  0
   -6.5665    0.3592    2.4943 O   0  0  0  0  0  0  0  0  0  0  0  0
   -4.8507    0.5019    2.3253 P   0  0  0  0  0  0  0  0  0  0  0  0
   -4.7599   -1.1576    1.8450 O   0  0  0  0  0  0  0  0  0  0  0  0
   -5.0707    1.7366    1.1337 O   0  0  0  0  0  0  0  0  0  0  0  0
   -4.7214    0.9267    3.9974 O   0  0  0  0  0  0  0  0  0  0  0  0
  1  2  1  0
  2  3  1  0
  3  4  1  0
  4  5  1  0
  5  6  1  0
  6  7  1  0
  7  8  1  0
  8  9  1  0
  9 10  1  0
 10 11  2  0
 10 12  1  0
 12 13  1  0
 13 14  2  0
 14 15  1  0
 15 16  2  0
 15 22  1  0
 16 17  1  0
 16 18  1  0
 18 19  1  0
 18 20  2  0
 20 21  1  0
 21 22  2  0
 22 23  1  0
 23 24  1  0
 24 25  1  0
 25 26  1  0
 25 27  1  0
 25 28  1  0
M  END
>  <DRUGBANK_ID>  (1) 
DB08364

>  <COMMON_NAME>  (1) 
1-{[(1E)-(3-HYDROXY-2-METHYL-5-{[(TRIHYDROXY-LAMBDA^5^-PHOSPHANYL)OXY]METHYL}PYRIDIN-4-YL)METHYLIDENE]AMINO}UNDECAN-2-ONE

$$$$
