
     RDKit          3D

 21 24  0  0  1  0  0  0  0  0999 V2000
   -1.5602   -9.5936   -4.5013 C   0  0  0  0  0  0  0  0  0  0  0  0
   -3.4537   -9.3596   -4.4399 C   0  0  1  0  0  0  0  0  0  0  0  0
   -3.9673   -8.9379   -3.0625 C   0  0  0  0  0  0  0  0  0  0  0  0
   -2.9366   -8.0951   -2.4937 C   0  0  0  0  0  0  0  0  0  0  0  0
   -2.8636   -6.9290   -3.4573 C   0  0  2  0  0  0  0  0  0  0  0  0
   -2.6014   -7.2193   -4.9420 C   0  0  1  0  0  0  0  0  0  0  0  0
   -3.0040   -8.9060   -5.7005 C   0  0  1  0  0  0  0  0  0  0  0  0
   -3.0888  -10.8834   -5.3364 C   0  0  0  0  0  0  0  0  0  0  0  0
   -4.5347  -11.2790   -4.6580 C   0  0  0  0  0  0  0  0  0  0  0  0
   -4.8697  -10.0550   -5.3295 C   0  0  1  0  0  0  0  0  0  0  0  0
   -5.7409   -8.8989   -5.4458 C   0  0  0  0  0  0  0  0  0  0  0  0
   -5.8935   -7.7844   -5.9656 C   0  0  0  0  0  0  0  0  0  0  0  0
   -4.8900  -10.5406   -6.7264 O   0  0  0  0  0  0  0  0  0  0  0  0
   -2.7601   -5.6240   -5.3794 C   0  0  0  0  0  0  0  0  0  0  0  0
   -1.7345   -4.5362   -4.3597 C   0  0  0  0  0  0  0  0  0  0  0  0
   -1.2907   -4.6689   -2.6160 C   0  0  0  0  0  0  0  0  0  0  0  0
   -0.7354   -5.2189   -1.3386 C   0  0  0  0  0  0  0  0  0  0  0  0
   -0.4471   -6.8647   -0.8504 C   0  0  0  0  0  0  0  0  0  0  0  0
    0.0165   -7.4647   -2.1893 C   0  0  0  0  0  0  0  0  0  0  0  0
   -0.3597   -6.4942   -3.2208 C   0  0  0  0  0  0  0  0  0  0  0  0
   -1.8191   -6.0355   -2.8301 C   0  0  2  0  0  0  0  0  0  0  0  0
  2  3  1  0
  2  7  1  0
  2 10  1  0
  2  1  1  1
  3  4  1  0
  5  4  1  1
  5  6  1  0
  5 21  1  0
  6  7  1  0
  6 14  1  6
  7  8  1  1
  8  9  1  0
  9 10  1  0
 10 13  1  6
 10 11  1  0
 11 12  3  0
 14 15  1  0
 15 16  1  0
 16 17  2  0
 16 21  1  0
 17 18  1  0
 18 19  1  0
 19 20  1  0
 21 20  1  6
M  END
>  <DRUGBANK_ID>  (1) 
DB12474

>  <COMMON_NAME>  (1) 
Lynestrenol

>  <CAS_NUMBER>  (1) 
52-76-6

>  <UNII>  (1) 
N2Z8ALG4U5

>  <SYNONYMS>  (1) 
Lynestrenol

$$$$
