
     RDKit          3D

 11 11  0  0  1  0  0  0  0  0999 V2000
    0.9223    0.0816   -0.0890 S   0  0  0  0  0  0  0  0  0  0  0  0
    0.3607    0.5996   -2.0031 S   0  0  0  0  0  0  0  0  0  0  0  0
   -2.1352   -0.4674   -1.8762 N   0  0  0  0  0  0  0  0  0  0  0  0
   -2.1161    1.7493   -1.8805 N   0  0  0  0  0  0  0  0  0  0  0  0
    2.7884    0.0251   -0.0995 C   0  0  0  0  0  0  0  0  0  0  0  0
    3.3166   -0.4294    1.2839 C   0  0  0  0  0  0  0  0  0  0  0  0
    3.3470   -0.8883   -1.1924 C   0  0  0  0  0  0  0  0  0  0  0  0
    2.8978   -1.8431    1.6819 C   0  0  0  0  0  0  0  0  0  0  0  0
   -1.3701    0.6701   -1.8560 C   0  0  0  0  0  0  0  0  0  0  0  0
   -3.4513   -0.0781   -1.8843 C   0  0  0  0  0  0  0  0  0  0  0  0
   -3.4145    1.2961   -1.8868 C   0  0  0  0  0  0  0  0  0  0  0  0
  1  2  1  0
  1  5  1  0
  2  9  1  0
  3  9  1  0
  3 10  1  0
  4  9  2  0
  4 11  1  0
  5  6  1  0
  5  7  1  0
  6  8  1  0
 10 11  2  0
M  END
>  <DRUGBANK_ID>  (1) 
DB05448

>  <COMMON_NAME>  (1) 
PX-12

>  <CAS_NUMBER>  (1) 
141400-58-0

>  <UNII>  (1) 
8PQ9CZ8BTJ

>  <SYNONYMS>  (1) 
1-Methylpropyl-2-imidazolyl disulfide

$$$$
