
     RDKit          3D

 25 27  0  0  0  0  0  0  0  0999 V2000
    1.1045   -0.1645    0.0039 C   0  0  0  0  0  0  0  0  0  0  0  0
    0.6147   -0.6694   -1.3561 N   0  0  0  0  0  0  0  0  0  0  0  0
   -0.0406   -2.0955   -1.2097 C   0  0  0  0  0  0  0  0  0  0  0  0
    1.1035   -3.0431   -1.3811 C   0  0  0  0  0  0  0  0  0  0  0  0
    1.9210   -2.4157   -2.4610 C   0  0  0  0  0  0  0  0  0  0  0  0
    1.7463   -0.9032   -2.4365 C   0  0  0  0  0  0  0  0  0  0  0  0
    3.1244   -0.1953   -2.2749 C   0  0  0  0  0  0  0  0  0  0  0  0
    4.0226   -0.5604   -3.3793 O   0  0  0  0  0  0  0  0  0  0  0  0
    4.7904   -1.7014   -3.2823 C   0  0  0  0  0  0  0  0  0  0  0  0
    4.7902   -2.4308   -2.2800 O   0  0  0  0  0  0  0  0  0  0  0  0
    5.7793   -1.9409   -4.4515 C   0  0  0  0  0  0  0  0  0  0  0  0
    5.2161   -1.6126   -5.8401 C   0  0  0  0  0  0  0  0  0  0  0  0
    4.5989   -2.6043   -6.6213 C   0  0  0  0  0  0  0  0  0  0  0  0
    4.0776   -2.2978   -7.8813 C   0  0  0  0  0  0  0  0  0  0  0  0
    4.1008   -0.9887   -8.3579 C   0  0  0  0  0  0  0  0  0  0  0  0
    4.6613    0.0122   -7.5907 C   0  0  0  0  0  0  0  0  0  0  0  0
    5.2698   -0.3193   -6.3915 C   0  0  0  0  0  0  0  0  0  0  0  0
    7.0382   -1.1737   -4.0502 C   0  0  0  0  0  0  0  0  0  0  0  0
    6.9755    0.2289   -3.9145 C   0  0  0  0  0  0  0  0  0  0  0  0
    8.0872    0.9845   -3.6038 C   0  0  0  0  0  0  0  0  0  0  0  0
    9.2473    0.3312   -3.2308 C   0  0  0  0  0  0  0  0  0  0  0  0
    9.2925   -1.0634   -3.2013 C   0  0  0  0  0  0  0  0  0  0  0  0
    8.2188   -1.8162   -3.6683 C   0  0  0  0  0  0  0  0  0  0  0  0
    6.0598   -3.3624   -4.4345 O   0  0  0  0  0  0  0  0  0  0  0  0
   -0.4450    0.3301   -1.8296 C   0  0  0  0  0  0  0  0  0  0  0  0
  1  2  1  0
  2  3  1  0
  2  6  1  0
  2 25  1  0
  3  4  1  0
  4  5  1  0
  5  6  1  0
  6  7  1  0
  7  8  1  0
  8  9  1  0
  9 10  2  0
  9 11  1  0
 11 12  1  0
 11 18  1  0
 11 24  1  0
 12 13  2  0
 12 17  1  0
 13 14  1  0
 14 15  2  0
 15 16  1  0
 16 17  2  0
 18 19  2  0
 18 23  1  0
 19 20  1  0
 20 21  2  0
 21 22  1  0
 22 23  2  0
M  CHG  1   2   1
M  END
>  <DRUGBANK_ID>  (1) 
DB13507

>  <COMMON_NAME>  (1) 
Poldine

>  <CAS_NUMBER>  (1) 
596-50-9

>  <UNII>  (1) 
8R92106W2F

$$$$
