
     RDKit          3D

 17 16  0  0  1  0  0  0  0  0999 V2000
    0.9036   -0.0985    0.0286 N   0  0  0  0  0  0  0  0  0  0  0  0
    0.3556    0.9456    0.9187 C   0  0  1  0  0  0  0  0  0  0  0  0
    0.8776    2.3238    0.4320 C   0  0  0  0  0  0  0  0  0  0  0  0
    0.4766    2.7485   -0.9989 C   0  0  0  0  0  0  0  0  0  0  0  0
   -1.0306    2.9292   -1.1902 C   0  0  0  0  0  0  0  0  0  0  0  0
   -1.6553    3.8314   -0.1263 C   0  0  0  0  0  0  0  0  0  0  0  0
   -1.1600    5.1834   -0.3695 N   0  0  0  0  0  0  0  0  0  0  0  0
   -1.6161    6.1897    0.6133 C   0  0  0  0  0  0  0  0  0  0  0  0
   -1.1177    5.8762    2.0397 C   0  0  0  0  0  0  0  0  0  0  0  0
   -0.2989    6.7786    2.6251 O   0  0  0  0  0  0  0  0  0  0  0  0
   -1.4330    4.8627    2.6552 O   0  0  0  0  0  0  0  0  0  0  0  0
   -1.0913    7.5329    0.1164 C   0  0  0  0  0  0  0  0  0  0  0  0
   -2.0169    8.4525   -0.2195 O   0  0  0  0  0  0  0  0  0  0  0  0
    0.1079    7.7985    0.1033 O   0  0  0  0  0  0  0  0  0  0  0  0
   -1.1910    0.7262    1.0696 C   0  0  0  0  0  0  0  0  0  0  0  0
   -1.6723    0.7784    2.3279 O   0  0  0  0  0  0  0  0  0  0  0  0
   -1.9690    0.4687    0.1491 O   0  0  0  0  0  0  0  0  0  0  0  0
  2  1  1  6
  2  3  1  0
  2 15  1  0
  3  4  1  0
  4  5  1  0
  5  6  1  0
  6  7  1  0
  7  8  1  0
  8  9  1  0
  8 12  1  0
  9 10  1  0
  9 11  2  0
 12 13  1  0
 12 14  2  0
 15 16  1  0
 15 17  2  0
M  END
>  <DRUGBANK_ID>  (1) 
DB01815

>  <SECONDARY_ACCESSION_NUMBERS>  (1) 
EXPT02041

>  <COMMON_NAME>  (1) 
Nz-(Dicarboxymethyl)Lysine

$$$$
