3IP
     RDKit          3D

 15 16  0  0  0  0  0  0  0  0999 V2000
    2.1919    0.1957    0.9377 N   0  0  0  0  0  0  0  0  0  0  0  0
    0.8495    0.0306    0.5996 C   0  0  0  0  0  0  0  0  0  0  0  0
    0.2332    1.2169    0.4064 N   0  0  0  0  0  0  0  0  0  0  0  0
   -1.0834    1.2124    0.1149 C   0  0  0  0  0  0  0  0  0  0  0  0
   -1.8382    0.0639   -0.0022 C   0  0  0  0  0  0  0  0  0  0  0  0
   -1.1835   -1.1557    0.1133 C   0  0  0  0  0  0  0  0  0  0  0  0
    0.1904   -1.1973    0.3883 C   0  0  0  0  0  0  0  0  0  0  0  0
    0.7091   -2.4579    0.2315 O   0  0  0  0  0  0  0  0  0  0  0  0
    2.1083   -2.6514    0.0097 C   0  0  0  0  0  0  0  0  0  0  0  0
    2.6776   -2.1124   -1.3104 C   0  0  0  0  0  0  0  0  0  0  0  0
    2.4074   -0.8224   -1.7874 C   0  0  0  0  0  0  0  0  0  0  0  0
    3.1485   -0.1485   -2.7353 C   0  0  0  0  0  0  0  0  0  0  0  0
    4.0619   -0.8778   -3.4695 C   0  0  0  0  0  0  0  0  0  0  0  0
    4.2496   -2.2238   -3.1583 C   0  0  0  0  0  0  0  0  0  0  0  0
    3.6044   -2.8367   -2.0686 C   0  0  0  0  0  0  0  0  0  0  0  0
  1  2  1  0
  2  3  2  0
  2  7  1  0
  3  4  1  0
  4  5  2  0
  5  6  1  0
  6  7  2  0
  7  8  1  0
  8  9  1  0
  9 10  1  0
 10 11  2  0
 10 15  1  0
 11 12  1  0
 12 13  2  0
 13 14  1  0
 14 15  2  0
M  END
>  <DRUGBANK_ID>  (1) 
DB02352

>  <SECONDARY_ACCESSION_NUMBERS>  (1) 
EXPT00176

>  <COMMON_NAME>  (1) 
3-(Benzyloxy)Pyridin-2-Amine

>  <UNII>  (1) 
IYW7T7718Z

$$$$
