
     RDKit          3D

 14 14  0  0  0  0  0  0  0  0999 V2000
    2.3507    0.0364    0.0926 O   0  0  0  0  0  0  0  0  0  0  0  0
    3.0330   -1.2080   -0.0068 C   0  0  0  0  0  0  0  0  0  0  0  0
   -1.1330   -1.2124   -0.2473 C   0  0  0  0  0  0  0  0  0  0  0  0
    0.2436   -1.2429   -0.0136 C   0  0  0  0  0  0  0  0  0  0  0  0
   -1.7060    0.0052   -0.6050 C   0  0  0  0  0  0  0  0  0  0  0  0
   -2.0251   -2.4152   -0.0575 C   0  0  0  0  0  0  0  0  0  0  0  0
    0.9867   -0.0504   -0.0046 C   0  0  0  0  0  0  0  0  0  0  0  0
   -1.0322    1.2023   -0.3655 C   0  0  0  0  0  0  0  0  0  0  0  0
   -2.8903   -2.3774    1.2156 C   0  0  0  0  0  0  0  0  0  0  0  0
    0.3158    1.1703   -0.0845 C   0  0  0  0  0  0  0  0  0  0  0  0
   -3.9632   -1.2872    1.3048 C   0  0  0  0  0  0  0  0  0  0  0  0
    0.9561    2.3666    0.0672 O   0  0  0  0  0  0  0  0  0  0  0  0
   -5.1364   -1.5622    1.0878 O   0  0  0  0  0  0  0  0  0  0  0  0
   -3.5913    0.1211    1.7345 C   0  0  0  0  0  0  0  0  0  0  0  0
  1  2  1  0
  3  6  1  0
  3  4  2  0
  3  5  1  0
  4  7  1  0
  5  8  2  0
  6  9  1  0
  7 10  2  0
  7  1  1  0
  8 10  1  0
  9 11  1  0
 10 12  1  0
 11 13  2  0
 11 14  1  0
M  END
>  <DRUGBANK_ID>  (1) 
DB15589

>  <COMMON_NAME>  (1) 
Zingerone

>  <CAS_NUMBER>  (1) 
122-48-5

>  <UNII>  (1) 
4MMW850892

>  <SYNONYMS>  (1) 
Gingerone; Vanillyl acetone; Vanillylacetone; Zingerone; Zingherone; Zingiberone

$$$$
