
     RDKit          3D

 18 19  0  0  0  0  0  0  0  0999 V2000
    0.8315   -0.0167    0.0842 O   0  0  0  0  0  0  0  0  0  0  0  0
    0.9770   -0.3977    2.2773 O   0  0  0  0  0  0  0  0  0  0  0  0
    0.2742   -0.1590    1.3042 C   0  0  0  0  0  0  0  0  0  0  0  0
   -1.2279   -0.0984    1.2997 C   0  0  0  0  0  0  0  0  0  0  0  0
   -1.8802    1.4417    0.6080 S   0  0  0  0  0  0  0  0  0  0  0  0
   -1.3569    2.7073    1.6840 C   0  0  0  0  0  0  0  0  0  0  0  0
   -1.7145    4.0171    1.4602 O   0  0  0  0  0  0  0  0  0  0  0  0
   -0.4557    3.8665    3.2882 N   0  0  0  0  0  0  0  0  0  0  0  0
   -0.6268    2.5822    2.7707 N   0  0  0  0  0  0  0  0  0  0  0  0
   -1.1071    4.6964    2.4937 C   0  0  0  0  0  0  0  0  0  0  0  0
   -1.2738    6.1157    2.7114 C   0  0  0  0  0  0  0  0  0  0  0  0
   -2.1943    8.1746    3.0106 C   0  0  0  0  0  0  0  0  0  0  0  0
   -2.4809    6.8033    2.8083 C   0  0  0  0  0  0  0  0  0  0  0  0
   -0.2428    7.0370    2.8441 O   0  0  0  0  0  0  0  0  0  0  0  0
   -0.8259    8.2624    3.0093 C   0  0  0  0  0  0  0  0  0  0  0  0
    1.2429    9.2545    3.0970 O   0  0  0  0  0  0  0  0  0  0  0  0
    0.0186    9.4131    3.1490 N   0  0  0  0  0  0  0  0  0  0  0  0
   -0.5658   10.4964    3.3047 O   0  0  0  0  0  0  0  0  0  0  0  0
  3  1  1  0
  3  2  2  0
  3  4  1  0
  4  5  1  0
  5  6  1  0
  6  9  2  0
  7  6  1  0
  7 10  1  0
  8 10  2  0
  9  8  1  0
 10 11  1  0
 12 13  1  0
 13 11  2  0
 14 11  1  0
 14 15  1  0
 15 12  2  0
 15 17  1  0
 17 16  2  0
 17 18  1  0
M  CHG  2  17   1  18  -1
M  END
>  <DRUGBANK_ID>  (1) 
DB08098

>  <COMMON_NAME>  (1) 
{[5-(5-nitro-2-furyl)-1,3,4-oxadiazol-2-yl]thio}acetic acid

$$$$
