
     RDKit          3D

 17 18  0  0  1  0  0  0  0  0999 V2000
   -0.7172    1.1373    0.0091 C   0  0  0  0  0  0  0  0  0  0  0  0
   -1.4500    0.0268    0.0066 C   0  0  0  0  0  0  0  0  0  0  0  0
   -0.6624   -1.2359   -0.0029 C   0  0  0  0  0  0  0  0  0  0  0  0
    0.6393   -1.2555   -0.0065 N   0  0  0  0  0  0  0  0  0  0  0  0
    1.3580   -0.0788   -0.0091 C   0  0  0  0  0  0  0  0  0  0  0  0
    2.5908   -0.1005   -0.0276 O   0  0  0  0  0  0  0  0  0  0  0  0
    0.6609    1.1311   -0.0152 N   0  0  0  0  0  0  0  0  0  0  0  0
    1.4151    2.3856   -0.0087 C   0  0  1  0  0  0  0  0  0  0  0  0
    1.1646    3.3000   -1.2079 C   0  0  0  0  0  0  0  0  0  0  0  0
    1.3564    4.6807   -0.6193 C   0  0  1  0  0  0  0  0  0  0  0  0
    0.9172    4.5310    0.8341 C   0  0  2  0  0  0  0  0  0  0  0  0
    1.0903    3.1397    1.1763 O   0  0  0  0  0  0  0  0  0  0  0  0
   -0.5443    4.9492    1.0667 C   0  0  0  0  0  0  0  0  0  0  0  0
   -1.4889    4.2055    0.3070 O   0  0  0  0  0  0  0  0  0  0  0  0
    2.7330    5.0504   -0.7057 O   0  0  0  0  0  0  0  0  0  0  0  0
   -1.3044   -2.4429   -0.0145 N   0  0  0  0  0  0  0  0  0  0  0  0
   -3.4853    0.0304   -0.0008 I   0  0  0  0  0  0  0  0  0  0  0  0
  1  2  2  0
  1  7  1  0
  2  3  1  0
  2 17  1  0
  3  4  2  0
  3 16  1  0
  4  5  1  0
  5  6  2  0
  5  7  1  0
  8  7  1  6
  8  9  1  0
  8 12  1  0
  9 10  1  0
 10 11  1  0
 10 15  1  1
 11 12  1  0
 11 13  1  6
 13 14  1  0
M  END
>  <DRUGBANK_ID>  (1) 
DB13776

>  <COMMON_NAME>  (1) 
Ibacitabine

>  <CAS_NUMBER>  (1) 
611-53-0

>  <UNII>  (1) 
3EK8532DZV

>  <SYNONYMS>  (1) 
Ibacitabine

$$$$
