
     RDKit          3D

 19 21  0  0  0  0  0  0  0  0999 V2000
    1.0467    0.0742   -0.0302 C   0  0  0  0  0  0  0  0  0  0  0  0
    0.5462   -0.6057   -1.2987 C   0  0  0  0  0  0  0  0  0  0  0  0
   -0.1685   -5.4817   -1.7055 C   0  0  0  0  0  0  0  0  0  0  0  0
   -1.2709   -3.0858   -0.8720 C   0  0  0  0  0  0  0  0  0  0  0  0
    2.3837   -2.2868   -1.5282 C   0  0  0  0  0  0  0  0  0  0  0  0
   -2.5185   -6.3701   -0.1934 C   0  0  0  0  0  0  0  0  0  0  0  0
    0.6339   -4.3801   -1.4510 C   0  0  0  0  0  0  0  0  0  0  0  0
    2.9737   -3.4927   -1.5945 C   0  0  0  0  0  0  0  0  0  0  0  0
    0.1093   -3.0975   -1.2099 C   0  0  0  0  0  0  0  0  0  0  0  0
   -1.5167   -5.3504   -1.6441 C   0  0  0  0  0  0  0  0  0  0  0  0
   -1.9939   -4.3088   -0.9074 C   0  0  0  0  0  0  0  0  0  0  0  0
    2.0682   -4.6428   -1.5366 C   0  0  0  0  0  0  0  0  0  0  0  0
    4.4278   -3.7474   -1.7294 C   0  0  0  0  0  0  0  0  0  0  0  0
    1.0100   -2.0078   -1.3422 N   0  0  0  0  0  0  0  0  0  0  0  0
    2.4542   -5.8051   -1.5802 O   0  0  0  0  0  0  0  0  0  0  0  0
    4.9795   -4.8127   -1.7912 O   0  0  0  0  0  0  0  0  0  0  0  0
    5.1668   -2.6177   -1.7727 O   0  0  0  0  0  0  0  0  0  0  0  0
   -2.2829   -6.4762   -1.5905 O   0  0  0  0  0  0  0  0  0  0  0  0
   -2.7128   -4.9375    0.1455 O   0  0  0  0  0  0  0  0  0  0  0  0
  2  1  1  0
  7  3  2  0
  8  5  2  0
  9  4  2  0
  9  7  1  0
 10  3  1  0
 11  4  1  0
 11 10  2  0
 12  7  1  0
 12  8  1  0
 13  8  1  0
 14  2  1  0
 14  5  1  0
 14  9  1  0
 15 12  2  0
 16 13  2  0
 17 13  1  0
 18  6  1  0
 18 10  1  0
 19  6  1  0
 19 11  1  0
M  END
>  <DRUGBANK_ID>  (1) 
DB13627

>  <COMMON_NAME>  (1) 
Oxolinic acid

>  <CAS_NUMBER>  (1) 
14698-29-4

>  <UNII>  (1) 
L0A22B22FT

>  <SYNONYMS>  (1) 
ácido oxolínico; Oxolinic acid

$$$$
