
     RDKit          3D

  6  3  0  0  0  0  0  0  0  0999 V2000
   -0.3288    1.1144   -0.4810 C   0  0  0  0  0  0  0  0  0  0  0  0
   -0.8539    0.6506    0.5192 O   0  0  0  0  0  0  0  0  0  0  0  0
   -0.4278    0.2752   -1.3418 O   0  0  0  0  0  0  0  0  0  0  0  0
    0.7869    1.6829   -0.3549 O   0  0  0  0  0  0  0  0  0  0  0  0
    1.9410   -0.9442   -0.7730 N   0  0  0  0  0  0  0  0  0  0  0  0
    1.1903   -0.1088    1.3165 N   0  0  0  0  0  0  0  0  0  0  0  0
  1  2  1  0
  1  3  1  0
  1  4  2  0
M  CHG  4   2  -1   3  -1   5   1   6   1
M  END
>  <DRUGBANK_ID>  (1) 
DB15926

>  <COMMON_NAME>  (1) 
Ammonium carbonate

>  <CAS_NUMBER>  (1) 
506-87-6

>  <UNII>  (1) 
PDP691CN28

>  <SYNONYMS>  (1) 
Carbonic acid, diammonium salt; Crystal ammonia; Diammonium carbonate

$$$$
