HIN
     RDKit          3D

 22 22  0  0  0  0  0  0  0  0999 V2000
    1.1446   -0.2830   -0.1676 C   0  0  0  0  0  0  0  0  0  0  0  0
    0.4549   -1.1685    0.8711 C   0  0  0  0  0  0  0  0  0  0  0  0
    1.0053   -1.0930    2.2946 C   0  0  0  0  0  0  0  0  0  0  0  0
   -0.0022   -0.9830    3.4747 C   0  0  1  0  0  0  0  0  0  0  0  0
    0.2053   -2.0473    4.5069 N   0  0  0  0  0  0  0  0  0  0  0  0
    0.5912   -1.7979    5.8229 C   0  0  0  0  0  0  0  0  0  0  0  0
    0.7340   -2.9987    6.7706 C   0  0  1  0  0  0  0  0  0  0  0  0
    2.0839   -2.9750    7.3863 N   0  0  0  0  0  0  0  0  0  0  0  0
    2.3377   -2.7422    8.7215 C   0  0  0  0  0  0  0  0  0  0  0  0
    3.7764   -2.6754    9.1350 C   0  0  0  0  0  0  0  0  0  0  0  0
   -0.4058   -2.8823    7.7842 C   0  0  0  0  0  0  0  0  0  0  0  0
    0.1114    0.4253    4.0682 C   0  0  0  0  0  0  0  0  0  0  0  0
   -0.1670    1.6009    3.1938 C   0  0  0  0  0  0  0  0  0  0  0  0
   -1.1815    1.5876    2.2364 C   0  0  0  0  0  0  0  0  0  0  0  0
   -1.3631    2.6954    1.4164 C   0  0  0  0  0  0  0  0  0  0  0  0
   -0.5690    3.8312    1.5913 C   0  0  0  0  0  0  0  0  0  0  0  0
    0.3856    3.8794    2.6051 C   0  0  0  0  0  0  0  0  0  0  0  0
    0.6057    2.7560    3.3878 C   0  0  0  0  0  0  0  0  0  0  0  0
    2.2186   -1.2021    2.4898 O   0  0  0  0  0  0  0  0  0  0  0  0
    0.7988   -0.6721    6.2777 O   0  0  0  0  0  0  0  0  0  0  0  0
    1.4800   -2.6438    9.6055 O   0  0  0  0  0  0  0  0  0  0  0  0
    1.0959    1.4607    0.0115 Cl  0  0  0  0  0  0  0  0  0  0  0  0
  1  2  1  0
  1 22  1  0
  2  3  1  0
  3  4  1  0
  3 19  2  0
  4  5  1  0
  4 12  1  1
  5  6  1  0
  6  7  1  0
  6 20  2  0
  7  8  1  0
  7 11  1  1
  8  9  1  0
  9 10  1  0
  9 21  2  0
 12 13  1  0
 13 14  2  0
 13 18  1  0
 14 15  1  0
 15 16  2  0
 16 17  1  0
 17 18  2  0
M  END
>  <DRUGBANK_ID>  (1) 
DB07899

>  <COMMON_NAME>  (1) 
(2S) N-acetyl-L-alanyl-Î±L-phenylalanyl-chloroethylketone

>  <SYNONYMS>  (1) 
N2-Acetyl-N-[(2S)-5-chloro-3-oxo-1-phenyl-2-pentanyl]-L-alaninamide

$$$$
