
     RDKit          3D

 26 26  0  0  1  0  0  0  0  0999 V2000
   -1.5649   -1.7972    0.0191 C   0  0  0  0  0  0  0  0  0  0  0  0
   -0.4285   -0.8236    0.0080 C   0  0  0  0  0  0  0  0  0  0  0  0
    0.8152   -1.3640   -0.0002 N   0  0  0  0  0  0  0  0  0  0  0  0
    1.8591   -0.5210   -0.0240 C   0  0  0  0  0  0  0  0  0  0  0  0
    1.7404    0.8635   -0.0229 C   0  0  0  0  0  0  0  0  0  0  0  0
    3.0415    1.6280   -0.0053 C   0  0  0  0  0  0  0  0  0  0  0  0
    3.7437    1.5233    1.2464 O   0  0  0  0  0  0  0  0  0  0  0  0
    2.7632    1.8082    2.6429 P   0  0  0  0  0  0  0  0  0  0  0  0
    4.1796    1.8183    3.4649 O   0  0  0  0  0  0  0  0  0  0  0  0
    2.9094    3.3137    2.1948 O   0  0  0  0  0  0  0  0  0  0  0  0
    1.8856    2.0631    3.8928 O   0  0  0  0  0  0  0  0  0  0  0  0
    0.4262    1.4245   -0.0093 C   0  0  0  0  0  0  0  0  0  0  0  0
    0.1696    2.9093   -0.0935 C   0  0  0  0  0  0  0  0  0  0  0  0
    0.8190    3.6104    1.0113 N   0  0  0  0  0  0  0  0  0  0  0  0
    0.6523    5.0974    1.0845 C   0  0  1  0  0  0  0  0  0  0  0  0
   -0.8619    5.4110    1.2033 C   0  0  0  0  0  0  0  0  0  0  0  0
    1.3696    5.6902    2.3794 C   0  0  0  0  0  0  0  0  0  0  0  0
    2.9104    5.7329    2.5993 C   0  0  0  0  0  0  0  0  0  0  0  0
    3.7404    5.9742    1.3713 C   0  0  0  0  0  0  0  0  0  0  0  0
    4.6354    6.9623    1.5105 O   0  0  0  0  0  0  0  0  0  0  0  0
    3.6727    5.2752    0.3534 O   0  0  0  0  0  0  0  0  0  0  0  0
    1.1275    5.8428   -0.1928 C   0  0  0  0  0  0  0  0  0  0  0  0
    1.6395    5.0761   -1.1801 O   0  0  0  0  0  0  0  0  0  0  0  0
    1.0348    7.0537   -0.3275 O   0  0  0  0  0  0  0  0  0  0  0  0
   -0.6663    0.5482    0.0012 C   0  0  0  0  0  0  0  0  0  0  0  0
   -1.9746    0.9470   -0.0041 O   0  0  0  0  0  0  0  0  0  0  0  0
  1  2  1  0
  2  3  2  0
  2 25  1  0
  3  4  1  0
  4  5  2  0
  5  6  1  0
  5 12  1  0
  6  7  1  0
  7  8  1  0
  8  9  1  0
  8 10  1  0
  8 11  2  0
 12 13  1  0
 12 25  2  0
 13 14  1  0
 15 14  1  0
 15 16  1  1
 15 17  1  0
 15 22  1  0
 17 18  1  0
 18 19  1  0
 19 20  1  0
 19 21  2  0
 22 23  1  0
 22 24  2  0
 25 26  1  0
M  END
>  <DRUGBANK_ID>  (1) 
DB04765

>  <COMMON_NAME>  (1) 
N-PYRIDOXYL-2-METHYL-L-GLUTAMIC ACID-5'-MONOPHOSPHATE

$$$$
