
     RDKit          3D

 25 27  0  0  0  0  0  0  0  0999 V2000
    2.5447   -0.0656   -0.0210 C   0  0  0  0  0  0  0  0  0  0  0  0
   -0.6277    6.9670   -1.3774 C   0  0  0  0  0  0  0  0  0  0  0  0
   -1.7314   -3.7259   -1.4544 C   0  0  0  0  0  0  0  0  0  0  0  0
   -1.0956    1.1572   -0.0026 C   0  0  0  0  0  0  0  0  0  0  0  0
   -1.7844   -0.0623   -0.0340 C   0  0  0  0  0  0  0  0  0  0  0  0
    1.9481   -2.9483    1.1693 C   0  0  0  0  0  0  0  0  0  0  0  0
    2.2877   -4.3377    0.7025 C   0  0  0  0  0  0  0  0  0  0  0  0
   -0.6369    4.3218    0.9003 C   0  0  0  0  0  0  0  0  0  0  0  0
    1.0380   -0.0096    0.0364 C   0  0  0  0  0  0  0  0  0  0  0  0
    0.3139    1.2101    0.0368 C   0  0  0  0  0  0  0  0  0  0  0  0
    0.2584    3.7633   -0.0285 C   0  0  0  0  0  0  0  0  0  0  0  0
    1.0972   -2.5087    0.0365 C   0  0  0  0  0  0  0  0  0  0  0  0
   -1.0792   -1.2727   -0.0385 C   0  0  0  0  0  0  0  0  0  0  0  0
    0.3253   -1.2477    0.0395 C   0  0  0  0  0  0  0  0  0  0  0  0
    1.0125    2.5485    0.0161 C   0  0  0  0  0  0  0  0  0  0  0  0
    0.3877    4.7087   -1.0227 C   0  0  0  0  0  0  0  0  0  0  0  0
   -1.0876    5.5161    0.5092 N   0  0  0  0  0  0  0  0  0  0  0  0
    1.1310   -3.2734   -0.9982 N   0  0  0  0  0  0  0  0  0  0  0  0
   -0.4295    5.7383   -0.6523 N   0  0  0  0  0  0  0  0  0  0  0  0
    2.2340    2.6636   -0.0673 O   0  0  0  0  0  0  0  0  0  0  0  0
    1.1141    4.7397   -2.1378 O   0  0  0  0  0  0  0  0  0  0  0  0
    1.7983   -4.4618   -0.6345 O   0  0  0  0  0  0  0  0  0  0  0  0
   -2.0234   -2.7949    0.0256 S   0  0  0  0  0  0  0  0  0  0  0  0
   -1.5268   -3.5258    1.1764 O   0  0  0  0  0  0  0  0  0  0  0  0
   -3.4250   -2.4084   -0.0257 O   0  0  0  0  0  0  0  0  0  0  0  0
  1  9  1  0
  2 19  1  0
  3 23  1  0
  4  5  2  0
  4 10  1  0
  5 13  1  0
  6  7  1  0
  6 12  1  0
  7 22  1  0
  8 11  1  0
  8 17  2  0
  9 10  2  0
  9 14  1  0
 10 15  1  0
 11 15  1  0
 11 16  2  0
 12 14  1  0
 12 18  2  0
 13 14  2  0
 13 23  1  0
 15 20  2  0
 16 19  1  0
 16 21  1  0
 17 19  1  0
 18 22  1  0
 24 23  2  0
 25 23  2  0
M  END
>  <DRUGBANK_ID>  (1) 
DB14826

>  <COMMON_NAME>  (1) 
Topramezone

>  <CAS_NUMBER>  (1) 
210631-68-8

>  <UNII>  (1) 
W4934JAQ65

$$$$
