
     RDKit          3D

 26 28  0  0  0  0  0  0  0  0999 V2000
    0.9144   -0.0717   -0.0315 C   0  0  0  0  0  0  0  0  0  0  0  0
    0.3051    1.1295    0.4276 O   0  0  0  0  0  0  0  0  0  0  0  0
    0.7847    1.6307    1.6055 C   0  0  0  0  0  0  0  0  0  0  0  0
    2.1101    1.5247    2.0138 C   0  0  0  0  0  0  0  0  0  0  0  0
    2.5498    2.2146    3.1412 C   0  0  0  0  0  0  0  0  0  0  0  0
    1.6333    2.9794    3.8884 C   0  0  0  0  0  0  0  0  0  0  0  0
    0.3126    3.0936    3.4828 C   0  0  0  0  0  0  0  0  0  0  0  0
   -0.1139    2.3979    2.3547 C   0  0  0  0  0  0  0  0  0  0  0  0
    3.9571    2.2386    3.5112 C   0  0  0  0  0  0  0  0  0  0  0  0
    4.9699    2.6780    2.6409 C   0  0  0  0  0  0  0  0  0  0  0  0
    6.3012    2.8000    3.0836 C   0  0  0  0  0  0  0  0  0  0  0  0
    6.5907    2.5992    4.4350 C   0  0  0  0  0  0  0  0  0  0  0  0
    7.9367    2.4049    4.8741 N   0  0  0  0  0  0  0  0  0  0  0  0
    8.4353    1.8430    6.0439 C   0  0  0  0  0  0  0  0  0  0  0  0
    9.6495    1.8138    6.2383 O   0  0  0  0  0  0  0  0  0  0  0  0
    7.5406    1.1477    7.0022 C   0  0  0  0  0  0  0  0  0  0  0  0
    6.5966    0.2268    6.7197 C   0  0  0  0  0  0  0  0  0  0  0  0
    5.6137    0.1365    7.8685 C   0  0  0  0  0  0  0  0  0  0  0  0
    6.3614    0.7650    9.0423 C   0  0  0  0  0  0  0  0  0  0  0  0
    7.4798    1.6148    8.4319 C   0  0  0  0  0  0  0  0  0  0  0  0
    6.2463   -0.4301    5.4395 C   0  0  0  0  0  0  0  0  0  0  0  0
    7.1052   -0.3061    4.4151 O   0  0  0  0  0  0  0  0  0  0  0  0
    5.1823   -1.0368    5.2972 O   0  0  0  0  0  0  0  0  0  0  0  0
    5.5033    2.4399    5.2859 C   0  0  0  0  0  0  0  0  0  0  0  0
    5.6122    2.6620    6.5977 F   0  0  0  0  0  0  0  0  0  0  0  0
    4.2796    2.0112    4.8309 C   0  0  0  0  0  0  0  0  0  0  0  0
  1  2  1  0
  2  3  1  0
  3  4  2  0
  3  8  1  0
  4  5  1  0
  5  6  2  0
  5  9  1  0
  6  7  1  0
  7  8  2  0
  9 10  2  0
  9 26  1  0
 10 11  1  0
 11 12  2  0
 12 13  1  0
 12 24  1  0
 13 14  1  0
 14 15  2  0
 14 16  1  0
 16 17  2  0
 16 20  1  0
 17 18  1  0
 17 21  1  0
 18 19  1  0
 19 20  1  0
 21 22  1  0
 21 23  2  0
 24 25  1  0
 24 26  2  0
M  END
>  <DRUGBANK_ID>  (1) 
DB15446

>  <COMMON_NAME>  (1) 
Vidofludimus

>  <CAS_NUMBER>  (1) 
717824-30-1

>  <UNII>  (1) 
8Y1PJ3VG81

>  <SYNONYMS>  (1) 
Vidofludimus

$$$$
