
     RDKit          3D

 29 30  0  0  0  0  0  0  0  0999 V2000
    1.4054   -0.1739    0.0282 C   0  0  0  0  0  0  0  0  0  0  0  0
    2.8588   -0.3858    0.1531 C   0  0  0  0  0  0  0  0  0  0  0  0
    3.7852    0.5872    0.2271 C   0  0  0  0  0  0  0  0  0  0  0  0
    5.2141    0.2226    0.4092 C   0  0  0  0  0  0  0  0  0  0  0  0
    6.1746    1.3712    0.4581 C   0  0  0  0  0  0  0  0  0  0  0  0
    5.5408   -0.9601    0.5072 O   0  0  0  0  0  0  0  0  0  0  0  0
    7.4988    1.1754    0.5935 C   0  0  0  0  0  0  0  0  0  0  0  0
    8.4663    2.2676    0.6195 C   0  0  0  0  0  0  0  0  0  0  0  0
    7.9887   -0.1049    0.7156 O   0  0  0  0  0  0  0  0  0  0  0  0
    9.8050    2.1544    0.7256 C   0  0  0  0  0  0  0  0  0  0  0  0
   10.7342    3.2914    0.8049 C   0  0  0  0  0  0  0  0  0  0  0  0
   11.9796    3.2415    0.1752 C   0  0  0  0  0  0  0  0  0  0  0  0
   12.9145    4.2633    0.3846 C   0  0  0  0  0  0  0  0  0  0  0  0
   12.5982    5.3800    1.1734 C   0  0  0  0  0  0  0  0  0  0  0  0
   11.3534    5.4216    1.8240 C   0  0  0  0  0  0  0  0  0  0  0  0
   10.4406    4.3783    1.6305 C   0  0  0  0  0  0  0  0  0  0  0  0
    0.5535   -1.2892    0.0152 C   0  0  0  0  0  0  0  0  0  0  0  0
   -0.8444   -1.1474   -0.0076 C   0  0  0  0  0  0  0  0  0  0  0  0
   -1.4073    0.1400   -0.0321 C   0  0  0  0  0  0  0  0  0  0  0  0
   -0.5589    1.2507    0.0047 C   0  0  0  0  0  0  0  0  0  0  0  0
    0.8281    1.0961   -0.0132 C   0  0  0  0  0  0  0  0  0  0  0  0
   -1.7006   -2.2122    0.0243 O   0  0  0  0  0  0  0  0  0  0  0  0
   -1.1682   -3.5209    0.0969 C   0  0  0  0  0  0  0  0  0  0  0  0
   -2.7376    0.4772   -0.0988 O   0  0  0  0  0  0  0  0  0  0  0  0
   -3.6730   -0.5761   -0.3023 C   0  0  0  0  0  0  0  0  0  0  0  0
   11.0904    6.4741    2.6552 O   0  0  0  0  0  0  0  0  0  0  0  0
   13.5874    6.3349    1.2091 O   0  0  0  0  0  0  0  0  0  0  0  0
   13.2853    7.5660    1.8618 C   0  0  0  0  0  0  0  0  0  0  0  0
    9.8564    6.4997    3.3489 C   0  0  0  0  0  0  0  0  0  0  0  0
  1 17  2  0
  1  2  1  0
  2  3  2  0
  3  4  1  0
  4  5  1  0
  4  6  2  0
  5  7  2  0
  7  8  1  0
  7  9  1  0
  8 10  2  0
 10 11  1  0
 11 12  2  0
 12 13  1  0
 13 14  2  0
 14 15  1  0
 14 27  1  0
 15 16  2  0
 15 26  1  0
 16 11  1  0
 17 18  1  0
 18 19  2  0
 18 22  1  0
 19 20  1  0
 19 24  1  0
 20 21  2  0
 21  1  1  0
 22 23  1  0
 24 25  1  0
 26 29  1  0
 27 28  1  0
M  END
>  <DRUGBANK_ID>  (1) 
DB06133

>  <COMMON_NAME>  (1) 
Dimethylcurcumin

>  <CAS_NUMBER>  (1) 
52328-98-0

>  <UNII>  (1) 
D60XLY608D

$$$$
