
     RDKit          3D

 12 12  0  0  0  0  0  0  0  0999 V2000
    1.0966   -0.1388    0.0217 N   0  0  0  0  0  0  0  0  0  0  0  0
    0.4745   -1.6987    0.1363 S   0  0  0  0  0  0  0  0  0  0  0  0
    1.1445   -2.2931    1.2633 O   0  0  0  0  0  0  0  0  0  0  0  0
   -0.9653   -1.5772    0.0603 O   0  0  0  0  0  0  0  0  0  0  0  0
    1.0107   -2.5362   -1.3241 C   0  0  0  0  0  0  0  0  0  0  0  0
    0.8108   -3.9205   -1.3761 C   0  0  0  0  0  0  0  0  0  0  0  0
    1.1601   -4.6164   -2.5275 C   0  0  0  0  0  0  0  0  0  0  0  0
    0.9315   -5.9339   -2.5938 F   0  0  0  0  0  0  0  0  0  0  0  0
    1.7262   -3.9658   -3.6143 C   0  0  0  0  0  0  0  0  0  0  0  0
    1.9491   -2.5961   -3.5328 C   0  0  0  0  0  0  0  0  0  0  0  0
    2.5011   -1.9623   -4.5756 F   0  0  0  0  0  0  0  0  0  0  0  0
    1.5980   -1.8657   -2.3980 C   0  0  0  0  0  0  0  0  0  0  0  0
  1  2  1  0
  2  3  2  0
  2  4  2  0
  2  5  1  0
  5  6  2  0
  5 12  1  0
  6  7  1  0
  7  8  1  0
  7  9  2  0
  9 10  1  0
 10 11  1  0
 10 12  2  0
M  END
>  <DRUGBANK_ID>  (1) 
DB02087

>  <SECONDARY_ACCESSION_NUMBERS>  (1) 
EXPT01398

>  <COMMON_NAME>  (1) 
3,5-Difluorobenzenesulfonamide

>  <UNII>  (1) 
PTI28JEB8Q

$$$$
