
     RDKit          3D

 24 25  0  0  0  0  0  0  0  0999 V2000
    0.9098    0.0152   -0.1666 C   0  0  0  0  0  0  0  0  0  0  0  0
    0.4499   -0.9059    0.9622 C   0  0  0  0  0  0  0  0  0  0  0  0
    1.0061   -0.5792    2.2471 O   0  0  0  0  0  0  0  0  0  0  0  0
    2.3243   -0.5632    2.5386 C   0  0  0  0  0  0  0  0  0  0  0  0
    3.3304   -0.9625    1.4962 C   0  0  0  0  0  0  0  0  0  0  0  0
    2.7105   -0.2075    3.6513 O   0  0  0  0  0  0  0  0  0  0  0  0
   -1.0018   -0.9070    0.9873 O   0  0  0  0  0  0  0  0  0  0  0  0
   -1.6356    0.2639    1.2807 C   0  0  0  0  0  0  0  0  0  0  0  0
   -1.0695    1.3246    1.5454 O   0  0  0  0  0  0  0  0  0  0  0  0
   -3.1562    0.1490    1.2364 C   0  0  0  0  0  0  0  0  0  0  0  0
   -3.6793   -0.2206   -0.1517 C   0  0  0  0  0  0  0  0  0  0  0  0
   -3.6506   -0.8191    2.2844 C   0  0  0  0  0  0  0  0  0  0  0  0
   -3.4174   -2.1902    2.1112 C   0  0  0  0  0  0  0  0  0  0  0  0
   -3.7128   -3.0879    3.1151 C   0  0  0  0  0  0  0  0  0  0  0  0
   -3.3960   -4.3764    2.9210 F   0  0  0  0  0  0  0  0  0  0  0  0
   -4.2807   -2.6566    4.3097 C   0  0  0  0  0  0  0  0  0  0  0  0
   -4.5670   -1.2855    4.4650 C   0  0  0  0  0  0  0  0  0  0  0  0
   -4.2549   -0.3689    3.4624 C   0  0  0  0  0  0  0  0  0  0  0  0
   -4.5073   -3.5786    5.4150 C   0  0  0  0  0  0  0  0  0  0  0  0
   -3.4442   -4.3249    5.9467 C   0  0  0  0  0  0  0  0  0  0  0  0
   -3.6187   -5.0710    7.1078 C   0  0  0  0  0  0  0  0  0  0  0  0
   -4.8551   -5.0695    7.7496 C   0  0  0  0  0  0  0  0  0  0  0  0
   -5.9237   -4.3506    7.2167 C   0  0  0  0  0  0  0  0  0  0  0  0
   -5.7641   -3.6504    6.0263 C   0  0  0  0  0  0  0  0  0  0  0  0
  1  2  1  0
  2  3  1  0
  2  7  1  0
  3  4  1  0
  4  5  1  0
  4  6  2  0
  7  8  1  0
  8  9  2  0
  8 10  1  0
 10 11  1  0
 10 12  1  0
 12 13  2  0
 12 18  1  0
 13 14  1  0
 14 15  1  0
 14 16  2  0
 16 17  1  0
 16 19  1  0
 17 18  2  0
 19 20  2  0
 19 24  1  0
 20 21  1  0
 21 22  2  0
 22 23  1  0
 23 24  2  0
M  END
>  <DRUGBANK_ID>  (1) 
DB14938

>  <COMMON_NAME>  (1) 
Flurbiprofen axetil

>  <CAS_NUMBER>  (1) 
91503-79-6

>  <UNII>  (1) 
I0OU31PUI5

>  <SYNONYMS>  (1) 
Flurbiprofen axetil

$$$$
