AD7
     RDKit          3D

 29 30  0  0  0  0  0  0  0  0999 V2000
    1.4816    1.7753    6.6002 C   0  0  0  0  0  0  0  0  0  0  0  0
    3.1494    1.7145    6.1444 C   0  0  0  0  0  0  0  0  0  0  0  0
    3.3979    2.0909    4.3832 C   0  0  0  0  0  0  0  0  0  0  0  0
    3.0778    4.0239    4.0809 C   0  0  0  0  0  0  0  0  0  0  0  0
    3.6601    5.4893    5.4129 C   0  0  0  0  0  0  0  0  0  0  0  0
    4.9147    6.3371    5.0220 C   0  0  0  0  0  0  0  0  0  0  0  0
    4.8093    6.7638    3.7192 O   0  0  0  0  0  0  0  0  0  0  0  0
    4.2451    5.7099    2.9892 C   0  0  2  0  0  0  0  0  0  0  0  0
    2.6061    6.0456    3.1950 O   0  0  0  0  0  0  0  0  0  0  0  0
    1.6408    5.3704    4.5189 C   0  0  2  0  0  0  0  0  0  0  0  0
    1.5340    6.6224    5.2290 C   0  0  0  0  0  0  0  0  0  0  0  0
    1.2329    7.8071    4.5871 O   0  0  0  0  0  0  0  0  0  0  0  0
    2.4738    3.8741    5.6037 C   0  0  2  0  0  0  0  0  0  0  0  0
    2.2527    4.2146    6.9683 O   0  0  0  0  0  0  0  0  0  0  0  0
    4.4676    3.5264    5.2562 C   0  0  2  0  0  0  0  0  0  0  0  0
    5.3385    3.9803    6.3254 N   0  0  0  0  0  0  0  0  0  0  0  0
    4.9308    4.0035    3.3715 C   0  0  1  0  0  0  0  0  0  0  0  0
    4.3233    2.9780    2.1300 O   0  0  0  0  0  0  0  0  0  0  0  0
    2.8366    2.8007    1.8094 C   0  0  1  0  0  0  0  0  0  0  0  0
    2.1290    4.0440    1.3147 C   0  0  0  0  0  0  0  0  0  0  0  0
    2.3481    1.6600    1.1046 O   0  0  0  0  0  0  0  0  0  0  0  0
    0.8718    1.6333    1.1536 C   0  0  1  0  0  0  0  0  0  0  0  0
    0.3178    1.2289    2.5467 C   0  0  0  0  0  0  0  0  0  0  0  0
    0.2288    2.9591    0.6275 C   0  0  1  0  0  0  0  0  0  0  0  0
   -1.1825    2.8818    0.5807 O   0  0  0  0  0  0  0  0  0  0  0  0
    0.6163    4.0922    1.5096 C   0  0  1  0  0  0  0  0  0  0  0  0
   -0.1430    3.9392    2.7227 O   0  0  0  0  0  0  0  0  0  0  0  0
    0.3721    3.1759    6.5250 C   0  0  0  0  0  0  0  0  0  0  0  0
   -1.0529    2.9729    6.6535 C   0  0  0  0  0  0  0  0  0  0  0  0
  1  2  1  0
  1 28  1  0
  2  3  1  0
  3  4  1  0
  4  5  1  0
  5  6  1  0
  6  7  1  0
  8  7  1  1
  8  9  1  0
  8 17  1  0
  9 10  1  0
 10 11  1  1
 10 13  1  0
 11 12  1  0
 13 14  1  1
 13 15  1  0
 15 16  1  1
 15 17  1  0
 17 18  1  6
 19 20  1  0
 19 21  1  0
 19 18  1  6
 20 26  1  0
 21 22  1  0
 22 23  1  1
 22 24  1  0
 24 25  1  1
 24 26  1  0
 26 27  1  1
 28 29  1  0
M  END
>  <DRUGBANK_ID>  (1) 
DB07341

>  <COMMON_NAME>  (1) 
octyl 3-amino-3-deoxy-2-O-(2,6-dideoxy-alpha-L-lyxo-hexopyranosyl)-beta-D-galactopyranoside

$$$$
