773
     RDKit          3D

 42 48  0  0  1  0  0  0  0  0999 V2000
   -2.6149    1.2244    0.6120 O   0  0  0  0  0  0  0  0  0  0  0  0
   -1.9251    4.6779    2.5459 O   0  0  0  0  0  0  0  0  0  0  0  0
   -0.5253    1.8328    1.6120 O   0  0  0  0  0  0  0  0  0  0  0  0
    2.7723    2.4603   -0.0641 O   0  0  0  0  0  0  0  0  0  0  0  0
   -0.2672    5.8708    1.6302 O   0  0  0  0  0  0  0  0  0  0  0  0
   -1.0624   -0.3393   -1.4088 O   0  0  0  0  0  0  0  0  0  0  0  0
    2.7196    3.5715    1.9922 O   0  0  0  0  0  0  0  0  0  0  0  0
    1.3377    1.1125   -2.1844 O   0  0  0  0  0  0  0  0  0  0  0  0
   -3.4681    0.4618   -4.6073 O   0  0  0  0  0  0  0  0  0  0  0  0
   -1.5036    1.6311   -5.3686 O   0  0  0  0  0  0  0  0  0  0  0  0
   -0.7214    9.1377   -0.5447 O   0  0  0  0  0  0  0  0  0  0  0  0
   -3.7517    7.3130   -3.8416 O   0  0  0  0  0  0  0  0  0  0  0  0
   -2.6647    9.4848   -2.4370 O   0  0  0  0  0  0  0  0  0  0  0  0
   -2.8326    3.7113    0.6120 C   0  0  1  0  0  0  0  0  0  0  0  0
   -1.4332    4.1474    0.2959 C   0  0  1  0  0  0  0  0  0  0  0  0
   -3.1707    2.3880   -0.0554 C   0  0  1  0  0  0  0  0  0  0  0  0
   -1.1131    4.3242   -1.1823 C   0  0  1  0  0  0  0  0  0  0  0  0
   -2.8812    2.4471   -1.5576 C   0  0  0  0  0  0  0  0  0  0  0  0
   -1.7981    3.2486   -2.0603 C   0  0  0  0  0  0  0  0  0  0  0  0
   -2.8787    3.7104    2.1267 C   0  0  0  0  0  0  0  0  0  0  0  0
   -1.1490    5.0627    1.4890 C   0  0  0  0  0  0  0  0  0  0  0  0
   -1.1846    0.9404    0.7051 C   0  0  2  0  0  0  0  0  0  0  0  0
   -1.4252    5.7031   -1.5753 C   0  0  0  0  0  0  0  0  0  0  0  0
   -0.5407    0.7690   -0.6841 C   0  0  1  0  0  0  0  0  0  0  0  0
    1.3790    2.1701   -0.0043 C   0  0  1  0  0  0  0  0  0  0  0  0
    0.9673    0.9422   -0.7997 C   0  0  2  0  0  0  0  0  0  0  0  0
    0.8901    2.0347    1.4496 C   0  0  1  0  0  0  0  0  0  0  0  0
   -3.5144    1.5232   -2.4116 C   0  0  0  0  0  0  0  0  0  0  0  0
   -1.2813    2.9915   -3.3585 C   0  0  0  0  0  0  0  0  0  0  0  0
    1.3260    3.3494    2.1164 C   0  0  0  0  0  0  0  0  0  0  0  0
   -3.0050    1.3488   -3.6844 C   0  0  0  0  0  0  0  0  0  0  0  0
   -1.8987    2.0313   -4.1302 C   0  0  0  0  0  0  0  0  0  0  0  0
   -2.3964    5.8971   -2.5249 C   0  0  0  0  0  0  0  0  0  0  0  0
   -0.7645    6.7673   -0.9840 C   0  0  0  0  0  0  0  0  0  0  0  0
    3.0389    3.6992    0.6048 C   0  0  1  0  0  0  0  0  0  0  0  0
   -1.2158    8.0411   -1.2040 C   0  0  0  0  0  0  0  0  0  0  0  0
   -2.8070    7.1475   -2.8675 C   0  0  0  0  0  0  0  0  0  0  0  0
   -2.4366    0.5563   -5.6118 C   0  0  0  0  0  0  0  0  0  0  0  0
   -2.2342    8.2173   -2.1679 C   0  0  0  0  0  0  0  0  0  0  0  0
    4.5101    3.9868    0.5017 C   0  0  0  0  0  0  0  0  0  0  0  0
    0.2570    8.8887    0.4816 C   0  0  0  0  0  0  0  0  0  0  0  0
   -4.2115    6.1028   -4.4755 C   0  0  0  0  0  0  0  0  0  0  0  0
  2 20  1  0
  2 21  1  0
  3 22  1  0
  3 27  1  0
 25  4  1  1
  4 35  1  0
  5 21  2  0
  7 30  1  0
  7 35  1  0
  9 31  1  0
  9 38  1  0
 10 32  1  0
 10 38  1  0
 11 36  1  0
 11 41  1  0
 12 37  1  0
 12 42  1  0
 13 39  1  0
 14 15  1  0
 14 16  1  0
 14 20  1  1
 15 17  1  0
 15 21  1  1
 16 18  1  0
 16  1  1  1
 17 19  1  0
 17 23  1  6
 18 19  2  0
 18 28  1  0
 19 29  1  0
 22 24  1  0
 22  1  1  6
 23 33  2  0
 23 34  1  0
 24  6  1  1
 24 26  1  0
 25 26  1  0
 25 27  1  0
 26  8  1  6
 27 30  1  1
 28 31  2  0
 29 32  2  0
 31 32  1  0
 33 37  1  0
 34 36  2  0
 35 40  1  1
 36 39  1  0
 37 39  2  0
M  END
>  <DRUGBANK_ID>  (1) 
DB00773

>  <SECONDARY_ACCESSION_NUMBERS>  (1) 
APRD00239

>  <COMMON_NAME>  (1) 
Etoposide

>  <CAS_NUMBER>  (1) 
33419-42-0

>  <UNII>  (1) 
6PLQ3CP4P3

>  <SYNONYMS>  (1) 
(−)-etoposide; 4-demethylepipodophyllotoxin β-D-ethylideneglucoside; 4'-Demethylepipodophyllotoxin 9-(4,6-O-(R)-ethylidene-beta-D-glucopyranoside); 9-((4,6-O-Ethylidine-beta-D-glucopyranosyl)oxy)-5,8,8a,9-tetrahydro-5-(4-hydroxy-3,4-dimethyloxyphenyl)furo(3',4'':6,7)naptho-(2,3-d)-1,3-dioxol-6(5aH)-one; Etoposide; Etoposido; Etoposidum; trans-Etoposide

$$$$
