
     RDKit          3D

 23 25  0  0  0  0  0  0  0  0999 V2000
    0.9662   -0.1476    0.0184 C   0  0  0  0  0  0  0  0  0  0  0  0
    0.4531    1.2752   -0.2456 C   0  0  0  0  0  0  0  0  0  0  0  0
    0.9769    1.7362   -1.6234 C   0  0  0  0  0  0  0  0  0  0  0  0
   -1.0947    1.2380   -0.3280 C   0  0  0  0  0  0  0  0  0  0  0  0
    0.9722    2.2048    0.9155 C   0  0  0  0  0  0  0  0  0  0  0  0
    0.1555    1.9744    2.2062 C   0  0  0  0  0  0  0  0  0  0  0  0
    0.3915    3.0213    3.2782 C   0  0  0  0  0  0  0  0  0  0  0  0
    0.0928    4.4512    2.7416 C   0  0  0  0  0  0  0  0  0  0  0  0
    1.1370    4.6709    1.6424 C   0  0  0  0  0  0  0  0  0  0  0  0
    0.9326    3.6723    0.4946 C   0  0  0  0  0  0  0  0  0  0  0  0
   -1.3704    4.6904    2.2636 C   0  0  0  0  0  0  0  0  0  0  0  0
   -1.8251    5.1850    1.0794 C   0  0  0  0  0  0  0  0  0  0  0  0
   -3.2589    5.1280    0.6908 C   0  0  0  0  0  0  0  0  0  0  0  0
   -3.6201    5.4232   -0.4411 O   0  0  0  0  0  0  0  0  0  0  0  0
   -4.2327    4.6886    1.6689 C   0  0  0  0  0  0  0  0  0  0  0  0
   -5.5772    4.6831    1.2872 C   0  0  0  0  0  0  0  0  0  0  0  0
   -6.5508    4.3527    2.2157 C   0  0  0  0  0  0  0  0  0  0  0  0
   -6.1746    4.0158    3.5149 C   0  0  0  0  0  0  0  0  0  0  0  0
   -4.8231    4.0040    3.8842 C   0  0  0  0  0  0  0  0  0  0  0  0
   -3.8390    4.3432    2.9486 C   0  0  0  0  0  0  0  0  0  0  0  0
   -2.4091    4.3671    3.3202 C   0  0  0  0  0  0  0  0  0  0  0  0
   -2.0979    4.1669    4.4871 O   0  0  0  0  0  0  0  0  0  0  0  0
   -1.1047    5.7548    0.0482 O   0  0  0  0  0  0  0  0  0  0  0  0
  1  2  1  0
  2  3  1  0
  2  4  1  0
  2  5  1  0
  5  6  1  0
  5 10  1  0
  6  7  1  0
  7  8  1  0
  8  9  1  0
  8 11  1  0
  9 10  1  0
 11 12  2  0
 11 21  1  0
 12 13  1  0
 12 23  1  0
 13 14  2  0
 13 15  1  0
 15 16  2  0
 15 20  1  0
 16 17  1  0
 17 18  2  0
 18 19  1  0
 19 20  2  0
 20 21  1  0
 21 22  2  0
M  END
>  <DRUGBANK_ID>  (1) 
DB06740

>  <COMMON_NAME>  (1) 
BW-A 58C

>  <CAS_NUMBER>  (1) 
94015-46-0

>  <SYNONYMS>  (1) 
2-(4-(1,1-Dimethylethyl)cyclohexyl)-3-hydroxy-1,4-naphthalenedione; 2-(4-tert-butylcyclohexyl)-3-hydroxy-1,4-naphthoquinone; 2-(4'-t-Butylcyclohexyl)-3-hydroxy-1,4-naphthoquinone; 2-[4-(1,1-Dimethylethyl)cyclohexyl]-3-hydroxy-1,4-naphthalenedione

$$$$
