
     RDKit          3D

 23 25  0  0  0  0  0  0  0  0999 V2000
    9.4753   -0.0858   -3.4075 C   0  0  0  0  0  0  0  0  0  0  0  0
   10.7470    0.4534   -3.3173 C   0  0  0  0  0  0  0  0  0  0  0  0
   11.2402    0.8355   -2.0711 C   0  0  0  0  0  0  0  0  0  0  0  0
   10.4844    0.6363   -0.9143 C   0  0  0  0  0  0  0  0  0  0  0  0
    8.6913   -0.2278   -2.2556 C   0  0  0  0  0  0  0  0  0  0  0  0
    9.2177    0.0876   -1.0203 C   0  0  0  0  0  0  0  0  0  0  0  0
    6.6161   -0.9482   -1.2212 C   0  0  0  0  0  0  0  0  0  0  0  0
    5.3903   -3.1041   -1.2782 C   0  0  0  0  0  0  0  0  0  0  0  0
    5.2338   -1.5771   -1.1529 C   0  0  2  0  0  0  0  0  0  0  0  0
    4.2356   -0.9894   -2.2124 C   0  0  0  0  0  0  0  0  0  0  0  0
    7.3214   -0.6772   -2.3399 C   0  0  0  0  0  0  0  0  0  0  0  0
    6.9361   -0.8012   -3.6540 O   0  0  0  0  0  0  0  0  0  0  0  0
    8.4949   -0.1279    0.1550 O   0  0  0  0  0  0  0  0  0  0  0  0
    7.2217   -0.6899    0.1308 C   0  0  0  0  0  0  0  0  0  0  0  0
    6.6324   -0.9188    1.1702 O   0  0  0  0  0  0  0  0  0  0  0  0
    4.9131   -4.0319   -0.3413 C   0  0  0  0  0  0  0  0  0  0  0  0
    5.8825   -3.6089   -2.4859 C   0  0  0  0  0  0  0  0  0  0  0  0
    5.7215   -4.9232   -2.8700 C   0  0  0  0  0  0  0  0  0  0  0  0
    5.2379   -5.8312   -1.9559 C   0  0  0  0  0  0  0  0  0  0  0  0
    4.8568   -5.3946   -0.6840 C   0  0  0  0  0  0  0  0  0  0  0  0
    2.9051   -1.7397   -2.3191 C   0  0  2  0  0  0  0  0  0  0  0  0
    2.6664   -2.3994   -1.0898 O   0  0  0  0  0  0  0  0  0  0  0  0
    2.9295   -2.6651   -3.5502 C   0  0  0  0  0  0  0  0  0  0  0  0
  1  2  2  0
  1  5  1  0
  2  3  1  0
  3  4  2  0
  4  6  1  0
  6  5  2  0
  6 13  1  0
  8 16  2  0
  8 17  1  0
  9 10  1  6
  9  8  1  0
  9  7  1  0
 11  5  1  0
 11  7  2  0
 11 12  1  0
 13 14  1  0
 14  7  1  0
 14 15  2  0
 17 18  2  0
 18 19  1  0
 19 20  2  0
 20 16  1  0
 21 23  1  6
 21 22  1  0
 21 10  1  0
M  END
>  <DRUGBANK_ID>  (1) 
DB08736

>  <COMMON_NAME>  (1) 
S,R-Warfarin alcohol

>  <CAS_NUMBER>  (1) 
40281-79-6

>  <UNII>  (1) 
62GD2Z2LXM

$$$$
