
     RDKit          3D

 35 39  0  0  0  0  0  0  0  0999 V2000
   -1.2406    0.2707   -0.9642 C   0  0  2  0  0  0  0  0  0  0  0  0
   -1.4907   -1.1394   -0.0922 C   0  0  2  0  0  0  0  0  0  0  0  0
   -2.2463    0.9152    1.1760 C   0  0  1  0  0  0  0  0  0  0  0  0
    0.2756    0.4069   -0.6781 C   0  0  0  0  0  0  0  0  0  0  0  0
   -2.1838    1.2943   -0.3122 C   0  0  1  0  0  0  0  0  0  0  0  0
   -1.3811   -0.3888    1.3364 C   0  0  1  0  0  0  0  0  0  0  0  0
   -0.2765   -1.8697   -0.4524 O   0  0  0  0  0  0  0  0  0  0  0  0
    0.7084   -0.9104   -0.4806 C   0  0  0  0  0  0  0  0  0  0  0  0
    1.1540    1.4535   -0.3224 C   0  0  0  0  0  0  0  0  0  0  0  0
   -1.9346    2.0214    2.2225 C   0  0  0  0  0  0  0  0  0  0  0  0
   -2.6205   -2.3058    0.0660 C   0  0  0  0  0  0  0  0  0  0  0  0
    1.9412   -1.2569    0.0133 C   0  0  0  0  0  0  0  0  0  0  0  0
    2.4141    1.0995    0.2172 C   0  0  0  0  0  0  0  0  0  0  0  0
    2.8036   -0.2426    0.3853 C   0  0  0  0  0  0  0  0  0  0  0  0
   -1.5080   -1.1953    2.5967 C   0  0  0  0  0  0  0  0  0  0  0  0
   -1.4012    0.2185   -2.3810 O   0  0  0  0  0  0  0  0  0  0  0  0
   -2.1879    1.9339    3.4062 O   0  0  0  0  0  0  0  0  0  0  0  0
   -1.8869    2.6604   -0.5733 O   0  0  0  0  0  0  0  0  0  0  0  0
   -3.9419   -2.1002    0.5175 C   0  0  0  0  0  0  0  0  0  0  0  0
   -2.2672   -3.7045    0.0997 C   0  0  0  0  0  0  0  0  0  0  0  0
    0.7443    2.7592   -0.4056 O   0  0  0  0  0  0  0  0  0  0  0  0
   -4.3986   -4.5072    1.0283 C   0  0  0  0  0  0  0  0  0  0  0  0
   -3.1448   -4.7755    0.5102 C   0  0  0  0  0  0  0  0  0  0  0  0
   -4.7812   -3.1621    1.0286 C   0  0  0  0  0  0  0  0  0  0  0  0
    4.0209   -0.4586    0.9772 O   0  0  0  0  0  0  0  0  0  0  0  0
   -5.2933   -5.4131    1.5454 O   0  0  0  0  0  0  0  0  0  0  0  0
   -0.6369   -2.2520    2.8832 C   0  0  0  0  0  0  0  0  0  0  0  0
   -2.4012   -0.7848    3.5810 C   0  0  0  0  0  0  0  0  0  0  0  0
    1.6687    3.7967   -0.0398 C   0  0  0  0  0  0  0  0  0  0  0  0
    4.3819   -1.8325    1.1334 C   0  0  0  0  0  0  0  0  0  0  0  0
   -4.9412   -6.8018    1.5686 C   0  0  0  0  0  0  0  0  0  0  0  0
   -0.7521   -2.9192    4.1006 C   0  0  0  0  0  0  0  0  0  0  0  0
   -2.3406   -1.2827    4.8631 C   0  0  0  0  0  0  0  0  0  0  0  0
   -1.5849   -2.4140    5.0989 C   0  0  0  0  0  0  0  0  0  0  0  0
   -1.4434    3.2313    1.8437 N   0  0  0  0  0  0  0  0  0  0  0  0
  1 16  1  6
  2  1  1  0
  2 11  1  6
  3  5  1  0
  3  6  1  0
  3 10  1  1
  4  1  1  0
  5  1  1  0
  5 18  1  1
  6  2  1  0
  6 15  1  1
  7  2  1  0
  7  8  1  0
  8  4  2  0
  9  4  1  0
 12  8  1  0
 13  9  2  0
 14 12  2  0
 14 13  1  0
 17 10  2  0
 19 11  2  0
 20 11  1  0
 21  9  1  0
 22 23  1  0
 23 20  2  0
 24 19  1  0
 24 22  2  0
 25 14  1  0
 26 22  1  0
 27 15  2  0
 28 15  1  0
 29 21  1  0
 30 25  1  0
 31 26  1  0
 32 27  1  0
 33 28  2  0
 34 32  2  0
 34 33  1  0
 35 10  1  0
M  END
>  <DRUGBANK_ID>  (1) 
DB15496

>  <COMMON_NAME>  (1) 
Didesmethylrocaglamide

>  <SYNONYMS>  (1) 
RocB

$$$$
