
     RDKit          3D

 37 41  0  0  0  0  0  0  0  0999 V2000
    0.9183    0.0022   -0.0873 C   0  0  0  0  0  0  0  0  0  0  0  0
   -0.5839   11.1660    2.9126 C   0  0  0  0  0  0  0  0  0  0  0  0
    0.5184    7.9593    5.5781 C   0  0  0  0  0  0  0  0  0  0  0  0
    1.1197    6.7694    5.2153 C   0  0  0  0  0  0  0  0  0  0  0  0
   -0.5010    8.4787    4.7875 C   0  0  0  0  0  0  0  0  0  0  0  0
    0.7005    6.1079    4.0641 C   0  0  0  0  0  0  0  0  0  0  0  0
    3.6667   -2.0877    2.4019 C   0  0  0  0  0  0  0  0  0  0  0  0
    2.9246   -0.9736    2.0313 C   0  0  0  0  0  0  0  0  0  0  0  0
   -3.9483    9.8955    3.2439 C   0  0  0  0  0  0  0  0  0  0  0  0
   -0.2331    3.1548   -0.1692 C   0  0  0  0  0  0  0  0  0  0  0  0
   -1.1629    2.3965    2.0453 C   0  0  0  0  0  0  0  0  0  0  0  0
   -4.0250   11.2873    3.4113 C   0  0  0  0  0  0  0  0  0  0  0  0
    0.3682    4.3912    0.5142 C   0  0  0  0  0  0  0  0  0  0  0  0
   -0.3795    3.5410    2.6865 C   0  0  0  0  0  0  0  0  0  0  0  0
    2.1017   -2.5290    4.1889 C   0  0  0  0  0  0  0  0  0  0  0  0
    3.2555   -2.8505    3.4828 C   0  0  0  0  0  0  0  0  0  0  0  0
   -0.4649    1.9230    0.7673 C   0  0  0  0  0  0  0  0  0  0  0  0
   -0.9494    7.8193    3.6136 C   0  0  0  0  0  0  0  0  0  0  0  0
   -0.3586    6.5827    3.2544 C   0  0  0  0  0  0  0  0  0  0  0  0
    1.7218   -0.6687    2.6798 C   0  0  0  0  0  0  0  0  0  0  0  0
    1.3015   -1.4347    3.7955 C   0  0  0  0  0  0  0  0  0  0  0  0
   -2.6146    9.6212    2.9921 C   0  0  0  0  0  0  0  0  0  0  0  0
   -1.9553    8.3294    2.7820 C   0  0  0  0  0  0  0  0  0  0  0  0
   -0.8255    5.8915    2.1090 C   0  0  0  0  0  0  0  0  0  0  0  0
    1.0651    0.6019    2.3302 C   0  0  0  0  0  0  0  0  0  0  0  0
    0.0628   -1.1617    4.6275 C   0  0  0  0  0  0  0  0  0  0  0  0
    3.9960   -3.8970    3.8650 F   0  0  0  0  0  0  0  0  0  0  0  0
   -0.7298   -2.2765    4.6858 F   0  0  0  0  0  0  0  0  0  0  0  0
    0.3625   -0.8776    5.9282 F   0  0  0  0  0  0  0  0  0  0  0  0
   -0.7755   -0.1836    4.2060 F   0  0  0  0  0  0  0  0  0  0  0  0
   -2.8365   11.8760    3.2835 N   0  0  0  0  0  0  0  0  0  0  0  0
   -2.3932    7.6496    1.7033 N   0  0  0  0  0  0  0  0  0  0  0  0
   -1.8165    6.4340    1.3659 N   0  0  0  0  0  0  0  0  0  0  0  0
    0.6591    0.9386    1.0091 N   0  0  0  0  0  0  0  0  0  0  0  0
   -1.9923   10.8535    3.0205 N   0  0  0  0  0  0  0  0  0  0  0  0
   -0.3580    4.6448    1.7491 N   0  0  0  0  0  0  0  0  0  0  0  0
    0.9429    1.3069    3.3381 O   0  0  0  0  0  0  0  0  0  0  0  0
  4  3  2  0
  5  3  1  0
  6  4  1  0
  8  7  2  0
 12  9  1  0
 13 10  1  0
 14 11  1  0
 16  7  1  0
 16 15  2  0
 17 10  1  0
 17 11  1  0
 18  5  2  0
 19  6  2  0
 19 18  1  0
 20  8  1  0
 21 15  1  0
 21 20  2  0
 22  9  2  0
 23 18  1  0
 23 22  1  0
 24 19  1  0
 25 20  1  0
 26 21  1  0
 27 16  1  0
 28 26  1  0
 29 26  1  0
 30 26  1  0
 31 12  2  0
 32 23  2  0
 33 24  2  0
 33 32  1  0
 34  1  1  0
 34 17  1  0
 34 25  1  0
 35  2  1  0
 35 22  1  0
 35 31  1  0
 36 13  1  0
 36 14  1  0
 36 24  1  0
 37 25  2  0
M  END
>  <DRUGBANK_ID>  (1) 
DB12550

>  <COMMON_NAME>  (1) 
Taladegib

>  <CAS_NUMBER>  (1) 
1258861-20-9

>  <UNII>  (1) 
QY8BWX1LJ5

>  <SYNONYMS>  (1) 
Taladegib

$$$$
