
     RDKit          3D

 22 23  0  0  0  0  0  0  0  0999 V2000
    1.2153   -0.0171   -0.2377 C   0  0  0  0  0  0  0  0  0  0  0  0
    0.4313   -1.2178   -0.1099 C   0  0  0  0  0  0  0  0  0  0  0  0
   -0.9241   -1.0727   -0.0289 C   0  0  0  0  0  0  0  0  0  0  0  0
   -0.6092    1.3769    0.0820 C   0  0  0  0  0  0  0  0  0  0  0  0
    0.7475    1.2609   -0.0961 C   0  0  0  0  0  0  0  0  0  0  0  0
    1.7131    2.3979   -0.2992 C   0  0  0  0  0  0  0  0  0  0  0  0
    1.4455    3.0190   -1.5794 N   0  0  0  0  0  0  0  0  0  0  0  0
    1.2473   -2.5131   -0.0408 C   0  0  0  0  0  0  0  0  0  0  0  0
    0.2646    3.6128   -1.8253 N   0  0  0  0  0  0  0  0  0  0  0  0
    0.3376    3.8098   -3.1411 C   0  0  0  0  0  0  0  0  0  0  0  0
    1.5193    3.4373   -3.7189 N   0  0  0  0  0  0  0  0  0  0  0  0
    2.1971    2.9397   -2.7103 C   0  0  0  0  0  0  0  0  0  0  0  0
    0.9732   -3.8901    0.4117 C   0  0  0  0  0  0  0  0  0  0  0  0
    1.1742   -4.9750    0.7849 N   0  0  0  0  0  0  0  0  0  0  0  0
    1.7470   -2.6112   -1.4976 C   0  0  0  0  0  0  0  0  0  0  0  0
    2.1657   -2.0321    1.1060 C   0  0  0  0  0  0  0  0  0  0  0  0
   -1.4535    0.2399   -0.0344 C   0  0  0  0  0  0  0  0  0  0  0  0
   -2.9514    0.4625   -0.1969 C   0  0  0  0  0  0  0  0  0  0  0  0
   -3.2637    1.7298   -0.9358 C   0  0  0  0  0  0  0  0  0  0  0  0
   -3.5127    2.6960   -1.4988 N   0  0  0  0  0  0  0  0  0  0  0  0
   -3.5772   -0.6891   -1.0027 C   0  0  0  0  0  0  0  0  0  0  0  0
   -3.5338    0.5154    1.2118 C   0  0  0  0  0  0  0  0  0  0  0  0
  1  2  2  0
  1  5  1  0
  2  3  1  0
  2  8  1  0
  3 17  2  0
  4  5  2  0
  5  6  1  0
  6  7  1  0
  7  9  1  0
  7 12  1  0
  8 13  1  0
  8 15  1  0
  9 10  2  0
 10 11  1  0
 11 12  2  0
 13 14  3  0
 16  8  1  0
 17  4  1  0
 17 18  1  0
 18 19  1  0
 18 21  1  0
 19 20  3  0
 22 18  1  0
M  END
>  <DRUGBANK_ID>  (1) 
DB01217

>  <SECONDARY_ACCESSION_NUMBERS>  (1) 
APRD00016

>  <COMMON_NAME>  (1) 
Anastrozole

>  <CAS_NUMBER>  (1) 
120511-73-1

>  <UNII>  (1) 
2Z07MYW1AZ

>  <SYNONYMS>  (1) 
Anastrozol; Anastrozole; α,α,α',α'-Tetramethyl-5-(1H-1,2,4-triazol-1-ylmethyl)-m-benzenediacetonitrile

$$$$
