
     RDKit          3D

 26 28  0  0  0  0  0  0  0  0999 V2000
   -1.2140    0.0545    0.8359 C   0  0  0  0  0  0  0  0  0  0  0  0
   -1.2058   -0.1422   -0.6362 C   0  0  0  0  0  0  0  0  0  0  0  0
    0.1416    0.0114    0.1766 C   0  0  0  0  0  0  0  0  0  0  0  0
   -1.8617    0.8790   -1.5422 C   0  0  0  0  0  0  0  0  0  0  0  0
    1.0307   -1.2129    0.0921 C   0  0  0  0  0  0  0  0  0  0  0  0
    0.9383    1.2670    0.5402 C   0  0  0  0  0  0  0  0  0  0  0  0
   -2.4743    0.4151   -2.6947 O   0  0  0  0  0  0  0  0  0  0  0  0
   -1.8482    2.0638   -1.2834 O   0  0  0  0  0  0  0  0  0  0  0  0
   -1.6829   -0.9639    1.7788 C   0  0  0  0  0  0  0  0  0  0  0  0
   -2.2849   -0.6727    2.9465 C   0  0  0  0  0  0  0  0  0  0  0  0
   -2.8596   -1.9050    4.0025 Cl  0  0  0  0  0  0  0  0  0  0  0  0
   -2.4844   -0.9738   -3.1380 C   0  0  0  0  0  0  0  0  0  0  0  0
   -1.0982   -1.5215   -3.3932 C   0  0  0  0  0  0  0  0  0  0  0  0
   -0.0456   -0.6244   -3.5766 C   0  0  0  0  0  0  0  0  0  0  0  0
   -0.8055   -2.8817   -3.3272 C   0  0  0  0  0  0  0  0  0  0  0  0
    0.5298   -3.2959   -3.2466 C   0  0  0  0  0  0  0  0  0  0  0  0
    1.2900   -1.0014   -3.4746 C   0  0  0  0  0  0  0  0  0  0  0  0
    2.3282   -0.0829   -3.4908 O   0  0  0  0  0  0  0  0  0  0  0  0
    2.0519    1.2671   -3.3593 C   0  0  0  0  0  0  0  0  0  0  0  0
    1.1953    1.7775   -2.4028 C   0  0  0  0  0  0  0  0  0  0  0  0
    2.6673    2.1914   -4.1703 C   0  0  0  0  0  0  0  0  0  0  0  0
    2.4642    3.5718   -3.9540 C   0  0  0  0  0  0  0  0  0  0  0  0
    1.6300    4.0500   -2.9404 C   0  0  0  0  0  0  0  0  0  0  0  0
    0.9814    3.1370   -2.1515 C   0  0  0  0  0  0  0  0  0  0  0  0
    1.5776   -2.3598   -3.3117 C   0  0  0  0  0  0  0  0  0  0  0  0
   -2.5415    0.9641    3.4661 Cl  0  0  0  0  0  0  0  0  0  0  0  0
  1  2  1  0
  1  3  1  0
  1  9  1  0
  2  4  1  0
  2  3  1  0
  3  5  1  0
  3  6  1  0
  4  7  1  0
  4  8  2  0
  9 10  2  3
 10 11  1  0
 10 26  1  0
 12  7  1  0
 12 13  1  0
 13 15  1  0
 14 13  2  0
 14 17  1  0
 15 16  2  0
 16 25  1  0
 17 18  1  0
 18 19  1  0
 19 21  1  0
 20 19  2  0
 20 24  1  0
 21 22  2  0
 22 23  1  0
 23 24  2  0
 25 17  2  0
M  END
>  <DRUGBANK_ID>  (1) 
DB04930

>  <COMMON_NAME>  (1) 
Permethrin

>  <CAS_NUMBER>  (1) 
52645-53-1

>  <UNII>  (1) 
509F88P9SZ

>  <SYNONYMS>  (1) 
(3-Phenoxyphenyl)methyl (Â±)-cis,trans-3-(2,2-dichloroethenyl)-2,2-dimethylcyclopropanecarboxylate; 3-(2,2-Dichloroethenyl)-2,2-dimethylcyclopropane carboxylic acid, (3-phenoxyphenyl) methyl ester; Permethrin

$$$$
