
     RDKit          3D

 15 16  0  0  1  0  0  0  0  0999 V2000
   -1.1730    0.1107   -0.0032 C   0  0  0  0  0  0  0  0  0  0  0  0
    1.3907   -4.6605   -1.0896 C   0  0  0  0  0  0  0  0  0  0  0  0
    0.8702    0.6942   -0.0211 C   0  0  0  0  0  0  0  0  0  0  0  0
    2.5234   -3.6667   -0.7831 C   0  0  2  0  0  0  0  0  0  0  0  0
   -0.4589   -1.0570    0.0299 C   0  0  0  0  0  0  0  0  0  0  0  0
    2.9249   -3.6126    0.6930 C   0  0  2  0  0  0  0  0  0  0  0  0
    2.1583   -2.4157    1.2468 C   0  0  2  0  0  0  0  0  0  0  0  0
    2.0551   -1.5014    0.0276 C   0  0  2  0  0  0  0  0  0  0  0  0
   -0.8808   -2.3324    0.1211 N   0  0  0  0  0  0  0  0  0  0  0  0
   -0.3428    1.1982   -0.0316 N   0  0  0  0  0  0  0  0  0  0  0  0
    0.8604   -0.6791   -0.0137 N   0  0  0  0  0  0  0  0  0  0  0  0
    0.2962   -4.5606   -0.1868 O   0  0  0  0  0  0  0  0  0  0  0  0
    4.3363   -3.3998    0.8358 O   0  0  0  0  0  0  0  0  0  0  0  0
    2.8123   -1.8008    2.3559 O   0  0  0  0  0  0  0  0  0  0  0  0
    2.1196   -2.3286   -1.1538 O   0  0  0  0  0  0  0  0  0  0  0  0
  4  2  1  1
  5  1  2  0
  6  4  1  0
  6 13  1  6
  7  6  1  0
  7 14  1  1
  8  7  1  0
  8 11  1  1
  9  5  1  0
 10  1  1  0
 10  3  2  0
 11  3  1  0
 11  5  1  0
 12  2  1  0
 15  4  1  0
 15  8  1  0
M  END
>  <DRUGBANK_ID>  (1) 
DB04568

>  <SECONDARY_ACCESSION_NUMBERS>  (1) 
EXPT00477

>  <COMMON_NAME>  (1) 
5-Aminoimidazole Ribonucleoside

$$$$
