465
     RDKit          3D

 19 21  0  0  1  0  0  0  0  0999 V2000
    0.9069    0.0327    0.0412 O   0  0  0  0  0  0  0  0  0  0  0  0
    1.0338   -1.9597   -0.9360 O   0  0  0  0  0  0  0  0  0  0  0  0
   -4.6237   -4.3722    3.0923 O   0  0  0  0  0  0  0  0  0  0  0  0
   -2.7448   -1.9995    1.0598 N   0  0  0  0  0  0  0  0  0  0  0  0
   -1.1891   -1.0447   -0.4449 C   0  0  0  0  0  0  0  0  0  0  0  0
   -1.7845    0.0567    0.4722 C   0  0  0  0  0  0  0  0  0  0  0  0
   -2.9637   -0.5754    1.2107 C   0  0  0  0  0  0  0  0  0  0  0  0
   -1.7671   -2.2835    0.1483 C   0  0  0  0  0  0  0  0  0  0  0  0
   -3.2698   -3.1280    1.6129 C   0  0  0  0  0  0  0  0  0  0  0  0
   -1.6378   -3.6429    0.0683 C   0  0  0  0  0  0  0  0  0  0  0  0
   -2.5756   -4.1746    0.9968 C   0  0  0  0  0  0  0  0  0  0  0  0
    0.3276   -1.0756   -0.4652 C   0  0  0  0  0  0  0  0  0  0  0  0
   -4.2930   -3.2770    2.6367 C   0  0  0  0  0  0  0  0  0  0  0  0
   -5.0055   -2.1073    3.1986 C   0  0  0  0  0  0  0  0  0  0  0  0
   -5.7439   -1.2556    2.3711 C   0  0  0  0  0  0  0  0  0  0  0  0
   -5.0403   -1.9364    4.5870 C   0  0  0  0  0  0  0  0  0  0  0  0
   -6.4728   -0.2032    2.9245 C   0  0  0  0  0  0  0  0  0  0  0  0
   -5.8405   -0.9356    5.1405 C   0  0  0  0  0  0  0  0  0  0  0  0
   -6.5308   -0.0521    4.3093 C   0  0  0  0  0  0  0  0  0  0  0  0
  1 12  1  0
  2 12  2  0
  3 13  2  0
  4  7  1  0
  4  8  1  0
  4  9  1  0
  5  6  1  0
  5  8  1  0
  5 12  1  0
  6  7  1  0
  8 10  2  0
  9 11  2  0
  9 13  1  0
 10 11  1  0
 13 14  1  0
 14 15  2  0
 14 16  1  0
 15 17  1  0
 16 18  2  0
 17 19  2  0
 18 19  1  0
M  END
>  <DRUGBANK_ID>  (1) 
DB00465

>  <SECONDARY_ACCESSION_NUMBERS>  (1) 
APRD01060

>  <COMMON_NAME>  (1) 
Ketorolac

>  <CAS_NUMBER>  (1) 
74103-06-3

>  <UNII>  (1) 
YZI5105V0L

>  <SYNONYMS>  (1) 
Ketorolac; KÃ©torolac; Ketorolaco; Ketorolacum; rac-Ketorolac

$$$$
