COL
     RDKit          3D

 18 19  0  0  0  0  0  0  0  0999 V2000
   -2.2500    1.2324    0.4788 S   0  0  0  0  0  0  0  0  0  0  0  0
   -0.5756    1.7547   -0.0504 C   0  0  0  0  0  0  0  0  0  0  0  0
    0.4399    0.6249   -0.0140 C   0  0  0  0  0  0  0  0  0  0  0  0
    0.1810   -0.7319    0.0198 C   0  0  0  0  0  0  0  0  0  0  0  0
   -1.2279   -1.2748    0.0738 C   0  0  0  0  0  0  0  0  0  0  0  0
   -2.3096   -0.3349   -0.4267 C   0  0  0  0  0  0  0  0  0  0  0  0
    2.1233    0.8994   -0.0491 S   0  0  0  0  0  0  0  0  0  0  0  0
    2.5415   -0.7754    0.0229 C   0  0  0  0  0  0  0  0  0  0  0  0
    1.3918   -1.5776    0.0669 C   0  0  0  0  0  0  0  0  0  0  0  0
    1.2467   -3.0549    0.1609 C   0  0  0  0  0  0  0  0  0  0  0  0
    2.3419   -3.8385    0.1692 O   0  0  0  0  0  0  0  0  0  0  0  0
    0.1559   -3.6154    0.2331 O   0  0  0  0  0  0  0  0  0  0  0  0
    3.9000   -1.1285    0.0352 N   0  0  0  0  0  0  0  0  0  0  0  0
    5.0165   -0.3031   -0.0065 C   0  0  0  0  0  0  0  0  0  0  0  0
    6.3436   -1.1179    0.0241 C   0  0  0  0  0  0  0  0  0  0  0  0
    7.4403   -0.3444   -0.0171 O   0  0  0  0  0  0  0  0  0  0  0  0
    6.3352   -2.3363    0.0780 O   0  0  0  0  0  0  0  0  0  0  0  0
    5.1181    0.9121   -0.0632 O   0  0  0  0  0  0  0  0  0  0  0  0
  1  2  1  0
  1  6  1  0
  2  3  1  0
  3  4  2  0
  3  7  1  0
  4  5  1  0
  4  9  1  0
  5  6  1  0
  7  8  1  0
  8  9  2  0
  8 13  1  0
  9 10  1  0
 10 11  1  0
 10 12  2  0
 13 14  1  0
 14 15  1  0
 14 18  2  0
 15 16  1  0
 15 17  2  0
M  END
>  <DRUGBANK_ID>  (1) 
DB02072

>  <SECONDARY_ACCESSION_NUMBERS>  (1) 
EXPT00987

>  <COMMON_NAME>  (1) 
2-(Oxalyl-Amino)-4,7-Dihydro-5h-Thieno[2,3-C]Thiopyran-3-Carboxylic Acid

$$$$
