057
     RDKit          3D

 27 30  0  0  0  0  0  0  0  0999 V2000
    1.0937   -0.0967   -0.1199 O   0  0  0  0  0  0  0  0  0  0  0  0
    2.3020    0.0273    0.0044 C   0  0  0  0  0  0  0  0  0  0  0  0
    3.1265   -0.2540   -1.0859 N   0  0  0  0  0  0  0  0  0  0  0  0
    4.6053   -0.3761   -1.3179 C   0  0  0  0  0  0  0  0  0  0  0  0
    4.9748   -1.8057   -1.7538 C   0  0  0  0  0  0  0  0  0  0  0  0
    5.0001    0.6061   -2.4430 C   0  0  0  0  0  0  0  0  0  0  0  0
    5.5045   -0.1321   -0.0961 C   0  0  0  0  0  0  0  0  0  0  0  0
    5.9190    1.2130    0.0109 O   0  0  0  0  0  0  0  0  0  0  0  0
    2.8464    0.4535    1.3320 C   0  0  0  0  0  0  0  0  0  0  0  0
    2.5799   -0.3056    2.4707 C   0  0  0  0  0  0  0  0  0  0  0  0
    3.2829   -0.0579    3.6617 C   0  0  0  0  0  0  0  0  0  0  0  0
    4.3454    0.8716    3.6308 C   0  0  0  0  0  0  0  0  0  0  0  0
    5.2675    1.2359    4.5921 N   0  0  0  0  0  0  0  0  0  0  0  0
    5.1678    0.8966    5.9926 C   0  0  0  0  0  0  0  0  0  0  0  0
    6.2461    2.0239    4.0508 C   0  0  0  0  0  0  0  0  0  0  0  0
    3.6873    1.5761    1.4286 C   0  0  0  0  0  0  0  0  0  0  0  0
    4.6038    1.6794    2.5146 C   0  0  0  0  0  0  0  0  0  0  0  0
    5.8955    2.3043    2.7494 C   0  0  0  0  0  0  0  0  0  0  0  0
    6.8256    3.0766    1.8503 C   0  0  0  0  0  0  0  0  0  0  0  0
    6.4740    4.1204    1.0348 N   0  0  0  0  0  0  0  0  0  0  0  0
    8.1823    2.8421    1.6373 C   0  0  0  0  0  0  0  0  0  0  0  0
    8.6617    3.8033    0.6940 C   0  0  0  0  0  0  0  0  0  0  0  0
    9.8895    4.0978    0.0655 C   0  0  0  0  0  0  0  0  0  0  0  0
    9.9335    5.1972   -0.7966 C   0  0  0  0  0  0  0  0  0  0  0  0
    7.5745    4.6093    0.3759 C   0  0  0  0  0  0  0  0  0  0  0  0
    7.5651    5.6814   -0.4419 N   0  0  0  0  0  0  0  0  0  0  0  0
    8.7757    5.9382   -0.9941 C   0  0  0  0  0  0  0  0  0  0  0  0
  1  2  2  0
  2  3  1  0
  2  9  1  0
  3  4  1  0
  4  5  1  0
  4  6  1  0
  4  7  1  0
  7  8  1  0
  9 10  2  0
  9 16  1  0
 10 11  1  0
 11 12  2  0
 12 13  1  0
 12 17  1  0
 13 14  1  0
 13 15  1  0
 15 18  2  0
 16 17  2  0
 17 18  1  0
 18 19  1  0
 19 20  1  0
 19 21  2  0
 20 25  1  0
 21 22  1  0
 22 23  1  0
 22 25  2  0
 23 24  2  0
 24 27  1  0
 25 26  1  0
 26 27  2  0
M  END
>  <DRUGBANK_ID>  (1) 
DB06834

>  <COMMON_NAME>  (1) 
N-(2-hydroxy-1,1-dimethylethyl)-1-methyl-3-(1H-pyrrolo[2,3-b]pyridin-2-yl)-1H-indole-5-carboxamide

$$$$
