
     RDKit          3D

 33 36  0  0  1  0  0  0  0  0999 V2000
   -7.1350   -0.8780   -7.7067 C   0  0  0  0  0  0  0  0  0  0  0  0
   -8.1808   -1.7660   -8.1246 C   0  0  0  0  0  0  0  0  0  0  0  0
   -8.9949   -2.4251   -7.2308 C   0  0  0  0  0  0  0  0  0  0  0  0
   -8.7883   -2.1971   -5.8841 C   0  0  0  0  0  0  0  0  0  0  0  0
   -7.8087   -1.2961   -5.4168 C   0  0  0  0  0  0  0  0  0  0  0  0
   -6.9792   -0.6026   -6.2976 C   0  0  0  0  0  0  0  0  0  0  0  0
   -5.9127    0.3698   -5.6434 C   0  0  0  0  0  0  0  0  0  0  0  0
   -7.4047   -1.2442   -4.0102 C   0  0  0  0  0  0  0  0  0  0  0  0
   -6.8525    0.0397   -3.4291 C   0  0  0  0  0  0  0  0  0  0  0  0
   -6.2858    1.1379   -4.2207 C   0  0  1  0  0  0  0  0  0  0  0  0
   -5.0583    2.0273   -3.0728 C   0  0  0  0  0  0  0  0  0  0  0  0
   -6.4904    0.0477   -2.1474 C   0  0  0  0  0  0  0  0  0  0  0  0
   -5.6145    1.0730   -1.4005 C   0  0  1  0  0  0  0  0  0  0  0  0
   -5.1323    2.6695   -1.1916 C   0  0  1  0  0  0  0  0  0  0  0  0
   -5.2877    3.1020    0.9478 C   0  0  1  0  0  0  0  0  0  0  0  0
   -6.7458    1.2715   -0.5085 C   0  0  0  0  0  0  0  0  0  0  0  0
   -6.2059    1.1857    0.8254 C   0  0  0  0  0  0  0  0  0  0  0  0
   -6.5560    2.4081    1.2031 C   0  0  0  0  0  0  0  0  0  0  0  0
   -6.3129   -0.2984   -8.7085 N   0  0  0  0  0  0  0  0  0  0  0  0
   -4.8239    2.9261    2.7802 N   0  0  0  0  0  0  0  0  0  0  0  0
   -4.3875    0.3691   -1.3797 O   0  0  0  0  0  0  0  0  0  0  0  0
   -6.4920   -0.8443  -10.0585 C   0  0  0  0  0  0  0  0  0  0  0  0
   -4.9103   -0.0953   -8.3431 C   0  0  0  0  0  0  0  0  0  0  0  0
   -4.7495    4.0861    3.8965 C   0  0  0  0  0  0  0  0  0  0  0  0
   -4.4413    1.7822    3.7789 C   0  0  0  0  0  0  0  0  0  0  0  0
   -7.7169    3.1722    1.0126 O   0  0  0  0  0  0  0  0  0  0  0  0
   -9.5246   -2.9731   -5.0408 O   0  0  0  0  0  0  0  0  0  0  0  0
   -7.3231   -2.3142   -3.4097 O   0  0  0  0  0  0  0  0  0  0  0  0
   -6.8943   -0.9767   -1.2987 O   0  0  0  0  0  0  0  0  0  0  0  0
   -7.8497    1.6970   -0.8646 O   0  0  0  0  0  0  0  0  0  0  0  0
   -4.5967    0.8928    0.9873 C   0  0  0  0  0  0  0  0  0  0  0  0
   -3.5983    1.4730    0.5557 O   0  0  0  0  0  0  0  0  0  0  0  0
   -4.5064   -0.0779    1.8942 N   0  0  0  0  0  0  0  0  0  0  0  0
  1  2  2  0
  1  6  1  0
  1 19  1  0
  2  3  1  0
  3  4  2  0
  4  5  1  0
  4 27  1  0
  5  8  1  0
  6  5  2  0
  7  6  1  0
 10  7  1  6
  8  9  1  0
  8 28  2  0
  9 12  2  0
 10  9  1  0
 11 10  1  0
 14 11  1  1
 12 13  1  0
 12 29  1  0
 13 16  1  0
 13 21  1  1
 14 13  1  0
 15 14  1  0
 15 18  1  0
 15 20  1  1
 16 17  1  0
 16 30  2  0
 17 18  2  0
 17 31  1  0
 18 26  1  0
 19 22  1  0
 19 23  1  0
 20 24  1  0
 20 25  1  0
 31 32  2  0
 31 33  1  0
M  END
>  <DRUGBANK_ID>  (1) 
DB01017

>  <SECONDARY_ACCESSION_NUMBERS>  (1) 
APRD00547

>  <COMMON_NAME>  (1) 
Minocycline

>  <CAS_NUMBER>  (1) 
10118-90-8

>  <UNII>  (1) 
FYY3R43WGO

>  <SYNONYMS>  (1) 
(4S,4aS,5aR,12aS)-4,7-bis(dimethylamino)-3,10,12,12a-tetrahydroxy-1,11-dioxo-1,4,4a,5,5a,6,11,12a-octahydrotetracene-2-carboxamide; 7-Dimethylamino-6-demethyl-6-deoxytetracycline; Minociclina; Minociclinum; Minocyclin; Minocycline; Minocyclinum; Minomycin

$$$$
