
     RDKit          3D

  9  9  0  0  0  0  0  0  0  0999 V2000
    1.0632    0.0033    0.0931 N   0  0  0  0  0  0  0  0  0  0  0  0
    0.5746    0.4149   -1.2422 C   0  0  0  0  0  0  0  0  0  0  0  0
    1.0044   -0.5375   -2.3224 C   0  0  0  0  0  0  0  0  0  0  0  0
    1.6308   -0.0665   -3.4889 C   0  0  0  0  0  0  0  0  0  0  0  0
    1.9468   -0.9516   -4.5254 C   0  0  0  0  0  0  0  0  0  0  0  0
    1.6519   -2.3016   -4.3918 C   0  0  0  0  0  0  0  0  0  0  0  0
    1.9337   -3.1442   -5.3940 F   0  0  0  0  0  0  0  0  0  0  0  0
    1.0547   -2.7912   -3.2404 C   0  0  0  0  0  0  0  0  0  0  0  0
    0.7222   -1.9113   -2.2098 C   0  0  0  0  0  0  0  0  0  0  0  0
  1  2  1  0
  2  3  1  0
  3  4  2  0
  3  9  1  0
  4  5  1  0
  5  6  2  0
  6  7  1  0
  6  8  1  0
  8  9  2  0
M  CHG  1   1   1
M  END
>  <DRUGBANK_ID>  (1) 
DB03243

>  <SECONDARY_ACCESSION_NUMBERS>  (1) 
EXPT01394

>  <COMMON_NAME>  (1) 
4-Fluorobenzylamine

$$$$
