
     RDKit          3D

 29 31  0  0  1  0  0  0  0  0999 V2000
    0.1482    0.6730   -0.5135 C   0  0  0  0  0  0  0  0  0  0  0  0
   -0.0386    0.4239   -1.9591 C   0  0  0  0  0  0  0  0  0  0  0  0
    0.7216   -0.8284   -2.4708 C   0  0  0  0  0  0  0  0  0  0  0  0
    0.3112   -2.4906   -1.6947 S   0  0  0  0  0  0  0  0  0  0  0  0
    1.0922   -2.7571   -0.0684 C   0  0  0  0  0  0  0  0  0  0  0  0
    1.8346   -1.8921    0.7387 C   0  0  0  0  0  0  0  0  0  0  0  0
    2.2956   -2.4735    1.9288 C   0  0  0  0  0  0  0  0  0  0  0  0
    1.7856   -3.5596    2.5274 C   0  0  0  0  0  0  0  0  0  0  0  0
    1.2495   -4.4226    1.6499 C   0  0  0  0  0  0  0  0  0  0  0  0
    0.8981   -4.0655    0.3771 N   0  0  0  0  0  0  0  0  0  0  0  0
    1.3065   -5.7027    2.1221 N   0  0  0  0  0  0  0  0  0  0  0  0
    2.2454   -6.6421    1.5686 C   0  0  0  0  0  0  0  0  0  0  0  0
    1.3589   -7.7762    1.1144 C   0  0  0  0  0  0  0  0  0  0  0  0
    0.4832   -8.2588    2.2813 C   0  0  0  0  0  0  0  0  0  0  0  0
   -0.2939   -7.1328    3.0136 C   0  0  1  0  0  0  0  0  0  0  0  0
   -1.0018   -7.6129    4.2746 C   0  0  0  0  0  0  0  0  0  0  0  0
   -1.6199   -8.9644    4.0449 C   0  0  0  0  0  0  0  0  0  0  0  0
   -1.0972   -9.9465    4.8104 O   0  0  0  0  0  0  0  0  0  0  0  0
   -2.4705   -9.1809    3.1960 O   0  0  0  0  0  0  0  0  0  0  0  0
    0.6651   -6.0149    3.3744 C   0  0  0  0  0  0  0  0  0  0  0  0
    2.3937   -0.5321    0.3838 C   0  0  0  0  0  0  0  0  0  0  0  0
    2.9715   -0.5069   -0.7323 O   0  0  0  0  0  0  0  0  0  0  0  0
    2.2059    0.7356    1.0993 N   0  0  0  0  0  0  0  0  0  0  0  0
    2.2593    1.0049    2.5325 C   0  0  0  0  0  0  0  0  0  0  0  0
    1.6513   -0.1801    3.1328 C   0  0  0  0  0  0  0  0  0  0  0  0
    1.9423   -0.5691    4.5240 C   0  0  0  0  0  0  0  0  0  0  0  0
    1.3746    0.5435    5.3291 C   0  0  0  0  0  0  0  0  0  0  0  0
    1.8647    1.9035    4.7710 C   0  0  0  0  0  0  0  0  0  0  0  0
    1.5698    2.1409    3.2492 C   0  0  0  0  0  0  0  0  0  0  0  0
  1  2  1  0
  2  3  1  0
  3  4  1  0
  4  5  1  0
  5  6  2  0
  5 10  1  0
  6  7  1  0
  6 21  1  0
  7  8  2  0
  8  9  1  0
  9 10  2  0
  9 11  1  0
 11 12  1  0
 11 20  1  0
 12 13  1  0
 13 14  1  0
 15 14  1  0
 15 20  1  0
 15 16  1  1
 16 17  1  0
 17 18  1  0
 17 19  2  0
 21 22  2  0
 21 23  1  0
 23 24  1  0
 24 25  1  0
 24 29  1  0
 25 26  1  0
 26 27  1  0
 27 28  1  0
 28 29  1  0
M  END
>  <DRUGBANK_ID>  (1) 
DB14875

>  <COMMON_NAME>  (1) 
AZD-4017

>  <CAS_NUMBER>  (1) 
1024033-43-9

>  <UNII>  (1) 
3JL137394Y

$$$$
