
     RDKit          3D

 22 21  0  0  1  0  0  0  0  0999 V2000
    7.1472    2.4581   -4.6862 C   0  0  0  0  0  0  0  0  0  0  0  0
    5.9337    1.7523   -5.2696 C   0  0  0  0  0  0  0  0  0  0  0  0
    4.9712    2.7109   -5.7898 N   0  0  0  0  0  0  0  0  0  0  0  0
    3.6606    2.1407   -6.1058 C   0  0  0  0  0  0  0  0  0  0  0  0
    2.9477    1.2778   -5.0331 C   0  0  0  0  0  0  0  0  0  0  0  0
    2.4739    1.9642   -3.7286 C   0  0  2  0  0  0  0  0  0  0  0  0
    1.0392    2.0101   -3.7349 O   0  0  0  0  0  0  0  0  0  0  0  0
    3.0111    3.3829   -3.5814 C   0  0  0  0  0  0  0  0  0  0  0  0
    2.5295    4.1885   -2.4618 N   0  0  0  0  0  0  0  0  0  0  0  0
    3.0371    5.5571   -2.6330 C   0  0  0  0  0  0  0  0  0  0  0  0
    2.5300    6.2866   -3.8958 C   0  0  0  0  0  0  0  0  0  0  0  0
    0.9991    6.3590   -3.9815 C   0  0  0  0  0  0  0  0  0  0  0  0
    0.3931    7.0679   -2.7776 C   0  0  0  0  0  0  0  0  0  0  0  0
    0.9072    8.4330   -2.6993 N   0  0  0  0  0  0  0  0  0  0  0  0
    0.4876    9.1185   -1.4814 C   0  0  0  0  0  0  0  0  0  0  0  0
    1.0537    8.4951   -0.1841 C   0  0  1  0  0  0  0  0  0  0  0  0
    2.4793    8.6029   -0.1772 O   0  0  0  0  0  0  0  0  0  0  0  0
    0.5038    9.1772    1.0654 C   0  0  0  0  0  0  0  0  0  0  0  0
   -1.0252    9.1755    1.1298 C   0  0  0  0  0  0  0  0  0  0  0  0
   -1.5850    7.8233    1.0591 N   0  0  0  0  0  0  0  0  0  0  0  0
   -3.0465    7.8189    1.0157 C   0  0  0  0  0  0  0  0  0  0  0  0
   -3.6083    8.4344   -0.2603 C   0  0  0  0  0  0  0  0  0  0  0  0
  1  2  1  0
  2  3  1  0
  3  4  1  0
  4  5  1  0
  6  8  1  0
  6  7  1  6
  6  5  1  0
  8  9  1  0
  9 10  1  0
 10 11  1  0
 11 12  1  0
 12 13  1  0
 13 14  1  0
 14 15  1  0
 16 15  1  0
 16 17  1  6
 16 18  1  0
 18 19  1  0
 19 20  1  0
 20 21  1  0
 21 22  1  0
M  END
>  <DRUGBANK_ID>  (1) 
DB17988

>  <COMMON_NAME>  (1) 
Ivospemin

>  <CAS_NUMBER>  (1) 
748119-79-1

>  <UNII>  (1) 
775S1NC70I

>  <SYNONYMS>  (1) 
(6S,15S)-3,8,13,18-Tetraazaeicosane-6,15-diol; (6S,15S)-3,8,13,18-Tetraazaicosane-6,15-diol; 3,8,13,18-tetraazaeicosane-6,15-diol, (6s,15s)-

$$$$
