1501
     RDKit          3D

 32 35  0  0  0  0  0  0  0  0999 V2000
    0.7766    0.4782    0.4615 O   0  0  0  0  0  0  0  0  0  0  0  0
    0.8307    2.2635   -0.8536 O   0  0  0  0  0  0  0  0  0  0  0  0
   -2.6014    1.4351   -3.4381 N   0  0  0  0  0  0  0  0  0  0  0  0
   -0.2327   -0.1584   -1.6828 N   0  0  0  0  0  0  0  0  0  0  0  0
   -1.5901    1.2726   -0.4499 C   0  0  0  0  0  0  0  0  0  0  0  0
   -2.5022    0.0662   -1.1215 C   0  0  0  0  0  0  0  0  0  0  0  0
   -2.0174    2.5180   -1.2628 C   0  0  0  0  0  0  0  0  0  0  0  0
   -2.7113    0.1647   -2.6816 C   0  0  0  0  0  0  0  0  0  0  0  0
   -1.7585    2.4289   -2.7542 C   0  0  0  0  0  0  0  0  0  0  0  0
   -2.0226    1.2199   -4.8099 C   0  0  0  0  0  0  0  0  0  0  0  0
   -2.0132    1.2179    0.9874 C   0  0  0  0  0  0  0  0  0  0  0  0
   -0.4533    1.0327   -5.0511 C   0  0  0  0  0  0  0  0  0  0  0  0
    0.1456    1.4761   -0.2682 C   0  0  0  0  0  0  0  0  0  0  0  0
    0.3087   -0.2039   -4.4102 C   0  0  0  0  0  0  0  0  0  0  0  0
   -1.6251    0.1302    1.7958 C   0  0  0  0  0  0  0  0  0  0  0  0
   -2.7242    2.2820    1.5074 C   0  0  0  0  0  0  0  0  0  0  0  0
   -0.3170   -1.5402   -4.9884 C   0  0  0  0  0  0  0  0  0  0  0  0
    1.8592   -0.1485   -4.6597 C   0  0  0  0  0  0  0  0  0  0  0  0
   -1.9152    0.1526    3.1424 C   0  0  0  0  0  0  0  0  0  0  0  0
   -2.9862    2.3150    2.8519 C   0  0  0  0  0  0  0  0  0  0  0  0
    0.0128   -0.1790   -2.9195 C   0  0  0  0  0  0  0  0  0  0  0  0
   -2.6001    1.2483    3.6622 C   0  0  0  0  0  0  0  0  0  0  0  0
    0.1424   -2.7844   -4.5178 C   0  0  0  0  0  0  0  0  0  0  0  0
    2.5566    1.0662   -4.6433 C   0  0  0  0  0  0  0  0  0  0  0  0
   -1.3411   -1.6012   -5.9503 C   0  0  0  0  0  0  0  0  0  0  0  0
    2.6684   -1.3004   -4.8229 C   0  0  0  0  0  0  0  0  0  0  0  0
   -0.2266   -3.9805   -5.1273 C   0  0  0  0  0  0  0  0  0  0  0  0
    3.9559    1.1043   -4.7316 C   0  0  0  0  0  0  0  0  0  0  0  0
   -1.9371   -2.8101   -6.3113 C   0  0  0  0  0  0  0  0  0  0  0  0
    4.0583   -1.2810   -4.7613 C   0  0  0  0  0  0  0  0  0  0  0  0
   -1.3143   -4.0005   -5.9817 C   0  0  0  0  0  0  0  0  0  0  0  0
    4.7068   -0.0669   -4.7533 C   0  0  0  0  0  0  0  0  0  0  0  0
  1 13  1  0
  2 13  2  0
  3  8  1  0
  3  9  1  0
  3 10  1  0
  4 21  3  0
  5  6  1  0
  5  7  1  0
  5 11  1  0
  5 13  1  0
  6  8  1  0
  7  9  1  0
 10 12  1  0
 11 15  2  0
 11 16  1  0
 12 14  1  0
 14 17  1  0
 14 18  1  0
 14 21  1  0
 15 19  1  0
 16 20  2  0
 17 23  2  0
 17 25  1  0
 18 24  2  0
 18 26  1  0
 19 22  2  0
 20 22  1  0
 23 27  1  0
 24 28  1  0
 25 29  2  0
 26 30  2  0
 27 31  2  0
 28 32  2  0
 29 31  1  0
 30 32  1  0
M  END
>  <DRUGBANK_ID>  (1) 
DB01501

>  <COMMON_NAME>  (1) 
Difenoxin

>  <CAS_NUMBER>  (1) 
28782-42-5

>  <UNII>  (1) 
3ZZ5BJ9F2Q

>  <SYNONYMS>  (1) 
1-(3-cyano-3,3-diphenylpropyl)-4-phenylisonipecotic acid; Difenoxin; Difenoxina; Difenoxinum; Diphenoxilic acid; Diphenoxylic acid

$$$$
