
     RDKit          3D

 16 18  0  0  0  0  0  0  0  0999 V2000
    1.4308   -0.6270   -0.1758 C   0  0  0  0  0  0  0  0  0  0  0  0
    1.4525    0.7162   -0.0209 N   0  0  0  0  0  0  0  0  0  0  0  0
   -0.9295    0.7509   -0.1659 C   0  0  0  0  0  0  0  0  0  0  0  0
    0.3789   -1.3604   -0.2958 N   0  0  0  0  0  0  0  0  0  0  0  0
   -0.8535   -0.6637   -0.1510 C   0  0  0  0  0  0  0  0  0  0  0  0
    0.3395    1.5351   -0.3834 C   0  0  0  0  0  0  0  0  0  0  0  0
   -2.1706    1.3972   -0.0057 C   0  0  0  0  0  0  0  0  0  0  0  0
   -3.3281    0.6411    0.2150 C   0  0  0  0  0  0  0  0  0  0  0  0
   -2.0234   -1.3978    0.0713 C   0  0  0  0  0  0  0  0  0  0  0  0
   -3.2519   -0.7521    0.2570 C   0  0  0  0  0  0  0  0  0  0  0  0
   -2.2532    3.1313   -0.0820 Cl  0  0  0  0  0  0  0  0  0  0  0  0
   -4.8795    1.3702    0.4500 Cl  0  0  0  0  0  0  0  0  0  0  0  0
    2.7665    1.1992    0.3228 C   0  0  0  0  0  0  0  0  0  0  0  0
    2.6936   -1.1017   -0.1291 N   0  0  0  0  0  0  0  0  0  0  0  0
    3.5387   -0.1252    0.3423 C   0  0  0  0  0  0  0  0  0  0  0  0
    4.6752   -0.2907    0.7650 O   0  0  0  0  0  0  0  0  0  0  0  0
  1 14  1  0
  2  1  1  0
  3  5  2  0
  4  1  2  0
  5  4  1  0
  6  2  1  0
  6  3  1  0
  7  3  1  0
  8 10  1  0
  8  7  2  0
  9  5  1  0
 10  9  2  0
 11  7  1  0
 12  8  1  0
 13  2  1  0
 13 15  1  0
 14 15  1  0
 15 16  2  0
M  END
>  <DRUGBANK_ID>  (1) 
DB00261

>  <SECONDARY_ACCESSION_NUMBERS>  (1) 
APRD00798

>  <COMMON_NAME>  (1) 
Anagrelide

>  <CAS_NUMBER>  (1) 
68475-42-3

>  <UNII>  (1) 
K9X45X0051

>  <SYNONYMS>  (1) 
Anagrelida; Anagrelide; Anagrelidum

$$$$
