
     RDKit          3D

 14 13  0  0  1  0  0  0  0  0999 V2000
    1.1867    0.3038   -0.0242 C   0  0  0  0  0  0  0  0  0  0  0  0
    1.1474   -0.2434   -2.6075 C   0  0  0  0  0  0  0  0  0  0  0  0
   -2.3069   -3.3218   -1.9922 C   0  0  0  0  0  0  0  0  0  0  0  0
    0.5720    0.5772   -1.4268 C   0  0  0  0  0  0  0  0  0  0  0  0
   -3.3769   -2.5934   -2.8624 C   0  0  1  0  0  0  0  0  0  0  0  0
   -2.9953   -1.1709   -3.3927 C   0  0  0  0  0  0  0  0  0  0  0  0
   -3.5947   -3.4260   -4.0657 N   0  0  0  0  0  0  0  0  0  0  0  0
   -2.3787   -0.9370   -4.4096 O   0  0  0  0  0  0  0  0  0  0  0  0
   -3.2595   -0.1882   -2.5033 O   0  0  0  0  0  0  0  0  0  0  0  0
   -0.0217   -1.8080   -0.7729 O   0  0  0  0  0  0  0  0  0  0  0  0
   -2.0320   -0.6103    0.2444 O   0  0  0  0  0  0  0  0  0  0  0  0
   -2.0279   -2.6905   -0.7370 O   0  0  0  0  0  0  0  0  0  0  0  0
   -0.8746    0.4982   -1.4254 O   0  0  0  0  0  0  0  0  0  0  0  0
   -1.4512   -1.0962   -1.0812 P   0  0  2  0  0  0  0  0  0  0  0  0
  4  1  1  0
  4  2  1  0
  5  3  1  0
  5  7  1  6
  6  5  1  0
  8  6  2  0
  9  6  1  0
 12  3  1  0
 13  4  1  0
 14 10  1  1
 14 11  2  0
 14 12  1  0
 14 13  1  0
M  END
>  <DRUGBANK_ID>  (1) 
DB01805

>  <SECONDARY_ACCESSION_NUMBERS>  (1) 
EXPT02178

>  <COMMON_NAME>  (1) 
Monoisopropylphosphorylserine

$$$$
