
     RDKit          3D

 10  9  0  0  1  0  0  0  0  0999 V2000
    0.7601   -5.5169    0.8654 C   0  0  0  0  0  0  0  0  0  0  0  0
    2.5682   -5.4016    0.6362 S   0  0  0  0  0  0  0  0  0  0  0  0
    2.9930   -3.5985    0.6734 C   0  0  0  0  0  0  0  0  0  0  0  0
    2.4686   -2.6915   -0.4332 C   0  0  0  0  0  0  0  0  0  0  0  0
    0.9538   -2.7596   -0.6636 C   0  0  2  0  0  0  0  0  0  0  0  0
    0.1433   -2.6648    0.5632 N   0  0  0  0  0  0  0  0  0  0  0  0
    0.3438   -3.8215   -2.0235 P   0  0  0  0  0  0  0  0  0  0  0  0
    0.5501   -2.4961   -2.9830 O   0  0  0  0  0  0  0  0  0  0  0  0
    1.8468   -4.4647   -2.2018 O   0  0  0  0  0  0  0  0  0  0  0  0
   -0.1723   -4.7200   -3.1740 O   0  0  0  0  0  0  0  0  0  0  0  0
  1  2  1  0
  2  3  1  0
  3  4  1  0
  5  7  1  0
  5  6  1  1
  5  4  1  0
  7  8  1  0
  7  9  1  0
  7 10  2  0
M  END
>  <DRUGBANK_ID>  (1) 
DB02151

>  <SECONDARY_ACCESSION_NUMBERS>  (1) 
EXPT02221

>  <COMMON_NAME>  (1) 
Methionine Phosphonate

$$$$
