601
     RDKit          3D

 24 26  0  0  1  0  0  0  0  0999 V2000
    2.1790   -0.0270   -0.0230 F   0  0  0  0  0  0  0  0  0  0  0  0
   -3.4524   -3.9900   -0.6124 O   0  0  0  0  0  0  0  0  0  0  0  0
    2.6062    4.5803    0.7164 O   0  0  0  0  0  0  0  0  0  0  0  0
   -3.1519   -2.2218   -2.0117 O   0  0  0  0  0  0  0  0  0  0  0  0
   -2.6387   -7.2808    4.1282 O   0  0  0  0  0  0  0  0  0  0  0  0
   -1.9756   -2.4140   -0.0037 N   0  0  0  0  0  0  0  0  0  0  0  0
    0.8472    2.4580    0.0159 N   0  0  0  0  0  0  0  0  0  0  0  0
   -2.3870   -6.1855    2.1889 N   0  0  0  0  0  0  0  0  0  0  0  0
   -3.0503   -4.3057    0.7295 C   0  0  2  0  0  0  0  0  0  0  0  0
   -1.8565   -3.4090    1.0102 C   0  0  0  0  0  0  0  0  0  0  0  0
    1.8508    2.9217   -0.9557 C   0  0  0  0  0  0  0  0  0  0  0  0
    0.4304    3.4759    0.9808 C   0  0  0  0  0  0  0  0  0  0  0  0
   -1.2504   -1.2126   -0.0143 C   0  0  0  0  0  0  0  0  0  0  0  0
   -2.7301   -5.7937    0.8325 C   0  0  0  0  0  0  0  0  0  0  0  0
    0.1762    1.2551   -0.0543 C   0  0  0  0  0  0  0  0  0  0  0  0
    3.0392    3.5569   -0.2034 C   0  0  0  0  0  0  0  0  0  0  0  0
    1.6859    4.0262    1.6725 C   0  0  0  0  0  0  0  0  0  0  0  0
   -2.8860   -2.7945   -0.9645 C   0  0  0  0  0  0  0  0  0  0  0  0
    0.1427   -1.2047    0.0145 C   0  0  0  0  0  0  0  0  0  0  0  0
   -1.9333    0.0027   -0.0494 C   0  0  0  0  0  0  0  0  0  0  0  0
    0.8360    0.0139   -0.0466 C   0  0  0  0  0  0  0  0  0  0  0  0
   -1.2266    1.2137   -0.0362 C   0  0  0  0  0  0  0  0  0  0  0  0
   -3.0435   -7.0781    2.9866 C   0  0  0  0  0  0  0  0  0  0  0  0
   -4.2488   -7.7761    2.4210 C   0  0  0  0  0  0  0  0  0  0  0  0
  1 21  1  0
  2  9  1  0
  2 18  1  0
  3 16  1  0
  3 17  1  0
  4 18  2  0
  5 23  2  0
  6 10  1  0
  6 13  1  0
  6 18  1  0
  7 11  1  0
  7 12  1  0
  7 15  1  0
  8 14  1  0
  8 23  1  0
  9 10  1  0
  9 14  1  6
 11 16  1  0
 12 17  1  0
 13 19  2  0
 13 20  1  0
 15 21  2  0
 15 22  1  0
 19 21  1  0
 20 22  2  0
 23 24  1  0
M  END
>  <DRUGBANK_ID>  (1) 
DB00601

>  <SECONDARY_ACCESSION_NUMBERS>  (1) 
APRD01073; DB08769

>  <COMMON_NAME>  (1) 
Linezolid

>  <CAS_NUMBER>  (1) 
165800-03-3

>  <UNII>  (1) 
ISQ9I6J12J

>  <SYNONYMS>  (1) 
Linezolid; Linezolide; Linezolidum; N-(((S)-3-(3-Fluoro-4-morpholinophenyl)-2-oxo-5-oxazolidinyl)methyl)acetamide

$$$$
