
     RDKit          3D

  8  7  0  0  1  0  0  0  0  0999 V2000
    1.0778    1.4547   -2.1953 C   0  0  0  0  0  0  0  0  0  0  0  0
    0.6067    1.3404   -0.7536 C   0  0  2  0  0  0  0  0  0  0  0  0
    1.1906    0.1637   -0.2090 O   0  0  0  0  0  0  0  0  0  0  0  0
   -0.9324    1.3341   -0.6616 C   0  0  0  0  0  0  0  0  0  0  0  0
   -1.5021    1.2831    0.7728 C   0  0  0  0  0  0  0  0  0  0  0  0
   -1.0076    2.4663    1.6099 C   0  0  0  0  0  0  0  0  0  0  0  0
   -3.0341    1.2857    0.7373 C   0  0  0  0  0  0  0  0  0  0  0  0
   -1.1143    0.0523    1.3787 O   0  0  0  0  0  0  0  0  0  0  0  0
  2  4  1  0
  2  3  1  0
  2  1  1  6
  4  5  1  0
  5  6  1  0
  5  7  1  0
  5  8  1  0
M  END
>  <DRUGBANK_ID>  (1) 
DB03564

>  <SECONDARY_ACCESSION_NUMBERS>  (1) 
EXPT02231

>  <COMMON_NAME>  (1) 
(4r)-2-Methylpentane-2,4-Diol

$$$$
