
     RDKit          3D

  1  0  0  0  0  0  0  0  0  0999 V2000
    1.0742    0.0076   -0.0666 Kr  0  0  0  0  0 15  0  0  0  0  0  0
M  ISO  1   1  81
M  END
>  <DRUGBANK_ID>  (1) 
DB09443

>  <COMMON_NAME>  (1) 
Krypton Kr 81m

>  <CAS_NUMBER>  (1) 
15678-91-8

>  <UNII>  (1) 
68QN45K12N

>  <SYNONYMS>  (1) 
Krypton (81M Kr); Krypton (81mKr); Krypton (81mKr) gas; Krypton Kr 81m; Krypton, isotope of mass 81; Krypton, Kr-81m

$$$$
