
     RDKit          3D

 20 20  0  0  0  0  0  0  0  0999 V2000
    0.3148   -1.3601    0.6444 C   0  0  0  0  0  0  0  0  0  0  0  0
    1.1601   -0.2250    0.5638 C   0  0  0  0  0  0  0  0  0  0  0  0
   -1.1364   -1.2437    0.4928 C   0  0  0  0  0  0  0  0  0  0  0  0
    0.6986   -2.6678    0.5325 O   0  0  0  0  0  0  0  0  0  0  0  0
    0.4129    0.9584    0.4394 C   0  0  0  0  0  0  0  0  0  0  0  0
    2.8700   -0.0205    0.2922 C   0  0  0  0  0  0  0  0  0  0  0  0
   -1.8111   -0.0105    0.3181 C   0  0  0  0  0  0  0  0  0  0  0  0
    1.9652   -2.8195   -0.0422 C   0  0  0  0  0  0  0  0  0  0  0  0
   -0.9922    1.1168    0.3383 C   0  0  0  0  0  0  0  0  0  0  0  0
   -3.2914    0.0116    0.0080 C   0  0  0  0  0  0  0  0  0  0  0  0
    2.2051   -2.1443   -1.4749 C   0  0  0  0  0  0  0  0  0  0  0  0
   -1.5588    2.4101    0.0549 O   0  0  0  0  0  0  0  0  0  0  0  0
    1.7919   -0.5853   -1.9428 N   0  0  0  0  0  0  0  0  0  0  0  0
   -1.1248    3.7611    0.0346 C   0  0  0  0  0  0  0  0  0  0  0  0
    0.3630    4.0549    0.0453 C   0  0  0  0  0  0  0  0  0  0  0  0
   -1.9061    4.6731    0.0018 O   0  0  0  0  0  0  0  0  0  0  0  0
    2.4675    0.5055   -2.7769 C   0  0  0  0  0  0  0  0  0  0  0  0
    0.3923   -0.4624   -2.2385 C   0  0  0  0  0  0  0  0  0  0  0  0
    3.3414   -0.4913    1.6647 C   0  0  0  0  0  0  0  0  0  0  0  0
    4.1598   -0.4701   -0.9145 C   0  0  0  0  0  0  0  0  0  0  0  0
  1  2  2  0
  1  3  1  0
  1  4  1  0
  2  5  1  0
  2  6  1  0
  3  7  2  0
  4  8  1  0
  5  9  2  0
  6 19  1  0
  6 20  1  0
  7 10  1  0
  7  9  1  0
  8 11  1  0
  9 12  1  0
 11 13  1  0
 12 14  1  0
 13 17  1  0
 13 18  1  0
 14 15  1  0
 14 16  2  0
M  END
>  <DRUGBANK_ID>  (1) 
DB09205

>  <COMMON_NAME>  (1) 
Moxisylyte

>  <CAS_NUMBER>  (1) 
54-32-0

>  <UNII>  (1) 
PW8QYA7KI0

>  <SYNONYMS>  (1) 
Moxisylyte; Thymoxamine

$$$$
