322
     RDKit          3D

 17 18  0  0  1  0  0  0  0  0999 V2000
    0.8840    0.0469    0.1894 F   0  0  0  0  0  0  0  0  0  0  0  0
    5.5453    2.4378   -1.7016 O   0  0  0  0  0  0  0  0  0  0  0  0
    6.7924    4.8897   -0.1715 O   0  0  0  0  0  0  0  0  0  0  0  0
    7.5157    0.6110   -2.2677 O   0  0  0  0  0  0  0  0  0  0  0  0
    6.2311   -0.1462   -0.2488 O   0  0  0  0  0  0  0  0  0  0  0  0
    2.3073   -2.3189   -0.0703 O   0  0  0  0  0  0  0  0  0  0  0  0
    4.3173    1.1642   -0.1144 N   0  0  0  0  0  0  0  0  0  0  0  0
    4.2697   -1.1768    0.0085 N   0  0  0  0  0  0  0  0  0  0  0  0
    7.1383    3.5065   -0.2817 C   0  0  1  0  0  0  0  0  0  0  0  0
    5.0375    2.4175   -0.3543 C   0  0  1  0  0  0  0  0  0  0  0  0
    6.2060    2.6940    0.5814 C   0  0  0  0  0  0  0  0  0  0  0  0
    6.8888    2.9736   -1.6952 C   0  0  1  0  0  0  0  0  0  0  0  0
    7.9595    1.9478   -2.1349 C   0  0  0  0  0  0  0  0  0  0  0  0
    5.0108   -0.0387   -0.1351 C   0  0  0  0  0  0  0  0  0  0  0  0
    2.9402    1.1812    0.0621 C   0  0  0  0  0  0  0  0  0  0  0  0
    2.2252    0.0537    0.0855 C   0  0  0  0  0  0  0  0  0  0  0  0
    2.9071   -1.2486   -0.0058 C   0  0  0  0  0  0  0  0  0  0  0  0
  1 16  1  0
  2 10  1  0
  2 12  1  0
  4 13  1  0
  5 14  2  0
  6 17  2  0
  7 14  1  0
  7 15  1  0
  8 14  1  0
  8 17  1  0
  9  3  1  6
  9 11  1  0
  9 12  1  0
 10  7  1  1
 10 11  1  0
 12 13  1  1
 15 16  2  0
 16 17  1  0
M  END
>  <DRUGBANK_ID>  (1) 
DB00322

>  <SECONDARY_ACCESSION_NUMBERS>  (1) 
APRD00692

>  <COMMON_NAME>  (1) 
Floxuridine

>  <CAS_NUMBER>  (1) 
50-91-9

>  <UNII>  (1) 
039LU44I5M

>  <SYNONYMS>  (1) 
1-(2-Deoxy-beta-D-ribofuranosyl)-5-fluorouracil; 1-beta-D-2'-Deoxyribofuranosyl-5-flurouracil; 1beta-D-2'-Deoxyribofuranosyl-5-flurouracil; 2'-Deoxy-5-fluorouridine; 5-Fluoro-2-desoxyuridine; 5-fluoro-2'-deoxyuridine; 5-Fluorodeoxyuridine; 5-Fluorouracil 2'-deoxyriboside; 5-Fluorouracil deoxyriboside; 5FDU; beta-5-Fluoro-2'-deoxyuridine; Deoxyfluorouridine; FdU; Floxiridina; Floxuridin; Floxuridine; Floxuridinum; Fluorodeoxyuridine; Fluoruridine deoxyribose

$$$$
