
     RDKit          3D

 30 32  0  0  0  0  0  0  0  0999 V2000
    2.4832    0.0100    0.0426 C   0  0  0  0  0  0  0  0  0  0  0  0
    1.0835    0.0312   -0.3534 N   0  0  0  0  0  0  0  0  0  0  0  0
    0.3965   -1.1675    0.1559 C   0  0  0  0  0  0  0  0  0  0  0  0
   -1.0723   -1.1228   -0.2996 C   0  0  0  0  0  0  0  0  0  0  0  0
   -1.7761    0.0849    0.2756 N   0  0  0  0  0  0  0  0  0  0  0  0
   -1.0724    1.3037   -0.2215 C   0  0  0  0  0  0  0  0  0  0  0  0
    0.4189    1.2476    0.1737 C   0  0  0  0  0  0  0  0  0  0  0  0
   -1.9917    0.2199    1.9880 S   0  0  0  0  0  0  0  0  0  0  0  0
   -0.7655    0.1557    2.6970 O   0  0  0  0  0  0  0  0  0  0  0  0
   -2.9384    1.3317    2.2003 O   0  0  0  0  0  0  0  0  0  0  0  0
   -2.8110   -1.2493    2.3708 C   0  0  0  0  0  0  0  0  0  0  0  0
   -2.0276   -2.4083    2.1713 C   0  0  0  0  0  0  0  0  0  0  0  0
   -2.6767   -3.5659    2.0030 C   0  0  0  0  0  0  0  0  0  0  0  0
   -4.0773   -3.4378    2.0727 C   0  0  0  0  0  0  0  0  0  0  0  0
   -4.7879   -2.4245    2.9311 C   0  0  0  0  0  0  0  0  0  0  0  0
   -4.1372   -1.2229    2.8473 C   0  0  0  0  0  0  0  0  0  0  0  0
   -5.9201   -2.5259    4.3420 C   0  0  0  0  0  0  0  0  0  0  0  0
   -6.3021   -1.4463    4.8306 O   0  0  0  0  0  0  0  0  0  0  0  0
   -6.3643   -3.8166    5.2175 N   0  0  0  0  0  0  0  0  0  0  0  0
   -5.9411   -5.3847    5.2926 N   0  0  0  0  0  0  0  0  0  0  0  0
   -4.7902   -5.7289    4.7658 C   0  0  0  0  0  0  0  0  0  0  0  0
   -4.2083   -4.7058    4.0696 C   0  0  0  0  0  0  0  0  0  0  0  0
   -4.0883   -6.9064    4.1709 C   0  0  0  0  0  0  0  0  0  0  0  0
   -4.8574   -7.8546    3.5338 C   0  0  0  0  0  0  0  0  0  0  0  0
   -6.2181   -7.7695    3.4809 O   0  0  0  0  0  0  0  0  0  0  0  0
   -4.2282   -8.8944    2.8556 C   0  0  0  0  0  0  0  0  0  0  0  0
   -2.8411   -8.8963    2.6427 C   0  0  0  0  0  0  0  0  0  0  0  0
   -2.0935   -7.7842    2.9807 C   0  0  0  0  0  0  0  0  0  0  0  0
   -0.4602   -7.6477    2.4434 Cl  0  0  0  0  0  0  0  0  0  0  0  0
   -2.6970   -6.7979    3.7568 C   0  0  0  0  0  0  0  0  0  0  0  0
  1  2  1  0
  2  3  1  0
  2  7  1  0
  3  4  1  0
  4  5  1  0
  5  6  1  0
  5  8  1  0
  6  7  1  0
  8  9  2  0
  8 10  2  0
  8 11  1  0
 11 12  2  0
 11 16  1  0
 12 13  1  0
 13 14  2  0
 14 15  1  0
 15 16  2  0
 15 17  1  0
 17 18  2  0
 17 19  1  0
 19 20  1  0
 20 21  2  0
 21 22  1  0
 21 23  1  0
 23 24  2  0
 23 30  1  0
 24 25  1  0
 24 26  1  0
 26 27  2  0
 27 28  1  0
 28 29  1  0
 28 30  2  0
M  END
>  <DRUGBANK_ID>  (1) 
DB17117

>  <COMMON_NAME>  (1) 
Seclidemstat

>  <CAS_NUMBER>  (1) 
1423715-37-0

>  <UNII>  (1) 
TYH386V3WJ

>  <SYNONYMS>  (1) 
Benzoic acid, 3-((4-methyl-1-piperazinyl)sulfonyl)-, (2e)-2-(1-(5-chloro-2-hydroxyphenyl)ethylidene)hydrazide; N'-[(1E)-1-(5-chloro-2-hydroxyphenyl)ethylidene]- 3-(4-methylpiperazine-1-sulfonyl)benzohydrazide

$$$$
