
     RDKit          3D

 21 22  0  0  1  0  0  0  0  0999 V2000
    0.5350    1.3707    0.4093 C   0  0  2  0  0  0  0  0  0  0  0  0
    0.7580    2.7535    0.0112 N   0  0  0  0  0  0  0  0  0  0  0  0
    1.7211    0.5719    0.2580 O   0  0  0  0  0  0  0  0  0  0  0  0
   -0.5885    0.7607   -0.4239 C   0  0  1  0  0  0  0  0  0  0  0  0
    1.1903    2.9991   -1.2875 C   0  0  0  0  0  0  0  0  0  0  0  0
    0.0892    3.7244    0.7310 C   0  0  0  0  0  0  0  0  0  0  0  0
    1.3488   -0.6546   -0.3919 C   0  0  1  0  0  0  0  0  0  0  0  0
   -0.1785   -0.6703   -0.4770 C   0  0  1  0  0  0  0  0  0  0  0  0
   -1.8890    0.9559    0.1178 O   0  0  0  0  0  0  0  0  0  0  0  0
    0.9910    4.2612   -1.7597 N   0  0  0  0  0  0  0  0  0  0  0  0
    1.6526    2.1582   -2.0497 O   0  0  0  0  0  0  0  0  0  0  0  0
   -0.2926    4.8708    0.1647 C   0  0  0  0  0  0  0  0  0  0  0  0
    2.0487   -0.8312   -1.7444 C   0  0  0  0  0  0  0  0  0  0  0  0
   -0.7102   -1.4584    0.6014 O   0  0  0  0  0  0  0  0  0  0  0  0
    0.0917    5.1278   -1.2288 C   0  0  0  0  0  0  0  0  0  0  0  0
    1.3373   -1.7441   -2.5724 O   0  0  0  0  0  0  0  0  0  0  0  0
   -0.3790    6.0751   -1.8568 O   0  0  0  0  0  0  0  0  0  0  0  0
    1.2796   -3.3125   -1.8445 P   0  0  0  0  0  0  0  0  0  0  0  0
   -0.2973   -3.0711   -1.5396 O   0  0  0  0  0  0  0  0  0  0  0  0
    1.0829   -3.8669   -3.3694 O   0  0  0  0  0  0  0  0  0  0  0  0
    1.2279   -4.7161   -1.1930 O   0  0  0  0  0  0  0  0  0  0  0  0
  1  3  1  0
  1  4  1  0
  1  2  1  6
  2  5  1  0
  2  6  1  0
  3  7  1  0
  4  8  1  0
  4  9  1  1
  5 10  1  0
  5 11  2  0
  6 12  2  0
  7  8  1  0
  7 13  1  6
  8 14  1  1
 10 15  1  0
 12 15  1  0
 13 16  1  0
 15 17  2  0
 16 18  1  0
 18 19  1  0
 18 20  1  0
 18 21  2  0
M  END
>  <DRUGBANK_ID>  (1) 
DB03685

>  <SECONDARY_ACCESSION_NUMBERS>  (1) 
EXPT03155

>  <COMMON_NAME>  (1) 
Uridine monophosphate

>  <CAS_NUMBER>  (1) 
58-97-9

>  <UNII>  (1) 
E2OU15WN0N

>  <SYNONYMS>  (1) 
5'-uridylic acid; UMP; Uridine 5'-monophosphate; Uridine 5'-phosphoric acid; Uridine phosphate; Uridine-5'-monophosphate

$$$$
