979
     RDKit          3D

 30 34  0  0  0  0  0  0  0  0999 V2000
   -1.8794    0.7226    0.0354 C   0  0  0  0  0  0  0  0  0  0  0  0
   -0.7098    1.3759    0.0443 N   0  0  0  0  0  0  0  0  0  0  0  0
    0.3317    0.5330    0.0042 C   0  0  0  0  0  0  0  0  0  0  0  0
    0.2839   -0.8601   -0.0517 C   0  0  0  0  0  0  0  0  0  0  0  0
   -1.0221   -1.4439   -0.0046 C   0  0  0  0  0  0  0  0  0  0  0  0
   -2.0835   -0.6043    0.0182 N   0  0  0  0  0  0  0  0  0  0  0  0
    1.6380    0.9700    0.0276 O   0  0  0  0  0  0  0  0  0  0  0  0
    2.4377   -0.1230   -0.0626 C   0  0  0  0  0  0  0  0  0  0  0  0
    1.6696   -1.2747   -0.1294 C   0  0  0  0  0  0  0  0  0  0  0  0
   -1.3544   -2.7795    0.0703 N   0  0  0  0  0  0  0  0  0  0  0  0
   -0.3726   -3.8266    0.0169 C   0  0  0  0  0  0  0  0  0  0  0  0
   -0.2254   -4.7859    1.1667 C   0  0  0  0  0  0  0  0  0  0  0  0
   -1.5565   -5.2915    1.3899 N   0  0  0  0  0  0  0  0  0  0  0  0
    2.3373   -2.5688   -0.2728 C   0  0  0  0  0  0  0  0  0  0  0  0
    3.0267   -3.1533    0.8063 C   0  0  0  0  0  0  0  0  0  0  0  0
    3.4328   -4.4875    0.7343 C   0  0  0  0  0  0  0  0  0  0  0  0
    3.0650   -5.2712   -0.3622 C   0  0  0  0  0  0  0  0  0  0  0  0
    2.3614   -4.7042   -1.4246 C   0  0  0  0  0  0  0  0  0  0  0  0
    2.0602   -3.3412   -1.4176 C   0  0  0  0  0  0  0  0  0  0  0  0
    3.8874    0.0043   -0.0770 C   0  0  0  0  0  0  0  0  0  0  0  0
    4.5802    0.5199    1.0238 C   0  0  0  0  0  0  0  0  0  0  0  0
    5.9636    0.3337    1.1270 C   0  0  0  0  0  0  0  0  0  0  0  0
    6.6615   -0.3896    0.1575 C   0  0  0  0  0  0  0  0  0  0  0  0
    5.9806   -0.9209   -0.9325 C   0  0  0  0  0  0  0  0  0  0  0  0
    4.6157   -0.6876   -1.0658 C   0  0  0  0  0  0  0  0  0  0  0  0
   -1.6458   -6.7493    1.4285 C   0  0  0  0  0  0  0  0  0  0  0  0
   -2.0299   -4.6502    2.6179 C   0  0  0  0  0  0  0  0  0  0  0  0
   -1.1786   -7.4016    2.7435 C   0  0  0  0  0  0  0  0  0  0  0  0
   -1.3778   -5.2846    3.8595 C   0  0  0  0  0  0  0  0  0  0  0  0
   -1.7084   -6.7171    3.9417 N   0  0  0  0  0  0  0  0  0  0  0  0
  1  6  2  0
  1  2  1  0
  2  3  2  0
  3  4  1  0
  3  7  1  0
  4  5  2  0
  4  9  1  0
  5  6  1  0
  5 10  1  0
  7  8  1  0
  8  9  2  0
  8 20  1  0
  9 14  1  0
 10 11  1  0
 11 12  1  0
 12 13  1  0
 13 27  1  0
 13 26  1  0
 14 19  1  0
 14 15  2  0
 15 16  1  0
 16 17  2  0
 17 18  1  0
 18 19  2  0
 20 21  2  0
 20 25  1  0
 21 22  1  0
 22 23  2  0
 23 24  1  0
 24 25  2  0
 26 28  1  0
 27 29  1  0
 28 30  1  0
 29 30  1  0
M  END
>  <DRUGBANK_ID>  (1) 
DB07297

>  <COMMON_NAME>  (1) 
5,6-DIPHENYL-N-(2-PIPERAZIN-1-YLETHYL)FURO[2,3-D]PYRIMIDIN-4-AMINE

$$$$
