
     RDKit          3D

 28 31  0  0  1  0  0  0  0  0999 V2000
   -0.8341    2.0767    1.4488 C   0  0  0  0  0  0  0  0  0  0  0  0
   -1.4158    0.9852    0.6777 N   0  0  0  0  0  0  0  0  0  0  0  0
   -1.0229    1.0632   -0.7474 C   0  0  1  0  0  0  0  0  0  0  0  0
   -1.5997   -0.1092   -1.5724 C   0  0  0  0  0  0  0  0  0  0  0  0
   -2.9163    0.3334   -1.9705 N   0  0  0  0  0  0  0  0  0  0  0  0
   -2.9763    1.7949   -2.0384 C   0  0  0  0  0  0  0  0  0  0  0  0
   -1.6080    2.2898   -1.4923 C   0  0  2  0  0  0  0  0  0  0  0  0
   -0.7219    2.7109   -2.5456 O   0  0  0  0  0  0  0  0  0  0  0  0
    0.3961    3.4426   -2.0422 C   0  0  0  0  0  0  0  0  0  0  0  0
   -4.0496   -0.4196   -1.9058 C   0  0  0  0  0  0  0  0  0  0  0  0
   -4.4194   -1.1215   -0.7669 C   0  0  0  0  0  0  0  0  0  0  0  0
   -5.6763   -1.7087   -0.7122 C   0  0  0  0  0  0  0  0  0  0  0  0
   -6.4004   -1.8430   -1.8901 C   0  0  0  0  0  0  0  0  0  0  0  0
   -7.6048   -2.6865   -1.8953 C   0  0  0  0  0  0  0  0  0  0  0  0
   -7.9869   -3.1837   -0.8415 O   0  0  0  0  0  0  0  0  0  0  0  0
   -8.2786   -2.9341   -3.1912 C   0  0  0  0  0  0  0  0  0  0  0  0
   -7.7369   -2.3346   -4.2696 C   0  0  0  0  0  0  0  0  0  0  0  0
   -6.5934   -1.5296   -4.2967 N   0  0  0  0  0  0  0  0  0  0  0  0
   -5.9205   -1.2611   -3.0579 C   0  0  0  0  0  0  0  0  0  0  0  0
   -4.8194   -0.4636   -3.0137 N   0  0  0  0  0  0  0  0  0  0  0  0
   -6.1332   -0.9328   -5.4511 C   0  0  0  0  0  0  0  0  0  0  0  0
   -6.8800   -0.2149   -6.2738 N   0  0  0  0  0  0  0  0  0  0  0  0
   -6.1041    0.3474   -7.2718 C   0  0  0  0  0  0  0  0  0  0  0  0
   -4.7883   -0.0493   -7.3027 C   0  0  0  0  0  0  0  0  0  0  0  0
   -4.4934   -1.1418   -6.0235 S   0  0  0  0  0  0  0  0  0  0  0  0
   -9.4611   -3.8142   -3.2569 C   0  0  0  0  0  0  0  0  0  0  0  0
   -9.9959   -4.4005   -2.3257 O   0  0  0  0  0  0  0  0  0  0  0  0
   -9.9621   -3.9604   -4.4952 O   0  0  0  0  0  0  0  0  0  0  0  0
  1  2  1  0
  3  4  1  0
  3  7  1  0
  3  2  1  1
  4  5  1  0
  5  6  1  0
  5 10  1  0
  6  7  1  0
  7  8  1  6
  8  9  1  0
 10 11  2  0
 10 20  1  0
 11 12  1  0
 12 13  2  0
 13 14  1  0
 13 19  1  0
 14 15  2  0
 14 16  1  0
 16 17  2  0
 16 26  1  0
 17 18  1  0
 18 19  1  0
 18 21  1  0
 19 20  2  0
 21 22  2  0
 21 25  1  0
 22 23  1  0
 23 24  2  0
 24 25  1  0
 26 27  2  0
 26 28  1  0
M  END
>  <DRUGBANK_ID>  (1) 
DB11999

>  <SECONDARY_ACCESSION_NUMBERS>  (1) 
DB05517

>  <COMMON_NAME>  (1) 
Vosaroxin

>  <CAS_NUMBER>  (1) 
175414-77-4

>  <UNII>  (1) 
K6A90IIZ19

>  <SYNONYMS>  (1) 
Voreloxin; Vosaroxin

$$$$
