BSB
     RDKit          3D

 20 21  0  0  0  0  0  0  0  0999 V2000
    1.2141   -0.3109    0.2099 C   0  0  0  0  0  0  0  0  0  0  0  0
    0.3468   -1.3739    0.0635 C   0  0  0  0  0  0  0  0  0  0  0  0
   -1.0009   -1.1186   -0.0216 C   0  0  0  0  0  0  0  0  0  0  0  0
   -1.4601    0.2023   -0.0177 C   0  0  0  0  0  0  0  0  0  0  0  0
   -0.5334    1.2693   -0.0032 C   0  0  0  0  0  0  0  0  0  0  0  0
    0.8462    1.0204    0.0139 C   0  0  0  0  0  0  0  0  0  0  0  0
    1.8099    2.1643   -0.2119 C   0  0  0  0  0  0  0  0  0  0  0  0
    1.3709    3.3122   -0.3084 O   0  0  0  0  0  0  0  0  0  0  0  0
    3.1682    1.9943   -0.3818 N   0  0  0  0  0  0  0  0  0  0  0  0
    3.9812    0.8033   -0.4038 C   0  0  0  0  0  0  0  0  0  0  0  0
   -2.0679   -2.5206   -0.0068 S   0  0  0  0  0  0  0  0  0  0  0  0
   -2.9181   -2.3271    1.4324 N   0  0  0  0  0  0  0  0  0  0  0  0
   -2.9875   -2.4155   -1.1019 O   0  0  0  0  0  0  0  0  0  0  0  0
   -1.2569   -3.7066    0.2140 O   0  0  0  0  0  0  0  0  0  0  0  0
    4.6044    0.4324   -1.7038 C   0  0  0  0  0  0  0  0  0  0  0  0
    5.2625    1.3899   -2.4576 C   0  0  0  0  0  0  0  0  0  0  0  0
    5.9354    1.0057   -3.6055 C   0  0  0  0  0  0  0  0  0  0  0  0
    5.9726   -0.3372   -3.9886 C   0  0  0  0  0  0  0  0  0  0  0  0
    5.3235   -1.3092   -3.2342 C   0  0  0  0  0  0  0  0  0  0  0  0
    4.5995   -0.9203   -2.1174 C   0  0  0  0  0  0  0  0  0  0  0  0
  1  2  2  0
  1  6  1  0
  2  3  1  0
  3  4  2  0
  3 11  1  0
  4  5  1  0
  5  6  2  0
  6  7  1  0
  7  8  2  0
  7  9  1  0
  9 10  1  0
 10 15  1  0
 11 12  1  0
 11 13  2  0
 11 14  2  0
 15 16  2  0
 15 20  1  0
 16 17  1  0
 17 18  2  0
 18 19  1  0
 19 20  2  0
M  END
>  <DRUGBANK_ID>  (1) 
DB01748

>  <SECONDARY_ACCESSION_NUMBERS>  (1) 
EXPT00761

>  <COMMON_NAME>  (1) 
N-Benzyl-4-Sulfamoyl-Benzamide

>  <UNII>  (1) 
6LQK8L3YE9

$$$$
