
     RDKit          3D

 33 36  0  0  1  0  0  0  0  0999 V2000
    1.1360    0.0664   -0.1100 C   0  0  0  0  0  0  0  0  0  0  0  0
    0.5280    0.7356   -1.3554 C   0  0  1  0  0  0  0  0  0  0  0  0
    0.9972    0.1022   -2.6111 N   0  0  0  0  0  0  0  0  0  0  0  0
    0.1928   -0.4032   -3.6291 C   0  0  0  0  0  0  0  0  0  0  0  0
   -0.9438    0.2714   -4.0977 C   0  0  0  0  0  0  0  0  0  0  0  0
   -1.8527   -0.3302   -4.9657 C   0  0  0  0  0  0  0  0  0  0  0  0
   -2.9603    0.3356   -5.3185 F   0  0  0  0  0  0  0  0  0  0  0  0
   -1.6385   -1.6060   -5.4451 C   0  0  0  0  0  0  0  0  0  0  0  0
   -0.5030   -2.2771   -5.0216 C   0  0  0  0  0  0  0  0  0  0  0  0
   -0.2902   -3.5255   -5.4613 F   0  0  0  0  0  0  0  0  0  0  0  0
    0.3995   -1.7000   -4.1178 C   0  0  0  0  0  0  0  0  0  0  0  0
   -0.9783    0.7021   -1.1921 C   0  0  0  0  0  0  0  0  0  0  0  0
   -1.7424    1.9136   -1.2365 C   0  0  0  0  0  0  0  0  0  0  0  0
   -3.1484    1.8824   -1.2778 C   0  0  0  0  0  0  0  0  0  0  0  0
   -3.6974    0.6102   -1.2829 C   0  0  0  0  0  0  0  0  0  0  0  0
   -2.9839   -0.5696   -1.1942 C   0  0  0  0  0  0  0  0  0  0  0  0
   -1.6271   -0.5502   -1.1384 C   0  0  0  0  0  0  0  0  0  0  0  0
   -0.9130   -1.7236   -1.1459 O   0  0  0  0  0  0  0  0  0  0  0  0
   -1.5782   -2.9304   -1.3079 C   0  0  0  0  0  0  0  0  0  0  0  0
   -2.9106   -3.0383   -1.3056 C   0  0  0  0  0  0  0  0  0  0  0  0
   -3.7261   -1.8346   -1.2406 C   0  0  0  0  0  0  0  0  0  0  0  0
   -4.9385   -1.8914   -1.2650 O   0  0  0  0  0  0  0  0  0  0  0  0
   -0.7858   -4.0376   -1.5299 N   0  0  0  0  0  0  0  0  0  0  0  0
   -0.9802   -4.8990   -2.7064 C   0  0  0  0  0  0  0  0  0  0  0  0
   -1.0624   -6.3515   -2.2463 C   0  0  0  0  0  0  0  0  0  0  0  0
    0.1265   -6.7252   -1.5269 O   0  0  0  0  0  0  0  0  0  0  0  0
    0.3023   -5.8786   -0.3724 C   0  0  0  0  0  0  0  0  0  0  0  0
    0.4125   -4.3894   -0.7633 C   0  0  0  0  0  0  0  0  0  0  0  0
   -3.9540    3.1695   -1.3446 C   0  0  0  0  0  0  0  0  0  0  0  0
   -3.2958    4.2165   -1.3744 O   0  0  0  0  0  0  0  0  0  0  0  0
   -5.3662    3.2290   -1.3516 N   0  0  0  0  0  0  0  0  0  0  0  0
   -6.3647    2.1786   -1.3321 C   0  0  0  0  0  0  0  0  0  0  0  0
   -5.9907    4.5477   -1.3709 C   0  0  0  0  0  0  0  0  0  0  0  0
  2  1  1  1
  2  3  1  0
  2 12  1  0
  3  4  1  0
  4  5  2  0
  4 11  1  0
  5  6  1  0
  6  7  1  0
  6  8  2  0
  8  9  1  0
  9 10  1  0
  9 11  2  0
 12 13  2  0
 12 17  1  0
 13 14  1  0
 14 15  2  0
 14 29  1  0
 15 16  1  0
 16 17  2  0
 16 21  1  0
 17 18  1  0
 18 19  1  0
 19 20  2  0
 19 23  1  0
 20 21  1  0
 21 22  2  0
 23 24  1  0
 23 28  1  0
 24 25  1  0
 25 26  1  0
 26 27  1  0
 27 28  1  0
 29 30  2  0
 29 31  1  0
 31 32  1  0
 31 33  1  0
M  END
>  <DRUGBANK_ID>  (1) 
DB15029

>  <COMMON_NAME>  (1) 
AZD-8186

>  <CAS_NUMBER>  (1) 
1627494-13-6

>  <UNII>  (1) 
AIQ4OWD0RA

$$$$
