
     RDKit          3D

 21 23  0  0  1  0  0  0  0  0999 V2000
    0.9380    2.2284    2.2896 C   0  0  0  0  0  0  0  0  0  0  0  0
    0.0730    3.0283    1.1613 C   0  0  2  0  0  0  0  0  0  0  0  0
    0.2386    4.5371    1.4369 C   0  0  2  0  0  0  0  0  0  0  0  0
    1.0995    5.2780    0.4587 C   0  0  0  0  0  0  0  0  0  0  0  0
    2.2160    5.7235    0.6168 O   0  0  0  0  0  0  0  0  0  0  0  0
    0.4067    5.1398   -0.7245 N   0  0  0  0  0  0  0  0  0  0  0  0
   -0.1004    3.6922   -0.6934 C   0  0  1  0  0  0  0  0  0  0  0  0
    1.2614    2.7548   -0.5134 C   0  0  0  0  0  0  0  0  0  0  0  0
    2.4037    2.6245   -0.7876 O   0  0  0  0  0  0  0  0  0  0  0  0
    0.4510    1.9502    0.2262 O   0  0  0  0  0  0  0  0  0  0  0  0
   -1.1005    3.3213   -2.0229 C   0  0  2  0  0  0  0  0  0  0  0  0
   -0.5540    2.5059   -3.3569 C   0  0  1  0  0  0  0  0  0  0  0  0
    0.8312    2.0079   -3.0525 C   0  0  0  0  0  0  0  0  0  0  0  0
    0.6121    0.8362   -2.0618 C   0  0  0  0  0  0  0  0  0  0  0  0
    0.1104   -0.4202   -2.6660 C   0  0  0  0  0  0  0  0  0  0  0  0
   -1.0057   -0.0286   -3.5804 C   0  0  0  0  0  0  0  0  0  0  0  0
   -1.3366    1.2557   -3.8658 C   0  0  0  0  0  0  0  0  0  0  0  0
   -1.7464    4.5410   -2.4980 O   0  0  0  0  0  0  0  0  0  0  0  0
    0.4946    5.0347    2.8540 C   0  0  0  0  0  0  0  0  0  0  0  0
   -0.8101    5.2235    3.6124 C   0  0  0  0  0  0  0  0  0  0  0  0
   -1.6773    3.6965    3.8878 Cl  0  0  0  0  0  0  0  0  0  0  0  0
  2  1  1  6
  2  3  1  0
  2  7  1  0
  2 10  1  0
  3  4  1  0
  3 19  1  1
  4  5  2  0
  4  6  1  0
  7  6  1  1
  7  8  1  0
  7 11  1  0
  8  9  2  0
  8 10  1  0
 11 18  1  6
 12 13  1  1
 12 17  1  0
 12 11  1  0
 13 14  1  0
 14 15  1  0
 15 16  1  0
 16 17  2  0
 19 20  1  0
 20 21  1  0
M  END
>  <DRUGBANK_ID>  (1) 
DB11762

>  <COMMON_NAME>  (1) 
Marizomib

>  <CAS_NUMBER>  (1) 
437742-34-2

>  <UNII>  (1) 
703P9YDP7F

>  <SYNONYMS>  (1) 
Marizomib

$$$$
