H52
     RDKit          3D

 22 24  0  0  0  0  0  0  0  0999 V2000
    1.1122    0.4148    0.0619 O   0  0  0  0  0  0  0  0  0  0  0  0
    2.5589    0.2203    0.0129 S   0  0  0  0  0  0  0  0  0  0  0  0
    3.3069    1.4342   -0.1515 O   0  0  0  0  0  0  0  0  0  0  0  0
    3.1823   -0.7588    1.4778 N   0  0  0  0  0  0  0  0  0  0  0  0
    4.6708   -0.6097    1.7494 C   0  0  1  0  0  0  0  0  0  0  0  0
    5.1901    0.7883    1.4721 C   0  0  0  0  0  0  0  0  0  0  0  0
    4.9457   -0.9503    3.2474 C   0  0  0  0  0  0  0  0  0  0  0  0
    5.3531   -2.3402    3.5603 N   0  0  0  0  0  0  0  0  0  0  0  0
    4.5966   -3.3738    2.8793 C   0  0  0  0  0  0  0  0  0  0  0  0
    3.1401   -3.0140    2.8618 C   0  0  0  0  0  0  0  0  0  0  0  0
    2.8544   -2.2581    1.5799 C   0  0  0  0  0  0  0  0  0  0  0  0
    2.9308   -0.8018   -1.4074 C   0  0  0  0  0  0  0  0  0  0  0  0
    2.4419   -2.1297   -1.5588 C   0  0  0  0  0  0  0  0  0  0  0  0
    1.3838   -2.7653   -0.8344 C   0  0  0  0  0  0  0  0  0  0  0  0
    0.3821   -2.0850    0.0676 C   0  0  0  0  0  0  0  0  0  0  0  0
    3.0908   -2.9153   -2.5526 C   0  0  0  0  0  0  0  0  0  0  0  0
    4.0005   -2.3476   -3.4585 C   0  0  0  0  0  0  0  0  0  0  0  0
    4.2083   -0.9776   -3.4606 C   0  0  0  0  0  0  0  0  0  0  0  0
    3.7613   -0.2237   -2.3851 C   0  0  0  0  0  0  0  0  0  0  0  0
    2.7568   -4.2638   -2.6673 C   0  0  0  0  0  0  0  0  0  0  0  0
    1.8745   -4.9009   -1.8754 N   0  0  0  0  0  0  0  0  0  0  0  0
    1.2114   -4.1374   -0.9930 C   0  0  0  0  0  0  0  0  0  0  0  0
  1  2  2  0
  2  3  2  0
  2  4  1  0
  2 12  1  0
  4  5  1  0
  4 11  1  0
  5  7  1  0
  5  6  1  1
  7  8  1  0
  8  9  1  0
  9 10  1  0
 10 11  1  0
 12 13  1  0
 12 19  2  0
 13 14  2  0
 13 16  1  0
 14 15  1  0
 14 22  1  0
 16 17  1  0
 16 20  2  0
 17 18  2  0
 18 19  1  0
 20 21  1  0
 21 22  2  0
M  END
>  <DRUGBANK_ID>  (1) 
DB07876

>  <COMMON_NAME>  (1) 
(S)-2-METHYL-1-[(4-METHYL-5-ISOQUINOLINE)SULFONYL]-HOMOPIPERAZINE

$$$$
