
     RDKit          3D

 24 27  0  0  0  0  0  0  0  0999 V2000
    0.5047   -0.8860   -0.4785 C   0  0  0  0  0  0  0  0  0  0  0  0
    1.4104   -0.4672    5.3766 C   0  0  0  0  0  0  0  0  0  0  0  0
    2.5861   -0.0955    4.7297 C   0  0  0  0  0  0  0  0  0  0  0  0
    0.1903   -0.5369    4.6858 C   0  0  0  0  0  0  0  0  0  0  0  0
    2.5351    0.3172    3.4252 C   0  0  0  0  0  0  0  0  0  0  0  0
   -4.1014    2.1154    4.4720 C   0  0  0  0  0  0  0  0  0  0  0  0
   -3.2103    2.6761    3.5595 C   0  0  0  0  0  0  0  0  0  0  0  0
   -3.2308   -0.0575    3.9927 C   0  0  0  0  0  0  0  0  0  0  0  0
   -1.6824    0.7113    0.2904 C   0  0  0  0  0  0  0  0  0  0  0  0
   -1.7717   -2.0540    1.0797 C   0  0  0  0  0  0  0  0  0  0  0  0
   -0.4307   -1.4249    0.6386 C   0  0  0  0  0  0  0  0  0  0  0  0
   -4.1326    0.7442    4.6708 C   0  0  0  0  0  0  0  0  0  0  0  0
    0.1188   -0.1593    3.3356 C   0  0  0  0  0  0  0  0  0  0  0  0
   -2.2989    0.5190    3.0836 C   0  0  0  0  0  0  0  0  0  0  0  0
    1.3079    0.4133    2.7963 C   0  0  0  0  0  0  0  0  0  0  0  0
   -2.3377    1.8979    2.8121 C   0  0  0  0  0  0  0  0  0  0  0  0
   -1.3281    2.1105    0.7004 C   0  0  0  0  0  0  0  0  0  0  0  0
   -1.1916   -0.3340    2.5219 C   0  0  0  0  0  0  0  0  0  0  0  0
   -5.2442    0.0524    5.7832 Cl  0  0  0  0  0  0  0  0  0  0  0  0
    1.4683    1.5730    1.5236 Cl  0  0  0  0  0  0  0  0  0  0  0  0
   -1.5858    2.6206    1.8807 N   0  0  0  0  0  0  0  0  0  0  0  0
   -0.8424   -0.1247    1.1419 N   0  0  0  0  0  0  0  0  0  0  0  0
   -0.5803    2.8220   -0.1631 O   0  0  0  0  0  0  0  0  0  0  0  0
   -1.6946   -1.7049    2.5239 O   0  0  0  0  0  0  0  0  0  0  0  0
  3  2  2  0
  4  2  1  0
  5  3  1  0
  7  6  2  0
 11  1  1  0
 11 10  1  0
 12  6  1  0
 12  8  2  0
 13  4  2  0
 14  8  1  0
 15  5  2  0
 15 13  1  0
 16  7  1  0
 16 14  2  0
 17  9  1  0
 18 13  1  0
 18 14  1  0
 19 12  1  0
 20 15  1  0
 21 16  1  0
 21 17  2  0
 22  9  1  0
 22 11  1  0
 22 18  1  0
 23 17  1  0
 24 10  1  0
 24 18  1  0
M  END
>  <DRUGBANK_ID>  (1) 
DB15489

>  <COMMON_NAME>  (1) 
Mexazolam

>  <CAS_NUMBER>  (1) 
31868-18-5

>  <UNII>  (1) 
S5969B6237

>  <SYNONYMS>  (1) 
Mexazolam; Mexazolamum

$$$$
