
     RDKit          3D

 24 26  0  0  0  0  0  0  0  0999 V2000
   -2.6238   -1.2800   -1.2667 C   0  0  0  0  0  0  0  0  0  0  0  0
   -1.5159   -2.3101   -0.1044 C   0  0  0  0  0  0  0  0  0  0  0  0
   -0.2476   -1.5597    0.9222 C   0  0  0  0  0  0  0  0  0  0  0  0
   -0.2178    0.2085    0.7633 C   0  0  0  0  0  0  0  0  0  0  0  0
   -1.5032    1.0731   -0.5683 C   0  0  0  0  0  0  0  0  0  0  0  0
   -2.7236    0.4304   -1.3621 C   0  0  0  0  0  0  0  0  0  0  0  0
   -4.0614    1.1363   -0.8216 N   0  0  0  0  0  0  0  0  0  0  0  0
   -5.1894    0.5046   -0.2029 C   0  0  0  0  0  0  0  0  0  0  0  0
   -6.2078    1.1762   -0.0211 O   0  0  0  0  0  0  0  0  0  0  0  0
   -5.1926   -0.8536    0.3033 N   0  0  0  0  0  0  0  0  0  0  0  0
   -3.8596   -1.9162    0.7610 S   0  0  0  0  0  0  0  0  0  0  0  0
   -3.8525   -2.5095    2.0691 O   0  0  0  0  0  0  0  0  0  0  0  0
   -3.8995   -2.8971   -0.3553 O   0  0  0  0  0  0  0  0  0  0  0  0
   -2.0772   -0.4503    0.6020 C   0  0  0  0  0  0  0  0  0  0  0  0
   -0.6956   -0.6261   -0.9083 C   0  0  0  0  0  0  0  0  0  0  0  0
    0.5084    0.5858   -1.2506 C   0  0  0  0  0  0  0  0  0  0  0  0
    0.3455    2.0322   -0.3052 C   0  0  0  0  0  0  0  0  0  0  0  0
   -0.9312    2.3202    0.9555 C   0  0  0  0  0  0  0  0  0  0  0  0
   -2.1678    1.1041    1.4453 C   0  0  0  0  0  0  0  0  0  0  0  0
   -1.2471    3.7271    0.4984 C   0  0  0  0  0  0  0  0  0  0  0  0
    0.0515    4.0807   -0.3570 C   0  0  0  0  0  0  0  0  0  0  0  0
    1.1100    3.1178   -0.4344 O   0  0  0  0  0  0  0  0  0  0  0  0
    1.6749    0.7247    1.3586 Cl  0  0  0  0  0  0  0  0  0  0  0  0
    1.3961   -2.3416    0.6284 Cl  0  0  0  0  0  0  0  0  0  0  0  0
  1  2  2  0
  1  6  1  0
  2  3  1  0
  3  4  2  0
  3 24  1  0
  4  5  1  0
  4 23  1  0
  5  6  2  0
  6  7  1  0
  7  8  1  0
  8  9  2  0
  8 10  1  0
 10 11  1  0
 11 12  2  0
 11 13  2  0
 11 14  1  0
 14 15  2  0
 14 19  1  0
 15 16  1  0
 16 17  2  0
 17 18  1  0
 17 22  1  0
 18 19  2  0
 18 20  1  0
 20 21  1  0
 21 22  1  0
M  END
>  <DRUGBANK_ID>  (1) 
DB12574

>  <COMMON_NAME>  (1) 
LY-295501

>  <CAS_NUMBER>  (1) 
150869-74-2

>  <UNII>  (1) 
240Y4YO0TN

$$$$
