B97
     RDKit          3D

 27 31  0  0  0  0  0  0  0  0999 V2000
    1.8009    1.3168    1.2820 C   0  0  0  0  0  0  0  0  0  0  0  0
    4.3327    5.0495    0.6642 C   0  0  0  0  0  0  0  0  0  0  0  0
   -0.4215    3.0319    2.2037 C   0  0  0  0  0  0  0  0  0  0  0  0
   -1.0889    2.2878    3.1827 C   0  0  0  0  0  0  0  0  0  0  0  0
    2.4994    2.6173    1.5128 C   0  0  0  0  0  0  0  0  0  0  0  0
    5.5096    5.4437   -0.0113 C   0  0  0  0  0  0  0  0  0  0  0  0
    3.3868    4.4905   -1.4128 C   0  0  0  0  0  0  0  0  0  0  0  0
    0.3588    1.2538    1.1238 C   0  0  0  0  0  0  0  0  0  0  0  0
   -0.7561    0.3872    1.7666 C   0  0  0  0  0  0  0  0  0  0  0  0
    3.2500    4.4427   -0.0318 C   0  0  0  0  0  0  0  0  0  0  0  0
    0.0817    2.5876    0.9787 C   0  0  0  0  0  0  0  0  0  0  0  0
   -1.3642   -0.9615    1.6749 C   0  0  0  0  0  0  0  0  0  0  0  0
   -1.4325    1.0106    2.8236 C   0  0  0  0  0  0  0  0  0  0  0  0
    2.1993    3.5565    0.5729 C   0  0  0  0  0  0  0  0  0  0  0  0
   -2.4199   -1.1811    2.5654 C   0  0  0  0  0  0  0  0  0  0  0  0
    5.4912    5.4874   -1.3965 C   0  0  0  0  0  0  0  0  0  0  0  0
   -3.2193   -2.3479    2.8382 C   0  0  0  0  0  0  0  0  0  0  0  0
   -0.5639   -3.2160    1.5053 C   0  0  0  0  0  0  0  0  0  0  0  0
   -1.7039   -4.0829    2.1030 C   0  0  1  0  0  0  0  0  0  0  0  0
    6.6122    6.1353   -2.1584 C   0  0  0  0  0  0  0  0  0  0  0  0
   -1.0784   -5.3720    2.6173 C   0  0  0  0  0  0  0  0  0  0  0  0
    4.4352    5.0304   -2.1042 N   0  0  0  0  0  0  0  0  0  0  0  0
    0.9002    3.4566    0.2126 N   0  0  0  0  0  0  0  0  0  0  0  0
   -0.9664   -1.9676    0.8624 N   0  0  0  0  0  0  0  0  0  0  0  0
   -2.4974   -3.4637    3.1444 N   0  0  0  0  0  0  0  0  0  0  0  0
   -4.4679   -2.3651    2.9286 O   0  0  0  0  0  0  0  0  0  0  0  0
   -2.6464    0.1178    3.6096 S   0  0  0  0  0  0  0  0  0  0  0  0
  1  5  2  0
  1  8  1  0
  2  6  2  0
  2 10  1  0
  3  4  1  0
  3 11  2  0
  4 13  2  0
  5 14  1  0
  6 16  1  0
  7 10  2  0
  7 22  1  0
  8  9  2  0
  8 11  1  0
  9 12  1  0
  9 13  1  0
 10 14  1  0
 11 23  1  0
 12 15  2  0
 12 24  1  0
 13 27  1  0
 14 23  2  0
 15 17  1  0
 15 27  1  0
 16 20  1  0
 16 22  2  0
 17 25  1  0
 17 26  2  0
 18 19  1  0
 18 24  1  0
 19 25  1  0
 19 21  1  1
M  END
>  <DRUGBANK_ID>  (1) 
DB07430

>  <COMMON_NAME>  (1) 
(10R)-10-methyl-3-(6-methylpyridin-3-yl)-9,10,11,12-tetrahydro-8H-[1,4]diazepino[5',6':4,5]thieno[3,2-f]quinolin-8-one

$$$$
