
     RDKit          3D

 21 20  0  0  1  0  0  0  0  0999 V2000
    1.1187    1.5237   -2.4974 C   0  0  0  0  0  0  0  0  0  0  0  0
    2.9241   -1.3529    1.8120 C   0  0  0  0  0  0  0  0  0  0  0  0
    0.1690   -0.9432   -2.5364 C   0  0  0  0  0  0  0  0  0  0  0  0
    0.8164    1.9455   -1.0237 C   0  0  2  0  0  0  0  0  0  0  0  0
    1.4431   -1.3133    2.0327 C   0  0  2  0  0  0  0  0  0  0  0  0
    1.3791    0.6312   -0.1711 C   0  0  2  0  0  0  0  0  0  0  0  0
    0.7653    0.0107    1.4447 C   0  0  2  0  0  0  0  0  0  0  0  0
    0.1905    0.4870   -3.0776 N   0  0  0  0  0  0  0  0  0  0  0  0
   -0.5464    2.4729   -1.1117 O   0  0  0  0  0  0  0  0  0  0  0  0
    1.1450   -1.3721    3.4426 O   0  0  0  0  0  0  0  0  0  0  0  0
    2.8678    0.4792   -0.3667 O   0  0  0  0  0  0  0  0  0  0  0  0
    0.4394    1.0724    2.3780 O   0  0  0  0  0  0  0  0  0  0  0  0
    0.7585   -2.0072   -0.5229 O   0  0  0  0  0  0  0  0  0  0  0  0
   -1.0371    0.4321   -0.8953 O   0  0  0  0  0  0  0  0  0  0  0  0
   -0.9553   -1.0200    0.6484 O   0  0  0  0  0  0  0  0  0  0  0  0
    2.2991    1.6137    3.3342 O   0  0  0  0  0  0  0  0  0  0  0  0
    4.1210    1.9693    1.8472 O   0  0  0  0  0  0  0  0  0  0  0  0
    1.9575    2.5687    1.1663 O   0  0  0  0  0  0  0  0  0  0  0  0
    3.3802   -0.1388    2.3466 O   0  0  0  0  0  0  0  0  0  0  0  0
   -0.4400   -0.9848   -0.8113 P   0  0  0  0  0  0  0  0  0  0  0  0
    2.6294    1.2899    1.7237 P   0  0  0  0  0  0  0  0  0  0  0  0
  4  9  1  6
  4  6  1  0
  4  1  1  0
  5  2  1  0
  5 10  1  1
  6 11  1  1
  6  7  1  0
  7  5  1  0
  7 12  1  1
  8  1  1  0
  8  3  1  0
 19  2  1  0
 20  3  1  0
 20 13  1  0
 20 14  1  0
 20 15  2  0
 21 16  1  0
 21 17  1  0
 21 18  2  0
 21 19  1  0
M  END
>  <DRUGBANK_ID>  (1) 
DB02992

>  <SECONDARY_ACCESSION_NUMBERS>  (1) 
EXPT01682

>  <COMMON_NAME>  (1) 
1-Deoxy-6-O-Phosphono-1-[(Phosphonomethyl)Amino]-L-Threo-Hexitol

$$$$
