628
     RDKit          3D

 22 24  0  0  1  0  0  0  0  0999 V2000
    1.0814   -0.0244   -0.1063 Cl  0  0  0  0  0  0  0  0  0  0  0  0
    9.0227    0.5597   -0.7266 O   0  0  0  0  0  0  0  0  0  0  0  0
    6.6824    1.9228   -3.8912 O   0  0  0  0  0  0  0  0  0  0  0  0
    5.2221    0.9184   -2.5670 O   0  0  0  0  0  0  0  0  0  0  0  0
    6.9959   -0.0776   -0.0191 N   0  0  0  0  0  0  0  0  0  0  0  0
    6.5505    2.9009   -0.5554 N   0  0  0  0  0  0  0  0  0  0  0  0
    4.8825    1.1936    0.1099 C   0  0  0  0  0  0  0  0  0  0  0  0
    5.5465    2.5271    0.1672 C   0  0  0  0  0  0  0  0  0  0  0  0
    5.5982   -0.0109    0.0328 C   0  0  0  0  0  0  0  0  0  0  0  0
    7.1954    1.9455   -1.4923 C   0  0  0  0  0  0  0  0  0  0  0  0
    4.9798    3.4933    1.1534 C   0  0  0  0  0  0  0  0  0  0  0  0
    7.8075    0.7817   -0.7123 C   0  0  0  0  0  0  0  0  0  0  0  0
    3.4787    1.1807    0.0787 C   0  0  0  0  0  0  0  0  0  0  0  0
    4.8990   -1.2186   -0.0823 C   0  0  0  0  0  0  0  0  0  0  0  0
    2.7998   -0.0235   -0.0528 C   0  0  0  0  0  0  0  0  0  0  0  0
    3.5025   -1.2209   -0.1481 C   0  0  0  0  0  0  0  0  0  0  0  0
    4.6203    4.7902    0.7782 C   0  0  0  0  0  0  0  0  0  0  0  0
    4.7619    3.0515    2.4640 C   0  0  0  0  0  0  0  0  0  0  0  0
    6.2788    1.5406   -2.6591 C   0  0  0  0  0  0  0  0  0  0  0  0
    4.1280    5.6695    1.7469 C   0  0  0  0  0  0  0  0  0  0  0  0
    4.1691    3.8988    3.3943 C   0  0  0  0  0  0  0  0  0  0  0  0
    3.9045    5.2230    3.0519 C   0  0  0  0  0  0  0  0  0  0  0  0
  1 15  1  0
  2 12  2  0
  3 19  1  0
  4 19  2  0
  5  9  1  0
  5 12  1  0
  6  8  2  0
  6 10  1  0
  7  8  1  0
  7  9  2  0
  7 13  1  0
  8 11  1  0
  9 14  1  0
 10 12  1  0
 10 19  1  0
 11 17  2  0
 11 18  1  0
 13 15  2  0
 14 16  2  0
 15 16  1  0
 17 20  1  0
 18 21  2  0
 20 22  2  0
 21 22  1  0
M  END
>  <DRUGBANK_ID>  (1) 
DB00628

>  <SECONDARY_ACCESSION_NUMBERS>  (1) 
APRD00881

>  <COMMON_NAME>  (1) 
Clorazepic acid

>  <CAS_NUMBER>  (1) 
23887-31-2

>  <UNII>  (1) 
D51WO0G0L4

>  <SYNONYMS>  (1) 
7-chloro-2,3-dihydro-2,2-dihydroxy-5-phenyl-1H-1,4-benzodiazepine-3-carboxylic acid; Chlorazepate; Clorazepate; Clorazepic acid

$$$$
