
     RDKit          3D

 13 13  0  0  1  0  0  0  0  0999 V2000
   -0.8679   -0.4120    3.4447 C   0  0  0  0  0  0  0  0  0  0  0  0
    0.3411   -3.5417   -0.2368 C   0  0  0  0  0  0  0  0  0  0  0  0
    0.9232   -2.2171    0.2150 C   0  0  2  0  0  0  0  0  0  0  0  0
    2.4425   -2.1759    0.0260 C   0  0  1  0  0  0  0  0  0  0  0  0
    2.9514   -0.8084    0.5147 C   0  0  1  0  0  0  0  0  0  0  0  0
    2.5225   -0.5395    1.9742 C   0  0  2  0  0  0  0  0  0  0  0  0
    0.9928   -0.7590    2.0719 C   0  0  2  0  0  0  0  0  0  0  0  0
    3.0883   -3.2105    0.7891 O   0  0  0  0  0  0  0  0  0  0  0  0
    4.3688   -0.7221    0.3649 O   0  0  0  0  0  0  0  0  0  0  0  0
    2.8955    0.7868    2.3704 O   0  0  0  0  0  0  0  0  0  0  0  0
    0.5422   -0.6112    3.4145 O   0  0  0  0  0  0  0  0  0  0  0  0
    0.6370   -2.0660    1.6053 O   0  0  0  0  0  0  0  0  0  0  0  0
   -0.8397   -3.6197   -1.4258 S   0  0  0  0  0  0  0  0  0  0  0  0
  3  2  1  1
  4  3  1  0
  4  8  1  1
  5  4  1  0
  5  9  1  1
  6  5  1  0
  6 10  1  6
  7  6  1  0
  7 11  1  1
 11  1  1  0
 12  3  1  0
 12  7  1  0
 13  2  2  0
M  END
>  <DRUGBANK_ID>  (1) 
DB04508

>  <SECONDARY_ACCESSION_NUMBERS>  (1) 
EXPT03243

>  <COMMON_NAME>  (1) 
Methyl(6s)-1-Thio-L-Manno-Hexodialdo-6,2-Pyranoside

$$$$
