
     RDKit          3D

 29 32  0  0  0  0  0  0  0  0999 V2000
   -2.3976    0.0158   -0.1126 C   0  0  0  0  0  0  0  0  0  0  0  0
   -0.9931    0.0081    0.2988 N   0  0  0  0  0  0  0  0  0  0  0  0
   -0.3485   -1.2144   -0.1936 C   0  0  0  0  0  0  0  0  0  0  0  0
    1.1149   -1.2711    0.2228 C   0  0  0  0  0  0  0  0  0  0  0  0
    1.8776   -0.0416   -0.2790 C   0  0  0  0  0  0  0  0  0  0  0  0
    1.1570    1.2268    0.2068 C   0  0  0  0  0  0  0  0  0  0  0  0
   -0.3149    1.2099   -0.2052 C   0  0  0  0  0  0  0  0  0  0  0  0
    3.3279   -0.0461    0.2069 C   0  0  0  0  0  0  0  0  0  0  0  0
    4.0649   -1.1968   -0.2935 N   0  0  0  0  0  0  0  0  0  0  0  0
    5.1474   -1.1008   -1.1300 C   0  0  0  0  0  0  0  0  0  0  0  0
    6.1894   -0.0907   -0.7896 C   0  0  0  0  0  0  0  0  0  0  0  0
    7.2754    0.0073   -1.5652 C   0  0  0  0  0  0  0  0  0  0  0  0
    7.3938   -0.8401   -2.6763 C   0  0  0  0  0  0  0  0  0  0  0  0
    8.3541   -0.9304   -3.5722 N   0  0  0  0  0  0  0  0  0  0  0  0
    7.9547   -1.9350   -4.4093 C   0  0  0  0  0  0  0  0  0  0  0  0
    6.7368   -2.4733   -4.0302 C   0  0  0  0  0  0  0  0  0  0  0  0
    6.3764   -1.7565   -2.8997 N   0  0  0  0  0  0  0  0  0  0  0  0
    5.2378   -1.9247   -2.1395 N   0  0  0  0  0  0  0  0  0  0  0  0
    5.9161   -3.4651   -4.7127 C   0  0  0  0  0  0  0  0  0  0  0  0
    4.6787   -3.0697   -5.2295 C   0  0  0  0  0  0  0  0  0  0  0  0
    3.9007   -3.9622   -5.9558 C   0  0  0  0  0  0  0  0  0  0  0  0
    4.3663   -5.2497   -6.2024 C   0  0  0  0  0  0  0  0  0  0  0  0
    5.6308   -5.6463   -5.7617 C   0  0  0  0  0  0  0  0  0  0  0  0
    6.3838   -4.7654   -4.9696 C   0  0  0  0  0  0  0  0  0  0  0  0
    6.2261   -6.8396   -6.0804 O   0  0  0  0  0  0  0  0  0  0  0  0
    5.5435   -7.6491   -7.0339 C   0  0  0  0  0  0  0  0  0  0  0  0
    4.3862   -8.1180   -6.5165 F   0  0  0  0  0  0  0  0  0  0  0  0
    5.2800   -6.9698   -8.1740 F   0  0  0  0  0  0  0  0  0  0  0  0
    6.3149   -8.7102   -7.3581 F   0  0  0  0  0  0  0  0  0  0  0  0
  1  2  1  0
  2  3  1  0
  2  7  1  0
  3  4  1  0
  4  5  1  0
  5  6  1  0
  5  8  1  0
  6  7  1  0
  8  9  1  0
  9 10  1  0
 10 11  1  0
 10 18  2  0
 11 12  2  0
 12 13  1  0
 13 14  2  0
 13 17  1  0
 14 15  1  0
 15 16  2  0
 16 17  1  0
 16 19  1  0
 17 18  1  0
 19 20  2  0
 19 24  1  0
 20 21  1  0
 21 22  2  0
 22 23  1  0
 23 24  2  0
 23 25  1  0
 25 26  1  0
 26 27  1  0
 26 28  1  0
 26 29  1  0
M  END
>  <DRUGBANK_ID>  (1) 
DB12494

>  <COMMON_NAME>  (1) 
SGI-1776

>  <CAS_NUMBER>  (1) 
1025065-69-3

>  <UNII>  (1) 
72AUA0603W

$$$$
