
     RDKit          3D

 23 24  0  0  0  0  0  0  0  0999 V2000
    4.1752    0.8294    0.4609 C   0  0  0  0  0  0  0  0  0  0  0  0
    4.3500   -0.5196    0.1672 C   0  0  0  0  0  0  0  0  0  0  0  0
    3.2820   -1.3033   -0.2477 C   0  0  0  0  0  0  0  0  0  0  0  0
    2.0021   -0.7336   -0.3752 C   0  0  0  0  0  0  0  0  0  0  0  0
    1.8055    0.6388   -0.0467 C   0  0  0  0  0  0  0  0  0  0  0  0
    2.9058    1.4064    0.3633 C   0  0  0  0  0  0  0  0  0  0  0  0
    2.7425    2.7186    0.7141 O   0  0  0  0  0  0  0  0  0  0  0  0
    5.6017   -1.0446    0.3027 O   0  0  0  0  0  0  0  0  0  0  0  0
    0.4265    1.1929   -0.0047 C   0  0  0  0  0  0  0  0  0  0  0  0
    0.3172    2.5177   -0.2465 O   0  0  0  0  0  0  0  0  0  0  0  0
   -0.9601    3.1819   -0.0118 C   0  0  2  0  0  0  0  0  0  0  0  0
   -2.1684    2.4521   -0.6276 C   0  0  0  0  0  0  0  0  0  0  0  0
   -2.9899    1.7669    0.4617 C   0  0  0  0  0  0  0  0  0  0  0  0
   -3.9756    0.7560   -0.1340 C   0  0  0  0  0  0  0  0  0  0  0  0
   -3.8888   -0.6414    0.4973 C   0  0  2  0  0  0  0  0  0  0  0  0
   -3.5068   -0.5465    1.8667 O   0  0  0  0  0  0  0  0  0  0  0  0
   -2.9399   -1.5411   -0.3076 C   0  0  0  0  0  0  0  0  0  0  0  0
   -2.3012   -2.6591    0.5150 C   0  0  0  0  0  0  0  0  0  0  0  0
   -1.0176   -3.1672   -0.1395 C   0  0  0  0  0  0  0  0  0  0  0  0
    0.2069   -2.3661    0.3283 C   0  0  0  0  0  0  0  0  0  0  0  0
    0.8815   -1.6426   -0.8395 C   0  0  0  0  0  0  0  0  0  0  0  0
   -0.5190    0.4528    0.2382 O   0  0  0  0  0  0  0  0  0  0  0  0
   -0.8463    4.5773   -0.6233 C   0  0  0  0  0  0  0  0  0  0  0  0
  1  2  2  0
  1  6  1  0
  2  3  1  0
  2  8  1  0
  3  4  2  0
  4  5  1  0
  5  6  2  0
  5  9  1  0
  6  7  1  0
  9 10  1  0
  9 22  2  0
 10 11  1  0
 11 12  1  0
 11 23  1  6
 12 13  1  0
 13 14  1  0
 14 15  1  0
 15 16  1  1
 15 17  1  0
 17 18  1  0
 18 19  1  0
 19 20  1  0
 20 21  1  0
 21  4  1  0
M  END
>  <DRUGBANK_ID>  (1) 
DB11478

>  <COMMON_NAME>  (1) 
Zeranol

>  <CAS_NUMBER>  (1) 
26538-44-3

>  <UNII>  (1) 
76LO2L2V39

>  <SYNONYMS>  (1) 
alpha-Zeranol; Zeranol; Zeranolum; Î±-zeranol

$$$$
