
     RDKit          3D

 34 37  0  0  1  0  0  0  0  0999 V2000
   -0.3639    3.7489    0.2522 C   0  0  1  0  0  0  0  0  0  0  0  0
    0.0093    5.0099    1.0663 C   0  0  0  0  0  0  0  0  0  0  0  0
   -0.2415    6.2338    0.1494 C   0  0  0  0  0  0  0  0  0  0  0  0
   -1.1695    5.7180   -0.9356 C   0  0  1  0  0  0  0  0  0  0  0  0
   -2.4648    5.6572   -0.3133 O   0  0  0  0  0  0  0  0  0  0  0  0
   -1.3652    6.4083   -2.2733 C   0  0  0  0  0  0  0  0  0  0  0  0
   -0.8954    7.6307   -2.5142 C   0  0  0  0  0  0  0  0  0  0  0  0
   -1.3439    8.3733   -3.7165 C   0  0  0  0  0  0  0  0  0  0  0  0
   -0.9248    9.4933   -3.9047 O   0  0  0  0  0  0  0  0  0  0  0  0
   -2.3978    7.7319   -4.6247 C   0  0  2  0  0  0  0  0  0  0  0  0
   -3.8171    8.0284   -4.0968 C   0  0  0  0  0  0  0  0  0  0  0  0
   -4.9014    7.4028   -4.9833 C   0  0  1  0  0  0  0  0  0  0  0  0
   -4.9073    8.0264   -6.2724 O   0  0  0  0  0  0  0  0  0  0  0  0
   -4.6901    5.8866   -5.1435 C   0  0  1  0  0  0  0  0  0  0  0  0
   -5.6368    5.3178   -6.0450 O   0  0  0  0  0  0  0  0  0  0  0  0
   -3.2814    5.5910   -5.6606 C   0  0  0  0  0  0  0  0  0  0  0  0
   -2.1573    6.2168   -4.7736 C   0  0  1  0  0  0  0  0  0  0  0  0
   -0.8262    5.9723   -5.5302 C   0  0  0  0  0  0  0  0  0  0  0  0
   -2.1660    5.6366   -3.3198 C   0  0  1  0  0  0  0  0  0  0  0  0
   -1.8151    4.1744   -3.3230 C   0  0  0  0  0  0  0  0  0  0  0  0
   -1.6804    3.6223   -1.8919 C   0  0  0  0  0  0  0  0  0  0  0  0
   -0.5645    4.3333   -1.1663 C   0  0  2  0  0  0  0  0  0  0  0  0
    0.7881    4.4594   -1.9607 C   0  0  0  0  0  0  0  0  0  0  0  0
    0.5539    2.4784    0.4507 C   0  0  1  0  0  0  0  0  0  0  0  0
    2.0584    2.7621    0.3546 C   0  0  0  0  0  0  0  0  0  0  0  0
    0.3089    2.0552    1.8181 O   0  0  0  0  0  0  0  0  0  0  0  0
    0.0791    1.2751   -0.4642 C   0  0  2  0  0  0  0  0  0  0  0  0
    0.5065   -0.0037    0.0145 O   0  0  0  0  0  0  0  0  0  0  0  0
    0.5040    1.3042   -1.9491 C   0  0  0  0  0  0  0  0  0  0  0  0
   -0.0954    0.2710   -2.9160 C   0  0  0  0  0  0  0  0  0  0  0  0
   -1.6441    0.1888   -3.0219 C   0  0  0  0  0  0  0  0  0  0  0  0
   -2.2881    1.3366   -3.7554 C   0  0  0  0  0  0  0  0  0  0  0  0
   -2.0962   -0.9351   -3.8981 C   0  0  0  0  0  0  0  0  0  0  0  0
   -2.1811    0.0178   -1.7164 O   0  0  0  0  0  0  0  0  0  0  0  0
  1  2  1  1
  1 22  1  0
  1 24  1  0
  2  3  1  0
  4  3  1  0
  4  5  1  1
  4  6  1  0
  6  7  2  0
  7  8  1  0
  8  9  2  0
 10  8  1  0
 10 11  1  1
 12 11  1  0
 12 13  1  6
 12 14  1  0
 14 15  1  6
 14 16  1  0
 17 16  1  0
 17 10  1  0
 17 18  1  6
 17 19  1  0
 19  6  1  0
 19 20  1  6
 20 21  1  0
 22 21  1  0
 22  4  1  0
 22 23  1  6
 24 25  1  1
 24 26  1  0
 27 29  1  0
 27 28  1  1
 27 24  1  0
 29 30  1  0
 30 31  1  0
 31 32  1  0
 31 33  1  0
 31 34  1  0
M  END
>  <DRUGBANK_ID>  (1) 
DB16935

>  <COMMON_NAME>  (1) 
20-Hydroxyecdysone

>  <CAS_NUMBER>  (1) 
5289-74-7

>  <UNII>  (1) 
779A7KPL0Y

>  <SYNONYMS>  (1) 
20-hydroxy-.alpha.-ecdysone; Cholest-7-en-6-one, 2,3,14,20,22,25-hexahydroxy-, (2.beta.,3.beta.,5.beta.,22r)-; Commisterone; Crustecdyson; Crustecdysone; Ecdysten; Ecdysteron; Ecdysterone; Ekdisten; Isoinokosterone; Polypodin a; Polypodin c; Polypodine a; Polypodine c; Viticosterone

$$$$
