
     RDKit          3D

 23 23  0  0  1  0  0  0  0  0999 V2000
   -6.5137   -2.6246   -4.9537 C   0  0  0  0  0  0  0  0  0  0  0  0
   -6.6492   -1.4559   -5.6848 C   0  0  0  0  0  0  0  0  0  0  0  0
   -6.2326   -2.5230   -3.6067 C   0  0  0  0  0  0  0  0  0  0  0  0
   -6.4130   -0.1984   -5.0895 C   0  0  0  0  0  0  0  0  0  0  0  0
   -5.5914    1.7589   -1.9159 C   0  0  0  0  0  0  0  0  0  0  0  0
   -4.3882   -0.2808    0.4158 C   0  0  0  0  0  0  0  0  0  0  0  0
   -6.2103   -1.2522   -2.9713 C   0  0  0  0  0  0  0  0  0  0  0  0
   -6.1393   -0.0301   -3.7164 C   0  0  0  0  0  0  0  0  0  0  0  0
   -4.3252    2.6733   -1.5351 C   0  0  2  0  0  0  0  0  0  0  0  0
   -4.2376    1.1946    0.8518 C   0  0  2  0  0  0  0  0  0  0  0  0
   -3.6532    2.3753   -0.0422 C   0  0  1  0  0  0  0  0  0  0  0  0
   -6.4536   -1.4191   -1.5271 C   0  0  0  0  0  0  0  0  0  0  0  0
   -5.8392    1.2956   -3.3033 N   0  0  0  0  0  0  0  0  0  0  0  0
   -4.7827    4.0281   -1.5579 O   0  0  0  0  0  0  0  0  0  0  0  0
   -3.5405    1.1148    2.1050 O   0  0  0  0  0  0  0  0  0  0  0  0
   -2.2108    2.3790   -0.0655 O   0  0  0  0  0  0  0  0  0  0  0  0
   -6.0498   -2.3675   -0.8374 O   0  0  0  0  0  0  0  0  0  0  0  0
   -7.1500   -0.4026   -0.9922 O   0  0  0  0  0  0  0  0  0  0  0  0
   -3.5622    0.5545   -1.8082 O   0  0  0  0  0  0  0  0  0  0  0  0
   -1.6454    0.1582    0.2318 O   0  0  0  0  0  0  0  0  0  0  0  0
   -1.3512    0.7115   -2.1371 O   0  0  0  0  0  0  0  0  0  0  0  0
   -3.3659   -1.0165   -0.2129 O   0  0  0  0  0  0  0  0  0  0  0  0
   -2.3027   -0.1046   -1.2283 P   0  0  0  0  0  0  0  0  0  0  0  0
  2  1  2  0
  3  1  1  0
  4  2  1  0
  7  3  2  0
  8  4  2  0
  8  7  1  0
  9 14  1  1
  9 11  1  0
  9  5  1  0
 10  6  1  0
 10 15  1  1
 11 10  1  0
 11 16  1  6
 12  7  1  0
 13  5  1  0
 13  8  1  0
 17 12  2  0
 18 12  1  0
 22  6  1  0
 23 19  1  0
 23 20  1  0
 23 21  2  0
 23 22  1  0
M  END
>  <DRUGBANK_ID>  (1) 
DB03543

>  <SECONDARY_ACCESSION_NUMBERS>  (1) 
EXPT00024

>  <COMMON_NAME>  (1) 
1-(O-Carboxy-Phenylamino)-1-Deoxy-D-Ribulose-5-Phosphate

$$$$
