
     RDKit          3D

 22 19  0  0  0  0  0  0  0  0999 V2000
    0.6005    0.0537    0.1979 C   0  0  0  0  0  0  0  0  0  0  0  0
    0.6481    1.5768    0.4465 C   0  0  0  0  0  0  0  0  0  0  0  0
    1.1592    2.4361   -0.6228 N   0  0  0  0  0  0  0  0  0  0  0  0
    0.4426    3.7474   -0.7933 C   0  0  0  0  0  0  0  0  0  0  0  0
    0.6579    4.6882    0.3797 C   0  0  0  0  0  0  0  0  0  0  0  0
    1.0318    5.8229    0.3364 O   0  0  0  0  0  0  0  0  0  0  0  0
    0.3872    4.0590    1.5620 O   0  0  0  0  0  0  0  0  0  0  0  0
    2.5912    2.6636   -0.9378 C   0  0  0  0  0  0  0  0  0  0  0  0
    3.3636    3.0685    0.3500 C   0  0  0  0  0  0  0  0  0  0  0  0
    3.8156    2.0451    0.9709 O   0  0  0  0  0  0  0  0  0  0  0  0
    3.3568    4.2532    0.7183 O   0  0  0  0  0  0  0  0  0  0  0  0
    0.1894   -0.4099   -1.1393 N   0  0  0  0  0  0  0  0  0  0  0  0
   -1.3231   -0.4878   -1.2219 C   0  0  0  0  0  0  0  0  0  0  0  0
   -2.2363    0.7463   -1.2246 C   0  0  0  0  0  0  0  0  0  0  0  0
   -3.0822    0.9789   -2.0768 O   0  0  0  0  0  0  0  0  0  0  0  0
   -2.2102    1.4655   -0.0850 O   0  0  0  0  0  0  0  0  0  0  0  0
    0.7920    0.1681   -2.4120 C   0  0  0  0  0  0  0  0  0  0  0  0
    0.4339    1.5827   -2.9834 C   0  0  0  0  0  0  0  0  0  0  0  0
    1.4120    2.1271   -3.5756 O   0  0  0  0  0  0  0  0  0  0  0  0
   -0.7389    1.9896   -2.8237 O   0  0  0  0  0  0  0  0  0  0  0  0
    1.7706   -2.1852   -1.1785 Na  0  0  0  0  0 15  0  0  0  0  0  0
    3.2262    0.4891    0.1393 Na  0  0  0  0  0 15  0  0  0  0  0  0
  1  2  1  0
  1 12  1  0
  2  3  1  0
  3  4  1  0
  3  8  1  0
  4  5  1  0
  5  6  2  0
  5  7  1  0
  8  9  1  0
  9 10  2  0
  9 11  1  0
 12 13  1  0
 12 17  1  0
 13 14  1  0
 14 15  2  0
 14 16  1  0
 17 18  1  0
 18 19  2  0
 18 20  1  0
M  CHG  4  11  -1  20  -1  21   1  22   1
M  END
>  <DRUGBANK_ID>  (1) 
DB14600

>  <SECONDARY_ACCESSION_NUMBERS>  (1) 
DBSALT000838

>  <COMMON_NAME>  (1) 
Edetate disodium anhydrous

>  <CAS_NUMBER>  (1) 
139-33-3

>  <UNII>  (1) 
8NLQ36F6MM

>  <SYNONYMS>  (1) 
Anhydrous disodium edetate; Disodium EDTA, anhydrous; Edetate disodium, anhydrous; EDTA disodium salt (anhydrous)

$$$$
