
     RDKit          3D

 22 23  0  0  0  0  0  0  0  0999 V2000
   -1.3145   -0.9252   -1.0143 Cl  0  0  0  0  0  0  0  0  0  0  0  0
    6.3088   -1.1440    0.0527 S   0  0  0  0  0  0  0  0  0  0  0  0
   -0.3509    2.3037   -0.3433 O   0  0  0  0  0  0  0  0  0  0  0  0
    2.6339   -4.2747   -0.6372 O   0  0  0  0  0  0  0  0  0  0  0  0
    3.8791   -0.0548    0.0995 N   0  0  0  0  0  0  0  0  0  0  0  0
    2.4954    0.0665    0.3373 C   0  0  0  0  0  0  0  0  0  0  0  0
    4.0740   -2.5899   -0.1276 C   0  0  0  0  0  0  0  0  0  0  0  0
    0.3234    1.1362   -0.0501 C   0  0  0  0  0  0  0  0  0  0  0  0
    1.7316    1.2315    0.0779 C   0  0  0  0  0  0  0  0  0  0  0  0
    3.0746   -3.0319   -1.0025 C   0  0  0  0  0  0  0  0  0  0  0  0
    4.6397   -1.2319   -0.0028 C   0  0  0  0  0  0  0  0  0  0  0  0
    1.8132   -1.0504    0.7914 C   0  0  0  0  0  0  0  0  0  0  0  0
   -1.7777    2.4001   -0.0933 C   0  0  0  0  0  0  0  0  0  0  0  0
   -0.2124   -0.1585    0.0245 C   0  0  0  0  0  0  0  0  0  0  0  0
    0.4971   -1.1986    0.5848 C   0  0  0  0  0  0  0  0  0  0  0  0
    4.2734   -3.7028    0.7725 C   0  0  0  0  0  0  0  0  0  0  0  0
   -2.5615    1.8059   -1.2331 C   0  0  0  0  0  0  0  0  0  0  0  0
   -3.4965    0.8297   -1.1314 C   0  0  0  0  0  0  0  0  0  0  0  0
    2.2629   -2.3850   -2.0656 C   0  0  0  0  0  0  0  0  0  0  0  0
    3.3494   -4.6663    0.4432 C   0  0  0  0  0  0  0  0  0  0  0  0
   -3.8372   -0.0014   -2.3682 C   0  0  0  0  0  0  0  0  0  0  0  0
   -3.9317    0.2603    0.2101 C   0  0  0  0  0  0  0  0  0  0  0  0
  1 14  1  0
  2 11  2  0
  3  8  1  0
  3 13  1  0
  4 10  1  0
  4 20  1  0
  5  6  1  0
  5 11  1  0
  6  9  1  0
  6 12  2  0
  7 10  2  0
  7 11  1  0
  7 16  1  0
  8  9  2  0
  8 14  1  0
 10 19  1  0
 12 15  1  0
 13 17  1  0
 14 15  2  0
 16 20  2  0
 17 18  2  3
 18 21  1  0
 18 22  1  0
M  END
>  <DRUGBANK_ID>  (1) 
DB05871

>  <SECONDARY_ACCESSION_NUMBERS>  (1) 
DB08679

>  <COMMON_NAME>  (1) 
UC-781

>  <CAS_NUMBER>  (1) 
178870-32-1

>  <UNII>  (1) 
L7K247H29H

$$$$
