
     RDKit          3D

 20 23  0  0  0  0  0  0  0  0999 V2000
    3.7027   -0.6092    0.5167 C   0  0  1  0  0  0  0  0  0  0  0  0
    3.6325    0.8811    0.1650 C   0  0  1  0  0  0  0  0  0  0  0  0
    1.8193    1.0273    0.3050 C   0  0  2  0  0  0  0  0  0  0  0  0
    0.9454   -0.3053   -0.2992 C   0  0  2  0  0  0  0  0  0  0  0  0
   -0.5770   -0.3529    0.0184 C   0  0  1  0  0  0  0  0  0  0  0  0
   -1.3348    0.9508   -0.3000 C   0  0  1  0  0  0  0  0  0  0  0  0
   -2.6883    0.8401    0.4495 C   0  0  0  0  0  0  0  0  0  0  0  0
   -3.4466   -0.3780   -0.0476 C   0  0  0  0  0  0  0  0  0  0  0  0
   -4.5644   -0.2988   -0.5521 O   0  0  0  0  0  0  0  0  0  0  0  0
   -2.7246   -1.6967    0.0807 C   0  0  0  0  0  0  0  0  0  0  0  0
   -1.3798   -1.5463   -0.6427 C   0  0  0  0  0  0  0  0  0  0  0  0
   -0.5116    2.1654    0.1700 C   0  0  0  0  0  0  0  0  0  0  0  0
    0.9826    2.1819   -0.3568 C   0  0  0  0  0  0  0  0  0  0  0  0
    1.4917   -1.6095    0.2430 C   0  0  0  0  0  0  0  0  0  0  0  0
    2.9042   -1.6393   -0.2246 C   0  0  0  0  0  0  0  0  0  0  0  0
    5.2824    1.0697    0.9604 C   0  0  0  0  0  0  0  0  0  0  0  0
    5.9349   -0.3646    1.2997 C   0  0  0  0  0  0  0  0  0  0  0  0
    5.1465   -0.9466    0.1886 C   0  0  0  0  0  0  0  0  0  0  0  0
    5.5734   -1.3011   -0.8691 O   0  0  0  0  0  0  0  0  0  0  0  0
    3.3621   -0.6164    2.0942 C   0  0  0  0  0  0  0  0  0  0  0  0
  1 20  1  1
  2  1  1  0
  3  2  1  0
  4  3  1  0
  5  4  1  0
  6  5  1  0
  6  7  1  1
  8  7  1  0
  8 10  1  0
  8  9  2  0
 10 11  1  0
  5 11  1  6
 12  6  1  0
 12 13  1  0
  3 13  1  6
  4 14  1  1
 14 15  1  0
 15  1  1  0
  2 16  1  1
 17 16  1  0
 17 18  1  0
 18  1  1  0
 18 19  2  0
M  END
>  <DRUGBANK_ID>  (1) 
DB04693

>  <COMMON_NAME>  (1) 
Estrane-3,17-dione

>  <CAS_NUMBER>  (1) 
5696-58-2

>  <UNII>  (1) 
M6NR2239PB

>  <SYNONYMS>  (1) 
(5alpha)-Estrane-3,17-dione; Estrane-3,17-dione

$$$$
