HSG
     RDKit          3D

 20 20  0  0  0  0  0  0  0  0999 V2000
   -2.1311   10.3650    0.7596 C   0  0  0  0  0  0  0  0  0  0  0  0
   -2.0351    9.8836   -0.6795 C   0  0  0  0  0  0  0  0  0  0  0  0
   -1.0307    8.7376   -0.8028 C   0  0  0  0  0  0  0  0  0  0  0  0
   -1.4294    7.5436    0.0701 C   0  0  0  0  0  0  0  0  0  0  0  0
   -2.8163    7.0109   -0.3170 C   0  0  0  0  0  0  0  0  0  0  0  0
   -2.8207    6.4891   -1.7560 C   0  0  0  0  0  0  0  0  0  0  0  0
   -1.7540    5.4069   -1.9120 C   0  0  0  0  0  0  0  0  0  0  0  0
   -2.1222    4.2225   -1.0078 C   0  0  0  0  0  0  0  0  0  0  0  0
   -3.3582    3.6193   -1.4101 O   0  0  0  0  0  0  0  0  0  0  0  0
   -3.2943    3.0984   -2.7349 C   0  0  2  0  0  0  0  0  0  0  0  0
   -4.5990    2.9096   -3.2796 O   0  0  0  0  0  0  0  0  0  0  0  0
   -4.5442    2.5538   -4.6874 C   0  0  1  0  0  0  0  0  0  0  0  0
   -3.9472    3.6861   -5.5729 C   0  0  0  0  0  0  0  0  0  0  0  0
   -2.5544    3.5538   -5.8418 O   0  0  0  0  0  0  0  0  0  0  0  0
   -3.8596    1.1760   -4.7722 C   0  0  2  0  0  0  0  0  0  0  0  0
   -4.6369    0.2325   -4.0004 O   0  0  0  0  0  0  0  0  0  0  0  0
   -2.4501    1.2000   -4.1746 C   0  0  2  0  0  0  0  0  0  0  0  0
   -1.8704   -0.1064   -4.1340 O   0  0  0  0  0  0  0  0  0  0  0  0
   -2.4394    1.8168   -2.7796 C   0  0  1  0  0  0  0  0  0  0  0  0
   -1.0624    2.0390   -2.4319 O   0  0  0  0  0  0  0  0  0  0  0  0
  1  2  1  0
  2  3  1  0
  3  4  1  0
  4  5  1  0
  5  6  1  0
  6  7  1  0
  7  8  1  0
  8  9  1  0
 10 11  1  0
 10 19  1  0
 10  9  1  1
 11 12  1  0
 12 15  1  0
 12 13  1  6
 13 14  1  0
 15 16  1  1
 15 17  1  0
 17 18  1  1
 17 19  1  0
 19 20  1  6
M  END
>  <DRUGBANK_ID>  (1) 
DB07923

>  <COMMON_NAME>  (1) 
octyl alpha-L-altropyranoside

$$$$
