LGD
     RDKit          3D

 26 27  0  0  0  0  0  0  0  0999 V2000
   -1.0230    1.0399   -0.0044 N   0  0  0  0  0  0  0  0  0  0  0  0
   -2.1105    0.2155   -0.0189 C   0  0  0  0  0  0  0  0  0  0  0  0
   -1.8378   -1.2390   -0.0274 C   0  0  0  0  0  0  0  0  0  0  0  0
   -0.5904   -1.7388    0.0001 C   0  0  0  0  0  0  0  0  0  0  0  0
    0.4040   -3.6353   -1.0161 F   0  0  0  0  0  0  0  0  0  0  0  0
    0.3610   -3.5682    1.1623 F   0  0  0  0  0  0  0  0  0  0  0  0
   -1.4679   -3.9491    0.0480 F   0  0  0  0  0  0  0  0  0  0  0  0
    0.5475   -0.7970    0.0101 C   0  0  0  0  0  0  0  0  0  0  0  0
    1.8837   -1.2291    0.0200 C   0  0  0  0  0  0  0  0  0  0  0  0
    2.9744   -0.3528    0.0789 C   0  0  0  0  0  0  0  0  0  0  0  0
    2.6420    1.0103    0.1613 C   0  0  0  0  0  0  0  0  0  0  0  0
    1.3322    1.4831    0.0690 C   0  0  0  0  0  0  0  0  0  0  0  0
    0.2915    0.5750    0.0143 C   0  0  0  0  0  0  0  0  0  0  0  0
   -0.3290   -3.2110    0.0463 C   0  0  0  0  0  0  0  0  0  0  0  0
    4.6703   -2.2448   -0.0256 C   0  0  0  0  0  0  0  0  0  0  0  0
    4.2905   -0.7968    0.0620 N   0  0  0  0  0  0  0  0  0  0  0  0
    5.4095    0.1893   -0.0538 C   0  0  0  0  0  0  0  0  0  0  0  0
    6.6285   -2.0528   -1.3788 F   0  0  0  0  0  0  0  0  0  0  0  0
    5.6606   -4.0003   -1.2849 F   0  0  0  0  0  0  0  0  0  0  0  0
    4.7275   -2.3830   -2.4129 F   0  0  0  0  0  0  0  0  0  0  0  0
    5.4264   -2.6673   -1.2948 C   0  0  0  0  0  0  0  0  0  0  0  0
    4.4263    1.8094   -1.5897 F   0  0  0  0  0  0  0  0  0  0  0  0
    6.5720    1.8216   -1.3322 F   0  0  0  0  0  0  0  0  0  0  0  0
    5.6173    0.2060   -2.4469 F   0  0  0  0  0  0  0  0  0  0  0  0
    5.4886    1.0072   -1.3685 C   0  0  0  0  0  0  0  0  0  0  0  0
   -3.2569    0.6370   -0.0120 O   0  0  0  0  0  0  0  0  0  0  0  0
  1  2  1  0
  1 13  1  0
  2 26  2  0
  2  3  1  0
  3  4  2  0
  4  8  1  0
  4 14  1  0
  5 14  1  0
  6 14  1  0
  7 14  1  0
  8 13  2  0
  8  9  1  0
  9 10  2  0
 10 11  1  0
 10 16  1  0
 11 12  2  0
 12 13  1  0
 15 16  1  0
 15 21  1  0
 16 17  1  0
 17 25  1  0
 18 21  1  0
 19 21  1  0
 20 21  1  0
 22 25  1  0
 23 25  1  0
 24 25  1  0
M  END
>  <DRUGBANK_ID>  (1) 
DB08089

>  <COMMON_NAME>  (1) 
LGD-2226

>  <CAS_NUMBER>  (1) 
328947-93-9

>  <UNII>  (1) 
RI376RM5MT

>  <SYNONYMS>  (1) 
6-(Bis-(2,2,2-trifluoroethyl)amino)-4-trifluoromethyl-1H-quinolin-2-one

$$$$
