Untitled Document-2
     RDKit          3D

 20 23  0  0  0  0  0  0  0  0999 V2000
    3.8272   -1.3726    4.3229 C   0  0  0  0  0  0  0  0  0  0  0  0
    3.1782   -1.6595    2.9461 C   0  0  0  0  0  0  0  0  0  0  0  0
    3.0178   -0.4673    2.0377 C   0  0  0  0  0  0  0  0  0  0  0  0
    2.1931    0.2708    2.8074 C   0  0  0  0  0  0  0  0  0  0  0  0
    2.6953    0.8163    4.1167 C   0  0  2  0  0  0  0  0  0  0  0  0
    4.0940    0.1460    4.3666 C   0  0  0  0  0  0  0  0  0  0  0  0
    0.7154    0.3096    2.5759 C   0  0  0  0  0  0  0  0  0  0  0  0
   -0.2259    0.1028    3.8596 C   0  0  0  0  0  0  0  0  0  0  0  0
    0.1692    1.0897    5.0639 C   0  0  2  0  0  0  0  0  0  0  0  0
    1.7067    0.6018    5.3207 C   0  0  2  0  0  0  0  0  0  0  0  0
   -0.9622    1.5965    6.4912 C   0  0  1  0  0  0  0  0  0  0  0  0
    0.1569    1.4252    7.3794 C   0  0  2  0  0  0  0  0  0  0  0  0
    1.5029    0.9091    7.6651 C   0  0  0  0  0  0  0  0  0  0  0  0
    2.3788    1.2225    6.5221 C   0  0  0  0  0  0  0  0  0  0  0  0
   -1.1061    2.6182    8.2092 C   0  0  0  0  0  0  0  0  0  0  0  0
   -0.8521    1.7246    9.4514 C   0  0  0  0  0  0  0  0  0  0  0  0
   -0.9245    0.6847    8.4598 C   0  0  2  0  0  0  0  0  0  0  0  0
    2.6460   -2.6904    2.6190 O   0  0  0  0  0  0  0  0  0  0  0  0
    0.3937    3.1395    6.6202 C   0  0  0  0  0  0  0  0  0  0  0  0
   -0.6542   -0.6084    8.9154 O   0  0  0  0  0  0  0  0  0  0  0  0
  1  2  1  0
  2  3  1  0
  2 18  2  0
  3  4  2  0
  4  5  1  0
  4  7  1  0
  5  6  1  1
  6  1  1  0
  7  8  1  0
  9  8  1  1
  9 10  1  0
  9 11  1  0
 10  5  1  0
 11 12  1  0
 11 15  1  6
 12 13  1  0
 12 19  1  1
 13 14  1  0
 10 14  1  1
 15 16  1  0
 16 17  1  0
 17 12  1  0
 17 20  1  1
M  END
>  <DRUGBANK_ID>  (1) 
DB13169

>  <COMMON_NAME>  (1) 
Nandrolone

>  <CAS_NUMBER>  (1) 
434-22-0

>  <UNII>  (1) 
6PG9VR430D

>  <SYNONYMS>  (1) 
(17Î²)-17-hydroxyestr-4-en-3-one; 19-norandrostenolone; 19-nortestosterone; Nandrolona; Nandrolone; Nandrolonum

$$$$
