
     RDKit          3D

 28 31  0  0  1  0  0  0  0  0999 V2000
    1.0358    0.0350   -0.0330 C   0  0  0  0  0  0  0  0  0  0  0  0
    0.5801   -0.5982   -1.3369 C   0  0  0  0  0  0  0  0  0  0  0  0
    1.1083   -1.9972   -1.4393 C   0  0  0  0  0  0  0  0  0  0  0  0
    2.4798   -2.2656   -1.3034 C   0  0  0  0  0  0  0  0  0  0  0  0
    2.9681   -3.5650   -1.3258 C   0  0  0  0  0  0  0  0  0  0  0  0
    2.0995   -4.6195   -1.5654 C   0  0  0  0  0  0  0  0  0  0  0  0
    0.7166   -4.3369   -1.6648 C   0  0  0  0  0  0  0  0  0  0  0  0
    0.2235   -3.0453   -1.6266 C   0  0  0  0  0  0  0  0  0  0  0  0
    2.6850   -6.0150   -1.7179 C   0  0  0  0  0  0  0  0  0  0  0  0
    2.1744   -6.8986   -0.6303 C   0  0  0  0  0  0  0  0  0  0  0  0
    0.7699   -7.1359   -0.7521 C   0  0  0  0  0  0  0  0  0  0  0  0
    0.0302   -7.4286    0.3326 C   0  0  0  0  0  0  0  0  0  0  0  0
    0.8391   -7.6819    1.3695 C   0  0  0  0  0  0  0  0  0  0  0  0
    2.2737   -7.5762    1.6055 C   0  0  0  0  0  0  0  0  0  0  0  0
    2.9826   -7.2056    0.5021 C   0  0  0  0  0  0  0  0  0  0  0  0
    2.5362   -8.1534    3.0109 C   0  0  2  0  0  0  0  0  0  0  0  0
    1.9222   -7.0683    3.9879 C   0  0  1  0  0  0  0  0  0  0  0  0
    0.5556   -7.5181    4.4924 C   0  0  2  0  0  0  0  0  0  0  0  0
    0.5445   -9.1748    4.8003 C   0  0  1  0  0  0  0  0  0  0  0  0
    1.6977  -10.2106    4.0869 C   0  0  2  0  0  0  0  0  0  0  0  0
    2.9300   -9.3110    3.8172 O   0  0  0  0  0  0  0  0  0  0  0  0
    1.4706  -11.2221    2.6501 C   0  0  0  0  0  0  0  0  0  0  0  0
    2.7594  -11.6774    2.2079 O   0  0  0  0  0  0  0  0  0  0  0  0
    0.7971   -9.2311    6.2275 O   0  0  0  0  0  0  0  0  0  0  0  0
   -0.4847   -6.7852    3.7868 O   0  0  0  0  0  0  0  0  0  0  0  0
    2.6909   -6.7111    5.1598 O   0  0  0  0  0  0  0  0  0  0  0  0
    1.7086   -9.0715    2.3091 O   0  0  0  0  0  0  0  0  0  0  0  0
    0.3685   -8.8246    2.0813 C   0  0  0  0  0  0  0  0  0  0  0  0
  1  2  1  0
  2  3  1  0
  3  4  2  0
  3  8  1  0
  4  5  1  0
  5  6  2  0
  6  7  1  0
  6  9  1  0
  7  8  2  0
  9 10  1  0
 10 11  2  0
 10 15  1  0
 11 12  1  0
 12 13  2  0
 13 14  1  0
 13 28  1  0
 14 15  2  0
 16 14  1  0
 16 17  1  0
 16 21  1  6
 16 27  1  0
 17 18  1  0
 17 26  1  1
 18 19  1  0
 18 25  1  6
 19 20  1  0
 19 24  1  1
 20 21  1  0
 20 22  1  6
 22 23  1  0
 27 28  1  0
M  END
>  <DRUGBANK_ID>  (1) 
DB11824

>  <COMMON_NAME>  (1) 
Tofogliflozin

>  <CAS_NUMBER>  (1) 
903565-83-3

>  <UNII>  (1) 
554245W62T

>  <SYNONYMS>  (1) 
Tofogliflozin; Tofogliflozin anhydrous

$$$$
