NP2
     RDKit          3D

 14 14  0  0  0  0  0  0  0  0999 V2000
    0.9390   -0.0708   -0.1063 N   0  0  0  0  0  0  0  0  0  0  0  0
    0.4667   -1.3936    0.2910 C   0  0  0  0  0  0  0  0  0  0  0  0
    0.9214   -1.7727    1.7016 C   0  0  0  0  0  0  0  0  0  0  0  0
    0.4376   -0.8086    2.7848 C   0  0  0  0  0  0  0  0  0  0  0  0
   -1.0134   -0.7343    2.8037 N   0  0  0  0  0  0  0  0  0  0  0  0
   -1.7585   -1.0959    3.9135 C   0  0  0  0  0  0  0  0  0  0  0  0
   -1.3697   -0.5858    5.1624 C   0  0  0  0  0  0  0  0  0  0  0  0
   -2.9064   -1.9148    3.8737 C   0  0  0  0  0  0  0  0  0  0  0  0
   -3.2472   -2.7361    2.6938 N   0  0  0  0  0  0  0  0  0  0  0  0
   -4.2586   -3.4460    2.7582 O   0  0  0  0  0  0  0  0  0  0  0  0
   -2.4908   -2.7103    1.7063 O   0  0  0  0  0  0  0  0  0  0  0  0
   -2.1411   -0.7784    6.3062 C   0  0  0  0  0  0  0  0  0  0  0  0
   -3.7231   -2.0535    5.0129 C   0  0  0  0  0  0  0  0  0  0  0  0
   -3.3297   -1.4924    6.2272 C   0  0  0  0  0  0  0  0  0  0  0  0
  1  2  1  0
  2  3  1  0
  3  4  1  0
  4  5  1  0
  5  6  1  0
  6  7  2  0
  6  8  1  0
  7 12  1  0
  8  9  1  0
  8 13  2  0
  9 10  2  0
  9 11  1  0
 12 14  2  0
 13 14  1  0
M  CHG  2   9   1  11  -1
M  END
>  <DRUGBANK_ID>  (1) 
DB08291

>  <COMMON_NAME>  (1) 
N-(3-AMINOPROPYL)-2-NITROBENZENAMINE

>  <UNII>  (1) 
KSJ78WBX6K

$$$$
