
     RDKit          3D

 11 11  0  0  0  0  0  0  0  0999 V2000
    0.9545    0.0250    0.0161 C   0  0  0  0  0  0  0  0  0  0  0  0
    2.2993    0.2520    0.0242 O   0  0  0  0  0  0  0  0  0  0  0  0
    0.2622   -1.1918    0.0136 C   0  0  0  0  0  0  0  0  0  0  0  0
    0.2523    1.2249    0.0154 C   0  0  0  0  0  0  0  0  0  0  0  0
   -1.1337    1.2459    0.0016 C   0  0  0  0  0  0  0  0  0  0  0  0
   -1.1579   -1.1533   -0.0021 C   0  0  0  0  0  0  0  0  0  0  0  0
   -1.8731    0.0632   -0.0127 C   0  0  0  0  0  0  0  0  0  0  0  0
    0.7637   -2.4690    0.0297 O   0  0  0  0  0  0  0  0  0  0  0  0
   -3.3500    0.0984   -0.0395 C   0  0  0  0  0  0  0  0  0  0  0  0
    2.1686   -2.6568    0.0616 C   0  0  0  0  0  0  0  0  0  0  0  0
   -4.0900    1.2241   -0.0564 C   0  0  0  0  0  0  0  0  0  0  0  0
  2  1  1  0
  3  1  2  0
  4  1  1  0
  5  4  2  0
  6  3  1  0
  7  5  1  0
  7  6  2  0
  8  3  1  0
  8 10  1  0
  9  7  1  0
  9 11  2  0
M  END
>  <DRUGBANK_ID>  (1) 
DB03514

>  <SECONDARY_ACCESSION_NUMBERS>  (1) 
EXPT01375

>  <COMMON_NAME>  (1) 
4-Vinylguaiacol

>  <CAS_NUMBER>  (1) 
7786-61-0

>  <UNII>  (1) 
DA069CTH0O

>  <SYNONYMS>  (1) 
2-(4-hydroxy-3-methoxyphenyl)ethene; 2-methoxy-4-vinylphenol; 2M4VP; 4-ethenyl-2-methoxyphenol; 4-hydroxy-3-methoxyphenylethene; 4-hydroxy-3-methoxystyrene; 4-hydroxy-3-methoxyvinylbenzene; 4-vinyl-2-methoxyphenol; 4-vinylguaiacol; o-methoxy-p-vinylphenol; p-vinylguaiacol; para-vinylguaiacol

$$$$
