OBA
     RDKit          3D

 15 15  0  0  0  0  0  0  0  0999 V2000
    1.3160   -0.2505    0.0080 C   0  0  0  0  0  0  0  0  0  0  0  0
    0.3767   -1.2953    0.0151 C   0  0  0  0  0  0  0  0  0  0  0  0
   -1.0081   -1.0235   -0.0551 C   0  0  0  0  0  0  0  0  0  0  0  0
   -1.3927    0.3044   -0.2940 C   0  0  0  0  0  0  0  0  0  0  0  0
   -0.4794    1.3421   -0.0898 C   0  0  0  0  0  0  0  0  0  0  0  0
    0.8803    1.0701   -0.0023 C   0  0  0  0  0  0  0  0  0  0  0  0
   -2.6892    0.7160   -0.8974 C   0  0  0  0  0  0  0  0  0  0  0  0
   -3.2364    1.7931   -0.7631 O   0  0  0  0  0  0  0  0  0  0  0  0
   -3.2770   -0.3058   -1.5559 O   0  0  0  0  0  0  0  0  0  0  0  0
   -1.9100   -2.1039    0.1432 N   0  0  0  0  0  0  0  0  0  0  0  0
   -3.2811   -2.1055    0.4222 C   0  0  0  0  0  0  0  0  0  0  0  0
   -3.9461   -3.1247    0.2493 O   0  0  0  0  0  0  0  0  0  0  0  0
   -4.0115   -0.8172    0.9432 C   0  0  0  0  0  0  0  0  0  0  0  0
   -3.5420    0.0041    1.7172 O   0  0  0  0  0  0  0  0  0  0  0  0
   -5.1487   -0.5661    0.2509 O   0  0  0  0  0  0  0  0  0  0  0  0
  1  2  2  0
  1  6  1  0
  2  3  1  0
  3  4  2  0
  3 10  1  0
  4  5  1  0
  4  7  1  0
  5  6  2  0
  7  8  2  0
  7  9  1  0
 10 11  1  0
 11 12  2  0
 11 13  1  0
 13 14  2  0
 13 15  1  0
M  END
>  <DRUGBANK_ID>  (1) 
DB02622

>  <SECONDARY_ACCESSION_NUMBERS>  (1) 
EXPT02412

>  <COMMON_NAME>  (1) 
2-(Oxalyl-Amino)-Benzoic Acid

$$$$
