51-83-2
     RDKit          3D

 10  9  0  0  0  0  0  0  0  0999 V2000
    1.0442   -0.0077    0.0183 C   0  0  0  0  0  0  0  0  0  0  0  0
    0.5579    0.1873    1.4572 N   0  0  0  0  0  0  0  0  0  0  0  0
    1.0851    1.4857    2.0608 C   0  0  0  0  0  0  0  0  0  0  0  0
   -0.9634    0.1683    1.4884 C   0  0  0  0  0  0  0  0  0  0  0  0
    1.0867   -0.9796    2.2941 C   0  0  0  0  0  0  0  0  0  0  0  0
    0.6704    1.1639   -0.9015 C   0  0  0  0  0  0  0  0  0  0  0  0
    1.2124    0.9995   -2.2129 O   0  0  0  0  0  0  0  0  0  0  0  0
    2.5431    1.0011   -2.4636 C   0  0  0  0  0  0  0  0  0  0  0  0
    3.3877    1.1683   -1.4101 N   0  0  0  0  0  0  0  0  0  0  0  0
    2.9818    0.8201   -3.5904 O   0  0  0  0  0  0  0  0  0  0  0  0
  1  2  1  0
  1  6  1  0
  2  3  1  0
  2  4  1  0
  2  5  1  0
  6  7  1  0
  7  8  1  0
  8  9  1  0
  8 10  2  0
M  CHG  1   2   1
M  END
>  <DRUGBANK_ID>  (1) 
DB00411

>  <SECONDARY_ACCESSION_NUMBERS>  (1) 
APRD00845; DB02487

>  <COMMON_NAME>  (1) 
Carbamoylcholine

>  <CAS_NUMBER>  (1) 
462-58-8

>  <UNII>  (1) 
54Z8M50D6Q

>  <SYNONYMS>  (1) 
Carbacholine; carbacol; Carbamylcholine; Choline carbamate

$$$$
