
     RDKit          3D

 27 28  0  0  1  0  0  0  0  0999 V2000
   -0.6642    8.4208    0.6539 N   0  0  0  0  0  0  0  0  0  0  0  0
   -0.7776    7.0945    1.0372 C   0  0  0  0  0  0  0  0  0  0  0  0
    0.6284    9.1133    0.4485 C   0  0  2  0  0  0  0  0  0  0  0  0
   -2.2622    5.2855    0.3645 N   0  0  0  0  0  0  0  0  0  0  0  0
   -2.1779    6.4737    1.2297 C   0  0  1  0  0  0  0  0  0  0  0  0
    1.9032    8.6345    1.1636 C   0  0  0  0  0  0  0  0  0  0  0  0
   -3.3249    3.1058    0.0318 C   0  0  0  0  0  0  0  0  0  0  0  0
   -3.5381    4.5629    0.4638 C   0  0  2  0  0  0  0  0  0  0  0  0
    0.2007    6.3950    1.3134 O   0  0  0  0  0  0  0  0  0  0  0  0
    2.6196    9.3049    1.8990 O   0  0  0  0  0  0  0  0  0  0  0  0
   -2.6550    2.7572   -0.9333 O   0  0  0  0  0  0  0  0  0  0  0  0
   -4.5927    5.2589   -0.4083 C   0  0  0  0  0  0  0  0  0  0  0  0
   -1.7633    9.3287    0.3357 C   0  0  0  0  0  0  0  0  0  0  0  0
    2.2785    7.3963    0.7839 O   0  0  0  0  0  0  0  0  0  0  0  0
   -4.0449    2.2645    0.8340 O   0  0  0  0  0  0  0  0  0  0  0  0
   -5.9930    4.6712   -0.2073 C   0  0  0  0  0  0  0  0  0  0  0  0
    0.2545   10.5538    0.8403 C   0  0  0  0  0  0  0  0  0  0  0  0
   -6.4218    4.7780    1.2378 C   0  0  0  0  0  0  0  0  0  0  0  0
   -1.1482   10.7263    0.2643 C   0  0  0  0  0  0  0  0  0  0  0  0
   -2.2603    6.0673    2.7100 C   0  0  0  0  0  0  0  0  0  0  0  0
   -4.0191    0.8684    0.5032 C   0  0  0  0  0  0  0  0  0  0  0  0
   -6.6014    3.6150    1.9977 C   0  0  0  0  0  0  0  0  0  0  0  0
   -6.4979    6.0249    1.8744 C   0  0  0  0  0  0  0  0  0  0  0  0
   -6.8118    3.6928    3.3724 C   0  0  0  0  0  0  0  0  0  0  0  0
   -6.6654    6.0987    3.2567 C   0  0  0  0  0  0  0  0  0  0  0  0
   -6.8433    4.9345    4.0015 C   0  0  0  0  0  0  0  0  0  0  0  0
   -4.6849    0.6019   -0.8362 C   0  0  0  0  0  0  0  0  0  0  0  0
  2  1  1  0
  3  1  1  0
  3  6  1  1
  5  2  1  0
  5  4  1  0
  5 20  1  1
  8  7  1  0
  8  4  1  0
  9  2  2  0
 10  6  2  0
 11  7  2  0
  8 12  1  6
 13  1  1  0
 14  6  1  0
 15  7  1  0
 16 12  1  0
 17  3  1  0
 18 16  1  0
 19 13  1  0
 19 17  1  0
 21 15  1  0
 21 27  1  0
 22 18  2  0
 23 18  1  0
 24 22  1  0
 25 23  2  0
 26 24  2  0
 26 25  1  0
M  END
>  <DRUGBANK_ID>  (1) 
DB00584

>  <SECONDARY_ACCESSION_NUMBERS>  (1) 
APRD00510

>  <COMMON_NAME>  (1) 
Enalapril

>  <CAS_NUMBER>  (1) 
75847-73-3

>  <UNII>  (1) 
69PN84IO1A

>  <SYNONYMS>  (1) 
(S)-1-(N-(1-(ethoxycarbonyl)-3-phenylpropyl)-L-alanyl)-L-proline; (S)-1-{(S)-2-[1-((S)-Ethoxycarbonyl)-3-phenyl-propylamino]-propionyl}-pyrrolidine-2-carboxylic acid; 1-(N-((S)-1-carboxy-3-phenylpropyl)-L-alanyl)-L-proline 1'-ethyl ester; Ã¡nalapril; Enalapril; Enalaprila; Enalaprilum

$$$$
