
     RDKit          3D

 35 38  0  0  1  0  0  0  0  0999 V2000
    0.7687   -0.2973   -0.4054 C   0  0  2  0  0  0  0  0  0  0  0  0
   -0.1304    1.5409   -0.2205 C   0  0  1  0  0  0  0  0  0  0  0  0
    0.0586    3.8497   -0.4182 C   0  0  2  0  0  0  0  0  0  0  0  0
    1.3225    2.4132   -0.1668 C   0  0  1  0  0  0  0  0  0  0  0  0
    2.2547    1.0002   -0.0961 C   0  0  1  0  0  0  0  0  0  0  0  0
    2.0667   -0.4102    0.2870 C   0  0  0  0  0  0  0  0  0  0  0  0
   -1.3301   -0.0379   -0.4513 C   0  0  1  0  0  0  0  0  0  0  0  0
   -2.2747    0.9550   -0.3725 N   0  0  0  0  0  0  0  0  0  0  0  0
   -1.5076    2.5465   -0.1861 C   0  0  0  0  0  0  0  0  0  0  0  0
   -1.8658    2.5261    1.0193 O   0  0  0  0  0  0  0  0  0  0  0  0
    2.3246   -0.9543    1.4806 C   0  0  0  0  0  0  0  0  0  0  0  0
    1.1898   -1.8039   -1.4297 C   0  0  0  0  0  0  0  0  0  0  0  0
    2.3500    0.7335   -1.4811 O   0  0  0  0  0  0  0  0  0  0  0  0
    1.2301    7.8903   -1.5001 C   0  0  0  0  0  0  0  0  0  0  0  0
    1.3771    9.3759   -2.9982 C   0  0  0  0  0  0  0  0  0  0  0  0
    0.8689    2.1599   -1.7989 C   0  0  0  0  0  0  0  0  0  0  0  0
    0.7095    5.9109   -0.8195 O   0  0  0  0  0  0  0  0  0  0  0  0
    1.9135    9.2171   -1.1884 O   0  0  0  0  0  0  0  0  0  0  0  0
    2.3804    8.7181   -3.5082 C   0  0  0  0  0  0  0  0  0  0  0  0
    2.0249    7.8001   -4.5363 C   0  0  1  0  0  0  0  0  0  0  0  0
    0.6895    3.9818   -3.2607 C   0  0  0  0  0  0  0  0  0  0  0  0
    1.1669    3.3694   -2.0881 C   0  0  0  0  0  0  0  0  0  0  0  0
    0.7164    7.1380   -4.2420 C   0  0  0  0  0  0  0  0  0  0  0  0
    0.7650    6.4986   -2.9194 C   0  0  0  0  0  0  0  0  0  0  0  0
    2.1815    5.7157   -2.6007 C   0  0  0  0  0  0  0  0  0  0  0  0
    2.0500    4.5076   -3.5654 C   0  0  1  0  0  0  0  0  0  0  0  0
    2.7778    8.4130   -5.5179 O   0  0  0  0  0  0  0  0  0  0  0  0
    2.6758    3.1694   -3.8145 C   0  0  0  0  0  0  0  0  0  0  0  0
   -1.1457   -1.7997   -1.2480 C   0  0  0  0  0  0  0  0  0  0  0  0
   -0.1908   -3.0834   -0.1551 C   0  0  0  0  0  0  0  0  0  0  0  0
   -0.8842   -4.0393    0.4357 C   0  0  0  0  0  0  0  0  0  0  0  0
   -0.0589   -5.1015    0.8121 C   0  0  0  0  0  0  0  0  0  0  0  0
    1.3366   -5.3698    0.4912 C   0  0  0  0  0  0  0  0  0  0  0  0
    2.0637   -4.7274   -0.4032 C   0  0  0  0  0  0  0  0  0  0  0  0
    1.4268   -3.6193   -0.5674 C   0  0  0  0  0  0  0  0  0  0  0  0
  2  1  1  6
  1  6  1  0
  1 12  1  6
  2  3  1  0
  2  7  1  0
  3  4  1  0
  3  9  1  0
  3 17  1  6
  4  5  1  0
  4 16  1  6
  5  6  1  0
  5 13  1  6
  6 11  2  0
  7  8  1  0
  7 29  1  6
  8  9  1  0
  9 10  2  0
 14 15  1  0
 14 18  2  0
 15 19  2  0
 16 22  2  0
 17 14  1  0
 19 20  1  0
 20 23  1  0
 20 27  1  6
 21 22  1  0
 21 26  1  0
 23 24  1  0
 24 25  1  0
 25 26  1  0
 26 28  1  1
 29 30  1  0
 30 31  2  0
 30 35  1  0
 31 32  1  0
 32 33  2  0
 33 34  1  0
 34 35  2  0
M  END
>  <DRUGBANK_ID>  (1) 
DB16766

>  <COMMON_NAME>  (1) 
Cytochalasin B

>  <CAS_NUMBER>  (1) 
14930-96-2

>  <UNII>  (1) 
3CHI920QS7

>  <SYNONYMS>  (1) 
Cytochalasin-B; Phomin

$$$$
