
     RDKit          3D

 34 31  0  0  0  0  0  0  0  0999 V2000
    0.9627    0.0883    0.0284 C   0  0  0  0  0  0  0  0  0  0  0  0
    0.4560   -1.0153    0.9426 C   0  0  0  0  0  0  0  0  0  0  0  0
    0.9627   -0.7754    2.3554 C   0  0  0  0  0  0  0  0  0  0  0  0
    0.4560    0.5681    2.8541 C   0  0  0  0  0  0  0  0  0  0  0  0
   -1.0640    0.5681    2.8541 C   0  0  0  0  0  0  0  0  0  0  0  0
   -1.5706   -0.5355    3.7683 C   0  0  0  0  0  0  0  0  0  0  0  0
   -1.0640   -0.2956    5.1811 C   0  0  0  0  0  0  0  0  0  0  0  0
   -1.5707    1.0479    5.6798 C   0  0  0  0  0  0  0  0  0  0  0  0
   -3.0907    1.0479    5.6798 C   0  0  0  0  0  0  0  0  0  0  0  0
   -3.5973   -0.0557    6.5940 C   0  0  0  0  0  0  0  0  0  0  0  0
   -3.0907    0.1841    8.0068 C   0  0  0  0  0  0  0  0  0  0  0  0
   -3.5973    1.5276    8.5055 C   0  0  0  0  0  0  0  0  0  0  0  0
   -5.1173    1.5276    8.5055 C   0  0  0  0  0  0  0  0  0  0  0  0
   -5.6240    0.4240    9.4197 C   0  0  0  0  0  0  0  0  0  0  0  0
   -5.1173    0.6639   10.8325 C   0  0  0  0  0  0  0  0  0  0  0  0
   -5.6240    2.0074   11.3312 C   0  0  0  0  0  0  0  0  0  0  0  0
   -7.1440    2.0074   11.3312 C   0  0  0  0  0  0  0  0  0  0  0  0
   -7.6507    0.9038   12.2454 C   0  0  0  0  0  0  0  0  0  0  0  0
   -7.1607    1.1358   13.6118 N   0  0  0  0  0  0  0  0  0  0  0  0
   -7.6507    0.0685   14.4959 C   0  0  0  0  0  0  0  0  0  0  0  0
   -7.1440   -1.2750   13.9972 C   0  0  0  0  0  0  0  0  0  0  0  0
   -5.6240   -1.2750   13.9972 C   0  0  0  0  0  0  0  0  0  0  0  0
   -5.1340   -1.0430   15.3636 N   0  0  0  0  0  0  0  0  0  0  0  0
   -3.6640   -1.0430   15.3636 C   0  0  0  0  0  0  0  0  0  0  0  0
   -3.1574    0.0606   14.4494 C   0  0  0  0  0  0  0  0  0  0  0  0
   -3.6307    1.3157   14.9153 O   0  0  0  0  0  0  0  0  0  0  0  0
   -5.6240    0.2563   15.8458 C   0  0  0  0  0  0  0  0  0  0  0  0
   -5.1174    1.3599   14.9317 C   0  0  0  0  0  0  0  0  0  0  0  0
   -5.5907    1.1358   13.6118 O   0  0  0  0  0  0  0  0  0  0  0  0
   -5.6907    1.1358   13.6118 C   0  0  0  0  0  0  0  0  0  0  0  0
   -5.1840   -0.2077   13.1131 C   0  0  0  0  0  0  0  0  0  0  0  0
   -5.6573   -0.4318   11.7932 O   0  0  0  0  0  0  0  0  0  0  0  0
    0.9559    0.0785    0.0434 F   0  0  0  0  0  0  0  0  0  0  0  0
    0.9965    0.0781    0.0623 F   0  0  0  0  0  0  0  0  0  0  0  0
  1  2  1  0
  2  3  1  0
  3  4  1  0
  4  5  1  0
  5  6  1  0
  6  7  1  0
  7  8  1  0
  8  9  1  0
  9 10  1  0
 10 11  1  0
 11 12  1  0
 12 13  1  0
 13 14  1  0
 14 15  1  0
 15 16  1  0
 16 17  1  0
 17 18  1  0
 18 19  1  0
 19 20  1  0
 19 30  1  0
 20 21  1  0
 21 22  1  0
 22 23  1  0
 23 24  1  0
 23 27  1  0
 24 25  1  0
 25 26  1  0
 27 28  1  0
 28 29  1  0
 30 31  1  0
 31 32  1  0
M  END
>  <DRUGBANK_ID>  (1) 
DB13290

>  <COMMON_NAME>  (1) 
Olaflur

>  <CAS_NUMBER>  (1) 
6818-37-7

>  <UNII>  (1) 
8NY9L8837D

>  <SYNONYMS>  (1) 
Olaflur

$$$$
