
     RDKit          3D

 25 28  0  0  0  0  0  0  0  0999 V2000
    2.1715    0.7528   -0.0398 C   0  0  0  0  0  0  0  0  0  0  0  0
   -5.5626    2.1086    5.2960 C   0  0  0  0  0  0  0  0  0  0  0  0
    0.9381    1.4243   -0.0143 C   0  0  0  0  0  0  0  0  0  0  0  0
   -5.5801    0.9557    4.4929 C   0  0  0  0  0  0  0  0  0  0  0  0
    1.0383   -1.4099   -0.0122 C   0  0  0  0  0  0  0  0  0  0  0  0
   -4.4137    3.3702    3.5751 C   0  0  0  0  0  0  0  0  0  0  0  0
   -3.7753   -0.0396    0.0125 C   0  0  0  0  0  0  0  0  0  0  0  0
    2.2404   -0.6538   -0.0357 C   0  0  0  0  0  0  0  0  0  0  0  0
   -4.9820    3.3240    4.8711 C   0  0  0  0  0  0  0  0  0  0  0  0
   -0.2455    0.6803   -0.0148 C   0  0  0  0  0  0  0  0  0  0  0  0
   -5.0142    1.0163    3.2189 C   0  0  0  0  0  0  0  0  0  0  0  0
   -0.1751   -0.7047   -0.0145 C   0  0  0  0  0  0  0  0  0  0  0  0
   -4.4630    2.2131    2.7872 C   0  0  0  0  0  0  0  0  0  0  0  0
   -2.2798    0.0168   -0.0300 C   0  0  0  0  0  0  0  0  0  0  0  0
   -4.2677    0.6126    1.2575 C   0  0  0  0  0  0  0  0  0  0  0  0
    3.5931   -1.3381   -0.0406 C   0  0  0  0  0  0  0  0  0  0  0  0
   -4.9722    4.5233    5.7609 C   0  0  0  0  0  0  0  0  0  0  0  0
    3.6820   -2.6268   -0.0089 N   0  0  0  0  0  0  0  0  0  0  0  0
    4.8058   -0.5654   -0.0561 N   0  0  0  0  0  0  0  0  0  0  0  0
   -4.4207    5.6531    5.3627 N   0  0  0  0  0  0  0  0  0  0  0  0
   -5.5056    4.4854    6.9664 N   0  0  0  0  0  0  0  0  0  0  0  0
   -1.5386    1.1097   -0.0215 N   0  0  0  0  0  0  0  0  0  0  0  0
   -4.8788    0.0371    2.2712 N   0  0  0  0  0  0  0  0  0  0  0  0
   -1.4922   -1.1093   -0.0210 N   0  0  0  0  0  0  0  0  0  0  0  0
   -4.0323    1.9433    1.5144 N   0  0  0  0  0  0  0  0  0  0  0  0
  3  1  2  0
  4  2  2  0
  8  1  1  0
  8  5  2  0
  9  2  1  0
  9  6  2  0
 10  3  1  0
 11  4  1  0
 12  5  1  0
 12 10  2  0
 13  6  1  0
 13 11  2  0
 14  7  1  0
 15  7  1  0
 16  8  1  0
 17  9  1  0
 18 16  2  0
 19 16  1  0
 20 17  2  0
 21 17  1  0
 22 10  1  0
 22 14  2  0
 23 11  1  0
 23 15  2  0
 24 12  1  0
 24 14  1  0
 25 13  1  0
 25 15  1  0
M  CHG  3  18   1  19   1  20   1
M  END
>  <DRUGBANK_ID>  (1) 
DB01705

>  <SECONDARY_ACCESSION_NUMBERS>  (1) 
EXPT00620

>  <COMMON_NAME>  (1) 
Bis(5-Amidino-Benzimidazolyl)Methane

$$$$
