
     RDKit          3D

 19 21  0  0  1  0  0  0  0  0999 V2000
    2.3346   -0.7136   -0.5038 C   0  0  0  0  0  0  0  0  0  0  0  0
    2.1326    0.6491   -0.2772 C   0  0  0  0  0  0  0  0  0  0  0  0
    0.7343    0.7732   -0.1515 C   0  0  0  0  0  0  0  0  0  0  0  0
    0.1611   -0.4707   -0.1427 C   0  0  0  0  0  0  0  0  0  0  0  0
    1.1567   -1.3887   -0.2650 N   0  0  0  0  0  0  0  0  0  0  0  0
   -1.2348   -0.6787   -0.0278 C   0  0  0  0  0  0  0  0  0  0  0  0
   -1.7889   -1.7774    0.0247 O   0  0  0  0  0  0  0  0  0  0  0  0
   -1.9193    0.5076   -0.0091 N   0  0  0  0  0  0  0  0  0  0  0  0
   -1.2856    1.7338   -0.0016 C   0  0  0  0  0  0  0  0  0  0  0  0
   -0.0066    1.9470   -0.0242 N   0  0  0  0  0  0  0  0  0  0  0  0
    3.1636    1.7351   -0.1231 C   0  0  0  0  0  0  0  0  0  0  0  0
    3.9919    1.5872    1.0953 N   0  0  0  0  0  0  0  0  0  0  0  0
    3.2387    1.7677    2.3447 C   0  0  0  0  0  0  0  0  0  0  0  0
    3.6674    0.6332    3.2907 C   0  0  1  0  0  0  0  0  0  0  0  0
    4.0803   -0.4762    2.3405 C   0  0  2  0  0  0  0  0  0  0  0  0
    4.7155    0.3081    1.1757 C   0  0  0  0  0  0  0  0  0  0  0  0
    2.8995   -1.2067    2.0461 O   0  0  0  0  0  0  0  0  0  0  0  0
    4.8412    0.9639    4.1909 C   0  0  0  0  0  0  0  0  0  0  0  0
    4.5648    2.1088    4.9761 O   0  0  0  0  0  0  0  0  0  0  0  0
  1  2  2  0
  1  5  1  0
  2  3  1  0
  2 11  1  0
  3  4  2  0
  3 10  1  0
  4  5  1  0
  4  6  1  0
  6  7  2  0
  6  8  1  0
  8  9  1  0
  9 10  2  0
 11 12  1  0
 12 13  1  0
 12 16  1  0
 13 14  1  0
 14 15  1  0
 14 18  1  6
 15 16  1  0
 15 17  1  6
 18 19  1  0
M  END
>  <DRUGBANK_ID>  (1) 
DB12353

>  <SECONDARY_ACCESSION_NUMBERS>  (1) 
DB05568

>  <COMMON_NAME>  (1) 
Ulodesine

>  <CAS_NUMBER>  (1) 
548486-59-5

>  <UNII>  (1) 
JNG8L9460Y

>  <SYNONYMS>  (1) 
4H-PYRROLO(3,2-D)PYRIMIDIN-4-ONE, 1,5-DIHYDRO-7-(((3R,4R)-3-HYDROXY-4-(HYDROXYMETHYL)-1-PYRROLIDINYL)METHYL)-; 7-(((3R,4R)-3-HYDROXY-4-(HYDROXYMETHYL)PYRROLIDIN-1-YL)METHYL(-1,5-DIHYDRO-4H-PYRROLO(3,2-D)PYRIMIDIN-4-ONE; 7-(((3R,4R)-3-HYDROXY-4-(HYDROXYMETHYL)PYRROLIDIN-1-YL)METHYL)-3,5-DIHYDRO-4H-PYRROLO(3,2-D)PYRIMIDIN-4-ONE; DADME-IMMUCILLIN H; Ulodesine

$$$$
