TFQ
     RDKit          3D

 17 17  0  0  0  0  0  0  0  0999 V2000
    1.0478    0.1117    0.0501 F   0  0  0  0  0  0  0  0  0  0  0  0
    2.3983    0.1130    0.0076 C   0  0  0  0  0  0  0  0  0  0  0  0
    2.8389   -1.0029    0.6306 F   0  0  0  0  0  0  0  0  0  0  0  0
    2.8256    1.1683    0.7388 F   0  0  0  0  0  0  0  0  0  0  0  0
    2.9173    0.2198   -1.4152 C   0  0  0  0  0  0  0  0  0  0  0  0
    2.5288   -0.9742   -2.2408 C   0  0  0  0  0  0  0  0  0  0  0  0
    1.5862   -0.8678   -3.2581 C   0  0  0  0  0  0  0  0  0  0  0  0
    1.2528   -1.9985   -3.9895 C   0  0  0  0  0  0  0  0  0  0  0  0
    3.1110   -2.2203   -1.9649 C   0  0  0  0  0  0  0  0  0  0  0  0
    2.7062   -3.3654   -2.6437 C   0  0  0  0  0  0  0  0  0  0  0  0
    1.7560   -3.2643   -3.6593 C   0  0  0  0  0  0  0  0  0  0  0  0
    1.3028   -4.4761   -4.4331 C   0  0  0  0  0  0  0  0  0  0  0  0
   -0.1664   -4.8968   -4.2148 C   0  0  2  0  0  0  0  0  0  0  0  0
   -0.3962   -6.1397   -5.0048 N   0  0  0  0  0  0  0  0  0  0  0  0
   -1.1966   -3.8410   -4.6726 C   0  0  0  0  0  0  0  0  0  0  0  0
   -1.7934   -3.8368   -5.7343 O   0  0  0  0  0  0  0  0  0  0  0  0
   -1.3739   -2.8358   -3.7900 O   0  0  0  0  0  0  0  0  0  0  0  0
  1  2  1  0
  2  4  1  0
  2  3  1  0
  2  5  1  0
  5  6  1  0
  6  9  2  0
  6  7  1  0
  7  8  2  0
  8 11  1  0
  9 10  1  0
 10 11  2  0
 11 12  1  0
 12 13  1  0
 13 15  1  0
 13 14  1  6
 15 16  2  0
 15 17  1  0
M  END
>  <DRUGBANK_ID>  (1) 
DB08617

>  <COMMON_NAME>  (1) 
4-(2,2,2-TRIFLUOROETHYL)-L-PHENYLALANINE

$$$$
