
     RDKit          3D

 25 27  0  0  0  0  0  0  0  0999 V2000
    2.3700   -0.6807   -0.0943 C   0  0  0  0  0  0  0  0  0  0  0  0
    2.3815    0.8224    0.0425 C   0  0  0  0  0  0  0  0  0  0  0  0
    1.1238   -1.1398   -0.3360 C   0  0  0  0  0  0  0  0  0  0  0  0
    3.6805   -1.4765   -0.2243 C   0  0  0  0  0  0  0  0  0  0  0  0
    1.1600    1.5075    0.1109 N   0  0  0  0  0  0  0  0  0  0  0  0
   -0.1204   -0.5294    0.0467 C   0  0  0  0  0  0  0  0  0  0  0  0
   -0.1035    0.8454    0.1140 C   0  0  0  0  0  0  0  0  0  0  0  0
    3.7766   -2.9033   -0.1577 N   0  0  0  0  0  0  0  0  0  0  0  0
    0.8660   -2.2361   -1.0702 O   0  0  0  0  0  0  0  0  0  0  0  0
    3.4582    1.4577    0.0065 O   0  0  0  0  0  0  0  0  0  0  0  0
   -1.3271   -1.2682    0.1509 C   0  0  0  0  0  0  0  0  0  0  0  0
    4.7209   -0.8086   -0.3516 O   0  0  0  0  0  0  0  0  0  0  0  0
    5.0751   -3.4822   -0.3206 C   0  0  0  0  0  0  0  0  0  0  0  0
    1.1834    2.9546    0.0791 C   0  0  0  0  0  0  0  0  0  0  0  0
   -1.3344    1.4928    0.0898 C   0  0  0  0  0  0  0  0  0  0  0  0
   -1.4234   -2.9789    0.4456 Cl  0  0  0  0  0  0  0  0  0  0  0  0
    2.7733   -3.9765    0.0931 C   0  0  0  0  0  0  0  0  0  0  0  0
   -2.5144    0.7658   -0.1316 C   0  0  0  0  0  0  0  0  0  0  0  0
   -2.5271   -0.6157   -0.0211 C   0  0  0  0  0  0  0  0  0  0  0  0
    6.1330   -3.0956    0.5025 C   0  0  0  0  0  0  0  0  0  0  0  0
    5.2712   -4.4800   -1.2844 C   0  0  0  0  0  0  0  0  0  0  0  0
    1.9890   -3.6869    1.3695 C   0  0  0  0  0  0  0  0  0  0  0  0
    7.3679   -3.7244    0.3788 C   0  0  0  0  0  0  0  0  0  0  0  0
    6.5533   -4.9506   -1.5361 C   0  0  0  0  0  0  0  0  0  0  0  0
    7.5897   -4.6167   -0.6691 C   0  0  0  0  0  0  0  0  0  0  0  0
  2  1  1  0
  3  1  2  0
  4  1  1  0
  5  2  1  0
  6  3  1  0
  6  7  2  0
  7  5  1  0
  8  4  1  0
  9  3  1  0
 10  2  2  0
 11  6  1  0
 12  4  2  0
 13  8  1  0
 14  5  1  0
 15  7  1  0
 16 11  1  0
 17  8  1  0
 18 15  2  0
 19 11  2  0
 19 18  1  0
 20 13  2  0
 21 13  1  0
 22 17  1  0
 23 20  1  0
 24 21  2  0
 24 25  1  0
 25 23  2  0
M  END
>  <DRUGBANK_ID>  (1) 
DB06685

>  <COMMON_NAME>  (1) 
Laquinimod

>  <CAS_NUMBER>  (1) 
248281-84-7

>  <UNII>  (1) 
908SY76S4G

>  <SYNONYMS>  (1) 
Laquinimod

$$$$
