
     RDKit          3D

 30 34  0  0  0  0  0  0  0  0999 V2000
    1.0293    0.2742    0.0959 C   0  0  0  0  0  0  0  0  0  0  0  0
    0.4297    1.6066    0.3717 C   0  0  0  0  0  0  0  0  0  0  0  0
   -0.8992    1.9817    0.3722 C   0  0  0  0  0  0  0  0  0  0  0  0
   -0.9527    3.3968    0.3215 C   0  0  0  0  0  0  0  0  0  0  0  0
    0.3537    3.8526    0.5040 C   0  0  0  0  0  0  0  0  0  0  0  0
    1.1574    2.7419    0.6436 N   0  0  0  0  0  0  0  0  0  0  0  0
    0.6746    5.2054    0.5378 C   0  0  0  0  0  0  0  0  0  0  0  0
   -0.3869    6.1008    0.4538 C   0  0  0  0  0  0  0  0  0  0  0  0
   -1.6959    5.6889    0.1640 C   0  0  0  0  0  0  0  0  0  0  0  0
   -1.9853    4.3281    0.1089 C   0  0  0  0  0  0  0  0  0  0  0  0
   -3.2277    3.9061   -0.1767 F   0  0  0  0  0  0  0  0  0  0  0  0
   -2.7226    6.5624   -0.1139 O   0  0  0  0  0  0  0  0  0  0  0  0
   -2.3949    7.8616   -0.4652 C   0  0  0  0  0  0  0  0  0  0  0  0
   -3.0472    8.8529    0.2330 C   0  0  0  0  0  0  0  0  0  0  0  0
   -2.5315   10.0963   -0.0145 C   0  0  0  0  0  0  0  0  0  0  0  0
   -1.9069   10.3623   -1.2212 N   0  0  0  0  0  0  0  0  0  0  0  0
   -1.5234    9.3049   -2.1298 C   0  0  0  0  0  0  0  0  0  0  0  0
   -1.3840    8.1485   -1.4415 C   0  0  0  0  0  0  0  0  0  0  0  0
   -0.3167    7.3612   -1.9699 C   0  0  0  0  0  0  0  0  0  0  0  0
    0.5675    7.8158   -2.9757 C   0  0  0  0  0  0  0  0  0  0  0  0
   -0.1871    7.7520   -4.0467 C   0  0  0  0  0  0  0  0  0  0  0  0
   -1.1675    8.8510   -3.6373 C   0  0  0  0  0  0  0  0  0  0  0  0
   -0.3363    6.3211   -4.2900 O   0  0  0  0  0  0  0  0  0  0  0  0
    0.8477    5.3816   -4.6738 C   0  0  0  0  0  0  0  0  0  0  0  0
    0.6919    5.1475   -6.1696 C   0  0  0  0  0  0  0  0  0  0  0  0
    1.7784    5.1016   -7.2489 C   0  0  0  0  0  0  0  0  0  0  0  0
    1.1028    6.3857   -6.9133 C   0  0  0  0  0  0  0  0  0  0  0  0
   -0.5031    4.3337   -6.4520 N   0  0  0  0  0  0  0  0  0  0  0  0
    1.3358    8.9805   -2.8639 O   0  0  0  0  0  0  0  0  0  0  0  0
    1.6043    9.6970   -4.1198 C   0  0  0  0  0  0  0  0  0  0  0  0
  1  2  1  0
  2  3  2  0
  2  6  1  0
  3  4  1  0
  4  5  2  0
  4 10  1  0
  5  6  1  0
  5  7  1  0
  7  8  2  0
  8  9  1  0
  9 10  2  0
  9 12  1  0
 10 11  1  0
 12 13  1  0
 13 14  2  0
 13 18  1  0
 14 15  1  0
 15 16  2  0
 16 17  1  0
 17 18  2  0
 17 22  1  0
 18 19  1  0
 19 20  2  0
 20 21  1  0
 20 29  1  0
 21 22  2  0
 21 23  1  0
 23 24  1  0
 24 25  1  0
 25 26  1  0
 25 27  1  0
 25 28  1  0
 26 27  1  0
 29 30  1  0
M  END
>  <DRUGBANK_ID>  (1) 
DB11885

>  <COMMON_NAME>  (1) 
Anlotinib

>  <CAS_NUMBER>  (1) 
1058156-90-3

>  <UNII>  (1) 
GKF8S4C432

>  <SYNONYMS>  (1) 
1-((4-(4-fluoro-2-methyl-1h-indol-5-yloxy)-6-methoxyquinolin-7-yloxy)methyl)cyclopropan-amine; Catequentinib

$$$$
