PA6
     RDKit          3D

 18 17  0  0  0  0  0  0  0  0999 V2000
    0.8910    0.4930    0.3678 O   0  0  0  0  0  0  0  0  0  0  0  0
    2.0957    0.4047    0.1401 C   0  0  0  0  0  0  0  0  0  0  0  0
    2.7795    1.2609   -0.9385 C   0  0  0  0  0  0  0  0  0  0  0  0
    2.3002    1.0864   -2.4491 C   0  0  0  0  0  0  0  0  0  0  0  0
    0.8123    1.0727   -2.6188 C   0  0  0  0  0  0  0  0  0  0  0  0
    0.4253    2.4760   -2.3316 C   0  0  0  0  0  0  0  0  0  0  0  0
    2.8222   -0.4577    0.8770 O   0  0  0  0  0  0  0  0  0  0  0  0
    4.2416   -0.6611    0.9301 C   0  0  0  0  0  0  0  0  0  0  0  0
    4.9402   -1.4373   -0.1827 C   0  0  1  0  0  0  0  0  0  0  0  0
    4.7975   -0.9048   -1.4389 O   0  0  0  0  0  0  0  0  0  0  0  0
    3.6102   -1.2359   -1.9491 C   0  0  0  0  0  0  0  0  0  0  0  0
    2.6616   -1.7918   -1.4754 O   0  0  0  0  0  0  0  0  0  0  0  0
    6.4245   -1.3009   -0.0823 C   0  0  0  0  0  0  0  0  0  0  0  0
    6.7677   -2.1694    0.9357 O   0  0  0  0  0  0  0  0  0  0  0  0
    7.0557   -1.8517    2.4589 P   0  0  0  0  0  0  0  0  0  0  0  0
    7.9911   -0.5724    2.3702 O   0  0  0  0  0  0  0  0  0  0  0  0
    7.5422   -3.0581    3.1665 O   0  0  0  0  0  0  0  0  0  0  0  0
    5.7905   -1.2164    3.1855 O   0  0  0  0  0  0  0  0  0  0  0  0
  1  2  2  0
  2  7  1  0
  2  3  1  0
  3  4  1  0
  4  5  1  0
  5  6  1  0
  7  8  1  0
  9  8  1  1
  9 10  1  0
  9 13  1  0
 10 11  1  0
 11 12  2  0
 13 14  1  0
 14 15  1  0
 15 17  2  0
 15 16  1  0
 15 18  1  0
M  END
>  <DRUGBANK_ID>  (1) 
DB08367

>  <COMMON_NAME>  (1) 
(R)-2-(FORMYLOXY)-3-(PHOSPHONOOXY)PROPYL PENTANOATE

$$$$
