1438
     RDKit          3D

 16 17  0  0  0  0  0  0  0  0999 V2000
    1.2430    0.6887    0.0169 N   0  0  0  0  0  0  0  0  0  0  0  0
    0.0136   -2.8956    0.0787 N   0  0  0  0  0  0  0  0  0  0  0  0
    1.0845   -3.4358    0.4402 N   0  0  0  0  0  0  0  0  0  0  0  0
    2.5176   -1.2719    0.0632 N   0  0  0  0  0  0  0  0  0  0  0  0
    0.0509    2.7180    0.0494 N   0  0  0  0  0  0  0  0  0  0  0  0
    0.0811   -1.4660    0.0264 C   0  0  0  0  0  0  0  0  0  0  0  0
    1.2464   -0.6747    0.0712 C   0  0  0  0  0  0  0  0  0  0  0  0
   -1.1317   -0.7642   -0.0211 C   0  0  0  0  0  0  0  0  0  0  0  0
   -1.1416    0.6332    0.0499 C   0  0  0  0  0  0  0  0  0  0  0  0
    0.0505    1.3217   -0.0001 C   0  0  0  0  0  0  0  0  0  0  0  0
    1.0027   -4.8354    0.5963 C   0  0  0  0  0  0  0  0  0  0  0  0
    0.3297   -5.6801   -0.2942 C   0  0  0  0  0  0  0  0  0  0  0  0
    1.6716   -5.4192    1.6824 C   0  0  0  0  0  0  0  0  0  0  0  0
    0.3010   -7.0640   -0.0845 C   0  0  0  0  0  0  0  0  0  0  0  0
    1.5335   -6.7812    1.9649 C   0  0  0  0  0  0  0  0  0  0  0  0
    0.8658   -7.6086    1.0675 C   0  0  0  0  0  0  0  0  0  0  0  0
  1  7  2  0
  1 10  1  0
  2  3  2  0
  2  6  1  0
  3 11  1  0
  4  7  1  0
  5 10  1  0
  6  7  1  0
  6  8  2  0
  8  9  1  0
  9 10  2  0
 11 12  2  0
 11 13  1  0
 12 14  1  0
 13 15  2  0
 14 16  2  0
 15 16  1  0
M  END
>  <DRUGBANK_ID>  (1) 
DB01438

>  <COMMON_NAME>  (1) 
Phenazopyridine

>  <CAS_NUMBER>  (1) 
94-78-0

>  <UNII>  (1) 
K2J09EMJ52

>  <SYNONYMS>  (1) 
2,6-Diamino-3-(phenylazo)pyridine; 2,6-Diamino-3-phenylazopyridine; 3-(Phenylazo)-2,6-pyridinediamine; Fenazopiridina; Phenazopyridine; Ph√©nazopyridine; Phenazopyridinum

$$$$
