
     RDKit          3D

 32 36  0  0  0  0  0  0  0  0999 V2000
    0.8553    0.1231    0.0272 C   0  0  0  0  0  0  0  0  0  0  0  0
    0.4326    1.4834    0.0798 O   0  0  0  0  0  0  0  0  0  0  0  0
    0.9264    2.2768    1.0870 C   0  0  0  0  0  0  0  0  0  0  0  0
   -0.0052    3.2184    1.5970 C   0  0  0  0  0  0  0  0  0  0  0  0
    0.3479    4.1955    2.5449 C   0  0  0  0  0  0  0  0  0  0  0  0
    1.6713    4.1962    2.9959 C   0  0  0  0  0  0  0  0  0  0  0  0
    2.5991    3.2660    2.5231 C   0  0  0  0  0  0  0  0  0  0  0  0
    2.2449    2.3229    1.5567 C   0  0  0  0  0  0  0  0  0  0  0  0
    3.5657    1.3669    0.9849 Cl  0  0  0  0  0  0  0  0  0  0  0  0
   -0.5473    5.1257    3.0229 N   0  0  0  0  0  0  0  0  0  0  0  0
   -0.3349    6.5677    2.8211 C   0  0  0  0  0  0  0  0  0  0  0  0
   -0.5355    7.2894    4.1491 C   0  0  0  0  0  0  0  0  0  0  0  0
   -1.8438    6.9590    4.7582 N   0  0  0  0  0  0  0  0  0  0  0  0
   -2.0208    5.5111    4.9665 C   0  0  0  0  0  0  0  0  0  0  0  0
   -1.8436    4.7634    3.6258 C   0  0  0  0  0  0  0  0  0  0  0  0
   -2.7021    7.8577    5.3828 C   0  0  0  0  0  0  0  0  0  0  0  0
   -3.7700    7.4835    5.8993 O   0  0  0  0  0  0  0  0  0  0  0  0
   -2.3731    9.3408    5.3644 C   0  0  0  0  0  0  0  0  0  0  0  0
   -1.2528    9.7316    6.2142 N   0  0  0  0  0  0  0  0  0  0  0  0
   -0.3219    8.9154    6.8134 C   0  0  0  0  0  0  0  0  0  0  0  0
    0.7011    9.7317    7.2437 C   0  0  0  0  0  0  0  0  0  0  0  0
    1.8138    9.1206    7.8451 C   0  0  0  0  0  0  0  0  0  0  0  0
    1.8710    7.7279    7.8519 C   0  0  0  0  0  0  0  0  0  0  0  0
    0.7951    7.0216    7.3580 C   0  0  0  0  0  0  0  0  0  0  0  0
   -0.3469    7.5764    6.9173 N   0  0  0  0  0  0  0  0  0  0  0  0
    0.2193   11.0364    7.0158 C   0  0  0  0  0  0  0  0  0  0  0  0
   -0.9938   11.0570    6.4333 N   0  0  0  0  0  0  0  0  0  0  0  0
    0.9411   12.2405    7.5049 C   0  0  0  0  0  0  0  0  0  0  0  0
    0.3802   13.1661    8.3449 N   0  0  0  0  0  0  0  0  0  0  0  0
    1.3722   14.0242    8.7367 C   0  0  0  0  0  0  0  0  0  0  0  0
    2.4922   13.6079    8.0579 C   0  0  0  0  0  0  0  0  0  0  0  0
    2.2339   12.4588    7.3591 N   0  0  0  0  0  0  0  0  0  0  0  0
  1  2  1  0
  2  3  1  0
  3  4  2  0
  3  8  1  0
  4  5  1  0
  5  6  2  0
  5 10  1  0
  6  7  1  0
  7  8  2  0
  8  9  1  0
 10 11  1  0
 10 15  1  0
 11 12  1  0
 12 13  1  0
 13 14  1  0
 13 16  1  0
 14 15  1  0
 16 17  2  0
 16 18  1  0
 18 19  1  0
 19 20  1  0
 19 27  1  0
 20 21  1  0
 20 25  2  0
 21 22  2  0
 21 26  1  0
 22 23  1  0
 23 24  2  0
 24 25  1  0
 26 27  2  0
 26 28  1  0
 28 29  1  0
 28 32  2  0
 29 30  1  0
 30 31  2  0
 31 32  1  0
M  END
>  <DRUGBANK_ID>  (1) 
DB12963

>  <COMMON_NAME>  (1) 
CCX-354

>  <CAS_NUMBER>  (1) 
1010073-75-2

>  <UNII>  (1) 
22PQS5K5TY

$$$$
