CCT
     RDKit          3D

 27 29  0  0  0  0  0  0  0  0999 V2000
    0.2337   -1.1927   -0.0390 C   0  0  0  0  0  0  0  0  0  0  0  0
   -0.4686    0.0123   -0.0449 C   0  0  0  0  0  0  0  0  0  0  0  0
    0.2425    1.2164   -0.0258 C   0  0  0  0  0  0  0  0  0  0  0  0
    1.6457    1.2173    0.0668 C   0  0  0  0  0  0  0  0  0  0  0  0
    2.3591    0.0166    0.1597 C   0  0  0  0  0  0  0  0  0  0  0  0
    1.6340   -1.1883    0.0566 C   0  0  0  0  0  0  0  0  0  0  0  0
    6.2706    0.1653    0.7834 C   0  0  0  0  0  0  0  0  0  0  0  0
    6.0530   -0.5749   -0.3827 C   0  0  0  0  0  0  0  0  0  0  0  0
    4.6559   -0.6458   -0.6628 C   0  0  0  0  0  0  0  0  0  0  0  0
    3.8334   -0.0162    0.2392 C   0  0  0  0  0  0  0  0  0  0  0  0
    4.7760    0.7024    1.4772 S   0  0  0  0  0  0  0  0  0  0  0  0
   -1.9083    0.0102   -0.0235 C   0  0  0  0  0  0  0  0  0  0  0  0
   -3.0619    0.0032    0.0332 N   0  0  0  0  0  0  0  0  0  0  0  0
    7.5805    0.4915    1.3430 C   0  0  0  0  0  0  0  0  0  0  0  0
    7.5857    1.1949    2.5080 O   0  0  0  0  0  0  0  0  0  0  0  0
    8.6382    0.1721    0.8109 O   0  0  0  0  0  0  0  0  0  0  0  0
    7.0594   -1.1047   -1.2516 N   0  0  0  0  0  0  0  0  0  0  0  0
    6.7917   -1.9563   -2.7158 S   0  0  0  0  0  0  0  0  0  0  0  0
    7.3198    0.4005   -4.1628 C   0  0  0  0  0  0  0  0  0  0  0  0
    7.5364   -0.9843   -4.0385 C   0  0  0  0  0  0  0  0  0  0  0  0
    8.1887   -1.6792   -5.0752 C   0  0  0  0  0  0  0  0  0  0  0  0
    8.6226   -0.9988   -6.2206 C   0  0  0  0  0  0  0  0  0  0  0  0
    8.4234    0.3737   -6.3360 C   0  0  0  0  0  0  0  0  0  0  0  0
    7.7829    1.0661   -5.3124 C   0  0  0  0  0  0  0  0  0  0  0  0
    6.5865    1.2341   -3.1670 C   0  0  0  0  0  0  0  0  0  0  0  0
    7.5376   -3.1930   -2.6090 O   0  0  0  0  0  0  0  0  0  0  0  0
    5.3869   -1.9846   -3.0632 O   0  0  0  0  0  0  0  0  0  0  0  0
  1  2  2  0
  1  6  1  0
  2  3  1  0
  2 12  1  0
  3  4  2  0
  4  5  1  0
  5  6  2  0
  5 10  1  0
  7  8  2  0
  7 11  1  0
  7 14  1  0
  8  9  1  0
  8 17  1  0
  9 10  2  0
 10 11  1  0
 12 13  3  0
 14 15  1  0
 14 16  2  0
 17 18  1  0
 18 20  1  0
 18 26  2  0
 18 27  2  0
 19 20  2  0
 19 24  1  0
 19 25  1  0
 20 21  1  0
 21 22  2  0
 22 23  1  0
 23 24  2  0
M  END
>  <DRUGBANK_ID>  (1) 
DB07547

>  <COMMON_NAME>  (1) 
5-(4-CYANOPHENYL)-3-{[(2-METHYLPHENYL)SULFONYL]AMINO}THIOPHENE-2-CARBOXYLIC ACID

$$$$
