
     RDKit          3D

 21 21  0  0  0  0  0  0  0  0999 V2000
    1.3003    0.3534   -0.8390 C   0  0  0  0  0  0  0  0  0  0  0  0
    0.2529   -0.9901   -1.2353 C   0  0  0  0  0  0  0  0  0  0  0  0
   -1.1312   -0.8197   -0.7746 C   0  0  0  0  0  0  0  0  0  0  0  0
   -1.5481    0.4665   -0.2981 C   0  0  0  0  0  0  0  0  0  0  0  0
   -0.6556    1.6195   -0.1579 C   0  0  0  0  0  0  0  0  0  0  0  0
    0.7522    1.6094   -0.4250 C   0  0  0  0  0  0  0  0  0  0  0  0
    0.6826   -2.7560   -1.0947 C   0  0  0  0  0  0  0  0  0  0  0  0
   -0.1852   -3.6223   -0.6650 O   0  0  0  0  0  0  0  0  0  0  0  0
    2.2787   -3.2311   -0.9601 C   0  0  0  0  0  0  0  0  0  0  0  0
    3.2241   -2.4378   -1.9201 C   0  0  0  0  0  0  0  0  0  0  0  0
    3.3072   -0.8956   -2.0487 C   0  0  0  0  0  0  0  0  0  0  0  0
    2.7313    0.3112    0.2203 O   0  0  0  0  0  0  0  0  0  0  0  0
    3.6043   -1.0922    0.9523 C   0  0  0  0  0  0  0  0  0  0  0  0
    2.8319   -2.2755    2.1198 C   0  0  0  0  0  0  0  0  0  0  0  0
    1.3258   -2.5207    2.0744 N   0  0  0  0  0  0  0  0  0  0  0  0
    0.5307   -3.3724    2.9075 C   0  0  0  0  0  0  0  0  0  0  0  0
    0.6224   -1.2873    2.1467 C   0  0  0  0  0  0  0  0  0  0  0  0
    1.0687   -0.0193    2.8402 C   0  0  0  0  0  0  0  0  0  0  0  0
    0.9222   -1.1633    0.8505 C   0  0  0  0  0  0  0  0  0  0  0  0
    0.7883   -2.7347    4.2563 C   0  0  0  0  0  0  0  0  0  0  0  0
   -1.0223   -3.3367    2.5571 C   0  0  0  0  0  0  0  0  0  0  0  0
  1 12  1  0
  1  2  2  0
  2  3  1  0
  2  7  1  0
  3  4  2  0
  4  5  1  0
  5  6  2  0
  6  1  1  0
  7  8  2  0
  7  9  1  0
  9 10  1  0
 10 11  1  0
 12 13  1  0
 13 14  1  0
 14 15  1  0
 15 16  1  0
 15 17  1  0
 16 20  1  0
 16 21  1  0
 17 18  1  0
 17 19  1  0
M  END
>  <DRUGBANK_ID>  (1) 
DB16020

>  <COMMON_NAME>  (1) 
Ketocaine

>  <CAS_NUMBER>  (1) 
1092-46-2

>  <UNII>  (1) 
WA1RT89G9X

>  <SYNONYMS>  (1) 
Cetocaina; Ketocaine; Ketocainum

$$$$
