388
     RDKit          3D

 12 12  0  0  1  0  0  0  0  0999 V2000
    0.9465    0.0435   -0.1126 O   0  0  0  0  0  0  0  0  0  0  0  0
    0.7387   -5.7886    1.7503 O   0  0  0  0  0  0  0  0  0  0  0  0
    2.5062   -1.7869   -1.7344 N   0  0  0  0  0  0  0  0  0  0  0  0
    0.5056   -1.3062   -0.3145 C   0  0  1  0  0  0  0  0  0  0  0  0
    1.0315   -1.7752   -1.6943 C   0  0  0  0  0  0  0  0  0  0  0  0
    0.9199   -2.2236    0.8277 C   0  0  0  0  0  0  0  0  0  0  0  0
    0.6461   -3.6037    0.7507 C   0  0  0  0  0  0  0  0  0  0  0  0
    1.5457   -1.7319    1.9833 C   0  0  0  0  0  0  0  0  0  0  0  0
    0.9886   -4.4484    1.8044 C   0  0  0  0  0  0  0  0  0  0  0  0
    1.8786   -2.5878    3.0361 C   0  0  0  0  0  0  0  0  0  0  0  0
    1.5899   -3.9472    2.9471 C   0  0  0  0  0  0  0  0  0  0  0  0
    2.9848   -2.2998   -3.0065 C   0  0  0  0  0  0  0  0  0  0  0  0
  2  9  1  0
  3  5  1  0
  3 12  1  0
  4  1  1  1
  4  5  1  0
  4  6  1  0
  6  7  2  0
  6  8  1  0
  7  9  1  0
  8 10  2  0
  9 11  2  0
 10 11  1  0
M  END
>  <DRUGBANK_ID>  (1) 
DB00388

>  <SECONDARY_ACCESSION_NUMBERS>  (1) 
APRD00365

>  <COMMON_NAME>  (1) 
Phenylephrine

>  <CAS_NUMBER>  (1) 
59-42-7

>  <UNII>  (1) 
1WS297W6MV

>  <SYNONYMS>  (1) 
(−)-m-hydroxy-α-(methylaminomethyl)benzyl alcohol; Fenilefrina; l-(3-Hydroxyphenyl)-N-methylethanolamine; Phenylephrine; Phenylephrinum; R(-)-Phenylephrine

$$$$
