
     RDKit          3D

  6  5  0  0  1  0  0  0  0  0999 V2000
    1.1020    0.0999   -0.0005 O   0  0  0  0  0  0  0  0  0  0  0  0
    0.5896   -0.0219   -1.3269 C   0  0  0  0  0  0  0  0  0  0  0  0
    1.0392    1.1750   -2.1707 C   0  0  1  0  0  0  0  0  0  0  0  0
    2.4777    1.1693   -2.2142 O   0  0  0  0  0  0  0  0  0  0  0  0
    0.5183    1.1243   -3.6110 C   0  0  0  0  0  0  0  0  0  0  0  0
   -1.2948    1.2247   -3.7545 S   0  0  0  0  0  0  0  0  0  0  0  0
  1  2  1  0
  2  3  1  0
  3  4  1  6
  3  5  1  0
  5  6  1  0
M  END
>  <DRUGBANK_ID>  (1) 
DB03864

>  <SECONDARY_ACCESSION_NUMBERS>  (1) 
EXPT02897

>  <COMMON_NAME>  (1) 
Monothioglycerol

>  <UNII>  (1) 
AAO1P0WSXJ

$$$$
