
     RDKit          3D

 27 29  0  0  1  0  0  0  0  0999 V2000
    3.7239   -0.6794    0.0646 C   0  0  0  0  0  0  0  0  0  0  0  0
    3.7085    0.7085   -0.0403 C   0  0  0  0  0  0  0  0  0  0  0  0
    2.4940    1.3786   -0.1157 C   0  0  0  0  0  0  0  0  0  0  0  0
    1.2883    0.6590   -0.1021 C   0  0  0  0  0  0  0  0  0  0  0  0
    1.2960   -0.7485   -0.0230 C   0  0  0  0  0  0  0  0  0  0  0  0
    2.5305   -1.3966    0.0865 C   0  0  0  0  0  0  0  0  0  0  0  0
   -0.0002    1.4366   -0.1791 C   0  0  0  0  0  0  0  0  0  0  0  0
   -1.2164    0.5956    0.2573 C   0  0  2  0  0  0  0  0  0  0  0  0
   -1.2366   -0.7595   -0.4562 C   0  0  1  0  0  0  0  0  0  0  0  0
    0.0026   -1.5265    0.0352 C   0  0  0  0  0  0  0  0  0  0  0  0
   -2.4860    1.3036    0.3167 N   0  0  0  0  0  0  0  0  0  0  0  0
   -3.7108    0.5495    0.5125 C   0  0  0  0  0  0  0  0  0  0  0  0
   -3.7565   -0.6955   -0.3892 C   0  0  2  0  0  0  0  0  0  0  0  0
   -2.5095   -1.5264   -0.0660 C   0  0  0  0  0  0  0  0  0  0  0  0
    2.6480   -2.7517    0.2218 O   0  0  0  0  0  0  0  0  0  0  0  0
   -2.5363    2.6750    0.7854 C   0  0  0  0  0  0  0  0  0  0  0  0
   -2.5749    2.6654    2.3028 C   0  0  0  0  0  0  0  0  0  0  0  0
   -1.3646    1.9948    2.9338 C   0  0  0  0  0  0  0  0  0  0  0  0
   -3.8404   -0.4048   -1.8959 N   0  0  0  0  0  0  0  0  0  0  0  0
   -3.9351    1.2298   -2.3166 S   0  0  0  0  0  0  0  0  0  0  0  0
   -3.7634    1.3584   -3.9691 N   0  0  0  0  0  0  0  0  0  0  0  0
   -3.8880    2.8290   -4.3682 C   0  0  0  0  0  0  0  0  0  0  0  0
   -2.5755    0.6640   -4.5605 C   0  0  0  0  0  0  0  0  0  0  0  0
   -1.1913    1.1129   -4.1018 C   0  0  0  0  0  0  0  0  0  0  0  0
   -2.8155    3.8018   -3.8438 C   0  0  0  0  0  0  0  0  0  0  0  0
   -5.2658    1.6850   -1.9517 O   0  0  0  0  0  0  0  0  0  0  0  0
   -2.7596    1.9113   -1.9004 O   0  0  0  0  0  0  0  0  0  0  0  0
  1  2  2  0
  1  6  1  0
  2  3  1  0
  3  4  2  0
  4  5  1  0
  4  7  1  0
  5  6  2  0
  5 10  1  0
  6 15  1  0
  8  7  1  6
  8  9  1  0
  8 11  1  0
  9 10  1  1
  9 14  1  0
 11 12  1  0
 11 16  1  0
 12 13  1  0
 13 14  1  0
 13 19  1  6
 16 17  1  0
 17 18  1  0
 19 20  1  0
 20 21  1  0
 20 26  2  0
 20 27  2  0
 21 22  1  0
 21 23  1  0
 22 25  1  0
 23 24  1  0
M  END
>  <DRUGBANK_ID>  (1) 
DB09097

>  <COMMON_NAME>  (1) 
Quinagolide

>  <CAS_NUMBER>  (1) 
87056-78-8

>  <UNII>  (1) 
80Q9QWN15M

>  <SYNONYMS>  (1) 
(+-)-N,N-Diethyl-N'-((3R*,4aR*,10aS*)-1,2,3,4,4a,5,10,10a-octahydro-6-hydroxy-1-propylbenzo(g)quinolin-3-yl)sulfamide; Quinagolida; Quinagolide; Quinagolidum

$$$$
