
     RDKit          3D

 30 33  0  0  0  0  0  0  0  0999 V2000
   -1.2903   -0.6700    0.2517 C   0  0  0  0  0  0  0  0  0  0  0  0
   -1.2248    0.7154   -0.0004 N   0  0  0  0  0  0  0  0  0  0  0  0
   -2.4037    1.3918   -0.3001 C   0  0  0  0  0  0  0  0  0  0  0  0
   -3.6265    0.8348   -0.3514 C   0  0  0  0  0  0  0  0  0  0  0  0
   -3.7007   -0.6243   -0.1071 C   0  0  0  0  0  0  0  0  0  0  0  0
   -2.4468   -1.3676    0.2015 C   0  0  0  0  0  0  0  0  0  0  0  0
   -0.0231   -1.4488    0.5119 C   0  0  0  0  0  0  0  0  0  0  0  0
    1.1650   -0.7574    0.2844 N   0  0  0  0  0  0  0  0  0  0  0  0
    1.1988    0.6334    0.6463 C   0  0  2  0  0  0  0  0  0  0  0  0
    0.0776    1.4179   -0.0556 C   0  0  0  0  0  0  0  0  0  0  0  0
    2.2269   -1.4432   -0.4191 C   0  0  1  0  0  0  0  0  0  0  0  0
    3.4670   -0.6366   -0.7264 C   0  0  0  0  0  0  0  0  0  0  0  0
    3.5599    0.7241   -0.1005 C   0  0  0  0  0  0  0  0  0  0  0  0
    2.4165    1.3246    0.4449 O   0  0  0  0  0  0  0  0  0  0  0  0
   -0.0369   -2.6432    0.8207 O   0  0  0  0  0  0  0  0  0  0  0  0
   -2.5702   -2.7322    0.3855 O   0  0  0  0  0  0  0  0  0  0  0  0
   -4.7618   -1.2534   -0.1555 O   0  0  0  0  0  0  0  0  0  0  0  0
   -4.8046    1.6963   -0.6463 C   0  0  0  0  0  0  0  0  0  0  0  0
   -6.0178    1.0587   -0.6390 N   0  0  0  0  0  0  0  0  0  0  0  0
   -4.6772    2.8938   -0.8693 O   0  0  0  0  0  0  0  0  0  0  0  0
   -7.2573    1.7242   -0.9869 C   0  0  0  0  0  0  0  0  0  0  0  0
   -7.8985    1.1497   -2.2250 C   0  0  0  0  0  0  0  0  0  0  0  0
   -7.7651   -0.2041   -2.5703 C   0  0  0  0  0  0  0  0  0  0  0  0
   -8.5198   -0.7457   -3.6076 C   0  0  0  0  0  0  0  0  0  0  0  0
   -9.2338    0.1009   -4.4429 C   0  0  0  0  0  0  0  0  0  0  0  0
   -9.3243    1.4579   -4.1743 C   0  0  0  0  0  0  0  0  0  0  0  0
   -8.7300    1.9517   -3.0178 C   0  0  0  0  0  0  0  0  0  0  0  0
   -8.9711    3.2226   -2.6646 F   0  0  0  0  0  0  0  0  0  0  0  0
   -9.8260   -0.4030   -5.5326 F   0  0  0  0  0  0  0  0  0  0  0  0
    2.6273   -2.7283    0.3060 C   0  0  0  0  0  0  0  0  0  0  0  0
  1  2  1  0
  1  6  2  0
  1  7  1  0
  2  3  1  0
  2 10  1  0
  3  4  2  0
  4  5  1  0
  4 18  1  0
  5  6  1  0
  5 17  2  0
  6 16  1  0
  7  8  1  0
  7 15  2  0
  8  9  1  0
  8 11  1  0
  9 10  1  6
  9 14  1  0
 11 12  1  0
 11 30  1  1
 12 13  1  0
 13 14  1  0
 18 19  1  0
 18 20  2  0
 19 21  1  0
 21 22  1  0
 22 23  2  0
 22 27  1  0
 23 24  1  0
 24 25  2  0
 25 26  1  0
 25 29  1  0
 26 27  2  0
 27 28  1  0
M  END
>  <DRUGBANK_ID>  (1) 
DB08930

>  <COMMON_NAME>  (1) 
Dolutegravir

>  <CAS_NUMBER>  (1) 
1051375-16-6

>  <UNII>  (1) 
DKO1W9H7M1

>  <SYNONYMS>  (1) 
Dolutegravir

$$$$
