
     RDKit          3D

 33 34  0  0  0  0  0  0  0  0999 V2000
    4.0205    3.6812    0.8209 C   0  0  0  0  0  0  0  0  0  0  0  0
    3.4731    4.4881   -0.2798 C   0  0  0  0  0  0  0  0  0  0  0  0
    2.7017    3.8265   -1.1920 N   0  0  0  0  0  0  0  0  0  0  0  0
    2.1645    2.5658   -1.0277 C   0  0  0  0  0  0  0  0  0  0  0  0
    2.6012    1.8895    0.1670 N   0  0  0  0  0  0  0  0  0  0  0  0
    3.6398    2.4151    0.9259 C   0  0  0  0  0  0  0  0  0  0  0  0
    2.3745    0.4583    0.2890 C   0  0  1  0  0  0  0  0  0  0  0  0
    2.7324   -0.0699   -0.9913 C   0  0  0  0  0  0  0  0  0  0  0  0
    4.6054   -0.5975   -0.6238 C   0  0  1  0  0  0  0  0  0  0  0  0
    4.3243   -0.9940    0.9614 C   0  0  2  0  0  0  0  0  0  0  0  0
    3.2122   -0.1455    1.3590 O   0  0  0  0  0  0  0  0  0  0  0  0
    5.7794   -0.9971    1.3955 C   0  0  0  0  0  0  0  0  0  0  0  0
    6.3016    0.1618    0.8193 O   0  0  0  0  0  0  0  0  0  0  0  0
    6.5544    0.2776   -0.8882 P   0  0  1  0  0  0  0  0  0  0  0  0
    5.9625    1.7627   -1.1270 O   0  0  0  0  0  0  0  0  0  0  0  0
    4.6908    1.6659   -1.7103 C   0  0  0  0  0  0  0  0  0  0  0  0
    4.2279    0.7952   -2.9597 C   0  0  0  0  0  0  0  0  0  0  0  0
    4.3305   -0.7559   -2.8330 C   0  0  0  0  0  0  0  0  0  0  0  0
    3.4552   -1.7410   -1.2710 C   0  0  0  0  0  0  0  0  0  0  0  0
    8.0520    0.4567   -0.6544 O   0  0  0  0  0  0  0  0  0  0  0  0
    6.8072    0.3933   -2.5957 O   0  0  0  0  0  0  0  0  0  0  0  0
    5.0628   -2.2321   -1.8211 O   0  0  0  0  0  0  0  0  0  0  0  0
    3.9163   -3.5095   -1.6046 P   0  0  2  0  0  0  0  0  0  0  0  0
    4.9307   -4.3877   -0.6171 O   0  0  0  0  0  0  0  0  0  0  0  0
    5.8326   -5.2348   -1.2959 C   0  0  0  0  0  0  0  0  0  0  0  0
    5.0334   -6.2819   -2.0684 C   0  0  0  0  0  0  0  0  0  0  0  0
    4.1819   -5.7435   -3.2409 C   0  0  0  0  0  0  0  0  0  0  0  0
    4.9231   -4.8028   -4.1466 C   0  0  0  0  0  0  0  0  0  0  0  0
    2.5120   -3.2270   -0.7200 O   0  0  0  0  0  0  0  0  0  0  0  0
    2.7698   -4.7868   -1.3881 O   0  0  0  0  0  0  0  0  0  0  0  0
    1.5857    2.0481   -1.9855 O   0  0  0  0  0  0  0  0  0  0  0  0
    3.7147    5.6818   -0.3876 O   0  0  0  0  0  0  0  0  0  0  0  0
    4.8351    4.2965    1.8906 C   0  0  0  0  0  0  0  0  0  0  0  0
  1  2  1  0
  1  6  2  0
  1 33  1  0
  2 32  2  0
  3  2  1  0
  4  3  1  0
  4 31  2  0
  5  4  1  0
  6  5  1  0
  7 11  1  0
  7  5  1  6
  8  7  1  0
  8  9  1  0
  9 10  1  0
  9 22  1  6
 10 12  1  1
 11 10  1  0
 12 13  1  0
 13 14  1  0
 14 15  1  0
 14 20  2  0
 14 21  1  6
 15 16  1  0
 16 17  1  0
 17 18  1  0
 18 19  1  0
 22 23  1  0
 23 24  1  0
 23 29  2  0
 23 30  1  6
 24 25  1  0
 25 26  1  0
 26 27  1  0
 27 28  1  0
M  END
>  <DRUGBANK_ID>  (1) 
DB16015

>  <COMMON_NAME>  (1) 
Bisphosphocin Nu-3

>  <CAS_NUMBER>  (1) 
403717-06-6

>  <UNII>  (1) 
8BK3483OW5

>  <SYNONYMS>  (1) 
3'-thymidylic acid, monobutyl ester, 5'-(butyl hydrogen phosphate); Bisphosphocin Nu-3; Bisphosphocin Nu3; Nu-3

$$$$
