
     RDKit          3D

 24 27  0  0  1  0  0  0  0  0999 V2000
   -0.8283    0.6292    0.1225 C   0  0  0  0  0  0  0  0  0  0  0  0
   -0.3620   -0.6364   -1.2367 C   0  0  1  0  0  0  0  0  0  0  0  0
    0.6828    0.0291   -2.0652 C   0  0  0  0  0  0  0  0  0  0  0  0
    1.7116    0.5010   -1.1613 C   0  0  0  0  0  0  0  0  0  0  0  0
    2.0934   -0.5476   -0.1432 C   0  0  2  0  0  0  0  0  0  0  0  0
    0.9411   -1.2612    0.6070 C   0  0  1  0  0  0  0  0  0  0  0  0
   -0.8440   -1.2622   -0.0312 C   0  0  1  0  0  0  0  0  0  0  0  0
   -2.2991   -0.4210   -1.1005 C   0  0  0  0  0  0  0  0  0  0  0  0
   -2.1067   -0.6764   -2.5690 C   0  0  0  0  0  0  0  0  0  0  0  0
   -1.1299   -1.7097   -2.2472 C   0  0  2  0  0  0  0  0  0  0  0  0
   -1.2210   -2.9790   -1.5949 O   0  0  0  0  0  0  0  0  0  0  0  0
    0.2431   -3.7667   -1.5203 S   0  0  0  0  0  0  0  0  0  0  0  0
    0.3308   -4.7109   -2.5672 O   0  0  0  0  0  0  0  0  0  0  0  0
    1.3420   -2.7830   -1.4144 O   0  0  0  0  0  0  0  0  0  0  0  0
    0.2703   -4.5122   -0.0871 O   0  0  0  0  0  0  0  0  0  0  0  0
    1.9103   -2.2204    1.5234 C   0  0  0  0  0  0  0  0  0  0  0  0
    3.2069   -1.2993    2.4285 C   0  0  0  0  0  0  0  0  0  0  0  0
    4.0678    0.1020    1.7744 C   0  0  0  0  0  0  0  0  0  0  0  0
    4.4157    1.5510    1.6817 C   0  0  0  0  0  0  0  0  0  0  0  0
    3.3360    2.3647    0.6672 C   0  0  0  0  0  0  0  0  0  0  0  0
    3.6611    2.7008   -0.4613 O   0  0  0  0  0  0  0  0  0  0  0  0
    1.9190    2.2705    1.2836 C   0  0  0  0  0  0  0  0  0  0  0  0
    2.1331    0.9887    1.9713 C   0  0  0  0  0  0  0  0  0  0  0  0
    2.9798    0.1407    0.8410 C   0  0  2  0  0  0  0  0  0  0  0  0
  2  3  1  0
  2  7  1  0
  2 10  1  0
  2  1  1  6
  3  4  1  0
  5  4  1  6
  5  6  1  0
  5 24  1  0
  6  7  1  0
  6 16  1  6
  7  8  1  1
  8  9  1  0
  9 10  1  0
 10 11  1  1
 11 12  1  0
 12 13  2  0
 12 14  2  0
 12 15  1  0
 16 17  1  0
 17 18  1  0
 18 19  2  0
 18 24  1  0
 19 20  1  0
 20 22  1  0
 20 21  2  0
 22 23  1  0
 24 23  1  1
M  END
>  <DRUGBANK_ID>  (1) 
DB14624

>  <SECONDARY_ACCESSION_NUMBERS>  (1) 
DBSALT002266

>  <COMMON_NAME>  (1) 
Nandrolone hydrogen sulfate

>  <CAS_NUMBER>  (1) 
98804-55-8

>  <UNII>  (1) 
2S202OX23O

>  <SYNONYMS>  (1) 
Nandrolone sulfate

$$$$
