
     RDKit          3D

 13 13  0  0  0  0  0  0  0  0999 V2000
    2.0754    0.1055    1.0334 C   0  0  0  0  0  0  0  0  0  0  0  0
   -1.3499    1.1278    0.0083 C   0  0  0  0  0  0  0  0  0  0  0  0
   -1.9909   -0.0908   -0.0324 C   0  0  0  0  0  0  0  0  0  0  0  0
    0.0198    1.1384    0.2434 C   0  0  0  0  0  0  0  0  0  0  0  0
   -1.2621   -1.2963   -0.0139 C   0  0  0  0  0  0  0  0  0  0  0  0
    2.9197   -0.2260   -1.7543 C   0  0  0  0  0  0  0  0  0  0  0  0
    2.2348   -2.5068   -0.2226 C   0  0  0  0  0  0  0  0  0  0  0  0
    0.7105   -0.0637    0.4670 C   0  0  0  0  0  0  0  0  0  0  0  0
    2.9800   -1.7776   -1.4367 C   0  0  0  0  0  0  0  0  0  0  0  0
    0.1399   -1.2781    0.1447 C   0  0  0  0  0  0  0  0  0  0  0  0
    3.9579    0.5735   -1.1310 O   0  0  0  0  0  0  0  0  0  0  0  0
    4.3811   -2.0809   -1.2764 O   0  0  0  0  0  0  0  0  0  0  0  0
    0.7977   -2.4536   -0.1077 O   0  0  0  0  0  0  0  0  0  0  0  0
  3  2  2  0
  4  2  1  0
  5  3  1  0
  8  1  1  0
  8  4  2  0
  9  6  1  0
  9  7  1  0
 10  5  2  0
 10  8  1  0
 11  6  1  0
 12  9  1  0
 13  7  1  0
 13 10  1  0
M  END
>  <DRUGBANK_ID>  (1) 
DB13583

>  <COMMON_NAME>  (1) 
Mephenesin

>  <CAS_NUMBER>  (1) 
59-47-2

>  <UNII>  (1) 
7B8PIR2954

>  <SYNONYMS>  (1) 
Mephenesin

$$$$
