
     RDKit          3D

 10  9  0  0  0  0  0  0  0  0999 V2000
    0.9740   -0.0274    0.0457 O   0  0  0  0  0  0  0  0  0  0  0  0
    5.2478    2.8239   -2.6455 O   0  0  0  0  0  0  0  0  0  0  0  0
    5.1012    1.4483   -0.8790 O   0  0  0  0  0  0  0  0  0  0  0  0
    2.6101   -1.8983   -1.6678 N   0  0  0  0  0  0  0  0  0  0  0  0
    2.9596    0.2302    1.0671 N   0  0  0  0  0  0  0  0  0  0  0  0
    2.6820    0.4461   -2.4353 C   0  0  0  0  0  0  0  0  0  0  0  0
    2.9798   -0.5260   -1.2811 C   0  0  1  0  0  0  0  0  0  0  0  0
    3.0811    1.8938   -2.1260 C   0  0  0  0  0  0  0  0  0  0  0  0
    2.1977   -0.1020   -0.0176 C   0  0  0  0  0  0  0  0  0  0  0  0
    4.5558    2.0217   -1.8159 C   0  0  0  0  0  0  0  0  0  0  0  0
  1  9  2  0
  2 10  1  0
  3 10  2  0
  5  9  1  0
  6  7  1  0
  6  8  1  0
  7  4  1  6
  7  9  1  0
  8 10  1  0
M  END
>  <DRUGBANK_ID>  (1) 
DB03091

>  <SECONDARY_ACCESSION_NUMBERS>  (1) 
EXPT01619

>  <COMMON_NAME>  (1) 
Isoglutamine

>  <CAS_NUMBER>  (1) 
636-65-7

>  <UNII>  (1) 
WL74QNU57B

>  <SYNONYMS>  (1) 
Glutamic acid alpha-amide; L-alpha-Glutamine; L-Glutamic acid alpha-amide; L-Isoglutamine

$$$$
