
     RDKit          3D

 19 19  0  0  0  0  0  0  0  0999 V2000
    1.0158   -0.1145   -0.0479 O   0  0  0  0  0  0  0  0  0  0  0  0
    2.9642   -0.5832    1.0274 O   0  0  0  0  0  0  0  0  0  0  0  0
   -3.4791    3.7281   -5.0323 O   0  0  0  0  0  0  0  0  0  0  0  0
   -1.9965    2.3176   -4.0963 N   0  0  0  0  0  0  0  0  0  0  0  0
    3.0996   -0.2193   -2.3394 N   0  0  0  0  0  0  0  0  0  0  0  0
    0.2699    0.4565   -1.0868 C   0  0  0  0  0  0  0  0  0  0  0  0
   -1.2871    1.6538   -3.0790 C   0  0  0  0  0  0  0  0  0  0  0  0
    2.4056   -0.0865    0.0549 C   0  0  0  0  0  0  0  0  0  0  0  0
    0.3774    0.0820   -2.4219 C   0  0  0  0  0  0  0  0  0  0  0  0
   -0.7195    1.3193   -0.7157 C   0  0  0  0  0  0  0  0  0  0  0  0
   -0.2834    0.7711   -3.4355 C   0  0  0  0  0  0  0  0  0  0  0  0
   -1.5454    1.8049   -1.7114 C   0  0  0  0  0  0  0  0  0  0  0  0
    3.1896    0.5508   -1.0902 C   0  0  0  0  0  0  0  0  0  0  0  0
   -3.0296    3.2225   -4.0155 C   0  0  0  0  0  0  0  0  0  0  0  0
    3.6449    0.4405   -3.5175 C   0  0  0  0  0  0  0  0  0  0  0  0
    3.2837   -1.6655   -2.2314 C   0  0  0  0  0  0  0  0  0  0  0  0
   -3.6054    3.5697   -2.6691 C   0  0  0  0  0  0  0  0  0  0  0  0
    5.1550    0.5589   -3.4945 C   0  0  0  0  0  0  0  0  0  0  0  0
    4.6842   -2.0806   -1.8486 C   0  0  0  0  0  0  0  0  0  0  0  0
  1  6  1  0
  1  8  1  0
  2  8  2  0
  3 14  2  0
  4  7  1  0
  4 14  1  0
  5 13  1  0
  5 15  1  0
  5 16  1  0
  6  9  2  0
  6 10  1  0
  7 11  2  0
  7 12  1  0
  8 13  1  0
  9 11  1  0
 10 12  2  0
 14 17  1  0
 15 18  1  0
 16 19  1  0
M  END
>  <DRUGBANK_ID>  (1) 
DB09288

>  <COMMON_NAME>  (1) 
Propacetamol

>  <CAS_NUMBER>  (1) 
66532-85-2

>  <UNII>  (1) 
5CHW4JMR82

>  <SYNONYMS>  (1) 
Propacetamol

$$$$
