
     RDKit          3D

 39 43  0  0  0  0  0  0  0  0999 V2000
    2.5463   -0.0653   -0.0429 C   0  0  0  0  0  0  0  0  0  0  0  0
    1.0480   -0.1058   -0.0073 C   0  0  0  0  0  0  0  0  0  0  0  0
    0.3942    1.1016    0.1675 C   0  0  0  0  0  0  0  0  0  0  0  0
   -0.9736    1.1155    0.3744 C   0  0  0  0  0  0  0  0  0  0  0  0
   -1.7842    0.0258    0.0992 C   0  0  0  0  0  0  0  0  0  0  0  0
   -1.1305   -1.1981   -0.0348 C   0  0  0  0  0  0  0  0  0  0  0  0
    0.2893   -1.2920   -0.0288 C   0  0  0  0  0  0  0  0  0  0  0  0
    0.9416   -2.5397   -0.1322 N   0  0  0  0  0  0  0  0  0  0  0  0
    0.2963   -3.7719   -0.0991 C   0  0  0  0  0  0  0  0  0  0  0  0
    0.5013   -4.5953    0.9407 N   0  0  0  0  0  0  0  0  0  0  0  0
   -0.2514   -5.7123    0.9743 C   0  0  0  0  0  0  0  0  0  0  0  0
   -1.1490   -6.0548   -0.0077 C   0  0  0  0  0  0  0  0  0  0  0  0
   -1.2587   -5.1735   -1.0606 C   0  0  0  0  0  0  0  0  0  0  0  0
   -0.5530   -4.0321   -1.0996 N   0  0  0  0  0  0  0  0  0  0  0  0
   -2.1732   -5.4030   -2.1797 C   0  0  0  0  0  0  0  0  0  0  0  0
   -3.5361   -5.6060   -1.9784 C   0  0  0  0  0  0  0  0  0  0  0  0
   -4.4070   -5.8739   -2.9824 N   0  0  0  0  0  0  0  0  0  0  0  0
   -3.8603   -5.9084   -4.2169 C   0  0  0  0  0  0  0  0  0  0  0  0
   -2.5088   -5.7052   -4.4361 C   0  0  0  0  0  0  0  0  0  0  0  0
   -1.6387   -5.4575   -3.4308 N   0  0  0  0  0  0  0  0  0  0  0  0
   -3.2908    0.1141   -0.0202 C   0  0  0  0  0  0  0  0  0  0  0  0
   -3.9513   -0.9169   -0.0240 O   0  0  0  0  0  0  0  0  0  0  0  0
   -3.9733    1.3379   -0.0706 N   0  0  0  0  0  0  0  0  0  0  0  0
   -3.4586    2.6407   -0.1958 C   0  0  0  0  0  0  0  0  0  0  0  0
   -2.4680    2.9101   -1.1552 C   0  0  0  0  0  0  0  0  0  0  0  0
   -1.6659    4.0555   -1.0535 C   0  0  0  0  0  0  0  0  0  0  0  0
   -2.0138    5.0338   -0.1173 C   0  0  0  0  0  0  0  0  0  0  0  0
   -3.0967    4.8263    0.7545 C   0  0  0  0  0  0  0  0  0  0  0  0
   -3.8077    3.6175    0.7489 C   0  0  0  0  0  0  0  0  0  0  0  0
   -3.4368    5.8824    1.6255 N   0  0  0  0  0  0  0  0  0  0  0  0
   -3.6095    5.8623    2.9875 C   0  0  0  0  0  0  0  0  0  0  0  0
   -3.8155    7.1818    3.3520 C   0  0  0  0  0  0  0  0  0  0  0  0
   -3.8361    7.9898    2.2421 N   0  0  0  0  0  0  0  0  0  0  0  0
   -3.6066    7.1878    1.2300 C   0  0  0  0  0  0  0  0  0  0  0  0
   -3.9785    7.7740    4.6995 C   0  0  0  0  0  0  0  0  0  0  0  0
   -0.3778    4.1623   -1.8358 C   0  0  0  0  0  0  0  0  0  0  0  0
   -0.3893    5.1928   -2.7182 F   0  0  0  0  0  0  0  0  0  0  0  0
    0.7007    4.3690   -1.0247 F   0  0  0  0  0  0  0  0  0  0  0  0
   -0.0810    3.0439   -2.5521 F   0  0  0  0  0  0  0  0  0  0  0  0
  1  2  1  0
  2  3  2  0
  2  7  1  0
  3  4  1  0
  4  5  2  0
  5  6  1  0
  5 21  1  0
  6  7  2  0
  7  8  1  0
  8  9  1  0
  9 10  2  0
  9 14  1  0
 10 11  1  0
 11 12  2  0
 12 13  1  0
 13 14  2  0
 13 15  1  0
 15 16  2  0
 15 20  1  0
 16 17  1  0
 17 18  2  0
 18 19  1  0
 19 20  2  0
 21 22  2  0
 21 23  1  0
 23 24  1  0
 24 25  2  0
 24 29  1  0
 25 26  1  0
 26 27  2  0
 26 36  1  0
 27 28  1  0
 28 29  2  0
 28 30  1  0
 30 31  1  0
 30 34  1  0
 31 32  2  0
 32 33  1  0
 32 35  1  0
 33 34  2  0
 36 37  1  0
 36 38  1  0
 36 39  1  0
M  END
>  <DRUGBANK_ID>  (1) 
DB12323

>  <COMMON_NAME>  (1) 
Radotinib

>  <CAS_NUMBER>  (1) 
926037-48-1

>  <UNII>  (1) 
I284LJY110

>  <SYNONYMS>  (1) 
Radotinib

$$$$
