
     RDKit          3D

 10  9  0  0  0  0  0  0  0  0999 V2000
    1.0288   -0.1777   -0.1161 C   0  0  0  0  0  0  0  0  0  0  0  0
   -1.2381    0.1061    5.3227 C   0  0  0  0  0  0  0  0  0  0  0  0
    0.5923   -1.1094    1.0076 C   0  0  0  0  0  0  0  0  0  0  0  0
   -1.6056   -0.1658    3.8714 C   0  0  0  0  0  0  0  0  0  0  0  0
    1.0753   -0.6196    2.3786 C   0  0  0  0  0  0  0  0  0  0  0  0
   -1.5290    2.2456    3.0590 C   0  0  0  0  0  0  0  0  0  0  0  0
   -1.0139    0.8184    2.8369 C   0  0  0  0  0  0  0  0  0  0  0  0
    0.5301    0.7742    2.7323 C   0  0  0  0  0  0  0  0  0  0  0  0
   -1.1135    3.0988    1.9969 O   0  0  0  0  0  0  0  0  0  0  0  0
    1.1460    1.2962    3.9044 O   0  0  0  0  0  0  0  0  0  0  0  0
  3  1  1  0
  4  2  1  0
  5  3  1  0
  7  4  1  0
  7  6  1  0
  8  5  1  0
  8  7  1  0
  9  6  1  0
 10  8  1  0
M  END
>  <DRUGBANK_ID>  (1) 
DB13826

>  <COMMON_NAME>  (1) 
Etohexadiol

>  <CAS_NUMBER>  (1) 
94-96-2

>  <UNII>  (1) 
M9JGK7U88V

>  <SYNONYMS>  (1) 
Ethohexadiol

$$$$
