
     RDKit          3D

 24 23  0  0  0  0  0  0  0  0999 V2000
    1.0364   -0.2603    0.0910 O   0  0  0  0  0  0  0  0  0  0  0  0
    0.8184   -3.1408   -1.8044 N   0  0  0  0  0  0  0  0  0  0  0  0
    1.0552   -1.6806   -1.8783 C   0  0  1  0  0  0  0  0  0  0  0  0
    0.5689   -1.1657   -3.2419 C   0  0  0  0  0  0  0  0  0  0  0  0
    0.7842    0.5723   -3.6865 S   0  0  0  0  0  0  0  0  0  0  0  0
    0.0357    1.5359   -2.4117 C   0  0  0  0  0  0  0  0  0  0  0  0
   -0.8938    1.0907   -1.7472 O   0  0  0  0  0  0  0  0  0  0  0  0
    0.4345    2.9890   -2.2580 C   0  0  0  0  0  0  0  0  0  0  0  0
    1.9013    3.2550   -1.9262 C   0  0  0  0  0  0  0  0  0  0  0  0
    2.8365    2.7955   -3.0389 C   0  0  0  0  0  0  0  0  0  0  0  0
    2.3951    3.3963   -4.3840 C   0  0  0  0  0  0  0  0  0  0  0  0
    2.5633    4.9122   -4.3315 C   0  0  0  0  0  0  0  0  0  0  0  0
    4.0322    5.2333   -4.0573 C   0  0  0  0  0  0  0  0  0  0  0  0
    4.8975    4.6283   -5.1683 C   0  0  0  0  0  0  0  0  0  0  0  0
    4.4844    5.2344   -6.5122 C   0  0  0  0  0  0  0  0  0  0  0  0
    4.6700    6.7535   -6.4571 C   0  0  0  0  0  0  0  0  0  0  0  0
    6.1389    7.0784   -6.1698 C   0  0  0  0  0  0  0  0  0  0  0  0
    7.0207    6.4957   -7.2779 C   0  0  0  0  0  0  0  0  0  0  0  0
    6.6282    7.0984   -8.6313 C   0  0  0  0  0  0  0  0  0  0  0  0
    6.8262    8.6182   -8.6243 C   0  0  0  0  0  0  0  0  0  0  0  0
    0.2782   -1.0424   -0.7208 C   0  0  0  0  0  0  0  0  0  0  0  0
    8.2801    8.9863   -8.3256 C   0  0  0  0  0  0  0  0  0  0  0  0
    9.2017    8.3993   -9.3822 C   0  0  0  0  0  0  0  0  0  0  0  0
   -0.9082   -1.2464   -0.5014 O   0  0  0  0  0  0  0  0  0  0  0  0
  1 21  1  0
  3  2  1  6
  3  4  1  0
  3 21  1  0
  4  5  1  0
  5  6  1  0
  6  7  2  0
  6  8  1  0
  8  9  1  0
  9 10  1  0
 10 11  1  0
 11 12  1  0
 12 13  1  0
 13 14  1  0
 14 15  1  0
 15 16  1  0
 16 17  1  0
 17 18  1  0
 18 19  1  0
 19 20  1  0
 20 22  1  0
 21 24  2  0
 22 23  1  0
M  END
>  <DRUGBANK_ID>  (1) 
DB08342

>  <COMMON_NAME>  (1) 
S-palmitoyl-L-cysteine

>  <CAS_NUMBER>  (1) 
114507-35-6

>  <UNII>  (1) 
08WQ73S7SV

>  <SYNONYMS>  (1) 
S-Palmitoyl cysteine

$$$$
