
     RDKit          3D

 26 28  0  0  0  0  0  0  0  0999 V2000
    1.3319    0.0325    0.3046 C   0  0  0  0  0  0  0  0  0  0  0  0
    0.2460   -1.0908   -0.7626 O   0  0  0  0  0  0  0  0  0  0  0  0
    0.5583   -2.0048   -2.2478 C   0  0  0  0  0  0  0  0  0  0  0  0
    2.2577   -2.3310   -2.5557 C   0  0  0  0  0  0  0  0  0  0  0  0
    2.9076   -2.9638   -3.4913 C   0  0  0  0  0  0  0  0  0  0  0  0
    1.8889   -3.6903   -4.0268 C   0  0  0  0  0  0  0  0  0  0  0  0
    0.2036   -3.5097   -3.6438 C   0  0  0  0  0  0  0  0  0  0  0  0
   -0.4818   -2.6945   -2.6661 C   0  0  0  0  0  0  0  0  0  0  0  0
   -1.8736   -2.4966   -2.0683 C   0  0  0  0  0  0  0  0  0  0  0  0
   -2.8425   -2.7732   -2.7786 O   0  0  0  0  0  0  0  0  0  0  0  0
   -2.1365   -2.0984   -0.7119 N   0  0  0  0  0  0  0  0  0  0  0  0
   -1.2743   -1.4420    0.3515 C   0  0  0  0  0  0  0  0  0  0  0  0
   -1.0988    0.2998   -0.2136 C   0  0  0  0  0  0  0  0  0  0  0  0
    0.0150    0.4962   -1.6898 C   0  0  0  0  0  0  0  0  0  0  0  0
    1.7034   -0.4223   -1.6550 N   0  0  0  0  0  0  0  0  0  0  0  0
    1.6758   -2.0999   -0.5220 C   0  0  0  0  0  0  0  0  0  0  0  0
    0.2339   -2.4582    0.6423 C   0  0  0  0  0  0  0  0  0  0  0  0
    1.9136   -0.1860   -3.4149 C   0  0  0  0  0  0  0  0  0  0  0  0
    0.8537   -0.6396   -4.6499 C   0  0  0  0  0  0  0  0  0  0  0  0
   -0.4048   -0.0986   -4.6680 C   0  0  0  0  0  0  0  0  0  0  0  0
   -1.4905   -0.6565   -5.4048 C   0  0  0  0  0  0  0  0  0  0  0  0
   -1.3764   -1.7195   -6.3001 C   0  0  0  0  0  0  0  0  0  0  0  0
   -0.1379   -2.1964   -6.5245 C   0  0  0  0  0  0  0  0  0  0  0  0
    0.8582   -1.6719   -5.6546 C   0  0  0  0  0  0  0  0  0  0  0  0
    2.6537   -4.1539   -5.7397 Cl  0  0  0  0  0  0  0  0  0  0  0  0
    4.0985   -2.4228   -3.9643 N   0  0  0  0  0  0  0  0  0  0  0  0
  1  2  1  0
  2  3  1  0
  3  4  2  0
  3  8  1  0
  4  5  1  0
  5  6  2  0
  5 26  1  0
  6  7  1  0
  6 25  1  0
  7  8  2  0
  8  9  1  0
  9 10  2  0
  9 11  1  0
 11 12  1  0
 12 13  1  0
 12 17  1  0
 13 14  1  0
 14 15  1  0
 15 16  1  0
 15 18  1  0
 16 17  1  0
 18 19  1  0
 19 20  2  0
 19 24  1  0
 20 21  1  0
 21 22  2  0
 22 23  1  0
 23 24  2  0
M  END
>  <DRUGBANK_ID>  (1) 
DB13511

>  <COMMON_NAME>  (1) 
Clebopride

>  <CAS_NUMBER>  (1) 
55905-53-8

>  <UNII>  (1) 
I0A84520Y9

>  <SYNONYMS>  (1) 
Cleboprida; Clebopride

$$$$
