
     RDKit          3D

 13 12  0  0  1  0  0  0  0  0999 V2000
    3.0827    0.6901   -1.0647 O   0  0  0  0  0  0  0  0  0  0  0  0
    2.5747    0.3005   -2.3417 C   0  0  1  0  0  0  0  0  0  0  0  0
    1.0348    0.2819   -2.3098 C   0  0  2  0  0  0  0  0  0  0  0  0
    0.5168   -0.5881   -1.1411 C   0  0  0  0  0  0  0  0  0  0  0  0
   -0.1928    0.2589   -0.1168 C   0  0  0  0  0  0  0  0  0  0  0  0
   -1.4225   -0.1722    0.2272 O   0  0  0  0  0  0  0  0  0  0  0  0
    0.2970    1.2737    0.3630 O   0  0  0  0  0  0  0  0  0  0  0  0
    0.5581   -0.3063   -3.6140 C   0  0  0  0  0  0  0  0  0  0  0  0
   -0.2262    0.4901   -4.3625 O   0  0  0  0  0  0  0  0  0  0  0  0
    0.8652   -1.4355   -3.9759 O   0  0  0  0  0  0  0  0  0  0  0  0
    3.0702    1.2903   -3.3968 C   0  0  0  0  0  0  0  0  0  0  0  0
    3.8351    0.7645   -4.3753 O   0  0  0  0  0  0  0  0  0  0  0  0
    2.7744    2.4789   -3.3666 O   0  0  0  0  0  0  0  0  0  0  0  0
  2  1  1  1
  2 11  1  0
  3  8  1  0
  3  4  1  1
  3  2  1  0
  4  5  1  0
  5  6  1  0
  5  7  2  0
  8  9  1  0
  8 10  2  0
 11 12  1  0
 11 13  2  0
M  END
>  <DRUGBANK_ID>  (1) 
DB01727

>  <SECONDARY_ACCESSION_NUMBERS>  (1) 
EXPT01834

>  <COMMON_NAME>  (1) 
Isocitric Acid

>  <CAS_NUMBER>  (1) 
320-77-4

>  <UNII>  (1) 
9RW6G5D4MQ

$$$$
