1253
     RDKit          3D

 24 27  0  0  1  0  0  0  0  0999 V2000
    4.6849    5.9238    1.3278 O   0  0  0  0  0  0  0  0  0  0  0  0
    4.3558    0.9362   -1.4841 O   0  0  0  0  0  0  0  0  0  0  0  0
    5.3649    2.6155    4.1067 N   0  0  0  0  0  0  0  0  0  0  0  0
    1.4833   -2.0032    4.4264 N   0  0  0  0  0  0  0  0  0  0  0  0
    3.9917    4.5223   -0.2935 N   0  0  0  0  0  0  0  0  0  0  0  0
    4.1041    1.7941    4.1270 C   0  0  1  0  0  0  0  0  0  0  0  0
    3.5103    1.6661    2.7495 C   0  0  0  0  0  0  0  0  0  0  0  0
    4.2828    0.3977    4.8023 C   0  0  0  0  0  0  0  0  0  0  0  0
    4.9468    3.5680    1.8532 C   0  0  1  0  0  0  0  0  0  0  0  0
    5.1773    3.8839    3.3299 C   0  0  0  0  0  0  0  0  0  0  0  0
    3.1094   -0.4890    4.5231 C   0  0  0  0  0  0  0  0  0  0  0  0
    2.4956    0.6626    2.3726 C   0  0  0  0  0  0  0  0  0  0  0  0
    2.3567   -0.3135    3.3457 C   0  0  0  0  0  0  0  0  0  0  0  0
    3.9054    2.5111    1.8042 C   0  0  0  0  0  0  0  0  0  0  0  0
    1.3792   -1.2850    3.2568 C   0  0  0  0  0  0  0  0  0  0  0  0
    5.7759    2.9413    5.4637 C   0  0  0  0  0  0  0  0  0  0  0  0
    2.5233   -1.5278    5.1999 C   0  0  0  0  0  0  0  0  0  0  0  0
    4.5088    4.7555    0.9741 C   0  0  0  0  0  0  0  0  0  0  0  0
    1.6734    0.5535    1.2304 C   0  0  0  0  0  0  0  0  0  0  0  0
    0.5219   -1.3773    2.1532 C   0  0  0  0  0  0  0  0  0  0  0  0
    0.7088   -0.4494    1.1229 C   0  0  0  0  0  0  0  0  0  0  0  0
    3.6370    3.2435   -0.9385 C   0  0  2  0  0  0  0  0  0  0  0  0
    4.7793    2.1642   -0.9044 C   0  0  0  0  0  0  0  0  0  0  0  0
    3.1789    3.3642   -2.3754 C   0  0  0  0  0  0  0  0  0  0  0  0
  1 18  2  0
  2 23  1  0
  3  6  1  0
  3 10  1  0
  3 16  1  0
  4 15  1  0
  4 17  1  0
  5 18  1  0
  6  7  1  0
  6  8  1  6
  7 12  1  0
  7 14  2  0
  8 11  1  0
  9 10  1  0
  9 14  1  0
  9 18  1  6
 11 13  1  0
 11 17  2  0
 12 13  2  0
 12 19  1  0
 13 15  1  0
 15 20  2  0
 19 21  2  0
 20 21  1  0
 22 24  1  6
 22 23  1  0
 22  5  1  0
M  END
>  <DRUGBANK_ID>  (1) 
DB01253

>  <COMMON_NAME>  (1) 
Ergometrine

>  <CAS_NUMBER>  (1) 
60-79-7

>  <UNII>  (1) 
WH41D8433D

>  <SYNONYMS>  (1) 
(6aR,9R)-7-Methyl-4,6,6a,7,8,9-hexahydro-indolo[4,3-fg]quinoline-9-carboxylic acid ((S)-2-hydroxy-1-methyl-ethyl)-amide; [8β(S)]-9,10-didehydro-N-(2-hydroxy-1-methylethyl)-6-methylergoline-8-carboxamide; 9,10-didehydro-N-(2-hydroxy-1-methylethyl)-6-methylergoline-8β(S)-carboxamide; 9,10-didehydro-N-(α-(hydroxymethyl)ethyl)-6-methylergoline-8-β-carboxamide; D-lysergic acid 1-hydroxymethylethylamide; D-lysergic acid-L-propanolamide; Ergobasine; Ergometrina; Ergometrine; Ergométrine; Ergometrinum; Ergonovine; Ergotocine; Margonovine; N-(2-Hydroxy-1-methylethyl)-D-(+)-lysergamide; N-(α-(hydroxymethyl)ethyl)-D-lysergamide

$$$$
