
     RDKit          3D

 10  9  0  0  1  0  0  0  0  0999 V2000
   -2.7687    5.6460    3.2354 C   0  0  0  0  0  0  0  0  0  0  0  0
   -1.2862    5.3383    3.2111 C   0  0  0  0  0  0  0  0  0  0  0  0
   -0.8440    3.9016    3.5671 C   0  0  0  0  0  0  0  0  0  0  0  0
   -1.3301    2.6624    2.7542 C   0  0  0  0  0  0  0  0  0  0  0  0
   -0.9290    2.5764    1.2343 C   0  0  2  0  0  0  0  0  0  0  0  0
    0.5697    2.4814    1.1390 N   0  0  0  0  0  0  0  0  0  0  0  0
   -1.5390    4.0065    0.2692 P   0  0  0  0  0  0  0  0  0  0  0  0
   -2.8438    3.9523    1.1969 O   0  0  0  0  0  0  0  0  0  0  0  0
   -0.2158    4.8006    0.7741 O   0  0  0  0  0  0  0  0  0  0  0  0
   -2.0552    5.2166   -0.5473 O   0  0  0  0  0  0  0  0  0  0  0  0
  1  2  1  0
  2  3  1  0
  3  4  1  0
  5  7  1  0
  5  6  1  1
  5  4  1  0
  7  8  1  0
  7  9  1  0
  7 10  2  0
M  END
>  <DRUGBANK_ID>  (1) 
DB02088

>  <SECONDARY_ACCESSION_NUMBERS>  (1) 
EXPT02357

>  <COMMON_NAME>  (1) 
Norleucine Phosphonate

$$$$
