CTL
     RDKit          3D

 12 13  0  0  0  0  0  0  0  0999 V2000
   -1.2517    1.4924    0.0506 C   0  0  1  0  0  0  0  0  0  0  0  0
   -2.4637    0.6442   -0.4203 C   0  0  2  0  0  0  0  0  0  0  0  0
   -2.4570   -0.6793    0.3470 C   0  0  0  0  0  0  0  0  0  0  0  0
   -1.2314   -1.5139   -0.0216 C   0  0  0  0  0  0  0  0  0  0  0  0
    0.0483   -0.7070    0.0055 C   0  0  0  0  0  0  0  0  0  0  0  0
    1.2701   -1.3954   -0.0477 C   0  0  0  0  0  0  0  0  0  0  0  0
    0.0470    0.7040    0.0270 C   0  0  0  0  0  0  0  0  0  0  0  0
    1.2706    1.3914    0.0709 C   0  0  0  0  0  0  0  0  0  0  0  0
    2.4778    0.6921    0.0370 C   0  0  0  0  0  0  0  0  0  0  0  0
    2.4754   -0.6958   -0.0317 C   0  0  0  0  0  0  0  0  0  0  0  0
   -1.1612    2.6518   -0.7851 O   0  0  0  0  0  0  0  0  0  0  0  0
   -2.4663    0.4070   -1.8847 N   0  0  0  0  0  0  0  0  0  0  0  0
  1  2  1  0
  1  7  1  0
  1 11  1  6
  2  3  1  0
  2 12  1  6
  3  4  1  0
  4  5  1  0
  5  6  1  0
  5  7  2  0
  6 10  2  0
  7  8  1  0
  8  9  2  0
  9 10  1  0
M  END
>  <DRUGBANK_ID>  (1) 
DB07597

>  <COMMON_NAME>  (1) 
CIS-(1R,2S)-2-AMINO-1,2,3,4-TETRAHYDRONAPHTHALEN-1-OL

$$$$
