
     RDKit          3D

 26 28  0  0  0  0  0  0  0  0999 V2000
    1.6515   -1.0267    0.0947 N   0  0  0  0  0  0  0  0  0  0  0  0
    2.4101    0.1292    0.1775 C   0  0  0  0  0  0  0  0  0  0  0  0
    1.5448    1.2179    0.1375 C   0  0  0  0  0  0  0  0  0  0  0  0
    0.2277    0.6962    0.0641 C   0  0  0  0  0  0  0  0  0  0  0  0
   -1.0283    1.4085   -0.0616 C   0  0  0  0  0  0  0  0  0  0  0  0
   -2.2421    0.5395    0.1115 C   0  0  0  0  0  0  0  0  0  0  0  0
   -2.1400   -0.8062    0.0941 C   0  0  0  0  0  0  0  0  0  0  0  0
   -0.8471   -1.5195   -0.0794 C   0  0  0  0  0  0  0  0  0  0  0  0
    0.3193   -0.6856    0.0304 C   0  0  0  0  0  0  0  0  0  0  0  0
   -1.1155    2.6184   -0.2547 O   0  0  0  0  0  0  0  0  0  0  0  0
   -0.8554   -2.7303   -0.2824 O   0  0  0  0  0  0  0  0  0  0  0  0
    1.9174    2.6654    0.0124 C   0  0  0  0  0  0  0  0  0  0  0  0
    1.4877    3.3255   -1.1980 O   0  0  0  0  0  0  0  0  0  0  0  0
    1.9257    2.8442   -2.3986 C   0  0  0  0  0  0  0  0  0  0  0  0
    1.8989    1.5010   -2.7719 C   0  0  0  0  0  0  0  0  0  0  0  0
    2.3302    1.0651   -4.0151 C   0  0  0  0  0  0  0  0  0  0  0  0
    2.7305    2.0107   -4.9462 C   0  0  0  0  0  0  0  0  0  0  0  0
    2.6574    3.3778   -4.6445 C   0  0  0  0  0  0  0  0  0  0  0  0
    2.2919    3.7878   -3.3549 C   0  0  0  0  0  0  0  0  0  0  0  0
    3.2796    1.5526   -6.2214 N   0  0  0  0  0  0  0  0  0  0  0  0
    3.6480    2.4134   -7.0309 O   0  0  0  0  0  0  0  0  0  0  0  0
    3.3748    0.3288   -6.4014 O   0  0  0  0  0  0  0  0  0  0  0  0
    3.9002    0.1667    0.1811 C   0  0  0  0  0  0  0  0  0  0  0  0
    2.2032   -2.3671    0.0716 C   0  0  0  0  0  0  0  0  0  0  0  0
   -3.4141    1.2487    0.2963 O   0  0  0  0  0  0  0  0  0  0  0  0
   -4.5939    0.5004    0.5267 C   0  0  0  0  0  0  0  0  0  0  0  0
  1  2  1  0
  1  9  1  0
  1 24  1  0
  2  3  2  0
  2 23  1  0
  3  4  1  0
  3 12  1  0
  4  5  1  0
  4  9  2  0
  5  6  1  0
  5 10  2  0
  6  7  2  0
  6 25  1  0
  7  8  1  0
  8  9  1  0
  8 11  2  0
 12 13  1  0
 13 14  1  0
 14 15  2  0
 14 19  1  0
 15 16  1  0
 16 17  2  0
 17 18  1  0
 17 20  1  0
 18 19  2  0
 20 21  2  0
 20 22  1  0
 25 26  1  0
M  CHG  2  20   1  22  -1
M  END
>  <DRUGBANK_ID>  (1) 
DB02400

>  <SECONDARY_ACCESSION_NUMBERS>  (1) 
EXPT00341

>  <COMMON_NAME>  (1) 
ES-936

>  <CAS_NUMBER>  (1) 
192820-78-3

>  <UNII>  (1) 
1XI90I177M

$$$$
