
     RDKit          3D

 35 39  0  0  0  0  0  0  0  0999 V2000
   -0.9365    6.6899   -1.2007 C   0  0  2  0  0  0  0  0  0  0  0  0
    0.1044    6.6153   -0.0837 C   0  0  0  0  0  0  0  0  0  0  0  0
   -2.1382    7.5951   -0.8693 C   0  0  2  0  0  0  0  0  0  0  0  0
   -1.3733    5.3791   -1.5873 O   0  0  0  0  0  0  0  0  0  0  0  0
   -0.2161    6.1001    1.1879 C   0  0  0  0  0  0  0  0  0  0  0  0
    1.4081    7.0672   -0.2930 C   0  0  0  0  0  0  0  0  0  0  0  0
   -2.9206    7.0832    0.2152 O   0  0  0  0  0  0  0  0  0  0  0  0
   -3.0834    7.7611   -2.0654 C   0  0  0  0  0  0  0  0  0  0  0  0
   -2.4008    4.9200   -0.8057 C   0  0  0  0  0  0  0  0  0  0  0  0
    0.6920    6.0211    2.2294 C   0  0  0  0  0  0  0  0  0  0  0  0
    2.3411    7.0082    0.7460 C   0  0  0  0  0  0  0  0  0  0  0  0
   -3.1262    5.7347    0.0801 C   0  0  0  0  0  0  0  0  0  0  0  0
   -2.4408    8.3868   -3.1625 O   0  0  0  0  0  0  0  0  0  0  0  0
   -2.5876    3.5491   -0.8255 C   0  0  0  0  0  0  0  0  0  0  0  0
    1.9773    6.4910    1.9902 C   0  0  0  0  0  0  0  0  0  0  0  0
    0.4042    5.5157    3.4727 O   0  0  0  0  0  0  0  0  0  0  0  0
   -3.9975    5.1787    0.9903 C   0  0  0  0  0  0  0  0  0  0  0  0
   -3.4215    2.9653    0.1276 C   0  0  0  0  0  0  0  0  0  0  0  0
    2.9181    6.4569    2.9801 O   0  0  0  0  0  0  0  0  0  0  0  0
   -0.9294    5.0226    3.6644 C   0  0  0  0  0  0  0  0  0  0  0  0
   -4.1664    3.8058    0.9883 C   0  0  0  0  0  0  0  0  0  0  0  0
   -3.3241    1.4596    0.3235 C   0  0  1  0  0  0  0  0  0  0  0  0
   -1.9202    1.1646    0.5812 O   0  0  0  0  0  0  0  0  0  0  0  0
   -4.3390    0.9544    1.3646 C   0  0  2  0  0  0  0  0  0  0  0  0
   -1.5691    0.6703    1.7978 C   0  0  0  0  0  0  0  0  0  0  0  0
   -3.7336    1.2728    2.7085 C   0  0  0  0  0  0  0  0  0  0  0  0
   -4.6275   -0.4289    1.1953 O   0  0  0  0  0  0  0  0  0  0  0  0
   -2.4065    0.7209    2.9015 C   0  0  0  0  0  0  0  0  0  0  0  0
   -0.3101    0.0849    1.9251 C   0  0  0  0  0  0  0  0  0  0  0  0
   -4.2929    1.8806    3.6240 O   0  0  0  0  0  0  0  0  0  0  0  0
   -2.0369    0.1650    4.1191 C   0  0  0  0  0  0  0  0  0  0  0  0
    0.0637   -0.4752    3.1468 C   0  0  0  0  0  0  0  0  0  0  0  0
   -0.7938   -0.4406    4.2470 C   0  0  0  0  0  0  0  0  0  0  0  0
   -2.8860    0.1456    5.1898 O   0  0  0  0  0  0  0  0  0  0  0  0
    1.2898   -1.0683    3.2240 O   0  0  0  0  0  0  0  0  0  0  0  0
  1  3  1  0
  1  4  1  0
  1  2  1  1
  2  5  2  0
  2  6  1  0
  3  7  1  0
  3  8  1  6
  4  9  1  0
  5 10  1  0
  6 11  2  0
  7 12  1  0
  8 13  1  0
  9 14  1  0
  9 12  2  0
 10 15  2  0
 10 16  1  0
 11 15  1  0
 12 17  1  0
 14 18  2  0
 15 19  1  0
 16 20  1  0
 17 21  2  0
 18 21  1  0
 22 23  1  0
 22 24  1  0
 22 18  1  1
 23 25  1  0
 24 26  1  0
 24 27  1  1
 25 28  2  0
 25 29  1  0
 26 30  2  0
 26 28  1  0
 28 31  1  0
 29 32  2  0
 31 33  2  0
 31 34  1  0
 32 35  1  0
 32 33  1  0
M  END
>  <DRUGBANK_ID>  (1) 
DB09298

>  <COMMON_NAME>  (1) 
Silibinin

>  <CAS_NUMBER>  (1) 
22888-70-6

>  <UNII>  (1) 
33X338MNE4

>  <SYNONYMS>  (1) 
Silibinin; Silibinin A; Silibinina; Silibinine; Silibininum; Silybin A; Silybin A (constituent of milk thistle); Silymarin I

$$$$
