132
     RDKit          3D

 26 29  0  0  0  0  0  0  0  0999 V2000
    0.9652   -1.4356   -0.0031 C   0  0  0  0  0  0  0  0  0  0  0  0
    1.3003   -0.0591    0.0149 C   0  0  0  0  0  0  0  0  0  0  0  0
    0.3340    0.9618    0.0384 C   0  0  0  0  0  0  0  0  0  0  0  0
   -1.0060    0.5865    0.0282 C   0  0  0  0  0  0  0  0  0  0  0  0
   -1.4029   -0.7440    0.0144 C   0  0  0  0  0  0  0  0  0  0  0  0
   -0.4151   -1.7526    0.0068 C   0  0  0  0  0  0  0  0  0  0  0  0
    1.9810   -2.5327   -0.0410 C   0  0  0  0  0  0  0  0  0  0  0  0
    1.6268   -3.8075   -0.0659 N   0  0  0  0  0  0  0  0  0  0  0  0
    3.2679   -2.2762   -0.0549 N   0  0  0  0  0  0  0  0  0  0  0  0
   -2.1460    1.3580    0.0258 N   0  0  0  0  0  0  0  0  0  0  0  0
   -2.8207   -0.7548   -0.0068 C   0  0  0  0  0  0  0  0  0  0  0  0
   -3.2589    0.5537   -0.0564 C   0  0  0  0  0  0  0  0  0  0  0  0
   -4.6146    1.0785   -0.1768 C   0  0  0  0  0  0  0  0  0  0  0  0
   -5.5614    0.7435    0.8010 C   0  0  0  0  0  0  0  0  0  0  0  0
   -6.8710    1.2121    0.7124 C   0  0  0  0  0  0  0  0  0  0  0  0
   -7.2451    2.0233   -0.3567 C   0  0  0  0  0  0  0  0  0  0  0  0
   -6.3196    2.3808   -1.3532 C   0  0  0  0  0  0  0  0  0  0  0  0
   -5.0045    1.8934   -1.2537 C   0  0  0  0  0  0  0  0  0  0  0  0
   -4.1164    2.2527   -2.2412 O   0  0  0  0  0  0  0  0  0  0  0  0
   -6.7349    3.2681   -2.4453 C   0  0  0  0  0  0  0  0  0  0  0  0
   -6.7241    2.8398   -3.7820 C   0  0  0  0  0  0  0  0  0  0  0  0
   -7.0973    3.7071   -4.8092 C   0  0  0  0  0  0  0  0  0  0  0  0
   -7.5136    5.0024   -4.5080 C   0  0  0  0  0  0  0  0  0  0  0  0
   -7.5590    5.4317   -3.1837 C   0  0  0  0  0  0  0  0  0  0  0  0
   -7.1433    4.5798   -2.1627 C   0  0  0  0  0  0  0  0  0  0  0  0
    2.9358    0.5226   -0.0018 Cl  0  0  0  0  0  0  0  0  0  0  0  0
  1  2  2  0
  1  6  1  0
  1  7  1  0
  2  3  1  0
  2 26  1  0
  3  4  2  0
  4  5  1  0
  4 10  1  0
  5  6  2  0
  5 11  1  0
  7  8  1  0
  7  9  2  0
 10 12  1  0
 11 12  2  0
 12 13  1  0
 13 14  2  0
 13 18  1  0
 14 15  1  0
 15 16  2  0
 16 17  1  0
 17 18  2  0
 17 20  1  0
 18 19  1  0
 20 21  2  0
 20 25  1  0
 21 22  1  0
 22 23  2  0
 23 24  1  0
 24 25  2  0
M  CHG  1   9   1
M  END
>  <DRUGBANK_ID>  (1) 
DB03865

>  <SECONDARY_ACCESSION_NUMBERS>  (1) 
EXPT00023

>  <COMMON_NAME>  (1) 
6-Chloro-2-(2-Hydroxy-Biphenyl-3-Yl)-1h-Indole-5-Carboxamidine

$$$$
