2SC
     RDKit          3D

 25 28  0  0  0  0  0  0  0  0999 V2000
    1.4382   -1.3416   -0.0216 C   0  0  0  0  0  0  0  0  0  0  0  0
    0.1655   -0.8048    0.0262 C   0  0  0  0  0  0  0  0  0  0  0  0
    0.3231    0.5873    0.0155 N   0  0  0  0  0  0  0  0  0  0  0  0
    1.6461    0.9137    0.0101 N   0  0  0  0  0  0  0  0  0  0  0  0
    2.2982   -0.2359   -0.0094 C   0  0  0  0  0  0  0  0  0  0  0  0
   -1.0680   -1.3924    0.0790 N   0  0  0  0  0  0  0  0  0  0  0  0
   -2.0965   -0.5949    0.0650 C   0  0  0  0  0  0  0  0  0  0  0  0
   -2.0297    0.9035   -0.0042 C   0  0  0  0  0  0  0  0  0  0  0  0
   -0.7974    1.4673    0.0026 C   0  0  0  0  0  0  0  0  0  0  0  0
   -0.6147    2.8535   -0.0076 N   0  0  0  0  0  0  0  0  0  0  0  0
   -3.4574   -1.1972    0.1395 C   0  0  0  0  0  0  0  0  0  0  0  0
    0.6312    3.6069    0.0314 C   0  0  0  0  0  0  0  0  0  0  0  0
    0.7585    4.4507   -1.1975 C   0  0  0  0  0  0  0  0  0  0  0  0
    1.0829    3.8859   -2.4288 C   0  0  0  0  0  0  0  0  0  0  0  0
    1.2025    4.5955   -3.5743 N   0  0  0  0  0  0  0  0  0  0  0  0
    0.9942    5.9264   -3.4836 C   0  0  0  0  0  0  0  0  0  0  0  0
    0.6865    6.5829   -2.3028 C   0  0  0  0  0  0  0  0  0  0  0  0
    0.5729    5.8308   -1.1417 C   0  0  0  0  0  0  0  0  0  0  0  0
   -4.3926   -0.9862   -0.8784 C   0  0  0  0  0  0  0  0  0  0  0  0
   -5.6092   -1.6778   -0.8588 C   0  0  0  0  0  0  0  0  0  0  0  0
   -5.8862   -2.5861    0.1647 C   0  0  0  0  0  0  0  0  0  0  0  0
   -4.9518   -2.8006    1.1772 C   0  0  0  0  0  0  0  0  0  0  0  0
   -3.7480   -2.0900    1.1797 C   0  0  0  0  0  0  0  0  0  0  0  0
    1.8642   -2.7519   -0.0612 C   0  0  0  0  0  0  0  0  0  0  0  0
    2.6573   -3.0135   -1.2163 O   0  0  0  0  0  0  0  0  0  0  0  0
  1  2  2  0
  1 24  1  0
  2  6  1  0
  3  2  1  0
  4  5  2  0
  4  3  1  0
  5  1  1  0
  7  6  2  0
  7 11  1  0
  8  7  1  0
  9  3  1  0
  9  8  2  0
 10 12  1  0
 10  9  1  0
 11 19  2  0
 11 23  1  0
 13 18  1  0
 13 12  1  0
 14 13  2  0
 15 16  2  0
 15 14  1  0
 16 17  1  0
 17 18  2  0
 19 20  1  0
 20 21  2  0
 22 21  1  0
 23 22  2  0
 24 25  1  0
M  END
>  <DRUGBANK_ID>  (1) 
DB06983

>  <COMMON_NAME>  (1) 
(5-phenyl-7-(pyridin-3-ylmethylamino)pyrazolo[1,5-a]pyrimidin-3-yl)methanol

$$$$
