
     RDKit          3D

 19 19  0  0  0  0  0  0  0  0999 V2000
   -2.2712    0.5379   -0.0330 O   0  0  0  0  0  0  0  0  0  0  0  0
    2.3013    0.6191    0.0772 O   0  0  0  0  0  0  0  0  0  0  0  0
   -2.4170   -3.9826   -1.6362 O   0  0  0  0  0  0  0  0  0  0  0  0
    1.3257   -2.9263    1.1293 O   0  0  0  0  0  0  0  0  0  0  0  0
   -0.6446    2.9764   -1.0277 O   0  0  0  0  0  0  0  0  0  0  0  0
   -1.5241   -0.5113   -2.7596 O   0  0  0  0  0  0  0  0  0  0  0  0
   -3.1068   -2.8454    2.4474 O   0  0  0  0  0  0  0  0  0  0  0  0
    0.8079   -1.1095   -0.2271 N   0  0  0  0  0  0  0  0  0  0  0  0
    0.0216    0.9830   -0.0862 N   0  0  0  0  0  0  0  0  0  0  0  0
   -1.2234   -2.1334   -1.1255 N   0  0  0  0  0  0  0  0  0  0  0  0
   -2.1819   -3.5978    0.5061 N   0  0  0  0  0  0  0  0  0  0  0  0
   -0.6122   -1.2351   -0.2049 C   0  0  0  0  0  0  0  0  0  0  0  0
   -1.1070    0.2054   -0.1329 C   0  0  0  0  0  0  0  0  0  0  0  0
    1.1572    0.2165   -0.0715 C   0  0  0  0  0  0  0  0  0  0  0  0
   -1.9389   -3.2384   -0.7733 C   0  0  0  0  0  0  0  0  0  0  0  0
    1.6866   -2.2340   -0.0532 C   0  0  0  0  0  0  0  0  0  0  0  0
   -0.0046    2.3967    0.0913 C   0  0  0  0  0  0  0  0  0  0  0  0
   -1.0235   -1.8140   -2.5231 C   0  0  0  0  0  0  0  0  0  0  0  0
   -1.8796   -3.2115    1.8678 C   0  0  0  0  0  0  0  0  0  0  0  0
  1 13  2  0
  2 14  2  0
  3 15  2  0
  4 16  1  0
  5 17  1  0
  6 18  1  0
  7 19  1  0
  8 12  1  0
  8 14  1  0
  8 16  1  0
  9 13  1  0
  9 14  1  0
  9 17  1  0
 10 12  1  0
 10 15  1  0
 10 18  1  0
 11 15  1  0
 11 19  1  0
 12 13  1  0
M  END
>  <DRUGBANK_ID>  (1) 
DB14173

>  <COMMON_NAME>  (1) 
Diazolidinylurea

>  <CAS_NUMBER>  (1) 
78491-02-8

>  <UNII>  (1) 
N9VX1IBW6K

>  <SYNONYMS>  (1) 
Diazolidinyl urea; N-(1,3-Bis(hydroxymethyl)-2,5-dioxo-4-imidazolidinyl)-N,N'-bis(hydroxymethyl)urea; N,N'-Bis(hydroxymethyl) urea

$$$$
