3468
     RDKit          3D

 28 30  0  0  0  0  0  0  0  0999 V2000
    0.9628   -0.0685   -0.1298 N   0  0  0  0  0  0  0  0  0  0  0  0
   -6.6583   -6.3138   -1.9153 N   0  0  0  0  0  0  0  0  0  0  0  0
   -1.6570   -7.0602    6.0367 N   0  0  0  0  0  0  0  0  0  0  0  0
   -2.1169   -4.7266    1.2346 C   0  0  0  0  0  0  0  0  0  0  0  0
   -1.3659   -3.4343    0.9456 C   0  0  0  0  0  0  0  0  0  0  0  0
   -3.3137   -5.0961    0.4058 C   0  0  0  0  0  0  0  0  0  0  0  0
   -1.7298   -5.6412    2.1817 C   0  0  0  0  0  0  0  0  0  0  0  0
   -0.2876   -2.9661    1.7048 C   0  0  0  0  0  0  0  0  0  0  0  0
   -3.1888   -5.3231   -0.9683 C   0  0  0  0  0  0  0  0  0  0  0  0
   -1.7114   -2.6249   -0.1408 C   0  0  0  0  0  0  0  0  0  0  0  0
   -4.5636   -5.2811    0.9899 C   0  0  0  0  0  0  0  0  0  0  0  0
   -2.4465   -6.8839    2.4754 C   0  0  0  0  0  0  0  0  0  0  0  0
   -0.5292   -5.5017    2.9907 C   0  0  0  0  0  0  0  0  0  0  0  0
    0.2408   -1.1920    0.1931 C   0  0  0  0  0  0  0  0  0  0  0  0
   -5.5582   -5.9404   -1.1582 C   0  0  0  0  0  0  0  0  0  0  0  0
   -1.5512   -6.7695    4.7824 C   0  0  0  0  0  0  0  0  0  0  0  0
    0.5666   -1.9573    1.2915 C   0  0  0  0  0  0  0  0  0  0  0  0
   -4.2975   -5.7093   -1.7339 C   0  0  0  0  0  0  0  0  0  0  0  0
   -0.9076   -1.5447   -0.5210 C   0  0  0  0  0  0  0  0  0  0  0  0
   -5.6286   -5.7750    0.2333 C   0  0  0  0  0  0  0  0  0  0  0  0
   -2.3916   -7.4192    3.7026 C   0  0  0  0  0  0  0  0  0  0  0  0
   -0.4917   -5.8575    4.2664 C   0  0  0  0  0  0  0  0  0  0  0  0
   -7.9986   -6.4610   -1.3556 C   0  0  0  0  0  0  0  0  0  0  0  0
   -6.5815   -6.3230   -3.3763 C   0  0  0  0  0  0  0  0  0  0  0  0
    0.2358    1.1814   -0.2842 C   0  0  0  0  0  0  0  0  0  0  0  0
    2.4064   -0.0357    0.0084 C   0  0  0  0  0  0  0  0  0  0  0  0
   -0.8354   -6.4280    7.1215 C   0  0  0  0  0  0  0  0  0  0  0  0
   -2.6331   -8.0866    6.5081 C   0  0  0  0  0  0  0  0  0  0  0  0
  1 14  1  0
  1 25  1  0
  1 26  1  0
  2 15  1  0
  2 23  1  0
  2 24  1  0
  3 16  2  3
  3 27  1  0
  3 28  1  0
  4  5  1  0
  4  6  1  0
  4  7  2  3
  5  8  2  0
  5 10  1  0
  6  9  2  0
  6 11  1  0
  7 12  1  0
  7 13  1  0
  8 17  1  0
  9 18  1  0
 10 19  2  0
 11 20  2  0
 12 21  2  0
 13 22  2  0
 14 17  2  0
 14 19  1  0
 15 18  2  0
 15 20  1  0
 16 21  1  0
 16 22  1  0
M  CHG  1   3   1
M  END
>  <DRUGBANK_ID>  (1) 
DB00406

>  <SECONDARY_ACCESSION_NUMBERS>  (1) 
APRD00998

>  <COMMON_NAME>  (1) 
Gentian violet cation

>  <CAS_NUMBER>  (1) 
7438-46-2

>  <UNII>  (1) 
3GVJ31T6YY

>  <SYNONYMS>  (1) 
Crystal Violet; Crystal violet carbocation; Crystal violet ion(1); Crystal violet(1+); Gentian violet carbocation; Gentian violet cation; Gentian violet(1+); Methylrosaniline; Methylrosanilinium

$$$$
