
     RDKit          3D

 10  9  0  0  0  0  0  0  0  0999 V2000
    1.1051   -0.1038    0.0841 O   0  0  0  0  0  0  0  0  0  0  0  0
    0.7153    0.7055   -1.0042 C   0  0  0  0  0  0  0  0  0  0  0  0
    1.3627    2.0669   -0.8737 C   0  0  0  0  0  0  0  0  0  0  0  0
    2.3824    2.3279   -1.5339 O   0  0  0  0  0  0  0  0  0  0  0  0
    0.7093    3.0700    0.1080 C   0  0  0  0  0  0  0  0  0  0  0  0
   -0.7194    3.2570    0.0379 O   0  0  0  0  0  0  0  0  0  0  0  0
   -1.3058    3.9261   -1.4458 P   0  0  0  0  0  0  0  0  0  0  0  0
   -0.6674    5.3403   -0.9394 O   0  0  0  0  0  0  0  0  0  0  0  0
   -0.0528    3.3136   -2.2604 O   0  0  0  0  0  0  0  0  0  0  0  0
   -1.8306    4.5249   -2.7738 O   0  0  0  0  0  0  0  0  0  0  0  0
  1  2  1  0
  2  3  1  0
  3  4  2  0
  3  5  1  0
  5  6  1  0
  6  7  1  0
  7  8  1  0
  7  9  1  0
  7 10  2  0
M  END
>  <DRUGBANK_ID>  (1) 
DB04326

>  <SECONDARY_ACCESSION_NUMBERS>  (1) 
EXPT00026; DB12496

>  <COMMON_NAME>  (1) 
Dihydroxyacetone phosphate

>  <CAS_NUMBER>  (1) 
57-04-5

>  <UNII>  (1) 
T7KF2T6W95

>  <SYNONYMS>  (1) 
1-hydroxy-3-(phosphonooxy)-2-Propanone; 1-Hydroxy-3-(phosphonooxy)acetone; 1,3-Dihydroxy-2-propanone monodihydrogen phosphate; 1,3-Dihydroxy-2-propanone phosphate; 1,3-Dihydroxyacetone 1-phosphate; 3-hydroxy-2-oxopropyl phosphate; DHAP; Dihydroxyacetone monophosphate; Glycerone monophosphate; Glycerone phosphate

$$$$
