
     RDKit          3D

 22 24  0  0  0  0  0  0  0  0999 V2000
    1.0124    0.0340   -0.0801 C   0  0  0  0  0  0  0  0  0  0  0  0
    0.6067    1.0665   -1.1218 C   0  0  0  0  0  0  0  0  0  0  0  0
    1.0749    0.7444   -2.4477 O   0  0  0  0  0  0  0  0  0  0  0  0
    2.4328    0.7198   -2.6346 C   0  0  0  0  0  0  0  0  0  0  0  0
    3.2533    0.9678   -1.7536 O   0  0  0  0  0  0  0  0  0  0  0  0
    2.8127    0.3616   -4.0038 C   0  0  0  0  0  0  0  0  0  0  0  0
    2.3289    0.9180   -5.1781 C   0  0  0  0  0  0  0  0  0  0  0  0
    1.3174    1.9792   -5.4467 C   0  0  0  0  0  0  0  0  0  0  0  0
    2.0358    3.1563   -5.9021 N   0  0  0  0  0  0  0  0  0  0  0  0
    1.6360    4.4709   -5.4274 C   0  0  0  0  0  0  0  0  0  0  0  0
    3.0172    3.0542   -6.8751 C   0  0  0  0  0  0  0  0  0  0  0  0
    4.0138    3.7626   -6.9375 O   0  0  0  0  0  0  0  0  0  0  0  0
    2.7929    2.0128   -7.9071 C   0  0  0  0  0  0  0  0  0  0  0  0
    2.4814    2.3857   -9.2207 C   0  0  0  0  0  0  0  0  0  0  0  0
    2.1618    4.3798   -9.8006 I   0  0  0  0  0  0  0  0  0  0  0  0
    2.3135    1.3989  -10.1962 C   0  0  0  0  0  0  0  0  0  0  0  0
    2.4899    0.0496   -9.8689 C   0  0  0  0  0  0  0  0  0  0  0  0
    2.8083   -0.3335   -8.5585 C   0  0  0  0  0  0  0  0  0  0  0  0
    2.9214    0.6526   -7.5702 C   0  0  0  0  0  0  0  0  0  0  0  0
    3.0399    0.3109   -6.2024 N   0  0  0  0  0  0  0  0  0  0  0  0
    3.8688   -0.6133   -5.6228 C   0  0  0  0  0  0  0  0  0  0  0  0
    3.7786   -0.5898   -4.3093 N   0  0  0  0  0  0  0  0  0  0  0  0
  1  2  1  0
  2  3  1  0
  3  4  1  0
  4  5  2  0
  4  6  1  0
  6  7  2  0
  6 22  1  0
  7  8  1  0
  7 20  1  0
  8  9  1  0
  9 10  1  0
  9 11  1  0
 11 12  2  0
 11 13  1  0
 13 14  1  0
 13 19  2  0
 14 15  1  0
 14 16  2  0
 16 17  1  0
 17 18  2  0
 18 19  1  0
 19 20  1  0
 20 21  1  0
 21 22  2  0
M  END
>  <DRUGBANK_ID>  (1) 
DB14971

>  <COMMON_NAME>  (1) 
Iomazenil

>  <CAS_NUMBER>  (1) 
127985-21-1

>  <UNII>  (1) 
7DVX185FLQ

$$$$
