CC3
     RDKit          3D

 30 33  0  0  0  0  0  0  0  0999 V2000
    1.1184    0.0171    0.0311 O   0  0  0  0  0  0  0  0  0  0  0  0
    2.3507    0.0217   -0.0334 C   0  0  0  0  0  0  0  0  0  0  0  0
    3.0697    0.9366   -0.9717 C   0  0  0  0  0  0  0  0  0  0  0  0
    3.0424    2.4390   -0.7792 C   0  0  0  0  0  0  0  0  0  0  0  0
    2.3835    1.8205   -1.9774 C   0  0  0  0  0  0  0  0  0  0  0  0
    3.1057   -0.8899    0.6792 N   0  0  0  0  0  0  0  0  0  0  0  0
    4.5087   -0.9193    0.7973 C   0  0  0  0  0  0  0  0  0  0  0  0
    5.2392    0.2707    0.9184 C   0  0  0  0  0  0  0  0  0  0  0  0
    5.1758   -2.1445    0.8384 C   0  0  0  0  0  0  0  0  0  0  0  0
    6.5620   -2.1669    0.9856 C   0  0  0  0  0  0  0  0  0  0  0  0
    7.2773   -0.9700    1.0449 C   0  0  0  0  0  0  0  0  0  0  0  0
    6.6280    0.2707    1.0423 C   0  0  0  0  0  0  0  0  0  0  0  0
    7.3213    1.4955    1.0938 N   0  0  0  0  0  0  0  0  0  0  0  0
    8.6927    1.6177    1.2967 C   0  0  0  0  0  0  0  0  0  0  0  0
    9.1685    2.1730    2.4159 N   0  0  0  0  0  0  0  0  0  0  0  0
   10.5076    2.1174    2.5772 C   0  0  0  0  0  0  0  0  0  0  0  0
   11.3776    1.5895    1.6475 C   0  0  0  0  0  0  0  0  0  0  0  0
    9.4745    1.0993    0.3514 N   0  0  0  0  0  0  0  0  0  0  0  0
   10.8024    1.0908    0.5064 C   0  0  0  0  0  0  0  0  0  0  0  0
   11.5564    0.3945   -0.4515 N   0  0  0  0  0  0  0  0  0  0  0  0
   11.0320    0.0122   -1.7067 C   0  0  0  0  0  0  0  0  0  0  0  0
   10.2928    0.8942   -2.5075 C   0  0  0  0  0  0  0  0  0  0  0  0
    9.7229    0.4724   -3.7180 C   0  0  0  0  0  0  0  0  0  0  0  0
    8.9166    1.4259   -4.5572 C   0  0  0  0  0  0  0  0  0  0  0  0
    9.4533    1.5849   -5.8004 F   0  0  0  0  0  0  0  0  0  0  0  0
    7.6349    1.0118   -4.7552 F   0  0  0  0  0  0  0  0  0  0  0  0
    8.8292    2.6807   -4.0330 F   0  0  0  0  0  0  0  0  0  0  0  0
    9.9356   -0.8447   -4.1451 C   0  0  0  0  0  0  0  0  0  0  0  0
   10.7396   -1.7028   -3.3964 C   0  0  0  0  0  0  0  0  0  0  0  0
   11.2708   -1.2790   -2.1770 C   0  0  0  0  0  0  0  0  0  0  0  0
  1  2  2  0
  2  6  1  0
  2  3  1  0
  3  4  1  0
  3  5  1  0
  4  5  1  0
  6  7  1  0
  7  8  2  0
  7  9  1  0
  8 12  1  0
  9 10  2  0
 10 11  1  0
 11 12  2  0
 12 13  1  0
 13 14  1  0
 14 15  2  0
 14 18  1  0
 15 16  1  0
 16 17  2  0
 17 19  1  0
 18 19  2  0
 19 20  1  0
 20 21  1  0
 21 22  2  0
 21 30  1  0
 22 23  1  0
 23 24  1  0
 23 28  2  0
 24 25  1  0
 24 26  1  0
 24 27  1  0
 28 29  1  0
 29 30  2  0
M  END
>  <DRUGBANK_ID>  (1) 
DB07545

>  <COMMON_NAME>  (1) 
N-{3-[(4-{[3-(TRIFLUOROMETHYL)PHENYL]AMINO}PYRIMIDIN-2-YL)AMINO]PHENYL}CYCLOPROPANECARBOXAMIDE

>  <UNII>  (1) 
E9Q3ZU9CRL

$$$$
