627
     RDKit          3D

  9  9  0  0  0  0  0  0  0  0999 V2000
    0.9024   -0.0828   -0.1095 O   0  0  0  0  0  0  0  0  0  0  0  0
    1.0348   -2.0530    0.9579 O   0  0  0  0  0  0  0  0  0  0  0  0
   -3.1668   -1.6204    1.6184 N   0  0  0  0  0  0  0  0  0  0  0  0
   -1.1102   -1.1300    0.4402 C   0  0  0  0  0  0  0  0  0  0  0  0
   -1.8348   -0.7146   -0.6770 C   0  0  0  0  0  0  0  0  0  0  0  0
   -1.8118   -1.5740    1.5516 C   0  0  0  0  0  0  0  0  0  0  0  0
   -3.2284   -0.7655   -0.6390 C   0  0  0  0  0  0  0  0  0  0  0  0
   -3.8431   -1.2212    0.5184 C   0  0  0  0  0  0  0  0  0  0  0  0
    0.3578   -1.1733    0.4572 C   0  0  0  0  0  0  0  0  0  0  0  0
  1  9  1  0
  2  9  2  0
  3  6  2  0
  3  8  1  0
  4  5  2  0
  4  6  1  0
  4  9  1  0
  5  7  1  0
  7  8  2  0
M  END
>  <DRUGBANK_ID>  (1) 
DB00627

>  <SECONDARY_ACCESSION_NUMBERS>  (1) 
NUTR00042; APRD00536

>  <COMMON_NAME>  (1) 
Niacin

>  <CAS_NUMBER>  (1) 
59-67-6

>  <UNII>  (1) 
2679MF687A

>  <SYNONYMS>  (1) 
3-carboxypyridine; 3-Pyridinecarboxylic acid; 3-Pyridylcarboxylic acid; Acide nicotinique; ácido nicotínico; Acidum Nicotinicum; anti-pellagra vitamin; m-pyridinecarboxylic acid; Niacin; Niacina; Nicotinic acid; Nikotinsäure; pyridine-β-carboxylic acid; β-pyridinecarboxylic acid

$$$$
