
     RDKit          3D

 11 12  0  0  0  0  0  0  0  0999 V2000
   -0.0288    0.0027    1.3881 C   0  0  0  0  0  0  0  0  0  0  0  0
   -0.0131    1.1111    0.3044 C   0  0  0  0  0  0  0  0  0  0  0  0
    0.0141   -1.1357    0.3373 C   0  0  0  0  0  0  0  0  0  0  0  0
   -0.0051   -2.5453    0.8817 C   0  0  0  0  0  0  0  0  0  0  0  0
   -1.1820   -0.7215   -0.5238 C   0  0  0  0  0  0  0  0  0  0  0  0
   -1.9614   -1.4786   -1.0849 O   0  0  0  0  0  0  0  0  0  0  0  0
   -1.2549    0.7965   -0.5694 C   0  0  0  0  0  0  0  0  0  0  0  0
    1.1760    0.0180    2.3437 C   0  0  0  0  0  0  0  0  0  0  0  0
   -1.2921    0.0037    2.2698 C   0  0  0  0  0  0  0  0  0  0  0  0
    1.2389    0.7615   -0.5347 C   0  0  0  0  0  0  0  0  0  0  0  0
    1.2441   -0.7843   -0.5326 C   0  0  0  0  0  0  0  0  0  0  0  0
  2  1  1  0
  2 10  1  0
  2  7  1  0
  3  1  1  0
  3  4  1  0
  3  5  1  0
  5  6  2  0
  5  7  1  0
  8  1  1  0
  9  1  1  0
 10 11  1  0
 11  3  1  0
M  END
>  <DRUGBANK_ID>  (1) 
DB14156

>  <COMMON_NAME>  (1) 
Synthetic camphor

>  <CAS_NUMBER>  (1) 
76-22-2

>  <UNII>  (1) 
5TJD82A1ET

>  <SYNONYMS>  (1) 
(+/-)-camphor; (1RS,4RS)-1,7,7-trimethylbicyclo(2.2.1)heptan-2-one; 1,7,7-trimethylbicyclo(2.2.1)heptan-2-one; 2-bornanone; 2-camphanone; Camphor (synthetic); Camphor, racemic; DL-camphor; Gum camphor

$$$$
