
     RDKit          3D

 23 24  0  0  0  0  0  0  0  0999 V2000
    1.4300   -0.5810   -1.0367 C   0  0  0  0  0  0  0  0  0  0  0  0
    0.6167   -1.2678    0.5541 N   0  0  0  0  0  0  0  0  0  0  0  0
   -1.0028   -1.2378    1.1513 C   0  0  0  0  0  0  0  0  0  0  0  0
    1.0323   -2.5681    0.7578 C   0  0  0  0  0  0  0  0  0  0  0  0
    0.3759   -2.9128   -0.4935 C   0  0  0  0  0  0  0  0  0  0  0  0
    0.7106   -4.2103   -0.7787 C   0  0  0  0  0  0  0  0  0  0  0  0
    0.2412   -4.6983   -1.9462 C   0  0  0  0  0  0  0  0  0  0  0  0
   -0.4934   -3.8520   -2.8328 C   0  0  0  0  0  0  0  0  0  0  0  0
   -0.8724   -2.4743   -2.5429 C   0  0  0  0  0  0  0  0  0  0  0  0
   -0.4775   -1.9497   -1.3232 C   0  0  0  0  0  0  0  0  0  0  0  0
   -0.7341   -0.2608   -0.9263 O   0  0  0  0  0  0  0  0  0  0  0  0
    0.1009    0.7857    0.2447 C   0  0  0  0  0  0  0  0  0  0  0  0
    1.6389    0.5543    0.8239 C   0  0  0  0  0  0  0  0  0  0  0  0
    2.5188    1.3401    1.4482 C   0  0  0  0  0  0  0  0  0  0  0  0
    1.7592    2.2932    1.9963 C   0  0  0  0  0  0  0  0  0  0  0  0
    0.2881    2.5239    1.6603 C   0  0  0  0  0  0  0  0  0  0  0  0
   -0.5739    1.8443    0.7326 C   0  0  0  0  0  0  0  0  0  0  0  0
    2.6553    3.1386    3.2845 S   0  0  0  0  0  0  0  0  0  0  0  0
    4.3065    2.2778    3.2261 C   0  0  0  0  0  0  0  0  0  0  0  0
    0.4565   -6.4329   -2.1783 S   0  0  0  0  0  0  0  0  0  0  0  0
   -0.8201   -7.0415   -2.1327 O   0  0  0  0  0  0  0  0  0  0  0  0
    1.4078   -6.6074   -3.2853 O   0  0  0  0  0  0  0  0  0  0  0  0
    1.2749   -6.9835   -0.7826 N   0  0  0  0  0  0  0  0  0  0  0  0
  1  2  1  0
  2  3  1  0
  2  4  1  0
  4  5  1  0
  5  6  2  0
  5 10  1  0
  6  7  1  0
  7  8  2  0
  7 20  1  0
  8  9  1  0
  9 10  2  0
 10 11  1  0
 11 12  1  0
 12 13  2  0
 12 17  1  0
 13 14  1  0
 14 15  2  0
 15 16  1  0
 15 18  1  0
 16 17  2  0
 18 19  1  0
 20 21  2  0
 20 22  2  0
 20 23  1  0
M  END
>  <DRUGBANK_ID>  (1) 
DB11719

>  <COMMON_NAME>  (1) 
UK-390957

>  <CAS_NUMBER>  (1) 
934301-71-0

>  <UNII>  (1) 
W26I0D1D6J

$$$$
