
     RDKit          3D

 21 23  0  0  1  0  0  0  0  0999 V2000
    1.0120   -1.3683   -0.0664 C   0  0  0  0  0  0  0  0  0  0  0  0
   -0.1833   -0.6732   -0.1298 C   0  0  0  0  0  0  0  0  0  0  0  0
    1.0155    1.4659    0.0015 C   0  0  0  0  0  0  0  0  0  0  0  0
    2.2128   -0.6564   -0.0780 C   0  0  0  0  0  0  0  0  0  0  0  0
    2.2068    0.7453   -0.0541 C   0  0  0  0  0  0  0  0  0  0  0  0
   -0.1522    0.7184   -0.0908 C   0  0  0  0  0  0  0  0  0  0  0  0
    3.4994   -1.4327   -0.0496 C   0  0  0  0  0  0  0  0  0  0  0  0
   -2.1592    0.0637   -0.7238 C   0  0  0  0  0  0  0  0  0  0  0  0
   -1.5229   -1.1002   -0.2798 C   0  0  0  0  0  0  0  0  0  0  0  0
   -2.0773   -2.5176   -0.0949 C   0  0  0  0  0  0  0  0  0  0  0  0
   -4.2337   -2.0457    1.3097 N   0  0  0  0  0  0  0  0  0  0  0  0
   -5.0650   -2.4209    2.4375 C   0  0  0  0  0  0  0  0  0  0  0  0
   -3.9468   -0.6495    1.5573 C   0  0  0  0  0  0  0  0  0  0  0  0
   -2.9626   -2.8127    1.1871 C   0  0  0  0  0  0  0  0  0  0  0  0
   -1.4508    1.1190   -0.1954 N   0  0  0  0  0  0  0  0  0  0  0  0
    3.6359   -2.2797    1.2240 C   0  0  2  0  0  0  0  0  0  0  0  0
    2.6955   -3.3488    1.3521 N   0  0  0  0  0  0  0  0  0  0  0  0
    2.0522   -3.3214    2.5604 C   0  0  0  0  0  0  0  0  0  0  0  0
    2.5609   -2.3090    3.3240 O   0  0  0  0  0  0  0  0  0  0  0  0
    1.1731   -4.0767    2.8962 O   0  0  0  0  0  0  0  0  0  0  0  0
    3.4003   -1.4859    2.5030 C   0  0  0  0  0  0  0  0  0  0  0  0
  1  4  2  0
  2  1  1  0
  2  9  1  0
  2  6  2  0
  3  5  2  0
  4  7  1  0
  4  5  1  0
  6  3  1  0
  6 15  1  0
  9  8  2  0
  9 10  1  0
 10 14  1  0
 11 12  1  0
 11 13  1  0
 14 11  1  0
 15  8  1  0
 16  7  1  6
 16 17  1  0
 16 21  1  0
 17 18  1  0
 18 20  2  0
 18 19  1  0
 21 19  1  0
M  END
>  <DRUGBANK_ID>  (1) 
DB00315

>  <SECONDARY_ACCESSION_NUMBERS>  (1) 
APRD00376

>  <COMMON_NAME>  (1) 
Zolmitriptan

>  <CAS_NUMBER>  (1) 
139264-17-8

>  <UNII>  (1) 
2FS66TH3YW

>  <SYNONYMS>  (1) 
(S)-4-({3-[2-(dimethylamino)ethyl]-1H-indol-5-yl}methyl)-1,3-oxazolidin-2-one; 4-[[3-(2-dimethylaminoethyl)-1H-indol-5-yl]methyl]oxazolidin-2-one; Zolmitriptan; Zolmitript√°n; Zolmitriptanum

$$$$
