
     RDKit          3D

 41 44  0  0  1  0  0  0  0  0999 V2000
    2.2086   -0.1547   -0.0594 F   0  0  0  0  0  0  0  0  0  0  0  0
   -1.5156    1.6033   -2.5676 O   0  0  0  0  0  0  0  0  0  0  0  0
   -2.5087    3.9016    0.9636 O   0  0  0  0  0  0  0  0  0  0  0  0
   -1.6246    7.7692   -1.3232 O   0  0  0  0  0  0  0  0  0  0  0  0
   -0.3774    6.1110   -2.1381 O   0  0  0  0  0  0  0  0  0  0  0  0
   -7.3915   -1.2902    2.4152 O   0  0  0  0  0  0  0  0  0  0  0  0
   -8.6138   -0.2035    0.6011 N   0  0  0  0  0  0  0  0  0  0  0  0
   -4.3731    0.5264   -0.8334 N   0  0  0  0  0  0  0  0  0  0  0  0
   -2.2691    2.4469   -1.7113 C   0  0  1  0  0  0  0  0  0  0  0  0
   -2.2277    4.5480   -0.2869 C   0  0  2  0  0  0  0  0  0  0  0  0
   -6.8116    0.5840   -0.8361 C   0  0  0  0  0  0  0  0  0  0  0  0
   -4.2444    1.2265   -2.1844 C   0  0  0  0  0  0  0  0  0  0  0  0
   -1.4878    3.6485   -1.2893 C   0  0  0  0  0  0  0  0  0  0  0  0
   -3.6448    2.6445   -2.2142 C   0  0  0  0  0  0  0  0  0  0  0  0
   -1.3998    5.7831    0.0300 C   0  0  0  0  0  0  0  0  0  0  0  0
   -7.4378   -1.2925   -1.1016 C   0  0  0  0  0  0  0  0  0  0  0  0
   -7.3918    1.9849    0.0350 C   0  0  0  0  0  0  0  0  0  0  0  0
   -1.0728    6.5461   -1.2321 C   0  0  0  0  0  0  0  0  0  0  0  0
   -7.2444   -0.6272    1.3337 C   0  0  0  0  0  0  0  0  0  0  0  0
   -5.5868    0.3120   -0.2999 C   0  0  0  0  0  0  0  0  0  0  0  0
   -3.5166   -0.0667    0.1618 C   0  0  0  0  0  0  0  0  0  0  0  0
    0.8719   -0.1456    0.0099 C   0  0  0  0  0  0  0  0  0  0  0  0
   -9.1229    0.3759   -0.9605 C   0  0  0  0  0  0  0  0  0  0  0  0
   -5.7880   -0.3659    0.8503 C   0  0  0  0  0  0  0  0  0  0  0  0
   -4.4365   -0.6377    1.1464 C   0  0  0  0  0  0  0  0  0  0  0  0
   -1.9910   -0.1224    0.1760 C   0  0  0  0  0  0  0  0  0  0  0  0
   -4.0870   -1.4246    2.3018 C   0  0  0  0  0  0  0  0  0  0  0  0
    0.2244    1.0370    0.1959 C   0  0  0  0  0  0  0  0  0  0  0  0
    0.1298   -1.3210   -0.0192 C   0  0  0  0  0  0  0  0  0  0  0  0
   -8.3494    0.2733   -2.4497 C   0  0  0  0  0  0  0  0  0  0  0  0
  -10.0651    1.3363   -0.9727 C   0  0  0  0  0  0  0  0  0  0  0  0
   -1.1560    0.9899    0.4350 C   0  0  0  0  0  0  0  0  0  0  0  0
   -1.2897   -1.3080    0.0057 C   0  0  0  0  0  0  0  0  0  0  0  0
   -4.6513   -2.7013    2.4546 C   0  0  0  0  0  0  0  0  0  0  0  0
   -3.3021   -0.8870    3.3091 C   0  0  0  0  0  0  0  0  0  0  0  0
   -8.3256    0.9569   -3.6070 C   0  0  0  0  0  0  0  0  0  0  0  0
  -10.0496    2.0951   -2.1938 C   0  0  0  0  0  0  0  0  0  0  0  0
   -2.8866   -1.7143    4.3459 C   0  0  0  0  0  0  0  0  0  0  0  0
   -4.3035   -3.4970    3.5377 C   0  0  0  0  0  0  0  0  0  0  0  0
   -9.1916    1.9540   -3.4113 C   0  0  0  0  0  0  0  0  0  0  0  0
   -3.3906   -3.0120    4.4664 C   0  0  0  0  0  0  0  0  0  0  0  0
  1 22  1  0
  4 18  1  0
  5 18  2  0
  6 19  2  0
  7 19  1  0
  7 23  1  0
  8 12  1  0
  8 20  1  0
  8 21  1  0
  9  2  1  6
  9 13  1  0
  9 14  1  0
 10  3  1  1
 10 13  1  0
 10 15  1  0
 11 16  1  0
 11 17  1  0
 11 20  1  0
 12 14  1  0
 15 18  1  0
 19 24  1  0
 20 24  2  0
 21 25  2  0
 21 26  1  0
 22 28  2  0
 22 29  1  0
 23 30  2  0
 23 31  1  0
 24 25  1  0
 25 27  1  0
 26 32  2  0
 26 33  1  0
 27 34  2  0
 27 35  1  0
 28 32  1  0
 29 33  2  0
 30 36  1  0
 31 37  2  0
 34 39  1  0
 35 38  2  0
 36 40  2  0
 37 40  1  0
 38 41  1  0
 39 41  2  0
M  END
>  <DRUGBANK_ID>  (1) 
DB01076

>  <SECONDARY_ACCESSION_NUMBERS>  (1) 
APRD00055

>  <COMMON_NAME>  (1) 
Atorvastatin

>  <CAS_NUMBER>  (1) 
134523-00-5

>  <UNII>  (1) 
A0JWA85V8F

>  <SYNONYMS>  (1) 
Atorvastatin; atorvastatina; atorvastatine; atorvastatinum

$$$$
