4NP
     RDKit          3D

 14 14  0  0  0  0  0  0  0  0999 V2000
    0.9371   -0.0362   -0.0688 P   0  0  0  0  0  0  0  0  0  0  0  0
    0.8823    1.0514   -1.3138 O   0  0  0  0  0  0  0  0  0  0  0  0
    0.9755   -1.4355   -0.6759 O   0  0  0  0  0  0  0  0  0  0  0  0
   -0.7929   -0.0362   -0.0688 O   0  0  0  0  0  0  0  0  0  0  0  0
    2.6671   -0.0362   -0.0688 O   0  0  0  0  0  0  0  0  0  0  0  0
    0.9423    2.4064   -1.1102 C   0  0  0  0  0  0  0  0  0  0  0  0
    1.8171    2.9617   -0.1806 C   0  0  0  0  0  0  0  0  0  0  0  0
    1.9060    4.3491   -0.0333 C   0  0  0  0  0  0  0  0  0  0  0  0
    1.1196    5.1856   -0.8354 C   0  0  0  0  0  0  0  0  0  0  0  0
    0.2741    4.6370   -1.8068 C   0  0  0  0  0  0  0  0  0  0  0  0
    0.1635    3.2428   -1.9204 C   0  0  0  0  0  0  0  0  0  0  0  0
    1.1464    6.6382   -0.6081 N   0  0  0  0  0  0  0  0  0  0  0  0
    0.4135    7.3449   -1.3242 O   0  0  0  0  0  0  0  0  0  0  0  0
    1.8685    7.0693    0.2950 O   0  0  0  0  0  0  0  0  0  0  0  0
  1  2  1  0
  1  3  2  0
  1  4  1  0
  1  5  1  0
  2  6  1  0
  6  7  2  0
  6 11  1  0
  7  8  1  0
  8  9  2  0
  9 10  1  0
  9 12  1  0
 10 11  2  0
 12 13  1  0
 12 14  2  0
M  CHG  2  12   1  13  -1
M  END
>  <DRUGBANK_ID>  (1) 
DB04214

>  <SECONDARY_ACCESSION_NUMBERS>  (1) 
EXPT00223

>  <COMMON_NAME>  (1) 
4-Nitrophenyl Phosphate

>  <CAS_NUMBER>  (1) 
330-13-2

>  <UNII>  (1) 
59NF9TE3BA

$$$$
