1205
     RDKit          3D

 22 24  0  0  0  0  0  0  0  0999 V2000
    0.9561   -0.0479   -0.0556 F   0  0  0  0  0  0  0  0  0  0  0  0
    4.9477   -2.8041    1.9508 O   0  0  0  0  0  0  0  0  0  0  0  0
   10.8387   -1.5911   -0.9122 O   0  0  0  0  0  0  0  0  0  0  0  0
    9.3020   -3.0690   -1.5942 O   0  0  0  0  0  0  0  0  0  0  0  0
    6.4502   -0.2334   -0.2190 N   0  0  0  0  0  0  0  0  0  0  0  0
    5.7018   -3.1708   -0.2095 N   0  0  0  0  0  0  0  0  0  0  0  0
    8.5955    0.0615    0.1585 N   0  0  0  0  0  0  0  0  0  0  0  0
    7.0889   -1.3450   -0.7415 C   0  0  0  0  0  0  0  0  0  0  0  0
    6.3188   -2.4796   -1.3299 C   0  0  0  0  0  0  0  0  0  0  0  0
    5.0602   -0.0998   -0.0819 C   0  0  0  0  0  0  0  0  0  0  0  0
    4.3446   -1.2326    0.3284 C   0  0  0  0  0  0  0  0  0  0  0  0
    8.4428   -1.1312   -0.5422 C   0  0  0  0  0  0  0  0  0  0  0  0
    5.0318   -2.4674    0.7769 C   0  0  0  0  0  0  0  0  0  0  0  0
    7.4112    0.6216    0.2280 C   0  0  0  0  0  0  0  0  0  0  0  0
    4.3967    1.0879   -0.4066 C   0  0  0  0  0  0  0  0  0  0  0  0
    5.7370   -4.6208   -0.1642 C   0  0  0  0  0  0  0  0  0  0  0  0
    2.9542   -1.2182    0.3503 C   0  0  0  0  0  0  0  0  0  0  0  0
    2.9974    1.0920   -0.3944 C   0  0  0  0  0  0  0  0  0  0  0  0
    9.5371   -1.9992   -1.0251 C   0  0  0  0  0  0  0  0  0  0  0  0
    2.2945   -0.0591   -0.0308 C   0  0  0  0  0  0  0  0  0  0  0  0
   11.2348   -0.3362   -0.3331 C   0  0  0  0  0  0  0  0  0  0  0  0
   10.8549    0.8401   -1.2228 C   0  0  0  0  0  0  0  0  0  0  0  0
  1 20  1  0
  2 13  2  0
  3 19  1  0
  3 21  1  0
  4 19  2  0
  5  8  1  0
  5 10  1  0
  5 14  1  0
  6  9  1  0
  6 13  1  0
  6 16  1  0
  7 12  1  0
  7 14  2  0
  8  9  1  0
  8 12  2  0
 10 11  2  0
 10 15  1  0
 11 13  1  0
 11 17  1  0
 12 19  1  0
 15 18  2  0
 17 20  2  0
 18 20  1  0
 21 22  1  0
M  END
>  <DRUGBANK_ID>  (1) 
DB01205

>  <SECONDARY_ACCESSION_NUMBERS>  (1) 
APRD00974

>  <COMMON_NAME>  (1) 
Flumazenil

>  <CAS_NUMBER>  (1) 
78755-81-4

>  <UNII>  (1) 
40P7XK9392

>  <SYNONYMS>  (1) 
Flumazenil; Flumazenilo; Flumazenilum; Flumazepil

$$$$
