
     RDKit          3D

 22 20  0  0  0  0  0  0  0  0999 V2000
   -0.7465   -1.7761   -1.0903 C   0  0  0  0  0  0  0  0  0  0  0  0
    0.2131   -1.8978   -2.3407 C   0  0  0  0  0  0  0  0  0  0  0  0
   -0.1119   -2.2461    0.2585 C   0  0  0  0  0  0  0  0  0  0  0  0
    0.8950   -0.6527   -2.9165 C   0  0  1  0  0  0  0  0  0  0  0  0
   -1.0084   -1.9466    1.4247 N   0  0  0  0  0  0  0  0  0  0  0  0
    0.4023   -0.0470   -4.2377 C   0  0  0  0  0  0  0  0  0  0  0  0
    0.5464    0.4166   -2.0614 N   0  0  0  0  0  0  0  0  0  0  0  0
   -0.9008   -2.3979    2.6965 C   0  0  0  0  0  0  0  0  0  0  0  0
    1.3826    0.5178   -4.9781 O   0  0  0  0  0  0  0  0  0  0  0  0
   -0.7844    0.2168   -4.4166 O   0  0  0  0  0  0  0  0  0  0  0  0
   -1.5527   -1.5704    3.5749 N   0  0  0  0  0  0  0  0  0  0  0  0
   -0.1533   -3.3802    3.0006 N   0  0  0  0  0  0  0  0  0  0  0  0
    1.3278    0.7957    0.3393 C   0  0  0  0  0  0  0  0  0  0  0  0
    0.5482    0.3430    1.5309 C   0  0  1  0  0  0  0  0  0  0  0  0
    0.7311    2.1478   -0.0707 C   0  0  0  0  0  0  0  0  0  0  0  0
    1.1642    0.8215    2.8147 C   0  0  0  0  0  0  0  0  0  0  0  0
   -1.0537    0.5502    1.5438 N   0  0  0  0  0  0  0  0  0  0  0  0
    1.2269    2.7907   -1.3410 C   0  0  0  0  0  0  0  0  0  0  0  0
    0.1437    1.1452    3.6597 O   0  0  0  0  0  0  0  0  0  0  0  0
    2.3233    0.7910    3.0597 O   0  0  0  0  0  0  0  0  0  0  0  0
    0.2599    3.1222   -2.2417 O   0  0  0  0  0  0  0  0  0  0  0  0
    2.3971    2.7283   -1.6919 O   0  0  0  0  0  0  0  0  0  0  0  0
  1  2  1  0
  1  3  1  0
  3  5  1  0
  4  6  1  0
  4  2  1  0
  4  7  1  1
  5  8  1  0
  6  9  1  0
  6 10  2  0
  8 11  1  0
  8 12  2  0
 13 14  1  0
 13 15  1  0
 14 16  1  0
 14 17  1  6
 15 18  1  0
 16 19  1  0
 16 20  2  0
 18 21  1  0
 18 22  2  0
M  END
>  <DRUGBANK_ID>  (1) 
DB13207

>  <COMMON_NAME>  (1) 
Arginine glutamate

>  <CAS_NUMBER>  (1) 
4320-30-3

>  <UNII>  (1) 
TU1X77K34Q

>  <SYNONYMS>  (1) 
2-amino-5-(diaminomethylideneamino)pentanoic acid; 2-amino-5-guanidino-pentanoic acid; 2-aminoglutaric acid; Arginine glutamate; L-Arginine L-glutamate

$$$$
