
     RDKit          3D

 35 39  0  0  0  0  0  0  0  0999 V2000
    1.3158   -0.1568   -0.0466 C   0  0  0  0  0  0  0  0  0  0  0  0
    0.5258   -1.2962   -0.0940 C   0  0  0  0  0  0  0  0  0  0  0  0
   -0.8657   -1.1380   -0.1352 C   0  0  0  0  0  0  0  0  0  0  0  0
   -1.4540    0.1383   -0.1359 C   0  0  0  0  0  0  0  0  0  0  0  0
   -0.6735    1.2742    0.0528 C   0  0  0  0  0  0  0  0  0  0  0  0
    0.7164    1.1037    0.0643 C   0  0  0  0  0  0  0  0  0  0  0  0
    1.0068   -2.5879   -0.1227 O   0  0  0  0  0  0  0  0  0  0  0  0
    2.3665   -2.8066   -0.0472 C   0  0  0  0  0  0  0  0  0  0  0  0
    3.1262   -2.4161    1.0608 C   0  0  0  0  0  0  0  0  0  0  0  0
    4.4931   -2.6954    1.1069 C   0  0  0  0  0  0  0  0  0  0  0  0
    5.0859   -3.4349    0.0850 C   0  0  0  0  0  0  0  0  0  0  0  0
    4.3159   -3.8795   -0.9905 C   0  0  0  0  0  0  0  0  0  0  0  0
    2.9662   -3.5283   -1.0801 C   0  0  0  0  0  0  0  0  0  0  0  0
   -1.3332    2.5275    0.4691 C   0  0  0  0  0  0  0  0  0  0  0  0
   -1.9360    2.8556    1.7260 C   0  0  0  0  0  0  0  0  0  0  0  0
   -2.2660    4.2100    1.5935 C   0  0  0  0  0  0  0  0  0  0  0  0
   -1.8587    4.5771    0.3337 N   0  0  0  0  0  0  0  0  0  0  0  0
   -1.6439    3.4912   -0.4122 N   0  0  0  0  0  0  0  0  0  0  0  0
   -2.2238    1.9915    2.8695 C   0  0  0  0  0  0  0  0  0  0  0  0
   -1.7610    0.6934    2.8213 N   0  0  0  0  0  0  0  0  0  0  0  0
   -2.8907    2.3382    3.8219 O   0  0  0  0  0  0  0  0  0  0  0  0
   -1.7835    5.9505   -0.2029 C   0  0  1  0  0  0  0  0  0  0  0  0
   -2.1503    6.9605    0.9182 C   0  0  0  0  0  0  0  0  0  0  0  0
   -3.2562    6.4158    1.8158 C   0  0  0  0  0  0  0  0  0  0  0  0
   -2.8272    5.1460    2.3949 N   0  0  0  0  0  0  0  0  0  0  0  0
   -0.4357    6.4349   -0.8996 C   0  0  0  0  0  0  0  0  0  0  0  0
   -0.0271    5.6486   -2.1599 C   0  0  0  0  0  0  0  0  0  0  0  0
    0.5303    4.2810   -1.8591 C   0  0  0  0  0  0  0  0  0  0  0  0
    1.4706    4.2864   -0.7157 N   0  0  0  0  0  0  0  0  0  0  0  0
    1.1524    5.0942    0.4837 C   0  0  0  0  0  0  0  0  0  0  0  0
    0.7651    6.4946    0.0617 C   0  0  0  0  0  0  0  0  0  0  0  0
    2.6863    3.6234   -0.7207 C   0  0  0  0  0  0  0  0  0  0  0  0
    2.9532    2.7128   -1.8692 C   0  0  0  0  0  0  0  0  0  0  0  0
    4.0911    2.0207   -1.9564 C   0  0  0  0  0  0  0  0  0  0  0  0
    3.4901    3.6999    0.2065 O   0  0  0  0  0  0  0  0  0  0  0  0
  1  6  2  0
  2  1  1  0
  2  7  1  0
  3  2  2  0
  4  3  1  0
  5  4  2  0
  5 14  1  0
  6  5  1  0
  7  8  1  0
  8 13  1  0
  9  8  2  0
 10  9  1  0
 11 10  2  0
 12 11  1  0
 13 12  2  0
 15 14  1  0
 15 16  2  0
 15 19  1  0
 16 17  1  0
 16 25  1  0
 17 18  1  0
 17 22  1  0
 18 14  2  0
 19 20  1  0
 19 21  2  0
 22 26  1  1
 23 22  1  0
 24 23  1  0
 25 24  1  0
 26 31  1  0
 27 26  1  0
 28 27  1  0
 29 28  1  0
 29 32  1  0
 30 29  1  0
 31 30  1  0
 32 33  1  0
 32 35  2  0
 33 34  2  0
M  END
>  <DRUGBANK_ID>  (1) 
DB15035

>  <COMMON_NAME>  (1) 
Zanubrutinib

>  <CAS_NUMBER>  (1) 
1691249-45-2

>  <UNII>  (1) 
AG9MHG098Z

>  <SYNONYMS>  (1) 
Zanubrutinib

$$$$
