
     RDKit          3D

 31 34  0  0  0  0  0  0  0  0999 V2000
   -2.9311   -2.4942    0.1823 C   0  0  0  0  0  0  0  0  0  0  0  0
   -1.7764   -2.0244   -0.5544 N   0  0  0  0  0  0  0  0  0  0  0  0
   -0.4187   -2.1423   -0.0017 C   0  0  1  0  0  0  0  0  0  0  0  0
   -0.2920   -1.7703    1.4940 C   0  0  0  0  0  0  0  0  0  0  0  0
   -0.8395   -2.7988    2.4922 C   0  0  0  0  0  0  0  0  0  0  0  0
   -0.3623   -4.2298    2.1644 C   0  0  1  0  0  0  0  0  0  0  0  0
   -0.4773   -4.5924    0.6571 C   0  0  0  0  0  0  0  0  0  0  0  0
    0.1441   -3.5339   -0.2734 C   0  0  0  0  0  0  0  0  0  0  0  0
    1.0539   -4.3513    2.6749 C   0  0  0  0  0  0  0  0  0  0  0  0
    1.3547   -4.0333    4.0077 C   0  0  0  0  0  0  0  0  0  0  0  0
    2.6629   -4.0731    4.4669 C   0  0  0  0  0  0  0  0  0  0  0  0
    3.6913   -4.3847    3.5807 C   0  0  0  0  0  0  0  0  0  0  0  0
    5.1176   -4.5150    4.0410 C   0  0  0  0  0  0  0  0  0  0  0  0
    5.6938   -5.8713    3.9205 N   0  0  0  0  0  0  0  0  0  0  0  0
    4.9934   -6.8454    4.7696 C   0  0  0  0  0  0  0  0  0  0  0  0
    5.6889   -8.2069    4.6728 C   0  0  0  0  0  0  0  0  0  0  0  0
    5.7744   -8.7070    3.2303 C   0  0  0  0  0  0  0  0  0  0  0  0
    6.4218   -7.6587    2.3363 C   0  0  0  0  0  0  0  0  0  0  0  0
    5.7022   -6.3468    2.5312 C   0  0  0  0  0  0  0  0  0  0  0  0
    3.3836   -4.6233    2.2436 C   0  0  0  0  0  0  0  0  0  0  0  0
    2.0889   -4.7015    1.8218 C   0  0  0  0  0  0  0  0  0  0  0  0
   -2.0738   -1.6742   -1.8738 C   0  0  0  0  0  0  0  0  0  0  0  0
   -3.2265   -1.6647   -2.2762 O   0  0  0  0  0  0  0  0  0  0  0  0
   -0.9620   -1.3512   -2.6599 O   0  0  0  0  0  0  0  0  0  0  0  0
   -1.2474   -0.8439   -3.9474 C   0  0  0  0  0  0  0  0  0  0  0  0
   -2.2361    0.1246   -4.1534 C   0  0  0  0  0  0  0  0  0  0  0  0
   -2.4901    0.6059   -5.4377 C   0  0  0  0  0  0  0  0  0  0  0  0
   -1.7121    0.1649   -6.5039 C   0  0  0  0  0  0  0  0  0  0  0  0
   -2.0661    0.7092   -8.0977 Cl  0  0  0  0  0  0  0  0  0  0  0  0
   -0.6702   -0.7396   -6.2909 C   0  0  0  0  0  0  0  0  0  0  0  0
   -0.4591   -1.2779   -5.0147 C   0  0  0  0  0  0  0  0  0  0  0  0
  1  2  1  0
  2 22  1  0
  3  4  1  0
  3  8  1  0
  3  2  1  1
  4  5  1  0
  5  6  1  0
  6  7  1  0
  6  9  1  6
  7  8  1  0
  9 10  2  0
  9 21  1  0
 10 11  1  0
 11 12  2  0
 12 13  1  0
 12 20  1  0
 13 14  1  0
 14 15  1  0
 14 19  1  0
 15 16  1  0
 16 17  1  0
 17 18  1  0
 18 19  1  0
 20 21  2  0
 22 23  2  0
 22 24  1  0
 24 25  1  0
 25 26  2  0
 25 31  1  0
 26 27  1  0
 27 28  2  0
 28 29  1  0
 28 30  1  0
 30 31  2  0
M  END
>  <DRUGBANK_ID>  (1) 
DB03748

>  <SECONDARY_ACCESSION_NUMBERS>  (1) 
EXPT02744

>  <COMMON_NAME>  (1) 
Methyl-[4-(4-Piperidine-1-Ylmethyl-Phenyl)-Cyclohexyl]-Carbaminic Acid-(4-Chlorophenyl)-Ester

$$$$
