
     RDKit          3D

 15 15  0  0  0  0  0  0  0  0999 V2000
    1.1795    0.0003    0.0566 O   0  0  0  0  0  0  0  0  0  0  0  0
    3.1025   -0.8130    0.7471 O   0  0  0  0  0  0  0  0  0  0  0  0
    4.5837   -0.9339   -1.7327 N   0  0  0  0  0  0  0  0  0  0  0  0
    5.9495   -4.2551   -1.6132 N   0  0  0  0  0  0  0  0  0  0  0  0
    2.4222   -0.0591    0.0400 N   0  0  0  0  0  0  0  0  0  0  0  0
    5.6853   -1.4397   -2.5439 C   0  0  0  0  0  0  0  0  0  0  0  0
    6.8333   -1.9565   -1.6837 C   0  0  0  0  0  0  0  0  0  0  0  0
    4.1721    0.3881   -1.6904 C   0  0  0  0  0  0  0  0  0  0  0  0
    6.4370   -3.1394   -0.8072 C   0  0  0  0  0  0  0  0  0  0  0  0
    3.1185    0.8457   -0.8690 C   0  0  0  0  0  0  0  0  0  0  0  0
    4.7143    1.3391   -2.5684 C   0  0  0  0  0  0  0  0  0  0  0  0
    3.2258    3.0817   -1.8002 C   0  0  0  0  0  0  0  0  0  0  0  0
    2.6595    2.1743   -0.9055 C   0  0  0  0  0  0  0  0  0  0  0  0
    4.2548    2.6536   -2.6318 C   0  0  0  0  0  0  0  0  0  0  0  0
    2.7293    4.4875   -1.9063 C   0  0  0  0  0  0  0  0  0  0  0  0
  1  5  1  0
  2  5  2  0
  3  6  1  0
  3  8  1  0
  4  9  1  0
  5 10  1  0
  6  7  1  0
  7  9  1  0
  8 10  2  0
  8 11  1  0
 10 13  1  0
 11 14  2  0
 12 13  2  0
 12 14  1  0
 12 15  1  0
M  CHG  2   1  -1   5   1
M  END
>  <DRUGBANK_ID>  (1) 
DB05492

>  <SECONDARY_ACCESSION_NUMBERS>  (1) 
DB08290

>  <COMMON_NAME>  (1) 
Epicept NP-1

$$$$
