1365
     RDKit          3D

 12 12  0  0  0  0  0  0  0  0999 V2000
    1.1080   -0.1590   -0.5439 N   0  0  0  0  0  0  0  0  0  0  0  0
    0.5294   -1.2856    0.2440 C   0  0  0  0  0  0  0  0  0  0  0  0
    0.9834   -1.4542    1.7582 C   0  0  0  0  0  0  0  0  0  0  0  0
   -1.0097   -1.3276    0.2279 C   0  0  0  0  0  0  0  0  0  0  0  0
    1.0513   -2.4464   -0.6413 C   0  0  0  0  0  0  0  0  0  0  0  0
    0.5373   -0.5050    2.9029 C   0  0  0  0  0  0  0  0  0  0  0  0
    0.8398    1.1121    0.0397 C   0  0  0  0  0  0  0  0  0  0  0  0
    0.2431   -1.0022    4.1758 C   0  0  0  0  0  0  0  0  0  0  0  0
    0.5206    0.8921    2.8627 C   0  0  0  0  0  0  0  0  0  0  0  0
    0.0263   -0.1144    5.2562 C   0  0  0  0  0  0  0  0  0  0  0  0
    0.5173    1.7765    3.9171 C   0  0  0  0  0  0  0  0  0  0  0  0
    0.1990    1.2641    5.1463 C   0  0  0  0  0  0  0  0  0  0  0  0
  1  2  1  0
  1  7  1  0
  2  3  1  0
  2  4  1  0
  2  5  1  0
  3  6  1  0
  6  8  2  0
  6  9  1  0
  8 10  1  0
  9 11  2  0
 10 12  2  0
 11 12  1  0
M  END
>  <DRUGBANK_ID>  (1) 
DB01365

>  <COMMON_NAME>  (1) 
Mephentermine

>  <CAS_NUMBER>  (1) 
100-92-5

>  <UNII>  (1) 
TEZ91L71V4

>  <SYNONYMS>  (1) 
Mefentermina; Mephentermine; Mephenterminum

$$$$
