
     RDKit          3D

 19 20  0  0  0  0  0  0  0  0999 V2000
   -4.5368    1.5538   -4.0859 O   0  0  0  0  0  0  0  0  0  0  0  0
   -5.4344    1.1318   -3.1700 C   0  0  0  0  0  0  0  0  0  0  0  0
   -6.4600    0.5631   -3.5129 O   0  0  0  0  0  0  0  0  0  0  0  0
   -5.0582    1.5250   -1.7762 C   0  0  0  0  0  0  0  0  0  0  0  0
   -3.7124    0.9416   -1.3456 C   0  0  1  0  0  0  0  0  0  0  0  0
   -2.6574    1.4536   -2.1715 O   0  0  0  0  0  0  0  0  0  0  0  0
   -3.3483    1.2524    0.1199 C   0  0  1  0  0  0  0  0  0  0  0  0
   -3.8655    2.5743    0.6796 C   0  0  2  0  0  0  0  0  0  0  0  0
   -2.9308    3.7434    0.3767 C   0  0  0  0  0  0  0  0  0  0  0  0
   -4.0666    2.2753    2.0702 O   0  0  0  0  0  0  0  0  0  0  0  0
   -4.2262    0.9163    2.0906 C   0  0  0  0  0  0  0  0  0  0  0  0
   -3.9295    0.2378    1.0237 N   0  0  0  0  0  0  0  0  0  0  0  0
   -4.7288    0.3172    3.3528 C   0  0  0  0  0  0  0  0  0  0  0  0
   -5.9918    0.6475    3.8684 C   0  0  0  0  0  0  0  0  0  0  0  0
   -6.4548    0.0496    5.0551 C   0  0  0  0  0  0  0  0  0  0  0  0
   -5.6646   -0.8790    5.7335 C   0  0  0  0  0  0  0  0  0  0  0  0
   -4.4251   -1.2434    5.2077 C   0  0  0  0  0  0  0  0  0  0  0  0
   -3.9697   -0.6582    4.0171 C   0  0  0  0  0  0  0  0  0  0  0  0
   -2.7554   -1.0322    3.5101 O   0  0  0  0  0  0  0  0  0  0  0  0
  1  2  1  0
  2  3  2  0
  2  4  1  0
  5  4  1  0
  5  6  1  6
  7  8  1  0
  7 12  1  1
  7  5  1  0
  8  9  1  1
  8 10  1  0
 10 11  1  0
 11 12  2  0
 11 13  1  0
 13 14  2  0
 13 18  1  0
 14 15  1  0
 15 16  2  0
 16 17  1  0
 17 18  2  0
 18 19  1  0
M  END
>  <DRUGBANK_ID>  (1) 
DB15553

>  <COMMON_NAME>  (1) 
Leptazoline C

$$$$
