
     RDKit          3D

 21 23  0  0  1  0  0  0  0  0999 V2000
    1.8029    0.1207   -0.0133 C   0  0  2  0  0  0  0  0  0  0  0  0
    2.1946   -1.1183    0.7886 C   0  0  0  0  0  0  0  0  0  0  0  0
    2.8730   -1.5857   -0.5268 C   0  0  0  0  0  0  0  0  0  0  0  0
    3.5467   -2.5579   -0.8763 O   0  0  0  0  0  0  0  0  0  0  0  0
    2.7272   -0.3792   -1.0499 N   0  0  0  0  0  0  0  0  0  0  0  0
    3.6772    0.5568   -1.6823 C   0  0  1  0  0  0  0  0  0  0  0  0
    2.9372    1.2348   -2.8771 C   0  0  0  0  0  0  0  0  0  0  0  0
    3.5767    1.2316   -3.9588 O   0  0  0  0  0  0  0  0  0  0  0  0
    1.7850    1.6595   -2.5961 O   0  0  0  0  0  0  0  0  0  0  0  0
    4.0894    1.5747   -0.5831 C   0  0  2  0  0  0  0  0  0  0  0  0
    4.5440    2.9376   -1.1584 C   0  0  0  0  0  0  0  0  0  0  0  0
    5.2839    1.1504    0.3370 C   0  0  0  0  0  0  0  0  0  0  0  0
    5.2334   -0.0987    1.1377 N   0  0  0  0  0  0  0  0  0  0  0  0
    5.4531   -1.3736    0.6414 C   0  0  0  0  0  0  0  0  0  0  0  0
    4.9552   -2.1989    1.6091 C   0  0  0  0  0  0  0  0  0  0  0  0
    4.7454   -1.3719    2.7048 N   0  0  0  0  0  0  0  0  0  0  0  0
    4.1435   -1.7797    3.9766 C   0  0  0  0  0  0  0  0  0  0  0  0
    4.9763   -0.0776    2.4536 N   0  0  0  0  0  0  0  0  0  0  0  0
    2.5636    1.7253    0.4123 S   0  0  0  0  0  0  0  0  0  0  0  0
    2.9492    1.7242    1.8157 O   0  0  0  0  0  0  0  0  0  0  0  0
    1.7478    2.8302   -0.0440 O   0  0  0  0  0  0  0  0  0  0  0  0
  1  2  1  1
  1  5  1  0
  1 19  1  0
  2  3  1  0
  3  4  2  0
  3  5  1  0
  6  5  1  0
  6  7  1  6
  6 10  1  0
  7  8  1  0
  7  9  2  0
 10 11  1  6
 10 12  1  0
 10 19  1  0
 12 13  1  0
 13 14  1  0
 13 18  1  0
 14 15  2  0
 15 16  1  0
 16 17  1  0
 16 18  2  0
 19 20  2  0
 19 21  2  0
M  CHG  2   8  -1  16   1
M  END
>  <DRUGBANK_ID>  (1) 
DB18716

>  <COMMON_NAME>  (1) 
Enmetazobactam

>  <CAS_NUMBER>  (1) 
1001404-83-6

>  <UNII>  (1) 
80VUN7L00C

>  <SYNONYMS>  (1) 
(2s,3s,5r)-3-methyl-3-((3-methyltriazol-3-ium-1-yl)methyl)-4,4,7-trioxo-4^6-thia-1-azabicyclo(3.2.0)heptane-2-carboxylate; 1h-1,2,3-triazolium, 3-(((2s,3s,5r)-2-carboxy-3-methyl-4,4-dioxido-7-oxo-4-thia-1-azabicyclo(3.2.0)hept-3-yl)methyl)-1-methyl-, inner salt

$$$$
