
     RDKit          3D

 30 32  0  0  0  0  0  0  0  0999 V2000
    1.2831    0.3560    0.5080 C   0  0  0  0  0  0  0  0  0  0  0  0
    0.8504   -1.1142    0.6278 C   0  0  0  0  0  0  0  0  0  0  0  0
    1.3162   -2.5151    1.0162 N   0  0  0  0  0  0  0  0  0  0  0  0
    0.6466   -3.8936    0.4841 C   0  0  0  0  0  0  0  0  0  0  0  0
    0.8313   -4.6206   -0.9563 C   0  0  0  0  0  0  0  0  0  0  0  0
    2.7023   -2.5138    0.6072 C   0  0  0  0  0  0  0  0  0  0  0  0
    2.9714   -2.6616   -0.9310 C   0  0  0  0  0  0  0  0  0  0  0  0
    2.1737   -2.0553   -2.0398 O   0  0  0  0  0  0  0  0  0  0  0  0
    0.8130   -1.9353   -2.3066 C   0  0  0  0  0  0  0  0  0  0  0  0
    0.3811   -1.5763   -3.5617 C   0  0  0  0  0  0  0  0  0  0  0  0
   -1.0105   -1.2972   -3.7989 C   0  0  0  0  0  0  0  0  0  0  0  0
   -1.9097   -1.1460   -2.7395 C   0  0  0  0  0  0  0  0  0  0  0  0
   -3.2192   -0.6055   -2.5220 C   0  0  0  0  0  0  0  0  0  0  0  0
   -4.2627   -0.5293   -3.3880 C   0  0  0  0  0  0  0  0  0  0  0  0
   -5.4859   -0.0680   -2.8768 C   0  0  0  0  0  0  0  0  0  0  0  0
   -5.6590    0.3465   -1.5077 C   0  0  0  0  0  0  0  0  0  0  0  0
   -6.9877    0.2849   -1.0785 O   0  0  0  0  0  0  0  0  0  0  0  0
   -7.2788    0.1390    0.3363 C   0  0  0  0  0  0  0  0  0  0  0  0
   -7.1911   -1.2890    1.0256 C   0  0  0  0  0  0  0  0  0  0  0  0
   -5.9160   -2.0194    0.9194 N   0  0  0  0  0  0  0  0  0  0  0  0
   -5.6740   -3.1381    1.8164 C   0  0  0  0  0  0  0  0  0  0  0  0
   -6.5036   -4.3299    1.3790 C   0  0  0  0  0  0  0  0  0  0  0  0
   -5.6014   -2.4621   -0.4340 C   0  0  0  0  0  0  0  0  0  0  0  0
   -6.5065   -3.1545   -1.4227 C   0  0  0  0  0  0  0  0  0  0  0  0
   -4.5743    0.2703   -0.6180 C   0  0  0  0  0  0  0  0  0  0  0  0
   -3.4354   -0.3105   -1.1508 C   0  0  0  0  0  0  0  0  0  0  0  0
   -2.4083   -1.0767   -0.4196 C   0  0  0  0  0  0  0  0  0  0  0  0
   -2.3695   -1.2928    0.7539 O   0  0  0  0  0  0  0  0  0  0  0  0
   -1.4872   -1.5099   -1.5263 C   0  0  0  0  0  0  0  0  0  0  0  0
   -0.2725   -2.0791   -1.4349 C   0  0  0  0  0  0  0  0  0  0  0  0
  1  2  1  0
  2  3  1  0
  3  4  1  0
  3  6  1  0
  4  5  1  0
  6  7  1  0
  7  8  1  0
  8  9  1  0
  9 10  2  0
  9 30  1  0
 10 11  1  0
 11 12  2  0
 12 13  1  0
 12 29  1  0
 13 14  2  0
 13 26  1  0
 14 15  1  0
 15 16  2  0
 16 17  1  0
 16 25  1  0
 17 18  1  0
 18 19  1  0
 19 20  1  0
 20 21  1  0
 20 23  1  0
 21 22  1  0
 23 24  1  0
 25 26  2  0
 26 27  1  0
 27 28  2  0
 27 29  1  0
 29 30  2  0
M  END
>  <DRUGBANK_ID>  (1) 
DB17965

>  <COMMON_NAME>  (1) 
Tilorone

>  <CAS_NUMBER>  (1) 
27591-97-5

>  <UNII>  (1) 
O6W7VEW6KS

$$$$
