
     RDKit          3D

 20 21  0  0  0  0  0  0  0  0999 V2000
    1.3421   -0.2185    0.0231 C   0  0  0  0  0  0  0  0  0  0  0  0
    0.4604   -1.3019    0.0336 C   0  0  0  0  0  0  0  0  0  0  0  0
    0.8446    1.0834    0.0056 C   0  0  0  0  0  0  0  0  0  0  0  0
   -5.8953    4.4529   -4.1354 C   0  0  0  0  0  0  0  0  0  0  0  0
   -0.9238   -1.0886    0.0165 C   0  0  0  0  0  0  0  0  0  0  0  0
   -0.5340    1.3033    0.0324 C   0  0  0  0  0  0  0  0  0  0  0  0
   -4.5101    4.6556   -4.7532 C   0  0  0  0  0  0  0  0  0  0  0  0
   -6.2588    2.9858   -3.8958 C   0  0  0  0  0  0  0  0  0  0  0  0
   -5.5682    1.7150   -1.8181 C   0  0  0  0  0  0  0  0  0  0  0  0
   -1.4177    0.2186    0.0015 C   0  0  0  0  0  0  0  0  0  0  0  0
   -4.6501    1.1615   -1.0144 C   0  0  0  0  0  0  0  0  0  0  0  0
   -4.3849    4.0679   -6.1359 C   0  0  0  0  0  0  0  0  0  0  0  0
   -2.8387    0.4912   -0.2406 C   0  0  0  0  0  0  0  0  0  0  0  0
   -4.9621    0.4237    0.2403 C   0  0  0  0  0  0  0  0  0  0  0  0
   -5.3038    2.3842   -2.9912 N   0  0  0  0  0  0  0  0  0  0  0  0
   -3.2966    1.1857   -1.2329 N   0  0  0  0  0  0  0  0  0  0  0  0
   -4.1912    4.6943   -7.1639 O   0  0  0  0  0  0  0  0  0  0  0  0
   -4.5013    2.7276   -6.1613 O   0  0  0  0  0  0  0  0  0  0  0  0
   -6.0299    0.2334    0.7774 O   0  0  0  0  0  0  0  0  0  0  0  0
   -3.7249    0.0001    0.6565 O   0  0  0  0  0  0  0  0  0  0  0  0
  2  1  2  0
  3  1  1  0
  5  2  1  0
  6  3  2  0
  7  4  1  0
  8  4  1  0
  9 15  1  0
 10  5  2  0
 10  6  1  0
 11  9  2  3
 12  7  1  0
 13 10  1  0
 14 11  1  0
 15  8  1  0
 16 11  1  0
 16 13  2  0
 17 12  2  0
 18 12  1  0
 19 14  2  0
 20 13  1  0
 20 14  1  0
M  END
>  <DRUGBANK_ID>  (1) 
DB08396

>  <COMMON_NAME>  (1) 
4-{[(Z)-(5-oxo-2-phenyl-1,3-oxazol-4(5H)-ylidene)methyl]amino}butanoic acid

$$$$
