1353
     RDKit          3D

 15 15  0  0  0  0  0  0  0  0999 V2000
   -2.4155   -1.0822   -0.1194 O   0  0  0  0  0  0  0  0  0  0  0  0
    2.3778   -1.2011    0.1212 O   0  0  0  0  0  0  0  0  0  0  0  0
    0.0459    2.6462   -0.0073 O   0  0  0  0  0  0  0  0  0  0  0  0
   -1.1355    0.7298    0.0262 N   0  0  0  0  0  0  0  0  0  0  0  0
    1.1738    0.6899   -0.0083 N   0  0  0  0  0  0  0  0  0  0  0  0
   -0.0165   -1.4594   -0.1089 C   0  0  0  0  0  0  0  0  0  0  0  0
   -0.0608   -2.4794    1.0697 C   0  0  0  0  0  0  0  0  0  0  0  0
    0.0639   -2.0882   -1.5207 C   0  0  0  0  0  0  0  0  0  0  0  0
   -1.2475   -3.4635    1.1096 C   0  0  0  0  0  0  0  0  0  0  0  0
   -1.2795   -0.6183   -0.0435 C   0  0  0  0  0  0  0  0  0  0  0  0
    1.2712   -0.6691    0.0434 C   0  0  0  0  0  0  0  0  0  0  0  0
   -1.3504   -4.4257   -0.0709 C   0  0  0  0  0  0  0  0  0  0  0  0
    0.1486   -1.1172   -2.6811 C   0  0  0  0  0  0  0  0  0  0  0  0
    0.0296    1.4150   -0.0001 C   0  0  0  0  0  0  0  0  0  0  0  0
   -0.0616   -5.2036   -0.2782 C   0  0  0  0  0  0  0  0  0  0  0  0
  1 10  2  0
  2 11  2  0
  3 14  2  0
  4 10  1  0
  4 14  1  0
  5 11  1  0
  5 14  1  0
  6  7  1  0
  6  8  1  0
  6 10  1  0
  6 11  1  0
  7  9  1  0
  8 13  1  0
  9 12  1  0
 12 15  1  0
M  END
>  <DRUGBANK_ID>  (1) 
DB01353

>  <COMMON_NAME>  (1) 
Butobarbital

>  <CAS_NUMBER>  (1) 
77-28-1

>  <UNII>  (1) 
OHZ8QAW6YC

>  <SYNONYMS>  (1) 
Butethal; Butobarbital; Butobarbitone

$$$$
