2S8
     RDKit          3D

 27 28  0  0  0  0  0  0  0  0999 V2000
    0.8760   -0.3786    0.0024 O   0  0  0  0  0  0  0  0  0  0  0  0
    0.4029    0.8276    0.3672 C   0  0  0  0  0  0  0  0  0  0  0  0
    1.2265    1.7315    0.4173 O   0  0  0  0  0  0  0  0  0  0  0  0
   -1.1184    0.8711    0.6125 C   0  0  2  0  0  0  0  0  0  0  0  0
   -1.7132    1.1042   -0.7424 C   0  0  0  0  0  0  0  0  0  0  0  0
   -2.0991    0.1215   -1.6307 C   0  0  0  0  0  0  0  0  0  0  0  0
   -2.4798    0.7326   -2.7930 N   0  0  0  0  0  0  0  0  0  0  0  0
   -2.3192    2.0971   -2.6922 C   0  0  0  0  0  0  0  0  0  0  0  0
   -2.5238    3.1163   -3.6312 C   0  0  0  0  0  0  0  0  0  0  0  0
   -2.2417    4.4353   -3.2480 C   0  0  0  0  0  0  0  0  0  0  0  0
   -1.7805    4.7310   -1.9763 C   0  0  0  0  0  0  0  0  0  0  0  0
   -1.5696    3.7048   -1.0655 C   0  0  0  0  0  0  0  0  0  0  0  0
   -1.8472    2.3636   -1.4101 C   0  0  0  0  0  0  0  0  0  0  0  0
   -1.6839    1.8848    1.6400 C   0  0  0  0  0  0  0  0  0  0  0  0
   -1.2130    1.7107    3.0756 C   0  0  0  0  0  0  0  0  0  0  0  0
    0.3029    1.8277    3.1820 C   0  0  0  0  0  0  0  0  0  0  0  0
    0.8197    3.1787    2.6324 C   0  0  0  0  0  0  0  0  0  0  0  0
    0.3599    4.3673    3.4655 C   0  0  0  0  0  0  0  0  0  0  0  0
    0.8234    4.2323    4.9036 C   0  0  0  0  0  0  0  0  0  0  0  0
    2.2636    4.2128    4.9492 N   0  0  0  0  0  0  0  0  0  0  0  0
    3.0065    5.1328    5.6241 C   0  0  0  0  0  0  0  0  0  0  0  0
    2.4869    6.0249    6.2946 O   0  0  0  0  0  0  0  0  0  0  0  0
    4.3631    5.0289    5.5333 O   0  0  0  0  0  0  0  0  0  0  0  0
    5.1230    4.0536    4.7654 C   0  0  0  0  0  0  0  0  0  0  0  0
    4.8624    2.6373    5.2944 C   0  0  0  0  0  0  0  0  0  0  0  0
    6.6227    4.3435    4.9902 C   0  0  0  0  0  0  0  0  0  0  0  0
    4.8605    4.2371    3.2663 C   0  0  0  0  0  0  0  0  0  0  0  0
  2  1  1  0
  3  2  2  0
  4  2  1  0
  4  5  1  0
  4 14  1  1
  5 13  1  0
  6  5  2  0
  6  7  1  0
  7  8  1  0
  8 13  2  0
  8  9  1  0
  9 10  2  0
 10 11  1  0
 12 11  2  0
 13 12  1  0
 15 14  1  0
 16 15  1  0
 16 17  1  0
 18 17  1  0
 19 18  1  0
 19 20  1  0
 20 21  1  0
 21 23  1  0
 22 21  2  0
 23 24  1  0
 24 25  1  0
 24 27  1  0
 26 24  1  0
M  END
>  <DRUGBANK_ID>  (1) 
DB06982

>  <COMMON_NAME>  (1) 
(2S)-8-[(tert-butoxycarbonyl)amino]-2-(1H-indol-3-yl)octanoic acid

$$$$
