
     RDKit          3D

 37 40  0  0  0  0  0  0  0  0999 V2000
   -0.1430   -1.4689    0.0833 C   0  0  0  0  0  0  0  0  0  0  0  0
    1.0514   -0.8495    0.3173 C   0  0  0  0  0  0  0  0  0  0  0  0
    1.1441    0.4545    0.5953 N   0  0  0  0  0  0  0  0  0  0  0  0
    0.0306    1.2024    0.4695 C   0  0  0  0  0  0  0  0  0  0  0  0
   -1.1885    0.6945    0.2247 N   0  0  0  0  0  0  0  0  0  0  0  0
   -1.2538   -0.6487    0.0850 C   0  0  0  0  0  0  0  0  0  0  0  0
   -2.5747   -1.2435   -0.0448 C   0  0  0  0  0  0  0  0  0  0  0  0
    0.2083    2.5741    0.3431 N   0  0  0  0  0  0  0  0  0  0  0  0
    1.4283    3.2223    0.0824 C   0  0  0  0  0  0  0  0  0  0  0  0
   -3.0634   -2.1382    0.8905 C   0  0  0  0  0  0  0  0  0  0  0  0
   -4.3239   -2.5121    0.5112 N   0  0  0  0  0  0  0  0  0  0  0  0
   -4.6590   -1.9133   -0.6846 C   0  0  0  0  0  0  0  0  0  0  0  0
   -3.5785   -1.0999   -1.0528 C   0  0  0  0  0  0  0  0  0  0  0  0
   -5.8258   -2.0102   -1.4606 C   0  0  0  0  0  0  0  0  0  0  0  0
   -5.8974   -1.2586   -2.6352 C   0  0  0  0  0  0  0  0  0  0  0  0
   -4.8382   -0.4459   -3.0278 C   0  0  0  0  0  0  0  0  0  0  0  0
   -3.6749   -0.3625   -2.2520 C   0  0  0  0  0  0  0  0  0  0  0  0
    2.2424    3.1062   -1.0421 C   0  0  0  0  0  0  0  0  0  0  0  0
    3.4252    3.8869   -1.0909 C   0  0  0  0  0  0  0  0  0  0  0  0
    3.7860    4.8883   -0.1356 C   0  0  0  0  0  0  0  0  0  0  0  0
    2.8426    5.0813    0.9026 C   0  0  0  0  0  0  0  0  0  0  0  0
    1.7759    4.1826    1.0349 C   0  0  0  0  0  0  0  0  0  0  0  0
    2.8592    6.2265    1.7520 N   0  0  0  0  0  0  0  0  0  0  0  0
    2.0835    2.3299   -2.1674 O   0  0  0  0  0  0  0  0  0  0  0  0
    0.9008    1.5653   -2.3163 C   0  0  0  0  0  0  0  0  0  0  0  0
    4.9924    5.6060   -0.2788 N   0  0  0  0  0  0  0  0  0  0  0  0
    5.6682    6.3468    0.8455 C   0  0  0  0  0  0  0  0  0  0  0  0
    5.7304    5.4521   -1.5597 C   0  0  0  0  0  0  0  0  0  0  0  0
    6.9008    5.7725    1.6037 C   0  0  0  0  0  0  0  0  0  0  0  0
    8.1197    5.5721    0.8128 N   0  0  0  0  0  0  0  0  0  0  0  0
    9.2673    5.2400    1.6472 C   0  0  0  0  0  0  0  0  0  0  0  0
    2.0506    6.4802    2.8277 C   0  0  0  0  0  0  0  0  0  0  0  0
    2.4071    7.6936    3.6050 C   0  0  0  0  0  0  0  0  0  0  0  0
    1.0766    5.8065    3.1969 O   0  0  0  0  0  0  0  0  0  0  0  0
    1.5908    8.0277    4.6166 C   0  0  0  0  0  0  0  0  0  0  0  0
    7.9195    4.4056   -0.0313 C   0  0  0  0  0  0  0  0  0  0  0  0
   -5.1952   -3.3817    1.2713 C   0  0  0  0  0  0  0  0  0  0  0  0
  1  2  2  0
  1  6  1  0
  2  3  1  0
  3  4  2  0
  4  5  1  0
  4  8  1  0
  5  6  2  0
  6  7  1  0
  7 10  2  0
  7 13  1  0
  8  9  1  0
  9 18  2  0
  9 22  1  0
 10 11  1  0
 11 12  1  0
 11 37  1  0
 12 13  2  0
 12 14  1  0
 13 17  1  0
 14 15  2  0
 15 16  1  0
 16 17  2  0
 18 19  1  0
 18 24  1  0
 19 20  2  0
 20 21  1  0
 20 26  1  0
 21 22  2  0
 21 23  1  0
 23 32  1  0
 24 25  1  0
 26 27  1  0
 26 28  1  0
 27 29  1  0
 29 30  1  0
 30 31  1  0
 30 36  1  0
 32 33  1  0
 32 34  2  0
 33 35  2  0
M  END
>  <DRUGBANK_ID>  (1) 
DB09330

>  <COMMON_NAME>  (1) 
Osimertinib

>  <CAS_NUMBER>  (1) 
1421373-65-0

>  <UNII>  (1) 
3C06JJ0Z2O

>  <SYNONYMS>  (1) 
Mereletinib; N-(2-{[2-(dimethylamino)ethyl](methyl)amino}-4-methoxy-5-{[4-(1-methyl-1H-indol-3-yl)pyrimidin-2-yl]amino}phenyl)prop-2-enamide; Osimertinib; Osimertinibum

$$$$
