1564
     RDKit          3D

 23 26  0  0  1  0  0  0  0  0999 V2000
    1.5477   -1.3366    2.8513 O   0  0  0  0  0  0  0  0  0  0  0  0
   -5.9825   -7.9574   -1.6679 O   0  0  0  0  0  0  0  0  0  0  0  0
   -0.8159   -3.8560    2.2480 C   0  0  2  0  0  0  0  0  0  0  0  0
    0.6524   -3.6146    1.9338 C   0  0  1  0  0  0  0  0  0  0  0  0
   -1.4953   -4.2037    0.9481 C   0  0  1  0  0  0  0  0  0  0  0  0
   -1.2103   -5.6916    0.6851 C   0  0  1  0  0  0  0  0  0  0  0  0
    1.0924   -2.6621    3.2098 C   0  0  2  0  0  0  0  0  0  0  0  0
   -2.4888   -6.4333   -0.1305 C   0  0  2  0  0  0  0  0  0  0  0  0
    1.1728   -5.1116    1.6135 C   0  0  0  0  0  0  0  0  0  0  0  0
    0.3969   -5.6909    0.3527 C   0  0  0  0  0  0  0  0  0  0  0  0
   -1.2422   -2.6328    2.9995 C   0  0  0  0  0  0  0  0  0  0  0  0
   -2.9556   -4.0212    0.9004 C   0  0  2  0  0  0  0  0  0  0  0  0
   -0.1720   -2.4318    4.0427 C   0  0  0  0  0  0  0  0  0  0  0  0
   -3.4032   -4.2911   -0.6312 C   0  0  0  0  0  0  0  0  0  0  0  0
   -3.1832   -5.7136   -1.2333 C   0  0  0  0  0  0  0  0  0  0  0  0
    1.0823   -2.7764    0.7161 C   0  0  0  0  0  0  0  0  0  0  0  0
   -4.2519   -6.3962    0.6249 C   0  0  0  0  0  0  0  0  0  0  0  0
    2.2698   -3.4284    3.6947 C   0  0  0  0  0  0  0  0  0  0  0  0
   -1.5765   -7.3931   -1.0778 C   0  0  0  0  0  0  0  0  0  0  0  0
   -3.5958   -2.7223    1.2986 C   0  0  0  0  0  0  0  0  0  0  0  0
   -5.6327   -6.0697   -0.3270 C   0  0  0  0  0  0  0  0  0  0  0  0
   -3.9582   -6.6577   -1.9233 C   0  0  0  0  0  0  0  0  0  0  0  0
   -5.3486   -6.9795   -1.4240 C   0  0  0  0  0  0  0  0  0  0  0  0
  2 23  2  0
  3  4  1  0
  3  5  1  0
  3 11  1  6
  4  7  1  0
  4  9  1  0
  4 16  1  6
  5  6  1  0
  5 12  1  1
  6  8  1  0
  6 10  1  6
  7  1  1  0
  7 13  1  0
  7 18  1  1
  8 15  1  0
  8 17  1  0
  8 19  1  6
  9 10  1  0
 11 13  1  0
 12 14  1  0
 12 20  1  6
 14 15  1  0
 15 22  2  0
 17 21  1  0
 21 23  1  0
 22 23  1  0
M  END
>  <DRUGBANK_ID>  (1) 
DB01564

>  <COMMON_NAME>  (1) 
Calusterone

>  <CAS_NUMBER>  (1) 
17021-26-0

>  <UNII>  (1) 
0678G6Q58A

>  <SYNONYMS>  (1) 
17-beta-Hydroxy-7-beta,17-alpha-dimethylandrost-4-ene-3-one; 17beta-Hydroxy-7beta,17-dimethylandrost-4-en-3-one; 17beta-Hydroxy-7beta,17alpha-dimethylandrost-4-ene-3-one; 7-beta,17-alpha-Dimethyl testosterone; 7-beta,17-Dimethyltestosterone; 7beta,17-Dimethyltestosterone; 7beta,17alpha-Dimethyltestosterone; Calusterona; Calusterone; Calusteronum; CLS

$$$$
