
     RDKit          3D

 27 26  0  0  0  0  0  0  0  0999 V2000
    1.1799    0.0384    0.3423 C   0  0  0  0  0  0  0  0  0  0  0  0
    0.6317    0.8088   -0.8001 C   0  0  0  0  0  0  0  0  0  0  0  0
    1.0357    0.0838   -2.0416 C   0  0  0  0  0  0  0  0  0  0  0  0
    0.3706   -1.2360   -2.4732 C   0  0  0  0  0  0  0  0  0  0  0  0
   -1.1482   -1.2084   -2.6257 C   0  0  0  0  0  0  0  0  0  0  0  0
   -1.7384   -0.3334   -3.7300 C   0  0  0  0  0  0  0  0  0  0  0  0
    0.8198   -1.4258    0.1761 C   0  0  0  0  0  0  0  0  0  0  0  0
   -1.3446   -0.5288   -5.0821 O   0  0  0  0  0  0  0  0  0  0  0  0
    0.5306    0.2021   -4.5784 O   0  0  0  0  0  0  0  0  0  0  0  0
    0.6254    1.6579   -4.6106 C   0  0  0  0  0  0  0  0  0  0  0  0
    2.0166    2.1122   -5.0682 C   0  0  0  0  0  0  0  0  0  0  0  0
    2.2963    1.4301   -6.3880 N   0  0  0  0  0  0  0  0  0  0  0  0
    0.9970    1.5321   -7.2238 C   0  0  0  0  0  0  0  0  0  0  0  0
    3.4679    1.9362   -7.1367 C   0  0  0  0  0  0  0  0  0  0  0  0
    2.7673    0.0200   -6.0322 C   0  0  0  0  0  0  0  0  0  0  0  0
    0.0524   -1.0947   -5.5600 P   0  0  0  0  0  0  0  0  0  0  0  0
   -0.5653   -2.4485   -5.2626 O   0  0  0  0  0  0  0  0  0  0  0  0
    1.4397   -1.7097   -5.2544 O   0  0  0  0  0  0  0  0  0  0  0  0
    1.2277   -2.3053    1.2892 C   0  0  0  0  0  0  0  0  0  0  0  0
   -2.9999   -3.5487    4.5890 C   0  0  0  0  0  0  0  0  0  0  0  0
   -1.4690   -3.5586    4.5351 C   0  0  0  0  0  0  0  0  0  0  0  0
   -0.9791   -4.0881    3.1814 C   0  0  0  0  0  0  0  0  0  0  0  0
   -1.4689   -3.1681    2.0612 C   0  0  0  0  0  0  0  0  0  0  0  0
   -0.9648   -1.7436    2.3317 C   0  0  0  0  0  0  0  0  0  0  0  0
    0.5675   -1.7479    2.5165 C   0  0  0  0  0  0  0  0  0  0  0  0
   -3.5692   -4.9508    4.3760 C   0  0  0  0  0  0  0  0  0  0  0  0
   -3.0620   -5.8971    5.4518 C   0  0  0  0  0  0  0  0  0  0  0  0
  2  1  1  0
  3  2  1  0
  4  3  1  0
  5  4  1  0
  6  5  1  0
  7  1  1  0
  7 19  1  0
  8  6  1  0
  8 16  1  0
 10  9  1  0
 11 10  1  0
 12 11  1  0
 12 13  1  0
 12 14  1  0
 12 15  1  0
 16  9  1  0
 16 17  2  0
 16 18  1  0
 19 25  1  0
 21 20  1  0
 22 21  1  0
 23 22  1  0
 24 23  1  0
 25 24  1  0
 26 20  1  0
 26 27  1  0
M  CHG  2  12   1  18  -1
M  END
>  <DRUGBANK_ID>  (1) 
DB09031

>  <COMMON_NAME>  (1) 
Miltefosine

>  <CAS_NUMBER>  (1) 
58066-85-6

>  <UNII>  (1) 
53EY29W7EC

>  <SYNONYMS>  (1) 
HDPC; hexadecyl 2-(trimethylazaniumyl)ethyl phosphate; Hexadecylphosphocholine; Hexadecylphosphorylcholine; Miltefosin; Miltefosina; Milt√©fosine; Miltefosine; Monohexadecylphosphocholine; Monohexadecylphosphorylcholine

$$$$
