
     RDKit          3D

 26 27  0  0  0  0  0  0  0  0999 V2000
   -0.7514   -0.1902   -1.6894 Cu  0  0  0  0  0 15  0  0  0  0  0  0
    0.0067    1.6019    0.3889 O   0  0  0  0  0  0  0  0  0  0  0  0
    1.1865    0.7731    0.5008 C   0  0  0  0  0  0  0  0  0  0  0  0
    0.8861   -0.7099    0.9287 C   0  0  0  0  0  0  0  0  0  0  0  0
   -0.7518   -0.5268    0.5123 C   0  0  0  0  0  0  0  0  0  0  0  0
   -1.1562    0.8287    0.4432 C   0  0  0  0  0  0  0  0  0  0  0  0
    2.3745   -1.4617    0.4730 C   0  0  0  0  0  0  0  0  0  0  0  0
    3.2673   -0.8625   -0.5622 C   0  0  0  0  0  0  0  0  0  0  0  0
    3.5761    0.3846    0.1450 C   0  0  0  0  0  0  0  0  0  0  0  0
    2.4236    1.3064    0.3208 C   0  0  0  0  0  0  0  0  0  0  0  0
   -2.5319    1.2046    0.1045 C   0  0  0  0  0  0  0  0  0  0  0  0
   -3.5317    0.1846   -0.0577 C   0  0  0  0  0  0  0  0  0  0  0  0
   -3.0942   -1.1384    0.0145 C   0  0  0  0  0  0  0  0  0  0  0  0
   -1.7425   -1.4987    0.1048 C   0  0  0  0  0  0  0  0  0  0  0  0
    2.8081   -2.5383    0.9450 O   0  0  0  0  0  0  0  0  0  0  0  0
    4.6776    0.5831    0.7161 O   0  0  0  0  0  0  0  0  0  0  0  0
    0.6466   -2.0917    0.4102 C   0  0  0  0  0  0  0  0  0  0  0  0
   -4.0964   -2.3297    0.0325 C   0  0  0  0  0  0  0  0  0  0  0  0
   -1.5078   -2.6631   -0.3197 O   0  0  0  0  0  0  0  0  0  0  0  0
   -4.7681    0.3745   -0.2669 O   0  0  0  0  0  0  0  0  0  0  0  0
   -2.9878    2.6429   -0.1323 C   0  0  0  0  0  0  0  0  0  0  0  0
   -2.1095    3.4898   -0.3031 O   0  0  0  0  0  0  0  0  0  0  0  0
   -4.4853    2.9957   -0.2272 C   0  0  0  0  0  0  0  0  0  0  0  0
    2.9534   -0.8442   -2.0677 C   0  0  0  0  0  0  0  0  0  0  0  0
    3.3753   -1.7355   -2.8159 O   0  0  0  0  0  0  0  0  0  0  0  0
    2.0476    0.1683   -2.7482 C   0  0  0  0  0  0  0  0  0  0  0  0
  2  3  1  0
  2  6  1  0
  3  4  1  0
  3 10  2  0
  4  5  1  0
  4  7  1  0
  4 17  1  0
  5  6  2  0
  5 14  1  0
  6 11  1  0
  7  8  1  0
  7 15  2  0
  8  9  1  0
  8 24  1  0
  9 10  1  0
  9 16  2  0
 11 12  2  0
 11 21  1  0
 12 13  1  0
 12 20  1  0
 13 14  2  0
 13 18  1  0
 14 19  1  0
 21 22  2  0
 21 23  1  0
 24 25  2  0
 24 26  1  0
M  CHG  3   1   2  19  -1  20  -1
M  END
>  <DRUGBANK_ID>  (1) 
DB13830

>  <COMMON_NAME>  (1) 
Copper usnate

>  <UNII>  (1) 
2EV5P25E2S

$$$$
