
     RDKit          3D

 17 18  0  0  0  0  0  0  0  0999 V2000
   -1.0851   -0.0559    0.0212 S   0  0  0  0  0  0  0  0  0  0  0  0
    0.2369   -1.1659    0.0104 C   0  0  0  0  0  0  0  0  0  0  0  0
    1.4253   -0.5939   -0.0100 N   0  0  0  0  0  0  0  0  0  0  0  0
    1.3216    0.8082   -0.0034 C   0  0  0  0  0  0  0  0  0  0  0  0
    0.0115    1.2568    0.0095 C   0  0  0  0  0  0  0  0  0  0  0  0
    2.5191    1.6664   -0.0216 C   0  0  0  0  0  0  0  0  0  0  0  0
    2.3274    3.0256   -0.0302 N   0  0  0  0  0  0  0  0  0  0  0  0
    3.6726    1.2356   -0.0357 O   0  0  0  0  0  0  0  0  0  0  0  0
   -0.0628   -2.6436   -0.0511 C   0  0  1  0  0  0  0  0  0  0  0  0
    0.4621   -3.3136   -1.3157 C   0  0  2  0  0  0  0  0  0  0  0  0
   -0.4404   -3.2012   -2.4159 O   0  0  0  0  0  0  0  0  0  0  0  0
    0.6416   -4.7565   -0.8553 C   0  0  2  0  0  0  0  0  0  0  0  0
   -0.5942   -5.4781   -1.0026 O   0  0  0  0  0  0  0  0  0  0  0  0
    1.0280   -4.6156    0.6198 C   0  0  2  0  0  0  0  0  0  0  0  0
    0.5212   -3.3354    1.0733 O   0  0  0  0  0  0  0  0  0  0  0  0
    2.5432   -4.6965    0.8498 C   0  0  0  0  0  0  0  0  0  0  0  0
    3.2668   -3.6874    0.1607 O   0  0  0  0  0  0  0  0  0  0  0  0
  1  2  1  0
  1  5  1  0
  2  3  2  0
  3  4  1  0
  4  5  2  0
  4  6  1  0
  6  7  1  0
  6  8  2  0
  9 10  1  0
  9 15  1  0
  9  2  1  6
 10 11  1  6
 10 12  1  0
 12 13  1  1
 12 14  1  0
 14 15  1  0
 14 16  1  6
 16 17  1  0
M  END
>  <DRUGBANK_ID>  (1) 
DB13243

>  <COMMON_NAME>  (1) 
Tiazofurine

>  <CAS_NUMBER>  (1) 
60084-10-8

>  <UNII>  (1) 
ULJ82834RE

>  <SYNONYMS>  (1) 
2-(β-D-ribofuranosyl)-4-thiazolecarboxamide; 2-Beta-D-ribofuranosyl-4-thiazolecarboxamide; 2-β-D-ribofuranosyl-4-thiazolecarboxamide; TCAR; Tiazofurin; Tiazofurina; Tiazofurine; Tiazofurinum

$$$$
