
     RDKit          3D

 14 15  0  0  1  0  0  0  0  0999 V2000
    2.6255    0.9584    3.4442 O   0  0  0  0  0  0  0  0  0  0  0  0
    2.3509    0.3540    2.4072 C   0  0  0  0  0  0  0  0  0  0  0  0
    3.0911    0.6489    1.0708 C   0  0  1  0  0  0  0  0  0  0  0  0
    3.1011    2.1576    0.7770 C   0  0  0  0  0  0  0  0  0  0  0  0
    4.4405    2.6493    1.3241 C   0  0  0  0  0  0  0  0  0  0  0  0
    5.3090    1.4352    1.1561 C   0  0  0  0  0  0  0  0  0  0  0  0
    6.5288    1.4147    1.1185 O   0  0  0  0  0  0  0  0  0  0  0  0
    4.4951    0.3268    1.0622 N   0  0  0  0  0  0  0  0  0  0  0  0
    1.2959   -0.5500    2.3377 N   0  0  0  0  0  0  0  0  0  0  0  0
    1.3472   -1.8220    1.6303 C   0  0  0  0  0  0  0  0  0  0  0  0
    0.1934   -1.9099    0.6394 C   0  0  0  0  0  0  0  0  0  0  0  0
   -1.1524   -1.6561    1.3279 C   0  0  0  0  0  0  0  0  0  0  0  0
   -1.1230   -0.3766    2.1737 C   0  0  0  0  0  0  0  0  0  0  0  0
    0.0824   -0.3526    3.1244 C   0  0  0  0  0  0  0  0  0  0  0  0
  1  2  2  0
  2  9  1  0
  3  4  1  0
  3  8  1  0
  3  2  1  1
  4  5  1  0
  5  6  1  0
  6  7  2  0
  6  8  1  0
  9 10  1  0
  9 14  1  0
 10 11  1  0
 11 12  1  0
 12 13  1  0
 13 14  1  0
M  END
>  <DRUGBANK_ID>  (1) 
DB16163

>  <COMMON_NAME>  (1) 
Fasoracetam

>  <CAS_NUMBER>  (1) 
110958-19-5

>  <UNII>  (1) 
42O8UF5CJB

>  <SYNONYMS>  (1) 
Fasoracetam

$$$$
