
     RDKit          3D

  8  8  0  0  0  0  0  0  0  0999 V2000
   -1.4211   -0.1018   -0.0266 N   0  0  0  0  0  0  0  0  0  0  0  0
   -0.6483   -1.2677   -0.0276 C   0  0  0  0  0  0  0  0  0  0  0  0
   -2.6966   -0.1333   -0.0771 O   0  0  0  0  0  0  0  0  0  0  0  0
   -1.4157   -2.8789   -0.1367 S   0  0  0  0  0  0  0  0  0  0  0  0
   -0.7717    1.1279    0.0213 C   0  0  0  0  0  0  0  0  0  0  0  0
    0.7520   -1.1805    0.0276 C   0  0  0  0  0  0  0  0  0  0  0  0
    0.6199    1.2229   -0.0111 C   0  0  0  0  0  0  0  0  0  0  0  0
    1.3792    0.0637   -0.0068 C   0  0  0  0  0  0  0  0  0  0  0  0
  2  1  2  0
  3  1  1  0
  4  2  1  0
  5  1  1  0
  6  2  1  0
  6  8  2  0
  7  5  2  0
  8  7  1  0
M  CHG  2   1   1   3  -1
M  END
>  <DRUGBANK_ID>  (1) 
DB06815

>  <COMMON_NAME>  (1) 
Pyrithione

>  <CAS_NUMBER>  (1) 
1121-31-9

>  <UNII>  (1) 
6GK82EC25D

>  <SYNONYMS>  (1) 
2-pyridinethiol 1-oxide; Omadine; Pyridinethiol N-oxide

$$$$
