IPC
     RDKit          3D

 27 29  0  0  0  0  0  0  0  0999 V2000
    1.0699   -0.0041    0.0276 N   0  0  0  0  0  0  0  0  0  0  0  0
    0.2999    1.2687   -0.0109 C   0  0  0  0  0  0  0  0  0  0  0  0
   -0.5466    1.4419   -1.2718 C   0  0  0  0  0  0  0  0  0  0  0  0
   -0.5577    1.4164    1.2509 C   0  0  0  0  0  0  0  0  0  0  0  0
    0.2793   -1.1761    0.1265 C   0  0  0  0  0  0  0  0  0  0  0  0
   -0.7437   -1.3376   -0.5403 O   0  0  0  0  0  0  0  0  0  0  0  0
    0.6015   -2.2120    1.1673 C   0  0  0  0  0  0  0  0  0  0  0  0
    1.6208   -2.0321    2.1089 C   0  0  0  0  0  0  0  0  0  0  0  0
    2.0973   -3.1120    2.8442 C   0  0  0  0  0  0  0  0  0  0  0  0
    1.4652   -4.3529    2.7647 C   0  0  0  0  0  0  0  0  0  0  0  0
    0.3944   -4.5243    1.8802 C   0  0  0  0  0  0  0  0  0  0  0  0
   -0.0313   -3.4624    1.0788 C   0  0  0  0  0  0  0  0  0  0  0  0
    1.9114   -5.4725    3.6514 C   0  0  0  0  0  0  0  0  0  0  0  0
    2.5025   -0.0346   -0.0750 C   0  0  0  0  0  0  0  0  0  0  0  0
    3.3415   -1.1532   -0.2473 C   0  0  0  0  0  0  0  0  0  0  0  0
    5.0045   -0.7141   -0.0882 S   0  0  0  0  0  0  0  0  0  0  0  0
    4.6583    0.9570   -0.0552 C   0  0  0  0  0  0  0  0  0  0  0  0
    3.3004    1.1683   -0.0259 C   0  0  0  0  0  0  0  0  0  0  0  0
    3.0008   -2.5494   -0.5457 C   0  0  0  0  0  0  0  0  0  0  0  0
    3.8912   -3.4835   -0.1158 O   0  0  0  0  0  0  0  0  0  0  0  0
    1.9798   -2.9197   -1.1201 O   0  0  0  0  0  0  0  0  0  0  0  0
    5.7216    1.9677   -0.0152 C   0  0  0  0  0  0  0  0  0  0  0  0
    5.7761    2.9050    1.0293 C   0  0  0  0  0  0  0  0  0  0  0  0
    6.8126    3.8417    1.0948 C   0  0  0  0  0  0  0  0  0  0  0  0
    7.8056    3.8492    0.1181 C   0  0  0  0  0  0  0  0  0  0  0  0
    7.7529    2.9342   -0.9315 C   0  0  0  0  0  0  0  0  0  0  0  0
    6.6896    2.0323   -1.0248 C   0  0  0  0  0  0  0  0  0  0  0  0
  1  2  1  0
  1  5  1  0
  1 14  1  0
  2  3  1  0
  2  4  1  0
  5  6  2  0
  5  7  1  0
  7  8  2  0
  7 12  1  0
  8  9  1  0
  9 10  2  0
 10 11  1  0
 10 13  1  0
 11 12  2  0
 14 15  2  0
 14 18  1  0
 15 16  1  0
 15 19  1  0
 16 17  1  0
 17 18  2  0
 17 22  1  0
 19 20  1  0
 19 21  2  0
 22 23  2  0
 22 27  1  0
 23 24  1  0
 24 25  2  0
 25 26  1  0
 26 27  2  0
M  END
>  <DRUGBANK_ID>  (1) 
DB03647

>  <SECONDARY_ACCESSION_NUMBERS>  (1) 
EXPT01914

>  <COMMON_NAME>  (1) 
3-[Isopropyl(4-Methylbenzoyl)Amino]-5-Phenylthiophene-2-Carboxylic Acid

$$$$
