
     RDKit          3D

 22 24  0  0  0  0  0  0  0  0999 V2000
    1.0013   -0.2716    0.2731 C   0  0  0  0  0  0  0  0  0  0  0  0
    0.4790   -1.4778   -0.4131 C   0  0  0  0  0  0  0  0  0  0  0  0
    0.7409   -2.7356    0.1146 O   0  0  0  0  0  0  0  0  0  0  0  0
    0.2156   -3.6736   -0.7655 C   0  0  0  0  0  0  0  0  0  0  0  0
    0.2277   -5.0924   -0.7316 C   0  0  0  0  0  0  0  0  0  0  0  0
    0.6333   -5.8700    0.4903 C   0  0  0  0  0  0  0  0  0  0  0  0
   -0.2520   -5.6929   -1.9579 C   0  0  0  0  0  0  0  0  0  0  0  0
   -0.1366   -7.0993   -2.1820 O   0  0  0  0  0  0  0  0  0  0  0  0
   -0.5091   -7.7038   -3.4013 C   0  0  0  0  0  0  0  0  0  0  0  0
   -0.3813   -8.8939   -3.6185 O   0  0  0  0  0  0  0  0  0  0  0  0
   -1.0819   -6.8362   -4.4504 C   0  0  0  0  0  0  0  0  0  0  0  0
   -1.2569   -5.5291   -4.2782 C   0  0  0  0  0  0  0  0  0  0  0  0
   -1.8119   -4.6218   -5.3523 C   0  0  0  0  0  0  0  0  0  0  0  0
   -0.8408   -4.9616   -2.9990 C   0  0  0  0  0  0  0  0  0  0  0  0
   -1.0111   -3.6142   -2.8372 C   0  0  0  0  0  0  0  0  0  0  0  0
   -0.3979   -2.9703   -1.7827 C   0  0  0  0  0  0  0  0  0  0  0  0
   -0.2359   -1.5955   -1.5854 C   0  0  0  0  0  0  0  0  0  0  0  0
   -0.7099   -0.6194   -2.6064 C   0  0  0  0  0  0  0  0  0  0  0  0
   -0.0011   -0.6850   -3.8593 O   0  0  0  0  0  0  0  0  0  0  0  0
    1.4284   -0.6265   -3.7688 C   0  0  0  0  0  0  0  0  0  0  0  0
    1.9656    0.7659   -3.3928 C   0  0  0  0  0  0  0  0  0  0  0  0
    1.5518    1.2607   -2.0907 N   0  0  0  0  0  0  0  0  0  0  0  0
  1  2  1  0
  2  3  1  0
  2 17  2  0
  3  4  1  0
  4  5  2  0
  4 16  1  0
  5  6  1  0
  5  7  1  0
  7  8  1  0
  7 14  2  0
  8  9  1  0
  9 10  2  0
  9 11  1  0
 11 12  2  0
 12 13  1  0
 12 14  1  0
 14 15  1  0
 15 16  2  0
 16 17  1  0
 17 18  1  0
 18 19  1  0
 19 20  1  0
 20 21  1  0
 21 22  1  0
M  END
>  <DRUGBANK_ID>  (1) 
DB17693

>  <COMMON_NAME>  (1) 
Amotosalen

>  <CAS_NUMBER>  (1) 
161262-29-9

>  <UNII>  (1) 
K1LDZ0VBC0

>  <SYNONYMS>  (1) 
3-((2-aminoethoxy)methyl)-2,5,9-trimethyl-7h-furo(3,2-g)chromen-7-one; 7h-furo(3,2-g)(1)benzopyran-7-one, 3-((2-aminoethoxy)methyl)-2,5,9-trimethyl-; Amotosalen

$$$$
