
     RDKit          3D

 24 27  0  0  0  0  0  0  0  0999 V2000
    2.3939   -0.6844   -0.0663 C   0  0  0  0  0  0  0  0  0  0  0  0
    2.3730    0.6997    0.0371 C   0  0  0  0  0  0  0  0  0  0  0  0
    1.1506    1.3923    0.0951 C   0  0  0  0  0  0  0  0  0  0  0  0
    1.2056   -1.4041   -0.1326 C   0  0  0  0  0  0  0  0  0  0  0  0
   -0.0226   -0.7345   -0.0933 C   0  0  0  0  0  0  0  0  0  0  0  0
   -0.0505    0.6738    0.0144 C   0  0  0  0  0  0  0  0  0  0  0  0
   -1.2324    1.3803    0.0681 O   0  0  0  0  0  0  0  0  0  0  0  0
   -2.3656    0.6272   -0.3280 C   0  0  0  0  0  0  0  0  0  0  0  0
   -2.3922   -0.7491    0.2980 C   0  0  0  0  0  0  0  0  0  0  0  0
   -1.2465   -1.4523   -0.0483 N   0  0  0  0  0  0  0  0  0  0  0  0
    3.8973   -1.5206   -0.0798 Cl  0  0  0  0  0  0  0  0  0  0  0  0
   -3.3368   -1.1963    0.9381 O   0  0  0  0  0  0  0  0  0  0  0  0
   -1.3378   -2.8496   -0.4115 C   0  0  0  0  0  0  0  0  0  0  0  0
    1.2331    2.8718    0.2341 C   0  0  0  0  0  0  0  0  0  0  0  0
    0.0674    3.6035    0.1898 N   0  0  0  0  0  0  0  0  0  0  0  0
   -0.0053    5.0664    0.2473 C   0  0  0  0  0  0  0  0  0  0  0  0
    2.3519    3.3715    0.3438 O   0  0  0  0  0  0  0  0  0  0  0  0
   -1.3664    5.5883   -0.3185 C   0  0  0  0  0  0  0  0  0  0  0  0
   -1.1910    6.5020   -1.4790 N   0  0  0  0  0  0  0  0  0  0  0  0
   -0.4351    5.7833   -2.5319 C   0  0  0  0  0  0  0  0  0  0  0  0
    0.9431    5.3205   -2.0396 C   0  0  0  0  0  0  0  0  0  0  0  0
   -0.3963    7.6717   -1.0430 C   0  0  0  0  0  0  0  0  0  0  0  0
    0.9658    7.2588   -0.4819 C   0  0  0  0  0  0  0  0  0  0  0  0
    1.1197    5.7403   -0.5709 C   0  0  0  0  0  0  0  0  0  0  0  0
  1  2  2  0
  1 11  1  0
  2  3  1  0
  3 14  1  0
  3  6  2  0
  4  1  1  0
  5  6  1  0
  5  4  2  0
  5 10  1  0
  6  7  1  0
  7  8  1  0
  8  9  1  0
  9 12  2  0
  9 10  1  0
 10 13  1  0
 14 15  1  0
 14 17  2  0
 15 16  1  0
 16 18  1  0
 16 24  1  0
 18 19  1  0
 19 20  1  0
 19 22  1  0
 20 21  1  0
 21 24  1  0
 22 23  1  0
 23 24  1  0
M  END
>  <DRUGBANK_ID>  (1) 
DB16837

>  <COMMON_NAME>  (1) 
Azasetron

>  <CAS_NUMBER>  (1) 
123040-69-7

>  <UNII>  (1) 
77HC7URR9Z

>  <SYNONYMS>  (1) 
Azasetron

$$$$
