744
     RDKit          3D

 23 25  0  0  0  0  0  0  0  0999 V2000
   -1.4405    0.2938   -0.2513 C   0  0  0  0  0  0  0  0  0  0  0  0
   -0.4694    1.3675    0.2000 C   0  0  0  0  0  0  0  0  0  0  0  0
    0.9912    1.0934   -0.2009 C   0  0  0  0  0  0  0  0  0  0  0  0
    1.4107   -0.3209    0.2439 C   0  0  0  0  0  0  0  0  0  0  0  0
    0.4230   -1.3863   -0.2324 C   0  0  0  0  0  0  0  0  0  0  0  0
   -0.9959   -1.0788    0.2298 C   0  0  0  0  0  0  0  0  0  0  0  0
    3.2627    2.1659    0.1594 C   0  0  0  0  0  0  0  0  0  0  0  0
    3.8160    3.2181    1.0948 C   0  0  0  0  0  0  0  0  0  0  0  0
    2.6061    4.1227    1.3422 C   0  0  1  0  0  0  0  0  0  0  0  0
    1.4529    3.1380    1.2687 C   0  0  0  0  0  0  0  0  0  0  0  0
    1.8885    2.1285    0.3341 N   0  0  0  0  0  0  0  0  0  0  0  0
    2.5685    4.7657    2.7117 C   0  0  0  0  0  0  0  0  0  0  0  0
    2.6212    6.1567    2.7244 N   0  0  0  0  0  0  0  0  0  0  0  0
    2.4729    4.0669    3.7199 O   0  0  0  0  0  0  0  0  0  0  0  0
    3.9308    1.4559   -0.5794 O   0  0  0  0  0  0  0  0  0  0  0  0
    2.7212    6.9082    3.9285 C   0  0  0  0  0  0  0  0  0  0  0  0
    3.6543    6.5815    4.9319 C   0  0  0  0  0  0  0  0  0  0  0  0
    4.6516    5.4602    4.8192 C   0  0  0  0  0  0  0  0  0  0  0  0
    3.7252    7.3691    6.0974 C   0  0  0  0  0  0  0  0  0  0  0  0
    2.8977    8.4744    6.2708 C   0  0  0  0  0  0  0  0  0  0  0  0
    1.9848    8.8002    5.2746 C   0  0  0  0  0  0  0  0  0  0  0  0
    0.9348   10.1464    5.5144 Cl  0  0  0  0  0  0  0  0  0  0  0  0
    1.9047    8.0408    4.0983 C   0  0  0  0  0  0  0  0  0  0  0  0
  1  6  1  0
  1  2  1  0
  2  3  1  0
  3 11  1  0
  3  4  1  0
  4  5  1  0
  5  6  1  0
  7 11  1  0
  7 15  2  0
  7  8  1  0
  8  9  1  0
  9 12  1  1
  9 10  1  0
 10 11  1  0
 12 13  1  0
 12 14  2  0
 13 16  1  0
 16 17  2  0
 16 23  1  0
 17 19  1  0
 17 18  1  0
 19 20  2  0
 20 21  1  0
 21 22  1  0
 21 23  2  0
M  END
>  <DRUGBANK_ID>  (1) 
DB07222

>  <COMMON_NAME>  (1) 
(3S)-N-(5-CHLORO-2-METHYLPHENYL)-1-CYCLOHEXYL-5-OXOPYRROLIDINE-3-CARBOXAMIDE

$$$$
