235
     RDKit          3D

 30 31  0  0  0  0  0  0  0  0999 V2000
    1.3725   -0.2111    0.0198 C   0  0  0  0  0  0  0  0  0  0  0  0
    0.8618    1.0827    0.0215 C   0  0  0  0  0  0  0  0  0  0  0  0
   -0.5164    1.2782    0.0481 C   0  0  0  0  0  0  0  0  0  0  0  0
   -1.3845    0.1814    0.0183 C   0  0  0  0  0  0  0  0  0  0  0  0
   -0.8799   -1.1229   -0.0119 C   0  0  0  0  0  0  0  0  0  0  0  0
    0.5026   -1.3103   -0.0144 C   0  0  0  0  0  0  0  0  0  0  0  0
    1.2030   -2.9257   -0.2429 S   0  0  0  0  0  0  0  0  0  0  0  0
    0.5615   -3.5586   -1.3619 O   0  0  0  0  0  0  0  0  0  0  0  0
    2.6411   -2.7325   -0.1826 O   0  0  0  0  0  0  0  0  0  0  0  0
    0.7654   -3.7614    1.1509 N   0  0  0  0  0  0  0  0  0  0  0  0
    1.2023   -5.2172    1.3151 C   0  0  1  0  0  0  0  0  0  0  0  0
    2.7421   -5.2530    1.3094 C   0  0  0  0  0  0  0  0  0  0  0  0
    3.3630   -4.4101    2.4429 C   0  0  0  0  0  0  0  0  0  0  0  0
    3.2570   -6.6787    1.2560 C   0  0  0  0  0  0  0  0  0  0  0  0
    0.5303   -5.7921    2.9292 P   0  0  2  0  0  0  0  0  0  0  0  0
    1.4521   -5.7237    4.1084 O   0  0  0  0  0  0  0  0  0  0  0  0
   -0.0072   -7.3047    2.9150 O   0  0  0  0  0  0  0  0  0  0  0  0
   -0.8996   -4.7729    3.2000 C   0  0  0  0  0  0  0  0  0  0  0  0
   -2.2626   -5.4331    3.1635 C   0  0  2  0  0  0  0  0  0  0  0  0
   -3.2926   -4.3468    3.2863 C   0  0  0  0  0  0  0  0  0  0  0  0
   -4.1274   -4.0503    2.4483 O   0  0  0  0  0  0  0  0  0  0  0  0
   -3.1879   -3.6653    4.4460 O   0  0  0  0  0  0  0  0  0  0  0  0
   -2.4180   -6.4935    4.2269 C   0  0  0  0  0  0  0  0  0  0  0  0
   -3.1113   -7.6675    3.9141 C   0  0  0  0  0  0  0  0  0  0  0  0
   -1.7047   -6.4065    5.4335 C   0  0  0  0  0  0  0  0  0  0  0  0
   -1.5100   -7.5380    6.2053 C   0  0  0  0  0  0  0  0  0  0  0  0
   -2.1913   -8.7055    5.8907 C   0  0  0  0  0  0  0  0  0  0  0  0
   -3.0152   -8.7761    4.7570 C   0  0  0  0  0  0  0  0  0  0  0  0
   -3.7339  -10.0528    4.4234 C   0  0  0  0  0  0  0  0  0  0  0  0
   -2.7976  -11.1605    4.2863 N   0  0  0  0  0  0  0  0  0  0  0  0
  1  6  2  0
  1  2  1  0
  2  3  2  0
  3  4  1  0
  4  5  2  0
  5  6  1  0
  6  7  1  0
  7 10  1  0
  7  8  2  0
  7  9  2  0
 11 10  1  1
 11 12  1  0
 11 15  1  0
 12 13  1  0
 12 14  1  0
 15 16  2  0
 15 18  1  0
 15 17  1  0
 19 18  1  1
 19 23  1  0
 19 20  1  0
 20 21  2  0
 20 22  1  0
 23 24  2  0
 23 25  1  0
 24 28  1  0
 25 26  2  0
 26 27  1  0
 27 28  2  0
 28 29  1  0
 29 30  1  0
M  END
>  <DRUGBANK_ID>  (1) 
DB06921

>  <COMMON_NAME>  (1) 
(2S)-2-[3-(AMINOMETHYL)PHENYL]-3-[(R)-HYDROXY{(1R)-2-METHYL-1-[(PHENYLSULFONYL)AMINO]PROPYL}PHOSPHORYL]PROPANOIC ACID

$$$$
