
     RDKit          3D

 16 16  0  0  0  0  0  0  0  0999 V2000
    1.2091    0.0881    0.3157 C   0  0  0  0  0  0  0  0  0  0  0  0
    0.8714   -2.5788   -2.0048 C   0  0  0  0  0  0  0  0  0  0  0  0
    1.6971   -2.7921   -0.7264 C   0  0  0  0  0  0  0  0  0  0  0  0
   -0.1803   -2.5323    2.3630 C   0  0  0  0  0  0  0  0  0  0  0  0
    0.6696   -1.1803    0.9155 C   0  0  0  0  0  0  0  0  0  0  0  0
    0.4936   -3.3282    1.4705 C   0  0  0  0  0  0  0  0  0  0  0  0
   -1.6495   -1.3613   -3.4216 N   0  0  0  0  0  0  0  0  0  0  0  0
   -0.1028   -1.2182    1.9854 N   0  0  0  0  0  0  0  0  0  0  0  0
    0.3950   -1.2041   -2.1166 N   0  0  0  0  0  0  0  0  0  0  0  0
    0.9764   -2.4793    0.4972 N   0  0  0  0  0  0  0  0  0  0  0  0
    0.6695   -4.7442    1.5570 N   0  0  0  0  0  0  0  0  0  0  0  0
    1.2897   -5.3154    0.6560 O   0  0  0  0  0  0  0  0  0  0  0  0
    0.1726   -5.3040    2.5406 O   0  0  0  0  0  0  0  0  0  0  0  0
   -0.4424    0.8254   -3.3077 O   0  0  0  0  0  0  0  0  0  0  0  0
    0.5320   -1.1111   -4.6375 O   0  0  0  0  0  0  0  0  0  0  0  0
   -0.1887   -0.5778   -3.5233 S   0  0  0  0  0  0  0  0  0  0  0  0
  3  2  1  0
  5  1  1  0
  6  4  2  0
  8  4  1  0
  8  5  2  0
  9  2  1  0
 10  3  1  0
 10  5  1  0
 10  6  1  0
 11  6  1  0
 12 11  1  0
 13 11  2  0
 16  7  1  0
 16  9  1  0
 16 14  2  0
 16 15  2  0
M  CHG  2  11   1  12  -1
M  END
>  <DRUGBANK_ID>  (1) 
DB12741

>  <COMMON_NAME>  (1) 
DTP-348

>  <CAS_NUMBER>  (1) 
1383370-92-0

>  <UNII>  (1) 
2HB46A9CNM

$$$$
