
     RDKit          3D

 20 21  0  0  0  0  0  0  0  0999 V2000
    1.0059   -0.0583   -0.0434 C   0  0  0  0  0  0  0  0  0  0  0  0
    0.8825    4.7116    1.5380 C   0  0  0  0  0  0  0  0  0  0  0  0
    0.5724   -0.7257    8.0491 C   0  0  0  0  0  0  0  0  0  0  0  0
   -0.1365   -2.9326    7.4231 C   0  0  0  0  0  0  0  0  0  0  0  0
    0.0162   -0.1968    6.8709 C   0  0  0  0  0  0  0  0  0  0  0  0
   -0.6979   -2.4198    6.2464 C   0  0  0  0  0  0  0  0  0  0  0  0
    0.5915    1.0234    0.9113 C   0  0  0  0  0  0  0  0  0  0  0  0
    0.5459    3.2438    1.6679 C   0  0  0  0  0  0  0  0  0  0  0  0
    0.4970   -2.0925    8.3400 C   0  0  0  0  0  0  0  0  0  0  0  0
   -0.6305   -1.0469    5.9733 C   0  0  0  0  0  0  0  0  0  0  0  0
    0.8868    2.3508    0.6596 C   0  0  0  0  0  0  0  0  0  0  0  0
   -0.3635    1.5252    2.9477 C   0  0  0  0  0  0  0  0  0  0  0  0
    1.7371    2.8614   -0.9660 Br  0  0  0  0  0  0  0  0  0  0  0  0
    1.0444   -2.6110    9.4990 N   0  0  0  0  0  0  0  0  0  0  0  0
   -0.0030    0.6124    2.0552 N   0  0  0  0  0  0  0  0  0  0  0  0
   -0.0736    2.8384    2.8308 N   0  0  0  0  0  0  0  0  0  0  0  0
   -0.7285    1.0961    4.2481 N   0  0  0  0  0  0  0  0  0  0  0  0
   -2.7959   -0.2808    4.7891 O   0  0  0  0  0  0  0  0  0  0  0  0
   -0.9768   -1.3869    3.4406 O   0  0  0  0  0  0  0  0  0  0  0  0
   -1.3981   -0.4446    4.4602 S   0  0  0  0  0  0  0  0  0  0  0  0
  5  3  2  0
  6  4  1  0
  7  1  1  0
  8  2  1  0
  9  3  1  0
  9  4  2  0
 10  5  1  0
 10  6  2  0
 11  7  2  0
 11  8  1  0
 13 11  1  0
 14  9  1  0
 15  7  1  0
 15 12  2  0
 16  8  2  0
 16 12  1  0
 17 12  1  0
 20 10  1  0
 20 17  1  0
 20 18  2  0
 20 19  2  0
M  END
>  <DRUGBANK_ID>  (1) 
DB11547

>  <COMMON_NAME>  (1) 
Sulfabromomethazine

>  <CAS_NUMBER>  (1) 
116-45-0

>  <UNII>  (1) 
PQK2N461KJ

>  <SYNONYMS>  (1) 
5-bromosulfamethazine; Bromosulfamethazine

$$$$
