697
     RDKit          3D

 16 18  0  0  0  0  0  0  0  0999 V2000
    3.3510    0.5013    0.0612 Cl  0  0  0  0  0  0  0  0  0  0  0  0
   -3.0665    0.2607   -0.0527 S   0  0  0  0  0  0  0  0  0  0  0  0
   -0.7279    3.6788    1.2546 N   0  0  0  0  0  0  0  0  0  0  0  0
    1.0572    2.4702    0.3396 N   0  0  0  0  0  0  0  0  0  0  0  0
    0.1348    4.3741   -0.7316 N   0  0  0  0  0  0  0  0  0  0  0  0
   -1.7977    1.3120    0.0195 N   0  0  0  0  0  0  0  0  0  0  0  0
   -2.2584   -1.1827   -0.0396 N   0  0  0  0  0  0  0  0  0  0  0  0
   -1.7811    4.5225    0.7346 C   0  0  0  0  0  0  0  0  0  0  0  0
   -1.0067    5.2723   -0.3512 C   0  0  0  0  0  0  0  0  0  0  0  0
    0.1621    3.5019    0.2327 C   0  0  0  0  0  0  0  0  0  0  0  0
    0.6757    1.1034    0.1292 C   0  0  0  0  0  0  0  0  0  0  0  0
   -0.6616    0.5930    0.0452 C   0  0  0  0  0  0  0  0  0  0  0  0
   -0.9499   -0.8908   -0.0097 C   0  0  0  0  0  0  0  0  0  0  0  0
    1.6647    0.0693    0.0765 C   0  0  0  0  0  0  0  0  0  0  0  0
    0.0857   -1.8467   -0.0092 C   0  0  0  0  0  0  0  0  0  0  0  0
    1.3856   -1.3262    0.0098 C   0  0  0  0  0  0  0  0  0  0  0  0
  1 14  1  0
  2  6  1  0
  2  7  1  0
  3  8  1  0
  3 10  1  0
  4 10  1  0
  4 11  1  0
  5  9  1  0
  5 10  2  0
  6 12  2  0
  7 13  2  0
  8  9  1  0
 11 12  1  0
 11 14  2  0
 12 13  1  0
 13 15  1  0
 14 16  1  0
 15 16  2  0
M  END
>  <DRUGBANK_ID>  (1) 
DB00697

>  <SECONDARY_ACCESSION_NUMBERS>  (1) 
APRD00128

>  <COMMON_NAME>  (1) 
Tizanidine

>  <CAS_NUMBER>  (1) 
51322-75-9

>  <UNII>  (1) 
6AI06C00GW

>  <SYNONYMS>  (1) 
5-Chloro-4-(2-imidazolin-2-ylamino)-2,1,3-benzothiadiazole; Tizanidin; Tizanidina; Tizanidine; Tizanidinum

$$$$
