
     RDKit          3D

 22 24  0  0  0  0  0  0  0  0999 V2000
    1.2379    0.5614    0.1070 C   0  0  0  0  0  0  0  0  0  0  0  0
    0.5428    1.2482   -1.0480 C   0  0  0  0  0  0  0  0  0  0  0  0
    1.9100   -0.9610   -6.5433 C   0  0  0  0  0  0  0  0  0  0  0  0
    2.1143    0.4051   -6.7336 C   0  0  0  0  0  0  0  0  0  0  0  0
    1.5055   -1.4646   -5.2951 C   0  0  0  0  0  0  0  0  0  0  0  0
    1.9375    1.3054   -5.6766 C   0  0  0  0  0  0  0  0  0  0  0  0
   -1.2288   -1.3546   -0.3815 C   0  0  0  0  0  0  0  0  0  0  0  0
    0.6784   -2.7268    0.2272 C   0  0  0  0  0  0  0  0  0  0  0  0
   -0.0949   -2.0832   -0.7729 C   0  0  0  0  0  0  0  0  0  0  0  0
    1.2845   -0.5809   -4.2166 C   0  0  0  0  0  0  0  0  0  0  0  0
   -1.5578   -1.2357    0.9834 C   0  0  0  0  0  0  0  0  0  0  0  0
    0.3332   -2.6047    1.5891 C   0  0  0  0  0  0  0  0  0  0  0  0
    0.8674    0.5969   -2.3501 C   0  0  0  0  0  0  0  0  0  0  0  0
    1.5217    0.7693   -4.4501 C   0  0  0  0  0  0  0  0  0  0  0  0
    0.8302   -0.7109   -2.8389 C   0  0  0  0  0  0  0  0  0  0  0  0
    0.4668   -1.9974   -2.1721 C   0  0  0  0  0  0  0  0  0  0  0  0
   -0.7900   -1.8646    1.9709 C   0  0  0  0  0  0  0  0  0  0  0  0
   -2.9662   -0.0622    1.4833 Br  0  0  0  0  0  0  0  0  0  0  0  0
    1.4966   -3.3429    2.8997 Br  0  0  0  0  0  0  0  0  0  0  0  0
    0.6577   -3.0700   -2.7186 O   0  0  0  0  0  0  0  0  0  0  0  0
   -1.0910   -1.7266    3.3023 O   0  0  0  0  0  0  0  0  0  0  0  0
    1.2776    1.4748   -3.3161 O   0  0  0  0  0  0  0  0  0  0  0  0
  2  1  1  0
  4  3  2  0
  5  3  1  0
  6  4  1  0
  9  7  2  0
  9  8  1  0
 10  5  2  0
 11  7  1  0
 12  8  2  0
 13  2  1  0
 14  6  2  0
 14 10  1  0
 15 10  1  0
 15 13  2  0
 16  9  1  0
 16 15  1  0
 17 11  2  0
 17 12  1  0
 18 11  1  0
 19 12  1  0
 20 16  2  0
 21 17  1  0
 22 13  1  0
 22 14  1  0
M  END
>  <DRUGBANK_ID>  (1) 
DB12319

>  <COMMON_NAME>  (1) 
Benzbromarone

>  <CAS_NUMBER>  (1) 
3562-84-3

>  <UNII>  (1) 
4POG0RL69O

>  <SYNONYMS>  (1) 
2-ethyl-3-(3,5-dibrom-4-hydroxybenzoyl)benzofuran; 3,5-dibromo-4-hydroxyphenyl-2-ethyl-3-benzofuranyl ketone; Benzbromarona; Benzbromarone

$$$$
