
     RDKit          3D

 25 29  0  0  0  0  0  0  0  0999 V2000
    5.0316    3.3158    0.9294 C   0  0  0  0  0  0  0  0  0  0  0  0
    5.7327    4.3101    1.6781 C   0  0  0  0  0  0  0  0  0  0  0  0
    5.7690    5.6729    1.0516 C   0  0  2  0  0  0  0  0  0  0  0  0
    4.8934    5.9352   -0.1718 C   0  0  0  0  0  0  0  0  0  0  0  0
    4.3363    4.8672   -0.8694 N   0  0  0  0  0  0  0  0  0  0  0  0
    4.3596    3.6385   -0.2227 C   0  0  0  0  0  0  0  0  0  0  0  0
    3.7238    2.4756   -0.5597 N   0  0  0  0  0  0  0  0  0  0  0  0
    4.2366    1.4706    0.2235 C   0  0  0  0  0  0  0  0  0  0  0  0
    4.9849    1.9739    1.1796 N   0  0  0  0  0  0  0  0  0  0  0  0
    6.3016    4.0739    2.7489 O   0  0  0  0  0  0  0  0  0  0  0  0
    4.7284    7.0987   -0.5579 O   0  0  0  0  0  0  0  0  0  0  0  0
    7.2347    5.9418    0.6780 C   0  0  0  0  0  0  0  0  0  0  0  0
    7.4947    7.3645    0.1904 C   0  0  0  0  0  0  0  0  0  0  0  0
    7.0178    8.3862    1.2114 C   0  0  0  0  0  0  0  0  0  0  0  0
    3.8686    0.0399    0.0354 C   0  0  1  0  0  0  0  0  0  0  0  0
    4.4620   -0.6267   -1.2452 C   0  0  0  0  0  0  0  0  0  0  0  0
    4.4535   -0.8465    1.1702 C   0  0  2  0  0  0  0  0  0  0  0  0
    5.8362   -1.2221    0.5928 C   0  0  0  0  0  0  0  0  0  0  0  0
    5.2307   -1.8462   -0.6737 C   0  0  1  0  0  0  0  0  0  0  0  0
    3.6843   -2.1534    1.1154 C   0  0  1  0  0  0  0  0  0  0  0  0
    4.1964   -2.8196   -0.1223 C   0  0  2  0  0  0  0  0  0  0  0  0
    4.4272   -3.3715    1.1784 O   0  0  0  0  0  0  0  0  0  0  0  0
    3.7520    5.1669   -2.1831 C   0  0  0  0  0  0  0  0  0  0  0  0
    4.4657    4.4950   -3.3662 C   0  0  0  0  0  0  0  0  0  0  0  0
    4.3908    2.9868   -3.3239 C   0  0  0  0  0  0  0  0  0  0  0  0
  1  2  1  0
  1  6  2  0
  1  9  1  0
  2  3  1  0
  2 10  2  0
  3  4  1  0
  3 12  1  6
  4  5  1  0
  4 11  2  0
  5  6  1  0
  5 23  1  0
  6  7  1  0
  7  8  1  0
  8  9  2  0
 12 13  1  0
 13 14  1  0
 15 17  1  0
 15  8  1  1
 16 15  1  0
 19 16  1  6
 17 18  1  6
 17 20  1  0
 18 19  1  0
 20 22  1  1
 21 19  1  0
 21 20  1  0
 21 22  1  1
 23 24  1  0
 24 25  1  0
M  END
>  <DRUGBANK_ID>  (1) 
DB06471

>  <COMMON_NAME>  (1) 
Naxifylline

>  <CAS_NUMBER>  (1) 
166374-49-8

>  <UNII>  (1) 
B3G45WC37L

>  <SYNONYMS>  (1) 
8-((2S,5,6-exo)-5,6-epoxy-2-norbonyl)-1,3-dipropylxanthine; Naxifylline

$$$$
