
     RDKit          3D

 21 22  0  0  0  0  0  0  0  0999 V2000
   -0.1997   -0.2315    0.1929 C   0  0  1  0  0  0  0  0  0  0  0  0
    0.3658    1.1388    0.6767 C   0  0  2  0  0  0  0  0  0  0  0  0
   -0.5606    2.2196    0.4887 O   0  0  0  0  0  0  0  0  0  0  0  0
    1.6329    1.4424   -0.1122 C   0  0  1  0  0  0  0  0  0  0  0  0
    2.2428    2.6512    0.3545 O   0  0  0  0  0  0  0  0  0  0  0  0
    2.6100    0.2736   -0.0114 C   0  0  2  0  0  0  0  0  0  0  0  0
    3.7555    0.5639   -0.8181 O   0  0  0  0  0  0  0  0  0  0  0  0
    1.9393   -1.0472   -0.4419 C   0  0  1  0  0  0  0  0  0  0  0  0
    2.9245   -2.2284   -0.2919 C   0  0  0  0  0  0  0  0  0  0  0  0
    4.2202   -1.9283   -0.7965 O   0  0  0  0  0  0  0  0  0  0  0  0
    0.7368   -1.2820    0.3069 O   0  0  0  0  0  0  0  0  0  0  0  0
   -1.3323   -0.5879    0.9933 N   0  0  0  0  0  0  0  0  0  0  0  0
   -2.4608    0.0035    0.4707 C   0  0  0  0  0  0  0  0  0  0  0  0
   -3.3521    0.3392    1.2386 O   0  0  0  0  0  0  0  0  0  0  0  0
   -2.2750    0.1612   -0.8784 N   0  0  0  0  0  0  0  0  0  0  0  0
   -0.9391   -0.0169   -1.1646 C   0  0  0  0  0  0  0  0  0  0  0  0
   -0.4032    0.0495   -2.2653 O   0  0  0  0  0  0  0  0  0  0  0  0
   -3.1732    0.4602   -1.9099 N   0  0  0  0  0  0  0  0  0  0  0  0
   -4.5379    0.5523   -1.8644 C   0  0  0  0  0  0  0  0  0  0  0  0
   -5.1781    0.6741   -2.9103 O   0  0  0  0  0  0  0  0  0  0  0  0
   -5.2348    0.5305   -0.5458 C   0  0  0  0  0  0  0  0  0  0  0  0
  1  2  1  0
  1 11  1  0
  1 12  1  1
  1 16  1  0
  2  4  1  0
  2  3  1  6
  4  5  1  1
  4  6  1  0
  6  7  1  6
  6  8  1  0
  8 11  1  0
  8  9  1  1
  9 10  1  0
 13 12  1  0
 13 14  2  0
 13 15  1  0
 15 18  1  0
 16 15  1  0
 16 17  2  0
 19 18  1  0
 19 20  2  0
 21 19  1  0
M  END
>  <DRUGBANK_ID>  (1) 
DB03835

>  <SECONDARY_ACCESSION_NUMBERS>  (1) 
EXPT01602

>  <COMMON_NAME>  (1) 
N-[(5S,7R,8S,9S,10R)-8,9,10-Trihydroxy-7-(hydroxymethyl)-2,4-dioxo-6-oxa-1,3-diazaspiro[4.5]dec-3-yl]acetamide

$$$$
