
     RDKit          3D

 32 34  0  0  0  0  0  0  0  0999 V2000
    0.8925    0.0809    0.0288 C   0  0  0  0  0  0  0  0  0  0  0  0
    0.4533   -0.9415   -1.0112 C   0  0  0  0  0  0  0  0  0  0  0  0
    0.9374   -2.3326   -0.6960 C   0  0  0  0  0  0  0  0  0  0  0  0
    1.8856   -2.5815    0.3008 C   0  0  0  0  0  0  0  0  0  0  0  0
    2.2412   -3.8753    0.6695 C   0  0  0  0  0  0  0  0  0  0  0  0
    1.6721   -4.9786    0.0457 C   0  0  0  0  0  0  0  0  0  0  0  0
    0.6935   -4.7127   -0.9366 C   0  0  0  0  0  0  0  0  0  0  0  0
    0.3823   -3.4187   -1.3580 C   0  0  0  0  0  0  0  0  0  0  0  0
    2.0475   -6.3480    0.4027 N   0  0  0  0  0  0  0  0  0  0  0  0
    1.6142   -7.4277   -0.4961 C   0  0  0  0  0  0  0  0  0  0  0  0
    2.6700   -8.1280   -1.3963 C   0  0  0  0  0  0  0  0  0  0  0  0
    3.9965   -8.6621   -0.8442 C   0  0  0  0  0  0  0  0  0  0  0  0
    1.9699   -9.3340   -2.0467 C   0  0  0  0  0  0  0  0  0  0  0  0
    3.1749   -6.6018    1.6836 S   0  0  0  0  0  0  0  0  0  0  0  0
    4.4866   -6.1704    1.1838 O   0  0  0  0  0  0  0  0  0  0  0  0
    2.6639   -5.9927    2.8800 O   0  0  0  0  0  0  0  0  0  0  0  0
    3.3157   -8.3581    2.0983 C   0  0  0  0  0  0  0  0  0  0  0  0
    4.2926   -8.7520    2.9985 C   0  0  0  0  0  0  0  0  0  0  0  0
    4.4399  -10.1249    3.3513 C   0  0  0  0  0  0  0  0  0  0  0  0
    5.2702  -10.4107    4.5862 C   0  0  0  0  0  0  0  0  0  0  0  0
    4.4979  -11.0801    5.5542 O   0  0  0  0  0  0  0  0  0  0  0  0
    3.9085  -11.1016    2.4866 C   0  0  0  0  0  0  0  0  0  0  0  0
    4.3119  -12.3830    2.2423 O   0  0  0  0  0  0  0  0  0  0  0  0
    5.4171  -12.8870    2.9665 C   0  0  0  0  0  0  0  0  0  0  0  0
    6.7996  -12.2441    2.6123 C   0  0  0  0  0  0  0  0  0  0  0  0
    6.8310  -10.7754    2.0999 C   0  0  0  0  0  0  0  0  0  0  0  0
    8.1875  -10.2396    1.7719 C   0  0  0  0  0  0  0  0  0  0  0  0
    8.7327  -11.0514    0.7621 O   0  0  0  0  0  0  0  0  0  0  0  0
    8.8419  -12.4048    1.2008 C   0  0  0  0  0  0  0  0  0  0  0  0
    7.4999  -13.0576    1.5387 C   0  0  0  0  0  0  0  0  0  0  0  0
    2.9263  -10.7148    1.6106 C   0  0  0  0  0  0  0  0  0  0  0  0
    2.5528   -9.3781    1.5471 C   0  0  0  0  0  0  0  0  0  0  0  0
  1  2  1  0
  2  3  1  0
  3  4  2  0
  3  8  1  0
  4  5  1  0
  5  6  2  0
  6  7  1  0
  6  9  1  0
  7  8  2  0
  9 10  1  0
  9 14  1  0
 10 11  1  0
 11 12  1  0
 11 13  1  0
 14 15  2  0
 14 16  2  0
 14 17  1  0
 17 18  2  0
 17 32  1  0
 18 19  1  0
 19 20  1  0
 19 22  2  0
 20 21  1  0
 22 23  1  0
 22 31  1  0
 23 24  1  0
 24 25  1  0
 25 26  1  0
 25 30  1  0
 26 27  1  0
 27 28  1  0
 28 29  1  0
 29 30  1  0
 31 32  2  0
M  END
>  <DRUGBANK_ID>  (1) 
DB16319

>  <COMMON_NAME>  (1) 
GSK-2981278

>  <CAS_NUMBER>  (1) 
1474110-21-8

>  <UNII>  (1) 
L49V5G013I

>  <SYNONYMS>  (1) 
Ror gama modulator 1

$$$$
