
     RDKit          3D

 21 24  0  0  0  0  0  0  0  0999 V2000
   -0.0060    0.8559    0.5557 C   0  0  0  0  0  0  0  0  0  0  0  0
    0.8010    0.2708    1.4715 C   0  0  0  0  0  0  0  0  0  0  0  0
    1.3622    1.2481    2.3040 C   0  0  0  0  0  0  0  0  0  0  0  0
   -0.9998    1.6216    1.2207 C   0  0  0  0  0  0  0  0  0  0  0  0
   -0.7898    2.3005    2.5369 C   0  0  0  0  0  0  0  0  0  0  0  0
    0.5419    2.2139    2.9528 C   0  0  0  0  0  0  0  0  0  0  0  0
    1.0269    3.0264    4.0213 C   0  0  0  0  0  0  0  0  0  0  0  0
    0.2105    3.8064    4.8405 C   0  0  0  0  0  0  0  0  0  0  0  0
   -1.6581    3.0308    3.4971 C   0  0  0  0  0  0  0  0  0  0  0  0
   -1.1504    3.7801    4.6237 C   0  0  0  0  0  0  0  0  0  0  0  0
   -3.9765    3.2856    4.6702 C   0  0  0  0  0  0  0  0  0  0  0  0
   -3.1547    3.0346    3.3798 C   0  0  0  0  0  0  0  0  0  0  0  0
   -3.4395    4.2577    5.5762 C   0  0  0  0  0  0  0  0  0  0  0  0
   -2.0854    4.4624    5.5184 C   0  0  0  0  0  0  0  0  0  0  0  0
   -1.7113    5.4107    6.4215 O   0  0  0  0  0  0  0  0  0  0  0  0
   -2.8636    5.8264    7.0441 C   0  0  0  0  0  0  0  0  0  0  0  0
   -3.9637    5.1304    6.5677 C   0  0  0  0  0  0  0  0  0  0  0  0
   -5.0169    2.6517    4.9101 O   0  0  0  0  0  0  0  0  0  0  0  0
   -3.7274    2.9388    2.2945 O   0  0  0  0  0  0  0  0  0  0  0  0
    2.8348    1.4610    2.1333 C   0  0  0  0  0  0  0  0  0  0  0  0
   -5.3891    5.2920    6.9549 C   0  0  0  0  0  0  0  0  0  0  0  0
  1  2  2  0
  2  3  1  0
  3  6  2  0
  3 20  1  0
  4  1  1  0
  5  6  1  0
  5  4  2  0
  6  7  1  0
  7  8  2  0
  8 10  1  0
  9 12  1  0
  9  5  1  0
  9 10  2  0
 10 14  1  0
 11 12  1  0
 11 18  2  0
 12 19  2  0
 13 11  1  0
 13 14  2  0
 14 15  1  0
 15 16  1  0
 16 17  2  0
 17 13  1  0
 17 21  1  0
M  END
>  <DRUGBANK_ID>  (1) 
DB16886

>  <COMMON_NAME>  (1) 
Tanshinone I

>  <CAS_NUMBER>  (1) 
568-73-0

>  <UNII>  (1) 
03UUH3J385

>  <SYNONYMS>  (1) 
Tanshinon I; Tanshinone A

$$$$
