
     RDKit          3D

 24 25  0  0  1  0  0  0  0  0999 V2000
   -5.8737   -6.3481   -3.8153 C   0  0  0  0  0  0  0  0  0  0  0  0
   -3.5239   -6.9495    0.1647 C   0  0  0  0  0  0  0  0  0  0  0  0
   -4.5464   -3.7639   -0.7342 C   0  0  0  0  0  0  0  0  0  0  0  0
   -3.4274   -7.2366   -1.5468 C   0  0  2  0  0  0  0  0  0  0  0  0
   -3.0210   -3.8512   -1.4370 C   0  0  2  0  0  0  0  0  0  0  0  0
   -2.2829   -5.2488   -1.6999 C   0  0  2  0  0  0  0  0  0  0  0  0
   -1.8363   -7.7216   -2.5421 C   0  0  2  0  0  0  0  0  0  0  0  0
   -0.8425   -5.6850   -1.2533 C   0  0  1  0  0  0  0  0  0  0  0  0
   -1.3426   -6.7057   -4.1084 C   0  0  1  0  0  0  0  0  0  0  0  0
   -0.0644   -4.6034   -0.6903 C   0  0  1  0  0  0  0  0  0  0  0  0
   -2.0488   -4.9486   -4.2402 C   0  0  1  0  0  0  0  0  0  0  0  0
   -3.9217   -4.9291   -3.7751 C   0  0  1  0  0  0  0  0  0  0  0  0
   -0.7210   -3.3845   -1.3457 C   0  0  2  0  0  0  0  0  0  0  0  0
   -2.6262   -7.8146    0.8086 O   0  0  0  0  0  0  0  0  0  0  0  0
   -5.7589   -4.3182   -1.2885 O   0  0  0  0  0  0  0  0  0  0  0  0
   -2.6444   -6.1209   -2.8708 O   0  0  0  0  0  0  0  0  0  0  0  0
   -1.8118   -9.1555   -2.6496 O   0  0  0  0  0  0  0  0  0  0  0  0
   -0.4835   -6.8771   -0.5147 O   0  0  0  0  0  0  0  0  0  0  0  0
    0.0710   -6.6133   -4.3812 O   0  0  0  0  0  0  0  0  0  0  0  0
   -0.0963   -4.7204    0.7315 O   0  0  0  0  0  0  0  0  0  0  0  0
   -4.7322   -5.8157   -4.5581 O   0  0  0  0  0  0  0  0  0  0  0  0
   -4.3392   -5.7481   -2.1878 O   0  0  0  0  0  0  0  0  0  0  0  0
   -2.0272   -3.1284   -0.7311 O   0  0  0  0  0  0  0  0  0  0  0  0
   -0.7968   -3.4234   -3.4177 S   0  0  0  0  0  0  0  0  0  0  0  0
  4  2  1  1
  5  3  1  1
  6  5  1  0
  6 16  1  6
  7  4  1  0
  7 17  1  6
  8  6  1  0
  8 18  1  1
  9  7  1  0
  9 19  1  1
 10  8  1  0
 10 20  1  1
 11  9  1  0
 11 24  1  1
 12 11  1  0
 12 21  1  6
 13 10  1  0
 13 24  1  6
 14  2  1  0
 15  3  1  0
 21  1  1  0
 22  4  1  0
 22 12  1  0
 23  5  1  0
 23 13  1  0
M  END
>  <DRUGBANK_ID>  (1) 
DB02422

>  <SECONDARY_ACCESSION_NUMBERS>  (1) 
EXPT02920

>  <COMMON_NAME>  (1) 
Methyl-2-S-(Alpha-D-Mannopyranosyl)-2-Thio-Alpha-D-Mannopyranoside

$$$$
