BR3
     RDKit          3D

 15 16  0  0  0  0  0  0  0  0999 V2000
    1.1477    1.3859    0.0790 C   0  0  0  0  0  0  0  0  0  0  0  0
   -0.0531    0.6670    0.0468 C   0  0  0  0  0  0  0  0  0  0  0  0
   -1.2392    1.3709    0.1283 O   0  0  0  0  0  0  0  0  0  0  0  0
   -2.4052    0.6257   -0.3387 C   0  0  2  0  0  0  0  0  0  0  0  0
   -3.7337    1.4033   -0.1272 C   0  0  0  0  0  0  0  0  0  0  0  0
   -4.2896    2.2618   -1.6448 P   0  0  1  0  0  0  0  0  0  0  0  0
   -2.8772    2.6252   -2.1006 O   0  0  0  0  0  0  0  0  0  0  0  0
   -5.0246    1.0095   -2.1385 O   0  0  0  0  0  0  0  0  0  0  0  0
   -2.4515   -0.6999    0.4140 C   0  0  0  0  0  0  0  0  0  0  0  0
   -1.2707   -1.5347   -0.0478 C   0  0  0  0  0  0  0  0  0  0  0  0
   -0.0075   -0.7279   -0.0089 C   0  0  0  0  0  0  0  0  0  0  0  0
    1.2267   -1.3951   -0.0630 C   0  0  0  0  0  0  0  0  0  0  0  0
    2.4307   -0.6843   -0.0305 C   0  0  0  0  0  0  0  0  0  0  0  0
    2.3817    0.7117    0.0390 C   0  0  0  0  0  0  0  0  0  0  0  0
    3.7371   -1.4215   -0.0679 C   0  0  0  0  0  0  0  0  0  0  0  0
  1  2  2  0
  1 14  1  0
  2  3  1  0
  2 11  1  0
  3  4  1  0
  4  9  1  0
  4  5  1  1
  5  6  1  0
  6  7  1  6
  6  8  2  0
  9 10  1  0
 10 11  1  0
 11 12  2  0
 12 13  1  0
 13 14  2  0
 13 15  1  0
M  CHG  1   7  -1
M  END
>  <DRUGBANK_ID>  (1) 
DB07487

>  <COMMON_NAME>  (1) 
(6-METHYL-3,4-DIHYDRO-2H-CHROMEN-2-YL)METHYLPHOSPHINATE

$$$$
