1498
     RDKit          3D

 23 24  0  0  1  0  0  0  0  0999 V2000
    2.4231    0.6706    5.3874 O   0  0  0  0  0  0  0  0  0  0  0  0
    2.5128   -2.3030    1.1941 N   0  0  0  0  0  0  0  0  0  0  0  0
    3.7117   -1.4649    4.9281 C   0  0  0  0  0  0  0  0  0  0  0  0
    2.7429   -1.8553    3.7156 C   0  0  0  0  0  0  0  0  0  0  0  0
    3.7350    0.1627    5.0602 C   0  0  1  0  0  0  0  0  0  0  0  0
    3.0638   -1.4392    2.2467 C   0  0  1  0  0  0  0  0  0  0  0  0
    5.1576   -2.1399    4.7429 C   0  0  0  0  0  0  0  0  0  0  0  0
    3.0357   -2.1216    6.2097 C   0  0  0  0  0  0  0  0  0  0  0  0
    4.1739    1.0251    3.8567 C   0  0  0  0  0  0  0  0  0  0  0  0
    4.5321   -1.3223    1.8952 C   0  0  0  0  0  0  0  0  0  0  0  0
    5.3455   -3.5336    4.7176 C   0  0  0  0  0  0  0  0  0  0  0  0
    2.6835   -3.4931    6.2256 C   0  0  0  0  0  0  0  0  0  0  0  0
    6.2947   -1.4040    4.3537 C   0  0  0  0  0  0  0  0  0  0  0  0
    2.8002   -1.4190    7.3995 C   0  0  0  0  0  0  0  0  0  0  0  0
    4.2424    2.5167    4.0559 C   0  0  0  0  0  0  0  0  0  0  0  0
    1.0723   -2.1685    1.0617 C   0  0  0  0  0  0  0  0  0  0  0  0
    2.9389   -3.6954    1.3138 C   0  0  0  0  0  0  0  0  0  0  0  0
    6.4451   -4.1594    4.1197 C   0  0  0  0  0  0  0  0  0  0  0  0
    2.3301   -4.1687    7.3881 C   0  0  0  0  0  0  0  0  0  0  0  0
    7.3052   -2.0122    3.5825 C   0  0  0  0  0  0  0  0  0  0  0  0
    2.3617   -2.0765    8.5543 C   0  0  0  0  0  0  0  0  0  0  0  0
    7.3875   -3.3820    3.4634 C   0  0  0  0  0  0  0  0  0  0  0  0
    2.1615   -3.4534    8.5603 C   0  0  0  0  0  0  0  0  0  0  0  0
  2 16  1  0
  2 17  1  0
  3  4  1  0
  3  5  1  0
  3  7  1  0
  3  8  1  0
  5  1  1  6
  5  9  1  0
  6 10  1  1
  6  4  1  0
  6  2  1  0
  7 11  2  0
  7 13  1  0
  8 12  2  0
  8 14  1  0
  9 15  1  0
 11 18  1  0
 12 19  1  0
 13 20  2  0
 14 21  2  0
 18 22  2  0
 19 23  2  0
 20 22  1  0
 21 23  1  0
M  END
>  <DRUGBANK_ID>  (1) 
DB01498

>  <COMMON_NAME>  (1) 
Alphamethadol

>  <CAS_NUMBER>  (1) 
17199-54-1

>  <UNII>  (1) 
XBD99QNI42

>  <SYNONYMS>  (1) 
Alphamethadol

$$$$
