
     RDKit          3D

 11 11  0  0  0  0  0  0  0  0999 V2000
    1.0002    0.0723    0.0691 O   0  0  0  0  0  0  0  0  0  0  0  0
    0.5002   -0.7899    1.1902 B   0  0  0  0  0  0  0  0  0  0  0  0
    1.4749   -1.4849    2.0939 O   0  0  0  0  0  0  0  0  0  0  0  0
   -1.0729   -0.9681    1.4219 C   0  0  0  0  0  0  0  0  0  0  0  0
   -1.7020    0.3887    1.6935 C   0  0  0  0  0  0  0  0  0  0  0  0
   -1.4657    1.3040    0.5032 C   0  0  0  0  0  0  0  0  0  0  0  0
   -2.0457    2.4972    0.5593 C   0  0  0  0  0  0  0  0  0  0  0  0
   -1.8605    3.4130   -0.4481 C   0  0  0  0  0  0  0  0  0  0  0  0
   -1.1527    3.0884   -1.5720 C   0  0  0  0  0  0  0  0  0  0  0  0
   -0.5307    1.9235   -1.5585 C   0  0  0  0  0  0  0  0  0  0  0  0
   -0.7889    0.8867   -0.6309 C   0  0  0  0  0  0  0  0  0  0  0  0
  1  2  1  0
  2  3  1  0
  2  4  1  0
  4  5  1  0
  5  6  1  0
  6  7  2  0
  6 11  1  0
  7  8  1  0
  8  9  2  0
  9 10  1  0
 10 11  2  0
M  END
>  <DRUGBANK_ID>  (1) 
DB01963

>  <SECONDARY_ACCESSION_NUMBERS>  (1) 
EXPT02504

>  <COMMON_NAME>  (1) 
Phenylethane Boronic Acid

>  <CAS_NUMBER>  (1) 
34420-17-2

$$$$
