
     RDKit          3D

 34 36  0  0  1  0  0  0  0  0999 V2000
    1.4393   -2.7058   -0.7098 C   0  0  0  0  0  0  0  0  0  0  0  0
   -8.8071    0.7078   -2.9140 C   0  0  0  0  0  0  0  0  0  0  0  0
   -1.9365    2.8283   -4.3023 C   0  0  0  0  0  0  0  0  0  0  0  0
    0.6141   -1.4930   -0.3273 C   0  0  2  0  0  0  0  0  0  0  0  0
   -8.1275    0.1172   -1.6843 C   0  0  2  0  0  0  0  0  0  0  0  0
   -2.8179    2.7272   -3.0646 C   0  0  2  0  0  0  0  0  0  0  0  0
   -0.2415   -1.7487    0.9278 C   0  0  1  0  0  0  0  0  0  0  0  0
   -0.6349   -0.3749    1.4095 C   0  0  1  0  0  0  0  0  0  0  0  0
   -6.4604    0.1984    0.0860 C   0  0  2  0  0  0  0  0  0  0  0  0
   -3.1107    2.4863   -0.6529 C   0  0  2  0  0  0  0  0  0  0  0  0
   -5.9473   -1.1920   -0.2676 C   0  0  2  0  0  0  0  0  0  0  0  0
   -1.1001    0.4797    0.2561 C   0  0  2  0  0  0  0  0  0  0  0  0
   -4.4649    2.0743   -1.0547 C   0  0  2  0  0  0  0  0  0  0  0  0
   -6.9207    0.9613   -1.2462 C   0  0  1  0  0  0  0  0  0  0  0  0
   -2.0787    2.1732   -1.8024 C   0  0  1  0  0  0  0  0  0  0  0  0
   -7.1649   -1.9287   -0.8568 C   0  0  2  0  0  0  0  0  0  0  0  0
   -0.5969    0.3275   -1.1650 C   0  0  1  0  0  0  0  0  0  0  0  0
   -5.0265    2.1020   -2.4210 C   0  0  1  0  0  0  0  0  0  0  0  0
    2.7668   -2.5286   -0.1991 O   0  0  0  0  0  0  0  0  0  0  0  0
   -9.9310   -0.1059   -3.2427 O   0  0  0  0  0  0  0  0  0  0  0  0
   -2.7165    3.3840   -5.3649 O   0  0  0  0  0  0  0  0  0  0  0  0
   -1.4043   -2.5363    0.6660 O   0  0  0  0  0  0  0  0  0  0  0  0
   -1.6645   -0.3855    2.4093 O   0  0  0  0  0  0  0  0  0  0  0  0
   -5.6144    0.8175    1.0702 O   0  0  0  0  0  0  0  0  0  0  0  0
   -3.1788    1.8658    0.6628 O   0  0  0  0  0  0  0  0  0  0  0  0
   -5.3996   -1.8302    0.8960 O   0  0  0  0  0  0  0  0  0  0  0  0
   -0.8443    1.8620    0.6542 O   0  0  0  0  0  0  0  0  0  0  0  0
   -5.3472    2.8309   -0.2062 O   0  0  0  0  0  0  0  0  0  0  0  0
   -6.8208   -3.2393   -1.2656 O   0  0  0  0  0  0  0  0  0  0  0  0
   -7.7255   -1.2407   -1.9765 O   0  0  0  0  0  0  0  0  0  0  0  0
   -0.2556   -1.0468   -1.3945 O   0  0  0  0  0  0  0  0  0  0  0  0
   -3.9869    1.9150   -3.3866 O   0  0  0  0  0  0  0  0  0  0  0  0
   -6.0006    1.0090   -2.4063 O   0  0  0  0  0  0  0  0  0  0  0  0
   -1.6672    0.7952   -2.0386 O   0  0  0  0  0  0  0  0  0  0  0  0
  4  1  1  6
  5  2  1  6
  6  3  1  6
  7  4  1  0
  7 22  1  6
  8  7  1  0
  8 23  1  1
  9 24  1  6
 10 25  1  1
 11  9  1  0
 11 26  1  1
 12  8  1  0
 12 27  1  1
 13 10  1  0
 13 28  1  1
 14  5  1  0
 14  9  1  0
 14 33  1  6
 15  6  1  0
 15 10  1  0
 15 34  1  6
 16 11  1  0
 16 29  1  6
 17 12  1  0
 17 34  1  6
 18 13  1  0
 18 33  1  1
 19  1  1  0
 20  2  1  0
 21  3  1  0
 30  5  1  0
 30 16  1  0
 31  4  1  0
 31 17  1  0
 32  6  1  0
 32 18  1  0
M  END
>  <DRUGBANK_ID>  (1) 
DB04248

>  <SECONDARY_ACCESSION_NUMBERS>  (1) 
EXPT00613

>  <COMMON_NAME>  (1) 
beta-(1->4)-galactotriose

>  <SYNONYMS>  (1) 
beta-1,4-galactotrioside; β-D-Gal-(1→4)-β-D-Gal-(1→4)-β-D-Gal; β-D-galactosyl-(1→4)-β-D-galactosyl-(1→4)-β-D-galactose; β-D-Galp-(1→4)-β-D-Galp-(1→4)-β-D-Galp

$$$$
