7MR
     RDKit          3D

 27 28  0  0  0  0  0  0  0  0999 V2000
   10.5302    0.1442    2.1026 C   0  0  0  0  0  0  0  0  0  0  0  0
   10.8141    1.4564    2.4439 C   0  0  0  0  0  0  0  0  0  0  0  0
   11.6826    1.7144    3.4987 C   0  0  0  0  0  0  0  0  0  0  0  0
   12.2001    0.6663    4.2631 C   0  0  0  0  0  0  0  0  0  0  0  0
   11.9181   -0.6504    3.9203 C   0  0  0  0  0  0  0  0  0  0  0  0
   11.1170   -0.9092    2.8136 C   0  0  0  0  0  0  0  0  0  0  0  0
   10.9919   -2.2377    2.4951 O   0  0  0  0  0  0  0  0  0  0  0  0
   10.2029   -2.5326    1.4268 C   0  0  0  0  0  0  0  0  0  0  0  0
    9.0012   -3.0988    1.7188 C   0  0  0  0  0  0  0  0  0  0  0  0
    8.1491   -3.3417    0.6635 C   0  0  0  0  0  0  0  0  0  0  0  0
   10.5475   -2.2341    0.1009 C   0  0  0  0  0  0  0  0  0  0  0  0
    9.7051   -2.5746   -0.9729 C   0  0  0  0  0  0  0  0  0  0  0  0
    8.4941   -3.2100   -0.7093 C   0  0  0  0  0  0  0  0  0  0  0  0
    7.4350   -3.6921   -2.1533 S   0  0  0  0  0  0  0  0  0  0  0  0
    8.1431   -3.2496   -3.3286 O   0  0  0  0  0  0  0  0  0  0  0  0
    6.0963   -3.1343   -1.9223 O   0  0  0  0  0  0  0  0  0  0  0  0
    7.2585   -5.4972   -2.3468 C   0  0  0  0  0  0  0  0  0  0  0  0
    6.4696   -6.3138   -1.2853 C   0  0  1  0  0  0  0  0  0  0  0  0
    6.8755   -5.8571    0.0709 C   0  0  0  0  0  0  0  0  0  0  0  0
    6.3100   -6.4035    1.1507 F   0  0  0  0  0  0  0  0  0  0  0  0
    8.2082   -5.8347    0.2312 F   0  0  0  0  0  0  0  0  0  0  0  0
    6.3339   -4.6172    0.0150 F   0  0  0  0  0  0  0  0  0  0  0  0
    4.9652   -6.1179   -1.3758 N   0  0  0  0  0  0  0  0  0  0  0  0
    6.8560   -7.7714   -1.2475 C   0  0  0  0  0  0  0  0  0  0  0  0
    8.0176   -8.1720   -1.2543 O   0  0  0  0  0  0  0  0  0  0  0  0
    5.7907   -8.6204   -1.1383 N   0  0  0  0  0  0  0  0  0  0  0  0
    6.0559   -9.9952   -1.0216 O   0  0  0  0  0  0  0  0  0  0  0  0
  1  6  2  0
  1  2  1  0
  2  3  2  0
  3  4  1  0
  4  5  2  0
  5  6  1  0
  6  7  1  0
  7  8  1  0
  8 11  1  0
  8  9  2  0
  9 10  1  0
 10 13  2  0
 11 12  2  0
 12 13  1  0
 13 14  1  0
 14 17  1  0
 14 16  2  0
 14 15  2  0
 18 24  1  0
 18 23  1  6
 18 19  1  0
 18 17  1  0
 19 20  1  0
 19 21  1  0
 19 22  1  0
 24 26  1  0
 24 25  2  0
 26 27  1  0
M  END
>  <DRUGBANK_ID>  (1) 
DB07246

>  <COMMON_NAME>  (1) 
(2R)-2-AMINO-3,3,3-TRIFLUORO-N-HYDROXY-2-{[(4-PHENOXYPHENYL)SULFONYL]METHYL}PROPANAMIDE

$$$$
