NVC
     RDKit          3D

 26 28  0  0  0  0  0  0  0  0999 V2000
    4.9581   -2.0603    1.3383 O   0  0  0  0  0  0  0  0  0  0  0  0
    4.1109   -1.7690    0.4777 C   0  0  0  0  0  0  0  0  0  0  0  0
    3.0703   -0.6498    0.9969 C   0  0  2  0  0  0  0  0  0  0  0  0
    2.0924    0.0144    0.0490 C   0  0  0  0  0  0  0  0  0  0  0  0
    1.6585   -0.8657   -1.0337 C   0  0  0  0  0  0  0  0  0  0  0  0
    1.1317   -2.2311   -0.6151 C   0  0  0  0  0  0  0  0  0  0  0  0
   -0.2970   -1.9762   -0.2551 C   0  0  0  0  0  0  0  0  0  0  0  0
    3.8502    0.5060    1.6966 C   0  0  0  0  0  0  0  0  0  0  0  0
    2.9888    1.6534    2.1237 N   0  0  0  0  0  0  0  0  0  0  0  0
    2.8981    1.8966    3.5119 O   0  0  0  0  0  0  0  0  0  0  0  0
    2.3111    2.5875    1.3708 C   0  0  0  0  0  0  0  0  0  0  0  0
    2.2979    2.7320    0.1351 O   0  0  0  0  0  0  0  0  0  0  0  0
    4.0514   -2.5159   -0.7369 N   0  0  0  0  0  0  0  0  0  0  0  0
    4.3740   -3.9491   -0.8148 C   0  0  1  0  0  0  0  0  0  0  0  0
    4.9725   -4.0837   -2.2477 C   0  0  0  0  0  0  0  0  0  0  0  0
    4.1434   -3.2088   -3.1192 C   0  0  0  0  0  0  0  0  0  0  0  0
    3.8244   -2.1000   -2.1678 C   0  0  0  0  0  0  0  0  0  0  0  0
    5.3549   -4.5032    0.1388 C   0  0  0  0  0  0  0  0  0  0  0  0
    5.0213   -4.6109    1.4673 O   0  0  0  0  0  0  0  0  0  0  0  0
    6.1740   -5.0790    2.0347 C   0  0  0  0  0  0  0  0  0  0  0  0
    7.0627   -5.3435    1.0070 C   0  0  0  0  0  0  0  0  0  0  0  0
    6.5322   -4.9960   -0.1860 N   0  0  0  0  0  0  0  0  0  0  0  0
    6.4558   -5.2864    3.3770 C   0  0  0  0  0  0  0  0  0  0  0  0
    7.7169   -5.8449    3.6392 C   0  0  0  0  0  0  0  0  0  0  0  0
    8.6202   -6.1554    2.6107 C   0  0  0  0  0  0  0  0  0  0  0  0
    8.3068   -5.9011    1.2766 C   0  0  0  0  0  0  0  0  0  0  0  0
  1  2  2  0
  2 13  1  0
  3  8  1  6
  3  4  1  0
  3  2  1  0
  4  5  1  0
  5  6  1  0
  6  7  1  0
  8  9  1  0
  9 10  1  0
  9 11  1  0
 11 12  2  0
 13 14  1  0
 13 17  1  0
 14 15  1  0
 14 18  1  1
 15 16  1  0
 16 17  1  0
 18 19  1  0
 18 22  2  0
 19 20  1  0
 20 21  2  0
 20 23  1  0
 21 22  1  0
 21 26  1  0
 23 24  2  0
 24 25  1  0
 25 26  2  0
M  END
>  <DRUGBANK_ID>  (1) 
DB08310

>  <COMMON_NAME>  (1) 
N-[(2R)-2-{[(2S)-2-(1,3-benzoxazol-2-yl)pyrrolidin-1-yl]carbonyl}hexyl]-N-hydroxyformamide

$$$$
