
     RDKit          3D

 10  9  0  0  0  0  0  0  0  0999 V2000
    0.9392   -0.1430   -0.0317 C   0  0  0  0  0  0  0  0  0  0  0  0
    2.5082    4.6950   -1.3657 C   0  0  0  0  0  0  0  0  0  0  0  0
    0.4280    0.8487   -1.0892 C   0  0  0  0  0  0  0  0  0  0  0  0
    2.9076    4.2536   -2.7916 C   0  0  0  0  0  0  0  0  0  0  0  0
    0.4412    1.4324   -3.4614 C   0  0  0  0  0  0  0  0  0  0  0  0
    0.9558    2.8711   -3.2554 C   0  0  0  0  0  0  0  0  0  0  0  0
    0.5016   -1.5051   -0.3365 N   0  0  0  0  0  0  0  0  0  0  0  0
    2.9612    3.7448   -0.3463 N   0  0  0  0  0  0  0  0  0  0  0  0
    0.8849    0.4744   -2.4351 N   0  0  0  0  0  0  0  0  0  0  0  0
    2.4202    2.9203   -3.1709 N   0  0  0  0  0  0  0  0  0  0  0  0
  3  1  1  0
  4  2  1  0
  6  5  1  0
  7  1  1  0
  8  2  1  0
  9  3  1  0
  9  5  1  0
 10  4  1  0
 10  6  1  0
M  END
>  <DRUGBANK_ID>  (1) 
DB06824

>  <COMMON_NAME>  (1) 
Triethylenetetramine

>  <CAS_NUMBER>  (1) 
112-24-3

>  <UNII>  (1) 
SJ76Y07H5F

>  <SYNONYMS>  (1) 
TETA; Trien; Trientine

$$$$
