ID5
     RDKit          3D

 28 30  0  0  0  0  0  0  0  0999 V2000
    0.2974    1.1062   -0.0596 C   0  0  0  0  0  0  0  0  0  0  0  0
   -1.3017   -1.1506   -0.0334 C   0  0  0  0  0  0  0  0  0  0  0  0
   -1.0985    1.2458    0.0282 C   0  0  0  0  0  0  0  0  0  0  0  0
    0.8841   -0.1450   -0.0526 C   0  0  0  0  0  0  0  0  0  0  0  0
    0.0994   -1.2790   -0.0219 C   0  0  0  0  0  0  0  0  0  0  0  0
   -1.9538    0.1117   -0.0280 C   0  0  0  0  0  0  0  0  0  0  0  0
   -5.4437    5.5472   -7.3085 F   0  0  0  0  0  0  0  0  0  0  0  0
    2.2207   -0.2378   -0.0342 F   0  0  0  0  0  0  0  0  0  0  0  0
   -3.5027    0.0464   -0.0238 C   0  0  0  0  0  0  0  0  0  0  0  0
   -4.2736    2.5076   -2.3717 C   0  0  0  0  0  0  0  0  0  0  0  0
   -2.6091    5.9832   -3.5970 F   0  0  0  0  0  0  0  0  0  0  0  0
   -1.6480    2.4561    0.3116 O   0  0  0  0  0  0  0  0  0  0  0  0
   -4.0326   -1.0593    0.1347 O   0  0  0  0  0  0  0  0  0  0  0  0
   -4.1801    2.3634   -0.8398 C   0  0  0  0  0  0  0  0  0  0  0  0
   -0.9904    3.7016    0.1217 C   0  0  0  0  0  0  0  0  0  0  0  0
   -5.1931    2.4529   -3.3589 N   0  0  0  0  0  0  0  0  0  0  0  0
   -2.7131    2.9015   -3.0811 S   0  0  0  0  0  0  0  0  0  0  0  0
   -6.0480    2.9739   -6.5704 F   0  0  0  0  0  0  0  0  0  0  0  0
   -3.5948    3.9279   -4.0954 C   0  0  0  0  0  0  0  0  0  0  0  0
   -4.9150    5.0147   -6.1936 C   0  0  0  0  0  0  0  0  0  0  0  0
   -4.7297    3.2480   -4.5037 C   0  0  0  0  0  0  0  0  0  0  0  0
   -3.3765    5.2504   -4.4089 C   0  0  0  0  0  0  0  0  0  0  0  0
   -4.0878    5.8260   -5.4353 C   0  0  0  0  0  0  0  0  0  0  0  0
   -5.2560    3.7034   -5.7661 C   0  0  0  0  0  0  0  0  0  0  0  0
   -0.2016    3.9173    1.3756 C   0  0  0  0  0  0  0  0  0  0  0  0
    1.1228    4.0626    1.1970 O   0  0  0  0  0  0  0  0  0  0  0  0
   -0.7144    3.8750    2.5047 O   0  0  0  0  0  0  0  0  0  0  0  0
   -4.4006    1.0909   -0.2189 N   0  0  0  0  0  0  0  0  0  0  0  0
  1  3  2  0
  1  4  1  0
  2  5  1  0
  2  6  2  0
  3  6  1  0
  3 12  1  0
  4  5  2  0
  4  8  1  0
  6  9  1  0
  7 20  1  0
  9 13  2  0
  9 28  1  0
 10 14  1  0
 10 16  2  0
 10 17  1  0
 11 22  1  0
 12 15  1  0
 14 28  1  0
 15 25  1  0
 16 21  1  0
 17 19  1  0
 18 24  1  0
 19 21  2  0
 19 22  1  0
 20 23  1  0
 20 24  2  0
 21 24  1  0
 22 23  2  0
 25 26  1  0
 25 27  2  0
M  END
>  <DRUGBANK_ID>  (1) 
DB02834

>  <SECONDARY_ACCESSION_NUMBERS>  (1) 
EXPT01836

>  <COMMON_NAME>  (1) 
IDD552

$$$$
