
     RDKit          3D

 26 28  0  0  0  0  0  0  0  0999 V2000
   -0.6497    0.9519    0.3189 C   0  0  0  0  0  0  0  0  0  0  0  0
    0.6948    1.1445    0.1570 C   0  0  0  0  0  0  0  0  0  0  0  0
    1.4280   -0.0426    0.0377 C   0  0  0  0  0  0  0  0  0  0  0  0
    0.7835   -1.3181    0.0234 C   0  0  0  0  0  0  0  0  0  0  0  0
   -0.6300   -1.3244    0.0452 C   0  0  0  0  0  0  0  0  0  0  0  0
   -1.3063   -0.1953    0.1762 N   0  0  0  0  0  0  0  0  0  0  0  0
   -1.4191   -2.4614   -0.0424 N   0  0  0  0  0  0  0  0  0  0  0  0
   -2.8661   -2.3853    0.0122 C   0  0  0  0  0  0  0  0  0  0  0  0
   -4.9307   -1.7278   -1.2081 C   0  0  0  0  0  0  0  0  0  0  0  0
   -3.4180   -1.7722   -1.2644 C   0  0  0  0  0  0  0  0  0  0  0  0
   -3.3761   -1.7726    1.3250 C   0  0  0  0  0  0  0  0  0  0  0  0
   -4.8907   -1.6941    1.3280 C   0  0  0  0  0  0  0  0  0  0  0  0
   -5.4041   -1.0160    0.0579 C   0  0  0  0  0  0  0  0  0  0  0  0
    1.3494    2.4969    0.0849 C   0  0  0  0  0  0  0  0  0  0  0  0
    0.6254    3.6568   -0.0067 O   0  0  0  0  0  0  0  0  0  0  0  0
    2.5633    2.5568    0.0698 O   0  0  0  0  0  0  0  0  0  0  0  0
   -0.8060    3.8096   -0.0965 C   0  0  0  0  0  0  0  0  0  0  0  0
   -1.3433    3.2133   -1.3996 C   0  0  0  0  0  0  0  0  0  0  0  0
    1.5858   -2.4527    0.0420 N   0  0  0  0  0  0  0  0  0  0  0  0
    1.1065   -3.8175    0.0087 C   0  0  0  0  0  0  0  0  0  0  0  0
    1.3408   -4.5477   -1.2703 C   0  0  0  0  0  0  0  0  0  0  0  0
    1.9385   -3.9555   -2.3792 C   0  0  0  0  0  0  0  0  0  0  0  0
    2.1478   -4.7060   -3.5261 C   0  0  0  0  0  0  0  0  0  0  0  0
    1.7383   -6.0394   -3.5735 C   0  0  0  0  0  0  0  0  0  0  0  0
    1.0717   -6.6158   -2.4958 C   0  0  0  0  0  0  0  0  0  0  0  0
    0.8251   -5.8533   -1.3669 C   0  0  0  0  0  0  0  0  0  0  0  0
  1  2  2  0
  1  6  1  0
  2  3  1  0
  2 14  1  0
  3  4  2  0
  4  5  1  0
  4 19  1  0
  5  6  2  0
  5  7  1  0
  7  8  1  0
  8 11  1  0
  9 10  1  0
  9 13  1  0
 10  8  1  0
 11 12  1  0
 12 13  1  0
 14 15  1  0
 14 16  2  0
 15 17  1  0
 17 18  1  0
 19 20  1  0
 20 21  1  0
 21 22  2  0
 21 26  1  0
 22 23  1  0
 23 24  2  0
 24 25  1  0
 25 26  2  0
M  END
>  <DRUGBANK_ID>  (1) 
DB16745

>  <COMMON_NAME>  (1) 
PXT 3003

>  <CAS_NUMBER>  (1) 
1467047-91-1

$$$$
