
     RDKit          3D

 25 27  0  0  0  0  0  0  0  0999 V2000
    1.0076    0.0466    0.1620 C   0  0  0  0  0  0  0  0  0  0  0  0
    0.4563    0.8956   -0.9806 C   0  0  0  0  0  0  0  0  0  0  0  0
    0.9585    0.5917   -2.3852 C   0  0  0  0  0  0  0  0  0  0  0  0
    1.3623    1.5444   -3.2040 N   0  0  0  0  0  0  0  0  0  0  0  0
    1.6909    0.9466   -4.4047 C   0  0  0  0  0  0  0  0  0  0  0  0
    1.5249   -0.4298   -4.3386 C   0  0  0  0  0  0  0  0  0  0  0  0
    0.9818   -0.6490   -3.0447 N   0  0  0  0  0  0  0  0  0  0  0  0
    0.5172   -1.8661   -2.3818 C   0  0  0  0  0  0  0  0  0  0  0  0
   -0.7414   -2.5853   -2.8846 C   0  0  0  0  0  0  0  0  0  0  0  0
   -0.5092   -3.2806   -4.1893 C   0  0  0  0  0  0  0  0  0  0  0  0
    0.6089   -4.3173   -4.0617 C   0  0  0  0  0  0  0  0  0  0  0  0
    0.4495   -5.5576   -3.3445 N   0  0  0  0  0  0  0  0  0  0  0  0
    1.9314   -6.4625   -3.3579 S   0  0  0  0  0  0  0  0  0  0  0  0
    2.9436   -5.5919   -2.7562 O   0  0  0  0  0  0  0  0  0  0  0  0
    1.6039   -7.7242   -2.7829 O   0  0  0  0  0  0  0  0  0  0  0  0
    2.3932   -6.6756   -5.0952 C   0  0  0  0  0  0  0  0  0  0  0  0
    1.8958   -1.1414   -5.5561 C   0  0  0  0  0  0  0  0  0  0  0  0
    1.9542   -2.5039   -5.6061 C   0  0  0  0  0  0  0  0  0  0  0  0
    1.9913   -3.3144   -6.7439 C   0  0  0  0  0  0  0  0  0  0  0  0
    2.3304   -2.7252   -7.9173 C   0  0  0  0  0  0  0  0  0  0  0  0
    2.5215   -1.3407   -7.8876 C   0  0  0  0  0  0  0  0  0  0  0  0
    2.2734   -0.5266   -6.7381 C   0  0  0  0  0  0  0  0  0  0  0  0
    2.4142    0.7961   -6.7296 N   0  0  0  0  0  0  0  0  0  0  0  0
    2.1560    1.5303   -5.6097 C   0  0  0  0  0  0  0  0  0  0  0  0
    2.3498    2.8795   -5.7265 N   0  0  0  0  0  0  0  0  0  0  0  0
  1  2  1  0
  2  3  1  0
  3  4  2  0
  3  7  1  0
  4  5  1  0
  5  6  2  0
  5 24  1  0
  6  7  1  0
  6 17  1  0
  7  8  1  0
  8  9  1  0
  9 10  1  0
 10 11  1  0
 11 12  1  0
 12 13  1  0
 13 14  2  0
 13 15  2  0
 13 16  1  0
 17 18  2  0
 17 22  1  0
 18 19  1  0
 19 20  2  0
 20 21  1  0
 21 22  2  0
 22 23  1  0
 23 24  2  0
 24 25  1  0
M  END
>  <DRUGBANK_ID>  (1) 
DB12476

>  <COMMON_NAME>  (1) 
CPG-52852

>  <CAS_NUMBER>  (1) 
532959-63-0

>  <UNII>  (1) 
6PJC3KPK6S

>  <SYNONYMS>  (1) 
N-[4-(4-amino-2-ethylimidazo[4,5-c]quinolin-1-yl)butyl]methanesulfonamide

$$$$
