
     RDKit          3D

 33 35  0  0  1  0  0  0  0  0999 V2000
    1.0412   -0.0706   -0.0367 C   0  0  0  0  0  0  0  0  0  0  0  0
    0.5813    0.8499    1.0800 C   0  0  0  0  0  0  0  0  0  0  0  0
    1.0692    2.2695    0.8106 C   0  0  0  0  0  0  0  0  0  0  0  0
    0.5143    2.7840   -0.5328 C   0  0  0  0  0  0  0  0  0  0  0  0
   -1.0089    2.9255   -0.4909 C   0  0  0  0  0  0  0  0  0  0  0  0
   -1.5236    3.8033    0.6634 C   0  0  1  0  0  0  0  0  0  0  0  0
   -1.0369    5.2406    0.5796 C   0  0  0  0  0  0  0  0  0  0  0  0
   -1.9379    6.3052    0.5486 C   0  0  0  0  0  0  0  0  0  0  0  0
   -1.4752    7.6194    0.5076 C   0  0  0  0  0  0  0  0  0  0  0  0
   -0.1043    7.8763    0.4307 C   0  0  0  0  0  0  0  0  0  0  0  0
    0.8065    6.8472    0.4881 C   0  0  0  0  0  0  0  0  0  0  0  0
    0.3372    5.5558    0.6028 C   0  0  0  0  0  0  0  0  0  0  0  0
    0.3946    9.1676    0.3192 N   0  0  0  0  0  0  0  0  0  0  0  0
    1.2886    9.5739   -0.7679 C   0  0  2  0  0  0  0  0  0  0  0  0
    1.7581   10.9246   -0.2235 C   0  0  0  0  0  0  0  0  0  0  0  0
    0.6358   11.4420    0.6492 C   0  0  0  0  0  0  0  0  0  0  0  0
    0.0455   10.1897    1.1927 C   0  0  0  0  0  0  0  0  0  0  0  0
   -0.6166   10.1251    2.2142 O   0  0  0  0  0  0  0  0  0  0  0  0
    0.5364    9.5680   -2.1069 C   0  0  0  0  0  0  0  0  0  0  0  0
    1.1811   10.1098   -3.2654 O   0  0  0  0  0  0  0  0  0  0  0  0
    1.6637   11.4571   -3.1976 C   0  0  0  0  0  0  0  0  0  0  0  0
    0.5077   12.4068   -2.9279 C   0  0  0  0  0  0  0  0  0  0  0  0
   -0.8478   12.1357   -2.8215 C   0  0  0  0  0  0  0  0  0  0  0  0
   -1.6505   13.2359   -2.4636 C   0  0  0  0  0  0  0  0  0  0  0  0
   -0.9392   14.4052   -2.5247 C   0  0  0  0  0  0  0  0  0  0  0  0
    0.7455   14.1035   -2.7579 S   0  0  0  0  0  0  0  0  0  0  0  0
   -1.4420   15.7631   -2.4473 C   0  0  0  0  0  0  0  0  0  0  0  0
   -0.7685   16.7658   -2.5497 O   0  0  0  0  0  0  0  0  0  0  0  0
   -2.8100   15.7436   -2.2748 O   0  0  0  0  0  0  0  0  0  0  0  0
   -3.5113   17.0068   -2.1958 C   0  0  0  0  0  0  0  0  0  0  0  0
   -3.0581   17.8128   -0.9845 C   0  0  0  0  0  0  0  0  0  0  0  0
   -3.3975   17.7923   -3.4977 C   0  0  0  0  0  0  0  0  0  0  0  0
   -2.9523    3.7125    0.6553 O   0  0  0  0  0  0  0  0  0  0  0  0
  1  2  1  0
  2  3  1  0
  3  4  1  0
  4  5  1  0
  5  6  1  0
  6  7  1  0
  6 33  1  6
  7  8  2  0
  7 12  1  0
  8  9  1  0
  9 10  2  0
 10 11  1  0
 10 13  1  0
 11 12  2  0
 13 14  1  0
 13 17  1  0
 14 15  1  0
 14 19  1  6
 15 16  1  0
 16 17  1  0
 17 18  2  0
 19 20  1  0
 20 21  1  0
 21 22  1  0
 22 23  2  0
 22 26  1  0
 23 24  1  0
 24 25  2  0
 25 26  1  0
 25 27  1  0
 27 28  2  0
 27 29  1  0
 29 30  1  0
 30 31  1  0
 30 32  1  0
M  END
>  <DRUGBANK_ID>  (1) 
DB12977

>  <COMMON_NAME>  (1) 
Simenepag isopropyl

>  <CAS_NUMBER>  (1) 
910562-13-9

>  <UNII>  (1) 
8908HU0G4K

>  <SYNONYMS>  (1) 
Simenepag isopropyl

$$$$
