EHD
     RDKit          3D

 26 30  0  0  0  0  0  0  0  0999 V2000
    2.2932   -0.8819    0.2769 O   0  0  0  0  0  0  0  0  0  0  0  0
    3.3946   -0.2648    0.3864 C   0  0  0  0  0  0  0  0  0  0  0  0
    5.0948   -0.9372    0.7209 C   0  0  0  0  0  0  0  0  0  0  0  0
    6.7798   -1.8253    0.1567 C   0  0  0  0  0  0  0  0  0  0  0  0
    6.9138   -2.2329   -1.2193 O   0  0  0  0  0  0  0  0  0  0  0  0
    5.6776   -2.7362   -1.4916 C   0  0  0  0  0  0  0  0  0  0  0  0
    5.2440   -2.8121   -2.6341 O   0  0  0  0  0  0  0  0  0  0  0  0
    4.7894   -1.0205   -0.5255 C   0  0  0  0  0  0  0  0  0  0  0  0
    5.5438    0.3824   -0.4827 C   0  0  0  0  0  0  0  0  0  0  0  0
    4.8446   -2.6326   -0.1419 C   0  0  2  0  0  0  0  0  0  0  0  0
    5.4360   -2.9217    1.4661 O   0  0  0  0  0  0  0  0  0  0  0  0
    3.8765   -3.7521   -0.0260 C   0  0  0  0  0  0  0  0  0  0  0  0
    3.0996   -3.6648    1.2889 C   0  0  0  0  0  0  0  0  0  0  0  0
    3.4503    1.1194    0.1456 N   0  0  0  0  0  0  0  0  0  0  0  0
    2.6228    2.4606    0.0943 C   0  0  0  0  0  0  0  0  0  0  0  0
    3.7679    3.4718    0.0905 C   0  0  0  0  0  0  0  0  0  0  0  0
    3.8663    4.8461    0.0694 C   0  0  0  0  0  0  0  0  0  0  0  0
    5.1717    5.4050    0.0603 C   0  0  0  0  0  0  0  0  0  0  0  0
    6.3107    4.5495    0.0673 C   0  0  0  0  0  0  0  0  0  0  0  0
    6.2225    3.2390    0.0783 N   0  0  0  0  0  0  0  0  0  0  0  0
    4.9773    2.7866    0.0733 C   0  0  0  0  0  0  0  0  0  0  0  0
    4.7459    1.4038   -0.1336 C   0  0  0  0  0  0  0  0  0  0  0  0
    5.3905    6.7826    0.0535 C   0  0  0  0  0  0  0  0  0  0  0  0
    6.6929    7.2875    0.0537 C   0  0  0  0  0  0  0  0  0  0  0  0
    7.7893    6.4280    0.0533 C   0  0  0  0  0  0  0  0  0  0  0  0
    7.5884    5.0570    0.0566 C   0  0  0  0  0  0  0  0  0  0  0  0
  1  2  2  0
  2  3  1  0
  2 14  1  0
  3  4  1  0
  3  8  2  0
  4  5  1  0
  5  6  1  0
  6  7  2  0
  6 10  1  0
  8  9  1  0
  8 10  1  0
  9 22  2  0
 10 11  1  1
 10 12  1  0
 12 13  1  0
 14 15  1  0
 14 22  1  0
 15 16  1  0
 16 17  1  0
 16 21  2  0
 17 18  2  0
 18 19  1  0
 18 23  1  0
 19 20  2  0
 19 26  1  0
 20 21  1  0
 21 22  1  0
 23 24  2  0
 24 25  1  0
 25 26  2  0
M  END
>  <DRUGBANK_ID>  (1) 
DB04690

>  <COMMON_NAME>  (1) 
Camptothecin

>  <CAS_NUMBER>  (1) 
7689-03-4

>  <UNII>  (1) 
XT3Z54Z28A

>  <SYNONYMS>  (1) 
(+)-camptothecin; (+)-camptothecine; (S)-(+)-camptothecin; 20(S)-camptothecine; 21,22-Secocamptothecin-21-oic acid lactone; Camptothecine; D-camptothecin

$$$$
