
     RDKit          3D

  8  8  0  0  0  0  0  0  0  0999 V2000
   -1.4477   -0.1049   -0.0871 C   0  0  0  0  0  0  0  0  0  0  0  0
   -0.6799   -1.2838   -0.0799 C   0  0  0  0  0  0  0  0  0  0  0  0
   -0.7931    1.1276    0.0107 C   0  0  0  0  0  0  0  0  0  0  0  0
   -2.8518   -0.1387    0.0288 N   0  0  0  0  0  0  0  0  0  0  0  0
    0.7049   -1.1326    0.0382 C   0  0  0  0  0  0  0  0  0  0  0  0
   -1.2749   -2.5551    0.0399 N   0  0  0  0  0  0  0  0  0  0  0  0
    0.5934    1.1548    0.0122 C   0  0  0  0  0  0  0  0  0  0  0  0
    1.3626    0.0521    0.0302 N   0  0  0  0  0  0  0  0  0  0  0  0
  1  2  2  0
  1  3  1  0
  1  4  1  0
  2  5  1  0
  2  6  1  0
  3  7  2  0
  5  8  2  0
  7  8  1  0
M  END
>  <DRUGBANK_ID>  (1) 
DB11640

>  <COMMON_NAME>  (1) 
Amifampridine

>  <CAS_NUMBER>  (1) 
54-96-6

>  <UNII>  (1) 
RU4S6E2G0J

>  <SYNONYMS>  (1) 
3,4 diaminopyridine; 3,4-DAP; 3,4-Diaminopyridine; 3,4-Pyridinediamine; 4,5-Diaminopyridine; Amifampridine; DAP

$$$$
