DBY
     RDKit          3D

 15 15  0  0  0  0  0  0  0  0999 V2000
    1.0664   -1.5530    1.8885 N   0  0  0  0  0  0  0  0  0  0  0  0
    0.6238   -1.2539    0.5005 C   0  0  2  0  0  0  0  0  0  0  0  0
    1.2920    0.0416    0.0200 C   0  0  0  0  0  0  0  0  0  0  0  0
    1.7701    0.2395   -1.0870 O   0  0  0  0  0  0  0  0  0  0  0  0
   -0.9116   -1.2119    0.4356 C   0  0  0  0  0  0  0  0  0  0  0  0
   -1.4519   -0.9714   -0.9568 C   0  0  0  0  0  0  0  0  0  0  0  0
   -1.8877   -2.0317   -1.7642 C   0  0  0  0  0  0  0  0  0  0  0  0
   -2.3747   -1.7800   -3.0525 C   0  0  0  0  0  0  0  0  0  0  0  0
   -1.4963    0.3331   -1.4710 C   0  0  0  0  0  0  0  0  0  0  0  0
   -1.9630    0.5780   -2.7644 C   0  0  0  0  0  0  0  0  0  0  0  0
   -2.4205   -0.4756   -3.5544 C   0  0  0  0  0  0  0  0  0  0  0  0
   -2.9141   -0.2120   -4.8052 O   0  0  0  0  0  0  0  0  0  0  0  0
   -2.9676   -3.2400   -4.1091 Br  0  0  0  0  0  0  0  0  0  0  0  0
   -1.9412    2.3652   -3.3979 Br  0  0  0  0  0  0  0  0  0  0  0  0
    1.3637    1.0008    0.9701 O   0  0  0  0  0  0  0  0  0  0  0  0
  2  5  1  0
  2  3  1  0
  2  1  1  1
  3  4  2  0
  3 15  1  0
  5  6  1  0
  6  7  2  0
  6  9  1  0
  7  8  1  0
  8 11  2  0
  8 13  1  0
  9 10  2  0
 10 11  1  0
 10 14  1  0
 11 12  1  0
M  END
>  <DRUGBANK_ID>  (1) 
DB07637

>  <COMMON_NAME>  (1) 
Dibromotyrosine

>  <CAS_NUMBER>  (1) 
300-38-9

>  <UNII>  (1) 
QD49LEP46E

>  <SYNONYMS>  (1) 
3,5-dibromo-L-tyrosine

$$$$
