
     RDKit          3D

 30 32  0  0  1  0  0  0  0  0999 V2000
   -1.1991   -1.4978    0.4649 C   0  0  2  0  0  0  0  0  0  0  0  0
   -0.0063   -0.7219    0.0213 C   0  0  1  0  0  0  0  0  0  0  0  0
   -0.1769    0.7705   -0.2543 C   0  0  0  0  0  0  0  0  0  0  0  0
    1.2289   -0.9999    0.9413 C   0  0  2  0  0  0  0  0  0  0  0  0
   -2.3099   -1.1943   -0.5459 C   0  0  0  0  0  0  0  0  0  0  0  0
    0.8626    1.7513    0.1322 C   0  0  0  0  0  0  0  0  0  0  0  0
   -1.4073    1.2095   -0.5972 C   0  0  0  0  0  0  0  0  0  0  0  0
    2.6223    0.0456    0.2649 C   0  0  2  0  0  0  0  0  0  0  0  0
   -2.6431    0.3062   -0.6059 C   0  0  2  0  0  0  0  0  0  0  0  0
    2.1388    1.4449    0.3585 C   0  0  0  0  0  0  0  0  0  0  0  0
    1.7590   -2.4990    0.9744 C   0  0  0  0  0  0  0  0  0  0  0  0
   -3.6875    0.5981    0.4899 C   0  0  0  0  0  0  0  0  0  0  0  0
    3.7126   -0.6100   -1.4428 C   0  0  0  0  0  0  0  0  0  0  0  0
    2.1270   -2.9377   -0.4165 C   0  0  0  0  0  0  0  0  0  0  0  0
    2.3981   -1.6234   -0.8985 C   0  0  1  0  0  0  0  0  0  0  0  0
    4.0227   -1.0346    0.1001 O   0  0  0  0  0  0  0  0  0  0  0  0
    4.6888    0.6420   -0.4147 C   0  0  0  0  0  0  0  0  0  0  0  0
    4.1754    1.2224   -2.2580 C   0  0  0  0  0  0  0  0  0  0  0  0
    2.6112    0.6921   -3.1155 C   0  0  1  0  0  0  0  0  0  0  0  0
    2.1598   -1.0914   -2.7694 C   0  0  0  0  0  0  0  0  0  0  0  0
    1.5969    1.5412   -2.6070 O   0  0  0  0  0  0  0  0  0  0  0  0
    5.5941    1.2348    0.1582 O   0  0  0  0  0  0  0  0  0  0  0  0
   -1.2931    1.0983    1.7440 O   0  0  0  0  0  0  0  0  0  0  0  0
   -1.5244    0.0540    2.3216 C   0  0  0  0  0  0  0  0  0  0  0  0
   -1.4529   -1.2129    1.8485 O   0  0  0  0  0  0  0  0  0  0  0  0
   -3.2651   -0.5387    3.9977 C   0  0  0  0  0  0  0  0  0  0  0  0
   -3.0325   -2.0314    3.8705 C   0  0  0  0  0  0  0  0  0  0  0  0
   -0.8075   -0.0364    4.5272 C   0  0  0  0  0  0  0  0  0  0  0  0
   -2.0190    0.2714    3.6853 C   0  0  0  0  0  0  0  0  0  0  0  0
   -2.3598    1.7940    3.7753 C   0  0  0  0  0  0  0  0  0  0  0  0
  1 25  1  1
  1  5  1  0
  2  1  1  0
  2  3  1  1
  2  4  1  0
  3  6  1  0
  3  7  2  0
  4  8  1  0
  4 11  1  6
  5  9  1  0
  6 10  2  0
  7  9  1  0
  8 13  1  6
  8 10  1  0
  9 12  1  1
 11 14  1  0
 15 14  1  6
 15 16  1  0
 15 20  1  0
 16 17  1  0
 17 18  1  0
 17 22  2  0
 18 19  1  0
 19 20  1  0
 19 21  1  1
 23 24  2  0
 24 29  1  0
 24 25  1  0
 26 27  1  0
 29 26  1  0
 29 28  1  0
 29 30  1  0
M  END
>  <DRUGBANK_ID>  (1) 
DB00641

>  <SECONDARY_ACCESSION_NUMBERS>  (1) 
APRD00104

>  <COMMON_NAME>  (1) 
Simvastatin

>  <CAS_NUMBER>  (1) 
79902-63-9

>  <UNII>  (1) 
AGG2FN16EV

>  <SYNONYMS>  (1) 
2,2-dimethylbutyric acid, 8-ester with (4R,6R)-6-(2-((1S,2S,6R,8S,8aR)-1,2,6,7,8,8a-hexahydro-8-hydroxy-2,6-dimethyl-1-naphthyl)ethyl)tetrahydro-4-hydroxy-2H-pyran-2-one; Simvastatin; Simvastatina; Simvastatine; Simvastatinum

$$$$
