1295
     RDKit          3D

 25 26  0  0  1  0  0  0  0  0999 V2000
    1.2069   -0.1023    0.2349 O   0  0  0  0  0  0  0  0  0  0  0  0
    2.1103    2.3133    1.9661 O   0  0  0  0  0  0  0  0  0  0  0  0
   -2.1257    0.7887   -2.4543 O   0  0  0  0  0  0  0  0  0  0  0  0
   -3.1988    2.0710   -4.6766 O   0  0  0  0  0  0  0  0  0  0  0  0
   -1.5318    3.0667    1.6936 N   0  0  0  0  0  0  0  0  0  0  0  0
   -0.0738    3.2438    1.6318 C   0  0  0  0  0  0  0  0  0  0  0  0
    0.7603    1.9413    1.7232 C   0  0  0  0  0  0  0  0  0  0  0  0
   -2.2660    4.3062    1.3882 C   0  0  0  0  0  0  0  0  0  0  0  0
   -1.9439    5.0562    0.0593 C   0  0  0  0  0  0  0  0  0  0  0  0
   -2.2523    4.2871   -1.2159 C   0  0  0  0  0  0  0  0  0  0  0  0
    0.5956    1.1729    0.4169 C   0  0  0  0  0  0  0  0  0  0  0  0
   -1.8323    2.9655   -1.3850 C   0  0  0  0  0  0  0  0  0  0  0  0
   -2.9763    4.8480   -2.2715 C   0  0  0  0  0  0  0  0  0  0  0  0
   -2.2384    2.1434   -2.4247 C   0  0  0  0  0  0  0  0  0  0  0  0
   -3.2858    4.0668   -3.4011 C   0  0  0  0  0  0  0  0  0  0  0  0
   -2.9022    2.7233   -3.5030 C   0  0  0  0  0  0  0  0  0  0  0  0
    2.5322   -0.0890   -0.0897 C   0  0  0  0  0  0  0  0  0  0  0  0
    3.2576    1.0798   -0.2865 C   0  0  0  0  0  0  0  0  0  0  0  0
    4.6133    1.0983    0.0062 C   0  0  0  0  0  0  0  0  0  0  0  0
    3.1856   -1.3092    0.0189 C   0  0  0  0  0  0  0  0  0  0  0  0
    5.2751   -0.1121    0.2128 C   0  0  0  0  0  0  0  0  0  0  0  0
    4.5683   -1.3187    0.1729 C   0  0  0  0  0  0  0  0  0  0  0  0
    5.2716    2.4255    0.2349 C   0  0  0  0  0  0  0  0  0  0  0  0
   -1.3666    0.0969   -1.5082 C   0  0  0  0  0  0  0  0  0  0  0  0
   -2.5836    0.7874   -4.8773 C   0  0  0  0  0  0  0  0  0  0  0  0
  1 11  1  0
  1 17  1  0
  2  7  1  0
  3 14  1  0
  3 24  1  0
  4 16  1  0
  4 25  1  0
  5  6  1  0
  5  8  1  0
  6  7  1  0
  7 11  1  0
  8  9  1  0
  9 10  1  0
 10 12  2  0
 10 13  1  0
 12 14  1  0
 13 15  2  0
 14 16  2  0
 15 16  1  0
 17 18  2  0
 17 20  1  0
 18 19  1  0
 19 21  2  0
 19 23  1  0
 20 22  2  0
 21 22  1  0
M  END
>  <DRUGBANK_ID>  (1) 
DB01295

>  <COMMON_NAME>  (1) 
Bevantolol

>  <CAS_NUMBER>  (1) 
59170-23-9

>  <UNII>  (1) 
34ZXW6ZV21

>  <SYNONYMS>  (1) 
(±)-bevantolol; 1-((2-(3,4-dimethoxyphenyl)ethyl)amino)-3-(3-methylphenoxy)-2-propanol; 1-(3,4-dimethoxyphenethylamino)-3-(m-tolyloxy)-2-propanol; 1-(3,4-dimethoxyphenethylamino)-3-m-tolyloxy-propan-2-ol; 1-[2-(3,4-Dimethoxy-phenyl)-ethylamino]-3-m-tolyloxy-propan-2-ol; Bevantolol; Bévantolol; Bevantololum

$$$$
