
     RDKit          3D

 30 30  0  0  1  0  0  0  0  0999 V2000
   -0.8152    1.0778    0.0302 C   0  0  0  0  0  0  0  0  0  0  0  0
   -1.4411   -0.1543   -0.0129 C   0  0  0  0  0  0  0  0  0  0  0  0
   -0.6665   -1.3167   -0.0181 C   0  0  0  0  0  0  0  0  0  0  0  0
    0.7263   -1.2597    0.0418 C   0  0  0  0  0  0  0  0  0  0  0  0
    1.3506   -0.0303   -0.0409 C   0  0  0  0  0  0  0  0  0  0  0  0
    0.5744    1.1300   -0.0660 C   0  0  0  0  0  0  0  0  0  0  0  0
    1.2437    2.4411   -0.2081 C   0  0  0  0  0  0  0  0  0  0  0  0
    2.1677    2.6270    0.8951 N   0  0  0  0  0  0  0  0  0  0  0  0
    2.7712    3.9260    0.7290 C   0  0  0  0  0  0  0  0  0  0  0  0
    1.7894    5.0939    0.8450 C   0  0  0  0  0  0  0  0  0  0  0  0
    1.0692    5.0795    2.2016 C   0  0  0  0  0  0  0  0  0  0  0  0
    1.9974    5.3484    3.4050 C   0  0  0  0  0  0  0  0  0  0  0  0
    2.6108    6.7510    3.3658 C   0  0  1  0  0  0  0  0  0  0  0  0
    1.6551    7.9405    3.3921 C   0  0  0  0  0  0  0  0  0  0  0  0
    1.6272    8.8585    4.1894 O   0  0  0  0  0  0  0  0  0  0  0  0
    0.8583    7.9458    2.2912 O   0  0  0  0  0  0  0  0  0  0  0  0
    3.8458    6.8610    4.1431 N   0  0  0  0  0  0  0  0  0  0  0  0
    5.1432    7.0535    3.8410 C   0  0  0  0  0  0  0  0  0  0  0  0
    5.9367    7.1985    4.7734 O   0  0  0  0  0  0  0  0  0  0  0  0
    5.6397    7.0989    2.5927 N   0  0  0  0  0  0  0  0  0  0  0  0
    5.0711    6.8431    1.2846 C   0  0  1  0  0  0  0  0  0  0  0  0
    5.0117    8.0676    0.3797 C   0  0  0  0  0  0  0  0  0  0  0  0
    6.3572    8.3879   -0.2447 C   0  0  0  0  0  0  0  0  0  0  0  0
    6.8061    7.3645   -1.2591 C   0  0  0  0  0  0  0  0  0  0  0  0
    6.4768    7.3104   -2.4286 O   0  0  0  0  0  0  0  0  0  0  0  0
    7.5376    6.3757   -0.7101 O   0  0  0  0  0  0  0  0  0  0  0  0
    5.4121    5.5635    0.5555 C   0  0  0  0  0  0  0  0  0  0  0  0
    4.9050    5.2341   -0.4777 O   0  0  0  0  0  0  0  0  0  0  0  0
    6.3965    4.8127    1.0684 O   0  0  0  0  0  0  0  0  0  0  0  0
   -1.5968   -3.1589   -0.1829 I   0  0  0  0  0  0  0  0  0  0  0  0
  1  2  2  0
  1  6  1  0
  2  3  1  0
  3  4  2  0
  3 30  1  0
  4  5  1  0
  5  6  2  0
  6  7  1  0
  7  8  1  0
  8  9  1  0
  9 10  1  0
 10 11  1  0
 11 12  1  0
 13 12  1  1
 13 14  1  0
 13 17  1  0
 14 15  2  0
 14 16  1  0
 17 18  1  0
 18 19  2  0
 18 20  1  0
 21 20  1  0
 21 22  1  6
 21 27  1  0
 22 23  1  0
 23 24  1  0
 24 25  2  0
 24 26  1  0
 27 28  2  0
 27 29  1  0
M  ISO  1  30 123
M  END
>  <DRUGBANK_ID>  (1) 
DB12514

>  <COMMON_NAME>  (1) 
Iofolastat I-123

>  <CAS_NUMBER>  (1) 
949575-24-0

>  <UNII>  (1) 
AQF0A29T2V

>  <SYNONYMS>  (1) 
Iofolastat (123 I)

$$$$
