
     RDKit          3D

 27 25  0  0  0  0  0  0  0  0999 V2000
    1.4034    2.2302    0.8415 O   0  0  0  0  0  0  0  0  0  0  0  0
    0.5200    0.2725    0.6077 N   0  0  0  0  0  0  0  0  0  0  0  0
    0.1688    0.7521   -1.2821 C   0  0  0  0  0  0  0  0  0  0  0  0
   -0.0370   -0.7744   -2.6708 C   0  0  0  0  0  0  0  0  0  0  0  0
   -0.2417   -2.5506   -2.3467 C   0  0  0  0  0  0  0  0  0  0  0  0
   -1.5934   -3.0624   -2.3195 C   0  0  0  0  0  0  0  0  0  0  0  0
   -2.0123   -2.4223   -3.5836 C   0  0  0  0  0  0  0  0  0  0  0  0
   -1.3168   -3.2942   -4.5345 N   0  0  0  0  0  0  0  0  0  0  0  0
   -3.4622   -2.2299   -3.4151 C   0  0  0  0  0  0  0  0  0  0  0  0
   -3.8959   -0.9712   -3.6895 O   0  0  0  0  0  0  0  0  0  0  0  0
   -4.1579   -3.1002   -2.9141 O   0  0  0  0  0  0  0  0  0  0  0  0
    2.1557   -0.2050   -0.5667 O   0  0  0  0  0  0  0  0  0  0  0  0
    0.6265   -0.9384   -0.9520 C   0  0  0  0  0  0  0  0  0  0  0  0
    1.7842   -0.2183   -2.5335 C   0  0  0  0  0  0  0  0  0  0  0  0
    3.1741   -0.3182   -2.6864 N   0  0  0  0  0  0  0  0  0  0  0  0
    3.9189    0.7705   -2.5066 C   0  0  0  0  0  0  0  0  0  0  0  0
    5.1393    0.1909   -2.3625 C   0  0  0  0  0  0  0  0  0  0  0  0
    5.0848   -1.1903   -2.4451 N   0  0  0  0  0  0  0  0  0  0  0  0
    3.8538   -1.4719   -2.7755 C   0  0  0  0  0  0  0  0  0  0  0  0
    1.6075   -2.9745   -0.3201 P   0  0  0  0  0  0  0  0  0  0  0  0
    1.2634   -4.1451   -1.3910 O   0  0  0  0  0  0  0  0  0  0  0  0
    3.1017   -2.5209   -0.5715 O   0  0  0  0  0  0  0  0  0  0  0  0
    1.5501   -3.6438    1.0118 O   0  0  0  0  0  0  0  0  0  0  0  0
   -1.2035   -0.9384   -0.9520 P   0  0  0  0  0  0  0  0  0  0  0  0
   -1.4861   -0.2214    0.4950 O   0  0  0  0  0  0  0  0  0  0  0  0
   -1.7183    0.2812   -2.2074 O   0  0  0  0  0  0  0  0  0  0  0  0
   -2.7518   -0.9384   -0.9520 O   0  0  0  0  0  0  0  0  0  0  0  0
  2  3  1  0
  3  4  1  0
  4  5  1  0
  5  6  1  0
  6  7  1  0
  7  8  1  0
  7  9  1  0
  9 10  1  0
  9 11  2  0
 12 13  1  0
 13 14  1  0
 13 20  1  0
 13 24  1  0
 14 15  1  0
 15 16  1  0
 15 19  1  0
 16 17  2  0
 17 18  1  0
 18 19  2  0
 20 21  1  0
 20 22  1  0
 20 23  2  0
 24 25  1  0
 24 26  1  0
 24 27  2  0
M  END
>  <DRUGBANK_ID>  (1) 
DB16907

>  <COMMON_NAME>  (1) 
Zoledronate D,L-Lysine Monohydrate

>  <CAS_NUMBER>  (1) 
1323976-37-9

>  <UNII>  (1) 
IL1N7FSO1U

$$$$
