
     RDKit          3D

 22 25  0  0  1  0  0  0  0  0999 V2000
   -0.7114    0.0523    0.3521 C   0  0  0  0  0  0  0  0  0  0  0  0
    2.9502   -0.5813    0.7523 C   0  0  0  0  0  0  0  0  0  0  0  0
   -1.2027   -2.0724    1.3684 C   0  0  1  0  0  0  0  0  0  0  0  0
   -0.0709   -1.8490    3.7159 C   0  0  0  0  0  0  0  0  0  0  0  0
   -0.9319   -1.3854   -0.0203 C   0  0  0  0  0  0  0  0  0  0  0  0
    3.1228   -3.2023    1.9889 C   0  0  1  0  0  0  0  0  0  0  0  0
    0.9731   -2.7649    3.1684 C   0  0  0  0  0  0  0  0  0  0  0  0
    3.8736   -1.8878    0.0312 C   0  0  0  0  0  0  0  0  0  0  0  0
    4.2952   -3.3403    0.9062 C   0  0  2  0  0  0  0  0  0  0  0  0
    3.8790   -3.7336    3.3662 C   0  0  0  0  0  0  0  0  0  0  0  0
    4.6497   -5.2519    0.6417 C   0  0  0  0  0  0  0  0  0  0  0  0
    4.8327   -4.7967    2.9816 C   0  0  1  0  0  0  0  0  0  0  0  0
    1.6960   -1.0699    1.4755 C   0  0  1  0  0  0  0  0  0  0  0  0
    2.1867   -2.0402    2.5472 C   0  0  2  0  0  0  0  0  0  0  0  0
   -0.6905   -1.1075    2.5036 C   0  0  2  0  0  0  0  0  0  0  0  0
   -1.7693   -0.1780    3.1197 C   0  0  0  0  0  0  0  0  0  0  0  0
    0.3053   -0.1991    1.6940 C   0  0  2  0  0  0  0  0  0  0  0  0
    2.8768   -5.9696    2.0221 O   0  0  0  0  0  0  0  0  0  0  0  0
    3.9622   -5.4901    1.9490 C   0  0  0  0  0  0  0  0  0  0  0  0
    2.1292   -3.9030    0.8499 C   0  0  0  0  0  0  0  0  0  0  0  0
   -2.3654   -2.6546    1.9217 O   0  0  0  0  0  0  0  0  0  0  0  0
    6.2940   -5.2483    3.1867 C   0  0  0  0  0  0  0  0  0  0  0  0
  2  8  1  0
  3  5  1  0
  3 21  1  1
  4  7  1  0
  5  1  1  0
  6  9  1  0
  6 10  1  0
  6 20  1  6
  9  8  1  6
  9 11  1  0
 10 12  1  0
 11 19  1  0
 12 19  1  0
 12 22  1  6
 13 14  1  0
 13  2  1  1
 14  6  1  0
 14  7  1  6
 15  3  1  0
 15  4  1  0
 15 16  1  1
 17 13  1  0
 17 15  1  0
 17  1  1  6
 19 18  2  0
M  END
>  <DRUGBANK_ID>  (1) 
DB00858

>  <SECONDARY_ACCESSION_NUMBERS>  (1) 
APRD00938

>  <COMMON_NAME>  (1) 
Drostanolone

>  <CAS_NUMBER>  (1) 
58-19-5

>  <UNII>  (1) 
7DR7H00HDT

>  <SYNONYMS>  (1) 
17beta-Hydroxy-2alpha-methyl-5alpha-androstan-3-one; 2α-Methyldihydrotestosterone; Dihydro-2α-methyltestosterone; Dromostanolone; Drostanolona; Drostanolone; Drostanolonum; Medrosteron; Medrotestron; Metholone

$$$$
