
     RDKit          3D

 36 36  0  0  0  0  0  0  0  0999 V2000
   -1.4035   -0.2547    0.6332 N   0  0  0  0  0  0  0  0  0  0  0  0
   -0.8284   -1.4729    0.0496 C   0  0  0  0  0  0  0  0  0  0  0  0
    0.7279   -1.5166   -0.0386 C   0  0  0  0  0  0  0  0  0  0  0  0
    1.4246   -0.3645   -0.6373 N   0  0  0  0  0  0  0  0  0  0  0  0
    0.9024    0.8361   -0.0729 C   0  0  0  0  0  0  0  0  0  0  0  0
   -0.7114    0.8667    0.0827 C   0  0  0  0  0  0  0  0  0  0  0  0
   -1.5624   -0.0768    2.0472 C   0  0  0  0  0  0  0  0  0  0  0  0
   -0.2566    0.0558    2.8058 C   0  0  0  0  0  0  0  0  0  0  0  0
    0.5138    1.3387    2.6049 C   0  0  0  0  0  0  0  0  0  0  0  0
   -0.1043    2.4882    3.1006 N   0  0  0  0  0  0  0  0  0  0  0  0
    0.8281    3.4299    3.4709 C   0  0  0  0  0  0  0  0  0  0  0  0
    0.1349    4.6966    3.8597 C   0  0  1  0  0  0  0  0  0  0  0  0
    2.0445    3.2414    3.5134 O   0  0  0  0  0  0  0  0  0  0  0  0
    0.0387    4.7001    5.2976 N   0  0  0  0  0  0  0  0  0  0  0  0
    0.9204    5.8479    3.3326 C   0  0  0  0  0  0  0  0  0  0  0  0
    0.7965    5.7697    1.8450 C   0  0  0  0  0  0  0  0  0  0  0  0
   -0.6177    6.0127    1.2982 C   0  0  0  0  0  0  0  0  0  0  0  0
   -1.1921    7.3153    1.5714 N   0  0  0  0  0  0  0  0  0  0  0  0
   -1.5558    8.2425    0.6528 C   0  0  0  0  0  0  0  0  0  0  0  0
   -2.1991    9.3086    1.1127 N   0  0  0  0  0  0  0  0  0  0  0  0
   -1.4142    8.1745   -0.6289 N   0  0  0  0  0  0  0  0  0  0  0  0
    1.5313   -0.1935   -2.0587 C   0  0  0  0  0  0  0  0  0  0  0  0
    0.2192    0.0955   -2.7722 C   0  0  0  0  0  0  0  0  0  0  0  0
   -0.4329    1.4531   -2.5681 C   0  0  0  0  0  0  0  0  0  0  0  0
    0.3302    2.5034   -3.0717 N   0  0  0  0  0  0  0  0  0  0  0  0
   -0.4730    3.5314   -3.4862 C   0  0  0  0  0  0  0  0  0  0  0  0
    0.3565    4.7052   -3.8762 C   0  0  1  0  0  0  0  0  0  0  0  0
   -1.7114    3.4747   -3.5558 O   0  0  0  0  0  0  0  0  0  0  0  0
    0.4542    4.6940   -5.3131 N   0  0  0  0  0  0  0  0  0  0  0  0
   -0.3033    5.9317   -3.3472 C   0  0  0  0  0  0  0  0  0  0  0  0
   -0.1877    5.8340   -1.8602 C   0  0  0  0  0  0  0  0  0  0  0  0
    1.2408    5.9320   -1.3101 C   0  0  0  0  0  0  0  0  0  0  0  0
    1.9450    7.1683   -1.5835 N   0  0  0  0  0  0  0  0  0  0  0  0
    2.3985    8.0516   -0.6586 C   0  0  0  0  0  0  0  0  0  0  0  0
    3.1536    9.0437   -1.1206 N   0  0  0  0  0  0  0  0  0  0  0  0
    2.2425    7.9966    0.6169 N   0  0  0  0  0  0  0  0  0  0  0  0
  1  2  1  0
  1  7  1  0
  2  3  1  0
  3  4  1  0
  4  5  1  0
  4 22  1  0
  5  6  1  0
  6  1  1  0
  7  8  1  0
  8  9  1  0
  9 10  1  0
 10 11  1  0
 11 12  1  0
 11 13  2  0
 12 14  1  1
 12 15  1  0
 15 16  1  0
 16 17  1  0
 17 18  1  0
 18 19  1  0
 19 20  1  0
 19 21  2  0
 22 23  1  0
 23 24  1  0
 24 25  1  0
 25 26  1  0
 26 27  1  0
 26 28  2  0
 27 29  1  6
 27 30  1  0
 30 31  1  0
 31 32  1  0
 32 33  1  0
 33 34  1  0
 34 35  1  0
 34 36  2  0
M  END
>  <DRUGBANK_ID>  (1) 
DB15199

>  <COMMON_NAME>  (1) 
Ciraparantag

>  <CAS_NUMBER>  (1) 
1438492-26-2

>  <UNII>  (1) 
U2R67KV65Q

>  <SYNONYMS>  (1) 
Ciraparantag; Ciraparantagum

$$$$
