
     RDKit          3D

 24 25  0  0  0  0  0  0  0  0999 V2000
    2.4010    0.6274    0.0140 O   0  0  0  0  0  0  0  0  0  0  0  0
    1.1898   -0.0071   -0.0246 C   0  0  0  0  0  0  0  0  0  0  0  0
    1.1694   -1.3941   -0.0940 C   0  0  0  0  0  0  0  0  0  0  0  0
   -0.0629   -2.0615   -0.1685 C   0  0  0  0  0  0  0  0  0  0  0  0
   -0.1753   -3.5516   -0.2203 C   0  0  0  0  0  0  0  0  0  0  0  0
    0.7194   -4.1659   -1.1694 N   0  0  0  0  0  0  0  0  0  0  0  0
    1.8200   -4.9437   -1.0071 C   0  0  0  0  0  0  0  0  0  0  0  0
    2.5789   -5.4558   -2.4224 S   0  0  0  0  0  0  0  0  0  0  0  0
    2.3377   -5.3371    0.3408 C   0  0  0  0  0  0  0  0  0  0  0  0
    1.9537   -4.9550    1.5520 C   0  0  0  0  0  0  0  0  0  0  0  0
    2.5538   -5.3666    2.8097 C   0  0  0  0  0  0  0  0  0  0  0  0
    3.8958   -5.1514    3.1180 C   0  0  0  0  0  0  0  0  0  0  0  0
    5.1075   -4.2940    1.9212 Br  0  0  0  0  0  0  0  0  0  0  0  0
    4.3471   -5.5386    4.3703 C   0  0  0  0  0  0  0  0  0  0  0  0
    5.6165   -5.2470    4.7920 O   0  0  0  0  0  0  0  0  0  0  0  0
    3.5029   -6.2354    5.2355 C   0  0  0  0  0  0  0  0  0  0  0  0
    3.9674   -6.6779    6.4378 O   0  0  0  0  0  0  0  0  0  0  0  0
    2.1733   -6.4617    4.9235 C   0  0  0  0  0  0  0  0  0  0  0  0
    1.6702   -5.9089    3.7595 C   0  0  0  0  0  0  0  0  0  0  0  0
   -1.2472   -1.3249   -0.0721 C   0  0  0  0  0  0  0  0  0  0  0  0
   -1.2175    0.0628   -0.0107 C   0  0  0  0  0  0  0  0  0  0  0  0
   -2.4421    0.6581    0.0348 O   0  0  0  0  0  0  0  0  0  0  0  0
    0.0043    0.7312   -0.0039 C   0  0  0  0  0  0  0  0  0  0  0  0
    0.1401    2.0917    0.0270 O   0  0  0  0  0  0  0  0  0  0  0  0
  1  2  1  0
  2  3  2  0
  2 23  1  0
  3  4  1  0
  4  5  1  0
  4 20  2  0
  5  6  1  0
  6  7  1  0
  7  8  2  0
  7  9  1  0
  9 10  2  0
 10 11  1  0
 11 12  2  0
 11 19  1  0
 12 13  1  0
 12 14  1  0
 14 15  1  0
 14 16  2  0
 16 17  1  0
 16 18  1  0
 18 19  2  0
 20 21  1  0
 21 22  1  0
 21 23  2  0
 23 24  1  0
M  END
>  <DRUGBANK_ID>  (1) 
DB17490

>  <COMMON_NAME>  (1) 
NT-219

>  <CAS_NUMBER>  (1) 
1198078-60-2

>  <UNII>  (1) 
K1WT1A1UP5

>  <SYNONYMS>  (1) 
2-propenethioamide, 3-(2-bromo-3,4-dihydroxyphenyl)-n-((3,4,5-trihydroxyphenyl)methyl)-; 2-propenethioamide, 3-(2-bromo-3,4-dihydroxyphenyl)-n-((3,4,5-trihydroxyphenyl)methyl)-, (2e)-

$$$$
