
     RDKit          3D

 15 15  0  0  0  0  0  0  0  0999 V2000
    1.0306    0.0040   -0.1298 O   0  0  0  0  0  0  0  0  0  0  0  0
    2.8792    0.9239   -0.9260 N   0  0  0  0  0  0  0  0  0  0  0  0
    4.2340    1.1881   -1.1097 N   0  0  0  0  0  0  0  0  0  0  0  0
    3.0092   -1.0689    0.7798 C   0  0  0  0  0  0  0  0  0  0  0  0
    2.4781   -0.8989    2.2359 C   0  0  0  0  0  0  0  0  0  0  0  0
    2.5307   -2.4685    0.3726 C   0  0  0  0  0  0  0  0  0  0  0  0
    4.5579   -1.1884    0.7001 C   0  0  0  0  0  0  0  0  0  0  0  0
    2.2590   -0.0202   -0.1295 C   0  0  0  0  0  0  0  0  0  0  0  0
    4.7249    2.4606   -0.5455 C   0  0  0  0  0  0  0  0  0  0  0  0
    4.3546    2.8254    0.8800 C   0  0  0  0  0  0  0  0  0  0  0  0
    4.1088    1.8677    1.8490 C   0  0  0  0  0  0  0  0  0  0  0  0
    4.3435    4.1294    1.3448 C   0  0  0  0  0  0  0  0  0  0  0  0
    3.8798    2.0921    3.2000 C   0  0  0  0  0  0  0  0  0  0  0  0
    4.1046    4.4009    2.7088 C   0  0  0  0  0  0  0  0  0  0  0  0
    3.8504    3.3863    3.6329 C   0  0  0  0  0  0  0  0  0  0  0  0
  1  8  2  0
  2  3  1  0
  2  8  1  0
  3  9  1  0
  4  5  1  0
  4  6  1  0
  4  7  1  0
  4  8  1  0
  9 10  1  0
 10 11  2  0
 10 12  1  0
 11 13  1  0
 12 14  2  0
 13 15  2  0
 14 15  1  0
M  END
>  <DRUGBANK_ID>  (1) 
DB09252

>  <COMMON_NAME>  (1) 
Pivhydrazine

>  <CAS_NUMBER>  (1) 
306-19-4

>  <UNII>  (1) 
TK1T520ASG

>  <SYNONYMS>  (1) 
Pivalylbenzhydrazine; Pivazide

$$$$
