
     RDKit          3D

 30 31  0  0  0  0  0  0  0  0999 V2000
   -2.1010    3.4119    1.7201 P   0  0  0  0  0  0  0  0  0  0  0  0
   -0.9803    1.4117   -0.3380 O   0  0  0  0  0  0  0  0  0  0  0  0
   -2.4227    2.0072   -3.5154 O   0  0  0  0  0  0  0  0  0  0  0  0
   -0.5547    3.7937   -2.9957 O   0  0  0  0  0  0  0  0  0  0  0  0
   -0.5215    3.2288    1.6108 O   0  0  0  0  0  0  0  0  0  0  0  0
   -0.5116    0.0320   -2.6192 O   0  0  0  0  0  0  0  0  0  0  0  0
   -4.4873   -1.3288   -0.8797 O   0  0  0  0  0  0  0  0  0  0  0  0
   -2.5678    3.1733    3.2106 O   0  0  0  0  0  0  0  0  0  0  0  0
   -2.6694    2.0378    1.1937 O   0  0  0  0  0  0  0  0  0  0  0  0
   -2.7099    4.6609    1.1999 O   0  0  0  0  0  0  0  0  0  0  0  0
    2.6588   -3.5661   -1.5112 O   0  0  0  0  0  0  0  0  0  0  0  0
    2.4318   -0.4723   -2.5183 O   0  0  0  0  0  0  0  0  0  0  0  0
    2.4679   -1.6880   -4.4027 O   0  0  0  0  0  0  0  0  0  0  0  0
    0.2147   -4.3378   -0.5107 O   0  0  0  0  0  0  0  0  0  0  0  0
   -3.2446    0.5802   -0.6628 N   0  0  0  0  0  0  0  0  0  0  0  0
   -2.3246   -1.1372   -1.6565 N   0  0  0  0  0  0  0  0  0  0  0  0
    1.5328   -3.7686   -2.4128 N   0  0  0  0  0  0  0  0  0  0  0  0
   -2.0766    1.1478   -1.2534 C   0  0  1  0  0  0  0  0  0  0  0  0
   -2.3270    2.3467   -2.1362 C   0  0  1  0  0  0  0  0  0  0  0  0
   -1.1905    3.3062   -1.8178 C   0  0  1  0  0  0  0  0  0  0  0  0
   -0.2779    2.5837   -0.8133 C   0  0  1  0  0  0  0  0  0  0  0  0
   -1.5492   -0.0560   -1.9719 C   0  0  0  0  0  0  0  0  0  0  0  0
    0.1149    3.5175    0.3644 C   0  0  0  0  0  0  0  0  0  0  0  0
   -3.4692   -0.7120   -1.0542 C   0  0  0  0  0  0  0  0  0  0  0  0
   -1.9286   -2.5185   -1.6033 C   0  0  0  0  0  0  0  0  0  0  0  0
   -1.6146   -3.0585   -2.9811 C   0  0  0  0  0  0  0  0  0  0  0  0
   -0.3153   -2.4954   -3.5743 C   0  0  0  0  0  0  0  0  0  0  0  0
    0.9232   -2.4267   -2.6325 C   0  0  2  0  0  0  0  0  0  0  0  0
    1.9817   -1.4970   -3.2954 C   0  0  0  0  0  0  0  0  0  0  0  0
    0.6842   -4.7664   -1.7724 C   0  0  0  0  0  0  0  0  0  0  0  0
  1  5  1  0
  1  8  1  0
  1  9  1  0
  1 10  2  0
  2 21  1  0
  5 23  1  0
  6 22  2  0
  7 24  2  0
 11 17  1  0
 12 29  1  0
 13 29  2  0
 14 30  1  0
 15 24  1  0
 16 22  1  0
 16 24  1  0
 16 25  1  0
 17 30  1  0
 18  2  1  0
 18 15  1  1
 18 19  1  0
 18 22  1  0
 19  3  1  6
 19 20  1  0
 20 21  1  0
 20  4  1  6
 21 23  1  1
 25 26  1  0
 26 27  1  0
 28 27  1  6
 28 17  1  0
 28 29  1  0
M  END
>  <DRUGBANK_ID>  (1) 
DB02666

>  <SECONDARY_ACCESSION_NUMBERS>  (1) 
EXPT02810

>  <COMMON_NAME>  (1) 
(C8-R)-hydantocidin 5'-phosphate

$$$$
