
     RDKit          3D

 36 39  0  0  0  0  0  0  0  0999 V2000
    1.3331    0.1341   -0.5254 C   0  0  0  0  0  0  0  0  0  0  0  0
    1.2492   -1.3175   -0.9958 C   0  0  0  0  0  0  0  0  0  0  0  0
    1.5810   -2.4650    0.0543 C   0  0  0  0  0  0  0  0  0  0  0  0
    2.2872   -2.5517    1.2743 C   0  0  0  0  0  0  0  0  0  0  0  0
    1.9056   -3.7575    1.8998 C   0  0  0  0  0  0  0  0  0  0  0  0
    2.3263   -4.0099    3.2855 C   0  0  0  0  0  0  0  0  0  0  0  0
    2.3628   -5.1081    3.8427 O   0  0  0  0  0  0  0  0  0  0  0  0
    2.7316   -2.8383    3.9538 N   0  0  0  0  0  0  0  0  0  0  0  0
    3.0045   -1.6108    3.3139 C   0  0  0  0  0  0  0  0  0  0  0  0
    3.0006   -1.5342    1.9915 N   0  0  0  0  0  0  0  0  0  0  0  0
    3.1921   -0.2334    4.2960 C   0  0  0  0  0  0  0  0  0  0  0  0
    4.4118    0.4067    4.4620 C   0  0  0  0  0  0  0  0  0  0  0  0
    4.9485    1.2872    5.3917 C   0  0  0  0  0  0  0  0  0  0  0  0
    3.9688    1.9016    6.0783 C   0  0  0  0  0  0  0  0  0  0  0  0
    2.6445    1.6146    5.8039 N   0  0  0  0  0  0  0  0  0  0  0  0
    2.2772    0.5622    4.9437 C   0  0  0  0  0  0  0  0  0  0  0  0
    0.9275    0.5246    4.7491 O   0  0  0  0  0  0  0  0  0  0  0  0
    0.5037   -0.2958    3.6848 C   0  0  0  0  0  0  0  0  0  0  0  0
    1.0521    0.1752    2.3714 C   0  0  0  0  0  0  0  0  0  0  0  0
    6.7255    1.2182    5.8874 S   0  0  0  0  0  0  0  0  0  0  0  0
    7.3960    2.3765    5.2793 O   0  0  0  0  0  0  0  0  0  0  0  0
    6.7145    1.0363    7.3093 O   0  0  0  0  0  0  0  0  0  0  0  0
    7.5811   -0.1879    5.2727 N   0  0  0  0  0  0  0  0  0  0  0  0
    7.9663   -0.2697    3.8072 C   0  0  0  0  0  0  0  0  0  0  0  0
    6.7436   -0.5642    2.9697 C   0  0  0  0  0  0  0  0  0  0  0  0
    5.8762   -1.6772    3.6097 N   0  0  0  0  0  0  0  0  0  0  0  0
    5.8168   -1.8305    5.1264 C   0  0  0  0  0  0  0  0  0  0  0  0
    7.1032   -1.4908    5.8385 C   0  0  0  0  0  0  0  0  0  0  0  0
    6.0502   -2.9572    2.9655 C   0  0  0  0  0  0  0  0  0  0  0  0
    7.3945   -3.5036    3.3559 C   0  0  0  0  0  0  0  0  0  0  0  0
    1.0797   -4.4818    1.1180 N   0  0  0  0  0  0  0  0  0  0  0  0
    0.9048   -3.7099   -0.0036 N   0  0  0  0  0  0  0  0  0  0  0  0
   -0.0110   -4.1665   -1.0561 C   0  0  0  0  0  0  0  0  0  0  0  0
   -1.4872   -3.6657   -1.0533 C   0  0  0  0  0  0  0  0  0  0  0  0
   -1.7467   -2.2599   -1.0297 O   0  0  0  0  0  0  0  0  0  0  0  0
   -1.4648   -1.6874    0.2388 C   0  0  0  0  0  0  0  0  0  0  0  0
  1  2  1  0
  2  3  1  0
  3  4  2  0
  3 32  1  0
  4  5  1  0
  4 10  1  0
  5  6  1  0
  5 31  2  0
  6  7  2  0
  6  8  1  0
  8  9  1  0
  9 10  2  0
  9 11  1  0
 11 12  2  0
 11 16  1  0
 12 13  1  0
 13 14  2  0
 13 20  1  0
 14 15  1  0
 15 16  2  0
 16 17  1  0
 17 18  1  0
 18 19  1  0
 20 21  2  0
 20 22  2  0
 20 23  1  0
 23 24  1  0
 23 28  1  0
 24 25  1  0
 25 26  1  0
 26 27  1  0
 26 29  1  0
 27 28  1  0
 29 30  1  0
 31 32  1  0
 32 33  1  0
 33 34  1  0
 34 35  1  0
 35 36  1  0
M  END
>  <DRUGBANK_ID>  (1) 
DB11902

>  <COMMON_NAME>  (1) 
Gisadenafil

>  <CAS_NUMBER>  (1) 
334826-98-1

>  <UNII>  (1) 
S6G4R7DI1C

>  <SYNONYMS>  (1) 
Gisadenafil

$$$$
