1210
     RDKit          3D

 21 22  0  0  1  0  0  0  0  0999 V2000
    0.9621    0.0144    0.0598 O   0  0  0  0  0  0  0  0  0  0  0  0
    2.4763    2.2388    0.9799 O   0  0  0  0  0  0  0  0  0  0  0  0
   -0.2367   -5.5470    2.1797 O   0  0  0  0  0  0  0  0  0  0  0  0
    5.0542    0.6559   -1.1982 N   0  0  0  0  0  0  0  0  0  0  0  0
    6.5273    0.6488   -1.1784 C   0  0  0  0  0  0  0  0  0  0  0  0
    1.9456   -2.0694    2.0462 C   0  0  0  0  0  0  0  0  0  0  0  0
    0.8035   -2.2463    1.0817 C   0  0  0  0  0  0  0  0  0  0  0  0
    4.4488    1.4372   -0.1109 C   0  0  0  0  0  0  0  0  0  0  0  0
    2.4250   -3.3337    2.7184 C   0  0  0  0  0  0  0  0  0  0  0  0
    2.9132    1.4735   -0.1586 C   0  0  1  0  0  0  0  0  0  0  0  0
    1.2547   -4.0599    3.3149 C   0  0  0  0  0  0  0  0  0  0  0  0
    0.0348   -3.4294    1.1496 C   0  0  0  0  0  0  0  0  0  0  0  0
    7.0602   -0.0184    0.1005 C   0  0  0  0  0  0  0  0  0  0  0  0
    6.9936   -0.1796   -2.3895 C   0  0  0  0  0  0  0  0  0  0  0  0
    7.0705    2.0757   -1.3193 C   0  0  0  0  0  0  0  0  0  0  0  0
    0.4242   -1.2513    0.1543 C   0  0  0  0  0  0  0  0  0  0  0  0
    2.3845    0.0557   -0.0173 C   0  0  0  0  0  0  0  0  0  0  0  0
    0.3156   -4.4570    2.1993 C   0  0  0  0  0  0  0  0  0  0  0  0
   -1.0375   -3.6467    0.2767 C   0  0  0  0  0  0  0  0  0  0  0  0
   -0.6747   -1.4677   -0.6901 C   0  0  0  0  0  0  0  0  0  0  0  0
   -1.3913   -2.6645   -0.6434 C   0  0  0  0  0  0  0  0  0  0  0  0
  1 16  1  0
  1 17  1  0
  3 18  2  0
  4  5  1  0
  4  8  1  0
  5 13  1  0
  5 14  1  0
  5 15  1  0
  6  7  1  0
  6  9  1  0
  7 12  2  0
  7 16  1  0
  8 10  1  0
  9 11  1  0
 10  2  1  1
 10 17  1  0
 11 18  1  0
 12 18  1  0
 12 19  1  0
 16 20  2  0
 19 21  2  0
 20 21  1  0
M  END
>  <DRUGBANK_ID>  (1) 
DB01210

>  <SECONDARY_ACCESSION_NUMBERS>  (1) 
APRD00165

>  <COMMON_NAME>  (1) 
Levobunolol

>  <CAS_NUMBER>  (1) 
47141-42-4

>  <UNII>  (1) 
G6317AOI7K

>  <SYNONYMS>  (1) 
(-)-Bunolol; (S)-5-(3-((1,1-dimethylethyl)amino)-2-hydroxypropoxy)-3,4-dihydro-1(2H)-naphthalenone; Levobunolol; Levobunololum

$$$$
