
     RDKit          3D

 26 29  0  0  0  0  0  0  0  0999 V2000
   -1.3349   -0.7063    0.4644 C   0  0  0  0  0  0  0  0  0  0  0  0
   -1.3959    0.6778    0.2241 N   0  0  0  0  0  0  0  0  0  0  0  0
   -0.1533    1.1185    0.1343 C   0  0  0  0  0  0  0  0  0  0  0  0
    0.7326    0.1008    0.2771 N   0  0  0  0  0  0  0  0  0  0  0  0
    0.0123   -1.0160    0.6150 C   0  0  0  0  0  0  0  0  0  0  0  0
   -3.5546   -4.7797   -1.2737 C   0  0  1  0  0  0  0  0  0  0  0  0
   -3.5689   -3.9163   -0.0267 C   0  0  0  0  0  0  0  0  0  0  0  0
   -2.3898   -3.0257    0.0489 N   0  0  0  0  0  0  0  0  0  0  0  0
   -1.1053   -3.6712   -0.1358 C   0  0  0  0  0  0  0  0  0  0  0  0
   -0.4295   -3.3167   -1.4630 C   0  0  0  0  0  0  0  0  0  0  0  0
   -2.5544   -1.6178    0.2647 C   0  0  0  0  0  0  0  0  0  0  0  0
   -2.5127   -6.8795   -2.5043 C   0  0  0  0  0  0  0  0  0  0  0  0
   -3.7413   -7.5014   -3.0152 N   0  0  0  0  0  0  0  0  0  0  0  0
   -4.8542   -6.5772   -2.7346 C   0  0  0  0  0  0  0  0  0  0  0  0
   -2.9963   -6.1964   -1.2564 C   0  0  2  0  0  0  0  0  0  0  0  0
   -4.4661   -5.9913   -1.4036 C   0  0  1  0  0  0  0  0  0  0  0  0
   -3.6728   -1.1315    0.1655 O   0  0  0  0  0  0  0  0  0  0  0  0
   -0.5130   -2.0309   -2.0449 C   0  0  0  0  0  0  0  0  0  0  0  0
    0.3128   -1.5873   -3.0642 C   0  0  0  0  0  0  0  0  0  0  0  0
    1.0803   -2.5166   -3.7157 C   0  0  0  0  0  0  0  0  0  0  0  0
    1.0756   -3.8454   -3.2864 C   0  0  0  0  0  0  0  0  0  0  0  0
    0.3757   -4.2359   -2.1307 C   0  0  0  0  0  0  0  0  0  0  0  0
    0.3648    0.0918   -3.4415 Cl  0  0  0  0  0  0  0  0  0  0  0  0
    1.7976   -2.1613   -4.7885 F   0  0  0  0  0  0  0  0  0  0  0  0
    2.1595    0.0982    0.0519 C   0  0  0  0  0  0  0  0  0  0  0  0
   -3.6394   -7.8125   -4.4359 C   0  0  0  0  0  0  0  0  0  0  0  0
  1  2  1  0
  2  3  2  0
  3  4  1  0
  4  5  1  0
  4 25  1  0
  5  1  2  0
  6 16  1  0
  6  7  1  1
  7  8  1  0
  8 11  1  0
  8  9  1  0
  9 10  1  0
 10 18  2  0
 11 17  2  0
 11  1  1  0
 12 13  1  0
 13 14  1  0
 13 26  1  0
 15  6  1  0
 15 12  1  6
 16 14  1  6
 16 15  1  0
 18 19  1  0
 19 20  2  0
 19 23  1  0
 20 21  1  0
 20 24  1  0
 21 22  2  0
 22 10  1  0
M  END
>  <DRUGBANK_ID>  (1) 
DB11993

>  <COMMON_NAME>  (1) 
PF-03463275

>  <CAS_NUMBER>  (1) 
1173239-39-8

>  <UNII>  (1) 
3U6T9EE6UX

$$$$
