
     RDKit          3D

 26 27  0  0  0  0  0  0  0  0999 V2000
    5.9839    1.0685   -5.0684 N   0  0  0  0  0  0  0  0  0  0  0  0
    6.2233   -0.0924   -5.9336 C   0  0  2  0  0  0  0  0  0  0  0  0
    4.9996    1.9788   -5.7485 C   0  0  1  0  0  0  0  0  0  0  0  0
    6.7914    1.1960   -3.9155 C   0  0  0  0  0  0  0  0  0  0  0  0
    5.8445    0.3979   -7.3440 C   0  0  2  0  0  0  0  0  0  0  0  0
    5.4061   -1.2917   -5.4437 C   0  0  0  0  0  0  0  0  0  0  0  0
    4.6724    1.3024   -7.0878 C   0  0  0  0  0  0  0  0  0  0  0  0
    3.5291    2.0384   -5.2908 C   0  0  0  0  0  0  0  0  0  0  0  0
    6.7607    2.5145   -3.0817 C   0  0  1  0  0  0  0  0  0  0  0  0
    7.5628    0.2884   -3.5822 O   0  0  0  0  0  0  0  0  0  0  0  0
    5.5011   -0.6895   -8.3543 C   0  0  0  0  0  0  0  0  0  0  0  0
    5.3515   -2.3858   -6.4964 C   0  0  0  0  0  0  0  0  0  0  0  0
    2.8958    3.2245   -5.5631 O   0  0  0  0  0  0  0  0  0  0  0  0
    2.9305    1.1015   -4.8264 O   0  0  0  0  0  0  0  0  0  0  0  0
    6.2096    2.3248   -1.7164 N   0  0  0  0  0  0  0  0  0  0  0  0
    8.1407    3.1598   -3.0240 C   0  0  0  0  0  0  0  0  0  0  0  0
    4.7136   -1.8639   -7.7768 C   0  0  0  0  0  0  0  0  0  0  0  0
    5.7076    3.5165   -0.9298 C   0  0  2  0  0  0  0  0  0  0  0  0
    4.2345    3.3267   -0.3645 C   0  0  0  0  0  0  0  0  0  0  0  0
    5.9380    4.9769   -1.5464 C   0  0  0  0  0  0  0  0  0  0  0  0
    3.2413    2.7886   -1.1166 O   0  0  0  0  0  0  0  0  0  0  0  0
    3.9428    3.7144    0.7673 O   0  0  0  0  0  0  0  0  0  0  0  0
    5.4315    6.1306   -0.7301 C   0  0  0  0  0  0  0  0  0  0  0  0
    3.3088    2.5426   -2.5248 C   0  0  0  0  0  0  0  0  0  0  0  0
    6.3226    6.1971    0.4778 C   0  0  0  0  0  0  0  0  0  0  0  0
    3.8428    3.7593   -3.2128 C   0  0  0  0  0  0  0  0  0  0  0  0
  1  2  1  0
  1  3  1  0
  1  4  1  0
  2  5  1  0
  2  6  1  1
  3  7  1  0
  3  8  1  1
  4  9  1  0
  4 10  2  0
  5 11  1  6
  5  7  1  0
  6 12  1  0
  8 13  1  0
  8 14  2  0
  9 15  1  0
  9 16  1  1
 11 17  1  0
 12 17  1  0
 18 20  1  6
 18 19  1  0
 18 15  1  0
 19 21  1  0
 19 22  2  0
 20 23  1  0
 21 24  1  0
 23 25  1  0
 24 26  1  0
M  END
>  <DRUGBANK_ID>  (1) 
DB00790

>  <SECONDARY_ACCESSION_NUMBERS>  (1) 
APRD01178

>  <COMMON_NAME>  (1) 
Perindopril

>  <CAS_NUMBER>  (1) 
82834-16-0

>  <UNII>  (1) 
Y5GMK36KGY

>  <SYNONYMS>  (1) 
(2S,3aS,7aS)-1-[(2S)-2-{[(2S)-1-ethoxy-1-oxopentan-2-yl]amino}propanoyl]octahydro-1H-indole-2-carboxylic acid; Perindopril; Perindoprilum

$$$$
