3CZ
     RDKit          3D

 29 31  0  0  0  0  0  0  0  0999 V2000
    1.0190    0.0489    0.0100 O   0  0  0  0  0  0  0  0  0  0  0  0
    2.2555   -0.0096   -0.0372 N   0  0  0  0  0  0  0  0  0  0  0  0
    2.9130   -1.0174   -0.3333 O   0  0  0  0  0  0  0  0  0  0  0  0
    3.0032    1.1933    0.3126 C   0  0  0  0  0  0  0  0  0  0  0  0
    2.6053    1.9551    1.4152 C   0  0  0  0  0  0  0  0  0  0  0  0
    3.3835    3.0554    1.8160 C   0  0  0  0  0  0  0  0  0  0  0  0
    4.1504    1.5212   -0.4050 C   0  0  0  0  0  0  0  0  0  0  0  0
    4.9228    2.6037    0.0264 C   0  0  0  0  0  0  0  0  0  0  0  0
    4.5389    3.4169    1.1118 C   0  0  0  0  0  0  0  0  0  0  0  0
    5.2078    4.6014    1.3437 N   0  0  0  0  0  0  0  0  0  0  0  0
    5.7630    5.0621    2.6393 C   0  0  0  0  0  0  0  0  0  0  0  0
    5.2756    6.5143    2.9434 C   0  0  1  0  0  0  0  0  0  0  0  0
    5.6359    7.1338    4.2868 C   0  0  0  0  0  0  0  0  0  0  0  0
    5.3276    5.5231    0.1920 C   0  0  0  0  0  0  0  0  0  0  0  0
    4.8508    6.9359    0.5925 C   0  0  0  0  0  0  0  0  0  0  0  0
    5.6378    7.4530    1.7921 N   0  0  0  0  0  0  0  0  0  0  0  0
    7.3121    7.7178    1.3400 S   0  0  0  0  0  0  0  0  0  0  0  0
    7.9603    6.4553    1.0882 O   0  0  0  0  0  0  0  0  0  0  0  0
    7.2834    8.7319    0.2970 O   0  0  0  0  0  0  0  0  0  0  0  0
    8.1944    8.3861    2.7147 C   0  0  0  0  0  0  0  0  0  0  0  0
    8.4045    7.5589    3.8146 C   0  0  0  0  0  0  0  0  0  0  0  0
    8.9648    8.0586    4.9720 C   0  0  0  0  0  0  0  0  0  0  0  0
    8.8362    9.6130    2.6520 C   0  0  0  0  0  0  0  0  0  0  0  0
    9.6455    9.9930    3.7254 C   0  0  0  0  0  0  0  0  0  0  0  0
    9.6409    9.2725    4.9395 C   0  0  0  0  0  0  0  0  0  0  0  0
   10.3952    9.7756    6.1680 C   0  0  0  0  0  0  0  0  0  0  0  0
   11.9005    9.7452    5.8615 C   0  0  0  0  0  0  0  0  0  0  0  0
    9.9432   11.2108    6.4857 C   0  0  0  0  0  0  0  0  0  0  0  0
   10.1403    8.9099    7.4250 C   0  0  0  0  0  0  0  0  0  0  0  0
  1  2  1  0
  2  3  2  0
  2  4  1  0
  4  5  2  0
  4  7  1  0
  5  6  1  0
  6  9  2  0
  7  8  2  0
  8  9  1  0
  9 10  1  0
 10 11  1  0
 10 14  1  0
 11 12  1  0
 12 16  1  0
 12 13  1  1
 14 15  1  0
 15 16  1  0
 16 17  1  0
 17 18  2  0
 17 19  2  0
 17 20  1  0
 20 21  2  0
 20 23  1  0
 21 22  1  0
 22 25  2  0
 23 24  2  0
 24 25  1  0
 25 26  1  0
 26 27  1  0
 26 28  1  0
 26 29  1  0
M  CHG  2   1  -1   2   1
M  END
>  <DRUGBANK_ID>  (1) 
DB07049

>  <COMMON_NAME>  (1) 
(2R)-1-[(4-tert-butylphenyl)sulfonyl]-2-methyl-4-(4-nitrophenyl)piperazine

$$$$
