
     RDKit          3D

 24 28  0  0  1  0  0  0  0  0999 V2000
    2.1974   -0.0026    0.0029 C   0  0  0  0  0  0  0  0  0  0  0  0
    0.7102    0.0494    0.0270 C   0  0  0  0  0  0  0  0  0  0  0  0
   -0.0100   -1.0806   -0.0114 N   0  0  0  0  0  0  0  0  0  0  0  0
   -1.2864   -0.6557    0.0292 N   0  0  0  0  0  0  0  0  0  0  0  0
   -1.4171    0.6991    0.1089 C   0  0  0  0  0  0  0  0  0  0  0  0
   -0.1349    1.1818    0.1322 C   0  0  0  0  0  0  0  0  0  0  0  0
    0.2482    2.6025    0.0795 C   0  0  0  0  0  0  0  0  0  0  0  0
   -0.0791    3.6028    0.9809 C   0  0  0  0  0  0  0  0  0  0  0  0
    0.5345    4.8279    0.5941 C   0  0  0  0  0  0  0  0  0  0  0  0
    1.2076    4.6972   -0.5899 C   0  0  0  0  0  0  0  0  0  0  0  0
    1.1927    3.1532   -1.2295 S   0  0  0  0  0  0  0  0  0  0  0  0
    1.8495    5.7716   -1.2368 C   0  0  0  0  0  0  0  0  0  0  0  0
    2.5068    5.7375   -2.2766 O   0  0  0  0  0  0  0  0  0  0  0  0
    1.6587    6.9346   -0.5642 N   0  0  0  0  0  0  0  0  0  0  0  0
    1.0884    7.0443    0.6954 C   0  0  0  0  0  0  0  0  0  0  0  0
    0.4945    6.0507    1.3078 N   0  0  0  0  0  0  0  0  0  0  0  0
    1.1546    8.4742    1.3123 C   0  0  2  0  0  0  0  0  0  0  0  0
    0.4762    9.5124    0.3921 C   0  0  0  0  0  0  0  0  0  0  0  0
    1.4577   10.6549    0.0740 C   0  0  0  0  0  0  0  0  0  0  0  0
    2.7276   10.0618   -0.5596 C   0  0  0  0  0  0  0  0  0  0  0  0
    3.3969    9.0916    0.4333 C   0  0  0  0  0  0  0  0  0  0  0  0
    2.5646    8.9014    1.6407 N   0  0  0  0  0  0  0  0  0  0  0  0
    2.5063   10.2352    2.3089 C   0  0  0  0  0  0  0  0  0  0  0  0
    1.8707   11.3038    1.3999 C   0  0  0  0  0  0  0  0  0  0  0  0
  1  2  1  0
  2  3  2  0
  2  6  1  0
  3  4  1  0
  4  5  1  0
  5  6  2  0
  6  7  1  0
  7  8  2  0
  7 11  1  0
  8  9  1  0
  9 10  2  0
  9 16  1  0
 10 11  1  0
 10 12  1  0
 12 13  2  0
 12 14  1  0
 14 15  1  0
 15 16  2  0
 17 15  1  6
 17 18  1  0
 17 22  1  0
 18 19  1  0
 19 20  1  0
 19 24  1  0
 20 21  1  0
 21 22  1  0
 22 23  1  0
 23 24  1  0
M  END
>  <DRUGBANK_ID>  (1) 
DB16330

>  <COMMON_NAME>  (1) 
Simurosertib

>  <CAS_NUMBER>  (1) 
1330782-76-7

>  <UNII>  (1) 
LST350G3XU

>  <SYNONYMS>  (1) 
2-[(2S)-1-azabicyclo[2.2.2]oct-2-yl]-6-(3-methyl-1H-pyrazol-4-yl)thieno[3,2-d]pyrimidin-4(3H)-one; Simurosertib

$$$$
