
     RDKit          3D

 40 44  0  0  0  0  0  0  0  0999 V2000
   -1.4188    0.7704    0.2257 C   0  0  1  0  0  0  0  0  0  0  0  0
   -0.1521    1.2962   -0.4161 N   0  0  0  0  0  0  0  0  0  0  0  0
   -1.6247   -0.7735   -0.0594 C   0  0  1  0  0  0  0  0  0  0  0  0
    0.9874    1.0547    0.3485 C   0  0  0  0  0  0  0  0  0  0  0  0
   -0.4037   -1.5968    0.3876 C   0  0  2  0  0  0  0  0  0  0  0  0
    0.8515   -1.2612   -0.4779 C   0  0  2  0  0  0  0  0  0  0  0  0
    1.5273   -0.2277    0.3379 N   0  0  0  0  0  0  0  0  0  0  0  0
   -0.2267    2.0745   -1.8069 C   0  0  0  0  0  0  0  0  0  0  0  0
    2.9807   -0.2746    0.6980 C   0  0  0  0  0  0  0  0  0  0  0  0
    0.3271    3.4978   -2.0848 C   0  0  0  0  0  0  0  0  0  0  0  0
    3.6455   -1.3660    1.3906 C   0  0  0  0  0  0  0  0  0  0  0  0
    1.6778    3.7960   -1.7751 C   0  0  0  0  0  0  0  0  0  0  0  0
    2.2070    5.1118   -1.7012 C   0  0  0  0  0  0  0  0  0  0  0  0
   -0.5086    4.6216   -2.3767 C   0  0  0  0  0  0  0  0  0  0  0  0
    1.3361    6.1997   -1.8719 C   0  0  0  0  0  0  0  0  0  0  0  0
   -0.0079    5.9643   -2.2530 C   0  0  0  0  0  0  0  0  0  0  0  0
    5.2760   -3.3111    2.3342 C   0  0  0  0  0  0  0  0  0  0  0  0
    4.2581   -3.6614    1.4584 C   0  0  0  0  0  0  0  0  0  0  0  0
    3.5006   -2.6656    0.9235 C   0  0  0  0  0  0  0  0  0  0  0  0
    5.5841   -1.9758    2.6135 C   0  0  0  0  0  0  0  0  0  0  0  0
    4.7452   -0.9896    2.1638 C   0  0  0  0  0  0  0  0  0  0  0  0
   -1.4671    1.0182    1.8075 C   0  0  0  0  0  0  0  0  0  0  0  0
    0.5597   -0.9591   -2.0422 C   0  0  0  0  0  0  0  0  0  0  0  0
   -1.6702    2.3225    2.4128 O   0  0  0  0  0  0  0  0  0  0  0  0
    1.5554   -0.6240   -3.1000 O   0  0  0  0  0  0  0  0  0  0  0  0
   -0.7588    3.2785    2.1200 C   0  0  0  0  0  0  0  0  0  0  0  0
    2.4237    0.4394   -3.0265 C   0  0  0  0  0  0  0  0  0  0  0  0
   -0.7006    3.6931    0.8515 C   0  0  0  0  0  0  0  0  0  0  0  0
   -0.0241    4.0572    3.0303 C   0  0  0  0  0  0  0  0  0  0  0  0
    0.3085    4.5704    0.5626 C   0  0  0  0  0  0  0  0  0  0  0  0
    0.9307    5.0383    2.6301 C   0  0  0  0  0  0  0  0  0  0  0  0
    1.2652    5.1360    1.3370 C   0  0  0  0  0  0  0  0  0  0  0  0
    3.9984    1.6147   -1.4254 C   0  0  0  0  0  0  0  0  0  0  0  0
    4.5333    2.3646   -2.4057 C   0  0  0  0  0  0  0  0  0  0  0  0
    3.0015    0.7267   -1.8468 C   0  0  0  0  0  0  0  0  0  0  0  0
    4.0066    2.1603   -3.6909 C   0  0  0  0  0  0  0  0  0  0  0  0
    2.9377    1.2349   -3.9976 C   0  0  0  0  0  0  0  0  0  0  0  0
   -2.8394   -1.2685    0.5123 O   0  0  0  0  0  0  0  0  0  0  0  0
   -0.6372   -3.0013    0.4528 O   0  0  0  0  0  0  0  0  0  0  0  0
    1.4820    1.8781    1.1595 O   0  0  0  0  0  0  0  0  0  0  0  0
  1  2  1  0
  1  3  1  0
  1 22  1  1
  2  4  1  0
  2  8  1  0
  3  5  1  0
  3 38  1  1
  4  7  1  0
  4 40  2  0
  5  6  1  0
  5 39  1  6
  6  7  1  0
  6 23  1  6
  7  9  1  0
  8 10  1  0
  9 11  1  0
 10 12  2  0
 10 14  1  0
 11 19  2  0
 11 21  1  0
 12 13  1  0
 13 15  2  0
 14 16  2  0
 15 16  1  0
 17 18  2  0
 17 20  1  0
 18 19  1  0
 20 21  2  0
 22 24  1  0
 23 25  1  0
 24 26  1  0
 25 27  1  0
 26 28  2  0
 26 29  1  0
 27 35  2  0
 27 37  1  0
 28 30  1  0
 29 31  2  0
 30 32  2  0
 31 32  1  0
 33 34  2  0
 33 35  1  0
 34 36  1  0
 36 37  2  0
M  END
>  <DRUGBANK_ID>  (1) 
DB01732

>  <SECONDARY_ACCESSION_NUMBERS>  (1) 
EXPT00460

>  <COMMON_NAME>  (1) 
(4R,5S,6S,7R)-1,3-dibenzyl-4,7-bis(phenoxymethyl)-5,6-dihydroxy-1,3 diazepan-2-one

$$$$
