
     RDKit          3D

 10  9  0  0  1  0  0  0  0  0999 V2000
    1.4247    0.2807    0.2529 C   0  0  0  0  0  0  0  0  0  0  0  0
    0.6451    1.4416    0.6144 N   0  0  0  0  0  0  0  0  0  0  0  0
   -0.2273    2.1685   -0.1553 C   0  0  0  0  0  0  0  0  0  0  0  0
   -0.6953    3.2014    0.3199 O   0  0  0  0  0  0  0  0  0  0  0  0
   -0.6362    1.6970   -1.5913 C   0  0  1  0  0  0  0  0  0  0  0  0
    0.5736    1.6350   -2.4463 N   0  0  0  0  0  0  0  0  0  0  0  0
   -1.5437    0.4106   -1.6277 C   0  0  0  0  0  0  0  0  0  0  0  0
   -2.8162    0.6581   -0.7945 C   0  0  0  0  0  0  0  0  0  0  0  0
   -1.9293    0.0503   -3.0740 C   0  0  0  0  0  0  0  0  0  0  0  0
   -0.9099   -0.8585   -1.0557 C   0  0  0  0  0  0  0  0  0  0  0  0
  1  2  1  0
  2  3  1  0
  3  4  2  0
  3  5  1  0
  5  6  1  6
  5  7  1  0
  7  8  1  0
  7  9  1  0
  7 10  1  0
M  END
>  <DRUGBANK_ID>  (1) 
DB01949

>  <SECONDARY_ACCESSION_NUMBERS>  (1) 
EXPT00776

>  <COMMON_NAME>  (1) 
2-Amino-N,3,3-Trimethylbutanamide

$$$$
