159
     RDKit          3D

 17 17  0  0  0  0  0  0  0  0999 V2000
    0.7705    0.0616    0.1230 O   0  0  0  0  0  0  0  0  0  0  0  0
    0.2171    0.8273   -0.8364 C   0  0  0  0  0  0  0  0  0  0  0  0
    0.8975    1.4075   -1.6671 O   0  0  0  0  0  0  0  0  0  0  0  0
   -1.2624    0.8081   -0.7884 C   0  0  0  0  0  0  0  0  0  0  0  0
   -1.9813    0.7895    0.4089 C   0  0  0  0  0  0  0  0  0  0  0  0
   -3.3776    0.7599    0.3899 C   0  0  0  0  0  0  0  0  0  0  0  0
   -4.0722    0.7425   -0.8220 C   0  0  0  0  0  0  0  0  0  0  0  0
   -1.3985    0.8591    1.6435 O   0  0  0  0  0  0  0  0  0  0  0  0
   -1.9633    0.8644   -2.0047 C   0  0  0  0  0  0  0  0  0  0  0  0
   -3.3646    0.8061   -2.0241 C   0  0  0  0  0  0  0  0  0  0  0  0
   -4.3189    0.7782   -3.5271 S   0  0  0  0  0  0  0  0  0  0  0  0
   -5.1460   -0.4021   -3.5063 O   0  0  0  0  0  0  0  0  0  0  0  0
   -4.9202    2.0862   -3.6860 O   0  0  0  0  0  0  0  0  0  0  0  0
   -3.2047    0.6101   -4.7886 N   0  0  0  0  0  0  0  0  0  0  0  0
   -2.3523   -0.5962   -4.8846 C   0  0  0  0  0  0  0  0  0  0  0  0
   -3.1334   -1.8903   -5.0248 C   0  0  0  0  0  0  0  0  0  0  0  0
   -4.0601   -1.9293   -6.5894 S   0  0  0  0  0  0  0  0  0  0  0  0
  1  2  1  0
  2  3  2  0
  2  4  1  0
  4  5  2  0
  4  9  1  0
  5  6  1  0
  5  8  1  0
  6  7  2  0
  7 10  1  0
  9 10  2  0
 10 11  1  0
 11 12  2  0
 11 13  2  0
 11 14  1  0
 14 15  1  0
 15 16  1  0
 16 17  1  0
M  END
>  <DRUGBANK_ID>  (1) 
DB06862

>  <COMMON_NAME>  (1) 
2-HYDROXY-5-(2-MERCAPTO-ETHYLSULFAMOYL)-BENZOIC ACID

$$$$
