
     RDKit          3D

 20 22  0  0  0  0  0  0  0  0999 V2000
   -0.1156    1.1023    0.0236 C   0  0  0  0  0  0  0  0  0  0  0  0
   -1.2711    0.2767    0.0071 C   0  0  0  0  0  0  0  0  0  0  0  0
    1.1460    0.4251    0.0058 C   0  0  0  0  0  0  0  0  0  0  0  0
   -1.1665   -1.1306   -0.0020 C   0  0  0  0  0  0  0  0  0  0  0  0
    1.2039   -0.9951    0.0002 C   0  0  0  0  0  0  0  0  0  0  0  0
    0.0551   -1.7671   -0.0022 C   0  0  0  0  0  0  0  0  0  0  0  0
    2.4848    1.1230    0.0098 C   0  0  0  0  0  0  0  0  0  0  0  0
   -2.6903    0.7489   -0.0003 C   0  0  0  0  0  0  0  0  0  0  0  0
   -0.1398    2.5551    0.0256 N   0  0  0  0  0  0  0  0  0  0  0  0
   -1.2223    3.4192    0.1733 C   0  0  0  0  0  0  0  0  0  0  0  0
   -1.0284    4.8878   -0.1270 C   0  0  0  0  0  0  0  0  0  0  0  0
   -1.9226    5.2798   -1.3512 C   0  0  0  0  0  0  0  0  0  0  0  0
   -2.3813    3.1429    0.4839 O   0  0  0  0  0  0  0  0  0  0  0  0
   -3.5436    7.1110   -1.6212 C   0  0  0  0  0  0  0  0  0  0  0  0
   -2.1374    7.6080   -1.8575 C   0  0  0  0  0  0  0  0  0  0  0  0
   -3.3376    5.7751   -0.9284 C   0  0  0  0  0  0  0  0  0  0  0  0
   -1.3245    6.4115   -2.1268 N   0  0  0  0  0  0  0  0  0  0  0  0
   -1.3697    6.0472   -3.5590 C   0  0  0  0  0  0  0  0  0  0  0  0
   -2.1966    4.7877   -3.7031 C   0  0  0  0  0  0  0  0  0  0  0  0
   -2.0485    4.1246   -2.3635 C   0  0  0  0  0  0  0  0  0  0  0  0
  1  2  2  0
  1  3  1  0
  1  9  1  0
  2  4  1  0
  2  8  1  0
  3  5  2  0
  3  7  1  0
  4  6  2  0
  5  6  1  0
  9 10  1  0
 10 11  1  0
 10 13  2  0
 11 12  1  0
 12 20  1  0
 14 15  1  0
 14 16  1  0
 15 17  1  0
 16 12  1  0
 17 18  1  0
 17 12  1  0
 18 19  1  0
 19 20  1  0
M  END
>  <DRUGBANK_ID>  (1) 
DB12712

>  <COMMON_NAME>  (1) 
Pilsicainide

>  <CAS_NUMBER>  (1) 
88069-67-4

>  <UNII>  (1) 
AV0X7V6CSE

>  <SYNONYMS>  (1) 
Pilsicainida; Pilsicainide; Pilsica√Ønide; Pilsicainidum; Pilzicainide

$$$$
