
     RDKit          3D

 24 28  0  0  0  0  0  0  0  0999 V2000
    1.0911   -0.1233   -0.0690 C   0  0  0  0  0  0  0  0  0  0  0  0
    0.6288    0.3354   -1.4496 C   0  0  0  0  0  0  0  0  0  0  0  0
    1.0823   -0.4990   -2.6318 C   0  0  0  0  0  0  0  0  0  0  0  0
    1.5240   -0.0322   -3.9034 C   0  0  0  0  0  0  0  0  0  0  0  0
    1.7168   -1.1716   -4.6564 C   0  0  0  0  0  0  0  0  0  0  0  0
    1.4146   -2.2448   -3.8707 N   0  0  0  0  0  0  0  0  0  0  0  0
    1.0267   -1.8501   -2.6172 N   0  0  0  0  0  0  0  0  0  0  0  0
    1.4939   -3.6420   -4.2636 C   0  0  0  0  0  0  0  0  0  0  0  0
    0.1694   -4.4060   -4.2965 C   0  0  0  0  0  0  0  0  0  0  0  0
    0.5673   -5.8855   -4.3288 C   0  0  0  0  0  0  0  0  0  0  0  0
    2.0287   -5.9538   -3.8857 C   0  0  0  0  0  0  0  0  0  0  0  0
    2.3919   -4.5441   -3.4177 C   0  0  0  0  0  0  0  0  0  0  0  0
    2.1654   -1.1141   -6.0049 C   0  0  0  0  0  0  0  0  0  0  0  0
    2.1770   -2.0074   -6.9574 N   0  0  0  0  0  0  0  0  0  0  0  0
    2.6690   -1.3869   -8.1001 N   0  0  0  0  0  0  0  0  0  0  0  0
    2.9536   -0.1362   -7.7949 C   0  0  0  0  0  0  0  0  0  0  0  0
    2.6407    0.0763   -6.4860 N   0  0  0  0  0  0  0  0  0  0  0  0
    2.7560    1.2749   -5.6761 C   0  0  0  0  0  0  0  0  0  0  0  0
    1.7262    1.3258   -4.5147 C   0  0  0  0  0  0  0  0  0  0  0  0
    3.4383    0.8776   -8.6748 C   0  0  0  0  0  0  0  0  0  0  0  0
    4.6102    1.5997   -8.5610 C   0  0  0  0  0  0  0  0  0  0  0  0
    4.6853    2.6557   -9.5170 C   0  0  0  0  0  0  0  0  0  0  0  0
    3.5819    2.6817  -10.3405 C   0  0  0  0  0  0  0  0  0  0  0  0
    2.4791    1.4255   -9.9792 S   0  0  0  0  0  0  0  0  0  0  0  0
  1  2  1  0
  2  3  1  0
  3  4  1  0
  3  7  2  0
  4  5  2  0
  4 19  1  0
  5  6  1  0
  5 13  1  0
  6  7  1  0
  6  8  1  0
  8  9  1  0
  8 12  1  0
  9 10  1  0
 10 11  1  0
 11 12  1  0
 13 14  2  0
 13 17  1  0
 14 15  1  0
 15 16  2  0
 16 17  1  0
 16 20  1  0
 17 18  1  0
 18 19  1  0
 20 21  2  0
 20 24  1  0
 21 22  1  0
 22 23  2  0
 23 24  1  0
M  END
>  <DRUGBANK_ID>  (1) 
DB11681

>  <COMMON_NAME>  (1) 
Tofimilast

>  <CAS_NUMBER>  (1) 
185954-27-2

>  <UNII>  (1) 
5D7022962A

>  <SYNONYMS>  (1) 
Tofimilast

$$$$
