47D
     RDKit          3D

 23 25  0  0  0  0  0  0  0  0999 V2000
    0.5298   -0.7420    0.0094 C   0  0  0  0  0  0  0  0  0  0  0  0
    1.5287   -1.7038   -0.0121 N   0  0  0  0  0  0  0  0  0  0  0  0
    2.7150   -1.1310    0.0150 C   0  0  0  0  0  0  0  0  0  0  0  0
    4.0278   -1.8913   -0.0212 C   0  0  0  0  0  0  0  0  0  0  0  0
    4.7702   -1.5876   -1.2390 N   0  0  0  0  0  0  0  0  0  0  0  0
    5.3474   -0.3306   -1.3648 C   0  0  0  0  0  0  0  0  0  0  0  0
    5.5406    0.4150   -0.4057 O   0  0  0  0  0  0  0  0  0  0  0  0
    5.6573    0.0427   -2.6673 N   0  0  0  0  0  0  0  0  0  0  0  0
    6.1286    1.4097   -2.9064 C   0  0  0  0  0  0  0  0  0  0  0  0
    7.5813    1.4360   -3.3363 C   0  0  0  0  0  0  0  0  0  0  0  0
    8.4272    0.8514   -2.4679 O   0  0  0  0  0  0  0  0  0  0  0  0
    8.0063    1.9505   -4.3674 O   0  0  0  0  0  0  0  0  0  0  0  0
    5.7579   -0.8905   -3.6755 C   0  0  0  0  0  0  0  0  0  0  0  0
    5.6413   -2.1916   -3.4117 C   0  0  0  0  0  0  0  0  0  0  0  0
    5.0229   -2.5986   -2.1383 C   0  0  0  0  0  0  0  0  0  0  0  0
    4.7533   -3.7865   -1.9715 O   0  0  0  0  0  0  0  0  0  0  0  0
    2.6691    0.5875    0.1444 S   0  0  0  0  0  0  0  0  0  0  0  0
    0.9701    0.5795    0.0367 C   0  0  0  0  0  0  0  0  0  0  0  0
    0.0940    1.6732    0.0054 C   0  0  0  0  0  0  0  0  0  0  0  0
   -1.2743    1.4033   -0.0137 C   0  0  0  0  0  0  0  0  0  0  0  0
   -1.7362    0.0893   -0.0051 C   0  0  0  0  0  0  0  0  0  0  0  0
   -3.4302   -0.2109   -0.0058 Cl  0  0  0  0  0  0  0  0  0  0  0  0
   -0.8526   -0.9920    0.0014 C   0  0  0  0  0  0  0  0  0  0  0  0
  1 23  2  0
  1 18  1  0
  1  2  1  0
  2  3  2  0
  3 17  1  0
  3  4  1  0
  4  5  1  0
  5 15  1  0
  5  6  1  0
  6  7  2  0
  6  8  1  0
  8 13  1  0
  8  9  1  0
  9 10  1  0
 10 12  2  0
 10 11  1  0
 13 14  2  0
 14 15  1  0
 15 16  2  0
 17 18  1  0
 18 19  2  0
 19 20  1  0
 20 21  2  0
 21 22  1  0
 21 23  1  0
M  END
>  <DRUGBANK_ID>  (1) 
DB07093

>  <COMMON_NAME>  (1) 
{3-[(5-CHLORO-1,3-BENZOTHIAZOL-2-YL)METHYL]-2,4-DIOXO-3,4-DIHYDROPYRIMIDIN-1(2H)-YL}ACETIC ACID

$$$$
