
     RDKit          3D

 39 38  0  0  0  0  0  0  0  0999 V2000
    0.6878    0.3212    0.0106 C   0  0  0  0  0  0  0  0  0  0  0  0
    6.3197   -8.9912   -2.6148 C   0  0  0  0  0  0  0  0  0  0  0  0
    2.8124   -6.5030    7.3382 C   0  0  0  0  0  0  0  0  0  0  0  0
    0.0640   -0.4536    1.0071 N   0  0  0  0  0  0  0  0  0  0  0  0
    5.3837   -8.0009   -2.4471 N   0  0  0  0  0  0  0  0  0  0  0  0
    3.1599   -6.6955    6.0310 N   0  0  0  0  0  0  0  0  0  0  0  0
    2.8972   -2.9198    0.6119 C   0  0  0  0  0  0  0  0  0  0  0  0
    7.0730   -8.0338    0.3157 C   0  0  0  0  0  0  0  0  0  0  0  0
    5.0549   -7.1973   -3.5641 O   0  0  0  0  0  0  0  0  0  0  0  0
    2.2376   -7.3861    5.2108 O   0  0  0  0  0  0  0  0  0  0  0  0
   -1.2787   -0.7678    0.7523 O   0  0  0  0  0  0  0  0  0  0  0  0
    0.0452    0.9035   -0.8619 O   0  0  0  0  0  0  0  0  0  0  0  0
    6.7705   -9.2340   -3.7410 O   0  0  0  0  0  0  0  0  0  0  0  0
    1.7799   -6.9755    7.8110 O   0  0  0  0  0  0  0  0  0  0  0  0
    6.7026   -9.8789   -1.3951 C   0  0  0  0  0  0  0  0  0  0  0  0
    2.1606    0.4653    0.0060 C   0  0  0  0  0  0  0  0  0  0  0  0
    3.7726   -3.9181    0.3645 N   0  0  0  0  0  0  0  0  0  0  0  0
    6.3539   -7.9545    1.4860 N   0  0  0  0  0  0  0  0  0  0  0  0
    2.6191   -0.8680    0.9276 C   0  0  0  0  0  0  0  0  0  0  0  0
    7.5691   -9.2947   -0.2669 C   0  0  0  0  0  0  0  0  0  0  0  0
    5.7791   -3.0401    1.3406 N   0  0  0  0  0  0  0  0  0  0  0  0
    3.7654   -5.6606    8.1490 C   0  0  0  0  0  0  0  0  0  0  0  0
    0.5500   -1.5076    1.8404 C   0  0  0  0  0  0  0  0  0  0  0  0
    4.3686   -6.2475    5.3508 C   0  0  0  0  0  0  0  0  0  0  0  0
    4.8608   -7.4507   -1.2164 C   0  0  0  0  0  0  0  0  0  0  0  0
    5.5127   -6.8676    2.0802 C   0  0  0  0  0  0  0  0  0  0  0  0
    3.0678   -5.0689   -0.2692 C   0  0  0  0  0  0  0  0  0  0  0  0
    4.8541   -2.2509    2.0926 C   0  0  0  0  0  0  0  0  0  0  0  0
    5.2287   -7.4181    4.8807 C   0  0  0  0  0  0  0  0  0  0  0  0
    5.4181   -6.0076   -0.9332 C   0  0  0  0  0  0  0  0  0  0  0  0
    1.2552   -2.3056    0.7858 C   0  0  0  0  0  0  0  0  0  0  0  0
    3.4541   -5.0835   -1.7569 C   0  0  0  0  0  0  0  0  0  0  0  0
    4.1846   -7.3876    2.6205 C   0  0  0  0  0  0  0  0  0  0  0  0
    4.3950   -1.2942    0.9209 C   0  0  0  0  0  0  0  0  0  0  0  0
    4.9453   -4.9729   -1.8598 C   0  0  0  0  0  0  0  0  0  0  0  0
    2.8464   -1.6867   -0.4867 C   0  0  0  0  0  0  0  0  0  0  0  0
    4.5174   -8.2512    3.8112 C   0  0  0  0  0  0  0  0  0  0  0  0
    2.0569   -3.3755   -0.5101 O   0  0  0  0  0  0  0  0  0  0  0  0
    7.3733   -7.1467   -0.4638 O   0  0  0  0  0  0  0  0  0  0  0  0
  2  5  1  0
  3  6  1  0
  4  1  1  0
  5 25  1  0
  6 24  1  0
  7 19  1  0
  7 38  2  0
  8 20  1  0
  8 39  2  0
  9  5  1  0
 10  6  1  0
 11  4  1  0
 12  1  2  0
 13  2  2  0
 14  3  2  0
 15  2  1  0
 16  1  1  0
 17  7  1  0
 18  8  1  0
 19 16  1  0
 20 15  1  0
 21 28  1  0
 22  3  1  0
 23  4  1  0
 24 29  1  0
 25 30  1  0
 26 18  1  0
 27 17  1  0
 28 34  1  0
 29 37  1  0
 30 35  1  0
 31 23  1  0
 32 27  1  0
 33 26  1  0
 34 36  1  0
 35 32  1  0
 36 31  1  0
 37 33  1  0
M  END
>  <DRUGBANK_ID>  (1) 
DB00746

>  <SECONDARY_ACCESSION_NUMBERS>  (1) 
APRD00904

>  <COMMON_NAME>  (1) 
Deferoxamine

>  <CAS_NUMBER>  (1) 
70-51-9

>  <UNII>  (1) 
J06Y7MXW4D

>  <SYNONYMS>  (1) 
Deferoxamin; Deferoxamina; DÃ©feroxamine; Deferoxamine; Deferoxaminum; Deferrioxamine; Deferrioxamine B; Desferrioxamine; DFO; DFOA; DFOM

$$$$
