
     RDKit          3D

 27 29  0  0  1  0  0  0  0  0999 V2000
    1.0329   -0.2637    0.2171 N   0  0  0  0  0  0  0  0  0  0  0  0
    0.3484    0.8529    0.9297 C   0  0  1  0  0  0  0  0  0  0  0  0
    0.8974    2.3378    0.7049 C   0  0  0  0  0  0  0  0  0  0  0  0
    0.6424    2.9063   -0.7270 C   0  0  0  0  0  0  0  0  0  0  0  0
    0.4863    2.0530   -1.8089 C   0  0  0  0  0  0  0  0  0  0  0  0
    0.0226    2.4273   -3.0832 C   0  0  0  0  0  0  0  0  0  0  0  0
   -0.1811    3.7445   -3.3473 C   0  0  0  0  0  0  0  0  0  0  0  0
   -0.7114    4.1169   -4.5129 F   0  0  0  0  0  0  0  0  0  0  0  0
    0.1610    4.6607   -2.3867 C   0  0  0  0  0  0  0  0  0  0  0  0
    0.5693    4.2422   -1.1114 C   0  0  0  0  0  0  0  0  0  0  0  0
    0.4943    3.2671    1.8848 C   0  0  0  0  0  0  0  0  0  0  0  0
   -0.1568    2.8405    3.0580 C   0  0  0  0  0  0  0  0  0  0  0  0
   -0.4935    3.7390    4.0774 C   0  0  0  0  0  0  0  0  0  0  0  0
   -0.2009    5.0841    3.9352 C   0  0  0  0  0  0  0  0  0  0  0  0
   -0.4896    5.9446    4.9163 F   0  0  0  0  0  0  0  0  0  0  0  0
    0.4611    5.5376    2.8175 C   0  0  0  0  0  0  0  0  0  0  0  0
    0.8764    4.6153    1.8679 C   0  0  0  0  0  0  0  0  0  0  0  0
   -1.2425    0.7876    0.9144 C   0  0  0  0  0  0  0  0  0  0  0  0
   -1.8454    0.4965    1.9514 O   0  0  0  0  0  0  0  0  0  0  0  0
   -1.9564    1.1965   -0.2041 N   0  0  0  0  0  0  0  0  0  0  0  0
   -1.9397    0.4865   -1.4618 C   0  0  0  0  0  0  0  0  0  0  0  0
   -3.1554    0.8273   -2.2777 C   0  0  1  0  0  0  0  0  0  0  0  0
   -3.6254   -0.2855   -2.8724 F   0  0  0  0  0  0  0  0  0  0  0  0
   -4.0834    1.4067   -1.2445 C   0  0  0  0  0  0  0  0  0  0  0  0
   -3.1551    2.0539   -0.1905 C   0  0  1  0  0  0  0  0  0  0  0  0
   -3.8612    2.2618    1.0933 C   0  0  0  0  0  0  0  0  0  0  0  0
   -4.4477    2.4762    2.0582 N   0  0  0  0  0  0  0  0  0  0  0  0
  2  1  1  6
  2  3  1  0
  2 18  1  0
  3  4  1  0
  3 11  1  0
  4  5  2  0
  4 10  1  0
  5  6  1  0
  6  7  2  0
  7  8  1  0
  7  9  1  0
  9 10  2  0
 11 12  2  0
 11 17  1  0
 12 13  1  0
 13 14  2  0
 14 15  1  0
 14 16  1  0
 16 17  2  0
 18 19  2  0
 18 20  1  0
 20 21  1  0
 22 21  1  0
 22 24  1  0
 22 23  1  1
 25 24  1  0
 25 20  1  0
 25 26  1  1
 26 27  3  0
M  END
>  <DRUGBANK_ID>  (1) 
DB16134

>  <COMMON_NAME>  (1) 
Denagliptin

>  <CAS_NUMBER>  (1) 
483369-58-0

>  <UNII>  (1) 
DOS9ZOT21L

>  <SYNONYMS>  (1) 
Denagliptin

$$$$
