
     RDKit          3D

 11 11  0  0  0  0  0  0  0  0999 V2000
    2.1711   -0.0355    0.0040 C   0  0  0  0  0  0  0  0  0  0  0  0
    0.6976   -0.1382    0.0040 C   0  0  0  0  0  0  0  0  0  0  0  0
   -0.1535   -1.2156   -0.0165 C   0  0  0  0  0  0  0  0  0  0  0  0
   -1.4553   -0.6813   -0.0567 C   0  0  0  0  0  0  0  0  0  0  0  0
   -1.3596    0.7061   -0.0033 C   0  0  0  0  0  0  0  0  0  0  0  0
   -0.0119    1.0260    0.0206 O   0  0  0  0  0  0  0  0  0  0  0  0
   -2.6591    1.9523    0.0387 S   0  0  0  0  0  0  0  0  0  0  0  0
   -2.5358    2.6205    1.3124 O   0  0  0  0  0  0  0  0  0  0  0  0
   -2.5706    2.6587   -1.2230 O   0  0  0  0  0  0  0  0  0  0  0  0
   -4.1612    1.0903    0.0289 N   0  0  0  0  0  0  0  0  0  0  0  0
   -4.2930    0.3625    1.2784 O   0  0  0  0  0  0  0  0  0  0  0  0
  1  2  1  0
  2  3  2  0
  2  6  1  0
  3  4  1  0
  4  5  2  0
  5  6  1  0
  5  7  1  0
  7  8  2  0
  7  9  2  0
  7 10  1  0
 10 11  1  0
M  END
>  <DRUGBANK_ID>  (1) 
DB14983

>  <COMMON_NAME>  (1) 
Cimlanod

>  <CAS_NUMBER>  (1) 
1620330-72-4

>  <UNII>  (1) 
2US4FK1EPV

>  <SYNONYMS>  (1) 
BMS-986231; Cimlanod

$$$$
