
     RDKit          3D

 27 30  0  0  1  0  0  0  0  0999 V2000
   -1.1939   -1.5994    0.4447 O   0  0  0  0  0  0  0  0  0  0  0  0
   -1.7333   -1.1259   -0.7069 C   0  0  0  0  0  0  0  0  0  0  0  0
   -2.5449   -1.7944   -1.3060 O   0  0  0  0  0  0  0  0  0  0  0  0
   -1.2486    0.2905   -1.0835 C   0  0  2  0  0  0  0  0  0  0  0  0
    0.3139    0.3109   -1.1539 C   0  0  0  0  0  0  0  0  0  0  0  0
    1.0316    0.0651    0.1804 C   0  0  0  0  0  0  0  0  0  0  0  0
    2.4355    0.6276    0.0149 C   0  0  0  0  0  0  0  0  0  0  0  0
    2.4040    1.5366   -1.2059 C   0  0  0  0  0  0  0  0  0  0  0  0
    0.9424    1.6371   -1.5992 C   0  0  0  0  0  0  0  0  0  0  0  0
   -1.8117    1.4081   -0.1857 C   0  0  0  0  0  0  0  0  0  0  0  0
   -2.2042    1.1564    1.1342 C   0  0  0  0  0  0  0  0  0  0  0  0
   -2.4295    2.1841    2.0662 C   0  0  0  0  0  0  0  0  0  0  0  0
   -2.2980    3.5162    1.7155 C   0  0  0  0  0  0  0  0  0  0  0  0
   -2.5522    4.5687    2.5818 O   0  0  0  0  0  0  0  0  0  0  0  0
   -3.4876    4.4590    3.7923 C   0  0  0  0  0  0  0  0  0  0  0  0
   -5.1245    4.3132    3.5040 C   0  0  0  0  0  0  0  0  0  0  0  0
   -6.2472    5.1498    3.7450 N   0  0  0  0  0  0  0  0  0  0  0  0
   -7.0284    5.7599    2.5574 C   0  0  0  0  0  0  0  0  0  0  0  0
   -6.1842    5.8238    1.4811 C   0  0  0  0  0  0  0  0  0  0  0  0
   -6.2308    6.6148    0.3392 C   0  0  0  0  0  0  0  0  0  0  0  0
   -7.4007    7.1992   -0.0518 C   0  0  0  0  0  0  0  0  0  0  0  0
   -8.4985    6.9820    0.7567 C   0  0  0  0  0  0  0  0  0  0  0  0
   -8.3222    6.3421    2.0485 C   0  0  0  0  0  0  0  0  0  0  0  0
   -5.0756    5.0577    1.5481 C   0  0  0  0  0  0  0  0  0  0  0  0
   -5.2254    3.8908    2.2569 C   0  0  0  0  0  0  0  0  0  0  0  0
   -1.9000    3.7890    0.3871 C   0  0  0  0  0  0  0  0  0  0  0  0
   -1.7521    2.7553   -0.5731 C   0  0  0  0  0  0  0  0  0  0  0  0
  1  2  1  0
  2  3  2  0
  4 10  1  0
  4  5  1  0
  4  2  1  1
  5  6  1  0
  5  9  1  0
  6  7  1  0
  7  8  1  0
  8  9  1  0
 10 11  2  0
 10 27  1  0
 11 12  1  0
 12 13  2  0
 13 14  1  0
 13 26  1  0
 14 15  1  0
 15 16  1  0
 16 17  2  0
 16 25  1  0
 17 18  1  0
 18 19  2  0
 18 23  1  0
 19 20  1  0
 19 24  1  0
 20 21  2  0
 21 22  1  0
 22 23  2  0
 24 25  2  0
 26 27  2  0
M  END
>  <DRUGBANK_ID>  (1) 
DB16346

>  <COMMON_NAME>  (1) 
Veliflapon

>  <CAS_NUMBER>  (1) 
128253-31-6

>  <UNII>  (1) 
JXH6X663L0

>  <SYNONYMS>  (1) 
Veliflapon

$$$$
