CT0
     RDKit          3D

 16 17  0  0  0  0  0  0  0  0999 V2000
    1.1636    0.1674   -0.0369 O   0  0  0  0  0  0  0  0  0  0  0  0
    2.3775   -0.0881    0.1502 C   0  0  0  0  0  0  0  0  0  0  0  0
    2.6828   -0.1013    1.5257 N   0  0  0  0  0  0  0  0  0  0  0  0
    3.9027    0.3034    2.0328 C   0  0  0  0  0  0  0  0  0  0  0  0
    4.5257    1.2709    1.5943 N   0  0  0  0  0  0  0  0  0  0  0  0
    4.6057   -0.3123    3.5440 S   0  0  0  0  0  0  0  0  0  0  0  0
    6.0795    0.5462    3.1644 C   0  0  0  0  0  0  0  0  0  0  0  0
    5.7108    0.7839    1.8992 C   0  0  0  0  0  0  0  0  0  0  0  0
    2.4407   -1.0781   -2.0551 O   0  0  0  0  0  0  0  0  0  0  0  0
    3.1650   -0.6018   -1.1637 C   0  0  0  0  0  0  0  0  0  0  0  0
    4.5520   -0.5623   -1.5148 N   0  0  0  0  0  0  0  0  0  0  0  0
    5.6592   -0.0391   -0.7361 C   0  0  0  0  0  0  0  0  0  0  0  0
    5.9223    1.5658   -0.7660 C   0  0  0  0  0  0  0  0  0  0  0  0
    7.1470   -0.6421   -0.5378 C   0  0  0  0  0  0  0  0  0  0  0  0
    8.0497    0.4562    0.3198 C   0  0  0  0  0  0  0  0  0  0  0  0
    7.2586    1.9130    0.1586 C   0  0  0  0  0  0  0  0  0  0  0  0
  1  2  2  0
  2  3  1  0
  2 10  1  0
  3  4  1  0
  4  5  2  0
  4  6  1  0
  5  8  1  0
  6  7  1  0
  7  8  2  0
  9 10  2  0
 10 11  1  0
 11 12  1  0
 12 13  1  0
 12 14  1  0
 13 16  1  0
 14 15  1  0
 15 16  1  0
M  END
>  <DRUGBANK_ID>  (1) 
DB07591

>  <COMMON_NAME>  (1) 
N1-CYCLOPENTYL-N2-(THIAZOL-2-YL)OXALAMIDE

$$$$
