
     RDKit          3D

 20 23  0  0  1  0  0  0  0  0999 V2000
    2.0533   -0.0927   -0.0621 C   0  0  1  0  0  0  0  0  0  0  0  0
    2.4973    0.4523    1.3194 C   0  0  0  0  0  0  0  0  0  0  0  0
    2.0979    1.8960    1.5268 C   0  0  0  0  0  0  0  0  0  0  0  0
    2.1356    2.7876    0.4294 C   0  0  0  0  0  0  0  0  0  0  0  0
    1.7725    4.1204    0.6875 C   0  0  0  0  0  0  0  0  0  0  0  0
    1.7159    5.0647   -0.3081 O   0  0  0  0  0  0  0  0  0  0  0  0
    1.4310    4.5527    1.9747 C   0  0  0  0  0  0  0  0  0  0  0  0
    1.1190    5.8779    2.1286 O   0  0  0  0  0  0  0  0  0  0  0  0
    1.4133    3.6706    3.0426 C   0  0  0  0  0  0  0  0  0  0  0  0
    1.7483    2.3390    2.8184 C   0  0  0  0  0  0  0  0  0  0  0  0
    2.5593    2.2622   -0.8959 C   0  0  0  0  0  0  0  0  0  0  0  0
    2.5479    0.8666   -1.1475 C   0  0  0  0  0  0  0  0  0  0  0  0
    2.9475    0.3746   -2.4072 C   0  0  0  0  0  0  0  0  0  0  0  0
    2.9886   -1.0985   -2.6863 C   0  0  0  0  0  0  0  0  0  0  0  0
    2.2996   -1.9518   -1.6238 C   0  0  0  0  0  0  0  0  0  0  0  0
    2.5393   -1.4904   -0.2462 N   0  0  0  0  0  0  0  0  0  0  0  0
    1.8743   -2.4219    0.6720 C   0  0  0  0  0  0  0  0  0  0  0  0
    3.3872    1.2561   -3.4016 C   0  0  0  0  0  0  0  0  0  0  0  0
    3.4227    2.6167   -3.1612 C   0  0  0  0  0  0  0  0  0  0  0  0
    3.0266    3.1065   -1.9195 C   0  0  0  0  0  0  0  0  0  0  0  0
  1  2  1  1
  1 12  1  0
  1 16  1  0
  2  3  1  0
  3  4  2  0
  3 10  1  0
  4  5  1  0
  4 11  1  0
  5  6  1  0
  5  7  2  0
  7  8  1  0
  7  9  1  0
  9 10  2  0
 11 12  2  0
 11 20  1  0
 12 13  1  0
 13 14  1  0
 13 18  2  0
 14 15  1  0
 15 16  1  0
 16 17  1  0
 18 19  1  0
 19 20  2  0
M  END
>  <DRUGBANK_ID>  (1) 
DB16927

>  <COMMON_NAME>  (1) 
S-Apomorphine

>  <CAS_NUMBER>  (1) 
39478-62-1

>  <UNII>  (1) 
LH812IV7LI

>  <SYNONYMS>  (1) 
(+)-10,11-Dihydroxyaporphine; (6as)-5,6,6a,7-tetrahydro-6-methyl-4h-dibenzo(de,g)quinoline-10,11-diol; 4h-dibenzo(de,g)quinoline-10,11-diol, 5,6,6a,7-tetrahydro-6-methyl-, (6as)-; Apomorphine, s-; S-(+)-apomorphine; S-[+]-apomorphine

$$$$
