AL2
     RDKit          3D

 24 26  0  0  0  0  0  0  0  0999 V2000
    2.6204   -0.1042    0.0056 C   0  0  0  0  0  0  0  0  0  0  0  0
   -0.8810   -2.2157    1.2926 O   0  0  0  0  0  0  0  0  0  0  0  0
   -2.2420   -0.7354   -0.0140 C   0  0  0  0  0  0  0  0  0  0  0  0
   -0.8879   -1.4875    0.0584 C   0  0  1  0  0  0  0  0  0  0  0  0
   -3.5051    1.4027   -0.0683 C   0  0  0  0  0  0  0  0  0  0  0  0
   -4.3078    1.2470    1.0528 C   0  0  0  0  0  0  0  0  0  0  0  0
   -5.4375    2.0357    1.1711 C   0  0  0  0  0  0  0  0  0  0  0  0
   -5.7276    2.9977    0.1966 C   0  0  0  0  0  0  0  0  0  0  0  0
   -4.8650    3.1956   -0.8791 C   0  0  0  0  0  0  0  0  0  0  0  0
   -3.7901    2.3491   -1.0489 C   0  0  0  0  0  0  0  0  0  0  0  0
    4.7193    0.5803   -1.2648 O   0  0  0  0  0  0  0  0  0  0  0  0
    4.7278    0.5954    1.2804 O   0  0  0  0  0  0  0  0  0  0  0  0
    4.8869   -1.5756   -0.0093 N   0  0  0  0  0  0  0  0  0  0  0  0
    4.3620    0.0132    0.0118 S   0  0  0  0  0  0  0  0  0  0  0  0
    1.7160   -1.1531   -0.0067 C   0  0  0  0  0  0  0  0  0  0  0  0
    0.3694   -0.6816   -0.0054 C   0  0  0  0  0  0  0  0  0  0  0  0
    0.3741    0.6870   -0.0111 C   0  0  0  0  0  0  0  0  0  0  0  0
    1.8794    1.4151    0.0119 S   0  0  0  0  0  0  0  0  0  0  0  0
   -0.9586    1.7658   -0.0627 S   0  0  0  0  0  0  0  0  0  0  0  0
   -0.8164    2.4450   -1.3271 O   0  0  0  0  0  0  0  0  0  0  0  0
   -0.9518    2.4453    1.2185 O   0  0  0  0  0  0  0  0  0  0  0  0
   -2.2691    0.7313   -0.1466 N   0  0  0  0  0  0  0  0  0  0  0  0
   -6.8409    3.7873    0.1867 O   0  0  0  0  0  0  0  0  0  0  0  0
   -7.8056    3.4702    1.1798 C   0  0  0  0  0  0  0  0  0  0  0  0
  1 14  1  0
  1 15  2  0
  1 18  1  0
  3  4  1  0
  3 22  1  0
  4  2  1  1
  4 16  1  0
  5  6  2  0
  5 10  1  0
  5 22  1  0
  6  7  1  0
  7  8  2  0
  8  9  1  0
  8 23  1  0
  9 10  2  0
 11 14  2  0
 12 14  2  0
 13 14  1  0
 15 16  1  0
 16 17  2  0
 17 18  1  0
 17 19  1  0
 19 20  2  0
 19 21  2  0
 19 22  1  0
 23 24  1  0
M  END
>  <DRUGBANK_ID>  (1) 
DB01964

>  <SECONDARY_ACCESSION_NUMBERS>  (1) 
EXPT00487

>  <COMMON_NAME>  (1) 
AL5424

$$$$
