
     RDKit          3D

 36 40  0  0  1  0  0  0  0  0999 V2000
    1.4463   -0.1754    0.0186 C   0  0  0  0  0  0  0  0  0  0  0  0
    0.6052   -1.2733    0.0210 C   0  0  0  0  0  0  0  0  0  0  0  0
    0.9029    1.1082    0.0064 C   0  0  0  0  0  0  0  0  0  0  0  0
   -6.4360   -8.0895   -0.0237 C   0  0  0  0  0  0  0  0  0  0  0  0
   -6.2816   -6.7765    0.4505 C   0  0  0  0  0  0  0  0  0  0  0  0
   -0.7704   -1.0807   -0.0125 C   0  0  0  0  0  0  0  0  0  0  0  0
   -0.4848    1.2958    0.0268 C   0  0  0  0  0  0  0  0  0  0  0  0
   -7.6975   -8.6261   -0.2743 C   0  0  0  0  0  0  0  0  0  0  0  0
   -7.3697   -6.0344    0.9035 C   0  0  0  0  0  0  0  0  0  0  0  0
   -5.5241   -3.9427   -1.4419 C   0  0  0  0  0  0  0  0  0  0  0  0
   -6.7259   -2.2692   -0.2347 C   0  0  0  0  0  0  0  0  0  0  0  0
   -6.7428   -4.5142   -1.8563 C   0  0  0  0  0  0  0  0  0  0  0  0
   -7.9586   -2.8094   -0.6715 C   0  0  0  0  0  0  0  0  0  0  0  0
   -3.6999   -0.1778    0.9539 C   0  0  0  0  0  0  0  0  0  0  0  0
   -3.3815   -0.0870   -1.5511 C   0  0  0  0  0  0  0  0  0  0  0  0
   -3.8682   -1.6936    0.8715 C   0  0  0  0  0  0  0  0  0  0  0  0
   -3.5335   -1.6119   -1.6187 C   0  0  0  0  0  0  0  0  0  0  0  0
  -11.2450   -7.2474   -1.2877 C   0  0  0  0  0  0  0  0  0  0  0  0
  -10.4826   -7.7498    1.0003 C   0  0  0  0  0  0  0  0  0  0  0  0
   -1.3517    0.1963   -0.0321 C   0  0  0  0  0  0  0  0  0  0  0  0
   -2.8559    0.4116   -0.1894 C   0  0  0  0  0  0  0  0  0  0  0  0
  -10.1732   -7.8446   -0.3320 C   0  0  0  0  0  0  0  0  0  0  0  0
   -5.4925   -2.7646   -0.6871 C   0  0  0  0  0  0  0  0  0  0  0  0
   -7.9701   -3.9095   -1.5232 C   0  0  0  0  0  0  0  0  0  0  0  0
   -8.7693   -7.7533   -0.1307 C   0  0  0  0  0  0  0  0  0  0  0  0
   -8.5635   -6.7214    0.7992 C   0  0  0  0  0  0  0  0  0  0  0  0
  -11.7798   -5.8296   -0.7582 C   0  0  1  0  0  0  0  0  0  0  0  0
  -12.8547   -5.8635    0.6024 C   0  0  0  0  0  0  0  0  0  0  0  0
   -9.7979   -6.5836    1.3821 N   0  0  0  0  0  0  0  0  0  0  0  0
  -10.4957   -4.8815   -0.7044 N   0  0  0  0  0  0  0  0  0  0  0  0
   -4.2929   -2.1117   -0.4611 N   0  0  0  0  0  0  0  0  0  0  0  0
  -13.9597   -5.4073    0.6204 O   0  0  0  0  0  0  0  0  0  0  0  0
  -12.4185   -6.4419    1.7680 O   0  0  0  0  0  0  0  0  0  0  0  0
  -10.2009   -3.6298   -2.9517 O   0  0  0  0  0  0  0  0  0  0  0  0
   -9.1435   -5.8985   -2.6693 O   0  0  0  0  0  0  0  0  0  0  0  0
   -9.5346   -4.5933   -2.1427 S   0  0  0  0  0  0  0  0  0  0  0  0
  2  1  2  0
  3  1  1  0
  5  4  2  0
  6  2  1  0
  7  3  2  0
  8  4  1  0
  9  5  1  0
 12 10  2  0
 13 11  1  0
 16 14  1  0
 17 15  1  0
 20  6  2  0
 20  7  1  0
 21 14  1  0
 21 15  1  0
 21 20  1  0
 22 18  1  0
 22 19  2  0
 23 10  1  0
 23 11  2  0
 24 12  1  0
 24 13  2  0
 25  8  2  0
 25 22  1  0
 26  9  2  0
 26 25  1  0
 27 18  1  1
 27 30  1  0
 28 27  1  0
 29 19  1  0
 29 26  1  0
 31 16  1  0
 31 17  1  0
 31 23  1  0
 32 28  2  0
 33 28  1  0
 36 24  1  0
 36 30  1  0
 36 34  2  0
 36 35  2  0
M  END
>  <DRUGBANK_ID>  (1) 
DB02449

>  <SECONDARY_ACCESSION_NUMBERS>  (1) 
EXPT01260

>  <COMMON_NAME>  (1) 
3-(1h-Indol-3-Yl)-2-[4-(4-Phenyl-Piperidin-1-Yl)-Benzenesulfonylamino]-Propionic Acid

$$$$
