
     RDKit          3D

 34 37  0  0  1  0  0  0  0  0999 V2000
    1.9550   -0.7326    0.0064 C   0  0  0  0  0  0  0  0  0  0  0  0
    1.9463    0.6937    0.0127 C   0  0  0  0  0  0  0  0  0  0  0  0
    0.6964    1.3579    0.0181 C   0  0  0  0  0  0  0  0  0  0  0  0
   -0.4618    0.6198    0.0316 C   0  0  0  0  0  0  0  0  0  0  0  0
   -0.4552   -0.7407    0.0030 C   0  0  0  0  0  0  0  0  0  0  0  0
    0.7206   -1.4331   -0.0150 C   0  0  0  0  0  0  0  0  0  0  0  0
   -1.9567    0.6921    0.0713 C   0  0  2  0  0  0  0  0  0  0  0  0
   -1.9460   -0.8614    0.0257 C   0  0  0  0  0  0  0  0  0  0  0  0
    2.9395   -1.6865    0.0134 O   0  0  0  0  0  0  0  0  0  0  0  0
    2.9188    1.6610    0.0325 O   0  0  0  0  0  0  0  0  0  0  0  0
   -2.5823    1.3724   -1.1298 C   0  0  0  0  0  0  0  0  0  0  0  0
   -2.5838    2.8319   -0.9880 N   0  0  0  0  0  0  0  0  0  0  0  0
   -3.1887    3.4299   -2.1842 C   0  0  0  0  0  0  0  0  0  0  0  0
   -3.1552    3.2584    0.2939 C   0  0  0  0  0  0  0  0  0  0  0  0
    4.2581    1.3698   -0.2619 C   0  0  0  0  0  0  0  0  0  0  0  0
    4.2537   -1.3730    0.3799 C   0  0  0  0  0  0  0  0  0  0  0  0
   -4.6767    3.1533   -2.4420 C   0  0  0  0  0  0  0  0  0  0  0  0
   -5.6445    3.6272   -1.3726 C   0  0  0  0  0  0  0  0  0  0  0  0
   -5.5833    5.0379   -0.9881 N   0  0  0  0  0  0  0  0  0  0  0  0
   -6.0035    8.0698   -1.8192 C   0  0  0  0  0  0  0  0  0  0  0  0
   -5.2426    6.9544   -2.5017 C   0  0  0  0  0  0  0  0  0  0  0  0
   -4.6812    6.0005   -1.4555 C   0  0  0  0  0  0  0  0  0  0  0  0
   -7.1494    7.7593   -1.0658 C   0  0  0  0  0  0  0  0  0  0  0  0
   -6.6492    5.5194   -0.1336 C   0  0  0  0  0  0  0  0  0  0  0  0
   -7.6397    6.3345   -0.9565 C   0  0  0  0  0  0  0  0  0  0  0  0
   -3.5856    6.2031   -0.9573 O   0  0  0  0  0  0  0  0  0  0  0  0
   -5.5258    9.3905   -1.8281 C   0  0  0  0  0  0  0  0  0  0  0  0
   -6.1673   10.3966   -1.0866 C   0  0  0  0  0  0  0  0  0  0  0  0
   -7.2962   10.0736   -0.3117 C   0  0  0  0  0  0  0  0  0  0  0  0
   -7.7710    8.7575   -0.3099 C   0  0  0  0  0  0  0  0  0  0  0  0
   -5.7453   11.6946   -1.0582 O   0  0  0  0  0  0  0  0  0  0  0  0
   -4.6224   12.0875   -1.8205 C   0  0  0  0  0  0  0  0  0  0  0  0
   -8.0353   10.9055    0.4958 O   0  0  0  0  0  0  0  0  0  0  0  0
   -7.6612   12.2761    0.5630 C   0  0  0  0  0  0  0  0  0  0  0  0
  1  2  2  0
  1  6  1  0
  1  9  1  0
  2  3  1  0
  2 10  1  0
  3  4  2  0
  4  5  1  0
  4  7  1  0
  5  6  2  0
  5  8  1  0
  7  8  1  0
  7 11  1  6
  9 16  1  0
 10 15  1  0
 11 12  1  0
 12 13  1  0
 12 14  1  0
 13 17  1  0
 17 18  1  0
 18 19  1  0
 19 24  1  0
 20 23  2  0
 20 21  1  0
 20 27  1  0
 21 22  1  0
 22 19  1  0
 22 26  2  0
 23 25  1  0
 23 30  1  0
 24 25  1  0
 27 28  2  0
 28 29  1  0
 28 31  1  0
 29 30  2  0
 29 33  1  0
 31 32  1  0
 33 34  1  0
M  END
>  <DRUGBANK_ID>  (1) 
DB09083

>  <COMMON_NAME>  (1) 
Ivabradine

>  <CAS_NUMBER>  (1) 
155974-00-8

>  <UNII>  (1) 
3H48L0LPZQ

>  <SYNONYMS>  (1) 
3-[3-({[(7S)-3,4-dimethoxybicyclo[4.2.0]octa-1,3,5-trien-7-yl]methyl}(methyl)amino)propyl]-7,8-dimethoxy-2,3,4,5-tetrahydro-1H-3-benzazepin-2-one; Ivabradin; Ivabradina; Ivabradine; Ivabradinum

$$$$
