
     RDKit          3D

 28 31  0  0  0  0  0  0  0  0999 V2000
   -3.5836    4.1998    5.2496 C   0  0  0  0  0  0  0  0  0  0  0  0
   -1.8206    9.1218    0.8053 C   0  0  0  0  0  0  0  0  0  0  0  0
   -2.5853    4.1986    6.2325 C   0  0  0  0  0  0  0  0  0  0  0  0
   -3.2555    4.3712    3.9035 C   0  0  0  0  0  0  0  0  0  0  0  0
   -1.3106    7.9065    0.3501 C   0  0  0  0  0  0  0  0  0  0  0  0
   -3.0191    9.6035    0.2898 C   0  0  0  0  0  0  0  0  0  0  0  0
   -0.6128    3.1724    1.8734 C   0  0  0  0  0  0  0  0  0  0  0  0
   -0.5468    2.8902    0.4151 C   0  0  0  0  0  0  0  0  0  0  0  0
   -0.9372    4.6228    4.5345 C   0  0  0  0  0  0  0  0  0  0  0  0
   -3.1729    7.6401   -1.1579 C   0  0  0  0  0  0  0  0  0  0  0  0
   -0.1496    4.3211    6.9299 C   0  0  0  0  0  0  0  0  0  0  0  0
    1.8720    1.4751    6.9016 C   0  0  0  0  0  0  0  0  0  0  0  0
    1.6217    3.0832    5.5970 C   0  0  0  0  0  0  0  0  0  0  0  0
   -1.2427    4.3975    5.8847 C   0  0  0  0  0  0  0  0  0  0  0  0
   -1.9210    4.5267    3.5524 C   0  0  0  0  0  0  0  0  0  0  0  0
   -1.9957    7.1343   -0.5999 C   0  0  0  0  0  0  0  0  0  0  0  0
   -3.7097    8.8393   -0.6628 C   0  0  0  0  0  0  0  0  0  0  0  0
   -1.4947    4.3547    2.1498 C   0  0  0  0  0  0  0  0  0  0  0  0
   -1.4443    4.9275   -0.0600 C   0  0  0  0  0  0  0  0  0  0  0  0
    2.2892    1.9613    5.6986 N   0  0  0  0  0  0  0  0  0  0  0  0
   -0.9234    3.7314   -0.4883 N   0  0  0  0  0  0  0  0  0  0  0  0
    0.9583    2.2177    7.5359 N   0  0  0  0  0  0  0  0  0  0  0  0
   -1.5169    5.8615   -0.9624 N   0  0  0  0  0  0  0  0  0  0  0  0
   -1.8840    5.1650    1.2243 N   0  0  0  0  0  0  0  0  0  0  0  0
    0.7873    3.2341    6.6648 N   0  0  0  0  0  0  0  0  0  0  0  0
   -5.0772    9.2337   -1.0257 N   0  0  0  0  0  0  0  0  0  0  0  0
   -5.5515   10.2397   -0.4838 O   0  0  0  0  0  0  0  0  0  0  0  0
   -5.6981    8.5076   -1.8201 O   0  0  0  0  0  0  0  0  0  0  0  0
  3  1  2  0
  4  1  1  0
  5  2  2  0
  6  2  1  0
  8  7  1  0
 14  3  1  0
 14  9  2  0
 14 11  1  0
 15  4  2  0
 15  9  1  0
 16  5  1  0
 16 10  2  0
 17  6  2  0
 17 10  1  0
 18  7  1  0
 18 15  1  0
 20 12  1  0
 20 13  2  0
 21  8  2  0
 21 19  1  0
 22 12  2  0
 23 16  1  0
 23 19  2  0
 24 18  2  0
 24 19  1  0
 25 11  1  0
 25 13  1  0
 25 22  1  0
 26 17  1  0
 27 26  1  0
 28 26  2  0
M  CHG  2  26   1  27  -1
M  END
>  <DRUGBANK_ID>  (1) 
DB08218

>  <COMMON_NAME>  (1) 
HYDROXY(OXO)(3-{[(2Z)-4-[3-(1H-1,2,4-TRIAZOL-1-YLMETHYL)PHENYL]PYRIMIDIN-2(5H)-YLIDENE]AMINO}PHENYL)AMMONIUM

$$$$
