
     RDKit          3D

 14 14  0  0  0  0  0  0  0  0999 V2000
   -1.4511   -0.0290   -0.0088 C   0  0  0  0  0  0  0  0  0  0  0  0
   -0.7882    1.1696    0.1358 N   0  0  0  0  0  0  0  0  0  0  0  0
    0.5567    1.3312   -0.0105 C   0  0  0  0  0  0  0  0  0  0  0  0
    1.3523    0.1155    0.1503 C   0  0  0  0  0  0  0  0  0  0  0  0
    0.7042   -1.0335    0.3489 C   0  0  0  0  0  0  0  0  0  0  0  0
   -0.6423   -1.1601    0.0886 N   0  0  0  0  0  0  0  0  0  0  0  0
   -1.1870   -2.5063   -0.1720 C   0  0  0  0  0  0  0  0  0  0  0  0
   -0.6614   -3.1827   -1.4530 C   0  0  0  0  0  0  0  0  0  0  0  0
    0.8086   -3.5579   -1.4415 C   0  0  0  0  0  0  0  0  0  0  0  0
    1.2138   -4.6926   -1.2118 O   0  0  0  0  0  0  0  0  0  0  0  0
    1.6154   -2.4738   -1.7319 O   0  0  0  0  0  0  0  0  0  0  0  0
    2.9605   -2.6392   -1.1476 N   0  0  0  0  0  0  0  0  0  0  0  0
    1.1014    2.4144   -0.2172 O   0  0  0  0  0  0  0  0  0  0  0  0
   -2.6588   -0.0544   -0.2211 O   0  0  0  0  0  0  0  0  0  0  0  0
  1  2  1  0
  1  6  1  0
  1 14  2  0
  2  3  1  0
  3  4  1  0
  3 13  2  0
  4  5  2  0
  5  6  1  0
  6  7  1  0
  7  8  1  0
  8  9  1  0
  9 10  2  0
  9 11  1  0
 11 12  1  0
M  END
>  <DRUGBANK_ID>  (1) 
DB04129

>  <SECONDARY_ACCESSION_NUMBERS>  (1) 
EXPT01797

>  <COMMON_NAME>  (1) 
Willardiine

>  <CAS_NUMBER>  (1) 
21416-43-3

>  <UNII>  (1) 
X2R4I0X4W9

>  <SYNONYMS>  (1) 
beta-(2,4-Dihydroxypyrimidin-1-yl)alanine

$$$$
