
     RDKit          3D

  7  7  0  0  0  0  0  0  0  0999 V2000
   -1.8073    0.0621    0.8039 N   0  0  0  0  0  0  0  0  0  0  0  0
   -1.0932    0.0419   -0.5059 C   0  0  0  0  0  0  0  0  0  0  0  0
   -0.1978    1.2776   -0.6125 C   0  0  0  0  0  0  0  0  0  0  0  0
    1.0066    1.2237    0.3272 C   0  0  0  0  0  0  0  0  0  0  0  0
    1.7976   -0.0677    0.1385 C   0  0  0  0  0  0  0  0  0  0  0  0
    0.9136   -1.2992    0.3160 C   0  0  0  0  0  0  0  0  0  0  0  0
   -0.2981   -1.2602   -0.6162 C   0  0  0  0  0  0  0  0  0  0  0  0
  1  2  1  0
  2  3  1  0
  2  7  1  0
  3  4  1  0
  4  5  1  0
  5  6  1  0
  6  7  1  0
M  CHG  1   1   1
M  END
>  <DRUGBANK_ID>  (1) 
DB02995

>  <SECONDARY_ACCESSION_NUMBERS>  (1) 
EXPT01690

>  <COMMON_NAME>  (1) 
Cyclohexylammonium Ion

$$$$
