1461
     RDKit          3D

 24 25  0  0  0  0  0  0  0  0999 V2000
    1.4255   -0.0070   -0.4701 O   0  0  0  0  0  0  0  0  0  0  0  0
   -1.4034    0.0327   -0.4623 O   0  0  0  0  0  0  0  0  0  0  0  0
   -1.5302   -1.6046   -1.9601 O   0  0  0  0  0  0  0  0  0  0  0  0
    0.4998   -1.1058    1.6695 N   0  0  0  0  0  0  0  0  0  0  0  0
    0.8511   -1.0665   -1.2897 C   0  0  0  0  0  0  0  0  0  0  0  0
    1.2103   -0.6982   -2.7105 C   0  0  0  0  0  0  0  0  0  0  0  0
    1.3598   -2.5918   -0.9424 C   0  0  0  0  0  0  0  0  0  0  0  0
   -0.7980   -0.9188   -1.2680 C   0  0  0  0  0  0  0  0  0  0  0  0
    1.1076    0.6381   -3.1240 C   0  0  0  0  0  0  0  0  0  0  0  0
    2.2663   -2.8412    0.0994 C   0  0  0  0  0  0  0  0  0  0  0  0
    1.7292   -1.6659   -3.5697 C   0  0  0  0  0  0  0  0  0  0  0  0
    0.7351   -3.7604   -1.4373 C   0  0  0  0  0  0  0  0  0  0  0  0
    2.8179    0.2390   -0.3905 C   0  0  0  0  0  0  0  0  0  0  0  0
   -0.8534    0.8379    0.6240 C   0  0  0  0  0  0  0  0  0  0  0  0
   -0.2414    0.1326    1.8920 C   0  0  0  0  0  0  0  0  0  0  0  0
    1.6474    0.9968   -4.3422 C   0  0  0  0  0  0  0  0  0  0  0  0
    2.3536   -4.0519    0.8053 C   0  0  0  0  0  0  0  0  0  0  0  0
    2.3060   -1.3035   -4.7541 C   0  0  0  0  0  0  0  0  0  0  0  0
    0.9132   -5.0194   -0.8105 C   0  0  0  0  0  0  0  0  0  0  0  0
    2.2541    0.0253   -5.1439 C   0  0  0  0  0  0  0  0  0  0  0  0
    1.6893   -5.1582    0.3372 C   0  0  0  0  0  0  0  0  0  0  0  0
    3.0981    1.2081    0.7537 C   0  0  0  0  0  0  0  0  0  0  0  0
    1.4738   -1.4470    2.7081 C   0  0  0  0  0  0  0  0  0  0  0  0
   -0.4701   -2.1351    1.3057 C   0  0  0  0  0  0  0  0  0  0  0  0
  1  5  1  0
  1 13  1  0
  2  8  1  0
  2 14  1  0
  3  8  2  0
  4 15  1  0
  4 23  1  0
  4 24  1  0
  5  6  1  0
  5  7  1  0
  5  8  1  0
  6  9  2  0
  6 11  1  0
  7 10  2  0
  7 12  1  0
  9 16  1  0
 10 17  1  0
 11 18  2  0
 12 19  2  0
 13 22  1  0
 14 15  1  0
 16 20  2  0
 17 21  2  0
 18 20  1  0
 19 21  1  0
M  END
>  <DRUGBANK_ID>  (1) 
DB01461

>  <COMMON_NAME>  (1) 
Dimenoxadol

>  <CAS_NUMBER>  (1) 
509-78-4

>  <UNII>  (1) 
4D65PBX0VK

>  <SYNONYMS>  (1) 
Dimenossadolo; Dimenoxadol; Dimenoxadole; Dimenoxadolum

$$$$
