
     RDKit          3D

 37 41  0  0  1  0  0  0  0  0999 V2000
    1.0346    2.7180    1.9629 C   0  0  0  0  0  0  0  0  0  0  0  0
   -3.4548   -3.0636   -1.6139 C   0  0  0  0  0  0  0  0  0  0  0  0
    0.2372   -0.7232    1.9812 C   0  0  0  0  0  0  0  0  0  0  0  0
    1.9293   -1.0367    0.2040 C   0  0  0  0  0  0  0  0  0  0  0  0
    1.5800    2.2128    0.6726 C   0  0  0  0  0  0  0  0  0  0  0  0
    3.5439    2.0090  -10.1225 C   0  0  0  0  0  0  0  0  0  0  0  0
    3.8323    1.9301   -8.7635 C   0  0  0  0  0  0  0  0  0  0  0  0
    2.2204    2.1128  -10.5544 C   0  0  0  0  0  0  0  0  0  0  0  0
    2.3278    1.9117   -4.0955 C   0  0  0  0  0  0  0  0  0  0  0  0
    0.0456   -0.8981   -1.8037 C   0  0  0  0  0  0  0  0  0  0  0  0
    1.7604    2.1424   -1.7325 C   0  0  0  0  0  0  0  0  0  0  0  0
   -0.6280    2.8056   -1.1162 C   0  0  0  0  0  0  0  0  0  0  0  0
   -2.5557   -1.8645   -1.4732 C   0  0  1  0  0  0  0  0  0  0  0  0
    1.3144    2.0510   -3.1483 C   0  0  0  0  0  0  0  0  0  0  0  0
    2.7852    1.9536   -7.8388 C   0  0  0  0  0  0  0  0  0  0  0  0
    2.0115    1.9265   -5.4396 C   0  0  0  0  0  0  0  0  0  0  0  0
   -0.4892   -1.1329   -0.3435 C   0  0  1  0  0  0  0  0  0  0  0  0
    1.1815    2.1400   -9.6267 C   0  0  0  0  0  0  0  0  0  0  0  0
   -1.1020    2.0653   -2.4798 C   0  0  1  0  0  0  0  0  0  0  0  0
   -1.0706   -0.4757   -2.7297 C   0  0  1  0  0  0  0  0  0  0  0  0
   -0.0263    2.1058   -3.5285 C   0  0  0  0  0  0  0  0  0  0  0  0
    1.4580    2.0601   -8.2611 C   0  0  0  0  0  0  0  0  0  0  0  0
    0.6873    2.0391   -5.8403 C   0  0  0  0  0  0  0  0  0  0  0  0
   -1.5629   -2.1817   -0.3291 C   0  0  2  0  0  0  0  0  0  0  0  0
    3.1196    1.8705   -6.4059 C   0  0  0  0  0  0  0  0  0  0  0  0
   -0.3361    2.1098   -4.8866 C   0  0  0  0  0  0  0  0  0  0  0  0
    0.3577    2.0954   -7.2687 C   0  0  0  0  0  0  0  0  0  0  0  0
    0.7164    2.2426   -0.6153 C   0  0  2  0  0  0  0  0  0  0  0  0
    0.5801   -1.3621    0.6944 N   0  0  0  0  0  0  0  0  0  0  0  0
   -0.1065    2.2472  -10.0602 O   0  0  0  0  0  0  0  0  0  0  0  0
   -0.9472   -3.4562   -0.4476 O   0  0  0  0  0  0  0  0  0  0  0  0
    4.2668    1.7799   -6.0308 O   0  0  0  0  0  0  0  0  0  0  0  0
   -1.6613    2.1804   -5.2265 O   0  0  0  0  0  0  0  0  0  0  0  0
   -0.8157    2.1827   -7.5703 O   0  0  0  0  0  0  0  0  0  0  0  0
    0.0754    1.0771   -0.2872 O   0  0  0  0  0  0  0  0  0  0  0  0
   -1.9517   -1.6129   -2.7498 O   0  0  0  0  0  0  0  0  0  0  0  0
   -1.7366    0.7479   -2.3274 O   0  0  0  0  0  0  0  0  0  0  0  0
  5  1  1  0
  7  6  2  0
  8  6  1  0
 13  2  1  6
 14  9  1  0
 14 11  1  0
 15  7  1  0
 16  9  2  0
 17 10  1  0
 17 29  1  1
 18  8  2  0
 19 12  1  0
 19 37  1  1
 20 10  1  0
 20 37  1  1
 21 14  2  0
 21 19  1  0
 22 15  2  0
 22 18  1  0
 23 16  1  0
 24 13  1  0
 24 17  1  0
 24 31  1  6
 25 15  1  0
 25 16  1  0
 26 21  1  0
 26 23  2  0
 27 22  1  0
 27 23  1  0
 28 11  1  0
 28 12  1  0
 28 35  1  1
 28  5  1  0
 29  3  1  0
 29  4  1  0
 30 18  1  0
 32 25  2  0
 33 26  1  0
 34 27  2  0
 36 13  1  0
 36 20  1  0
M  END
>  <DRUGBANK_ID>  (1) 
DB04131

>  <SECONDARY_ACCESSION_NUMBERS>  (1) 
EXPT00485

>  <COMMON_NAME>  (1) 
10-(4-Dimethylamino-5-Hydroxy-6-Methyl-Tetrahydro-Pyran-2-Yloxy)-8-Ethyl-1,8,11-Trihydroxy-7,8,9,10-Tetrahydro-Naphthacene-5,12-Dione

$$$$
