
     RDKit          3D

 21 22  0  0  0  0  0  0  0  0999 V2000
    0.9681    0.1578   -0.0669 C   0  0  0  0  0  0  0  0  0  0  0  0
    0.1609    1.1792   -0.8521 C   0  0  0  0  0  0  0  0  0  0  0  0
   -1.1944    1.1836   -0.7926 C   0  0  0  0  0  0  0  0  0  0  0  0
   -2.0243    2.1514   -1.5671 C   0  0  0  0  0  0  0  0  0  0  0  0
   -3.1295    2.7889   -1.0039 C   0  0  0  0  0  0  0  0  0  0  0  0
   -3.8385    3.7256   -1.7620 C   0  0  0  0  0  0  0  0  0  0  0  0
   -3.4322    4.0872   -3.0488 C   0  0  0  0  0  0  0  0  0  0  0  0
   -2.3294    3.4854   -3.6150 C   0  0  0  0  0  0  0  0  0  0  0  0
   -1.6937    2.4759   -2.9019 C   0  0  0  0  0  0  0  0  0  0  0  0
    0.3937   -0.7256    0.5764 O   0  0  0  0  0  0  0  0  0  0  0  0
    2.3523    0.1305   -0.1274 N   0  0  0  0  0  0  0  0  0  0  0  0
    3.2202    1.1457   -0.5674 C   0  0  0  0  0  0  0  0  0  0  0  0
    2.9625    2.4695   -0.2057 C   0  0  0  0  0  0  0  0  0  0  0  0
    3.5558    3.5161   -0.9082 C   0  0  0  0  0  0  0  0  0  0  0  0
    4.5411    3.2446   -1.8469 C   0  0  0  0  0  0  0  0  0  0  0  0
    4.9547    1.9270   -2.0526 C   0  0  0  0  0  0  0  0  0  0  0  0
    4.2643    0.8642   -1.4509 C   0  0  0  0  0  0  0  0  0  0  0  0
   -4.1565    5.0147   -3.7416 O   0  0  0  0  0  0  0  0  0  0  0  0
   -4.9619    4.2850   -1.2193 O   0  0  0  0  0  0  0  0  0  0  0  0
    0.7753    2.1415   -1.7043 C   0  0  0  0  0  0  0  0  0  0  0  0
    1.1444    2.9859   -2.4227 N   0  0  0  0  0  0  0  0  0  0  0  0
  1  2  1  0
  1 10  2  0
  1 11  1  0
  2  3  2  0
  2 20  1  0
  3  4  1  0
  4  5  2  0
  4  9  1  0
  5  6  1  0
  6  7  2  0
  6 19  1  0
  7  8  1  0
  7 18  1  0
  8  9  2  0
 11 12  1  0
 12 13  2  0
 12 17  1  0
 13 14  1  0
 14 15  2  0
 15 16  1  0
 16 17  2  0
 20 21  3  0
M  END
>  <DRUGBANK_ID>  (1) 
DB16774

>  <COMMON_NAME>  (1) 
Tyrphostin B48

>  <CAS_NUMBER>  (1) 
133550-35-3

>  <SYNONYMS>  (1) 
AG 494; AG-494; Alpha-Cyano-(3,4-dihydroxy)-N-phenylcinnamide; Tyrphostin AG-494

$$$$
