
     RDKit          3D

 23 22  0  0  0  0  0  0  0  0999 V2000
   -0.0340   -1.7580    0.0000 C   0  0  0  0  0  0  0  0  0  0  0  0
    0.0560    0.8960    0.0060 N   0  0  0  0  0  0  0  0  0  0  0  0
   -1.1930    0.3240   -0.0020 C   0  0  0  0  0  0  0  0  0  0  0  0
    1.1650   -1.1780   -0.0190 C   0  0  0  0  0  0  0  0  0  0  0  0
   -1.2060   -1.0400    0.0180 N   0  0  0  0  0  0  0  0  0  0  0  0
    1.2800    0.2510   -0.0010 C   0  0  0  0  0  0  0  0  0  0  0  0
   -0.1093   -3.2761    0.0019 C   0  0  0  0  0  0  0  0  0  0  0  0
   -2.2240    0.9920   -0.0100 O   0  0  0  0  0  0  0  0  0  0  0  0
    2.3150    0.9060    0.0060 O   0  0  0  0  0  0  0  0  0  0  0  0
   -1.3725   -3.9244    0.0219 O   0  0  0  0  0  0  0  0  0  0  0  0
    0.9584   -3.9653   -0.0145 O   0  0  0  0  0  0  0  0  0  0  0  0
   -0.0340   -1.7580    0.0000 C   0  0  0  0  0  0  0  0  0  0  0  0
    0.0560    0.8960    0.0060 N   0  0  0  0  0  0  0  0  0  0  0  0
   -1.1930    0.3240   -0.0020 C   0  0  0  0  0  0  0  0  0  0  0  0
    1.1650   -1.1780   -0.0190 C   0  0  0  0  0  0  0  0  0  0  0  0
   -1.2060   -1.0400    0.0180 N   0  0  0  0  0  0  0  0  0  0  0  0
    1.2800    0.2510   -0.0010 C   0  0  0  0  0  0  0  0  0  0  0  0
   -0.1093   -3.2761    0.0019 C   0  0  0  0  0  0  0  0  0  0  0  0
   -2.2240    0.9920   -0.0100 O   0  0  0  0  0  0  0  0  0  0  0  0
    2.3150    0.9060    0.0060 O   0  0  0  0  0  0  0  0  0  0  0  0
   -1.3725   -3.9244    0.0219 O   0  0  0  0  0  0  0  0  0  0  0  0
    0.9584   -3.9653   -0.0145 O   0  0  0  0  0  0  0  0  0  0  0  0
   -0.3621   -5.6193    0.0036 Zn  0  0  0  0  0 15  0  0  0  0  0  0
  2  3  1  0
  3  5  1  0
  4  1  2  0
  5  1  1  0
  6  4  1  0
  6  2  1  0
  7  1  1  0
  8  3  2  0
  9  6  2  0
 10  7  1  0
 11  7  2  0
 13 14  1  0
 14 16  1  0
 15 12  2  0
 16 12  1  0
 17 15  1  0
 17 13  1  0
 18 12  1  0
 19 14  2  0
 20 17  2  0
 21 18  1  0
 22 18  2  0
M  CHG  3  10  -1  21  -1  23   2
M  END
>  <DRUGBANK_ID>  (1) 
DB15720

>  <COMMON_NAME>  (1) 
Zinc orotate

>  <CAS_NUMBER>  (1) 
60388-02-5

>  <UNII>  (1) 
Z722242H10

>  <SYNONYMS>  (1) 
Orotate zinc; Zinc diorotate; Zinc orotate

$$$$
