4FP
     RDKit          3D

 14 15  0  0  0  0  0  0  0  0999 V2000
    2.1838    0.0540   -0.0820 F   0  0  0  0  0  0  0  0  0  0  0  0
    0.8640    0.0877    0.1675 C   0  0  0  0  0  0  0  0  0  0  0  0
    0.1813    1.2978    0.0898 C   0  0  0  0  0  0  0  0  0  0  0  0
   -1.2198    1.2987    0.1665 C   0  0  0  0  0  0  0  0  0  0  0  0
   -1.9206    0.1057    0.3683 C   0  0  0  0  0  0  0  0  0  0  0  0
   -3.4109    0.0139    0.0830 C   0  0  0  0  0  0  0  0  0  0  0  0
   -3.8863   -0.6968   -1.2349 C   0  0  0  0  0  0  0  0  0  0  0  0
   -3.4814   -2.1761   -1.3613 C   0  0  0  0  0  0  0  0  0  0  0  0
   -2.0696   -2.3783   -1.9197 C   0  0  0  0  0  0  0  0  0  0  0  0
   -1.7461   -1.6097   -3.1177 N   0  0  0  0  0  0  0  0  0  0  0  0
   -2.0583   -0.1872   -2.9393 C   0  0  0  0  0  0  0  0  0  0  0  0
   -3.5140    0.0239   -2.5422 C   0  0  0  0  0  0  0  0  0  0  0  0
   -1.1883   -1.0488    0.6906 C   0  0  0  0  0  0  0  0  0  0  0  0
    0.1959   -1.0776    0.4639 C   0  0  0  0  0  0  0  0  0  0  0  0
  1  2  1  0
  2  3  2  0
  2 14  1  0
  3  4  1  0
  4  5  2  0
  5  6  1  0
  5 13  1  0
  6  7  1  0
  7 12  1  0
  7  8  1  0
  8  9  1  0
  9 10  1  0
 10 11  1  0
 11 12  1  0
 13 14  2  0
M  END
>  <DRUGBANK_ID>  (1) 
DB07110

>  <COMMON_NAME>  (1) 
4-(4-FLUOROBENZYL)PIPERIDINE

$$$$
