
     RDKit          3D

 34 36  0  0  0  0  0  0  0  0999 V2000
    1.0543    0.0300   -0.0785 P   0  0  0  0  0  0  0  0  0  0  0  0
    2.6833    0.4831    2.1829 P   0  0  1  0  0  0  0  0  0  0  0  0
   -0.1488    2.9649    1.9036 O   0  0  0  0  0  0  0  0  0  0  0  0
   -2.6733    3.8074   -0.0083 O   0  0  0  0  0  0  0  0  0  0  0  0
    3.9893    0.2270    0.6981 O   0  0  0  0  0  0  0  0  0  0  0  0
    0.6588    1.4645   -0.7413 O   0  0  0  0  0  0  0  0  0  0  0  0
    4.5135    0.8239    1.0708 O   0  0  0  0  0  0  0  0  0  0  0  0
    3.5392    1.0094   -3.5960 O   0  0  0  0  0  0  0  0  0  0  0  0
    5.3038   -0.7986   -2.3579 O   0  0  0  0  0  0  0  0  0  0  0  0
    2.5143    3.0511   -2.0835 O   0  0  0  0  0  0  0  0  0  0  0  0
    1.0543    0.2983    1.6306 O   0  0  0  0  0  0  0  0  0  0  0  0
   -1.5569    4.7016    4.8796 O   0  0  0  0  0  0  0  0  0  0  0  0
   -0.6757    0.0300   -0.0785 O   0  0  0  0  0  0  0  0  0  0  0  0
    2.2581    1.9326    2.8524 O   0  0  0  0  0  0  0  0  0  0  0  0
    2.6026    0.0300   -0.0785 O   0  0  0  0  0  0  0  0  0  0  0  0
    4.1412    0.6485    2.6772 O   0  0  0  0  0  0  0  0  0  0  0  0
    2.1747    6.8662    6.0438 O   0  0  0  0  0  0  0  0  0  0  0  0
    0.1804    4.7166    3.3647 N   0  0  0  0  0  0  0  0  0  0  0  0
    0.4499    5.4843    5.5374 N   0  0  0  0  0  0  0  0  0  0  0  0
   -1.2905    4.0789    0.0652 C   0  0  2  0  0  0  0  0  0  0  0  0
   -0.5856    2.8471    0.5523 C   0  0  1  0  0  0  0  0  0  0  0  0
   -0.8758    5.0672    1.1130 C   0  0  0  0  0  0  0  0  0  0  0  0
   -0.6957    4.1908    2.3509 C   0  0  1  0  0  0  0  0  0  0  0  0
    0.5992    2.7837   -0.2937 C   0  0  0  0  0  0  0  0  0  0  0  0
    3.9154    1.0926   -2.1999 C   0  0  2  0  0  0  0  0  0  0  0  0
    4.2375   -0.2906   -1.5896 C   0  0  2  0  0  0  0  0  0  0  0  0
    2.8458    1.8001   -1.4988 C   0  0  1  0  0  0  0  0  0  0  0  0
    4.9144   -0.2446   -0.0484 C   0  0  2  0  0  0  0  0  0  0  0  0
    3.2525    1.8743    0.0700 C   0  0  0  0  0  0  0  0  0  0  0  0
    1.4988    5.0389    3.0927 C   0  0  0  0  0  0  0  0  0  0  0  0
   -0.3828    4.9421    4.6049 C   0  0  0  0  0  0  0  0  0  0  0  0
    2.2143    5.8034    3.9255 C   0  0  0  0  0  0  0  0  0  0  0  0
    1.6298    6.1056    5.2513 C   0  0  0  0  0  0  0  0  0  0  0  0
    3.5312    6.4187    3.5919 C   0  0  0  0  0  0  0  0  0  0  0  0
  1 13  1  0
  1 15  2  0
  1 11  1  0
  1  6  1  0
  2  7  1  0
  2 11  1  0
  2 14  1  0
  2 16  2  0
  3 21  1  0
  3 23  1  0
  5 28  1  0
  5 29  1  0
  6 24  1  0
 12 31  2  0
 17 33  2  0
 18 30  1  0
 18 31  1  0
 19 31  1  0
 19 33  1  0
 20  4  1  1
 20 21  1  0
 20 22  1  0
 21 24  1  6
 22 23  1  0
 23 18  1  1
 25  8  1  6
 25 26  1  0
 25 27  1  0
 26  9  1  6
 26 28  1  0
 27 10  1  6
 27 29  1  0
 28  7  1  6
 30 32  2  0
 32 33  1  0
 32 34  1  0
M  END
>  <DRUGBANK_ID>  (1) 
DB03161

>  <SECONDARY_ACCESSION_NUMBERS>  (1) 
EXPT03034

>  <COMMON_NAME>  (1) 
Thymidine-5'-diphospho-beta-D-xylose

$$$$
