880
     RDKit          3D

 17 18  0  0  0  0  0  0  0  0999 V2000
   -4.1220    0.1585   -0.0564 Cl  0  0  0  0  0  0  0  0  0  0  0  0
    2.1208   -0.4635   -0.0346 S   0  0  0  0  0  0  0  0  0  0  0  0
   -2.7480   -2.9852    0.1420 S   0  0  0  0  0  0  0  0  0  0  0  0
    2.4186   -0.8479   -1.3989 O   0  0  0  0  0  0  0  0  0  0  0  0
    2.5235   -1.3001    1.0797 O   0  0  0  0  0  0  0  0  0  0  0  0
   -2.4629   -3.6856   -1.0869 O   0  0  0  0  0  0  0  0  0  0  0  0
   -2.5190   -3.5842    1.4374 O   0  0  0  0  0  0  0  0  0  0  0  0
    0.5401    2.0453   -0.0320 N   0  0  0  0  0  0  0  0  0  0  0  0
    2.6974    1.0323    0.2129 N   0  0  0  0  0  0  0  0  0  0  0  0
   -4.3820   -2.6379    0.0767 N   0  0  0  0  0  0  0  0  0  0  0  0
    0.3470   -0.3787    0.0434 C   0  0  0  0  0  0  0  0  0  0  0  0
   -0.2291    0.8832   -0.0068 C   0  0  0  0  0  0  0  0  0  0  0  0
   -1.8452   -1.4527    0.0947 C   0  0  0  0  0  0  0  0  0  0  0  0
   -0.4341   -1.5483    0.1070 C   0  0  0  0  0  0  0  0  0  0  0  0
   -1.6215    0.9595   -0.0348 C   0  0  0  0  0  0  0  0  0  0  0  0
   -2.4337   -0.1883    0.0132 C   0  0  0  0  0  0  0  0  0  0  0  0
    1.8900    2.0262    0.1506 C   0  0  0  0  0  0  0  0  0  0  0  0
  1 16  1  0
  2  4  2  0
  2  5  2  0
  2  9  1  0
  2 11  1  0
  3  6  2  0
  3  7  2  0
  3 10  1  0
  3 13  1  0
  8 12  1  0
  8 17  1  0
  9 17  2  0
 11 12  2  0
 11 14  1  0
 12 15  1  0
 13 14  2  0
 13 16  1  0
 15 16  2  0
M  END
>  <DRUGBANK_ID>  (1) 
DB00880

>  <SECONDARY_ACCESSION_NUMBERS>  (1) 
APRD00721

>  <COMMON_NAME>  (1) 
Chlorothiazide

>  <CAS_NUMBER>  (1) 
58-94-6

>  <UNII>  (1) 
77W477J15H

>  <SYNONYMS>  (1) 
6-Chloro-1,1-dioxo-1,2-dihydro-1lambda*6*-benzo[1,2,4]thiadiazine-7-sulfonic acid amide; 6-chloro-7-sulfamoyl-2H-1,2,4-benzothiadiazine 1,1-dioxide; Chlorothiazid; Chlorothiazide; Chlorothiazidum; Chlorthiazide; Clorotiazida

$$$$
