BZS
     RDKit          3D

 15 15  0  0  0  0  0  0  0  0999 V2000
   -3.1170    0.4420   -1.3110 C   0  0  0  0  0  0  0  0  0  0  0  0
   -1.7229   -0.1277   -1.1639 C   0  0  0  0  0  0  0  0  0  0  0  0
   -0.6363    0.9111   -1.4837 C   0  0  2  0  0  0  0  0  0  0  0  0
    0.2445    1.1574   -0.2640 C   0  0  0  0  0  0  0  0  0  0  0  0
   -1.2351    2.2137   -2.0366 C   0  0  0  0  0  0  0  0  0  0  0  0
   -0.2785    3.2903   -2.4311 C   0  0  0  0  0  0  0  0  0  0  0  0
   -0.7535    4.6068   -2.3629 C   0  0  0  0  0  0  0  0  0  0  0  0
    1.0583    3.0319   -2.7303 C   0  0  0  0  0  0  0  0  0  0  0  0
    0.1231    5.6629   -2.5339 C   0  0  0  0  0  0  0  0  0  0  0  0
    1.9448    4.0903   -2.8284 C   0  0  0  0  0  0  0  0  0  0  0  0
    1.4733    5.4011   -2.7592 C   0  0  0  0  0  0  0  0  0  0  0  0
   -3.5823    1.2789   -0.5497 O   0  0  0  0  0  0  0  0  0  0  0  0
   -3.7772    0.0522   -2.4206 O   0  0  0  0  0  0  0  0  0  0  0  0
    1.0823    0.3673    0.1605 O   0  0  0  0  0  0  0  0  0  0  0  0
    0.0554    2.3391    0.3443 O   0  0  0  0  0  0  0  0  0  0  0  0
  1  2  1  0
  1 12  2  0
  1 13  1  0
  3  5  1  1
  3  4  1  0
  3  2  1  0
  4 14  2  0
  4 15  1  0
  5  6  1  0
  6  7  2  0
  6  8  1  0
  7  9  1  0
  8 10  2  0
  9 11  2  0
 10 11  1  0
M  END
>  <DRUGBANK_ID>  (1) 
DB07506

>  <COMMON_NAME>  (1) 
L-BENZYLSUCCINIC ACID

$$$$
