244
     RDKit          3D

 11 11  0  0  0  0  0  0  0  0999 V2000
    2.7429    0.1894    0.1144 O   0  0  0  0  0  0  0  0  0  0  0  0
    2.6857   -2.7283    0.0198 O   0  0  0  0  0  0  0  0  0  0  0  0
    0.6391   -3.6038    0.0239 O   0  0  0  0  0  0  0  0  0  0  0  0
   -2.8149   -0.0066   -0.0108 N   0  0  0  0  0  0  0  0  0  0  0  0
    0.7263   -1.2292    0.0325 C   0  0  0  0  0  0  0  0  0  0  0  0
   -1.4327   -0.0121    0.0027 C   0  0  0  0  0  0  0  0  0  0  0  0
   -0.6963   -1.2052    0.0110 C   0  0  0  0  0  0  0  0  0  0  0  0
    1.3910    0.0023    0.0449 C   0  0  0  0  0  0  0  0  0  0  0  0
   -0.7367    1.1899    0.0090 C   0  0  0  0  0  0  0  0  0  0  0  0
    0.6584    1.1971    0.0363 C   0  0  0  0  0  0  0  0  0  0  0  0
    1.3447   -2.5966    0.0477 C   0  0  0  0  0  0  0  0  0  0  0  0
  1  8  1  0
  2 11  1  0
  3 11  2  0
  4  6  1  0
  5  7  2  0
  5  8  1  0
  5 11  1  0
  6  7  1  0
  6  9  2  0
  8 10  2  0
  9 10  1  0
M  END
>  <DRUGBANK_ID>  (1) 
DB00244

>  <SECONDARY_ACCESSION_NUMBERS>  (1) 
APRD01098; DB05376; DB06396

>  <COMMON_NAME>  (1) 
Mesalazine

>  <CAS_NUMBER>  (1) 
89-57-6

>  <UNII>  (1) 
4Q81I59GXC

>  <SYNONYMS>  (1) 
3-carboxy-4-hydroxyaniline; 5-aminosalicylic acid; 5-ASA; m-Aminosalicylic acid; Mesalamine; Mesalazina; MÃ©salazine; Mesalazine; Mesalazinum; p-Aminosalicylsaeure

$$$$
