FR0
     RDKit          3D

 25 28  0  0  0  0  0  0  0  0999 V2000
   -1.5549    1.1302    0.0127 N   0  0  0  0  0  0  0  0  0  0  0  0
   -0.2595    0.6845    0.0007 C   0  0  0  0  0  0  0  0  0  0  0  0
   -0.2086   -0.7042    0.0005 C   0  0  0  0  0  0  0  0  0  0  0  0
   -1.5298   -1.0806   -0.0043 N   0  0  0  0  0  0  0  0  0  0  0  0
   -2.3008    0.0561    0.0219 C   0  0  0  0  0  0  0  0  0  0  0  0
    0.9327    1.4193   -0.0067 C   0  0  0  0  0  0  0  0  0  0  0  0
    2.1476    0.7258   -0.0136 C   0  0  0  0  0  0  0  0  0  0  0  0
    2.1723   -0.6715   -0.0034 C   0  0  0  0  0  0  0  0  0  0  0  0
    0.9895   -1.4240    0.0044 C   0  0  0  0  0  0  0  0  0  0  0  0
   -3.6416   -0.0232    0.0652 N   0  0  0  0  0  0  0  0  0  0  0  0
   -4.4477    1.1922   -0.0338 C   0  0  0  0  0  0  0  0  0  0  0  0
   -5.3499    1.2193   -1.2447 C   0  0  0  0  0  0  0  0  0  0  0  0
   -5.7663    2.6972   -2.0247 S   0  0  0  0  0  0  0  0  0  0  0  0
   -6.7308    1.8956   -3.1813 C   0  0  0  0  0  0  0  0  0  0  0  0
   -6.7445    0.5336   -2.9869 C   0  0  0  0  0  0  0  0  0  0  0  0
   -5.9312    0.1436   -1.8889 C   0  0  0  0  0  0  0  0  0  0  0  0
   -7.4731    2.5388   -4.3078 C   0  0  0  0  0  0  0  0  0  0  0  0
   -8.8069    2.2588   -4.5273 N   0  0  0  0  0  0  0  0  0  0  0  0
   -9.2625    2.8889   -5.5986 C   0  0  0  0  0  0  0  0  0  0  0  0
   -8.0290    3.7504   -6.4624 S   0  0  0  0  0  0  0  0  0  0  0  0
   -6.8751    3.3240   -5.2650 C   0  0  0  0  0  0  0  0  0  0  0  0
  -10.5394    2.9034   -6.0883 N   0  0  0  0  0  0  0  0  0  0  0  0
  -11.4602    2.3217   -5.3938 C   0  0  0  0  0  0  0  0  0  0  0  0
  -11.3239    1.6876   -4.2086 N   0  0  0  0  0  0  0  0  0  0  0  0
  -12.7449    2.2857   -5.8132 N   0  0  0  0  0  0  0  0  0  0  0  0
  1  2  1  0
  1  5  2  0
  2  3  2  0
  2  6  1  0
  3  4  1  0
  3  9  1  0
  4  5  1  0
  5 10  1  0
  6  7  2  0
  7  8  1  0
  8  9  2  0
 10 11  1  0
 11 12  1  0
 12 13  1  0
 12 16  2  0
 13 14  1  0
 14 15  2  0
 14 17  1  0
 15 16  1  0
 17 18  1  0
 17 21  2  0
 18 19  2  0
 19 20  1  0
 19 22  1  0
 20 21  1  0
 22 23  2  3
 23 24  1  0
 23 25  1  0
M  END
>  <DRUGBANK_ID>  (1) 
DB02616

>  <SECONDARY_ACCESSION_NUMBERS>  (1) 
EXPT01481

>  <COMMON_NAME>  (1) 
FR117016

$$$$
