
     RDKit          3D

 24 27  0  0  1  0  0  0  0  0999 V2000
   -2.1005   -0.6640   -1.4192 C   0  0  2  0  0  0  0  0  0  0  0  0
   -2.3103   -2.1143   -2.6449 C   0  0  0  0  0  0  0  0  0  0  0  0
   -1.4969   -2.8990   -1.7015 C   0  0  2  0  0  0  0  0  0  0  0  0
   -2.3072   -2.7418    0.0839 C   0  0  0  0  0  0  0  0  0  0  0  0
   -2.3060   -1.3543   -0.1720 C   0  0  1  0  0  0  0  0  0  0  0  0
   -0.4476   -1.9687   -0.0413 C   0  0  0  0  0  0  0  0  0  0  0  0
    0.4784   -2.0608   -1.4554 C   0  0  0  0  0  0  0  0  0  0  0  0
   -0.4153   -1.8185   -2.5824 C   0  0  1  0  0  0  0  0  0  0  0  0
   -0.3247   -2.2453   -3.9837 O   0  0  0  0  0  0  0  0  0  0  0  0
   -0.3148   -0.1920   -2.8649 C   0  0  0  0  0  0  0  0  0  0  0  0
    0.4184    0.5691   -1.8943 O   0  0  0  0  0  0  0  0  0  0  0  0
   -3.6325   -1.7257   -1.2084 C   0  0  2  0  0  0  0  0  0  0  0  0
   -4.8996   -1.5527   -0.5072 C   0  0  0  0  0  0  0  0  0  0  0  0
   -4.2007   -3.4461   -1.3443 C   0  0  0  0  0  0  0  0  0  0  0  0
   -5.3491   -3.5405   -2.2842 C   0  0  0  0  0  0  0  0  0  0  0  0
   -5.4820   -2.3222   -3.3269 C   0  0  1  0  0  0  0  0  0  0  0  0
   -6.4417   -2.8193   -4.2764 O   0  0  0  0  0  0  0  0  0  0  0  0
   -5.6253   -0.5400   -2.7974 C   0  0  1  0  0  0  0  0  0  0  0  0
   -7.0822   -0.3845   -3.1168 C   0  0  0  0  0  0  0  0  0  0  0  0
   -6.1562    0.5034   -1.3259 C   0  0  0  0  0  0  0  0  0  0  0  0
   -5.7946    0.6458    0.0967 O   0  0  0  0  0  0  0  0  0  0  0  0
   -4.0993   -0.2350   -2.4035 C   0  0  1  0  0  0  0  0  0  0  0  0
   -3.6856    1.1524   -1.5394 C   0  0  0  0  0  0  0  0  0  0  0  0
   -2.2628    0.9586   -1.3443 C   0  0  0  0  0  0  0  0  0  0  0  0
  1  2  1  6
  1 24  1  0
  3  2  1  6
  3  4  1  0
  3  8  1  0
  5  4  1  0
  5  1  1  0
  5  6  1  1
  5 12  1  0
  6  7  1  0
  8  7  1  0
  8  9  1  6
  8 10  1  0
 10 11  1  0
 12 14  1  0
 12 22  1  0
 12 13  1  1
 14 15  1  0
 16 15  1  0
 16 17  1  1
 18 16  1  0
 18 19  1  6
 18 20  1  0
 20 21  1  0
 22 18  1  0
 22 23  1  1
 23 24  1  0
M  END
>  <DRUGBANK_ID>  (1) 
DB17742

>  <COMMON_NAME>  (1) 
Aphidicolin

>  <CAS_NUMBER>  (1) 
38966-21-1

>  <UNII>  (1) 
192TJ6PP19

>  <SYNONYMS>  (1) 
(+)-aphidicolin; 8,11a-methano-11ah-cyclohepta(a)naphthalene-4,9-dimethanol, tetradecahydro-3,9-dihydroxy-4,11b-dimethyl-, (3r,4r,4ar,6as,8r,9r,11as,11bs)-; 9,15-cyclo-c,18-dinor-14,15-secoandrostane-4,17-dimethanol, 3,17-dihydroxy-4-methyl-, (3.alpha.,4.alpha.,5.alpha.,17.alpha.)-

$$$$
