
     RDKit          3D

 28 30  0  0  0  0  0  0  0  0999 V2000
   -1.9973   -0.4606    0.1362 Cl  0  0  0  0  0  0  0  0  0  0  0  0
    4.4690    3.5814    0.0609 O   0  0  0  0  0  0  0  0  0  0  0  0
   -3.2512    4.8004    1.8593 O   0  0  0  0  0  0  0  0  0  0  0  0
   -3.4133    2.9107   -2.8125 O   0  0  0  0  0  0  0  0  0  0  0  0
    2.6206    2.2740    0.0626 N   0  0  0  0  0  0  0  0  0  0  0  0
   -0.0316    3.3661    1.2699 N   0  0  0  0  0  0  0  0  0  0  0  0
   -3.1251    3.5356   -0.0257 N   0  0  0  0  0  0  0  0  0  0  0  0
    0.4238    1.1769    0.0185 C   0  0  0  0  0  0  0  0  0  0  0  0
    1.8152    1.0971    0.1336 C   0  0  0  0  0  0  0  0  0  0  0  0
   -0.3084   -0.0733   -0.0091 C   0  0  0  0  0  0  0  0  0  0  0  0
   -0.0218    2.6176    0.0188 C   0  0  0  0  0  0  0  0  0  0  0  0
    2.3574   -0.1537    0.3715 C   0  0  0  0  0  0  0  0  0  0  0  0
    3.9789    2.4431   -0.0149 C   0  0  0  0  0  0  0  0  0  0  0  0
    0.3544   -1.3006   -0.0625 C   0  0  0  0  0  0  0  0  0  0  0  0
    4.8744    1.2912   -0.1941 C   0  0  0  0  0  0  0  0  0  0  0  0
   -2.5260    4.2265    1.0350 C   0  0  0  0  0  0  0  0  0  0  0  0
    1.7012   -1.3394    0.1184 C   0  0  0  0  0  0  0  0  0  0  0  0
   -0.9611    4.5274    1.1126 C   0  0  0  0  0  0  0  0  0  0  0  0
    4.5991    0.3310   -1.1826 C   0  0  0  0  0  0  0  0  0  0  0  0
    5.8846    1.0725    0.7438 C   0  0  0  0  0  0  0  0  0  0  0  0
   -2.8320    2.2322   -0.6019 C   0  0  0  0  0  0  0  0  0  0  0  0
   -4.2701    4.0513   -0.7313 C   0  0  0  0  0  0  0  0  0  0  0  0
   -0.4379    2.5812    2.4336 C   0  0  0  0  0  0  0  0  0  0  0  0
   -2.3107    2.4117   -2.0500 C   0  0  0  0  0  0  0  0  0  0  0  0
   -3.8868    4.1542   -2.2332 C   0  0  0  0  0  0  0  0  0  0  0  0
    5.2159   -0.9169   -1.1173 C   0  0  0  0  0  0  0  0  0  0  0  0
    6.6205   -0.1099    0.6803 C   0  0  0  0  0  0  0  0  0  0  0  0
    6.2445   -1.1265   -0.2029 C   0  0  0  0  0  0  0  0  0  0  0  0
  1 10  1  0
  2 13  2  0
  3 16  2  0
  4 24  1  0
  4 25  1  0
  5  9  1  0
  5 13  1  0
  6 11  1  0
  6 18  1  0
  6 23  1  0
  7 16  1  0
  7 21  1  0
  7 22  1  0
  8  9  1  0
  8 10  2  0
  8 11  1  0
  9 12  2  0
 10 14  1  0
 12 17  1  0
 13 15  1  0
 14 17  2  0
 15 19  2  0
 15 20  1  0
 16 18  1  0
 19 26  1  0
 20 27  2  0
 21 24  1  0
 22 25  1  0
 26 28  2  0
 27 28  1  0
M  END
>  <DRUGBANK_ID>  (1) 
DB08968

>  <COMMON_NAME>  (1) 
Fominoben

>  <CAS_NUMBER>  (1) 
18053-31-1

>  <UNII>  (1) 
TJ2KK6NYJS

>  <SYNONYMS>  (1) 
Fominoben; Fominobene; Fominobenum

$$$$
