
     RDKit          3D

 15 16  0  0  0  0  0  0  0  0999 V2000
    0.0082   -0.6961    0.0307 C   0  0  0  0  0  0  0  0  0  0  0  0
    1.3029   -1.2762   -0.0074 C   0  0  0  0  0  0  0  0  0  0  0  0
   -0.0540    0.7317    0.0353 C   0  0  0  0  0  0  0  0  0  0  0  0
   -1.2235   -1.3977    0.0260 C   0  0  0  0  0  0  0  0  0  0  0  0
    1.4754   -2.7109    0.0181 O   0  0  0  0  0  0  0  0  0  0  0  0
    2.4126   -0.4428   -0.1027 C   0  0  0  0  0  0  0  0  0  0  0  0
    1.1023    1.5173    0.0515 C   0  0  0  0  0  0  0  0  0  0  0  0
   -1.2761    1.3986    0.0092 C   0  0  0  0  0  0  0  0  0  0  0  0
   -2.4447   -0.7058    0.0007 C   0  0  0  0  0  0  0  0  0  0  0  0
    2.5977   -3.6069    0.0232 C   0  0  0  0  0  0  0  0  0  0  0  0
    2.3363    0.9267   -0.0145 C   0  0  0  0  0  0  0  0  0  0  0  0
   -2.4674    0.6869   -0.0102 C   0  0  0  0  0  0  0  0  0  0  0  0
    3.8421   -3.0428    0.0198 N   0  0  0  0  0  0  0  0  0  0  0  0
    2.4224   -4.8287    0.0333 O   0  0  0  0  0  0  0  0  0  0  0  0
    5.1142   -3.6959   -0.0174 C   0  0  0  0  0  0  0  0  0  0  0  0
  1  2  2  0
  1  3  1  0
  1  4  1  0
  2  5  1  0
  2  6  1  0
  3  7  2  0
  3  8  1  0
  4  9  2  0
  5 10  1  0
  6 11  2  0
  7 11  1  0
  8 12  2  0
  9 12  1  0
 10 13  1  0
 10 14  2  0
 13 15  1  0
M  END
>  <DRUGBANK_ID>  (1) 
DB15930

>  <COMMON_NAME>  (1) 
Carbaryl

>  <CAS_NUMBER>  (1) 
63-25-2

>  <UNII>  (1) 
R890C8J3N1

>  <SYNONYMS>  (1) 
Carbaril; Carbarilo; Carbarilum; Karbaryl

$$$$
