
     RDKit          3D

  7  6  0  0  0  0  0  0  0  0999 V2000
   -2.9079   -0.2956   -2.1368 C   0  0  0  0  0  0  0  0  0  0  0  0
   -1.5733   -0.1156   -1.4223 C   0  0  1  0  0  0  0  0  0  0  0  0
   -1.6900    0.9873   -0.5177 O   0  0  0  0  0  0  0  0  0  0  0  0
   -1.0559   -1.3671   -0.6404 C   0  0  2  0  0  0  0  0  0  0  0  0
    0.4277   -1.3237   -0.5461 N   0  0  0  0  0  0  0  0  0  0  0  0
   -1.5447   -2.6993   -1.2505 C   0  0  0  0  0  0  0  0  0  0  0  0
   -1.1222   -3.8407   -0.5117 O   0  0  0  0  0  0  0  0  0  0  0  0
  2  1  1  1
  2  3  1  0
  4  6  1  0
  4  5  1  6
  4  2  1  0
  6  7  1  0
M  END
>  <DRUGBANK_ID>  (1) 
DB01724

>  <SECONDARY_ACCESSION_NUMBERS>  (1) 
EXPT03054

>  <COMMON_NAME>  (1) 
L-Threoninol

>  <CAS_NUMBER>  (1) 
3228-51-1

>  <UNII>  (1) 
A16V466XOD

$$$$
