COG
     RDKit          3D

 25 27  0  0  0  0  0  0  0  0999 V2000
    2.3530    0.6761   -0.0193 C   0  0  0  0  0  0  0  0  0  0  0  0
    1.2881   -1.3382    0.0074 C   0  0  0  0  0  0  0  0  0  0  0  0
    0.0539   -0.6977    0.0846 C   0  0  0  0  0  0  0  0  0  0  0  0
   -1.1740   -1.3756    0.1272 C   0  0  0  0  0  0  0  0  0  0  0  0
   -2.4078   -0.7482   -0.0171 C   0  0  0  0  0  0  0  0  0  0  0  0
   -2.3493    0.6448   -0.1357 C   0  0  0  0  0  0  0  0  0  0  0  0
    0.0764    0.6967    0.0839 C   0  0  0  0  0  0  0  0  0  0  0  0
   -4.0974   -6.8381    1.7540 C   0  0  0  0  0  0  0  0  0  0  0  0
   -3.6576   -2.9037    0.3174 C   0  0  0  0  0  0  0  0  0  0  0  0
   -4.8619   -0.7637   -0.2567 C   0  0  0  0  0  0  0  0  0  0  0  0
   -4.3399   -3.1913    1.6426 C   0  0  0  0  0  0  0  0  0  0  0  0
   -4.5007   -4.5138    2.0883 C   0  0  0  0  0  0  0  0  0  0  0  0
   -5.2299   -4.7504    3.2571 C   0  0  0  0  0  0  0  0  0  0  0  0
   -5.9151   -3.7058    3.8896 C   0  0  0  0  0  0  0  0  0  0  0  0
   -5.7530   -2.3961    3.4608 C   0  0  0  0  0  0  0  0  0  0  0  0
   -6.4053   -0.1154    3.5582 C   0  0  0  0  0  0  0  0  0  0  0  0
   -4.8660   -2.1523    2.4261 C   0  0  0  0  0  0  0  0  0  0  0  0
    1.2196    1.3804    0.0706 N   0  0  0  0  0  0  0  0  0  0  0  0
    3.5159    1.3771   -0.1025 N   0  0  0  0  0  0  0  0  0  0  0  0
    2.4358   -0.6608   -0.0571 N   0  0  0  0  0  0  0  0  0  0  0  0
    1.3913   -2.7211    0.0005 N   0  0  0  0  0  0  0  0  0  0  0  0
   -1.1465    1.3477    0.0388 C   0  0  0  0  0  0  0  0  0  0  0  0
   -3.9141   -5.4916    1.3252 O   0  0  0  0  0  0  0  0  0  0  0  0
   -6.4937   -1.4371    4.0942 O   0  0  0  0  0  0  0  0  0  0  0  0
   -3.5931   -1.4655   -0.0481 N   0  0  0  0  0  0  0  0  0  0  0  0
  1 18  2  0
  1 19  1  0
  1 20  1  0
  2  3  1  0
  2 20  2  0
  2 21  1  0
  3  4  1  0
  3  7  2  0
  4  5  2  0
  5  6  1  0
  5 25  1  0
  6 22  2  0
  7 18  1  0
  7 22  1  0
  8 23  1  0
  9 11  1  0
  9 25  1  0
 10 25  1  0
 11 12  2  0
 11 17  1  0
 12 13  1  0
 12 23  1  0
 13 14  2  0
 14 15  1  0
 15 17  2  0
 15 24  1  0
 16 24  1  0
M  END
>  <DRUGBANK_ID>  (1) 
DB02427

>  <SECONDARY_ACCESSION_NUMBERS>  (1) 
EXPT00983

>  <COMMON_NAME>  (1) 
2,4-Diamino-6-[N-(2',5'-Dimethoxybenzyl)-N-Methylamino]Quinazoline

$$$$
