
     RDKit          3D

 12 11  0  0  0  0  0  0  0  0999 V2000
    0.5534   -0.0088   -0.0520 C   0  0  0  0  0  0  0  0  0  0  0  0
    0.1078   -0.4218   -1.4262 C   0  0  0  0  0  0  0  0  0  0  0  0
    0.8815   -1.6891   -1.9018 N   0  0  0  0  0  0  0  0  0  0  0  0
    0.4807   -2.8064   -0.9396 C   0  0  0  0  0  0  0  0  0  0  0  0
    0.4090   -2.0244   -3.3006 C   0  0  0  0  0  0  0  0  0  0  0  0
    2.4591   -1.6208   -1.8916 C   0  0  0  0  0  0  0  0  0  0  0  0
    3.0817   -0.5443   -2.7803 C   0  0  0  0  0  0  0  0  0  0  0  0
    2.8673    0.8996   -2.3614 C   0  0  0  0  0  0  0  0  0  0  0  0
    3.6093    1.4061   -0.7996 S   0  0  0  0  0  0  0  0  0  0  0  0
    4.9837    1.6407   -1.1711 O   0  0  0  0  0  0  0  0  0  0  0  0
    2.7871    2.5800   -0.4796 O   0  0  0  0  0  0  0  0  0  0  0  0
    3.4673    0.3069    0.1498 O   0  0  0  0  0  0  0  0  0  0  0  0
  1  2  1  0
  2  3  1  0
  3  4  1  0
  3  5  1  0
  3  6  1  0
  6  7  1  0
  7  8  1  0
  8  9  1  0
  9 10  1  0
  9 11  2  0
  9 12  2  0
M  CHG  2   3   1  10  -1
M  END
>  <DRUGBANK_ID>  (1) 
DB02618

>  <SECONDARY_ACCESSION_NUMBERS>  (1) 
EXPT02323

>  <COMMON_NAME>  (1) 
Ethyl Dimethyl Ammonio Propane Sulfonate

$$$$
