
     RDKit          3D

 23 25  0  0  0  0  0  0  0  0999 V2000
    2.2802    2.5820    2.9659 O   0  0  0  0  0  0  0  0  0  0  0  0
    1.9570    1.3907    1.6042 C   0  0  1  0  0  0  0  0  0  0  0  0
    0.2322    1.8417    1.3684 C   0  0  2  0  0  0  0  0  0  0  0  0
   -0.1877    3.2426    1.0461 O   0  0  0  0  0  0  0  0  0  0  0  0
   -0.0305    4.1180    2.1473 C   0  0  0  0  0  0  0  0  0  0  0  0
   -0.6686    3.7383    3.4301 C   0  0  0  0  0  0  0  0  0  0  0  0
   -0.3814    2.3097    3.7464 N   0  0  0  0  0  0  0  0  0  0  0  0
   -0.6116    1.4771    2.5463 C   0  0  0  0  0  0  0  0  0  0  0  0
    3.2573    1.5040    0.0128 C   0  0  0  0  0  0  0  0  0  0  0  0
    2.9287    1.0121   -1.1387 C   0  0  0  0  0  0  0  0  0  0  0  0
    3.7285    1.6672   -2.0930 C   0  0  0  0  0  0  0  0  0  0  0  0
    4.8566    2.7259   -1.9433 C   0  0  0  0  0  0  0  0  0  0  0  0
    5.1973    3.4830   -0.8891 C   0  0  0  0  0  0  0  0  0  0  0  0
    4.4013    2.9479   -0.0035 C   0  0  0  0  0  0  0  0  0  0  0  0
    2.7866    4.1417    2.8254 C   0  0  0  0  0  0  0  0  0  0  0  0
    2.5729    4.9232    1.6228 C   0  0  0  0  0  0  0  0  0  0  0  0
    2.4331    4.4385    0.4135 O   0  0  0  0  0  0  0  0  0  0  0  0
    2.3882    3.1512    0.7364 C   0  0  0  0  0  0  0  0  0  0  0  0
    3.9167    2.0831    1.8213 C   0  0  0  0  0  0  0  0  0  0  0  0
    2.1396    6.2273    1.5195 C   0  0  0  0  0  0  0  0  0  0  0  0
    2.0515    6.8990    2.6864 C   0  0  0  0  0  0  0  0  0  0  0  0
    2.3568    6.2290    3.8932 C   0  0  0  0  0  0  0  0  0  0  0  0
    2.7661    4.8680    3.9875 C   0  0  0  0  0  0  0  0  0  0  0  0
  2  1  1  1
  2  9  1  0
  3  4  1  0
  3  2  1  0
  5  4  1  0
  6  5  1  0
  6  7  1  0
  7  8  1  0
  3  8  1  1
 10  9  2  0
 11 10  1  0
 12 11  2  0
 12 13  1  0
 13 14  2  0
 14  9  1  0
 15  1  1  0
 16 15  2  0
 17 16  1  0
 18 17  1  0
 19 18  1  0
 20 16  1  0
 21 20  2  0
 21 22  1  0
 22 23  2  0
 23 15  1  0
M  END
>  <DRUGBANK_ID>  (1) 
DB00234

>  <SECONDARY_ACCESSION_NUMBERS>  (1) 
APRD00198

>  <COMMON_NAME>  (1) 
Reboxetine

>  <CAS_NUMBER>  (1) 
71620-89-8

>  <UNII>  (1) 
947S0YZ36I

>  <SYNONYMS>  (1) 
Reboxetina; Reboxetine

$$$$
