1483
     RDKit          3D

 13 13  0  0  0  0  0  0  0  0999 V2000
   -2.4325   -1.0927   -0.1114 O   0  0  0  0  0  0  0  0  0  0  0  0
    2.3702   -1.2299    0.0886 O   0  0  0  0  0  0  0  0  0  0  0  0
    0.0472    2.6191   -0.0062 O   0  0  0  0  0  0  0  0  0  0  0  0
   -1.1403    0.7086    0.0339 N   0  0  0  0  0  0  0  0  0  0  0  0
    1.1668    0.6600   -0.0183 N   0  0  0  0  0  0  0  0  0  0  0  0
   -0.0337   -1.4986   -0.0833 C   0  0  0  0  0  0  0  0  0  0  0  0
   -0.0463   -2.5046    1.0970 C   0  0  0  0  0  0  0  0  0  0  0  0
   -0.0105   -2.2307   -1.4492 C   0  0  0  0  0  0  0  0  0  0  0  0
   -1.2911   -0.6395   -0.0300 C   0  0  0  0  0  0  0  0  0  0  0  0
    1.2604   -0.7002    0.0255 C   0  0  0  0  0  0  0  0  0  0  0  0
   -1.2392   -3.4540    1.1208 C   0  0  0  0  0  0  0  0  0  0  0  0
    0.0507   -1.2696   -2.6323 C   0  0  0  0  0  0  0  0  0  0  0  0
    0.0266    1.3965   -0.0001 C   0  0  0  0  0  0  0  0  0  0  0  0
  1  9  2  0
  2 10  2  0
  3 13  2  0
  4  9  1  0
  4 13  1  0
  5 10  1  0
  5 13  1  0
  6  7  1  0
  6  8  1  0
  6  9  1  0
  6 10  1  0
  7 11  1  0
  8 12  1  0
M  END
>  <DRUGBANK_ID>  (1) 
DB01483

>  <COMMON_NAME>  (1) 
Barbital

>  <CAS_NUMBER>  (1) 
57-44-3

>  <UNII>  (1) 
5WZ53ENE2P

>  <SYNONYMS>  (1) 
Barbital

$$$$
