KOM
     RDKit          3D

 19 21  0  0  0  0  0  0  0  0999 V2000
    0.8728    0.0176    0.0615 O   0  0  0  0  0  0  0  0  0  0  0  0
    2.1075    0.0251    0.0962 C   0  0  0  0  0  0  0  0  0  0  0  0
    2.8406    1.1923    0.1764 O   0  0  0  0  0  0  0  0  0  0  0  0
    4.2459    1.1609    0.1245 C   0  0  0  0  0  0  0  0  0  0  0  0
    4.9433    2.3613    0.1003 C   0  0  0  0  0  0  0  0  0  0  0  0
    4.2961    3.5440    0.3165 O   0  0  0  0  0  0  0  0  0  0  0  0
    6.3154    2.3524   -0.1472 C   0  0  0  0  0  0  0  0  0  0  0  0
    6.9786    3.5452   -0.2035 O   0  0  0  0  0  0  0  0  0  0  0  0
    6.9994    1.1560   -0.3110 C   0  0  0  0  0  0  0  0  0  0  0  0
    2.8492   -1.2408    0.0759 C   0  0  0  0  0  0  0  0  0  0  0  0
    4.1902   -1.3062    0.0790 C   0  0  0  0  0  0  0  0  0  0  0  0
    4.9330   -0.0473    0.0667 C   0  0  0  0  0  0  0  0  0  0  0  0
    6.3266   -0.0367   -0.0812 C   0  0  0  0  0  0  0  0  0  0  0  0
    4.8041   -2.6432    0.0782 C   0  0  0  0  0  0  0  0  0  0  0  0
    4.6527   -3.5019   -1.0151 C   0  0  0  0  0  0  0  0  0  0  0  0
    5.2711   -4.7495   -1.0044 C   0  0  0  0  0  0  0  0  0  0  0  0
    5.9165   -5.1935    0.1494 C   0  0  0  0  0  0  0  0  0  0  0  0
    6.0209   -4.3596    1.2599 C   0  0  0  0  0  0  0  0  0  0  0  0
    5.5664   -3.0494    1.1794 C   0  0  0  0  0  0  0  0  0  0  0  0
  1  2  2  0
  2  3  1  0
  2 10  1  0
  3  4  1  0
  4  5  2  0
  4 12  1  0
  5  6  1  0
  5  7  1  0
  7  8  1  0
  7  9  2  0
  9 13  1  0
 10 11  2  0
 11 12  1  0
 11 14  1  0
 12 13  2  0
 14 15  2  0
 14 19  1  0
 15 16  1  0
 16 17  2  0
 17 18  1  0
 18 19  2  0
M  END
>  <DRUGBANK_ID>  (1) 
DB08049

>  <COMMON_NAME>  (1) 
7,8-dihydroxy-4-phenyl-2H-chromen-2-one

$$$$
