
     RDKit          3D

 12 12  0  0  0  0  0  0  0  0999 V2000
    1.0150    0.4375   -0.2891 O   0  0  0  0  0  0  0  0  0  0  0  0
    5.0287   -2.1963   -0.0435 O   0  0  0  0  0  0  0  0  0  0  0  0
    3.0542    1.3214   -0.0468 N   0  0  0  0  0  0  0  0  0  0  0  0
    2.8577   -1.1323   -0.0526 C   0  0  0  0  0  0  0  0  0  0  0  0
    2.2260    0.2482   -0.1364 C   0  0  0  0  0  0  0  0  0  0  0  0
    4.3751   -1.1502   -0.0398 C   0  0  0  0  0  0  0  0  0  0  0  0
    2.4678   -1.7384    1.3152 C   0  0  0  0  0  0  0  0  0  0  0  0
    2.4170   -1.9007   -1.3193 C   0  0  0  0  0  0  0  0  0  0  0  0
    5.1010    0.1265   -0.0299 C   0  0  0  0  0  0  0  0  0  0  0  0
    4.4152    1.2678   -0.0280 C   0  0  0  0  0  0  0  0  0  0  0  0
    2.9758   -1.2339   -2.5893 C   0  0  0  0  0  0  0  0  0  0  0  0
    0.9758   -1.8751    1.5499 C   0  0  0  0  0  0  0  0  0  0  0  0
  1  5  2  0
  2  6  2  0
  3  5  1  0
  3 10  1  0
  4  5  1  0
  4  6  1  0
  4  7  1  0
  4  8  1  0
  6  9  1  0
  7 12  1  0
  8 11  1  0
  9 10  2  0
M  END
>  <DRUGBANK_ID>  (1) 
DB13331

>  <COMMON_NAME>  (1) 
Pyrithyldione

>  <CAS_NUMBER>  (1) 
77-04-3

>  <UNII>  (1) 
8AB20823CK

>  <SYNONYMS>  (1) 
Pyrithyldiona; Pyrithyldione; Pyrithyldionum

$$$$
