
     RDKit          3D

 21 20  0  0  0  0  0  0  0  0999 V2000
    1.0532   -0.1340    0.0318 C   0  0  0  0  0  0  0  0  0  0  0  0
    0.6087   -0.4486    1.4519 C   0  0  0  0  0  0  0  0  0  0  0  0
    1.1012    0.6194    2.4326 C   0  0  0  0  0  0  0  0  0  0  0  0
    0.5536    2.0018    2.0888 C   0  0  0  0  0  0  0  0  0  0  0  0
   -0.9653    1.9889    2.0248 C   0  0  0  0  0  0  0  0  0  0  0  0
   -1.5443    1.7021    3.3795 C   0  0  0  0  0  0  0  0  0  0  0  0
   -2.3025    2.5729    4.0432 C   0  0  0  0  0  0  0  0  0  0  0  0
   -2.6676    3.8876    3.4687 C   0  0  0  0  0  0  0  0  0  0  0  0
   -4.1410    4.0147    3.4026 C   0  0  0  0  0  0  0  0  0  0  0  0
   -4.7868    4.9998    4.0216 C   0  0  0  0  0  0  0  0  0  0  0  0
   -4.0798    6.0814    4.7841 C   0  0  0  0  0  0  0  0  0  0  0  0
   -4.3332    7.4264    4.1249 C   0  0  0  0  0  0  0  0  0  0  0  0
   -5.8154    7.7771    4.1988 C   0  0  0  0  0  0  0  0  0  0  0  0
   -6.2993    7.7670    5.6551 C   0  0  0  0  0  0  0  0  0  0  0  0
   -5.5429    8.8033    6.4933 C   0  0  0  0  0  0  0  0  0  0  0  0
   -5.7711   10.2167    5.9477 C   0  0  0  0  0  0  0  0  0  0  0  0
   -7.2616   10.5872    5.9233 C   0  0  0  0  0  0  0  0  0  0  0  0
   -7.8172   10.5112    7.2301 O   0  0  0  0  0  0  0  0  0  0  0  0
   -7.4288   11.9818    5.3221 C   0  0  0  0  0  0  0  0  0  0  0  0
   -8.2001   12.0235    4.2087 O   0  0  0  0  0  0  0  0  0  0  0  0
   -6.9002   12.9932    5.7764 O   0  0  0  0  0  0  0  0  0  0  0  0
  1  2  1  0
  2  3  1  0
  3  4  1  0
  4  5  1  0
  5  6  1  0
  6  7  2  0
  7  8  1  0
  8  9  1  0
  9 10  2  0
 10 11  1  0
 11 12  1  0
 12 13  1  0
 13 14  1  0
 14 15  1  0
 15 16  1  0
 16 17  1  0
 17 18  1  0
 17 19  1  0
 19 20  1  0
 19 21  2  0
M  END
>  <DRUGBANK_ID>  (1) 
DB16027

>  <COMMON_NAME>  (1) 
alpha-Hydroxylinoleic acid

>  <CAS_NUMBER>  (1) 
57818-44-7

>  <UNII>  (1) 
0DE74TJ7EZ

>  <SYNONYMS>  (1) 
.ALPHA.-HYDROXYLINOLEIC ACID; (9Z,12Z)-2-HYDROXY-9,12-OCTADECADIENOIC ACID; 9,12-OCTADECADIENOIC ACID, 2-HYDROXY-, (9Z,12Z)-

$$$$
