
     RDKit          3D

 28 30  0  0  0  0  0  0  0  0999 V2000
    0.5198    0.3031   -0.1096 O   0  0  0  0  0  0  0  0  0  0  0  0
    0.4126    1.3862    0.8193 C   0  0  0  0  0  0  0  0  0  0  0  0
    0.9789    1.1770    2.2626 C   0  0  0  0  0  0  0  0  0  0  0  0
    2.4094    0.8322    2.3522 N   0  0  0  0  0  0  0  0  0  0  0  0
    3.0806    0.5549    3.6753 C   0  0  0  0  0  0  0  0  0  0  0  0
    3.1641   -0.8615    4.3831 C   0  0  0  0  0  0  0  0  0  0  0  0
    3.9078   -2.0323    3.6711 C   0  0  0  0  0  0  0  0  0  0  0  0
    4.7321   -2.0481    2.5497 C   0  0  0  0  0  0  0  0  0  0  0  0
    4.7331   -3.3067    2.0002 N   0  0  0  0  0  0  0  0  0  0  0  0
    4.2040   -4.1912    2.8864 C   0  0  0  0  0  0  0  0  0  0  0  0
    3.9518   -5.5504    2.7047 C   0  0  0  0  0  0  0  0  0  0  0  0
    3.4074   -6.2204    3.7879 C   0  0  0  0  0  0  0  0  0  0  0  0
    2.9853   -5.5250    4.9232 C   0  0  0  0  0  0  0  0  0  0  0  0
    3.0496   -4.1299    4.9814 C   0  0  0  0  0  0  0  0  0  0  0  0
    3.7388   -3.4395    3.9745 C   0  0  0  0  0  0  0  0  0  0  0  0
    2.7642   -0.1743    1.3642 C   0  0  0  0  0  0  0  0  0  0  0  0
    1.9674   -1.4923    1.4695 C   0  0  0  0  0  0  0  0  0  0  0  0
    2.2068   -2.5704    0.6329 C   0  0  0  0  0  0  0  0  0  0  0  0
    1.7193   -3.8546    1.0003 C   0  0  0  0  0  0  0  0  0  0  0  0
    0.9539   -4.0912    2.1780 C   0  0  0  0  0  0  0  0  0  0  0  0
    0.6716   -5.4484    2.6998 C   0  0  0  0  0  0  0  0  0  0  0  0
    0.2207   -5.8092    3.9266 C   0  0  0  0  0  0  0  0  0  0  0  0
    0.1744   -7.1495    4.5983 C   0  0  0  0  0  0  0  0  0  0  0  0
   -0.2661   -7.1788    5.7822 O   0  0  0  0  0  0  0  0  0  0  0  0
    0.6060   -8.3027    4.0738 N   0  0  0  0  0  0  0  0  0  0  0  0
    1.3190   -8.5193    2.8911 O   0  0  0  0  0  0  0  0  0  0  0  0
    0.6526   -3.0038    2.9457 C   0  0  0  0  0  0  0  0  0  0  0  0
    1.0911   -1.7574    2.5463 C   0  0  0  0  0  0  0  0  0  0  0  0
  1  2  1  0
  2  3  1  0
  3  4  1  0
  4  5  1  0
  4 16  1  0
  5  6  1  0
  6  7  1  0
  7  8  2  0
  7 15  1  0
  8  9  1  0
  9 10  1  0
 10 11  1  0
 10 15  2  0
 11 12  2  0
 12 13  1  0
 13 14  2  0
 14 15  1  0
 16 17  1  0
 17 18  2  0
 17 28  1  0
 18 19  1  0
 19 20  2  0
 20 21  1  0
 20 27  1  0
 21 22  2  0
 22 23  1  0
 23 24  2  0
 23 25  1  0
 25 26  1  0
 27 28  2  0
M  END
>  <DRUGBANK_ID>  (1) 
DB17034

>  <COMMON_NAME>  (1) 
Dacinostat

>  <CAS_NUMBER>  (1) 
404951-53-7

>  <UNII>  (1) 
V10P524501

>  <SYNONYMS>  (1) 
(2e)-n-hydroxy-3-(4-(((2-hydroxyethyl)(2-(1h-indol-3-yl)ethyl)amino)methyl)phenyl)propenamide

$$$$
