
     RDKit          3D

 22 21  0  0  0  0  0  0  0  0999 V2000
    0.9365   -0.0382    0.0671 Cl  0  0  0  0  0  0  0  0  0  0  0  0
    0.9199    0.0552   -0.0232 Cl  0  0  0  0  0  0  0  0  0  0  0  0
    1.0487    0.0858   -0.0166 C   0  0  0  0  0  0  0  0  0  0  0  0
    0.5420    1.5162    0.0708 C   0  0  0  0  0  0  0  0  0  0  0  0
    1.0320    2.2811   -1.0849 N   0  0  0  0  0  0  0  0  0  0  0  0
    0.5420    3.6644   -1.0004 C   0  0  0  0  0  0  0  0  0  0  0  0
    1.0487    4.3039    0.2821 C   0  0  0  0  0  0  0  0  0  0  0  0
    2.5020    2.2811   -1.0849 C   0  0  0  0  0  0  0  0  0  0  0  0
    3.0087    2.9205    0.1975 C   0  0  0  0  0  0  0  0  0  0  0  0
    2.5020    2.1296    1.3926 C   0  0  0  0  0  0  0  0  0  0  0  0
    2.9920    0.7463    1.3080 N   0  0  0  0  0  0  0  0  0  0  0  0
    3.8371    0.1991    2.3791 C   0  0  0  0  0  0  0  0  0  0  0  0
    4.9970   -0.4468    2.1058 C   0  0  0  0  0  0  0  0  0  0  0  0
    5.8077   -0.8625    3.1812 C   0  0  0  0  0  0  0  0  0  0  0  0
    5.5157   -0.6740    4.4431 N   0  0  0  0  0  0  0  0  0  0  0  0
    4.3476   -0.0368    4.7291 C   0  0  0  0  0  0  0  0  0  0  0  0
    4.0427    0.1809    6.1040 C   0  0  0  0  0  0  0  0  0  0  0  0
    2.8823    0.8564    6.3933 C   0  0  0  0  0  0  0  0  0  0  0  0
    2.4470    1.1735    8.0400 Cl  0  0  0  0  0  0  0  0  0  0  0  0
    2.0028    1.3312    5.3870 C   0  0  0  0  0  0  0  0  0  0  0  0
    2.2905    1.1152    4.0837 C   0  0  0  0  0  0  0  0  0  0  0  0
    3.4671    0.4302    3.7108 C   0  0  0  0  0  0  0  0  0  0  0  0
  3  4  1  0
  4  5  1  0
  5  6  1  0
  5  8  1  0
  6  7  1  0
  8  9  1  0
  9 10  1  0
 10 11  1  0
 11 12  1  0
 12 13  2  0
 12 22  1  0
 13 14  1  0
 14 15  2  0
 15 16  1  0
 16 17  1  0
 16 22  2  0
 17 18  2  0
 18 19  1  0
 18 20  1  0
 20 21  2  0
 21 22  1  0
M  END
>  <DRUGBANK_ID>  (1) 
DB17749

>  <COMMON_NAME>  (1) 
AQ-13

>  <CAS_NUMBER>  (1) 
169815-40-1

>  <UNII>  (1) 
PKT9732S5K

>  <SYNONYMS>  (1) 
1,3-propanediamine, n'-(7-chloro-4-quinolinyl)-n,n-diethyl-, dihydrochloride

$$$$
