
     RDKit          3D

 14 14  0  0  0  0  0  0  0  0999 V2000
    0.9401    0.0899   -0.0680 C   0  0  0  0  0  0  0  0  0  0  0  0
    0.3369    4.7632   -0.4260 C   0  0  0  0  0  0  0  0  0  0  0  0
    2.0673    6.5205    0.1179 C   0  0  0  0  0  0  0  0  0  0  0  0
   -0.0263    3.4320   -0.6585 C   0  0  0  0  0  0  0  0  0  0  0  0
    1.2373    7.5774    0.0571 C   0  0  0  0  0  0  0  0  0  0  0  0
    2.6055    4.0806   -0.0221 C   0  0  0  0  0  0  0  0  0  0  0  0
    1.6566    5.1149   -0.1086 C   0  0  0  0  0  0  0  0  0  0  0  0
    2.2367    2.7438   -0.2482 C   0  0  0  0  0  0  0  0  0  0  0  0
    0.9161    2.4087   -0.5589 C   0  0  0  0  0  0  0  0  0  0  0  0
    1.6173    8.9775    0.2825 C   0  0  0  0  0  0  0  0  0  0  0  0
    3.1941    1.7683   -0.2126 O   0  0  0  0  0  0  0  0  0  0  0  0
    0.8333    9.9127    0.2225 O   0  0  0  0  0  0  0  0  0  0  0  0
    2.9132    9.1565    0.5677 O   0  0  0  0  0  0  0  0  0  0  0  0
    0.4558    1.1583   -0.8769 O   0  0  0  0  0  0  0  0  0  0  0  0
  1 14  1  0
  2  4  2  0
  2  7  1  0
  3  7  1  0
  3  5  2  0
  4  9  1  0
  5 10  1  0
  6  7  2  0
  6  8  1  0
  8  9  2  0
  8 11  1  0
  9 14  1  0
 10 12  2  0
 10 13  1  0
M  END
>  <DRUGBANK_ID>  (1) 
DB07109

>  <COMMON_NAME>  (1) 
Isoferulic acid

>  <CAS_NUMBER>  (1) 
537-73-5

>  <UNII>  (1) 
XSQ2K2G7MC

>  <SYNONYMS>  (1) 
Hesperetic acid; Isoferulic acid

$$$$
