
     RDKit          3D

 21 21  0  0  0  0  0  0  0  0999 V2000
   -0.2254   -0.1383   -0.3722 C   0  0  0  0  0  0  0  0  0  0  0  0
    0.0020   -0.4434    1.0593 O   0  0  0  0  0  0  0  0  0  0  0  0
    0.5067   -1.5577    1.7687 C   0  0  0  0  0  0  0  0  0  0  0  0
    1.8966   -2.0173    1.8917 C   0  0  0  0  0  0  0  0  0  0  0  0
    2.3228   -3.1165    2.6294 C   0  0  0  0  0  0  0  0  0  0  0  0
    1.3082   -3.7107    3.3224 C   0  0  0  0  0  0  0  0  0  0  0  0
    0.0415   -3.2299    3.4064 N   0  0  0  0  0  0  0  0  0  0  0  0
   -0.3285   -2.1620    2.6542 N   0  0  0  0  0  0  0  0  0  0  0  0
   -1.6732   -1.6874    2.7281 C   0  0  0  0  0  0  0  0  0  0  0  0
   -2.2083   -1.3361    3.9569 C   0  0  0  0  0  0  0  0  0  0  0  0
   -3.5500   -0.9660    3.9913 C   0  0  0  0  0  0  0  0  0  0  0  0
   -4.2778   -0.8216    2.8017 C   0  0  0  0  0  0  0  0  0  0  0  0
   -3.6719   -1.0239    1.5675 C   0  0  0  0  0  0  0  0  0  0  0  0
   -2.3946   -1.5471    1.5363 C   0  0  0  0  0  0  0  0  0  0  0  0
    3.5792   -3.6964    2.4286 N   0  0  0  0  0  0  0  0  0  0  0  0
    2.4043    0.3674    0.1719 C   0  0  0  0  0  0  0  0  0  0  0  0
    1.5684    1.4328    0.5914 O   0  0  0  0  0  0  0  0  0  0  0  0
    1.5418    2.0305    2.1172 S   0  0  0  0  0  0  0  0  0  0  0  0
    0.9044    1.0174    2.9657 O   0  0  0  0  0  0  0  0  0  0  0  0
    2.9874    2.1744    2.3851 O   0  0  0  0  0  0  0  0  0  0  0  0
    0.7930    3.2487    1.9880 O   0  0  0  0  0  0  0  0  0  0  0  0
  1  2  1  0
  2  3  1  0
  3  4  2  0
  3  8  1  0
  4  5  1  0
  5  6  2  0
  5 15  1  0
  6  7  1  0
  7  8  2  0
  8  9  1  0
  9 10  2  0
  9 14  1  0
 10 11  1  0
 11 12  2  0
 12 13  1  0
 13 14  2  0
 16 17  1  0
 17 18  1  0
 18 19  2  0
 18 20  2  0
 18 21  1  0
M  CHG  2   8   1  21  -1
M  END
>  <DRUGBANK_ID>  (1) 
DB13330

>  <COMMON_NAME>  (1) 
Amezinium metilsulfate

>  <CAS_NUMBER>  (1) 
30578-37-1

>  <UNII>  (1) 
03NR868ICX

>  <SYNONYMS>  (1) 
Amezinium metilsulfate

$$$$
