
     RDKit          3D

 42 46  0  0  0  0  0  0  0  0999 V2000
    1.0628    0.2865   -0.1240 C   0  0  0  0  0  0  0  0  0  0  0  0
    0.4863   -0.9833   -0.5167 C   0  0  0  0  0  0  0  0  0  0  0  0
    0.9970   -1.7641    0.6391 C   0  0  0  0  0  0  0  0  0  0  0  0
    0.4772   -1.7778    2.0616 C   0  0  0  0  0  0  0  0  0  0  0  0
   -1.0329   -1.9931    2.0307 C   0  0  0  0  0  0  0  0  0  0  0  0
   -1.7200   -0.9146    1.8327 N   0  0  0  0  0  0  0  0  0  0  0  0
   -3.1170   -1.3492    1.8933 C   0  0  0  0  0  0  0  0  0  0  0  0
   -3.8972   -0.7998    0.7114 C   0  0  0  0  0  0  0  0  0  0  0  0
   -5.2189   -0.3872    1.3470 C   0  0  0  0  0  0  0  0  0  0  0  0
   -4.7772    0.2239    2.6691 C   0  0  0  0  0  0  0  0  0  0  0  0
   -3.7471   -0.7793    3.1670 C   0  0  0  0  0  0  0  0  0  0  0  0
   -3.0513   -2.8574    1.9751 C   0  0  0  0  0  0  0  0  0  0  0  0
   -3.9941   -3.6307    2.0518 O   0  0  0  0  0  0  0  0  0  0  0  0
   -1.7284   -3.1615    2.1060 N   0  0  0  0  0  0  0  0  0  0  0  0
   -1.3967   -4.5690    2.4328 C   0  0  0  0  0  0  0  0  0  0  0  0
   -0.6227   -5.2280    1.4078 C   0  0  0  0  0  0  0  0  0  0  0  0
    0.4131   -4.2814    0.7564 C   0  0  0  0  0  0  0  0  0  0  0  0
    1.4861   -5.2042   -0.8066 C   0  0  0  0  0  0  0  0  0  0  0  0
    1.3262   -6.2986   -1.4952 C   0  0  0  0  0  0  0  0  0  0  0  0
    0.2157   -6.9833   -0.8734 C   0  0  0  0  0  0  0  0  0  0  0  0
   -0.7720   -6.6318    0.5665 C   0  0  0  0  0  0  0  0  0  0  0  0
    0.0178   -8.1074   -1.7174 C   0  0  0  0  0  0  0  0  0  0  0  0
    0.2664   -8.9998   -0.6625 O   0  0  0  0  0  0  0  0  0  0  0  0
    1.5323   -8.7485    0.0591 C   0  0  0  0  0  0  0  0  0  0  0  0
    2.7035   -8.8753   -0.8759 C   0  0  0  0  0  0  0  0  0  0  0  0
    2.0873   -6.1821   -2.6844 C   0  0  0  0  0  0  0  0  0  0  0  0
    3.5207   -6.2039   -2.5330 C   0  0  0  0  0  0  0  0  0  0  0  0
    4.2969   -6.3701   -3.6248 C   0  0  0  0  0  0  0  0  0  0  0  0
    3.6389   -6.4134   -4.8407 C   0  0  0  0  0  0  0  0  0  0  0  0
    2.2465   -6.1875   -4.9661 C   0  0  0  0  0  0  0  0  0  0  0  0
    1.4737   -5.8730   -3.8746 C   0  0  0  0  0  0  0  0  0  0  0  0
   -0.1615   -5.0829   -4.0617 S   0  0  0  0  0  0  0  0  0  0  0  0
   -0.0069   -3.9563   -4.9648 O   0  0  0  0  0  0  0  0  0  0  0  0
   -1.0468   -6.1670   -4.4455 O   0  0  0  0  0  0  0  0  0  0  0  0
   -0.7177   -4.2757   -2.6683 N   0  0  0  0  0  0  0  0  0  0  0  0
   -0.0056   -3.9883   -1.4729 C   0  0  0  0  0  0  0  0  0  0  0  0
    1.5797   -3.3170   -1.1267 C   0  0  0  0  0  0  0  0  0  0  0  0
    2.3143   -3.9902    0.3869 C   0  0  0  0  0  0  0  0  0  0  0  0
    1.2829   -5.6175    0.7106 O   0  0  0  0  0  0  0  0  0  0  0  0
   -0.3313   -5.0609   -0.6121 N   0  0  0  0  0  0  0  0  0  0  0  0
    3.7116   -4.0876    0.7137 C   0  0  0  0  0  0  0  0  0  0  0  0
    2.3411   -3.2021   -2.3915 C   0  0  0  0  0  0  0  0  0  0  0  0
  1  2  1  0
  2  3  1  0
  3  4  1  0
  4  5  1  0
  5  6  2  0
  5 14  1  0
  6  7  1  0
  7  8  1  0
  7 11  1  0
  7 12  1  0
  8  9  1  0
  9 10  1  0
 10 11  1  0
 12 13  2  0
 12 14  1  0
 14 15  1  0
 15 16  1  0
 16 17  2  0
 16 21  1  0
 17 18  1  0
 18 19  2  0
 19 20  1  0
 19 26  1  0
 20 21  2  0
 20 22  1  0
 22 23  1  0
 23 24  1  0
 24 25  1  0
 26 27  2  0
 26 31  1  0
 27 28  1  0
 28 29  2  0
 29 30  1  0
 30 31  2  0
 31 32  1  0
 32 33  2  0
 32 34  2  0
 32 35  1  0
 35 36  1  0
 36 37  1  0
 36 40  2  0
 37 38  2  0
 37 42  1  0
 38 39  1  0
 38 41  1  0
 39 40  1  0
M  END
>  <DRUGBANK_ID>  (1) 
DB12548

>  <SECONDARY_ACCESSION_NUMBERS>  (1) 
DB05206

>  <COMMON_NAME>  (1) 
Sparsentan

>  <CAS_NUMBER>  (1) 
254740-64-2

>  <UNII>  (1) 
9242RO5URM

>  <SYNONYMS>  (1) 
Sparsentan

$$$$
