
     RDKit          3D

 27 29  0  0  0  0  0  0  0  0999 V2000
   -1.1170   -1.2324    0.0096 C   0  0  0  0  0  0  0  0  0  0  0  0
   -1.7326    2.4562   -1.9357 C   0  0  0  0  0  0  0  0  0  0  0  0
   -4.4191   -0.1165    2.7368 C   0  0  0  0  0  0  0  0  0  0  0  0
   -1.7684   -0.0091    0.1819 C   0  0  0  0  0  0  0  0  0  0  0  0
   -3.1269    2.4641   -1.7729 C   0  0  0  0  0  0  0  0  0  0  0  0
    0.2692   -1.2748    0.0267 C   0  0  0  0  0  0  0  0  0  0  0  0
   -0.9748    3.5914   -1.6096 C   0  0  0  0  0  0  0  0  0  0  0  0
   -5.7620    0.0196    2.4309 C   0  0  0  0  0  0  0  0  0  0  0  0
   -3.5569    0.8308    2.2594 C   0  0  0  0  0  0  0  0  0  0  0  0
    0.3250    1.1185    0.3965 C   0  0  0  0  0  0  0  0  0  0  0  0
   -3.0146    4.8160   -1.1843 C   0  0  0  0  0  0  0  0  0  0  0  0
   -1.0611    1.1557    0.5498 C   0  0  0  0  0  0  0  0  0  0  0  0
   -3.7673    3.6452   -1.3844 C   0  0  0  0  0  0  0  0  0  0  0  0
    0.9727   -0.0813    0.1307 C   0  0  0  0  0  0  0  0  0  0  0  0
   -1.6233    4.7703   -1.2595 C   0  0  0  0  0  0  0  0  0  0  0  0
   -6.1967    0.9989    1.5163 C   0  0  0  0  0  0  0  0  0  0  0  0
   -3.9693    1.7962    1.3430 C   0  0  0  0  0  0  0  0  0  0  0  0
   -5.2811    1.8607    0.8972 C   0  0  0  0  0  0  0  0  0  0  0  0
   -1.6297    2.4982    1.0359 C   0  0  0  0  0  0  0  0  0  0  0  0
   -5.2185    3.6803   -1.0802 C   0  0  0  0  0  0  0  0  0  0  0  0
   -7.5156    1.1077    1.3009 F   0  0  0  0  0  0  0  0  0  0  0  0
    2.3246   -0.0271   -0.0107 O   0  0  0  0  0  0  0  0  0  0  0  0
   -0.9235    5.8698   -0.8544 O   0  0  0  0  0  0  0  0  0  0  0  0
   -0.8843    3.3917    1.3879 O   0  0  0  0  0  0  0  0  0  0  0  0
   -5.9224    4.4855   -1.6633 O   0  0  0  0  0  0  0  0  0  0  0  0
   -3.0099    2.7381    0.9923 O   0  0  0  0  0  0  0  0  0  0  0  0
   -5.7456    2.7855   -0.1041 O   0  0  0  0  0  0  0  0  0  0  0  0
  4  1  2  0
  5  2  2  0
  6  1  1  0
  7  2  1  0
  8  3  2  0
  9  3  1  0
 12  4  1  0
 12 10  2  0
 13  5  1  0
 13 11  2  0
 14  6  2  0
 14 10  1  0
 15  7  2  0
 15 11  1  0
 16  8  1  0
 17  9  2  0
 18 16  2  0
 18 17  1  0
 19 12  1  0
 20 13  1  0
 21 16  1  0
 22 14  1  0
 23 15  1  0
 24 19  2  0
 25 20  2  0
 26 17  1  0
 26 19  1  0
 27 18  1  0
 27 20  1  0
M  END
>  <DRUGBANK_ID>  (1) 
DB16764

>  <COMMON_NAME>  (1) 
WZB-117

>  <CAS_NUMBER>  (1) 
1223397-11-2

>  <SYNONYMS>  (1) 
WZB 117; WZB117

$$$$
