2A6
     RDKit          3D

 24 27  0  0  0  0  0  0  0  0999 V2000
    1.9096    0.7631    0.2768 C   0  0  0  0  0  0  0  0  0  0  0  0
   -2.3410   -0.0311   -0.0551 C   0  0  0  0  0  0  0  0  0  0  0  0
    2.3928   -3.2927   -0.0317 C   0  0  0  0  0  0  0  0  0  0  0  0
    3.1550   -2.9857   -1.3557 C   0  0  0  0  0  0  0  0  0  0  0  0
    4.4796   -3.7581   -1.4710 C   0  0  0  0  0  0  0  0  0  0  0  0
    5.2903   -3.2952   -2.6928 C   0  0  0  0  0  0  0  0  0  0  0  0
    5.5862   -1.7972   -2.6652 C   0  0  0  0  0  0  0  0  0  0  0  0
    4.2991   -1.0160   -2.6063 C   0  0  0  0  0  0  0  0  0  0  0  0
    3.4569   -1.4990   -1.4627 C   0  0  0  0  0  0  0  0  0  0  0  0
    3.8139    4.9250   -1.1436 C   0  0  0  0  0  0  0  0  0  0  0  0
    3.1095    5.6761   -0.2009 C   0  0  0  0  0  0  0  0  0  0  0  0
    2.4898    5.0396    0.8670 C   0  0  0  0  0  0  0  0  0  0  0  0
    2.5496    3.6556    0.9696 C   0  0  0  0  0  0  0  0  0  0  0  0
    2.0144   -0.5708    0.4940 N   0  0  0  0  0  0  0  0  0  0  0  0
    0.9419   -1.3712    0.2846 C   0  0  0  0  0  0  0  0  0  0  0  0
    1.0666   -2.7318    0.0654 O   0  0  0  0  0  0  0  0  0  0  0  0
   -0.2693   -0.7495    0.1291 C   0  0  0  0  0  0  0  0  0  0  0  0
   -1.5650   -1.1589   -0.0219 N   0  0  0  0  0  0  0  0  0  0  0  0
   -1.6140    1.0636   -0.0473 N   0  0  0  0  0  0  0  0  0  0  0  0
   -0.3263    0.6227    0.0663 C   0  0  0  0  0  0  0  0  0  0  0  0
    0.7597    1.4073    0.0863 N   0  0  0  0  0  0  0  0  0  0  0  0
    3.1092    1.4832    0.0995 N   0  0  0  0  0  0  0  0  0  0  0  0
    3.2311    2.8772    0.0268 C   0  0  0  0  0  0  0  0  0  0  0  0
    3.8966    3.5289   -1.0203 C   0  0  0  0  0  0  0  0  0  0  0  0
  1 14  2  0
  1 21  1  0
  1 22  1  0
  2 18  1  0
  2 19  2  0
  3  4  1  0
  3 16  1  0
  4  5  1  0
  4  9  1  0
  5  6  1  0
  6  7  1  0
  7  8  1  0
  8  9  1  0
 10 11  2  0
 10 24  1  0
 11 12  1  0
 12 13  2  0
 13 23  1  0
 14 15  1  0
 15 16  1  0
 15 17  2  0
 17 18  1  0
 17 20  1  0
 19 20  1  0
 20 21  2  0
 22 23  1  0
 23 24  2  0
M  END
>  <DRUGBANK_ID>  (1) 
DB06948

>  <COMMON_NAME>  (1) 
2-ANILINO-6-CYCLOHEXYLMETHOXYPURINE

$$$$
