
     RDKit          3D

  7  6  0  0  1  0  0  0  0  0999 V2000
    1.0417    0.1250    0.0745 C   0  0  0  0  0  0  0  0  0  0  0  0
    0.5509    0.7010   -1.2482 C   0  0  0  0  0  0  0  0  0  0  0  0
    1.0338   -0.1057   -2.4655 C   0  0  1  0  0  0  0  0  0  0  0  0
    0.5487   -1.5541   -2.3917 C   0  0  0  0  0  0  0  0  0  0  0  0
    0.4889    0.5242   -3.7378 C   0  0  0  0  0  0  0  0  0  0  0  0
    1.4274    0.9460   -4.6124 O   0  0  0  0  0  0  0  0  0  0  0  0
   -0.7066    0.6438   -3.9774 O   0  0  0  0  0  0  0  0  0  0  0  0
  1  2  1  0
  2  3  1  0
  3  4  1  1
  3  5  1  0
  5  6  1  0
  5  7  2  0
M  END
>  <DRUGBANK_ID>  (1) 
DB03741

>  <SECONDARY_ACCESSION_NUMBERS>  (1) 
EXPT02918

>  <COMMON_NAME>  (1) 
2-Methylbutanoic Acid

>  <UNII>  (1) 
PX7ZNN5GXK

$$$$
