
     RDKit          3D

 38 39  0  0  1  0  0  0  0  0999 V2000
    0.8458    0.4420    0.1139 O   0  0  0  0  0  0  0  0  0  0  0  0
    0.3121    1.0719   -1.2667 S   0  0  0  0  0  0  0  0  0  0  0  0
    0.9479    2.5354   -1.1228 O   0  0  0  0  0  0  0  0  0  0  0  0
    1.0164    0.4101   -2.3655 O   0  0  0  0  0  0  0  0  0  0  0  0
   -1.0985    1.1789   -1.1867 O   0  0  0  0  0  0  0  0  0  0  0  0
   -3.9945   -2.9278   -4.9819 C   0  0  1  0  0  0  0  0  0  0  0  0
   -2.7699   -3.5801   -5.3150 O   0  0  0  0  0  0  0  0  0  0  0  0
   -2.9969   -4.9552   -5.1643 C   0  0  1  0  0  0  0  0  0  0  0  0
   -1.9435   -5.4620   -4.4882 O   0  0  0  0  0  0  0  0  0  0  0  0
   -1.7304   -5.2397   -3.1302 C   0  0  2  0  0  0  0  0  0  0  0  0
   -1.1241   -3.9097   -2.7186 C   0  0  1  0  0  0  0  0  0  0  0  0
   -1.5399   -3.7093   -1.3346 O   0  0  0  0  0  0  0  0  0  0  0  0
    0.2382   -3.5952   -3.4307 C   0  0  2  0  0  0  0  0  0  0  0  0
    0.0025   -2.9429   -4.7345 N   0  0  0  0  0  0  0  0  0  0  0  0
    1.1984   -4.8073   -3.6530 C   0  0  0  0  0  0  0  0  0  0  0  0
    0.4703   -6.1126   -4.0023 C   0  0  2  0  0  0  0  0  0  0  0  0
    0.1396   -5.9203   -5.4518 N   0  0  0  0  0  0  0  0  0  0  0  0
   -0.7416   -6.3715   -3.0055 C   0  0  1  0  0  0  0  0  0  0  0  0
   -0.5127   -6.6675   -1.6479 O   0  0  0  0  0  0  0  0  0  0  0  0
    0.5601   -6.0143   -0.9963 C   0  0  1  0  0  0  0  0  0  0  0  0
    0.4174   -4.6170   -1.0209 O   0  0  0  0  0  0  0  0  0  0  0  0
    0.9866   -3.5951   -0.1885 C   0  0  2  0  0  0  0  0  0  0  0  0
    2.2550   -3.0892   -0.9078 C   0  0  1  0  0  0  0  0  0  0  0  0
    2.7297   -1.7303   -0.5513 C   0  0  0  0  0  0  0  0  0  0  0  0
    3.3644   -3.9457   -0.8322 O   0  0  0  0  0  0  0  0  0  0  0  0
    1.1020   -4.1347    1.2257 C   0  0  1  0  0  0  0  0  0  0  0  0
   -0.1878   -4.0812    1.8672 O   0  0  0  0  0  0  0  0  0  0  0  0
    1.5942   -5.5958    1.1488 C   0  0  2  0  0  0  0  0  0  0  0  0
    2.8483   -5.7105    0.4818 O   0  0  0  0  0  0  0  0  0  0  0  0
    0.6052   -6.5151    0.4279 C   0  0  1  0  0  0  0  0  0  0  0  0
   -0.7221   -6.6009    1.0587 N   0  0  0  0  0  0  0  0  0  0  0  0
   -4.2928   -5.2803   -4.4717 C   0  0  2  0  0  0  0  0  0  0  0  0
   -4.7843   -6.5609   -4.8721 O   0  0  0  0  0  0  0  0  0  0  0  0
   -5.0583   -4.0529   -4.8912 C   0  0  2  0  0  0  0  0  0  0  0  0
   -5.5957   -4.3212   -6.1950 O   0  0  0  0  0  0  0  0  0  0  0  0
   -3.8382   -2.0148   -3.7286 C   0  0  2  0  0  0  0  0  0  0  0  0
   -2.6104   -1.0757   -3.8404 C   0  0  0  0  0  0  0  0  0  0  0  0
   -3.8983   -2.7516   -2.4612 N   0  0  0  0  0  0  0  0  0  0  0  0
  1  2  1  0
  2  3  1  0
  2  4  2  0
  2  5  2  0
  6  7  1  1
  6 34  1  0
  6 36  1  0
  8  7  1  0
  8  9  1  1
 10  9  1  6
 10 11  1  0
 10 18  1  0
 11 13  1  0
 11 12  1  1
 13 14  1  6
 13 15  1  0
 16 15  1  0
 16 17  1  6
 18 16  1  0
 18 19  1  1
 20 21  1  0
 20 19  1  6
 22 21  1  6
 22 26  1  0
 22 23  1  0
 23 24  1  1
 23 25  1  0
 26 28  1  0
 26 27  1  6
 28 29  1  6
 28 30  1  0
 30 20  1  0
 30 31  1  1
 32  8  1  0
 32 33  1  6
 34 32  1  0
 34 35  1  6
 36 38  1  0
 36 37  1  6
M  END
>  <DRUGBANK_ID>  (1) 
DB16951

>  <COMMON_NAME>  (1) 
NB-124 sulfate

>  <CAS_NUMBER>  (1) 
1375073-96-3

>  <UNII>  (1) 
DZ671709NT

>  <SYNONYMS>  (1) 
6'-(r)-methyl-5-o-(5-amino-5,6-dideoxy-a-l-talofuranosyl)- paromamine sulfate; 6'-(r)-methyl-5-o-(5-amino-5,6-dideoxy-alpha-l-talofuranosyl)-paromamine sulfate; D-streptamine, o-5-amino-5,6-dideoxy-.beta.-d-allofuranosyl-(1->5)-o-(2-amino-2,7-dideoxy-d-glycero-.alpha.-d-gluco-heptopyranosyl-(1->4))-2-deoxy-, sulfate; Elx-02 sulfate; Exaluren disulfate; Exaluren sulfate

$$$$
