
     RDKit          3D

 21 21  0  0  0  0  0  0  0  0999 V2000
    1.2105    1.4185   -0.5038 C   0  0  2  0  0  0  0  0  0  0  0  0
    1.2808   -0.0831   -0.1345 C   0  0  1  0  0  0  0  0  0  0  0  0
    0.0124   -0.8672   -0.4920 C   0  0  2  0  0  0  0  0  0  0  0  0
   -1.3035   -0.1177   -0.2443 C   0  0  1  0  0  0  0  0  0  0  0  0
   -1.2963    1.3315   -0.7496 C   0  0  1  0  0  0  0  0  0  0  0  0
   -2.4850    2.0768   -0.0259 C   0  0  0  0  0  0  0  0  0  0  0  0
    2.2665    2.1815    1.6633 C   0  0  0  0  0  0  0  0  0  0  0  0
    1.0997    2.8064    2.4202 C   0  0  0  0  0  0  0  0  0  0  0  0
   -0.1504    1.9830    2.3473 C   0  0  0  0  0  0  0  0  0  0  0  0
   -0.0229    0.5465    2.8141 C   0  0  0  0  0  0  0  0  0  0  0  0
   -0.2169    0.4483    4.2864 C   0  0  0  0  0  0  0  0  0  0  0  0
   -1.6154    0.9709    4.6141 C   0  0  0  0  0  0  0  0  0  0  0  0
   -2.7455    0.2021    3.8916 C   0  0  0  0  0  0  0  0  0  0  0  0
   -2.6928   -1.2983    4.1774 C   0  0  0  0  0  0  0  0  0  0  0  0
   -2.6741   -1.5237    5.6787 C   0  0  0  0  0  0  0  0  0  0  0  0
    2.1595    2.2350    0.2346 O   0  0  0  0  0  0  0  0  0  0  0  0
    2.4483   -0.7148   -0.7084 O   0  0  0  0  0  0  0  0  0  0  0  0
    0.0008   -2.1249    0.2168 O   0  0  0  0  0  0  0  0  0  0  0  0
   -2.4374   -0.8327   -0.7483 O   0  0  0  0  0  0  0  0  0  0  0  0
   -0.0692    2.0647   -0.5577 O   0  0  0  0  0  0  0  0  0  0  0  0
   -2.4634    3.4827   -0.2434 O   0  0  0  0  0  0  0  0  0  0  0  0
  1  2  1  0
  1 16  1  1
  1 20  1  0
  2  3  1  0
  2 17  1  6
  3  4  1  0
  3 18  1  1
  4  5  1  0
  4 19  1  6
  5  6  1  1
  5 20  1  0
  6 21  1  0
  7  8  1  0
  7 16  1  0
  8  9  1  0
  9 10  1  0
 10 11  1  0
 11 12  1  0
 12 13  1  0
 13 14  1  0
 14 15  1  0
M  END
>  <DRUGBANK_ID>  (1) 
DB02451

>  <SECONDARY_ACCESSION_NUMBERS>  (1) 
EXPT00730

>  <COMMON_NAME>  (1) 
B-nonylglucoside

>  <CAS_NUMBER>  (1) 
69984-73-2

>  <UNII>  (1) 
Q5TS785PG5

$$$$
