
     RDKit          3D

 21 23  0  0  0  0  0  0  0  0999 V2000
    1.4730    0.0769   -0.0051 C   0  0  0  0  0  0  0  0  0  0  0  0
    0.7474    1.2623   -0.0080 C   0  0  0  0  0  0  0  0  0  0  0  0
    0.8003   -1.1443   -0.0036 C   0  0  0  0  0  0  0  0  0  0  0  0
   -3.1786   -1.6014    1.6576 C   0  0  0  0  0  0  0  0  0  0  0  0
   -1.9420   -3.5870    2.2714 C   0  0  0  0  0  0  0  0  0  0  0  0
   -1.6871   -2.6151   -2.4956 C   0  0  0  0  0  0  0  0  0  0  0  0
   -3.6436   -2.9052   -1.1235 C   0  0  0  0  0  0  0  0  0  0  0  0
   -3.9915   -1.7322    2.7764 C   0  0  0  0  0  0  0  0  0  0  0  0
   -2.7391   -3.7005    3.4136 C   0  0  0  0  0  0  0  0  0  0  0  0
   -2.4834   -2.7470   -3.6416 C   0  0  0  0  0  0  0  0  0  0  0  0
   -4.4400   -3.0040   -2.2583 C   0  0  0  0  0  0  0  0  0  0  0  0
   -0.6300    1.1861   -0.0347 C   0  0  0  0  0  0  0  0  0  0  0  0
   -2.1633   -2.5394    1.3672 C   0  0  0  0  0  0  0  0  0  0  0  0
   -2.2575   -2.6681   -1.2120 C   0  0  0  0  0  0  0  0  0  0  0  0
   -3.7613   -2.7860    3.6480 C   0  0  0  0  0  0  0  0  0  0  0  0
   -3.8577   -2.9316   -3.5055 C   0  0  0  0  0  0  0  0  0  0  0  0
   -0.5934   -1.1376   -0.0196 C   0  0  0  0  0  0  0  0  0  0  0  0
   -1.3863   -2.4509    0.0427 C   0  0  0  0  0  0  0  0  0  0  0  0
   -1.3034    0.0221   -0.0600 N   0  0  0  0  0  0  0  0  0  0  0  0
   -4.5403   -2.9612    4.7527 O   0  0  0  0  0  0  0  0  0  0  0  0
   -4.6820   -3.0572   -4.5836 O   0  0  0  0  0  0  0  0  0  0  0  0
  2  1  2  0
  3  1  1  0
  8  4  2  0
  9  5  1  0
 10  6  2  0
 11  7  1  0
 12  2  1  0
 13  4  1  0
 13  5  2  0
 14  6  1  0
 14  7  2  0
 15  8  1  0
 15  9  2  0
 16 10  1  0
 16 11  2  0
 17  3  2  0
 18 13  1  0
 18 14  1  0
 18 17  1  0
 19 12  2  0
 19 17  1  0
 20 15  1  0
 21 16  1  0
M  END
>  <DRUGBANK_ID>  (1) 
DB14232

>  <COMMON_NAME>  (1) 
Deacetylbisacodyl

>  <CAS_NUMBER>  (1) 
603-41-8

>  <UNII>  (1) 
R09078E41Y

>  <SYNONYMS>  (1) 
BHPM; DDPM; Dihydroxydiphenyl-pyridyl methane

$$$$
