
     RDKit          3D

 21 23  0  0  0  0  0  0  0  0999 V2000
    1.1863    0.0502    0.0494 C   0  0  0  0  0  0  0  0  0  0  0  0
    0.3742   -1.0981   -0.0058 C   0  0  0  0  0  0  0  0  0  0  0  0
   -1.0133   -0.9599   -0.0468 C   0  0  0  0  0  0  0  0  0  0  0  0
   -1.5585    0.3098   -0.0233 C   0  0  0  0  0  0  0  0  0  0  0  0
   -0.7502    1.4470   -0.0083 C   0  0  0  0  0  0  0  0  0  0  0  0
    0.6318    1.3095   -0.0269 C   0  0  0  0  0  0  0  0  0  0  0  0
    2.6584    0.0401    0.3129 C   0  0  0  0  0  0  0  0  0  0  0  0
    3.4920    0.1860   -0.8903 N   0  0  0  0  0  0  0  0  0  0  0  0
    4.5524    1.0789   -0.7830 C   0  0  0  0  0  0  0  0  0  0  0  0
    3.1968   -0.4353   -2.2076 C   0  0  0  0  0  0  0  0  0  0  0  0
    3.5256   -1.9696   -2.3380 C   0  0  0  0  0  0  0  0  0  0  0  0
    2.8154   -2.8400   -1.3825 N   0  0  0  0  0  0  0  0  0  0  0  0
    3.3716   -2.6544   -0.0543 C   0  0  0  0  0  0  0  0  0  0  0  0
    4.3165   -3.7379    0.2802 C   0  0  0  0  0  0  0  0  0  0  0  0
    3.6270   -4.8836   -0.3880 C   0  0  0  0  0  0  0  0  0  0  0  0
    2.8998   -4.2838   -1.6055 C   0  0  0  0  0  0  0  0  0  0  0  0
    5.5020    0.9351    0.2389 C   0  0  0  0  0  0  0  0  0  0  0  0
    6.5629    1.8308    0.3727 C   0  0  0  0  0  0  0  0  0  0  0  0
    6.6947    2.8854   -0.5250 C   0  0  0  0  0  0  0  0  0  0  0  0
    5.7650    3.0437   -1.5498 C   0  0  0  0  0  0  0  0  0  0  0  0
    4.6886    2.1607   -1.6594 C   0  0  0  0  0  0  0  0  0  0  0  0
  1  2  2  0
  1  7  1  0
  2  3  1  0
  3  4  2  0
  4  5  1  0
  5  6  2  0
  6  1  1  0
  7  8  1  0
  8  9  1  0
  8 10  1  0
  9 17  2  0
 10 11  1  0
 11 12  1  0
 12 13  1  0
 12 16  1  0
 13 14  1  0
 14 15  1  0
 15 16  1  0
 17 18  1  0
 18 19  2  0
 19 20  1  0
 20 21  2  0
 21  9  1  0
M  END
>  <DRUGBANK_ID>  (1) 
DB13479

>  <COMMON_NAME>  (1) 
Histapyrrodine

>  <CAS_NUMBER>  (1) 
493-80-1

>  <UNII>  (1) 
0FYM61NG4D

>  <SYNONYMS>  (1) 
Histapyrrodine

$$$$
