332
     RDKit          3D

 23 26  0  0  0  0  0  0  0  0999 V2000
    1.4551   -1.6779   -0.0328 C   0  0  0  0  0  0  0  0  0  0  0  0
    0.0572   -1.8115    0.3149 O   0  0  0  0  0  0  0  0  0  0  0  0
   -0.7764   -0.7433    0.1611 C   0  0  0  0  0  0  0  0  0  0  0  0
   -0.4539    0.5746    0.3478 C   0  0  0  0  0  0  0  0  0  0  0  0
    0.7663    1.1050    0.8158 C   0  0  0  0  0  0  0  0  0  0  0  0
    0.7665    2.1430    1.6874 N   0  0  0  0  0  0  0  0  0  0  0  0
    1.9103    0.6301    0.4229 N   0  0  0  0  0  0  0  0  0  0  0  0
    1.2722   -0.0206   -2.0264 C   0  0  0  0  0  0  0  0  0  0  0  0
    1.9536   -0.3758   -0.6647 C   0  0  2  0  0  0  0  0  0  0  0  0
    1.8228    1.0559   -2.8243 O   0  0  0  0  0  0  0  0  0  0  0  0
    1.8014    2.3137   -2.2869 C   0  0  0  0  0  0  0  0  0  0  0  0
    1.1768    3.3577   -2.9622 C   0  0  0  0  0  0  0  0  0  0  0  0
    1.2566    4.6682   -2.4511 C   0  0  0  0  0  0  0  0  0  0  0  0
    1.8876    4.9129   -1.2236 C   0  0  0  0  0  0  0  0  0  0  0  0
    2.0801    6.2651   -0.5914 C   0  0  0  0  0  0  0  0  0  0  0  0
    3.4912    6.3298    0.0569 C   0  0  0  0  0  0  0  0  0  0  0  0
    3.8426    5.2749    1.0134 N   0  0  0  0  0  0  0  0  0  0  0  0
    2.9899    4.1132    0.8640 C   0  0  0  0  0  0  0  0  0  0  0  0
    2.4843    3.8640   -0.5370 C   0  0  0  0  0  0  0  0  0  0  0  0
    2.5600    2.6267   -1.1641 C   0  0  0  0  0  0  0  0  0  0  0  0
   -1.7045    1.6700   -0.0415 S   0  0  0  0  0  0  0  0  0  0  0  0
   -2.7848    0.3777   -0.2652 C   0  0  0  0  0  0  0  0  0  0  0  0
   -2.1686   -0.8509   -0.1156 C   0  0  0  0  0  0  0  0  0  0  0  0
  1  2  1  0
  1  9  1  0
  2  3  1  0
  3  4  2  0
  3 23  1  0
  4  5  1  0
  4 21  1  0
  5  6  1  0
  5  7  2  0
  7  9  1  0
  8 10  1  0
  9  8  1  6
 10 11  1  0
 11 12  2  0
 11 20  1  0
 12 13  1  0
 13 14  2  0
 14 15  1  0
 14 19  1  0
 15 16  1  0
 16 17  1  0
 17 18  1  0
 18 19  1  0
 19 20  2  0
 21 22  1  0
 22 23  2  0
M  END
>  <DRUGBANK_ID>  (1) 
DB07007

>  <COMMON_NAME>  (1) 
(3R)-3-[(1,2,3,4-tetrahydroisoquinolin-7-yloxy)methyl]-2,3-dihydrothieno[2,3-f][1,4]oxazepin-5-amine

$$$$
