PGG
     RDKit          3D

 23 23  0  0  0  0  0  0  0  0999 V2000
    1.3742   -0.2814    0.0595 C   0  0  0  0  0  0  0  0  0  0  0  0
    0.4686   -1.3447    0.0200 C   0  0  0  0  0  0  0  0  0  0  0  0
   -0.9069   -1.1054   -0.0272 C   0  0  0  0  0  0  0  0  0  0  0  0
   -1.3828    0.2094   -0.0365 C   0  0  0  0  0  0  0  0  0  0  0  0
   -0.4859    1.2838    0.0170 C   0  0  0  0  0  0  0  0  0  0  0  0
    0.8956    1.0327    0.0175 C   0  0  0  0  0  0  0  0  0  0  0  0
    3.3163   -2.0939    0.3243 P   0  0  2  0  0  0  0  0  0  0  0  0
    2.7341   -0.4703    0.1904 O   0  0  0  0  0  0  0  0  0  0  0  0
    3.8778   -1.9407   -1.2119 O   0  0  0  0  0  0  0  0  0  0  0  0
    4.3506   -1.6041    1.3274 O   0  0  0  0  0  0  0  0  0  0  0  0
    3.9322   -3.8113    0.4660 C   0  0  0  0  0  0  0  0  0  0  0  0
    5.0697   -4.1353   -0.5199 C   0  0  0  0  0  0  0  0  0  0  0  0
    6.2796   -3.2015   -0.3578 C   0  0  0  0  0  0  0  0  0  0  0  0
    6.8965   -3.3549    1.0171 C   0  0  0  0  0  0  0  0  0  0  0  0
    8.2332   -3.6361    1.0411 N   0  0  0  0  0  0  0  0  0  0  0  0
    6.2698   -3.2426    2.0661 O   0  0  0  0  0  0  0  0  0  0  0  0
    8.8583   -3.9001    2.3239 C   0  0  0  0  0  0  0  0  0  0  0  0
    9.2906   -5.3521    2.4540 C   0  0  0  0  0  0  0  0  0  0  0  0
   10.6085   -5.5165    2.7113 O   0  0  0  0  0  0  0  0  0  0  0  0
    8.5438   -6.3183    2.3004 O   0  0  0  0  0  0  0  0  0  0  0  0
   -2.8264    0.4510   -0.1680 N   0  0  0  0  0  0  0  0  0  0  0  0
   -3.2162    1.6260   -0.1992 O   0  0  0  0  0  0  0  0  0  0  0  0
   -3.5662   -0.5391   -0.2699 O   0  0  0  0  0  0  0  0  0  0  0  0
  1  2  2  0
  1  6  1  0
  1  8  1  0
  2  3  1  0
  3  4  2  0
  4  5  1  0
  4 21  1  0
  5  6  2  0
  7  8  1  0
  7  9  1  0
  7 10  2  0
  7 11  1  0
 11 12  1  0
 12 13  1  0
 13 14  1  0
 14 15  1  0
 14 16  2  0
 15 17  1  0
 17 18  1  0
 18 19  1  0
 18 20  2  0
 21 22  2  0
 21 23  1  0
M  CHG  2  21   1  23  -1
M  END
>  <DRUGBANK_ID>  (1) 
DB08394

>  <COMMON_NAME>  (1) 
PARA-NITROPHENYLPHOSPHONOBUTANOYL-GLYCINE

$$$$
