
     RDKit          3D

 21 24  0  0  0  0  0  0  0  0999 V2000
    1.4062   -0.3984   -0.0766 C   0  0  0  0  0  0  0  0  0  0  0  0
    0.3691    0.6135   -1.2955 C   0  0  1  0  0  0  0  0  0  0  0  0
    1.0362    1.5312   -0.4061 C   0  0  2  0  0  0  0  0  0  0  0  0
    2.4605    1.4811   -1.6878 C   0  0  1  0  0  0  0  0  0  0  0  0
    2.4855    0.5399   -3.0488 C   0  0  2  0  0  0  0  0  0  0  0  0
    1.6425   -0.6880   -2.8627 C   0  0  0  0  0  0  0  0  0  0  0  0
    0.3001   -0.1902   -2.5127 C   0  0  0  0  0  0  0  0  0  0  0  0
    3.8856    0.0935   -3.5221 C   0  0  0  0  0  0  0  0  0  0  0  0
    5.0120    0.8880   -3.2888 C   0  0  0  0  0  0  0  0  0  0  0  0
    4.8604    2.2236   -2.5822 C   0  0  0  0  0  0  0  0  0  0  0  0
    3.3601    2.7048   -2.2553 C   0  0  0  0  0  0  0  0  0  0  0  0
    6.2995    0.4059   -3.6770 C   0  0  0  0  0  0  0  0  0  0  0  0
    6.4478   -0.8389   -4.2987 C   0  0  0  0  0  0  0  0  0  0  0  0
    5.3360   -1.6043   -4.5754 C   0  0  0  0  0  0  0  0  0  0  0  0
    4.0768   -1.1278   -4.2166 C   0  0  0  0  0  0  0  0  0  0  0  0
    7.6547   -1.3625   -4.6621 O   0  0  0  0  0  0  0  0  0  0  0  0
   -0.5831    0.5378    0.3380 C   0  0  0  0  0  0  0  0  0  0  0  0
   -1.8174    0.6539   -0.5888 C   0  0  2  0  0  0  0  0  0  0  0  0
   -0.9725    1.6668   -1.1714 C   0  0  2  0  0  0  0  0  0  0  0  0
   -1.3732    2.3620   -2.3139 O   0  0  0  0  0  0  0  0  0  0  0  0
   -2.9268    1.0887    0.0149 F   0  0  0  0  0  0  0  0  0  0  0  0
  2  1  1  1
  2  3  1  0
  2  7  1  0
  2 19  1  0
  3  4  1  0
  3 17  1  1
  4  5  1  0
  4 11  1  6
  5  8  1  0
  5  6  1  1
  7  6  1  0
  8  9  2  0
  8 15  1  0
  9 12  1  0
 10  9  1  0
 11 10  1  0
 12 13  2  0
 13 16  1  0
 14 13  1  0
 15 14  2  0
 17 18  1  0
 18 21  1  1
 19 18  1  0
 19 20  1  6
M  ISO  1  21  18
M  END
>  <DRUGBANK_ID>  (1) 
DB15690

>  <COMMON_NAME>  (1) 
Fluoroestradiol F-18

>  <CAS_NUMBER>  (1) 
94153-53-4

>  <UNII>  (1) 
T32277KB09

>  <SYNONYMS>  (1) 
(18F)FES; 16-alpha-(18-Fluoro)-17betaestradiol; 16-alpha-(18F)Fluoro-17beta-estradiol; 16alpha-(18F)Fluoro-17beta-estradiol; F-18 16 alpha-Fluoroestradiol; F-18 Fes; Fes F-18

$$$$
