
     RDKit          3D

 25 27  0  0  0  0  0  0  0  0999 V2000
    0.8929   -0.0948   -0.0120 C   0  0  0  0  0  0  0  0  0  0  0  0
    0.3431   -1.0606   -0.9152 O   0  0  0  0  0  0  0  0  0  0  0  0
    0.7630   -0.9026   -2.2108 C   0  0  0  0  0  0  0  0  0  0  0  0
    2.0822   -0.6208   -2.5199 C   0  0  0  0  0  0  0  0  0  0  0  0
    2.4596   -0.4132   -3.8368 C   0  0  0  0  0  0  0  0  0  0  0  0
    1.5397   -0.5412   -4.8925 C   0  0  0  0  0  0  0  0  0  0  0  0
    0.2241   -0.8786   -4.5641 C   0  0  0  0  0  0  0  0  0  0  0  0
   -0.4778   -0.9257   -5.7487 N   0  0  0  0  0  0  0  0  0  0  0  0
    0.3475   -0.6047   -6.7985 C   0  0  0  0  0  0  0  0  0  0  0  0
    1.6292   -0.3799   -6.3165 C   0  0  0  0  0  0  0  0  0  0  0  0
    2.7862   -0.0166   -7.1476 C   0  0  0  0  0  0  0  0  0  0  0  0
    2.6949    0.1710   -8.3652 O   0  0  0  0  0  0  0  0  0  0  0  0
    4.1405    0.0775   -6.5413 C   0  0  0  0  0  0  0  0  0  0  0  0
    4.6716   -1.0542   -5.9171 C   0  0  0  0  0  0  0  0  0  0  0  0
    5.9234   -1.0126   -5.2963 C   0  0  0  0  0  0  0  0  0  0  0  0
    6.4389   -2.0754   -4.6126 O   0  0  0  0  0  0  0  0  0  0  0  0
    5.6814   -3.2657   -4.5222 C   0  0  0  0  0  0  0  0  0  0  0  0
    6.7022    0.1561   -5.3647 C   0  0  0  0  0  0  0  0  0  0  0  0
    7.9019    0.3336   -4.7264 O   0  0  0  0  0  0  0  0  0  0  0  0
    8.4681   -0.6806   -3.9174 C   0  0  0  0  0  0  0  0  0  0  0  0
    6.2229    1.2576   -6.1133 C   0  0  0  0  0  0  0  0  0  0  0  0
    6.9355    2.3982   -6.4256 O   0  0  0  0  0  0  0  0  0  0  0  0
    8.3440    2.3736   -6.1776 C   0  0  0  0  0  0  0  0  0  0  0  0
    4.9132    1.2387   -6.6347 C   0  0  0  0  0  0  0  0  0  0  0  0
   -0.1880   -1.0759   -3.2301 C   0  0  0  0  0  0  0  0  0  0  0  0
  1  2  1  0
  2  3  1  0
  3  4  2  0
  3 25  1  0
  4  5  1  0
  5  6  2  0
  6  7  1  0
  6 10  1  0
  7  8  1  0
  7 25  2  0
  8  9  1  0
  9 10  2  0
 10 11  1  0
 11 12  2  0
 11 13  1  0
 13 14  2  0
 13 24  1  0
 14 15  1  0
 15 16  1  0
 15 18  2  0
 16 17  1  0
 18 19  1  0
 18 21  1  0
 19 20  1  0
 21 22  1  0
 21 24  2  0
 22 23  1  0
M  END
>  <DRUGBANK_ID>  (1) 
DB17155

>  <COMMON_NAME>  (1) 
BPR-0L075

>  <CAS_NUMBER>  (1) 
613679-11-1

>  <UNII>  (1) 
W918223VQ6

>  <SYNONYMS>  (1) 
6-methoxy-3-(3,4,5-trimethoxybenzoyl) indole; Methanone, (6-methoxy-1h-indol-3-yl)(3,4,5-trimethoxyphenyl)-

$$$$
