
     RDKit          3D

 20 23  0  0  1  0  0  0  0  0999 V2000
   -2.0374    0.1803   -0.0600 C   0  0  1  0  0  0  0  0  0  0  0  0
   -2.3752    0.1460    1.4474 C   0  0  0  0  0  0  0  0  0  0  0  0
   -1.7394   -1.0752    2.1146 C   0  0  0  0  0  0  0  0  0  0  0  0
   -1.7280   -2.3351    1.2792 C   0  0  0  0  0  0  0  0  0  0  0  0
   -2.0048   -2.3152   -0.1010 C   0  0  0  0  0  0  0  0  0  0  0  0
   -1.8536   -3.4764   -0.8801 C   0  0  0  0  0  0  0  0  0  0  0  0
   -1.5418   -4.6753   -0.2636 C   0  0  0  0  0  0  0  0  0  0  0  0
   -1.5938   -5.8014   -1.0290 O   0  0  0  0  0  0  0  0  0  0  0  0
   -1.3120   -4.7082    1.1019 C   0  0  0  0  0  0  0  0  0  0  0  0
   -1.1185   -5.9115    1.7180 O   0  0  0  0  0  0  0  0  0  0  0  0
   -1.3689   -3.5533    1.8770 C   0  0  0  0  0  0  0  0  0  0  0  0
   -2.5884   -1.0796   -0.7603 C   0  0  1  0  0  0  0  0  0  0  0  0
   -4.1178   -1.0349   -0.7499 C   0  0  0  0  0  0  0  0  0  0  0  0
   -4.7639    0.2239   -0.7142 C   0  0  0  0  0  0  0  0  0  0  0  0
   -3.9815    1.5252   -0.6090 C   0  0  0  0  0  0  0  0  0  0  0  0
   -2.5318    1.3713   -0.7704 N   0  0  0  0  0  0  0  0  0  0  0  0
   -6.1654    0.2609   -0.6993 C   0  0  0  0  0  0  0  0  0  0  0  0
   -6.9135   -0.9198   -0.7246 C   0  0  0  0  0  0  0  0  0  0  0  0
   -6.2776   -2.1543   -0.7569 C   0  0  0  0  0  0  0  0  0  0  0  0
   -4.8906   -2.2102   -0.7804 C   0  0  0  0  0  0  0  0  0  0  0  0
  1  2  1  1
  1 12  1  0
  1 16  1  0
  2  3  1  0
  3  4  1  0
  4  5  2  0
  4 11  1  0
  5  6  1  0
  6  7  2  0
  7  9  1  0
  7  8  1  0
  9 11  2  0
  9 10  1  0
 12  5  1  1
 12 13  1  0
 13 14  2  0
 13 20  1  0
 14 15  1  0
 14 17  1  0
 15 16  1  0
 17 18  2  0
 18 19  1  0
 19 20  2  0
M  END
>  <DRUGBANK_ID>  (1) 
DB16139

>  <COMMON_NAME>  (1) 
DAR-0100A

>  <CAS_NUMBER>  (1) 
174691-84-0

>  <UNII>  (1) 
Q3PJ4B4D0X

>  <SYNONYMS>  (1) 
Dihydrexidine, (+)-

$$$$
