
     RDKit          3D

 25 26  0  0  0  0  0  0  0  0999 V2000
    1.0418    0.0409    0.0778 O   0  0  0  0  0  0  0  0  0  0  0  0
   -6.6125    5.8658   -4.4734 N   0  0  0  0  0  0  0  0  0  0  0  0
   -2.5884    1.1138   -2.6961 N   0  0  0  0  0  0  0  0  0  0  0  0
   -1.8152   -0.7834   -4.6093 N   0  0  0  0  0  0  0  0  0  0  0  0
   -5.3191    3.2197   -3.1961 C   0  0  0  0  0  0  0  0  0  0  0  0
   -5.8838    4.4331   -2.4622 C   0  0  0  0  0  0  0  0  0  0  0  0
   -3.8928    3.4612   -3.6961 C   0  0  0  0  0  0  0  0  0  0  0  0
   -5.8209    5.7627   -3.2350 C   0  0  0  0  0  0  0  0  0  0  0  0
   -2.8840    3.5006   -2.5834 C   0  0  0  0  0  0  0  0  0  0  0  0
   -2.9543    2.2069   -1.8246 C   0  0  0  0  0  0  0  0  0  0  0  0
   -6.6113    7.2322   -5.0161 C   0  0  0  0  0  0  0  0  0  0  0  0
   -6.3807    4.8893   -5.5463 C   0  0  0  0  0  0  0  0  0  0  0  0
   -1.4236    0.3830   -2.5393 C   0  0  0  0  0  0  0  0  0  0  0  0
   -5.2621    7.7674   -5.4941 C   0  0  0  0  0  0  0  0  0  0  0  0
   -4.9875    4.8399   -6.1732 C   0  0  0  0  0  0  0  0  0  0  0  0
   -1.0768   -0.6187   -3.4757 C   0  0  0  0  0  0  0  0  0  0  0  0
    0.0311   -1.4343   -3.1848 C   0  0  0  0  0  0  0  0  0  0  0  0
   -0.6454    0.5685   -1.3918 C   0  0  0  0  0  0  0  0  0  0  0  0
    0.3542   -2.4768   -4.0871 C   0  0  0  0  0  0  0  0  0  0  0  0
    0.7811   -1.2192   -2.0006 C   0  0  0  0  0  0  0  0  0  0  0  0
    0.4459   -0.2057   -1.1217 C   0  0  0  0  0  0  0  0  0  0  0  0
   -0.4203   -2.6424   -5.2375 C   0  0  0  0  0  0  0  0  0  0  0  0
    1.5062   -3.4047   -3.8311 C   0  0  0  0  0  0  0  0  0  0  0  0
   -1.4692   -1.7768   -5.4568 C   0  0  0  0  0  0  0  0  0  0  0  0
    2.4576    0.0620    0.0251 C   0  0  0  0  0  0  0  0  0  0  0  0
  1 21  1  0
  1 25  1  0
  2  8  1  0
  2 11  1  0
  2 12  1  0
  3 10  1  0
  3 13  1  0
  4 16  2  0
  4 24  1  0
  5  6  1  0
  5  7  1  0
  6  8  1  0
  7  9  1  0
  9 10  1  0
 11 14  1  0
 12 15  1  0
 13 16  1  0
 13 18  2  0
 16 17  1  0
 17 19  2  0
 17 20  1  0
 18 21  1  0
 19 22  1  0
 19 23  1  0
 20 21  2  0
 22 24  2  0
M  END
>  <DRUGBANK_ID>  (1) 
DB04909

>  <COMMON_NAME>  (1) 
Sitamaquine

>  <CAS_NUMBER>  (1) 
57695-04-2

>  <UNII>  (1) 
5AIJ4TGC6B

>  <SYNONYMS>  (1) 
Sitamaquine

$$$$
