
     RDKit          3D

 29 32  0  0  0  0  0  0  0  0999 V2000
   -0.1189   -0.7030    0.0310 C   0  0  0  0  0  0  0  0  0  0  0  0
    1.1561   -1.3841    0.0268 N   0  0  0  0  0  0  0  0  0  0  0  0
   -0.1109    0.6933    0.0061 C   0  0  0  0  0  0  0  0  0  0  0  0
   -1.3070   -1.4045    0.0723 N   0  0  0  0  0  0  0  0  0  0  0  0
    1.2218   -2.8122    0.0039 C   0  0  0  0  0  0  0  0  0  0  0  0
    2.3367   -0.6248    0.0252 C   0  0  0  0  0  0  0  0  0  0  0  0
    1.1568    1.4558    0.0070 C   0  0  0  0  0  0  0  0  0  0  0  0
   -1.3201    1.3765   -0.0097 C   0  0  0  0  0  0  0  0  0  0  0  0
   -2.5033   -0.7471    0.0319 C   0  0  0  0  0  0  0  0  0  0  0  0
    1.8441   -3.5430    1.0297 C   0  0  0  0  0  0  0  0  0  0  0  0
    0.6325   -3.5339   -1.0491 C   0  0  0  0  0  0  0  0  0  0  0  0
    2.4336    0.7174    0.0125 C   0  0  0  0  0  0  0  0  0  0  0  0
    1.1612    2.6848    0.0027 O   0  0  0  0  0  0  0  0  0  0  0  0
   -2.5084    0.6523   -0.0156 C   0  0  0  0  0  0  0  0  0  0  0  0
   -3.6654   -1.4790   -0.0334 N   0  0  0  0  0  0  0  0  0  0  0  0
    1.7956   -4.9343    1.0603 C   0  0  0  0  0  0  0  0  0  0  0  0
    2.4652   -2.9027    2.0319 F   0  0  0  0  0  0  0  0  0  0  0  0
    0.7702   -4.9207   -1.1250 C   0  0  0  0  0  0  0  0  0  0  0  0
    3.7524    1.3985   -0.0058 C   0  0  0  0  0  0  0  0  0  0  0  0
   -3.6608    1.3384   -0.0303 F   0  0  0  0  0  0  0  0  0  0  0  0
   -4.6769   -1.3077   -1.0743 C   0  0  0  0  0  0  0  0  0  0  0  0
   -4.1436   -2.4009    0.9798 C   0  0  0  0  0  0  0  0  0  0  0  0
    1.2829   -5.6116   -0.0358 C   0  0  0  0  0  0  0  0  0  0  0  0
    3.7109    2.7485   -0.0138 O   0  0  0  0  0  0  0  0  0  0  0  0
    4.8213    0.7907   -0.0196 O   0  0  0  0  0  0  0  0  0  0  0  0
   -5.5627   -2.5925   -0.9781 C   0  0  0  0  0  0  0  0  0  0  0  0
   -4.9303   -3.4190    0.1528 C   0  0  0  0  0  0  0  0  0  0  0  0
    1.2574   -6.9504   -0.0367 F   0  0  0  0  0  0  0  0  0  0  0  0
   -6.9839   -2.3112   -0.7312 N   0  0  0  0  0  0  0  0  0  0  0  0
  1  2  1  0
  1  3  1  0
  1  4  2  0
  2  5  1  0
  2  6  1  0
  3  7  1  0
  3  8  2  0
  4  9  1  0
  5 10  2  0
  5 11  1  0
  6 12  2  0
  7 13  2  0
  7 12  1  0
  8 14  1  0
  9 15  1  0
  9 14  2  0
 10 16  1  0
 10 17  1  0
 11 18  2  0
 12 19  1  0
 14 20  1  0
 15 21  1  0
 15 22  1  0
 16 23  2  0
 18 23  1  0
 19 24  1  0
 19 25  2  0
 21 26  1  0
 22 27  1  0
 23 28  1  0
 26 29  1  0
 26 27  1  0
M  END
>  <DRUGBANK_ID>  (1) 
DB16850

>  <COMMON_NAME>  (1) 
Tosufloxacin

>  <CAS_NUMBER>  (1) 
100490-36-6

>  <UNII>  (1) 
GHJ553KQPS

>  <SYNONYMS>  (1) 
Tosufloxacin

$$$$
