
     RDKit          3D

 41 40  0  0  0  0  0  0  0  0999 V2000
    0.6989    1.7596    1.6132 N   0  0  0  0  0  0  0  0  0  0  0  0
    0.6934    1.1945    2.8729 C   0  0  0  0  0  0  0  0  0  0  0  0
    0.5542   -0.2899    3.0030 C   0  0  0  0  0  0  0  0  0  0  0  0
    1.9825   -0.9329    3.2058 C   0  0  0  0  0  0  0  0  0  0  0  0
    2.3754   -0.8743    4.6421 C   0  0  0  0  0  0  0  0  0  0  0  0
    1.2831   -1.6105    5.3994 C   0  0  0  0  0  0  0  0  0  0  0  0
    1.2333   -3.0953    4.9842 C   0  0  0  0  0  0  0  0  0  0  0  0
    2.5628   -3.7552    5.3279 C   0  0  0  0  0  0  0  0  0  0  0  0
    0.8718    1.8889    3.8579 O   0  0  0  0  0  0  0  0  0  0  0  0
    2.9104   -3.4369    6.7718 C   0  0  0  0  0  0  0  0  0  0  0  0
    2.9396   -5.9664   11.1563 C   0  0  0  0  0  0  0  0  0  0  0  0
    4.1435   -9.9385   13.2410 C   0  0  0  0  0  0  0  0  0  0  0  0
    4.0971   -8.4419   13.5045 C   0  0  0  0  0  0  0  0  0  0  0  0
    4.9911   -7.6919   12.5155 C   0  0  0  0  0  0  0  0  0  0  0  0
    4.5417   -7.9168   11.0683 C   0  0  0  0  0  0  0  0  0  0  0  0
    3.0895   -7.4655   10.8697 C   0  0  0  0  0  0  0  0  0  0  0  0
    2.1210   -5.0427    8.4815 C   0  0  0  0  0  0  0  0  0  0  0  0
    3.5134   -5.4930    8.7720 C   0  0  0  0  0  0  0  0  0  0  0  0
    1.8591   -4.0512    7.6395 C   0  0  0  0  0  0  0  0  0  0  0  0
    3.8282   -5.1539   10.2186 C   0  0  0  0  0  0  0  0  0  0  0  0
    1.5567   -4.5627    0.1998 C   0  0  0  0  0  0  0  0  0  0  0  0
    0.4294   -5.5836    0.0745 C   0  0  0  0  0  0  0  0  0  0  0  0
    0.5059   -6.1870   -1.3342 C   0  0  0  0  0  0  0  0  0  0  0  0
    0.0745   -2.8338   -0.7929 C   0  0  0  0  0  0  0  0  0  0  0  0
    1.3837   -3.5856   -0.9765 C   0  0  0  0  0  0  0  0  0  0  0  0
    1.4458   -1.1276    0.4029 C   0  0  2  0  0  0  0  0  0  0  0  0
    0.1729   -2.0028    0.4551 C   0  0  0  0  0  0  0  0  0  0  0  0
    1.4535    0.1664   -0.3483 C   0  0  2  0  0  0  0  0  0  0  0  0
    0.4440    1.2560    0.2056 C   0  0  2  0  0  0  0  0  0  0  0  0
    0.6223    2.4283   -0.7902 C   0  0  0  0  0  0  0  0  0  0  0  0
    1.3414   -0.1279   -1.7373 O   0  0  0  0  0  0  0  0  0  0  0  0
    0.2339    2.0566   -2.1109 O   0  0  0  0  0  0  0  0  0  0  0  0
    1.8846   -6.8382   -1.5048 C   0  0  0  0  0  0  0  0  0  0  0  0
    2.0174   -7.9436   -0.4565 C   0  0  0  0  0  0  0  0  0  0  0  0
    0.8774   -8.9469   -0.6543 C   0  0  0  0  0  0  0  0  0  0  0  0
    0.9592   -9.5360   -2.0658 C   0  0  0  0  0  0  0  0  0  0  0  0
    2.3001  -10.2532   -2.2506 C   0  0  0  0  0  0  0  0  0  0  0  0
    2.4404  -11.4004   -1.2445 C   0  0  0  0  0  0  0  0  0  0  0  0
    1.3098  -12.4182   -1.4001 C   0  0  0  0  0  0  0  0  0  0  0  0
    1.3250  -13.0190   -2.7962 C   0  0  0  0  0  0  0  0  0  0  0  0
    2.6867   -1.8210    0.4841 O   0  0  0  0  0  0  0  0  0  0  0  0
  1  2  1  0
  3  2  1  0
  4  3  1  0
  4  5  1  0
  6  5  1  0
  6  7  1  0
  8  7  1  0
  8 10  1  0
  9  2  2  0
 10 19  1  0
 11 20  1  0
 12 13  1  0
 13 14  1  0
 14 15  1  0
 15 16  1  0
 16 11  1  0
 18 17  1  0
 19 17  2  0
 20 18  1  0
 21 25  1  0
 22 21  1  0
 23 22  1  0
 23 33  1  0
 24 27  1  0
 25 24  1  0
 26 41  1  6
 27 26  1  0
 28 26  1  0
 28 31  1  6
 29 30  1  6
 29  1  1  0
 29 28  1  0
 30 32  1  0
 33 34  1  0
 34 35  1  0
 35 36  1  0
 36 37  1  0
 37 38  1  0
 38 39  1  0
 39 40  1  0
M  END
>  <DRUGBANK_ID>  (1) 
DB14111

>  <SECONDARY_ACCESSION_NUMBERS>  (1) 
DB11258

>  <COMMON_NAME>  (1) 
Ceramide NP

>  <CAS_NUMBER>  (1) 
100403-19-8

>  <UNII>  (1) 
4370DF050B

>  <SYNONYMS>  (1) 
Cer(t18:0/18:1n-9); Ceramide 3; Ceramide III; Ceramide IIIb; Cytomide IIIa; Cytomide IIIb; N-(9Z-octadecenoyl)-4-hydroxysphinganine; N-(9Z-octadecenoyl)phytosphingosine; N-octadecanoylphytosphingosine; N-oleoylphytosphingosine; N-oloeoyl-4-hydroxysphinganine

$$$$
