35A
     RDKit          3D

 32 34  0  0  0  0  0  0  0  0999 V2000
    0.4003    3.5082    0.2162 C   0  0  0  0  0  0  0  0  0  0  0  0
    1.0504    2.1932    0.1897 C   0  0  0  0  0  0  0  0  0  0  0  0
    6.1254    3.6052   -3.5723 C   0  0  0  0  0  0  0  0  0  0  0  0
    5.7695    4.9556   -3.6702 C   0  0  0  0  0  0  0  0  0  0  0  0
    2.5486    6.6068    0.3732 O   0  0  0  0  0  0  0  0  0  0  0  0
    1.1265    5.3591    0.2251 C   0  0  0  0  0  0  0  0  0  0  0  0
    5.5827    5.6673   -2.5079 C   0  0  0  0  0  0  0  0  0  0  0  0
    5.1597    7.1268   -2.5179 C   0  0  0  0  0  0  0  0  0  0  0  0
    3.7265    7.4099   -1.8999 C   0  0  1  0  0  0  0  0  0  0  0  0
    6.0646    2.9067   -2.3458 C   0  0  0  0  0  0  0  0  0  0  0  0
    5.7204    3.5892   -1.2016 C   0  0  0  0  0  0  0  0  0  0  0  0
    5.7880    4.9692   -1.3024 C   0  0  0  0  0  0  0  0  0  0  0  0
    3.3809    0.6834   -1.2875 C   0  0  0  0  0  0  0  0  0  0  0  0
    3.0008    2.1430   -1.3656 C   0  0  1  0  0  0  0  0  0  0  0  0
    3.5862    2.9072   -0.0968 C   0  0  0  0  0  0  0  0  0  0  0  0
    5.0693    2.9176   -0.0259 C   0  0  0  0  0  0  0  0  0  0  0  0
    1.3740    0.4684    0.1004 C   0  0  0  0  0  0  0  0  0  0  0  0
    2.8461    0.0650   -0.0037 C   0  0  0  0  0  0  0  0  0  0  0  0
    0.6033   -0.5671    0.0544 N   0  0  0  0  0  0  0  0  0  0  0  0
   -0.6263    1.8679    0.1535 C   0  0  0  0  0  0  0  0  0  0  0  0
   -0.5591    0.0163    0.0669 C   0  0  0  0  0  0  0  0  0  0  0  0
   -1.3798   -1.6993    0.1040 N   0  0  0  0  0  0  0  0  0  0  0  0
   -3.1412   -2.2764   -0.0708 S   0  0  0  0  0  0  0  0  0  0  0  0
   -3.7574   -1.6300    1.4542 C   0  0  0  0  0  0  0  0  0  0  0  0
   -3.7177   -1.6308   -1.2237 O   0  0  0  0  0  0  0  0  0  0  0  0
   -3.3247   -3.7271    0.0696 O   0  0  0  0  0  0  0  0  0  0  0  0
   -0.5973   -3.3696    0.0204 C   0  0  0  0  0  0  0  0  0  0  0  0
    3.1639    2.8670   -2.6245 C   0  0  0  0  0  0  0  0  0  0  0  0
    3.5414    6.6842   -0.4894 C   0  0  0  0  0  0  0  0  0  0  0  0
    3.9304    5.5565   -0.3283 O   0  0  0  0  0  0  0  0  0  0  0  0
    3.4799    8.9160   -2.0024 C   0  0  0  0  0  0  0  0  0  0  0  0
    2.7338    6.7651   -2.8035 N   0  0  0  0  0  0  0  0  0  0  0  0
  1 20  1  0
  1  6  1  0
  1  2  2  0
  2 17  1  0
  3  4  1  0
  3 10  2  0
  4  7  2  0
  5  6  1  0
  5 29  1  0
  7  8  1  0
  7 12  1  0
  8  9  1  0
  9 29  1  0
  9 31  1  1
  9 32  1  0
 10 11  1  0
 11 12  2  0
 11 16  1  0
 13 18  1  0
 13 14  1  0
 14 15  1  0
 14 28  1  6
 15 16  1  0
 17 19  2  0
 17 18  1  0
 19 21  1  0
 20 21  2  0
 21 22  1  0
 22 27  1  0
 22 23  1  0
 23 24  1  0
 23 25  2  0
 23 26  2  0
 29 30  2  0
M  END
>  <DRUGBANK_ID>  (1) 
DB07019

>  <COMMON_NAME>  (1) 
N-[(5R,14R)-5-AMINO-5,14-DIMETHYL-4-OXO-3-OXA-18-AZATRICYCLO[15.3.1.1~7,11~]DOCOSA-1(21),7(22),8,10,17,19-HEXAEN-19-YL]-N-METHYLMETHANESULFONAMIDE

$$$$
