
     RDKit          3D

 38 41  0  0  1  0  0  0  0  0999 V2000
    1.0462   -0.4131   -0.2185 C   0  0  0  0  0  0  0  0  0  0  0  0
    0.4901    0.4380   -1.3446 C   0  0  0  0  0  0  0  0  0  0  0  0
    0.9289   -0.3413   -2.5793 C   0  0  0  0  0  0  0  0  0  0  0  0
   -1.0253    0.6257   -1.0978 C   0  0  0  0  0  0  0  0  0  0  0  0
   -1.4112    1.5782   -0.0164 O   0  0  0  0  0  0  0  0  0  0  0  0
   -1.0295    1.4728    1.3113 C   0  0  0  0  0  0  0  0  0  0  0  0
    0.2738    1.4317    1.7601 C   0  0  0  0  0  0  0  0  0  0  0  0
    0.5631    0.8951    3.0154 C   0  0  0  0  0  0  0  0  0  0  0  0
    1.7869    0.4036    3.2470 F   0  0  0  0  0  0  0  0  0  0  0  0
   -0.3885    0.8083    4.0071 C   0  0  0  0  0  0  0  0  0  0  0  0
   -1.6761    1.2541    3.7520 C   0  0  0  0  0  0  0  0  0  0  0  0
   -1.9811    1.5263    2.3447 C   0  0  0  0  0  0  0  0  0  0  0  0
   -2.5732    1.2930    4.9618 C   0  0  0  0  0  0  0  0  0  0  0  0
   -3.2511    0.2035    5.4639 C   0  0  0  0  0  0  0  0  0  0  0  0
   -4.2368    0.2775    6.4342 C   0  0  0  0  0  0  0  0  0  0  0  0
   -4.5711    1.4804    6.9284 C   0  0  0  0  0  0  0  0  0  0  0  0
   -5.8810    1.5899    7.5884 C   0  0  0  0  0  0  0  0  0  0  0  0
   -6.1109    2.4457    8.4697 O   0  0  0  0  0  0  0  0  0  0  0  0
   -6.9291    0.6740    7.3087 N   0  0  0  0  0  0  0  0  0  0  0  0
   -7.4019   -0.4846    6.1673 S   0  0  0  0  0  0  0  0  0  0  0  0
   -7.2460   -1.7473    6.8445 O   0  0  0  0  0  0  0  0  0  0  0  0
   -8.7225   -0.0689    5.7099 O   0  0  0  0  0  0  0  0  0  0  0  0
   -6.3538   -0.5890    4.6649 C   0  0  0  0  0  0  0  0  0  0  0  0
   -5.9784    0.5879    4.0306 C   0  0  0  0  0  0  0  0  0  0  0  0
   -4.9032    0.5535    3.1330 C   0  0  0  0  0  0  0  0  0  0  0  0
   -4.1847   -0.6422    2.8371 C   0  0  0  0  0  0  0  0  0  0  0  0
   -4.5416   -1.8216    3.4889 C   0  0  0  0  0  0  0  0  0  0  0  0
   -5.6537   -1.8049    4.3609 C   0  0  0  0  0  0  0  0  0  0  0  0
   -3.5981    2.4431    6.7166 C   0  0  0  0  0  0  0  0  0  0  0  0
   -2.6410    2.3820    5.7180 N   0  0  0  0  0  0  0  0  0  0  0  0
   -3.4261    3.4154    7.6327 N   0  0  0  0  0  0  0  0  0  0  0  0
   -3.2066    3.0612    9.0204 C   0  0  0  0  0  0  0  0  0  0  0  0
   -2.4691    4.2689    9.5827 C   0  0  1  0  0  0  0  0  0  0  0  0
   -1.1928    3.8346   10.2864 C   0  0  0  0  0  0  0  0  0  0  0  0
   -2.2120    5.1891    8.3649 C   0  0  0  0  0  0  0  0  0  0  0  0
   -3.2809    4.8109    7.3360 C   0  0  0  0  0  0  0  0  0  0  0  0
   -2.8816    5.1400    5.8934 C   0  0  0  0  0  0  0  0  0  0  0  0
   -4.6521    5.4337    7.6066 C   0  0  0  0  0  0  0  0  0  0  0  0
  1  2  1  0
  2  3  1  0
  2  4  1  0
  4  5  1  0
  5  6  1  0
  6  7  2  0
  6 12  1  0
  7  8  1  0
  8  9  1  0
  8 10  2  0
 10 11  1  0
 11 12  2  0
 11 13  1  0
 13 14  2  0
 13 30  1  0
 14 15  1  0
 15 16  2  0
 16 17  1  0
 16 29  1  0
 17 18  2  0
 17 19  1  0
 19 20  1  0
 20 21  2  0
 20 22  2  0
 20 23  1  0
 23 24  2  0
 23 28  1  0
 24 25  1  0
 25 26  2  0
 26 27  1  0
 27 28  2  0
 29 30  2  0
 29 31  1  0
 31 32  1  0
 31 36  1  0
 33 32  1  0
 33 35  1  0
 33 34  1  6
 35 36  1  0
 36 37  1  0
 36 38  1  0
M  END
>  <DRUGBANK_ID>  (1) 
DB16262

>  <COMMON_NAME>  (1) 
Olacaftor

>  <CAS_NUMBER>  (1) 
1897384-89-2

>  <UNII>  (1) 
RZ7027HK8F

>  <SYNONYMS>  (1) 
Olacaftor

$$$$
