
     RDKit          3D

  6  4  0  0  0  0  0  0  0  0999 V2000
    0.9555   -0.0299   -0.0844 Ba  0  0  0  0  0 15  0  0  0  0  0  0
    0.9509   -0.0589   -0.0642 O   0  0  0  0  0  0  0  0  0  0  0  0
    2.6609   -0.0589   -0.0642 S   0  0  0  0  0  0  0  0  0  0  0  0
    3.2309   -1.6023   -0.5302 O   0  0  0  0  0  0  0  0  0  0  0  0
    3.1710    0.9929   -1.0519 O   0  0  0  0  0  0  0  0  0  0  0  0
    3.1710    0.2706    1.3407 O   0  0  0  0  0  0  0  0  0  0  0  0
  2  3  1  0
  3  4  1  0
  3  5  2  0
  3  6  2  0
M  CHG  3   1   2   2  -1   4  -1
M  END
>  <DRUGBANK_ID>  (1) 
DB11150

>  <COMMON_NAME>  (1) 
Barium sulfate

>  <CAS_NUMBER>  (1) 
7727-43-7

>  <UNII>  (1) 
25BB7EKE2E

>  <SYNONYMS>  (1) 
Bario sulfato; Barium sulfate

$$$$
