621
     RDKit          3D

 22 25  0  0  1  0  0  0  0  0999 V2000
   -6.6843    2.4630    7.8441 O   0  0  0  0  0  0  0  0  0  0  0  0
   -5.3454   -3.2268    4.3201 O   0  0  0  0  0  0  0  0  0  0  0  0
   -5.0465   -3.6258    6.5389 O   0  0  0  0  0  0  0  0  0  0  0  0
   -7.3539    2.6708    5.1921 C   0  0  2  0  0  0  0  0  0  0  0  0
   -8.7112    2.8448    5.4563 C   0  0  2  0  0  0  0  0  0  0  0  0
   -6.3631    1.5854    4.9322 C   0  0  2  0  0  0  0  0  0  0  0  0
   -7.0452    0.1873    4.6632 C   0  0  2  0  0  0  0  0  0  0  0  0
   -5.9233   -0.8185    4.3331 C   0  0  1  0  0  0  0  0  0  0  0  0
   -7.6990    3.3918    7.1024 C   0  0  2  0  0  0  0  0  0  0  0  0
   -9.1943    1.3283    4.4807 C   0  0  0  0  0  0  0  0  0  0  0  0
   -8.1166    0.4420    3.6651 C   0  0  0  0  0  0  0  0  0  0  0  0
   -7.0960    4.2155    5.3408 C   0  0  0  0  0  0  0  0  0  0  0  0
   -5.0054   -0.8143    5.5939 C   0  0  2  0  0  0  0  0  0  0  0  0
   -5.5501    1.3607    6.2004 C   0  0  0  0  0  0  0  0  0  0  0  0
   -6.3950    4.4381    6.5882 C   0  0  0  0  0  0  0  0  0  0  0  0
   -4.4002    0.5146    5.9303 C   0  0  0  0  0  0  0  0  0  0  0  0
   -9.0505    3.6048    3.7662 C   0  0  0  0  0  0  0  0  0  0  0  0
   -6.4179   -2.2766    4.0996 C   0  0  0  0  0  0  0  0  0  0  0  0
   -5.0987   -0.3106    3.1445 C   0  0  0  0  0  0  0  0  0  0  0  0
   -3.8912   -1.8059    5.5377 C   0  0  0  0  0  0  0  0  0  0  0  0
   -8.0451    3.6542    8.7368 C   0  0  0  0  0  0  0  0  0  0  0  0
   -4.7171   -3.0429    5.5134 C   0  0  0  0  0  0  0  0  0  0  0  0
  2 18  1  0
  2 22  1  0
  3 22  2  0
  4  5  1  0
  4  6  1  0
  4 12  1  1
  5  9  1  0
  5 10  1  0
  5 17  1  6
  6  7  1  0
  6 14  1  1
  7  8  1  0
  7 11  1  6
  8 13  1  0
  8 18  1  0
  8 19  1  6
  9 15  1  0
  9  1  1  0
  9 21  1  1
 10 11  1  0
 12 15  1  0
 13 16  1  6
 13 20  1  0
 14 16  1  0
 20 22  1  0
M  END
>  <DRUGBANK_ID>  (1) 
DB00621

>  <SECONDARY_ACCESSION_NUMBERS>  (1) 
APRD01151

>  <COMMON_NAME>  (1) 
Oxandrolone

>  <CAS_NUMBER>  (1) 
53-39-4

>  <UNII>  (1) 
7H6TM3CT4L

>  <SYNONYMS>  (1) 
Ossandrolone; Oxandrolon; Oxandrolona; Oxandrolone; Oxandrolonum

$$$$
