
     RDKit          3D

 21 22  0  0  0  0  0  0  0  0999 V2000
    0.9217   -0.0132   -0.0608 S   0  0  0  0  0  0  0  0  0  0  0  0
    0.3133   -2.5947    1.2912 S   0  0  0  0  0  0  0  0  0  0  0  0
    0.2151   -1.9388   -0.5965 P   0  0  2  0  0  0  0  0  0  0  0  0
   -0.2446    1.1540    1.5319 O   0  0  0  0  0  0  0  0  0  0  0  0
   -2.5618    1.8441    2.4557 O   0  0  0  0  0  0  0  0  0  0  0  0
   -1.2863   -1.2575   -0.9490 O   0  0  0  0  0  0  0  0  0  0  0  0
    2.5889    3.7409    2.2683 O   0  0  0  0  0  0  0  0  0  0  0  0
    3.6237    5.4343   -1.7350 O   0  0  0  0  0  0  0  0  0  0  0  0
   -0.3616   -3.5102   -1.0337 O   0  0  0  0  0  0  0  0  0  0  0  0
    1.3024    2.9699    0.4662 N   0  0  0  0  0  0  0  0  0  0  0  0
    3.2752    4.2597    0.1876 N   0  0  0  0  0  0  0  0  0  0  0  0
   -2.2421    1.9449    1.0603 C   0  0  2  0  0  0  0  0  0  0  0  0
   -1.4829    0.7040    0.7704 C   0  0  1  0  0  0  0  0  0  0  0  0
   -1.2386    3.0936    0.8808 C   0  0  0  0  0  0  0  0  0  0  0  0
    0.1004    2.5603    1.3480 C   0  0  1  0  0  0  0  0  0  0  0  0
   -1.5301    0.2094   -0.7972 C   0  0  0  0  0  0  0  0  0  0  0  0
    1.1814    3.0200   -0.9220 C   0  0  0  0  0  0  0  0  0  0  0  0
    2.3995    3.6317    1.0565 C   0  0  0  0  0  0  0  0  0  0  0  0
    1.9070    3.8131   -1.7177 C   0  0  0  0  0  0  0  0  0  0  0  0
    3.0129    4.5863   -1.1177 C   0  0  0  0  0  0  0  0  0  0  0  0
    1.5891    4.0558   -3.1581 C   0  0  0  0  0  0  0  0  0  0  0  0
  1  3  1  0
  2  3  2  0
  3  6  1  0
  3  9  1  6
  4 13  1  0
  4 15  1  0
  6 16  1  0
  7 18  2  0
  8 20  2  0
 10 17  1  0
 10 18  1  0
 11 18  1  0
 11 20  1  0
 12  5  1  1
 12 13  1  0
 12 14  1  0
 13 16  1  6
 14 15  1  0
 15 10  1  6
 17 19  2  0
 19 20  1  0
 19 21  1  0
M  END
>  <DRUGBANK_ID>  (1) 
DB02980

>  <SECONDARY_ACCESSION_NUMBERS>  (1) 
EXPT03057

>  <COMMON_NAME>  (1) 
Thymidine-5'-(dithio)phosphate

$$$$
