LJ4
     RDKit          3D

 16 17  0  0  0  0  0  0  0  0999 V2000
   -1.2586   -1.8910    0.0723 C   0  0  0  0  0  0  0  0  0  0  0  0
   -1.2263   -0.4985    0.0278 C   0  0  0  0  0  0  0  0  0  0  0  0
   -2.8739    0.4393   -0.0017 Br  0  0  0  0  0  0  0  0  0  0  0  0
   -0.0086    0.1814    0.0171 C   0  0  0  0  0  0  0  0  0  0  0  0
    0.0239    1.5506    0.0327 O   0  0  0  0  0  0  0  0  0  0  0  0
    1.1825   -0.5474    0.0088 C   0  0  0  0  0  0  0  0  0  0  0  0
    2.8661    0.3294   -0.0128 Br  0  0  0  0  0  0  0  0  0  0  0  0
    1.1532   -1.9489    0.0325 C   0  0  0  0  0  0  0  0  0  0  0  0
   -0.0726   -2.6280    0.0773 C   0  0  0  0  0  0  0  0  0  0  0  0
   -0.0024   -4.0054    0.1797 O   0  0  0  0  0  0  0  0  0  0  0  0
   -1.1604   -4.7512    0.1178 C   0  0  0  0  0  0  0  0  0  0  0  0
   -2.0179   -4.7034   -0.9833 C   0  0  0  0  0  0  0  0  0  0  0  0
   -3.1792   -5.4772   -1.0040 C   0  0  0  0  0  0  0  0  0  0  0  0
   -3.4438   -6.3625    0.0420 C   0  0  0  0  0  0  0  0  0  0  0  0
   -2.5541   -6.4628    1.1100 C   0  0  0  0  0  0  0  0  0  0  0  0
   -1.4229   -5.6421    1.1634 C   0  0  0  0  0  0  0  0  0  0  0  0
  1  2  2  0
  1  9  1  0
  2  3  1  0
  2  4  1  0
  4  5  1  0
  4  6  2  0
  6  7  1  0
  6  8  1  0
  8  9  2  0
  9 10  1  0
 10 11  1  0
 11 12  2  0
 11 16  1  0
 12 13  1  0
 13 14  2  0
 14 15  1  0
 15 16  2  0
M  END
>  <DRUGBANK_ID>  (1) 
DB08103

>  <COMMON_NAME>  (1) 
2,6-dibromo-4-phenoxyphenol

$$$$
