P21
     RDKit          3D

 29 31  0  0  0  0  0  0  0  0999 V2000
    9.1074   -2.1411   -7.1066 Cl  0  0  0  0  0  0  0  0  0  0  0  0
    8.5784   -1.2416   -5.7471 C   0  0  0  0  0  0  0  0  0  0  0  0
    7.8914   -1.9035   -4.7576 C   0  0  0  0  0  0  0  0  0  0  0  0
    7.3122   -1.1733   -3.7287 C   0  0  0  0  0  0  0  0  0  0  0  0
    8.7432    0.1370   -5.6635 C   0  0  0  0  0  0  0  0  0  0  0  0
    8.2037    0.8548   -4.5748 C   0  0  0  0  0  0  0  0  0  0  0  0
    7.4872    0.2092   -3.5486 C   0  0  0  0  0  0  0  0  0  0  0  0
    6.9099    1.0894   -2.4051 C   0  0  0  0  0  0  0  0  0  0  0  0
    6.7367    2.2511   -2.6821 O   0  0  0  0  0  0  0  0  0  0  0  0
    6.6695    0.5769   -1.0626 N   0  0  0  0  0  0  0  0  0  0  0  0
    6.4904   -0.8696   -0.9323 C   0  0  0  0  0  0  0  0  0  0  0  0
    7.0186   -1.8064    0.1454 C   0  0  0  0  0  0  0  0  0  0  0  0
    6.0128    1.5004   -0.0198 C   0  0  2  0  0  0  0  0  0  0  0  0
    6.1387    3.0154   -0.0933 C   0  0  0  0  0  0  0  0  0  0  0  0
    6.0271    3.7838    1.1818 N   0  0  0  0  0  0  0  0  0  0  0  0
    6.5820    3.2169    2.4209 C   0  0  0  0  0  0  0  0  0  0  0  0
    6.0949    1.8413    2.6290 C   0  0  0  0  0  0  0  0  0  0  0  0
    6.4587    1.1052    1.3789 C   0  0  0  0  0  0  0  0  0  0  0  0
    6.6948    5.0682    0.9541 C   0  0  0  0  0  0  0  0  0  0  0  0
    8.2716    5.0496    0.9148 C   0  0  0  0  0  0  0  0  0  0  0  0
    9.0293    4.2045   -0.1140 C   0  0  0  0  0  0  0  0  0  0  0  0
    9.5273    4.7850   -1.2774 C   0  0  0  0  0  0  0  0  0  0  0  0
    9.9679    3.9869   -2.3407 C   0  0  0  0  0  0  0  0  0  0  0  0
    9.8992    2.5995   -2.2678 C   0  0  0  0  0  0  0  0  0  0  0  0
    9.4924    1.9986   -1.0928 C   0  0  0  0  0  0  0  0  0  0  0  0
    9.1322    2.8020   -0.0097 C   0  0  0  0  0  0  0  0  0  0  0  0
    6.4714   -1.7096    1.5328 C   0  0  0  0  0  0  0  0  0  0  0  0
    5.0387   -1.7082    1.6802 O   0  0  0  0  0  0  0  0  0  0  0  0
    4.1383   -0.9788    0.8341 C   0  0  0  0  0  0  0  0  0  0  0  0
  1  2  1  0
  2  3  2  0
  2  5  1  0
  3  4  1  0
  4  7  2  0
  5  6  2  0
  6  7  1  0
  7  8  1  0
  8  9  2  0
  8 10  1  0
 10 11  1  0
 11 12  1  0
 12 27  1  0
 13 14  1  0
 13 18  1  0
 13 10  1  6
 14 15  1  0
 15 16  1  0
 15 19  1  0
 16 17  1  0
 17 18  1  0
 19 20  1  0
 20 21  1  0
 21 22  2  0
 21 26  1  0
 22 23  1  0
 23 24  2  0
 24 25  1  0
 25 26  2  0
 27 28  1  0
 28 29  1  0
M  END
>  <DRUGBANK_ID>  (1) 
DB08344

>  <COMMON_NAME>  (1) 
4-chloro-N-(3-methoxypropyl)-N-[(3S)-1-(2-phenylethyl)piperidin-3-yl]benzamide

$$$$
