
     RDKit          3D

 21 23  0  0  0  0  0  0  0  0999 V2000
   -0.0480   -1.0330   -0.9195 C   0  0  0  0  0  0  0  0  0  0  0  0
   -1.3178   -0.6291   -0.3316 C   0  0  0  0  0  0  0  0  0  0  0  0
    1.2494   -0.5313   -0.4007 C   0  0  0  0  0  0  0  0  0  0  0  0
   -1.6316    0.7275   -0.2926 C   0  0  0  0  0  0  0  0  0  0  0  0
   -2.1614   -1.6037    0.2091 C   0  0  0  0  0  0  0  0  0  0  0  0
    1.4325    0.7956    0.0355 C   0  0  0  0  0  0  0  0  0  0  0  0
    2.3115   -1.4489   -0.2641 C   0  0  0  0  0  0  0  0  0  0  0  0
   -1.2332   -2.2795   -2.8548 C   0  0  0  0  0  0  0  0  0  0  0  0
   -0.6293    1.7051   -0.8491 C   0  0  0  0  0  0  0  0  0  0  0  0
   -2.8447    1.1046    0.2814 C   0  0  0  0  0  0  0  0  0  0  0  0
   -3.3664   -1.2226    0.7702 C   0  0  0  0  0  0  0  0  0  0  0  0
    0.5224    1.8282   -0.0047 O   0  0  0  0  0  0  0  0  0  0  0  0
    2.6535    1.1533    0.6263 C   0  0  0  0  0  0  0  0  0  0  0  0
    3.5237   -1.0743    0.3052 C   0  0  0  0  0  0  0  0  0  0  0  0
   -1.2664   -1.7021   -4.2913 C   0  0  0  0  0  0  0  0  0  0  0  0
   -3.7063    0.1298    0.8042 C   0  0  0  0  0  0  0  0  0  0  0  0
    3.6905    0.2256    0.7616 C   0  0  0  0  0  0  0  0  0  0  0  0
   -0.1852   -2.1412   -5.2025 N   0  0  0  0  0  0  0  0  0  0  0  0
   -0.4036   -1.6024   -6.5453 C   0  0  0  0  0  0  0  0  0  0  0  0
    1.1408   -1.7073   -4.7692 C   0  0  0  0  0  0  0  0  0  0  0  0
   -0.0736   -1.8156   -2.0030 C   0  0  0  0  0  0  0  0  0  0  0  0
  1  2  1  0
  1  3  1  0
  1 21  2  3
  2  4  2  0
  2  5  1  0
  3  6  2  0
  3  7  1  0
  4  9  1  0
  4 10  1  0
  5 11  2  0
  6 12  1  0
  6 13  1  0
  7 14  2  0
  8 15  1  0
  9 12  1  0
 10 16  2  0
 11 16  1  0
 13 17  2  0
 14 17  1  0
 15 18  1  0
 18 19  1  0
 18 20  1  0
 21  8  1  0
M  END
>  <DRUGBANK_ID>  (1) 
DB01142

>  <SECONDARY_ACCESSION_NUMBERS>  (1) 
APRD00398

>  <COMMON_NAME>  (1) 
Doxepin

>  <CAS_NUMBER>  (1) 
1668-19-5

>  <UNII>  (1) 
5ASJ6HUZ7D

>  <SYNONYMS>  (1) 
Doxepin; Doxepina; Doxepinum

$$$$
