
     RDKit          3D

 12 12  0  0  0  0  0  0  0  0999 V2000
    0.5610    0.0648   -0.1606 O   0  0  0  0  0  0  0  0  0  0  0  0
    0.4286   -0.7745   -1.2698 N   0  0  0  0  0  0  0  0  0  0  0  0
   -0.2504   -2.0406   -1.0754 C   0  0  0  0  0  0  0  0  0  0  0  0
    0.5131   -3.1043   -1.8612 C   0  0  0  0  0  0  0  0  0  0  0  0
    0.7941   -2.6157   -3.2882 C   0  0  0  0  0  0  0  0  0  0  0  0
    1.4689   -1.2512   -3.2720 C   0  0  0  0  0  0  0  0  0  0  0  0
    0.5969   -0.2777   -2.5386 C   0  0  0  0  0  0  0  0  0  0  0  0
    0.4428    0.8856   -2.9045 O   0  0  0  0  0  0  0  0  0  0  0  0
    3.0882   -1.1488   -2.4678 P   0  0  0  0  0  0  0  0  0  0  0  0
    4.0192   -0.7700   -3.7133 O   0  0  0  0  0  0  0  0  0  0  0  0
    3.1089    0.1833   -1.5675 O   0  0  0  0  0  0  0  0  0  0  0  0
    3.6090   -2.3388   -1.7307 O   0  0  0  0  0  0  0  0  0  0  0  0
  1  2  1  0
  2  3  1  0
  2  7  1  0
  3  4  1  0
  4  5  1  0
  5  6  1  0
  6  7  1  0
  6  9  1  0
  7  8  2  0
  9 10  1  0
  9 11  1  0
  9 12  2  0
M  END
>  <DRUGBANK_ID>  (1) 
DB17108

>  <COMMON_NAME>  (1) 
(1-Hydroxy-2-oxopiperidin-3-yl)phosphonic acid

>  <CAS_NUMBER>  (1) 
2004714-32-1

>  <UNII>  (1) 
64T5RTG4MY

>  <SYNONYMS>  (1) 
Phosphonic acid, p-(1-hydroxy-2-oxo-3-piperidinyl)-

$$$$
