
     RDKit          3D

  7  6  0  0  0  0  0  0  0  0999 V2000
    1.0325    0.1607   -0.0219 C   0  0  0  0  0  0  0  0  0  0  0  0
    0.5395    1.5915   -0.0976 C   0  0  0  0  0  0  0  0  0  0  0  0
   -0.2678    1.9768   -0.9398 O   0  0  0  0  0  0  0  0  0  0  0  0
    0.5235   -0.6134    1.2232 N   0  0  0  0  0  0  0  0  0  0  0  0
    1.0323    0.0383    2.5003 C   0  0  0  0  0  0  0  0  0  0  0  0
   -1.0045   -0.6350    1.2144 C   0  0  0  0  0  0  0  0  0  0  0  0
    1.0364   -2.0493    1.1649 C   0  0  0  0  0  0  0  0  0  0  0  0
  1  4  1  0
  1  2  1  0
  2  3  2  0
  4  5  1  0
  4  6  1  0
  4  7  1  0
M  CHG  1   4   1
M  END
>  <DRUGBANK_ID>  (1) 
DB04401

>  <SECONDARY_ACCESSION_NUMBERS>  (1) 
EXPT00767

>  <COMMON_NAME>  (1) 
Betaine aldehyde

>  <CAS_NUMBER>  (1) 
7418-61-3

>  <UNII>  (1) 
DEI7V5X7RB

>  <SYNONYMS>  (1) 
Glycine betaine aldehyde

$$$$
