1173
     RDKit          3D

 20 21  0  0  1  0  0  0  0  0999 V2000
    1.1084   -0.0947   -0.3251 O   0  0  0  0  0  0  0  0  0  0  0  0
    2.4446   -1.8748    1.6483 N   0  0  0  0  0  0  0  0  0  0  0  0
    0.5206    0.5105   -1.4656 C   0  0  0  0  0  0  0  0  0  0  0  0
    0.6968    2.0337   -1.4674 C   0  0  0  0  0  0  0  0  0  0  0  0
   -0.9541    0.0649   -1.5759 C   0  0  0  0  0  0  0  0  0  0  0  0
    2.5321   -0.1721   -0.2593 C   0  0  0  0  0  0  0  0  0  0  0  0
    1.0721    2.8265   -0.3564 C   0  0  0  0  0  0  0  0  0  0  0  0
    2.9426   -0.5581    1.1898 C   0  0  0  0  0  0  0  0  0  0  0  0
    0.4877    2.6942   -2.7004 C   0  0  0  0  0  0  0  0  0  0  0  0
   -1.6658    0.2619   -2.7696 C   0  0  0  0  0  0  0  0  0  0  0  0
   -1.6393   -0.5984   -0.5389 C   0  0  0  0  0  0  0  0  0  0  0  0
    1.2974    4.2022   -0.5430 C   0  0  0  0  0  0  0  0  0  0  0  0
    1.3344    2.3401    1.0422 C   0  0  0  0  0  0  0  0  0  0  0  0
    0.6063    4.0727   -2.8346 C   0  0  0  0  0  0  0  0  0  0  0  0
    1.0442    4.8232   -1.7599 C   0  0  0  0  0  0  0  0  0  0  0  0
   -2.9857   -0.1554   -2.9327 C   0  0  0  0  0  0  0  0  0  0  0  0
   -2.9296   -1.1084   -0.7320 C   0  0  0  0  0  0  0  0  0  0  0  0
    2.9615   -2.1722    2.9817 C   0  0  0  0  0  0  0  0  0  0  0  0
    0.9801   -1.9211    1.7132 C   0  0  0  0  0  0  0  0  0  0  0  0
   -3.6125   -0.8694   -1.9158 C   0  0  0  0  0  0  0  0  0  0  0  0
  1  3  1  0
  1  6  1  0
  2  8  1  0
  2 18  1  0
  2 19  1  0
  3  4  1  0
  3  5  1  0
  4  7  2  0
  4  9  1  0
  5 10  2  0
  5 11  1  0
  6  8  1  0
  7 12  1  0
  7 13  1  0
  9 14  2  0
 10 16  1  0
 11 17  2  0
 12 15  2  0
 14 15  1  0
 16 20  2  0
 17 20  1  0
M  END
>  <DRUGBANK_ID>  (1) 
DB01173

>  <SECONDARY_ACCESSION_NUMBERS>  (1) 
APRD00097

>  <COMMON_NAME>  (1) 
Orphenadrine

>  <CAS_NUMBER>  (1) 
83-98-7

>  <UNII>  (1) 
AL805O9OG9

>  <SYNONYMS>  (1) 
2-(phenyl-o-tolylmethoxy)ethyldimethylamine; 2-methyldiphenhydramine; beta-Dimethylaminoethyl 2-methylbenzhydryl ether; Dimethyl-[2-(phenyl-o-tolyl-methoxy)-ethyl]-amine; N,N-Dimethyl-2-(alpha-2-tolylbenzoyloxy)ethylamine; N,N-dimethyl-2-(phenyl(o-tolyl)methoxy)ethanamine; N,N-dimethyl-2-[(o-methyl-α-phenylbenzyl)oxy]ethylamine; o-methyldiphenhydramine; o-monomethyldiphenhydramine; Orfenadrina; Orphenadrine; Orphenadrinum; phenyl-o-tolylmethyl dimethyaminoethyl ether; β-dimethylaminoethyl 2-methylbenzhydryl ether

$$$$
