FRM
     RDKit          3D

 28 31  0  0  0  0  0  0  0  0999 V2000
   -2.4136   -0.6859   -0.0499 C   0  0  0  0  0  0  0  0  0  0  0  0
   -1.2027   -1.3602    0.1240 C   0  0  0  0  0  0  0  0  0  0  0  0
   -0.0003   -0.6353    0.0481 C   0  0  0  0  0  0  0  0  0  0  0  0
   -0.0541    0.7567    0.0834 C   0  0  0  0  0  0  0  0  0  0  0  0
   -1.2716    1.4274    0.0609 C   0  0  0  0  0  0  0  0  0  0  0  0
   -2.4357    0.7002   -0.1521 C   0  0  0  0  0  0  0  0  0  0  0  0
    1.2211   -1.2985   -0.0938 N   0  0  0  0  0  0  0  0  0  0  0  0
    2.3199   -0.6189   -0.1124 C   0  0  0  0  0  0  0  0  0  0  0  0
    2.3513    0.7428   -0.0263 N   0  0  0  0  0  0  0  0  0  0  0  0
    1.2161    1.4949    0.0572 C   0  0  0  0  0  0  0  0  0  0  0  0
    1.2547    2.7295    0.0789 O   0  0  0  0  0  0  0  0  0  0  0  0
    3.6614   -1.3104   -0.1816 C   0  0  0  0  0  0  0  0  0  0  0  0
    3.8604   -2.1993    1.0525 C   0  0  0  0  0  0  0  0  0  0  0  0
    2.8225   -3.3244    1.1556 C   0  0  0  0  0  0  0  0  0  0  0  0
    2.8392   -4.1427   -0.0619 N   0  0  0  0  0  0  0  0  0  0  0  0
    4.0646   -4.9344   -0.1248 C   0  0  0  0  0  0  0  0  0  0  0  0
    3.9908   -6.1647   -0.9619 C   0  0  0  0  0  0  0  0  0  0  0  0
    2.8646   -6.5771   -1.5595 C   0  0  0  0  0  0  0  0  0  0  0  0
    1.5819   -5.8116   -1.4171 C   0  0  0  0  0  0  0  0  0  0  0  0
    1.6231   -4.9435   -0.1600 C   0  0  0  0  0  0  0  0  0  0  0  0
    2.8468   -7.8068   -2.3405 C   0  0  0  0  0  0  0  0  0  0  0  0
    2.5430   -7.7592   -3.7034 C   0  0  0  0  0  0  0  0  0  0  0  0
    2.5276   -8.9357   -4.4456 C   0  0  0  0  0  0  0  0  0  0  0  0
    2.6440  -10.1549   -3.7884 C   0  0  0  0  0  0  0  0  0  0  0  0
    2.8576  -10.2154   -2.4174 C   0  0  0  0  0  0  0  0  0  0  0  0
    3.0850   -9.0371   -1.7163 C   0  0  0  0  0  0  0  0  0  0  0  0
   -1.2387   -2.8391    0.3504 C   0  0  0  0  0  0  0  0  0  0  0  0
    2.5685  -11.2920   -4.4904 F   0  0  0  0  0  0  0  0  0  0  0  0
  1  2  2  0
  1  6  1  0
  2  3  1  0
  2 27  1  0
  3  4  2  0
  3  7  1  0
  4  5  1  0
  4 10  1  0
  5  6  2  0
  7  8  2  0
  8  9  1  0
  8 12  1  0
  9 10  1  0
 10 11  2  0
 12 13  1  0
 13 14  1  0
 14 15  1  0
 15 16  1  0
 15 20  1  0
 16 17  1  0
 17 18  2  0
 18 19  1  0
 18 21  1  0
 19 20  1  0
 21 22  2  0
 21 26  1  0
 22 23  1  0
 23 24  2  0
 24 25  1  0
 24 28  1  0
 25 26  2  0
M  END
>  <DRUGBANK_ID>  (1) 
DB03072

>  <SECONDARY_ACCESSION_NUMBERS>  (1) 
EXPT01494

>  <COMMON_NAME>  (1) 
2-{3-[4-(4-Fluorophenyl)-3,6-Dihydro-1(2h)-Pyridinyl]Propyl}-8-Methyl-4(3h)-Quinazolinone

$$$$
