DID
     RDKit          3D

 26 27  0  0  0  0  0  0  0  0999 V2000
    1.2570    0.3821    0.2805 C   0  0  0  0  0  0  0  0  0  0  0  0
    0.3907   -0.6495    0.0929 C   0  0  0  0  0  0  0  0  0  0  0  0
   -0.9020   -0.4460    0.4836 C   0  0  0  0  0  0  0  0  0  0  0  0
   -1.5174    0.6945    0.1038 C   0  0  0  0  0  0  0  0  0  0  0  0
   -0.6631    1.7882   -0.0203 C   0  0  0  0  0  0  0  0  0  0  0  0
    0.7345    1.6305    0.1001 C   0  0  0  0  0  0  0  0  0  0  0  0
    2.5958    0.1022    0.8697 C   0  0  0  0  0  0  0  0  0  0  0  0
    3.5788    1.0672    0.7346 N   0  0  0  0  0  0  0  0  0  0  0  0
    2.8168   -1.0386    1.3797 N   0  0  0  0  0  0  0  0  0  0  0  0
   -2.8486    0.7850   -0.1883 O   0  0  0  0  0  0  0  0  0  0  0  0
   -3.6774   -0.4031   -0.3541 C   0  0  0  0  0  0  0  0  0  0  0  0
   -3.4961   -1.2537   -1.6444 C   0  0  0  0  0  0  0  0  0  0  0  0
   -2.2132   -2.0272   -1.6442 C   0  0  0  0  0  0  0  0  0  0  0  0
   -2.1743   -2.9127   -0.4047 C   0  0  0  0  0  0  0  0  0  0  0  0
   -2.8265   -4.2526   -0.4275 C   0  0  0  0  0  0  0  0  0  0  0  0
   -2.2416   -5.0675   -1.5531 C   0  0  0  0  0  0  0  0  0  0  0  0
   -0.9128   -5.6137   -1.3298 O   0  0  0  0  0  0  0  0  0  0  0  0
    0.2015   -4.8438   -1.1117 C   0  0  0  0  0  0  0  0  0  0  0  0
    0.5101   -4.2250    0.0941 C   0  0  0  0  0  0  0  0  0  0  0  0
    1.6552   -3.3544    0.2294 C   0  0  0  0  0  0  0  0  0  0  0  0
    2.6207   -3.1825   -0.7930 C   0  0  0  0  0  0  0  0  0  0  0  0
    2.4258   -4.1030   -1.8199 C   0  0  0  0  0  0  0  0  0  0  0  0
    1.2435   -4.8627   -2.0179 C   0  0  0  0  0  0  0  0  0  0  0  0
    3.8478   -2.2503   -1.0817 C   0  0  0  0  0  0  0  0  0  0  0  0
    4.6969   -2.4626   -2.1149 N   0  0  0  0  0  0  0  0  0  0  0  0
    4.4767   -1.2123   -0.6075 N   0  0  0  0  0  0  0  0  0  0  0  0
  1  2  2  0
  1  6  1  0
  1  7  1  0
  2  3  1  0
  3  4  2  0
  4  5  1  0
  4 10  1  0
  5  6  2  0
  7  8  1  0
  7  9  2  0
 10 11  1  0
 11 12  1  0
 12 13  1  0
 13 14  1  0
 14 15  1  0
 15 16  1  0
 16 17  1  0
 17 18  1  0
 18 19  2  0
 18 23  1  0
 19 20  1  0
 20 21  2  0
 21 22  1  0
 21 24  1  0
 22 23  2  0
 24 25  1  0
 24 26  2  0
M  END
>  <DRUGBANK_ID>  (1) 
DB03808

>  <SECONDARY_ACCESSION_NUMBERS>  (1) 
EXPT01203

>  <COMMON_NAME>  (1) 
Hexamidine

>  <CAS_NUMBER>  (1) 
3811-75-4

>  <UNII>  (1) 
3483C2H13H

>  <SYNONYMS>  (1) 
hexamidina; Hexamidine

$$$$
