
     RDKit          3D

 23 24  0  0  0  0  0  0  0  0999 V2000
    3.0416    1.2393    0.3874 O   0  0  0  0  0  0  0  0  0  0  0  0
    2.7068   -1.0297    0.7661 O   0  0  0  0  0  0  0  0  0  0  0  0
    1.9637    0.7986   -2.4215 O   0  0  0  0  0  0  0  0  0  0  0  0
    3.0166   -1.8133   -3.3155 O   0  0  0  0  0  0  0  0  0  0  0  0
    4.4810    0.4741    2.8509 O   0  0  0  0  0  0  0  0  0  0  0  0
    2.4552   -3.9366   -1.4468 O   0  0  0  0  0  0  0  0  0  0  0  0
    6.9098   -0.9903    2.4522 O   0  0  0  0  0  0  0  0  0  0  0  0
    5.0764    1.6572   -3.1586 O   0  0  0  0  0  0  0  0  0  0  0  0
    2.4846   -3.0567    2.6800 O   0  0  0  0  0  0  0  0  0  0  0  0
    7.5707   -1.1425   -0.3186 O   0  0  0  0  0  0  0  0  0  0  0  0
    6.6803    0.9454   -0.6748 N   0  0  0  0  0  0  0  0  0  0  0  0
    4.4855    1.2154    0.5271 C   0  0  2  0  0  0  0  0  0  0  0  0
    2.3616    0.0517   -0.0759 C   0  0  2  0  0  0  0  0  0  0  0  0
    2.5742   -0.1889   -1.5912 C   0  0  1  0  0  0  0  0  0  0  0  0
    5.2382    1.0504   -0.8056 C   0  0  1  0  0  0  0  0  0  0  0  0
    2.3357   -1.6061   -2.0598 C   0  0  2  0  0  0  0  0  0  0  0  0
    4.9961    0.1724    1.5482 C   0  0  1  0  0  0  0  0  0  0  0  0
    2.8574   -2.6303   -1.0478 C   0  0  1  0  0  0  0  0  0  0  0  0
    2.3259   -2.3299    0.3511 C   0  0  1  0  0  0  0  0  0  0  0  0
    6.5203    0.0465    1.5640 C   0  0  2  0  0  0  0  0  0  0  0  0
    4.7786    2.0985   -1.8368 C   0  0  0  0  0  0  0  0  0  0  0  0
    7.0177   -0.1357    0.1323 C   0  0  0  0  0  0  0  0  0  0  0  0
    2.9100   -3.3473    1.3514 C   0  0  0  0  0  0  0  0  0  0  0  0
  2 13  1  0
  2 19  1  0
  8 21  1  0
  9 23  1  0
 10 22  2  0
 11 15  1  0
 11 22  1  0
 12  1  1  6
 12 15  1  0
 12 17  1  0
 13 14  1  0
 13  1  1  1
 14  3  1  6
 14 16  1  0
 15 21  1  6
 16  4  1  6
 16 18  1  0
 17  5  1  1
 17 20  1  0
 18  6  1  6
 18 19  1  0
 19 23  1  1
 20 22  1  0
 20  7  1  1
M  END
>  <DRUGBANK_ID>  (1) 
DB04096

>  <SECONDARY_ACCESSION_NUMBERS>  (1) 
EXPT00398

>  <COMMON_NAME>  (1) 
(2R,3R,4R,5R)-4,5-Dihydroxy-2-(hydroxymethyl)-6-oxo-3-piperidinyl beta-D-glucopyranoside

$$$$
