
     RDKit          3D

 26 28  0  0  0  0  0  0  0  0999 V2000
   -2.5861   -0.0417   -0.0442 C   0  0  0  0  0  0  0  0  0  0  0  0
   -1.1116   -0.0415   -0.1369 C   0  0  0  0  0  0  0  0  0  0  0  0
   -0.5142    1.1787   -0.1437 N   0  0  0  0  0  0  0  0  0  0  0  0
    0.7542    1.2001    0.1903 C   0  0  0  0  0  0  0  0  0  0  0  0
    1.3330    0.0099    0.6560 C   0  0  0  0  0  0  0  0  0  0  0  0
    0.7836   -1.2130    0.2750 C   0  0  0  0  0  0  0  0  0  0  0  0
   -0.4836   -1.2442   -0.0693 N   0  0  0  0  0  0  0  0  0  0  0  0
    1.4842   -2.3991    0.1295 O   0  0  0  0  0  0  0  0  0  0  0  0
    2.9328   -2.4991    0.1022 C   0  0  0  0  0  0  0  0  0  0  0  0
    3.6172   -1.9548   -1.1505 C   0  0  0  0  0  0  0  0  0  0  0  0
    3.3314   -0.4921   -1.2433 C   0  0  0  0  0  0  0  0  0  0  0  0
    4.0859    0.2898   -0.0815 C   0  0  0  0  0  0  0  0  0  0  0  0
    5.6051    0.4083   -0.0615 C   0  0  0  0  0  0  0  0  0  0  0  0
    6.1630    1.1521   -1.1978 N   0  0  0  0  0  0  0  0  0  0  0  0
    5.5898    0.5960   -2.4211 C   0  0  0  0  0  0  0  0  0  0  0  0
    5.8560    1.2404   -3.7441 C   0  0  0  0  0  0  0  0  0  0  0  0
    5.3951    2.6896   -3.6296 C   0  0  0  0  0  0  0  0  0  0  0  0
    6.0138    3.3309   -2.3765 C   0  0  0  0  0  0  0  0  0  0  0  0
    5.7106    2.5515   -1.1000 C   0  0  0  0  0  0  0  0  0  0  0  0
    1.4721    2.5201    0.0396 C   0  0  0  0  0  0  0  0  0  0  0  0
    1.4789    3.4597    1.0817 C   0  0  0  0  0  0  0  0  0  0  0  0
    2.2173    4.6621    1.0182 C   0  0  0  0  0  0  0  0  0  0  0  0
    2.9545    4.9712   -0.1097 C   0  0  0  0  0  0  0  0  0  0  0  0
    2.8990    4.1298   -1.2029 C   0  0  0  0  0  0  0  0  0  0  0  0
    2.1872    2.9049   -1.1263 C   0  0  0  0  0  0  0  0  0  0  0  0
    3.7448    6.0552   -0.1324 F   0  0  0  0  0  0  0  0  0  0  0  0
  1  2  1  0
  2  3  2  0
  2  7  1  0
  3  4  1  0
  4  5  2  0
  4 20  1  0
  5  6  1  0
  6  7  2  0
  6  8  1  0
  8  9  1  0
  9 10  1  0
 10 11  1  0
 11 12  1  0
 12 13  1  0
 13 14  1  0
 14 15  1  0
 14 19  1  0
 15 16  1  0
 16 17  1  0
 17 18  1  0
 18 19  1  0
 20 21  2  0
 20 25  1  0
 21 22  1  0
 22 23  2  0
 23 24  1  0
 23 26  1  0
 24 25  2  0
M  END
>  <DRUGBANK_ID>  (1) 
DB13032

>  <COMMON_NAME>  (1) 
Enecadin

>  <CAS_NUMBER>  (1) 
259525-01-4

>  <UNII>  (1) 
VR034VW8OG

>  <SYNONYMS>  (1) 
Enecadin

$$$$
