
     RDKit          3D

 29 32  0  0  0  0  0  0  0  0999 V2000
    3.4071    0.5011   -0.1237 C   0  0  0  0  0  0  0  0  0  0  0  0
    2.0098   -0.0610   -0.0765 C   0  0  0  0  0  0  0  0  0  0  0  0
    1.2655   -1.2686   -0.0414 C   0  0  0  0  0  0  0  0  0  0  0  0
   -0.1404   -0.8163   -0.0037 C   0  0  0  0  0  0  0  0  0  0  0  0
   -1.4376   -1.3902    0.0165 C   0  0  0  0  0  0  0  0  0  0  0  0
   -2.5820   -0.5448    0.0367 C   0  0  0  0  0  0  0  0  0  0  0  0
   -2.4615    0.8532    0.0599 C   0  0  0  0  0  0  0  0  0  0  0  0
   -1.1894    1.4183    0.1078 C   0  0  0  0  0  0  0  0  0  0  0  0
   -0.0985    0.5615    0.0379 C   0  0  0  0  0  0  0  0  0  0  0  0
    1.1627    1.0019   -0.0077 O   0  0  0  0  0  0  0  0  0  0  0  0
   -3.6298    1.6034   -0.0008 O   0  0  0  0  0  0  0  0  0  0  0  0
   -3.5404    2.9910   -0.1028 C   0  0  0  0  0  0  0  0  0  0  0  0
   -2.9346    3.6251   -1.2034 C   0  0  0  0  0  0  0  0  0  0  0  0
   -2.3830    2.9759   -2.3300 C   0  0  0  0  0  0  0  0  0  0  0  0
   -1.6820    3.6377   -3.3584 C   0  0  0  0  0  0  0  0  0  0  0  0
   -1.5758    5.0353   -3.2679 C   0  0  0  0  0  0  0  0  0  0  0  0
   -2.1648    5.6716   -2.1399 C   0  0  0  0  0  0  0  0  0  0  0  0
   -2.8388    5.0074   -1.1179 C   0  0  0  0  0  0  0  0  0  0  0  0
   -3.3560    5.6986   -0.0921 N   0  0  0  0  0  0  0  0  0  0  0  0
   -3.9766    4.9952    0.8680 C   0  0  0  0  0  0  0  0  0  0  0  0
   -4.0954    3.6636    0.9237 N   0  0  0  0  0  0  0  0  0  0  0  0
   -1.0117    6.0208   -4.0416 O   0  0  0  0  0  0  0  0  0  0  0  0
   -0.3778    5.7119   -5.2521 C   0  0  0  0  0  0  0  0  0  0  0  0
   -1.2535    2.6580   -4.2136 O   0  0  0  0  0  0  0  0  0  0  0  0
   -0.5536    2.9485   -5.3879 C   0  0  0  0  0  0  0  0  0  0  0  0
    1.6260   -2.7303   -0.0366 C   0  0  0  0  0  0  0  0  0  0  0  0
    0.7711   -3.5953   -0.0544 O   0  0  0  0  0  0  0  0  0  0  0  0
    2.9424   -3.1894    0.0071 N   0  0  0  0  0  0  0  0  0  0  0  0
    4.0893   -2.3857    0.1843 C   0  0  0  0  0  0  0  0  0  0  0  0
  1  2  1  0
  2  3  2  0
  2 10  1  0
  3  4  1  0
  3 26  1  0
  4  5  2  0
  4  9  1  0
  5  6  1  0
  6  7  2  0
  7  8  1  0
  7 11  1  0
  8  9  2  0
  9 10  1  0
 11 12  1  0
 12 13  1  0
 12 21  2  0
 13 14  2  0
 13 18  1  0
 14 15  1  0
 15 16  2  0
 15 24  1  0
 16 17  1  0
 16 22  1  0
 17 18  2  0
 18 19  1  0
 19 20  2  0
 20 21  1  0
 22 23  1  0
 24 25  1  0
 26 27  2  0
 26 28  1  0
 28 29  1  0
M  END
>  <DRUGBANK_ID>  (1) 
DB11679

>  <COMMON_NAME>  (1) 
Fruquintinib

>  <CAS_NUMBER>  (1) 
1194506-26-7

>  <UNII>  (1) 
49DXG3M5ZW

>  <SYNONYMS>  (1) 
Fruquintinib

$$$$
