
     RDKit          3D

 10  9  0  0  0  0  0  0  0  0999 V2000
    1.7678    0.7106    0.6286 C   0  0  0  0  0  0  0  0  0  0  0  0
    0.4181    1.6743   -0.6926 C   0  0  0  0  0  0  0  0  0  0  0  0
    0.4094    1.6883   -2.5883 C   0  0  0  0  0  0  0  0  0  0  0  0
   -0.9972    1.2707   -0.7764 O   0  0  0  0  0  0  0  0  0  0  0  0
   -1.5739   -0.1842   -1.5137 P   0  0  0  0  0  0  0  0  0  0  0  0
   -2.1436    0.5267   -2.7407 O   0  0  0  0  0  0  0  0  0  0  0  0
   -0.1201   -0.8159   -1.8779 O   0  0  0  0  0  0  0  0  0  0  0  0
    0.8289   -0.4536   -0.9528 C   0  0  0  0  0  0  0  0  0  0  0  0
    2.2432    0.8037   -1.5806 C   0  0  0  0  0  0  0  0  0  0  0  0
   -0.2555   -0.2364    0.7093 C   0  0  0  0  0  0  0  0  0  0  0  0
  1  2  1  0
  2  3  1  0
  2  4  1  0
  4  5  1  0
  5  6  2  0
  5  7  1  0
  7  8  1  0
  8  9  1  0
  8 10  1  0
M  END
>  <DRUGBANK_ID>  (1) 
DB04491

>  <SECONDARY_ACCESSION_NUMBERS>  (1) 
EXPT01171

>  <COMMON_NAME>  (1) 
Diisopropylphosphono Group

>  <UNII>  (1) 
676G4RQ6ND

$$$$
