
     RDKit          3D

 38 41  0  0  0  0  0  0  0  0999 V2000
    0.8525    0.0276   -0.0604 C   0  0  0  0  0  0  0  0  0  0  0  0
    0.1945   -0.7093    0.9848 O   0  0  0  0  0  0  0  0  0  0  0  0
    0.5434   -2.0223    1.0453 C   0  0  0  0  0  0  0  0  0  0  0  0
    1.8161   -2.3315    0.8328 C   0  0  0  0  0  0  0  0  0  0  0  0
    2.1889   -3.6335    1.0687 C   0  0  0  0  0  0  0  0  0  0  0  0
    1.5080   -4.7929    1.4397 C   0  0  0  0  0  0  0  0  0  0  0  0
    0.2083   -4.4299    1.6955 C   0  0  0  0  0  0  0  0  0  0  0  0
   -0.2909   -3.0867    1.4329 C   0  0  0  0  0  0  0  0  0  0  0  0
   -1.7207   -2.8260    1.4212 C   0  0  0  0  0  0  0  0  0  0  0  0
   -2.6262   -3.7798    1.6407 C   0  0  0  0  0  0  0  0  0  0  0  0
    1.9455   -6.3554    1.4417 C   0  0  0  0  0  0  0  0  0  0  0  0
    1.0431   -7.1347    1.7864 O   0  0  0  0  0  0  0  0  0  0  0  0
    3.1475   -7.0302    0.9528 N   0  0  0  0  0  0  0  0  0  0  0  0
    4.4484   -6.5574    0.6272 C   0  0  0  0  0  0  0  0  0  0  0  0
    4.6640   -5.1737    1.5522 C   0  0  0  0  0  0  0  0  0  0  0  0
    5.5603   -3.5463    0.7157 C   0  0  0  0  0  0  0  0  0  0  0  0
    6.2120   -3.5057   -0.7601 C   0  0  0  0  0  0  0  0  0  0  0  0
    6.0853   -5.0287   -1.6687 C   0  0  0  0  0  0  0  0  0  0  0  0
    5.2308   -6.5349   -1.0111 C   0  0  0  0  0  0  0  0  0  0  0  0
    7.3497   -2.4864   -0.5660 C   0  0  0  0  0  0  0  0  0  0  0  0
    8.4208   -2.6855   -1.2497 N   0  0  0  0  0  0  0  0  0  0  0  0
    7.3731   -1.4373    0.3594 N   0  0  0  0  0  0  0  0  0  0  0  0
    3.5305   -3.5720    0.9698 C   0  0  0  0  0  0  0  0  0  0  0  0
    4.4397   -3.2617    2.5183 C   0  0  0  0  0  0  0  0  0  0  0  0
    6.0831   -4.0053    2.7331 C   0  0  0  0  0  0  0  0  0  0  0  0
    6.8084   -5.1040    1.5466 C   0  0  0  0  0  0  0  0  0  0  0  0
    5.9170   -5.2961    0.2229 N   0  0  0  0  0  0  0  0  0  0  0  0
    4.1897   -4.5737   -0.2822 C   0  0  0  0  0  0  0  0  0  0  0  0
    3.0769   -5.4009   -1.3458 C   0  0  0  0  0  0  0  0  0  0  0  0
    3.1813   -6.3319   -2.1336 O   0  0  0  0  0  0  0  0  0  0  0  0
    1.7857   -5.0825   -1.1062 O   0  0  0  0  0  0  0  0  0  0  0  0
    8.1972   -5.4041    0.8480 C   0  0  0  0  0  0  0  0  0  0  0  0
    8.3711   -6.1985   -0.0834 O   0  0  0  0  0  0  0  0  0  0  0  0
    9.2614   -4.6488    1.1963 N   0  0  0  0  0  0  0  0  0  0  0  0
    9.1397   -3.6478    2.1727 C   0  0  0  0  0  0  0  0  0  0  0  0
    9.2300   -4.2223    3.5296 C   0  0  0  0  0  0  0  0  0  0  0  0
   10.5470   -4.7815    3.9374 C   0  0  0  0  0  0  0  0  0  0  0  0
    9.3729   -5.7207    3.7637 C   0  0  0  0  0  0  0  0  0  0  0  0
  1  2  1  0
  2  3  1  0
  3  4  2  0
  3  8  1  0
  4  5  1  0
  5  6  2  0
  5 23  1  0
  6  7  1  0
  6 11  1  0
  7  8  2  0
  8  9  1  0
  9 10  2  0
 11 12  2  0
 11 13  1  0
 13 14  1  0
 14 15  2  0
 14 19  1  0
 15 16  1  0
 16 17  2  0
 17 18  1  0
 17 20  1  0
 18 19  2  0
 20 21  2  0
 20 22  1  0
 23 24  2  0
 23 28  1  0
 24 25  1  0
 25 26  2  0
 26 27  1  0
 26 32  1  0
 27 28  2  0
 28 29  1  0
 29 30  2  0
 29 31  1  0
 32 33  2  0
 32 34  1  0
 34 35  1  0
 35 36  1  0
 36 37  1  0
 36 38  1  0
 37 38  1  0
M  END
>  <DRUGBANK_ID>  (1) 
DB12120

>  <COMMON_NAME>  (1) 
Avoralstat

>  <CAS_NUMBER>  (1) 
918407-35-9

>  <UNII>  (1) 
UX17773O15

>  <SYNONYMS>  (1) 
3-(2-((4-Carbamimidoylphenyl)carbamoyl)-4-ethenyl-5-methoxyphenyl)-6-((cyclopropylmethyl)carbamoyl)pyridine-2-carboxylic acid; 3-[2-(4-carbamimidoyl-phenylcarbamoyl)-5-methoxy-4-vinyl-phenyl]-6-(cyclopropylmethyl-carbamoyl)-pyridine-2-carboxylic acid; 3-[2-[(4-carbamimidoylphenyl)carbamoyl]-4-ethenyl-5-methoxyphenyl]-6-(cyclopropylmethylcarbamoyl)pyridine-2-carboxylic acid; Avoralstat; BCX-4161; BCX4161

$$$$
