
     RDKit          3D

  7  6  0  0  1  0  0  0  0  0999 V2000
    0.8443   -1.4191    1.9562 N   0  0  0  0  0  0  0  0  0  0  0  0
    0.3993   -1.2345    0.5540 C   0  0  2  0  0  0  0  0  0  0  0  0
    1.0183    0.0314   -0.0536 C   0  0  0  0  0  0  0  0  0  0  0  0
    2.4332   -0.1402   -0.1678 O   0  0  0  0  0  0  0  0  0  0  0  0
   -1.1294   -1.1427    0.5250 C   0  0  0  0  0  0  0  0  0  0  0  0
   -1.7441   -2.1226   -0.1770 O   0  0  0  0  0  0  0  0  0  0  0  0
   -1.7646   -0.2674    1.1048 O   0  0  0  0  0  0  0  0  0  0  0  0
  2  5  1  0
  2  3  1  0
  2  1  1  1
  3  4  1  0
  5  6  1  0
  5  7  2  0
M  END
>  <DRUGBANK_ID>  (1) 
DB03929

>  <SECONDARY_ACCESSION_NUMBERS>  (1) 
EXPT01275

>  <COMMON_NAME>  (1) 
D-Serine

>  <CAS_NUMBER>  (1) 
312-84-5

>  <UNII>  (1) 
1K77H2Z9B1

$$$$
