
     RDKit          3D

 23 25  0  0  0  0  0  0  0  0999 V2000
   -3.7760    0.1736    0.0204 Cl  0  0  0  0  0  0  0  0  0  0  0  0
    0.7540    3.5216   -0.0280 S   0  0  0  0  0  0  0  0  0  0  0  0
   -0.7279    3.7097   -0.0869 O   0  0  0  0  0  0  0  0  0  0  0  0
    4.0730   -0.3735   -0.4847 O   0  0  0  0  0  0  0  0  0  0  0  0
    1.9690   -0.9969   -0.0592 N   0  0  0  0  0  0  0  0  0  0  0  0
    1.4345    4.2616   -1.5820 C   0  0  0  0  0  0  0  0  0  0  0  0
    0.9607    3.5842   -2.8626 C   0  0  0  0  0  0  0  0  0  0  0  0
    2.9392    4.2619   -1.5256 C   0  0  0  0  0  0  0  0  0  0  0  0
    1.7431    4.1238   -4.0753 C   0  0  0  0  0  0  0  0  0  0  0  0
    3.7413    4.7292   -2.6983 C   0  0  0  0  0  0  0  0  0  0  0  0
    3.2597    3.9786   -3.9246 C   0  0  0  0  0  0  0  0  0  0  0  0
    1.2185    1.7398   -0.0749 C   0  0  0  0  0  0  0  0  0  0  0  0
    2.5228    1.3758    0.0802 C   0  0  0  0  0  0  0  0  0  0  0  0
    0.1965    0.6506   -0.0655 C   0  0  0  0  0  0  0  0  0  0  0  0
    3.6776    2.3034    0.3792 C   0  0  0  0  0  0  0  0  0  0  0  0
    0.6135   -0.6941   -0.0249 C   0  0  0  0  0  0  0  0  0  0  0  0
    2.9233   -0.0471   -0.1783 C   0  0  0  0  0  0  0  0  0  0  0  0
    4.4970    2.2216    1.6391 C   0  0  0  0  0  0  0  0  0  0  0  0
   -1.1820    0.8691   -0.0352 C   0  0  0  0  0  0  0  0  0  0  0  0
   -0.2914   -1.7601    0.0157 C   0  0  0  0  0  0  0  0  0  0  0  0
   -2.0938   -0.1832    0.0031 C   0  0  0  0  0  0  0  0  0  0  0  0
    5.3000    0.9566    1.6765 C   0  0  0  0  0  0  0  0  0  0  0  0
   -1.6559   -1.4984    0.0267 C   0  0  0  0  0  0  0  0  0  0  0  0
  1 21  1  0
  2 12  1  0
  2  6  1  0
  2  3  2  0
  4 17  2  0
  5 16  1  0
  5 17  1  0
  6  7  1  0
  6  8  1  0
  7  9  1  0
  8 10  1  0
  9 11  1  0
 10 11  1  0
 12 13  2  0
 12 14  1  0
 13 15  1  0
 13 17  1  0
 14 16  2  0
 14 19  1  0
 15 18  1  0
 16 20  1  0
 18 22  1  0
 19 21  2  0
 20 23  2  0
 21 23  1  0
M  END
>  <DRUGBANK_ID>  (1) 
DB07869

>  <COMMON_NAME>  (1) 
6-Chloro-4-[(R)-cyclohexylsulfinyl]-3-propyl-2(1H)-quinolinone

$$$$
