PFA
     RDKit          3D

 27 29  0  0  0  0  0  0  0  0999 V2000
    1.0807   -0.0678    0.0418 O   0  0  0  0  0  0  0  0  0  0  0  0
    2.3067    0.0325    0.0254 C   0  0  0  0  0  0  0  0  0  0  0  0
    3.0555   -1.1126    0.0212 N   0  0  0  0  0  0  0  0  0  0  0  0
    4.4103   -1.1349    0.0074 C   0  0  0  0  0  0  0  0  0  0  0  0
    5.0995   -2.1489    0.0118 O   0  0  0  0  0  0  0  0  0  0  0  0
    3.0278    1.2313   -0.0334 N   0  0  0  0  0  0  0  0  0  0  0  0
    4.4035    1.3200   -0.0754 N   0  0  0  0  0  0  0  0  0  0  0  0
    5.0666    0.2086   -0.0263 C   0  0  0  0  0  0  0  0  0  0  0  0
    2.3589    2.4804   -0.0081 C   0  0  0  0  0  0  0  0  0  0  0  0
    1.4479    2.7587    1.0040 C   0  0  0  0  0  0  0  0  0  0  0  0
    0.7159    3.9599    1.0357 C   0  0  0  0  0  0  0  0  0  0  0  0
   -0.2180    4.0832    2.1987 C   0  0  0  0  0  0  0  0  0  0  0  0
    2.5558    3.4264   -1.0114 C   0  0  0  0  0  0  0  0  0  0  0  0
    1.8310    4.6414   -1.0149 C   0  0  0  0  0  0  0  0  0  0  0  0
    2.0514    5.5692   -2.1824 C   0  0  0  0  0  0  0  0  0  0  0  0
    0.9203    4.9366    0.0338 C   0  0  0  0  0  0  0  0  0  0  0  0
    0.3110    6.1870   -0.0651 O   0  0  0  0  0  0  0  0  0  0  0  0
   -0.5378    6.6461    0.9111 C   0  0  0  0  0  0  0  0  0  0  0  0
   -0.0979    6.9570    2.1972 C   0  0  0  0  0  0  0  0  0  0  0  0
   -1.8900    6.7563    0.6080 C   0  0  0  0  0  0  0  0  0  0  0  0
   -2.8317    7.0452    1.6183 C   0  0  0  0  0  0  0  0  0  0  0  0
   -4.2933    7.2126    1.2633 C   0  0  0  0  0  0  0  0  0  0  0  0
   -4.4331    8.3991    0.3106 C   0  0  0  0  0  0  0  0  0  0  0  0
   -4.8671    5.9344    0.6569 C   0  0  0  0  0  0  0  0  0  0  0  0
   -2.3903    7.1819    2.9380 C   0  0  0  0  0  0  0  0  0  0  0  0
   -1.0313    7.1327    3.2318 C   0  0  0  0  0  0  0  0  0  0  0  0
   -3.3155    7.3508    3.9293 O   0  0  0  0  0  0  0  0  0  0  0  0
  1  2  2  0
  2  3  1  0
  2  6  1  0
  3  4  1  0
  4  5  2  0
  4  8  1  0
  6  7  1  0
  6  9  1  0
  7  8  2  0
  9 10  2  0
  9 13  1  0
 10 11  1  0
 11 12  1  0
 11 16  2  0
 13 14  2  0
 14 15  1  0
 14 16  1  0
 16 17  1  0
 17 18  1  0
 18 19  2  0
 18 20  1  0
 19 26  1  0
 20 21  2  0
 21 22  1  0
 21 25  1  0
 22 23  1  0
 22 24  1  0
 25 26  2  0
 25 27  1  0
M  END
>  <DRUGBANK_ID>  (1) 
DB03181

>  <SECONDARY_ACCESSION_NUMBERS>  (1) 
EXPT02554

>  <COMMON_NAME>  (1) 
2-[4-(4-Hydroxy-3-Isopropyl-Phenoxy)-3,5-Dimethyl-Phenyl]-2h-[1,2,4]Triazine-3,5-Dione

$$$$
