A84
     RDKit          3D

 30 32  0  0  0  0  0  0  0  0999 V2000
    2.5694   -0.8384   -0.2833 C   0  0  0  0  0  0  0  0  0  0  0  0
    1.3961   -1.7759    0.0588 C   0  0  0  0  0  0  0  0  0  0  0  0
    0.0577   -1.1180    0.2197 C   0  0  0  0  0  0  0  0  0  0  0  0
    0.0285    0.2249    0.5912 C   0  0  0  0  0  0  0  0  0  0  0  0
    1.2162    1.1304    0.2609 C   0  0  0  0  0  0  0  0  0  0  0  0
    2.5335    0.4550    0.5154 C   0  0  0  0  0  0  0  0  0  0  0  0
   -1.1512   -1.8320    0.1261 C   0  0  0  0  0  0  0  0  0  0  0  0
   -2.3621   -1.1343    0.1274 C   0  0  0  0  0  0  0  0  0  0  0  0
   -2.3155    0.2593    0.2498 C   0  0  0  0  0  0  0  0  0  0  0  0
   -1.1999    0.7844    0.9244 C   0  0  0  0  0  0  0  0  0  0  0  0
   -1.0952    2.1767    1.1841 C   0  0  0  0  0  0  0  0  0  0  0  0
   -1.0641    2.7270    0.1395 O   0  0  0  0  0  0  0  0  0  0  0  0
   -0.6779    2.9673    2.1551 O   0  0  0  0  0  0  0  0  0  0  0  0
   -3.1120    0.9516   -0.8340 N   0  0  0  0  0  0  0  0  0  0  0  0
   -3.3306    2.6435   -1.0065 S   0  0  0  0  0  0  0  0  0  0  0  0
   -4.4387    2.8073   -1.9151 O   0  0  0  0  0  0  0  0  0  0  0  0
   -3.4789    2.8316    0.4331 O   0  0  0  0  0  0  0  0  0  0  0  0
   -2.0334    4.0519   -1.4785 C   0  0  0  0  0  0  0  0  0  0  0  0
   -2.0949    5.3297   -0.7584 C   0  0  0  0  0  0  0  0  0  0  0  0
   -0.8334    5.9670   -0.4689 C   0  0  0  0  0  0  0  0  0  0  0  0
    0.3924    5.3511   -0.7262 C   0  0  0  0  0  0  0  0  0  0  0  0
    0.4421    4.1655   -1.4472 C   0  0  0  0  0  0  0  0  0  0  0  0
   -0.7574    3.5716   -1.9467 C   0  0  0  0  0  0  0  0  0  0  0  0
    1.5159    5.8744   -0.2044 F   0  0  0  0  0  0  0  0  0  0  0  0
   -3.2656    6.2010   -0.2820 C   0  0  0  0  0  0  0  0  0  0  0  0
   -4.5482    6.0638    0.1651 C   0  0  0  0  0  0  0  0  0  0  0  0
   -5.3421    4.7878    0.3124 C   0  0  0  0  0  0  0  0  0  0  0  0
   -5.7512    4.1574    1.5900 N   0  0  0  0  0  0  0  0  0  0  0  0
   -5.9938    2.6820    1.4730 C   0  0  0  0  0  0  0  0  0  0  0  0
   -4.7605    4.3203    2.6592 C   0  0  0  0  0  0  0  0  0  0  0  0
  1  2  1  0
  1  6  1  0
  2  3  1  0
  3  4  2  0
  3  7  1  0
  4  5  1  0
  4 10  1  0
  5  6  1  0
  7  8  2  0
  8  9  1  0
  9 10  2  0
  9 14  1  0
 10 11  1  0
 11 12  2  0
 11 13  1  0
 14 15  1  0
 15 16  2  0
 15 17  2  0
 15 18  1  0
 18 19  2  0
 18 23  1  0
 19 20  1  0
 19 25  1  0
 20 21  2  0
 21 22  1  0
 21 24  1  0
 22 23  2  0
 25 26  2  0
 26 27  1  0
 27 28  1  0
 28 29  1  0
 28 30  1  0
M  END
>  <DRUGBANK_ID>  (1) 
DB07323

>  <COMMON_NAME>  (1) 
2-[({2-[(1Z)-3-(DIMETHYLAMINO)PROP-1-ENYL]-4-FLUOROPHENYL}SULFONYL)AMINO]-5,6,7,8-TETRAHYDRONAPHTHALENE-1-CARBOXYLIC ACID

$$$$
