TPR
     RDKit          3D

 18 19  0  0  0  0  0  0  0  0999 V2000
    0.2743    1.2098    0.0179 C   0  0  0  0  0  0  0  0  0  0  0  0
    0.9661   -0.0032    0.0027 C   0  0  0  0  0  0  0  0  0  0  0  0
    0.2342   -1.1984    0.0037 C   0  0  0  0  0  0  0  0  0  0  0  0
   -1.1701   -1.1759   -0.0036 C   0  0  0  0  0  0  0  0  0  0  0  0
   -1.8515    0.0502   -0.0024 C   0  0  0  0  0  0  0  0  0  0  0  0
   -1.1209    1.2345    0.0337 C   0  0  0  0  0  0  0  0  0  0  0  0
    2.4676   -0.0136   -0.0139 C   0  0  0  0  0  0  0  0  0  0  0  0
   -3.6407    0.0535   -0.0716 S   0  0  0  0  0  0  0  0  0  0  0  0
   -3.9966   -0.4741   -1.3712 O   0  0  0  0  0  0  0  0  0  0  0  0
   -4.0853   -0.5919    1.1450 O   0  0  0  0  0  0  0  0  0  0  0  0
   -4.1381    1.6488   -0.0249 N   0  0  0  0  0  0  0  0  0  0  0  0
   -3.9009    2.6626   -1.0497 C   0  0  0  0  0  0  0  0  0  0  0  0
   -3.8345    3.9348   -0.2049 C   0  0  0  0  0  0  0  0  0  0  0  0
   -4.9435    3.7283    0.8226 C   0  0  0  0  0  0  0  0  0  0  0  0
   -4.9900    2.2018    1.0524 C   0  0  2  0  0  0  0  0  0  0  0  0
   -4.5757    1.8443    2.4602 C   0  0  0  0  0  0  0  0  0  0  0  0
   -5.2923    1.3382    3.3149 O   0  0  0  0  0  0  0  0  0  0  0  0
   -3.2961    2.1665    2.7459 O   0  0  0  0  0  0  0  0  0  0  0  0
  1  2  2  0
  1  6  1  0
  2  3  1  0
  2  7  1  0
  3  4  2  0
  4  5  1  0
  5  6  2  0
  5  8  1  0
  8  9  2  0
  8 10  2  0
  8 11  1  0
 11 12  1  0
 11 15  1  0
 12 13  1  0
 13 14  1  0
 14 15  1  0
 15 16  1  1
 16 17  2  0
 16 18  1  0
M  END
>  <DRUGBANK_ID>  (1) 
DB02752

>  <SECONDARY_ACCESSION_NUMBERS>  (1) 
EXPT03095

>  <COMMON_NAME>  (1) 
Tosyl-D-Proline

$$$$
