
     RDKit          3D

 12 12  0  0  0  0  0  0  0  0999 V2000
    0.9680   -0.0477   -0.0787 C   0  0  0  0  0  0  0  0  0  0  0  0
    0.4727   -0.5807    1.2936 C   0  0  2  0  0  0  0  0  0  0  0  0
    0.4991    1.3654   -0.3537 C   0  0  0  0  0  0  0  0  0  0  0  0
    0.9076    3.7465   -0.2835 C   0  0  0  0  0  0  0  0  0  0  0  0
   -0.4633    3.9900   -0.3747 C   0  0  0  0  0  0  0  0  0  0  0  0
   -1.3531    2.9287   -0.4906 C   0  0  0  0  0  0  0  0  0  0  0  0
   -0.8665    1.6283   -0.5307 C   0  0  0  0  0  0  0  0  0  0  0  0
    1.3935    2.4387   -0.2983 C   0  0  0  0  0  0  0  0  0  0  0  0
   -1.0062   -0.6982    1.3909 N   0  0  0  0  0  0  0  0  0  0  0  0
    1.0616    0.2737    2.4321 C   0  0  0  0  0  0  0  0  0  0  0  0
    0.1547    0.8734    3.2390 O   0  0  0  0  0  0  0  0  0  0  0  0
    2.2684    0.4081    2.6204 O   0  0  0  0  0  0  0  0  0  0  0  0
  1  2  1  0
  2 10  1  0
  2  9  1  6
  3  1  1  0
  3  7  2  0
  3  8  1  0
  4  8  2  0
  5  4  1  0
  6  5  2  0
  7  6  1  0
 11 10  1  0
 12 10  2  0
M  END
>  <DRUGBANK_ID>  (1) 
DB00120

>  <SECONDARY_ACCESSION_NUMBERS>  (1) 
NUTR00044

>  <COMMON_NAME>  (1) 
Phenylalanine

>  <CAS_NUMBER>  (1) 
63-91-2

>  <UNII>  (1) 
47E5O17Y3R

>  <SYNONYMS>  (1) 
(S)-2-Amino-3-phenylpropionic acid; (S)-alpha-Amino-beta-phenylpropionic acid; 3-phenyl-L-alanine; beta-Phenyl-L-alanine; F; Fenilalanina; L-Phenylalanine; Phe; Phenylalanine; Phenylalaninum; Î²-phenyl-L-alanine

$$$$
