
     RDKit          3D

 33 35  0  0  1  0  0  0  0  0999 V2000
   -1.0047    1.3572   -0.0610 C   0  0  0  0  0  0  0  0  0  0  0  0
   -2.0592    0.3596   -0.4357 C   0  0  0  0  0  0  0  0  0  0  0  0
   -2.2137   -0.7540    0.4444 N   0  0  0  0  0  0  0  0  0  0  0  0
   -1.1007   -1.6316    0.1030 C   0  0  0  0  0  0  0  0  0  0  0  0
    0.2160   -0.8084    0.0345 C   0  0  0  0  0  0  0  0  0  0  0  0
    0.2391    0.5977   -0.0342 C   0  0  0  0  0  0  0  0  0  0  0  0
    1.4188    1.3162    0.0238 C   0  0  0  0  0  0  0  0  0  0  0  0
    2.5672    0.6366    0.0282 N   0  0  0  0  0  0  0  0  0  0  0  0
    2.4946   -0.7274   -0.0180 C   0  0  0  0  0  0  0  0  0  0  0  0
    1.3574   -1.4690   -0.0088 N   0  0  0  0  0  0  0  0  0  0  0  0
    3.7991   -1.4895   -0.0631 C   0  0  0  0  0  0  0  0  0  0  0  0
    4.5579   -1.1513   -1.1437 F   0  0  0  0  0  0  0  0  0  0  0  0
    4.5661   -1.2585    1.0386 F   0  0  0  0  0  0  0  0  0  0  0  0
    3.6332   -2.8419   -0.1311 F   0  0  0  0  0  0  0  0  0  0  0  0
    1.3829    2.8546    0.1304 C   0  0  0  0  0  0  0  0  0  0  0  0
    0.7390    3.4456   -0.9235 F   0  0  0  0  0  0  0  0  0  0  0  0
    0.7015    3.2886    1.2379 F   0  0  0  0  0  0  0  0  0  0  0  0
    2.6013    3.4501    0.1933 F   0  0  0  0  0  0  0  0  0  0  0  0
   -3.2110   -1.0865    1.3760 C   0  0  0  0  0  0  0  0  0  0  0  0
   -3.1617   -2.2058    1.9063 O   0  0  0  0  0  0  0  0  0  0  0  0
   -4.4607   -0.1792    1.7964 C   0  0  0  0  0  0  0  0  0  0  0  0
   -4.2047    1.2130    2.4006 C   0  0  1  0  0  0  0  0  0  0  0  0
   -3.5863    2.0708    1.3382 C   0  0  0  0  0  0  0  0  0  0  0  0
   -4.3615    2.2580    0.0291 N   0  0  0  0  0  0  0  0  0  0  0  0
   -4.7424    1.2134   -1.0386 C   0  0  0  0  0  0  0  0  0  0  0  0
   -4.1558    1.5229   -2.4491 C   0  0  0  0  0  0  0  0  0  0  0  0
   -4.5682    2.9094   -2.8250 C   0  0  0  0  0  0  0  0  0  0  0  0
   -4.0388    3.8676   -1.7638 C   0  0  0  0  0  0  0  0  0  0  0  0
   -4.5609    3.5777   -0.3585 C   0  0  0  0  0  0  0  0  0  0  0  0
   -4.9659    4.4233    0.4007 O   0  0  0  0  0  0  0  0  0  0  0  0
   -2.7977    1.5151   -2.5024 F   0  0  0  0  0  0  0  0  0  0  0  0
   -4.5587    0.5992   -3.3455 F   0  0  0  0  0  0  0  0  0  0  0  0
   -5.3391    2.0313    2.8271 N   0  0  0  0  0  0  0  0  0  0  0  0
  1  2  1  0
  1  6  1  0
  2  3  1  0
  3  4  1  0
  3 19  1  0
  4  5  1  0
  5  6  2  0
  5 10  1  0
  6  7  1  0
  7  8  2  0
  7 15  1  0
  8  9  1  0
  9 10  2  0
  9 11  1  0
 11 12  1  0
 11 13  1  0
 11 14  1  0
 15 16  1  0
 15 17  1  0
 15 18  1  0
 19 20  2  0
 19 21  1  0
 21 22  1  0
 22 23  1  0
 22 33  1  6
 23 24  1  0
 24 25  1  0
 24 29  1  0
 25 26  1  0
 26 27  1  0
 26 31  1  0
 26 32  1  0
 27 28  1  0
 28 29  1  0
 29 30  2  0
M  END
>  <DRUGBANK_ID>  (1) 
DB12412

>  <COMMON_NAME>  (1) 
Gemigliptin

>  <CAS_NUMBER>  (1) 
911637-19-9

>  <UNII>  (1) 
5DHU18M5D6

>  <SYNONYMS>  (1) 
Gemigliptin

$$$$
