
     RDKit          3D

 33 35  0  0  1  0  0  0  0  0999 V2000
    0.2060    7.7147    2.9857 C   0  0  0  0  0  0  0  0  0  0  0  0
    0.3532    7.6739    1.4759 C   0  0  1  0  0  0  0  0  0  0  0  0
    0.7635    6.1899    1.5849 N   0  0  0  0  0  0  0  0  0  0  0  0
   -0.8909    8.5570    0.3573 C   0  0  1  0  0  0  0  0  0  0  0  0
   -0.5844    9.2331   -1.0828 O   0  0  0  0  0  0  0  0  0  0  0  0
   -0.8691    8.2816   -2.2842 C   0  0  1  0  0  0  0  0  0  0  0  0
    0.5866    7.9718   -3.2163 O   0  0  0  0  0  0  0  0  0  0  0  0
    1.4449    6.5663   -3.1856 C   0  0  2  0  0  0  0  0  0  0  0  0
    0.5170    5.9822   -2.2708 C   0  0  1  0  0  0  0  0  0  0  0  0
   -0.0270    4.7281   -2.5740 O   0  0  0  0  0  0  0  0  0  0  0  0
    1.1063    6.8662   -0.9362 C   0  0  2  0  0  0  0  0  0  0  0  0
    1.3735    8.3159   -1.0469 N   0  0  0  0  0  0  0  0  0  0  0  0
    2.5384    6.7533   -0.2530 C   0  0  0  0  0  0  0  0  0  0  0  0
    3.5429    6.9970   -1.3243 C   0  0  2  0  0  0  0  0  0  0  0  0
    3.6697    8.4526   -1.5699 N   0  0  0  0  0  0  0  0  0  0  0  0
    2.8883    6.0668   -2.3909 C   0  0  1  0  0  0  0  0  0  0  0  0
    2.7832    4.5565   -1.8740 O   0  0  0  0  0  0  0  0  0  0  0  0
    2.0601    3.9508   -0.6563 C   0  0  1  0  0  0  0  0  0  0  0  0
    0.6782    4.3406   -0.4446 O   0  0  0  0  0  0  0  0  0  0  0  0
   -0.4738    3.5442    0.0019 C   0  0  2  0  0  0  0  0  0  0  0  0
   -1.1186    4.1090    1.3173 C   0  0  1  0  0  0  0  0  0  0  0  0
   -1.7820    5.3879    0.9686 C   0  0  0  0  0  0  0  0  0  0  0  0
   -2.1285    3.3182    1.9101 O   0  0  0  0  0  0  0  0  0  0  0  0
   -0.1976    2.0814    0.1444 C   0  0  1  0  0  0  0  0  0  0  0  0
   -0.4051    1.4416   -1.1231 O   0  0  0  0  0  0  0  0  0  0  0  0
    1.2479    1.9542    0.6302 C   0  0  2  0  0  0  0  0  0  0  0  0
    1.4556    2.6736    1.8637 O   0  0  0  0  0  0  0  0  0  0  0  0
    2.2633    2.4329   -0.4601 C   0  0  1  0  0  0  0  0  0  0  0  0
    2.1731    1.7250   -1.7379 N   0  0  0  0  0  0  0  0  0  0  0  0
   -1.9024    7.2826   -1.5589 C   0  0  2  0  0  0  0  0  0  0  0  0
   -3.0649    6.9726   -2.3288 O   0  0  0  0  0  0  0  0  0  0  0  0
   -2.2042    7.9460   -0.1490 C   0  0  2  0  0  0  0  0  0  0  0  0
   -3.1884    8.9676   -0.4036 O   0  0  0  0  0  0  0  0  0  0  0  0
  2  1  1  1
  2  3  1  0
  4  2  1  0
  4  5  1  6
  4 32  1  0
  6  5  1  0
  6  7  1  1
  8  7  1  1
  8  9  1  0
  8 16  1  0
  9 11  1  0
  9 10  1  1
 11 12  1  6
 11 13  1  0
 14 13  1  0
 14 15  1  6
 16 14  1  0
 16 17  1  1
 18 19  1  0
 18 17  1  6
 20 19  1  1
 20 21  1  0
 20 24  1  0
 21 22  1  6
 21 23  1  0
 24 26  1  0
 24 25  1  6
 26 27  1  1
 26 28  1  0
 28 18  1  0
 28 29  1  6
 30  6  1  0
 30 31  1  6
 32 30  1  0
 32 33  1  6
M  END
>  <DRUGBANK_ID>  (1) 
DB15080

>  <COMMON_NAME>  (1) 
ELX-02

>  <CAS_NUMBER>  (1) 
1375073-95-2

$$$$
