
     RDKit          3D

 27 28  0  0  0  0  0  0  0  0999 V2000
    2.3336    0.6861    0.3807 C   0  0  0  0  0  0  0  0  0  0  0  0
    2.8261   -0.5440    0.2503 C   0  0  0  0  0  0  0  0  0  0  0  0
    1.9507   -1.7214    0.1676 C   0  0  0  0  0  0  0  0  0  0  0  0
    0.5421   -1.7363    0.0721 C   0  0  0  0  0  0  0  0  0  0  0  0
    0.0946   -0.5154   -0.2035 C   0  0  0  0  0  0  0  0  0  0  0  0
    1.0154    0.6099    0.1247 C   0  0  0  0  0  0  0  0  0  0  0  0
   -1.1482   -0.5266   -0.9784 C   0  0  0  0  0  0  0  0  0  0  0  0
   -2.1659   -0.5207   -1.6093 N   0  0  0  0  0  0  0  0  0  0  0  0
   -0.2723   -2.8379    0.1097 O   0  0  0  0  0  0  0  0  0  0  0  0
   -1.7652   -2.7323    0.0728 C   0  0  0  0  0  0  0  0  0  0  0  0
   -2.5563   -1.7765    1.1752 C   0  0  0  0  0  0  0  0  0  0  0  0
   -2.3781   -0.1328    1.4166 C   0  0  0  0  0  0  0  0  0  0  0  0
   -3.0090    0.8449    0.4501 N   0  0  0  0  0  0  0  0  0  0  0  0
   -2.4180    2.1825    0.2248 C   0  0  0  0  0  0  0  0  0  0  0  0
   -0.9340    2.2598   -0.0533 C   0  0  0  0  0  0  0  0  0  0  0  0
   -0.2804    1.7219   -1.5672 N   0  0  0  0  0  0  0  0  0  0  0  0
    0.8662    2.0961   -2.2727 C   0  0  0  0  0  0  0  0  0  0  0  0
    1.4265    1.3151   -3.0388 O   0  0  0  0  0  0  0  0  0  0  0  0
    1.3208    3.4824   -1.9906 C   0  0  0  0  0  0  0  0  0  0  0  0
    0.1176    4.3969   -2.0325 C   0  0  0  0  0  0  0  0  0  0  0  0
    0.2367    5.7400   -1.7807 C   0  0  0  0  0  0  0  0  0  0  0  0
   -0.9351    6.5089   -1.7263 C   0  0  0  0  0  0  0  0  0  0  0  0
   -2.2034    5.9186   -1.7742 C   0  0  0  0  0  0  0  0  0  0  0  0
   -2.3369    4.5931   -1.9838 C   0  0  0  0  0  0  0  0  0  0  0  0
   -1.1932    3.9108   -2.2692 C   0  0  0  0  0  0  0  0  0  0  0  0
   -3.3852    6.5726   -1.7095 O   0  0  0  0  0  0  0  0  0  0  0  0
   -3.9690   -1.9766    1.0033 O   0  0  0  0  0  0  0  0  0  0  0  0
  1  2  2  0
  1  6  1  0
  2  3  1  0
  3  4  2  0
  4  5  1  0
  4  9  1  0
  5  6  2  0
  5  7  1  0
  7  8  3  0
  9 10  1  0
 10 11  1  0
 11 12  1  0
 11 27  1  0
 12 13  1  0
 13 14  1  0
 14 15  1  0
 15 16  1  0
 16 17  1  0
 17 18  2  0
 17 19  1  0
 19 20  1  0
 20 21  2  0
 20 25  1  0
 21 22  1  0
 22 23  2  0
 23 24  1  0
 23 26  1  0
 24 25  2  0
M  END
>  <DRUGBANK_ID>  (1) 
DB13757

>  <COMMON_NAME>  (1) 
Epanolol

>  <CAS_NUMBER>  (1) 
86880-51-5

>  <UNII>  (1) 
9KGC55KP6A

>  <SYNONYMS>  (1) 
Epanolol

$$$$
