4167
     RDKit          3D

 22 25  0  0  1  0  0  0  0  0999 V2000
    0.0552   -1.9462   -0.1569 S   0  0  0  0  0  0  0  0  0  0  0  0
   -2.4082    4.8968   -0.6664 N   0  0  0  0  0  0  0  0  0  0  0  0
   -1.2164    2.9429   -1.6984 C   0  0  0  0  0  0  0  0  0  0  0  0
   -0.0897    1.9318   -1.4005 C   0  0  0  0  0  0  0  0  0  0  0  0
   -2.5476    2.2507   -1.9899 C   0  0  0  0  0  0  0  0  0  0  0  0
   -1.2315    4.0334   -0.6173 C   0  0  0  0  0  0  0  0  0  0  0  0
   -0.0170    1.2777    0.0361 C   0  0  0  0  0  0  0  0  0  0  0  0
   -3.7684    3.1292   -1.7633 C   0  0  0  0  0  0  0  0  0  0  0  0
   -3.6447    4.1112   -0.5940 C   0  0  0  0  0  0  0  0  0  0  0  0
    1.3166    0.5501    0.0904 C   0  0  0  0  0  0  0  0  0  0  0  0
   -1.2490    0.4467    0.4111 C   0  0  0  0  0  0  0  0  0  0  0  0
   -2.3385    5.8483    0.4482 C   0  0  0  0  0  0  0  0  0  0  0  0
    1.4240   -0.8382    0.0194 C   0  0  0  0  0  0  0  0  0  0  0  0
   -1.3435   -0.9137    0.1517 C   0  0  0  0  0  0  0  0  0  0  0  0
   -2.4223    1.1137    0.8307 C   0  0  0  0  0  0  0  0  0  0  0  0
    2.4951    1.3326    0.1031 C   0  0  0  0  0  0  0  0  0  0  0  0
    2.6923   -1.4294    0.0119 C   0  0  0  0  0  0  0  0  0  0  0  0
   -2.6061   -1.5376    0.0856 C   0  0  0  0  0  0  0  0  0  0  0  0
    3.7504    0.7334    0.0512 C   0  0  0  0  0  0  0  0  0  0  0  0
   -3.6828    0.5198    0.6436 C   0  0  0  0  0  0  0  0  0  0  0  0
    3.8461   -0.6486    0.0227 C   0  0  0  0  0  0  0  0  0  0  0  0
   -3.7742   -0.7916    0.2426 C   0  0  0  0  0  0  0  0  0  0  0  0
  1 13  1  0
  1 14  1  0
  2  6  1  0
  2  9  1  0
  2 12  1  0
  3  4  1  0
  3  5  1  0
  3  6  1  0
  4  7  1  0
  5  8  1  0
  7 10  1  0
  7 11  1  0
  8  9  1  0
 10 13  2  0
 10 16  1  0
 11 14  2  0
 11 15  1  0
 13 17  1  0
 14 18  1  0
 15 20  2  0
 16 19  2  0
 17 21  2  0
 18 22  2  0
 19 21  1  0
 20 22  1  0
M  END
>  <DRUGBANK_ID>  (1) 
DB00340

>  <SECONDARY_ACCESSION_NUMBERS>  (1) 
APRD01101

>  <COMMON_NAME>  (1) 
Metixene

>  <CAS_NUMBER>  (1) 
4969-02-2

>  <UNII>  (1) 
32VY6L26ZW

>  <SYNONYMS>  (1) 
Methixen; Methixene; Metisene; Metixene; Métixène; Metixeno; Metixenum

$$$$
