792
     RDKit          3D

 19 20  0  0  1  0  0  0  0  0999 V2000
    1.0981   -0.0067   -0.0948 N   0  0  0  0  0  0  0  0  0  0  0  0
   -2.0074   -0.5223    1.3979 N   0  0  0  0  0  0  0  0  0  0  0  0
    3.1111   -1.2820   -0.0177 N   0  0  0  0  0  0  0  0  0  0  0  0
    0.2010   -1.2176   -0.0267 C   0  0  0  0  0  0  0  0  0  0  0  0
   -0.7802   -1.4060    1.2442 C   0  0  0  0  0  0  0  0  0  0  0  0
    0.5877    1.3661   -0.2174 C   0  0  0  0  0  0  0  0  0  0  0  0
    2.4885   -0.0872   -0.0959 C   0  0  0  0  0  0  0  0  0  0  0  0
    0.8683    2.1919    1.1156 C   0  0  0  0  0  0  0  0  0  0  0  0
   -2.7751   -0.7823    2.6136 C   0  0  0  0  0  0  0  0  0  0  0  0
   -1.5962    0.8322    1.6664 C   0  0  0  0  0  0  0  0  0  0  0  0
    0.6676    3.5681    1.1147 C   0  0  0  0  0  0  0  0  0  0  0  0
    1.1119    1.5579    2.3809 C   0  0  0  0  0  0  0  0  0  0  0  0
    3.2796    1.0840   -0.1262 C   0  0  0  0  0  0  0  0  0  0  0  0
    0.6481    4.2719    2.3255 C   0  0  0  0  0  0  0  0  0  0  0  0
    0.9364    2.2409    3.5856 C   0  0  0  0  0  0  0  0  0  0  0  0
    4.6465    1.0782   -0.0391 C   0  0  0  0  0  0  0  0  0  0  0  0
    0.7363    3.6107    3.5547 C   0  0  0  0  0  0  0  0  0  0  0  0
    4.4633   -1.2779    0.0173 C   0  0  0  0  0  0  0  0  0  0  0  0
    5.2725   -0.1497    0.0115 C   0  0  0  0  0  0  0  0  0  0  0  0
  1  4  1  0
  1  6  1  0
  1  7  1  0
  2  5  1  0
  2  9  1  0
  2 10  1  0
  3  7  2  0
  3 18  1  0
  4  5  1  0
  6  8  1  0
  7 13  1  0
  8 11  2  0
  8 12  1  0
 11 14  1  0
 12 15  2  0
 13 16  2  0
 14 17  2  0
 15 17  1  0
 16 19  1  0
 18 19  2  0
M  END
>  <DRUGBANK_ID>  (1) 
DB00792

>  <SECONDARY_ACCESSION_NUMBERS>  (1) 
APRD00689

>  <COMMON_NAME>  (1) 
Tripelennamine

>  <CAS_NUMBER>  (1) 
91-81-6

>  <UNII>  (1) 
3C5ORO99TY

>  <SYNONYMS>  (1) 
Tripelennamin; Tripelennamina; Tripelennamine; TripÃ©lennamine; Tripelennaminum

$$$$
