5282443
     RDKit          3D

 21 23  0  0  0  0  0  0  0  0999 V2000
   -0.9991    0.3330    0.0742 N   0  0  0  0  0  0  0  0  0  0  0  0
    2.1582   -0.5427    3.6693 N   0  0  0  0  0  0  0  0  0  0  0  0
   -0.7250   -1.0303   -0.3430 C   0  0  0  0  0  0  0  0  0  0  0  0
    0.2349    1.1217   -0.0844 C   0  0  0  0  0  0  0  0  0  0  0  0
    1.3624    0.1121   -0.2325 C   0  0  0  0  0  0  0  0  0  0  0  0
    0.7280   -1.2457    0.0181 C   0  0  0  0  0  0  0  0  0  0  0  0
   -1.5051    0.4121    1.4397 C   0  0  0  0  0  0  0  0  0  0  0  0
   -0.5869   -0.0221    2.5614 C   0  0  0  0  0  0  0  0  0  0  0  0
    0.0326    0.6989    3.5394 C   0  0  0  0  0  0  0  0  0  0  0  0
   -0.2826    2.1396    3.7868 C   0  0  0  0  0  0  0  0  0  0  0  0
    1.0664   -0.0597    4.3239 C   0  0  0  0  0  0  0  0  0  0  0  0
   -1.4514    2.7581    3.3253 C   0  0  0  0  0  0  0  0  0  0  0  0
    0.5484    2.9282    4.5924 C   0  0  0  0  0  0  0  0  0  0  0  0
    0.9270   -0.1690    5.7042 C   0  0  0  0  0  0  0  0  0  0  0  0
   -0.8816    4.8664    4.2608 C   0  0  0  0  0  0  0  0  0  0  0  0
   -1.6904    4.1130    3.4343 C   0  0  0  0  0  0  0  0  0  0  0  0
    0.2204    4.2608    4.8704 C   0  0  0  0  0  0  0  0  0  0  0  0
    1.9404   -0.7696    6.4469 C   0  0  0  0  0  0  0  0  0  0  0  0
   -1.2799    6.2725    4.5514 C   0  0  0  0  0  0  0  0  0  0  0  0
    3.1273   -1.1288    4.4194 C   0  0  0  0  0  0  0  0  0  0  0  0
    3.0655   -1.2598    5.7982 C   0  0  0  0  0  0  0  0  0  0  0  0
  1  3  1  0
  1  4  1  0
  1  7  1  0
  2 11  2  0
  2 20  1  0
  3  6  1  0
  4  5  1  0
  5  6  1  0
  7  8  1  0
  8  9  2  0
  9 10  1  0
  9 11  1  0
 10 12  2  0
 10 13  1  0
 11 14  1  0
 12 16  1  0
 13 17  2  0
 14 18  2  0
 15 16  2  0
 15 17  1  0
 15 19  1  0
 18 21  1  0
 20 21  2  0
M  END
>  <DRUGBANK_ID>  (1) 
DB00427

>  <SECONDARY_ACCESSION_NUMBERS>  (1) 
APRD00306

>  <COMMON_NAME>  (1) 
Triprolidine

>  <CAS_NUMBER>  (1) 
486-12-4

>  <UNII>  (1) 
2L8T9S52QM

>  <SYNONYMS>  (1) 
(E)-2-[3-(1-pyrrolidinyl)-1-p-toluenepropenyl]pyridine; trans-1-(2-pyridyl)-3-pyrrolidino-1-p-tolylprop-1-ene; trans-1-(4-methylphenyl)-1-(2-pyridyl)-3-pyrrolidinoprop-1-ene; Tripolidina; Triprolidin; Triprolidina; Triprolidine; Triprolidinum

$$$$
