IHZ
     RDKit          3D

 30 32  0  0  0  0  0  0  0  0999 V2000
    0.9555   -0.1819   -0.0020 F   0  0  0  0  0  0  0  0  0  0  0  0
    2.3164   -0.1162    0.0144 C   0  0  0  0  0  0  0  0  0  0  0  0
    2.7285   -1.1798    0.7576 F   0  0  0  0  0  0  0  0  0  0  0  0
    2.7268   -0.3490   -1.2573 F   0  0  0  0  0  0  0  0  0  0  0  0
    2.7843    1.2053    0.5533 C   0  0  0  0  0  0  0  0  0  0  0  0
    2.4118    2.4009   -0.1058 C   0  0  0  0  0  0  0  0  0  0  0  0
    3.4490    1.2452    1.7890 C   0  0  0  0  0  0  0  0  0  0  0  0
    3.5198    2.4369    2.4663 C   0  0  0  0  0  0  0  0  0  0  0  0
    2.9589    3.5592    1.8834 C   0  0  0  0  0  0  0  0  0  0  0  0
    2.5509    3.6151    0.5541 C   0  0  0  0  0  0  0  0  0  0  0  0
    2.2377    4.8314   -0.0916 N   0  0  0  0  0  0  0  0  0  0  0  0
    2.4217    6.1444    0.3279 C   0  0  0  0  0  0  0  0  0  0  0  0
    1.9073    7.0666   -0.3041 O   0  0  0  0  0  0  0  0  0  0  0  0
    3.2268    6.4875    1.5354 C   0  0  0  0  0  0  0  0  0  0  0  0
    4.4970    5.9126    1.7767 C   0  0  0  0  0  0  0  0  0  0  0  0
    2.6375    7.2929    2.5060 C   0  0  0  0  0  0  0  0  0  0  0  0
    3.3345    7.5461    3.6802 C   0  0  0  0  0  0  0  0  0  0  0  0
    4.5480    6.8889    3.9794 C   0  0  0  0  0  0  0  0  0  0  0  0
    5.0852    7.2234    5.3377 C   0  0  0  0  0  0  0  0  0  0  0  0
    5.1258    6.0014    3.0428 C   0  0  0  0  0  0  0  0  0  0  0  0
    6.1714    5.0611    3.3212 N   0  0  0  0  0  0  0  0  0  0  0  0
    7.0721    5.0694    4.4126 C   0  0  0  0  0  0  0  0  0  0  0  0
    6.6169    4.7096    5.6923 C   0  0  0  0  0  0  0  0  0  0  0  0
    8.3313    5.6686    4.3332 C   0  0  0  0  0  0  0  0  0  0  0  0
    9.1109    5.9442    5.4098 N   0  0  0  0  0  0  0  0  0  0  0  0
    8.5959    5.6492    6.6350 C   0  0  0  0  0  0  0  0  0  0  0  0
    7.3531    5.0550    6.8319 C   0  0  0  0  0  0  0  0  0  0  0  0
    6.8142    4.9556    8.2169 C   0  0  0  0  0  0  0  0  0  0  0  0
    7.4982    5.2221    9.1859 O   0  0  0  0  0  0  0  0  0  0  0  0
    5.5015    4.5806    8.3797 N   0  0  0  0  0  0  0  0  0  0  0  0
  1  2  1  0
  2  3  1  0
  2  4  1  0
  2  5  1  0
  5  6  2  0
  5  7  1  0
  6 10  1  0
  7  8  2  0
  8  9  1  0
  9 10  2  0
 10 11  1  0
 11 12  1  0
 12 13  2  0
 12 14  1  0
 14 15  2  0
 14 16  1  0
 15 20  1  0
 16 17  2  0
 17 18  1  0
 18 19  1  0
 18 20  2  0
 20 21  1  0
 21 22  1  0
 22 23  2  0
 22 24  1  0
 23 27  1  0
 24 25  2  0
 25 26  1  0
 26 27  2  0
 27 28  1  0
 28 29  2  0
 28 30  1  0
M  END
>  <DRUGBANK_ID>  (1) 
DB07970

>  <COMMON_NAME>  (1) 
5-[(2-methyl-5-{[3-(trifluoromethyl)phenyl]carbamoyl}phenyl)amino]pyridine-3-carboxamide

$$$$
