
     RDKit          3D

 29 31  0  0  0  0  0  0  0  0999 V2000
    1.3077   -0.1878    0.2323 S   0  0  0  0  0  0  0  0  0  0  0  0
    2.9825   -4.0393   -0.4032 S   0  0  0  0  0  0  0  0  0  0  0  0
   -1.0590   -0.2779   -2.5482 O   0  0  0  0  0  0  0  0  0  0  0  0
    0.2473    3.2279   -2.5638 O   0  0  0  0  0  0  0  0  0  0  0  0
    1.0999    1.2329   -4.3256 O   0  0  0  0  0  0  0  0  0  0  0  0
    0.6741   -1.4796   -0.5155 O   0  0  0  0  0  0  0  0  0  0  0  0
    1.1968    0.1434    1.6296 O   0  0  0  0  0  0  0  0  0  0  0  0
    0.6222    0.7682   -0.4527 O   0  0  0  0  0  0  0  0  0  0  0  0
    4.8559   -0.9103    0.7537 O   0  0  0  0  0  0  0  0  0  0  0  0
   -1.9486    0.9888   -0.6929 N   0  0  0  0  0  0  0  0  0  0  0  0
   -3.4626    1.7953    0.7791 N   0  0  0  0  0  0  0  0  0  0  0  0
   -1.2008   -0.8833    0.8173 N   0  0  0  0  0  0  0  0  0  0  0  0
    2.8803   -0.2881   -0.1241 N   0  0  0  0  0  0  0  0  0  0  0  0
   -1.5864   -0.3813    3.1498 N   0  0  0  0  0  0  0  0  0  0  0  0
   -3.3453    0.9096    3.8075 N   0  0  0  0  0  0  0  0  0  0  0  0
    2.1976   -1.5402    2.7867 N   0  0  0  0  0  0  0  0  0  0  0  0
    0.2813    1.8697   -2.1787 C   0  0  2  0  0  0  0  0  0  0  0  0
    1.0825    0.7869   -2.9759 C   0  0  1  0  0  0  0  0  0  0  0  0
   -1.1682    1.0618   -1.9708 C   0  0  1  0  0  0  0  0  0  0  0  0
    0.3081   -0.5708   -2.8781 C   0  0  1  0  0  0  0  0  0  0  0  0
    0.8705   -1.6668   -1.9241 C   0  0  0  0  0  0  0  0  0  0  0  0
   -1.8719    0.2349    0.4944 C   0  0  0  0  0  0  0  0  0  0  0  0
   -3.0603    1.7810   -0.4772 C   0  0  0  0  0  0  0  0  0  0  0  0
   -2.6434    0.9056    1.4294 C   0  0  0  0  0  0  0  0  0  0  0  0
   -2.5236    0.4971    2.7855 C   0  0  0  0  0  0  0  0  0  0  0  0
   -1.0067   -1.0280    2.1523 C   0  0  0  0  0  0  0  0  0  0  0  0
    3.6467   -1.0837    0.7539 C   0  0  0  0  0  0  0  0  0  0  0  0
    2.9412   -2.1615    1.7015 C   0  0  2  0  0  0  0  0  0  0  0  0
    2.1023   -3.2163    0.9611 C   0  0  0  0  0  0  0  0  0  0  0  0
  1  6  1  0
  1  7  2  0
  1  8  2  0
  1 13  1  0
  2 29  1  0
  3 19  1  0
  3 20  1  0
  6 21  1  0
  9 27  2  0
 10 22  1  0
 10 23  1  0
 11 23  2  0
 11 24  1  0
 12 22  1  0
 12 26  2  0
 13 27  1  0
 14 25  2  0
 14 26  1  0
 15 25  1  0
 17  4  1  6
 17 18  1  0
 17 19  1  0
 18  5  1  6
 18 20  1  0
 19 10  1  1
 20 21  1  1
 22 24  2  0
 24 25  1  0
 27 28  1  0
 28 16  1  1
 28 29  1  0
M  END
>  <DRUGBANK_ID>  (1) 
DB02684

>  <SECONDARY_ACCESSION_NUMBERS>  (1) 
EXPT00241

>  <COMMON_NAME>  (1) 
5'-O-(L-Cysteinylsulfamoyl)adenosine

>  <SYNONYMS>  (1) 
5'-O-(N-(L-Cysteinyl)-sulfamoyl)adenosine

$$$$
