
     RDKit          3D

 13 13  0  0  0  0  0  0  0  0999 V2000
    0.9634    0.0151    0.0918 C   0  0  0  0  0  0  0  0  0  0  0  0
   -0.3405    0.0151    0.0918 C   0  0  0  0  0  0  0  0  0  0  0  0
   -1.8605    0.0151    0.0918 C   0  0  0  0  0  0  0  0  0  0  0  0
   -2.4348   -1.4754   -0.0980 C   0  0  0  0  0  0  0  0  0  0  0  0
   -3.3199   -1.6714    1.1433 C   0  0  0  0  0  0  0  0  0  0  0  0
   -3.9264   -3.0462    1.2529 C   0  0  0  0  0  0  0  0  0  0  0  0
   -2.8684   -4.1521    1.0762 C   0  0  0  0  0  0  0  0  0  0  0  0
   -1.8192   -3.9812   -0.0393 C   0  0  0  0  0  0  0  0  0  0  0  0
   -1.3093   -2.5507   -0.1221 C   0  0  0  0  0  0  0  0  0  0  0  0
   -3.1840   -1.5476   -1.3989 O   0  0  0  0  0  0  0  0  0  0  0  0
   -3.8416   -2.6505   -1.8756 C   0  0  0  0  0  0  0  0  0  0  0  0
   -4.1681   -3.6815   -1.3228 O   0  0  0  0  0  0  0  0  0  0  0  0
   -4.1558   -2.6104   -3.1876 N   0  0  0  0  0  0  0  0  0  0  0  0
  1  2  3  0
  2  3  1  0
  3  4  1  0
  4  5  1  0
  4  9  1  0
  4 10  1  0
  5  6  1  0
  6  7  1  0
  7  8  1  0
  8  9  1  0
 10 11  1  0
 11 12  2  0
 11 13  1  0
M  END
>  <DRUGBANK_ID>  (1) 
DB13662

>  <COMMON_NAME>  (1) 
Hexapropymate

>  <CAS_NUMBER>  (1) 
358-52-1

>  <UNII>  (1) 
0J9RN2PRJ7

>  <SYNONYMS>  (1) 
Hexapropymate

$$$$
