
     RDKit          3D

 29 33  0  0  1  0  0  0  0  0999 V2000
    1.3722   -0.0053    0.1231 C   0  0  1  0  0  0  0  0  0  0  0  0
    0.8094    1.4032   -0.2868 C   0  0  1  0  0  0  0  0  0  0  0  0
   -0.7508    1.3396   -0.3822 C   0  0  2  0  0  0  0  0  0  0  0  0
   -1.2279   -0.0774    0.0528 C   0  0  2  0  0  0  0  0  0  0  0  0
   -0.7507   -0.4169    1.4661 C   0  0  0  0  0  0  0  0  0  0  0  0
    0.7834   -0.4810    1.4792 C   0  0  0  0  0  0  0  0  0  0  0  0
   -0.5741   -1.1767   -0.7976 C   0  0  0  0  0  0  0  0  0  0  0  0
    0.9318   -1.0459   -0.8930 C   0  0  0  0  0  0  0  0  0  0  0  0
   -1.4220    1.7250   -1.6865 N   0  0  0  0  0  0  0  0  0  0  0  0
   -1.1134    1.1347   -2.9236 C   0  0  0  0  0  0  0  0  0  0  0  0
   -0.1920    1.6960   -3.7262 N   0  0  0  0  0  0  0  0  0  0  0  0
    0.2188    0.9393   -4.7767 C   0  0  0  0  0  0  0  0  0  0  0  0
   -0.0934   -0.3474   -5.0118 N   0  0  0  0  0  0  0  0  0  0  0  0
   -1.0532   -0.8354   -4.2255 C   0  0  0  0  0  0  0  0  0  0  0  0
   -1.7197   -0.0655   -3.2967 C   0  0  0  0  0  0  0  0  0  0  0  0
   -2.6866   -0.6289   -2.5503 F   0  0  0  0  0  0  0  0  0  0  0  0
    0.9713    1.5728   -5.8305 C   0  0  0  0  0  0  0  0  0  0  0  0
    2.2157    2.1417   -5.6567 C   0  0  0  0  0  0  0  0  0  0  0  0
    2.6374    2.6038   -6.8782 N   0  0  0  0  0  0  0  0  0  0  0  0
    1.6874    2.3449   -7.8341 C   0  0  0  0  0  0  0  0  0  0  0  0
    0.6282    1.6908   -7.2106 C   0  0  0  0  0  0  0  0  0  0  0  0
   -0.4731    1.3247   -8.0057 C   0  0  0  0  0  0  0  0  0  0  0  0
   -0.4204    1.6488   -9.3537 C   0  0  0  0  0  0  0  0  0  0  0  0
    0.6949    2.3010   -9.8578 C   0  0  0  0  0  0  0  0  0  0  0  0
    1.7880    2.6758   -9.1390 N   0  0  0  0  0  0  0  0  0  0  0  0
   -1.4458    1.3331  -10.1563 F   0  0  0  0  0  0  0  0  0  0  0  0
    1.2998    2.4640    0.7202 C   0  0  0  0  0  0  0  0  0  0  0  0
    1.0215    3.6387    0.7144 O   0  0  0  0  0  0  0  0  0  0  0  0
    2.1336    1.9786    1.6733 O   0  0  0  0  0  0  0  0  0  0  0  0
  1  2  1  0
  1  6  1  1
  1  8  1  0
  2  3  1  0
  2 27  1  1
  3  4  1  0
  3  9  1  6
  4  5  1  1
  4  7  1  0
  5  6  1  0
  8  7  1  0
  9 10  1  0
 10 15  1  0
 11 10  2  0
 12 11  1  0
 12 13  2  0
 12 17  1  0
 14 13  1  0
 15 14  2  0
 15 16  1  0
 17 18  2  0
 19 18  1  0
 20 19  1  0
 20 21  2  0
 20 25  1  0
 21 22  1  0
 21 17  1  0
 22 23  2  0
 23 24  1  0
 23 26  1  0
 24 25  2  0
 27 28  2  0
 27 29  1  0
M  END
>  <DRUGBANK_ID>  (1) 
DB14974

>  <COMMON_NAME>  (1) 
Pimodivir

>  <CAS_NUMBER>  (1) 
1629869-44-8

>  <UNII>  (1) 
DFC121MXC3

>  <SYNONYMS>  (1) 
JNJ-63623872; Pimodivir

$$$$
