
     RDKit          3D

 23 24  0  0  0  0  0  0  0  0999 V2000
    0.9656    2.3820   -0.2781 O   0  0  0  0  0  0  0  0  0  0  0  0
    2.0089   -0.3505    0.0362 O   0  0  0  0  0  0  0  0  0  0  0  0
   -1.0085   -0.9406    1.5369 O   0  0  0  0  0  0  0  0  0  0  0  0
    0.6626   -3.1270    1.2864 O   0  0  0  0  0  0  0  0  0  0  0  0
   -0.8382    0.7935   -4.2428 O   0  0  0  0  0  0  0  0  0  0  0  0
   -1.4573   -1.5788   -5.5782 O   0  0  0  0  0  0  0  0  0  0  0  0
    0.9224   -5.0744   -3.0885 O   0  0  0  0  0  0  0  0  0  0  0  0
    3.5580   -2.7770   -0.2014 O   0  0  0  0  0  0  0  0  0  0  0  0
    0.7698   -0.3323   -2.9555 N   0  0  0  0  0  0  0  0  0  0  0  0
    2.6073   -1.6655   -1.9652 N   0  0  0  0  0  0  0  0  0  0  0  0
   -0.1324   -2.7035   -4.1019 N   0  0  0  0  0  0  0  0  0  0  0  0
    2.3424   -3.9643   -1.7006 N   0  0  0  0  0  0  0  0  0  0  0  0
    0.3943    1.1426   -0.7585 C   0  0  2  0  0  0  0  0  0  0  0  0
    0.6923    0.0479    0.2952 C   0  0  1  0  0  0  0  0  0  0  0  0
    1.0243    0.9294   -2.2070 C   0  0  0  0  0  0  0  0  0  0  0  0
   -0.3697   -1.0992    0.2742 C   0  0  1  0  0  0  0  0  0  0  0  0
    1.4636   -1.5577   -2.7594 C   0  0  0  0  0  0  0  0  0  0  0  0
    0.9209   -2.6994   -3.2255 C   0  0  0  0  0  0  0  0  0  0  0  0
    0.1368   -2.5373    0.1229 C   0  0  0  0  0  0  0  0  0  0  0  0
   -0.2592   -0.2469   -3.9359 C   0  0  0  0  0  0  0  0  0  0  0  0
   -0.6681   -1.5626   -4.6258 C   0  0  0  0  0  0  0  0  0  0  0  0
    1.4165   -4.0169   -2.7014 C   0  0  0  0  0  0  0  0  0  0  0  0
    2.9366   -2.8209   -1.2573 C   0  0  0  0  0  0  0  0  0  0  0  0
  4 19  1  0
  5 20  2  0
  6 21  2  0
  7 22  2  0
  8 23  2  0
  9 15  1  0
  9 17  1  0
  9 20  1  0
 10 17  1  0
 10 23  1  0
 11 18  1  0
 11 21  1  0
 12 22  1  0
 12 23  1  0
 13 15  1  0
 13 14  1  0
 13  1  1  1
 14 16  1  0
 14  2  1  6
 16 19  1  0
 16  3  1  1
 17 18  2  0
 18 22  1  0
 20 21  1  0
M  END
>  <DRUGBANK_ID>  (1) 
DB02214

>  <SECONDARY_ACCESSION_NUMBERS>  (1) 
EXPT02766

>  <COMMON_NAME>  (1) 
6,7-dioxo-5H-8-ribitylaminolumazine

$$$$
