4830
     RDKit          3D

 11 10  0  0  0  0  0  0  0  0999 V2000
    1.2166   -0.0763   -0.0029 N   0  0  0  0  0  0  0  0  0  0  0  0
    3.0654   -0.1870   -1.3693 N   0  0  0  0  0  0  0  0  0  0  0  0
    3.3069    0.8052    0.6299 N   0  0  0  0  0  0  0  0  0  0  0  0
    1.0595   -0.1902   -2.6011 N   0  0  0  0  0  0  0  0  0  0  0  0
    3.0458   -0.6477   -3.5829 N   0  0  0  0  0  0  0  0  0  0  0  0
    0.6887   -0.8381    2.3016 C   0  0  0  0  0  0  0  0  0  0  0  0
    2.1121   -0.8719    2.8561 C   0  0  0  0  0  0  0  0  0  0  0  0
    0.4667    0.2312    1.2202 C   0  0  0  0  0  0  0  0  0  0  0  0
    2.5038    0.4487    3.5396 C   0  0  0  0  0  0  0  0  0  0  0  0
    2.4483    0.1972   -0.2152 C   0  0  0  0  0  0  0  0  0  0  0  0
    2.3941   -0.3350   -2.4432 C   0  0  0  0  0  0  0  0  0  0  0  0
  1  8  1  0
  1 10  2  0
  2 10  1  0
  2 11  2  0
  3 10  1  0
  4 11  1  0
  5 11  1  0
  6  7  1  0
  6  8  1  0
  7  9  1  0
M  END
>  <DRUGBANK_ID>  (1) 
DB04830

>  <COMMON_NAME>  (1) 
Buformin

>  <CAS_NUMBER>  (1) 
692-13-7

>  <UNII>  (1) 
W2115E9C7B

>  <SYNONYMS>  (1) 
1-Butylbiguanide; Buformin; Buformina; Buformine; Buforminum

$$$$
