
     RDKit          3D

 19 20  0  0  0  0  0  0  0  0999 V2000
    1.0482   -0.1063   -0.0560 C   0  0  0  0  0  0  0  0  0  0  0  0
    0.5224    1.1232    0.6730 C   0  0  0  0  0  0  0  0  0  0  0  0
    0.9614    2.4442    0.0846 C   0  0  0  0  0  0  0  0  0  0  0  0
    0.5233    3.6091    0.5750 C   0  0  0  0  0  0  0  0  0  0  0  0
    0.8814    4.8384   -0.0998 C   0  0  0  0  0  0  0  0  0  0  0  0
    0.3628    6.0556    0.3548 C   0  0  0  0  0  0  0  0  0  0  0  0
    0.6831    7.2448   -0.2995 C   0  0  0  0  0  0  0  0  0  0  0  0
    1.5224    7.2077   -1.4135 C   0  0  0  0  0  0  0  0  0  0  0  0
    2.0340    5.9954   -1.8723 C   0  0  0  0  0  0  0  0  0  0  0  0
    1.7145    4.8024   -1.2193 C   0  0  0  0  0  0  0  0  0  0  0  0
    2.2365    3.5066   -1.7010 C   0  0  0  0  0  0  0  0  0  0  0  0
    2.9914    3.4686   -2.6708 O   0  0  0  0  0  0  0  0  0  0  0  0
    1.8349    2.3843   -1.0324 O   0  0  0  0  0  0  0  0  0  0  0  0
    2.8425    6.0684   -2.9754 O   0  0  0  0  0  0  0  0  0  0  0  0
    0.1216    8.3725    0.2339 O   0  0  0  0  0  0  0  0  0  0  0  0
    0.4506    9.5953   -0.4180 C   0  0  0  0  0  0  0  0  0  0  0  0
   -0.9993    1.0828    0.7198 C   0  0  0  0  0  0  0  0  0  0  0  0
   -1.6793    1.0807    1.7374 O   0  0  0  0  0  0  0  0  0  0  0  0
   -1.5878    1.1312   -0.4929 O   0  0  0  0  0  0  0  0  0  0  0  0
  1  2  1  0
  2  3  1  0
  2 17  1  0
  3  4  2  0
  3 13  1  0
  4  5  1  0
  5  6  2  0
  5 10  1  0
  6  7  1  0
  7  8  2  0
  7 15  1  0
  8  9  1  0
  9 10  2  0
  9 14  1  0
 10 11  1  0
 11 12  2  0
 11 13  1  0
 15 16  1  0
 17 18  2  0
 17 19  1  0
M  END
>  <DRUGBANK_ID>  (1) 
DB12818

>  <COMMON_NAME>  (1) 
NM-3

>  <CAS_NUMBER>  (1) 
181427-78-1

>  <UNII>  (1) 
5797K23F95

$$$$
