
     RDKit          3D

  9  8  0  0  0  0  0  0  0  0999 V2000
    1.0917   -0.0196    0.0258 C   0  0  0  0  0  0  0  0  0  0  0  0
    1.0559   -0.7186    2.4810 C   0  0  0  0  0  0  0  0  0  0  0  0
   -0.9949   -1.0304    1.0552 C   0  0  0  0  0  0  0  0  0  0  0  0
    1.0747   -2.4423    0.6806 C   0  0  0  0  0  0  0  0  0  0  0  0
    0.5492   -1.0355    1.0568 C   0  0  0  0  0  0  0  0  0  0  0  0
    0.5222    1.2749    0.1802 O   0  0  0  0  0  0  0  0  0  0  0  0
    0.5116    0.4784    3.0164 O   0  0  0  0  0  0  0  0  0  0  0  0
   -1.5115   -1.4099   -0.2223 O   0  0  0  0  0  0  0  0  0  0  0  0
    0.6663   -2.8535   -0.6183 O   0  0  0  0  0  0  0  0  0  0  0  0
  5  1  1  0
  5  2  1  0
  5  3  1  0
  5  4  1  0
  6  1  1  0
  7  2  1  0
  8  3  1  0
  9  4  1  0
M  END
>  <DRUGBANK_ID>  (1) 
DB13526

>  <COMMON_NAME>  (1) 
Pentaerithrityl

>  <CAS_NUMBER>  (1) 
115-77-5

>  <UNII>  (1) 
SU420W1S6N

>  <SYNONYMS>  (1) 
Pentaerythritol

$$$$
