
     RDKit          3D

 22 24  0  0  0  0  0  0  0  0999 V2000
    2.3277   -0.2590   -0.0020 C   0  0  0  0  0  0  0  0  0  0  0  0
    1.8893    1.0623   -0.0135 C   0  0  0  0  0  0  0  0  0  0  0  0
    0.5186    1.3235    0.0060 C   0  0  0  0  0  0  0  0  0  0  0  0
    1.4227   -1.3186    0.0363 C   0  0  0  0  0  0  0  0  0  0  0  0
    0.0493   -1.0552    0.0437 C   0  0  0  0  0  0  0  0  0  0  0  0
   -0.4073    0.2688    0.0231 C   0  0  0  0  0  0  0  0  0  0  0  0
   -1.8670    0.4984   -0.0034 C   0  0  0  0  0  0  0  0  0  0  0  0
   -2.7167   -0.6975   -0.0641 C   0  0  0  0  0  0  0  0  0  0  0  0
   -2.1584   -1.9136   -0.0326 C   0  0  0  0  0  0  0  0  0  0  0  0
   -0.7963   -2.1465    0.0643 O   0  0  0  0  0  0  0  0  0  0  0  0
    3.6594   -0.5549   -0.0331 O   0  0  0  0  0  0  0  0  0  0  0  0
    0.0925    2.6212    0.0004 O   0  0  0  0  0  0  0  0  0  0  0  0
   -2.4009    1.6009    0.0068 O   0  0  0  0  0  0  0  0  0  0  0  0
   -3.0196   -3.1082   -0.1052 C   0  0  0  0  0  0  0  0  0  0  0  0
   -3.0512   -4.0534    0.9320 C   0  0  0  0  0  0  0  0  0  0  0  0
   -3.9197   -5.1542    0.8733 C   0  0  0  0  0  0  0  0  0  0  0  0
   -4.7662   -5.3207   -0.2220 C   0  0  0  0  0  0  0  0  0  0  0  0
   -4.7296   -4.3813   -1.2521 C   0  0  0  0  0  0  0  0  0  0  0  0
   -3.8697   -3.2898   -1.2058 C   0  0  0  0  0  0  0  0  0  0  0  0
   -5.5514   -4.5077   -2.3389 O   0  0  0  0  0  0  0  0  0  0  0  0
   -5.6558   -6.3490   -0.3792 O   0  0  0  0  0  0  0  0  0  0  0  0
   -3.8719   -6.0058    1.9401 O   0  0  0  0  0  0  0  0  0  0  0  0
  1 11  1  0
  1  2  2  0
  2  3  1  0
  3 12  1  0
  3  6  2  0
  4  1  1  0
  5  6  1  0
  5  4  2  0
  5 10  1  0
  6  7  1  0
  7 13  2  0
  7  8  1  0
  8  9  2  0
  9 14  1  0
  9 10  1  0
 14 15  2  0
 15 16  1  0
 16 17  2  0
 16 22  1  0
 17 18  1  0
 17 21  1  0
 18 19  2  0
 18 20  1  0
 19 14  1  0
M  END
>  <DRUGBANK_ID>  (1) 
DB08230

>  <COMMON_NAME>  (1) 
Tricetin

>  <CAS_NUMBER>  (1) 
520-31-0

>  <UNII>  (1) 
5627PY99ZO

>  <SYNONYMS>  (1) 
3',4',5,5',7-pentahydroxyflavone; 5,7,3',4',5'-Pentahydroxyflavone; Tricetin; Tricetinidin

$$$$
