Lutein
     RDKit          3D

 42 43  0  0  0  0  0  0  0  0999 V2000
   -1.4357   -0.3894    0.0000 C   0  0  0  0  0  0  0  0  0  0  0  0
   -2.8925   -0.6896    0.0046 C   0  0  0  0  0  0  0  0  0  0  0  0
    0.9812   -1.1261   -0.0124 C   0  0  0  0  0  0  0  0  0  0  0  0
    0.4908    1.4304    0.0319 C   0  0  0  0  0  0  0  0  0  0  0  0
   -3.9167    0.1918    0.0415 C   0  0  0  0  0  0  0  0  0  0  0  0
   -5.3472   -0.0863    0.0375 C   0  0  0  0  0  0  0  0  0  0  0  0
   -6.2410    0.9330    0.0396 C   0  0  0  0  0  0  0  0  0  0  0  0
   -5.7000   -1.5473    0.0365 C   0  0  0  0  0  0  0  0  0  0  0  0
   -7.6764    0.7416    0.0457 C   0  0  0  0  0  0  0  0  0  0  0  0
   -8.6458    1.6719    0.0509 C   0  0  0  0  0  0  0  0  0  0  0  0
  -10.0812    1.3257    0.0616 C   0  0  0  0  0  0  0  0  0  0  0  0
  -11.0249    2.2905    0.0670 C   0  0  0  0  0  0  0  0  0  0  0  0
  -10.4346   -0.1491    0.0668 C   0  0  0  0  0  0  0  0  0  0  0  0
  -12.4573    2.0436    0.0777 C   0  0  0  0  0  0  0  0  0  0  0  0
  -13.3857    3.0053    0.0826 C   0  0  0  0  0  0  0  0  0  0  0  0
  -14.8144    2.7290    0.0938 C   0  0  0  0  0  0  0  0  0  0  0  0
  -15.7563    3.6967    0.1005 C   0  0  0  0  0  0  0  0  0  0  0  0
  -17.1753    3.3472    0.1134 C   0  0  0  0  0  0  0  0  0  0  0  0
  -15.3266    5.1467    0.0936 C   0  0  0  0  0  0  0  0  0  0  0  0
  -18.1596    4.2584    0.1191 C   0  0  0  0  0  0  0  0  0  0  0  0
  -19.5693    3.9968    0.1203 C   0  0  0  0  0  0  0  0  0  0  0  0
  -20.4841    4.9942    0.0963 C   0  0  0  0  0  0  0  0  0  0  0  0
  -21.8755    4.6209    0.1236 C   0  0  0  0  0  0  0  0  0  0  0  0
  -20.0946    6.4569    0.1190 C   0  0  0  0  0  0  0  0  0  0  0  0
  -22.8996    5.4542   -0.1326 C   0  0  0  0  0  0  0  0  0  0  0  0
  -24.3796    5.2263    0.0549 C   0  0  1  0  0  0  0  0  0  0  0  0
  -25.4599    3.5346    1.5525 C   0  0  0  0  0  0  0  0  0  0  0  0
  -25.8126    5.9932    2.1918 C   0  0  0  0  0  0  0  0  0  0  0  0
   -0.5070   -1.3732   -0.0126 C   0  0  0  0  0  0  0  0  0  0  0  0
   -0.8525   -2.8434   -0.0118 C   0  0  0  0  0  0  0  0  0  0  0  0
  -24.2762    2.6884   -0.4256 C   0  0  0  0  0  0  0  0  0  0  0  0
  -24.7377    3.8166    0.4626 C   0  0  0  0  0  0  0  0  0  0  0  0
   -1.4911    1.6274    1.4108 C   0  0  0  0  0  0  0  0  0  0  0  0
   -1.0225    1.0819    0.0361 C   0  0  0  0  0  0  0  0  0  0  0  0
   -1.5541    1.7469   -1.2662 C   0  0  0  0  0  0  0  0  0  0  0  0
  -25.9876    7.1395    0.0014 C   0  0  0  0  0  0  0  0  0  0  0  0
  -25.0014    6.3961    0.9358 C   0  0  0  0  0  0  0  0  0  0  0  0
  -23.9268    7.3800    1.4928 C   0  0  0  0  0  0  0  0  0  0  0  0
  -26.0159    4.5259    2.4954 C   0  0  1  0  0  0  0  0  0  0  0  0
  -27.4171    4.2873    2.5499 O   0  0  0  0  0  0  0  0  0  0  0  0
    1.4885    0.3067   -0.0912 C   0  0  2  0  0  0  0  0  0  0  0  0
    2.1626    0.4850   -1.3432 O   0  0  0  0  0  0  0  0  0  0  0  0
  1 29  2  0
  1 34  1  0
  1  2  1  0
  2  5  2  0
  3 41  1  0
  4 41  1  0
  5  6  1  0
  6  7  2  0
  6  8  1  0
  7  9  1  0
  9 10  2  0
 10 11  1  0
 11 12  2  0
 11 13  1  0
 12 14  1  0
 14 15  2  0
 15 16  1  0
 16 17  2  0
 17 18  1  0
 17 19  1  0
 18 20  2  0
 20 21  1  0
 21 22  2  0
 22 23  1  0
 22 24  1  0
 23 25  2  0
 26 25  1  1
 26 32  1  0
 26 37  1  0
 27 39  1  0
 28 39  1  0
 29  3  1  0
 29 30  1  0
 32 27  2  0
 32 31  1  0
 34  4  1  0
 34 33  1  0
 34 35  1  0
 37 28  1  0
 37 36  1  0
 37 38  1  0
 39 40  1  6
 41 42  1  6
M  END
>  <DRUGBANK_ID>  (1) 
DB00137

>  <SECONDARY_ACCESSION_NUMBERS>  (1) 
NUTR00036; DB11138

>  <COMMON_NAME>  (1) 
Lutein

>  <CAS_NUMBER>  (1) 
127-40-2

>  <UNII>  (1) 
X72A60C9MT

>  <SYNONYMS>  (1) 
Xanthophyll; Xantofyl

$$$$
