
     RDKit          3D

 11 10  0  0  0  0  0  0  0  0999 V2000
    0.9279   -0.0226    0.0901 C   0  0  1  0  0  0  0  0  0  0  0  0
    0.4821    0.5186   -1.2857 C   0  0  1  0  0  0  0  0  0  0  0  0
    0.6758    2.0245   -1.4728 C   0  0  0  0  0  0  0  0  0  0  0  0
    2.1155    2.4132   -1.2760 C   0  0  0  0  0  0  0  0  0  0  0  0
    2.7829    2.9703   -2.1484 O   0  0  0  0  0  0  0  0  0  0  0  0
    1.1592   -0.1856   -2.3320 O   0  0  0  0  0  0  0  0  0  0  0  0
    0.3902    0.8491    1.2517 C   0  0  1  0  0  0  0  0  0  0  0  0
   -0.4131    0.0681    2.2830 C   0  0  0  0  0  0  0  0  0  0  0  0
    0.4067   -0.9350    2.8715 O   0  0  0  0  0  0  0  0  0  0  0  0
    1.5063    1.5018    1.8697 O   0  0  0  0  0  0  0  0  0  0  0  0
    0.5342   -1.3973    0.2426 O   0  0  0  0  0  0  0  0  0  0  0  0
  1 11  1  1
  1  7  1  0
  1  2  1  0
  2  3  1  0
  2  6  1  6
  3  4  1  0
  4  5  2  0
  7  8  1  0
  7 10  1  1
  8  9  1  0
M  END
>  <DRUGBANK_ID>  (1) 
DB08831

>  <COMMON_NAME>  (1) 
2-deoxyglucose

>  <CAS_NUMBER>  (1) 
154-17-6

>  <UNII>  (1) 
9G2MP84A8W

>  <SYNONYMS>  (1) 
2-Deoxy-D-arabino-hexose; 2-deoxy-D-glucose; 2-DG; D-arabino-2-desoxyhexose

$$$$
