213
     RDKit          3D

 26 28  0  0  1  0  0  0  0  0999 V2000
    1.0384   -0.2088   -0.2689 S   0  0  0  0  0  0  0  0  0  0  0  0
   -1.7081   -8.2640   -1.4879 F   0  0  0  0  0  0  0  0  0  0  0  0
   -1.9049   -8.2750    0.7025 F   0  0  0  0  0  0  0  0  0  0  0  0
    1.0961    2.2733    0.2798 O   0  0  0  0  0  0  0  0  0  0  0  0
   -2.7711   -6.5268   -0.4726 O   0  0  0  0  0  0  0  0  0  0  0  0
    0.3913    0.3444   -1.5060 O   0  0  0  0  0  0  0  0  0  0  0  0
    2.3437    5.1827   -0.0777 O   0  0  0  0  0  0  0  0  0  0  0  0
   -0.7631   -2.1229   -0.3349 N   0  0  0  0  0  0  0  0  0  0  0  0
    1.2959   -2.8610    0.0815 N   0  0  0  0  0  0  0  0  0  0  0  0
    4.6162    1.6649    0.0540 N   0  0  0  0  0  0  0  0  0  0  0  0
   -0.8870   -3.4731   -0.2773 C   0  0  0  0  0  0  0  0  0  0  0  0
    0.5530   -1.8053   -0.1562 C   0  0  0  0  0  0  0  0  0  0  0  0
    0.4264   -3.8984   -0.0895 C   0  0  0  0  0  0  0  0  0  0  0  0
    2.8015    0.0280   -0.1437 C   0  0  0  0  0  0  0  0  0  0  0  0
    3.2620    1.5086   -0.0418 C   0  0  0  0  0  0  0  0  0  0  0  0
   -1.9764   -4.3345   -0.3892 C   0  0  0  0  0  0  0  0  0  0  0  0
    0.7076   -5.2579   -0.0937 C   0  0  0  0  0  0  0  0  0  0  0  0
    2.3653    2.6339   -0.0289 C   0  0  0  0  0  0  0  0  0  0  0  0
   -1.6816   -5.7038   -0.3620 C   0  0  0  0  0  0  0  0  0  0  0  0
   -0.3570   -6.1465   -0.2373 C   0  0  0  0  0  0  0  0  0  0  0  0
    2.9057    3.9308   -0.0519 C   0  0  0  0  0  0  0  0  0  0  0  0
    4.2969    4.0528    0.0436 C   0  0  0  0  0  0  0  0  0  0  0  0
    5.0931    2.9248    0.1242 C   0  0  0  0  0  0  0  0  0  0  0  0
   -0.1308    2.8086   -0.1495 C   0  0  0  0  0  0  0  0  0  0  0  0
   -2.5198   -7.9275   -0.4552 C   0  0  0  0  0  0  0  0  0  0  0  0
    0.9652    5.3363   -0.3030 C   0  0  0  0  0  0  0  0  0  0  0  0
  1  6  2  0
  1 12  1  0
  1 14  1  0
  2 25  1  0
  3 25  1  0
  4 18  1  0
  4 24  1  0
  5 19  1  0
  5 25  1  0
  7 21  1  0
  7 26  1  0
  8 11  1  0
  8 12  1  0
  9 12  2  0
  9 13  1  0
 10 15  2  0
 10 23  1  0
 11 13  2  0
 11 16  1  0
 13 17  1  0
 14 15  1  0
 15 18  1  0
 16 19  2  0
 17 20  2  0
 18 21  2  0
 19 20  1  0
 21 22  1  0
 22 23  2  0
M  END
>  <DRUGBANK_ID>  (1) 
DB00213

>  <SECONDARY_ACCESSION_NUMBERS>  (1) 
APRD00073

>  <COMMON_NAME>  (1) 
Pantoprazole

>  <CAS_NUMBER>  (1) 
102625-70-7

>  <UNII>  (1) 
D8TST4O562

>  <SYNONYMS>  (1) 
Pantoprazol; Pantoprazole; Pantoprazolum

$$$$
