253
     RDKit          3D

 25 28  0  0  1  0  0  0  0  0999 V2000
   -0.6054    6.1178   -1.5989 O   0  0  0  0  0  0  0  0  0  0  0  0
   -5.8434    5.2211   -0.6482 O   0  0  0  0  0  0  0  0  0  0  0  0
    1.3391    3.3843    5.1109 O   0  0  0  0  0  0  0  0  0  0  0  0
   -2.9307    3.3618   -2.6555 C   0  0  2  0  0  0  0  0  0  0  0  0
   -3.1205    4.7517   -2.4388 C   0  0  2  0  0  0  0  0  0  0  0  0
   -1.7869    3.3967   -1.1308 C   0  0  1  0  0  0  0  0  0  0  0  0
   -1.8296    4.5301    0.0550 C   0  0  1  0  0  0  0  0  0  0  0  0
   -0.9008    4.2480    1.6160 C   0  0  2  0  0  0  0  0  0  0  0  0
   -2.9780    5.9444   -1.5624 C   0  0  0  0  0  0  0  0  0  0  0  0
   -1.7273    5.9164   -0.7481 C   0  0  2  0  0  0  0  0  0  0  0  0
   -4.7846    4.4304   -2.6567 C   0  0  2  0  0  0  0  0  0  0  0  0
   -3.7043    4.4101   -4.2068 C   0  0  0  0  0  0  0  0  0  0  0  0
   -1.3695    2.2379   -0.2164 C   0  0  0  0  0  0  0  0  0  0  0  0
   -4.9669    5.2206   -3.8369 C   0  0  0  0  0  0  0  0  0  0  0  0
    0.2243    2.5565    0.3702 C   0  0  1  0  0  0  0  0  0  0  0  0
    0.4723    3.7067    1.4862 C   0  0  0  0  0  0  0  0  0  0  0  0
   -1.6086    4.5891   -3.5573 C   0  0  0  0  0  0  0  0  0  0  0  0
   -1.1671    2.7280    2.7886 C   0  0  0  0  0  0  0  0  0  0  0  0
   -0.3667    5.7986    1.7819 C   0  0  0  0  0  0  0  0  0  0  0  0
   -5.8385    4.4345   -1.6088 C   0  0  0  0  0  0  0  0  0  0  0  0
    0.1342    1.9137    3.7517 C   0  0  0  0  0  0  0  0  0  0  0  0
    1.1488    3.9040    2.7243 C   0  0  0  0  0  0  0  0  0  0  0  0
    0.7761    1.2992    0.9363 C   0  0  0  0  0  0  0  0  0  0  0  0
    0.9745    3.0770    4.0235 C   0  0  0  0  0  0  0  0  0  0  0  0
   -6.9303    3.4064   -1.8039 C   0  0  0  0  0  0  0  0  0  0  0  0
  2 20  2  0
  3 24  2  0
  4  5  1  0
  4  6  1  0
  4 12  1  6
  5  9  1  0
  5 11  1  0
  5 17  1  6
  6  7  1  0
  6 13  1  1
  7  8  1  0
  7 10  1  6
  8 16  1  0
  8 18  1  0
  8 19  1  1
  9 10  1  0
 10  1  1  6
 11 14  1  0
 11 20  1  1
 12 14  1  0
 13 15  1  0
 15 16  1  0
 15 23  1  1
 16 22  2  0
 18 21  1  0
 20 25  1  0
 21 24  1  0
 22 24  1  0
M  END
>  <DRUGBANK_ID>  (1) 
DB00253

>  <SECONDARY_ACCESSION_NUMBERS>  (1) 
APRD01091

>  <COMMON_NAME>  (1) 
Medrysone

>  <CAS_NUMBER>  (1) 
2668-66-8

>  <UNII>  (1) 
D2UFC189XF

>  <SYNONYMS>  (1) 
11beta-Hydroxy-6alpha-methylpregn-4-ene-3,20-dione; Medrisona; Medrysone; Medrysonum

$$$$
