
     RDKit          3D

  8  7  0  0  0  0  0  0  0  0999 V2000
    0.9108    0.0049   -0.0195 N   0  0  0  0  0  0  0  0  0  0  0  0
    0.4334    0.6358    1.2117 C   0  0  0  0  0  0  0  0  0  0  0  0
    0.9498    2.0819    1.3758 C   0  0  0  0  0  0  0  0  0  0  0  0
    0.4625    2.7450    2.6646 C   0  0  0  0  0  0  0  0  0  0  0  0
    0.9199    1.9969    3.8918 C   0  0  0  0  0  0  0  0  0  0  0  0
    1.7245    2.6874    4.7226 O   0  0  0  0  0  0  0  0  0  0  0  0
    0.4953    2.8832    0.2733 O   0  0  0  0  0  0  0  0  0  0  0  0
    0.5957    0.8435    4.1442 O   0  0  0  0  0  0  0  0  0  0  0  0
  1  2  1  0
  2  3  1  0
  3  7  1  0
  3  4  1  0
  4  5  1  0
  5  6  1  0
  5  8  2  0
M  END
>  <DRUGBANK_ID>  (1) 
DB15985

>  <COMMON_NAME>  (1) 
Gamma-amino-beta-hydroxybutyric acid

>  <CAS_NUMBER>  (1) 
924-49-2

>  <UNII>  (1) 
1ZHM019FLD

>  <SYNONYMS>  (1) 
4-Amino-3-hydroxybutyric acid; Buxamine; Gamma-amino-beta-hydroxybutyric acid

$$$$
