
     RDKit          3D

 18 17  0  0  0  0  0  0  0  0999 V2000
    0.8778    0.3746   -0.2664 S   0  0  0  0  0  0  0  0  0  0  0  0
    0.5568   -0.7948   -1.9399 S   0  0  0  0  0  0  0  0  0  0  0  0
    3.3402   -1.5292    4.0809 O   0  0  0  0  0  0  0  0  0  0  0  0
   -2.0123   -0.1115    2.5113 O   0  0  0  0  0  0  0  0  0  0  0  0
    2.8966   -0.1605    2.3690 N   0  0  0  0  0  0  0  0  0  0  0  0
   -1.5983   -1.1609    0.5860 N   0  0  0  0  0  0  0  0  0  0  0  0
    5.3100   -0.7753    0.5020 N   0  0  0  0  0  0  0  0  0  0  0  0
   -3.9550   -0.0425   -1.1353 N   0  0  0  0  0  0  0  0  0  0  0  0
    3.1191    0.8079    1.2872 C   0  0  0  0  0  0  0  0  0  0  0  0
   -1.7826   -1.7886   -0.7271 C   0  0  0  0  0  0  0  0  0  0  0  0
    5.2964   -0.6921    2.9674 C   0  0  0  0  0  0  0  0  0  0  0  0
   -3.9750   -0.6910    1.2511 C   0  0  0  0  0  0  0  0  0  0  0  0
    2.6625    0.2718   -0.0928 C   0  0  0  0  0  0  0  0  0  0  0  0
   -1.2544   -0.9212   -1.9059 C   0  0  0  0  0  0  0  0  0  0  0  0
    3.7892   -0.8210    3.1693 C   0  0  0  0  0  0  0  0  0  0  0  0
   -2.4760   -0.6317    1.4815 C   0  0  0  0  0  0  0  0  0  0  0  0
    5.8686   -1.3495    1.7064 C   0  0  0  0  0  0  0  0  0  0  0  0
   -4.5233    0.2414    0.1654 C   0  0  0  0  0  0  0  0  0  0  0  0
  1  2  1  0
  1 13  1  0
  2 14  1  0
  3 15  2  0
  4 16  2  0
  5  9  1  0
  5 15  1  0
  6 10  1  0
  6 16  1  0
  7 17  1  0
  8 18  1  0
  9 13  1  0
 10 14  1  0
 11 15  1  0
 11 17  1  0
 12 16  1  0
 12 18  1  0
M  END
>  <DRUGBANK_ID>  (1) 
DB05800

>  <COMMON_NAME>  (1) 
Alethine

>  <CAS_NUMBER>  (1) 
646-08-2

>  <UNII>  (1) 
LY583605Y8

>  <SYNONYMS>  (1) 
Beta alethine; Beta-alanyl cysteamine disulfide; Beta-alethine; Betathine

$$$$
