NC6
     RDKit          3D

 18 18  0  0  0  0  0  0  0  0999 V2000
   -1.4332    0.3265   -0.2931 C   0  0  0  0  0  0  0  0  0  0  0  0
   -1.6242    0.3557   -1.7467 N   0  0  0  0  0  0  0  0  0  0  0  0
   -2.8482    0.6372   -2.2918 C   0  0  0  0  0  0  0  0  0  0  0  0
   -2.8649    0.6277   -3.6584 N   0  0  0  0  0  0  0  0  0  0  0  0
   -4.0852    0.9398   -4.3866 C   0  0  0  0  0  0  0  0  0  0  0  0
   -3.9050    2.1502   -5.2992 C   0  0  0  0  0  0  0  0  0  0  0  0
   -2.8714    1.8905   -6.3996 C   0  0  0  0  0  0  0  0  0  0  0  0
   -3.2935    0.7741   -7.3670 C   0  0  0  0  0  0  0  0  0  0  0  0
   -4.6121    1.0568   -8.0929 C   0  0  0  0  0  0  0  0  0  0  0  0
   -3.8436    0.8769   -1.6197 O   0  0  0  0  0  0  0  0  0  0  0  0
   -4.5341    2.3134   -8.9335 C   0  0  0  0  0  0  0  0  0  0  0  0
   -4.7289    2.1208  -10.2517 O   0  0  0  0  0  0  0  0  0  0  0  0
   -4.3184    3.4308   -8.4799 O   0  0  0  0  0  0  0  0  0  0  0  0
   -0.9954   -1.0618    0.1891 C   0  0  0  0  0  0  0  0  0  0  0  0
    0.4314   -1.3949   -0.2415 C   0  0  0  0  0  0  0  0  0  0  0  0
    1.4177   -0.3279    0.2256 C   0  0  0  0  0  0  0  0  0  0  0  0
    1.0007    1.0648   -0.2402 C   0  0  0  0  0  0  0  0  0  0  0  0
   -0.4329    1.3923    0.1734 C   0  0  0  0  0  0  0  0  0  0  0  0
  1  2  1  0
  1 14  1  0
  1 18  1  0
  2  3  1  0
  3  4  1  0
  3 10  2  0
  4  5  1  0
  5  6  1  0
  6  7  1  0
  7  8  1  0
  8  9  1  0
  9 11  1  0
 11 12  1  0
 11 13  2  0
 14 15  1  0
 15 16  1  0
 16 17  1  0
 17 18  1  0
M  END
>  <DRUGBANK_ID>  (1) 
DB08258

>  <COMMON_NAME>  (1) 
6-{[(CYCLOHEXYLAMINO)CARBONYL]AMINO}HEXANOIC ACID

>  <UNII>  (1) 
BCV85A2H3R

$$$$
