
     RDKit          3D

 41 45  0  0  1  0  0  0  0  0999 V2000
    1.0197   -0.0929    0.0823 C   0  0  0  0  0  0  0  0  0  0  0  0
    0.4644   -0.4134    1.3757 N   0  0  0  0  0  0  0  0  0  0  0  0
   -0.3171    0.4169    2.1529 C   0  0  0  0  0  0  0  0  0  0  0  0
   -0.6994    0.0725    3.2692 O   0  0  0  0  0  0  0  0  0  0  0  0
   -0.6658    1.7767    1.6553 C   0  0  0  0  0  0  0  0  0  0  0  0
   -1.1836    1.9718    0.3600 C   0  0  0  0  0  0  0  0  0  0  0  0
   -1.5267    3.2381   -0.1152 C   0  0  0  0  0  0  0  0  0  0  0  0
   -1.4271    4.3250    0.7183 C   0  0  0  0  0  0  0  0  0  0  0  0
   -1.0033    4.1186    2.0165 C   0  0  0  0  0  0  0  0  0  0  0  0
   -0.5196    2.8793    2.4929 C   0  0  0  0  0  0  0  0  0  0  0  0
    0.1609    2.8252    3.7218 N   0  0  0  0  0  0  0  0  0  0  0  0
    0.2669    3.8760    4.6381 C   0  0  0  0  0  0  0  0  0  0  0  0
   -0.8759    4.5217    5.1123 C   0  0  0  0  0  0  0  0  0  0  0  0
   -0.6945    5.5902    5.9405 C   0  0  0  0  0  0  0  0  0  0  0  0
    0.5056    5.9772    6.3413 N   0  0  0  0  0  0  0  0  0  0  0  0
    1.5349    5.2260    5.9324 C   0  0  0  0  0  0  0  0  0  0  0  0
    1.4926    4.2429    5.0274 N   0  0  0  0  0  0  0  0  0  0  0  0
    2.7222    5.3807    6.5803 N   0  0  0  0  0  0  0  0  0  0  0  0
    3.0823    6.1880    7.6406 C   0  0  0  0  0  0  0  0  0  0  0  0
    2.2949    6.6192    8.6794 C   0  0  0  0  0  0  0  0  0  0  0  0
    2.7711    7.5657    9.5911 C   0  0  0  0  0  0  0  0  0  0  0  0
    4.1361    8.0585    9.4683 C   0  0  0  0  0  0  0  0  0  0  0  0
    5.1820    7.7392    8.6370 C   0  0  0  0  0  0  0  0  0  0  0  0
    4.4172    6.6738    7.5658 C   0  0  0  0  0  0  0  0  0  0  0  0
    4.6763    6.5576    5.8923 O   0  0  0  0  0  0  0  0  0  0  0  0
    3.8313    6.6648    4.5121 C   0  0  0  0  0  0  0  0  0  0  0  0
    6.4299    9.2778    8.5882 C   0  0  0  0  0  0  0  0  0  0  0  0
    7.3655    8.7359    7.6211 C   0  0  0  0  0  0  0  0  0  0  0  0
    6.6921    8.1771    6.4847 C   0  0  0  0  0  0  0  0  0  0  0  0
    5.4832    9.0074    6.5740 C   0  0  1  0  0  0  0  0  0  0  0  0
    4.3105    9.0932    8.4904 C   0  0  0  0  0  0  0  0  0  0  0  0
    5.0532   10.0212    5.2596 N   0  0  0  0  0  0  0  0  0  0  0  0
    4.8998   11.2196    5.9899 C   0  0  0  0  0  0  0  0  0  0  0  0
    4.2585   10.7521    7.1640 C   0  0  0  0  0  0  0  0  0  0  0  0
    3.0908    9.7349    7.0055 N   0  0  0  0  0  0  0  0  0  0  0  0
    3.2826    8.6211    6.1294 C   0  0  0  0  0  0  0  0  0  0  0  0
    3.8078    9.3233    4.8740 C   0  0  0  0  0  0  0  0  0  0  0  0
    1.9261   10.1014    7.7053 C   0  0  0  0  0  0  0  0  0  0  0  0
    1.7298   11.0544    6.5759 C   0  0  0  0  0  0  0  0  0  0  0  0
    1.4368   10.3104    5.4160 O   0  0  0  0  0  0  0  0  0  0  0  0
   -2.4892    4.0483    4.7439 Cl  0  0  0  0  0  0  0  0  0  0  0  0
  1  2  1  0
  2  3  1  0
  3  4  2  0
  3  5  1  0
  5  6  2  0
  5 10  1  0
  6  7  1  0
  7  8  2  0
  8  9  1  0
  9 10  2  0
 10 11  1  0
 11 12  1  0
 12 13  2  0
 12 17  1  0
 13 14  1  0
 13 41  1  0
 14 15  2  0
 15 16  1  0
 16 17  2  0
 16 18  1  0
 18 19  1  0
 19 20  2  0
 19 24  1  0
 20 21  1  0
 21 22  2  0
 22 23  1  0
 22 31  1  0
 23 24  2  0
 23 27  1  0
 24 25  1  0
 25 26  1  0
 27 28  1  0
 28 29  1  0
 29 30  1  0
 30 31  1  0
 30 32  1  1
 32 33  1  0
 32 37  1  0
 33 34  1  0
 34 35  1  0
 35 36  1  0
 35 38  1  0
 36 37  1  0
 38 39  1  0
 39 40  1  0
M  END
>  <DRUGBANK_ID>  (1) 
DB13060

>  <COMMON_NAME>  (1) 
CEP-37440

>  <CAS_NUMBER>  (1) 
1391712-60-9

>  <UNII>  (1) 
O3MNS8782H

$$$$
