
     RDKit          3D

 39 44  0  0  0  0  0  0  0  0999 V2000
    1.0773   -0.1044   -0.1010 C   0  0  0  0  0  0  0  0  0  0  0  0
    0.5649   -1.3894   -0.4717 O   0  0  0  0  0  0  0  0  0  0  0  0
    0.8855   -1.8449   -1.7095 C   0  0  0  0  0  0  0  0  0  0  0  0
   -0.0429   -2.3490   -2.4724 N   0  0  0  0  0  0  0  0  0  0  0  0
    0.5732   -2.6657   -3.6327 N   0  0  0  0  0  0  0  0  0  0  0  0
    0.0954   -3.1067   -4.8258 C   0  0  0  0  0  0  0  0  0  0  0  0
    1.2192   -3.1947   -5.6301 C   0  0  0  0  0  0  0  0  0  0  0  0
    2.3743   -2.8525   -4.9392 N   0  0  0  0  0  0  0  0  0  0  0  0
    1.9112   -2.4925   -3.7728 C   0  0  0  0  0  0  0  0  0  0  0  0
    2.5569   -1.8109   -2.3406 S   0  0  0  0  0  0  0  0  0  0  0  0
    1.1902   -3.6404   -7.0490 C   0  0  0  0  0  0  0  0  0  0  0  0
    1.9734   -4.6463   -7.5757 C   0  0  0  0  0  0  0  0  0  0  0  0
    1.6664   -4.7316   -8.9606 C   0  0  0  0  0  0  0  0  0  0  0  0
    0.6838   -3.7748   -9.1932 C   0  0  0  0  0  0  0  0  0  0  0  0
    0.3597   -3.1469   -8.0226 O   0  0  0  0  0  0  0  0  0  0  0  0
    0.0990   -3.5418  -10.4450 C   0  0  0  0  0  0  0  0  0  0  0  0
    0.5851   -4.2890  -11.5223 C   0  0  0  0  0  0  0  0  0  0  0  0
   -0.0860   -4.1617  -12.7168 O   0  0  0  0  0  0  0  0  0  0  0  0
    0.2123   -5.0807  -13.7771 C   0  0  0  0  0  0  0  0  0  0  0  0
    1.6624   -5.1510  -11.3235 C   0  0  0  0  0  0  0  0  0  0  0  0
    2.1106   -5.5130  -10.0405 C   0  0  0  0  0  0  0  0  0  0  0  0
    2.8931   -6.6118   -9.7826 O   0  0  0  0  0  0  0  0  0  0  0  0
    3.1413   -7.5386  -10.8611 C   0  0  0  0  0  0  0  0  0  0  0  0
    1.9458   -8.3218  -11.3682 C   0  0  0  0  0  0  0  0  0  0  0  0
    0.6917   -7.8639  -11.7230 C   0  0  0  0  0  0  0  0  0  0  0  0
   -0.2850   -9.0434  -12.4325 S   0  0  0  0  0  0  0  0  0  0  0  0
    0.9756  -10.1506  -12.1274 C   0  0  0  0  0  0  0  0  0  0  0  0
    2.0720   -9.6858  -11.5646 N   0  0  0  0  0  0  0  0  0  0  0  0
    0.6346  -11.5353  -12.2853 C   0  0  0  0  0  0  0  0  0  0  0  0
    0.5177  -12.2604  -11.1172 C   0  0  0  0  0  0  0  0  0  0  0  0
   -0.0395  -13.5205  -11.1689 C   0  0  0  0  0  0  0  0  0  0  0  0
   -0.2999  -14.1783  -12.3705 C   0  0  0  0  0  0  0  0  0  0  0  0
   -0.2441  -13.3990  -13.5426 C   0  0  0  0  0  0  0  0  0  0  0  0
    0.2212  -12.0807  -13.5014 C   0  0  0  0  0  0  0  0  0  0  0  0
   -0.6079  -15.6539  -12.5034 C   0  0  0  0  0  0  0  0  0  0  0  0
   -0.9127  -16.0542  -13.6193 O   0  0  0  0  0  0  0  0  0  0  0  0
   -0.4936  -16.5628  -11.4285 N   0  0  0  0  0  0  0  0  0  0  0  0
   -0.0830  -16.3285  -10.0598 C   0  0  0  0  0  0  0  0  0  0  0  0
   -0.8030  -17.9610  -11.7005 C   0  0  0  0  0  0  0  0  0  0  0  0
  1  2  1  0
  2  3  1  0
  3  4  2  0
  3 10  1  0
  4  5  1  0
  5  6  1  0
  5  9  1  0
  6  7  2  0
  7  8  1  0
  7 11  1  0
  8  9  2  0
  9 10  1  0
 11 12  2  0
 11 15  1  0
 12 13  1  0
 13 14  2  0
 13 21  1  0
 14 15  1  0
 14 16  1  0
 16 17  2  0
 17 18  1  0
 17 20  1  0
 18 19  1  0
 20 21  2  0
 21 22  1  0
 22 23  1  0
 23 24  1  0
 24 25  2  0
 24 28  1  0
 25 26  1  0
 26 27  1  0
 27 28  2  0
 27 29  1  0
 29 30  2  0
 29 34  1  0
 30 31  1  0
 31 32  2  0
 32 33  1  0
 32 35  1  0
 33 34  2  0
 35 36  2  0
 35 37  1  0
 37 38  1  0
 37 39  1  0
M  END
>  <DRUGBANK_ID>  (1) 
DB14942

>  <COMMON_NAME>  (1) 
BMS-986141

>  <CAS_NUMBER>  (1) 
1478711-48-6

>  <UNII>  (1) 
W530IRZ40G

$$$$
