
     RDKit          3D

 31 32  0  0  0  0  0  0  0  0999 V2000
    0.8470    0.1360    0.1767 O   0  0  0  0  0  0  0  0  0  0  0  0
    1.0524   -1.3958    1.7769 O   0  0  0  0  0  0  0  0  0  0  0  0
   -3.1011    2.3880    0.5605 O   0  0  0  0  0  0  0  0  0  0  0  0
   -2.6012   -4.7160    0.1717 O   0  0  0  0  0  0  0  0  0  0  0  0
   -1.4917   -3.6188    1.7859 O   0  0  0  0  0  0  0  0  0  0  0  0
   -4.2511   -0.9748   -6.9277 O   0  0  0  0  0  0  0  0  0  0  0  0
   -2.1754    4.4779   -3.3382 O   0  0  0  0  0  0  0  0  0  0  0  0
   -1.8923    0.5917    1.0823 N   0  0  0  0  0  0  0  0  0  0  0  0
   -4.0214   -1.1468   -4.7029 N   0  0  0  0  0  0  0  0  0  0  0  0
   -3.0431    0.6746   -6.0110 N   0  0  0  0  0  0  0  0  0  0  0  0
   -1.3459    0.7197   -4.2911 N   0  0  0  0  0  0  0  0  0  0  0  0
   -1.0809    2.5426   -2.8224 N   0  0  0  0  0  0  0  0  0  0  0  0
   -3.4430    3.4810   -5.5228 N   0  0  0  0  0  0  0  0  0  0  0  0
   -0.2577    0.4758   -2.3091 N   0  0  0  0  0  0  0  0  0  0  0  0
   -1.2030   -0.7281    1.0823 C   0  0  1  0  0  0  0  0  0  0  0  0
   -1.6113   -1.5379   -0.1207 C   0  0  0  0  0  0  0  0  0  0  0  0
   -1.1337   -2.9178   -0.4738 C   0  0  0  0  0  0  0  0  0  0  0  0
    0.3239   -0.6662    1.1283 C   0  0  0  0  0  0  0  0  0  0  0  0
   -2.8891    1.1949    0.3323 C   0  0  0  0  0  0  0  0  0  0  0  0
   -3.6276    0.5480   -0.8179 C   0  0  0  0  0  0  0  0  0  0  0  0
   -1.7032   -3.8082    0.5985 C   0  0  0  0  0  0  0  0  0  0  0  0
   -4.1605   -0.7454   -0.9460 C   0  0  0  0  0  0  0  0  0  0  0  0
   -3.7546    1.3138   -1.9406 C   0  0  0  0  0  0  0  0  0  0  0  0
   -4.0905   -0.6533   -3.3710 C   0  0  0  0  0  0  0  0  0  0  0  0
   -4.2842   -1.3979   -2.2193 C   0  0  0  0  0  0  0  0  0  0  0  0
   -4.0449    0.7022   -3.1556 C   0  0  0  0  0  0  0  0  0  0  0  0
   -2.2021    1.3805   -5.1463 C   0  0  0  0  0  0  0  0  0  0  0  0
   -3.7646   -0.4945   -5.8968 C   0  0  0  0  0  0  0  0  0  0  0  0
   -2.4482    2.7114   -4.9380 C   0  0  0  0  0  0  0  0  0  0  0  0
   -0.9015    1.3063   -3.1515 C   0  0  0  0  0  0  0  0  0  0  0  0
   -1.8311    3.3249   -3.6555 C   0  0  0  0  0  0  0  0  0  0  0  0
  1 18  1  0
  2 18  2  0
  3 19  2  0
  4 21  1  0
  5 21  2  0
  6 28  2  0
  7 31  2  0
  8 19  1  0
  9 24  1  0
  9 28  1  0
 10 27  1  0
 10 28  1  0
 11 27  1  0
 11 30  1  0
 12 30  2  0
 12 31  1  0
 13 29  1  0
 14 30  1  0
 15  8  1  0
 15 16  1  6
 15 18  1  0
 16 17  1  0
 17 21  1  0
 19 20  1  0
 20 22  2  0
 20 23  1  0
 22 25  1  0
 23 26  2  0
 24 25  2  0
 24 26  1  0
 27 29  2  0
 29 31  1  0
M  END
>  <DRUGBANK_ID>  (1) 
DB02358

>  <SECONDARY_ACCESSION_NUMBERS>  (1) 
EXPT01992

>  <COMMON_NAME>  (1) 
LY374571

$$$$
