
     RDKit          3D

 11 11  0  0  0  0  0  0  0  0999 V2000
    0.9777   -0.0944   -0.0398 S   0  0  0  0  0  0  0  0  0  0  0  0
    6.9222   -0.0281   -0.3651 O   0  0  0  0  0  0  0  0  0  0  0  0
    0.5193    0.7994   -1.1713 O   0  0  0  0  0  0  0  0  0  0  0  0
    0.4873   -1.5201   -0.0951 O   0  0  0  0  0  0  0  0  0  0  0  0
    5.5570   -0.1219   -0.2683 C   0  0  0  0  0  0  0  0  0  0  0  0
    2.7538   -0.0996   -0.0642 C   0  0  0  0  0  0  0  0  0  0  0  0
    4.8415   -1.3188   -0.2046 C   0  0  0  0  0  0  0  0  0  0  0  0
    4.8610    1.0904   -0.2279 C   0  0  0  0  0  0  0  0  0  0  0  0
    3.4501   -1.3070   -0.0926 C   0  0  0  0  0  0  0  0  0  0  0  0
    3.4657    1.1018   -0.1023 C   0  0  0  0  0  0  0  0  0  0  0  0
    7.6285   -1.2627   -0.2795 C   0  0  0  0  0  0  0  0  0  0  0  0
  1  3  1  0
  1  4  2  0
  1  6  1  0
  2  5  1  0
  2 11  1  0
  5  7  2  0
  5  8  1  0
  6  9  2  0
  6 10  1  0
  7  9  1  0
  8 10  2  0
M  CHG  1   3  -1
M  END
>  <DRUGBANK_ID>  (1) 
DB03033

>  <SECONDARY_ACCESSION_NUMBERS>  (1) 
EXPT02236

>  <COMMON_NAME>  (1) 
4-methoxybenzenesulfinate

>  <SYNONYMS>  (1) 
1-methyloxy-4-sulfone-benzene

$$$$
