
     RDKit          3D

 25 28  0  0  1  0  0  0  0  0999 V2000
    0.7762   -2.5873   -2.0650 O   0  0  0  0  0  0  0  0  0  0  0  0
    1.5500   -2.0307   -0.9998 C   0  0  0  0  0  0  0  0  0  0  0  0
    1.0292   -2.4601    0.3848 C   0  0  1  0  0  0  0  0  0  0  0  0
    0.1801   -3.6199    0.2302 O   0  0  0  0  0  0  0  0  0  0  0  0
    0.9558   -4.8007    0.5457 C   0  0  2  0  0  0  0  0  0  0  0  0
    2.0099   -4.3708    1.5597 C   0  0  2  0  0  0  0  0  0  0  0  0
    1.6060   -4.6935    2.8957 O   0  0  0  0  0  0  0  0  0  0  0  0
    1.0970   -3.4999    3.4541 C   0  0  2  0  0  0  0  0  0  0  0  0
   -0.4155   -3.5237    3.4622 C   0  0  0  0  0  0  0  0  0  0  0  0
   -1.1254   -4.6324    4.6546 P   0  0  0  0  0  0  0  0  0  0  0  0
   -0.1579   -4.4120    5.9091 O   0  0  0  0  0  0  0  0  0  0  0  0
   -2.4666   -3.8345    5.0302 O   0  0  0  0  0  0  0  0  0  0  0  0
   -1.3538   -6.0719    4.3444 O   0  0  0  0  0  0  0  0  0  0  0  0
    1.5941   -2.3797    2.7229 O   0  0  0  0  0  0  0  0  0  0  0  0
    2.0564   -2.8600    1.4507 C   0  0  2  0  0  0  0  0  0  0  0  0
    1.5628   -5.4063   -0.6882 C   0  0  0  0  0  0  0  0  0  0  0  0
    2.6163   -4.9100   -1.4490 C   0  0  0  0  0  0  0  0  0  0  0  0
    2.7657   -5.6671   -2.5806 N   0  0  0  0  0  0  0  0  0  0  0  0
    1.9730   -6.7648   -2.4586 C   0  0  0  0  0  0  0  0  0  0  0  0
    1.2248   -6.6199   -1.3187 C   0  0  0  0  0  0  0  0  0  0  0  0
    0.3608   -7.5859   -0.9858 N   0  0  0  0  0  0  0  0  0  0  0  0
    0.3508   -8.6683   -1.8342 C   0  0  0  0  0  0  0  0  0  0  0  0
    1.0307   -8.8696   -2.9212 N   0  0  0  0  0  0  0  0  0  0  0  0
    1.9091   -7.8926   -3.3352 C   0  0  0  0  0  0  0  0  0  0  0  0
    2.6021   -7.9731   -4.3538 O   0  0  0  0  0  0  0  0  0  0  0  0
  1  2  1  0
  3  4  1  0
  3 15  1  0
  3  2  1  6
  4  5  1  0
  5  6  1  0
  5 16  1  6
  6  7  1  1
  6 15  1  0
  7  8  1  0
  8  9  1  6
  8 14  1  0
  9 10  1  0
 10 11  1  0
 10 12  1  0
 10 13  2  0
 15 14  1  1
 16 17  2  0
 16 20  1  0
 17 18  1  0
 18 19  1  0
 19 20  2  0
 19 24  1  0
 20 21  1  0
 21 22  1  0
 22 23  2  0
 23 24  1  0
 24 25  2  0
M  END
>  <DRUGBANK_ID>  (1) 
DB04753

>  <COMMON_NAME>  (1) 
9-DEAZAINOSINE-2',3'-O-ETHYLIDENEPHOSPHONATE

$$$$
