
     RDKit          3D

  5  3  0  0  0  0  0  0  0  0999 V2000
    1.2540    0.7899    0.8818 Fe  0  0  0  0  0 15  0  0  0  0  0  0
    1.2554   -0.8017   -0.6297 O   0  0  0  0  0  0  0  0  0  0  0  0
    2.7266   -0.6410    0.8650 O   0  0  0  0  0  0  0  0  0  0  0  0
    2.3762   -0.4561   -0.3039 C   0  0  0  0  0  0  0  0  0  0  0  0
    2.7211    0.7062   -0.5374 O   0  0  0  0  0  0  0  0  0  0  0  0
  2  4  2  0
  3  4  1  0
  4  5  1  0
M  CHG  3   1   2   3  -1   5  -1
M  END
>  <DRUGBANK_ID>  (1) 
DB13698

>  <COMMON_NAME>  (1) 
Ferrous carbonate

>  <CAS_NUMBER>  (1) 
563-71-3

>  <UNII>  (1) 
MZ3Q72U52O

$$$$
