6BD
     RDKit          3D

 21 23  0  0  0  0  0  0  0  0999 V2000
   -1.8449   -7.2981    4.3435 C   0  0  0  0  0  0  0  0  0  0  0  0
   -2.1454   -5.9710    4.6161 C   0  0  0  0  0  0  0  0  0  0  0  0
   -2.8075   -5.6640    5.7974 C   0  0  0  0  0  0  0  0  0  0  0  0
   -3.1643   -6.6811    6.6874 C   0  0  0  0  0  0  0  0  0  0  0  0
   -2.8834   -8.0218    6.3968 C   0  0  0  0  0  0  0  0  0  0  0  0
   -2.2272   -8.3267    5.2126 C   0  0  0  0  0  0  0  0  0  0  0  0
   -1.7996   -9.5986    4.6773 C   0  0  0  0  0  0  0  0  0  0  0  0
   -2.0114  -10.8806    5.1701 C   0  0  0  0  0  0  0  0  0  0  0  0
   -1.4604  -11.9605    4.4782 C   0  0  0  0  0  0  0  0  0  0  0  0
   -0.6998  -11.7472    3.3147 C   0  0  0  0  0  0  0  0  0  0  0  0
   -0.5042  -10.4526    2.8017 C   0  0  0  0  0  0  0  0  0  0  0  0
   -1.0774   -9.3911    3.4845 C   0  0  0  0  0  0  0  0  0  0  0  0
   -1.1001   -7.9188    3.2038 C   0  0  0  0  0  0  0  0  0  0  0  0
   -0.5750   -7.3219    2.1702 N   0  0  0  0  0  0  0  0  0  0  0  0
   -0.8046   -5.9371    2.2716 O   0  0  0  0  0  0  0  0  0  0  0  0
   -0.2450   -5.1636    1.2212 C   0  0  0  0  0  0  0  0  0  0  0  0
    1.2714   -5.2467    1.2071 C   0  0  2  0  0  0  0  0  0  0  0  0
    1.9102   -4.6211    2.4446 C   0  0  0  0  0  0  0  0  0  0  0  0
    1.7960   -4.6643   -0.0807 C   0  0  0  0  0  0  0  0  0  0  0  0
    2.2501   -5.3548   -0.9870 O   0  0  0  0  0  0  0  0  0  0  0  0
    1.7078   -3.3229   -0.2023 O   0  0  0  0  0  0  0  0  0  0  0  0
  1  6  1  0
  2  1  2  0
  2  3  1  0
  3  4  2  0
  4  5  1  0
  6  5  2  0
  7  6  1  0
  7  8  2  0
  9  8  1  0
 10  9  2  0
 11 10  1  0
 11 12  2  0
 12  7  1  0
 13  1  1  0
 13 12  1  0
 14 13  2  3
 15 14  1  0
 16 15  1  0
 17 18  1  1
 17 19  1  0
 17 16  1  0
 19 21  1  0
 20 19  2  0
M  END
>  <DRUGBANK_ID>  (1) 
DB07201

>  <COMMON_NAME>  (1) 
(2S)-3-[(9H-fluoren-9-ylideneamino)oxy]-2-methylpropanoic acid

$$$$
