
     RDKit          3D

 35 38  0  0  0  0  0  0  0  0999 V2000
   -2.2291   -0.6778   -1.0527 Cl  0  0  0  0  0  0  0  0  0  0  0  0
    5.6471    3.7190   -0.2336 O   0  0  0  0  0  0  0  0  0  0  0  0
    4.5725   -1.3433   -0.0948 O   0  0  0  0  0  0  0  0  0  0  0  0
    2.6171    1.5508    0.6813 O   0  0  0  0  0  0  0  0  0  0  0  0
    4.4119    3.0911   -0.0532 N   0  0  0  0  0  0  0  0  0  0  0  0
    1.7894    0.7761    2.6014 N   0  0  0  0  0  0  0  0  0  0  0  0
    4.0275   -0.0103   -0.1885 C   0  0  0  0  0  0  0  0  0  0  0  0
    4.5836    2.3469    1.2946 C   0  0  0  0  0  0  0  0  0  0  0  0
    4.2002    2.2290   -1.3438 C   0  0  0  0  0  0  0  0  0  0  0  0
    4.8678    0.8423    1.0749 C   0  0  0  0  0  0  0  0  0  0  0  0
    4.6380    0.7609   -1.3494 C   0  0  0  0  0  0  0  0  0  0  0  0
    3.3455    4.2133    0.0079 C   0  0  0  0  0  0  0  0  0  0  0  0
    1.8006    3.9122    0.0470 C   0  0  0  0  0  0  0  0  0  0  0  0
    1.2135    3.1762    1.3973 C   0  0  0  0  0  0  0  0  0  0  0  0
    2.3849   -0.3133   -0.6238 C   0  0  0  0  0  0  0  0  0  0  0  0
    1.5401    4.1174    2.5463 C   0  0  0  0  0  0  0  0  0  0  0  0
   -0.2867    2.8980    1.2577 C   0  0  0  0  0  0  0  0  0  0  0  0
    1.8566    1.7715    1.6437 C   0  0  0  0  0  0  0  0  0  0  0  0
    1.4818    0.6783   -1.1364 C   0  0  0  0  0  0  0  0  0  0  0  0
    1.6984   -1.4972   -0.3212 C   0  0  0  0  0  0  0  0  0  0  0  0
   -0.7557    1.5770    1.4110 C   0  0  0  0  0  0  0  0  0  0  0  0
    1.7347    5.4909    2.4251 C   0  0  0  0  0  0  0  0  0  0  0  0
   -1.2474    3.8661    1.0575 C   0  0  0  0  0  0  0  0  0  0  0  0
    1.5825    3.6076    3.8286 C   0  0  0  0  0  0  0  0  0  0  0  0
    0.0873    0.6287   -1.2148 C   0  0  0  0  0  0  0  0  0  0  0  0
    0.2696   -1.5844   -0.4027 C   0  0  0  0  0  0  0  0  0  0  0  0
   -0.5235   -0.5453   -0.8921 C   0  0  0  0  0  0  0  0  0  0  0  0
    1.7893    6.2754    3.5638 C   0  0  0  0  0  0  0  0  0  0  0  0
   -2.0637    1.1885    1.4925 C   0  0  0  0  0  0  0  0  0  0  0  0
    1.3209    4.3646    4.9305 C   0  0  0  0  0  0  0  0  0  0  0  0
   -2.5951    3.4845    1.0851 C   0  0  0  0  0  0  0  0  0  0  0  0
    0.7962    0.7406    3.6375 C   0  0  0  0  0  0  0  0  0  0  0  0
    2.5884   -0.4705    2.6398 C   0  0  0  0  0  0  0  0  0  0  0  0
    1.5016    5.7178    4.8062 C   0  0  0  0  0  0  0  0  0  0  0  0
   -2.9951    2.1489    1.2390 C   0  0  0  0  0  0  0  0  0  0  0  0
  1 27  1  0
  2  5  1  0
  3  7  1  0
  4 18  2  0
  5  8  1  0
  5  9  1  0
  5 12  1  0
  6 18  1  0
  6 32  1  0
  6 33  1  0
  7 10  1  0
  7 11  1  0
  7 15  1  0
  8 10  1  0
  9 11  1  0
 12 13  1  0
 13 14  1  0
 14 16  1  0
 14 17  1  0
 14 18  1  0
 15 19  2  0
 15 20  1  0
 16 22  2  0
 16 24  1  0
 17 21  2  0
 17 23  1  0
 19 25  1  0
 20 26  2  0
 21 29  1  0
 22 28  1  0
 23 31  2  0
 24 30  2  0
 25 27  2  0
 26 27  1  0
 28 34  2  0
 29 35  2  0
 30 34  1  0
 31 35  1  0
M  CHG  2   2  -1   5   1
M  END
>  <DRUGBANK_ID>  (1) 
DB14661

>  <SECONDARY_ACCESSION_NUMBERS>  (1) 
DBSALT001714

>  <COMMON_NAME>  (1) 
Loperamide oxide

>  <CAS_NUMBER>  (1) 
106900-12-3

>  <UNII>  (1) 
NG66S4H2RL

>  <SYNONYMS>  (1) 
Loperamide oxide; Loperamide oxide anhydrous

$$$$
