MR2
     RDKit          3D

 31 35  0  0  0  0  0  0  0  0999 V2000
    2.1250    1.2182   -0.0026 C   0  0  0  0  0  0  0  0  0  0  0  0
    0.6490    1.2097    0.0048 C   0  0  0  0  0  0  0  0  0  0  0  0
    0.0022    2.4481   -0.0080 C   0  0  0  0  0  0  0  0  0  0  0  0
   -1.3777    2.4978   -0.0040 C   0  0  0  0  0  0  0  0  0  0  0  0
   -2.1141    1.3152    0.0049 C   0  0  0  0  0  0  0  0  0  0  0  0
   -1.5143    0.0303    0.0316 C   0  0  0  0  0  0  0  0  0  0  0  0
   -2.2016   -1.2323    0.0371 C   0  0  0  0  0  0  0  0  0  0  0  0
   -1.4933   -2.4429    0.0787 C   0  0  0  0  0  0  0  0  0  0  0  0
   -0.1153   -2.4276    0.1430 C   0  0  0  0  0  0  0  0  0  0  0  0
    0.5889   -1.2077    0.0962 C   0  0  0  0  0  0  0  0  0  0  0  0
   -0.0888    0.0130    0.0459 C   0  0  0  0  0  0  0  0  0  0  0  0
    2.1079   -1.2546   -0.0212 C   0  0  0  0  0  0  0  0  0  0  0  0
    2.5354   -1.8218   -1.3967 C   0  0  0  0  0  0  0  0  0  0  0  0
    3.8937   -2.0171   -1.7043 C   0  0  0  0  0  0  0  0  0  0  0  0
    4.2719   -2.6270   -2.9002 C   0  0  0  0  0  0  0  0  0  0  0  0
    3.3185   -2.8395   -3.8878 C   0  0  0  0  0  0  0  0  0  0  0  0
    1.9984   -2.4958   -3.6827 C   0  0  0  0  0  0  0  0  0  0  0  0
    1.5996   -2.0979   -2.4165 C   0  0  0  0  0  0  0  0  0  0  0  0
    2.6784   -1.9482    1.2319 C   0  0  0  0  0  0  0  0  0  0  0  0
    2.4070   -1.4029    2.5080 C   0  0  0  0  0  0  0  0  0  0  0  0
    2.9596   -1.9591    3.6596 C   0  0  0  0  0  0  0  0  0  0  0  0
    3.9180   -2.9526    3.5260 C   0  0  0  0  0  0  0  0  0  0  0  0
    4.2454   -3.4605    2.2798 C   0  0  0  0  0  0  0  0  0  0  0  0
    3.5123   -3.0697    1.1668 C   0  0  0  0  0  0  0  0  0  0  0  0
   -3.6769   -1.3589    0.0017 N   0  0  0  0  0  0  0  0  0  0  0  0
    2.7558    0.0419    0.0126 O   0  0  0  0  0  0  0  0  0  0  0  0
    2.7557    2.2795    0.0007 O   0  0  0  0  0  0  0  0  0  0  0  0
    3.6303   -3.4123   -5.0810 O   0  0  0  0  0  0  0  0  0  0  0  0
    4.5524   -3.4849    4.6060 O   0  0  0  0  0  0  0  0  0  0  0  0
   -4.1489   -2.5056   -0.0117 O   0  0  0  0  0  0  0  0  0  0  0  0
   -4.3769   -0.3423   -0.0066 O   0  0  0  0  0  0  0  0  0  0  0  0
  1  2  1  0
  1 26  1  0
  1 27  2  0
  2  3  1  0
  2 11  2  0
  3  4  2  0
  4  5  1  0
  5  6  2  0
  6  7  1  0
  6 11  1  0
  7  8  2  0
  7 25  1  0
  8  9  1  0
  9 10  2  0
 10 11  1  0
 10 12  1  0
 12 13  1  0
 12 19  1  0
 12 26  1  0
 13 14  2  0
 13 18  1  0
 14 15  1  0
 15 16  2  0
 16 17  1  0
 16 28  1  0
 17 18  2  0
 19 20  2  0
 19 24  1  0
 20 21  1  0
 21 22  2  0
 22 23  1  0
 22 29  1  0
 23 24  2  0
 25 30  1  0
 25 31  2  0
M  CHG  2  25   1  30  -1
M  END
>  <DRUGBANK_ID>  (1) 
DB08204

>  <COMMON_NAME>  (1) 
3-DIPHENOL-6-NITRO-3H-BENZO[DE]ISOCHROMEN-1-ONE

$$$$
