
     RDKit          3D

 24 25  0  0  0  0  0  0  0  0999 V2000
    1.0905   -0.0518    0.5945 C   0  0  0  0  0  0  0  0  0  0  0  0
    0.5353   -1.3992    0.6092 N   0  0  0  0  0  0  0  0  0  0  0  0
   -0.9319   -1.3040    0.5740 C   0  0  0  0  0  0  0  0  0  0  0  0
    1.0164   -2.1758   -0.5625 C   0  0  0  0  0  0  0  0  0  0  0  0
    0.5506   -1.7761   -1.9924 C   0  0  0  0  0  0  0  0  0  0  0  0
    1.0910   -0.5397   -2.4764 O   0  0  0  0  0  0  0  0  0  0  0  0
    0.3341    0.5794   -2.0234 N   0  0  0  0  0  0  0  0  0  0  0  0
    0.9822    1.7045   -2.1907 C   0  0  0  0  0  0  0  0  0  0  0  0
    0.6976    2.8865   -1.2740 C   0  0  0  0  0  0  0  0  0  0  0  0
    1.1277    4.1366   -1.4312 C   0  0  0  0  0  0  0  0  0  0  0  0
    0.8069    5.2835   -0.5542 C   0  0  0  0  0  0  0  0  0  0  0  0
    0.9039    5.2489    0.8443 C   0  0  0  0  0  0  0  0  0  0  0  0
    0.6021    6.3898    1.6085 C   0  0  0  0  0  0  0  0  0  0  0  0
    0.2143    7.5640    0.9701 C   0  0  0  0  0  0  0  0  0  0  0  0
    0.1260    7.6175   -0.4134 C   0  0  0  0  0  0  0  0  0  0  0  0
    0.4320    6.4847   -1.1709 C   0  0  0  0  0  0  0  0  0  0  0  0
   -0.0883    8.7005    1.6603 O   0  0  0  0  0  0  0  0  0  0  0  0
    1.9896    1.8370   -3.2571 C   0  0  0  0  0  0  0  0  0  0  0  0
    3.2437    2.4358   -3.1188 C   0  0  0  0  0  0  0  0  0  0  0  0
    4.1027    2.4430   -4.2199 C   0  0  0  0  0  0  0  0  0  0  0  0
    3.7325    1.8056   -5.4114 C   0  0  0  0  0  0  0  0  0  0  0  0
    2.4887    1.2006   -5.5325 C   0  0  0  0  0  0  0  0  0  0  0  0
    1.6120    1.2581   -4.4733 C   0  0  0  0  0  0  0  0  0  0  0  0
    0.3904    0.7298   -4.6476 F   0  0  0  0  0  0  0  0  0  0  0  0
  1  2  1  0
  2  3  1  0
  2  4  1  0
  4  5  1  0
  5  6  1  0
  6  7  1  0
  7  8  2  0
  8  9  1  0
  8 18  1  0
  9 10  2  0
 10 11  1  0
 11 12  2  0
 11 16  1  0
 12 13  1  0
 13 14  2  0
 14 15  1  0
 14 17  1  0
 15 16  2  0
 18 19  2  0
 18 23  1  0
 19 20  1  0
 20 21  2  0
 21 22  1  0
 22 23  2  0
 23 24  1  0
M  END
>  <DRUGBANK_ID>  (1) 
DB12177

>  <SECONDARY_ACCESSION_NUMBERS>  (1) 
DB06392

>  <COMMON_NAME>  (1) 
Eplivanserin

>  <CAS_NUMBER>  (1) 
130579-75-8

>  <UNII>  (1) 
3CO94WO6DJ

>  <SYNONYMS>  (1) 
Eplivanserin; Eplivanserine

$$$$
