
     RDKit          3D

 23 24  0  0  0  0  0  0  0  0999 V2000
   -5.3921   -2.4780   -4.5844 C   0  0  2  0  0  0  0  0  0  0  0  0
   -6.1527   -1.3172   -5.2763 C   0  0  0  0  0  0  0  0  0  0  0  0
   -5.2877   -3.5999   -5.5977 C   0  0  0  0  0  0  0  0  0  0  0  0
   -5.9190   -3.0557   -3.2667 C   0  0  0  0  0  0  0  0  0  0  0  0
   -7.2856   -1.6853   -5.9858 N   0  0  0  0  0  0  0  0  0  0  0  0
   -5.7442   -0.1609   -5.1788 O   0  0  0  0  0  0  0  0  0  0  0  0
   -4.4344   -4.7218   -5.0843 C   0  0  0  0  0  0  0  0  0  0  0  0
   -5.1249   -4.2213   -2.7293 C   0  0  0  0  0  0  0  0  0  0  0  0
   -8.4844   -0.9120   -6.4120 C   0  0  2  0  0  0  0  0  0  0  0  0
   -4.9674   -5.3159   -3.7694 C   0  0  2  0  0  0  0  0  0  0  0  0
   -9.5963   -0.7817   -5.2998 C   0  0  0  0  0  0  0  0  0  0  0  0
   -9.1097   -1.7951   -7.5269 C   0  0  0  0  0  0  0  0  0  0  0  0
   -4.0480   -6.4367   -3.2439 C   0  0  0  0  0  0  0  0  0  0  0  0
   -9.1333   -0.9052   -3.8654 C   0  0  0  0  0  0  0  0  0  0  0  0
   -9.3130   -1.2033   -8.7284 O   0  0  0  0  0  0  0  0  0  0  0  0
   -9.3669   -2.9683   -7.3583 O   0  0  0  0  0  0  0  0  0  0  0  0
   -2.5688   -6.0575   -3.3686 C   0  0  0  0  0  0  0  0  0  0  0  0
   -4.3585   -6.7910   -1.7844 C   0  0  0  0  0  0  0  0  0  0  0  0
   -9.7228   -1.7747   -2.9417 C   0  0  0  0  0  0  0  0  0  0  0  0
   -8.0113   -0.1887   -3.4691 C   0  0  0  0  0  0  0  0  0  0  0  0
   -9.0698   -2.0710   -1.7382 C   0  0  0  0  0  0  0  0  0  0  0  0
   -7.2973   -0.5652   -2.3400 C   0  0  0  0  0  0  0  0  0  0  0  0
   -7.8254   -1.5116   -1.4660 C   0  0  0  0  0  0  0  0  0  0  0  0
  1  2  1  6
  3  1  1  0
  4  1  1  0
  5  2  1  0
  6  2  2  0
  7  3  1  0
  8  4  1  0
  9 12  1  0
  9 11  1  1
  9  5  1  0
 10  7  1  0
 10  8  1  0
 10 13  1  1
 14 11  1  0
 15 12  1  0
 16 12  2  0
 17 13  1  0
 18 13  1  0
 19 14  2  0
 20 14  1  0
 21 19  1  0
 22 20  2  0
 23 21  2  0
 23 22  1  0
M  END
>  <DRUGBANK_ID>  (1) 
DB00731

>  <SECONDARY_ACCESSION_NUMBERS>  (1) 
APRD00593

>  <COMMON_NAME>  (1) 
Nateglinide

>  <CAS_NUMBER>  (1) 
105816-04-4

>  <UNII>  (1) 
41X3PWK4O2

>  <SYNONYMS>  (1) 
Nateglinida; NatÃ©glinide; Nateglinide; Nateglinidum

$$$$
