
     RDKit          3D

 24 25  0  0  0  0  0  0  0  0999 V2000
    1.2488    0.1195    0.2493 C   0  0  0  0  0  0  0  0  0  0  0  0
    1.4390    0.6571    1.7316 C   0  0  0  0  0  0  0  0  0  0  0  0
    2.6352   -0.0795   -0.4512 C   0  0  0  0  0  0  0  0  0  0  0  0
    2.4044    1.3672    2.0823 O   0  0  0  0  0  0  0  0  0  0  0  0
    0.5417    0.2247    2.6437 O   0  0  0  0  0  0  0  0  0  0  0  0
    0.2385   -2.8242    2.9607 N   0  0  0  0  0  0  0  0  0  0  0  0
    0.2822   -1.0471   -0.1546 C   0  0  0  0  0  0  0  0  0  0  0  0
    0.4268    1.2793   -0.3303 C   0  0  0  0  0  0  0  0  0  0  0  0
    3.1312   -1.2428    3.7383 O   0  0  0  0  0  0  0  0  0  0  0  0
    2.7374   -0.1333   -1.8459 C   0  0  0  0  0  0  0  0  0  0  0  0
    3.8602   -0.1582    0.2531 C   0  0  0  0  0  0  0  0  0  0  0  0
    1.6205   -2.9761    2.3622 C   0  0  0  0  0  0  0  0  0  0  0  0
   -0.6893   -3.7977    2.3572 C   0  0  0  0  0  0  0  0  0  0  0  0
    0.1187   -2.9820    4.4453 C   0  0  0  0  0  0  0  0  0  0  0  0
    1.0062    0.3770    4.0106 C   0  0  0  0  0  0  0  0  0  0  0  0
    2.7206   -1.9071    2.5393 C   0  0  0  0  0  0  0  0  0  0  0  0
    2.0359   -0.6938    4.4562 C   0  0  0  0  0  0  0  0  0  0  0  0
   -1.0198    0.9494    0.0619 C   0  0  0  0  0  0  0  0  0  0  0  0
   -1.1425   -0.5616    0.0207 C   0  0  0  0  0  0  0  0  0  0  0  0
   -0.1857   -5.2167    2.5662 C   0  0  0  0  0  0  0  0  0  0  0  0
    1.2173   -3.8598    5.0421 C   0  0  0  0  0  0  0  0  0  0  0  0
    3.9862   -0.1659   -2.4817 C   0  0  0  0  0  0  0  0  0  0  0  0
    5.1046   -0.1983   -0.3686 C   0  0  0  0  0  0  0  0  0  0  0  0
    5.1683   -0.1958   -1.7456 C   0  0  0  0  0  0  0  0  0  0  0  0
  2  1  1  0
  3  1  1  0
  4  2  2  0
  5  2  1  0
  6 12  1  0
  7  1  1  0
  8  1  1  0
  9 17  1  0
 10  3  2  0
 11  3  1  0
 12 16  1  0
 13  6  1  0
 14  6  1  0
 15  5  1  0
 16  9  1  0
 17 15  1  0
 18  8  1  0
 19  7  1  0
 19 18  1  0
 20 13  1  0
 21 14  1  0
 22 10  1  0
 22 24  2  0
 23 11  2  0
 24 23  1  0
M  END
>  <DRUGBANK_ID>  (1) 
DB11186

>  <COMMON_NAME>  (1) 
Pentoxyverine

>  <CAS_NUMBER>  (1) 
77-23-6

>  <UNII>  (1) 
32C726X12W

>  <SYNONYMS>  (1) 
Carbetapentane; Pentoxyverine

$$$$
