
     RDKit          3D

 29 32  0  0  1  0  0  0  0  0999 V2000
    0.0281    0.7193   -0.7511 C   0  0  2  0  0  0  0  0  0  0  0  0
   -0.6339   -0.5433   -0.4430 N   0  0  0  0  0  0  0  0  0  0  0  0
   -0.0176   -1.7374   -0.1670 C   0  0  0  0  0  0  0  0  0  0  0  0
    1.3227   -1.7666    0.0647 C   0  0  0  0  0  0  0  0  0  0  0  0
    2.2139   -0.5315   -0.0044 C   0  0  0  0  0  0  0  0  0  0  0  0
    1.3583    1.0171    0.4316 S   0  0  0  0  0  0  0  0  0  0  0  0
   -1.3504    1.3758   -0.4705 C   0  0  1  0  0  0  0  0  0  0  0  0
   -1.7323    0.0295    0.1341 C   0  0  0  0  0  0  0  0  0  0  0  0
   -1.4320    2.6608    0.2727 N   0  0  0  0  0  0  0  0  0  0  0  0
   -2.0383    3.8058   -0.2043 C   0  0  0  0  0  0  0  0  0  0  0  0
   -2.0938    4.8090    0.5092 O   0  0  0  0  0  0  0  0  0  0  0  0
   -2.6451   -0.3662    0.8082 O   0  0  0  0  0  0  0  0  0  0  0  0
   -2.6762    3.8008   -1.5897 C   0  0  0  0  0  0  0  0  0  0  0  0
    2.1035   -3.0117    0.4310 C   0  0  0  0  0  0  0  0  0  0  0  0
   -0.9245   -2.9606   -0.1397 C   0  0  0  0  0  0  0  0  0  0  0  0
   -2.1380   -2.9650   -0.2387 O   0  0  0  0  0  0  0  0  0  0  0  0
   -0.2669   -4.1305   -0.0694 O   0  0  0  0  0  0  0  0  0  0  0  0
   -1.7102    3.6115   -2.6497 N   0  0  0  0  0  0  0  0  0  0  0  0
    1.6696   -3.7973    2.0082 S   0  0  0  0  0  0  0  0  0  0  0  0
    1.6973   -2.6420    3.3127 C   0  0  0  0  0  0  0  0  0  0  0  0
    1.9266   -3.0834    4.5328 N   0  0  0  0  0  0  0  0  0  0  0  0
    1.9164   -2.0797    5.4827 N   0  0  0  0  0  0  0  0  0  0  0  0
    1.6449   -0.9065    4.9570 C   0  0  0  0  0  0  0  0  0  0  0  0
    1.3335   -0.9740    3.2782 S   0  0  0  0  0  0  0  0  0  0  0  0
    1.6002    0.3768    5.7069 C   0  0  0  0  0  0  0  0  0  0  0  0
   -0.9025    4.5222   -3.2475 C   0  0  0  0  0  0  0  0  0  0  0  0
   -0.0852    3.8855   -4.0570 N   0  0  0  0  0  0  0  0  0  0  0  0
   -0.4478    2.5655   -4.0025 N   0  0  0  0  0  0  0  0  0  0  0  0
   -1.4921    2.4044   -3.2080 N   0  0  0  0  0  0  0  0  0  0  0  0
  1  2  1  0
  1  6  1  1
  1  7  1  0
  2  3  1  0
  2  8  1  0
  3  4  2  0
  3 15  1  0
  4  5  1  0
  4 14  1  0
  5  6  1  0
  7  8  1  0
  7  9  1  1
  8 12  2  0
  9 10  1  0
 10 11  2  0
 10 13  1  0
 13 18  1  0
 14 19  1  0
 15 16  2  0
 15 17  1  0
 18 26  1  0
 18 29  1  0
 19 20  1  0
 20 21  2  0
 20 24  1  0
 21 22  1  0
 22 23  2  0
 23 24  1  0
 23 25  1  0
 26 27  2  0
 27 28  1  0
 28 29  2  0
M  END
>  <DRUGBANK_ID>  (1) 
DB01327

>  <COMMON_NAME>  (1) 
Cefazolin

>  <CAS_NUMBER>  (1) 
25953-19-9

>  <UNII>  (1) 
IHS69L0Y4T

>  <SYNONYMS>  (1) 
(6R,7R)-3-{[(5-methyl-1,3,4-thiadiazol-2-yl)sulfanyl]methyl}-8-oxo-7-[(1H-tetrazol-1-ylacetyl)amino]-5-thia-1-azabicyclo[4.2.0]oct-2-ene-2-carboxylic acid; Cefamezin; Cefazolin; Cefazolina; Cefazoline; Cefazolinum; Cephamezine; Cephazolidin; Cephazolin; Cephazoline; CEZ

$$$$
