
     RDKit          3D

 10  9  0  0  1  0  0  0  0  0999 V2000
    1.0274    0.1245    0.0513 C   0  0  0  0  0  0  0  0  0  0  0  0
    0.5551   -1.1745   -0.6333 C   0  0  0  0  0  0  0  0  0  0  0  0
    1.0404   -2.3797    0.1988 C   0  0  0  0  0  0  0  0  0  0  0  0
   -0.9962   -1.1984   -0.6270 C   0  0  0  0  0  0  0  0  0  0  0  0
   -1.5819   -0.1279   -1.3690 O   0  0  0  0  0  0  0  0  0  0  0  0
    1.0971   -1.2894   -2.0888 C   0  0  1  0  0  0  0  0  0  0  0  0
    0.5839   -0.2165   -2.9190 O   0  0  0  0  0  0  0  0  0  0  0  0
    2.6646   -1.3561   -2.1766 C   0  0  0  0  0  0  0  0  0  0  0  0
    3.1180   -2.4701   -2.5871 O   0  0  0  0  0  0  0  0  0  0  0  0
    3.3058   -0.3426   -1.7823 O   0  0  0  0  0  0  0  0  0  0  0  0
  1  2  1  0
  2  3  1  0
  2  4  1  0
  2  6  1  0
  4  5  1  0
  6  7  1  6
  6  8  1  0
  8  9  1  0
  8 10  2  0
M  CHG  1   9  -1
M  END
>  <DRUGBANK_ID>  (1) 
DB01930

>  <SECONDARY_ACCESSION_NUMBERS>  (1) 
EXPT02489

>  <COMMON_NAME>  (1) 
2,4-Dihydroxy-3,3-Dimethyl-Butyrate

>  <CAS_NUMBER>  (1) 
470-29-1

$$$$
