SNB
     RDKit          3D

 20 22  0  0  0  0  0  0  0  0999 V2000
    1.0181   -0.2838    0.0163 Cl  0  0  0  0  0  0  0  0  0  0  0  0
    2.7232    0.0236    0.0308 C   0  0  0  0  0  0  0  0  0  0  0  0
    3.3679    1.2672    0.0193 C   0  0  0  0  0  0  0  0  0  0  0  0
    2.8231    2.5247    0.0064 O   0  0  0  0  0  0  0  0  0  0  0  0
    1.4075    2.6285   -0.0042 C   0  0  0  0  0  0  0  0  0  0  0  0
    3.4768   -1.1478    0.0586 C   0  0  0  0  0  0  0  0  0  0  0  0
    4.8695   -1.1260    0.0442 C   0  0  0  0  0  0  0  0  0  0  0  0
    5.5328    0.0948    0.0335 C   0  0  0  0  0  0  0  0  0  0  0  0
    4.7780    1.2844    0.0261 C   0  0  0  0  0  0  0  0  0  0  0  0
    5.6529   -2.3808    0.0786 C   0  0  0  0  0  0  0  0  0  0  0  0
    6.9430   -2.4090    0.1087 N   0  0  0  0  0  0  0  0  0  0  0  0
    7.7522   -1.1991    0.0443 C   0  0  0  0  0  0  0  0  0  0  0  0
    7.0289    0.1468    0.0343 C   0  0  0  0  0  0  0  0  0  0  0  0
    4.9620   -3.7015    0.0650 C   0  0  0  0  0  0  0  0  0  0  0  0
    5.2272   -4.6268    1.0771 C   0  0  0  0  0  0  0  0  0  0  0  0
    4.7093   -5.9159    0.9665 C   0  0  0  0  0  0  0  0  0  0  0  0
    5.2225   -7.2452    2.2095 Br  0  0  0  0  0  0  0  0  0  0  0  0
    3.8431   -6.2510   -0.0762 C   0  0  0  0  0  0  0  0  0  0  0  0
    3.4981   -5.2922   -1.0272 C   0  0  0  0  0  0  0  0  0  0  0  0
    4.1100   -4.0407   -0.9964 C   0  0  0  0  0  0  0  0  0  0  0  0
  1  2  1  0
  2  3  2  0
  2  6  1  0
  3  4  1  0
  3  9  1  0
  4  5  1  0
  6  7  2  0
  7  8  1  0
  7 10  1  0
  8  9  2  0
  8 13  1  0
 10 11  2  0
 10 14  1  0
 11 12  1  0
 12 13  1  0
 14 15  2  0
 14 20  1  0
 15 16  1  0
 16 17  1  0
 16 18  2  0
 18 19  1  0
 19 20  2  0
M  END
>  <DRUGBANK_ID>  (1) 
DB08555

>  <COMMON_NAME>  (1) 
1-(3-bromophenyl)-7-chloro-6-methoxy-3,4-dihydroisoquinoline

$$$$
