
     RDKit          3D

 39 42  0  0  0  0  0  0  0  0999 V2000
    0.9763    0.0071   -0.1815 C   0  0  0  0  0  0  0  0  0  0  0  0
    0.2473   -1.2418    0.2058 C   0  0  0  0  0  0  0  0  0  0  0  0
   -0.8545   -1.1471    0.7511 O   0  0  0  0  0  0  0  0  0  0  0  0
    0.8121   -2.4699   -0.0737 N   0  0  0  0  0  0  0  0  0  0  0  0
    1.6889   -2.6395   -1.2230 C   0  0  0  0  0  0  0  0  0  0  0  0
    2.9600   -3.4346   -0.9281 C   0  0  0  0  0  0  0  0  0  0  0  0
    2.7599   -4.9273   -0.6248 C   0  0  0  0  0  0  0  0  0  0  0  0
    1.8926   -5.6306   -1.6475 C   0  0  0  0  0  0  0  0  0  0  0  0
    2.6246   -5.6668   -2.8893 N   0  0  0  0  0  0  0  0  0  0  0  0
    1.8042   -6.2578   -3.9266 C   0  0  0  0  0  0  0  0  0  0  0  0
    0.5544   -5.4208   -4.2923 C   0  0  0  0  0  0  0  0  0  0  0  0
    0.9060   -4.0400   -4.8366 C   0  0  0  0  0  0  0  0  0  0  0  0
    1.7591   -4.0334   -6.0156 N   0  0  0  0  0  0  0  0  0  0  0  0
    2.2264   -2.7819   -6.4181 C   0  0  0  0  0  0  0  0  0  0  0  0
    1.9223   -1.7233   -5.8720 O   0  0  0  0  0  0  0  0  0  0  0  0
    3.0874   -2.7693   -7.6125 C   0  0  0  0  0  0  0  0  0  0  0  0
    3.4600   -1.5803   -8.2262 C   0  0  0  0  0  0  0  0  0  0  0  0
    4.0421   -1.6388   -9.4918 C   0  0  0  0  0  0  0  0  0  0  0  0
    4.3226   -2.8719  -10.0896 C   0  0  0  0  0  0  0  0  0  0  0  0
    4.1299   -4.0497   -9.3839 C   0  0  0  0  0  0  0  0  0  0  0  0
    3.4544   -3.9852   -8.1779 C   0  0  0  0  0  0  0  0  0  0  0  0
    3.0105   -5.1663   -7.6254 N   0  0  0  0  0  0  0  0  0  0  0  0
    1.9907   -5.1921   -6.7417 C   0  0  0  0  0  0  0  0  0  0  0  0
    1.3780   -6.2555   -6.6728 O   0  0  0  0  0  0  0  0  0  0  0  0
    0.2037   -3.6479    0.5595 C   0  0  0  0  0  0  0  0  0  0  0  0
    0.8062   -3.8856    1.9518 C   0  0  0  0  0  0  0  0  0  0  0  0
    0.2538   -2.9114    2.9997 C   0  0  0  0  0  0  0  0  0  0  0  0
   -1.2046   -2.8719    3.0570 N   0  0  0  0  0  0  0  0  0  0  0  0
   -1.8833   -4.0831    3.0390 C   0  0  0  0  0  0  0  0  0  0  0  0
   -1.3590   -5.1939    3.0822 O   0  0  0  0  0  0  0  0  0  0  0  0
   -3.3326   -4.0341    2.8981 C   0  0  0  0  0  0  0  0  0  0  0  0
   -4.0547   -5.2248    2.8093 C   0  0  0  0  0  0  0  0  0  0  0  0
   -5.4112   -5.1721    2.5294 C   0  0  0  0  0  0  0  0  0  0  0  0
   -6.0392   -3.9325    2.3940 C   0  0  0  0  0  0  0  0  0  0  0  0
   -5.3303   -2.7455    2.6114 C   0  0  0  0  0  0  0  0  0  0  0  0
   -3.9564   -2.8009    2.8107 C   0  0  0  0  0  0  0  0  0  0  0  0
   -3.2003   -1.6400    2.9351 N   0  0  0  0  0  0  0  0  0  0  0  0
   -1.8419   -1.6339    3.1372 C   0  0  0  0  0  0  0  0  0  0  0  0
   -1.2772   -0.5678    3.3864 O   0  0  0  0  0  0  0  0  0  0  0  0
  1  2  1  0
  2  3  2  0
  2  4  1  0
  4  5  1  0
  4 25  1  0
  5  6  1  0
  6  7  1  0
  7  8  1  0
  8  9  1  0
  9 10  1  0
 10 11  1  0
 11 12  1  0
 12 13  1  0
 13 14  1  0
 13 23  1  0
 14 15  2  0
 14 16  1  0
 16 17  2  0
 16 21  1  0
 17 18  1  0
 18 19  2  0
 19 20  1  0
 20 21  2  0
 21 22  1  0
 22 23  1  0
 23 24  2  0
 25 26  1  0
 26 27  1  0
 27 28  1  0
 28 29  1  0
 28 38  1  0
 29 30  2  0
 29 31  1  0
 31 32  2  0
 31 36  1  0
 32 33  1  0
 33 34  2  0
 34 35  1  0
 35 36  2  0
 36 37  1  0
 37 38  1  0
 38 39  2  0
M  END
>  <DRUGBANK_ID>  (1) 
DB11670

>  <COMMON_NAME>  (1) 
SP-8203

>  <CAS_NUMBER>  (1) 
1176758-04-5

>  <UNII>  (1) 
UYE03B60KA

$$$$
