
     RDKit          3D

 14 12  0  0  0  0  0  0  0  0999 V2000
    0.6689    0.2934   -0.1437 C   0  0  0  0  0  0  0  0  0  0  0  0
    0.2371   -0.9840   -0.8681 C   0  0  0  0  0  0  0  0  0  0  0  0
   -0.2296   -1.8936   -0.0569 O   0  0  0  0  0  0  0  0  0  0  0  0
    1.2414   -1.5313   -1.4456 O   0  0  0  0  0  0  0  0  0  0  0  0
    0.3478    0.3930    1.3678 C   0  0  0  0  0  0  0  0  0  0  0  0
    0.9212    1.5871    2.0915 C   0  0  0  0  0  0  0  0  0  0  0  0
    0.5206    2.8636    1.3702 C   0  0  0  0  0  0  0  0  0  0  0  0
   -0.2129    3.6354    2.0320 O   0  0  0  0  0  0  0  0  0  0  0  0
    1.0877    2.9959    0.2495 O   0  0  0  0  0  0  0  0  0  0  0  0
   -1.1966    0.1937    1.5486 C   0  0  0  0  0  0  0  0  0  0  0  0
   -1.3593   -0.8406    2.2720 O   0  0  0  0  0  0  0  0  0  0  0  0
   -1.9527    0.8093    0.7513 O   0  0  0  0  0  0  0  0  0  0  0  0
    1.0215   -0.8014    2.0880 O   0  0  0  0  0  0  0  0  0  0  0  0
    1.2753   -2.1622    0.7878 Fe  0  0  0  0  0 15  0  0  0  0  0  0
  1  2  1  0
  1  5  1  0
  2  3  2  0
  2  4  1  0
  5  6  1  0
  5 10  1  0
  5 13  1  0
  6  7  1  0
  7  8  2  0
  7  9  1  0
 10 11  2  0
 10 12  1  0
M  CHG  4   4  -1   9  -1  12  -1  14   3
M  ISO  1  14  59
M  END
>  <DRUGBANK_ID>  (1) 
DB13582

>  <COMMON_NAME>  (1) 
Ferric (59Fe) citrate

>  <CAS_NUMBER>  (1) 
54063-42-2

>  <UNII>  (1) 
5171JCI1D5

>  <SYNONYMS>  (1) 
Ferric citrate fe-59

$$$$
