
     RDKit          3D

 26 27  0  0  0  0  0  0  0  0999 V2000
   -2.6318    3.2841   -0.6402 S   0  0  0  0  0  0  0  0  0  0  0  0
    1.5798    6.2029   -2.8999 S   0  0  0  0  0  0  0  0  0  0  0  0
   -3.4827    0.3271    2.5048 O   0  0  0  0  0  0  0  0  0  0  0  0
    0.1305    1.1995   -1.8982 O   0  0  0  0  0  0  0  0  0  0  0  0
   -2.2275    6.1795    4.0016 O   0  0  0  0  0  0  0  0  0  0  0  0
   -2.1037    7.6870    2.3887 O   0  0  0  0  0  0  0  0  0  0  0  0
    0.5878    2.9563    2.2352 O   0  0  0  0  0  0  0  0  0  0  0  0
   -0.8989    0.8772    0.0711 N   0  0  0  0  0  0  0  0  0  0  0  0
   -2.4531    4.0586    1.9543 N   0  0  0  0  0  0  0  0  0  0  0  0
    0.7560    3.6934    0.8721 N   0  0  0  0  0  0  0  0  0  0  0  0
    0.2134    4.0355   -2.9528 N   0  0  0  0  0  0  0  0  0  0  0  0
    0.0239    5.4731   -4.9027 N   0  0  0  0  0  0  0  0  0  0  0  0
   -2.0514    2.9445    1.0125 C   0  0  1  0  0  0  0  0  0  0  0  0
   -1.7597    1.3979    1.2182 C   0  0  1  0  0  0  0  0  0  0  0  0
   -1.7286    4.7827   -0.7947 C   0  0  0  0  0  0  0  0  0  0  0  0
   -1.8664    5.8166    0.2212 C   0  0  0  0  0  0  0  0  0  0  0  0
   -2.1919    5.3163    1.6169 C   0  0  0  0  0  0  0  0  0  0  0  0
   -3.1569    0.9106    1.4744 C   0  0  0  0  0  0  0  0  0  0  0  0
   -0.0219    1.6253   -0.7488 C   0  0  0  0  0  0  0  0  0  0  0  0
    0.6293    3.0610   -0.3588 C   0  0  0  0  0  0  0  0  0  0  0  0
   -2.1886    6.4801    2.7108 C   0  0  0  0  0  0  0  0  0  0  0  0
   -1.5134    7.0362   -0.2354 C   0  0  0  0  0  0  0  0  0  0  0  0
    0.9407    4.0068   -1.6766 C   0  0  0  0  0  0  0  0  0  0  0  0
    1.6284    5.1967   -1.5192 C   0  0  0  0  0  0  0  0  0  0  0  0
    0.4988    5.1148   -3.6821 C   0  0  0  0  0  0  0  0  0  0  0  0
   -0.3327    3.3347    3.3832 C   0  0  0  0  0  0  0  0  0  0  0  0
  1 13  1  0
  1 15  1  0
  2 24  1  0
  2 25  1  0
  3 18  2  0
  4 19  2  0
  5 21  1  0
  6 21  2  0
  7 10  1  0
  7 26  1  0
  8 19  1  0
 13  9  1  1
  9 17  2  0
 10 20  2  0
 11 23  1  0
 11 25  2  0
 12 25  1  0
 14 18  1  6
 14 13  1  0
 14  8  1  0
 15 16  1  0
 16 17  1  0
 16 22  2  0
 17 21  1  0
 19 20  1  0
 20 23  1  0
 23 24  2  0
M  END
>  <DRUGBANK_ID>  (1) 
DB08375

>  <SECONDARY_ACCESSION_NUMBERS>  (1) 
EXPT00885; DB04181

>  <COMMON_NAME>  (1) 
(2R)-2-[(1R)-1-[[(2Z)-2-(2-Amino-1,3-thiazol-4-yl)-2-methoxyiminoacetyl]amino]-2-oxoethyl]-5-methylidene-2H-1,3-thiazine-4-carboxylic acid

>  <SYNONYMS>  (1) 
Pcnotaxime group

$$$$
