
     RDKit          3D

 16 18  0  0  0  0  0  0  0  0999 V2000
   -3.3753    0.6486    0.0212 C   0  0  0  0  0  0  0  0  0  0  0  0
   -1.8889    0.4777    0.0160 C   0  0  0  0  0  0  0  0  0  0  0  0
   -0.8802    1.4328    0.0277 C   0  0  0  0  0  0  0  0  0  0  0  0
    0.4264    0.8090   -0.0923 C   0  0  0  0  0  0  0  0  0  0  0  0
    1.7121    1.3854   -0.2435 C   0  0  0  0  0  0  0  0  0  0  0  0
    2.8709    0.6264   -0.1059 C   0  0  0  0  0  0  0  0  0  0  0  0
    2.7754   -0.7465    0.0302 C   0  0  0  0  0  0  0  0  0  0  0  0
    1.5255   -1.3728    0.0334 C   0  0  0  0  0  0  0  0  0  0  0  0
    0.3592   -0.5810   -0.0067 C   0  0  0  0  0  0  0  0  0  0  0  0
   -1.2683   -1.1177    0.0074 S   0  0  0  0  0  0  0  0  0  0  0  0
   -1.0816    2.9303    0.1281 C   0  0  0  0  0  0  0  0  0  0  0  0
   -0.5388    3.5194    1.4263 C   0  0  0  0  0  0  0  0  0  0  0  0
   -1.3458    3.9552    2.3651 N   0  0  0  0  0  0  0  0  0  0  0  0
   -0.4149    4.4474    3.4346 C   0  0  0  0  0  0  0  0  0  0  0  0
    0.9279    3.7851    3.1490 C   0  0  0  0  0  0  0  0  0  0  0  0
    0.8014    3.6470    1.7257 N   0  0  0  0  0  0  0  0  0  0  0  0
  1  2  1  0
  2  3  2  0
  2 10  1  0
  3  4  1  0
  3 11  1  0
  4  5  2  0
  4  9  1  0
  5  6  1  0
  6  7  2  0
  7  8  1  0
  8  9  2  0
  9 10  1  0
 11 12  1  0
 12 13  2  0
 12 16  1  0
 13 14  1  0
 14 15  1  0
 15 16  1  0
M  END
>  <DRUGBANK_ID>  (1) 
DB13614

>  <COMMON_NAME>  (1) 
Metizoline

>  <CAS_NUMBER>  (1) 
17692-22-7

>  <UNII>  (1) 
Z27L8N105U

>  <SYNONYMS>  (1) 
Metizoline

$$$$
