
     RDKit          3D

 42 43  0  0  1  0  0  0  0  0999 V2000
   -3.4290   -0.8307    2.0731 C   0  0  0  0  0  0  0  0  0  0  0  0
   -5.5770   -1.6360    3.6880 C   0  0  1  0  0  0  0  0  0  0  0  0
   -8.3954   -2.2045    5.2643 C   0  0  0  0  0  0  0  0  0  0  0  0
  -10.8661   -2.7911    6.5778 C   0  0  0  0  0  0  0  0  0  0  0  0
  -13.2594   -3.4809    7.2566 C   0  0  0  0  0  0  0  0  0  0  0  0
  -14.2589   -4.7028    6.8685 C   0  0  0  0  0  0  0  0  0  0  0  0
  -12.9666   -4.7819    7.0399 C   0  0  0  0  0  0  0  0  0  0  0  0
  -12.2250   -4.7054    8.2901 C   0  0  0  0  0  0  0  0  0  0  0  0
  -12.2221   -3.4375    8.3854 C   0  0  0  0  0  0  0  0  0  0  0  0
  -12.5032   -3.7847   10.4298 O   0  0  0  0  0  0  0  0  0  0  0  0
  -10.8998   -4.5561    8.4967 N   0  0  0  0  0  0  0  0  0  0  0  0
   -9.9281   -4.1615    7.5181 C   0  0  0  0  0  0  0  0  0  0  0  0
  -10.1373   -4.1010    6.1636 O   0  0  0  0  0  0  0  0  0  0  0  0
   -8.5310   -4.0667    7.8064 C   0  0  0  0  0  0  0  0  0  0  0  0
   -7.5973   -3.3294    6.9729 C   0  0  0  0  0  0  0  0  0  0  0  0
   -6.1743   -3.6188    7.1175 C   0  0  0  0  0  0  0  0  0  0  0  0
   -5.2454   -3.2230    6.2451 C   0  0  0  0  0  0  0  0  0  0  0  0
   -3.7725   -3.4036    6.4230 C   0  0  1  0  0  0  0  0  0  0  0  0
   -3.1712   -4.2579    5.3230 C   0  0  2  0  0  0  0  0  0  0  0  0
   -3.5517   -3.7664    4.0272 C   0  0  0  0  0  0  0  0  0  0  0  0
   -2.7064   -3.5576    3.1503 C   0  0  0  0  0  0  0  0  0  0  0  0
   -2.8386   -3.0581    1.7271 C   0  0  1  0  0  0  0  0  0  0  0  0
   -1.9822   -1.1535    2.4425 C   0  0  2  0  0  0  0  0  0  0  0  0
   -0.6706   -1.2745    2.3909 C   0  0  2  0  0  0  0  0  0  0  0  0
   -2.9950   -1.7429    2.7672 C   0  0  0  0  0  0  0  0  0  0  0  0
   -0.0929   -1.7745    3.4763 O   0  0  0  0  0  0  0  0  0  0  0  0
   -0.3553   -3.0624    3.3510 C   0  0  0  0  0  0  0  0  0  0  0  0
   -2.4399   -0.0354    3.2611 O   0  0  0  0  0  0  0  0  0  0  0  0
   -1.9759   -3.3643    0.6724 C   0  0  0  0  0  0  0  0  0  0  0  0
   -4.7393   -3.5969    3.4436 C   0  0  0  0  0  0  0  0  0  0  0  0
   -3.7425   -5.5668    5.2796 O   0  0  0  0  0  0  0  0  0  0  0  0
   -5.1207   -5.7058    5.0656 C   0  0  0  0  0  0  0  0  0  0  0  0
   -5.9240   -4.8159    4.9382 O   0  0  0  0  0  0  0  0  0  0  0  0
   -5.6978   -6.9829    5.0314 N   0  0  0  0  0  0  0  0  0  0  0  0
   -3.1724   -2.1179    6.4704 O   0  0  0  0  0  0  0  0  0  0  0  0
   -2.8564   -1.6352    5.2362 C   0  0  0  0  0  0  0  0  0  0  0  0
   -8.0210   -4.7663    9.0266 C   0  0  0  0  0  0  0  0  0  0  0  0
  -14.7340   -4.9873    5.6380 O   0  0  0  0  0  0  0  0  0  0  0  0
  -15.5247   -4.1177    7.7073 N   0  0  0  0  0  0  0  0  0  0  0  0
  -17.2029   -4.6755    6.6129 C   0  0  0  0  0  0  0  0  0  0  0  0
  -18.0875   -5.9211    6.6712 C   0  0  0  0  0  0  0  0  0  0  0  0
  -19.3997   -5.8500    6.3682 C   0  0  0  0  0  0  0  0  0  0  0  0
  2  1  1  6
  2  3  1  0
  2 25  1  0
  3  4  1  0
  4  5  2  0
  4  9  1  0
  5  6  1  0
  5 39  1  0
  6  7  2  0
  6 38  1  0
  7  8  1  0
  8  9  2  0
  8 11  1  0
  9 10  1  0
 11 12  1  0
 12 13  2  0
 12 14  1  0
 14 15  2  0
 14 37  1  0
 15 16  1  0
 16 17  2  0
 17 18  1  0
 18 19  1  0
 18 35  1  6
 19 20  1  0
 19 31  1  1
 20 21  2  0
 20 30  1  0
 21 22  1  0
 22 23  1  0
 22 29  1  6
 23 24  1  0
 23 28  1  1
 24 25  1  0
 24 26  1  1
 26 27  1  0
 31 32  1  0
 32 33  2  0
 32 34  1  0
 35 36  1  0
 39 40  1  0
 40 41  1  0
 41 42  2  0
M  END
>  <DRUGBANK_ID>  (1) 
DB05626

>  <COMMON_NAME>  (1) 
Retaspimycin

>  <CAS_NUMBER>  (1) 
857402-23-4

>  <UNII>  (1) 
BZF2ZM0I5Z

>  <SYNONYMS>  (1) 
Retaspimycin

$$$$
