MO9
     RDKit          3D

 31 32  0  0  0  0  0  0  0  0999 V2000
    1.4503   -0.2455    0.0149 C   0  0  0  0  0  0  0  0  0  0  0  0
    0.5343   -1.2899   -0.1028 C   0  0  0  0  0  0  0  0  0  0  0  0
   -0.8540   -0.9677   -0.1788 C   0  0  0  0  0  0  0  0  0  0  0  0
   -1.3445    0.3209   -0.0576 C   0  0  0  0  0  0  0  0  0  0  0  0
   -0.4362    1.3501    0.0373 C   0  0  0  0  0  0  0  0  0  0  0  0
    0.9388    1.0689    0.0156 C   0  0  0  0  0  0  0  0  0  0  0  0
    0.9022   -2.7363   -0.1625 C   0  0  0  0  0  0  0  0  0  0  0  0
   -1.1847   -3.6654    1.0865 C   0  0  0  0  0  0  0  0  0  0  0  0
   -1.8671   -4.4160    0.0003 C   0  0  1  0  0  0  0  0  0  0  0  0
   -1.3207   -5.8387   -0.2328 C   0  0  0  0  0  0  0  0  0  0  0  0
    0.5035   -3.5040    1.3494 S   0  0  0  0  0  0  0  0  0  0  0  0
   -3.2721   -4.3387    0.3608 O   0  0  0  0  0  0  0  0  0  0  0  0
    1.1300   -4.8226    1.3849 O   0  0  0  0  0  0  0  0  0  0  0  0
    0.6455   -2.6441    2.4995 O   0  0  0  0  0  0  0  0  0  0  0  0
   -2.1893   -6.8895   -0.0924 N   0  0  0  0  0  0  0  0  0  0  0  0
   -0.1425   -6.0207   -0.5269 O   0  0  0  0  0  0  0  0  0  0  0  0
   -1.6907   -8.2528   -0.0374 C   0  0  0  0  0  0  0  0  0  0  0  0
   -2.1796   -9.0292    1.1745 C   0  0  0  0  0  0  0  0  0  0  0  0
   -3.9234   -4.9722    1.3958 C   0  0  0  0  0  0  0  0  0  0  0  0
   -3.2497   -5.4959    2.5016 N   0  0  0  0  0  0  0  0  0  0  0  0
   -5.1196   -5.2179    1.2012 O   0  0  0  0  0  0  0  0  0  0  0  0
   -2.1976   -4.9649    3.4285 C   0  0  0  0  0  0  0  0  0  0  0  0
   -0.9082   -5.8500    3.3287 C   0  0  0  0  0  0  0  0  0  0  0  0
   -1.2815   -7.0024    4.0682 O   0  0  0  0  0  0  0  0  0  0  0  0
   -2.4013   -7.5463    3.3897 C   0  0  0  0  0  0  0  0  0  0  0  0
   -3.6825   -6.7755    3.0343 C   0  0  0  0  0  0  0  0  0  0  0  0
    2.8152   -0.2881    0.1166 O   0  0  0  0  0  0  0  0  0  0  0  0
    3.5423   -1.5008    0.2557 C   0  0  0  0  0  0  0  0  0  0  0  0
    3.0513   -2.2259    1.2869 F   0  0  0  0  0  0  0  0  0  0  0  0
    3.4473   -2.2072   -0.9003 F   0  0  0  0  0  0  0  0  0  0  0  0
   -2.5853   -9.6733    2.1798 N   0  0  0  0  0  0  0  0  0  0  0  0
  1  2  2  0
  1  6  1  0
  1 27  1  0
  2  3  1  0
  2  7  1  0
  3  4  2  0
  4  5  1  0
  5  6  2  0
  7 11  1  0
  9  8  1  1
  8 11  1  0
  9 10  1  0
  9 12  1  0
 10 15  1  0
 10 16  2  0
 11 13  2  0
 11 14  2  0
 12 19  1  0
 15 17  1  0
 17 18  1  0
 18 31  3  0
 19 20  1  0
 19 21  2  0
 20 22  1  0
 20 26  1  0
 22 23  1  0
 23 24  1  0
 24 25  1  0
 25 26  1  0
 27 28  1  0
 28 29  1  0
 28 30  1  0
M  END
>  <DRUGBANK_ID>  (1) 
DB08195

>  <COMMON_NAME>  (1) 
(1R)-2-[(CYANOMETHYL)AMINO]-1-({[2-(DIFLUOROMETHOXY)BENZYL]SULFONYL}METHYL)-2-OXOETHYL MORPHOLINE-4-CARBOXYLATE

$$$$
