
     RDKit          3D

 32 35  0  0  0  0  0  0  0  0999 V2000
    2.3291    0.0433    0.0846 N   0  0  0  0  0  0  0  0  0  0  0  0
    0.9497    0.0759    0.0383 C   0  0  0  0  0  0  0  0  0  0  0  0
    0.3717   -1.1339   -0.0003 N   0  0  0  0  0  0  0  0  0  0  0  0
   -0.9621   -1.1504    0.0054 C   0  0  0  0  0  0  0  0  0  0  0  0
   -1.7592   -0.0837   -0.0108 N   0  0  0  0  0  0  0  0  0  0  0  0
   -1.1680    1.1213    0.0208 C   0  0  0  0  0  0  0  0  0  0  0  0
   -1.9913    2.2384    0.0612 N   0  0  0  0  0  0  0  0  0  0  0  0
   -3.4160    2.0962   -0.1280 C   0  0  0  0  0  0  0  0  0  0  0  0
   -4.1170    2.8233    1.0325 C   0  0  0  0  0  0  0  0  0  0  0  0
   -5.6263    2.5131    1.0230 C   0  0  0  0  0  0  0  0  0  0  0  0
   -6.3481    3.1889   -0.1532 C   0  0  0  0  0  0  0  0  0  0  0  0
   -6.0329    4.6234   -0.1919 N   0  0  0  0  0  0  0  0  0  0  0  0
   -4.6089    4.8657   -0.2992 C   0  0  0  0  0  0  0  0  0  0  0  0
   -3.9039    4.3402    0.9408 C   0  0  0  0  0  0  0  0  0  0  0  0
   -7.0540    5.5492   -0.0658 C   0  0  0  0  0  0  0  0  0  0  0  0
   -8.2293    5.2053    0.0208 O   0  0  0  0  0  0  0  0  0  0  0  0
   -6.8034    7.0350   -0.0443 C   0  0  0  0  0  0  0  0  0  0  0  0
   -5.7121    7.8089   -0.0535 C   0  0  0  0  0  0  0  0  0  0  0  0
    0.2217    1.2666    0.1082 C   0  0  0  0  0  0  0  0  0  0  0  0
    0.8529    2.5969    0.1916 C   0  0  0  0  0  0  0  0  0  0  0  0
    1.7141    3.0288   -0.8212 C   0  0  0  0  0  0  0  0  0  0  0  0
    2.2838    4.2963   -0.7794 C   0  0  0  0  0  0  0  0  0  0  0  0
    1.9586    5.1947    0.2386 C   0  0  0  0  0  0  0  0  0  0  0  0
    2.5215    6.4467    0.3895 O   0  0  0  0  0  0  0  0  0  0  0  0
    3.4133    6.8874   -0.5627 C   0  0  0  0  0  0  0  0  0  0  0  0
    3.0192    7.0655   -1.8918 C   0  0  0  0  0  0  0  0  0  0  0  0
    3.9386    7.5072   -2.8401 C   0  0  0  0  0  0  0  0  0  0  0  0
    5.2289    7.8552   -2.4452 C   0  0  0  0  0  0  0  0  0  0  0  0
    5.6030    7.7471   -1.1043 C   0  0  0  0  0  0  0  0  0  0  0  0
    4.7078    7.2259   -0.1657 C   0  0  0  0  0  0  0  0  0  0  0  0
    1.0482    4.8034    1.2224 C   0  0  0  0  0  0  0  0  0  0  0  0
    0.5503    3.4954    1.2322 C   0  0  0  0  0  0  0  0  0  0  0  0
  1  2  1  0
  2  3  2  0
  2 19  1  0
  3  4  1  0
  4  5  2  0
  5  6  1  0
  6  7  1  0
  6 19  2  0
  7  8  1  0
  8  9  1  0
  9 10  1  0
  9 14  1  0
 10 11  1  0
 11 12  1  0
 12 13  1  0
 12 15  1  0
 13 14  1  0
 15 16  2  0
 15 17  1  0
 17 18  2  0
 19 20  1  0
 20 21  2  0
 20 32  1  0
 21 22  1  0
 22 23  2  0
 23 24  1  0
 23 31  1  0
 24 25  1  0
 25 26  2  0
 25 30  1  0
 26 27  1  0
 27 28  2  0
 28 29  1  0
 29 30  2  0
 31 32  2  0
M  END
>  <DRUGBANK_ID>  (1) 
DB15170

>  <COMMON_NAME>  (1) 
Evobrutinib

>  <CAS_NUMBER>  (1) 
1415823-73-2

>  <UNII>  (1) 
ZA45457L1K

>  <SYNONYMS>  (1) 
Evobrutinib

$$$$
