DF2
     RDKit          3D

 27 30  0  0  0  0  0  0  0  0999 V2000
   -2.4759    9.5224   -3.1343 C   0  0  0  0  0  0  0  0  0  0  0  0
   -3.7784    5.4603   -4.3629 C   0  0  0  0  0  0  0  0  0  0  0  0
   -4.3632    4.3228   -5.0590 C   0  0  0  0  0  0  0  0  0  0  0  0
   -4.0523    4.0784   -6.3963 C   0  0  0  0  0  0  0  0  0  0  0  0
   -4.4029    2.8584   -6.9727 C   0  0  0  0  0  0  0  0  0  0  0  0
   -5.0326    1.8740   -6.2070 C   0  0  0  0  0  0  0  0  0  0  0  0
   -5.3281    2.1079   -4.8678 C   0  0  0  0  0  0  0  0  0  0  0  0
   -5.0328    3.3444   -4.3080 C   0  0  0  0  0  0  0  0  0  0  0  0
   -2.8727    3.6944   -1.4930 C   0  0  0  0  0  0  0  0  0  0  0  0
   -2.2051    2.6350   -0.8762 C   0  0  0  0  0  0  0  0  0  0  0  0
   -1.2032    1.9403   -1.5634 C   0  0  0  0  0  0  0  0  0  0  0  0
   -0.9013    2.2706   -2.8813 C   0  0  0  0  0  0  0  0  0  0  0  0
   -3.2583    8.9264   -4.0384 N   0  0  0  0  0  0  0  0  0  0  0  0
    0.4378    3.9024    0.5225 C   0  0  0  0  0  0  0  0  0  0  0  0
   -3.2518    7.5920   -3.8933 C   0  0  0  0  0  0  0  0  0  0  0  0
   -2.5437    6.8283   -2.9674 C   0  0  0  0  0  0  0  0  0  0  0  0
   -0.0663    4.4159    1.7506 O   0  0  0  0  0  0  0  0  0  0  0  0
   -0.8190    7.1482   -1.0756 N   0  0  0  0  0  0  0  0  0  0  0  0
   -1.7192    7.5842   -2.0585 C   0  0  0  0  0  0  0  0  0  0  0  0
   -1.7501    8.9423   -2.1644 N   0  0  0  0  0  0  0  0  0  0  0  0
   -3.9777    6.7698   -4.7164 N   0  0  0  0  0  0  0  0  0  0  0  0
   -1.5551    3.3406   -3.4962 C   0  0  0  0  0  0  0  0  0  0  0  0
   -2.8957    5.4381   -3.2943 C   0  0  0  0  0  0  0  0  0  0  0  0
   -2.4713    4.1209   -2.7733 C   0  0  0  0  0  0  0  0  0  0  0  0
    0.3387    4.9277   -0.6212 C   0  0  1  0  0  0  0  0  0  0  0  0
   -0.9270    5.8056   -0.5644 C   0  0  0  0  0  0  0  0  0  0  0  0
    1.5329    5.7096   -0.5924 O   0  0  0  0  0  0  0  0  0  0  0  0
  1 13  2  0
  1 20  1  0
  2  3  1  0
  2 21  1  0
  2 23  2  0
  3  4  2  0
  3  8  1  0
  4  5  1  0
  5  6  2  0
  6  7  1  0
  7  8  2  0
  9 10  2  0
  9 24  1  0
 10 11  1  0
 11 12  2  0
 12 22  1  0
 13 15  1  0
 14 17  1  0
 15 16  2  0
 15 21  1  0
 16 19  1  0
 16 23  1  0
 18 19  1  0
 18 26  1  0
 19 20  2  0
 22 24  2  0
 23 24  1  0
 25 27  1  1
 25 26  1  0
 25 14  1  0
M  END
>  <DRUGBANK_ID>  (1) 
DB07648

>  <COMMON_NAME>  (1) 
(2R)-3-{[(4Z)-5,6-DIPHENYL-6,7-DIHYDRO-4H-PYRROLO[2,3-D]PYRIMIDIN-4-YLIDENE]AMINO}PROPANE-1,2-DIOL

$$$$
