
     RDKit          3D

  9  9  0  0  0  0  0  0  0  0999 V2000
    0.9900   -0.0903    0.0813 C   0  0  0  0  0  0  0  0  0  0  0  0
    0.5287    1.0882   -0.6612 N   0  0  0  0  0  0  0  0  0  0  0  0
   -0.5653    1.0732   -1.4101 C   0  0  0  0  0  0  0  0  0  0  0  0
   -1.3721    0.0435   -1.5851 N   0  0  0  0  0  0  0  0  0  0  0  0
   -0.9927    2.3510   -2.0364 C   0  0  0  0  0  0  0  0  0  0  0  0
   -0.3648    3.4786   -1.7001 C   0  0  0  0  0  0  0  0  0  0  0  0
    0.7802    3.4095   -0.9658 N   0  0  0  0  0  0  0  0  0  0  0  0
    1.3367    2.2628   -0.4939 C   0  0  0  0  0  0  0  0  0  0  0  0
    2.4220    2.1917    0.0636 O   0  0  0  0  0  0  0  0  0  0  0  0
  1  2  1  0
  2  3  2  0
  2  8  1  0
  3  4  1  0
  3  5  1  0
  5  6  2  0
  6  7  1  0
  7  8  1  0
  8  9  2  0
M  CHG  1   2   1
M  END
>  <DRUGBANK_ID>  (1) 
DB04103

>  <SECONDARY_ACCESSION_NUMBERS>  (1) 
EXPT00178

>  <COMMON_NAME>  (1) 
3-Methylcytosine

$$$$
