
     RDKit          3D

 31 34  0  0  1  0  0  0  0  0999 V2000
    1.0212   -0.0154    0.0059 C   0  0  0  0  0  0  0  0  0  0  0  0
    0.4850    1.2117   -0.6723 C   0  0  0  0  0  0  0  0  0  0  0  0
   -0.1540    1.1820   -1.7162 O   0  0  0  0  0  0  0  0  0  0  0  0
    0.7996    2.3454    0.0084 O   0  0  0  0  0  0  0  0  0  0  0  0
    0.3542    3.5878   -0.5760 C   0  0  1  0  0  0  0  0  0  0  0  0
   -1.1688    3.7424   -0.4664 C   0  0  0  0  0  0  0  0  0  0  0  0
   -1.6862    5.1323   -0.8969 C   0  0  2  0  0  0  0  0  0  0  0  0
   -1.0022    6.2839   -0.0645 C   0  0  2  0  0  0  0  0  0  0  0  0
   -1.4497    7.6656   -0.6245 C   0  0  0  0  0  0  0  0  0  0  0  0
   -0.6367    8.8449   -0.1014 C   0  0  0  0  0  0  0  0  0  0  0  0
    0.8393    8.6584   -0.4434 C   0  0  1  0  0  0  0  0  0  0  0  0
    1.6706    9.8835   -0.1273 C   0  0  0  0  0  0  0  0  0  0  0  0
    1.1781   10.9738    0.1361 O   0  0  0  0  0  0  0  0  0  0  0  0
    3.0060    9.7383   -0.2788 O   0  0  0  0  0  0  0  0  0  0  0  0
    3.6954    8.4707   -0.1746 C   0  0  1  0  0  0  0  0  0  0  0  0
    2.8113    7.2428   -0.4074 C   0  0  0  0  0  0  0  0  0  0  0  0
    1.4125    7.3776    0.2007 C   0  0  2  0  0  0  0  0  0  0  0  0
    0.5439    6.1572   -0.2811 C   0  0  1  0  0  0  0  0  0  0  0  0
    1.0217    4.7612    0.1570 C   0  0  0  0  0  0  0  0  0  0  0  0
    1.9082    4.5992    0.9927 O   0  0  0  0  0  0  0  0  0  0  0  0
    1.5504    7.5269    1.7311 C   0  0  0  0  0  0  0  0  0  0  0  0
    4.8743    8.4665   -1.0993 C   0  0  0  0  0  0  0  0  0  0  0  0
    5.9629    9.3825   -1.1041 C   0  0  0  0  0  0  0  0  0  0  0  0
    6.7857    9.0023   -2.1372 C   0  0  0  0  0  0  0  0  0  0  0  0
    6.2894    7.9098   -2.7664 O   0  0  0  0  0  0  0  0  0  0  0  0
    5.1398    7.5876   -2.1333 C   0  0  0  0  0  0  0  0  0  0  0  0
   -1.3803    6.1355    1.4307 C   0  0  0  0  0  0  0  0  0  0  0  0
   -3.2254    5.1139   -0.9131 C   0  0  0  0  0  0  0  0  0  0  0  0
   -3.8843    4.3408   -1.6009 O   0  0  0  0  0  0  0  0  0  0  0  0
   -3.7614    6.0332   -0.0834 O   0  0  0  0  0  0  0  0  0  0  0  0
   -5.1792    6.0869    0.0496 C   0  0  0  0  0  0  0  0  0  0  0  0
  1  2  1  0
  2  3  2  0
  2  4  1  0
  5  4  1  1
  5  6  1  0
  5 19  1  0
  6  7  1  0
  7  8  1  0
  7 28  1  1
  8  9  1  0
  8 18  1  0
  8 27  1  1
  9 10  1  0
 11 10  1  1
 11 12  1  0
 11 17  1  0
 12 13  2  0
 12 14  1  0
 14 15  1  0
 15 16  1  0
 15 22  1  6
 16 17  1  0
 17 18  1  0
 17 21  1  1
 18 19  1  1
 19 20  2  0
 22 23  1  0
 22 26  2  0
 23 24  2  0
 24 25  1  0
 25 26  1  0
 28 29  2  0
 28 30  1  0
 30 31  1  0
M  END
>  <DRUGBANK_ID>  (1) 
DB12327

>  <COMMON_NAME>  (1) 
Salvinorin A

>  <CAS_NUMBER>  (1) 
83729-01-5

>  <UNII>  (1) 
T56W91NG6J

$$$$
