
     RDKit          3D

 28 29  0  0  1  0  0  0  0  0999 V2000
    1.4190    0.1699    0.0247 C   0  0  0  0  0  0  0  0  0  0  0  0
    0.9212   -1.1852    0.4699 C   0  0  0  0  0  0  0  0  0  0  0  0
    1.0754   -1.4919    1.9607 C   0  0  0  0  0  0  0  0  0  0  0  0
    0.4305   -0.4514    2.9060 C   0  0  0  0  0  0  0  0  0  0  0  0
   -1.0057   -0.3817    3.1311 O   0  0  0  0  0  0  0  0  0  0  0  0
   -1.9165   -0.4366    2.1213 C   0  0  0  0  0  0  0  0  0  0  0  0
   -2.0141   -1.5345    1.3256 C   0  0  0  0  0  0  0  0  0  0  0  0
   -2.6789   -1.3583    0.1089 C   0  0  0  0  0  0  0  0  0  0  0  0
   -3.6305   -0.3704   -0.2248 C   0  0  0  0  0  0  0  0  0  0  0  0
   -3.7761    0.5734    0.7825 C   0  0  0  0  0  0  0  0  0  0  0  0
   -2.8720    0.5725    1.9038 C   0  0  0  0  0  0  0  0  0  0  0  0
   -4.2306    0.1209   -1.9872 S   0  0  0  0  0  0  0  0  0  0  0  0
   -5.5391   -0.5162   -2.1478 O   0  0  0  0  0  0  0  0  0  0  0  0
   -4.1309    1.5451   -2.0978 O   0  0  0  0  0  0  0  0  0  0  0  0
   -3.2043   -0.5406   -3.2244 N   0  0  0  0  0  0  0  0  0  0  0  0
   -3.2518   -2.0379   -3.4322 C   0  0  0  0  0  0  0  0  0  0  0  0
   -2.0152   -2.4518   -2.6913 C   0  0  2  0  0  0  0  0  0  0  0  0
   -0.9623   -1.3591   -3.0104 C   0  0  0  0  0  0  0  0  0  0  0  0
   -1.7698   -0.0805   -3.4700 C   0  0  2  0  0  0  0  0  0  0  0  0
   -1.4025    1.4187   -3.0098 C   0  0  0  0  0  0  0  0  0  0  0  0
   -1.0340    2.2949   -3.7837 O   0  0  0  0  0  0  0  0  0  0  0  0
   -1.5371    1.7244   -1.6790 N   0  0  0  0  0  0  0  0  0  0  0  0
   -1.1973    0.6789   -0.8481 O   0  0  0  0  0  0  0  0  0  0  0  0
   -1.5201   -3.8351   -2.4642 N   0  0  0  0  0  0  0  0  0  0  0  0
   -2.8189   -4.9505   -2.2751 S   0  0  0  0  0  0  0  0  0  0  0  0
   -1.9597   -6.4919   -2.1504 C   0  0  0  0  0  0  0  0  0  0  0  0
   -3.4270   -4.6499   -0.9968 O   0  0  0  0  0  0  0  0  0  0  0  0
   -3.5629   -4.9118   -3.5085 O   0  0  0  0  0  0  0  0  0  0  0  0
  1  2  1  0
  2  3  1  0
  3  4  1  0
  4  5  1  0
  5  6  1  0
  6  7  2  0
  6 11  1  0
  7  8  1  0
  8  9  2  0
  9 10  1  0
  9 12  1  0
 10 11  2  0
 12 13  2  0
 12 14  2  0
 12 15  1  0
 15 16  1  0
 15 19  1  0
 16 17  1  0
 17 18  1  0
 17 24  1  6
 18 19  1  0
 19 20  1  1
 20 21  2  0
 20 22  1  0
 22 23  1  0
 24 25  1  0
 25 26  1  0
 25 27  2  0
 25 28  2  0
M  END
>  <DRUGBANK_ID>  (1) 
DB02367

>  <SECONDARY_ACCESSION_NUMBERS>  (1) 
EXPT00010

>  <COMMON_NAME>  (1) 
(1n)-4-N-Butoxyphenylsulfonyl-(2r)-N-Hydroxycarboxamido-(4s)-Methanesulfonylamino-Pyrrolidine

$$$$
