1399
     RDKit          3D

 19 20  0  0  0  0  0  0  0  0999 V2000
    2.3290   -0.1147    0.3018 O   0  0  0  0  0  0  0  0  0  0  0  0
    4.6231    0.6154    1.7226 O   0  0  0  0  0  0  0  0  0  0  0  0
    2.6377   -1.7917   -1.2508 O   0  0  0  0  0  0  0  0  0  0  0  0
   -0.1145   -3.8138   -0.0567 O   0  0  0  0  0  0  0  0  0  0  0  0
    1.7550   -3.0434    0.8630 O   0  0  0  0  0  0  0  0  0  0  0  0
    0.9161   -0.1836    0.1152 C   0  0  0  0  0  0  0  0  0  0  0  0
    4.5325   -1.0417   -0.0803 C   0  0  0  0  0  0  0  0  0  0  0  0
    0.1418   -1.3788    0.1162 C   0  0  0  0  0  0  0  0  0  0  0  0
    5.2169   -0.2182    0.8162 C   0  0  0  0  0  0  0  0  0  0  0  0
    0.2842    1.0874    0.0385 C   0  0  0  0  0  0  0  0  0  0  0  0
    3.0763   -1.0568   -0.3918 C   0  0  0  0  0  0  0  0  0  0  0  0
   -1.2526   -1.2235    0.0103 C   0  0  0  0  0  0  0  0  0  0  0  0
    5.2722   -1.9292   -0.8877 C   0  0  0  0  0  0  0  0  0  0  0  0
   -1.1088    1.1884   -0.0135 C   0  0  0  0  0  0  0  0  0  0  0  0
   -1.8706    0.0310   -0.0318 C   0  0  0  0  0  0  0  0  0  0  0  0
    6.6192   -0.2156    0.8111 C   0  0  0  0  0  0  0  0  0  0  0  0
    6.6601   -1.9309   -0.8903 C   0  0  0  0  0  0  0  0  0  0  0  0
    7.3349   -1.0527   -0.0553 C   0  0  0  0  0  0  0  0  0  0  0  0
    0.6842   -2.7881    0.3337 C   0  0  0  0  0  0  0  0  0  0  0  0
  1  6  1  0
  1 11  1  0
  2  9  1  0
  3 11  2  0
  4 19  1  0
  5 19  2  0
  6  8  2  0
  6 10  1  0
  7  9  2  0
  7 11  1  0
  7 13  1  0
  8 12  1  0
  8 19  1  0
  9 16  1  0
 10 14  2  0
 12 15  2  0
 13 17  2  0
 14 15  1  0
 16 18  2  0
 17 18  1  0
M  END
>  <DRUGBANK_ID>  (1) 
DB01399

>  <COMMON_NAME>  (1) 
Salsalate

>  <CAS_NUMBER>  (1) 
552-94-3

>  <UNII>  (1) 
V9MO595C9I

>  <SYNONYMS>  (1) 
2-Carboxyphenyl salicylate; Disalicylic acid; Disalicylsäure; O-Salicylcylsalicylsäure; o-Salicylsalicylic acid; Salicylic acid bimolecular ester; Salicyloxysalicylic acid; Salicyloylsalicylic acid; Salicylsalicylic acid; Salsalate; Salsalato; Salsalatum; Sasapyrin; Sasapyrine; Sasapyrinum

$$$$
