
     RDKit          3D

 19 21  0  0  0  0  0  0  0  0999 V2000
   -0.9290    1.1448    0.1574 C   0  0  0  0  0  0  0  0  0  0  0  0
   -1.6169   -0.0736    0.2030 C   0  0  0  0  0  0  0  0  0  0  0  0
   -0.8072   -1.2194    0.1350 C   0  0  0  0  0  0  0  0  0  0  0  0
    0.6258   -1.1024    0.0592 C   0  0  0  0  0  0  0  0  0  0  0  0
    1.2980    0.1335   -0.0340 C   0  0  0  0  0  0  0  0  0  0  0  0
    0.4609    1.2563    0.0223 C   0  0  0  0  0  0  0  0  0  0  0  0
    2.6843    0.1926   -0.1057 N   0  0  0  0  0  0  0  0  0  0  0  0
    3.4814    1.3886   -0.3532 C   0  0  0  0  0  0  0  0  0  0  0  0
    0.9415    2.4966   -0.0593 F   0  0  0  0  0  0  0  0  0  0  0  0
   -3.1110    0.0448    0.1420 C   0  0  0  0  0  0  0  0  0  0  0  0
   -4.3204   -0.9411    0.8963 S   0  0  0  0  0  0  0  0  0  0  0  0
   -5.6132   -0.0096    0.1301 C   0  0  0  0  0  0  0  0  0  0  0  0
   -4.9906    1.0158   -0.5833 C   0  0  0  0  0  0  0  0  0  0  0  0
   -3.6243    1.0789   -0.4892 N   0  0  0  0  0  0  0  0  0  0  0  0
   -7.0331   -0.1445    0.0881 C   0  0  0  0  0  0  0  0  0  0  0  0
   -7.7318    0.6440   -0.8498 C   0  0  0  0  0  0  0  0  0  0  0  0
   -7.1004    1.6331   -1.5873 C   0  0  0  0  0  0  0  0  0  0  0  0
   -5.7496    1.8821   -1.3855 C   0  0  0  0  0  0  0  0  0  0  0  0
   -9.0633    0.4850   -1.1250 O   0  0  0  0  0  0  0  0  0  0  0  0
  1  2  2  0
  1  6  1  0
  2  3  1  0
  2 10  1  0
  3  4  2  0
  4  5  1  0
  5  6  2  0
  5  7  1  0
  6  9  1  0
  7  8  1  0
 10 11  1  0
 10 14  2  0
 11 12  1  0
 12 13  2  0
 12 15  1  0
 13 14  1  0
 13 18  1  0
 15 16  2  0
 16 17  1  0
 16 19  1  0
 17 18  2  0
M  ISO  1   9  18
M  END
>  <DRUGBANK_ID>  (1) 
DB09151

>  <COMMON_NAME>  (1) 
Flutemetamol (18F)

>  <CAS_NUMBER>  (1) 
765922-62-1

>  <UNII>  (1) 
L49M066S0O

>  <SYNONYMS>  (1) 
[18F]-Flutemetamol; 2-[3-(18F)fluoro-4-(methylamino)phenyl]-1,3-benzothiazol-6-ol; Flutemetamol (18F); Flutemetamol F 18; Flutemetamol F-18; Flutemetamol F18

$$$$
