983
     RDKit          3D

 25 26  0  0  1  0  0  0  0  0999 V2000
    1.0387   -0.0712   -0.0845 O   0  0  0  0  0  0  0  0  0  0  0  0
    4.3204    4.4656    2.5507 O   0  0  0  0  0  0  0  0  0  0  0  0
    2.1990   -5.5612   -3.0723 O   0  0  0  0  0  0  0  0  0  0  0  0
   -1.3342   -6.2326    0.4102 O   0  0  0  0  0  0  0  0  0  0  0  0
    2.4487    0.7547   -2.5375 N   0  0  0  0  0  0  0  0  0  0  0  0
    0.1452   -5.2654   -1.0164 N   0  0  0  0  0  0  0  0  0  0  0  0
    3.0526    1.8313   -3.2958 C   0  0  0  0  0  0  0  0  0  0  0  0
    2.6470    3.2065   -2.7538 C   0  0  0  0  0  0  0  0  0  0  0  0
    0.9935    0.7436   -2.3921 C   0  0  0  0  0  0  0  0  0  0  0  0
    0.5890   -0.3797   -1.4123 C   0  0  0  0  0  0  0  0  0  0  0  0
    4.5912    1.7098   -3.3411 C   0  0  0  0  0  0  0  0  0  0  0  0
    3.1003    3.4995   -1.3345 C   0  0  0  0  0  0  0  0  0  0  0  0
    1.0734   -1.7583   -1.8198 C   0  0  0  0  0  0  0  0  0  0  0  0
    0.4670   -2.8607   -1.2224 C   0  0  0  0  0  0  0  0  0  0  0  0
    3.6134    2.5330   -0.4533 C   0  0  0  0  0  0  0  0  0  0  0  0
    3.0214    4.8021   -0.8593 C   0  0  0  0  0  0  0  0  0  0  0  0
    2.0678   -2.0000   -2.7796 C   0  0  0  0  0  0  0  0  0  0  0  0
    0.7979   -4.1675   -1.6023 C   0  0  0  0  0  0  0  0  0  0  0  0
    2.4348   -3.2765   -3.1531 C   0  0  0  0  0  0  0  0  0  0  0  0
    3.9523    2.7935    0.8535 C   0  0  0  0  0  0  0  0  0  0  0  0
    3.4472    5.0954    0.4432 C   0  0  0  0  0  0  0  0  0  0  0  0
    1.7882   -4.3557   -2.5840 C   0  0  0  0  0  0  0  0  0  0  0  0
    3.9033    4.0913    1.3055 C   0  0  0  0  0  0  0  0  0  0  0  0
   -0.8228   -5.2263   -0.0487 C   0  0  0  0  0  0  0  0  0  0  0  0
    4.8074    3.3967    3.3645 C   0  0  0  0  0  0  0  0  0  0  0  0
  1 10  1  0
  2 23  1  0
  2 25  1  0
  3 22  1  0
  4 24  2  0
  5  7  1  0
  5  9  1  0
  6 18  1  0
  6 24  1  0
  7  8  1  0
  7 11  1  0
  8 12  1  0
  9 10  1  0
 10 13  1  0
 12 15  2  0
 12 16  1  0
 13 14  2  0
 13 17  1  0
 14 18  1  0
 15 20  1  0
 16 21  2  0
 17 19  2  0
 18 22  2  0
 19 22  1  0
 20 23  2  0
 21 23  1  0
M  END
>  <DRUGBANK_ID>  (1) 
DB00983

>  <SECONDARY_ACCESSION_NUMBERS>  (1) 
APRD00641

>  <COMMON_NAME>  (1) 
Formoterol

>  <CAS_NUMBER>  (1) 
73573-87-2

>  <UNII>  (1) 
5ZZ84GCW8B

>  <SYNONYMS>  (1) 
2'-hydroxy-5'-(1-hydroxy-2-((p-methoxy-α-methylphenethyl)amino)ethyl)formanilide; 2'-hydroxy-5'-{1-hydroxy-2-[(p-methoxy-α-methylphenethyl)amino]ethyl}formanilide; Formoterol; Formoterolum; N-[2-hydroxy-5-(1-hydroxy-2-{[2-(4-methoxyphenyl)-1-methylethyl]amino}ethyl)phenyl]formamide

$$$$
