
     RDKit          3D

  5  4  0  0  0  0  0  0  0  0999 V2000
    0.9054    0.0313    0.0404 C   0  0  2  0  0  0  0  0  0  0  0  0
    0.4188   -0.6389   -1.1276 O   0  0  0  0  0  0  0  0  0  0  0  0
    0.3990   -0.7201    1.2744 C   0  0  0  0  0  0  0  0  0  0  0  0
    0.8652   -2.0676    1.2490 O   0  0  0  0  0  0  0  0  0  0  0  0
    0.4143    1.4698    0.0401 C   0  0  0  0  0  0  0  0  0  0  0  0
  1  5  1  1
  1  3  1  0
  2  1  1  0
  4  3  1  0
M  END
>  <DRUGBANK_ID>  (1) 
DB04349

>  <SECONDARY_ACCESSION_NUMBERS>  (1) 
EXPT02573

>  <COMMON_NAME>  (1) 
(S)-propane-1,2-diol

>  <CAS_NUMBER>  (1) 
4254-15-3

>  <UNII>  (1) 
942194N4TD

>  <SYNONYMS>  (1) 
(S)-1,2-Propanediol; (S)-propane-1,2-diol; (S)-Propylene glycol; S-1,2-Propanediol

$$$$
