
     RDKit          3D

  9  9  0  0  0  0  0  0  0  0999 V2000
    0.9038   -0.0514   -0.0029 O   0  0  0  0  0  0  0  0  0  0  0  0
    2.1349   -0.0265    0.0026 C   0  0  0  0  0  0  0  0  0  0  0  0
    2.9589    0.9413   -0.8116 C   0  0  0  0  0  0  0  0  0  0  0  0
    3.7752    1.8447    0.0771 C   0  0  0  0  0  0  0  0  0  0  0  0
    3.6102    3.2326   -0.0166 C   0  0  0  0  0  0  0  0  0  0  0  0
    4.2202    4.0801    0.9061 C   0  0  0  0  0  0  0  0  0  0  0  0
    4.9962    3.5480    1.9329 C   0  0  0  0  0  0  0  0  0  0  0  0
    5.1958    2.1715    2.0142 C   0  0  0  0  0  0  0  0  0  0  0  0
    4.6336    1.3262    1.0579 C   0  0  0  0  0  0  0  0  0  0  0  0
  1  2  2  0
  2  3  1  0
  3  4  1  0
  4  5  2  0
  4  9  1  0
  5  6  1  0
  6  7  2  0
  7  8  1  0
  8  9  2  0
M  END
>  <DRUGBANK_ID>  (1) 
DB02178

>  <SECONDARY_ACCESSION_NUMBERS>  (1) 
EXPT01801

>  <COMMON_NAME>  (1) 
Phenylacetaldehyde

>  <CAS_NUMBER>  (1) 
122-78-1

>  <UNII>  (1) 
U8J5PLW9MR

$$$$
