C15
     RDKit          3D

 22 21  0  0  0  0  0  0  0  0999 V2000
    0.2592    0.3983   -0.2027 C   0  0  0  0  0  0  0  0  0  0  0  0
    0.1611   -1.2102    0.5559 C   0  0  0  0  0  0  0  0  0  0  0  0
    0.7256   -1.6921    2.0109 C   0  0  0  0  0  0  0  0  0  0  0  0
    6.6868    0.1359   -5.8601 C   0  0  0  0  0  0  0  0  0  0  0  0
    7.2004    0.1266   -4.4311 C   0  0  0  0  0  0  0  0  0  0  0  0
    6.6538    1.3419   -3.6810 C   0  0  0  0  0  0  0  0  0  0  0  0
    5.1219    1.3082   -3.6511 C   0  0  0  0  0  0  0  0  0  0  0  0
    0.4975   -0.6165    2.9970 N   0  0  0  0  0  0  0  0  0  0  0  0
   -1.0673   -0.3988    2.9904 C   0  0  0  0  0  0  0  0  0  0  0  0
    1.0019   -0.6281    4.4093 C   0  0  0  0  0  0  0  0  0  0  0  0
    4.6661    0.0138   -2.9800 C   0  0  0  0  0  0  0  0  0  0  0  0
    5.2967   -0.0327   -1.5799 C   0  0  0  0  0  0  0  0  0  0  0  0
    4.8036    1.1730   -0.7739 C   0  0  0  0  0  0  0  0  0  0  0  0
    3.3122    1.0412   -0.6855 C   0  0  0  0  0  0  0  0  0  0  0  0
    3.1030   -0.3334   -0.0058 C   0  0  0  0  0  0  0  0  0  0  0  0
    3.5087   -0.2940    1.4713 C   0  0  0  0  0  0  0  0  0  0  0  0
    2.7492    0.7313    2.3606 C   0  0  0  0  0  0  0  0  0  0  0  0
    1.2358    0.5162    2.5052 C   0  0  0  0  0  0  0  0  0  0  0  0
   -0.0786    2.2691    0.5501 S   0  0  0  0  0  0  0  0  0  0  0  0
    0.4281    3.2060   -0.4717 O   0  0  0  0  0  0  0  0  0  0  0  0
   -1.3766    2.2975    1.0888 O   0  0  0  0  0  0  0  0  0  0  0  0
    0.9324    2.7093    1.7889 O   0  0  0  0  0  0  0  0  0  0  0  0
  1  2  1  0
  1 19  1  0
  2  3  1  0
  3  8  1  0
  4  5  1  0
  5  6  1  0
  6  7  1  0
  7 11  1  0
  8  9  1  0
  8 10  1  0
  8 18  1  0
 11 12  1  0
 12 13  1  0
 13 14  1  0
 14 15  1  0
 15 16  1  0
 16 17  1  0
 17 18  1  0
 19 20  2  0
 19 21  2  0
 19 22  1  0
M  CHG  1   8   1
M  END
>  <DRUGBANK_ID>  (1) 
DB02643

>  <SECONDARY_ACCESSION_NUMBERS>  (1) 
EXPT00799

>  <COMMON_NAME>  (1) 
N-Dodecyl-N,N-Dimethyl-3-Ammonio-1-Propanesulfonate

>  <UNII>  (1) 
R6P3KW3E8U

$$$$
