
     RDKit          3D

 34 38  0  0  0  0  0  0  0  0999 V2000
    2.6054    0.2277    0.0371 C   0  0  0  0  0  0  0  0  0  0  0  0
    1.2033   -0.2648    0.0360 C   0  0  0  0  0  0  0  0  0  0  0  0
    0.8021   -1.4960    0.2221 N   0  0  0  0  0  0  0  0  0  0  0  0
   -0.5745   -1.5068   -0.0499 N   0  0  0  0  0  0  0  0  0  0  0  0
   -1.0568   -0.3192   -0.5623 C   0  0  0  0  0  0  0  0  0  0  0  0
   -2.0784   -0.0695   -1.1718 O   0  0  0  0  0  0  0  0  0  0  0  0
    0.0347    0.6437   -0.2101 C   0  0  0  0  0  0  0  0  0  0  0  0
    0.0344    1.9166    0.0892 N   0  0  0  0  0  0  0  0  0  0  0  0
   -1.1024    2.6945    0.0350 N   0  0  0  0  0  0  0  0  0  0  0  0
   -2.4344    2.2480    0.2282 C   0  0  0  0  0  0  0  0  0  0  0  0
   -2.7460    1.2316    1.1538 C   0  0  0  0  0  0  0  0  0  0  0  0
   -1.7761    0.8660    2.0704 O   0  0  0  0  0  0  0  0  0  0  0  0
   -3.9398    0.4771    1.0647 C   0  0  0  0  0  0  0  0  0  0  0  0
   -4.9012    0.8655    0.1296 C   0  0  0  0  0  0  0  0  0  0  0  0
   -4.6610    1.9559   -0.7178 C   0  0  0  0  0  0  0  0  0  0  0  0
   -3.4303    2.6311   -0.6840 C   0  0  0  0  0  0  0  0  0  0  0  0
   -4.1612   -0.6359    1.9792 C   0  0  0  0  0  0  0  0  0  0  0  0
   -3.9653   -0.6480    3.3389 C   0  0  0  0  0  0  0  0  0  0  0  0
   -4.3429   -1.9055    3.7944 C   0  0  0  0  0  0  0  0  0  0  0  0
   -4.7409   -2.6407    2.6974 C   0  0  0  0  0  0  0  0  0  0  0  0
   -4.6306   -1.8678    1.5505 O   0  0  0  0  0  0  0  0  0  0  0  0
   -5.2785   -3.9800    2.7650 C   0  0  0  0  0  0  0  0  0  0  0  0
   -5.6947   -4.4849    1.5841 O   0  0  0  0  0  0  0  0  0  0  0  0
   -5.3968   -4.6136    3.8080 O   0  0  0  0  0  0  0  0  0  0  0  0
   -1.3226   -2.7033   -0.0420 C   0  0  0  0  0  0  0  0  0  0  0  0
   -2.2860   -2.9181   -1.0366 C   0  0  0  0  0  0  0  0  0  0  0  0
   -3.0857   -4.0541   -1.0386 C   0  0  0  0  0  0  0  0  0  0  0  0
   -2.9668   -4.9996   -0.0208 C   0  0  0  0  0  0  0  0  0  0  0  0
   -3.8406   -6.2267   -0.0925 C   0  0  0  0  0  0  0  0  0  0  0  0
   -3.4979   -7.3021    0.9284 C   0  0  0  0  0  0  0  0  0  0  0  0
   -3.1569   -6.7008    2.2826 C   0  0  0  0  0  0  0  0  0  0  0  0
   -1.9795   -5.7259    2.1975 C   0  0  0  0  0  0  0  0  0  0  0  0
   -2.0723   -4.7595    1.0400 C   0  0  0  0  0  0  0  0  0  0  0  0
   -1.2256   -3.6257    1.0037 C   0  0  0  0  0  0  0  0  0  0  0  0
  1  2  1  0
  2  3  2  0
  2  7  1  0
  3  4  1  0
  4  5  1  0
  4 25  1  0
  5  6  2  0
  5  7  1  0
  7  8  2  0
  8  9  1  0
  9 10  1  0
 10 11  2  0
 10 16  1  0
 11 12  1  0
 11 13  1  0
 13 14  2  0
 13 17  1  0
 14 15  1  0
 15 16  2  0
 17 18  2  0
 17 21  1  0
 18 19  1  0
 19 20  2  0
 20 21  1  0
 20 22  1  0
 22 23  1  0
 22 24  2  0
 25 26  2  0
 25 34  1  0
 26 27  1  0
 27 28  2  0
 28 29  1  0
 28 33  1  0
 29 30  1  0
 30 31  1  0
 31 32  1  0
 32 33  1  0
 33 34  2  0
M  END
>  <DRUGBANK_ID>  (1) 
DB16184

>  <COMMON_NAME>  (1) 
Hetrombopag

>  <CAS_NUMBER>  (1) 
1257792-41-8

>  <UNII>  (1) 
9WGT51BDDL

$$$$
