
     RDKit          3D

 24 26  0  0  0  0  0  0  0  0999 V2000
   -0.4909    0.8182   -0.6682 C   0  0  2  0  0  0  0  0  0  0  0  0
   -0.5600   -0.6025   -0.3396 N   0  0  0  0  0  0  0  0  0  0  0  0
    0.5222   -1.4205   -0.1298 C   0  0  0  0  0  0  0  0  0  0  0  0
    1.7504   -0.8473   -0.0375 C   0  0  0  0  0  0  0  0  0  0  0  0
    1.9801    0.6575    0.0664 C   0  0  0  0  0  0  0  0  0  0  0  0
    0.5317    1.6308    0.5570 S   0  0  0  0  0  0  0  0  0  0  0  0
   -2.0092    0.8210   -0.4740 C   0  0  1  0  0  0  0  0  0  0  0  0
   -1.8249   -0.5614    0.1442 C   0  0  0  0  0  0  0  0  0  0  0  0
   -2.7329    1.9374    0.1612 N   0  0  0  0  0  0  0  0  0  0  0  0
   -3.7849    2.6431   -0.4111 C   0  0  0  0  0  0  0  0  0  0  0  0
   -4.2851    3.5774    0.2237 O   0  0  0  0  0  0  0  0  0  0  0  0
   -2.5249   -1.3339    0.7637 O   0  0  0  0  0  0  0  0  0  0  0  0
   -4.3047    2.2679   -1.8576 C   0  0  1  0  0  0  0  0  0  0  0  0
    3.0795   -1.5615    0.0103 C   0  0  0  0  0  0  0  0  0  0  0  0
    0.2505   -2.9141   -0.0705 C   0  0  0  0  0  0  0  0  0  0  0  0
   -0.8027   -3.4652   -0.3409 O   0  0  0  0  0  0  0  0  0  0  0  0
    1.3168   -3.6587    0.2739 O   0  0  0  0  0  0  0  0  0  0  0  0
   -3.2201    2.4617   -2.9210 C   0  0  0  0  0  0  0  0  0  0  0  0
   -2.7917    3.7609   -3.2240 C   0  0  0  0  0  0  0  0  0  0  0  0
   -1.6605    3.9633   -4.0178 C   0  0  0  0  0  0  0  0  0  0  0  0
   -0.9141    2.8769   -4.4722 C   0  0  0  0  0  0  0  0  0  0  0  0
   -1.3241    1.5855   -4.1793 C   0  0  0  0  0  0  0  0  0  0  0  0
   -2.5256    1.3849   -3.5086 C   0  0  0  0  0  0  0  0  0  0  0  0
   -4.9228    0.9257   -1.8530 N   0  0  0  0  0  0  0  0  0  0  0  0
  1  2  1  0
  1  6  1  1
  1  7  1  0
  2  3  1  0
  2  8  1  0
  3  4  2  0
  3 15  1  0
  4  5  1  0
  4 14  1  0
  5  6  1  0
  7  8  1  0
  7  9  1  1
  8 12  2  0
  9 10  1  0
 10 11  2  0
 10 13  1  0
 13 18  1  0
 13 24  1  1
 15 16  2  0
 15 17  1  0
 18 19  2  0
 18 23  1  0
 19 20  1  0
 20 21  2  0
 21 22  1  0
 22 23  2  0
M  END
>  <DRUGBANK_ID>  (1) 
DB00567

>  <SECONDARY_ACCESSION_NUMBERS>  (1) 
APRD00250

>  <COMMON_NAME>  (1) 
Cephalexin

>  <CAS_NUMBER>  (1) 
15686-71-2

>  <UNII>  (1) 
5SFF1W6677

>  <SYNONYMS>  (1) 
(6R,7R)-7-{[(2R)-2-amino-2-phenylacetyl]amino}-3-methyl-8-oxo-5-thia-1-azabicyclo[4.2.0]oct-2-ene-2-carboxylic acid; 7-(D-alpha-Aminophenylacetamido)desacetoxycephalosporanic acid; 7-beta-(D-alpha-Amino-alpha-phenylacetylamino)-3-methyl-3-cephem-4-carboxylic acid; Anhydrous cefalexin; Anhydrous cephalexin; Cefalexin; Cefalexin anhydrous; Cefalexina; CÃ©falexine; Cefalexinum; Cephalexin anhydrous

$$$$
