
     RDKit          3D

 24 23  0  0  0  0  0  0  0  0999 V2000
    1.0112   -0.1681   -0.1220 C   0  0  0  0  0  0  0  0  0  0  0  0
    0.5665   -0.3515    1.3199 C   0  0  0  0  0  0  0  0  0  0  0  0
    1.0644    0.8092    2.1822 C   0  0  0  0  0  0  0  0  0  0  0  0
    0.5100    2.1488    1.6850 C   0  0  0  0  0  0  0  0  0  0  0  0
   -1.0225    2.1420    1.7066 C   0  0  0  0  0  0  0  0  0  0  0  0
   -1.5255    1.9293    3.1373 C   0  0  0  0  0  0  0  0  0  0  0  0
   -1.0165    3.0606    4.0355 C   0  0  0  0  0  0  0  0  0  0  0  0
   -1.5312    4.4032    3.5081 C   0  0  0  0  0  0  0  0  0  0  0  0
   -3.0622    4.3906    3.5072 C   0  0  0  0  0  0  0  0  0  0  0  0
   -3.5646    4.1510    4.9353 C   0  0  0  0  0  0  0  0  0  0  0  0
   -3.0660    5.2761    5.8420 C   0  0  0  0  0  0  0  0  0  0  0  0
   -3.5838    6.6084    5.3057 C   0  0  0  0  0  0  0  0  0  0  0  0
   -5.1204    6.5838    5.2881 C   0  0  0  0  0  0  0  0  0  0  0  0
   -5.6619    6.5028    6.7117 C   0  0  0  0  0  0  0  0  0  0  0  0
   -5.0945    7.6033    7.6090 C   0  0  0  0  0  0  0  0  0  0  0  0
   -5.4762    9.0156    7.2185 C   0  0  0  0  0  0  0  0  0  0  0  0
   -6.1651    9.6906    7.9824 O   0  0  0  0  0  0  0  0  0  0  0  0
   -4.8807    9.6783    5.7022 S   0  0  0  0  0  0  0  0  0  0  0  0
   -5.9480   11.0843    5.2866 C   0  0  0  0  0  0  0  0  0  0  0  0
   -7.4770   10.9189    5.2675 C   0  0  0  0  0  0  0  0  0  0  0  0
   -8.0635   10.5372    6.5365 N   0  0  0  0  0  0  0  0  0  0  0  0
   -8.6993   11.4219    7.3719 C   0  0  0  0  0  0  0  0  0  0  0  0
   -8.9839   10.8853    8.7581 C   0  0  0  0  0  0  0  0  0  0  0  0
   -9.0374   12.5502    7.0309 O   0  0  0  0  0  0  0  0  0  0  0  0
  1  2  1  0
  2  3  1  0
  3  4  1  0
  4  5  1  0
  5  6  1  0
  6  7  1  0
  7  8  1  0
  8  9  1  0
  9 10  1  0
 10 11  1  0
 11 12  1  0
 12 13  1  0
 13 14  1  0
 14 15  1  0
 15 16  1  0
 16 17  2  0
 16 18  1  0
 18 19  1  0
 19 20  1  0
 20 21  1  0
 21 22  1  0
 22 23  1  0
 22 24  2  0
M  END
>  <DRUGBANK_ID>  (1) 
DB02990

>  <SECONDARY_ACCESSION_NUMBERS>  (1) 
EXPT03058

>  <COMMON_NAME>  (1) 
S-(2-Acetamidoethyl) hexadecanethioate

>  <SYNONYMS>  (1) 
C16-fatty-acyl-substrate-mimic; S-palmitoyl-N-acetylcysteamine

$$$$
