
     RDKit          3D

 16 16  0  0  0  0  0  0  0  0999 V2000
   -0.0609    0.9432   -0.1833 C   0  0  2  0  0  0  0  0  0  0  0  0
    0.7254   -0.2520   -0.3326 O   0  0  0  0  0  0  0  0  0  0  0  0
   -0.6908   -0.4194   -0.1444 C   0  0  2  0  0  0  0  0  0  0  0  0
   -0.0517    1.8251   -1.3697 C   0  0  0  0  0  0  0  0  0  0  0  0
   -1.4511   -0.9834   -1.2917 C   0  0  0  0  0  0  0  0  0  0  0  0
    0.0002    3.0364   -1.2385 O   0  0  0  0  0  0  0  0  0  0  0  0
   -0.8535   -1.4340   -2.2673 O   0  0  0  0  0  0  0  0  0  0  0  0
   -4.1241    1.2804    3.5385 C   0  0  0  0  0  0  0  0  0  0  0  0
   -4.2247   -0.6701    2.0507 C   0  0  0  0  0  0  0  0  0  0  0  0
   -4.9342    1.7062    4.5166 C   0  0  0  0  0  0  0  0  0  0  0  0
   -0.1205    1.2315   -2.5960 N   0  0  0  0  0  0  0  0  0  0  0  0
   -3.3792   -1.2623    1.2017 C   0  0  0  0  0  0  0  0  0  0  0  0
   -3.7400   -0.1553    3.3766 C   0  0  0  0  0  0  0  0  0  0  0  0
   -2.9621   -0.8516   -1.2743 C   0  0  0  0  0  0  0  0  0  0  0  0
   -3.6569   -1.6960   -0.2036 C   0  0  0  0  0  0  0  0  0  0  0  0
   -5.3611    3.1245    4.6681 C   0  0  0  0  0  0  0  0  0  0  0  0
  1  4  1  6
  2  1  1  0
  3  1  1  0
  3  2  1  0
  3  5  1  6
  6  4  2  0
  7  5  2  0
  8 13  1  0
  9 12  2  0
 10  8  2  0
 11  4  1  0
 12 15  1  0
 13  9  1  0
 14  5  1  0
 15 14  1  0
 16 10  1  0
M  END
>  <DRUGBANK_ID>  (1) 
DB01034

>  <SECONDARY_ACCESSION_NUMBERS>  (1) 
APRD00703

>  <COMMON_NAME>  (1) 
Cerulenin

>  <CAS_NUMBER>  (1) 
17397-89-6

>  <UNII>  (1) 
MF286Y830Q

>  <SYNONYMS>  (1) 
(2R,3S)-3-((4E,7E)-Nona-4,7-dienoyl)-oxirane-2-carboxylic acid amide; (2R,3S)-3-((4E,7E)-nona-4,7-dienoyl)oxirane-2-carboxamide; Cerulenin

$$$$
