2475
     RDKit          3D

 18 18  0  0  1  0  0  0  0  0999 V2000
   -2.4989   -0.0806    0.0529 Cl  0  0  0  0  0  0  0  0  0  0  0  0
    1.6453    2.8116    1.7014 O   0  0  0  0  0  0  0  0  0  0  0  0
   -0.7877    2.2982   -0.0608 O   0  0  0  0  0  0  0  0  0  0  0  0
    0.5482    6.2660    1.2228 N   0  0  0  0  0  0  0  0  0  0  0  0
    1.2866    7.5377    1.2144 C   0  0  0  0  0  0  0  0  0  0  0  0
    1.4167    5.0947    1.2815 C   0  0  0  0  0  0  0  0  0  0  0  0
    0.6470    3.7805    1.3570 C   0  0  0  0  0  0  0  0  0  0  0  0
    2.1582    7.6566   -0.0470 C   0  0  0  0  0  0  0  0  0  0  0  0
    0.2264    8.6495    1.1950 C   0  0  0  0  0  0  0  0  0  0  0  0
    2.1377    7.6857    2.4856 C   0  0  0  0  0  0  0  0  0  0  0  0
   -0.0767    3.5312    0.0119 C   0  0  0  0  0  0  0  0  0  0  0  0
   -0.0705    1.1403   -0.2012 C   0  0  0  0  0  0  0  0  0  0  0  0
    1.3192    1.0951   -0.3643 C   0  0  0  0  0  0  0  0  0  0  0  0
   -0.7746   -0.0568   -0.0695 C   0  0  0  0  0  0  0  0  0  0  0  0
    2.0245   -0.0982   -0.1787 C   0  0  0  0  0  0  0  0  0  0  0  0
    1.3107   -1.2847   -0.0318 C   0  0  0  0  0  0  0  0  0  0  0  0
   -0.0867   -1.2709   -0.0100 C   0  0  0  0  0  0  0  0  0  0  0  0
    3.5231   -0.0718   -0.0866 C   0  0  0  0  0  0  0  0  0  0  0  0
  1 14  1  0
  2  7  1  0
  3 11  1  0
  3 12  1  0
  4  5  1  0
  4  6  1  0
  5  8  1  0
  5  9  1  0
  5 10  1  0
  6  7  1  0
  7 11  1  0
 12 13  2  0
 12 14  1  0
 13 15  1  0
 14 17  2  0
 15 16  2  0
 15 18  1  0
 16 17  1  0
M  END
>  <DRUGBANK_ID>  (1) 
DB08808

>  <COMMON_NAME>  (1) 
Bupranolol

>  <CAS_NUMBER>  (1) 
14556-46-8

>  <UNII>  (1) 
858YGI5PIT

>  <SYNONYMS>  (1) 
Bupranolol; Bupranololum

$$$$
