1145
     RDKit          3D

 25 26  0  0  1  0  0  0  0  0999 V2000
    1.0707   -0.0405    0.0540 S   0  0  0  0  0  0  0  0  0  0  0  0
   -1.0899    7.4920    1.9191 S   0  0  0  0  0  0  0  0  0  0  0  0
    8.9142   -1.2765   -1.1828 S   0  0  0  0  0  0  0  0  0  0  0  0
    0.6614   -0.6006   -1.2262 O   0  0  0  0  0  0  0  0  0  0  0  0
    0.6691   -0.6710    1.2947 O   0  0  0  0  0  0  0  0  0  0  0  0
   -2.2236    7.6726    3.0533 O   0  0  0  0  0  0  0  0  0  0  0  0
    9.4691   -2.7684   -0.9175 O   0  0  0  0  0  0  0  0  0  0  0  0
    0.1169    6.9532    2.6260 O   0  0  0  0  0  0  0  0  0  0  0  0
    8.0262   -1.3764   -2.3859 O   0  0  0  0  0  0  0  0  0  0  0  0
   -1.1650    5.5260    0.0076 N   0  0  0  0  0  0  0  0  0  0  0  0
    7.0539   -0.0538    0.4209 N   0  0  0  0  0  0  0  0  0  0  0  0
    0.4497    1.6266    0.0802 C   0  0  0  0  0  0  0  0  0  0  0  0
    2.8463   -0.0168    0.0704 C   0  0  0  0  0  0  0  0  0  0  0  0
    0.7481    2.4968   -0.9697 C   0  0  0  0  0  0  0  0  0  0  0  0
    3.5665    1.1737    0.1418 C   0  0  0  0  0  0  0  0  0  0  0  0
   -0.3813    2.0426    1.1109 C   0  0  0  0  0  0  0  0  0  0  0  0
    3.5194   -1.2318    0.1050 C   0  0  0  0  0  0  0  0  0  0  0  0
   -0.6176    4.2487    0.0626 C   0  0  0  0  0  0  0  0  0  0  0  0
    5.6713   -0.0664    0.2712 C   0  0  0  0  0  0  0  0  0  0  0  0
    0.2335    3.8027   -0.9631 C   0  0  0  0  0  0  0  0  0  0  0  0
    4.9653    1.1446    0.2310 C   0  0  0  0  0  0  0  0  0  0  0  0
   -0.9569    3.3145    1.0510 C   0  0  0  0  0  0  0  0  0  0  0  0
    4.9071   -1.2411    0.2737 C   0  0  0  0  0  0  0  0  0  0  0  0
   -1.9618    6.0972    1.0895 C   0  0  0  0  0  0  0  0  0  0  0  0
    7.8651   -1.2628    0.3302 C   0  0  0  0  0  0  0  0  0  0  0  0
  1  4  2  0
  1  5  2  0
  1 12  1  0
  1 13  1  0
  2  6  1  0
  2  8  2  0
  2 24  1  0
  3  7  1  0
  3  9  2  0
  3 25  1  0
 10 18  1  0
 10 24  1  0
 11 19  1  0
 11 25  1  0
 12 14  2  0
 12 16  1  0
 13 15  2  0
 13 17  1  0
 14 20  1  0
 15 21  1  0
 16 22  2  0
 17 23  2  0
 18 20  2  0
 18 22  1  0
 19 21  2  0
 19 23  1  0
M  END
>  <DRUGBANK_ID>  (1) 
DB01145

>  <SECONDARY_ACCESSION_NUMBERS>  (1) 
APRD00704

>  <COMMON_NAME>  (1) 
Sulfoxone

>  <CAS_NUMBER>  (1) 
144-76-3

>  <UNII>  (1) 
0G3C18OH4D

>  <SYNONYMS>  (1) 
Aldesulfone; Aldesulphone

$$$$
