
     RDKit          3D

 41 46  0  0  1  0  0  0  0  0999 V2000
   -4.4906   -0.6750   -1.5344 C   0  0  0  0  0  0  0  0  0  0  0  0
   -3.0741   -1.1150   -1.8392 C   0  0  1  0  0  0  0  0  0  0  0  0
   -2.6574   -2.3035   -0.9519 C   0  0  1  0  0  0  0  0  0  0  0  0
   -1.5057   -3.2227   -1.4599 C   0  0  2  0  0  0  0  0  0  0  0  0
   -1.3613   -3.1700   -3.0380 C   0  0  0  0  0  0  0  0  0  0  0  0
   -1.6445   -1.7220   -3.6788 C   0  0  1  0  0  0  0  0  0  0  0  0
   -2.9349   -1.2930   -3.2405 O   0  0  0  0  0  0  0  0  0  0  0  0
   -0.6216   -0.6229   -3.6526 O   0  0  0  0  0  0  0  0  0  0  0  0
   -0.2921   -0.1188   -2.3569 C   0  0  1  0  0  0  0  0  0  0  0  0
    0.2781   -1.2398   -1.6057 C   0  0  0  0  0  0  0  0  0  0  0  0
    1.5258   -1.9168   -2.0439 C   0  0  0  0  0  0  0  0  0  0  0  0
    2.5447   -0.9415   -1.6256 C   0  0  1  0  0  0  0  0  0  0  0  0
    2.1133    0.4575   -2.2476 C   0  0  1  0  0  0  0  0  0  0  0  0
    0.6814    0.9375   -1.9873 C   0  0  0  0  0  0  0  0  0  0  0  0
    3.0060    1.5501   -1.7457 C   0  0  0  0  0  0  0  0  0  0  0  0
    3.0818    1.5352   -0.2298 C   0  0  0  0  0  0  0  0  0  0  0  0
    3.5054    0.1517    0.3278 C   0  0  2  0  0  0  0  0  0  0  0  0
    2.5684   -0.9462   -0.0623 C   0  0  2  0  0  0  0  0  0  0  0  0
    2.8900   -2.3132    0.5945 C   0  0  0  0  0  0  0  0  0  0  0  0
    3.0651   -2.1970    2.1106 C   0  0  0  0  0  0  0  0  0  0  0  0
    4.1579   -1.1421    2.4602 C   0  0  1  0  0  0  0  0  0  0  0  0
    3.7603    0.2126    1.8073 C   0  0  2  0  0  0  0  0  0  0  0  0
    2.6415    0.7292    2.7239 C   0  0  0  0  0  0  0  0  0  0  0  0
    3.1332    0.3818    4.1454 C   0  0  1  0  0  0  0  0  0  0  0  0
    4.1237   -0.8519    4.0203 C   0  0  2  0  0  0  0  0  0  0  0  0
    5.4230   -0.6958    4.7937 C   0  0  0  0  0  0  0  0  0  0  0  0
    5.5359   -0.3759    6.0859 C   0  0  0  0  0  0  0  0  0  0  0  0
    6.9397   -0.0224    6.3284 C   0  0  0  0  0  0  0  0  0  0  0  0
    7.3818    0.4033    7.3715 O   0  0  0  0  0  0  0  0  0  0  0  0
    7.6585   -0.2108    5.1989 O   0  0  0  0  0  0  0  0  0  0  0  0
    6.7779   -0.6426    4.1820 C   0  0  0  0  0  0  0  0  0  0  0  0
    3.6335    1.5768    4.8352 O   0  0  0  0  0  0  0  0  0  0  0  0
    4.8050    2.1443    4.4783 C   0  0  0  0  0  0  0  0  0  0  0  0
    5.6116    1.7273    3.6380 O   0  0  0  0  0  0  0  0  0  0  0  0
    5.2891    3.2723    5.2745 C   0  0  0  0  0  0  0  0  0  0  0  0
    4.7615    1.1964    1.7444 O   0  0  0  0  0  0  0  0  0  0  0  0
    5.4686   -1.7316    1.9183 C   0  0  0  0  0  0  0  0  0  0  0  0
    3.8329   -1.4412   -2.2799 C   0  0  0  0  0  0  0  0  0  0  0  0
   -1.2087   -4.5149   -0.9614 O   0  0  0  0  0  0  0  0  0  0  0  0
   -2.3646   -5.1176   -0.4905 C   0  0  0  0  0  0  0  0  0  0  0  0
   -2.3791   -1.8187    0.3840 O   0  0  0  0  0  0  0  0  0  0  0  0
  2  1  1  6
  2  3  1  0
  2  7  1  0
  3  4  1  0
  3 41  1  1
  4  5  1  0
  4 39  1  6
  5  6  1  0
  6  7  1  0
  6  8  1  1
  9 10  1  0
  9 14  1  0
  9  8  1  6
 10 11  1  0
 11 12  1  0
 12 13  1  0
 12 18  1  0
 12 38  1  6
 13 14  1  1
 13 15  1  0
 15 16  1  0
 17 16  1  1
 17 18  1  0
 17 22  1  0
 18 19  1  6
 19 20  1  0
 20 21  1  0
 21 22  1  0
 21 25  1  0
 21 37  1  6
 22 23  1  0
 22 36  1  6
 23 24  1  0
 24 25  1  0
 24 32  1  6
 25 26  1  6
 26 27  2  0
 26 31  1  0
 27 28  1  0
 28 29  2  0
 28 30  1  0
 30 31  1  0
 32 33  1  0
 33 34  2  0
 33 35  1  0
 39 40  1  0
M  END
>  <DRUGBANK_ID>  (1) 
DB12843

>  <COMMON_NAME>  (1) 
Oleandrin

>  <CAS_NUMBER>  (1) 
465-16-7

>  <UNII>  (1) 
II95UDU7I4

>  <SYNONYMS>  (1) 
Anvirzel; Oleandrina

$$$$
