F1H
     RDKit          3D

 20 21  0  0  0  0  0  0  0  0999 V2000
    1.3879   -0.2676    0.0652 C   0  0  0  0  0  0  0  0  0  0  0  0
    0.5143   -1.3576    0.0419 C   0  0  0  0  0  0  0  0  0  0  0  0
   -0.5027    1.1895    0.3274 C   0  0  0  0  0  0  0  0  0  0  0  0
    0.8774    1.0316    0.1183 C   0  0  0  0  0  0  0  0  0  0  0  0
    1.4848    1.9330   -2.6719 C   0  0  0  0  0  0  0  0  0  0  0  0
    1.0479    2.5626   -3.9955 C   0  0  0  0  0  0  0  0  0  0  0  0
    1.7543    2.2241   -0.2534 C   0  0  0  0  0  0  0  0  0  0  0  0
    0.0537    3.4781   -1.4765 C   0  0  0  0  0  0  0  0  0  0  0  0
   -0.4352    4.1514   -2.7368 C   0  0  0  0  0  0  0  0  0  0  0  0
   -3.1915    2.0789   -8.2059 C   0  0  0  0  0  0  0  0  0  0  0  0
   -2.1657    4.1680   -7.0788 C   0  0  0  0  0  0  0  0  0  0  0  0
   -2.1768    3.2256   -8.2867 C   0  0  0  0  0  0  0  0  0  0  0  0
   -1.8809    3.4205   -5.7939 C   0  0  0  0  0  0  0  0  0  0  0  0
   -0.3541    3.1556   -3.8867 C   0  0  0  0  0  0  0  0  0  0  0  0
   -2.6222    2.5258   -5.3814 O   0  0  0  0  0  0  0  0  0  0  0  0
   -4.9155    2.6651   -8.1291 S   0  0  0  0  0  0  0  0  0  0  0  0
   -0.7464    3.7986   -5.1294 N   0  0  0  0  0  0  0  0  0  0  0  0
    1.3935    2.8828   -1.5486 N   0  0  0  0  0  0  0  0  0  0  0  0
   -0.8665   -1.1569    0.0206 C   0  0  0  0  0  0  0  0  0  0  0  0
   -1.3773    0.1253    0.1451 C   0  0  0  0  0  0  0  0  0  0  0  0
  1  2  2  0
  1  4  1  0
  2 19  1  0
  3  4  2  0
  3 20  1  0
  4  7  1  0
  5  6  1  0
  5 18  1  0
  6 14  1  0
  7 18  1  0
  8  9  1  0
  8 18  1  0
  9 14  1  0
 10 12  1  0
 10 16  1  0
 11 12  1  0
 11 13  1  0
 13 15  2  0
 13 17  1  0
 14 17  1  0
 19 20  2  0
M  END
>  <DRUGBANK_ID>  (1) 
DB07734

>  <COMMON_NAME>  (1) 
N-(1-benzylpiperidin-4-yl)-4-sulfanylbutanamide

$$$$
