
     RDKit          3D

 10 10  0  0  0  0  0  0  0  0999 V2000
   -0.2189    1.2506    0.0831 C   0  0  0  0  0  0  0  0  0  0  0  0
   -1.6290    1.2225   -0.0094 C   0  0  0  0  0  0  0  0  0  0  0  0
    0.4837    0.0287    0.0760 C   0  0  0  0  0  0  0  0  0  0  0  0
   -2.3294    0.0139   -0.0805 C   0  0  0  0  0  0  0  0  0  0  0  0
   -0.2443   -1.1769    0.0699 C   0  0  0  0  0  0  0  0  0  0  0  0
   -1.6368   -1.1870   -0.0115 C   0  0  0  0  0  0  0  0  0  0  0  0
    0.4003    2.6063    0.1960 C   0  0  0  0  0  0  0  0  0  0  0  0
   -0.2142    3.6619    0.2058 O   0  0  0  0  0  0  0  0  0  0  0  0
    1.7387    2.6058    0.3167 O   0  0  0  0  0  0  0  0  0  0  0  0
    2.2634   -0.1823    0.0103 S   0  0  0  0  0  0  0  0  0  0  0  0
  1  7  1  0
  2  1  2  0
  3  1  1  0
  3 10  1  0
  4  2  1  0
  5  3  2  0
  6  4  2  0
  6  5  1  0
  8  7  2  0
  9  7  1  0
M  END
>  <DRUGBANK_ID>  (1) 
DB14026

>  <COMMON_NAME>  (1) 
Thiosalicylic acid

>  <CAS_NUMBER>  (1) 
147-93-3

>  <UNII>  (1) 
CIP6LXN5XW

>  <SYNONYMS>  (1) 
2-Carboxythiophenol; 2-Mercaptobenzoic acid; 2-Sulfanylbenzoic acid; 2-Thiosalicylic acid; o-Benzoic acid thiol; o-Carboxythiophenol; o-Mercaptobenzoic acid; o-Mercaptobenzösäure; o-Sulfhydrylbenzoic acid; o-Thiosalicylic acid; Thiophenol-2-carboxylic acid; Thiosalicylate; Thiosalicylic acid

$$$$
