UDT
     RDKit          3D

 14 13  0  0  0  0  0  0  0  0999 V2000
    1.0875    0.0225    0.1544 C   0  0  0  0  0  0  0  0  0  0  0  0
    0.6444    1.4766    0.1473 C   0  0  0  0  0  0  0  0  0  0  0  0
    1.1352    2.1601   -1.1278 C   0  0  0  0  0  0  0  0  0  0  0  0
    0.5770    1.4374   -2.3613 C   0  0  0  0  0  0  0  0  0  0  0  0
   -0.9625    1.3740   -2.2988 C   0  0  0  0  0  0  0  0  0  0  0  0
   -1.5356    2.7724   -2.2275 C   0  0  0  0  0  0  0  0  0  0  0  0
   -1.0408    3.5018   -3.4437 C   0  0  0  0  0  0  0  0  0  0  0  0
   -1.5291    2.8271   -4.7632 C   0  0  0  0  0  0  0  0  0  0  0  0
   -3.0310    2.9884   -4.9061 C   0  0  0  0  0  0  0  0  0  0  0  0
   -3.4008    4.4740   -4.9378 C   0  0  0  0  0  0  0  0  0  0  0  0
   -2.9071    5.1451   -6.1515 O   0  0  0  0  0  0  0  0  0  0  0  0
   -1.7085    5.6470   -6.5821 C   0  0  0  0  0  0  0  0  0  0  0  0
   -1.5893    6.0253   -7.7544 O   0  0  0  0  0  0  0  0  0  0  0  0
   -0.2878    5.8099   -5.5931 S   0  0  0  0  0  0  0  0  0  0  0  0
  1  2  1  0
  2  3  1  0
  3  4  1  0
  4  5  1  0
  5  6  1  0
  6  7  1  0
  7  8  1  0
  8  9  1  0
  9 10  1  0
 10 11  1  0
 11 12  1  0
 12 14  1  0
 12 13  2  0
M  END
>  <DRUGBANK_ID>  (1) 
DB08684

>  <COMMON_NAME>  (1) 
O-Decyl Hydrogen Thiocarbonate

$$$$
