
     RDKit          3D

 18 18  0  0  1  0  0  0  0  0999 V2000
    1.0081   -0.0869    0.1068 O   0  0  0  0  0  0  0  0  0  0  0  0
    1.7615    2.1273    1.5758 O   0  0  0  0  0  0  0  0  0  0  0  0
   -2.9754    2.4206    0.8259 O   0  0  0  0  0  0  0  0  0  0  0  0
   -0.6800    3.6117    1.4781 O   0  0  0  0  0  0  0  0  0  0  0  0
    1.7219   -2.0303    2.1296 O   0  0  0  0  0  0  0  0  0  0  0  0
   -1.7453    2.8997   -1.6114 O   0  0  0  0  0  0  0  0  0  0  0  0
   -1.8455   -1.0870   -3.5066 O   0  0  0  0  0  0  0  0  0  0  0  0
   -1.6164    0.0416   -0.8093 N   0  0  0  0  0  0  0  0  0  0  0  0
    0.5280    0.0238    1.4636 C   0  0  2  0  0  0  0  0  0  0  0  0
   -1.9434    0.1590    0.6335 C   0  0  1  0  0  0  0  0  0  0  0  0
   -0.8843   -0.6280    1.4814 C   0  0  0  0  0  0  0  0  0  0  0  0
    0.4905    1.5167    1.8685 C   0  0  2  0  0  0  0  0  0  0  0  0
   -1.9380    1.5714    1.2744 C   0  0  1  0  0  0  0  0  0  0  0  0
   -0.5752    2.2461    1.0804 C   0  0  1  0  0  0  0  0  0  0  0  0
    1.5274   -0.6565    2.4211 C   0  0  0  0  0  0  0  0  0  0  0  0
   -2.5513    0.5741   -1.8321 C   0  0  0  0  0  0  0  0  0  0  0  0
   -2.8854    2.0783   -1.8506 C   0  0  0  0  0  0  0  0  0  0  0  0
   -1.9941    0.2999   -3.2541 C   0  0  0  0  0  0  0  0  0  0  0  0
  5 15  1  0
  6 17  1  0
  7 18  1  0
  8 16  1  0
  9  1  1  6
  9 11  1  0
  9 12  1  0
  9 15  1  0
 10  8  1  6
 10 11  1  0
 10 13  1  0
 12 14  1  0
 12  2  1  6
 13  3  1  6
 13 14  1  0
 14  4  1  1
 16 17  1  0
 16 18  1  0
M  END
>  <DRUGBANK_ID>  (1) 
DB04878

>  <COMMON_NAME>  (1) 
Voglibose

>  <CAS_NUMBER>  (1) 
83480-29-9

>  <UNII>  (1) 
S77P977AG8

>  <SYNONYMS>  (1) 
Voglibosa; Voglibose; Voglibosum

$$$$
