
     RDKit          3D

 33 36  0  0  1  0  0  0  0  0999 V2000
   -2.4785    1.5642    0.9901 C   0  0  0  0  0  0  0  0  0  0  0  0
   -3.0915    1.5682   -0.4044 C   0  0  0  0  0  0  0  0  0  0  0  0
   -2.9659   -0.9369   -0.4586 C   0  0  0  0  0  0  0  0  0  0  0  0
   -1.3445   -2.2001    1.0361 C   0  0  0  0  0  0  0  0  0  0  0  0
   -1.5147    0.3727    1.2432 C   0  0  2  0  0  0  0  0  0  0  0  0
    0.5415    1.8287    0.5475 C   0  0  0  0  0  0  0  0  0  0  0  0
    2.9204   -1.7248   -0.3421 C   0  0  0  0  0  0  0  0  0  0  0  0
    4.0928   -1.0693   -1.0492 C   0  0  0  0  0  0  0  0  0  0  0  0
   -1.1662    0.4012    2.7562 C   0  0  0  0  0  0  0  0  0  0  0  0
   -0.2242    0.4800    0.3652 C   0  0  1  0  0  0  0  0  0  0  0  0
    0.6854   -0.7751    0.5516 C   0  0  2  0  0  0  0  0  0  0  0  0
    1.9077   -0.6040   -0.3326 C   0  0  1  0  0  0  0  0  0  0  0  0
    2.7125    0.6532    0.0535 C   0  0  1  0  0  0  0  0  0  0  0  0
    3.0233    0.7193    1.5666 C   0  0  0  0  0  0  0  0  0  0  0  0
   -3.8602    0.2776   -0.6565 C   0  0  2  0  0  0  0  0  0  0  0  0
   -4.3558    0.2763   -1.9926 O   0  0  0  0  0  0  0  0  0  0  0  0
   -0.0297   -2.1021    0.2721 C   0  0  2  0  0  0  0  0  0  0  0  0
   -0.2367   -2.3310   -1.1159 O   0  0  0  0  0  0  0  0  0  0  0  0
   -2.2586   -0.9627    0.9111 C   0  0  1  0  0  0  0  0  0  0  0  0
    6.1483   -0.6977    1.2617 C   0  0  0  0  0  0  0  0  0  0  0  0
    5.9100    0.7932    0.9985 C   0  0  0  0  0  0  0  0  0  0  0  0
    7.1843   -1.3502    0.3720 C   0  0  0  0  0  0  0  0  0  0  0  0
    7.0145   -1.6225   -0.8261 O   0  0  0  0  0  0  0  0  0  0  0  0
    3.9837    0.4655   -0.8312 C   0  0  1  0  0  0  0  0  0  0  0  0
    1.8616    1.9054   -0.2433 C   0  0  1  0  0  0  0  0  0  0  0  0
    1.5617    2.0836   -1.6235 O   0  0  0  0  0  0  0  0  0  0  0  0
    5.2716    1.2124   -0.3647 C   0  0  2  0  0  0  0  0  0  0  0  0
    6.3486    1.1515   -1.4537 C   0  0  0  0  0  0  0  0  0  0  0  0
    8.3432   -1.6856    0.9687 N   0  0  0  0  0  0  0  0  0  0  0  0
    9.5119   -1.9406    0.1316 C   0  0  0  0  0  0  0  0  0  0  0  0
   10.7535   -1.1431    0.5559 C   0  0  0  0  0  0  0  0  0  0  0  0
   10.6236    0.1162    0.5427 O   0  0  0  0  0  0  0  0  0  0  0  0
   11.7376   -1.8486    0.9164 O   0  0  0  0  0  0  0  0  0  0  0  0
  2  1  1  0
  4 17  1  0
  5 10  1  0
  5  9  1  1
  5  1  1  0
  6 25  1  0
  8  7  1  0
 10  6  1  1
 10 11  1  0
 11 12  1  0
 11 17  1  6
 12 13  1  0
 12  7  1  1
 13 24  1  0
 13 25  1  0
 13 14  1  1
 15  3  1  0
 15  2  1  0
 15 16  1  6
 17 18  1  6
 19  5  1  0
 19  3  1  6
 19  4  1  0
 20 21  1  0
 20 22  1  0
 22 29  1  0
 22 23  2  0
 24  8  1  1
 24 27  1  0
 25 26  1  6
 27 21  1  0
 27 28  1  6
 29 30  1  0
 30 31  1  0
 31 33  1  0
 31 32  2  0
M  CHG  1  33  -1
M  END
>  <DRUGBANK_ID>  (1) 
DB02691

>  <SECONDARY_ACCESSION_NUMBERS>  (1) 
EXPT01558

>  <COMMON_NAME>  (1) 
Glycocholic acid

>  <CAS_NUMBER>  (1) 
475-31-0

>  <UNII>  (1) 
G59NX3I3RT

>  <SYNONYMS>  (1) 
N-choloylglycine

$$$$
