
     RDKit          3D

 28 30  0  0  0  0  0  0  0  0999 V2000
    0.0252   -0.1373    0.3858 C   0  0  0  0  0  0  0  0  0  0  0  0
    0.6961    0.5420   -2.6680 C   0  0  0  0  0  0  0  0  0  0  0  0
   -0.0531   -1.6633    0.2529 C   0  0  0  0  0  0  0  0  0  0  0  0
    4.0383    1.7295    1.5921 C   0  0  0  0  0  0  0  0  0  0  0  0
    1.8547    0.3305   -8.2724 C   0  0  0  0  0  0  0  0  0  0  0  0
    4.9480    0.6655    1.5766 C   0  0  0  0  0  0  0  0  0  0  0  0
    2.7178    1.4399    1.9113 C   0  0  0  0  0  0  0  0  0  0  0  0
    1.7378   -0.6640   -7.2993 C   0  0  0  0  0  0  0  0  0  0  0  0
    1.9743    1.6809   -7.9284 C   0  0  0  0  0  0  0  0  0  0  0  0
    4.5113   -0.6977    1.7419 C   0  0  0  0  0  0  0  0  0  0  0  0
    2.3246    0.1090    2.2567 C   0  0  0  0  0  0  0  0  0  0  0  0
    1.6841   -0.2899   -5.9695 C   0  0  0  0  0  0  0  0  0  0  0  0
    2.0120    2.0527   -6.6145 C   0  0  0  0  0  0  0  0  0  0  0  0
    4.7962   -0.5484   -1.9819 C   0  0  0  0  0  0  0  0  0  0  0  0
    2.9470    0.0665   -0.8455 C   0  0  0  0  0  0  0  0  0  0  0  0
    4.0746   -1.8516   -2.4621 C   0  0  0  0  0  0  0  0  0  0  0  0
    2.2908   -1.2281   -1.3095 C   0  0  0  0  0  0  0  0  0  0  0  0
    3.2087    1.5263   -2.5113 C   0  0  0  0  0  0  0  0  0  0  0  0
    3.2222   -2.9913   -0.2048 C   0  0  0  0  0  0  0  0  0  0  0  0
    2.0575    0.8589   -3.2826 C   0  0  0  0  0  0  0  0  0  0  0  0
    3.1311   -1.0041    1.9284 C   0  0  0  0  0  0  0  0  0  0  0  0
    1.7718    1.0881   -5.6696 C   0  0  0  0  0  0  0  0  0  0  0  0
    2.4329   -2.3348    1.2419 C   0  0  0  0  0  0  0  0  0  0  0  0
    1.5938    1.6692   -4.3651 C   0  0  0  0  0  0  0  0  0  0  0  0
    3.9712    0.6305   -1.6376 N   0  0  0  0  0  0  0  0  0  0  0  0
    3.0510   -2.3860   -1.5526 N   0  0  0  0  0  0  0  0  0  0  0  0
    0.9823    2.7540   -4.1823 O   0  0  0  0  0  0  0  0  0  0  0  0
    0.8609   -2.3627    1.2213 O   0  0  0  0  0  0  0  0  0  0  0  0
  3  1  1  0
  6  4  2  0
  7  4  1  0
  8  5  2  0
  9  5  1  0
 10  6  1  0
 11  7  2  0
 12  8  1  0
 13  9  2  0
 16 14  1  0
 17 15  1  0
 20  2  1  0
 20 18  1  0
 21 10  2  0
 21 11  1  0
 22 12  2  0
 22 13  1  0
 23 19  1  0
 23 21  1  0
 24 20  1  0
 24 22  1  0
 25 14  1  0
 25 15  1  0
 25 18  1  0
 26 16  1  0
 26 17  1  0
 26 19  1  0
 27 24  2  0
 28  3  1  0
 28 23  1  0
M  END
>  <DRUGBANK_ID>  (1) 
DB08990

>  <COMMON_NAME>  (1) 
Eprazinone

>  <CAS_NUMBER>  (1) 
10402-90-1

>  <UNII>  (1) 
883YNL63WU

>  <SYNONYMS>  (1) 
eprazinona; Eprazinone; Ã‰prazinone

$$$$
