T12
     RDKit          3D

 32 34  0  0  0  0  0  0  0  0999 V2000
    1.1374   -0.0637   -0.0740 O   0  0  0  0  0  0  0  0  0  0  0  0
    2.3750   -0.1239   -0.0915 N   0  0  0  0  0  0  0  0  0  0  0  0
    3.0533   -0.9908    0.4782 O   0  0  0  0  0  0  0  0  0  0  0  0
    3.1027    0.9385   -0.7986 C   0  0  0  0  0  0  0  0  0  0  0  0
    4.2020    0.6637   -1.5937 C   0  0  0  0  0  0  0  0  0  0  0  0
    4.9175    1.7410   -2.1661 C   0  0  0  0  0  0  0  0  0  0  0  0
    4.5637    3.0961   -1.9620 C   0  0  0  0  0  0  0  0  0  0  0  0
    2.7667    2.2698   -0.5644 C   0  0  0  0  0  0  0  0  0  0  0  0
    3.5457    3.3885   -1.0828 C   0  0  0  0  0  0  0  0  0  0  0  0
    3.1419    4.7431   -0.5729 C   0  0  0  0  0  0  0  0  0  0  0  0
    1.9778    4.5617   -0.2380 O   0  0  0  0  0  0  0  0  0  0  0  0
    3.7923    6.1076   -0.5062 N   0  0  0  0  0  0  0  0  0  0  0  0
    3.2853    7.5008    0.1727 C   0  0  0  0  0  0  0  0  0  0  0  0
    3.1748    8.5847   -0.5758 N   0  0  0  0  0  0  0  0  0  0  0  0
    2.1653    9.3822   -0.0542 C   0  0  0  0  0  0  0  0  0  0  0  0
    1.5956   10.4389   -0.7553 C   0  0  0  0  0  0  0  0  0  0  0  0
    0.5445   11.2322   -0.5924 C   0  0  0  0  0  0  0  0  0  0  0  0
    0.2977   11.8623   -1.8521 O   0  0  0  0  0  0  0  0  0  0  0  0
    0.7828   11.4878   -3.2267 C   0  0  0  0  0  0  0  0  0  0  0  0
    0.6451   12.3465   -4.1269 O   0  0  0  0  0  0  0  0  0  0  0  0
    1.5310   10.0570   -3.6678 C   0  0  0  0  0  0  0  0  0  0  0  0
    1.8102    8.8523   -2.7977 C   0  0  0  0  0  0  0  0  0  0  0  0
    0.6631    9.3204   -4.6736 C   0  0  0  0  0  0  0  0  0  0  0  0
    2.9766   10.3798   -4.1716 C   0  0  0  0  0  0  0  0  0  0  0  0
    0.1857   11.2846    0.7324 C   0  0  0  0  0  0  0  0  0  0  0  0
    1.7102    9.1445    1.2004 C   0  0  0  0  0  0  0  0  0  0  0  0
    0.6938   10.1793    1.6781 C   0  0  0  0  0  0  0  0  0  0  0  0
    2.4991    7.9360    1.3784 N   0  0  0  0  0  0  0  0  0  0  0  0
    2.2974    6.8434    2.2629 C   0  0  0  0  0  0  0  0  0  0  0  0
    1.1337    5.9988    1.7240 C   0  0  0  0  0  0  0  0  0  0  0  0
    0.3781    6.4137    0.3609 C   0  0  0  0  0  0  0  0  0  0  0  0
    1.2010    6.6190   -0.7592 O   0  0  0  0  0  0  0  0  0  0  0  0
  1  2  1  0
  2  3  2  0
  2  4  1  0
  4  8  2  0
  4  5  1  0
  5  6  2  0
  6  7  1  0
  7  9  2  0
  8  9  1  0
  9 10  1  0
 10 12  1  0
 10 11  2  0
 12 13  1  0
 13 28  1  0
 13 14  2  0
 14 15  1  0
 15 16  2  0
 15 26  1  0
 16 17  1  0
 17 18  1  0
 17 25  2  0
 18 19  1  0
 19 21  1  0
 19 20  2  0
 21 23  1  0
 21 24  1  0
 21 22  1  0
 25 27  1  0
 26 27  2  0
 26 28  1  0
 28 29  1  0
 29 30  1  0
 30 31  1  0
 31 32  1  0
M  CHG  2   1  -1   2   1
M  END
>  <DRUGBANK_ID>  (1) 
DB08590

>  <COMMON_NAME>  (1) 
1-(3-HYDROXYPROPYL)-2-[(3-NITROBENZOYL)AMINO]-1H-BENZIMIDAZOL-5-YL PIVALATE

>  <UNII>  (1) 
QOL8WS9UXV

$$$$
