
     RDKit          3D

 23 26  0  0  0  0  0  0  0  0999 V2000
   -0.2466    0.5382    1.1590 C   0  0  1  0  0  0  0  0  0  0  0  0
    1.0637   -1.2593    0.0267 C   0  0  2  0  0  0  0  0  0  0  0  0
    0.3535   -0.8780   -1.2689 C   0  0  0  0  0  0  0  0  0  0  0  0
   -0.2646    0.5033   -1.1552 C   0  0  1  0  0  0  0  0  0  0  0  0
   -1.1596    0.5971    0.0065 N   0  0  0  0  0  0  0  0  0  0  0  0
    0.3882   -0.8315    1.3204 C   0  0  0  0  0  0  0  0  0  0  0  0
    0.8179    1.5237   -0.7940 C   0  0  0  0  0  0  0  0  0  0  0  0
    0.8256    1.5523    0.7418 C   0  0  0  0  0  0  0  0  0  0  0  0
    3.3872   -1.9818   -0.0516 C   0  0  0  0  0  0  0  0  0  0  0  0
    2.4388   -0.8944   -0.0142 O   0  0  0  0  0  0  0  0  0  0  0  0
    3.3820   -2.7798    1.2557 C   0  0  0  0  0  0  0  0  0  0  0  0
    3.3153   -2.8198   -1.3274 C   0  0  0  0  0  0  0  0  0  0  0  0
    4.4931   -2.7740    2.1033 C   0  0  0  0  0  0  0  0  0  0  0  0
    4.4124   -3.3660    3.3697 C   0  0  0  0  0  0  0  0  0  0  0  0
    3.2034   -3.8828    3.8389 C   0  0  0  0  0  0  0  0  0  0  0  0
    2.1032   -3.9068    3.0102 C   0  0  0  0  0  0  0  0  0  0  0  0
    2.2453   -3.4792    1.7018 C   0  0  0  0  0  0  0  0  0  0  0  0
    4.4591   -3.0309   -2.0947 C   0  0  0  0  0  0  0  0  0  0  0  0
    4.4055   -3.8591   -3.2268 C   0  0  0  0  0  0  0  0  0  0  0  0
    3.2065   -4.4662   -3.6121 C   0  0  0  0  0  0  0  0  0  0  0  0
    2.0685   -4.2622   -2.8806 C   0  0  0  0  0  0  0  0  0  0  0  0
    2.1332   -3.4558   -1.7565 C   0  0  0  0  0  0  0  0  0  0  0  0
   -2.2589   -0.3593    0.0143 C   0  0  0  0  0  0  0  0  0  0  0  0
  1  6  1  6
  1  8  1  0
  2  3  1  0
  2 10  1  6
  4  3  1  1
  4  5  1  0
  4  7  1  0
  5  1  1  0
  5 23  1  0
  6  2  1  0
  7  8  1  0
  9 11  1  0
  9 12  1  0
 10  9  1  0
 11 13  2  0
 12 18  2  0
 13 14  1  0
 14 15  2  0
 15 16  1  0
 16 17  2  0
 17 11  1  0
 18 19  1  0
 19 20  2  0
 20 21  1  0
 21 22  2  0
 22 12  1  0
M  END
>  <DRUGBANK_ID>  (1) 
DB00245

>  <SECONDARY_ACCESSION_NUMBERS>  (1) 
APRD00748

>  <COMMON_NAME>  (1) 
Benzatropine

>  <CAS_NUMBER>  (1) 
86-13-5

>  <UNII>  (1) 
1NHL2J4X8K

>  <SYNONYMS>  (1) 
3-alpha-(diphenylmethoxy)tropane; 3endo-benzhydryloxytropane; 3α-(diphenylmethoxy)-1αH,5αH-tropane; 3α-(diphenylmethoxy)tropane; 3α-benzhydryloxy-8-methyl-8-azabicyclo[3.2.1]octane; Benzatropina; Benzatropine; Benzatropinum; benzhydryl 8-methyl-8-azabicyclo[3.2.1]oct-3-yl ether; Benztropine; Tropine benzohydryl ether

$$$$
