
     RDKit          3D

 18 19  0  0  1  0  0  0  0  0999 V2000
    1.5189   -0.2181    0.0126 C   0  0  0  0  0  0  0  0  0  0  0  0
    0.5991   -1.4561   -0.0393 C   0  0  0  0  0  0  0  0  0  0  0  0
    1.1086   -2.4604   -0.7625 C   0  0  0  0  0  0  0  0  0  0  0  0
    0.1744   -3.5134   -1.2255 C   0  0  2  0  0  0  0  0  0  0  0  0
   -1.2147   -2.8450   -1.7091 C   0  0  0  0  0  0  0  0  0  0  0  0
   -1.7503   -2.5489   -0.4103 N   0  0  0  0  0  0  0  0  0  0  0  0
   -0.9624   -1.4822    0.3593 C   0  0  2  0  0  0  0  0  0  0  0  0
   -1.1768    0.0411    0.4242 C   0  0  0  0  0  0  0  0  0  0  0  0
   -0.9927    0.7589   -0.7366 N   0  0  0  0  0  0  0  0  0  0  0  0
   -1.0355    0.6327    1.5018 O   0  0  0  0  0  0  0  0  0  0  0  0
   -1.6331   -3.9458    0.0997 C   0  0  0  0  0  0  0  0  0  0  0  0
   -2.4294   -4.8546   -0.1576 O   0  0  0  0  0  0  0  0  0  0  0  0
   -0.2891   -4.2853   -0.0592 N   0  0  0  0  0  0  0  0  0  0  0  0
    0.4963   -4.7133    1.0446 O   0  0  0  0  0  0  0  0  0  0  0  0
   -0.2996   -4.9568    2.4959 S   0  0  0  0  0  0  0  0  0  0  0  0
   -0.6548   -3.4488    2.9453 O   0  0  0  0  0  0  0  0  0  0  0  0
   -1.5675   -5.6460    2.2916 O   0  0  0  0  0  0  0  0  0  0  0  0
    0.6285   -5.4351    3.4821 O   0  0  0  0  0  0  0  0  0  0  0  0
  1  2  1  0
  2  3  2  0
  4  3  1  1
  4  5  1  0
  4 13  1  0
  6  5  1  0
  6  7  1  0
  6 11  1  0
  7  2  1  0
  7  8  1  6
  8  9  1  0
  8 10  2  0
 11 13  1  0
 11 12  2  0
 13 14  1  0
 14 15  1  0
 15 16  1  0
 15 17  2  0
 15 18  2  0
M  END
>  <DRUGBANK_ID>  (1) 
DB16704

>  <COMMON_NAME>  (1) 
Durlobactam

>  <CAS_NUMBER>  (1) 
1467829-71-5

>  <UNII>  (1) 
PSA33KO9WA

>  <SYNONYMS>  (1) 
(2S,5R)-2-CARBAMOYL-3-METHYL-7-OXO-1,6-DIAZABICYCLO(3.2.1)OCT-3-EN-6-YL SULFATE; Durlobactam; SULFURIC ACID, MONO((2S,5R)-2-(AMINOCARBONYL)-3-METHYL-7-OXO-1,6-DIAZABICYCLO(3.2.1)OCT-3-EN-6-YL) ESTER

$$$$
