4BS
     RDKit          3D

 21 22  0  0  0  0  0  0  0  0999 V2000
    1.2889    0.6033    0.0701 N   0  0  0  0  0  0  0  0  0  0  0  0
    1.2232    1.2525    1.3674 C   0  0  0  0  0  0  0  0  0  0  0  0
    1.1856    2.7078    1.1366 C   0  0  0  0  0  0  0  0  0  0  0  0
    0.3671    3.0395   -0.1232 C   0  0  0  0  0  0  0  0  0  0  0  0
   -1.1647    2.7756   -0.1529 C   0  0  0  0  0  0  0  0  0  0  0  0
   -1.8930    3.8068   -0.0113 O   0  0  0  0  0  0  0  0  0  0  0  0
   -1.8404    1.5970   -0.4940 N   0  0  0  0  0  0  0  0  0  0  0  0
   -1.5599    0.2073   -0.2151 C   0  0  0  0  0  0  0  0  0  0  0  0
   -1.1578   -0.1722    1.0435 C   0  0  0  0  0  0  0  0  0  0  0  0
   -0.3341   -1.3321    1.2712 C   0  0  0  0  0  0  0  0  0  0  0  0
   -0.1212   -2.2550    0.2679 C   0  0  0  0  0  0  0  0  0  0  0  0
   -1.0135   -2.1088   -0.8084 C   0  0  0  0  0  0  0  0  0  0  0  0
   -1.6965   -0.8666   -1.0876 C   0  0  0  0  0  0  0  0  0  0  0  0
    0.8269   -3.2542    0.2072 O   0  0  0  0  0  0  0  0  0  0  0  0
    2.0396   -3.3611    1.0401 C   0  0  0  0  0  0  0  0  0  0  0  0
    3.2606   -2.4964    0.6866 C   0  0  0  0  0  0  0  0  0  0  0  0
    3.1244   -1.1533    0.9249 C   0  0  0  0  0  0  0  0  0  0  0  0
    4.0559   -0.1488    0.6124 C   0  0  0  0  0  0  0  0  0  0  0  0
    5.2751   -0.5058    0.1231 C   0  0  0  0  0  0  0  0  0  0  0  0
    5.5427   -1.8679    0.0378 C   0  0  0  0  0  0  0  0  0  0  0  0
    4.5404   -2.8576    0.2781 C   0  0  0  0  0  0  0  0  0  0  0  0
  1  2  1  0
  2  3  1  0
  3  4  1  0
  4  5  1  0
  5  6  2  0
  5  7  1  0
  7  8  1  0
  8  9  2  0
  8 13  1  0
  9 10  1  0
 10 11  2  0
 11 12  1  0
 11 14  1  0
 12 13  2  0
 14 15  1  0
 15 16  1  0
 16 17  2  0
 16 21  1  0
 17 18  1  0
 18 19  2  0
 19 20  1  0
 20 21  2  0
M  END
>  <DRUGBANK_ID>  (1) 
DB07104

>  <COMMON_NAME>  (1) 
4-amino-N-[4-(benzyloxy)phenyl]butanamide

>  <UNII>  (1) 
2SXE223PVW

$$$$
