
     RDKit          3D

 37 42  0  0  0  0  0  0  0  0999 V2000
    0.8574   -0.3079   -0.1811 C   0  0  0  0  0  0  0  0  0  0  0  0
   -0.0095    4.8888    5.8318 C   0  0  0  0  0  0  0  0  0  0  0  0
    5.6774    4.1514   -3.8433 C   0  0  0  0  0  0  0  0  0  0  0  0
   -0.0602    4.3228    4.5922 C   0  0  0  0  0  0  0  0  0  0  0  0
    4.7789    4.1439   -2.8061 C   0  0  0  0  0  0  0  0  0  0  0  0
   -0.9094    5.1804    1.1380 C   0  0  0  0  0  0  0  0  0  0  0  0
    3.9727    5.9496    0.3336 C   0  0  0  0  0  0  0  0  0  0  0  0
   -0.9498    6.5669    1.2560 C   0  0  0  0  0  0  0  0  0  0  0  0
    4.9630    6.9192    0.2383 C   0  0  0  0  0  0  0  0  0  0  0  0
    0.3415   -0.5322    1.3005 C   0  0  0  0  0  0  0  0  0  0  0  0
    0.4633    1.0707   -0.7383 C   0  0  0  0  0  0  0  0  0  0  0  0
   -0.3504    0.8251    3.2903 C   0  0  0  0  0  0  0  0  0  0  0  0
    1.6628    1.4081    2.2217 C   0  0  0  0  0  0  0  0  0  0  0  0
    2.5203    1.7588   -1.7676 C   0  0  0  0  0  0  0  0  0  0  0  0
    0.7336    3.3794   -1.7355 C   0  0  0  0  0  0  0  0  0  0  0  0
   -1.1824    1.9427    2.5818 C   0  0  0  0  0  0  0  0  0  0  0  0
    0.9907    2.7180    1.7297 C   0  0  0  0  0  0  0  0  0  0  0  0
    3.2906    2.5730   -0.6767 C   0  0  0  0  0  0  0  0  0  0  0  0
    1.5360    4.3674   -0.8097 C   0  0  0  0  0  0  0  0  0  0  0  0
   -0.4990    7.0250    4.7848 C   0  0  0  0  0  0  0  0  0  0  0  0
    6.6575    6.1026   -2.8271 C   0  0  0  0  0  0  0  0  0  0  0  0
   -0.2500    6.2466    5.9240 C   0  0  0  0  0  0  0  0  0  0  0  0
    6.6238    5.1561   -3.8527 C   0  0  0  0  0  0  0  0  0  0  0  0
   -0.4185    5.0682    3.4655 C   0  0  0  0  0  0  0  0  0  0  0  0
    4.8097    5.0419   -1.7355 C   0  0  0  0  0  0  0  0  0  0  0  0
   -0.5818    6.4624    3.5266 C   0  0  0  0  0  0  0  0  0  0  0  0
    5.7817    6.0734   -1.7515 C   0  0  0  0  0  0  0  0  0  0  0  0
   -0.6057    4.4053    2.2667 C   0  0  0  0  0  0  0  0  0  0  0  0
    3.8969    4.9826   -0.6675 C   0  0  0  0  0  0  0  0  0  0  0  0
   -0.2359    6.9613    7.4804 Cl  0  0  0  0  0  0  0  0  0  0  0  0
    7.7327    5.2181   -5.1586 Cl  0  0  0  0  0  0  0  0  0  0  0  0
   -0.8083    7.2107    2.4302 N   0  0  0  0  0  0  0  0  0  0  0  0
    5.8498    6.9898   -0.7796 N   0  0  0  0  0  0  0  0  0  0  0  0
    0.7625    0.2869    2.4718 N   0  0  0  0  0  0  0  0  0  0  0  0
    1.0479    1.8861   -1.8206 N   0  0  0  0  0  0  0  0  0  0  0  0
   -0.2900    3.0555    2.2789 N   0  0  0  0  0  0  0  0  0  0  0  0
    2.9242    3.9868   -0.6295 N   0  0  0  0  0  0  0  0  0  0  0  0
  4  2  2  0
  5  3  2  0
  8  6  1  0
  9  7  1  0
 10  1  1  0
 11  1  1  0
 16 12  1  0
 17 13  1  0
 18 14  1  0
 19 15  1  0
 22  2  1  0
 22 20  2  0
 23  3  1  0
 23 21  2  0
 24  4  1  0
 25  5  1  0
 26 20  1  0
 26 24  2  0
 27 21  1  0
 27 25  2  0
 28  6  2  0
 28 24  1  0
 29  7  2  0
 29 25  1  0
 30 22  1  0
 31 23  1  0
 32  8  2  0
 32 26  1  0
 33  9  2  0
 33 27  1  0
 34 10  1  0
 34 12  1  0
 34 13  1  0
 35 11  1  0
 35 14  1  0
 35 15  1  0
 36 16  1  0
 36 17  1  0
 36 28  1  0
 37 18  1  0
 37 19  1  0
 37 29  1  0
M  END
>  <DRUGBANK_ID>  (1) 
DB13941

>  <COMMON_NAME>  (1) 
Piperaquine

>  <CAS_NUMBER>  (1) 
4085-31-8

>  <UNII>  (1) 
A0HV2Q956Y

>  <SYNONYMS>  (1) 
1,3-bis[4-(7-chloroquinolin-4-yl)piperazin-1-yl]propane

$$$$
