LK3
     RDKit          3D

 29 30  0  0  0  0  0  0  0  0999 V2000
    1.0450   -0.1003   -0.3988 O   0  0  0  0  0  0  0  0  0  0  0  0
    2.4441    0.0152   -0.0361 S   0  0  0  0  0  0  0  0  0  0  0  0
    2.8194   -0.0011    1.3519 O   0  0  0  0  0  0  0  0  0  0  0  0
    3.2140   -1.3010   -0.8270 N   0  0  0  0  0  0  0  0  0  0  0  0
    4.7001   -1.4340   -0.8295 C   0  0  1  0  0  0  0  0  0  0  0  0
    5.3438   -1.4925    0.5587 C   0  0  0  0  0  0  0  0  0  0  0  0
    5.9994   -2.6209    0.8963 O   0  0  0  0  0  0  0  0  0  0  0  0
    5.3404   -0.5413    1.3271 O   0  0  0  0  0  0  0  0  0  0  0  0
    5.1244   -2.5921   -1.7735 C   0  0  0  0  0  0  0  0  0  0  0  0
    4.6628   -2.5338   -3.2393 C   0  0  0  0  0  0  0  0  0  0  0  0
    5.3093   -1.4583   -4.0690 C   0  0  0  0  0  0  0  0  0  0  0  0
    6.0043   -1.6069   -5.0763 O   0  0  0  0  0  0  0  0  0  0  0  0
    5.0528   -0.2434   -3.6290 O   0  0  0  0  0  0  0  0  0  0  0  0
    3.0172    1.5075   -0.7913 C   0  0  0  0  0  0  0  0  0  0  0  0
    3.7202    1.4868   -1.9835 C   0  0  0  0  0  0  0  0  0  0  0  0
    4.1768    2.6058   -2.6872 C   0  0  0  0  0  0  0  0  0  0  0  0
    3.8141    3.8365   -2.2269 C   0  0  0  0  0  0  0  0  0  0  0  0
    4.1202    5.0123   -2.9704 C   0  0  0  0  0  0  0  0  0  0  0  0
    3.8090    6.2219   -2.4223 C   0  0  0  0  0  0  0  0  0  0  0  0
    3.3784    6.1401   -1.1242 C   0  0  0  0  0  0  0  0  0  0  0  0
    2.8384    5.0554   -0.4516 C   0  0  0  0  0  0  0  0  0  0  0  0
    3.0981    3.8519   -0.9889 C   0  0  0  0  0  0  0  0  0  0  0  0
    2.7021    2.7242   -0.2615 C   0  0  0  0  0  0  0  0  0  0  0  0
    3.9147    7.4082   -3.0951 O   0  0  0  0  0  0  0  0  0  0  0  0
    3.4007    8.6453   -2.5063 C   0  0  0  0  0  0  0  0  0  0  0  0
    1.8580    8.7951   -2.4038 C   0  0  0  0  0  0  0  0  0  0  0  0
    1.1785    7.8903   -1.3683 C   0  0  0  0  0  0  0  0  0  0  0  0
    1.7007    8.1060    0.0848 C   0  0  0  0  0  0  0  0  0  0  0  0
    1.3131    9.4145    0.6764 C   0  0  0  0  0  0  0  0  0  0  0  0
  2  4  1  0
  2 14  1  0
  2  1  2  0
  3  2  2  0
  5  4  1  0
  5  6  1  0
  5  9  1  6
  6  7  1  0
  6  8  2  0
  9 10  1  0
 10 11  1  0
 11 12  2  0
 11 13  1  0
 14 15  2  0
 14 23  1  0
 15 16  1  0
 16 17  2  0
 17 18  1  0
 17 22  1  0
 18 19  2  0
 19 20  1  0
 19 24  1  0
 20 21  2  0
 21 22  1  0
 22 23  2  0
 24 25  1  0
 25 26  1  0
 26 27  1  0
 27 28  1  0
 28 29  1  0
M  END
>  <DRUGBANK_ID>  (1) 
DB08107

>  <COMMON_NAME>  (1) 
N-{[6-(PENTYLOXY)NAPHTHALEN-2-YL]SULFONYL}-D-GLUTAMIC ACID

$$$$
