
     RDKit          3D

 13 12  0  0  0  0  0  0  0  0999 V2000
    0.9526   -0.0578   -0.0664 P   0  0  2  0  0  0  0  0  0  0  0  0
    0.9364   -0.6563   -1.7121 O   0  0  0  0  0  0  0  0  0  0  0  0
    1.1446   -1.4669    0.7412 O   0  0  0  0  0  0  0  0  0  0  0  0
   -0.5958   -0.0578   -0.0664 O   0  0  0  0  0  0  0  0  0  0  0  0
    2.6826   -0.0578   -0.0664 O   0  0  0  0  0  0  0  0  0  0  0  0
    3.5631    0.8783   -0.7771 C   0  0  0  0  0  0  0  0  0  0  0  0
    3.2170    0.8305   -2.2418 C   0  0  1  0  0  0  0  0  0  0  0  0
    2.0061    1.5303   -2.0580 O   0  0  0  0  0  0  0  0  0  0  0  0
    3.6660    1.6049   -3.4448 C   0  0  0  0  0  0  0  0  0  0  0  0
    5.0524    1.6183   -3.5764 O   0  0  0  0  0  0  0  0  0  0  0  0
    0.2191    0.0050   -2.9021 C   0  0  0  0  0  0  0  0  0  0  0  0
   -0.8168    1.1430   -2.6246 C   0  0  0  0  0  0  0  0  0  0  0  0
   -0.6006    1.9806   -1.4287 N   0  0  0  0  0  0  0  0  0  0  0  0
  2  1  1  0
  1  3  1  1
  4  1  2  0
  5  1  1  0
  6  5  1  0
  7  6  1  0
  7  8  1  1
  9  7  1  0
 10  9  1  0
 11  2  1  0
 12 11  1  0
 13 12  1  0
M  END
>  <DRUGBANK_ID>  (1) 
DB03484

>  <SECONDARY_ACCESSION_NUMBERS>  (1) 
EXPT01637

>  <COMMON_NAME>  (1) 
sn-glycero-3-phosphoethanolamine

>  <CAS_NUMBER>  (1) 
59734-15-5

>  <UNII>  (1) 
966T5WN0AC

>  <SYNONYMS>  (1) 
Glycerophosphoethanolamine

$$$$
