
     RDKit          3D

 42 46  0  0  0  0  0  0  0  0999 V2000
    0.1915    0.0368   -0.1266 C   0  0  0  0  0  0  0  0  0  0  0  0
   -0.4012    1.2828    0.8353 C   0  0  0  0  0  0  0  0  0  0  0  0
   -1.7161    1.5955    0.5719 N   0  0  0  0  0  0  0  0  0  0  0  0
   -2.7346    0.5511    0.2876 C   0  0  1  0  0  0  0  0  0  0  0  0
   -2.3580   -0.2647   -0.9899 C   0  0  0  0  0  0  0  0  0  0  0  0
   -1.0975   -0.9536   -0.8831 N   0  0  0  0  0  0  0  0  0  0  0  0
   -3.4911   -2.0474   -5.1811 C   0  0  0  0  0  0  0  0  0  0  0  0
   -4.5926   -2.4583   -4.4268 C   0  0  0  0  0  0  0  0  0  0  0  0
   -4.3800   -3.3755   -3.3986 C   0  0  0  0  0  0  0  0  0  0  0  0
   -3.0983   -4.0074   -3.2700 C   0  0  0  0  0  0  0  0  0  0  0  0
   -1.9786   -3.5876   -4.0685 C   0  0  0  0  0  0  0  0  0  0  0  0
   -2.2350   -2.6294   -5.0252 C   0  0  0  0  0  0  0  0  0  0  0  0
   -0.6294   -4.0265   -3.9543 O   0  0  0  0  0  0  0  0  0  0  0  0
    0.5050   -3.0799   -4.0321 C   0  0  0  0  0  0  0  0  0  0  0  0
    0.3201   -1.6992   -3.9131 C   0  0  0  0  0  0  0  0  0  0  0  0
    1.3408   -0.7886   -3.4976 C   0  0  0  0  0  0  0  0  0  0  0  0
    2.4695   -1.1802   -2.7444 C   0  0  0  0  0  0  0  0  0  0  0  0
    2.7257   -2.5618   -2.8848 C   0  0  0  0  0  0  0  0  0  0  0  0
    1.7912   -3.4986   -3.5637 C   0  0  0  0  0  0  0  0  0  0  0  0
    3.3757   -0.2355   -1.7887 C   0  0  0  0  0  0  0  0  0  0  0  0
    3.0005    0.7158   -0.6291 N   0  0  0  0  0  0  0  0  0  0  0  0
    2.8516    0.1390    0.6964 C   0  0  0  0  0  0  0  0  0  0  0  0
    1.6640   -0.7093    0.5075 C   0  0  0  0  0  0  0  0  0  0  0  0
    0.6368    0.9436   -1.2014 C   0  0  0  0  0  0  0  0  0  0  0  0
    1.9150    1.6626   -0.8786 C   0  0  0  0  0  0  0  0  0  0  0  0
    0.2262    1.9123    1.6772 O   0  0  0  0  0  0  0  0  0  0  0  0
   -3.1843   -0.4766   -1.8758 O   0  0  0  0  0  0  0  0  0  0  0  0
   -3.3256   -0.3599    1.5926 C   0  0  1  0  0  0  0  0  0  0  0  0
   -2.6456   -1.4549    2.6705 C   0  0  0  0  0  0  0  0  0  0  0  0
   -1.2672   -2.6035   -1.2959 C   0  0  0  0  0  0  0  0  0  0  0  0
   -0.1297   -3.6612   -1.2793 C   0  0  0  0  0  0  0  0  0  0  0  0
    1.2410   -3.6964   -0.6450 C   0  0  0  0  0  0  0  0  0  0  0  0
    1.7279   -4.1720    0.6898 C   0  0  0  0  0  0  0  0  0  0  0  0
   -3.7357    0.6732    2.5138 O   0  0  0  0  0  0  0  0  0  0  0  0
   -1.3082   -0.9682    3.2246 C   0  0  0  0  0  0  0  0  0  0  0  0
   -0.5063   -0.9104    2.0414 C   0  0  0  0  0  0  0  0  0  0  0  0
   -0.3078   -2.1740    1.3405 C   0  0  0  0  0  0  0  0  0  0  0  0
   -1.5536   -2.9030    1.1394 C   0  0  0  0  0  0  0  0  0  0  0  0
   -2.4670   -2.9190    2.2382 C   0  0  0  0  0  0  0  0  0  0  0  0
   -5.9248   -1.9608   -4.9385 C   0  0  0  0  0  0  0  0  0  0  0  0
   -7.0274   -2.4383   -4.2811 O   0  0  0  0  0  0  0  0  0  0  0  0
   -6.0163   -1.2898   -5.9073 O   0  0  0  0  0  0  0  0  0  0  0  0
  1 24  1  0
  1  2  1  0
  1  6  1  0
  2 26  2  0
  2  3  1  0
  4  5  1  0
  4  3  1  1
  4 28  1  0
  5  6  1  0
  5 27  2  0
  6 30  1  0
  7  8  2  0
  8  9  1  0
  8 40  1  0
  9 10  2  0
 10 11  1  0
 11 12  2  0
 11 13  1  0
 12  7  1  0
 13 14  1  0
 14 15  2  0
 15 16  1  0
 16 17  2  0
 17 18  1  0
 17 20  1  0
 18 19  2  0
 19 14  1  0
 20 21  1  0
 21 22  1  0
 21 25  1  0
 22 23  1  0
 23  1  1  0
 24 25  1  0
 28 29  1  0
 28 34  1  1
 29 35  1  0
 29 39  1  0
 30 31  1  0
 31 32  1  0
 32 33  1  0
 35 36  1  0
 36 37  1  0
 37 38  1  0
 38 39  1  0
 40 41  1  0
 40 42  2  0
M  END
>  <DRUGBANK_ID>  (1) 
DB06497

>  <COMMON_NAME>  (1) 
Aplaviroc

>  <CAS_NUMBER>  (1) 
461443-59-4

>  <UNII>  (1) 
98B425P30V

>  <SYNONYMS>  (1) 
Aplaviroc

$$$$
