
     RDKit          3D

  9  8  0  0  0  0  0  0  0  0999 V2000
    1.1880   -1.1507    2.0082 C   0  0  0  0  0  0  0  0  0  0  0  0
    0.3440   -0.0825    2.7270 C   0  0  1  0  0  0  0  0  0  0  0  0
    1.1252    0.8598    3.4592 O   0  0  0  0  0  0  0  0  0  0  0  0
   -0.5469    0.6541    1.7009 C   0  0  2  0  0  0  0  0  0  0  0  0
    0.2271    1.3129    0.6826 O   0  0  0  0  0  0  0  0  0  0  0  0
   -1.3531    1.7669    2.3765 C   0  0  0  0  0  0  0  0  0  0  0  0
   -2.1859    2.4010    1.4025 O   0  0  0  0  0  0  0  0  0  0  0  0
    2.0176   -0.9198    1.1374 O   0  0  0  0  0  0  0  0  0  0  0  0
    0.9887   -2.4191    2.4431 O   0  0  0  0  0  0  0  0  0  0  0  0
  1  2  1  0
  1  8  2  0
  1  9  1  0
  2  3  1  6
  4  6  1  0
  4  5  1  6
  4  2  1  0
  6  7  1  0
M  END
>  <DRUGBANK_ID>  (1) 
DB14228

>  <COMMON_NAME>  (1) 
Threonic acid

>  <CAS_NUMBER>  (1) 
3909-12-4

>  <UNII>  (1) 
NTD0MI8XRT

>  <SYNONYMS>  (1) 
2,3,4-Trihydroxy-(threo)-butanoic acid; DL-threonic acid; Threo-2,3,4-trihydroxybutyric acid

$$$$
