
     RDKit          3D

 17 16  0  0  0  0  0  0  0  0999 V2000
    0.8856    0.0706   -0.0656 C   0  0  0  0  0  0  0  0  0  0  0  0
    0.0808   -0.5432    1.0971 C   0  0  0  0  0  0  0  0  0  0  0  0
   -0.7379    0.5355    1.7955 C   0  0  0  0  0  0  0  0  0  0  0  0
   -1.8092    1.1364    0.9284 C   0  0  0  0  0  0  0  0  0  0  0  0
    0.4215    0.2969   -1.1556 O   0  0  0  0  0  0  0  0  0  0  0  0
    2.2189    0.2045    0.1787 O   0  0  0  0  0  0  0  0  0  0  0  0
   -3.0038    0.9463    1.0693 O   0  0  0  0  0  0  0  0  0  0  0  0
   -1.3181    1.8915   -0.0582 O   0  0  0  0  0  0  0  0  0  0  0  0
   -0.7336   -1.7822    0.5769 C   0  0  0  0  0  0  0  0  0  0  0  0
    0.3185   -3.0184   -0.2679 P   0  0  0  0  0  0  0  0  0  0  0  0
    1.6726   -2.1949    0.1846 O   0  0  0  0  0  0  0  0  0  0  0  0
    0.3342   -3.9327    1.1121 O   0  0  0  0  0  0  0  0  0  0  0  0
    1.2087   -4.0644   -0.9827 O   0  0  0  0  0  0  0  0  0  0  0  0
   -1.6486   -2.5898    1.9405 P   0  0  0  0  0  0  0  0  0  0  0  0
   -2.9295   -1.6121    1.7030 O   0  0  0  0  0  0  0  0  0  0  0  0
   -1.9974   -3.8086    1.0632 O   0  0  0  0  0  0  0  0  0  0  0  0
   -2.5136   -3.3532    3.2296 O   0  0  0  0  0  0  0  0  0  0  0  0
  1  2  1  0
  1  5  2  0
  1  6  1  0
  2  3  1  0
  2  9  1  0
  3  4  1  0
  4  7  2  0
  4  8  1  0
  9 10  1  0
  9 14  1  0
 10 11  1  0
 10 12  1  0
 10 13  2  0
 14 15  1  0
 14 16  2  0
 14 17  1  0
M  END
>  <DRUGBANK_ID>  (1) 
DB16004

>  <COMMON_NAME>  (1) 
Butedronic acid

>  <CAS_NUMBER>  (1) 
51395-42-7

>  <UNII>  (1) 
26PB1U68YF

>  <SYNONYMS>  (1) 
Butedronic acid

$$$$
