
     RDKit          3D

 22 24  0  0  1  0  0  0  0  0999 V2000
    4.6735    1.8551    1.8141 O   0  0  0  0  0  0  0  0  0  0  0  0
    4.9306    2.6223    0.8867 C   0  0  0  0  0  0  0  0  0  0  0  0
    4.0491    3.1228   -0.0444 N   0  0  0  0  0  0  0  0  0  0  0  0
    4.6687    3.8674   -1.1014 C   0  0  0  0  0  0  0  0  0  0  0  0
    5.9974    4.0649   -0.8447 C   0  0  0  0  0  0  0  0  0  0  0  0
    6.5537    3.2466    0.5966 S   0  0  0  0  0  0  0  0  0  0  0  0
    6.6710    4.8614   -1.7209 C   0  0  0  0  0  0  0  0  0  0  0  0
    6.0886    5.4383   -2.7906 N   0  0  0  0  0  0  0  0  0  0  0  0
    4.7949    5.1685   -2.9977 C   0  0  0  0  0  0  0  0  0  0  0  0
    4.0667    4.3685   -2.2037 N   0  0  0  0  0  0  0  0  0  0  0  0
    4.2328    5.7379   -4.1106 N   0  0  0  0  0  0  0  0  0  0  0  0
    2.6707    2.6890   -0.0768 C   0  0  1  0  0  0  0  0  0  0  0  0
    1.7892    2.8840    1.1770 C   0  0  2  0  0  0  0  0  0  0  0  0
    0.6594    1.9217    1.3070 O   0  0  0  0  0  0  0  0  0  0  0  0
   -0.3470    1.4918    0.5034 C   0  0  0  0  0  0  0  0  0  0  0  0
   -0.4747    2.0122   -0.8827 C   0  0  0  0  0  0  0  0  0  0  0  0
   -1.1859    0.6957    0.9198 O   0  0  0  0  0  0  0  0  0  0  0  0
    1.2930    4.3093    1.0404 C   0  0  0  0  0  0  0  0  0  0  0  0
    1.1845    4.4786   -0.4575 C   0  0  2  0  0  0  0  0  0  0  0  0
    2.0242    3.4881   -1.0661 O   0  0  0  0  0  0  0  0  0  0  0  0
    1.4064    5.8397   -1.0815 C   0  0  0  0  0  0  0  0  0  0  0  0
    2.6700    6.4085   -0.8029 O   0  0  0  0  0  0  0  0  0  0  0  0
  1  2  2  0
  2  3  1  0
  2  6  1  0
  3  4  1  0
  4  5  2  0
  4 10  1  0
  5  7  1  0
  6  5  1  0
  7  8  2  0
  9  8  1  0
  9 11  1  0
 10  9  2  0
 12 13  1  0
 12 20  1  0
 12  3  1  1
 13 18  1  0
 13 14  1  6
 14 15  1  0
 15 16  1  0
 15 17  2  0
 18 19  1  0
 19 21  1  1
 20 19  1  0
 21 22  1  0
M  END
>  <DRUGBANK_ID>  (1) 
DB06329

>  <COMMON_NAME>  (1) 
RG-7795

>  <CAS_NUMBER>  (1) 
892498-64-5

>  <UNII>  (1) 
QTI86134YL

$$$$
