
     RDKit          3D

 32 35  0  0  1  0  0  0  0  0999 V2000
    0.8562    0.0815    0.4114 N   0  0  0  0  0  0  0  0  0  0  0  0
    0.2946    1.2982   -0.2147 C   0  0  1  0  0  0  0  0  0  0  0  0
    0.7554    1.5514   -1.6497 C   0  0  0  0  0  0  0  0  0  0  0  0
    0.3235    0.4841   -2.6458 C   0  0  0  0  0  0  0  0  0  0  0  0
    0.7170   -0.8313   -2.4174 C   0  0  0  0  0  0  0  0  0  0  0  0
    0.2537   -1.8975   -3.1669 C   0  0  0  0  0  0  0  0  0  0  0  0
    0.6266   -3.4090   -2.3985 Cl  0  0  0  0  0  0  0  0  0  0  0  0
   -0.3623   -1.6453   -4.4012 C   0  0  0  0  0  0  0  0  0  0  0  0
   -0.5608   -2.5464   -5.4225 O   0  0  0  0  0  0  0  0  0  0  0  0
    0.0291   -3.8406   -5.3253 C   0  0  0  0  0  0  0  0  0  0  0  0
    1.5536   -3.8978   -5.2776 C   0  0  0  0  0  0  0  0  0  0  0  0
    2.1676   -5.1677   -5.0874 C   0  0  0  0  0  0  0  0  0  0  0  0
    3.5450   -5.3278   -4.8706 C   0  0  0  0  0  0  0  0  0  0  0  0
    4.0685   -6.5848   -4.5709 N   0  0  0  0  0  0  0  0  0  0  0  0
    4.3543   -4.1914   -4.7279 C   0  0  0  0  0  0  0  0  0  0  0  0
    3.7934   -2.9168   -4.8756 C   0  0  0  0  0  0  0  0  0  0  0  0
    4.3651   -1.6698   -4.7241 N   0  0  0  0  0  0  0  0  0  0  0  0
    3.3802   -0.8322   -4.9757 C   0  0  0  0  0  0  0  0  0  0  0  0
    2.1971   -1.4541   -5.2989 O   0  0  0  0  0  0  0  0  0  0  0  0
    2.4492   -2.8078   -5.1930 C   0  0  0  0  0  0  0  0  0  0  0  0
    3.4020    0.6353   -5.0185 C   0  0  0  0  0  0  0  0  0  0  0  0
    2.7562    1.4184   -4.0758 C   0  0  0  0  0  0  0  0  0  0  0  0
    2.6214    2.8144   -4.1367 C   0  0  0  0  0  0  0  0  0  0  0  0
    3.3774    3.4874   -5.0654 C   0  0  0  0  0  0  0  0  0  0  0  0
    4.2123    2.7420   -5.8980 C   0  0  0  0  0  0  0  0  0  0  0  0
    4.1730    1.3342   -5.9206 C   0  0  0  0  0  0  0  0  0  0  0  0
   -0.6476   -0.2953   -4.7265 C   0  0  0  0  0  0  0  0  0  0  0  0
   -1.2762    0.1485   -6.2833 Cl  0  0  0  0  0  0  0  0  0  0  0  0
   -0.3544    0.7541   -3.8365 C   0  0  0  0  0  0  0  0  0  0  0  0
   -1.2316    1.2568   -0.2323 C   0  0  0  0  0  0  0  0  0  0  0  0
   -1.8141    2.2276    0.4946 O   0  0  0  0  0  0  0  0  0  0  0  0
   -1.8971    0.4425   -0.8763 O   0  0  0  0  0  0  0  0  0  0  0  0
  2  1  1  6
  2  3  1  0
  2 30  1  0
  3  4  1  0
  4  5  2  0
  4 29  1  0
  5  6  1  0
  6  7  1  0
  6  8  2  0
  8  9  1  0
  8 27  1  0
  9 10  1  0
 10 11  1  0
 11 12  2  0
 11 20  1  0
 12 13  1  0
 13 14  1  0
 13 15  2  0
 15 16  1  0
 16 17  1  0
 16 20  2  0
 17 18  2  0
 18 19  1  0
 18 21  1  0
 19 20  1  0
 21 22  2  0
 21 26  1  0
 22 23  1  0
 23 24  2  0
 24 25  1  0
 25 26  2  0
 27 28  1  0
 27 29  2  0
 30 31  1  0
 30 32  2  0
M  END
>  <DRUGBANK_ID>  (1) 
DB18250

>  <COMMON_NAME>  (1) 
Nanvuranlat

>  <CAS_NUMBER>  (1) 
1037592-40-7

>  <UNII>  (1) 
CEDO9QXYZK

>  <SYNONYMS>  (1) 
(2s)-2-amino-3-(4-((5-amino-2-phenyl-1,3-benzoxazol-7-yl)methoxy)-3,5-dichloro-phenyl)propanoic acid; L-tyrosine, o-((5-amino-2-phenyl-7-benzoxazolyl)methyl)-3,5-dichloro-; O-((5-amino-2-phenyl-1,3-benzoxazol-7-yl)methyl)-3,5- dichloro-l-tyrosine

$$$$
