B2F
     RDKit          3D

 12 12  0  0  0  0  0  0  0  0999 V2000
    0.9765   -0.0792    0.0563 N   0  0  0  0  0  0  0  0  0  0  0  0
    0.4865   -1.4119    0.4367 C   0  0  1  0  0  0  0  0  0  0  0  0
    0.9932   -1.7604    1.8267 C   0  0  0  0  0  0  0  0  0  0  0  0
    0.4865   -0.7308    2.8235 C   0  0  0  0  0  0  0  0  0  0  0  0
    0.1487   -1.0952    4.0549 C   0  0  0  0  0  0  0  0  0  0  0  0
    0.5605    0.6048    2.4642 C   0  0  0  0  0  0  0  0  0  0  0  0
    0.0126   -0.1569    5.0494 C   0  0  0  0  0  0  0  0  0  0  0  0
    0.5397    1.4961    3.5630 C   0  0  0  0  0  0  0  0  0  0  0  0
    0.1311    1.1779    4.7778 C   0  0  0  0  0  0  0  0  0  0  0  0
   -1.1135   -1.4119    0.4367 B   0  0  0  0  0  0  0  0  0  0  0  0
   -1.8635   -2.3452   -0.4669 O   0  0  0  0  0  0  0  0  0  0  0  0
   -1.8635   -0.4787    1.3402 O   0  0  0  0  0  0  0  0  0  0  0  0
  2  1  1  1
  2  3  1  0
  2 10  1  0
  3  4  1  0
  4  5  2  0
  4  6  1  0
  5  7  1  0
  6  8  2  0
  7  9  2  0
  8  9  1  0
 10 11  1  0
 10 12  1  0
M  END
>  <DRUGBANK_ID>  (1) 
DB07411

>  <COMMON_NAME>  (1) 
PHENYLALANINE BORONIC ACID

$$$$
