
     RDKit          3D

 29 30  0  0  0  0  0  0  0  0999 V2000
    1.2069   -5.1738    6.7414 S   0  0  0  0  0  0  0  0  0  0  0  0
    1.2990   -0.7879    7.0795 O   0  0  0  0  0  0  0  0  0  0  0  0
   -0.5689   -1.8936   10.1923 O   0  0  0  0  0  0  0  0  0  0  0  0
   -1.7564   -3.8055    9.8763 O   0  0  0  0  0  0  0  0  0  0  0  0
    3.8039   -3.6474    3.0906 O   0  0  0  0  0  0  0  0  0  0  0  0
   -4.8707   -3.1464    4.1505 O   0  0  0  0  0  0  0  0  0  0  0  0
   -3.8100   -1.0980    4.1445 O   0  0  0  0  0  0  0  0  0  0  0  0
   -1.5498   -1.1472   -0.0769 O   0  0  0  0  0  0  0  0  0  0  0  0
    0.1322   -2.8430    7.3482 N   0  0  0  0  0  0  0  0  0  0  0  0
    2.2360   -3.0957    4.6088 N   0  0  0  0  0  0  0  0  0  0  0  0
   -2.4267   -1.9992    1.8718 N   0  0  0  0  0  0  0  0  0  0  0  0
    0.2783   -2.1508    2.4048 N   0  0  0  0  0  0  0  0  0  0  0  0
    0.1967   -3.7609    6.2793 C   0  0  1  0  0  0  0  0  0  0  0  0
    0.4289   -5.0251    8.4035 C   0  0  0  0  0  0  0  0  0  0  0  0
    0.2885   -3.4815    8.6595 C   0  0  2  0  0  0  0  0  0  0  0  0
    0.9432   -2.6795    5.4170 C   0  0  1  0  0  0  0  0  0  0  0  0
    0.9174   -1.9376    6.7518 C   0  0  0  0  0  0  0  0  0  0  0  0
    1.4837   -5.6470    9.2896 C   0  0  0  0  0  0  0  0  0  0  0  0
   -0.8646   -5.8646    8.3595 C   0  0  0  0  0  0  0  0  0  0  0  0
   -0.7903   -3.0233    9.6726 C   0  0  0  0  0  0  0  0  0  0  0  0
    2.6102   -3.7462    3.4185 C   0  0  0  0  0  0  0  0  0  0  0  0
    1.6306   -4.2728    2.2985 C   0  0  0  0  0  0  0  0  0  0  0  0
    0.1470   -4.9155    2.7075 C   0  0  0  0  0  0  0  0  0  0  0  0
   -0.7812   -4.3786    3.8555 C   0  0  0  0  0  0  0  0  0  0  0  0
   -1.7084   -3.0251    4.1213 C   0  0  0  0  0  0  0  0  0  0  0  0
   -2.7771   -2.9198    3.0430 C   0  0  1  0  0  0  0  0  0  0  0  0
   -3.9563   -2.3286    3.8887 C   0  0  0  0  0  0  0  0  0  0  0  0
   -1.5003   -1.9213    0.8675 C   0  0  0  0  0  0  0  0  0  0  0  0
   -0.2431   -2.6525    1.0877 C   0  0  0  0  0  0  0  0  0  0  0  0
 13  1  1  1
  1 14  1  0
  2 17  2  0
  3 20  1  0
  4 20  2  0
  5 21  2  0
  6 27  1  0
  7 27  2  0
  8 28  2  0
  9 13  1  0
  9 15  1  0
  9 17  1  0
 10 21  1  0
 11 28  1  0
 12 29  1  0
 13 16  1  0
 14 15  1  0
 14 18  1  0
 14 19  1  0
 15 20  1  1
 16 17  1  0
 16 10  1  1
 21 22  1  0
 22 23  1  0
 23 24  1  0
 24 25  1  0
 26 27  1  0
 26 25  1  1
 26 11  1  0
 28 29  1  0
M  CHG  3   3  -1   6  -1  12   1
M  END
>  <DRUGBANK_ID>  (1) 
DB03820

>  <SECONDARY_ACCESSION_NUMBERS>  (1) 
EXPT01725

>  <COMMON_NAME>  (1) 
(2S,5R,6R)-6-({(6S)-6-[(Ammonioacetyl)amino]-6-carboxylatohexanoyl}amino)-3,3-dimethyl-7-oxo-4-thia-1-azabicyclo[3.2.0]heptane-2-carboxylate

$$$$
