ZYX
     RDKit          3D

 13 13  0  0  0  0  0  0  0  0999 V2000
    1.4367   -0.2704    0.0194 C   0  0  0  0  0  0  0  0  0  0  0  0
    0.9798    1.0397   -0.0670 C   0  0  0  0  0  0  0  0  0  0  0  0
   -0.3922    1.2720   -0.1290 C   0  0  0  0  0  0  0  0  0  0  0  0
   -1.3233    0.2180   -0.0956 C   0  0  0  0  0  0  0  0  0  0  0  0
   -0.8428   -1.0954   -0.0364 C   0  0  0  0  0  0  0  0  0  0  0  0
    0.5338   -1.3398    0.0081 C   0  0  0  0  0  0  0  0  0  0  0  0
    3.1589   -0.5821    0.2665 S   0  0  0  0  0  0  0  0  0  0  0  0
    3.6028    0.2025    1.3989 O   0  0  0  0  0  0  0  0  0  0  0  0
    3.3907   -2.0021    0.1795 O   0  0  0  0  0  0  0  0  0  0  0  0
    3.8911    0.0700   -1.1027 N   0  0  0  0  0  0  0  0  0  0  0  0
   -2.8109    0.5007   -0.1808 C   0  0  0  0  0  0  0  0  0  0  0  0
   -3.3991    1.2728    1.0156 C   0  0  0  0  0  0  0  0  0  0  0  0
   -2.8150    2.6027    1.2003 N   0  0  0  0  0  0  0  0  0  0  0  0
  1  6  2  0
  1  2  1  0
  1  7  1  0
  2  3  2  0
  3  4  1  0
  4 11  1  0
  4  5  2  0
  5  6  1  0
  7 10  1  0
  7  8  2  0
  7  9  2  0
 11 12  1  0
 12 13  1  0
M  END
>  <DRUGBANK_ID>  (1) 
DB08782

>  <COMMON_NAME>  (1) 
4-(2-AMINOETHYL)BENZENESULFONAMIDE

>  <UNII>  (1) 
WIA59Y34CJ

$$$$
