
     RDKit          3D

 22 23  0  0  0  0  0  0  0  0999 V2000
   -0.0009    0.9017   -0.3840 C   0  0  0  0  0  0  0  0  0  0  0  0
    0.6719   -0.4321   -0.2578 C   0  0  0  0  0  0  0  0  0  0  0  0
   -0.8056   -0.3452   -0.6268 C   0  0  0  0  0  0  0  0  0  0  0  0
   -0.2714   -4.0708    3.1795 N   0  0  0  0  0  0  0  0  0  0  0  0
    2.5656   -0.9855    3.2648 O   0  0  0  0  0  0  0  0  0  0  0  0
    1.7265   -3.2350    4.5107 C   0  0  0  0  0  0  0  0  0  0  0  0
    1.4646   -0.1866    3.1714 C   0  0  0  0  0  0  0  0  0  0  0  0
    0.1750   -3.3149    4.4208 C   0  0  0  0  0  0  0  0  0  0  0  0
    2.5083   -2.4763    3.3590 C   0  0  0  0  0  0  0  0  0  0  0  0
   -1.1616    1.1635    2.8779 C   0  0  0  0  0  0  0  0  0  0  0  0
    1.3468    1.1827    3.0473 C   0  0  0  0  0  0  0  0  0  0  0  0
    0.2314   -0.7479    3.1348 C   0  0  0  0  0  0  0  0  0  0  0  0
    0.0445    1.8660    2.8743 C   0  0  0  0  0  0  0  0  0  0  0  0
   -0.9664   -0.0601    3.3801 C   0  0  0  0  0  0  0  0  0  0  0  0
    2.1241   -4.6229    4.5066 O   0  0  0  0  0  0  0  0  0  0  0  0
   -1.8882   -0.7944    0.2748 C   0  0  0  0  0  0  0  0  0  0  0  0
   -3.1110   -0.0835    0.2511 O   0  0  0  0  0  0  0  0  0  0  0  0
   -1.7171   -3.9544    2.8067 C   0  0  0  0  0  0  0  0  0  0  0  0
   -2.5984    1.4408    2.3669 C   0  0  0  0  0  0  0  0  0  0  0  0
   -3.0235    1.2194    0.8456 C   0  0  0  0  0  0  0  0  0  0  0  0
   -2.0443   -2.5287    2.7388 C   0  0  0  0  0  0  0  0  0  0  0  0
   -2.0793   -4.3592    1.3727 C   0  0  0  0  0  0  0  0  0  0  0  0
  2  1  1  0
  3  1  1  0
  3  2  1  0
  4  8  1  0
  5  7  1  0
  6  9  1  0
  7 12  2  0
  8  6  1  0
  9  5  1  0
 10 19  1  0
 11 13  2  0
 11  7  1  0
 12 14  1  0
 13 10  1  0
 14 10  2  0
 15  6  1  0
 16  3  1  0
 17 16  1  0
 18  4  1  0
 19 20  1  0
 20 17  1  0
 21 18  1  0
 22 18  1  0
M  END
>  <DRUGBANK_ID>  (1) 
DB00195

>  <SECONDARY_ACCESSION_NUMBERS>  (1) 
APRD00245

>  <COMMON_NAME>  (1) 
Betaxolol

>  <CAS_NUMBER>  (1) 
63659-18-7

>  <UNII>  (1) 
O0ZR1R6RZ2

>  <SYNONYMS>  (1) 
1-(4-(2-(cyclopropylmethoxy)ethyl)phenoxy)-3-((1-methylethyl)amino)-2-propanol; 1-(isopropylamino)-3-[p-(cyclopropylmethoxyethyl)phenoxy]-2-propanol; Betaxolol; BÃ©taxolol; Betaxololum

$$$$
