26U
     RDKit          3D

 25 26  0  0  0  0  0  0  0  0999 V2000
   -1.0140    0.4868    0.3181 N   0  0  0  0  0  0  0  0  0  0  0  0
   -0.6416   -0.9372    0.1606 C   0  0  2  0  0  0  0  0  0  0  0  0
   -1.1912   -1.9959    1.1332 C   0  0  0  0  0  0  0  0  0  0  0  0
   -0.8340   -3.1512    1.1149 O   0  0  0  0  0  0  0  0  0  0  0  0
   -2.2655   -1.5383    1.8487 N   0  0  0  0  0  0  0  0  0  0  0  0
   -3.4762   -2.2999    2.1518 C   0  0  0  0  0  0  0  0  0  0  0  0
   -3.7147   -2.1585    3.5859 C   0  0  0  0  0  0  0  0  0  0  0  0
   -3.7656   -0.8832    4.1483 C   0  0  0  0  0  0  0  0  0  0  0  0
   -3.7736   -0.7716    5.5127 C   0  0  0  0  0  0  0  0  0  0  0  0
   -3.8079   -1.9317    6.2968 C   0  0  0  0  0  0  0  0  0  0  0  0
   -3.7102   -1.8000    7.7699 C   0  0  0  0  0  0  0  0  0  0  0  0
   -3.6901   -2.8162    8.5725 N   0  0  0  0  0  0  0  0  0  0  0  0
   -3.6203   -0.5792    8.3530 N   0  0  0  0  0  0  0  0  0  0  0  0
   -3.8795   -3.2004    5.6990 C   0  0  0  0  0  0  0  0  0  0  0  0
   -3.7819   -3.3183    4.3360 C   0  0  0  0  0  0  0  0  0  0  0  0
    0.8510   -1.0176    0.3752 C   0  0  0  0  0  0  0  0  0  0  0  0
    1.3609    0.3097   -0.1122 C   0  0  0  0  0  0  0  0  0  0  0  0
    0.1967    1.2885    0.0891 C   0  0  0  0  0  0  0  0  0  0  0  0
   -2.2461    1.1459    0.4272 C   0  0  0  0  0  0  0  0  0  0  0  0
   -3.6547    0.4623    0.3630 C   0  0  0  0  0  0  0  0  0  0  0  0
   -4.1258   -0.3321   -0.8725 C   0  0  0  0  0  0  0  0  0  0  0  0
   -3.1235   -1.3001   -1.4948 C   0  0  0  0  0  0  0  0  0  0  0  0
   -2.9972   -2.6964   -0.8985 C   0  0  0  0  0  0  0  0  0  0  0  0
   -3.3051   -1.6907   -2.9338 C   0  0  0  0  0  0  0  0  0  0  0  0
   -2.2444    2.3476    0.7381 O   0  0  0  0  0  0  0  0  0  0  0  0
  1 19  1  0
  2  1  1  0
  2  3  1  1
  3  5  1  0
  4  3  2  0
  6  5  1  0
  6  7  1  0
  7  8  2  0
  7 15  1  0
  8  9  1  0
  9 10  2  0
 10 11  1  0
 11 12  2  0
 11 13  1  0
 14 10  1  0
 15 14  2  0
 16  2  1  0
 17 16  1  0
 17 18  1  0
 18  1  1  0
 19 25  2  0
 19 20  1  0
 20 21  1  0
 21 22  1  0
 22 23  1  0
 24 22  1  0
M  END
>  <DRUGBANK_ID>  (1) 
DB06936

>  <COMMON_NAME>  (1) 
N-(4-carbamimidoylbenzyl)-1-(4-methylpentanoyl)-L-prolinamide

$$$$
