
     RDKit          3D

 25 28  0  0  1  0  0  0  0  0999 V2000
    1.6303   -7.0969    4.2899 C   0  0  0  0  0  0  0  0  0  0  0  0
    1.1104   -5.9284    5.1709 C   0  0  0  0  0  0  0  0  0  0  0  0
    0.1777   -5.0657    4.2765 C   0  0  0  0  0  0  0  0  0  0  0  0
    0.9256   -4.2765    3.2601 N   0  0  0  0  0  0  0  0  0  0  0  0
    1.9276   -3.4173    3.8867 C   0  0  0  0  0  0  0  0  0  0  0  0
    2.8651   -4.2454    4.7591 C   0  0  0  0  0  0  0  0  0  0  0  0
    2.1337   -5.0239    5.7713 N   0  0  0  0  0  0  0  0  0  0  0  0
    3.0717   -5.6625    6.6753 C   0  0  0  0  0  0  0  0  0  0  0  0
    0.0665   -3.4859    2.3923 C   0  0  2  0  0  0  0  0  0  0  0  0
   -0.9610   -2.6244    3.1437 C   0  0  0  0  0  0  0  0  0  0  0  0
   -2.3752   -3.2370    2.9020 C   0  0  2  0  0  0  0  0  0  0  0  0
   -2.1098   -4.3628    1.9162 C   0  0  0  0  0  0  0  0  0  0  0  0
   -0.7557   -4.4147    1.5655 C   0  0  0  0  0  0  0  0  0  0  0  0
   -0.2496   -5.3453    0.6628 C   0  0  0  0  0  0  0  0  0  0  0  0
   -1.1218   -6.2536    0.1027 C   0  0  0  0  0  0  0  0  0  0  0  0
   -2.4858   -6.2283    0.4444 C   0  0  0  0  0  0  0  0  0  0  0  0
   -2.9800   -5.2786    1.3595 C   0  0  0  0  0  0  0  0  0  0  0  0
   -0.5217   -7.4388   -0.9919 Cl  0  0  0  0  0  0  0  0  0  0  0  0
   -3.2212   -2.1162    2.3344 C   0  0  0  0  0  0  0  0  0  0  0  0
   -2.8264   -1.5949    1.0891 C   0  0  0  0  0  0  0  0  0  0  0  0
   -3.2993   -0.3739    0.6433 C   0  0  0  0  0  0  0  0  0  0  0  0
   -4.2774    0.2828    1.3709 C   0  0  0  0  0  0  0  0  0  0  0  0
   -4.7844   -0.2851    2.5437 C   0  0  0  0  0  0  0  0  0  0  0  0
   -4.2255   -1.4633    3.0561 C   0  0  0  0  0  0  0  0  0  0  0  0
    0.2804   -6.5341    6.3265 C   0  0  0  0  0  0  0  0  0  0  0  0
  1  2  1  0
  2  3  1  0
  2  7  1  0
  2 25  1  0
  3  4  1  0
  4  5  1  0
  5  6  1  0
  6  7  1  0
  7  8  1  0
  9 10  1  0
  9 13  1  0
  9  4  1  1
 10 11  1  0
 11 12  1  0
 11 19  1  6
 12 13  2  0
 12 17  1  0
 13 14  1  0
 14 15  2  0
 15 16  1  0
 15 18  1  0
 16 17  2  0
 19 20  2  0
 19 24  1  0
 20 21  1  0
 21 22  2  0
 22 23  1  0
 23 24  2  0
M  END
>  <DRUGBANK_ID>  (1) 
DB12188

>  <COMMON_NAME>  (1) 
Zicronapine

>  <CAS_NUMBER>  (1) 
170381-16-5

>  <UNII>  (1) 
QZV11V7G6A

>  <SYNONYMS>  (1) 
Zicronapine

$$$$
