PC0
     RDKit          3D

 23 24  0  0  0  0  0  0  0  0999 V2000
   -1.6365    0.2700   -0.0146 C   0  0  0  0  0  0  0  0  0  0  0  0
   -0.8101   -0.7663    0.0154 N   0  0  0  0  0  0  0  0  0  0  0  0
    0.4831   -0.8367   -0.0221 C   0  0  0  0  0  0  0  0  0  0  0  0
    1.2141    0.3001   -0.0102 C   0  0  0  0  0  0  0  0  0  0  0  0
    0.4516    1.4806    0.0042 C   0  0  0  0  0  0  0  0  0  0  0  0
   -0.9832    1.4767   -0.0033 C   0  0  0  0  0  0  0  0  0  0  0  0
    2.6739    0.0810    0.0016 C   0  0  0  0  0  0  0  0  0  0  0  0
   -3.0451    0.0205   -0.0384 N   0  0  0  0  0  0  0  0  0  0  0  0
   -3.8654   -1.0956   -0.0606 C   0  0  0  0  0  0  0  0  0  0  0  0
   -5.5311   -0.8447   -0.0548 S   0  0  0  0  0  0  0  0  0  0  0  0
   -3.5003   -2.4061   -0.0934 N   0  0  0  0  0  0  0  0  0  0  0  0
   -2.1930   -2.9893   -0.0623 C   0  0  0  0  0  0  0  0  0  0  0  0
   -1.5778   -3.3461    1.2756 C   0  0  0  0  0  0  0  0  0  0  0  0
   -2.0056   -4.7454    1.4702 C   0  0  0  0  0  0  0  0  0  0  0  0
   -3.3408   -4.9650    1.4260 N   0  0  0  0  0  0  0  0  0  0  0  0
   -3.7352   -6.2358    1.3342 C   0  0  0  0  0  0  0  0  0  0  0  0
   -2.8459   -7.2962    1.2743 C   0  0  0  0  0  0  0  0  0  0  0  0
   -1.4698   -7.0439    1.3075 C   0  0  0  0  0  0  0  0  0  0  0  0
   -1.0498   -5.7357    1.4551 C   0  0  0  0  0  0  0  0  0  0  0  0
   -0.6530   -8.1284    1.1419 O   0  0  0  0  0  0  0  0  0  0  0  0
    0.7580   -7.8806    1.0826 C   0  0  0  0  0  0  0  0  0  0  0  0
    1.1920   -7.2121   -0.2226 C   0  0  0  0  0  0  0  0  0  0  0  0
    0.2429   -5.3787    1.5114 F   0  0  0  0  0  0  0  0  0  0  0  0
  1  2  2  0
  1  6  1  0
  1  8  1  0
  2  3  1  0
  3  4  2  0
  4  5  1  0
  4  7  1  0
  5  6  2  0
  8  9  1  0
  9 10  2  0
  9 11  1  0
 11 12  1  0
 12 13  1  0
 13 14  1  0
 14 15  2  0
 14 19  1  0
 15 16  1  0
 16 17  2  0
 17 18  1  0
 18 19  2  0
 18 20  1  0
 19 23  1  0
 20 21  1  0
 21 22  1  0
M  END
>  <DRUGBANK_ID>  (1) 
DB08372

>  <COMMON_NAME>  (1) 
1-[2-(4-ETHOXY-3-FLUOROPYRIDIN-2-YL)ETHYL]-3-(5-METHYLPYRIDIN-2-YL)THIOUREA

$$$$
