
     RDKit          3D

 27 29  0  0  0  0  0  0  0  0999 V2000
    1.0126    0.1645   -0.3412 S   0  0  0  0  0  0  0  0  0  0  0  0
    0.2570    0.5123    1.2041 C   0  0  0  0  0  0  0  0  0  0  0  0
    0.0721   -0.6297    2.1057 C   0  0  0  0  0  0  0  0  0  0  0  0
    0.6959    1.2533   -1.1920 O   0  0  0  0  0  0  0  0  0  0  0  0
    0.6593   -1.2159   -0.7029 O   0  0  0  0  0  0  0  0  0  0  0  0
    2.6588    0.1591    0.0486 N   0  0  0  0  0  0  0  0  0  0  0  0
   -0.5836   -2.7995    4.1005 N   0  0  0  0  0  0  0  0  0  0  0  0
    0.6152    0.5981    5.6483 C   0  0  0  0  0  0  0  0  0  0  0  0
   -0.1440   -0.2210    3.3492 C   0  0  0  0  0  0  0  0  0  0  0  0
    1.6648    1.1194    4.8425 C   0  0  0  0  0  0  0  0  0  0  0  0
   -1.2401    0.6515    5.5333 C   0  0  0  0  0  0  0  0  0  0  0  0
   -4.1678    0.2824    5.2317 C   0  0  0  0  0  0  0  0  0  0  0  0
    3.3401    1.4249    0.3987 C   0  0  0  0  0  0  0  0  0  0  0  0
    3.4078    0.7355    2.8971 N   0  0  0  0  0  0  0  0  0  0  0  0
   -6.0409    0.1505    5.1757 Br  0  0  0  0  0  0  0  0  0  0  0  0
   -2.2506    0.5537    4.2283 C   0  0  0  0  0  0  0  0  0  0  0  0
   -1.9694    0.4784    6.6500 C   0  0  0  0  0  0  0  0  0  0  0  0
    0.0571    2.0022    1.4034 C   0  0  0  0  0  0  0  0  0  0  0  0
   -3.5837    0.3604    4.0335 C   0  0  0  0  0  0  0  0  0  0  0  0
   -3.3957    0.3295    6.4679 C   0  0  0  0  0  0  0  0  0  0  0  0
   -0.4231   -1.4903    4.3203 C   0  0  0  0  0  0  0  0  0  0  0  0
    0.0108   -2.0811    1.9066 C   0  0  0  0  0  0  0  0  0  0  0  0
    3.1259    1.0298    4.3573 C   0  0  0  0  0  0  0  0  0  0  0  0
   -0.2200    2.5591    2.5816 C   0  0  0  0  0  0  0  0  0  0  0  0
   -0.3779   -3.0613    2.8418 C   0  0  0  0  0  0  0  0  0  0  0  0
    3.1210    1.7897    1.8942 C   0  0  0  0  0  0  0  0  0  0  0  0
   -0.2681    1.5099    3.4156 C   0  0  0  0  0  0  0  0  0  0  0  0
  2  1  1  0
  3  2  1  0
  4  1  2  0
  5  1  2  0
  6  1  1  0
  7 21  2  0
  7 25  1  0
  8 10  2  0
  9  3  2  0
 10 23  1  0
 11  8  1  0
 12 19  2  0
 13  6  1  0
 14 26  1  0
 15 12  1  0
 16 11  2  0
 17 11  1  0
 18  2  2  0
 19 16  1  0
 20 17  2  0
 20 12  1  0
 21  9  1  0
 22  3  1  0
 23 14  1  0
 24 18  1  0
 24 27  2  0
 25 22  2  0
 26 13  1  0
 27  9  1  0
M  END
>  <DRUGBANK_ID>  (1) 
DB07995

>  <COMMON_NAME>  (1) 
H-89

>  <CAS_NUMBER>  (1) 
127243-85-0

>  <UNII>  (1) 
M876330O56

>  <SYNONYMS>  (1) 
N-[2-(4-bromocinnamylamino)ethyl]isoquinoline-5-sulfonamide

$$$$
