
     RDKit          3D

 20 20  0  0  0  0  0  0  0  0999 V2000
   -0.0812   -1.3409    0.0568 C   0  0  0  0  0  0  0  0  0  0  0  0
   -0.1705   -2.7307    0.0330 N   0  0  0  0  0  0  0  0  0  0  0  0
    1.1487   -0.6884    0.1069 C   0  0  0  0  0  0  0  0  0  0  0  0
   -1.1729   -0.5557    0.0091 N   0  0  0  0  0  0  0  0  0  0  0  0
   -1.4941   -3.3811    0.0471 C   0  0  0  0  0  0  0  0  0  0  0  0
    1.0463   -3.5399    0.1015 C   0  0  0  0  0  0  0  0  0  0  0  0
    1.2577    0.6988    0.0492 C   0  0  0  0  0  0  0  0  0  0  0  0
   -1.0799    0.8485    0.0017 N   0  0  0  0  0  0  0  0  0  0  0  0
   -1.7636   -4.3017   -1.1739 C   0  0  0  0  0  0  0  0  0  0  0  0
    1.8295   -3.4527   -1.2195 C   0  0  0  0  0  0  0  0  0  0  0  0
    0.1177    1.4686    0.0189 C   0  0  0  0  0  0  0  0  0  0  0  0
   -0.8549   -5.5224   -1.2699 C   0  0  0  0  0  0  0  0  0  0  0  0
   -3.1064   -4.8073   -1.1121 O   0  0  0  0  0  0  0  0  0  0  0  0
    0.2393    2.8571   -0.0889 N   0  0  0  0  0  0  0  0  0  0  0  0
   -0.9100    3.6095    0.1490 N   0  0  0  0  0  0  0  0  0  0  0  0
   -0.8080    4.9820    0.0431 C   0  0  0  0  0  0  0  0  0  0  0  0
   -1.9646    5.6980   -0.0109 O   0  0  0  0  0  0  0  0  0  0  0  0
    0.2856    5.5554    0.0020 O   0  0  0  0  0  0  0  0  0  0  0  0
   -3.2774    5.1067   -0.0374 C   0  0  0  0  0  0  0  0  0  0  0  0
   -3.5198    4.3348   -1.3228 C   0  0  0  0  0  0  0  0  0  0  0  0
  1  2  1  0
  1  3  2  0
  1  4  1  0
  2  5  1  0
  2  6  1  0
  3  7  1  0
  4  8  2  0
  5  9  1  0
  6 10  1  0
  7 11  2  0
  8 11  1  0
  9 12  1  0
  9 13  1  0
 11 14  1  0
 14 15  1  0
 15 16  1  0
 16 17  1  0
 16 18  2  0
 17 19  1  0
 19 20  1  0
M  END
>  <DRUGBANK_ID>  (1) 
DB13452

>  <COMMON_NAME>  (1) 
Cadralazine

>  <CAS_NUMBER>  (1) 
64241-34-5

>  <UNII>  (1) 
8T96I3U713

>  <SYNONYMS>  (1) 
Cadralazina; Cadralazine; Cadralazinum

$$$$
