
     RDKit          3D

 31 33  0  0  1  0  0  0  0  0999 V2000
    0.9027    0.0905   -0.1195 C   0  0  0  0  0  0  0  0  0  0  0  0
    0.5867   -1.2965    0.4132 C   0  0  0  0  0  0  0  0  0  0  0  0
    1.0114   -1.5049    1.7690 O   0  0  0  0  0  0  0  0  0  0  0  0
    2.3529   -1.6944    1.9667 C   0  0  0  0  0  0  0  0  0  0  0  0
    3.2451   -0.6693    1.6257 C   0  0  0  0  0  0  0  0  0  0  0  0
    4.6184   -0.7780    1.8176 C   0  0  0  0  0  0  0  0  0  0  0  0
    5.0711   -1.9244    2.4527 C   0  0  0  0  0  0  0  0  0  0  0  0
    4.1816   -2.8218    3.0304 C   0  0  0  0  0  0  0  0  0  0  0  0
    2.8302   -2.7840    2.7032 C   0  0  0  0  0  0  0  0  0  0  0  0
    2.1431   -3.8742    3.1608 O   0  0  0  0  0  0  0  0  0  0  0  0
    0.8561   -4.0802    2.6023 C   0  0  0  0  0  0  0  0  0  0  0  0
    5.5293    0.3862    1.4561 C   0  0  1  0  0  0  0  0  0  0  0  0
    6.0055    1.1095    2.7414 C   0  0  0  0  0  0  0  0  0  0  0  0
    7.0899    0.1918    3.9098 S   0  0  0  0  0  0  0  0  0  0  0  0
    8.3943   -0.7161    3.0434 C   0  0  0  0  0  0  0  0  0  0  0  0
    7.7662    1.1799    4.7296 O   0  0  0  0  0  0  0  0  0  0  0  0
    6.2955   -0.8096    4.5947 O   0  0  0  0  0  0  0  0  0  0  0  0
    6.5808    0.0117    0.5142 N   0  0  0  0  0  0  0  0  0  0  0  0
    6.3927   -0.7521   -0.6305 C   0  0  0  0  0  0  0  0  0  0  0  0
    5.3563   -1.1064   -1.1711 O   0  0  0  0  0  0  0  0  0  0  0  0
    7.7349   -1.0251   -1.0829 C   0  0  0  0  0  0  0  0  0  0  0  0
    8.3558   -1.7622   -2.0429 C   0  0  0  0  0  0  0  0  0  0  0  0
   10.0672   -1.6485   -1.8342 S   0  0  0  0  0  0  0  0  0  0  0  0
    9.9640   -0.5831   -0.4830 C   0  0  0  0  0  0  0  0  0  0  0  0
   11.0897   -0.1768    0.2470 N   0  0  0  0  0  0  0  0  0  0  0  0
   12.4066   -0.4416   -0.1154 C   0  0  0  0  0  0  0  0  0  0  0  0
   13.4774    0.1397    0.7874 C   0  0  0  0  0  0  0  0  0  0  0  0
   12.7732   -1.0761   -1.1014 O   0  0  0  0  0  0  0  0  0  0  0  0
    8.6388   -0.2834   -0.3017 C   0  0  0  0  0  0  0  0  0  0  0  0
    7.8547    0.5340    0.5559 C   0  0  0  0  0  0  0  0  0  0  0  0
    8.2868    1.4604    1.2370 O   0  0  0  0  0  0  0  0  0  0  0  0
  1  2  1  0
  2  3  1  0
  3  4  1  0
  4  5  2  0
  4  9  1  0
  5  6  1  0
  6  7  2  0
  7  8  1  0
  8  9  2  0
  9 10  1  0
 10 11  1  0
 12  6  1  0
 12 13  1  1
 12 18  1  0
 13 14  1  0
 14 15  1  0
 14 16  2  0
 14 17  2  0
 18 19  1  0
 18 30  1  0
 19 20  2  0
 19 21  1  0
 21 22  2  0
 21 29  1  0
 22 23  1  0
 23 24  1  0
 24 25  1  0
 24 29  2  0
 25 26  1  0
 26 27  1  0
 26 28  2  0
 29 30  1  0
 30 31  2  0
M  END
>  <DRUGBANK_ID>  (1) 
DB18075

>  <COMMON_NAME>  (1) 
Mufemilast

>  <CAS_NUMBER>  (1) 
1255909-03-5

>  <UNII>  (1) 
4QX9BK9E7P

$$$$
