
     RDKit          3D

 20 21  0  0  0  0  0  0  0  0999 V2000
   -0.2567    0.8413    0.3829 C   0  0  0  0  0  0  0  0  0  0  0  0
   -1.5711    0.3871    0.1539 C   0  0  0  0  0  0  0  0  0  0  0  0
   -1.8884   -0.9737    0.0787 C   0  0  0  0  0  0  0  0  0  0  0  0
   -0.8814   -1.9268    0.1661 C   0  0  0  0  0  0  0  0  0  0  0  0
    0.4088   -1.5186    0.4674 C   0  0  0  0  0  0  0  0  0  0  0  0
    0.7084   -0.1588    0.6502 C   0  0  0  0  0  0  0  0  0  0  0  0
    0.0397    2.2055    0.1047 N   0  0  0  0  0  0  0  0  0  0  0  0
    2.3495    0.1380    1.1364 Cl  0  0  0  0  0  0  0  0  0  0  0  0
   -2.5583    1.2782   -0.0399 F   0  0  0  0  0  0  0  0  0  0  0  0
    1.3129    2.7969    0.0092 C   0  0  0  0  0  0  0  0  0  0  0  0
    1.7614    3.6001    1.0779 C   0  0  0  0  0  0  0  0  0  0  0  0
    2.1993    2.4825   -1.0479 C   0  0  0  0  0  0  0  0  0  0  0  0
    3.5259    2.9569   -0.9679 C   0  0  0  0  0  0  0  0  0  0  0  0
    3.9811    3.7190    0.1191 C   0  0  0  0  0  0  0  0  0  0  0  0
    3.0869    4.0413    1.1413 C   0  0  0  0  0  0  0  0  0  0  0  0
    5.4132    4.1654    0.1940 C   0  0  0  0  0  0  0  0  0  0  0  0
    1.7894    1.7194   -2.3028 C   0  0  0  0  0  0  0  0  0  0  0  0
    1.4126    0.2753   -2.1911 C   0  0  0  0  0  0  0  0  0  0  0  0
    0.2875   -0.1939   -2.3611 O   0  0  0  0  0  0  0  0  0  0  0  0
    2.4650   -0.5073   -1.8707 O   0  0  0  0  0  0  0  0  0  0  0  0
  1  2  2  0
  1  6  1  0
  1  7  1  0
  2  3  1  0
  2  9  1  0
  3  4  2  0
  4  5  1  0
  5  6  2  0
  6  8  1  0
  7 10  1  0
 10 11  2  0
 10 12  1  0
 12 13  2  0
 12 17  1  0
 13 14  1  0
 14 15  2  0
 14 16  1  0
 15 11  1  0
 17 18  1  0
 18 19  2  0
 18 20  1  0
M  END
>  <DRUGBANK_ID>  (1) 
DB01283

>  <COMMON_NAME>  (1) 
Lumiracoxib

>  <CAS_NUMBER>  (1) 
220991-20-8

>  <UNII>  (1) 
V91T9204HU

>  <SYNONYMS>  (1) 
2-((2-chloro-6-fluorophenyl)amino)-5-methylbenzeneacetic acid; Lumiracoxib; Lumiracoxibum

$$$$
