
     RDKit          3D

  6  5  0  0  0  0  0  0  0  0999 V2000
    0.9461   -0.0325    0.0112 N   0  0  0  0  0  0  0  0  0  0  0  0
    0.4617    1.1529   -0.6926 C   0  0  0  0  0  0  0  0  0  0  0  0
    0.9342    1.2351   -2.1434 C   0  0  0  0  0  0  0  0  0  0  0  0
   -0.3063    0.3289   -4.0095 O   0  0  0  0  0  0  0  0  0  0  0  0
    0.4606    0.0428   -2.9392 C   0  0  0  0  0  0  0  0  0  0  0  0
    0.7443   -1.1129   -2.6450 O   0  0  0  0  0  0  0  0  0  0  0  0
  2  1  1  0
  3  2  1  0
  3  5  1  0
  4  5  1  0
  5  6  2  0
M  END
>  <DRUGBANK_ID>  (1) 
DB03107

>  <SECONDARY_ACCESSION_NUMBERS>  (1) 
EXPT00624

>  <COMMON_NAME>  (1) 
beta-Alanine

>  <CAS_NUMBER>  (1) 
107-95-9

>  <UNII>  (1) 
11P2JDE17B

>  <SYNONYMS>  (1) 
3-aminopropanoic acid; 3-aminopropionic acid; beta-Alanine; β-alanine; β-aminopropionic acid; ω-aminopropionic acid

$$$$
