
     RDKit          3D

 24 23  0  0  1  0  0  0  0  0999 V2000
    0.7780   -1.7210    1.7416 C   0  0  0  0  0  0  0  0  0  0  0  0
    1.2064   -1.9562    3.0007 C   0  0  0  0  0  0  0  0  0  0  0  0
    0.2481   -0.4172    1.1782 C   0  0  2  0  0  0  0  0  0  0  0  0
    1.0227   -1.0412    4.1059 C   0  0  0  0  0  0  0  0  0  0  0  0
    1.0354    0.0599   -0.0536 C   0  0  0  0  0  0  0  0  0  0  0  0
    0.4032    0.5984    2.1454 O   0  0  0  0  0  0  0  0  0  0  0  0
    1.7396   -0.9835    5.2267 C   0  0  0  0  0  0  0  0  0  0  0  0
    1.3466    1.5813   -0.0557 C   0  0  0  0  0  0  0  0  0  0  0  0
    1.5361    0.1148    6.1382 C   0  0  0  0  0  0  0  0  0  0  0  0
    2.3058    2.1256    1.0330 C   0  0  0  0  0  0  0  0  0  0  0  0
    2.1547    0.1481    7.3180 C   0  0  0  0  0  0  0  0  0  0  0  0
    3.5993    1.3522    1.1129 C   0  0  0  0  0  0  0  0  0  0  0  0
    1.9017    1.2006    8.3414 C   0  0  1  0  0  0  0  0  0  0  0  0
    4.7007    2.1205    1.0564 O   0  0  0  0  0  0  0  0  0  0  0  0
    3.6715    0.1350    1.2679 O   0  0  0  0  0  0  0  0  0  0  0  0
    1.2129    0.5832    9.5614 C   0  0  0  0  0  0  0  0  0  0  0  0
    3.1429    1.8112    8.6830 O   0  0  0  0  0  0  0  0  0  0  0  0
    2.0935   -0.4278   10.2487 C   0  0  0  0  0  0  0  0  0  0  0  0
    2.6155   -0.2573   11.4649 C   0  0  0  0  0  0  0  0  0  0  0  0
    2.2885    0.8972   12.3632 C   0  0  0  0  0  0  0  0  0  0  0  0
    1.5698    0.3900   13.6071 C   0  0  0  0  0  0  0  0  0  0  0  0
    2.4850   -0.4797   14.4696 C   0  0  0  0  0  0  0  0  0  0  0  0
    3.7655    0.2581   14.8693 C   0  0  0  0  0  0  0  0  0  0  0  0
    3.4470    1.5069   15.6768 C   0  0  0  0  0  0  0  0  0  0  0  0
  1  2  2  0
  2  4  1  0
  3  6  1  1
  3  5  1  0
  3  1  1  0
  4  7  2  0
  5  8  1  0
  7  9  1  0
  8 10  1  0
  9 11  2  0
 10 12  1  0
 11 13  1  0
 12 14  1  0
 12 15  2  0
 13 16  1  0
 13 17  1  1
 16 18  1  0
 18 19  2  0
 19 20  1  0
 20 21  1  0
 21 22  1  0
 22 23  1  0
 23 24  1  0
M  END
>  <DRUGBANK_ID>  (1) 
DB12961

>  <COMMON_NAME>  (1) 
Leukotriene B4

>  <CAS_NUMBER>  (1) 
71160-24-2

>  <UNII>  (1) 
1HGW4DR56D

>  <SYNONYMS>  (1) 
LTB4

$$$$
