
     RDKit          3D

 15 14  0  0  0  0  0  0  0  0999 V2000
    1.2805    0.0095    0.2582 C   0  0  0  0  0  0  0  0  0  0  0  0
    0.3961    0.6587    1.0793 O   0  0  0  0  0  0  0  0  0  0  0  0
   -1.0691    0.5923    1.1468 C   0  0  0  0  0  0  0  0  0  0  0  0
   -1.8559    1.4340    0.1034 C   0  0  0  0  0  0  0  0  0  0  0  0
   -1.6776    0.9494   -1.3089 C   0  0  0  0  0  0  0  0  0  0  0  0
   -2.1999   -0.3581   -1.5564 O   0  0  0  0  0  0  0  0  0  0  0  0
   -3.2491    1.3586    0.3514 O   0  0  0  0  0  0  0  0  0  0  0  0
    0.6947   -0.6918   -0.9398 C   0  0  0  0  0  0  0  0  0  0  0  0
    0.9275    0.0612   -2.2877 C   0  0  0  0  0  0  0  0  0  0  0  0
    2.3723   -0.0526   -2.6656 C   0  0  0  0  0  0  0  0  0  0  0  0
    2.6864   -1.5277   -2.8303 C   0  0  0  0  0  0  0  0  0  0  0  0
    1.8698   -2.1286   -3.9840 C   0  0  0  0  0  0  0  0  0  0  0  0
    2.1616   -1.3927   -5.2909 C   0  0  0  0  0  0  0  0  0  0  0  0
    3.6533   -1.4425   -5.5764 C   0  0  0  0  0  0  0  0  0  0  0  0
    2.4712    0.0417    0.4562 O   0  0  0  0  0  0  0  0  0  0  0  0
  1  2  1  0
  1  8  1  0
  1 15  2  0
  2  3  1  0
  3  4  1  0
  4  5  1  0
  4  7  1  0
  5  6  1  0
  8  9  1  0
  9 10  1  0
 10 11  1  0
 11 12  1  0
 12 13  1  0
 13 14  1  0
M  END
>  <DRUGBANK_ID>  (1) 
DB06801

>  <COMMON_NAME>  (1) 
Monoctanoin

>  <CAS_NUMBER>  (1) 
502-54-5

>  <UNII>  (1) 
MCF579Z59B

>  <SYNONYMS>  (1) 
1-Monocaprylin; 2,3-Dihydroxypropyl octanoate; Caprylic acid Î±-monoglyceride; Monooctanoin; Octanoic acid 1-monoglyceride

$$$$
