401
     RDKit          3D

 30 31  0  0  0  0  0  0  0  0999 V2000
    1.0222   -0.0484   -0.0844 O   0  0  0  0  0  0  0  0  0  0  0  0
    1.0552   -2.2393    0.3047 O   0  0  0  0  0  0  0  0  0  0  0  0
    0.4024   -1.2263    0.1288 C   0  0  0  0  0  0  0  0  0  0  0  0
   -1.1154   -1.1262    0.1579 C   0  0  1  0  0  0  0  0  0  0  0  0
   -1.6350   -0.3596    1.3752 C   0  0  0  0  0  0  0  0  0  0  0  0
   -1.2315    1.1079    1.3855 C   0  0  0  0  0  0  0  0  0  0  0  0
   -1.6750   -0.5286   -1.1409 C   0  0  0  0  0  0  0  0  0  0  0  0
   -1.2510   -1.3452   -2.3200 C   0  0  0  0  0  0  0  0  0  0  0  0
   -0.3984   -0.8065   -3.2981 C   0  0  0  0  0  0  0  0  0  0  0  0
    0.0742   -1.5897   -4.3677 C   0  0  0  0  0  0  0  0  0  0  0  0
   -0.4220   -2.9148   -4.4210 C   0  0  0  0  0  0  0  0  0  0  0  0
   -1.1643   -3.4676   -3.3805 C   0  0  0  0  0  0  0  0  0  0  0  0
   -1.6351   -2.6792   -2.3692 C   0  0  0  0  0  0  0  0  0  0  0  0
   -0.4420   -3.8558   -5.4082 O   0  0  0  0  0  0  0  0  0  0  0  0
    0.1366   -3.4670   -6.5968 C   0  0  0  0  0  0  0  0  0  0  0  0
    0.9543   -0.8680   -5.3836 C   0  0  0  0  0  0  0  0  0  0  0  0
    2.2791   -1.4575   -5.6398 N   0  0  0  0  0  0  0  0  0  0  0  0
    2.8185   -2.0083   -6.8003 C   0  0  0  0  0  0  0  0  0  0  0  0
    3.8294   -2.7153   -6.7174 O   0  0  0  0  0  0  0  0  0  0  0  0
    2.1049   -1.9398   -8.1179 C   0  0  0  0  0  0  0  0  0  0  0  0
    1.4426   -0.7824   -8.4986 C   0  0  0  0  0  0  0  0  0  0  0  0
    0.5662   -0.7757   -9.5811 C   0  0  0  0  0  0  0  0  0  0  0  0
    0.3715   -1.9218  -10.3641 C   0  0  0  0  0  0  0  0  0  0  0  0
    1.0636   -3.0926  -10.0226 C   0  0  0  0  0  0  0  0  0  0  0  0
    1.9188   -3.1064   -8.9042 C   0  0  0  0  0  0  0  0  0  0  0  0
   -0.5610   -1.8816  -11.5517 C   0  0  0  0  0  0  0  0  0  0  0  0
    1.5485    0.3402   -7.7764 F   0  0  0  0  0  0  0  0  0  0  0  0
    0.0782   -2.1724  -12.7160 F   0  0  0  0  0  0  0  0  0  0  0  0
   -1.5880   -2.7677  -11.4490 F   0  0  0  0  0  0  0  0  0  0  0  0
   -1.1380   -0.6613  -11.7352 F   0  0  0  0  0  0  0  0  0  0  0  0
  1  3  1  0
  2  3  2  0
  3  4  1  0
  4  5  1  1
  4  7  1  0
  5  6  1  0
  7  8  1  0
  8  9  2  0
  8 13  1  0
  9 10  1  0
 10 11  2  0
 10 16  1  0
 11 12  1  0
 11 14  1  0
 12 13  2  0
 14 15  1  0
 16 17  1  0
 17 18  1  0
 18 19  2  0
 18 20  1  0
 20 21  2  0
 20 25  1  0
 21 22  1  0
 21 27  1  0
 22 23  2  0
 23 24  1  0
 23 26  1  0
 24 25  2  0
 26 28  1  0
 26 29  1  0
 26 30  1  0
M  END
>  <DRUGBANK_ID>  (1) 
DB07070

>  <COMMON_NAME>  (1) 
(2S)-2-{3-[({[2-fluoro-4-(trifluoromethyl)phenyl]carbonyl}amino)methyl]-4-methoxybenzyl}butanoic acid

$$$$
