
     RDKit          3D

 26 27  0  0  0  0  0  0  0  0999 V2000
    2.0493   -0.0903    0.9790 S   0  0  0  0  0  0  0  0  0  0  0  0
    0.4567    3.5309    1.3329 P   0  0  0  0  0  0  0  0  0  0  0  0
    0.0298   -0.1417   -1.5868 O   0  0  0  0  0  0  0  0  0  0  0  0
   -0.2396    2.0638    1.3463 O   0  0  0  0  0  0  0  0  0  0  0  0
   -2.3720   -2.1442    0.1951 O   0  0  0  0  0  0  0  0  0  0  0  0
    2.1073   -2.5000    0.0552 O   0  0  0  0  0  0  0  0  0  0  0  0
    0.0059    2.0363   -3.2169 O   0  0  0  0  0  0  0  0  0  0  0  0
    0.1514    3.5049   -1.5491 O   0  0  0  0  0  0  0  0  0  0  0  0
    0.3033   -1.5632    2.8090 O   0  0  0  0  0  0  0  0  0  0  0  0
   -0.7625    4.3338    0.7183 O   0  0  0  0  0  0  0  0  0  0  0  0
    0.5226    3.6312    2.9101 O   0  0  0  0  0  0  0  0  0  0  0  0
    1.7709    3.7534    0.6579 O   0  0  0  0  0  0  0  0  0  0  0  0
   -3.8927   -3.5852   -0.5331 O   0  0  0  0  0  0  0  0  0  0  0  0
   -3.1518    0.3092    1.1284 N   0  0  0  0  0  0  0  0  0  0  0  0
   -0.3207   -3.2798    1.4746 N   0  0  0  0  0  0  0  0  0  0  0  0
    0.2135    1.1140   -0.9310 C   0  0  1  0  0  0  0  0  0  0  0  0
   -0.0778   -1.2483   -0.6525 C   0  0  2  0  0  0  0  0  0  0  0  0
   -0.9166    1.4682    0.2117 C   0  0  1  0  0  0  0  0  0  0  0  0
   -1.7352    0.2731    0.7835 C   0  0  2  0  0  0  0  0  0  0  0  0
   -1.4380   -1.0374    0.0684 C   0  0  2  0  0  0  0  0  0  0  0  0
    1.1279   -1.5455    0.4492 C   0  0  2  0  0  0  0  0  0  0  0  0
    1.6384    1.0611   -0.3291 C   0  0  0  0  0  0  0  0  0  0  0  0
    0.1509    2.3367   -1.9127 C   0  0  0  0  0  0  0  0  0  0  0  0
    0.4735   -2.1703    1.7505 C   0  0  0  0  0  0  0  0  0  0  0  0
   -3.1949   -2.6392   -0.7451 C   0  0  0  0  0  0  0  0  0  0  0  0
   -3.0893   -1.9098   -2.0400 C   0  0  0  0  0  0  0  0  0  0  0  0
  1 21  1  0
  1 22  1  0
  2  4  1  0
  2 10  1  0
  2 11  1  0
  2 12  2  0
  3 16  1  0
 17  3  1  1
  5 25  1  0
  7 23  1  0
  8 23  2  0
  9 24  2  0
 13 25  2  0
 15 24  1  0
 16 18  1  0
 16 22  1  0
 16 23  1  6
 17 20  1  0
 17 21  1  0
 18 19  1  0
 18  4  1  1
 19 20  1  0
 19 14  1  6
 20  5  1  1
 21  6  1  6
 21 24  1  0
 25 26  1  0
M  END
>  <DRUGBANK_ID>  (1) 
DB04788

>  <COMMON_NAME>  (1) 
Tagetitoxin

>  <CAS_NUMBER>  (1) 
87913-21-1

>  <SYNONYMS>  (1) 
(1R,4R,5R,6R,7S,8R)-6-Acetoxy-7-amino-4-carbamoyl-4-hydroxy-8-(phosphonooxy)-9-oxa-3-thiabicyclo[3.3.1]nonane-1-carboxylic acid

$$$$
