871
     RDKit          3D

 16 16  0  0  1  0  0  0  0  0999 V2000
    1.0504    0.0417    0.1073 O   0  0  0  0  0  0  0  0  0  0  0  0
    1.4814    2.2767    4.6455 O   0  0  0  0  0  0  0  0  0  0  0  0
    2.3421   -2.2935    5.4712 O   0  0  0  0  0  0  0  0  0  0  0  0
    2.5276   -2.4449    0.5036 N   0  0  0  0  0  0  0  0  0  0  0  0
    3.0349   -3.7782    0.1522 C   0  0  0  0  0  0  0  0  0  0  0  0
    1.0521   -2.3272    0.5093 C   0  0  0  0  0  0  0  0  0  0  0  0
    0.5926   -0.9517    1.0341 C   0  0  0  0  0  0  0  0  0  0  0  0
    2.5830   -4.1450   -1.2664 C   0  0  0  0  0  0  0  0  0  0  0  0
    4.5738   -3.7122    0.1865 C   0  0  0  0  0  0  0  0  0  0  0  0
    2.5796   -4.8342    1.1721 C   0  0  0  0  0  0  0  0  0  0  0  0
    1.0636   -0.6320    2.4413 C   0  0  0  0  0  0  0  0  0  0  0  0
    1.4773   -1.6369    3.3383 C   0  0  0  0  0  0  0  0  0  0  0  0
    1.0626    0.6969    2.8907 C   0  0  0  0  0  0  0  0  0  0  0  0
    1.4818    0.9923    4.1839 C   0  0  0  0  0  0  0  0  0  0  0  0
    1.9107   -1.3223    4.6167 C   0  0  0  0  0  0  0  0  0  0  0  0
    1.9128   -0.0057    5.0519 C   0  0  0  0  0  0  0  0  0  0  0  0
  1  7  1  0
  2 14  1  0
  3 15  1  0
  4  5  1  0
  4  6  1  0
  5  8  1  0
  5  9  1  0
  5 10  1  0
  6  7  1  0
  7 11  1  0
 11 12  2  0
 11 13  1  0
 12 15  1  0
 13 14  2  0
 14 16  1  0
 15 16  2  0
M  END
>  <DRUGBANK_ID>  (1) 
DB00871

>  <SECONDARY_ACCESSION_NUMBERS>  (1) 
APRD00589

>  <COMMON_NAME>  (1) 
Terbutaline

>  <CAS_NUMBER>  (1) 
23031-25-6

>  <UNII>  (1) 
N8ONU3L3PG

>  <SYNONYMS>  (1) 
Terbutalin; Terbutalina; Terbutaline; Terbutalinum

$$$$
