C6L
     RDKit          3D

 15 14  0  0  0  0  0  0  0  0999 V2000
    4.8333   -2.4514    0.2284 O   0  0  0  0  0  0  0  0  0  0  0  0
    4.0224   -3.3731    0.2315 C   0  0  0  0  0  0  0  0  0  0  0  0
    4.4006   -4.7500   -0.3013 C   0  0  0  0  0  0  0  0  0  0  0  0
    4.3329   -5.8598    0.7528 C   0  0  0  0  0  0  0  0  0  0  0  0
    2.9154   -6.1504    1.2566 C   0  0  0  0  0  0  0  0  0  0  0  0
    1.9433   -6.4602    0.1109 C   0  0  0  0  0  0  0  0  0  0  0  0
    2.3277   -7.7635   -0.5668 C   0  0  0  0  0  0  0  0  0  0  0  0
    2.7250   -3.2116    0.6804 N   0  0  0  0  0  0  0  0  0  0  0  0
    2.3114   -2.0181    1.4207 C   0  0  2  0  0  0  0  0  0  0  0  0
    2.7598   -2.0996    2.9072 C   0  0  0  0  0  0  0  0  0  0  0  0
    3.9307   -2.2565    3.2472 O   0  0  0  0  0  0  0  0  0  0  0  0
    1.8109   -2.0183    3.8659 O   0  0  0  0  0  0  0  0  0  0  0  0
    0.8121   -1.7544    1.2305 C   0  0  0  0  0  0  0  0  0  0  0  0
    0.4062   -0.3678    1.7349 C   0  0  0  0  0  0  0  0  0  0  0  0
    1.0914    0.6430    1.0197 O   0  0  0  0  0  0  0  0  0  0  0  0
  2  1  2  0
  2  3  1  0
  4  3  1  0
  5  4  1  0
  5  6  1  0
  6  7  1  0
  8  2  1  0
  9  8  1  0
 10  9  1  0
 10 12  1  0
 11 10  2  0
  9 13  1  1
 14 13  1  0
 15 14  1  0
M  END
>  <DRUGBANK_ID>  (1) 
DB07532

>  <COMMON_NAME>  (1) 
N-hexanoyl-L-homoserine

$$$$
