201
     RDKit          3D

 14 15  0  0  0  0  0  0  0  0999 V2000
   -0.5356   -2.5185   -0.0053 O   0  0  0  0  0  0  0  0  0  0  0  0
    3.0430    0.4207   -0.0116 O   0  0  0  0  0  0  0  0  0  0  0  0
    0.9225    1.3040    0.0070 N   0  0  0  0  0  0  0  0  0  0  0  0
   -2.2718   -0.0836   -0.0034 N   0  0  0  0  0  0  0  0  0  0  0  0
    1.2780   -1.0651    0.0061 N   0  0  0  0  0  0  0  0  0  0  0  0
   -1.4263    1.9727   -0.0064 N   0  0  0  0  0  0  0  0  0  0  0  0
   -0.9137   -0.2238   -0.0063 C   0  0  0  0  0  0  0  0  0  0  0  0
   -0.4265    1.0481   -0.0022 C   0  0  0  0  0  0  0  0  0  0  0  0
   -0.0844   -1.3776   -0.0023 C   0  0  0  0  0  0  0  0  0  0  0  0
    1.8220    0.2357   -0.0003 C   0  0  0  0  0  0  0  0  0  0  0  0
   -2.5352    1.2602   -0.0104 C   0  0  0  0  0  0  0  0  0  0  0  0
    1.4381    2.6585    0.0135 C   0  0  0  0  0  0  0  0  0  0  0  0
   -3.2466   -1.1443    0.0327 C   0  0  0  0  0  0  0  0  0  0  0  0
    2.2242   -2.1629    0.0217 C   0  0  0  0  0  0  0  0  0  0  0  0
  1  9  2  0
  2 10  2  0
  3  8  1  0
  3 10  1  0
  3 12  1  0
  4  7  1  0
  4 11  1  0
  4 13  1  0
  5  9  1  0
  5 10  1  0
  5 14  1  0
  6  8  1  0
  6 11  2  0
  7  8  2  0
  7  9  1  0
M  END
>  <DRUGBANK_ID>  (1) 
DB00201

>  <SECONDARY_ACCESSION_NUMBERS>  (1) 
APRD00673

>  <COMMON_NAME>  (1) 
Caffeine

>  <CAS_NUMBER>  (1) 
58-08-2

>  <UNII>  (1) 
3G6A5W338E

>  <SYNONYMS>  (1) 
1-methyltheobromine; 1,3,7-trimethyl-2,6-dioxopurine; 1,3,7-trimethylpurine-2,6-dione; 1,3,7-trimethylxanthine; 3,7-Dihydro-1,3,7-trimethyl-1H-purin-2,6-dion; 7-methyltheophylline; Anhydrous caffeine; Cafeína; Caféine; Caffeine; Caffeinum; Coffein; Coffeinum; Guaranine; Koffein; Mateína; Methyltheobromine; Teína; Thein; Theine

$$$$
