
     RDKit          3D

 17 18  0  0  0  0  0  0  0  0999 V2000
    0.9489    0.0740    0.0495 C   0  0  0  0  0  0  0  0  0  0  0  0
    0.4709    1.5210   -0.0092 C   0  0  0  0  0  0  0  0  0  0  0  0
    0.9255    2.2525   -1.2936 C   0  0  0  0  0  0  0  0  0  0  0  0
    0.4414    1.4931   -2.5686 C   0  0  0  0  0  0  0  0  0  0  0  0
   -1.0719    1.3360   -2.6931 C   0  0  0  0  0  0  0  0  0  0  0  0
    0.5001    3.6523   -1.2879 N   0  0  0  0  0  0  0  0  0  0  0  0
    1.3353    4.7980   -1.2925 C   0  0  0  0  0  0  0  0  0  0  0  0
    0.4848    5.9157   -1.3486 C   0  0  0  0  0  0  0  0  0  0  0  0
   -0.8205    5.4797   -1.3779 N   0  0  0  0  0  0  0  0  0  0  0  0
   -0.8350    4.1048   -1.2364 C   0  0  0  0  0  0  0  0  0  0  0  0
   -1.8632    3.4709   -1.0712 O   0  0  0  0  0  0  0  0  0  0  0  0
    0.8742    7.1950   -1.3239 N   0  0  0  0  0  0  0  0  0  0  0  0
    2.2233    7.3194   -1.2290 C   0  0  0  0  0  0  0  0  0  0  0  0
    3.1020    6.2212   -1.1772 C   0  0  0  0  0  0  0  0  0  0  0  0
    2.6774    4.9152   -1.2124 N   0  0  0  0  0  0  0  0  0  0  0  0
    4.5165    6.4494   -1.0871 C   0  0  0  0  0  0  0  0  0  0  0  0
    5.6954    6.6967   -1.0178 C   0  0  0  0  0  0  0  0  0  0  0  0
  1  2  1  0
  2  3  1  0
  3  4  1  0
  3  6  1  0
  4  5  1  0
  6  7  1  0
  6 10  1  0
  7  8  2  0
  7 15  1  0
  8  9  1  0
  8 12  1  0
  9 10  1  0
 10 11  2  0
 12 13  2  0
 13 14  1  0
 14 15  2  0
 14 16  1  0
 16 17  3  0
M  END
>  <DRUGBANK_ID>  (1) 
DB12209

>  <COMMON_NAME>  (1) 
Tirasemtiv

>  <CAS_NUMBER>  (1) 
1005491-05-3

>  <UNII>  (1) 
G8WSM7R635

>  <SYNONYMS>  (1) 
Tirasemtiv

$$$$
