B66
     RDKit          3D

 29 30  0  0  0  0  0  0  0  0999 V2000
    1.2754   -0.3045   -0.3494 C   0  0  0  0  0  0  0  0  0  0  0  0
    0.4091   -1.3620   -0.1241 C   0  0  0  0  0  0  0  0  0  0  0  0
   -0.9519   -1.1033   -0.0308 C   0  0  0  0  0  0  0  0  0  0  0  0
   -1.8727   -2.2351    0.0562 N   0  0  0  0  0  0  0  0  0  0  0  0
   -3.0850   -1.9879    0.0724 O   0  0  0  0  0  0  0  0  0  0  0  0
   -1.3817   -3.3726    0.1025 O   0  0  0  0  0  0  0  0  0  0  0  0
   -1.4283    0.2149   -0.0430 C   0  0  0  0  0  0  0  0  0  0  0  0
   -0.5162    1.2768   -0.0923 C   0  0  0  0  0  0  0  0  0  0  0  0
    0.8426    1.0198   -0.2917 C   0  0  0  0  0  0  0  0  0  0  0  0
    1.6681    2.1106   -0.3552 O   0  0  0  0  0  0  0  0  0  0  0  0
    3.0944    1.8842   -0.4215 C   0  0  0  0  0  0  0  0  0  0  0  0
    3.7497    1.3758    0.9040 C   0  0  1  0  0  0  0  0  0  0  0  0
    3.2573    0.1000    1.3506 O   0  0  0  0  0  0  0  0  0  0  0  0
    5.2407    1.1429    0.6848 C   0  0  0  0  0  0  0  0  0  0  0  0
    3.4621    2.3432    2.0740 C   0  0  1  0  0  0  0  0  0  0  0  0
    4.0065    3.6205    1.8481 O   0  0  0  0  0  0  0  0  0  0  0  0
    2.0197    2.4255    2.2364 N   0  0  0  0  0  0  0  0  0  0  0  0
    1.3312    2.1668    3.3909 C   0  0  0  0  0  0  0  0  0  0  0  0
    1.8934    2.4563    4.6187 C   0  0  0  0  0  0  0  0  0  0  0  0
    0.0573    1.5890    3.3803 C   0  0  0  0  0  0  0  0  0  0  0  0
   -0.6844    1.4256    4.5547 C   0  0  0  0  0  0  0  0  0  0  0  0
   -0.1058    1.7316    5.7842 C   0  0  0  0  0  0  0  0  0  0  0  0
   -0.8172    1.4480    6.9923 C   0  0  0  0  0  0  0  0  0  0  0  0
   -1.3643    1.1827    7.9893 N   0  0  0  0  0  0  0  0  0  0  0  0
    1.1874    2.2695    5.8114 C   0  0  0  0  0  0  0  0  0  0  0  0
    1.8151    2.7324    7.0877 C   0  0  0  0  0  0  0  0  0  0  0  0
    1.0767    3.7020    7.6865 F   0  0  0  0  0  0  0  0  0  0  0  0
    1.9673    1.7299    7.9870 F   0  0  0  0  0  0  0  0  0  0  0  0
    3.0555    3.2676    6.9085 F   0  0  0  0  0  0  0  0  0  0  0  0
  1  2  2  0
  1  9  1  0
  2  3  1  0
  3  4  1  0
  3  7  2  0
  4  5  1  0
  4  6  2  0
  7  8  1  0
  8  9  2  0
  9 10  1  0
 10 11  1  0
 11 12  1  0
 12 13  1  0
 12 14  1  6
 12 15  1  0
 15 16  1  6
 15 17  1  0
 17 18  1  0
 18 19  2  0
 18 20  1  0
 19 25  1  0
 20 21  2  0
 21 22  1  0
 22 23  1  0
 22 25  2  0
 23 24  3  0
 25 26  1  0
 26 27  1  0
 26 28  1  0
 26 29  1  0
M  CHG  2   4   1   5  -1
M  END
>  <DRUGBANK_ID>  (1) 
DB07421

>  <COMMON_NAME>  (1) 
4-{[(1R,2S)-1,2-dihydroxy-2-methyl-3-(4-nitrophenoxy)propyl]amino}-2-(trifluoromethyl)benzonitrile

$$$$
