
     RDKit          3D

 18 17  0  0  0  0  0  0  0  0999 V2000
    0.9314    0.0018    0.0086 Si  0  0  0  0  0  4  0  0  0  0  0  0
    0.3791    1.5055   -0.4622 O   0  0  0  0  0  0  0  0  0  0  0  0
    0.2748   -1.1504   -1.0187 O   0  0  0  0  0  0  0  0  0  0  0  0
    0.2228   -0.2160    1.5029 O   0  0  0  0  0  0  0  0  0  0  0  0
    2.8340   -0.0562   -0.0309 C   0  0  0  0  0  0  0  0  0  0  0  0
    3.4876    0.1742   -1.4103 C   0  0  0  0  0  0  0  0  0  0  0  0
    0.7567    2.7341    0.1566 C   0  0  0  0  0  0  0  0  0  0  0  0
    0.5936   -1.2245   -2.4011 C   0  0  0  0  0  0  0  0  0  0  0  0
   -1.2074   -0.2965    1.5822 C   0  0  0  0  0  0  0  0  0  0  0  0
    3.1016    1.5043   -2.0586 C   0  0  0  0  0  0  0  0  0  0  0  0
    3.6840    2.6681   -1.2705 C   0  0  0  0  0  0  0  0  0  0  0  0
    0.3906    2.9624    1.6070 C   0  0  0  0  0  0  0  0  0  0  0  0
    0.0882   -0.0440   -3.2151 C   0  0  0  0  0  0  0  0  0  0  0  0
   -2.0105    0.9333    1.1439 C   0  0  0  0  0  0  0  0  0  0  0  0
    5.1858    2.7354   -1.3600 C   0  0  0  0  0  0  0  0  0  0  0  0
    5.6283    2.9143   -2.8003 C   0  0  0  0  0  0  0  0  0  0  0  0
    5.0354    4.1812   -3.4218 C   0  0  0  0  0  0  0  0  0  0  0  0
    5.4135    5.4119   -2.6111 C   0  0  0  0  0  0  0  0  0  0  0  0
  1  2  1  0
  1  3  1  0
  1  4  1  0
  1  5  1  0
  2  7  1  0
  3  8  1  0
  4  9  1  0
  5  6  1  0
  6 10  1  0
  7 12  1  0
  8 13  1  0
  9 14  1  0
 10 11  1  0
 11 15  1  0
 15 16  1  0
 16 17  1  0
 17 18  1  0
M  END
>  <DRUGBANK_ID>  (1) 
DB11267

>  <COMMON_NAME>  (1) 
Triethoxycaprylylsilane

>  <CAS_NUMBER>  (1) 
2943-75-1

>  <UNII>  (1) 
LDC331P08E

>  <SYNONYMS>  (1) 
Caprylyltriethoxysilane; n-Octyltriethoxysilane; Octyl(triethoxy)silane; Octyltriethoxysilane; Triethoxyoctylsilane

$$$$
