
     RDKit          3D

 33 35  0  0  0  0  0  0  0  0999 V2000
   -0.8953   -3.9982    1.1282 C   0  0  2  0  0  0  0  0  0  0  0  0
    0.3621   -1.8865    3.6567 C   0  0  1  0  0  0  0  0  0  0  0  0
   -2.8211   -3.9992    2.0292 C   0  0  1  0  0  0  0  0  0  0  0  0
   -2.6978   -4.0421    3.5629 C   0  0  2  0  0  0  0  0  0  0  0  0
   -1.7807   -2.7690    3.9781 C   0  0  2  0  0  0  0  0  0  0  0  0
   -2.0845   -0.8787    1.4515 C   0  0  2  0  0  0  0  0  0  0  0  0
   -0.8574   -1.5486    1.1494 C   0  0  1  0  0  0  0  0  0  0  0  0
   -0.4951   -3.2099    2.4429 C   0  0  2  0  0  0  0  0  0  0  0  0
   -0.1796   -3.3774    3.8440 C   0  0  1  0  0  0  0  0  0  0  0  0
   -1.0038   -1.4074    4.5883 C   0  0  2  0  0  0  0  0  0  0  0  0
   -1.3466   -0.1044    3.1764 O   0  0  0  0  0  0  0  0  0  0  0  0
   -0.0344   -4.5650    4.5098 O   0  0  0  0  0  0  0  0  0  0  0  0
   -0.5637   -1.4541    5.9904 C   0  0  0  0  0  0  0  0  0  0  0  0
    0.9188   -3.9900    1.1602 N   0  0  0  0  0  0  0  0  0  0  0  0
    0.1578   -2.6551    6.2947 O   0  0  0  0  0  0  0  0  0  0  0  0
    1.6857   -3.1118    4.5303 N   0  0  0  0  0  0  0  0  0  0  0  0
   -0.2637   -5.5815    1.8748 N   0  0  0  0  0  0  0  0  0  0  0  0
   -2.0540   -5.2300    4.0075 O   0  0  0  0  0  0  0  0  0  0  0  0
   -3.6815   -2.2296    1.8200 O   0  0  0  0  0  0  0  0  0  0  0  0
   -3.1401   -1.8722    3.9738 O   0  0  0  0  0  0  0  0  0  0  0  0
   -2.7041   -1.3041    2.8984 C   0  0  1  0  0  0  0  0  0  0  0  0
   -2.2666   -2.5653    1.3372 O   0  0  0  0  0  0  0  0  0  0  0  0
   -3.1148   -2.4022   -0.3556 C   0  0  1  0  0  0  0  0  0  0  0  0
   -3.6921   -0.9082   -0.5663 C   0  0  2  0  0  0  0  0  0  0  0  0
   -2.9205    0.4762    0.0642 C   0  0  1  0  0  0  0  0  0  0  0  0
   -3.1206    0.5685    2.0461 C   0  0  1  0  0  0  0  0  0  0  0  0
   -1.5946   -2.7301   -1.6148 C   0  0  0  0  0  0  0  0  0  0  0  0
   -0.6038   -3.8217   -1.2337 N   0  0  0  0  0  0  0  0  0  0  0  0
   -4.5013    0.5700    2.1938 O   0  0  0  0  0  0  0  0  0  0  0  0
   -1.5725    0.5154   -0.4446 O   0  0  0  0  0  0  0  0  0  0  0  0
   -5.0028   -0.8068   -0.0258 O   0  0  0  0  0  0  0  0  0  0  0  0
    0.5875   -2.3504    1.6934 C   0  0  0  0  0  0  0  0  0  0  0  0
   -1.2603   -1.8535   -0.0210 O   0  0  0  0  0  0  0  0  0  0  0  0
  1  3  1  0
  1 17  1  1
  2 32  1  0
  2 16  1  1
  3 19  1  1
  3  4  1  0
  4 18  1  6
  4  5  1  0
  5  2  1  0
  5 20  1  6
  6 19  1  1
  6  7  1  0
  7  8  1  0
  7 33  1  6
  8  9  1  0
  8 14  1  6
  9 10  1  0
  9 12  1  1
 10 11  1  0
 10 13  1  1
 11  6  1  0
 13 15  1  0
 21 22  1  0
 21 20  1  6
 22 23  1  0
 23 24  1  0
 23 27  1  6
 24 25  1  0
 24 31  1  1
 25 26  1  0
 25 30  1  1
 26 21  1  0
 26 29  1  6
 27 28  1  0
 32  1  1  0
M  END
>  <DRUGBANK_ID>  (1) 
DB01172

>  <SECONDARY_ACCESSION_NUMBERS>  (1) 
APRD00026

>  <COMMON_NAME>  (1) 
Kanamycin

>  <CAS_NUMBER>  (1) 
59-01-8

>  <UNII>  (1) 
EQK9Q303C5

>  <SYNONYMS>  (1) 
4,6-diamino-2-hydroxy-1,3-cyclohexane 3,6'diamino-3,6'-dideoxydi-Î±-D-glucoside; 4,6-diamino-2-hydroxy-1,3-cyclohexylene 3,6'-diamino-3,6'-dideoxydi-D-glucopyranoside; Kanamycin A

$$$$
