
     RDKit          3D

 30 33  0  0  0  0  0  0  0  0999 V2000
    0.5143    0.1223   -0.0724 C   0  0  0  0  0  0  0  0  0  0  0  0
    1.1587    1.3552   -0.0230 C   0  0  0  0  0  0  0  0  0  0  0  0
    2.5219    1.3775    0.0567 C   0  0  0  0  0  0  0  0  0  0  0  0
    3.1831    0.1619    0.1571 C   0  0  0  0  0  0  0  0  0  0  0  0
    2.6049   -1.1064   -0.0362 C   0  0  0  0  0  0  0  0  0  0  0  0
    1.2245   -1.0805   -0.1335 C   0  0  0  0  0  0  0  0  0  0  0  0
   -1.5454    0.0443   -0.0178 I   0  0  0  0  0  0  0  0  0  0  0  0
    3.2877   -2.4827   -0.1028 C   0  0  0  0  0  0  0  0  0  0  0  0
    3.3560   -3.2006    1.2254 C   0  0  0  0  0  0  0  0  0  0  0  0
    1.7820   -4.2333    3.0182 C   0  0  0  0  0  0  0  0  0  0  0  0
    2.0220   -3.8131    1.6020 C   0  0  0  0  0  0  0  0  0  0  0  0
    4.4575   -3.3973    2.0039 C   0  0  0  0  0  0  0  0  0  0  0  0
    4.2593   -4.0596    3.3857 C   0  0  0  0  0  0  0  0  0  0  0  0
    3.0144   -4.9473    3.5155 C   0  0  0  0  0  0  0  0  0  0  0  0
    1.1358   -3.9822    0.7679 O   0  0  0  0  0  0  0  0  0  0  0  0
    5.8115   -3.1073    1.6656 N   0  0  0  0  0  0  0  0  0  0  0  0
    6.2797   -2.3818    0.5419 C   0  0  0  0  0  0  0  0  0  0  0  0
    5.9131   -1.0646    0.3804 C   0  0  0  0  0  0  0  0  0  0  0  0
    7.0165   -2.9315   -0.5075 C   0  0  0  0  0  0  0  0  0  0  0  0
    7.1637   -2.2529   -1.7589 C   0  0  0  0  0  0  0  0  0  0  0  0
    6.5189   -1.0449   -1.9968 C   0  0  0  0  0  0  0  0  0  0  0  0
    5.9172   -0.4585   -0.9066 C   0  0  0  0  0  0  0  0  0  0  0  0
    6.4020   -0.3664   -3.3373 C   0  0  0  0  0  0  0  0  0  0  0  0
    7.3657    1.4460   -4.7177 C   0  0  0  0  0  0  0  0  0  0  0  0
    6.6638    1.1439   -3.4011 C   0  0  1  0  0  0  0  0  0  0  0  0
    5.4156    2.0275   -3.2676 C   0  0  0  0  0  0  0  0  0  0  0  0
    6.6402    0.8139   -5.8785 C   0  0  0  0  0  0  0  0  0  0  0  0
    6.6404    1.3020   -6.9951 O   0  0  0  0  0  0  0  0  0  0  0  0
    6.0784   -1.0548   -4.3952 N   0  0  0  0  0  0  0  0  0  0  0  0
    6.0466   -0.3983   -5.5992 N   0  0  0  0  0  0  0  0  0  0  0  0
  1  2  2  0
  1  6  1  0
  1  7  1  0
  2  3  1  0
  3  4  2  0
  4  5  1  0
  5  6  2  0
  5  8  1  0
  8  9  1  0
  9 11  1  0
  9 12  2  0
 10 11  1  0
 10 14  1  0
 11 15  2  0
 12 13  1  0
 12 16  1  0
 13 14  1  0
 16 17  1  0
 17 18  2  0
 17 19  1  0
 18 22  1  0
 19 20  2  0
 20 21  1  0
 21 22  2  0
 21 23  1  0
 23 25  1  0
 23 29  2  0
 24 25  1  0
 24 27  1  0
 25 26  1  6
 27 30  1  0
 27 28  2  0
 29 30  1  0
M  END
>  <DRUGBANK_ID>  (1) 
DB01640

>  <SECONDARY_ACCESSION_NUMBERS>  (1) 
EXPT00272

>  <COMMON_NAME>  (1) 
6-(4-{[2-(3-iodobenzyl)-3-oxocyclohex-1-en-1-yl]amino}phenyl)-5-methyl-4,5-dihydropyridazin-3(2H)-one

>  <SYNONYMS>  (1) 
(4R)-3-[4-[[2-[(3-Iodophenyl)methyl]-3-oxocyclohexen-1-yl]amino]phenyl]-4-methyl-4,5-dihydro-1H-pyridazin-6-one

$$$$
