
     RDKit          3D

 16 19  0  0  1  0  0  0  0  0999 V2000
   -3.5869    0.0628    0.4069 C   0  0  0  0  0  0  0  0  0  0  0  0
   -2.6289    1.0760    0.3576 C   0  0  0  0  0  0  0  0  0  0  0  0
   -1.3266    0.7830   -0.0154 C   0  0  0  0  0  0  0  0  0  0  0  0
   -1.0200   -0.5510   -0.2643 C   0  0  0  0  0  0  0  0  0  0  0  0
   -1.9315   -1.5560   -0.2263 N   0  0  0  0  0  0  0  0  0  0  0  0
   -3.1913   -1.2318    0.0976 C   0  0  0  0  0  0  0  0  0  0  0  0
    0.3440   -0.9470   -0.6678 C   0  0  0  0  0  0  0  0  0  0  0  0
    1.3896    0.1146   -0.4020 C   0  0  2  0  0  0  0  0  0  0  0  0
    2.6652   -0.3351   -1.1909 C   0  0  0  0  0  0  0  0  0  0  0  0
    3.8011   -0.2334   -0.1740 C   0  0  0  0  0  0  0  0  0  0  0  0
    3.2790    0.7879    0.7504 N   0  0  0  0  0  0  0  0  0  0  0  0
    1.9025    0.2761    1.0303 C   0  0  0  0  0  0  0  0  0  0  0  0
    3.2358    2.0678   -0.0528 C   0  0  0  0  0  0  0  0  0  0  0  0
    1.8190    2.6213   -0.1894 C   0  0  0  0  0  0  0  0  0  0  0  0
    0.8474    1.5310   -0.7316 C   0  0  2  0  0  0  0  0  0  0  0  0
   -0.4322    1.8088   -0.0997 O   0  0  0  0  0  0  0  0  0  0  0  0
  1  2  2  0
  1  6  1  0
  2  3  1  0
  3  4  2  0
  3 16  1  0
  4  5  1  0
  4  7  1  0
  5  6  2  0
  8  7  1  1
  8  9  1  0
  8 12  1  0
  8 15  1  0
  9 10  1  0
 11 10  1  0
 11 12  1  0
 11 13  1  0
 13 14  1  0
 15 14  1  1
 15 16  1  0
M  END
>  <DRUGBANK_ID>  (1) 
DB12125

>  <COMMON_NAME>  (1) 
Dianicline

>  <CAS_NUMBER>  (1) 
292634-27-6

>  <UNII>  (1) 
Y0SNM34C6O

>  <SYNONYMS>  (1) 
Dianicline

$$$$
