
     RDKit          3D

 28 30  0  0  0  0  0  0  0  0999 V2000
    1.0993   -0.1932   -0.0805 C   0  0  0  0  0  0  0  0  0  0  0  0
    0.6741   -1.2093    0.8250 O   0  0  0  0  0  0  0  0  0  0  0  0
    0.8749   -2.5124    0.4467 C   0  0  0  0  0  0  0  0  0  0  0  0
    2.1526   -2.9772    0.1428 C   0  0  0  0  0  0  0  0  0  0  0  0
    2.3905   -4.3521   -0.0570 C   0  0  0  0  0  0  0  0  0  0  0  0
    1.3678   -5.3138    0.0515 C   0  0  0  0  0  0  0  0  0  0  0  0
    0.1013   -4.8358    0.4235 C   0  0  0  0  0  0  0  0  0  0  0  0
   -0.1659   -3.4483    0.5701 C   0  0  0  0  0  0  0  0  0  0  0  0
   -1.4889   -3.1648    0.8242 O   0  0  0  0  0  0  0  0  0  0  0  0
   -1.9074   -1.8080    0.6865 C   0  0  0  0  0  0  0  0  0  0  0  0
    1.6444   -6.7626   -0.2206 C   0  0  0  0  0  0  0  0  0  0  0  0
    0.7405   -7.5443   -0.8657 C   0  0  0  0  0  0  0  0  0  0  0  0
    1.4617   -7.9419   -2.1323 C   0  0  0  0  0  0  0  0  0  0  0  0
    1.1798   -7.4756   -3.1957 O   0  0  0  0  0  0  0  0  0  0  0  0
    2.6303   -8.8125   -1.8235 C   0  0  0  0  0  0  0  0  0  0  0  0
    3.4148   -8.2274   -0.8295 C   0  0  0  0  0  0  0  0  0  0  0  0
    3.0151   -7.0687   -0.1977 O   0  0  0  0  0  0  0  0  0  0  0  0
    4.5792   -8.8178   -0.3696 C   0  0  0  0  0  0  0  0  0  0  0  0
    4.9398  -10.0718   -0.8361 C   0  0  0  0  0  0  0  0  0  0  0  0
    4.0394  -10.7573   -1.6762 C   0  0  0  0  0  0  0  0  0  0  0  0
    2.8858  -10.1247   -2.2155 C   0  0  0  0  0  0  0  0  0  0  0  0
    2.1137  -10.9398   -3.0010 O   0  0  0  0  0  0  0  0  0  0  0  0
    1.0024  -10.3756   -3.6940 C   0  0  0  0  0  0  0  0  0  0  0  0
    6.1194  -10.6934   -0.5107 O   0  0  0  0  0  0  0  0  0  0  0  0
    7.1283   -9.8855    0.1060 C   0  0  0  0  0  0  0  0  0  0  0  0
    7.5637   -8.5957   -0.5969 C   0  0  0  0  0  0  0  0  0  0  0  0
    7.4991   -7.4689   -0.1261 O   0  0  0  0  0  0  0  0  0  0  0  0
    8.0211   -8.7835   -1.8484 O   0  0  0  0  0  0  0  0  0  0  0  0
  1  2  1  0
  2  3  1  0
  3  4  2  0
  3  8  1  0
  4  5  1  0
  5  6  2  0
  6  7  1  0
  6 11  1  0
  7  8  2  0
  8  9  1  0
  9 10  1  0
 11 12  2  0
 11 17  1  0
 12 13  1  0
 13 14  2  0
 13 15  1  0
 15 16  2  0
 15 21  1  0
 16 17  1  0
 16 18  1  0
 18 19  2  0
 19 20  1  0
 19 24  1  0
 20 21  2  0
 21 22  1  0
 22 23  1  0
 24 25  1  0
 25 26  1  0
 26 27  2  0
 26 28  1  0
M  END
>  <DRUGBANK_ID>  (1) 
DB12058

>  <COMMON_NAME>  (1) 
Recoflavone

>  <CAS_NUMBER>  (1) 
203191-10-0

>  <UNII>  (1) 
U96J5LG435

>  <SYNONYMS>  (1) 
Recoflavone

$$$$
