
     RDKit          3D

  8  8  0  0  0  0  0  0  0  0999 V2000
    0.1458    0.9457   -0.0609 C   0  0  1  0  0  0  0  0  0  0  0  0
    0.8952   -0.3366    0.1669 C   0  0  2  0  0  0  0  0  0  0  0  0
   -0.5507   -0.2688    0.2063 O   0  0  0  0  0  0  0  0  0  0  0  0
   -0.0303    2.0275    0.9332 C   0  0  0  0  0  0  0  0  0  0  0  0
    1.6944   -0.9794    1.6154 P   0  0  0  0  0  0  0  0  0  0  0  0
    0.8293   -2.0611    2.1730 O   0  0  0  0  0  0  0  0  0  0  0  0
    3.1349   -1.4935    1.1528 O   0  0  0  0  0  0  0  0  0  0  0  0
    2.0309    0.1552    2.6786 O   0  0  0  0  0  0  0  0  0  0  0  0
  1  2  1  0
  1  3  1  0
  1  4  1  1
  2  3  1  0
  2  5  1  1
  5  6  2  0
  5  7  1  0
  5  8  1  0
M  END
>  <DRUGBANK_ID>  (1) 
DB00828

>  <SECONDARY_ACCESSION_NUMBERS>  (1) 
APRD00987

>  <COMMON_NAME>  (1) 
Fosfomycin

>  <CAS_NUMBER>  (1) 
23155-02-4

>  <UNII>  (1) 
2N81MY12TE

>  <SYNONYMS>  (1) 
(-)-(1R,2S)-(1,2-Epoxypropyl)phosphonic acid; (1R,2S)-epoxypropylphosphonic acid; (2R-cis)-(3-Methyloxiranyl)phosphonic acid; 1R-cis-(1,2-epoxypropyl)phosphonic acid; cis-(1R,2S)-epoxypropylphosphonic acid; FCM; Fosfocina; Fosfomicina; Fosfomycin; Fosfomycine; Fosfomycinum; L-cis-1,2-epoxypropylphosphonic acid; Phosphomycin; Phosphonemycin; Phosphonomycin

$$$$
