SS4
     RDKit          3D

 28 31  0  0  0  0  0  0  0  0999 V2000
    7.0700   10.8911    0.9751 N   0  0  0  0  0  0  0  0  0  0  0  0
    6.3157    2.6746    1.8721 N   0  0  0  0  0  0  0  0  0  0  0  0
    7.2821    8.8081    0.0784 C   0  0  0  0  0  0  0  0  0  0  0  0
    7.6218    7.7248   -0.7318 C   0  0  0  0  0  0  0  0  0  0  0  0
    7.1451    6.4692   -0.3516 C   0  0  0  0  0  0  0  0  0  0  0  0
    6.4139   10.0089    1.7415 C   0  0  0  0  0  0  0  0  0  0  0  0
    2.2820    5.2869    5.7516 C   0  0  0  0  0  0  0  0  0  0  0  0
    3.6569    5.7279    7.6366 C   0  0  0  0  0  0  0  0  0  0  0  0
    5.7028   10.4615    2.9636 C   0  0  0  0  0  0  0  0  0  0  0  0
    3.3236    5.5515    4.8766 C   0  0  0  0  0  0  0  0  0  0  0  0
    5.8765    4.9347    1.0851 C   0  0  0  0  0  0  0  0  0  0  0  0
    4.5318    4.5994    0.9133 C   0  0  0  0  0  0  0  0  0  0  0  0
    4.0565    3.3569    1.3366 C   0  0  0  0  0  0  0  0  0  0  0  0
    1.8009    4.1476    1.4776 C   0  0  0  0  0  0  0  0  0  0  0  0
    6.3592    6.2861    0.7905 C   0  0  0  0  0  0  0  0  0  0  0  0
    6.0421    7.4069    1.5934 C   0  0  0  0  0  0  0  0  0  0  0  0
    6.5105    8.6856    1.2257 C   0  0  0  0  0  0  0  0  0  0  0  0
    7.5806   10.1395   -0.0139 N   0  0  0  0  0  0  0  0  0  0  0  0
    2.4184    5.3870    7.1120 C   0  0  0  0  0  0  0  0  0  0  0  0
    4.5902    5.8570    5.4156 C   0  0  0  0  0  0  0  0  0  0  0  0
    4.9867    2.4310    1.7953 C   0  0  0  0  0  0  0  0  0  0  0  0
    6.7223    3.9206    1.5281 C   0  0  0  0  0  0  0  0  0  0  0  0
    4.7446    5.9490    6.7965 C   0  0  0  0  0  0  0  0  0  0  0  0
    2.7361    3.0639    1.5555 O   0  0  0  0  0  0  0  0  0  0  0  0
    1.8856    5.2731    2.5754 C   0  0  2  0  0  0  0  0  0  0  0  0
    3.2068    5.2855    3.4087 C   0  0  0  0  0  0  0  0  0  0  0  0
    0.6745    5.1984    3.3935 N   0  0  0  0  0  0  0  0  0  0  0  0
    3.8092    5.8585    9.5068 Br  0  0  0  0  0  0  0  0  0  0  0  0
  1  6  2  0
  1 18  1  0
  2 21  2  0
  2 22  1  0
  3  4  1  0
  3 17  2  0
  3 18  1  0
  4  5  2  0
  5 15  1  0
  6  9  1  0
  6 17  1  0
  7 10  2  0
  7 19  1  0
  8 19  2  0
  8 23  1  0
  8 28  1  0
 10 20  1  0
 10 26  1  0
 11 12  1  0
 11 15  1  0
 11 22  2  0
 12 13  2  0
 13 21  1  0
 13 24  1  0
 14 24  1  0
 15 16  2  0
 16 17  1  0
 20 23  2  0
 25 27  1  1
 25 26  1  0
 25 14  1  0
M  END
>  <DRUGBANK_ID>  (1) 
DB08569

>  <COMMON_NAME>  (1) 
3-PYRIDIN-4-YL-2,4-DIHYDRO-INDENO[1,2-.C.] PYRAZOLE

$$$$
