
     RDKit          3D

 32 35  0  0  0  0  0  0  0  0999 V2000
    1.0742   -0.5968    0.3429 O   0  0  0  0  0  0  0  0  0  0  0  0
    2.7199    0.9845    2.3621 N   0  0  0  0  0  0  0  0  0  0  0  0
    5.2863    2.1642   -1.1791 N   0  0  0  0  0  0  0  0  0  0  0  0
    2.8802   -1.2253   -0.7073 N   0  0  0  0  0  0  0  0  0  0  0  0
    1.8918    1.5880   -0.7829 N   0  0  0  0  0  0  0  0  0  0  0  0
    3.2649    0.9731    0.9587 C   0  0  0  0  0  0  0  0  0  0  0  0
    3.4223    2.6395    0.5701 C   0  0  0  0  0  0  0  0  0  0  0  0
    4.7055    0.5007    0.6679 C   0  0  0  0  0  0  0  0  0  0  0  0
    4.2130    3.0141   -0.6779 C   0  0  0  0  0  0  0  0  0  0  0  0
    5.0854    0.7610   -0.8083 C   0  0  0  0  0  0  0  0  0  0  0  0
    3.5102    1.9104    3.1703 C   0  0  0  0  0  0  0  0  0  0  0  0
    1.2856    1.4392    2.3866 C   0  0  0  0  0  0  0  0  0  0  0  0
    3.0913    1.9423    4.6045 C   0  0  0  0  0  0  0  0  0  0  0  0
    0.7545    1.4886    3.8160 C   0  0  0  0  0  0  0  0  0  0  0  0
    2.3166   -0.3790    0.2163 C   0  0  0  0  0  0  0  0  0  0  0  0
    1.6334    2.3777    4.6832 C   0  0  0  0  0  0  0  0  0  0  0  0
    5.2999    2.2362   -2.6793 C   0  0  0  0  0  0  0  0  0  0  0  0
    4.1267    1.6230   -3.6112 C   0  0  0  0  0  0  0  0  0  0  0  0
    2.5606    1.9939   -3.4515 C   0  0  0  0  0  0  0  0  0  0  0  0
    2.3813    3.5646   -3.7518 C   0  0  0  0  0  0  0  0  0  0  0  0
    1.6882    1.0975   -4.3964 C   0  0  0  0  0  0  0  0  0  0  0  0
    2.1950    1.7721   -1.9929 C   0  0  0  0  0  0  0  0  0  0  0  0
    1.1244    4.1689   -3.9209 C   0  0  0  0  0  0  0  0  0  0  0  0
    1.8497   -0.2949   -4.3936 C   0  0  0  0  0  0  0  0  0  0  0  0
    3.4481    4.4764   -3.8074 C   0  0  0  0  0  0  0  0  0  0  0  0
    0.6682    1.5813   -5.2484 C   0  0  0  0  0  0  0  0  0  0  0  0
    0.9922    5.5092   -4.3114 C   0  0  0  0  0  0  0  0  0  0  0  0
    1.0188   -1.1272   -5.1552 C   0  0  0  0  0  0  0  0  0  0  0  0
    3.2842    5.8603   -3.8188 C   0  0  0  0  0  0  0  0  0  0  0  0
   -0.2724    0.7551   -5.8595 C   0  0  0  0  0  0  0  0  0  0  0  0
    2.0646    6.3748   -4.1866 C   0  0  0  0  0  0  0  0  0  0  0  0
   -0.0663   -0.6072   -5.8532 C   0  0  0  0  0  0  0  0  0  0  0  0
  1 15  2  0
  2  6  1  0
  2 11  1  0
  2 12  1  0
  3  9  1  0
  3 10  1  0
  3 17  1  0
  4 15  1  0
  5 22  3  0
  6  7  1  0
  6  8  1  0
  6 15  1  0
  7  9  1  0
  8 10  1  0
 11 13  1  0
 12 14  1  0
 13 16  1  0
 14 16  1  0
 17 18  1  0
 18 19  1  0
 19 20  1  0
 19 21  1  0
 19 22  1  0
 20 23  2  0
 20 25  1  0
 21 24  2  0
 21 26  1  0
 23 27  1  0
 24 28  1  0
 25 29  2  0
 26 30  2  0
 27 31  2  0
 28 32  2  0
 29 31  1  0
 30 32  1  0
M  END
>  <DRUGBANK_ID>  (1) 
DB12492

>  <COMMON_NAME>  (1) 
Piritramide

>  <CAS_NUMBER>  (1) 
302-41-0

>  <UNII>  (1) 
4RP92LYZ2F

>  <SYNONYMS>  (1) 
Piritramida; Piritramide; Piritramidum

$$$$
