
     RDKit          3D

  9  8  0  0  1  0  0  0  0  0999 V2000
    1.0061    0.0799    0.0645 C   0  0  0  0  0  0  0  0  0  0  0  0
    0.4556   -1.2970   -0.3054 C   0  0  0  0  0  0  0  0  0  0  0  0
    0.9482   -2.3418    0.6922 C   0  0  0  0  0  0  0  0  0  0  0  0
   -1.0858   -1.2827   -0.3659 C   0  0  0  0  0  0  0  0  0  0  0  0
   -1.6562   -0.2807   -1.3856 C   0  0  1  0  0  0  0  0  0  0  0  0
   -1.1567   -0.5827   -2.7373 N   0  0  0  0  0  0  0  0  0  0  0  0
   -3.1945   -0.3332   -1.3609 C   0  0  0  0  0  0  0  0  0  0  0  0
   -3.7841    0.8425   -1.0280 O   0  0  0  0  0  0  0  0  0  0  0  0
   -3.8629   -1.3275   -1.6170 O   0  0  0  0  0  0  0  0  0  0  0  0
  1  2  1  0
  2  3  1  0
  2  4  1  0
  4  5  1  0
  5  6  1  6
  5  7  1  0
  7  8  1  0
  7  9  2  0
M  END
>  <DRUGBANK_ID>  (1) 
DB01746

>  <SECONDARY_ACCESSION_NUMBERS>  (1) 
EXPT01216

>  <COMMON_NAME>  (1) 
D-Leucine

>  <CAS_NUMBER>  (1) 
328-38-1

>  <UNII>  (1) 
965COD96YA

>  <SYNONYMS>  (1) 
(2R)-2-amino-4-methylpentanoic acid; (R)-(âˆ’)-leucine; (R)-leucine; D-2-Amino-4-methylvaleric acid; D-Leucin; D-Leuzin

$$$$
