
     RDKit          3D

 24 26  0  0  0  0  0  0  0  0999 V2000
   -1.0984   -0.9886   -0.0189 C   0  0  0  0  0  0  0  0  0  0  0  0
    0.0371   -1.7169   -0.0469 N   0  0  0  0  0  0  0  0  0  0  0  0
    1.2257   -1.0551   -0.0080 C   0  0  0  0  0  0  0  0  0  0  0  0
    2.4431   -1.9651    0.0047 C   0  0  0  0  0  0  0  0  0  0  0  0
    2.4696   -2.0788    2.7028 O   0  0  0  0  0  0  0  0  0  0  0  0
    1.3071    0.3565    0.0037 C   0  0  0  0  0  0  0  0  0  0  0  0
    0.0887    1.0896    0.0244 C   0  0  0  0  0  0  0  0  0  0  0  0
   -0.0787    2.4560    0.0544 O   0  0  0  0  0  0  0  0  0  0  0  0
    1.0328    3.3330    0.1287 C   0  0  0  0  0  0  0  0  0  0  0  0
    2.4921   -2.9881    1.5075 S   0  0  0  0  0  0  0  0  0  0  0  0
    4.1204   -3.6219    1.4030 C   0  0  0  0  0  0  0  0  0  0  0  0
    5.0080   -3.4667    2.3683 N   0  0  0  0  0  0  0  0  0  0  0  0
    4.6472   -4.3806    0.3881 N   0  0  0  0  0  0  0  0  0  0  0  0
    5.9577   -4.6684    0.6958 C   0  0  0  0  0  0  0  0  0  0  0  0
    6.1496   -4.0923    1.9466 C   0  0  0  0  0  0  0  0  0  0  0  0
    6.9698   -5.3519    0.0210 C   0  0  0  0  0  0  0  0  0  0  0  0
    7.4020   -4.1926    2.5734 C   0  0  0  0  0  0  0  0  0  0  0  0
    8.2240   -5.4155    0.6502 C   0  0  0  0  0  0  0  0  0  0  0  0
    8.4492   -4.8430    1.9066 C   0  0  0  0  0  0  0  0  0  0  0  0
    9.6487   -4.8455    2.5725 O   0  0  0  0  0  0  0  0  0  0  0  0
   10.7459   -5.4655    1.9090 C   0  0  0  0  0  0  0  0  0  0  0  0
    2.6534    1.0230   -0.0262 C   0  0  0  0  0  0  0  0  0  0  0  0
   -1.1407    0.3967    0.0034 C   0  0  0  0  0  0  0  0  0  0  0  0
   -2.4765    1.0911   -0.0372 C   0  0  0  0  0  0  0  0  0  0  0  0
  1 23  2  0
  1  2  1  0
  3  2  2  0
  3  4  1  0
  6  3  1  0
  6 22  1  0
  7  6  2  0
  7  8  1  0
  8  9  1  0
 10  4  1  0
 10 11  1  0
 10  5  2  0
 11 12  2  0
 12 15  1  0
 13 11  1  0
 13 14  1  0
 14 15  2  0
 15 17  1  0
 16 14  1  0
 16 18  2  0
 17 19  2  0
 19 18  1  0
 19 20  1  0
 20 21  1  0
 23  7  1  0
 23 24  1  0
M  END
>  <DRUGBANK_ID>  (1) 
DB00736

>  <SECONDARY_ACCESSION_NUMBERS>  (1) 
APRD00363

>  <COMMON_NAME>  (1) 
Esomeprazole

>  <CAS_NUMBER>  (1) 
119141-88-7

>  <UNII>  (1) 
N3PA6559FT

>  <SYNONYMS>  (1) 
(−)-omeprazole; (S)-(−)-omeprazole; (S)-omeprazole; Esomeprazol; Ésoméprazole; Esomeprazole; Esomeprazolum; Omeprazole S-form; Perprazole

$$$$
