
     RDKit          3D

 30 35  0  0  1  0  0  0  0  0999 V2000
   -1.3704   -0.2810   -0.5284 C   0  0  0  0  0  0  0  0  0  0  0  0
   -2.2104    0.5321   -1.2749 O   0  0  0  0  0  0  0  0  0  0  0  0
   -1.6296    0.9617   -2.5728 C   0  0  1  0  0  0  0  0  0  0  0  0
   -0.2685    0.4367   -2.5116 C   0  0  1  0  0  0  0  0  0  0  0  0
   -0.0421   -0.3859   -1.2240 C   0  0  2  0  0  0  0  0  0  0  0  0
   -1.0150   -0.4902   -5.2744 C   0  0  1  0  0  0  0  0  0  0  0  0
   -0.2392   -0.3790   -3.9570 C   0  0  2  0  0  0  0  0  0  0  0  0
   -0.3095   -2.1673   -6.0339 C   0  0  1  0  0  0  0  0  0  0  0  0
   -0.8864   -2.6805   -4.7038 C   0  0  2  0  0  0  0  0  0  0  0  0
   -0.6416   -1.7239   -3.6473 O   0  0  0  0  0  0  0  0  0  0  0  0
   -0.6641   -4.0493   -4.3790 O   0  0  0  0  0  0  0  0  0  0  0  0
   -0.2541   -4.5509   -5.5612 C   0  0  0  0  0  0  0  0  0  0  0  0
    0.7969   -3.6493   -5.9378 C   0  0  2  0  0  0  0  0  0  0  0  0
   -1.5947   -0.6552    0.6175 O   0  0  0  0  0  0  0  0  0  0  0  0
   -2.2874    0.3127   -4.0233 C   0  0  1  0  0  0  0  0  0  0  0  0
   -0.4265    0.5033   -6.5194 C   0  0  2  0  0  0  0  0  0  0  0  0
    1.1276   -1.6168   -7.0163 C   0  0  1  0  0  0  0  0  0  0  0  0
    0.2795   -0.5136   -7.6752 C   0  0  0  0  0  0  0  0  0  0  0  0
   -0.8350   -5.3957   -6.2879 O   0  0  0  0  0  0  0  0  0  0  0  0
    0.4644    1.6688   -2.3011 O   0  0  0  0  0  0  0  0  0  0  0  0
   -3.4695   -0.1545   -3.3102 O   0  0  0  0  0  0  0  0  0  0  0  0
    0.8364   -1.5664   -1.5515 C   0  0  0  0  0  0  0  0  0  0  0  0
    0.5248    0.9424   -4.5736 C   0  0  0  0  0  0  0  0  0  0  0  0
   -0.1773    1.5401   -5.5807 O   0  0  0  0  0  0  0  0  0  0  0  0
    1.6711    1.2686   -4.3000 O   0  0  0  0  0  0  0  0  0  0  0  0
    1.7122   -4.0998   -4.8586 O   0  0  0  0  0  0  0  0  0  0  0  0
    2.5629   -1.3723   -6.1828 C   0  0  0  0  0  0  0  0  0  0  0  0
    3.6403   -2.4404   -5.9010 C   0  0  0  0  0  0  0  0  0  0  0  0
    3.2941   -0.0408   -6.2853 C   0  0  0  0  0  0  0  0  0  0  0  0
    1.9072   -1.3076   -4.8935 C   0  0  0  0  0  0  0  0  0  0  0  0
  1  2  1  0
  1 14  2  0
  3  2  1  1
  3  4  1  0
  3 15  1  0
  4  5  1  0
  4 20  1  6
  5  1  1  0
  5 22  1  6
  6  7  1  0
  6  8  1  0
  6 16  1  6
  7  4  1  0
  7 23  1  0
  8  9  1  0
  8 17  1  1
  9 10  1  1
  9 11  1  0
  7 10  1  1
 11 12  1  0
 12 13  1  0
 12 19  2  0
 13  8  1  0
 13 26  1  1
 15  6  1  0
 15 21  1  1
 16 18  1  6
 17 18  1  0
 17 27  1  1
 23 24  1  0
 23 25  2  0
 24 16  1  0
 27 28  1  0
 27 29  1  0
 27 30  1  0
M  END
>  <DRUGBANK_ID>  (1) 
DB06744

>  <COMMON_NAME>  (1) 
ginkgolide-B

$$$$
