836
     RDKit          3D

 34 37  0  0  0  0  0  0  0  0999 V2000
   -2.2067    0.0290   -0.0092 Cl  0  0  0  0  0  0  0  0  0  0  0  0
    4.0624    0.7144    1.0229 O   0  0  0  0  0  0  0  0  0  0  0  0
    6.3592    0.4634    1.4225 O   0  0  0  0  0  0  0  0  0  0  0  0
    6.2662   -0.7484   -1.7394 N   0  0  0  0  0  0  0  0  0  0  0  0
    6.0868   -1.5187    2.5360 N   0  0  0  0  0  0  0  0  0  0  0  0
    3.7961    0.0252   -0.1880 C   0  0  0  0  0  0  0  0  0  0  0  0
    4.3492    0.8218   -1.3705 C   0  0  0  0  0  0  0  0  0  0  0  0
    4.2575   -1.4275   -0.3603 C   0  0  0  0  0  0  0  0  0  0  0  0
    5.8590    0.6447   -1.5716 C   0  0  0  0  0  0  0  0  0  0  0  0
    5.6402   -1.6730   -0.8420 C   0  0  0  0  0  0  0  0  0  0  0  0
    7.7251   -0.9508   -1.6819 C   0  0  0  0  0  0  0  0  0  0  0  0
    8.4861   -0.4167   -0.4363 C   0  0  0  0  0  0  0  0  0  0  0  0
    8.2292   -1.0892    0.9895 C   0  0  0  0  0  0  0  0  0  0  0  0
    2.2821    0.0143   -0.1034 C   0  0  0  0  0  0  0  0  0  0  0  0
    8.5407   -2.6176    0.8076 C   0  0  0  0  0  0  0  0  0  0  0  0
    9.1439   -0.3607    2.0303 C   0  0  0  0  0  0  0  0  0  0  0  0
    6.8001   -0.6811    1.6752 C   0  0  0  0  0  0  0  0  0  0  0  0
    1.5913    1.2307   -0.0553 C   0  0  0  0  0  0  0  0  0  0  0  0
    1.5540   -1.1865   -0.0031 C   0  0  0  0  0  0  0  0  0  0  0  0
    9.8854   -3.0230    0.8251 C   0  0  0  0  0  0  0  0  0  0  0  0
    9.0392    1.0409    2.1517 C   0  0  0  0  0  0  0  0  0  0  0  0
    7.5866   -3.6489    0.6690 C   0  0  0  0  0  0  0  0  0  0  0  0
    9.7311   -1.0734    3.0857 C   0  0  0  0  0  0  0  0  0  0  0  0
    0.2053    1.2365   -0.0199 C   0  0  0  0  0  0  0  0  0  0  0  0
    0.1756   -1.1845   -0.0007 C   0  0  0  0  0  0  0  0  0  0  0  0
   -0.4925    0.0295   -0.0143 C   0  0  0  0  0  0  0  0  0  0  0  0
   10.2337   -4.3667    0.9398 C   0  0  0  0  0  0  0  0  0  0  0  0
    9.4296    1.6761    3.3200 C   0  0  0  0  0  0  0  0  0  0  0  0
    7.9382   -4.9972    0.6785 C   0  0  0  0  0  0  0  0  0  0  0  0
   10.0840   -0.4454    4.2627 C   0  0  0  0  0  0  0  0  0  0  0  0
    6.7938   -2.3645    3.4511 C   0  0  0  0  0  0  0  0  0  0  0  0
    4.6962   -1.2733    2.9640 C   0  0  0  0  0  0  0  0  0  0  0  0
    9.2626   -5.3555    0.8492 C   0  0  0  0  0  0  0  0  0  0  0  0
    9.9534    0.9304    4.3706 C   0  0  0  0  0  0  0  0  0  0  0  0
  1 26  1  0
  2  6  1  0
  3 17  2  0
  4  9  1  0
  4 10  1  0
  4 11  1  0
  5 17  1  0
  5 31  1  0
  5 32  1  0
  6  7  1  0
  6  8  1  0
  6 14  1  0
  7  9  1  0
  8 10  1  0
 11 12  1  0
 12 13  1  0
 13 15  1  0
 13 16  1  0
 13 17  1  0
 14 18  2  0
 14 19  1  0
 15 20  2  0
 15 22  1  0
 16 21  2  0
 16 23  1  0
 18 24  1  0
 19 25  2  0
 20 27  1  0
 21 28  1  0
 22 29  2  0
 23 30  2  0
 24 26  2  0
 25 26  1  0
 27 33  2  0
 28 34  2  0
 29 33  1  0
 30 34  1  0
M  END
>  <DRUGBANK_ID>  (1) 
DB00836

>  <SECONDARY_ACCESSION_NUMBERS>  (1) 
APRD00275

>  <COMMON_NAME>  (1) 
Loperamide

>  <CAS_NUMBER>  (1) 
53179-11-6

>  <UNII>  (1) 
6X9OC3H4II

>  <SYNONYMS>  (1) 
Loperamid; Loperamida; LopÃ©ramide; Loperamide; Loperamidum

$$$$
