
     RDKit          3D

 11 11  0  0  0  0  0  0  0  0999 V2000
    1.0534   -0.0491   -0.0071 C   0  0  0  0  0  0  0  0  0  0  0  0
    0.5731    0.3212    1.2814 O   0  0  0  0  0  0  0  0  0  0  0  0
    0.1546   -0.6643    2.1370 C   0  0  0  0  0  0  0  0  0  0  0  0
    0.0600   -2.0275    1.8441 C   0  0  0  0  0  0  0  0  0  0  0  0
   -0.4415   -2.9232    2.7981 C   0  0  0  0  0  0  0  0  0  0  0  0
   -0.5919   -4.2770    2.5956 O   0  0  0  0  0  0  0  0  0  0  0  0
   -0.1612   -4.6140    1.2487 O   0  0  0  0  0  0  0  0  0  0  0  0
   -0.8315   -2.4577    4.0539 C   0  0  0  0  0  0  0  0  0  0  0  0
   -0.7198   -1.1051    4.3684 C   0  0  0  0  0  0  0  0  0  0  0  0
   -0.2300   -0.2236    3.4101 C   0  0  0  0  0  0  0  0  0  0  0  0
   -0.1345    1.0970    3.7600 O   0  0  0  0  0  0  0  0  0  0  0  0
  1  2  1  0
  2  3  1  0
  3  4  2  0
  3 10  1  0
  4  5  1  0
  5  6  1  0
  5  8  2  0
  6  7  1  0
  8  9  1  0
  9 10  2  0
 10 11  1  0
M  END
>  <DRUGBANK_ID>  (1) 
DB03764

>  <SECONDARY_ACCESSION_NUMBERS>  (1) 
EXPT00216

>  <COMMON_NAME>  (1) 
4-Hydroperoxy-2-Methoxy-Phenol

$$$$
