UI3
     RDKit          3D

 24 26  0  0  0  0  0  0  0  0999 V2000
    2.4422   -0.6985   -0.0414 C   0  0  0  0  0  0  0  0  0  0  0  0
    1.2226   -1.3787   -0.0032 C   0  0  0  0  0  0  0  0  0  0  0  0
    0.0074   -0.6830    0.0011 C   0  0  0  0  0  0  0  0  0  0  0  0
    0.0126    0.7305   -0.0114 C   0  0  0  0  0  0  0  0  0  0  0  0
    1.2671    1.4213   -0.0155 C   0  0  0  0  0  0  0  0  0  0  0  0
    2.4797    0.6981   -0.0488 C   0  0  0  0  0  0  0  0  0  0  0  0
   -1.2126   -1.3789    0.0113 C   0  0  0  0  0  0  0  0  0  0  0  0
   -2.4336   -0.6979   -0.0022 C   0  0  0  0  0  0  0  0  0  0  0  0
   -2.4663    0.6965   -0.0171 C   0  0  0  0  0  0  0  0  0  0  0  0
   -1.2474    1.3851   -0.0289 C   0  0  0  0  0  0  0  0  0  0  0  0
   -3.7734    1.4358   -0.0253 C   0  0  0  0  0  0  0  0  0  0  0  0
   -3.8820    2.7284   -0.0229 N   0  0  0  0  0  0  0  0  0  0  0  0
   -4.9581    0.7761   -0.0353 N   0  0  0  0  0  0  0  0  0  0  0  0
    3.6399    1.4327   -0.0641 O   0  0  0  0  0  0  0  0  0  0  0  0
    4.8683    0.7193   -0.1232 C   0  0  0  0  0  0  0  0  0  0  0  0
    1.2867    2.8783    0.1088 C   0  0  0  0  0  0  0  0  0  0  0  0
    1.8060    3.7809   -0.8001 C   0  0  0  0  0  0  0  0  0  0  0  0
    1.5600    5.0324   -0.2775 N   0  0  0  0  0  0  0  0  0  0  0  0
    0.8881    4.9835    0.9065 N   0  0  0  0  0  0  0  0  0  0  0  0
    0.7548    3.6803    1.1426 C   0  0  0  0  0  0  0  0  0  0  0  0
    2.0234    6.5131   -1.0576 S   0  0  0  0  0  0  0  0  0  0  0  0
    0.7721    7.1648   -1.3967 O   0  0  0  0  0  0  0  0  0  0  0  0
    2.9848    7.1238   -0.1539 O   0  0  0  0  0  0  0  0  0  0  0  0
    2.8668    6.1640   -2.5712 C   0  0  0  0  0  0  0  0  0  0  0  0
  1  2  2  0
  1  6  1  0
  2  3  1  0
  3  4  2  0
  3  7  1  0
  4  5  1  0
  4 10  1  0
  5  6  2  0
  5 16  1  0
  6 14  1  0
  7  8  2  0
  8  9  1  0
  9 10  2  0
  9 11  1  0
 11 12  2  0
 11 13  1  0
 14 15  1  0
 16 17  2  0
 16 20  1  0
 17 18  1  0
 18 19  1  0
 18 21  1  0
 19 20  2  0
 21 22  2  0
 21 23  2  0
 21 24  1  0
M  END
>  <DRUGBANK_ID>  (1) 
DB03046

>  <SECONDARY_ACCESSION_NUMBERS>  (1) 
EXPT03180

>  <COMMON_NAME>  (1) 
7-Methoxy-8-[1-(Methylsulfonyl)-1h-Pyrazol-4-Yl]Naphthalene-2-Carboximidamide

$$$$
