
     RDKit          3D

 30 32  0  0  0  0  0  0  0  0999 V2000
   -3.6989   -0.0091   -0.8333 C   0  0  0  0  0  0  0  0  0  0  0  0
   -3.5316    1.2080   -0.2142 C   0  0  0  0  0  0  0  0  0  0  0  0
   -2.5173   -0.7436   -1.2082 C   0  0  0  0  0  0  0  0  0  0  0  0
   -2.2223    1.6550   -0.0584 C   0  0  0  0  0  0  0  0  0  0  0  0
   -1.1625   -0.4944   -0.6969 C   0  0  0  0  0  0  0  0  0  0  0  0
   -1.0617    0.8654   -0.2538 C   0  0  0  0  0  0  0  0  0  0  0  0
    1.2442    0.7168   -0.0250 C   0  0  0  0  0  0  0  0  0  0  0  0
    0.1066    1.4189    0.0101 N   0  0  0  0  0  0  0  0  0  0  0  0
    1.2848   -0.7143   -0.1456 C   0  0  0  0  0  0  0  0  0  0  0  0
    0.0654   -1.3830   -0.4200 C   0  0  0  0  0  0  0  0  0  0  0  0
    3.6641    0.7713    0.0320 C   0  0  0  0  0  0  0  0  0  0  0  0
    2.4271    1.4048    0.0367 C   0  0  0  0  0  0  0  0  0  0  0  0
    3.7308   -0.6157    0.0291 C   0  0  0  0  0  0  0  0  0  0  0  0
    2.5549   -1.3337   -0.0358 C   0  0  0  0  0  0  0  0  0  0  0  0
    0.2065   -2.8475   -0.4727 N   0  0  0  0  0  0  0  0  0  0  0  0
   -0.7647   -3.9480   -0.2694 C   0  0  0  0  0  0  0  0  0  0  0  0
   -0.9577   -4.8797   -1.4807 C   0  0  0  0  0  0  0  0  0  0  0  0
   -0.8918   -4.6236    1.2422 C   0  0  0  0  0  0  0  0  0  0  0  0
   -1.1949   -3.8084    2.6948 C   0  0  0  0  0  0  0  0  0  0  0  0
   -2.5818   -3.0344    3.2315 C   0  0  0  0  0  0  0  0  0  0  0  0
   -3.9161   -3.6590    2.9104 N   0  0  0  0  0  0  0  0  0  0  0  0
   -5.0496   -2.6781    2.9359 C   0  0  0  0  0  0  0  0  0  0  0  0
   -3.9613   -4.3614    1.6065 C   0  0  0  0  0  0  0  0  0  0  0  0
   -4.9142   -0.6375   -0.9802 O   0  0  0  0  0  0  0  0  0  0  0  0
   -6.1258   -0.0100   -0.5175 C   0  0  0  0  0  0  0  0  0  0  0  0
    5.1197    1.6779    0.0144 Cl  0  0  0  0  0  0  0  0  0  0  0  0
   -5.4508   -1.8655    1.7055 C   0  0  0  0  0  0  0  0  0  0  0  0
   -6.4666   -2.9085    0.5559 Cl  0  0  0  0  0  0  0  0  0  0  0  0
   -3.5657   -3.5276    0.3914 C   0  0  0  0  0  0  0  0  0  0  0  0
   -2.5044   -2.2198    0.8847 Cl  0  0  0  0  0  0  0  0  0  0  0  0
  1 24  1  0
  1  2  2  0
  3  1  1  0
  4  2  1  0
  5  3  2  0
  5  6  1  0
  6  4  2  0
  7  8  2  0
  8  6  1  0
  9  7  1  0
  9 10  2  0
 10  5  1  0
 11 12  2  0
 12  7  1  0
 13 11  1  0
 13 14  2  0
 14  9  1  0
 15 10  1  0
 16 15  1  0
 17 16  1  0
 18 16  1  0
 19 18  1  0
 20 19  1  0
 21 20  1  0
 22 21  1  0
 23 21  1  0
 25 24  1  0
 26 11  1  0
 27 22  1  0
 27 28  1  0
 29 23  1  0
 29 30  1  0
M  END
>  <DRUGBANK_ID>  (1) 
DB02240

>  <SECONDARY_ACCESSION_NUMBERS>  (1) 
EXPT02733

>  <COMMON_NAME>  (1) 
Quinacrine mustard

>  <CAS_NUMBER>  (1) 
64046-79-3

>  <UNII>  (1) 
8Y3YQP8GW6

$$$$
