
     RDKit          3D

 26 28  0  0  1  0  0  0  0  0999 V2000
    0.9283    0.7531   -2.0311 C   0  0  0  0  0  0  0  0  0  0  0  0
    0.6426    2.2390   -1.7862 C   0  0  0  0  0  0  0  0  0  0  0  0
    0.9904    2.6721   -0.3694 C   0  0  1  0  0  0  0  0  0  0  0  0
    2.5282    3.0017   -0.1249 C   0  0  1  0  0  0  0  0  0  0  0  0
    3.5551    2.1634   -0.8846 C   0  0  0  0  0  0  0  0  0  0  0  0
    3.4974    0.7468   -0.6599 O   0  0  0  0  0  0  0  0  0  0  0  0
    3.6494    0.0769    0.5116 C   0  0  0  0  0  0  0  0  0  0  0  0
    3.1522    0.4273    1.8033 C   0  0  0  0  0  0  0  0  0  0  0  0
    2.2034    1.3891    2.1224 C   0  0  0  0  0  0  0  0  0  0  0  0
    1.9056    2.0456    3.3105 C   0  0  0  0  0  0  0  0  0  0  0  0
    1.2168    3.1893    3.0423 O   0  0  0  0  0  0  0  0  0  0  0  0
    0.7139    3.9905    4.0893 C   0  0  0  0  0  0  0  0  0  0  0  0
    2.3725    1.4161    4.4246 C   0  0  0  0  0  0  0  0  0  0  0  0
    3.1397    0.2279    4.2074 C   0  0  0  0  0  0  0  0  0  0  0  0
    3.5457   -0.2624    2.9214 C   0  0  0  0  0  0  0  0  0  0  0  0
    4.2940   -1.4213    2.7069 C   0  0  0  0  0  0  0  0  0  0  0  0
    4.6308   -1.7934    1.4117 C   0  0  0  0  0  0  0  0  0  0  0  0
    4.3416   -1.0612    0.3207 N   0  0  0  0  0  0  0  0  0  0  0  0
    2.0369    1.8794    5.8085 C   0  0  0  0  0  0  0  0  0  0  0  0
    2.4708    1.1250    6.8459 N   0  0  0  0  0  0  0  0  0  0  0  0
    1.4053    2.8436    6.1501 O   0  0  0  0  0  0  0  0  0  0  0  0
    2.5972    4.4216   -0.3126 N   0  0  0  0  0  0  0  0  0  0  0  0
    1.3396    5.0091   -0.2178 C   0  0  0  0  0  0  0  0  0  0  0  0
    1.1406    6.2030   -0.3549 O   0  0  0  0  0  0  0  0  0  0  0  0
    0.3186    3.9507    0.1201 C   0  0  1  0  0  0  0  0  0  0  0  0
   -0.9190    4.0929   -0.4108 F   0  0  0  0  0  0  0  0  0  0  0  0
  1  2  1  0
  3  4  1  0
  3 25  1  0
  3  2  1  6
  4 22  1  0
  4  5  1  6
  5  6  1  0
  6  7  1  0
  7  8  1  0
  7 18  2  0
  8  9  2  0
  8 15  1  0
  9 10  1  0
 10 11  1  0
 10 13  2  0
 11 12  1  0
 13 14  1  0
 13 19  1  0
 14 15  2  0
 15 16  1  0
 16 17  2  0
 17 18  1  0
 19 20  1  0
 19 21  2  0
 22 23  1  0
 23 24  2  0
 25 23  1  0
 25 26  1  6
M  END
>  <DRUGBANK_ID>  (1) 
DB15143

>  <COMMON_NAME>  (1) 
PF-06650833

>  <CAS_NUMBER>  (1) 
1817626-54-2

>  <UNII>  (1) 
S3F315JJXI

$$$$
