D23
     RDKit          3D

 26 28  0  0  0  0  0  0  0  0999 V2000
    0.2614    1.1856   -0.0215 C   0  0  0  0  0  0  0  0  0  0  0  0
    0.9676   -0.0158    0.0047 C   0  0  0  0  0  0  0  0  0  0  0  0
    0.2523   -1.2145   -0.0026 C   0  0  0  0  0  0  0  0  0  0  0  0
   -1.1435   -1.2171   -0.0010 C   0  0  0  0  0  0  0  0  0  0  0  0
   -1.8374   -0.0114   -0.0043 C   0  0  0  0  0  0  0  0  0  0  0  0
   -1.1408    1.2049   -0.0191 C   0  0  0  0  0  0  0  0  0  0  0  0
    2.3489   -0.0121   -0.0714 N   0  0  0  0  0  0  0  0  0  0  0  0
   -1.8585    2.4750   -0.0073 C   0  0  0  0  0  0  0  0  0  0  0  0
   -1.6987    3.4092   -1.0350 C   0  0  0  0  0  0  0  0  0  0  0  0
   -2.3995    4.6118   -1.0057 C   0  0  0  0  0  0  0  0  0  0  0  0
   -3.2641    4.9167    0.0241 C   0  0  0  0  0  0  0  0  0  0  0  0
   -3.4277    3.9974    1.0865 C   0  0  0  0  0  0  0  0  0  0  0  0
   -2.7163    2.7834    1.0517 C   0  0  0  0  0  0  0  0  0  0  0  0
   -3.9043    6.0786   -0.0521 N   0  0  0  0  0  0  0  0  0  0  0  0
   -4.7478    6.3669    0.9452 C   0  0  0  0  0  0  0  0  0  0  0  0
   -4.9378    5.5469    1.9936 N   0  0  0  0  0  0  0  0  0  0  0  0
   -4.3008    4.3831    2.1009 C   0  0  0  0  0  0  0  0  0  0  0  0
   -4.5764    3.5986    3.2122 N   0  0  0  0  0  0  0  0  0  0  0  0
   -5.4695    3.9417    4.3394 C   0  0  0  0  0  0  0  0  0  0  0  0
   -6.5290    2.8347    4.4597 C   0  0  0  0  0  0  0  0  0  0  0  0
   -4.6502    3.9817    5.6405 C   0  0  0  0  0  0  0  0  0  0  0  0
   -6.2020    5.2817    4.2057 C   0  0  0  0  0  0  0  0  0  0  0  0
   -5.5498    7.6660    0.9385 C   0  0  0  0  0  0  0  0  0  0  0  0
   -6.9027    7.4580    0.9517 F   0  0  0  0  0  0  0  0  0  0  0  0
   -5.2947    8.4543    2.0279 F   0  0  0  0  0  0  0  0  0  0  0  0
   -5.3173    8.4625   -0.1469 F   0  0  0  0  0  0  0  0  0  0  0  0
  1  2  2  0
  1  6  1  0
  2  3  1  0
  2  7  1  0
  3  4  2  0
  4  5  1  0
  5  6  2  0
  6  8  1  0
  8  9  2  0
  8 13  1  0
  9 10  1  0
 10 11  2  0
 11 12  1  0
 11 14  1  0
 12 13  2  0
 12 17  1  0
 14 15  2  0
 15 16  1  0
 15 23  1  0
 16 17  2  0
 17 18  1  0
 18 19  1  0
 19 20  1  0
 19 21  1  0
 19 22  1  0
 23 24  1  0
 23 25  1  0
 23 26  1  0
M  END
>  <DRUGBANK_ID>  (1) 
DB07612

>  <COMMON_NAME>  (1) 
6-(3-AMINOPHENYL)-N-(TERT-BUTYL)-2-(TRIFLUOROMETHYL)QUINAZOLIN-4-AMINE

$$$$
