
     RDKit          3D

 17 16  0  0  1  0  0  0  0  0999 V2000
   -2.8609    4.2006   -3.1621 O   0  0  0  0  0  0  0  0  0  0  0  0
   -1.5633    4.7742   -2.9053 C   0  0  1  0  0  0  0  0  0  0  0  0
   -1.6411    6.3202   -2.9855 C   0  0  0  0  0  0  0  0  0  0  0  0
   -2.3079    6.8776   -1.8340 O   0  0  0  0  0  0  0  0  0  0  0  0
   -3.9494    6.3327   -1.8702 P   0  0  0  0  0  0  0  0  0  0  0  0
   -3.5906    5.5416   -0.4874 O   0  0  0  0  0  0  0  0  0  0  0  0
   -4.3009    7.7644   -1.1659 O   0  0  0  0  0  0  0  0  0  0  0  0
   -5.4186    5.8449   -1.9027 O   0  0  0  0  0  0  0  0  0  0  0  0
   -0.9583    4.3356   -1.5567 C   0  0  1  0  0  0  0  0  0  0  0  0
   -1.0403    2.9188   -1.3797 O   0  0  0  0  0  0  0  0  0  0  0  0
    0.4916    4.8601   -1.4054 C   0  0  2  0  0  0  0  0  0  0  0  0
    1.3463    4.1374   -2.3012 O   0  0  0  0  0  0  0  0  0  0  0  0
    1.0041    4.8578    0.0509 C   0  0  2  0  0  0  0  0  0  0  0  0
    0.6018    3.7220    0.8016 O   0  0  0  0  0  0  0  0  0  0  0  0
    0.4758    6.1211    0.7338 C   0  0  0  0  0  0  0  0  0  0  0  0
    1.4125    6.9939    1.1522 O   0  0  0  0  0  0  0  0  0  0  0  0
   -0.7230    6.3472    0.8811 O   0  0  0  0  0  0  0  0  0  0  0  0
  2  1  1  1
  2  3  1  0
  2  9  1  0
  3  4  1  0
  4  5  1  0
  5  6  1  0
  5  7  1  0
  5  8  2  0
  9 10  1  6
 11 12  1  6
 11  9  1  0
 13 15  1  0
 13 14  1  1
 13 11  1  0
 15 16  1  0
 15 17  2  0
M  END
>  <DRUGBANK_ID>  (1) 
DB01655

>  <SECONDARY_ACCESSION_NUMBERS>  (1) 
EXPT02022

>  <COMMON_NAME>  (1) 
L-gulonic acid 6-phosphate

>  <SYNONYMS>  (1) 
6-O-phosphono-L-gulonic acid

$$$$
