
     RDKit          3D

 24 23  0  0  0  0  0  0  0  0999 V2000
    0.9004   -0.0022    0.0817 C   0  0  0  0  0  0  0  0  0  0  0  0
    0.2506    0.5637   -0.9422 C   0  0  0  0  0  0  0  0  0  0  0  0
   -1.2342    0.5623   -1.0420 C   0  0  0  0  0  0  0  0  0  0  0  0
   -1.7785    1.9566   -1.0444 C   0  0  0  0  0  0  0  0  0  0  0  0
   -2.5975    2.3961   -2.0012 C   0  0  0  0  0  0  0  0  0  0  0  0
   -2.9920    1.5248   -3.1339 C   0  0  0  0  0  0  0  0  0  0  0  0
   -4.4671    1.3980   -3.2371 C   0  0  0  0  0  0  0  0  0  0  0  0
   -5.1127    1.6918   -4.3649 C   0  0  0  0  0  0  0  0  0  0  0  0
   -4.3956    2.2193   -5.5528 C   0  0  0  0  0  0  0  0  0  0  0  0
   -4.6273    1.3697   -6.7476 C   0  0  0  0  0  0  0  0  0  0  0  0
   -5.1342    1.8759   -7.8706 C   0  0  0  0  0  0  0  0  0  0  0  0
   -5.5423    3.3005   -7.9664 C   0  0  0  0  0  0  0  0  0  0  0  0
   -4.8582    3.9694   -9.0951 C   0  0  0  0  0  0  0  0  0  0  0  0
   -5.5419    4.5365  -10.0879 C   0  0  0  0  0  0  0  0  0  0  0  0
   -7.0438    4.5700  -10.1330 C   0  0  0  0  0  0  0  0  0  0  0  0
   -7.5624    5.9947  -10.1942 C   0  0  0  0  0  0  0  0  0  0  0  0
   -7.0786    6.7438  -11.4268 C   0  0  0  0  0  0  0  0  0  0  0  0
    0.1832   -0.6332    1.2410 C   0  0  0  0  0  0  0  0  0  0  0  0
   -0.6567    0.3690    2.0357 C   0  0  0  0  0  0  0  0  0  0  0  0
   -8.2476    6.7513  -13.5317 O   0  0  0  0  0  0  0  0  0  0  0  0
   -7.1193    4.8615  -12.8947 O   0  0  0  0  0  0  0  0  0  0  0  0
   -7.5558    6.1352  -12.7258 C   0  0  0  0  0  0  0  0  0  0  0  0
   -7.6037    4.1049  -14.0176 C   0  0  0  0  0  0  0  0  0  0  0  0
   -9.1162    3.9411  -14.0188 C   0  0  0  0  0  0  0  0  0  0  0  0
  1  2  2  0
  2  3  1  0
  3  4  1  0
  4  5  2  0
  5  6  1  0
  6  7  1  0
  7  8  2  0
  8  9  1  0
  9 10  1  0
 10 11  2  0
 11 12  1  0
 12 13  1  0
 13 14  2  0
 14 15  1  0
 15 16  1  0
 16 17  1  0
 17 22  1  0
 18  1  1  0
 18 19  1  0
 21 23  1  0
 22 20  2  0
 22 21  1  0
 23 24  1  0
M  END
>  <DRUGBANK_ID>  (1) 
DB08887

>  <SECONDARY_ACCESSION_NUMBERS>  (1) 
DB06291

>  <COMMON_NAME>  (1) 
Icosapent ethyl

>  <CAS_NUMBER>  (1) 
86227-47-6

>  <UNII>  (1) 
6GC8A4PAYH

>  <SYNONYMS>  (1) 
(all-Z)-5,8,11,14,17-Eicosapentaenoic acid ethyl ester; all-cis-ethyl 5,8,11,14,17-icosapentaenoate; cis-Eicosapentaenoic acid ethyl ester; E-EPA; Eicosapentaenoic acid ethyl ester; ethyl (5Z,8Z,11Z,14Z,17Z)-eicosa-5,8,11,14,17-pentaenoate; ethyl (5Z,8Z,11Z,14Z,17Z)-eicosapentaenoate; ethyl (5Z,8Z,11Z,14Z,17Z)-icosapentaenoate; Ethyl (all cis)-5,8,11,14,17-icosapentaenoate; Ethyl all-cis-5,8,11,14,17-icosapentaenoate; Ethyl eicosapentaenoate; Ethyl icosapentate ; ethyl-eicosapentaenoic acid; Ethyl-EPA; Icosapent ethyl; Timnodonic acid ethyl ester

$$$$
