
     RDKit          3D

 11 11  0  0  0  0  0  0  0  0999 V2000
    0.9066    0.0686   -0.0866 N   0  0  0  0  0  0  0  0  0  0  0  0
    0.4251   -1.2956   -0.0126 N   0  0  0  0  0  0  0  0  0  0  0  0
    0.9860    0.2422    2.4336 C   0  0  0  0  0  0  0  0  0  0  0  0
    2.4942    0.2152    2.5519 C   0  0  0  0  0  0  0  0  0  0  0  0
    0.4425    0.8236    1.0992 C   0  0  0  0  0  0  0  0  0  0  0  0
    3.2142    1.4077    2.6819 C   0  0  0  0  0  0  0  0  0  0  0  0
    3.1987   -0.9961    2.5168 C   0  0  0  0  0  0  0  0  0  0  0  0
    0.8215    2.2980    0.8989 C   0  0  0  0  0  0  0  0  0  0  0  0
    4.6036    1.4130    2.6950 C   0  0  0  0  0  0  0  0  0  0  0  0
    4.5897   -0.9972    2.6372 C   0  0  0  0  0  0  0  0  0  0  0  0
    5.2926    0.2039    2.6952 C   0  0  0  0  0  0  0  0  0  0  0  0
  2  1  1  0
  3  5  1  0
  4  3  1  0
  5  1  1  0
  6  4  2  0
  7  4  1  0
  8  5  1  0
  9  6  1  0
 10  7  2  0
 10 11  1  0
 11  9  2  0
M  END
>  <DRUGBANK_ID>  (1) 
DB09250

>  <COMMON_NAME>  (1) 
Pheniprazine

>  <CAS_NUMBER>  (1) 
55-52-7

>  <UNII>  (1) 
37VKD7067M

>  <SYNONYMS>  (1) 
Pheniprazine

$$$$
