U1N
     RDKit          3D

 24 25  0  0  0  0  0  0  0  0999 V2000
   -4.0614   -1.1275   -2.4655 C   0  0  0  0  0  0  0  0  0  0  0  0
   -3.3746   -0.7968   -1.3317 C   0  0  0  0  0  0  0  0  0  0  0  0
   -2.5747    0.3270   -1.1928 C   0  0  0  0  0  0  0  0  0  0  0  0
   -2.7678    1.4120   -1.9839 C   0  0  0  0  0  0  0  0  0  0  0  0
   -3.4600    1.1470   -3.1567 C   0  0  0  0  0  0  0  0  0  0  0  0
   -4.0091   -0.1435   -3.4307 C   0  0  0  0  0  0  0  0  0  0  0  0
   -2.2057    2.7094   -1.4573 C   0  0  0  0  0  0  0  0  0  0  0  0
   -2.8950    3.2981   -0.1823 C   0  0  0  0  0  0  0  0  0  0  0  0
   -2.6745    2.5434    1.1910 C   0  0  1  0  0  0  0  0  0  0  0  0
   -3.1811    3.4180    2.3434 C   0  0  0  0  0  0  0  0  0  0  0  0
   -3.3692    1.2534    1.3988 N   0  0  0  0  0  0  0  0  0  0  0  0
   -2.5057    0.1213    1.8946 C   0  0  0  0  0  0  0  0  0  0  0  0
   -3.2005   -1.2851    1.7944 C   0  0  0  0  0  0  0  0  0  0  0  0
   -4.3727   -1.4302    2.1504 O   0  0  0  0  0  0  0  0  0  0  0  0
   -2.5094   -2.4932    1.0813 C   0  0  0  0  0  0  0  0  0  0  0  0
   -3.3372   -3.3844    0.3449 C   0  0  0  0  0  0  0  0  0  0  0  0
   -2.8325   -4.2714   -0.6389 C   0  0  0  0  0  0  0  0  0  0  0  0
   -1.4737   -4.3641   -0.8244 C   0  0  0  0  0  0  0  0  0  0  0  0
   -0.9790   -5.1856   -1.7624 F   0  0  0  0  0  0  0  0  0  0  0  0
   -0.6280   -3.5645   -0.0636 C   0  0  0  0  0  0  0  0  0  0  0  0
   -1.1390   -2.6007    0.8439 C   0  0  0  0  0  0  0  0  0  0  0  0
   -4.8063   -2.4337   -2.6018 C   0  0  0  0  0  0  0  0  0  0  0  0
   -5.1051   -2.8685   -3.8467 N   0  0  0  0  0  0  0  0  0  0  0  0
   -5.2144   -3.1559   -1.6834 O   0  0  0  0  0  0  0  0  0  0  0  0
  1  6  2  0
  1 22  1  0
  1  2  1  0
  2  3  2  0
  3  4  1  0
  4  5  2  0
  4  7  1  0
  5  6  1  0
  7  8  1  0
  9 10  1  1
  9 11  1  0
  9  8  1  0
 11 12  1  0
 12 13  1  0
 13 15  1  0
 13 14  2  0
 15 21  1  0
 15 16  2  0
 16 17  1  0
 17 18  2  0
 18 19  1  0
 18 20  1  0
 20 21  2  0
 22 24  2  0
 22 23  1  0
M  END
>  <DRUGBANK_ID>  (1) 
DB08672

>  <COMMON_NAME>  (1) 
4-[(3R)-3-{[2-(4-FLUOROPHENYL)-2-OXOETHYL]AMINO}BUTYL]BENZAMIDE

$$$$
