
     RDKit          3D

 41 44  0  0  0  0  0  0  0  0999 V2000
    0.8481    0.9620    0.1476 C   0  0  0  0  0  0  0  0  0  0  0  0
    0.7969    0.9871   -1.3378 C   0  0  0  0  0  0  0  0  0  0  0  0
    1.6847    0.2895   -2.2369 O   0  0  0  0  0  0  0  0  0  0  0  0
    2.6687   -0.6083   -2.2937 C   0  0  0  0  0  0  0  0  0  0  0  0
    3.1025   -1.1192   -3.5392 C   0  0  0  0  0  0  0  0  0  0  0  0
    4.3927   -1.5613   -3.7289 C   0  0  0  0  0  0  0  0  0  0  0  0
    5.2376   -1.4415   -2.6213 C   0  0  0  0  0  0  0  0  0  0  0  0
    4.6216   -1.0996   -1.4050 C   0  0  0  0  0  0  0  0  0  0  0  0
    3.2873   -1.0535   -1.2084 C   0  0  0  0  0  0  0  0  0  0  0  0
    2.7081   -1.2532    0.0321 N   0  0  0  0  0  0  0  0  0  0  0  0
    1.3938   -1.5947    0.3282 C   0  0  0  0  0  0  0  0  0  0  0  0
    1.1042   -1.4732    1.5320 O   0  0  0  0  0  0  0  0  0  0  0  0
    0.2005   -1.7108   -0.8143 C   0  0  0  0  0  0  0  0  0  0  0  0
    0.3319   -1.8213   -2.1688 C   0  0  0  0  0  0  0  0  0  0  0  0
   -0.3971   -1.1470   -3.4202 C   0  0  0  0  0  0  0  0  0  0  0  0
    0.1772   -0.0714   -4.3750 N   0  0  0  0  0  0  0  0  0  0  0  0
   -0.5872   -0.1137   -5.6246 C   0  0  0  0  0  0  0  0  0  0  0  0
    0.1128    1.3637   -4.0127 C   0  0  0  0  0  0  0  0  0  0  0  0
    6.6297   -1.6555   -2.7765 C   0  0  0  0  0  0  0  0  0  0  0  0
    7.0664   -1.9806   -4.0784 C   0  0  0  0  0  0  0  0  0  0  0  0
    6.1361   -2.1010   -5.1117 C   0  0  0  0  0  0  0  0  0  0  0  0
    4.8119   -1.9217   -4.9529 N   0  0  0  0  0  0  0  0  0  0  0  0
    8.4290   -2.1773   -4.3841 C   0  0  0  0  0  0  0  0  0  0  0  0
    9.5778   -2.3182   -4.6181 N   0  0  0  0  0  0  0  0  0  0  0  0
    7.5412   -1.6767   -1.6605 N   0  0  0  0  0  0  0  0  0  0  0  0
    7.2787   -1.3667   -0.2960 C   0  0  0  0  0  0  0  0  0  0  0  0
    6.4201   -2.1838    0.4683 C   0  0  0  0  0  0  0  0  0  0  0  0
    5.8095   -1.7013    1.6464 C   0  0  0  0  0  0  0  0  0  0  0  0
    6.0764   -0.3985    2.1127 C   0  0  0  0  0  0  0  0  0  0  0  0
    6.9420    0.4086    1.3414 C   0  0  0  0  0  0  0  0  0  0  0  0
    7.5717   -0.0927    0.1907 C   0  0  0  0  0  0  0  0  0  0  0  0
    7.2140    2.1132    1.5078 Cl  0  0  0  0  0  0  0  0  0  0  0  0
    5.4417   -0.0998    3.2987 O   0  0  0  0  0  0  0  0  0  0  0  0
    5.8627    1.0584    4.0473 C   0  0  0  0  0  0  0  0  0  0  0  0
    7.3454    1.0810    4.3837 C   0  0  0  0  0  0  0  0  0  0  0  0
    8.0369    2.3046    4.4768 C   0  0  0  0  0  0  0  0  0  0  0  0
    9.4332    2.3261    4.5444 C   0  0  0  0  0  0  0  0  0  0  0  0
   10.1455    1.1284    4.5669 C   0  0  0  0  0  0  0  0  0  0  0  0
    9.4614   -0.0788    4.5184 C   0  0  0  0  0  0  0  0  0  0  0  0
    8.0775   -0.1133    4.4422 C   0  0  0  0  0  0  0  0  0  0  0  0
   10.1441   -1.2305    4.5079 F   0  0  0  0  0  0  0  0  0  0  0  0
  1  2  1  0
  2  3  1  0
  3  4  1  0
  4  5  2  0
  4  9  1  0
  5  6  1  0
  6  7  2  0
  6 22  1  0
  7  8  1  0
  7 19  1  0
  8  9  2  0
  9 10  1  0
 10 11  1  0
 11 12  2  0
 11 13  1  0
 13 14  2  0
 14 15  1  0
 15 16  1  0
 16 17  1  0
 16 18  1  0
 19 20  2  0
 19 25  1  0
 20 21  1  0
 20 23  1  0
 21 22  2  0
 23 24  3  0
 25 26  1  0
 26 27  2  0
 26 31  1  0
 27 28  1  0
 28 29  2  0
 29 30  1  0
 29 33  1  0
 30 31  2  0
 30 32  1  0
 33 34  1  0
 34 35  1  0
 35 36  2  0
 35 40  1  0
 36 37  1  0
 37 38  2  0
 38 39  1  0
 39 40  2  0
 39 41  1  0
M  END
>  <DRUGBANK_ID>  (1) 
DB13002

>  <COMMON_NAME>  (1) 
HKI-357

>  <CAS_NUMBER>  (1) 
848133-17-5

>  <UNII>  (1) 
39R3638KZ6

$$$$
