
     RDKit          3D

 23 25  0  0  0  0  0  0  0  0999 V2000
    4.9929   -5.1023    3.3302 C   0  0  0  0  0  0  0  0  0  0  0  0
    4.9240   -5.7696    4.5629 C   0  0  0  0  0  0  0  0  0  0  0  0
    3.8998   -5.4904    5.4694 C   0  0  0  0  0  0  0  0  0  0  0  0
    2.9187   -4.5827    5.1247 C   0  0  0  0  0  0  0  0  0  0  0  0
    4.0393   -4.1346    3.0030 C   0  0  0  0  0  0  0  0  0  0  0  0
    3.0061   -3.9409    3.9000 C   0  0  0  0  0  0  0  0  0  0  0  0
    3.0258   -2.4794    1.4850 C   0  0  0  0  0  0  0  0  0  0  0  0
    1.7057   -0.8220   -0.1116 C   0  0  0  0  0  0  0  0  0  0  0  0
    1.2429    1.5178   -1.0290 C   0  0  0  0  0  0  0  0  0  0  0  0
    2.9417   -1.7129    0.1427 C   0  0  2  0  0  0  0  0  0  0  0  0
    3.0539   -2.6533   -1.0934 C   0  0  0  0  0  0  0  0  0  0  0  0
    3.4192   -4.3133   -3.3392 C   0  0  0  0  0  0  0  0  0  0  0  0
    3.3411   -2.9321   -3.4966 C   0  0  0  0  0  0  0  0  0  0  0  0
    3.2043   -2.1044   -2.3803 C   0  0  0  0  0  0  0  0  0  0  0  0
    3.0382   -4.0555   -0.9839 C   0  0  0  0  0  0  0  0  0  0  0  0
    3.3136   -4.8713   -2.0747 C   0  0  0  0  0  0  0  0  0  0  0  0
    4.0595   -3.3095    1.7932 C   0  0  0  0  0  0  0  0  0  0  0  0
    5.1702   -3.5341    0.9961 O   0  0  0  0  0  0  0  0  0  0  0  0
    1.9621   -3.0745    3.6384 O   0  0  0  0  0  0  0  0  0  0  0  0
    1.8952   -2.3690    2.4688 C   0  0  0  0  0  0  0  0  0  0  0  0
    0.8820   -1.6898    2.3179 O   0  0  0  0  0  0  0  0  0  0  0  0
    1.8992    0.6701    0.0346 C   0  0  0  0  0  0  0  0  0  0  0  0
    2.4709    1.1785    0.9971 O   0  0  0  0  0  0  0  0  0  0  0  0
  1  2  2  0
  1  5  1  0
  2  3  1  0
  3  4  2  0
  4  6  1  0
  6  5  2  0
  6 19  1  0
  8 22  1  0
 10 11  1  0
 10  8  1  6
 10  7  1  0
 11 15  1  0
 12 13  2  0
 12 16  1  0
 13 14  1  0
 14 11  2  0
 15 16  2  0
 17  5  1  0
 17  7  2  0
 17 18  1  0
 19 20  1  0
 20  7  1  0
 20 21  2  0
 22  9  1  0
 22 23  2  0
M  END
>  <DRUGBANK_ID>  (1) 
DB08496

>  <COMMON_NAME>  (1) 
(R)-warfarin

>  <CAS_NUMBER>  (1) 
40281-89-8

>  <UNII>  (1) 
09CC5J5C8A

>  <SYNONYMS>  (1) 
(+)-warfarin; (R)-4-Hydroxy-3-(3-oxo-1-phenylbutyl)-2-benzopyrone; (R)-4-Hydroxy-3-(3-oxo-1-phenylbutyl)-2H-1-benzopyran-2-one; 4-hydroxy-3-[(1R)-3-oxo-1-phenylbutyl]-2H-chromen-2-one; R-warfarin; R,R-Warfarin alcohol

$$$$
