
     RDKit          3D

 22 24  0  0  0  0  0  0  0  0999 V2000
   -0.8870    0.3009    1.6830 C   0  0  0  0  0  0  0  0  0  0  0  0
   -2.9292   -0.3758   -1.4208 C   0  0  0  0  0  0  0  0  0  0  0  0
    4.3695    2.0229    6.6745 C   0  0  0  0  0  0  0  0  0  0  0  0
    3.0805    2.5132    6.4520 C   0  0  0  0  0  0  0  0  0  0  0  0
    4.9281    1.1206    5.7774 C   0  0  0  0  0  0  0  0  0  0  0  0
    1.5218   -3.5616    2.9681 C   0  0  0  0  0  0  0  0  0  0  0  0
    2.3131   -3.1666    4.0450 C   0  0  0  0  0  0  0  0  0  0  0  0
    0.6959   -1.1825   -0.7645 C   0  0  0  0  0  0  0  0  0  0  0  0
    2.3098    2.0358    5.3809 C   0  0  0  0  0  0  0  0  0  0  0  0
    4.1951    0.7186    4.6607 C   0  0  0  0  0  0  0  0  0  0  0  0
    0.8927   -2.6103    2.1461 C   0  0  0  0  0  0  0  0  0  0  0  0
    2.5079   -1.8161    4.2865 C   0  0  0  0  0  0  0  0  0  0  0  0
    1.1052    0.0228    0.1330 C   0  0  0  0  0  0  0  0  0  0  0  0
   -0.8081   -1.4612   -0.9371 C   0  0  0  0  0  0  0  0  0  0  0  0
    2.8596    1.1219    4.4796 C   0  0  0  0  0  0  0  0  0  0  0  0
    1.1076   -1.2518    2.3642 C   0  0  0  0  0  0  0  0  0  0  0  0
    1.9479   -0.8809    3.4175 C   0  0  0  0  0  0  0  0  0  0  0  0
    1.3059    1.1411    2.4808 C   0  0  0  0  0  0  0  0  0  0  0  0
    0.6209   -0.0070    1.6188 C   0  0  2  0  0  0  0  0  0  0  0  0
   -1.4797   -0.2877   -1.4944 N   0  0  0  0  0  0  0  0  0  0  0  0
    2.0785    0.5123    3.4718 N   0  0  0  0  0  0  0  0  0  0  0  0
    1.1744    2.3371    2.2936 O   0  0  0  0  0  0  0  0  0  0  0  0
  4  3  2  0
  5  3  1  0
  7  6  2  0
  9  4  1  0
 10  5  2  0
 11  6  1  0
 12  7  1  0
 13  8  1  0
 14  8  1  0
 15  9  2  0
 15 10  1  0
 16 11  2  0
 17 12  2  0
 17 16  1  0
 19 16  1  0
 19 18  1  0
 19 13  1  0
 19  1  1  6
 20  2  1  0
 20 14  1  0
 21 15  1  0
 21 17  1  0
 21 18  1  0
 22 18  2  0
M  END
>  <DRUGBANK_ID>  (1) 
DB09188

>  <COMMON_NAME>  (1) 
Amedalin

>  <CAS_NUMBER>  (1) 
22136-26-1

>  <UNII>  (1) 
M49EDJ159O

>  <SYNONYMS>  (1) 
3-methyl-3-(3-(methylamino)propyl)-1-phenyl-2-indolinone

$$$$
