
     RDKit          3D

 22 23  0  0  0  0  0  0  0  0999 V2000
    1.2421   -0.0888    0.1436 N   0  0  0  0  0  0  0  0  0  0  0  0
    0.8368    0.1689   -1.2360 C   0  0  0  0  0  0  0  0  0  0  0  0
    1.0230   -0.8202   -2.4045 C   0  0  0  0  0  0  0  0  0  0  0  0
    0.8142   -2.2736   -2.0240 C   0  0  0  0  0  0  0  0  0  0  0  0
    0.5837   -1.2340    0.7688 C   0  0  0  0  0  0  0  0  0  0  0  0
    2.6803   -0.1157    0.2066 C   0  0  0  0  0  0  0  0  0  0  0  0
    0.2693   -0.4541   -3.5964 O   0  0  0  0  0  0  0  0  0  0  0  0
   -1.2063   -0.4601   -3.6481 C   0  0  0  0  0  0  0  0  0  0  0  0
   -1.7700   -1.9045   -3.4844 C   0  0  0  0  0  0  0  0  0  0  0  0
   -2.8600   -2.1940   -2.6501 C   0  0  0  0  0  0  0  0  0  0  0  0
   -3.0456   -3.4710   -2.1236 C   0  0  0  0  0  0  0  0  0  0  0  0
   -2.2808   -4.5258   -2.5872 C   0  0  0  0  0  0  0  0  0  0  0  0
   -1.3372   -4.3125   -3.5897 C   0  0  0  0  0  0  0  0  0  0  0  0
   -1.1058   -3.0090   -4.0576 C   0  0  0  0  0  0  0  0  0  0  0  0
   -1.7584    0.6716   -2.7045 C   0  0  0  0  0  0  0  0  0  0  0  0
   -2.2239    0.3905   -1.3846 C   0  0  0  0  0  0  0  0  0  0  0  0
   -2.2946    1.3729   -0.3852 C   0  0  0  0  0  0  0  0  0  0  0  0
   -1.9489    2.6672   -0.6775 C   0  0  0  0  0  0  0  0  0  0  0  0
   -1.5660    3.0072   -1.9795 C   0  0  0  0  0  0  0  0  0  0  0  0
   -1.4945    2.0210   -2.9828 C   0  0  0  0  0  0  0  0  0  0  0  0
   -1.5289   -0.0952   -5.1197 C   0  0  0  0  0  0  0  0  0  0  0  0
   -2.5077   -6.0932   -1.9227 Cl  0  0  0  0  0  0  0  0  0  0  0  0
  1  2  1  0
  1  5  1  0
  1  6  1  0
  2  3  1  0
  3  4  1  0
  3  7  1  0
  7  8  1  0
  8  9  1  0
  8 15  1  0
  8 21  1  0
  9 10  2  0
  9 14  1  0
 10 11  1  0
 11 12  2  0
 12 13  1  0
 12 22  1  0
 13 14  2  0
 15 16  2  0
 15 20  1  0
 16 17  1  0
 17 18  2  0
 18 19  1  0
 19 20  2  0
M  END
>  <DRUGBANK_ID>  (1) 
DB15790

>  <COMMON_NAME>  (1) 
Mecloxamine

>  <CAS_NUMBER>  (1) 
5668-06-4

>  <UNII>  (1) 
U8V8239CRM

>  <SYNONYMS>  (1) 
Mecloxamine

$$$$
