
     RDKit          3D

 18 19  0  0  0  0  0  0  0  0999 V2000
    0.2532   -1.2807   -0.0349 C   0  0  0  0  0  0  0  0  0  0  0  0
   -1.1588   -1.2550   -0.0172 C   0  0  0  0  0  0  0  0  0  0  0  0
   -1.8212   -0.0396    0.1640 C   0  0  0  0  0  0  0  0  0  0  0  0
   -1.0402    1.0775    0.3998 C   0  0  0  0  0  0  0  0  0  0  0  0
    0.3262    1.0930    0.1516 C   0  0  0  0  0  0  0  0  0  0  0  0
    1.0048   -0.1009    0.0206 C   0  0  0  0  0  0  0  0  0  0  0  0
    2.3786   -0.0799   -0.1468 N   0  0  0  0  0  0  0  0  0  0  0  0
   -3.6044    0.0574    0.0290 S   0  0  0  0  0  0  0  0  0  0  0  0
   -3.9517   -0.5524   -1.2492 O   0  0  0  0  0  0  0  0  0  0  0  0
   -4.1254   -0.4935    1.2536 O   0  0  0  0  0  0  0  0  0  0  0  0
   -4.1987    1.6297   -0.1023 N   0  0  0  0  0  0  0  0  0  0  0  0
   -3.4269    2.7996   -0.2285 C   0  0  0  0  0  0  0  0  0  0  0  0
   -3.5747    3.7105    0.7574 N   0  0  0  0  0  0  0  0  0  0  0  0
   -2.6917    4.7790    0.8537 N   0  0  0  0  0  0  0  0  0  0  0  0
   -1.6646    4.8712   -0.0128 C   0  0  0  0  0  0  0  0  0  0  0  0
   -1.4891    3.9557   -1.0304 C   0  0  0  0  0  0  0  0  0  0  0  0
   -2.4378    2.9376   -1.1868 C   0  0  0  0  0  0  0  0  0  0  0  0
   -0.5484    6.1408    0.2493 Cl  0  0  0  0  0  0  0  0  0  0  0  0
  1  2  2  0
  1  6  1  0
  2  3  1  0
  3  4  2  0
  3  8  1  0
  4  5  1  0
  5  6  2  0
  6  7  1  0
  8  9  2  0
  8 10  2  0
  8 11  1  0
 11 12  1  0
 12 13  2  0
 12 17  1  0
 13 14  1  0
 14 15  2  0
 15 16  1  0
 15 18  1  0
 16 17  2  0
M  END
>  <DRUGBANK_ID>  (1) 
DB11461

>  <COMMON_NAME>  (1) 
Sulfachlorpyridazine

>  <CAS_NUMBER>  (1) 
80-32-0

>  <UNII>  (1) 
P78D9P90C0

>  <SYNONYMS>  (1) 
4-Amino-N-(6-chloro-3-pyridazinyl)benzenesulfonamide; 4-amino-N-(6-chloropyridazin-3-yl)benzenesulfonamide; N1-(6-Chloro-3-pyridazinyl)sulfanilamide; SCP; Sulfachloropyridazine; Sulfachlorpyridazine; Sulfachlorpyridazinum; Sulfacloropiridazina; Sulphachlorpyridazine

$$$$
