
     RDKit          3D

 27 29  0  0  0  0  0  0  0  0999 V2000
   -1.2347   -0.0354   -0.0067 C   0  0  0  0  0  0  0  0  0  0  0  0
   -0.4313   -1.1568    0.0123 C   0  0  0  0  0  0  0  0  0  0  0  0
   -0.3444    1.0490   -0.0453 C   0  0  0  0  0  0  0  0  0  0  0  0
    0.9215    0.6400   -0.1452 N   0  0  0  0  0  0  0  0  0  0  0  0
    0.8775   -0.6967    0.0286 N   0  0  0  0  0  0  0  0  0  0  0  0
    2.0712   -1.4581   -0.0320 C   0  0  0  0  0  0  0  0  0  0  0  0
   -0.6677    2.5007    0.0034 C   0  0  0  0  0  0  0  0  0  0  0  0
   -0.1441    3.1890    1.2622 C   0  0  0  0  0  0  0  0  0  0  0  0
   -0.8060   -2.5542    0.0345 C   0  0  0  0  0  0  0  0  0  0  0  0
   -1.5620   -3.0608   -1.0258 C   0  0  0  0  0  0  0  0  0  0  0  0
   -0.3534   -3.4030    1.0503 C   0  0  0  0  0  0  0  0  0  0  0  0
   -0.6005   -4.7698    0.9667 C   0  0  0  0  0  0  0  0  0  0  0  0
   -1.3754   -5.2658   -0.0808 C   0  0  0  0  0  0  0  0  0  0  0  0
   -1.8522   -4.4194   -1.0809 C   0  0  0  0  0  0  0  0  0  0  0  0
    1.4493    5.7349    1.2291 C   0  0  0  0  0  0  0  0  0  0  0  0
   -1.7861   -6.9342   -0.1154 Cl  0  0  0  0  0  0  0  0  0  0  0  0
    1.3762    3.2131    1.3700 C   0  0  0  0  0  0  0  0  0  0  0  0
    2.0076    4.4053    1.1302 N   0  0  0  0  0  0  0  0  0  0  0  0
    2.0551    2.2213    1.6738 O   0  0  0  0  0  0  0  0  0  0  0  0
    3.4158    4.3843    1.2866 O   0  0  0  0  0  0  0  0  0  0  0  0
    2.2523   -2.3526   -1.0888 C   0  0  0  0  0  0  0  0  0  0  0  0
    3.4360   -3.0863   -1.1879 C   0  0  0  0  0  0  0  0  0  0  0  0
    4.4367   -2.9519   -0.2244 C   0  0  0  0  0  0  0  0  0  0  0  0
    4.2554   -2.0408    0.8250 C   0  0  0  0  0  0  0  0  0  0  0  0
    3.0666   -1.3029    0.9383 C   0  0  0  0  0  0  0  0  0  0  0  0
    5.6108   -3.6596   -0.2083 O   0  0  0  0  0  0  0  0  0  0  0  0
    5.7556   -4.6673   -1.2078 C   0  0  0  0  0  0  0  0  0  0  0  0
  1  2  2  0
  1  3  1  0
  2  5  1  0
  2  9  1  0
  3  4  2  0
  3  7  1  0
  4  5  1  0
  5  6  1  0
  6 21  2  0
  6 25  1  0
  7  8  1  0
  8 17  1  0
  9 10  2  0
  9 11  1  0
 10 14  1  0
 11 12  2  0
 12 13  1  0
 13 14  2  0
 13 16  1  0
 17 18  1  0
 17 19  2  0
 18 20  1  0
 18 15  1  0
 21 22  1  0
 22 23  2  0
 23 24  1  0
 23 26  1  0
 24 25  2  0
 26 27  1  0
M  END
>  <DRUGBANK_ID>  (1) 
DB11466

>  <COMMON_NAME>  (1) 
Tepoxalin

>  <CAS_NUMBER>  (1) 
103475-41-8

>  <UNII>  (1) 
TZ4OX61974

>  <SYNONYMS>  (1) 
5-(p-Chlorophenyl)-1-(p-methoxyphenyl)-N-methylpyrazole-3-propionohydroxamic acid; Tepoxalin; Tepoxalina; Tepoxaline; Tepoxaliume

$$$$
