
     RDKit          3D

 24 24  0  0  0  0  0  0  0  0999 V2000
    1.0981   -0.0724    0.3308 C   0  0  0  0  0  0  0  0  0  0  0  0
    2.9246   -1.2806   -7.3659 C   0  0  0  0  0  0  0  0  0  0  0  0
   -1.1676    4.9742   -1.9317 C   0  0  0  0  0  0  0  0  0  0  0  0
    2.0196    1.2986   -3.0273 C   0  0  0  0  0  0  0  0  0  0  0  0
   -2.3109   -1.0359   -7.0494 C   0  0  0  0  0  0  0  0  0  0  0  0
    0.5801    1.2434    0.9103 C   0  0  0  0  0  0  0  0  0  0  0  0
    2.7011   -2.4286   -6.3793 C   0  0  0  0  0  0  0  0  0  0  0  0
   -1.7566    3.8488   -1.0794 C   0  0  0  0  0  0  0  0  0  0  0  0
    1.2990    0.8303   -4.2380 C   0  0  0  0  0  0  0  0  0  0  0  0
    0.9298    2.4778    0.0854 C   0  0  0  0  0  0  0  0  0  0  0  0
    3.2979   -2.1947   -4.9898 C   0  0  0  0  0  0  0  0  0  0  0  0
    0.2047    2.4574   -1.2608 C   0  0  0  0  0  0  0  0  0  0  0  0
    2.9279   -0.8803   -4.3697 C   0  0  0  0  0  0  0  0  0  0  0  0
   -1.7534    2.1258   -3.0196 C   0  0  0  0  0  0  0  0  0  0  0  0
    0.5535   -1.5650   -3.3410 C   0  0  0  0  0  0  0  0  0  0  0  0
   -1.9451    0.6496   -5.0860 C   0  0  0  0  0  0  0  0  0  0  0  0
   -1.5014   -1.8114   -4.7666 C   0  0  0  0  0  0  0  0  0  0  0  0
   -1.6102   -0.3880   -2.8084 C   0  0  0  0  0  0  0  0  0  0  0  0
   -1.2957    2.4633   -1.5093 C   0  0  0  0  0  0  0  0  0  0  0  0
    1.4186   -0.6818   -4.2806 C   0  0  0  0  0  0  0  0  0  0  0  0
   -1.4613   -0.6657   -5.8243 C   0  0  0  0  0  0  0  0  0  0  0  0
   -0.2636   -0.5022   -6.6772 N   0  0  0  0  0  0  0  0  0  0  0  0
   -1.6133    0.7857   -3.6343 N   0  0  0  0  0  0  0  0  0  0  0  0
   -0.9213   -1.5015   -3.4529 N   0  0  0  0  0  0  0  0  0  0  0  0
  6  1  1  0
  7  2  1  0
  8  3  1  0
  9  4  1  0
 10  6  1  0
 11  7  1  0
 12 10  1  0
 13 11  1  0
 19  8  1  0
 19 12  1  0
 19 14  1  0
 20  9  1  0
 20 13  1  0
 20 15  1  0
 21  5  1  0
 21 16  1  0
 21 17  1  0
 22 21  1  0
 23 14  1  0
 23 16  1  0
 23 18  1  0
 24 15  1  0
 24 17  1  0
 24 18  1  0
M  END
>  <DRUGBANK_ID>  (1) 
DB08958

>  <COMMON_NAME>  (1) 
Hexetidine

>  <CAS_NUMBER>  (1) 
141-94-6

>  <UNII>  (1) 
852A84Y8LS

>  <SYNONYMS>  (1) 
Esetidina; Hexetidina; Hexetidine; Hex√©tidine; Hexetidinum

$$$$
