1621
     RDKit          3D

 32 35  0  0  0  0  0  0  0  0999 V2000
    0.0498    1.7988    0.4672 S   0  0  0  0  0  0  0  0  0  0  0  0
    4.8207   -2.2249   -0.8095 S   0  0  0  0  0  0  0  0  0  0  0  0
   -2.9669   -6.5094   -1.5858 O   0  0  0  0  0  0  0  0  0  0  0  0
    5.2190   -2.7579    0.4682 O   0  0  0  0  0  0  0  0  0  0  0  0
    4.3679   -3.1071   -1.8781 O   0  0  0  0  0  0  0  0  0  0  0  0
   -2.9561   -2.6573    2.8068 N   0  0  0  0  0  0  0  0  0  0  0  0
    0.0290   -1.2212    0.6357 N   0  0  0  0  0  0  0  0  0  0  0  0
    6.1497   -1.3152   -1.4086 N   0  0  0  0  0  0  0  0  0  0  0  0
   -3.1301   -5.1133    1.0822 C   0  0  0  0  0  0  0  0  0  0  0  0
   -3.8753   -3.8485    0.7039 C   0  0  0  0  0  0  0  0  0  0  0  0
   -2.9223   -5.1386    2.6071 C   0  0  0  0  0  0  0  0  0  0  0  0
   -3.2356   -2.6811    1.3922 C   0  0  0  0  0  0  0  0  0  0  0  0
   -2.2379   -3.8885    3.1516 C   0  0  0  0  0  0  0  0  0  0  0  0
   -3.9543   -6.3145    0.6273 C   0  0  0  0  0  0  0  0  0  0  0  0
   -2.1837   -1.3961    3.0304 C   0  0  0  0  0  0  0  0  0  0  0  0
   -0.6652   -1.5350    3.1199 C   0  0  0  0  0  0  0  0  0  0  0  0
   -4.1906   -6.3672   -0.8803 C   0  0  0  0  0  0  0  0  0  0  0  0
    0.0501   -2.0676    1.8540 C   0  0  0  0  0  0  0  0  0  0  0  0
    1.2915   -0.6959    0.3281 C   0  0  0  0  0  0  0  0  0  0  0  0
   -1.1000   -0.6649    0.0103 C   0  0  0  0  0  0  0  0  0  0  0  0
    1.4092    0.6847    0.0972 C   0  0  0  0  0  0  0  0  0  0  0  0
   -1.2937    0.7237   -0.0230 C   0  0  0  0  0  0  0  0  0  0  0  0
    2.3566   -1.5710    0.0747 C   0  0  0  0  0  0  0  0  0  0  0  0
    3.5082   -1.0722   -0.5122 C   0  0  0  0  0  0  0  0  0  0  0  0
   -2.0217   -1.4200   -0.7234 C   0  0  0  0  0  0  0  0  0  0  0  0
    2.5596    1.1683   -0.4924 C   0  0  0  0  0  0  0  0  0  0  0  0
    3.5771    0.2818   -0.8487 C   0  0  0  0  0  0  0  0  0  0  0  0
   -2.5012    1.2724   -0.4855 C   0  0  0  0  0  0  0  0  0  0  0  0
   -3.2929   -0.9038   -1.0343 C   0  0  0  0  0  0  0  0  0  0  0  0
   -3.5453    0.4459   -0.8851 C   0  0  0  0  0  0  0  0  0  0  0  0
    6.6882   -0.2984   -0.4702 C   0  0  0  0  0  0  0  0  0  0  0  0
    7.2635   -2.2168   -1.8220 C   0  0  0  0  0  0  0  0  0  0  0  0
  1 21  1  0
  1 22  1  0
  2  4  2  0
  2  5  2  0
  2  8  1  0
  2 24  1  0
  3 17  1  0
  6 12  1  0
  6 13  1  0
  6 15  1  0
  7 18  1  0
  7 19  1  0
  7 20  1  0
  8 31  1  0
  8 32  1  0
  9 10  1  0
  9 11  1  0
  9 14  1  0
 10 12  1  0
 11 13  1  0
 14 17  1  0
 15 16  1  0
 16 18  1  0
 19 21  2  0
 19 23  1  0
 20 22  2  0
 20 25  1  0
 21 26  1  0
 22 28  1  0
 23 24  2  0
 24 27  1  0
 25 29  2  0
 26 27  2  0
 28 30  2  0
 29 30  1  0
M  END
>  <DRUGBANK_ID>  (1) 
DB01621

>  <COMMON_NAME>  (1) 
Pipotiazine

>  <CAS_NUMBER>  (1) 
39860-99-6

>  <UNII>  (1) 
L903J9JPYV

>  <SYNONYMS>  (1) 
Piportil; Pipothiazine; Pipotiazina; Pipotiazine; Pipotiazinum

$$$$
