SIH
     RDKit          3D

 31 34  0  0  0  0  0  0  0  0999 V2000
   -2.2793   -1.4149    0.0933 C   0  0  0  0  0  0  0  0  0  0  0  0
   -3.7646   -1.2355   -0.1402 C   0  0  0  0  0  0  0  0  0  0  0  0
   -4.1800    0.1040    0.3776 C   0  0  0  0  0  0  0  0  0  0  0  0
   -5.3090    0.3203    0.8073 O   0  0  0  0  0  0  0  0  0  0  0  0
   -3.2023    1.2118    0.2378 C   0  0  0  0  0  0  0  0  0  0  0  0
   -1.9532    1.0080   -0.2283 C   0  0  0  0  0  0  0  0  0  0  0  0
   -1.0702    2.1770   -0.5634 C   0  0  0  0  0  0  0  0  0  0  0  0
    0.3453    2.0650   -0.0062 C   0  0  0  0  0  0  0  0  0  0  0  0
    1.0046    0.7088   -0.2891 C   0  0  2  0  0  0  0  0  0  0  0  0
    0.0902   -0.4126    0.2645 C   0  0  1  0  0  0  0  0  0  0  0  0
   -1.3288   -0.3654   -0.4702 C   0  0  1  0  0  0  0  0  0  0  0  0
    0.8330   -1.7945    0.3796 C   0  0  2  0  0  0  0  0  0  0  0  0
    0.2296   -2.6558    1.3686 O   0  0  0  0  0  0  0  0  0  0  0  0
    2.3246   -1.8007    0.7505 C   0  0  0  0  0  0  0  0  0  0  0  0
    3.1089   -0.7106    0.0564 C   0  0  1  0  0  0  0  0  0  0  0  0
    2.3820    0.6160    0.3657 C   0  0  1  0  0  0  0  0  0  0  0  0
    3.4118    1.6753    0.0093 C   0  0  0  0  0  0  0  0  0  0  0  0
    4.7482    1.0412    0.4058 C   0  0  0  0  0  0  0  0  0  0  0  0
    4.4647   -0.4361    0.7286 C   0  0  2  0  0  0  0  0  0  0  0  0
    3.2413   -1.0181   -1.4456 C   0  0  0  0  0  0  0  0  0  0  0  0
   -1.1980   -0.6559   -1.9795 C   0  0  0  0  0  0  0  0  0  0  0  0
    5.6708   -1.2966    0.3670 C   0  0  0  0  0  0  0  0  0  0  0  0
    5.7318   -2.0628   -0.5896 O   0  0  0  0  0  0  0  0  0  0  0  0
    6.8446   -1.1512    1.2875 C   0  0  0  0  0  0  0  0  0  0  0  0
    0.0603   -2.2671    2.6548 C   0  0  0  0  0  0  0  0  0  0  0  0
    0.5055   -1.2411    3.1504 O   0  0  0  0  0  0  0  0  0  0  0  0
   -0.7457   -3.2745    3.4372 C   0  0  0  0  0  0  0  0  0  0  0  0
   -2.1915   -3.4298    2.9837 C   0  0  0  0  0  0  0  0  0  0  0  0
   -2.3707   -4.2758    1.7323 C   0  0  0  0  0  0  0  0  0  0  0  0
   -3.2302   -5.1025    1.5447 O   0  0  0  0  0  0  0  0  0  0  0  0
   -1.5258   -3.9702    0.7445 O   0  0  0  0  0  0  0  0  0  0  0  0
  1  2  1  0
  1 11  1  0
  2  3  1  0
  3  4  2  0
  3  5  1  0
  5  6  2  0
  6  7  1  0
  6 11  1  0
  7  8  1  0
  9  8  1  1
  9 10  1  0
  9 16  1  0
 10 11  1  0
 10 12  1  6
 11 21  1  6
 12 13  1  1
 12 14  1  0
 13 25  1  0
 14 15  1  0
 15 16  1  0
 15 19  1  0
 15 20  1  6
 16 17  1  6
 17 18  1  0
 18 19  1  0
 19 22  1  6
 22 23  2  0
 22 24  1  0
 25 26  2  0
 25 27  1  0
 27 28  1  0
 28 29  1  0
 29 30  2  0
 29 31  1  0
M  END
>  <DRUGBANK_ID>  (1) 
DB08547

>  <COMMON_NAME>  (1) 
PROGESTERONE-11-ALPHA-OL-HEMISUCCINATE

$$$$
