
     RDKit          3D

 28 31  0  0  0  0  0  0  0  0999 V2000
    1.3955   -0.2291    0.0070 C   0  0  0  0  0  0  0  0  0  0  0  0
   -5.7568   -2.6735   -0.4740 C   0  0  0  0  0  0  0  0  0  0  0  0
    0.4882   -1.2801    0.0016 C   0  0  0  0  0  0  0  0  0  0  0  0
    0.9212    1.0678   -0.0157 C   0  0  0  0  0  0  0  0  0  0  0  0
   -4.9095   -2.5854    0.6229 C   0  0  0  0  0  0  0  0  0  0  0  0
   -5.6362   -1.7344   -1.4964 C   0  0  0  0  0  0  0  0  0  0  0  0
   -2.1537   10.5937    0.2084 C   0  0  0  0  0  0  0  0  0  0  0  0
   -1.5881   10.0388   -0.8789 C   0  0  0  0  0  0  0  0  0  0  0  0
   -0.8992   -1.0207   -0.0471 C   0  0  0  0  0  0  0  0  0  0  0  0
   -0.4478    1.3112    0.0417 C   0  0  0  0  0  0  0  0  0  0  0  0
   -3.9956   -1.5150    0.7198 C   0  0  0  0  0  0  0  0  0  0  0  0
   -4.6578   -0.7194   -1.4333 C   0  0  0  0  0  0  0  0  0  0  0  0
   -3.0955    9.6298    0.9254 C   0  0  0  0  0  0  0  0  0  0  0  0
   -2.2845    8.9107   -1.2683 C   0  0  0  0  0  0  0  0  0  0  0  0
   -3.2285    2.0721   -0.0646 C   0  0  0  0  0  0  0  0  0  0  0  0
   -4.3477    3.2670    0.0545 C   0  0  0  0  0  0  0  0  0  0  0  0
   -6.4210    6.1394   -0.5382 C   0  0  0  0  0  0  0  0  0  0  0  0
   -1.4167    0.3042   -0.0499 C   0  0  0  0  0  0  0  0  0  0  0  0
   -3.9107   -0.4964   -0.2670 C   0  0  0  0  0  0  0  0  0  0  0  0
   -2.9335    0.6924   -0.1437 C   0  0  0  0  0  0  0  0  0  0  0  0
   -3.4984    7.9644    0.5572 C   0  0  0  0  0  0  0  0  0  0  0  0
   -3.4779    8.4115   -0.6937 C   0  0  0  0  0  0  0  0  0  0  0  0
   -4.9465    6.3598   -0.5660 C   0  0  0  0  0  0  0  0  0  0  0  0
   -4.1931    6.2947    0.5964 C   0  0  0  0  0  0  0  0  0  0  0  0
   -7.0064    6.7826    0.6379 N   0  0  0  0  0  0  0  0  0  0  0  0
   -4.3987    4.6148    0.2480 N   0  0  0  0  0  0  0  0  0  0  0  0
   -4.4786    8.1299   -1.4826 N   0  0  0  0  0  0  0  0  0  0  0  0
   -4.4877    6.9398   -1.6611 N   0  0  0  0  0  0  0  0  0  0  0  0
  3  1  2  0
  4  1  1  0
  5  2  2  0
  6  2  1  0
  8  7  2  0
  9  3  1  0
 10  4  2  0
 11  5  1  0
 12  6  2  0
 13  7  1  0
 14  8  1  0
 16 15  1  0
 18  9  2  0
 18 10  1  0
 19 11  2  0
 19 12  1  0
 20 15  2  3
 20 18  1  0
 20 19  1  0
 21 13  2  0
 22 14  2  0
 22 21  1  0
 23 17  1  0
 24 21  1  0
 24 23  2  0
 25 17  1  0
 26 16  2  3
 26 24  1  0
 27 22  1  0
 28 23  1  0
 28 27  2  0
M  END
>  <DRUGBANK_ID>  (1) 
DB02882

>  <SECONDARY_ACCESSION_NUMBERS>  (1) 
EXPT02227

>  <COMMON_NAME>  (1) 
Cyanocinnoline

$$$$
