
     RDKit          3D

 29 32  0  0  0  0  0  0  0  0999 V2000
    1.8703    1.2954    0.0187 C   0  0  0  0  0  0  0  0  0  0  0  0
    0.4775    1.2104   -0.0034 C   0  0  0  0  0  0  0  0  0  0  0  0
   -0.1567   -0.0514   -0.0800 C   0  0  0  0  0  0  0  0  0  0  0  0
    0.6051   -1.2318   -0.2053 C   0  0  0  0  0  0  0  0  0  0  0  0
    1.9803   -1.0955   -0.2017 C   0  0  0  0  0  0  0  0  0  0  0  0
    2.6065    0.1289   -0.0413 C   0  0  0  0  0  0  0  0  0  0  0  0
    3.9437    0.1641   -0.0155 F   0  0  0  0  0  0  0  0  0  0  0  0
    0.0588   -2.4530   -0.5131 O   0  0  0  0  0  0  0  0  0  0  0  0
    0.5909   -3.7246   -0.0234 C   0  0  0  0  0  0  0  0  0  0  0  0
    1.3930   -3.7417    1.2886 C   0  0  0  0  0  0  0  0  0  0  0  0
    2.9128   -4.0055    1.1338 C   0  0  0  0  0  0  0  0  0  0  0  0
    3.1965   -5.1828    0.3108 N   0  0  0  0  0  0  0  0  0  0  0  0
    2.6023   -5.1146   -1.0316 C   0  0  0  0  0  0  0  0  0  0  0  0
    1.0760   -4.8785   -0.9480 C   0  0  0  0  0  0  0  0  0  0  0  0
    3.9924   -6.2135    0.7930 C   0  0  0  0  0  0  0  0  0  0  0  0
    5.1874   -6.7502    0.1902 C   0  0  0  0  0  0  0  0  0  0  0  0
    5.6306   -7.8013    0.9997 C   0  0  0  0  0  0  0  0  0  0  0  0
    4.7486   -7.8595    2.0509 O   0  0  0  0  0  0  0  0  0  0  0  0
    3.8058   -6.8368    1.9658 N   0  0  0  0  0  0  0  0  0  0  0  0
    6.9132   -8.6670    0.8570 C   0  0  0  0  0  0  0  0  0  0  0  0
    8.1278   -8.0583    0.6203 N   0  0  0  0  0  0  0  0  0  0  0  0
    9.0639   -8.9977    0.6089 N   0  0  0  0  0  0  0  0  0  0  0  0
    8.4198  -10.1649    0.8120 N   0  0  0  0  0  0  0  0  0  0  0  0
    7.0555  -10.0208    0.9751 N   0  0  0  0  0  0  0  0  0  0  0  0
    9.1677  -11.4101    0.6409 C   0  0  0  0  0  0  0  0  0  0  0  0
    9.1088  -12.3578    1.7913 C   0  0  0  0  0  0  0  0  0  0  0  0
    8.8204  -13.5562    1.7180 O   0  0  0  0  0  0  0  0  0  0  0  0
    9.5542  -11.8549    2.9561 O   0  0  0  0  0  0  0  0  0  0  0  0
   -2.0541   -0.0646   -0.0312 Br  0  0  0  0  0  0  0  0  0  0  0  0
  1  2  2  0
  1  6  1  0
  2  3  1  0
  3  4  2  0
  3 29  1  0
  4  5  1  0
  4  8  1  0
  5  6  2  0
  6  7  1  0
  8  9  1  0
  9 10  1  0
  9 14  1  0
 10 11  1  0
 11 12  1  0
 12 13  1  0
 12 15  1  0
 13 14  1  0
 15 16  1  0
 15 19  2  0
 16 17  2  0
 17 18  1  0
 17 20  1  0
 18 19  1  0
 20 21  1  0
 20 24  2  0
 21 22  2  0
 22 23  1  0
 23 24  1  0
 23 25  1  0
 25 26  1  0
 26 27  2  0
 26 28  1  0
M  END
>  <DRUGBANK_ID>  (1) 
DB13024

>  <COMMON_NAME>  (1) 
MK-8245

>  <CAS_NUMBER>  (1) 
1030612-90-8

>  <UNII>  (1) 
537E7QE8LX

$$$$
