
     RDKit          3D

 28 30  0  0  0  0  0  0  0  0999 V2000
    1.1501    0.2010    0.2015 C   0  0  0  0  0  0  0  0  0  0  0  0
    0.6683   -1.1673    0.1150 N   0  0  0  0  0  0  0  0  0  0  0  0
   -0.8210   -1.1850    0.2628 C   0  0  0  0  0  0  0  0  0  0  0  0
   -1.6571   -0.5052   -0.8394 C   0  0  0  0  0  0  0  0  0  0  0  0
   -1.5389   -1.3553   -2.0426 C   0  0  0  0  0  0  0  0  0  0  0  0
   -1.9214   -2.7794   -1.9301 C   0  0  0  0  0  0  0  0  0  0  0  0
   -3.3229   -2.9934   -2.3285 C   0  0  0  0  0  0  0  0  0  0  0  0
   -3.5520   -2.4152   -3.7345 C   0  0  0  0  0  0  0  0  0  0  0  0
   -3.0548   -3.2223   -4.8473 O   0  0  0  0  0  0  0  0  0  0  0  0
   -1.7035   -3.3488   -5.0865 C   0  0  0  0  0  0  0  0  0  0  0  0
   -0.8827   -4.1492   -4.3021 C   0  0  0  0  0  0  0  0  0  0  0  0
    0.5030   -3.9467   -4.2808 C   0  0  0  0  0  0  0  0  0  0  0  0
    1.1059   -3.4859   -5.4541 C   0  0  0  0  0  0  0  0  0  0  0  0
    0.2542   -2.9988   -6.4507 C   0  0  0  0  0  0  0  0  0  0  0  0
    1.2259   -2.6887   -7.8275 S   0  0  0  0  0  0  0  0  0  0  0  0
    2.6822   -3.0494   -7.1336 N   0  0  0  0  0  0  0  0  0  0  0  0
    2.4955   -3.4370   -5.8697 C   0  0  0  0  0  0  0  0  0  0  0  0
    3.6600   -3.7927   -5.0408 C   0  0  0  0  0  0  0  0  0  0  0  0
    3.7098   -4.9878   -4.3066 C   0  0  0  0  0  0  0  0  0  0  0  0
    4.7601   -5.2275   -3.4117 C   0  0  0  0  0  0  0  0  0  0  0  0
    5.8145   -4.3206   -3.3256 C   0  0  0  0  0  0  0  0  0  0  0  0
    7.2075   -4.6087   -2.0808 Br  0  0  0  0  0  0  0  0  0  0  0  0
    5.8362   -3.1875   -4.1341 C   0  0  0  0  0  0  0  0  0  0  0  0
    4.7398   -2.9022   -4.9519 C   0  0  0  0  0  0  0  0  0  0  0  0
   -1.1418   -2.8356   -6.2497 C   0  0  0  0  0  0  0  0  0  0  0  0
    1.3533   -1.8231   -1.0469 C   0  0  0  0  0  0  0  0  0  0  0  0
    1.3442   -0.9941   -2.3420 C   0  0  0  0  0  0  0  0  0  0  0  0
    2.1573   -0.8195   -3.4058 C   0  0  0  0  0  0  0  0  0  0  0  0
  1  2  1  0
  2  3  1  0
  2 26  1  0
  3  4  1  0
  4  5  1  0
  5  6  1  0
  6  7  1  0
  7  8  1  0
  8  9  1  0
  9 10  1  0
 10 11  2  0
 10 25  1  0
 11 12  1  0
 12 13  2  0
 13 14  1  0
 13 17  1  0
 14 15  1  0
 14 25  2  0
 15 16  1  0
 16 17  2  0
 17 18  1  0
 18 19  2  0
 18 24  1  0
 19 20  1  0
 20 21  2  0
 21 22  1  0
 21 23  1  0
 23 24  2  0
 26 27  1  0
 27 28  2  0
M  END
>  <DRUGBANK_ID>  (1) 
DB02544

>  <SECONDARY_ACCESSION_NUMBERS>  (1) 
EXPT02750

>  <COMMON_NAME>  (1) 
N-(6-{[3-(4-Bromophenyl)-1,2-Benzisothiazol-6-Yl]Oxy}Hexyl)-N-Methylprop-2-En-1-Amine

$$$$
