
     RDKit          3D

 25 27  0  0  1  0  0  0  0  0999 V2000
    1.5039   -6.6904    2.2775 C   0  0  0  0  0  0  0  0  0  0  0  0
    2.9245   -8.8644    1.8650 C   0  0  0  0  0  0  0  0  0  0  0  0
    2.6264    0.2663   -3.0639 C   0  0  0  0  0  0  0  0  0  0  0  0
    1.3668    0.1041   -3.6476 C   0  0  0  0  0  0  0  0  0  0  0  0
    0.6487   -9.6299    4.1178 C   0  0  0  0  0  0  0  0  0  0  0  0
    2.9602   -0.3898   -1.8735 C   0  0  0  0  0  0  0  0  0  0  0  0
    0.3942   -0.7220   -3.0751 C   0  0  0  0  0  0  0  0  0  0  0  0
    2.4823   -5.5359    5.6759 C   0  0  0  0  0  0  0  0  0  0  0  0
    2.4733   -4.2002    5.2652 C   0  0  0  0  0  0  0  0  0  0  0  0
    0.3511   -8.8977    2.8641 C   0  0  0  0  0  0  0  0  0  0  0  0
    1.9820   -9.1401    4.7108 C   0  0  0  0  0  0  0  0  0  0  0  0
    1.4633   -4.2508    1.6574 C   0  0  0  0  0  0  0  0  0  0  0  0
    1.8224   -5.9440    3.4747 C   0  0  0  0  0  0  0  0  0  0  0  0
    1.9896   -1.2007   -1.2775 C   0  0  0  0  0  0  0  0  0  0  0  0
    0.7594   -1.3587   -1.8910 C   0  0  0  0  0  0  0  0  0  0  0  0
    1.8120   -4.6168    3.1123 C   0  0  0  0  0  0  0  0  0  0  0  0
    2.1263   -6.5039    4.7510 C   0  0  0  0  0  0  0  0  0  0  0  0
    0.8274   -2.3596    0.0623 C   0  0  0  0  0  0  0  0  0  0  0  0
    2.1877   -3.7250    4.0273 N   0  0  0  0  0  0  0  0  0  0  0  0
    2.0205   -1.8748   -0.0838 N   0  0  0  0  0  0  0  0  0  0  0  0
    0.0423   -2.1972   -1.0640 N   0  0  0  0  0  0  0  0  0  0  0  0
    0.4658   -2.0080    2.5948 O   0  0  0  0  0  0  0  0  0  0  0  0
    1.4209   -9.1213    1.7946 O   0  0  0  0  0  0  0  0  0  0  0  0
    2.0841   -7.7892    5.2636 O   0  0  0  0  0  0  0  0  0  0  0  0
    0.1749   -3.0137    1.5236 S   0  0  0  0  0  0  0  0  0  0  0  0
  4  3  2  0
  6  3  1  0
  7  4  1  0
  9  8  2  0
 10  5  1  0
 11  5  1  0
 13  1  1  0
 14  6  2  0
 15  7  2  0
 15 14  1  0
 16 12  1  0
 16 13  1  0
 17  8  1  0
 17 13  2  0
 19  9  1  0
 19 16  2  0
 20 14  1  0
 20 18  2  0
 21 15  1  0
 21 18  1  0
 23  2  1  0
 23 10  1  0
 24 11  1  0
 24 17  1  0
 25 22  2  0
 25 18  1  0
 25 12  1  0
M  END
>  <DRUGBANK_ID>  (1) 
DB13762

>  <COMMON_NAME>  (1) 
Dexrabeprazole

>  <CAS_NUMBER>  (1) 
177795-60-7

>  <UNII>  (1) 
65JK8810RM

>  <SYNONYMS>  (1) 
Rabeprazole, (r)-

$$$$
