
     RDKit          3D

 24 27  0  0  0  0  0  0  0  0999 V2000
   -1.4342    2.6512    0.8101 C   0  0  0  0  0  0  0  0  0  0  0  0
   -1.7011    1.3021    0.2555 C   0  0  0  0  0  0  0  0  0  0  0  0
   -2.9043    0.7956    0.0717 N   0  0  0  0  0  0  0  0  0  0  0  0
   -2.7673   -0.5049   -0.3329 N   0  0  0  0  0  0  0  0  0  0  0  0
   -1.4821   -0.7814   -0.3718 C   0  0  0  0  0  0  0  0  0  0  0  0
   -0.7527    0.3317   -0.0299 N   0  0  0  0  0  0  0  0  0  0  0  0
    0.6618    0.4181   -0.0493 C   0  0  0  0  0  0  0  0  0  0  0  0
    1.2582    1.6024   -0.5098 C   0  0  0  0  0  0  0  0  0  0  0  0
    2.6472    1.7291   -0.5546 C   0  0  0  0  0  0  0  0  0  0  0  0
    3.4504    0.6644   -0.1435 C   0  0  0  0  0  0  0  0  0  0  0  0
    2.8737   -0.5350    0.2855 C   0  0  0  0  0  0  0  0  0  0  0  0
    1.4752   -0.6726    0.3250 C   0  0  0  0  0  0  0  0  0  0  0  0
    0.9529   -1.9973    0.7824 C   0  0  0  0  0  0  0  0  0  0  0  0
   -0.0588   -2.6162    0.2747 N   0  0  0  0  0  0  0  0  0  0  0  0
   -0.8283   -2.0305   -0.8163 C   0  0  0  0  0  0  0  0  0  0  0  0
    1.6578   -2.6897    1.9053 C   0  0  0  0  0  0  0  0  0  0  0  0
    1.8475   -2.0538    3.1375 C   0  0  0  0  0  0  0  0  0  0  0  0
    2.3696   -2.7776    4.2131 C   0  0  0  0  0  0  0  0  0  0  0  0
    2.6926   -4.1270    4.0590 C   0  0  0  0  0  0  0  0  0  0  0  0
    2.5244   -4.7500    2.8226 C   0  0  0  0  0  0  0  0  0  0  0  0
    2.0439   -4.0227    1.7341 C   0  0  0  0  0  0  0  0  0  0  0  0
    4.9115    0.7921   -0.1759 N   0  0  0  0  0  0  0  0  0  0  0  0
    5.5820   -0.1725    0.2061 O   0  0  0  0  0  0  0  0  0  0  0  0
    5.3820    1.8666   -0.5811 O   0  0  0  0  0  0  0  0  0  0  0  0
  1  2  1  0
  2  3  2  0
  2  6  1  0
  3  4  1  0
  4  5  2  0
  5  6  1  0
  5 15  1  0
  6  7  1  0
  7  8  2  0
  7 12  1  0
  8  9  1  0
  9 10  2  0
 10 11  1  0
 10 22  1  0
 11 12  2  0
 12 13  1  0
 13 14  2  0
 13 16  1  0
 14 15  1  0
 16 17  2  0
 16 21  1  0
 17 18  1  0
 18 19  2  0
 19 20  1  0
 20 21  2  0
 22 23  2  0
 22 24  1  0
M  CHG  2  22   1  24  -1
M  END
>  <DRUGBANK_ID>  (1) 
DB14717

>  <COMMON_NAME>  (1) 
Nitrazolam

>  <CAS_NUMBER>  (1) 
28910-99-8

>  <UNII>  (1) 
K499DBB308

$$$$
