
     RDKit          3D

 21 22  0  0  0  0  0  0  0  0999 V2000
    0.5019    0.3862   -0.0617 C   0  0  0  0  0  0  0  0  0  0  0  0
   -0.0529    0.6017    1.3793 C   0  0  0  0  0  0  0  0  0  0  0  0
    0.9283    1.0612    2.4936 N   0  0  0  0  0  0  0  0  0  0  0  0
    0.5215    0.9553    3.9217 C   0  0  0  0  0  0  0  0  0  0  0  0
    1.1550   -0.0753    4.9582 C   0  0  0  0  0  0  0  0  0  0  0  0
    2.4063    0.9548    2.3793 C   0  0  0  0  0  0  0  0  0  0  0  0
    3.1876   -0.4014    2.7588 C   0  0  0  0  0  0  0  0  0  0  0  0
    2.7031   -1.7870    2.1317 C   0  0  0  0  0  0  0  0  0  0  0  0
    1.2084   -1.8891    1.8741 C   0  0  0  0  0  0  0  0  0  0  0  0
    0.1256   -2.0637    2.9351 C   0  0  0  0  0  0  0  0  0  0  0  0
    0.4901   -3.2060    3.7684 C   0  0  0  0  0  0  0  0  0  0  0  0
   -0.3111   -3.7053    4.5901 O   0  0  0  0  0  0  0  0  0  0  0  0
    1.7967   -3.6190    3.6409 N   0  0  0  0  0  0  0  0  0  0  0  0
    2.9116   -3.0358    3.0162 C   0  0  0  0  0  0  0  0  0  0  0  0
    4.0038   -3.5830    3.1567 O   0  0  0  0  0  0  0  0  0  0  0  0
    3.3781   -1.8510    0.7192 C   0  0  0  0  0  0  0  0  0  0  0  0
    3.5873   -0.7397   -0.1422 C   0  0  0  0  0  0  0  0  0  0  0  0
    4.0418   -0.8551   -1.4494 C   0  0  0  0  0  0  0  0  0  0  0  0
    4.5584   -2.0658   -1.8403 C   0  0  0  0  0  0  0  0  0  0  0  0
    4.4963   -3.1485   -0.9682 C   0  0  0  0  0  0  0  0  0  0  0  0
    3.7904   -3.0755    0.2268 C   0  0  0  0  0  0  0  0  0  0  0  0
  1  2  1  0
  2  3  1  0
  3  4  1  0
  3  6  1  0
  4  5  1  0
  6  7  1  0
  7  8  1  0
  8  9  1  0
  8 14  1  0
  8 16  1  0
  9 10  1  0
 10 11  1  0
 11 12  2  0
 11 13  1  0
 13 14  1  0
 14 15  2  0
 16 17  2  0
 16 21  1  0
 17 18  1  0
 18 19  2  0
 19 20  1  0
 20 21  2  0
M  END
>  <DRUGBANK_ID>  (1) 
DB13413

>  <COMMON_NAME>  (1) 
Phenglutarimide

>  <CAS_NUMBER>  (1) 
1156-05-4

>  <UNII>  (1) 
679RC9H8TG

>  <SYNONYMS>  (1) 
Phenglutarimide

$$$$
