
     RDKit          3D

 18 19  0  0  0  0  0  0  0  0999 V2000
   -0.5479   -0.0320   -1.1533 S   0  0  0  0  0  0  0  0  0  0  0  0
   -1.3576   -4.2897   -0.0197 O   0  0  0  0  0  0  0  0  0  0  0  0
   -0.0369   -2.4858   -0.1173 N   0  0  0  0  0  0  0  0  0  0  0  0
    1.5056   -0.6836    0.1395 N   0  0  0  0  0  0  0  0  0  0  0  0
   -3.1949   -1.3722    3.7039 N   0  0  0  0  0  0  0  0  0  0  0  0
   -0.2964    2.6959   -0.1544 C   0  0  0  0  0  0  0  0  0  0  0  0
    0.2057    1.2513   -0.2352 C   0  0  0  0  0  0  0  0  0  0  0  0
   -1.1768    3.0719   -1.3374 C   0  0  0  0  0  0  0  0  0  0  0  0
   -1.0667    3.1127    1.1100 C   0  0  0  0  0  0  0  0  0  0  0  0
    1.4465    0.7108    0.0807 C   0  0  0  0  0  0  0  0  0  0  0  0
    0.3453   -1.1694   -0.2369 C   0  0  0  0  0  0  0  0  0  0  0  0
   -2.5763   -2.2298    0.0400 C   0  0  0  0  0  0  0  0  0  0  0  0
   -1.2829   -3.0399   -0.0467 C   0  0  0  0  0  0  0  0  0  0  0  0
   -2.7258   -1.4391    1.3186 C   0  0  0  0  0  0  0  0  0  0  0  0
   -2.4000   -0.0947    1.4086 C   0  0  0  0  0  0  0  0  0  0  0  0
   -3.1463   -2.0147    2.5062 C   0  0  0  0  0  0  0  0  0  0  0  0
   -2.2466    0.5220    2.6395 C   0  0  0  0  0  0  0  0  0  0  0  0
   -2.7073   -0.1234    3.7487 C   0  0  0  0  0  0  0  0  0  0  0  0
  1  7  1  0
  1 11  1  0
  2 13  2  0
  3 11  1  0
  3 13  1  0
  4 10  1  0
  4 11  2  0
  5 16  2  0
  5 18  1  0
  6  7  1  0
  6  8  1  0
  6  9  1  0
  7 10  2  0
 12 13  1  0
 12 14  1  0
 14 15  2  0
 14 16  1  0
 15 17  1  0
 17 18  2  0
M  END
>  <DRUGBANK_ID>  (1) 
DB08677

>  <COMMON_NAME>  (1) 
N-(5-Isopropyl-thiazol-2-YL)-2-pyridin-3-YL-acetamide

$$$$
