
     RDKit          3D

 16 16  0  0  1  0  0  0  0  0999 V2000
    0.8817    0.1553    0.0332 C   0  0  0  0  0  0  0  0  0  0  0  0
   -0.4711   -1.1647    1.8022 C   0  0  0  0  0  0  0  0  0  0  0  0
    7.5049   -7.8017   -0.8394 C   0  0  0  0  0  0  0  0  0  0  0  0
    1.6588   -5.3423   -1.7166 C   0  0  0  0  0  0  0  0  0  0  0  0
    1.5293   -2.4078   -1.2624 C   0  0  0  0  0  0  0  0  0  0  0  0
    0.6256   -2.2926   -0.0815 C   0  0  0  0  0  0  0  0  0  0  0  0
    6.3135   -5.6266   -0.8678 C   0  0  0  0  0  0  0  0  0  0  0  0
    4.9999   -7.7395   -0.6187 C   0  0  0  0  0  0  0  0  0  0  0  0
    5.0910   -4.7779   -0.8456 C   0  0  0  0  0  0  0  0  0  0  0  0
    3.7552   -6.9216   -0.8741 C   0  0  0  0  0  0  0  0  0  0  0  0
    2.7690   -3.2296   -0.9362 C   0  0  0  0  0  0  0  0  0  0  0  0
    0.3572   -1.1394    0.5589 C   0  0  0  0  0  0  0  0  0  0  0  0
    6.2744   -6.9648   -0.7766 C   0  0  0  0  0  0  0  0  0  0  0  0
    3.8356   -5.4945   -0.3184 C   0  0  2  0  0  0  0  0  0  0  0  0
    2.5130   -4.7171   -0.5955 C   0  0  2  0  0  0  0  0  0  0  0  0
    1.7685   -4.8028    0.6286 O   0  0  0  0  0  0  0  0  0  0  0  0
  6  5  1  0
  9  7  1  0
 10  8  1  0
 11  5  1  0
 12  1  1  0
 12  2  1  0
 12  6  2  3
 13  3  1  0
 13  7  2  0
 13  8  1  0
 14  9  1  6
 14 10  1  0
 14 15  1  0
 15  4  1  6
 15 11  1  0
 15 16  1  0
M  END
>  <DRUGBANK_ID>  (1) 
DB13153

>  <COMMON_NAME>  (1) 
Levomenol

>  <CAS_NUMBER>  (1) 
23089-26-1

>  <UNII>  (1) 
24WE03BX2T

>  <SYNONYMS>  (1) 
(-)-alpha-Bisabolol; alpha-(-)-bisabolol; alpha-bisabolol; Bisabolol; Kamillosan; Levomenol; α-(−)-bisabolol

$$$$
