
     RDKit          3D

 21 24  0  0  1  0  0  0  0  0999 V2000
    0.2279   -0.1019    0.3657 C   0  0  2  0  0  0  0  0  0  0  0  0
   -0.4161    0.5343   -0.9195 C   0  0  1  0  0  0  0  0  0  0  0  0
    1.7034    0.3742    0.6321 C   0  0  2  0  0  0  0  0  0  0  0  0
    0.1092   -1.6510    0.4193 C   0  0  2  0  0  0  0  0  0  0  0  0
   -0.5221    0.3283    1.5506 O   0  0  0  0  0  0  0  0  0  0  0  0
   -1.8075    0.2934   -1.0823 O   0  0  0  0  0  0  0  0  0  0  0  0
   -0.2146    1.9297   -1.0699 O   0  0  0  0  0  0  0  0  0  0  0  0
    1.7707    1.9068    0.3781 C   0  0  2  0  0  0  0  0  0  0  0  0
    2.8858   -0.4816    0.0767 C   0  0  0  0  0  0  0  0  0  0  0  0
    1.2318   -2.3858   -0.3625 C   0  0  1  0  0  0  0  0  0  0  0  0
   -1.2975   -2.1374   -0.0038 C   0  0  0  0  0  0  0  0  0  0  0  0
   -1.7823    0.9725    1.1588 O   0  0  0  0  0  0  0  0  0  0  0  0
   -2.4406    0.1678    0.1769 C   0  0  2  0  0  0  0  0  0  0  0  0
    1.1282    2.3804   -0.9512 C   0  0  1  0  0  0  0  0  0  0  0  0
    3.1452    2.5163    0.6311 C   0  0  0  0  0  0  0  0  0  0  0  0
    2.6266   -1.9762    0.1340 C   0  0  0  0  0  0  0  0  0  0  0  0
    1.1447   -3.9117   -0.2117 C   0  0  0  0  0  0  0  0  0  0  0  0
   -2.4783   -1.3225    0.5581 C   0  0  0  0  0  0  0  0  0  0  0  0
   -3.8453    0.7301   -0.0326 C   0  0  0  0  0  0  0  0  0  0  0  0
    1.9046    2.2063   -2.1384 O   0  0  0  0  0  0  0  0  0  0  0  0
    1.9755    0.9061   -2.6661 C   0  0  0  0  0  0  0  0  0  0  0  0
  1  2  1  0
  1  3  1  0
  1  4  1  0
  1  5  1  1
  2  6  1  0
  2  7  1  1
  3  8  1  0
  3  9  1  6
  4 10  1  0
  4 11  1  6
  5 12  1  0
  6 13  1  0
  7 14  1  0
  8 15  1  6
  8 14  1  0
  9 16  1  0
 10 17  1  1
 10 16  1  0
 11 18  1  0
 13 19  1  6
 13 12  1  0
 13 18  1  0
 14 20  1  6
 20 21  1  0
M  END
>  <DRUGBANK_ID>  (1) 
DB06697

>  <COMMON_NAME>  (1) 
Artemether

>  <CAS_NUMBER>  (1) 
71963-77-4

>  <UNII>  (1) 
C7D6T3H22J

>  <SYNONYMS>  (1) 
(1R,4S,5R,8S,9R,10S,12R,13R)-10-methoxy-1,5,9-trimethyl-11,14,15,16-tetraoxatetracyclo[10.3.1.0^{4,13}.0^{8,13}]hexadecane; 10-methoxy-1,5,9-trimethyl-(1R,4S,5R,8S,9R,10S,12R,13R)-11,14,15,16-tetraoxatetracyclo[10.3.1.04,13.08,13]hexadecane; Artemetero; Artemether; Artemetherum; Artemisininelactol methyl ether; Dihydroartemisinin methyl ether; Dihydroqinghaosu methyl ether; methyl-dihydroartemisinine; β-artemether; β-dihydroartemisinin methyl ether

$$$$
