
     RDKit          3D

 20 22  0  0  0  0  0  0  0  0999 V2000
   -0.1779    0.3848    1.1445 C   0  0  1  0  0  0  0  0  0  0  0  0
    1.1163   -1.4923    0.0093 C   0  0  2  0  0  0  0  0  0  0  0  0
    0.4020   -1.0702   -1.2714 C   0  0  0  0  0  0  0  0  0  0  0  0
   -0.1918    0.3434   -1.1668 C   0  0  1  0  0  0  0  0  0  0  0  0
   -1.0820    0.4736   -0.0081 N   0  0  0  0  0  0  0  0  0  0  0  0
    0.4326   -1.0184    1.2914 C   0  0  0  0  0  0  0  0  0  0  0  0
    0.8673    1.3930   -0.8058 C   0  0  0  0  0  0  0  0  0  0  0  0
    0.8725    1.4259    0.7320 C   0  0  0  0  0  0  0  0  0  0  0  0
   -2.2319   -0.4105    0.0023 C   0  0  0  0  0  0  0  0  0  0  0  0
    2.4361   -0.9140   -0.0274 O   0  0  0  0  0  0  0  0  0  0  0  0
    3.6033   -1.5683    0.0466 C   0  0  0  0  0  0  0  0  0  0  0  0
    3.6048   -3.1011   -0.0089 C   0  0  1  0  0  0  0  0  0  0  0  0
    4.6496   -0.9161    0.1551 O   0  0  0  0  0  0  0  0  0  0  0  0
    4.2530   -3.6276   -1.2695 C   0  0  0  0  0  0  0  0  0  0  0  0
    4.2871   -3.6294    1.1289 O   0  0  0  0  0  0  0  0  0  0  0  0
    5.4950   -3.1281   -1.6869 C   0  0  0  0  0  0  0  0  0  0  0  0
    6.1287   -3.6383   -2.8108 C   0  0  0  0  0  0  0  0  0  0  0  0
    5.5483   -4.6882   -3.5119 C   0  0  0  0  0  0  0  0  0  0  0  0
    4.3255   -5.2160   -3.0983 C   0  0  0  0  0  0  0  0  0  0  0  0
    3.6551   -4.6604   -2.0080 C   0  0  0  0  0  0  0  0  0  0  0  0
  1  6  1  6
  1  8  1  0
  2  3  1  0
  2 10  1  6
  4  3  1  1
  4  5  1  0
  4  7  1  0
  5  1  1  0
  5  9  1  0
  6  2  1  0
  7  8  1  0
 10 11  1  0
 11 12  1  0
 11 13  2  0
 12 14  1  0
 12 15  1  1
 14 16  2  0
 14 20  1  0
 16 17  1  0
 17 18  2  0
 18 19  1  0
 19 20  2  0
M  END
>  <DRUGBANK_ID>  (1) 
DB11181

>  <COMMON_NAME>  (1) 
Homatropine

>  <CAS_NUMBER>  (1) 
87-00-3

>  <UNII>  (1) 
8QS6WCL55Z

>  <SYNONYMS>  (1) 
Homatropina; Omatropina

$$$$
