
     RDKit          3D

  7  4  0  0  0  0  0  0  0  0999 V2000
    1.1003    0.2389   -2.2307 K   0  0  0  0  0 15  0  0  0  0  0  0
    0.9083    1.2442    1.7572 K   0  0  0  0  0 15  0  0  0  0  0  0
    1.2320   -0.6148    0.1285 O   0  0  0  0  0  0  0  0  0  0  0  0
    2.7070    1.1107   -0.1661 O   0  0  0  0  0  0  0  0  0  0  0  0
    3.2475   -0.6140    1.4082 O   0  0  0  0  0  0  0  0  0  0  0  0
    2.6846   -0.3370    0.1048 S   0  0  0  0  0  0  0  0  0  0  0  0
    3.2650   -1.0504   -1.0306 O   0  0  0  0  0  0  0  0  0  0  0  0
  6  3  1  0
  6  4  1  0
  6  5  2  0
  6  7  2  0
M  CHG  4   1   1   2   1   3  -1   4  -1
M  END
>  <DRUGBANK_ID>  (1) 
DB14499

>  <SECONDARY_ACCESSION_NUMBERS>  (1) 
DBSALT001465

>  <COMMON_NAME>  (1) 
Potassium sulfate

>  <CAS_NUMBER>  (1) 
7778-80-5

>  <UNII>  (1) 
1K573LC5TV

>  <SYNONYMS>  (1) 
Dipotassium sulfate; Potasio sulfato; Potassium (as sulfate); Potassium sulfate; Potassium sulphate; Sulfato potasio; Sulfuric acid, dipotassium salt

$$$$
