
     RDKit          3D

 11 12  0  0  0  0  0  0  0  0999 V2000
    1.1502    0.0612   -0.0405 F   0  0  0  0  0  0  0  0  0  0  0  0
    2.4920    0.0619   -0.0352 C   0  0  0  0  0  0  0  0  0  0  0  0
    3.0870   -1.1529   -0.0324 N   0  0  0  0  0  0  0  0  0  0  0  0
    4.4229   -1.0470   -0.0239 C   0  0  0  0  0  0  0  0  0  0  0  0
    5.1763    0.1149   -0.0186 C   0  0  0  0  0  0  0  0  0  0  0  0
    6.5212   -0.1868   -0.0088 N   0  0  0  0  0  0  0  0  0  0  0  0
    6.5787   -1.5021   -0.0080 C   0  0  0  0  0  0  0  0  0  0  0  0
    5.3318   -2.0660   -0.0177 N   0  0  0  0  0  0  0  0  0  0  0  0
    4.4270    1.2811   -0.0236 C   0  0  0  0  0  0  0  0  0  0  0  0
    5.2313    2.7730   -0.0169 Cl  0  0  0  0  0  0  0  0  0  0  0  0
    3.0839    1.2706   -0.0317 N   0  0  0  0  0  0  0  0  0  0  0  0
  1  2  1  0
  2  3  2  0
  2 11  1  0
  3  4  1  0
  4  5  2  0
  4  8  1  0
  5  6  1  0
  5  9  1  0
  6  7  2  0
  7  8  1  0
  9 10  1  0
  9 11  2  0
M  END
>  <DRUGBANK_ID>  (1) 
DB03520

>  <SECONDARY_ACCESSION_NUMBERS>  (1) 
EXPT00896

>  <COMMON_NAME>  (1) 
6-Chloro-2-fluoropurine

>  <CAS_NUMBER>  (1) 
1651-29-2

>  <UNII>  (1) 
726CLW3V39

$$$$
