
     RDKit          3D

 29 32  0  0  1  0  0  0  0  0999 V2000
   10.7518    0.8759   -1.6476 C   0  0  0  0  0  0  0  0  0  0  0  0
   11.4789    1.9169   -1.2189 C   0  0  0  0  0  0  0  0  0  0  0  0
   11.0730    3.3154   -1.4787 C   0  0  0  0  0  0  0  0  0  0  0  0
   11.7893    4.2714   -1.0826 O   0  0  0  0  0  0  0  0  0  0  0  0
    9.9368    3.5165   -2.1923 N   0  0  0  0  0  0  0  0  0  0  0  0
    9.2956    2.4396   -2.8171 C   0  0  0  0  0  0  0  0  0  0  0  0
    9.5943    1.1152   -2.4740 C   0  0  0  0  0  0  0  0  0  0  0  0
    8.9129    0.0192   -3.0246 C   0  0  0  0  0  0  0  0  0  0  0  0
    8.1376    0.2223   -4.1401 C   0  0  0  0  0  0  0  0  0  0  0  0
    8.0918    1.5328   -4.6654 C   0  0  0  0  0  0  0  0  0  0  0  0
    8.4675    2.6640   -3.8777 C   0  0  0  0  0  0  0  0  0  0  0  0
    7.3362   -0.8360   -4.5097 O   0  0  0  0  0  0  0  0  0  0  0  0
    6.1410   -0.5398   -5.2127 C   0  0  0  0  0  0  0  0  0  0  0  0
    5.2388    0.2595   -4.3612 C   0  0  0  0  0  0  0  0  0  0  0  0
    5.8611    1.5471   -3.6141 C   0  0  0  0  0  0  0  0  0  0  0  0
    5.6548    2.9578   -4.5502 N   0  0  0  0  0  0  0  0  0  0  0  0
    4.9455    4.1090   -4.8271 C   0  0  0  0  0  0  0  0  0  0  0  0
    5.2657    4.5605   -5.9376 O   0  0  0  0  0  0  0  0  0  0  0  0
    3.9453    4.6959   -4.0308 N   0  0  0  0  0  0  0  0  0  0  0  0
    3.3529    4.1350   -2.7877 C   0  0  2  0  0  0  0  0  0  0  0  0
    4.2080    3.0565   -2.3209 C   0  0  0  0  0  0  0  0  0  0  0  0
    3.6659    1.8448   -3.1946 C   0  0  0  0  0  0  0  0  0  0  0  0
    2.3944    1.2567   -3.6383 C   0  0  0  0  0  0  0  0  0  0  0  0
    1.7104    2.5041   -4.0600 C   0  0  0  0  0  0  0  0  0  0  0  0
    1.9163    3.5261   -2.9042 C   0  0  1  0  0  0  0  0  0  0  0  0
    1.6705    2.8323   -1.6500 O   0  0  0  0  0  0  0  0  0  0  0  0
    3.6316    6.1229   -4.1125 C   0  0  0  0  0  0  0  0  0  0  0  0
    2.6755    6.9300   -4.9333 C   0  0  0  0  0  0  0  0  0  0  0  0
    4.1384    6.9785   -5.2382 C   0  0  0  0  0  0  0  0  0  0  0  0
  1  2  2  0
  1  7  1  0
  2  3  1  0
  3  4  2  0
  3  5  1  0
  5  6  1  0
  6  7  2  0
  6 11  1  0
  7  8  1  0
  8  9  2  0
  9 10  1  0
  9 12  1  0
 10 11  2  0
 12 13  1  0
 13 14  1  0
 14 15  1  0
 15 16  1  0
 16 17  1  0
 17 18  2  0
 17 19  1  0
 19 27  1  0
 20 21  1  0
 20 25  1  0
 20 19  1  6
 21 22  1  0
 22 23  1  0
 23 24  1  0
 24 25  1  0
 25 26  1  1
 27 28  1  0
 27 29  1  0
 28 29  1  0
M  END
>  <DRUGBANK_ID>  (1) 
DB12685

>  <COMMON_NAME>  (1) 
K-134

>  <CAS_NUMBER>  (1) 
189362-06-9

>  <UNII>  (1) 
J9J6NK6W4U

$$$$
