
     RDKit          3D

 24 27  0  0  0  0  0  0  0  0999 V2000
    0.9463   -0.0173    0.0127 C   0  0  0  0  0  0  0  0  0  0  0  0
    0.4493   -1.0564   -0.8265 O   0  0  0  0  0  0  0  0  0  0  0  0
    0.8429   -1.0265   -2.1405 C   0  0  0  0  0  0  0  0  0  0  0  0
    2.1580   -0.7502   -2.5293 C   0  0  0  0  0  0  0  0  0  0  0  0
    2.5231   -0.7738   -3.8830 C   0  0  0  0  0  0  0  0  0  0  0  0
    1.5918   -1.1459   -4.8517 C   0  0  0  0  0  0  0  0  0  0  0  0
    1.9176   -1.1259   -6.2989 C   0  0  0  0  0  0  0  0  0  0  0  0
    3.0412   -0.8802   -6.6965 O   0  0  0  0  0  0  0  0  0  0  0  0
    0.7982   -1.3487   -7.2397 C   0  0  0  0  0  0  0  0  0  0  0  0
    0.9413   -1.2350   -8.6245 C   0  0  0  0  0  0  0  0  0  0  0  0
   -0.1742   -1.3829   -9.4608 C   0  0  0  0  0  0  0  0  0  0  0  0
   -1.4388   -1.5870   -8.9147 C   0  0  0  0  0  0  0  0  0  0  0  0
   -1.5667   -1.7472   -7.5379 C   0  0  0  0  0  0  0  0  0  0  0  0
   -0.4342   -1.6866   -6.7097 C   0  0  0  0  0  0  0  0  0  0  0  0
   -0.5828   -2.0379   -5.3859 O   0  0  0  0  0  0  0  0  0  0  0  0
    0.3122   -1.5259   -4.4642 C   0  0  0  0  0  0  0  0  0  0  0  0
   -0.1092   -1.4009   -3.1126 C   0  0  0  0  0  0  0  0  0  0  0  0
   -1.5816   -1.5526   -2.7261 C   0  0  0  0  0  0  0  0  0  0  0  0
   -2.5039   -0.4821   -3.2149 N   0  0  0  0  0  0  0  0  0  0  0  0
   -2.0851    0.8469   -2.7564 C   0  0  0  0  0  0  0  0  0  0  0  0
   -2.9989    1.9370   -3.3306 C   0  0  0  0  0  0  0  0  0  0  0  0
   -3.0560    1.9096   -4.8584 C   0  0  0  0  0  0  0  0  0  0  0  0
   -3.4757    0.5311   -5.3371 C   0  0  0  0  0  0  0  0  0  0  0  0
   -2.5812   -0.4849   -4.6707 C   0  0  0  0  0  0  0  0  0  0  0  0
  1  2  1  0
  2  3  1  0
  3  4  2  0
  3 17  1  0
  4  5  1  0
  5  6  2  0
  6  7  1  0
  6 16  1  0
  7  8  2  0
  7  9  1  0
  9 10  1  0
  9 14  2  0
 10 11  2  0
 11 12  1  0
 12 13  2  0
 13 14  1  0
 14 15  1  0
 15 16  1  0
 16 17  2  0
 17 18  1  0
 18 19  1  0
 19 20  1  0
 19 24  1  0
 20 21  1  0
 21 22  1  0
 22 23  1  0
 23 24  1  0
M  END
>  <DRUGBANK_ID>  (1) 
DB13579

>  <COMMON_NAME>  (1) 
Mepixanox

>  <CAS_NUMBER>  (1) 
17854-59-0

>  <UNII>  (1) 
7419T4YQQW

>  <SYNONYMS>  (1) 
Mepixanox

$$$$
