ATE
     RDKit          3D

 20 23  0  0  0  0  0  0  0  0999 V2000
   -7.9810    4.9267    2.9799 O   0  0  0  0  0  0  0  0  0  0  0  0
   -7.3195    5.4091    1.6962 C   0  0  2  0  0  0  0  0  0  0  0  0
   -5.3815    5.3207    0.7908 C   0  0  0  0  0  0  0  0  0  0  0  0
   -4.6103    6.5216    0.8529 C   0  0  0  0  0  0  0  0  0  0  0  0
   -7.8386    6.8040    1.7955 C   0  0  0  0  0  0  0  0  0  0  0  0
   -6.4212    6.9487    1.8488 C   0  0  1  0  0  0  0  0  0  0  0  0
   -5.7142    6.2076    3.2334 C   0  0  0  0  0  0  0  0  0  0  0  0
   -6.1101    5.9415    0.4340 C   0  0  1  0  0  0  0  0  0  0  0  0
   -6.8409    6.3665   -0.8478 C   0  0  0  0  0  0  0  0  0  0  0  0
   -6.4649    3.9117    0.7687 C   0  0  1  0  0  0  0  0  0  0  0  0
   -6.1709    3.0642   -0.4309 C   0  0  0  0  0  0  0  0  0  0  0  0
   -5.4878    3.7254    2.2252 C   0  0  1  0  0  0  0  0  0  0  0  0
   -5.7448    4.5768    3.5003 C   0  0  0  0  0  0  0  0  0  0  0  0
   -4.8776    2.4266    2.2606 C   0  0  2  0  0  0  0  0  0  0  0  0
   -3.0044    2.6716    1.8172 C   0  0  0  0  0  0  0  0  0  0  0  0
   -5.5980    1.3458    1.3647 C   0  0  2  0  0  0  0  0  0  0  0  0
   -6.5098    1.7095    0.0877 C   0  0  0  0  0  0  0  0  0  0  0  0
   -6.0495   -0.0411    1.7687 C   0  0  0  0  0  0  0  0  0  0  0  0
   -4.1765    1.0019    1.1120 C   0  0  0  0  0  0  0  0  0  0  0  0
   -3.3169    1.3299    2.1567 C   0  0  0  0  0  0  0  0  0  0  0  0
  2  1  1  1
  2  3  1  0
  2  5  1  0
  3  4  1  0
  4  8  1  0
  6  5  1  1
  6  7  1  0
  6  8  1  0
  7 13  1  0
  8  9  1  6
  8 10  1  0
 10 11  1  6
 10 12  1  0
 11 17  1  0
 12 13  1  1
 12 14  1  0
 14 15  1  6
 14 16  1  0
 15 20  1  0
 16 17  1  0
 16 18  1  1
 16 19  1  0
 19 20  2  0
M  END
>  <DRUGBANK_ID>  (1) 
DB01889

>  <SECONDARY_ACCESSION_NUMBERS>  (1) 
EXPT00580

>  <COMMON_NAME>  (1) 
16,17-Androstene-3-Ol

>  <CAS_NUMBER>  (1) 
7148-51-8

>  <UNII>  (1) 
48K9VAM062

$$$$
