
     RDKit          3D

 14 15  0  0  1  0  0  0  0  0999 V2000
    0.8696    0.1212   -0.1254 C   0  0  0  0  0  0  0  0  0  0  0  0
    0.2903   -1.2826   -0.0870 C   0  0  0  0  0  0  0  0  0  0  0  0
    0.7656   -2.0507    1.1304 C   0  0  0  0  0  0  0  0  0  0  0  0
    0.3613   -1.4932    2.4218 N   0  0  0  0  0  0  0  0  0  0  0  0
    1.0133   -2.1303    3.5954 C   0  0  2  0  0  0  0  0  0  0  0  0
    1.9352   -1.1159    4.3292 C   0  0  0  0  0  0  0  0  0  0  0  0
    3.0866   -0.6511    3.4261 C   0  0  0  0  0  0  0  0  0  0  0  0
    3.7431   -1.8210    2.7756 C   0  0  0  0  0  0  0  0  0  0  0  0
    3.1750   -3.0835    2.7258 C   0  0  0  0  0  0  0  0  0  0  0  0
    1.8317   -3.4423    3.3160 C   0  0  0  0  0  0  0  0  0  0  0  0
    4.1266   -4.0915    1.7295 S   0  0  0  0  0  0  0  0  0  0  0  0
    5.2145   -2.7778    1.4487 C   0  0  0  0  0  0  0  0  0  0  0  0
    6.2937   -2.8796    0.6694 N   0  0  0  0  0  0  0  0  0  0  0  0
    4.8967   -1.6527    2.0491 N   0  0  0  0  0  0  0  0  0  0  0  0
  1  2  1  0
  2  3  1  0
  3  4  1  0
  5  4  1  6
  5  6  1  0
  5 10  1  0
  6  7  1  0
  7  8  1  0
  8  9  2  0
  8 14  1  0
  9 10  1  0
  9 11  1  0
 11 12  1  0
 12 13  1  0
 12 14  2  0
M  END
>  <DRUGBANK_ID>  (1) 
DB15130

>  <COMMON_NAME>  (1) 
Dexpramipexole

>  <CAS_NUMBER>  (1) 
104632-28-2

>  <UNII>  (1) 
WI638GUS96

>  <SYNONYMS>  (1) 
Dexpramipexole

$$$$
