
     RDKit          3D

 25 27  0  0  0  0  0  0  0  0999 V2000
    0.0775    0.7220   -0.5724 C   0  0  2  0  0  0  0  0  0  0  0  0
   -0.5879   -0.5460   -0.3152 N   0  0  0  0  0  0  0  0  0  0  0  0
    0.0454   -1.7399   -0.0937 C   0  0  0  0  0  0  0  0  0  0  0  0
    1.3945   -1.7741    0.0453 C   0  0  0  0  0  0  0  0  0  0  0  0
    2.2610   -0.5255    0.0415 C   0  0  0  0  0  0  0  0  0  0  0  0
    1.3934    0.9662    0.6239 S   0  0  0  0  0  0  0  0  0  0  0  0
   -1.3078    1.3623   -0.2824 C   0  0  1  0  0  0  0  0  0  0  0  0
   -1.7016    0.0009    0.2555 C   0  0  0  0  0  0  0  0  0  0  0  0
   -1.4287    2.6575    0.3966 N   0  0  0  0  0  0  0  0  0  0  0  0
   -2.0698    3.7726   -0.1240 C   0  0  0  0  0  0  0  0  0  0  0  0
   -2.0912    4.8046    0.5555 O   0  0  0  0  0  0  0  0  0  0  0  0
   -2.6600   -0.4368    0.8299 O   0  0  0  0  0  0  0  0  0  0  0  0
   -2.7231    3.7355   -1.5707 C   0  0  1  0  0  0  0  0  0  0  0  0
    2.0218   -2.9921    0.2331 O   0  0  0  0  0  0  0  0  0  0  0  0
   -0.8180   -2.9810   -0.0461 C   0  0  0  0  0  0  0  0  0  0  0  0
   -2.0078   -3.0300   -0.3134 O   0  0  0  0  0  0  0  0  0  0  0  0
   -0.1643   -4.1160    0.2658 O   0  0  0  0  0  0  0  0  0  0  0  0
   -1.7112    3.5388   -2.7004 C   0  0  0  0  0  0  0  0  0  0  0  0
   -1.4681    2.1620   -3.2771 C   0  0  0  0  0  0  0  0  0  0  0  0
   -0.4096    2.0301   -4.3069 C   0  0  0  0  0  0  0  0  0  0  0  0
    0.2897    3.0799   -4.7411 C   0  0  0  0  0  0  0  0  0  0  0  0
    0.0229    4.4789   -4.2694 C   0  0  0  0  0  0  0  0  0  0  0  0
   -1.0301    4.5900   -3.1996 C   0  0  0  0  0  0  0  0  0  0  0  0
   -3.8915    2.8422   -1.6306 N   0  0  0  0  0  0  0  0  0  0  0  0
    3.4174   -3.0538    0.4528 C   0  0  0  0  0  0  0  0  0  0  0  0
  1  2  1  0
  1  6  1  1
  1  7  1  0
  2  3  1  0
  2  8  1  0
  3  4  2  0
  3 15  1  0
  4  5  1  0
  4 14  1  0
  5  6  1  0
  7  8  1  0
  7  9  1  1
  8 12  2  0
  9 10  1  0
 10 11  2  0
 10 13  1  0
 13 18  1  0
 13 24  1  1
 14 25  1  0
 15 16  2  0
 15 17  1  0
 18 19  1  0
 18 23  2  0
 19 20  1  0
 20 21  2  0
 21 22  1  0
 22 23  1  0
M  END
>  <DRUGBANK_ID>  (1) 
DB11367

>  <COMMON_NAME>  (1) 
Cefroxadine

>  <CAS_NUMBER>  (1) 
51762-05-1

>  <UNII>  (1) 
B908C4MV2R

>  <SYNONYMS>  (1) 
Cefroxadine; cefroxadino

$$$$
