
     RDKit          3D

 15 16  0  0  0  0  0  0  0  0999 V2000
    1.1004    0.0080    0.0727 C   0  0  0  0  0  0  0  0  0  0  0  0
    0.5468    1.1242   -0.7895 C   0  0  0  0  0  0  0  0  0  0  0  0
    0.9239    0.9515   -2.1970 N   0  0  0  0  0  0  0  0  0  0  0  0
    0.4750    2.0791   -3.0732 C   0  0  0  0  0  0  0  0  0  0  0  0
   -0.9933    2.4923   -2.7947 C   0  0  0  0  0  0  0  0  0  0  0  0
   -1.3827    3.8005   -3.4850 C   0  0  0  0  0  0  0  0  0  0  0  0
   -0.4863    4.9304   -3.0096 C   0  0  0  0  0  0  0  0  0  0  0  0
    0.9840    4.6521   -3.2840 C   0  0  0  0  0  0  0  0  0  0  0  0
    1.4162    3.2942   -2.7770 C   0  0  0  0  0  0  0  0  0  0  0  0
    2.5155    3.1628   -2.2335 O   0  0  0  0  0  0  0  0  0  0  0  0
    0.6812    1.6688   -4.5518 C   0  0  0  0  0  0  0  0  0  0  0  0
    1.8600    1.3474   -5.2088 C   0  0  0  0  0  0  0  0  0  0  0  0
    1.6799    1.1416   -6.6121 C   0  0  0  0  0  0  0  0  0  0  0  0
    0.3719    1.3005   -6.9991 C   0  0  0  0  0  0  0  0  0  0  0  0
   -0.6448    1.4782   -5.6565 S   0  0  0  0  0  0  0  0  0  0  0  0
  1  2  1  0
  2  3  1  0
  3  4  1  0
  4  5  1  0
  4  9  1  0
  4 11  1  0
  5  6  1  0
  6  7  1  0
  7  8  1  0
  8  9  1  0
  9 10  2  0
 11 12  2  0
 11 15  1  0
 12 13  1  0
 13 14  2  0
 14 15  1  0
M  END
>  <DRUGBANK_ID>  (1) 
DB11549

>  <COMMON_NAME>  (1) 
Tiletamine

>  <CAS_NUMBER>  (1) 
14176-49-9

>  <UNII>  (1) 
2YFC543249

>  <SYNONYMS>  (1) 
Tiletamine

$$$$
