
     RDKit          3D

 13 13  0  0  0  0  0  0  0  0999 V2000
   -0.1880   -1.3540   -0.0020 Se  0  0  0  0  0  2  0  0  0  0  0  0
   -0.3220    1.3110    0.0000 N   0  0  0  0  0  0  0  0  0  0  0  0
   -2.8699   -0.1018    0.0013 N   0  0  0  0  0  0  0  0  0  0  0  0
    2.1633    1.5870   -0.0097 C   0  0  0  0  0  0  0  0  0  0  0  0
    2.1735    2.4596   -1.2542 C   0  0  0  0  0  0  0  0  0  0  0  0
    0.9080    0.7300   -0.0020 C   0  0  0  0  0  0  0  0  0  0  0  0
    1.0020   -0.6390    0.0030 C   0  0  0  0  0  0  0  0  0  0  0  0
    2.3498   -1.3417    0.0135 C   0  0  0  0  0  0  0  0  0  0  0  0
    0.9470    3.3575   -1.2534 C   0  0  0  0  0  0  0  0  0  0  0  0
    3.1379   -0.9446   -1.2240 C   0  0  0  0  0  0  0  0  0  0  0  0
    0.9657    4.2398   -0.0159 C   0  0  0  0  0  0  0  0  0  0  0  0
   -1.4010   -0.0460    0.0000 C   0  0  0  0  0  0  0  0  0  0  0  0
    3.3512    0.5604   -1.2275 C   0  0  0  0  0  0  0  0  0  0  0  0
  1  7  1  0
  1 12  1  0
  2  6  1  0
  2 12  2  0
  3 12  1  0
  4  5  1  0
  4  6  1  0
  5  9  1  0
  6  7  2  0
  7  8  1  0
  8 10  1  0
  9 11  1  0
 10 13  1  0
M  END
>  <DRUGBANK_ID>  (1) 
DB01740

>  <SECONDARY_ACCESSION_NUMBERS>  (1) 
EXPT02885

>  <COMMON_NAME>  (1) 
4-butyl-5-propyl-1,3-selenazol-2-amine

>  <SYNONYMS>  (1) 
2-amino-4-butyl-5-propylselenazole

$$$$
