
     RDKit          3D

 14 15  0  0  0  0  0  0  0  0999 V2000
    0.9957    0.0808   -0.1243 C   0  0  0  0  0  0  0  0  0  0  0  0
    2.4547    3.7829   -1.6205 C   0  0  0  0  0  0  0  0  0  0  0  0
    0.1533    4.1846   -2.2190 C   0  0  0  0  0  0  0  0  0  0  0  0
    2.1541    2.4491   -1.3283 C   0  0  0  0  0  0  0  0  0  0  0  0
   -0.1395    2.8410   -1.9528 C   0  0  0  0  0  0  0  0  0  0  0  0
    2.7058    6.0663   -3.6685 C   0  0  0  0  0  0  0  0  0  0  0  0
    1.4685    4.6553   -2.1074 C   0  0  0  0  0  0  0  0  0  0  0  0
    0.8559    1.9749   -1.4997 C   0  0  0  0  0  0  0  0  0  0  0  0
    1.8646    5.9710   -2.6251 C   0  0  0  0  0  0  0  0  0  0  0  0
    3.0693    7.4274   -4.1045 C   0  0  0  0  0  0  0  0  0  0  0  0
    0.4957    0.6668   -1.3243 O   0  0  0  0  0  0  0  0  0  0  0  0
    4.1111    7.7729   -5.3652 S   0  0  0  0  0  0  0  0  0  0  0  0
    1.2328    7.4004   -1.9072 S   0  0  0  0  0  0  0  0  0  0  0  0
    2.2973    8.6619   -3.1213 S   0  0  0  0  0  0  0  0  0  0  0  0
  4  2  2  0
  5  3  1  0
  7  2  1  0
  7  3  2  0
  8  4  1  0
  8  5  2  0
  9  6  2  0
  9  7  1  0
 10  6  1  0
 11  1  1  0
 11  8  1  0
 12 10  2  0
 13  9  1  0
 14 10  1  0
 14 13  1  0
M  END
>  <DRUGBANK_ID>  (1) 
DB13853

>  <COMMON_NAME>  (1) 
Anethole trithione

>  <CAS_NUMBER>  (1) 
532-11-6

>  <UNII>  (1) 
QUY32964DJ

>  <SYNONYMS>  (1) 
Anetholtrithion

$$$$
