
     RDKit          3D

 24 27  0  0  0  0  0  0  0  0999 V2000
    2.6087    0.8955    2.0943 O   0  0  0  0  0  0  0  0  0  0  0  0
    4.3055    0.9069    2.2651 P   0  0  2  0  0  0  0  0  0  0  0  0
    4.1315   -0.1946    0.9424 O   0  0  0  0  0  0  0  0  0  0  0  0
    4.2442    0.6384   -0.2373 C   0  0  1  0  0  0  0  0  0  0  0  0
    3.0693    1.6021   -0.0861 C   0  0  1  0  0  0  0  0  0  0  0  0
    2.0122    0.7226    0.7117 C   0  0  0  0  0  0  0  0  0  0  0  0
    3.3623    2.7605    0.7602 O   0  0  0  0  0  0  0  0  0  0  0  0
    4.6431    3.4369    0.7341 C   0  0  2  0  0  0  0  0  0  0  0  0
    5.9163    2.5282    0.5813 C   0  0  2  0  0  0  0  0  0  0  0  0
    5.5790    1.3918   -0.4343 C   0  0  0  0  0  0  0  0  0  0  0  0
    6.6294    0.4444   -0.5164 O   0  0  0  0  0  0  0  0  0  0  0  0
    5.5009    2.0272   -1.7198 O   0  0  0  0  0  0  0  0  0  0  0  0
    6.6155    2.1311    1.8833 N   0  0  0  0  0  0  0  0  0  0  0  0
    6.4158    2.9177    3.0998 C   0  0  0  0  0  0  0  0  0  0  0  0
    5.5332    3.9764    3.1209 C   0  0  0  0  0  0  0  0  0  0  0  0
    4.8257    4.3136    1.9240 N   0  0  0  0  0  0  0  0  0  0  0  0
    5.1418    4.4930    4.3651 N   0  0  0  0  0  0  0  0  0  0  0  0
    5.3687    3.8160    5.5444 C   0  0  0  0  0  0  0  0  0  0  0  0
    6.0642    2.7454    5.6789 N   0  0  0  0  0  0  0  0  0  0  0  0
    6.5174    2.1157    4.5187 C   0  0  0  0  0  0  0  0  0  0  0  0
    6.8240    0.9323    4.4915 O   0  0  0  0  0  0  0  0  0  0  0  0
    4.7986    4.3818    6.6526 N   0  0  0  0  0  0  0  0  0  0  0  0
    4.3942   -0.4564    3.1675 O   0  0  0  0  0  0  0  0  0  0  0  0
    4.4611    1.8927    3.4488 O   0  0  0  0  0  0  0  0  0  0  0  0
  1  2  1  0
  1  6  1  0
  2  3  1  0
  2 23  1  1
  2 24  2  0
  4  3  1  1
  4  5  1  0
  4 10  1  0
  5  6  1  1
  5  7  1  0
  8  7  1  0
  8 16  1  1
  9  8  1  0
  9 13  1  1
 10  9  1  0
 10 11  1  0
 10 12  1  0
 13 14  1  0
 14 15  2  0
 14 20  1  0
 15 16  1  0
 15 17  1  0
 18 17  1  0
 18 22  1  0
 19 18  2  0
 20 19  1  0
 20 21  2  0
M  END
>  <DRUGBANK_ID>  (1) 
DB16628

>  <COMMON_NAME>  (1) 
Fosdenopterin

>  <CAS_NUMBER>  (1) 
150829-29-1

>  <UNII>  (1) 
4X7K2681Y7

>  <SYNONYMS>  (1) 
C(PMP); CPMP; Cyclic pyranopterin monophosphate; Fosdenopterin

$$$$
