
     RDKit          3D

 22 25  0  0  0  0  0  0  0  0999 V2000
    5.5900   -1.2077   -3.8264 C   0  0  0  0  0  0  0  0  0  0  0  0
    3.4113   -4.0111   -6.4181 C   0  0  2  0  0  0  0  0  0  0  0  0
    4.5849   -4.6747   -5.6680 C   0  0  2  0  0  0  0  0  0  0  0  0
    5.3150   -2.1345   -4.9985 C   0  0  1  0  0  0  0  0  0  0  0  0
    5.8896   -1.6949   -2.5797 C   0  0  0  0  0  0  0  0  0  0  0  0
    5.0135   -3.6144   -4.5469 C   0  0  2  0  0  0  0  0  0  0  0  0
    3.2002   -4.8209   -7.7271 C   0  0  2  0  0  0  0  0  0  0  0  0
    2.5550   -6.0935   -8.1066 C   0  0  0  0  0  0  0  0  0  0  0  0
    3.9635   -2.5509   -6.9442 C   0  0  0  0  0  0  0  0  0  0  0  0
    4.1175   -1.5987   -5.7972 C   0  0  0  0  0  0  0  0  0  0  0  0
    5.3221    0.3142   -4.0811 C   0  0  0  0  0  0  0  0  0  0  0  0
    6.0377   -4.0498   -3.5082 C   0  0  0  0  0  0  0  0  0  0  0  0
    5.4673   -5.2464   -6.8888 C   0  0  0  0  0  0  0  0  0  0  0  0
    1.7441   -6.7135   -8.8046 C   0  0  0  0  0  0  0  0  0  0  0  0
    6.1885   -0.7792   -1.4099 C   0  0  0  0  0  0  0  0  0  0  0  0
    5.9148   -3.1722   -2.2353 C   0  0  0  0  0  0  0  0  0  0  0  0
    4.6858   -4.8534   -8.2160 C   0  0  0  0  0  0  0  0  0  0  0  0
    5.5625    0.5356   -1.7939 C   0  0  0  0  0  0  0  0  0  0  0  0
    4.4886    0.9239   -1.3260 O   0  0  0  0  0  0  0  0  0  0  0  0
    6.1042    1.1169   -3.0608 C   0  0  0  0  0  0  0  0  0  0  0  0
    2.1437   -4.0063   -8.1980 O   0  0  0  0  0  0  0  0  0  0  0  0
    2.1276   -3.6470   -5.5370 C   0  0  0  0  0  0  0  0  0  0  0  0
  2  9  1  0
  2 22  1  1
  3  6  1  0
  3  2  1  0
  4  1  1  0
  5  1  2  0
  6  4  1  0
  6 12  1  6
  7  2  1  0
  7  8  1  0
  7 21  1  6
  9 10  1  0
  4 10  1  1
 11  1  1  0
 12 16  1  0
  3 13  1  6
 14  8  3  0
 15  5  1  0
 16  5  1  0
 17 13  1  0
 17  7  1  0
 18 20  1  0
 18 15  1  0
 19 18  2  0
 20 11  1  0
M  END
>  <DRUGBANK_ID>  (1) 
DB09371

>  <COMMON_NAME>  (1) 
Norethynodrel

>  <CAS_NUMBER>  (1) 
68-23-5

>  <UNII>  (1) 
88181ACA0M

>  <SYNONYMS>  (1) 
Norethynodrel; Noretynodrel; Noretynodrelum

$$$$
