
     RDKit          3D

 18 20  0  0  1  0  0  0  0  0999 V2000
    2.8097    3.2988   -0.0222 C   0  0  0  0  0  0  0  0  0  0  0  0
    1.3082    3.2342    0.1328 C   0  0  0  0  0  0  0  0  0  0  0  0
    0.4094    4.1118   -0.3603 C   0  0  0  0  0  0  0  0  0  0  0  0
   -0.9762    4.0938   -0.0766 N   0  0  0  0  0  0  0  0  0  0  0  0
   -1.4999    3.0214    0.6683 C   0  0  0  0  0  0  0  0  0  0  0  0
   -2.6665    2.9051    1.0073 O   0  0  0  0  0  0  0  0  0  0  0  0
   -0.5769    2.0421    1.0232 N   0  0  0  0  0  0  0  0  0  0  0  0
    0.7915    2.1061    0.9455 C   0  0  0  0  0  0  0  0  0  0  0  0
    1.5182    1.3002    1.4873 O   0  0  0  0  0  0  0  0  0  0  0  0
   -1.8370    5.1682   -0.7321 C   0  0  1  0  0  0  0  0  0  0  0  0
   -1.8644    5.0080   -2.2789 C   0  0  0  0  0  0  0  0  0  0  0  0
   -3.3841    5.1841   -2.6377 C   0  0  2  0  0  0  0  0  0  0  0  0
   -3.6987    5.2782   -4.0052 O   0  0  0  0  0  0  0  0  0  0  0  0
   -3.5730    6.5065   -1.8848 C   0  0  1  0  0  0  0  0  0  0  0  0
   -4.4481    7.7195   -2.2535 C   0  0  0  0  0  0  0  0  0  0  0  0
   -5.7742    7.7765   -1.7874 O   0  0  0  0  0  0  0  0  0  0  0  0
   -3.1402    6.0436   -0.4752 C   0  0  2  0  0  0  0  0  0  0  0  0
   -1.8735    6.4622    0.1329 C   0  0  0  0  0  0  0  0  0  0  0  0
  1  2  1  0
  2  3  2  0
  2  8  1  0
  3  4  1  0
  4  5  1  0
  5  6  2  0
  5  7  1  0
  7  8  1  0
  8  9  2  0
 10 11  1  0
 10 17  1  0
 10 18  1  0
 10  4  1  1
 11 12  1  0
 12 14  1  0
 12 13  1  6
 14 17  1  0
 14 15  1  1
 15 16  1  0
 17 18  1  1
M  END
>  <DRUGBANK_ID>  (1) 
DB02921

>  <SECONDARY_ACCESSION_NUMBERS>  (1) 
EXPT02872

>  <COMMON_NAME>  (1) 
(South)-Methanocarba-Thymidine

>  <SYNONYMS>  (1) 
(South)-methanocarbathymidine

$$$$
