
     RDKit          3D

  6  4  0  0  0  0  0  0  0  0999 V2000
    0.9806   -0.0019    0.0981 O   0  0  0  0  0  0  0  0  0  0  0  0
    3.0306   -0.0019    0.0981 Mn  0  0  0  0  0  7  0  0  0  0  0  0
    3.6421   -0.6618   -1.5010 O   0  0  0  0  0  0  0  0  0  0  0  0
    3.6421    1.7128    0.3262 O   0  0  0  0  0  0  0  0  0  0  0  0
    3.6421   -1.0568    1.4690 O   0  0  0  0  0  0  0  0  0  0  0  0
    0.9878   -0.0960   -0.0251 K   0  0  0  0  0 15  0  0  0  0  0  0
  1  2  1  0
  2  3  2  0
  2  4  2  0
  2  5  2  0
M  CHG  2   1  -1   6   1
M  END
>  <DRUGBANK_ID>  (1) 
DB13831

>  <COMMON_NAME>  (1) 
Potassium permanganate

>  <CAS_NUMBER>  (1) 
7722-64-7

>  <UNII>  (1) 
00OT1QX5U4

>  <SYNONYMS>  (1) 
Potassium permanganate

$$$$
