
     RDKit          3D

 22 24  0  0  0  0  0  0  0  0999 V2000
    1.0039    0.1245   -0.0042 C   0  0  0  0  0  0  0  0  0  0  0  0
    0.4797    0.3953   -1.3002 O   0  0  0  0  0  0  0  0  0  0  0  0
    0.1280   -0.6646   -2.0924 C   0  0  0  0  0  0  0  0  0  0  0  0
    0.1348   -2.0114   -1.7108 C   0  0  0  0  0  0  0  0  0  0  0  0
   -0.2093   -3.0240   -2.6127 C   0  0  0  0  0  0  0  0  0  0  0  0
   -0.6342   -2.6560   -3.9068 C   0  0  0  0  0  0  0  0  0  0  0  0
   -0.6529   -1.3112   -4.2991 C   0  0  0  0  0  0  0  0  0  0  0  0
   -0.2620   -0.3320   -3.3958 C   0  0  0  0  0  0  0  0  0  0  0  0
   -0.2613    0.9675   -3.8290 O   0  0  0  0  0  0  0  0  0  0  0  0
   -0.0184   -4.4421   -2.2259 C   0  0  0  0  0  0  0  0  0  0  0  0
    0.8977   -5.1772   -2.8662 C   0  0  0  0  0  0  0  0  0  0  0  0
    1.0139   -6.6126   -2.5983 C   0  0  0  0  0  0  0  0  0  0  0  0
    1.5953   -7.3804   -3.3680 O   0  0  0  0  0  0  0  0  0  0  0  0
    0.4167   -7.0753   -1.3509 C   0  0  0  0  0  0  0  0  0  0  0  0
    0.4516   -8.4149   -0.9500 C   0  0  0  0  0  0  0  0  0  0  0  0
    0.9879   -9.4235   -1.7042 O   0  0  0  0  0  0  0  0  0  0  0  0
   -0.1142   -8.7760    0.2682 C   0  0  0  0  0  0  0  0  0  0  0  0
   -0.6436   -7.7904    1.0997 C   0  0  0  0  0  0  0  0  0  0  0  0
   -1.1961   -8.1831    2.2823 O   0  0  0  0  0  0  0  0  0  0  0  0
   -0.6546   -6.4517    0.7212 C   0  0  0  0  0  0  0  0  0  0  0  0
   -0.1882   -6.1074   -0.5409 C   0  0  0  0  0  0  0  0  0  0  0  0
   -0.4531   -4.8170   -0.9589 O   0  0  0  0  0  0  0  0  0  0  0  0
  1  2  1  0
  2  3  1  0
  3  4  2  0
  3  8  1  0
  4  5  1  0
  5  6  2  0
  5 10  1  0
  6  7  1  0
  7  8  2  0
  8  9  1  0
 10 11  2  0
 10 22  1  0
 11 12  1  0
 12 13  2  0
 12 14  1  0
 14 15  2  0
 14 21  1  0
 15 16  1  0
 15 17  1  0
 17 18  2  0
 18 19  1  0
 18 20  1  0
 20 21  2  0
 21 22  1  0
M  END
>  <DRUGBANK_ID>  (1) 
DB17283

>  <COMMON_NAME>  (1) 
Chrysoeriol

>  <CAS_NUMBER>  (1) 
491-71-4

>  <UNII>  (1) 
Q813145M20

>  <SYNONYMS>  (1) 
3'-methoxy-4',5,7-trihydroxyflavone; 3'-methoxyapigenin; 3'-o-methylluteolin; 4h-1-benzopyran-4-one, 5,7-dihydroxy-2-(4-hydroxy-3-methoxyphenyl)-; 5,7,4'-trihydroxy-3'-methoxyflavone; Chryseriol; Chrysoriol; Cresorol; Luteolin 3'-methyl ether

$$$$
