Uridine diphosphate acetylgalactosamine-4-sulfate.mol
     RDKit          3D

 25 26  0  0  0  0  0  0  0  0999 V2000
    0.9575   -0.2720    0.2660 C   0  0  0  0  0  0  0  0  0  0  0  0
    0.3160   -1.4225   -0.4964 C   0  0  2  0  0  0  0  0  0  0  0  0
    0.6153   -2.7191    0.2120 C   0  0  1  0  0  0  0  0  0  0  0  0
   -0.6299   -3.3563    0.4820 O   0  0  0  0  0  0  0  0  0  0  0  0
    1.5309   -3.4803   -0.7010 C   0  0  1  0  0  0  0  0  0  0  0  0
    1.4240   -4.8749   -0.4811 O   0  0  0  0  0  0  0  0  0  0  0  0
    1.0852   -2.9654   -2.0708 C   0  0  1  0  0  0  0  0  0  0  0  0
    0.6722   -1.5867   -1.8636 O   0  0  0  0  0  0  0  0  0  0  0  0
    2.1444   -3.0088   -3.0711 N   0  0  0  0  0  0  0  0  0  0  0  0
    2.6956   -4.2476   -3.3814 C   0  0  0  0  0  0  0  0  0  0  0  0
    2.3225   -5.3231   -2.9319 O   0  0  0  0  0  0  0  0  0  0  0  0
    3.7352   -4.2203   -4.2721 N   0  0  0  0  0  0  0  0  0  0  0  0
    4.3761   -3.1021   -4.6941 C   0  0  0  0  0  0  0  0  0  0  0  0
    5.4481   -3.1295   -5.3099 O   0  0  0  0  0  0  0  0  0  0  0  0
    3.7150   -1.8294   -4.4004 C   0  0  0  0  0  0  0  0  0  0  0  0
    2.6131   -1.8465   -3.6494 C   0  0  0  0  0  0  0  0  0  0  0  0
    1.4775   -0.7651    2.9016 P   0  0  2  0  0  0  0  0  0  0  0  0
    2.7431    0.0177    2.7884 O   0  0  0  0  0  0  0  0  0  0  0  0
    0.5133   -0.4812    1.6232 O   0  0  0  0  0  0  0  0  0  0  0  0
   -0.8360   -2.3117    3.4854 O   0  0  0  0  0  0  0  0  0  0  0  0
    0.4216   -0.1100    3.9407 O   0  0  0  0  0  0  0  0  0  0  0  0
    1.6090   -2.3179    3.4445 O   0  0  0  0  0  0  0  0  0  0  0  0
    0.3165   -3.4159    3.7866 P   0  0  0  0  0  0  0  0  0  0  0  0
    0.6678   -4.2606    2.5817 O   0  0  0  0  0  0  0  0  0  0  0  0
   -0.9760   -4.5138    4.1286 O   0  0  0  0  0  0  0  0  0  0  0  0
  1 19  1  0
  2  1  1  1
  2  3  1  0
  2  8  1  0
  3  4  1  6
  3  5  1  0
  5  6  1  6
  5  7  1  0
  7  8  1  0
  7  9  1  6
  9 10  1  0
  9 16  1  0
 10 11  2  0
 10 12  1  0
 12 13  1  0
 13 14  2  0
 13 15  1  0
 15 16  2  0
 17 18  2  0
 17 19  1  0
 17 21  1  1
 17 22  1  0
 20 23  1  0
 22 23  1  0
 23 24  2  0
 23 25  1  0
M  END
>  <DRUGBANK_ID>  (1) 
DB03435

>  <SECONDARY_ACCESSION_NUMBERS>  (1) 
EXPT03172

>  <COMMON_NAME>  (1) 
Uridine-5'-Diphosphate

>  <CAS_NUMBER>  (1) 
58-98-0

>  <UNII>  (1) 
5G0F599A1Y

$$$$
