
     RDKit          3D

 27 30  0  0  0  0  0  0  0  0999 V2000
    0.2588   -0.2035    0.1087 C   0  0  1  0  0  0  0  0  0  0  0  0
   -0.3210    0.4710   -1.1570 C   0  0  2  0  0  0  0  0  0  0  0  0
    1.7631    0.2195    0.3062 C   0  0  2  0  0  0  0  0  0  0  0  0
   -0.0603    1.8859   -1.2446 O   0  0  0  0  0  0  0  0  0  0  0  0
    1.2943    2.3475   -1.1171 C   0  0  2  0  0  0  0  0  0  0  0  0
   -0.5490    0.0676    1.2768 O   0  0  0  0  0  0  0  0  0  0  0  0
   -1.7367    0.2201   -1.3191 O   0  0  0  0  0  0  0  0  0  0  0  0
    0.1262   -1.7312    0.2308 C   0  0  1  0  0  0  0  0  0  0  0  0
   -2.4277    0.0816   -0.0718 C   0  0  2  0  0  0  0  0  0  0  0  0
    2.0871    1.6515   -0.0513 C   0  0  2  0  0  0  0  0  0  0  0  0
   -1.7631    0.7913    0.9481 O   0  0  0  0  0  0  0  0  0  0  0  0
    2.7751   -0.5694   -0.4832 C   0  0  0  0  0  0  0  0  0  0  0  0
   -1.3047   -2.2199   -0.1232 C   0  0  0  0  0  0  0  0  0  0  0  0
    1.3395    3.8164   -0.8156 O   0  0  0  0  0  0  0  0  0  0  0  0
    1.2219   -2.4795   -0.5391 C   0  0  1  0  0  0  0  0  0  0  0  0
    2.6250   -2.0131   -0.1726 C   0  0  0  0  0  0  0  0  0  0  0  0
   -2.4986   -1.3881    0.3831 C   0  0  0  0  0  0  0  0  0  0  0  0
   -3.8197    0.7030   -0.1967 C   0  0  0  0  0  0  0  0  0  0  0  0
    3.5627    2.0603    0.0607 C   0  0  0  0  0  0  0  0  0  0  0  0
    1.1750   -3.9634   -0.2412 C   0  0  0  0  0  0  0  0  0  0  0  0
    1.8003    4.6036    0.1994 C   0  0  0  0  0  0  0  0  0  0  0  0
    2.0235    5.7939   -0.0547 O   0  0  0  0  0  0  0  0  0  0  0  0
    2.2048    4.1431    1.6150 C   0  0  0  0  0  0  0  0  0  0  0  0
    1.2337    3.5360    2.5899 C   0  0  0  0  0  0  0  0  0  0  0  0
    0.2031    2.6039    2.0923 C   0  0  0  0  0  0  0  0  0  0  0  0
    0.5040    1.4309    2.7437 O   0  0  0  0  0  0  0  0  0  0  0  0
   -0.5701    2.8439    1.2203 O   0  0  0  0  0  0  0  0  0  0  0  0
  1  6  1  1
  2  1  1  0
  2  4  1  1
  3  1  1  0
  5 10  1  0
  5  4  1  0
  5 14  1  1
  7  2  1  0
  8  1  1  0
  9 11  1  0
  9 18  1  6
  9 17  1  0
  9  7  1  0
 10  3  1  0
 10 19  1  6
 11  6  1  0
  3 12  1  6
  8 13  1  6
 14 21  1  0
 15  8  1  0
 15 20  1  1
 16 15  1  0
 16 12  1  0
 17 13  1  0
 21 22  2  0
 21 23  1  0
 23 24  1  0
 24 25  1  0
 25 26  1  0
 25 27  2  0
M  END
>  <DRUGBANK_ID>  (1) 
DB09274

>  <COMMON_NAME>  (1) 
Artesunate

>  <CAS_NUMBER>  (1) 
88495-63-0

>  <UNII>  (1) 
60W3249T9M

>  <SYNONYMS>  (1) 
Artesunate; Artesunato; Artesunatum; Artesunic acid; AS; butanedioic acid, 1-[(3R,5aS,6R,8aS,9R,10S,12R,12aR)-decahydro-3,6,9-trimethyl-3,12-epoxy-12H-pyrano[4,3-j]-1,2-benzodioxepin-10-yl] ester; dihydroqinghasu hemsuccinate; Succinyl dihydroartemisinin

$$$$
