
     RDKit          3D

 11 12  0  0  0  0  0  0  0  0999 V2000
    0.0030   -1.1167    0.3073 C   0  0  1  0  0  0  0  0  0  0  0  0
   -1.2566   -0.8091   -0.5671 C   0  0  0  0  0  0  0  0  0  0  0  0
   -2.5452   -1.3584    0.0429 C   0  0  0  0  0  0  0  0  0  0  0  0
   -1.1378   -1.3187   -2.0010 C   0  0  0  0  0  0  0  0  0  0  0  0
   -1.1923    0.7185   -0.4958 C   0  0  0  0  0  0  0  0  0  0  0  0
    0.0188    1.1289    0.3423 C   0  0  2  0  0  0  0  0  0  0  0  0
   -0.0061    2.5239    0.9144 C   0  0  0  0  0  0  0  0  0  0  0  0
    1.2644    0.7835   -0.4959 C   0  0  0  0  0  0  0  0  0  0  0  0
    1.2980   -0.7574   -0.4552 C   0  0  0  0  0  0  0  0  0  0  0  0
   -0.0154   -0.0044    1.3682 C   0  0  0  0  0  0  0  0  0  0  0  0
   -1.9726    1.4870   -1.0432 O   0  0  0  0  0  0  0  0  0  0  0  0
  1  2  1  0
  1  9  1  6
  1 10  1  0
  2  3  1  0
  2  4  1  0
  2  5  1  0
  5  6  1  0
  5 11  2  0
  6  7  1  1
  6  8  1  0
  6 10  1  0
  9  8  1  0
M  END
>  <DRUGBANK_ID>  (1) 
DB15918

>  <COMMON_NAME>  (1) 
Fenchone

>  <CAS_NUMBER>  (1) 
1195-79-5

>  <UNII>  (1) 
4Q6W8568TG

>  <SYNONYMS>  (1) 
(+/-)-Fenchone; DL-Fenchone; Fenchon

$$$$
