513
     RDKit          3D

  9  8  0  0  0  0  0  0  0  0999 V2000
    1.0447   -0.0451   -0.2562 O   0  0  0  0  0  0  0  0  0  0  0  0
    1.1374   -2.1511   -0.9884 O   0  0  0  0  0  0  0  0  0  0  0  0
   -3.7466    1.6579    2.0402 N   0  0  0  0  0  0  0  0  0  0  0  0
   -1.1550    0.3048    1.5309 C   0  0  0  0  0  0  0  0  0  0  0  0
   -1.5520   -1.0280    0.8834 C   0  0  0  0  0  0  0  0  0  0  0  0
   -1.6780    1.5122    0.7378 C   0  0  0  0  0  0  0  0  0  0  0  0
   -1.0441   -1.1687   -0.5529 C   0  0  0  0  0  0  0  0  0  0  0  0
   -3.2057    1.5517    0.6904 C   0  0  0  0  0  0  0  0  0  0  0  0
    0.4601   -1.1970   -0.6309 C   0  0  0  0  0  0  0  0  0  0  0  0
  1  9  1  0
  2  9  2  0
  3  8  1  0
  4  5  1  0
  4  6  1  0
  5  7  1  0
  6  8  1  0
  7  9  1  0
M  END
>  <DRUGBANK_ID>  (1) 
DB00513

>  <SECONDARY_ACCESSION_NUMBERS>  (1) 
APRD00791; EXPT00408; EXPT00461; DB04134

>  <COMMON_NAME>  (1) 
Aminocaproic acid

>  <CAS_NUMBER>  (1) 
60-32-2

>  <UNII>  (1) 
U6F3787206

>  <SYNONYMS>  (1) 
6-Aminocaproic acid; 6-aminohexanoic acid; Acide aminocaproïque; Ácido aminocapróico; acidum aminocaproicum; Aminocaproic acid; Aminocapronsäure; EACA; EACS; Epsilcapramine; Epsilon Aminocaproic Acid; Epsilon-Aminocaproic acid; epsilon-Aminohexanoic acid; omega-Aminocaproic acid; omega-Aminohexanoic acid

$$$$
