
     RDKit          3D

 31 35  0  0  0  0  0  0  0  0999 V2000
    1.2749   -0.0388    0.0258 C   0  0  0  0  0  0  0  0  0  0  0  0
    0.5026   -1.4728   -0.5939 C   0  0  2  0  0  0  0  0  0  0  0  0
    0.2702   -1.5027   -2.3888 C   0  0  1  0  0  0  0  0  0  0  0  0
   -1.0112   -2.0837   -2.8086 O   0  0  0  0  0  0  0  0  0  0  0  0
   -1.3119   -2.7330   -4.0214 C   0  0  0  0  0  0  0  0  0  0  0  0
    0.1119   -0.0125   -2.4433 C   0  0  1  0  0  0  0  0  0  0  0  0
    0.7946    0.8196   -3.3425 O   0  0  0  0  0  0  0  0  0  0  0  0
   -1.1535    0.3887   -1.6021 C   0  0  0  0  0  0  0  0  0  0  0  0
   -1.8960   -0.7694   -0.8518 C   0  0  2  0  0  0  0  0  0  0  0  0
   -2.8279   -0.1279    0.1355 C   0  0  0  0  0  0  0  0  0  0  0  0
   -3.0880   -0.8463    1.3302 N   0  0  0  0  0  0  0  0  0  0  0  0
   -4.1248   -0.2493    2.1494 C   0  0  0  0  0  0  0  0  0  0  0  0
   -5.2607   -1.2609    2.2966 C   0  0  0  0  0  0  0  0  0  0  0  0
   -4.6908   -2.5840    2.6715 C   0  0  0  0  0  0  0  0  0  0  0  0
   -5.3138   -3.7043    3.2450 C   0  0  0  0  0  0  0  0  0  0  0  0
   -6.6215   -3.9620    3.6742 C   0  0  0  0  0  0  0  0  0  0  0  0
   -6.9058   -5.2058    4.2380 C   0  0  0  0  0  0  0  0  0  0  0  0
   -5.9177   -6.1866    4.3606 C   0  0  0  0  0  0  0  0  0  0  0  0
   -6.3406   -7.3570    4.9359 O   0  0  0  0  0  0  0  0  0  0  0  0
   -5.3551   -8.3735    5.0727 C   0  0  0  0  0  0  0  0  0  0  0  0
   -4.6108   -5.9456    3.9186 C   0  0  0  0  0  0  0  0  0  0  0  0
   -4.3374   -4.6908    3.3712 C   0  0  0  0  0  0  0  0  0  0  0  0
   -3.1562   -4.1790    2.8792 N   0  0  0  0  0  0  0  0  0  0  0  0
   -3.3574   -2.8911    2.4697 C   0  0  0  0  0  0  0  0  0  0  0  0
   -2.3392   -1.9682    1.8615 C   0  0  1  0  0  0  0  0  0  0  0  0
   -1.5407   -2.7080    0.8135 C   0  0  0  0  0  0  0  0  0  0  0  0
   -0.9459   -1.8171   -0.2558 C   0  0  2  0  0  0  0  0  0  0  0  0
    0.8071    1.1071    0.1953 O   0  0  0  0  0  0  0  0  0  0  0  0
    2.6292   -0.1022   -0.0391 O   0  0  0  0  0  0  0  0  0  0  0  0
    3.1910   -1.0836    0.7963 C   0  0  0  0  0  0  0  0  0  0  0  0
    0.1290    2.0130   -3.6233 C   0  0  0  0  0  0  0  0  0  0  0  0
  1 28  2  0
  1 29  1  0
  2  1  1  1
  2  3  1  0
  2 27  1  0
  3  6  1  0
  3  4  1  1
  4  5  1  0
  6  7  1  6
  6  8  1  0
  7 31  1  0
  9  8  1  1
  9 10  1  0
 10 11  1  0
 11 12  1  0
 12 13  1  0
 14 13  1  0
 14 15  1  0
 15 16  2  0
 15 22  1  0
 16 17  1  0
 17 18  2  0
 18 19  1  0
 19 20  1  0
 21 18  1  0
 22 21  2  0
 23 22  1  0
 24 23  1  0
 24 14  2  0
 25 24  1  0
 25 11  1  0
 25 26  1  6
 27 26  1  1
 27  9  1  0
 29 30  1  0
M  END
>  <DRUGBANK_ID>  (1) 
DB11530

>  <COMMON_NAME>  (1) 
Metoserpate

>  <CAS_NUMBER>  (1) 
1178-28-5

>  <UNII>  (1) 
X3G4L02XQU

>  <SYNONYMS>  (1) 
Methyl O-methyl-18-epireserpate; Metoserpate; Metoserpato; Metoserpatum

$$$$
