
     RDKit          3D

 40 45  0  0  0  0  0  0  0  0999 V2000
    1.2143   -0.0442    0.1363 C   0  0  0  0  0  0  0  0  0  0  0  0
    0.5482   -0.9061    1.0839 N   0  0  0  0  0  0  0  0  0  0  0  0
   -0.2875   -0.5548    2.1147 C   0  0  0  0  0  0  0  0  0  0  0  0
   -0.6973   -1.4559    2.8686 O   0  0  0  0  0  0  0  0  0  0  0  0
   -0.6686    0.8383    2.2860 C   0  0  0  0  0  0  0  0  0  0  0  0
   -1.1564    1.6900    1.3108 C   0  0  0  0  0  0  0  0  0  0  0  0
   -1.3400    2.9585    1.7971 O   0  0  0  0  0  0  0  0  0  0  0  0
   -1.0275    2.9169    3.1304 C   0  0  0  0  0  0  0  0  0  0  0  0
   -0.6617    1.6285    3.4625 C   0  0  0  0  0  0  0  0  0  0  0  0
   -0.4226    1.3651    4.8032 C   0  0  0  0  0  0  0  0  0  0  0  0
   -0.3928    0.0804    5.1112 F   0  0  0  0  0  0  0  0  0  0  0  0
   -0.3957    2.3487    5.8046 C   0  0  0  0  0  0  0  0  0  0  0  0
   -0.7107    3.6473    5.4023 C   0  0  0  0  0  0  0  0  0  0  0  0
   -1.0831    3.9511    4.0728 C   0  0  0  0  0  0  0  0  0  0  0  0
   -0.1189    2.0036    7.2212 C   0  0  0  0  0  0  0  0  0  0  0  0
   -1.0167    2.0664    8.2617 C   0  0  0  0  0  0  0  0  0  0  0  0
   -2.3755    2.6373    8.0308 C   0  0  0  0  0  0  0  0  0  0  0  0
   -0.6462    1.5375    9.5205 C   0  0  0  0  0  0  0  0  0  0  0  0
    0.5482    0.8111    9.7040 C   0  0  0  0  0  0  0  0  0  0  0  0
    1.5327    0.8837    8.7363 C   0  0  0  0  0  0  0  0  0  0  0  0
    1.1421    1.5398    7.5666 C   0  0  0  0  0  0  0  0  0  0  0  0
    2.9069    0.2688    8.9631 C   0  0  0  0  0  0  0  0  0  0  0  0
    3.1109   -0.3969    9.9811 O   0  0  0  0  0  0  0  0  0  0  0  0
    3.9792    0.4628    8.0849 N   0  0  0  0  0  0  0  0  0  0  0  0
    3.8652    0.8412    6.6892 C   0  0  0  0  0  0  0  0  0  0  0  0
    4.8849    1.7048    5.9534 C   0  0  0  0  0  0  0  0  0  0  0  0
    3.7167    2.3944    6.5267 C   0  0  0  0  0  0  0  0  0  0  0  0
    3.1183   -0.3298    5.8879 C   0  0  0  0  0  0  0  0  0  0  0  0
    3.7839   -1.4206    5.4861 N   0  0  0  0  0  0  0  0  0  0  0  0
    3.0569   -2.5740    5.3623 C   0  0  0  0  0  0  0  0  0  0  0  0
    1.7380   -2.7444    5.6995 C   0  0  0  0  0  0  0  0  0  0  0  0
    1.1258   -1.5881    6.0040 C   0  0  0  0  0  0  0  0  0  0  0  0
    1.7863   -0.4141    6.0385 N   0  0  0  0  0  0  0  0  0  0  0  0
   -1.4669    1.4391   -0.0835 C   0  0  0  0  0  0  0  0  0  0  0  0
   -0.7203    2.0503   -1.1018 C   0  0  0  0  0  0  0  0  0  0  0  0
   -0.8032    1.5605   -2.4058 C   0  0  0  0  0  0  0  0  0  0  0  0
   -1.7770    0.6189   -2.7178 C   0  0  0  0  0  0  0  0  0  0  0  0
   -1.8984    0.1871   -3.9785 F   0  0  0  0  0  0  0  0  0  0  0  0
   -2.5925    0.0786   -1.7338 C   0  0  0  0  0  0  0  0  0  0  0  0
   -2.3361    0.3870   -0.4041 C   0  0  0  0  0  0  0  0  0  0  0  0
  1  2  1  0
  2  3  1  0
  3  4  2  0
  3  5  1  0
  5  6  2  0
  5  9  1  0
  6  7  1  0
  6 34  1  0
  7  8  1  0
  8  9  2  0
  8 14  1  0
  9 10  1  0
 10 11  1  0
 10 12  2  0
 12 13  1  0
 12 15  1  0
 13 14  2  0
 15 16  2  0
 15 21  1  0
 16 17  1  0
 16 18  1  0
 18 19  2  0
 19 20  1  0
 20 21  2  0
 20 22  1  0
 22 23  2  0
 22 24  1  0
 24 25  1  0
 25 26  1  0
 25 27  1  0
 25 28  1  0
 26 27  1  0
 28 29  2  0
 28 33  1  0
 29 30  1  0
 30 31  2  0
 31 32  1  0
 32 33  2  0
 34 35  2  0
 34 40  1  0
 35 36  1  0
 36 37  2  0
 37 38  1  0
 37 39  1  0
 39 40  2  0
M  END
>  <DRUGBANK_ID>  (1) 
DB14950

>  <COMMON_NAME>  (1) 
BMS-929075

>  <CAS_NUMBER>  (1) 
1217338-97-0

>  <UNII>  (1) 
8S38482CST

$$$$
