
     RDKit          3D

 39 41  0  0  1  0  0  0  0  0999 V2000
   -7.3136   -4.8106   -5.1743 N   0  0  0  0  0  0  0  0  0  0  0  0
   -7.2292   -3.5810   -5.5432 C   0  0  0  0  0  0  0  0  0  0  0  0
   -7.3868   -3.1658   -6.8338 N   0  0  0  0  0  0  0  0  0  0  0  0
   -6.9069   -2.5983   -4.4977 C   0  0  0  0  0  0  0  0  0  0  0  0
   -5.8988   -2.8913   -3.5645 C   0  0  0  0  0  0  0  0  0  0  0  0
   -5.4088   -1.9241   -2.7185 C   0  0  0  0  0  0  0  0  0  0  0  0
   -5.8065   -0.6306   -2.9459 C   0  0  0  0  0  0  0  0  0  0  0  0
   -5.2795    0.3720   -1.9878 C   0  0  0  0  0  0  0  0  0  0  0  0
   -4.9222    1.7271   -2.3641 N   0  0  0  0  0  0  0  0  0  0  0  0
   -5.5310    2.9639   -2.2097 C   0  0  0  0  0  0  0  0  0  0  0  0
   -5.0426    3.9653   -2.7478 O   0  0  0  0  0  0  0  0  0  0  0  0
   -6.9517    3.2104   -1.2852 C   0  0  2  0  0  0  0  0  0  0  0  0
   -6.2740    3.1240    0.3476 C   0  0  0  0  0  0  0  0  0  0  0  0
   -7.8763    2.0911    1.5035 C   0  0  0  0  0  0  0  0  0  0  0  0
   -8.5276    0.6554    1.3909 C   0  0  0  0  0  0  0  0  0  0  0  0
   -8.1287   -0.0615    2.4605 N   0  0  0  0  0  0  0  0  0  0  0  0
   -9.0087    0.0689    0.4294 O   0  0  0  0  0  0  0  0  0  0  0  0
   -8.7794    2.0429   -1.1641 N   0  0  0  0  0  0  0  0  0  0  0  0
   -9.9768    1.7676   -1.8887 C   0  0  0  0  0  0  0  0  0  0  0  0
  -10.2744    0.5895   -2.0835 O   0  0  0  0  0  0  0  0  0  0  0  0
  -10.5787    3.0664   -2.4516 C   0  0  1  0  0  0  0  0  0  0  0  0
  -10.4258    3.9745   -1.1513 C   0  0  0  0  0  0  0  0  0  0  0  0
   -8.9399    4.0451   -1.0348 C   0  0  0  0  0  0  0  0  0  0  0  0
   -8.3523    3.3559   -2.4937 C   0  0  0  0  0  0  0  0  0  0  0  0
   -7.4460    1.7971   -2.3149 N   0  0  0  0  0  0  0  0  0  0  0  0
   -7.2405    1.7077   -0.4207 C   0  0  0  0  0  0  0  0  0  0  0  0
   -6.3424    0.7563    0.3426 C   0  0  0  0  0  0  0  0  0  0  0  0
   -5.7561    1.1836    1.6054 C   0  0  0  0  0  0  0  0  0  0  0  0
   -6.0583    2.6922    2.3545 C   0  0  0  0  0  0  0  0  0  0  0  0
   -7.2632    3.9484    1.7834 C   0  0  0  0  0  0  0  0  0  0  0  0
   -8.0911    3.3783    0.1974 C   0  0  0  0  0  0  0  0  0  0  0  0
   -9.8168    3.7948   -3.9086 N   0  0  0  0  0  0  0  0  0  0  0  0
  -10.1274    5.4326   -4.1081 S   0  0  0  0  0  0  0  0  0  0  0  0
  -10.0952    6.1266   -2.8501 O   0  0  0  0  0  0  0  0  0  0  0  0
   -9.2405    5.8156   -5.1813 O   0  0  0  0  0  0  0  0  0  0  0  0
  -11.7070    4.8739   -4.5960 C   0  0  0  0  0  0  0  0  0  0  0  0
  -11.5778    3.8126   -5.6947 C   0  0  0  0  0  0  0  0  0  0  0  0
   -6.8660   -0.3751   -3.8476 C   0  0  0  0  0  0  0  0  0  0  0  0
   -7.5166   -1.3687   -4.5268 C   0  0  0  0  0  0  0  0  0  0  0  0
  1  2  2  0
  2  3  1  0
  2  4  1  0
  4  5  2  0
  4 39  1  0
  5  6  1  0
  6  7  2  0
  7  8  1  0
  7 38  1  0
  8  9  1  0
  9 10  1  0
 10 11  2  0
 12 18  1  0
 12 13  1  1
 12 10  1  0
 13 14  1  0
 14 15  1  0
 15 16  1  0
 15 17  2  0
 18 19  1  0
 19 20  2  0
 19 21  1  0
 21 22  1  1
 21 32  1  0
 22 23  1  0
 23 24  2  0
 23 31  1  0
 24 25  1  0
 25 26  1  0
 26 27  1  0
 26 31  2  0
 27 28  2  0
 28 29  1  0
 29 30  2  0
 30 31  1  0
 32 33  1  0
 33 34  2  0
 33 35  2  0
 33 36  1  0
 36 37  1  0
 38 39  2  0
M  END
>  <DRUGBANK_ID>  (1) 
DB04758

>  <COMMON_NAME>  (1) 
2-[2-ETHANESULFONYLAMINO-3-(1H-INDOL-3-YL)-PROPIONYLAMINO]-PENTANEDIOIC ACID 5-AMIDE 1-(4-CARBAMIM IDOYL-BENZYLAMIDE)

$$$$
