9HP
     RDKit          3D

 21 24  0  0  0  0  0  0  0  0999 V2000
    0.7225   -0.3712   -0.0018 C   0  0  0  0  0  0  0  0  0  0  0  0
    1.4048    0.8592   -0.0003 C   0  0  0  0  0  0  0  0  0  0  0  0
    2.8060    0.8800    0.0007 C   0  0  0  0  0  0  0  0  0  0  0  0
    3.4927   -0.3222    0.0002 C   0  0  0  0  0  0  0  0  0  0  0  0
    2.8914   -1.5228   -0.0005 N   0  0  0  0  0  0  0  0  0  0  0  0
    1.5382   -1.5180   -0.0015 C   0  0  0  0  0  0  0  0  0  0  0  0
   -0.7095   -0.3927   -0.0041 C   0  0  0  0  0  0  0  0  0  0  0  0
   -1.4339    0.8210   -0.0069 C   0  0  0  0  0  0  0  0  0  0  0  0
   -0.7282    2.0143   -0.0024 C   0  0  0  0  0  0  0  0  0  0  0  0
    0.6694    2.0492    0.0002 C   0  0  0  0  0  0  0  0  0  0  0  0
   -1.4695   -1.5817   -0.0021 C   0  0  0  0  0  0  0  0  0  0  0  0
   -2.8627   -1.5704   -0.0025 C   0  0  0  0  0  0  0  0  0  0  0  0
   -3.4567   -0.3156   -0.0102 C   0  0  0  0  0  0  0  0  0  0  0  0
   -2.7785    0.8595   -0.0134 N   0  0  0  0  0  0  0  0  0  0  0  0
   -5.2994   -4.3227   -0.9113 C   0  0  0  0  0  0  0  0  0  0  0  0
   -4.5210   -3.1623   -0.9906 C   0  0  0  0  0  0  0  0  0  0  0  0
   -3.6365   -2.8147    0.0429 C   0  0  0  0  0  0  0  0  0  0  0  0
   -3.5205   -3.6882    1.1380 C   0  0  0  0  0  0  0  0  0  0  0  0
   -4.3659   -4.7920    1.2633 C   0  0  0  0  0  0  0  0  0  0  0  0
   -5.2572   -5.0945    0.2439 C   0  0  0  0  0  0  0  0  0  0  0  0
   -6.0832   -6.1633    0.4245 O   0  0  0  0  0  0  0  0  0  0  0  0
  1  2  1  0
  1  6  2  0
  1  7  1  0
  2  3  2  0
  2 10  1  0
  3  4  1  0
  4  5  2  0
  5  6  1  0
  7  8  2  0
  7 11  1  0
  8  9  1  0
  8 14  1  0
  9 10  2  0
 11 12  2  0
 12 13  1  0
 12 17  1  0
 13 14  2  0
 15 16  2  0
 15 20  1  0
 16 17  1  0
 17 18  2  0
 18 19  1  0
 19 20  2  0
 20 21  1  0
M  END
>  <DRUGBANK_ID>  (1) 
DB03623

>  <SECONDARY_ACCESSION_NUMBERS>  (1) 
EXPT00358

>  <COMMON_NAME>  (1) 
9-(4-Hydroxyphenyl)-2,7-Phenanthroline

$$$$
