DBS
     RDKit          3D

 17 17  0  0  0  0  0  0  0  0999 V2000
    1.7896   -1.3407    0.0032 O   0  0  0  0  0  0  0  0  0  0  0  0
    0.5621   -0.7342    0.0022 C   0  0  0  0  0  0  0  0  0  0  0  0
   -0.5828   -1.5221   -0.0054 C   0  0  0  0  0  0  0  0  0  0  0  0
    0.5098    0.6774    0.0075 C   0  0  0  0  0  0  0  0  0  0  0  0
    1.7065    1.3459   -0.0019 O   0  0  0  0  0  0  0  0  0  0  0  0
   -0.7214    1.3492    0.0137 C   0  0  0  0  0  0  0  0  0  0  0  0
   -1.8414    0.4953   -0.0071 C   0  0  0  0  0  0  0  0  0  0  0  0
   -1.7960   -0.8937   -0.0142 C   0  0  0  0  0  0  0  0  0  0  0  0
   -0.7695    2.8766    0.0382 C   0  0  0  0  0  0  0  0  0  0  0  0
    0.2591    3.5553    0.0593 O   0  0  0  0  0  0  0  0  0  0  0  0
   -1.9285    3.6304    0.0529 N   0  0  0  0  0  0  0  0  0  0  0  0
   -3.3306    3.2586    0.0272 C   0  0  1  0  0  0  0  0  0  0  0  0
   -4.0725    3.4887    1.3290 C   0  0  0  0  0  0  0  0  0  0  0  0
   -4.2967    4.8612    1.5741 O   0  0  0  0  0  0  0  0  0  0  0  0
   -4.0789    3.5466   -1.2558 C   0  0  0  0  0  0  0  0  0  0  0  0
   -4.4140    2.7044   -2.0668 O   0  0  0  0  0  0  0  0  0  0  0  0
   -4.3386    4.8486   -1.4540 O   0  0  0  0  0  0  0  0  0  0  0  0
  1  2  1  0
  2  3  2  0
  2  4  1  0
  3  8  1  0
  4  5  1  0
  4  6  2  0
  6  7  1  0
  6  9  1  0
  7  8  2  0
  9 10  2  0
  9 11  1  0
 12 11  1  0
 12 13  1  1
 12 15  1  0
 13 14  1  0
 15 16  2  0
 15 17  1  0
M  END
>  <DRUGBANK_ID>  (1) 
DB02710

>  <SECONDARY_ACCESSION_NUMBERS>  (1) 
EXPT01126

>  <COMMON_NAME>  (1) 
2,3,-Dihydroxybenzoylserine

>  <CAS_NUMBER>  (1) 
127658-43-9

$$$$
