
     RDKit          3D

 10 10  0  0  0  0  0  0  0  0999 V2000
    0.0308   -1.3892    0.0004 N   0  0  0  0  0  0  0  0  0  0  0  0
   -1.1572   -0.6628   -0.0441 C   0  0  0  0  0  0  0  0  0  0  0  0
   -1.2480    0.6650    0.0717 C   0  0  0  0  0  0  0  0  0  0  0  0
    1.2508   -0.6737    0.0485 C   0  0  0  0  0  0  0  0  0  0  0  0
    1.2913    0.6814   -0.0595 C   0  0  0  0  0  0  0  0  0  0  0  0
   -0.0010    1.4396   -0.0327 C   0  0  0  0  0  0  0  0  0  0  0  0
   -0.0541    2.6696   -0.1150 O   0  0  0  0  0  0  0  0  0  0  0  0
    2.4550    1.4255   -0.1556 O   0  0  0  0  0  0  0  0  0  0  0  0
    2.5548   -1.3968    0.2918 C   0  0  0  0  0  0  0  0  0  0  0  0
   -0.0823   -2.8459    0.1747 C   0  0  0  0  0  0  0  0  0  0  0  0
  1  2  1  0
  1  4  1  0
  1 10  1  0
  2  3  2  0
  4  5  2  0
  4  9  1  0
  5  6  1  0
  5  8  1  0
  6  3  1  0
  6  7  2  0
M  END
>  <DRUGBANK_ID>  (1) 
DB08826

>  <COMMON_NAME>  (1) 
Deferiprone

>  <CAS_NUMBER>  (1) 
30652-11-0

>  <UNII>  (1) 
2BTY8KH53L

>  <SYNONYMS>  (1) 
1,2-Dimethyl-3-hydroxypyrid-4-one; 3-Hydroxy-1,2-dimethyl-4(1H)-pyridone; Deferiprona; Deferiprone; Défériprone; Deferipronum

$$$$
