
     RDKit          3D

 27 29  0  0  1  0  0  0  0  0999 V2000
   -0.2825   10.7268   -0.0524 N   0  0  0  0  0  0  0  0  0  0  0  0
   -1.5173   10.0843   -0.4808 C   0  0  1  0  0  0  0  0  0  0  0  0
   -0.1192   12.0304    0.3730 C   0  0  0  0  0  0  0  0  0  0  0  0
    0.3112    9.5859    0.4137 C   0  0  0  0  0  0  0  0  0  0  0  0
   -0.7624    8.7279   -0.3079 C   0  0  1  0  0  0  0  0  0  0  0  0
   -2.8142   10.5579    0.6867 S   0  0  0  0  0  0  0  0  0  0  0  0
   -1.2053   12.8661    0.4278 C   0  0  0  0  0  0  0  0  0  0  0  0
    1.3537   12.3831    0.6017 C   0  0  0  0  0  0  0  0  0  0  0  0
    1.2099    9.3847    1.1766 O   0  0  0  0  0  0  0  0  0  0  0  0
   -1.3580    7.5801    0.4514 N   0  0  0  0  0  0  0  0  0  0  0  0
   -2.6385   12.3377    0.2756 C   0  0  0  0  0  0  0  0  0  0  0  0
   -1.2012   14.3162    0.7371 C   0  0  0  0  0  0  0  0  0  0  0  0
    2.2816   11.8833   -0.0190 O   0  0  0  0  0  0  0  0  0  0  0  0
    1.6034   13.3903    1.4592 O   0  0  0  0  0  0  0  0  0  0  0  0
   -1.4786    6.3308   -0.1586 C   0  0  0  0  0  0  0  0  0  0  0  0
   -0.1323   15.1061    0.5710 C   0  0  0  0  0  0  0  0  0  0  0  0
   -2.2203    5.1867    0.6356 C   0  0  2  0  0  0  0  0  0  0  0  0
   -1.0340    6.1593   -1.2970 O   0  0  0  0  0  0  0  0  0  0  0  0
   -2.0416    3.9223   -0.1232 N   0  0  0  0  0  0  0  0  0  0  0  0
   -3.7047    5.4744    0.8827 C   0  0  0  0  0  0  0  0  0  0  0  0
   -4.2030    6.7854    0.9729 C   0  0  0  0  0  0  0  0  0  0  0  0
   -4.6341    4.4344    1.0650 C   0  0  0  0  0  0  0  0  0  0  0  0
   -5.5448    7.0672    1.2049 C   0  0  0  0  0  0  0  0  0  0  0  0
   -5.9896    4.7082    1.2738 C   0  0  0  0  0  0  0  0  0  0  0  0
   -6.4337    6.0204    1.3386 C   0  0  0  0  0  0  0  0  0  0  0  0
   -7.7612    6.2462    1.5293 O   0  0  0  0  0  0  0  0  0  0  0  0
    0.1700   16.4551    1.1207 C   0  0  0  0  0  0  0  0  0  0  0  0
  2  1  1  0
  3  1  1  0
  4  1  1  0
  5  2  1  0
  5  4  1  0
  5 10  1  1
  2  6  1  1
  7  3  2  0
  8  3  1  0
  9  4  2  0
 11  6  1  0
 11  7  1  0
 12  7  1  0
 13  8  2  0
 14  8  1  0
 15 10  1  0
 16 12  2  3
 16 27  1  0
 17 19  1  6
 17 15  1  0
 18 15  2  0
 20 17  1  0
 21 20  2  0
 22 20  1  0
 23 21  1  0
 24 22  2  0
 25 23  2  0
 25 24  1  0
 26 25  1  0
M  END
>  <DRUGBANK_ID>  (1) 
DB01150

>  <SECONDARY_ACCESSION_NUMBERS>  (1) 
APRD00461

>  <COMMON_NAME>  (1) 
Cefprozil

>  <CAS_NUMBER>  (1) 
92665-29-7

>  <UNII>  (1) 
1M698F4H4E

>  <SYNONYMS>  (1) 
Cefprozil; Cefprozil anhydrous; Cefprozilo; Cefprozilum

$$$$
