
     RDKit          3D

 29 31  0  0  0  0  0  0  0  0999 V2000
    0.6634    1.6679   -0.0039 C   0  0  0  0  0  0  0  0  0  0  0  0
    1.9246    1.0950    0.0126 N   0  0  0  0  0  0  0  0  0  0  0  0
    1.1598   -1.0937    0.0406 N   0  0  0  0  0  0  0  0  0  0  0  0
   -0.1198   -0.6335   -0.0097 C   0  0  0  0  0  0  0  0  0  0  0  0
   -0.4460    0.6699   -0.0125 C   0  0  0  0  0  0  0  0  0  0  0  0
   -2.4727   -0.4779   -0.0006 C   0  0  0  0  0  0  0  0  0  0  0  0
   -1.3179   -1.3703   -0.0529 N   0  0  0  0  0  0  0  0  0  0  0  0
   -1.5585   -2.7815    0.0627 C   0  0  2  0  0  0  0  0  0  0  0  0
   -0.9367   -3.2713    1.2423 O   0  0  0  0  0  0  0  0  0  0  0  0
   -0.1718   -4.4107    0.9214 C   0  0  1  0  0  0  0  0  0  0  0  0
   -0.5284   -4.8668   -0.4957 C   0  0  1  0  0  0  0  0  0  0  0  0
   -1.5491   -5.8592   -0.5089 O   0  0  0  0  0  0  0  0  0  0  0  0
   -1.0264   -3.5650   -1.1358 C   0  0  1  0  0  0  0  0  0  0  0  0
   -1.8718   -3.7848   -2.2458 O   0  0  0  0  0  0  0  0  0  0  0  0
    2.1244   -3.3015    0.1894 O   0  0  0  0  0  0  0  0  0  0  0  0
    2.6512   -2.5252   -1.9388 O   0  0  0  0  0  0  0  0  0  0  0  0
    1.7077   -3.6266   -1.4579 P   0  0  2  0  0  0  0  0  0  0  0  0
    1.2911   -3.9516   -3.1052 O   0  0  0  0  0  0  0  0  0  0  0  0
    2.6296   -5.0894   -1.4024 O   0  0  0  0  0  0  0  0  0  0  0  0
    4.2009   -6.4252   -0.3197 O   0  0  0  0  0  0  0  0  0  0  0  0
    3.3297   -5.2706    0.1692 P   0  0  0  0  0  0  0  0  0  0  0  0
    4.0299   -5.4518    1.7408 O   0  0  0  0  0  0  0  0  0  0  0  0
    4.2744   -3.9467   -0.0083 O   0  0  0  0  0  0  0  0  0  0  0  0
    1.2931   -4.0903    1.1703 C   0  0  0  0  0  0  0  0  0  0  0  0
    2.1426   -0.2416    0.0741 C   0  0  0  0  0  0  0  0  0  0  0  0
    3.4481   -0.6326    0.1948 N   0  0  0  0  0  0  0  0  0  0  0  0
    0.5017    2.8632   -0.0039 O   0  0  0  0  0  0  0  0  0  0  0  0
   -1.8356    0.8379   -0.0247 N   0  0  0  0  0  0  0  0  0  0  0  0
   -2.6045    2.0573   -0.0037 C   0  0  0  0  0  0  0  0  0  0  0  0
  1  2  1  0
  1  5  1  0
  2 25  1  0
  3  4  1  0
  4  5  2  0
  4  7  1  0
  5 28  1  0
  6  7  1  0
  8  7  1  6
  8  9  1  0
  8 13  1  0
  9 10  1  0
 10 11  1  0
 10 24  1  6
 11 12  1  1
 11 13  1  0
 13 14  1  6
 15 17  1  0
 17 16  2  0
 17 19  1  0
 17 18  1  1
 19 21  1  0
 21 20  2  0
 21 23  1  0
 21 22  1  0
 24 15  1  0
 25  3  2  0
 25 26  1  0
 27  1  2  0
 28  6  1  0
 28 29  1  0
M  END
>  <DRUGBANK_ID>  (1) 
DB01960

>  <SECONDARY_ACCESSION_NUMBERS>  (1) 
EXPT02090; EXPT02143

>  <COMMON_NAME>  (1) 
7-methyl-7,8-dihydroguanosine-5'-diphosphate

>  <CAS_NUMBER>  (1) 
104809-16-7

$$$$
