
     RDKit          3D

 23 24  0  0  0  0  0  0  0  0999 V2000
   -2.0930    0.2479    3.1093 Cl  0  0  0  0  0  0  0  0  0  0  0  0
   -0.3338    5.4344    2.4437 Cl  0  0  0  0  0  0  0  0  0  0  0  0
    1.8396    3.4611   -1.7861 S   0  0  0  0  0  0  0  0  0  0  0  0
    3.4149    4.6588   -0.1576 N   0  0  0  0  0  0  0  0  0  0  0  0
    1.7826    3.4000    1.0091 N   0  0  0  0  0  0  0  0  0  0  0  0
   -0.0019    2.1102    0.1237 N   0  0  0  0  0  0  0  0  0  0  0  0
    7.2631    6.6165    5.0896 N   0  0  0  0  0  0  0  0  0  0  0  0
    0.1915    2.3677    2.5637 C   0  0  0  0  0  0  0  0  0  0  0  0
   -1.2396    2.8491    2.7575 C   0  0  0  0  0  0  0  0  0  0  0  0
    0.7175    2.6647    1.1416 C   0  0  0  0  0  0  0  0  0  0  0  0
   -2.3102    1.9607    2.9905 C   0  0  0  0  0  0  0  0  0  0  0  0
   -1.5457    4.2233    2.6817 C   0  0  0  0  0  0  0  0  0  0  0  0
   -3.6255    2.4284    3.1238 C   0  0  0  0  0  0  0  0  0  0  0  0
   -2.8617    4.6824    2.8027 C   0  0  0  0  0  0  0  0  0  0  0  0
   -3.9017    3.7879    3.0255 C   0  0  0  0  0  0  0  0  0  0  0  0
    4.1387    5.1063    0.9574 C   0  0  0  0  0  0  0  0  0  0  0  0
    4.3805    4.2525    2.0295 C   0  0  0  0  0  0  0  0  0  0  0  0
    4.6841    6.3979    0.9712 C   0  0  0  0  0  0  0  0  0  0  0  0
    2.3343    3.7913   -0.1991 C   0  0  0  0  0  0  0  0  0  0  0  0
    5.1512    4.6702    3.1125 C   0  0  0  0  0  0  0  0  0  0  0  0
    5.4401    6.8299    2.0729 C   0  0  0  0  0  0  0  0  0  0  0  0
    5.6948    5.9549    3.1341 C   0  0  0  0  0  0  0  0  0  0  0  0
    6.5504    6.3396    4.2222 C   0  0  0  0  0  0  0  0  0  0  0  0
  1 11  1  0
  2 12  1  0
  3 19  2  0
  4 16  1  0
  4 19  1  0
  5 10  2  0
  5 19  1  0
  6 10  1  0
  7 23  3  0
  8  9  1  0
  8 10  1  0
  9 11  2  0
  9 12  1  0
 11 13  1  0
 12 14  2  0
 13 15  2  0
 14 15  1  0
 16 17  2  0
 16 18  1  0
 17 20  1  0
 18 21  2  0
 20 22  2  0
 21 22  1  0
 22 23  1  0
M  END
>  <DRUGBANK_ID>  (1) 
DB07961

>  <COMMON_NAME>  (1) 
1-(4-Cyano-phenyl)-3-[2-(2,6-dichloro-phenyl)-1-imino-ethyl]-thiourea

$$$$
