
     RDKit          3D

 16 16  0  0  0  0  0  0  0  0999 V2000
    1.2124    0.6607    0.2367 C   0  0  0  0  0  0  0  0  0  0  0  0
    0.7879    1.6988   -0.8233 C   0  0  0  0  0  0  0  0  0  0  0  0
    1.1263    1.3242   -2.2591 C   0  0  0  0  0  0  0  0  0  0  0  0
   -1.3977   -2.3214   -4.9960 C   0  0  0  0  0  0  0  0  0  0  0  0
   -0.8856   -2.0415   -3.7539 C   0  0  0  0  0  0  0  0  0  0  0  0
   -0.7579   -3.3289   -5.6235 C   0  0  0  0  0  0  0  0  0  0  0  0
    0.5871   -0.0214   -2.4447 C   0  0  0  0  0  0  0  0  0  0  0  0
   -1.5290   -0.4646   -1.0961 C   0  0  0  0  0  0  0  0  0  0  0  0
   -1.1289   -1.7252   -0.3131 C   0  0  0  0  0  0  0  0  0  0  0  0
    0.7505   -3.6714   -3.8522 C   0  0  0  0  0  0  0  0  0  0  0  0
    0.1135   -2.7721   -3.0418 C   0  0  0  0  0  0  0  0  0  0  0  0
    0.8282   -2.5932   -1.6912 C   0  0  0  0  0  0  0  0  0  0  0  0
    0.3269   -3.9751   -5.1135 N   0  0  0  0  0  0  0  0  0  0  0  0
    2.0364   -2.6299   -1.6423 O   0  0  0  0  0  0  0  0  0  0  0  0
   -0.8153   -0.0170   -2.2290 O   0  0  0  0  0  0  0  0  0  0  0  0
    0.1591   -2.3214   -0.5305 O   0  0  0  0  0  0  0  0  0  0  0  0
  2  1  1  0
  3  2  1  0
  5  4  2  0
  6  4  1  0
  7  3  1  0
  9  8  1  0
 11  5  1  0
 11 10  2  0
 12 11  1  0
 13  6  2  0
 13 10  1  0
 14 12  2  0
 15  7  1  0
 15  8  1  0
 16  9  1  0
 16 12  1  0
M  END
>  <DRUGBANK_ID>  (1) 
DB12911

>  <COMMON_NAME>  (1) 
Nicoboxil

>  <CAS_NUMBER>  (1) 
13912-80-6

>  <UNII>  (1) 
GSD5B9US0W

>  <SYNONYMS>  (1) 
beta-Butoxyethyl nicotinate; Nicoboxil

$$$$
