
     RDKit          3D

 31 33  0  0  0  0  0  0  0  0999 V2000
    0.9661    0.0495   -0.0419 F   0  0  0  0  0  0  0  0  0  0  0  0
    2.7511    0.1688    1.1938 F   0  0  0  0  0  0  0  0  0  0  0  0
    3.7073   -5.5566   -8.0260 F   0  0  0  0  0  0  0  0  0  0  0  0
    1.9730   -0.1445   -4.3067 O   0  0  0  0  0  0  0  0  0  0  0  0
    1.4750    0.3212   -7.4385 O   0  0  0  0  0  0  0  0  0  0  0  0
    3.9615   -0.8795   -5.3086 N   0  0  0  0  0  0  0  0  0  0  0  0
    2.3332   -1.6588   -2.0096 N   0  0  0  0  0  0  0  0  0  0  0  0
    4.3662   -2.3938   -2.9422 N   0  0  0  0  0  0  0  0  0  0  0  0
    2.1645   -1.8049   -7.5325 N   0  0  0  0  0  0  0  0  0  0  0  0
    2.3593    2.5617   -0.5306 N   0  0  0  0  0  0  0  0  0  0  0  0
    2.0850   -3.7473   -5.3387 N   0  0  0  0  0  0  0  0  0  0  0  0
    3.6632   -0.0739   -6.4894 C   0  0  0  0  0  0  0  0  0  0  0  0
    5.1114   -1.6501   -5.1309 C   0  0  0  0  0  0  0  0  0  0  0  0
    2.8042   -1.2835   -0.6527 C   0  0  0  0  0  0  0  0  0  0  0  0
    3.2496   -1.7276   -3.0599 C   0  0  0  0  0  0  0  0  0  0  0  0
    2.9792   -0.8597   -4.3133 C   0  0  0  0  0  0  0  0  0  0  0  0
    2.3385    0.1070   -0.1167 C   0  0  0  0  0  0  0  0  0  0  0  0
    2.3425   -0.5050   -7.1477 C   0  0  0  0  0  0  0  0  0  0  0  0
    5.2366   -2.3699   -4.0001 C   0  0  0  0  0  0  0  0  0  0  0  0
    6.1582   -1.8004   -6.2150 C   0  0  0  0  0  0  0  0  0  0  0  0
    2.8134    1.3341   -0.9029 C   0  0  0  0  0  0  0  0  0  0  0  0
    3.0986   -2.9049   -7.4441 C   0  0  0  0  0  0  0  0  0  0  0  0
    3.6509    1.2139   -2.0068 C   0  0  0  0  0  0  0  0  0  0  0  0
    2.6905   -4.0286   -6.5253 C   0  0  0  0  0  0  0  0  0  0  0  0
    3.8730    2.2861   -2.8586 C   0  0  0  0  0  0  0  0  0  0  0  0
    3.0768   -5.3193   -6.8678 C   0  0  0  0  0  0  0  0  0  0  0  0
    2.6732    3.6194   -1.3202 C   0  0  0  0  0  0  0  0  0  0  0  0
    3.3822    3.5240   -2.5047 C   0  0  0  0  0  0  0  0  0  0  0  0
    2.8263   -6.3680   -5.9980 C   0  0  0  0  0  0  0  0  0  0  0  0
    1.8599   -4.7874   -4.4976 C   0  0  0  0  0  0  0  0  0  0  0  0
    2.2072   -6.1003   -4.7830 C   0  0  0  0  0  0  0  0  0  0  0  0
  1 17  1  0
  2 17  1  0
  3 26  1  0
  4 16  2  0
  5 18  2  0
  6 12  1  0
  6 13  1  0
  6 16  1  0
  7 14  1  0
  7 15  1  0
  8 15  2  0
  8 19  1  0
  9 18  1  0
  9 22  1  0
 10 21  2  0
 10 27  1  0
 11 24  2  0
 11 30  1  0
 12 18  1  0
 13 19  2  0
 13 20  1  0
 14 17  1  0
 15 16  1  0
 17 21  1  0
 21 23  1  0
 22 24  1  0
 23 25  2  0
 24 26  1  0
 25 28  1  0
 26 29  2  0
 27 28  2  0
 29 31  1  0
 30 31  2  0
M  END
>  <DRUGBANK_ID>  (1) 
DB07548

>  <COMMON_NAME>  (1) 
2-(6-Chloro-3-{[2,2-difluoro-2-(2-pyridinyl)ethyl]amino}-2-oxo-1(2H)-pyrazinyl)-N-[(2-fluoro-6-pyridinyl)methyl]acetamide

>  <CAS_NUMBER>  (1) 
312904-60-2

$$$$
