
     RDKit          3D

 11 11  0  0  0  0  0  0  0  0999 V2000
    2.4651   -0.0069   -0.0141 C   0  0  0  0  0  0  0  0  0  0  0  0
    0.9624   -0.0005   -0.0061 C   0  0  0  0  0  0  0  0  0  0  0  0
    0.2583    1.2105   -0.0032 C   0  0  0  0  0  0  0  0  0  0  0  0
   -1.1380    1.2214   -0.0028 C   0  0  0  0  0  0  0  0  0  0  0  0
   -1.8372    0.0126   -0.0054 C   0  0  0  0  0  0  0  0  0  0  0  0
   -1.1523   -1.2054   -0.0068 C   0  0  0  0  0  0  0  0  0  0  0  0
    0.2468   -1.2074   -0.0043 C   0  0  0  0  0  0  0  0  0  0  0  0
   -3.6144    0.0185   -0.0118 S   0  0  0  0  0  0  0  0  0  0  0  0
   -3.9912   -0.7876   -1.3617 O   0  0  0  0  0  0  0  0  0  0  0  0
   -4.0591   -0.7627    1.1221 O   0  0  0  0  0  0  0  0  0  0  0  0
   -4.0521    1.3799   -0.2268 O   0  0  0  0  0  0  0  0  0  0  0  0
  1  2  1  0
  2  3  2  0
  2  7  1  0
  3  4  1  0
  4  5  2  0
  5  6  1  0
  5  8  1  0
  6  7  2  0
  8  9  1  0
  8 10  2  0
  8 11  2  0
M  END
>  <DRUGBANK_ID>  (1) 
DB03120

>  <SECONDARY_ACCESSION_NUMBERS>  (1) 
EXPT03125

>  <COMMON_NAME>  (1) 
p-Toluenesulfonic acid

>  <CAS_NUMBER>  (1) 
104-15-4

>  <UNII>  (1) 
QGV5ZG5741

>  <SYNONYMS>  (1) 
4-toluenesulfonic acid; p-methylbenzenesulfonic acid; p-methylphenylsulfonic acid; p-toluenesulfonic acid; p-toluenesulphonic acid; p-tolylsulfonic acid; para-toluene sulfonate; toluene-4-sulfonic acid; Tosic acid; Tosylic acid

$$$$
