
     RDKit          3D

 29 32  0  0  0  0  0  0  0  0999 V2000
   -2.6155    1.0286   -0.0129 C   0  0  0  0  0  0  0  0  0  0  0  0
   -1.3324    1.4338    0.0030 N   0  0  0  0  0  0  0  0  0  0  0  0
   -0.3886    0.4660    0.0079 C   0  0  0  0  0  0  0  0  0  0  0  0
   -0.7143   -0.8790    0.0102 C   0  0  0  0  0  0  0  0  0  0  0  0
   -2.0466   -1.1897    0.0094 C   0  0  0  0  0  0  0  0  0  0  0  0
   -2.9966   -0.2593    0.0013 N   0  0  0  0  0  0  0  0  0  0  0  0
    0.2861   -1.9149    0.0136 C   0  0  0  0  0  0  0  0  0  0  0  0
    1.5814   -1.5779   -0.0454 C   0  0  0  0  0  0  0  0  0  0  0  0
    1.9961   -0.1418   -0.0778 C   0  0  0  0  0  0  0  0  0  0  0  0
    0.9924    0.8119   -0.0119 N   0  0  0  0  0  0  0  0  0  0  0  0
    3.1973    0.1367   -0.1625 O   0  0  0  0  0  0  0  0  0  0  0  0
    1.3617    2.2127   -0.0024 C   0  0  0  0  0  0  0  0  0  0  0  0
   -3.6170    1.9847   -0.1201 N   0  0  0  0  0  0  0  0  0  0  0  0
   -4.9940    1.7575   -0.0138 C   0  0  0  0  0  0  0  0  0  0  0  0
   -5.5288    1.0263    1.0564 C   0  0  0  0  0  0  0  0  0  0  0  0
   -6.9042    0.7873    1.1628 C   0  0  0  0  0  0  0  0  0  0  0  0
   -7.7539    1.2814    0.1673 C   0  0  0  0  0  0  0  0  0  0  0  0
   -7.2381    2.0287   -0.8915 C   0  0  0  0  0  0  0  0  0  0  0  0
   -5.8624    2.2475   -0.9910 C   0  0  0  0  0  0  0  0  0  0  0  0
   -7.4535    0.0316    2.3386 C   0  0  0  0  0  0  0  0  0  0  0  0
   -8.3483    0.8615    3.0683 O   0  0  0  0  0  0  0  0  0  0  0  0
    2.5673   -2.6679   -0.0192 C   0  0  0  0  0  0  0  0  0  0  0  0
    3.4527   -2.8061    1.0659 C   0  0  0  0  0  0  0  0  0  0  0  0
    4.3141   -3.9008    1.1379 C   0  0  0  0  0  0  0  0  0  0  0  0
    4.2712   -4.8935    0.1619 C   0  0  0  0  0  0  0  0  0  0  0  0
    3.3856   -4.7840   -0.9060 C   0  0  0  0  0  0  0  0  0  0  0  0
    2.5849   -3.6496   -1.0311 C   0  0  0  0  0  0  0  0  0  0  0  0
    1.6549   -3.5027   -2.4898 Cl  0  0  0  0  0  0  0  0  0  0  0  0
    3.5022   -1.6909    2.3932 Cl  0  0  0  0  0  0  0  0  0  0  0  0
  1  2  2  0
  1  6  1  0
  1 13  1  0
  2  3  1  0
  3  4  2  0
  4  5  1  0
  5  6  2  0
  7  8  2  0
  7  4  1  0
  8  9  1  0
  8 22  1  0
  9 10  1  0
  9 11  2  0
 10  3  1  0
 10 12  1  0
 13 14  1  0
 14 15  2  0
 14 19  1  0
 15 16  1  0
 16 17  2  0
 16 20  1  0
 17 18  1  0
 18 19  2  0
 20 21  1  0
 22 23  2  0
 22 27  1  0
 23 24  1  0
 23 29  1  0
 24 25  2  0
 25 26  1  0
 26 27  2  0
 27 28  1  0
M  END
>  <DRUGBANK_ID>  (1) 
DB08339

>  <COMMON_NAME>  (1) 
PD-166326

>  <CAS_NUMBER>  (1) 
185039-91-2

>  <UNII>  (1) 
0H77F2T4U3

$$$$
