
     RDKit          3D

 19 20  0  0  0  0  0  0  0  0999 V2000
    1.3777   -0.2124    0.0177 C   0  0  0  0  0  0  0  0  0  0  0  0
    0.4945   -1.2887    0.0269 C   0  0  0  0  0  0  0  0  0  0  0  0
    0.8867    1.0917    0.0072 C   0  0  0  0  0  0  0  0  0  0  0  0
   -0.8813   -1.0573    0.0108 C   0  0  0  0  0  0  0  0  0  0  0  0
   -0.4884    1.3224    0.0447 C   0  0  0  0  0  0  0  0  0  0  0  0
   -3.7713   -0.0474    0.7019 C   0  0  0  0  0  0  0  0  0  0  0  0
   -3.2792    1.1611   -1.3237 C   0  0  0  0  0  0  0  0  0  0  0  0
   -5.1314    0.0290    0.4030 C   0  0  0  0  0  0  0  0  0  0  0  0
   -4.6338    1.2024   -1.6476 C   0  0  0  0  0  0  0  0  0  0  0  0
   -7.6078    1.3552   -2.2661 C   0  0  0  0  0  0  0  0  0  0  0  0
   -8.3908    0.3307   -3.0719 C   0  0  0  0  0  0  0  0  0  0  0  0
   -1.3911    0.2533    0.0028 C   0  0  0  0  0  0  0  0  0  0  0  0
   -2.8257    0.4848   -0.1793 C   0  0  0  0  0  0  0  0  0  0  0  0
   -5.5708    0.6523   -0.7752 C   0  0  0  0  0  0  0  0  0  0  0  0
   -7.0372    0.7889   -0.9766 C   0  0  0  0  0  0  0  0  0  0  0  0
   -9.6269   -0.1638   -2.3746 C   0  0  0  0  0  0  0  0  0  0  0  0
   -7.7733    0.4998   -0.0325 O   0  0  0  0  0  0  0  0  0  0  0  0
  -10.7765    0.1520   -2.6548 O   0  0  0  0  0  0  0  0  0  0  0  0
   -9.3596   -1.0148   -1.3735 O   0  0  0  0  0  0  0  0  0  0  0  0
  2  1  2  0
  3  1  1  0
  4  2  1  0
  5  3  2  0
  8  6  2  0
  9  7  1  0
 11 10  1  0
 12  4  2  0
 12  5  1  0
 13  6  1  0
 13  7  2  0
 13 12  1  0
 14  8  1  0
 14  9  2  0
 15 10  1  0
 15 14  1  0
 16 11  1  0
 17 15  2  0
 18 16  2  0
 19 16  1  0
M  END
>  <DRUGBANK_ID>  (1) 
DB08981

>  <COMMON_NAME>  (1) 
Fenbufen

>  <CAS_NUMBER>  (1) 
36330-85-5

>  <UNII>  (1) 
9815R1WR9B

>  <SYNONYMS>  (1) 
3-(4-Biphenylylcarbonyl)propionic acid; 3-(4-Phenylbenzoyl)propionic acid; 4-(4-Biphenylyl)-4-oxobutyric acid; Fenbufén; Fenbufen; Fenbufène; Fenbufenum; gamma-oxo(1,1'-biphenyl)-4-butanoic acid

$$$$
