OFL
     RDKit          3D

 20 21  0  0  0  0  0  0  0  0999 V2000
    1.3965   -0.2462    0.0343 C   0  0  0  0  0  0  0  0  0  0  0  0
    0.4692   -1.3004    0.0758 C   0  0  0  0  0  0  0  0  0  0  0  0
   -0.9284   -1.0737    0.1164 C   0  0  0  0  0  0  0  0  0  0  0  0
   -1.3476    0.2859    0.1143 C   0  0  0  0  0  0  0  0  0  0  0  0
   -0.3865    1.3258    0.0842 C   0  0  0  0  0  0  0  0  0  0  0  0
    0.9666    1.0693    0.0104 C   0  0  0  0  0  0  0  0  0  0  0  0
   -2.7377    0.8610    0.0910 C   0  0  0  0  0  0  0  0  0  0  0  0
   -1.7487   -2.2568   -0.0514 N   0  0  0  0  0  0  0  0  0  0  0  0
   -5.2256   -2.1263    1.2185 C   0  0  0  0  0  0  0  0  0  0  0  0
   -5.8391   -1.4096    0.1890 C   0  0  0  0  0  0  0  0  0  0  0  0
   -5.1696   -1.2383   -1.0340 C   0  0  0  0  0  0  0  0  0  0  0  0
   -3.8505   -1.7179   -1.2200 C   0  0  0  0  0  0  0  0  0  0  0  0
   -3.1810   -2.3147   -0.1232 C   0  0  0  0  0  0  0  0  0  0  0  0
   -3.9147   -2.6121    1.0549 C   0  0  0  0  0  0  0  0  0  0  0  0
   -3.1400   -1.3020   -2.4826 C   0  0  0  0  0  0  0  0  0  0  0  0
   -1.8670   -1.7484   -2.6252 O   0  0  0  0  0  0  0  0  0  0  0  0
   -3.6598   -0.6058   -3.3238 O   0  0  0  0  0  0  0  0  0  0  0  0
   -2.8909    1.9443    0.9079 F   0  0  0  0  0  0  0  0  0  0  0  0
   -3.1005    1.2914   -1.1475 F   0  0  0  0  0  0  0  0  0  0  0  0
   -3.6901    0.0455    0.5421 F   0  0  0  0  0  0  0  0  0  0  0  0
  1  2  2  0
  1  6  1  0
  2  3  1  0
  3  4  2  0
  3  8  1  0
  4  5  1  0
  4  7  1  0
  5  6  2  0
  7 18  1  0
  7 19  1  0
  7 20  1  0
  8 13  1  0
  9 10  2  0
  9 14  1  0
 10 11  1  0
 11 12  2  0
 12 13  1  0
 12 15  1  0
 13 14  2  0
 15 16  1  0
 15 17  2  0
M  END
>  <DRUGBANK_ID>  (1) 
DB02179

>  <SECONDARY_ACCESSION_NUMBERS>  (1) 
EXPT02421

>  <COMMON_NAME>  (1) 
O-Trifluoromethylphenyl Anthranilic Acid

$$$$
