
     RDKit          3D

 18 18  0  0  0  0  0  0  0  0999 V2000
    1.2782   -0.2607    0.0583 C   0  0  0  0  0  0  0  0  0  0  0  0
    2.8320   -0.4876    0.2012 C   0  0  1  0  0  0  0  0  0  0  0  0
    3.6190    0.2015   -0.9639 C   0  0  0  0  0  0  0  0  0  0  0  0
    3.4828    1.7984   -1.1996 C   0  0  1  0  0  0  0  0  0  0  0  0
    3.9119    2.7561   -0.1151 N   0  0  0  0  0  0  0  0  0  0  0  0
    3.6339    4.1624   -0.2682 C   0  0  0  0  0  0  0  0  0  0  0  0
    3.3112    2.4981    1.1567 C   0  0  0  0  0  0  0  0  0  0  0  0
    4.2447    2.1561   -2.4712 C   0  0  0  0  0  0  0  0  0  0  0  0
    3.3371   -0.2749    1.7981 C   0  0  0  0  0  0  0  0  0  0  0  0
    2.5177   -0.8904    2.9330 C   0  0  0  0  0  0  0  0  0  0  0  0
    4.8840   -0.3225    1.8863 C   0  0  0  0  0  0  0  0  0  0  0  0
    3.0749   -1.9852    0.2945 C   0  0  0  0  0  0  0  0  0  0  0  0
    3.2764   -3.2275    0.3718 N   0  0  0  0  0  0  0  0  0  0  0  0
    0.3696   -1.3457    0.0081 C   0  0  0  0  0  0  0  0  0  0  0  0
   -1.0138   -1.1391   -0.0249 C   0  0  0  0  0  0  0  0  0  0  0  0
   -1.5580    0.1306   -0.0047 C   0  0  0  0  0  0  0  0  0  0  0  0
   -0.6987    1.2243    0.0185 C   0  0  0  0  0  0  0  0  0  0  0  0
    0.6728    1.0004    0.0086 C   0  0  0  0  0  0  0  0  0  0  0  0
  1  2  1  0
  1 14  2  0
  1 18  1  0
  2  3  1  6
  2  9  1  0
  2 12  1  0
  3  4  1  0
  4  5  1  0
  4  8  1  6
  5  6  1  0
  5  7  1  0
  9 10  1  0
  9 11  1  0
 12 13  3  0
 14 15  1  0
 15 16  2  0
 16 17  1  0
 17 18  2  0
M  END
>  <DRUGBANK_ID>  (1) 
DB08944

>  <COMMON_NAME>  (1) 
Isoaminile

>  <CAS_NUMBER>  (1) 
77-51-0

>  <UNII>  (1) 
R4823W2PQL

>  <SYNONYMS>  (1) 
Isoaminile

$$$$
