
     RDKit          3D

 38 41  0  0  0  0  0  0  0  0999 V2000
   -1.6650   -1.0729    8.5752 C   0  0  0  0  0  0  0  0  0  0  0  0
   -1.8593    0.2006    7.7047 C   0  0  0  0  0  0  0  0  0  0  0  0
   -1.7100    1.4405    8.5937 C   0  0  0  0  0  0  0  0  0  0  0  0
   -2.6378    1.3919    9.7514 C   0  0  0  0  0  0  0  0  0  0  0  0
   -2.3960    0.1939   10.5480 N   0  0  0  0  0  0  0  0  0  0  0  0
   -2.5619   -1.0616    9.8197 C   0  0  0  0  0  0  0  0  0  0  0  0
   -1.9695    0.2022   11.8616 C   0  0  0  0  0  0  0  0  0  0  0  0
   -1.8212    1.4946   12.5485 C   0  0  0  0  0  0  0  0  0  0  0  0
   -2.9015    2.3620   12.7171 C   0  0  0  0  0  0  0  0  0  0  0  0
   -2.7550    3.5930   13.2614 N   0  0  0  0  0  0  0  0  0  0  0  0
   -1.5261    3.9233   13.6791 C   0  0  0  0  0  0  0  0  0  0  0  0
   -0.4329    3.1533   13.5947 N   0  0  0  0  0  0  0  0  0  0  0  0
   -0.5893    1.9305   13.0289 C   0  0  0  0  0  0  0  0  0  0  0  0
   -3.5339   -1.1035    6.3375 C   0  0  0  0  0  0  0  0  0  0  0  0
   -2.6759   -1.2672    5.0654 C   0  0  1  0  0  0  0  0  0  0  0  0
   -2.8319    0.0126    4.2521 N   0  0  0  0  0  0  0  0  0  0  0  0
   -2.8101    1.3099    4.9722 C   0  0  0  0  0  0  0  0  0  0  0  0
   -3.5331    1.3129    6.3375 C   0  0  0  0  0  0  0  0  0  0  0  0
   -3.2260    0.1235    7.1332 N   0  0  0  0  0  0  0  0  0  0  0  0
   -3.3642   -1.3192    0.0789 C   0  0  0  0  0  0  0  0  0  0  0  0
   -3.8890   -0.2617   -0.6747 C   0  0  0  0  0  0  0  0  0  0  0  0
   -4.1559    0.9630   -0.0614 C   0  0  0  0  0  0  0  0  0  0  0  0
   -3.8626    1.1358    1.2738 C   0  0  0  0  0  0  0  0  0  0  0  0
   -3.6788   -0.0026    2.0491 C   0  0  0  0  0  0  0  0  0  0  0  0
   -3.2532   -1.1908    1.4515 C   0  0  0  0  0  0  0  0  0  0  0  0
   -4.1153   -0.0129    3.4967 C   0  0  2  0  0  0  0  0  0  0  0  0
   -4.0792   -0.3676   -2.1533 C   0  0  0  0  0  0  0  0  0  0  0  0
   -5.3840   -0.2967   -2.5313 F   0  0  0  0  0  0  0  0  0  0  0  0
   -3.4431    0.6480   -2.7989 F   0  0  0  0  0  0  0  0  0  0  0  0
   -3.5866   -1.5202   -2.6761 F   0  0  0  0  0  0  0  0  0  0  0  0
   -4.3029    2.0162   12.2984 C   0  0  0  0  0  0  0  0  0  0  0  0
    0.6627    1.1068   12.9352 C   0  0  0  0  0  0  0  0  0  0  0  0
   -0.7014    0.4849    6.7292 C   0  0  0  0  0  0  0  0  0  0  0  0
   -1.2630   -1.9738    5.3105 C   0  0  0  0  0  0  0  0  0  0  0  0
   -5.2474    1.0837    3.8394 C   0  0  0  0  0  0  0  0  0  0  0  0
   -6.5709    0.9375    3.3361 O   0  0  0  0  0  0  0  0  0  0  0  0
   -6.6408    1.0870    1.9435 C   0  0  0  0  0  0  0  0  0  0  0  0
   -1.6927   -0.8327   12.4974 O   0  0  0  0  0  0  0  0  0  0  0  0
  1  2  1  0
  1  6  1  0
  2  3  1  0
  2 19  1  0
  2 33  1  0
  3  4  1  0
  4  5  1  0
  5  6  1  0
  5  7  1  0
  7  8  1  0
  7 38  2  0
  8  9  2  0
  8 13  1  0
  9 10  1  0
  9 31  1  0
 10 11  2  0
 11 12  1  0
 12 13  2  0
 13 32  1  0
 14 15  1  0
 14 19  1  0
 15 16  1  0
 15 34  1  1
 16 17  1  0
 17 18  1  0
 18 19  1  0
 20 21  2  0
 20 25  1  0
 21 22  1  0
 21 27  1  0
 22 23  2  0
 23 24  1  0
 24 25  2  0
 26 35  1  1
 26 24  1  0
 26 16  1  0
 27 28  1  0
 27 29  1  0
 27 30  1  0
 35 36  1  0
 36 37  1  0
M  END
>  <DRUGBANK_ID>  (1) 
DB06652

>  <COMMON_NAME>  (1) 
Vicriviroc

>  <CAS_NUMBER>  (1) 
306296-47-9

>  <UNII>  (1) 
TL515DW4QS

>  <SYNONYMS>  (1) 
Vicriviroc

$$$$
