
     RDKit          3D

 31 31  0  0  0  0  0  0  0  0999 V2000
    0.9913   -0.2035   -0.0447 C   0  0  0  0  0  0  0  0  0  0  0  0
    0.5479    0.0960    1.3780 C   0  0  0  0  0  0  0  0  0  0  0  0
    1.0454    1.4755    1.8120 C   0  0  0  0  0  0  0  0  0  0  0  0
    0.4900    2.5786    0.9044 C   0  0  0  0  0  0  0  0  0  0  0  0
   -1.0426    2.5793    0.9278 C   0  0  0  0  0  0  0  0  0  0  0  0
   -1.5459    2.8471    2.3491 C   0  0  0  0  0  0  0  0  0  0  0  0
   -1.0382    4.2104    2.8275 C   0  0  0  0  0  0  0  0  0  0  0  0
   -1.5512    5.3058    1.8881 C   0  0  0  0  0  0  0  0  0  0  0  0
   -3.0822    5.2970    1.8898 C   0  0  0  0  0  0  0  0  0  0  0  0
   -3.5839    5.5484    3.3150 C   0  0  0  0  0  0  0  0  0  0  0  0
   -3.0692    6.9083    3.7950 C   0  0  0  0  0  0  0  0  0  0  0  0
   -3.5868    7.9926    2.8473 C   0  0  0  0  0  0  0  0  0  0  0  0
   -5.1204    7.9448    2.8354 C   0  0  0  0  0  0  0  0  0  0  0  0
   -5.6453    8.1953    4.2532 C   0  0  0  0  0  0  0  0  0  0  0  0
   -5.1265    9.5490    4.7277 C   0  0  0  0  0  0  0  0  0  0  0  0
   -5.5967   10.6180    3.7373 C   0  0  0  0  0  0  0  0  0  0  0  0
   -7.1065   10.7804    3.7932 C   0  0  0  0  0  0  0  0  0  0  0  0
   -7.5795   10.9970    5.2181 C   0  0  0  0  0  0  0  0  0  0  0  0
   -6.8719   11.9223    6.0126 O   0  0  0  0  0  0  0  0  0  0  0  0
   -5.9454   13.1922    5.6565 P   0  0  0  0  0  0  0  0  0  0  0  0
   -6.0864   13.6969    4.2397 O   0  0  0  0  0  0  0  0  0  0  0  0
   -6.0455   14.1051    6.8339 O   0  0  0  0  0  0  0  0  0  0  0  0
   -4.4571   12.5629    5.7747 O   0  0  0  0  0  0  0  0  0  0  0  0
   -3.2947   13.3698    5.5779 C   0  0  0  0  0  0  0  0  0  0  0  0
   -2.2044   12.5018    6.1896 C   0  0  0  0  0  0  0  0  0  0  0  0
   -2.5832   12.3063    7.6601 C   0  0  0  0  0  0  0  0  0  0  0  0
   -2.5363   13.6326    8.4372 N   0  0  0  0  0  0  0  0  0  0  0  0
   -3.4357   14.6930    7.7764 C   0  0  0  0  0  0  0  0  0  0  0  0
   -3.2316   14.7422    6.2719 C   0  0  0  0  0  0  0  0  0  0  0  0
   -3.1336   13.3842    9.8214 C   0  0  0  0  0  0  0  0  0  0  0  0
   -1.1224   14.1331    8.5677 C   0  0  0  0  0  0  0  0  0  0  0  0
  1  2  1  0
  2  3  1  0
  3  4  1  0
  4  5  1  0
  5  6  1  0
  6  7  1  0
  7  8  1  0
  8  9  1  0
  9 10  1  0
 10 11  1  0
 11 12  1  0
 12 13  1  0
 13 14  1  0
 14 15  1  0
 15 16  1  0
 16 17  1  0
 17 18  1  0
 18 19  1  0
 19 20  1  0
 20 21  2  0
 20 22  1  0
 20 23  1  0
 23 24  1  0
 24 25  1  0
 24 29  1  0
 25 26  1  0
 26 27  1  0
 27 28  1  0
 27 30  1  0
 27 31  1  0
 28 29  1  0
M  CHG  2  22  -1  27   1
M  END
>  <DRUGBANK_ID>  (1) 
DB06641

>  <COMMON_NAME>  (1) 
Perifosine

>  <CAS_NUMBER>  (1) 
157716-52-4

>  <UNII>  (1) 
2GWV496552

>  <SYNONYMS>  (1) 
Perifosine

$$$$
