
     RDKit          3D

  7  6  0  0  0  0  0  0  0  0999 V2000
    1.0860    0.1192    0.0915 C   0  0  0  0  0  0  0  0  0  0  0  0
    0.5869   -0.0682    1.4140 O   0  0  0  0  0  0  0  0  0  0  0  0
    1.1636   -1.5065    2.1831 P   0  0  0  0  0  0  0  0  0  0  0  0
    0.4107   -0.9779    3.5403 O   0  0  0  0  0  0  0  0  0  0  0  0
   -0.1575   -2.6645    1.1947 S   0  0  0  0  0  0  0  0  0  0  0  0
    1.7403   -2.9449    2.9522 O   0  0  0  0  0  0  0  0  0  0  0  0
    1.9912   -2.8690    4.3475 C   0  0  0  0  0  0  0  0  0  0  0  0
  1  2  1  0
  2  3  1  0
  3  4  1  0
  3  5  2  0
  3  6  1  0
  6  7  1  0
M  END
>  <DRUGBANK_ID>  (1) 
DB04687

>  <COMMON_NAME>  (1) 
DIMETHYL THIOPHOSPHATE

>  <UNII>  (1) 
6KM8HRE9WB

$$$$
