
     RDKit          3D

 24 26  0  0  0  0  0  0  0  0999 V2000
   -0.7962   -2.1404    0.0719 O   0  0  0  0  0  0  0  0  0  0  0  0
    1.7884   -2.6963    0.0728 O   0  0  0  0  0  0  0  0  0  0  0  0
    2.7238    2.1950   -0.0590 O   0  0  0  0  0  0  0  0  0  0  0  0
    0.1340    2.6075    0.0006 O   0  0  0  0  0  0  0  0  0  0  0  0
    3.6920   -0.6778   -0.0399 O   0  0  0  0  0  0  0  0  0  0  0  0
   -2.3659    1.6111    0.0063 O   0  0  0  0  0  0  0  0  0  0  0  0
   -2.2810   -3.9361    2.0910 O   0  0  0  0  0  0  0  0  0  0  0  0
   -0.3727    0.2600    0.0189 C   0  0  0  0  0  0  0  0  0  0  0  0
    0.0752   -1.0667    0.0435 C   0  0  0  0  0  0  0  0  0  0  0  0
    1.4564   -1.3529    0.0392 C   0  0  0  0  0  0  0  0  0  0  0  0
    0.5674    1.3033    0.0023 C   0  0  0  0  0  0  0  0  0  0  0  0
   -2.1522   -1.8975   -0.0388 C   0  0  0  0  0  0  0  0  0  0  0  0
   -1.8353    0.5033   -0.0090 C   0  0  0  0  0  0  0  0  0  0  0  0
    1.9581    1.0497   -0.0200 C   0  0  0  0  0  0  0  0  0  0  0  0
    2.3877   -0.2880   -0.0060 C   0  0  0  0  0  0  0  0  0  0  0  0
   -2.7023   -0.6791   -0.0727 C   0  0  0  0  0  0  0  0  0  0  0  0
   -3.0085   -3.0961   -0.0809 C   0  0  0  0  0  0  0  0  0  0  0  0
   -3.0319   -4.0460    0.9515 C   0  0  0  0  0  0  0  0  0  0  0  0
   -3.8614   -3.2935   -1.1832 C   0  0  0  0  0  0  0  0  0  0  0  0
   -3.8673   -5.1615    0.8804 C   0  0  0  0  0  0  0  0  0  0  0  0
   -4.7064   -4.4051   -1.2496 C   0  0  0  0  0  0  0  0  0  0  0  0
   -4.7049   -5.3413   -0.2193 C   0  0  0  0  0  0  0  0  0  0  0  0
    3.1709   -3.0630    0.0749 C   0  0  0  0  0  0  0  0  0  0  0  0
    4.1374    2.0790   -0.1125 C   0  0  0  0  0  0  0  0  0  0  0  0
  1  9  1  0
  1 12  1  0
  2 10  1  0
  2 23  1  0
  3 14  1  0
  3 24  1  0
  4 11  1  0
  5 15  1  0
  6 13  2  0
  7 18  1  0
  8  9  2  0
  8 11  1  0
  8 13  1  0
  9 10  1  0
 10 15  2  0
 11 14  2  0
 12 16  2  0
 12 17  1  0
 13 16  1  0
 14 15  1  0
 17 18  2  0
 17 19  1  0
 18 20  1  0
 19 21  2  0
 20 22  2  0
 21 22  1  0
M  END
>  <DRUGBANK_ID>  (1) 
DB13983

>  <COMMON_NAME>  (1) 
5,7,2â€²-trihydroxy-6,8-dimethoxyflavone

>  <CAS_NUMBER>  (1) 
159359-22-5

>  <SYNONYMS>  (1) 
5,7-Dihydroxy-2-(2-hydroxyphenyl)-6,8-dimethoxy-4H-1-benzopyran-4-one

$$$$
