
     RDKit          3D

  1  0  0  0  0  0  0  0  0  0999 V2000
    1.0345    0.0236   -0.0908 B   0  0  0  0  0 15  0  0  0  0  0  0
M  END
>  <DRUGBANK_ID>  (1) 
DB11203

>  <COMMON_NAME>  (1) 
Boron

>  <CAS_NUMBER>  (1) 
7440-42-8

>  <UNII>  (1) 
N9E3X5056Q

>  <SYNONYMS>  (1) 
Bor; Boracium; Bore; Boro

$$$$
