
     RDKit          3D

 33 34  0  0  1  0  0  0  0  0999 V2000
   -0.9361   -2.4288   -1.7442 C   0  0  0  0  0  0  0  0  0  0  0  0
   -1.5059   -0.9232   -0.8233 C   0  0  0  0  0  0  0  0  0  0  0  0
   -3.7382   -0.3460   -0.7705 C   0  0  0  0  0  0  0  0  0  0  0  0
   -0.9736   -1.2394    0.6349 C   0  0  2  0  0  0  0  0  0  0  0  0
    0.6258   -1.3575    0.4865 C   0  0  0  0  0  0  0  0  0  0  0  0
    1.3815   -0.1712   -0.2509 C   0  0  0  0  0  0  0  0  0  0  0  0
    1.1941    1.2259    0.3206 C   0  0  0  0  0  0  0  0  0  0  0  0
    1.6485    1.4662    1.7133 N   0  0  0  0  0  0  0  0  0  0  0  0
    1.1241    2.6924    2.3321 C   0  0  0  0  0  0  0  0  0  0  0  0
    1.1288    0.4208    2.5129 C   0  0  0  0  0  0  0  0  0  0  0  0
   -0.2854    0.2536    2.0015 C   0  0  0  0  0  0  0  0  0  0  0  0
   -1.8239    0.3947    0.5069 C   0  0  0  0  0  0  0  0  0  0  0  0
   -2.9015   -1.1986    0.6329 C   0  0  0  0  0  0  0  0  0  0  0  0
   -2.9922   -2.0045   -1.0472 C   0  0  0  0  0  0  0  0  0  0  0  0
   -2.6444   -0.5504   -2.3012 C   0  0  0  0  0  0  0  0  0  0  0  0
   -2.4862    1.1372   -1.6551 C   0  0  0  0  0  0  0  0  0  0  0  0
   -2.2135    1.4717   -0.3374 C   0  0  0  0  0  0  0  0  0  0  0  0
   -3.3284    2.3554   -1.8592 C   0  0  0  0  0  0  0  0  0  0  0  0
   -3.3956    3.4335   -1.2702 O   0  0  0  0  0  0  0  0  0  0  0  0
   -4.1017    1.9033   -2.8165 O   0  0  0  0  0  0  0  0  0  0  0  0
   -4.7632    3.0161   -3.3121 C   0  0  0  0  0  0  0  0  0  0  0  0
   -1.4802   -2.5475    1.2203 C   0  0  0  0  0  0  0  0  0  0  0  0
   -1.9006   -3.6326    1.7058 N   0  0  0  0  0  0  0  0  0  0  0  0
   -2.0250   -0.0928    2.1800 C   0  0  0  0  0  0  0  0  0  0  0  0
   -2.7177   -0.3325    3.2869 C   0  0  0  0  0  0  0  0  0  0  0  0
   -2.7180    0.8987    3.9162 C   0  0  0  0  0  0  0  0  0  0  0  0
   -2.4339    2.4075    3.3948 C   0  0  0  0  0  0  0  0  0  0  0  0
   -2.0199    2.9018    2.2361 C   0  0  0  0  0  0  0  0  0  0  0  0
   -1.6847    1.7398    1.8503 C   0  0  0  0  0  0  0  0  0  0  0  0
   -1.3843    3.8877    1.5853 O   0  0  0  0  0  0  0  0  0  0  0  0
   -1.0126    4.8473    2.5160 C   0  0  0  0  0  0  0  0  0  0  0  0
   -2.2158    3.3956    4.2785 O   0  0  0  0  0  0  0  0  0  0  0  0
   -2.7403    3.0371    5.4875 C   0  0  0  0  0  0  0  0  0  0  0  0
  1  2  1  0
  2  3  1  0
  4 22  1  1
  4 24  1  0
  4  5  1  0
  4  2  1  0
  5  6  1  0
  6  7  1  0
  7  8  1  0
  8  9  1  0
  8 10  1  0
 10 11  1  0
 11 12  1  0
 12 13  2  0
 12 17  1  0
 13 14  1  0
 14 15  2  0
 15 16  1  0
 16 17  2  0
 16 18  1  0
 18 19  2  0
 18 20  1  0
 20 21  1  0
 22 23  3  0
 24 25  2  0
 24 29  1  0
 25 26  1  0
 26 27  2  0
 27 28  1  0
 27 32  1  0
 28 29  2  0
 28 30  1  0
 30 31  1  0
 32 33  1  0
M  END
>  <DRUGBANK_ID>  (1) 
DB12605

>  <COMMON_NAME>  (1) 
Etripamil

>  <CAS_NUMBER>  (1) 
1593673-23-4

>  <UNII>  (1) 
S82A18Y42P

>  <SYNONYMS>  (1) 
Etripamil

$$$$
