
     RDKit          3D

 20 20  0  0  0  0  0  0  0  0999 V2000
   -1.6607   -0.2401   -0.0079 Br  0  0  0  0  0  0  0  0  0  0  0  0
    4.2696    0.0744    0.6646 O   0  0  0  0  0  0  0  0  0  0  0  0
    2.2850   -3.7322   -0.0514 O   0  0  0  0  0  0  0  0  0  0  0  0
    4.3299   -2.9413   -0.2981 N   0  0  0  0  0  0  0  0  0  0  0  0
    0.2546    2.3001    0.0900 N   0  0  0  0  0  0  0  0  0  0  0  0
    7.1192   -2.9839    1.3012 N   0  0  0  0  0  0  0  0  0  0  0  0
    2.3727   -1.3499    0.0401 C   0  0  0  0  0  0  0  0  0  0  0  0
    3.0093   -0.0867    0.1481 C   0  0  0  0  0  0  0  0  0  0  0  0
    0.2365   -0.1632   -0.0412 C   0  0  0  0  0  0  0  0  0  0  0  0
    3.0059   -2.7138   -0.0673 C   0  0  0  0  0  0  0  0  0  0  0  0
    0.9611   -1.3607   -0.0302 C   0  0  0  0  0  0  0  0  0  0  0  0
    0.8931    1.0730   -0.0745 C   0  0  0  0  0  0  0  0  0  0  0  0
    2.2766    1.0850    0.0062 C   0  0  0  0  0  0  0  0  0  0  0  0
    5.4554   -2.0240   -0.3034 C   0  0  0  0  0  0  0  0  0  0  0  0
    6.1974   -1.8620    1.0622 C   0  0  0  0  0  0  0  0  0  0  0  0
    5.1123    1.1370    0.1799 C   0  0  0  0  0  0  0  0  0  0  0  0
    8.0000   -2.8025    2.4576 C   0  0  0  0  0  0  0  0  0  0  0  0
    6.4438   -4.2825    1.2786 C   0  0  0  0  0  0  0  0  0  0  0  0
    7.3182   -2.7488    3.8177 C   0  0  0  0  0  0  0  0  0  0  0  0
    5.2635   -4.4422    2.2433 C   0  0  0  0  0  0  0  0  0  0  0  0
  1  9  1  0
  2  8  1  0
  2 16  1  0
  3 10  2  0
  4 10  1  0
  4 14  1  0
  5 12  1  0
  6 15  1  0
  6 17  1  0
  6 18  1  0
  7  8  2  0
  7 10  1  0
  7 11  1  0
  8 13  1  0
  9 11  2  0
  9 12  1  0
 12 13  2  0
 14 15  1  0
 17 19  1  0
 18 20  1  0
M  END
>  <DRUGBANK_ID>  (1) 
DB09018

>  <COMMON_NAME>  (1) 
Bromopride

>  <CAS_NUMBER>  (1) 
4093-35-0

>  <UNII>  (1) 
75473V2YZK

>  <SYNONYMS>  (1) 
4-amino-5-bromo-N-[2-(diethylamino)ethyl]-2-methoxybenzamide; Bromoprid; Bromoprida; Bromopride; Bromopridum

$$$$
