
     RDKit          3D

 16 17  0  0  0  0  0  0  0  0999 V2000
    1.4237   -0.2393   -0.0562 C   0  0  0  0  0  0  0  0  0  0  0  0
    0.5320   -1.2718   -0.3644 C   0  0  0  0  0  0  0  0  0  0  0  0
    2.7380   -0.2698    0.3368 O   0  0  0  0  0  0  0  0  0  0  0  0
    0.8987    1.0733   -0.0039 C   0  0  0  0  0  0  0  0  0  0  0  0
   -0.8479   -1.0274   -0.1972 C   0  0  0  0  0  0  0  0  0  0  0  0
    0.7057   -2.5505   -0.8281 O   0  0  0  0  0  0  0  0  0  0  0  0
    3.3776   -1.4854    0.7402 C   0  0  0  0  0  0  0  0  0  0  0  0
   -0.4802    1.3179    0.0253 C   0  0  0  0  0  0  0  0  0  0  0  0
   -1.3601    0.2519   -0.0215 C   0  0  0  0  0  0  0  0  0  0  0  0
    1.9617   -3.0845   -1.1350 C   0  0  0  0  0  0  0  0  0  0  0  0
    2.6829   -2.4245    1.8879 C   0  0  0  0  0  0  0  0  0  0  0  0
    2.9697   -3.9477    1.8217 C   0  0  0  0  0  0  0  0  0  0  0  0
    1.2284   -2.4180    2.0012 O   0  0  0  0  0  0  0  0  0  0  0  0
    1.7019   -4.5480    1.5231 N   0  0  0  0  0  0  0  0  0  0  0  0
    0.6876   -3.6354    1.6400 C   0  0  0  0  0  0  0  0  0  0  0  0
   -0.4673   -3.8647    1.3752 O   0  0  0  0  0  0  0  0  0  0  0  0
  1  2  2  0
  1  3  1  0
  1  4  1  0
  2  5  1  0
  2  6  1  0
  3  7  1  0
  4  8  2  0
  5  9  2  0
  6 10  1  0
  7 11  1  0
  8  9  1  0
 11 12  1  0
 11 13  1  0
 12 14  1  0
 13 15  1  0
 14 15  1  0
 15 16  2  0
M  END
>  <DRUGBANK_ID>  (1) 
DB13754

>  <COMMON_NAME>  (1) 
Mephenoxalone

>  <CAS_NUMBER>  (1) 
70-07-5

>  <UNII>  (1) 
CZ87T54W8W

>  <SYNONYMS>  (1) 
Mefenoxalona; Mephenoxalone; Mephenoxalonum

$$$$
