
     RDKit          3D

 36 41  0  0  0  0  0  0  0  0999 V2000
    0.9776   -0.0794   -0.1929 S   0  0  0  0  0  0  0  0  0  0  0  0
    1.7238   -0.1196   -7.5758 F   0  0  0  0  0  0  0  0  0  0  0  0
    0.6590    4.1099   -9.3062 F   0  0  0  0  0  0  0  0  0  0  0  0
    0.5617   -1.3275    0.3947 O   0  0  0  0  0  0  0  0  0  0  0  0
    0.4699    1.1660    0.3751 O   0  0  0  0  0  0  0  0  0  0  0  0
    0.3795   -0.1121   -1.7645 N   0  0  0  0  0  0  0  0  0  0  0  0
    4.3199   -1.7770   -3.9830 N   0  0  0  0  0  0  0  0  0  0  0  0
    6.4906   -2.3498   -3.9780 N   0  0  0  0  0  0  0  0  0  0  0  0
    5.4915   -9.3383   -4.2740 N   0  0  0  0  0  0  0  0  0  0  0  0
    6.2098   -9.2338   -3.1391 N   0  0  0  0  0  0  0  0  0  0  0  0
    2.7689    0.0111    0.1050 C   0  0  0  0  0  0  0  0  0  0  0  0
    3.6122    0.7634   -0.8937 C   0  0  0  0  0  0  0  0  0  0  0  0
    3.7495   -0.7280   -0.7421 C   0  0  0  0  0  0  0  0  0  0  0  0
    1.1612   -0.1522   -2.9362 C   0  0  0  0  0  0  0  0  0  0  0  0
    2.0724   -1.1729   -3.1480 C   0  0  0  0  0  0  0  0  0  0  0  0
    1.0381    0.8360   -3.8934 C   0  0  0  0  0  0  0  0  0  0  0  0
    3.1458   -0.9769   -4.0380 C   0  0  0  0  0  0  0  0  0  0  0  0
    1.9541    0.8865   -4.9605 C   0  0  0  0  0  0  0  0  0  0  0  0
    3.0782    0.0508   -4.9588 C   0  0  0  0  0  0  0  0  0  0  0  0
    4.3622   -3.1464   -3.8526 C   0  0  0  0  0  0  0  0  0  0  0  0
    1.6947    1.7517   -6.0988 C   0  0  0  0  0  0  0  0  0  0  0  0
    5.7142   -3.4785   -3.8980 C   0  0  0  0  0  0  0  0  0  0  0  0
    5.6341   -1.3502   -4.0356 C   0  0  0  0  0  0  0  0  0  0  0  0
    3.3471   -4.0998   -3.7947 C   0  0  0  0  0  0  0  0  0  0  0  0
    6.0891   -4.8322   -3.8757 C   0  0  0  0  0  0  0  0  0  0  0  0
    5.0746   -5.8043   -3.8356 C   0  0  0  0  0  0  0  0  0  0  0  0
    3.7275   -5.4344   -3.7890 C   0  0  0  0  0  0  0  0  0  0  0  0
    1.5553    1.1995   -7.3850 C   0  0  0  0  0  0  0  0  0  0  0  0
    1.5022    3.1259   -5.9234 C   0  0  0  0  0  0  0  0  0  0  0  0
    5.4102   -7.2048   -3.8002 C   0  0  0  0  0  0  0  0  0  0  0  0
    1.2141    1.9839   -8.4722 C   0  0  0  0  0  0  0  0  0  0  0  0
    1.1491    3.9180   -7.0105 C   0  0  0  0  0  0  0  0  0  0  0  0
    4.9815   -8.1487   -4.7080 C   0  0  0  0  0  0  0  0  0  0  0  0
    6.1576   -7.9302   -2.8540 C   0  0  0  0  0  0  0  0  0  0  0  0
    1.0072    3.3396   -8.2696 C   0  0  0  0  0  0  0  0  0  0  0  0
    5.3284  -10.6307   -4.8935 C   0  0  0  0  0  0  0  0  0  0  0  0
  1  4  2  0
  1  5  2  0
  1  6  1  0
  1 11  1  0
  2 28  1  0
  3 35  1  0
  6 14  1  0
  7 17  1  0
  7 20  1  0
  7 23  1  0
  8 22  1  0
  8 23  2  0
  9 10  1  0
  9 33  1  0
  9 36  1  0
 10 34  2  0
 11 12  1  0
 11 13  1  0
 12 13  1  0
 14 15  2  0
 14 16  1  0
 15 17  1  0
 16 18  2  0
 17 19  2  0
 18 19  1  0
 18 21  1  0
 20 22  2  0
 20 24  1  0
 21 28  2  0
 21 29  1  0
 22 25  1  0
 24 27  2  0
 25 26  2  0
 26 27  1  0
 26 30  1  0
 28 31  1  0
 29 32  2  0
 30 33  2  0
 30 34  1  0
 31 35  2  0
 32 35  1  0
M  END
>  <DRUGBANK_ID>  (1) 
DB16843

>  <COMMON_NAME>  (1) 
ODM-203

>  <CAS_NUMBER>  (1) 
1430723-35-5

>  <UNII>  (1) 
Y7HJ4D4CRT

$$$$
