
     RDKit          3D

 31 34  0  0  1  0  0  0  0  0999 V2000
   -4.8795   -2.7554    2.3008 C   0  0  0  0  0  0  0  0  0  0  0  0
   -4.7773   -1.7600    1.1774 C   0  0  0  0  0  0  0  0  0  0  0  0
   -5.7203   -1.8617    0.1433 C   0  0  0  0  0  0  0  0  0  0  0  0
   -5.6015   -1.0501   -0.9644 C   0  0  0  0  0  0  0  0  0  0  0  0
   -4.5339   -0.1460   -1.0009 C   0  0  0  0  0  0  0  0  0  0  0  0
   -3.7351    0.2094    0.1164 C   0  0  0  0  0  0  0  0  0  0  0  0
   -3.7946   -0.7198    1.1689 C   0  0  0  0  0  0  0  0  0  0  0  0
   -2.8633    1.5451    0.1122 C   0  0  2  0  0  0  0  0  0  0  0  0
   -3.4509    2.9293    0.6663 C   0  0  0  0  0  0  0  0  0  0  0  0
   -4.7293    3.0712   -0.0361 C   0  0  0  0  0  0  0  0  0  0  0  0
   -4.1598    2.7040   -1.4337 C   0  0  0  0  0  0  0  0  0  0  0  0
   -2.7650    2.0750   -1.2785 N   0  0  0  0  0  0  0  0  0  0  0  0
   -1.5014    2.9697   -1.4139 C   0  0  0  0  0  0  0  0  0  0  0  0
   -1.0746    3.9971   -0.2879 C   0  0  0  0  0  0  0  0  0  0  0  0
   -0.5489    3.5182    0.9331 C   0  0  0  0  0  0  0  0  0  0  0  0
   -0.6977    4.2557    2.1179 C   0  0  0  0  0  0  0  0  0  0  0  0
   -1.3032    5.5169    2.1223 C   0  0  0  0  0  0  0  0  0  0  0  0
   -1.7548    6.0509    0.9131 C   0  0  0  0  0  0  0  0  0  0  0  0
   -1.6162    5.3152   -0.2878 C   0  0  0  0  0  0  0  0  0  0  0  0
   -1.6287    6.2019    3.2802 O   0  0  0  0  0  0  0  0  0  0  0  0
   -0.9211    5.9425    4.4354 C   0  0  0  0  0  0  0  0  0  0  0  0
    0.4656    5.7736    4.4343 C   0  0  0  0  0  0  0  0  0  0  0  0
    1.1486    5.4998    5.6187 C   0  0  0  0  0  0  0  0  0  0  0  0
    0.4659    5.4687    6.8378 C   0  0  0  0  0  0  0  0  0  0  0  0
   -0.9142    5.7225    6.8539 C   0  0  0  0  0  0  0  0  0  0  0  0
   -1.6031    5.9084    5.6523 C   0  0  0  0  0  0  0  0  0  0  0  0
   -2.9406    6.0090    5.6831 F   0  0  0  0  0  0  0  0  0  0  0  0
    1.1429    5.1305    8.1295 C   0  0  0  0  0  0  0  0  0  0  0  0
    0.5421    5.1119    9.1760 O   0  0  0  0  0  0  0  0  0  0  0  0
    2.4817    4.8061    8.0855 N   0  0  0  0  0  0  0  0  0  0  0  0
   -6.6065   -1.0599   -2.0802 C   0  0  0  0  0  0  0  0  0  0  0  0
  1  2  1  0
  2  3  2  0
  2  7  1  0
  3  4  1  0
  4  5  2  0
  4 31  1  0
  5  6  1  0
  6  7  2  0
  8  9  1  0
  8 12  1  0
  8  6  1  6
  9 10  1  0
 10 11  1  0
 11 12  1  0
 12 13  1  0
 13 14  1  0
 14 15  2  0
 14 19  1  0
 15 16  1  0
 16 17  2  0
 17 18  1  0
 17 20  1  0
 18 19  2  0
 20 21  1  0
 21 22  2  0
 21 26  1  0
 22 23  1  0
 23 24  2  0
 24 25  1  0
 24 28  1  0
 25 26  2  0
 26 27  1  0
 28 29  2  0
 28 30  1  0
M  END
>  <DRUGBANK_ID>  (1) 
DB12341

>  <COMMON_NAME>  (1) 
Aticaprant

>  <CAS_NUMBER>  (1) 
1174130-61-0

>  <UNII>  (1) 
DE4G8X55F5

>  <SYNONYMS>  (1) 
BENZAMIDE, 4-(4-(((2S)-2-(3,5-DIMETHYLPHENYL)-1-PYRROLIDINYL)METHYL)PHENOXY)-3-FLUORO-

$$$$
