
     RDKit          3D

 35 39  0  0  0  0  0  0  0  0999 V2000
    1.1049   -0.5476    0.3454 C   0  0  0  0  0  0  0  0  0  0  0  0
    0.8284   -1.9588   -0.2097 C   0  0  0  0  0  0  0  0  0  0  0  0
    1.0942   -2.8143    1.0156 C   0  0  0  0  0  0  0  0  0  0  0  0
    0.5576   -2.2783    2.3420 N   0  0  0  0  0  0  0  0  0  0  0  0
    0.4890   -0.8917    2.8778 C   0  0  0  0  0  0  0  0  0  0  0  0
    0.0227   -0.9203    4.1045 N   0  0  0  0  0  0  0  0  0  0  0  0
   -0.2805   -2.2238    4.3977 C   0  0  0  0  0  0  0  0  0  0  0  0
   -0.8001   -2.4571    5.7438 C   0  0  0  0  0  0  0  0  0  0  0  0
   -1.9271   -1.7464    6.2074 C   0  0  0  0  0  0  0  0  0  0  0  0
   -2.4252   -1.9382    7.5074 C   0  0  0  0  0  0  0  0  0  0  0  0
   -1.7695   -2.8042    8.3803 C   0  0  0  0  0  0  0  0  0  0  0  0
   -2.4833   -3.1020    9.9281 Cl  0  0  0  0  0  0  0  0  0  0  0  0
   -0.5784   -3.4129    7.9703 C   0  0  0  0  0  0  0  0  0  0  0  0
    0.3364   -4.4301    9.0279 Cl  0  0  0  0  0  0  0  0  0  0  0  0
   -0.0903   -3.2262    6.6662 C   0  0  0  0  0  0  0  0  0  0  0  0
    0.0303   -3.1181    3.3551 C   0  0  0  0  0  0  0  0  0  0  0  0
   -0.1012   -4.6010    3.2494 C   0  0  0  0  0  0  0  0  0  0  0  0
    0.9596   -5.4358    2.9867 C   0  0  0  0  0  0  0  0  0  0  0  0
    0.6928   -6.7915    2.9967 C   0  0  0  0  0  0  0  0  0  0  0  0
   -0.5194   -7.3226    3.2352 N   0  0  0  0  0  0  0  0  0  0  0  0
   -1.5063   -6.4546    3.4608 C   0  0  0  0  0  0  0  0  0  0  0  0
   -2.7504   -6.9965    3.6865 N   0  0  0  0  0  0  0  0  0  0  0  0
   -3.9129   -6.1881    3.9982 C   0  0  0  0  0  0  0  0  0  0  0  0
   -4.2756   -5.3007    2.7993 C   0  0  0  0  0  0  0  0  0  0  0  0
   -5.4022   -4.3324    3.1201 C   0  0  0  0  0  0  0  0  0  0  0  0
   -5.0839   -3.5067    4.3615 C   0  0  0  0  0  0  0  0  0  0  0  0
   -4.8191   -4.4037    5.5658 C   0  0  0  0  0  0  0  0  0  0  0  0
   -3.6960   -5.3901    5.2910 C   0  0  0  0  0  0  0  0  0  0  0  0
   -1.3257   -5.1108    3.4662 N   0  0  0  0  0  0  0  0  0  0  0  0
    0.8247    0.6807    2.1222 C   0  0  0  0  0  0  0  0  0  0  0  0
   -0.5179    0.8910    0.7384 C   0  0  0  0  0  0  0  0  0  0  0  0
   -0.0606    0.2174   -1.0662 C   0  0  0  0  0  0  0  0  0  0  0  0
    1.7778   -0.0112   -1.5388 N   0  0  0  0  0  0  0  0  0  0  0  0
    3.1238   -0.1874   -0.1451 C   0  0  0  0  0  0  0  0  0  0  0  0
    2.6708    0.7106    1.5519 C   0  0  0  0  0  0  0  0  0  0  0  0
  1  2  1  0
  2  3  1  0
  3  4  1  0
  4  5  1  0
  4 16  1  0
  5  6  2  0
  5 30  1  0
  6  7  1  0
  7  8  1  0
  7 16  2  0
  8  9  2  0
  8 15  1  0
  9 10  1  0
 10 11  2  0
 11 12  1  0
 11 13  1  0
 13 14  1  0
 13 15  2  0
 16 17  1  0
 17 18  2  0
 17 29  1  0
 18 19  1  0
 19 20  2  0
 20 21  1  0
 21 22  1  0
 21 29  2  0
 22 23  1  0
 23 24  1  0
 23 28  1  0
 24 25  1  0
 25 26  1  0
 26 27  1  0
 27 28  1  0
 30 31  1  0
 30 35  1  0
 31 32  1  0
 32 33  1  0
 33 34  1  0
 34 35  1  0
M  END
>  <DRUGBANK_ID>  (1) 
DB02388

>  <SECONDARY_ACCESSION_NUMBERS>  (1) 
EXPT00330

>  <COMMON_NAME>  (1) 
Cyclohexyl-{4-[5-(3,4-Dichlorophenyl)-2-Piperidin-4-Yl-3-Propyl-3h-Imidazol-4-Yl]-Pyrimidin-2-Yl}Amine

$$$$
