
     RDKit          3D

 21 24  0  0  0  0  0  0  0  0999 V2000
   -0.2384   -0.3377   -0.5719 C   0  0  0  0  0  0  0  0  0  0  0  0
    0.7516   -0.1397   -1.7213 C   0  0  0  0  0  0  0  0  0  0  0  0
    0.6527   -2.7921   -1.3253 C   0  0  0  0  0  0  0  0  0  0  0  0
   -0.9163   -2.7157   -1.2740 C   0  0  2  0  0  0  0  0  0  0  0  0
   -1.6043   -3.8750   -2.0144 C   0  0  0  0  0  0  0  0  0  0  0  0
   -3.1835   -3.7960   -2.2053 C   0  0  0  0  0  0  0  0  0  0  0  0
   -1.3229   -1.2962   -1.7022 C   0  0  2  0  0  0  0  0  0  0  0  0
   -3.4389    0.0745   -2.5141 C   0  0  0  0  0  0  0  0  0  0  0  0
   -4.8991    0.0650   -2.7041 C   0  0  0  0  0  0  0  0  0  0  0  0
   -6.2326   -0.9993   -5.2290 C   0  0  0  0  0  0  0  0  0  0  0  0
   -7.3711   -0.2818   -4.4282 C   0  0  0  0  0  0  0  0  0  0  0  0
   -1.0357   -0.9783   -3.2465 C   0  0  0  0  0  0  0  0  0  0  0  0
   -3.0027   -1.2487   -1.9069 C   0  0  1  0  0  0  0  0  0  0  0  0
   -3.6301   -2.4860   -2.9839 C   0  0  2  0  0  0  0  0  0  0  0  0
   -5.1665   -2.2907   -4.1177 C   0  0  1  0  0  0  0  0  0  0  0  0
   -5.2738   -0.9914   -3.7079 C   0  0  2  0  0  0  0  0  0  0  0  0
   -4.0720   -1.0393   -5.1767 C   0  0  0  0  0  0  0  0  0  0  0  0
   -7.0096   -1.3390   -3.5304 C   0  0  2  0  0  0  0  0  0  0  0  0
   -7.6502   -2.5376   -4.1910 O   0  0  0  0  0  0  0  0  0  0  0  0
    1.3337   -1.6131   -2.1139 C   0  0  1  0  0  0  0  0  0  0  0  0
    1.3916   -1.9869   -3.5036 O   0  0  0  0  0  0  0  0  0  0  0  0
  2  1  1  0
  4  3  1  6
  4  5  1  0
  5  6  1  0
  7  4  1  0
  7 12  1  6
  7  1  1  0
  8  9  1  0
 11 18  1  0
 11 10  1  0
 13  8  1  6
 13  7  1  0
 14 13  1  0
 14  6  1  1
 15 16  1  0
 15 14  1  0
 15 10  1  6
 16 18  1  0
 16  9  1  0
 16 17  1  6
 18 19  1  6
 20  3  1  0
 20  2  1  0
 20 21  1  6
M  END
>  <DRUGBANK_ID>  (1) 
DB03926

>  <SECONDARY_ACCESSION_NUMBERS>  (1) 
EXPT00531

>  <COMMON_NAME>  (1) 
5alpha-androstane-3beta,17alpha-diol

>  <CAS_NUMBER>  (1) 
5856-11-1

>  <UNII>  (1) 
0IF82ZEY2K

>  <SYNONYMS>  (1) 
3beta,17alpha-Dihydroxy-5alpha-androstane; 5alpha-Androstan-3beta,17alpha-diol; 5α-androstane-3β,17α-diol

$$$$
