
     RDKit          3D

 23 26  0  0  1  0  0  0  0  0999 V2000
    4.3162   -2.1186  -10.9120 O   0  0  0  0  0  0  0  0  0  0  0  0
   -0.7553   -1.2449   -5.0179 O   0  0  0  0  0  0  0  0  0  0  0  0
    4.6617   -4.8385   -8.9867 C   0  0  1  0  0  0  0  0  0  0  0  0
    4.9183   -3.5061   -9.2345 C   0  0  2  0  0  0  0  0  0  0  0  0
    4.6080   -2.8582   -7.8205 C   0  0  2  0  0  0  0  0  0  0  0  0
    3.5732   -3.3619  -10.1992 C   0  0  2  0  0  0  0  0  0  0  0  0
    3.5974   -4.7427  -10.0681 C   0  0  0  0  0  0  0  0  0  0  0  0
    3.1391   -4.2137  -11.3468 C   0  0  0  0  0  0  0  0  0  0  0  0
    6.4171   -5.5254   -8.6626 C   0  0  0  0  0  0  0  0  0  0  0  0
    3.6812   -3.6121   -6.7515 C   0  0  0  0  0  0  0  0  0  0  0  0
    4.3662   -5.5117   -7.6091 C   0  0  0  0  0  0  0  0  0  0  0  0
    4.0187   -1.4983   -7.9895 C   0  0  0  0  0  0  0  0  0  0  0  0
    3.8806   -4.9644   -6.5202 C   0  0  0  0  0  0  0  0  0  0  0  0
    2.7359   -2.9620   -6.0734 C   0  0  0  0  0  0  0  0  0  0  0  0
    2.5734   -1.8698   -8.0529 C   0  0  0  0  0  0  0  0  0  0  0  0
    2.1414   -1.8056   -6.7169 C   0  0  0  0  0  0  0  0  0  0  0  0
    1.9322   -2.4616  -10.2940 C   0  0  0  0  0  0  0  0  0  0  0  0
    6.7786   -7.0163   -7.6796 C   0  0  0  0  0  0  0  0  0  0  0  0
    2.5042   -2.9470   -4.6292 C   0  0  0  0  0  0  0  0  0  0  0  0
    1.1162   -1.0574   -6.3517 C   0  0  0  0  0  0  0  0  0  0  0  0
    0.9918   -2.8513   -4.5528 C   0  0  0  0  0  0  0  0  0  0  0  0
    0.3926   -1.6274   -5.2194 C   0  0  0  0  0  0  0  0  0  0  0  0
    1.1283   -1.4976  -10.1390 C   0  0  0  0  0  0  0  0  0  0  0  0
  2 22  2  0
  3  4  1  0
  3  6  1  0
  3 11  1  0
  3  9  1  6
  4  5  1  0
  4  7  1  6
  5 10  1  0
  5 12  1  6
  6  8  1  0
  6  1  1  6
  6 17  1  0
  7  8  1  0
  9 18  1  0
 10 13  1  0
 10 14  2  0
 11 13  2  0
 12 15  1  0
 14 16  1  0
 14 19  1  0
 15 16  1  0
 16 20  2  0
 17 23  3  0
 19 21  1  0
 20 22  1  0
 21 22  1  0
M  END
>  <DRUGBANK_ID>  (1) 
DB11619

>  <COMMON_NAME>  (1) 
Gestrinone

>  <CAS_NUMBER>  (1) 
16320-04-0

>  <UNII>  (1) 
1421533RCM

>  <SYNONYMS>  (1) 
Ethylnorgestrienone; Gestrinona; Gestrinone; Gestrinonum

$$$$
