
     RDKit          3D

 29 31  0  0  0  0  0  0  0  0999 V2000
    0.5399    0.8413    0.5634 S   0  0  0  0  0  0  0  0  0  0  0  0
    5.2469   10.1380   -5.8792 F   0  0  0  0  0  0  0  0  0  0  0  0
    2.3738    4.9758   -3.5271 O   0  0  0  0  0  0  0  0  0  0  0  0
    2.2013   -0.4432   -2.6048 O   0  0  0  0  0  0  0  0  0  0  0  0
    6.0752    4.5415   -5.5385 O   0  0  0  0  0  0  0  0  0  0  0  0
   -0.2783   -0.3670    0.3382 O   0  0  0  0  0  0  0  0  0  0  0  0
    0.1493    1.5948    1.7020 O   0  0  0  0  0  0  0  0  0  0  0  0
    0.1601    1.6366   -0.8841 N   0  0  0  0  0  0  0  0  0  0  0  0
    6.1376    2.3739   -5.1637 N   0  0  0  0  0  0  0  0  0  0  0  0
    3.2072    2.8850   -3.5968 C   0  0  0  0  0  0  0  0  0  0  0  0
    2.1700    3.6854   -3.1511 C   0  0  0  0  0  0  0  0  0  0  0  0
    4.1597    3.7729   -4.3101 C   0  0  0  0  0  0  0  0  0  0  0  0
    1.1359    1.8420   -1.9198 C   0  0  0  0  0  0  0  0  0  0  0  0
    3.5632    5.0420   -4.2061 C   0  0  0  0  0  0  0  0  0  0  0  0
    1.9955    0.9276   -2.5318 C   0  0  0  0  0  0  0  0  0  0  0  0
    3.0350    1.5057   -3.2485 C   0  0  0  0  0  0  0  0  0  0  0  0
    1.1183    3.1945   -2.3629 C   0  0  0  0  0  0  0  0  0  0  0  0
    3.9445    6.3925   -4.6497 C   0  0  0  0  0  0  0  0  0  0  0  0
    1.3602   -1.5023   -2.0999 C   0  0  0  0  0  0  0  0  0  0  0  0
    5.4814    3.5935   -5.0208 C   0  0  0  0  0  0  0  0  0  0  0  0
    4.1839    7.4142   -3.7150 C   0  0  0  0  0  0  0  0  0  0  0  0
    4.1501    6.6773   -6.0115 C   0  0  0  0  0  0  0  0  0  0  0  0
    1.6727   -1.6448   -0.6484 C   0  0  0  0  0  0  0  0  0  0  0  0
   -0.0355   -1.2034   -2.6063 C   0  0  0  0  0  0  0  0  0  0  0  0
    2.6206    0.6722    0.5563 C   0  0  0  0  0  0  0  0  0  0  0  0
    4.6203    8.6804   -4.1312 C   0  0  0  0  0  0  0  0  0  0  0  0
    4.5981    7.9379   -6.4271 C   0  0  0  0  0  0  0  0  0  0  0  0
    4.8241    8.9295   -5.4830 C   0  0  0  0  0  0  0  0  0  0  0  0
    5.6883    1.1335   -4.6724 C   0  0  0  0  0  0  0  0  0  0  0  0
  1  6  2  0
  1  7  2  0
  1  8  1  0
  1 25  1  0
  2 28  1  0
  3 11  1  0
  3 14  1  0
  4 15  1  0
  4 19  1  0
  5 20  2  0
  8 13  1  0
  9 20  1  0
  9 29  1  0
 10 11  2  0
 10 12  1  0
 10 16  1  0
 11 17  1  0
 12 14  2  0
 12 20  1  0
 13 15  1  0
 13 17  2  0
 14 18  1  0
 15 16  2  0
 18 21  2  0
 18 22  1  0
 19 23  1  0
 19 24  1  0
 21 26  1  0
 22 27  2  0
 26 28  2  0
 27 28  1  0
M  END
>  <DRUGBANK_ID>  (1) 
DB05884

>  <COMMON_NAME>  (1) 
HCV-086

$$$$
