
     RDKit          3D

 27 31  0  0  0  0  0  0  0  0999 V2000
    1.1841   -6.6289   -2.5361 C   0  0  0  0  0  0  0  0  0  0  0  0
    2.3413   -6.9842   -1.8720 C   0  0  0  0  0  0  0  0  0  0  0  0
    2.7191   -6.3216   -0.6739 C   0  0  0  0  0  0  0  0  0  0  0  0
    1.8835   -5.3709   -0.1311 C   0  0  0  0  0  0  0  0  0  0  0  0
    0.8280   -5.1085   -0.9479 C   0  0  0  0  0  0  0  0  0  0  0  0
    0.4743   -5.6006   -2.1380 N   0  0  0  0  0  0  0  0  0  0  0  0
    1.9236   -4.6714    1.2119 C   0  0  0  0  0  0  0  0  0  0  0  0
    1.1221   -3.2783    1.2808 C   0  0  2  0  0  0  0  0  0  0  0  0
    1.5215   -2.4864    2.4941 N   0  0  0  0  0  0  0  0  0  0  0  0
    0.7985   -1.1880    2.4864 C   0  0  0  0  0  0  0  0  0  0  0  0
   -0.7274   -1.3696    2.5124 C   0  0  0  0  0  0  0  0  0  0  0  0
   -1.0662   -2.8602    2.5383 C   0  0  0  0  0  0  0  0  0  0  0  0
   -0.4815   -3.5079    1.2888 C   0  0  1  0  0  0  0  0  0  0  0  0
   -1.2438   -3.0430    0.0832 N   0  0  0  0  0  0  0  0  0  0  0  0
    1.1338   -3.2156    3.7201 C   0  0  0  0  0  0  0  0  0  0  0  0
   -0.3734   -3.5110    3.7460 C   0  0  0  0  0  0  0  0  0  0  0  0
   -1.9654   -3.7867   -0.8737 C   0  0  0  0  0  0  0  0  0  0  0  0
   -2.2473   -3.1762   -1.9216 O   0  0  0  0  0  0  0  0  0  0  0  0
   -2.1842   -5.2398   -0.7283 C   0  0  0  0  0  0  0  0  0  0  0  0
   -2.1124   -6.2555   -1.6844 C   0  0  0  0  0  0  0  0  0  0  0  0
   -2.2972   -5.8273    0.5096 O   0  0  0  0  0  0  0  0  0  0  0  0
   -2.2054   -7.1817    0.3386 C   0  0  0  0  0  0  0  0  0  0  0  0
   -2.0050   -7.4982   -0.9969 C   0  0  0  0  0  0  0  0  0  0  0  0
   -2.2855   -8.1388    1.3482 C   0  0  0  0  0  0  0  0  0  0  0  0
   -2.1520   -9.4807    0.9645 C   0  0  0  0  0  0  0  0  0  0  0  0
   -1.8625   -9.8302   -0.3560 C   0  0  0  0  0  0  0  0  0  0  0  0
   -1.7483   -8.8434   -1.3467 C   0  0  0  0  0  0  0  0  0  0  0  0
  1  2  2  0
  1  6  1  0
  2  3  1  0
  3  4  2  0
  4  5  1  0
  4  7  1  0
  5  6  2  0
  8  7  1  1
  9  8  1  0
  9 10  1  0
  9 15  1  0
 10 11  1  0
 11 12  1  0
 12 13  1  0
 13  8  1  0
 13 14  1  6
 14 17  1  0
 15 16  1  0
 16 12  1  0
 17 18  2  0
 17 19  1  0
 19 21  1  0
 20 19  2  0
 20 23  1  0
 21 22  1  0
 22 24  2  0
 23 27  2  0
 23 22  1  0
 24 25  1  0
 25 26  2  0
 26 27  1  0
M  END
>  <DRUGBANK_ID>  (1) 
DB06090

>  <COMMON_NAME>  (1) 
Bradanicline

>  <CAS_NUMBER>  (1) 
639489-84-2

>  <UNII>  (1) 
UM3821998K

>  <SYNONYMS>  (1) 
Bradanicline

$$$$
