
     RDKit          3D

 28 31  0  0  1  0  0  0  0  0999 V2000
    1.4521    0.7028    1.2675 C   0  0  0  0  0  0  0  0  0  0  0  0
    1.3957   -0.3449    0.4767 N   0  0  0  0  0  0  0  0  0  0  0  0
    1.3268   -1.4387    1.3069 N   0  0  0  0  0  0  0  0  0  0  0  0
    1.3248   -1.0678    2.5806 N   0  0  0  0  0  0  0  0  0  0  0  0
    1.3899    0.2710    2.5580 N   0  0  0  0  0  0  0  0  0  0  0  0
    1.2996    1.0610    3.7625 C   0  0  0  0  0  0  0  0  0  0  0  0
    0.0355    0.8019    4.5738 C   0  0  0  0  0  0  0  0  0  0  0  0
    0.1082    0.3842    5.7307 O   0  0  0  0  0  0  0  0  0  0  0  0
   -1.2030    1.1322    4.0454 N   0  0  0  0  0  0  0  0  0  0  0  0
   -1.4399    1.5406    2.6312 C   0  0  1  0  0  0  0  0  0  0  0  0
   -1.7677    0.3629    1.6514 C   0  0  2  0  0  0  0  0  0  0  0  0
   -2.6791    1.2693    0.9891 N   0  0  0  0  0  0  0  0  0  0  0  0
   -2.7418    2.1598    2.0296 C   0  0  0  0  0  0  0  0  0  0  0  0
   -3.4777    3.0717    2.2890 O   0  0  0  0  0  0  0  0  0  0  0  0
   -3.5988    0.8847    0.0358 C   0  0  0  0  0  0  0  0  0  0  0  0
   -3.8632   -0.4397   -0.1679 C   0  0  0  0  0  0  0  0  0  0  0  0
   -3.1897   -1.5538    0.6341 C   0  0  0  0  0  0  0  0  0  0  0  0
   -2.7191   -1.0293    2.3087 S   0  0  0  0  0  0  0  0  0  0  0  0
   -4.8002   -1.0067   -1.2287 C   0  0  0  0  0  0  0  0  0  0  0  0
   -6.5619   -0.5827   -1.0911 S   0  0  0  0  0  0  0  0  0  0  0  0
   -6.9240   -0.8953    0.5704 C   0  0  0  0  0  0  0  0  0  0  0  0
   -6.8652   -2.1043    1.0782 N   0  0  0  0  0  0  0  0  0  0  0  0
   -7.3167   -2.1335    2.3832 N   0  0  0  0  0  0  0  0  0  0  0  0
   -7.6769   -0.9388    2.8012 C   0  0  0  0  0  0  0  0  0  0  0  0
   -7.4922    0.3120    1.6457 S   0  0  0  0  0  0  0  0  0  0  0  0
   -4.2265    2.0078   -0.7674 C   0  0  0  0  0  0  0  0  0  0  0  0
   -4.0887    3.2010   -0.5687 O   0  0  0  0  0  0  0  0  0  0  0  0
   -4.9395    1.5902   -1.8255 O   0  0  0  0  0  0  0  0  0  0  0  0
  1  2  2  0
  1  5  1  0
  2  3  1  0
  3  4  2  0
  4  5  1  0
  5  6  1  0
  6  7  1  0
  7  8  2  0
  7  9  1  0
 10 11  1  0
 10 13  1  0
 10  9  1  1
 11 12  1  0
 11 18  1  1
 12 13  1  0
 12 15  1  0
 13 14  2  0
 15 16  2  0
 15 26  1  0
 16 17  1  0
 16 19  1  0
 17 18  1  0
 19 20  1  0
 20 21  1  0
 21 22  2  0
 21 25  1  0
 22 23  1  0
 23 24  2  0
 24 25  1  0
 26 27  2  0
 26 28  1  0
M  END
>  <DRUGBANK_ID>  (1) 
DB13821

>  <COMMON_NAME>  (1) 
Ceftezole

>  <CAS_NUMBER>  (1) 
26973-24-0

>  <UNII>  (1) 
2Z86SYP11W

>  <SYNONYMS>  (1) 
ceftezol; Ceftezole

$$$$
