
     RDKit          3D

 21 23  0  0  0  0  0  0  0  0999 V2000
    0.9753    0.0451   -0.2803 N   0  0  0  0  0  0  0  0  0  0  0  0
    2.4227    0.0858    0.1089 C   0  0  0  0  0  0  0  0  0  0  0  0
   -1.9962   -0.0454    0.1839 N   0  0  0  0  0  0  0  0  0  0  0  0
    3.1573    1.2731   -0.5747 C   0  0  0  0  0  0  0  0  0  0  0  0
    0.2628   -1.1801    0.1278 C   0  0  0  0  0  0  0  0  0  0  0  0
    0.2007    1.2064    0.1788 C   0  0  0  0  0  0  0  0  0  0  0  0
    2.7277   -0.0250    1.6219 C   0  0  0  0  0  0  0  0  0  0  0  0
    4.2172    1.0481   -1.4625 C   0  0  0  0  0  0  0  0  0  0  0  0
    2.8573    2.6188   -0.2531 C   0  0  0  0  0  0  0  0  0  0  0  0
   -1.2214   -1.2133   -0.2899 C   0  0  0  0  0  0  0  0  0  0  0  0
   -1.2829    1.1738   -0.2186 C   0  0  0  0  0  0  0  0  0  0  0  0
    4.5667    3.4421   -1.6991 C   0  0  0  0  0  0  0  0  0  0  0  0
    3.5243    3.6939   -0.8262 C   0  0  0  0  0  0  0  0  0  0  0  0
    4.9270    2.1287   -2.0065 C   0  0  0  0  0  0  0  0  0  0  0  0
    5.4401    4.7653   -2.3614 Cl  0  0  0  0  0  0  0  0  0  0  0  0
   -2.1755   -0.0562    1.6386 C   0  0  0  0  0  0  0  0  0  0  0  0
    2.3354   -1.1516    2.3642 C   0  0  0  0  0  0  0  0  0  0  0  0
    3.4350    0.9667    2.3197 C   0  0  0  0  0  0  0  0  0  0  0  0
    2.4656   -1.1965    3.7546 C   0  0  0  0  0  0  0  0  0  0  0  0
    3.6653    0.8775    3.6929 C   0  0  0  0  0  0  0  0  0  0  0  0
    3.1403   -0.1812    4.4134 C   0  0  0  0  0  0  0  0  0  0  0  0
  2  1  1  0
  3 11  1  0
  4  2  1  0
  5  1  1  0
  6  1  1  0
  7  2  1  0
  8  4  2  0
  9  4  1  0
 10  5  1  0
 10  3  1  0
 11  6  1  0
 12 13  1  0
 13  9  2  0
 14  8  1  0
 14 12  2  0
 15 12  1  0
 16  3  1  0
 17  7  2  0
 18  7  1  0
 19 17  1  0
 20 18  2  0
 20 21  1  0
 21 19  2  0
M  END
>  <DRUGBANK_ID>  (1) 
DB08936

>  <COMMON_NAME>  (1) 
Chlorcyclizine

>  <CAS_NUMBER>  (1) 
82-93-9

>  <UNII>  (1) 
M26C4IP44P

>  <SYNONYMS>  (1) 
Chlorcyclizin; Chlorcyclizine; Chlorcyclizinum; Clorciclicina; Clorciclizina; Clorciclizinio

$$$$
