HOP
     RDKit          3D

 28 30  0  0  0  0  0  0  0  0999 V2000
    1.4078   -0.2135    0.0162 C   0  0  0  0  0  0  0  0  0  0  0  0
    0.5438   -1.3040    0.0234 C   0  0  0  0  0  0  0  0  0  0  0  0
    0.9011    1.0862    0.0050 C   0  0  0  0  0  0  0  0  0  0  0  0
   -0.4734    1.3009    0.0364 C   0  0  0  0  0  0  0  0  0  0  0  0
   -1.3462    0.2119   -0.0171 C   0  0  0  0  0  0  0  0  0  0  0  0
   -0.8273   -1.0922    0.0000 C   0  0  0  0  0  0  0  0  0  0  0  0
   -2.8259    0.4408   -0.1834 C   0  0  2  0  0  0  0  0  0  0  0  0
   -3.6003   -0.1920    0.9747 C   0  0  0  0  0  0  0  0  0  0  0  0
   -5.0892   -0.0209    0.7750 C   0  0  1  0  0  0  0  0  0  0  0  0
   -5.5162   -0.6409   -0.5724 C   0  0  2  0  0  0  0  0  0  0  0  0
   -4.7542    0.0025   -1.7543 C   0  0  0  0  0  0  0  0  0  0  0  0
   -3.2606   -0.1072   -1.5553 C   0  0  0  0  0  0  0  0  0  0  0  0
   -6.9822   -0.4204   -0.7841 C   0  0  0  0  0  0  0  0  0  0  0  0
   -7.3854    0.8945   -0.8613 C   0  0  0  0  0  0  0  0  0  0  0  0
   -8.6393    1.1758   -1.3147 C   0  0  0  0  0  0  0  0  0  0  0  0
   -9.6299    0.2100   -1.4400 C   0  0  0  0  0  0  0  0  0  0  0  0
   -9.2268   -1.1246   -1.3568 C   0  0  0  0  0  0  0  0  0  0  0  0
   -7.9043   -1.4422   -1.0228 C   0  0  0  0  0  0  0  0  0  0  0  0
   -5.7704   -0.6358    1.8661 O   0  0  0  0  0  0  0  0  0  0  0  0
  -11.0788    0.5192   -1.6225 C   0  0  0  0  0  0  0  0  0  0  0  0
  -11.8833   -0.3909   -1.8194 O   0  0  0  0  0  0  0  0  0  0  0  0
  -11.5657    1.7965   -1.5120 N   0  0  0  0  0  0  0  0  0  0  0  0
  -10.9020    3.0410   -1.1998 C   0  0  0  0  0  0  0  0  0  0  0  0
  -10.9073    3.9832   -2.3906 C   0  0  0  0  0  0  0  0  0  0  0  0
  -12.3004    4.5654   -2.5753 C   0  0  0  0  0  0  0  0  0  0  0  0
  -12.7499    5.3618   -1.3643 C   0  0  0  0  0  0  0  0  0  0  0  0
  -12.8914    6.5607   -1.3156 O   0  0  0  0  0  0  0  0  0  0  0  0
  -12.9537    4.6026   -0.2664 O   0  0  0  0  0  0  0  0  0  0  0  0
  1  2  2  0
  1  3  1  0
  2  6  1  0
  3  4  2  0
  4  5  1  0
  5  6  2  0
  7  5  1  1
  7  8  1  0
  7 12  1  0
  8  9  1  0
  9 10  1  0
  9 19  1  1
 10 11  1  0
 10 13  1  6
 11 12  1  0
 13 14  2  0
 13 18  1  0
 14 15  1  0
 15 16  2  0
 16 17  1  0
 16 20  1  0
 17 18  2  0
 20 21  2  0
 20 22  1  0
 22 23  1  0
 23 24  1  0
 24 25  1  0
 25 26  1  0
 26 27  2  0
 26 28  1  0
M  END
>  <DRUGBANK_ID>  (1) 
DB07909

>  <COMMON_NAME>  (1) 
(1S,2S,5S)2-(4-GLUTARIDYLBENZYL)-5-PHENYL-1-CYCLOHEXANOL

$$$$
