
     RDKit          3D

 28 29  0  0  0  0  0  0  0  0999 V2000
    2.4938   -4.8209    1.2719 C   0  0  0  0  0  0  0  0  0  0  0  0
    3.2162   -4.8872    0.0812 C   0  0  0  0  0  0  0  0  0  0  0  0
    2.2559   -6.0082    1.9709 C   0  0  0  0  0  0  0  0  0  0  0  0
    3.8996   -6.0542   -0.2746 C   0  0  0  0  0  0  0  0  0  0  0  0
    2.8299   -7.2156    1.5371 C   0  0  0  0  0  0  0  0  0  0  0  0
    3.7009   -7.2285    0.4441 C   0  0  0  0  0  0  0  0  0  0  0  0
    2.1205   -3.6527    1.8933 O   0  0  0  0  0  0  0  0  0  0  0  0
    2.5300   -2.3942    1.3096 C   0  0  0  0  0  0  0  0  0  0  0  0
    4.0377   -1.9995    1.4705 C   0  0  2  0  0  0  0  0  0  0  0  0
    4.4438   -1.2271    0.1727 C   0  0  0  0  0  0  0  0  0  0  0  0
    4.0852    0.1206    0.1163 N   0  0  0  0  0  0  0  0  0  0  0  0
    4.9941   -1.8149   -0.7608 O   0  0  0  0  0  0  0  0  0  0  0  0
    4.3467    0.9209   -1.0298 C   0  0  0  0  0  0  0  0  0  0  0  0
    4.0896    0.4282   -2.3147 C   0  0  0  0  0  0  0  0  0  0  0  0
    4.8430    2.2211   -0.9084 C   0  0  0  0  0  0  0  0  0  0  0  0
    4.3047    1.2051   -3.4770 C   0  0  0  0  0  0  0  0  0  0  0  0
    5.0834    3.0015   -2.0568 C   0  0  0  0  0  0  0  0  0  0  0  0
    4.7888    2.5124   -3.3395 C   0  0  0  0  0  0  0  0  0  0  0  0
    4.9996   -3.1873    1.6621 C   0  0  0  0  0  0  0  0  0  0  0  0
    4.1739   -1.1880    2.6454 O   0  0  0  0  0  0  0  0  0  0  0  0
    3.9884    0.5786   -4.8138 C   0  0  0  0  0  0  0  0  0  0  0  0
    4.3852   -8.4264    0.0456 C   0  0  0  0  0  0  0  0  0  0  0  0
    4.9434   -9.3811   -0.2967 N   0  0  0  0  0  0  0  0  0  0  0  0
    4.6935   -0.5672   -5.0183 F   0  0  0  0  0  0  0  0  0  0  0  0
    2.6746    0.2349   -4.9110 F   0  0  0  0  0  0  0  0  0  0  0  0
    4.2434    1.3565   -5.8955 F   0  0  0  0  0  0  0  0  0  0  0  0
    4.9492    3.3822   -4.4766 C   0  0  0  0  0  0  0  0  0  0  0  0
    5.0359    4.0744   -5.4009 N   0  0  0  0  0  0  0  0  0  0  0  0
  1  7  1  0
  2  1  2  0
  3  1  1  0
  4  2  1  0
  5  3  2  0
  6  4  2  0
  6  5  1  0
  6 22  1  0
  7  8  1  0
  9 19  1  1
  9 20  1  0
  9 10  1  0
  9  8  1  0
 10 11  1  0
 10 12  2  0
 11 13  1  0
 14 13  2  0
 15 13  1  0
 16 14  1  0
 16 21  1  0
 17 15  2  0
 18 16  2  0
 18 17  1  0
 18 27  1  0
 21 24  1  0
 21 25  1  0
 21 26  1  0
 23 22  3  0
 28 27  3  0
M  END
>  <DRUGBANK_ID>  (1) 
DB12078

>  <COMMON_NAME>  (1) 
Enobosarm

>  <CAS_NUMBER>  (1) 
841205-47-8

>  <UNII>  (1) 
O3571H3R8N

>  <SYNONYMS>  (1) 
Enobosarm; Ã‰nobosarm; Enobosarmum; Ostarine

$$$$
