
     RDKit          3D

 31 34  0  0  0  0  0  0  0  0999 V2000
    1.0142   -0.2214    0.1281 C   0  0  0  0  0  0  0  0  0  0  0  0
    0.4888    1.1675    0.3256 C   0  0  0  0  0  0  0  0  0  0  0  0
    0.9504    2.0797   -0.7374 C   0  0  0  0  0  0  0  0  0  0  0  0
    0.5158    3.3781   -0.5424 C   0  0  0  0  0  0  0  0  0  0  0  0
    0.9485    4.3196   -1.3799 C   0  0  0  0  0  0  0  0  0  0  0  0
    1.7589    3.9533   -2.4280 C   0  0  0  0  0  0  0  0  0  0  0  0
    1.9129    4.8274   -3.4113 O   0  0  0  0  0  0  0  0  0  0  0  0
    1.3150    6.0686   -3.2439 C   0  0  0  0  0  0  0  0  0  0  0  0
   -0.0397    6.0972   -3.8670 C   0  0  0  0  0  0  0  0  0  0  0  0
   -0.7411    4.8715   -3.9950 C   0  0  0  0  0  0  0  0  0  0  0  0
   -2.1064    4.8147   -3.8398 C   0  0  0  0  0  0  0  0  0  0  0  0
   -2.7835    6.0089   -3.6753 C   0  0  0  0  0  0  0  0  0  0  0  0
   -2.0906    7.2434   -3.7630 C   0  0  0  0  0  0  0  0  0  0  0  0
   -0.6950    7.3088   -3.9846 C   0  0  0  0  0  0  0  0  0  0  0  0
    0.0293    8.6245   -4.2822 C   0  0  0  0  0  0  0  0  0  0  0  0
   -0.6628    9.6475   -4.2229 O   0  0  0  0  0  0  0  0  0  0  0  0
    1.4249    8.7790   -4.5821 N   0  0  0  0  0  0  0  0  0  0  0  0
    2.3640    7.8817   -5.2289 C   0  0  0  0  0  0  0  0  0  0  0  0
    1.7941    6.9780   -6.0916 C   0  0  0  0  0  0  0  0  0  0  0  0
    2.4121    5.7775   -6.2676 C   0  0  0  0  0  0  0  0  0  0  0  0
    3.5176    5.4432   -5.5372 C   0  0  0  0  0  0  0  0  0  0  0  0
    3.2370    4.2527   -5.1143 N   0  0  0  0  0  0  0  0  0  0  0  0
    3.8661    3.2836   -5.5768 C   0  0  0  0  0  0  0  0  0  0  0  0
    2.8249    2.4199   -6.1626 C   0  0  0  0  0  0  0  0  0  0  0  0
    5.1153    3.4207   -5.1114 C   0  0  0  0  0  0  0  0  0  0  0  0
    5.4667    4.8712   -4.7264 C   0  0  0  0  0  0  0  0  0  0  0  0
    6.8544    5.2192   -4.6745 N   0  0  0  0  0  0  0  0  0  0  0  0
    4.4057    6.0894   -4.8256 C   0  0  0  0  0  0  0  0  0  0  0  0
    3.7160    7.5467   -4.6616 C   0  0  0  0  0  0  0  0  0  0  0  0
    2.2474    2.6756   -2.6328 C   0  0  0  0  0  0  0  0  0  0  0  0
    1.7911    1.7060   -1.7965 C   0  0  0  0  0  0  0  0  0  0  0  0
  1  2  1  0
  2  3  1  0
  3  4  2  0
  3 31  1  0
  4  5  1  0
  5  6  2  0
  6  7  1  0
  6 30  1  0
  7  8  1  0
  8  9  1  0
  9 10  2  0
  9 14  1  0
 10 11  1  0
 11 12  2  0
 12 13  1  0
 13 14  2  0
 14 15  1  0
 15 16  2  0
 15 17  1  0
 17 18  1  0
 18 19  2  0
 18 29  1  0
 19 20  1  0
 20 21  2  0
 21 22  1  0
 21 28  1  0
 22 23  2  0
 23 24  1  0
 23 25  1  0
 25 26  2  0
 26 27  1  0
 26 28  1  0
 28 29  2  0
 30 31  2  0
M  END
>  <DRUGBANK_ID>  (1) 
DB17033

>  <COMMON_NAME>  (1) 
JTC-801 free base

>  <CAS_NUMBER>  (1) 
244218-93-7

>  <UNII>  (1) 
BXU45ZH6LI

>  <SYNONYMS>  (1) 
Benzamide, n-(4-amino-2-methyl-6-quinolinyl)-2-((4-ethylphenoxy)methyl)-

$$$$
