
     RDKit          3D

 24 23  0  0  0  0  0  0  0  0999 V2000
    1.0366   -0.0232   -0.0511 C   0  0  0  0  0  0  0  0  0  0  0  0
    0.5306    0.1226    1.3927 C   0  0  0  0  0  0  0  0  0  0  0  0
    0.9743    1.4670    1.9638 C   0  0  0  0  0  0  0  0  0  0  0  0
   -1.0213    0.0832    1.3436 C   0  0  0  0  0  0  0  0  0  0  0  0
   -1.5830   -1.2179    0.7535 C   0  0  0  0  0  0  0  0  0  0  0  0
   -1.1681   -2.4192    1.5929 C   0  0  0  0  0  0  0  0  0  0  0  0
   -1.6715   -2.2434    3.0309 C   0  0  0  0  0  0  0  0  0  0  0  0
   -3.1910   -2.2358    3.0103 C   0  0  0  0  0  0  0  0  0  0  0  0
   -3.6657   -3.5448    2.3720 C   0  0  0  0  0  0  0  0  0  0  0  0
   -3.1663   -4.7061    3.2284 C   0  0  0  0  0  0  0  0  0  0  0  0
   -3.6577   -4.5466    4.6606 C   0  0  0  0  0  0  0  0  0  0  0  0
   -5.1930   -4.5620    4.7307 C   0  0  0  0  0  0  0  0  0  0  0  0
   -5.7047   -5.8831    4.1847 C   0  0  0  0  0  0  0  0  0  0  0  0
   -5.1968   -7.0138    5.0883 C   0  0  0  0  0  0  0  0  0  0  0  0
   -5.6500   -6.8717    6.5752 C   0  0  0  0  0  0  0  0  0  0  0  0
   -7.1888   -6.8598    6.5611 C   0  0  0  0  0  0  0  0  0  0  0  0
   -5.1374   -8.0896    7.3357 C   0  0  0  0  0  0  0  0  0  0  0  0
   -5.0521   -5.6930    7.3978 C   0  0  0  0  0  0  0  0  0  0  0  0
   -3.9910   -5.1326    7.2645 O   0  0  0  0  0  0  0  0  0  0  0  0
   -5.8121   -5.2813    8.4304 O   0  0  0  0  0  0  0  0  0  0  0  0
   -5.0631   -3.5383    2.1480 O   0  0  0  0  0  0  0  0  0  0  0  0
    1.2158   -0.9388    2.2722 C   0  0  0  0  0  0  0  0  0  0  0  0
    1.9709   -1.8211    1.8907 O   0  0  0  0  0  0  0  0  0  0  0  0
    0.8464   -0.9002    3.5690 O   0  0  0  0  0  0  0  0  0  0  0  0
  1  2  1  0
  2  3  1  0
  2  4  1  0
  2 22  1  0
  4  5  1  0
  5  6  1  0
  6  7  1  0
  7  8  1  0
  8  9  1  0
  9 10  1  0
  9 21  1  0
 10 11  1  0
 11 12  1  0
 12 13  1  0
 13 14  1  0
 14 15  1  0
 15 16  1  0
 15 17  1  0
 15 18  1  0
 18 19  2  0
 18 20  1  0
 22 23  2  0
 22 24  1  0
M  END
>  <DRUGBANK_ID>  (1) 
DB11936

>  <COMMON_NAME>  (1) 
Bempedoic acid

>  <CAS_NUMBER>  (1) 
738606-46-7

>  <UNII>  (1) 
1EJ6Z6Q368

>  <SYNONYMS>  (1) 
Bempedoic acid

$$$$
