
     RDKit          3D

 21 22  0  0  0  0  0  0  0  0999 V2000
    1.0201   -0.1593    0.1395 C   0  0  0  0  0  0  0  0  0  0  0  0
    1.6459    4.9126   -0.9894 C   0  0  0  0  0  0  0  0  0  0  0  0
    0.2681    2.2044   -1.0037 C   0  0  0  0  0  0  0  0  0  0  0  0
    0.6875    5.0272   -2.6892 C   0  0  0  0  0  0  0  0  0  0  0  0
    1.7835    3.7070   -2.9081 C   0  0  0  0  0  0  0  0  0  0  0  0
    0.1091    5.2192   -0.9169 C   0  0  0  0  0  0  0  0  0  0  0  0
    2.2936    2.6622   -1.6485 C   0  0  0  0  0  0  0  0  0  0  0  0
    1.4506    4.1250    0.3028 C   0  0  0  0  0  0  0  0  0  0  0  0
   -1.8669    0.1205    0.5155 C   0  0  0  0  0  0  0  0  0  0  0  0
   -1.9907    2.4624    0.6619 C   0  0  0  0  0  0  0  0  0  0  0  0
   -3.2327    0.1695    0.2016 C   0  0  0  0  0  0  0  0  0  0  0  0
   -3.2691    2.5579    0.1786 C   0  0  0  0  0  0  0  0  0  0  0  0
    0.4284    3.7494    1.8607 C   0  0  0  0  0  0  0  0  0  0  0  0
    0.2857    2.5788    2.7063 C   0  0  0  0  0  0  0  0  0  0  0  0
    1.9883    2.6794    0.1495 C   0  0  0  0  0  0  0  0  0  0  0  0
   -1.1733    1.2993    0.7717 C   0  0  0  0  0  0  0  0  0  0  0  0
   -3.9226    1.3768    0.0604 C   0  0  0  0  0  0  0  0  0  0  0  0
    0.7011    1.3446    0.9406 C   0  0  0  0  0  0  0  0  0  0  0  0
   -5.6131    1.4061   -0.1378 Cl  0  0  0  0  0  0  0  0  0  0  0  0
   -0.0149    3.7138   -0.1163 N   0  0  0  0  0  0  0  0  0  0  0  0
    0.9482    1.4059    2.2974 O   0  0  0  0  0  0  0  0  0  0  0  0
  5  4  2  0
  6  4  1  0
  7  5  1  0
  8  6  2  0
 11  9  2  0
 12 10  1  0
 14 13  1  0
 15  7  2  0
 15  8  1  0
 16  9  1  0
 16 10  2  0
 17 11  1  0
 17 12  2  0
 18  1  1  0
 18 15  1  0
 18 16  1  0
 19 17  1  0
 20  2  1  0
 20  3  1  0
 20 13  1  0
 21 14  1  0
 21 18  1  0
M  END
>  <DRUGBANK_ID>  (1) 
DB09007

>  <COMMON_NAME>  (1) 
Chlorphenoxamine

>  <CAS_NUMBER>  (1) 
77-38-3

>  <UNII>  (1) 
3UVD77BP8R

>  <SYNONYMS>  (1) 
Chlorphenoxamine

$$$$
