
     RDKit          3D

 19 20  0  0  0  0  0  0  0  0999 V2000
    1.4456   -0.2450   -0.1769 C   0  0  0  0  0  0  0  0  0  0  0  0
    0.4770   -0.8476   -1.3364 C   0  0  0  0  0  0  0  0  0  0  0  0
    1.0051   -2.2674   -1.6823 C   0  0  0  0  0  0  0  0  0  0  0  0
    0.2477   -3.4189   -1.4361 C   0  0  0  0  0  0  0  0  0  0  0  0
    0.7436   -4.7137   -1.4638 C   0  0  0  0  0  0  0  0  0  0  0  0
    2.0819   -4.8926   -1.7079 C   0  0  0  0  0  0  0  0  0  0  0  0
    2.9065   -3.7926   -1.9185 C   0  0  0  0  0  0  0  0  0  0  0  0
    2.3733   -2.4889   -1.9320 C   0  0  0  0  0  0  0  0  0  0  0  0
    2.6105   -6.1446   -1.6639 O   0  0  0  0  0  0  0  0  0  0  0  0
   -1.2377   -0.6140   -1.1765 C   0  0  0  0  0  0  0  0  0  0  0  0
   -1.6707    0.7694   -0.4782 C   0  0  0  0  0  0  0  0  0  0  0  0
   -1.7019    0.8641    1.1048 C   0  0  0  0  0  0  0  0  0  0  0  0
   -2.3614   -0.5326    1.7939 C   0  0  0  0  0  0  0  0  0  0  0  0
   -2.2645   -1.9819    0.9577 C   0  0  0  0  0  0  0  0  0  0  0  0
   -2.2579   -1.7275   -0.5772 C   0  0  0  0  0  0  0  0  0  0  0  0
   -1.6194   -0.4921   -2.5845 O   0  0  0  0  0  0  0  0  0  0  0  0
    1.4914   -0.8952    1.1836 N   0  0  0  0  0  0  0  0  0  0  0  0
    0.1655   -1.2019    1.4104 C   0  0  0  0  0  0  0  0  0  0  0  0
    1.9059   -2.3061    1.3122 C   0  0  0  0  0  0  0  0  0  0  0  0
  1  2  1  0
  1 17  1  0
  2  3  1  0
  2 10  1  0
  3  4  2  0
  3  8  1  0
  4  5  1  0
  5  6  2  0
  6  7  1  0
  6  9  1  0
  7  8  2  0
 10 11  1  0
 10 15  1  0
 10 16  1  0
 11 12  1  0
 12 13  1  0
 13 14  1  0
 14 15  1  0
 17 18  1  0
 17 19  1  0
M  END
>  <DRUGBANK_ID>  (1) 
DB06700

>  <COMMON_NAME>  (1) 
Desvenlafaxine

>  <CAS_NUMBER>  (1) 
93413-62-8

>  <UNII>  (1) 
NG99554ANW

>  <SYNONYMS>  (1) 
Desvenlafaxina; Desvenlafaxine; O-desmethylvenlafaxine; ODV

$$$$
