
     RDKit          3D

 32 35  0  0  0  0  0  0  0  0999 V2000
   -4.1523    0.0205    0.3919 C   0  0  0  0  0  0  0  0  0  0  0  0
   -3.7155   -1.3368   -0.0936 C   0  0  0  0  0  0  0  0  0  0  0  0
   -2.2375   -1.5422    0.2122 C   0  0  0  0  0  0  0  0  0  0  0  0
   -3.1969    1.1424    0.2479 C   0  0  0  0  0  0  0  0  0  0  0  0
   -1.9472    0.9398   -0.2045 C   0  0  0  0  0  0  0  0  0  0  0  0
   -1.0876    2.1298   -0.5564 C   0  0  0  0  0  0  0  0  0  0  0  0
    0.3218    2.0395    0.0014 C   0  0  0  0  0  0  0  0  0  0  0  0
    0.9691    0.6828   -0.2876 C   0  0  1  0  0  0  0  0  0  0  0  0
    2.3358    0.6101    0.3539 C   0  0  2  0  0  0  0  0  0  0  0  0
    3.3580    1.6799   -0.0116 C   0  0  0  0  0  0  0  0  0  0  0  0
    4.6798    1.0449    0.3867 C   0  0  0  0  0  0  0  0  0  0  0  0
    4.3448   -0.4154    0.7719 C   0  0  1  0  0  0  0  0  0  0  0  0
    3.0400   -0.7242    0.0592 C   0  0  2  0  0  0  0  0  0  0  0  0
    3.2852   -1.0479   -1.4247 C   0  0  0  0  0  0  0  0  0  0  0  0
    2.2301   -1.8366    0.7399 C   0  0  0  0  0  0  0  0  0  0  0  0
    0.7816   -1.8578    0.2368 C   0  0  0  0  0  0  0  0  0  0  0  0
    0.0786   -0.4709    0.2620 C   0  0  2  0  0  0  0  0  0  0  0  0
   -1.3342   -0.4507   -0.4259 C   0  0  1  0  0  0  0  0  0  0  0  0
   -1.2273   -0.7155   -1.9460 C   0  0  0  0  0  0  0  0  0  0  0  0
   -5.2901    0.2431    0.7967 O   0  0  0  0  0  0  0  0  0  0  0  0
    5.4168   -1.2784    0.4600 O   0  0  0  0  0  0  0  0  0  0  0  0
    6.5576   -1.0652    1.1532 C   0  0  0  0  0  0  0  0  0  0  0  0
    6.4399   -0.3085    2.4745 C   0  0  0  0  0  0  0  0  0  0  0  0
    6.7457   -1.2197    3.6414 C   0  0  0  0  0  0  0  0  0  0  0  0
    8.2104   -1.6236    3.6071 C   0  0  0  0  0  0  0  0  0  0  0  0
    9.1084   -0.3789    3.5781 C   0  0  0  0  0  0  0  0  0  0  0  0
    8.8907    0.4664    4.8379 C   0  0  0  0  0  0  0  0  0  0  0  0
    9.2269   -0.3564    6.0854 C   0  0  0  0  0  0  0  0  0  0  0  0
   10.6890   -0.8175    6.0568 C   0  0  0  0  0  0  0  0  0  0  0  0
   11.6496    0.3710    5.9945 C   0  0  0  0  0  0  0  0  0  0  0  0
   11.4705    1.2623    7.2126 C   0  0  0  0  0  0  0  0  0  0  0  0
    7.6289   -1.4930    0.7237 O   0  0  0  0  0  0  0  0  0  0  0  0
  1  2  1  0
  1  4  1  0
  1 20  2  0
  2  3  1  0
  3 18  1  0
  4  5  2  0
  5  6  1  0
  5 18  1  0
  6  7  1  0
  8  7  1  1
  8  9  1  0
  8 17  1  0
  9 10  1  6
  9 13  1  0
 10 11  1  0
 11 12  1  0
 12 13  1  0
 12 21  1  6
 13 14  1  6
 13 15  1  0
 15 16  1  0
 17 16  1  6
 17 18  1  0
 18 19  1  6
 21 22  1  0
 22 23  1  0
 22 32  2  0
 23 24  1  0
 24 25  1  0
 25 26  1  0
 26 27  1  0
 27 28  1  0
 28 29  1  0
 29 30  1  0
 30 31  1  0
M  END
>  <DRUGBANK_ID>  (1) 
DB16001

>  <COMMON_NAME>  (1) 
Testosterone decanoate

>  <CAS_NUMBER>  (1) 
5721-91-5

>  <UNII>  (1) 
IJW60LAO6S

$$$$
