
     RDKit          3D

 29 30  0  0  0  0  0  0  0  0999 V2000
   -2.5559   -1.2526    6.8547 P   0  0  0  0  0  0  0  0  0  0  0  0
    3.6018   -0.3486    9.0229 O   0  0  0  0  0  0  0  0  0  0  0  0
    5.3347   -2.8862    7.0917 O   0  0  0  0  0  0  0  0  0  0  0  0
    5.9661   -0.2040    6.4756 O   0  0  0  0  0  0  0  0  0  0  0  0
    1.3353   -1.7583    5.4421 O   0  0  0  0  0  0  0  0  0  0  0  0
   -2.6391   -2.2474    5.5585 O   0  0  0  0  0  0  0  0  0  0  0  0
   -1.4076    2.4498    7.5215 O   0  0  0  0  0  0  0  0  0  0  0  0
    7.1141    1.2600    8.7237 O   0  0  0  0  0  0  0  0  0  0  0  0
    1.6766    2.4277   10.8749 O   0  0  0  0  0  0  0  0  0  0  0  0
   -4.0432   -1.3655    7.4978 O   0  0  0  0  0  0  0  0  0  0  0  0
   -3.2415   -0.0851    5.7778 O   0  0  0  0  0  0  0  0  0  0  0  0
   -1.9423   -2.2975    7.8185 O   0  0  0  0  0  0  0  0  0  0  0  0
    1.4323   -1.1085    7.6885 N   0  0  0  0  0  0  0  0  0  0  0  0
    0.1630    0.0955    6.3318 N   0  0  0  0  0  0  0  0  0  0  0  0
    1.4996    0.6118    9.5071 N   0  0  0  0  0  0  0  0  0  0  0  0
    0.1272    2.4551    9.2114 N   0  0  0  0  0  0  0  0  0  0  0  0
    2.4660   -2.0744    7.9720 C   0  0  0  0  0  0  0  0  0  0  0  0
    3.7065   -1.2742    7.9139 C   0  0  2  0  0  0  0  0  0  0  0  0
    5.0713   -1.8825    8.0644 C   0  0  2  0  0  0  0  0  0  0  0  0
    1.0490    0.0576    8.3449 C   0  0  0  0  0  0  0  0  0  0  0  0
    0.2283    0.7312    7.5514 C   0  0  0  0  0  0  0  0  0  0  0  0
    1.0054   -1.0076    6.3657 C   0  0  0  0  0  0  0  0  0  0  0  0
   -0.7495    0.3904    5.2858 C   0  0  0  0  0  0  0  0  0  0  0  0
    5.8578   -0.5539    7.8552 C   0  0  1  0  0  0  0  0  0  0  0  0
   -1.0283   -0.7889    4.3071 C   0  0  0  0  0  0  0  0  0  0  0  0
   -0.4244    1.9549    8.0550 C   0  0  0  0  0  0  0  0  0  0  0  0
    7.0140   -0.1858    8.7377 C   0  0  0  0  0  0  0  0  0  0  0  0
    1.1351    1.8653    9.9282 C   0  0  0  0  0  0  0  0  0  0  0  0
   -1.3916   -2.2096    4.8647 C   0  0  0  0  0  0  0  0  0  0  0  0
  1  6  1  0
  1 10  1  0
  1 11  1  0
  1 12  2  0
  5 22  2  0
  6 29  1  0
  7 26  2  0
  8 27  1  0
  9 28  2  0
 13 17  1  0
 13 20  1  0
 13 22  1  0
 14 21  1  0
 14 22  1  0
 14 23  1  0
 15 20  1  0
 15 28  1  0
 16 26  1  0
 16 28  1  0
 17 18  1  0
 18  2  1  1
 18 19  1  0
 19  3  1  6
 20 21  2  0
 21 26  1  0
 23 25  1  0
 24 27  1  0
 24 19  1  0
 24  4  1  6
 25 29  1  0
M  END
>  <DRUGBANK_ID>  (1) 
DB03973

>  <SECONDARY_ACCESSION_NUMBERS>  (1) 
EXPT02995

>  <COMMON_NAME>  (1) 
3-[2,6,8-Trioxo-9-[(2R,3R,4R)-2,3,4,5-tetrahydroxypentyl]-3H-purin-7-yl]propyl dihydrogen phosphate

>  <SYNONYMS>  (1) 
5-Deoxy-5-{2,6,8-trioxo-7-[3-(phosphonooxy)propyl]-1,2,3,6,7,8-hexahydro-9H-purin-9-yl}-D-arabinitol

$$$$
