
     RDKit          3D

 31 35  0  0  1  0  0  0  0  0999 V2000
    2.3150    0.0934    0.1650 N   0  0  0  0  0  0  0  0  0  0  0  0
    0.9257   -0.0229    0.0110 C   0  0  0  0  0  0  0  0  0  0  0  0
    0.3135    1.1811   -0.0278 N   0  0  0  0  0  0  0  0  0  0  0  0
   -1.0536    1.2030   -0.0855 C   0  0  0  0  0  0  0  0  0  0  0  0
   -1.8585    0.0914   -0.1324 C   0  0  0  0  0  0  0  0  0  0  0  0
   -1.1901   -1.1498   -0.0563 C   0  0  0  0  0  0  0  0  0  0  0  0
    0.2258   -1.2153    0.0342 C   0  0  0  0  0  0  0  0  0  0  0  0
    0.6937   -2.5084    0.1306 O   0  0  0  0  0  0  0  0  0  0  0  0
    2.0897   -2.7502    0.2231 C   0  0  0  0  0  0  0  0  0  0  0  0
    2.7232   -2.2497   -0.8691 F   0  0  0  0  0  0  0  0  0  0  0  0
    2.6067   -2.1646    1.3270 F   0  0  0  0  0  0  0  0  0  0  0  0
   -3.3374    0.2012   -0.1372 C   0  0  0  0  0  0  0  0  0  0  0  0
   -4.0399   -0.3784    0.8998 C   0  0  0  0  0  0  0  0  0  0  0  0
   -5.4149   -0.3805    0.8323 C   0  0  0  0  0  0  0  0  0  0  0  0
   -6.0093    0.3099   -0.1900 N   0  0  0  0  0  0  0  0  0  0  0  0
   -5.2786    0.9225   -1.1792 C   0  0  0  0  0  0  0  0  0  0  0  0
   -3.9298    0.8476   -1.1814 N   0  0  0  0  0  0  0  0  0  0  0  0
   -5.9434    1.5183   -2.2513 N   0  0  0  0  0  0  0  0  0  0  0  0
   -6.6155    2.8189   -2.0987 C   0  0  0  0  0  0  0  0  0  0  0  0
   -6.4271    3.6074   -3.4186 C   0  0  0  0  0  0  0  0  0  0  0  0
   -5.4126    2.8177   -4.2096 C   0  0  0  0  0  0  0  0  0  0  0  0
   -5.7019    2.8709   -5.5331 F   0  0  0  0  0  0  0  0  0  0  0  0
   -4.1769    3.3437   -4.0570 F   0  0  0  0  0  0  0  0  0  0  0  0
   -5.5021    1.3955   -3.6528 C   0  0  0  0  0  0  0  0  0  0  0  0
   -6.0338   -1.2628    1.7971 N   0  0  0  0  0  0  0  0  0  0  0  0
   -6.3415   -0.6472    3.1018 C   0  0  0  0  0  0  0  0  0  0  0  0
   -7.8710   -0.8845    3.2027 C   0  0  2  0  0  0  0  0  0  0  0  0
   -8.1597   -2.2526    2.6948 C   0  0  0  0  0  0  0  0  0  0  0  0
   -7.2852   -2.0225    1.4348 C   0  0  1  0  0  0  0  0  0  0  0  0
   -8.2867   -1.0527    0.8640 C   0  0  0  0  0  0  0  0  0  0  0  0
   -8.5389   -0.1673    2.0733 O   0  0  0  0  0  0  0  0  0  0  0  0
  1  2  1  0
  2  3  2  0
  2  7  1  0
  3  4  1  0
  4  5  2  0
  5  6  1  0
  5 12  1  0
  6  7  2  0
  7  8  1  0
  8  9  1  0
  9 10  1  0
  9 11  1  0
 12 13  2  0
 12 17  1  0
 13 14  1  0
 14 15  2  0
 14 25  1  0
 15 16  1  0
 16 17  2  0
 16 18  1  0
 18 19  1  0
 18 24  1  0
 19 20  1  0
 20 21  1  0
 21 22  1  0
 21 23  1  0
 21 24  1  0
 25 26  1  0
 27 26  1  6
 27 28  1  0
 27 31  1  0
 29 28  1  0
 29 25  1  0
 29 30  1  6
 30 31  1  0
M  END
>  <DRUGBANK_ID>  (1) 
DB17079

>  <COMMON_NAME>  (1) 
GDC-0134

>  <CAS_NUMBER>  (1) 
1637394-01-4

>  <UNII>  (1) 
4N6KQ7D685

>  <SYNONYMS>  (1) 
2-pyridinamine, 3-(difluoromethoxy)-5-(2-(3,3-difluoro-1-pyrrolidinyl)-6-(1s,4s)-2-oxa-5-azabicyclo(2.2.1)hept-5-yl-4-pyrimidinyl)-

$$$$
