259
     RDKit          3D

 11 11  0  0  0  0  0  0  0  0999 V2000
    0.9176   -0.0352   -0.0786 S   0  0  0  0  0  0  0  0  0  0  0  0
    0.5040   -0.5621   -1.3532 O   0  0  0  0  0  0  0  0  0  0  0  0
    0.4646   -0.5963    1.1774 O   0  0  0  0  0  0  0  0  0  0  0  0
    0.4197    1.5779   -0.0846 N   0  0  0  0  0  0  0  0  0  0  0  0
    6.8814    0.0118   -0.1399 N   0  0  0  0  0  0  0  0  0  0  0  0
    2.6876    0.0211   -0.0500 C   0  0  0  0  0  0  0  0  0  0  0  0
    3.3867    1.2283   -0.0490 C   0  0  0  0  0  0  0  0  0  0  0  0
    3.3845   -1.1908   -0.0611 C   0  0  0  0  0  0  0  0  0  0  0  0
    5.4994    0.0121   -0.0411 C   0  0  0  0  0  0  0  0  0  0  0  0
    4.7871    1.2152   -0.0606 C   0  0  0  0  0  0  0  0  0  0  0  0
    4.7844   -1.1885   -0.0595 C   0  0  0  0  0  0  0  0  0  0  0  0
  1  2  2  0
  1  3  2  0
  1  4  1  0
  1  6  1  0
  5  9  1  0
  6  7  2  0
  6  8  1  0
  7 10  1  0
  8 11  2  0
  9 10  2  0
  9 11  1  0
M  END
>  <DRUGBANK_ID>  (1) 
DB00259

>  <SECONDARY_ACCESSION_NUMBERS>  (1) 
APRD00438

>  <COMMON_NAME>  (1) 
Sulfanilamide

>  <CAS_NUMBER>  (1) 
63-74-1

>  <UNII>  (1) 
21240MF57M

>  <SYNONYMS>  (1) 
4-aminobenzene sulfonic acid amide; 4-azanylbenzenesulfonamide; p-aminobenzenesulfamide; p-aminobenzenesulfonamide; para-aminobenzenesulfonamide; Prontosil album; SA; Streptocide; Sulfamine; Sulfanilamida; Sulfanilamide; Sulfanilamidum; Sulphanilamide

$$$$
