
     RDKit          3D

 35 37  0  0  0  0  0  0  0  0999 V2000
    1.0313    0.1046    0.0091 C   0  0  0  0  0  0  0  0  0  0  0  0
    0.3080    0.5446   -0.9569 N   0  0  0  0  0  0  0  0  0  0  0  0
    1.0637   -0.8996    2.2847 C   0  0  0  0  0  0  0  0  0  0  0  0
    0.6246   -0.0664    3.4870 C   0  0  0  0  0  0  0  0  0  0  0  0
   -0.8821   -0.2671    3.7320 C   0  0  0  0  0  0  0  0  0  0  0  0
   -1.2754   -1.7635    3.6189 C   0  0  1  0  0  0  0  0  0  0  0  0
   -0.4111   -2.4557    4.5732 C   0  0  0  0  0  0  0  0  0  0  0  0
   -1.2005   -2.5388    5.6662 N   0  0  0  0  0  0  0  0  0  0  0  0
    0.8064   -2.5454    4.5236 O   0  0  0  0  0  0  0  0  0  0  0  0
   -3.0335   -3.1909    6.1344 C   0  0  0  0  0  0  0  0  0  0  0  0
   -4.0635   -2.8869    7.1858 C   0  0  0  0  0  0  0  0  0  0  0  0
   -3.4415   -2.9388    8.6249 C   0  0  2  0  0  0  0  0  0  0  0  0
   -1.8817   -2.1634    8.7552 C   0  0  0  0  0  0  0  0  0  0  0  0
   -0.4132   -1.9304    7.1751 C   0  0  2  0  0  0  0  0  0  0  0  0
    0.9504   -0.3818    7.2672 C   0  0  0  0  0  0  0  0  0  0  0  0
    0.8767    0.5518    8.0926 O   0  0  0  0  0  0  0  0  0  0  0  0
   -3.3049   -4.2337    9.3763 C   0  0  0  0  0  0  0  0  0  0  0  0
   -3.0529   -4.0446    3.8900 S   0  0  0  0  0  0  0  0  0  0  0  0
   -1.7329   -4.7381    5.6329 C   0  0  0  0  0  0  0  0  0  0  0  0
   -4.4620   -4.0900    4.3324 O   0  0  0  0  0  0  0  0  0  0  0  0
   -2.6201   -4.5565    2.6222 O   0  0  0  0  0  0  0  0  0  0  0  0
   -2.0227   -6.0492    5.9578 C   0  0  0  0  0  0  0  0  0  0  0  0
   -1.5504   -6.4453    7.2691 C   0  0  0  0  0  0  0  0  0  0  0  0
   -0.7979   -5.6442    8.2879 C   0  0  0  0  0  0  0  0  0  0  0  0
   -1.4826   -3.7055    7.1417 C   0  0  0  0  0  0  0  0  0  0  0  0
   -0.7485   -4.2491    8.2965 C   0  0  0  0  0  0  0  0  0  0  0  0
    0.0040   -3.3323    9.3973 C   0  0  0  0  0  0  0  0  0  0  0  0
    0.4562   -1.7895    8.8730 C   0  0  2  0  0  0  0  0  0  0  0  0
   -1.0570   -0.5598    8.1599 C   0  0  0  0  0  0  0  0  0  0  0  0
    1.6647   -2.5726    7.4755 C   0  0  0  0  0  0  0  0  0  0  0  0
    0.4340   -0.3956    1.1000 N   0  0  0  0  0  0  0  0  0  0  0  0
    2.3721    0.1210   -0.0006 N   0  0  0  0  0  0  0  0  0  0  0  0
    2.3093   -0.5161    6.9411 O   0  0  0  0  0  0  0  0  0  0  0  0
   -2.7356   -1.9498    3.8019 N   0  0  0  0  0  0  0  0  0  0  0  0
   -2.1204   -1.8163    7.0729 N   0  0  0  0  0  0  0  0  0  0  0  0
  1  2  2  0
  1 32  1  0
  3  4  1  0
  4  5  1  0
  6  5  1  1
  6  7  1  0
  6 34  1  0
  7  8  1  0
  7  9  2  0
  8 10  1  0
  8 14  1  0
 10 11  1  0
 11 12  1  0
 12 13  1  0
 12 17  1  6
 13 14  1  0
 14 15  1  6
 15 16  2  0
 15 33  1  0
 18 19  1  0
 18 20  2  0
 18 21  2  0
 19 22  2  0
 22 23  1  0
 23 24  2  0
 24 26  1  0
 25 19  1  0
 25 26  2  0
 25 35  1  0
 26 27  1  0
 27 28  1  0
 28 29  1  0
 28 30  1  6
 29 35  1  0
 31  1  1  0
 31  3  1  0
 34 18  1  0
M  END
>  <DRUGBANK_ID>  (1) 
DB00278

>  <SECONDARY_ACCESSION_NUMBERS>  (1) 
APRD00105

>  <COMMON_NAME>  (1) 
Argatroban

>  <CAS_NUMBER>  (1) 
74863-84-6

>  <UNII>  (1) 
OCY3U280Y3

>  <SYNONYMS>  (1) 
Argatroban; Argatroban anhydrous

$$$$
