
     RDKit          3D

 26 27  0  0  1  0  0  0  0  0999 V2000
    7.3320    0.5407    9.0861 C   0  0  0  0  0  0  0  0  0  0  0  0
    8.1320   -0.6266    8.7349 N   0  0  0  0  0  0  0  0  0  0  0  0
    9.4881   -0.4303    8.2518 C   0  0  0  0  0  0  0  0  0  0  0  0
    7.4982   -1.8705    8.7009 C   0  0  0  0  0  0  0  0  0  0  0  0
    6.2305   -1.9526    8.0871 C   0  0  0  0  0  0  0  0  0  0  0  0
    5.4603   -3.0830    8.2044 C   0  0  0  0  0  0  0  0  0  0  0  0
    5.9425   -4.1188    8.9845 C   0  0  0  0  0  0  0  0  0  0  0  0
    7.2993   -4.2485    9.3697 C   0  0  0  0  0  0  0  0  0  0  0  0
    8.0612   -3.0607    9.2962 C   0  0  0  0  0  0  0  0  0  0  0  0
    9.3349   -3.1100    9.9091 C   0  0  0  0  0  0  0  0  0  0  0  0
    9.9444   -4.2750   10.3658 C   0  0  0  0  0  0  0  0  0  0  0  0
    9.2554   -5.4629   10.2992 C   0  0  0  0  0  0  0  0  0  0  0  0
    7.9314   -5.4561    9.8424 C   0  0  0  0  0  0  0  0  0  0  0  0
    7.2022   -7.0842    9.8039 S   0  0  0  0  0  0  0  0  0  0  0  0
    8.1091   -7.9719    9.1209 O   0  0  0  0  0  0  0  0  0  0  0  0
    6.7642   -7.4010   11.1512 O   0  0  0  0  0  0  0  0  0  0  0  0
    5.8027   -6.9651    8.8836 N   0  0  0  0  0  0  0  0  0  0  0  0
    5.8962   -6.5062    7.5017 C   0  0  0  0  0  0  0  0  0  0  0  0
    6.6561   -7.4761    6.6789 C   0  0  0  0  0  0  0  0  0  0  0  0
    5.8978   -8.7827    6.6187 C   0  0  0  0  0  0  0  0  0  0  0  0
    4.5894   -8.5945    5.8546 C   0  0  0  0  0  0  0  0  0  0  0  0
    4.8010   -8.0081    4.4347 C   0  0  2  0  0  0  0  0  0  0  0  0
    3.8939   -8.6863    3.5052 N   0  0  0  0  0  0  0  0  0  0  0  0
    6.2487   -8.1801    3.8787 C   0  0  0  0  0  0  0  0  0  0  0  0
    6.8852   -7.0195    3.5669 O   0  0  0  0  0  0  0  0  0  0  0  0
    6.8201   -9.2592    3.7909 O   0  0  0  0  0  0  0  0  0  0  0  0
  1  2  1  0
  2  3  1  0
  2  4  1  0
  4  5  2  0
  4  9  1  0
  5  6  1  0
  6  7  2  0
  7  8  1  0
  8  9  2  0
  8 13  1  0
  9 10  1  0
 10 11  2  0
 11 12  1  0
 12 13  2  0
 13 14  1  0
 14 15  2  0
 14 16  2  0
 14 17  1  0
 17 18  1  0
 18 19  1  0
 19 20  1  0
 20 21  1  0
 22 24  1  0
 22 23  1  6
 22 21  1  0
 24 25  1  0
 24 26  2  0
M  END
>  <DRUGBANK_ID>  (1) 
DB04676

>  <COMMON_NAME>  (1) 
Dansyllysine

>  <CAS_NUMBER>  (1) 
1101-84-4

>  <UNII>  (1) 
EFF64524YR

>  <SYNONYMS>  (1) 
DNS-lysine; N(epsilon)-Dansyl-L-lysine

$$$$
