
     RDKit          3D

 18 19  0  0  1  0  0  0  0  0999 V2000
    1.4733   -0.3016    0.0525 C   0  0  0  0  0  0  0  0  0  0  0  0
    0.9848    0.9888    0.1658 C   0  0  0  0  0  0  0  0  0  0  0  0
   -0.3781    1.1881    0.3469 C   0  0  0  0  0  0  0  0  0  0  0  0
   -1.3109    0.1519    0.1247 C   0  0  0  0  0  0  0  0  0  0  0  0
   -0.7911   -1.1505    0.0628 C   0  0  0  0  0  0  0  0  0  0  0  0
    0.5880   -1.3753    0.0553 C   0  0  0  0  0  0  0  0  0  0  0  0
   -2.7571    1.8637   -1.1324 C   0  0  0  0  0  0  0  0  0  0  0  0
   -3.8506    0.0313    0.7264 C   0  0  0  0  0  0  0  0  0  0  0  0
   -3.7735   -0.6501   -0.6194 C   0  0  2  0  0  0  0  0  0  0  0  0
   -2.7958    0.5377   -0.2755 C   0  0  2  0  0  0  0  0  0  0  0  0
   -4.9039   -0.7879   -1.5959 C   0  0  0  0  0  0  0  0  0  0  0  0
   -1.7355    2.1084   -1.7570 O   0  0  0  0  0  0  0  0  0  0  0  0
   -3.7385    2.8675   -1.1163 N   0  0  0  0  0  0  0  0  0  0  0  0
   -5.1004    2.5702   -0.9271 C   0  0  0  0  0  0  0  0  0  0  0  0
   -3.4523    4.1228   -1.7936 C   0  0  0  0  0  0  0  0  0  0  0  0
   -2.7325    5.0118   -0.8061 C   0  0  0  0  0  0  0  0  0  0  0  0
   -5.9444    3.4075   -0.0246 C   0  0  0  0  0  0  0  0  0  0  0  0
   -5.8913    0.2292   -1.6928 N   0  0  0  0  0  0  0  0  0  0  0  0
  1  2  2  0
  2  3  1  0
  3  4  2  0
  4  5  1  0
  5  6  2  0
  6  1  1  0
  7 12  2  0
  7 13  1  0
  8 10  1  0
  8  9  1  0
  9 11  1  6
 10  9  1  0
 10  4  1  0
 10  7  1  6
 11 18  1  0
 13 14  1  0
 13 15  1  0
 14 17  1  0
 15 16  1  0
M  END
>  <DRUGBANK_ID>  (1) 
DB08918

>  <COMMON_NAME>  (1) 
Levomilnacipran

>  <CAS_NUMBER>  (1) 
96847-54-0

>  <UNII>  (1) 
UGM0326TXX

>  <SYNONYMS>  (1) 
(1S,2R)-milnacipran; CYCLOPROPANECARBOXAMIDE, 2-(AMINOMETHYL)-N,N-DIETHYL-1-PHENYL-, (1S,2R)-; Levomilnacipran; MILNACIPRAN, (1S,2R)-

$$$$
