
     RDKit          3D

  4  3  0  0  0  0  0  0  0  0999 V2000
    0.9499    0.0341    0.0777 C   0  0  0  0  0  0  0  0  0  0  0  0
    0.4634    1.3065   -0.5876 C   0  0  0  0  0  0  0  0  0  0  0  0
    0.8896    1.3681   -2.0151 N   0  0  0  0  0  0  0  0  0  0  0  0
    2.1154    1.4593   -2.1320 O   0  0  0  0  0  0  0  0  0  0  0  0
  1  2  1  0
  2  3  1  0
  3  4  2  0
M  END
>  <DRUGBANK_ID>  (1) 
DB02646

>  <SECONDARY_ACCESSION_NUMBERS>  (1) 
EXPT02372

>  <COMMON_NAME>  (1) 
Nitrosoethane

>  <CAS_NUMBER>  (1) 
925-91-7

>  <UNII>  (1) 
EV3G0P128S

$$$$
