
     RDKit          3D

 19 21  0  0  1  0  0  0  0  0999 V2000
    0.1820   -6.4610   -2.0635 C   0  0  0  0  0  0  0  0  0  0  0  0
   -0.4172   -5.8590   -0.8260 C   0  0  0  0  0  0  0  0  0  0  0  0
   -0.8761   -4.5277   -0.8501 C   0  0  0  0  0  0  0  0  0  0  0  0
   -1.4769   -3.8906    0.2676 C   0  0  0  0  0  0  0  0  0  0  0  0
   -1.5380   -4.6566    1.4308 C   0  0  0  0  0  0  0  0  0  0  0  0
   -1.0919   -5.9771    1.4740 C   0  0  0  0  0  0  0  0  0  0  0  0
   -0.5346   -6.5940    0.3571 C   0  0  0  0  0  0  0  0  0  0  0  0
   -0.0873   -8.0165    0.5095 C   0  0  0  0  0  0  0  0  0  0  0  0
   -2.0681   -4.2608    2.6116 O   0  0  0  0  0  0  0  0  0  0  0  0
   -2.0188   -2.4859   -0.0031 C   0  0  1  0  0  0  0  0  0  0  0  0
   -3.0998   -2.6150   -1.1390 C   0  0  0  0  0  0  0  0  0  0  0  0
   -4.2446   -1.6845   -0.6964 C   0  0  2  0  0  0  0  0  0  0  0  0
   -3.7439   -0.2554   -0.9295 C   0  0  0  0  0  0  0  0  0  0  0  0
   -2.7254   -0.0828    0.2008 C   0  0  0  0  0  0  0  0  0  0  0  0
   -2.7532   -1.4699    0.9723 C   0  0  1  0  0  0  0  0  0  0  0  0
   -4.2677   -1.8421    0.8457 C   0  0  0  0  0  0  0  0  0  0  0  0
   -5.2376   -0.8863    1.5634 C   0  0  0  0  0  0  0  0  0  0  0  0
   -4.6867   -3.2523    1.2934 C   0  0  0  0  0  0  0  0  0  0  0  0
   -2.1666   -1.1990    2.3571 C   0  0  0  0  0  0  0  0  0  0  0  0
  1  2  1  0
  2  3  2  0
  2  7  1  0
  3  4  1  0
  4  5  2  0
  5  6  1  0
  5  9  1  0
  6  7  2  0
  7  8  1  0
 10 11  1  0
 10 15  1  0
 10  4  1  1
 12 11  1  6
 12 13  1  0
 12 16  1  0
 13 14  1  0
 14 15  1  0
 15 16  1  0
 15 19  1  1
 16 17  1  0
 16 18  1  0
M  END
>  <DRUGBANK_ID>  (1) 
DB13714

>  <COMMON_NAME>  (1) 
Xibornol

>  <CAS_NUMBER>  (1) 
13741-18-9

>  <UNII>  (1) 
RQ12GMY0FZ

>  <SYNONYMS>  (1) 
Xibornol

$$$$
