LZQ
     RDKit          3D

 29 31  0  0  0  0  0  0  0  0999 V2000
    1.4291   -0.1894    0.0040 C   0  0  0  0  0  0  0  0  0  0  0  0
    1.8424    2.2620   -0.2377 C   0  0  0  0  0  0  0  0  0  0  0  0
    1.9039    4.5617    0.7040 C   0  0  0  0  0  0  0  0  0  0  0  0
    2.6751    5.7944    0.2400 C   0  0  0  0  0  0  0  0  0  0  0  0
   -4.0568    2.0951   -1.5993 C   0  0  0  0  0  0  0  0  0  0  0  0
   -3.3515   -1.5651   -1.4841 C   0  0  0  0  0  0  0  0  0  0  0  0
   -2.7583    0.4510   -0.1022 N   0  0  0  0  0  0  0  0  0  0  0  0
    2.7818    6.0921   -0.9431 O   0  0  0  0  0  0  0  0  0  0  0  0
    0.5622   -1.2713    0.0577 C   0  0  0  0  0  0  0  0  0  0  0  0
   -4.7474    1.1272   -2.3335 C   0  0  0  0  0  0  0  0  0  0  0  0
   -3.8325   -2.8722   -1.5692 C   0  0  0  0  0  0  0  0  0  0  0  0
    3.0485    2.0467   -0.3634 O   0  0  0  0  0  0  0  0  0  0  0  0
    1.7638    4.3855    1.9123 O   0  0  0  0  0  0  0  0  0  0  0  0
    3.1596    6.5228    1.2572 O   0  0  0  0  0  0  0  0  0  0  0  0
   -0.8149   -1.0511    0.0840 C   0  0  0  0  0  0  0  0  0  0  0  0
   -5.3981    1.3532   -3.5312 C   0  0  0  0  0  0  0  0  0  0  0  0
   -3.4937   -3.6702   -2.6654 C   0  0  0  0  0  0  0  0  0  0  0  0
   -1.3834    0.2384    0.0466 C   0  0  0  0  0  0  0  0  0  0  0  0
   -5.4967    2.6429   -3.9856 C   0  0  0  0  0  0  0  0  0  0  0  0
   -2.7779   -3.1423   -3.7430 C   0  0  0  0  0  0  0  0  0  0  0  0
   -0.4691    1.2939    0.0882 C   0  0  0  0  0  0  0  0  0  0  0  0
   -4.9075    3.6711   -3.2476 C   0  0  0  0  0  0  0  0  0  0  0  0
   -2.3486   -1.8249   -3.7116 C   0  0  0  0  0  0  0  0  0  0  0  0
    0.9143    1.1082   -0.0198 C   0  0  0  0  0  0  0  0  0  0  0  0
   -4.1452    3.4004   -2.0960 C   0  0  0  0  0  0  0  0  0  0  0  0
   -2.6160   -1.0561   -2.5851 C   0  0  0  0  0  0  0  0  0  0  0  0
    1.3187    3.6755   -0.3576 C   0  0  0  0  0  0  0  0  0  0  0  0
   -3.3745    1.7972   -0.2651 C   0  0  0  0  0  0  0  0  0  0  0  0
   -3.6374   -0.7302   -0.2185 C   0  0  0  0  0  0  0  0  0  0  0  0
  2 27  1  0
  2 12  2  0
  3  4  1  0
  3 13  2  0
  4 14  1  0
  5 10  2  0
  6 29  1  0
  6 26  1  0
  7 18  1  0
  8  4  2  0
  9  1  2  0
 10 16  1  0
 11  6  2  0
 15  9  1  0
 17 11  1  0
 17 20  2  0
 18 15  2  0
 18 21  1  0
 19 16  2  0
 20 23  1  0
 21 24  2  0
 22 19  1  0
 23 26  2  0
 24  1  1  0
 24  2  1  0
 25  5  1  0
 25 22  2  0
 27  3  1  0
 28  5  1  0
 28  7  1  0
 29  7  1  0
M  END
>  <DRUGBANK_ID>  (1) 
DB08147

>  <COMMON_NAME>  (1) 
4-[3-(dibenzylamino)phenyl]-2,4-dioxobutanoic acid

$$$$
