NIP
     RDKit          3D

 23 23  0  0  0  0  0  0  0  0999 V2000
    2.7232   -1.5563   -0.1156 C   0  0  0  0  0  0  0  0  0  0  0  0
    3.5107   -0.3925   -0.0826 C   0  0  0  0  0  0  0  0  0  0  0  0
    2.9134    0.8768   -0.0095 C   0  0  0  0  0  0  0  0  0  0  0  0
    3.7883    2.0505    0.0966 N   0  0  0  0  0  0  0  0  0  0  0  0
    5.0134    1.8619    0.1549 O   0  0  0  0  0  0  0  0  0  0  0  0
    3.2523    3.1687    0.0855 O   0  0  0  0  0  0  0  0  0  0  0  0
    1.5166    1.0047   -0.0303 C   0  0  0  0  0  0  0  0  0  0  0  0
    0.8675    2.2124   -0.0372 O   0  0  0  0  0  0  0  0  0  0  0  0
    0.7348   -0.1599   -0.0681 C   0  0  0  0  0  0  0  0  0  0  0  0
   -1.3616   -0.0906   -0.0248 I   0  0  0  0  0  0  0  0  0  0  0  0
    1.3307   -1.4270   -0.1122 C   0  0  0  0  0  0  0  0  0  0  0  0
    3.3636   -2.9293   -0.0564 C   0  0  0  0  0  0  0  0  0  0  0  0
    2.9322   -3.7509    1.1462 C   0  0  0  0  0  0  0  0  0  0  0  0
    2.3247   -4.8201    1.0202 O   0  0  0  0  0  0  0  0  0  0  0  0
    3.2656   -3.3069    2.3882 N   0  0  0  0  0  0  0  0  0  0  0  0
    3.9196   -2.0589    2.7345 C   0  0  0  0  0  0  0  0  0  0  0  0
    2.9685   -1.1236    3.4688 C   0  0  0  0  0  0  0  0  0  0  0  0
    2.6198   -1.7017    4.8413 C   0  0  0  0  0  0  0  0  0  0  0  0
    3.8637   -1.8644    5.7243 C   0  0  0  0  0  0  0  0  0  0  0  0
    4.6308   -0.5613    5.9425 C   0  0  0  0  0  0  0  0  0  0  0  0
    3.7989    0.4798    6.6979 C   0  0  0  0  0  0  0  0  0  0  0  0
    4.2474    0.7859    7.8364 O   0  0  0  0  0  0  0  0  0  0  0  0
    2.7902    0.9297    6.0868 O   0  0  0  0  0  0  0  0  0  0  0  0
  1  2  2  0
  1 11  1  0
  1 12  1  0
  2  3  1  0
  3  4  1  0
  3  7  2  0
  4  5  1  0
  4  6  2  0
  7  8  1  0
  7  9  1  0
  9 10  1  0
  9 11  2  0
 12 13  1  0
 13 14  2  0
 13 15  1  0
 15 16  1  0
 16 17  1  0
 17 18  1  0
 18 19  1  0
 19 20  1  0
 20 21  1  0
 21 22  2  0
 21 23  1  0
M  CHG  3   4   1   5  -1  23  -1
M  END
>  <DRUGBANK_ID>  (1) 
DB08273

>  <COMMON_NAME>  (1) 
4-HYDROXY-5-IODO-3-NITROPHENYLACETYL-EPSILON-AMINOCAPROIC ACID ANION

$$$$
