
     RDKit          3D

 23 26  0  0  1  0  0  0  0  0999 V2000
    0.1682   -0.6081   -0.0754 C   0  0  0  0  0  0  0  0  0  0  0  0
    1.4603   -1.0575   -0.1119 N   0  0  0  0  0  0  0  0  0  0  0  0
    0.2565    0.7554   -0.0416 C   0  0  0  0  0  0  0  0  0  0  0  0
   -0.9381   -1.3945   -0.0426 N   0  0  0  0  0  0  0  0  0  0  0  0
    1.7898   -2.4435    0.1003 C   0  0  1  0  0  0  0  0  0  0  0  0
    2.2676    0.0515   -0.0562 C   0  0  0  0  0  0  0  0  0  0  0  0
    1.5653    1.1730   -0.0379 N   0  0  0  0  0  0  0  0  0  0  0  0
   -0.9876    1.5137   -0.0046 C   0  0  0  0  0  0  0  0  0  0  0  0
   -2.0530   -0.7188   -0.0082 C   0  0  0  0  0  0  0  0  0  0  0  0
    2.1660   -3.3899   -1.0864 C   0  0  1  0  0  0  0  0  0  0  0  0
    2.8206   -2.5347    1.1256 O   0  0  0  0  0  0  0  0  0  0  0  0
   -2.1017    0.6577   -0.0006 N   0  0  0  0  0  0  0  0  0  0  0  0
   -1.0974    2.7102    0.0129 O   0  0  0  0  0  0  0  0  0  0  0  0
   -3.2406   -1.3663    0.0222 N   0  0  0  0  0  0  0  0  0  0  0  0
    3.4879   -3.9755   -0.5992 C   0  0  1  0  0  0  0  0  0  0  0  0
    1.2351   -4.4576   -1.2283 O   0  0  0  0  0  0  0  0  0  0  0  0
    3.3971   -3.8144    0.9446 C   0  0  1  0  0  0  0  0  0  0  0  0
    3.9349   -5.3486   -0.9040 O   0  0  0  0  0  0  0  0  0  0  0  0
    4.7074   -4.1135    1.7211 C   0  0  0  0  0  0  0  0  0  0  0  0
    5.3228   -5.8525   -0.1572 P   0  0  2  0  0  0  0  0  0  0  0  0
    5.0995   -5.4791    1.4091 O   0  0  0  0  0  0  0  0  0  0  0  0
    6.1016   -4.5270   -0.5263 O   0  0  0  0  0  0  0  0  0  0  0  0
    6.2993   -6.8793   -0.6093 O   0  0  0  0  0  0  0  0  0  0  0  0
  1  2  1  0
  1  3  2  0
  1  4  1  0
  2  6  1  0
  3  7  1  0
  3  8  1  0
  4  9  2  0
  5  2  1  6
  5 10  1  0
  5 11  1  0
  6  7  2  0
  8 12  1  0
  8 13  2  0
  9 14  1  0
  9 12  1  0
 10 15  1  0
 10 16  1  1
 11 17  1  0
 15 18  1  1
 15 17  1  0
 17 19  1  1
 18 20  1  0
 19 21  1  0
 20 22  1  6
 20 23  2  0
 20 21  1  0
M  END
>  <DRUGBANK_ID>  (1) 
DB02315

>  <SECONDARY_ACCESSION_NUMBERS>  (1) 
EXPT02518; DB04536

>  <COMMON_NAME>  (1) 
Cyclic GMP

>  <CAS_NUMBER>  (1) 
7665-99-8

>  <UNII>  (1) 
H2D2X058MU

>  <SYNONYMS>  (1) 
3',5'-cyclic GMP; cGMP; Cyclic GMP; Cyclic guanosine monophosphate; Guanosine 3',5'-cyclic monophosphate; Guanosine 3',5'-cyclic phosphate; Guanosine cyclic monophosphate

$$$$
