558
     RDKit          3D

 23 23  0  0  1  0  0  0  0  0999 V2000
    3.8359    0.9843   -0.6553 O   0  0  0  0  0  0  0  0  0  0  0  0
    4.7885   -1.5293   -0.7306 O   0  0  0  0  0  0  0  0  0  0  0  0
    1.3811   -2.8181   -0.2156 O   0  0  0  0  0  0  0  0  0  0  0  0
    2.5511   -5.0513   -0.8595 O   0  0  0  0  0  0  0  0  0  0  0  0
   -0.6588   -2.1043    1.5141 O   0  0  0  0  0  0  0  0  0  0  0  0
    4.0698    4.5341   -1.6038 O   0  0  0  0  0  0  0  0  0  0  0  0
    5.6664    2.9773   -1.3930 O   0  0  0  0  0  0  0  0  0  0  0  0
    0.5579   -0.5817    0.3865 N   0  0  0  0  0  0  0  0  0  0  0  0
    0.3263    2.4204    0.6620 N   0  0  0  0  0  0  0  0  0  0  0  0
    2.2469    2.9517    1.9518 N   0  0  0  0  0  0  0  0  0  0  0  0
    0.2149    3.5627    2.6162 N   0  0  0  0  0  0  0  0  0  0  0  0
    2.8182   -0.0639   -0.6986 C   0  0  2  0  0  0  0  0  0  0  0  0
    1.6404    0.3786    0.1995 C   0  0  1  0  0  0  0  0  0  0  0  0
    3.4469   -1.4153   -0.2420 C   0  0  1  0  0  0  0  0  0  0  0  0
    1.0754    1.6938   -0.3741 C   0  0  2  0  0  0  0  0  0  0  0  0
    2.6739   -2.6544   -0.7597 C   0  0  1  0  0  0  0  0  0  0  0  0
    2.1048    2.5910   -0.9884 C   0  0  0  0  0  0  0  0  0  0  0  0
    3.4060    2.2581   -1.0434 C   0  0  0  0  0  0  0  0  0  0  0  0
    3.3734   -3.9665   -0.4217 C   0  0  0  0  0  0  0  0  0  0  0  0
    0.1574   -1.1851    1.5470 C   0  0  0  0  0  0  0  0  0  0  0  0
    4.4720    3.2668   -1.3773 C   0  0  0  0  0  0  0  0  0  0  0  0
    0.9295    2.9460    1.6642 C   0  0  0  0  0  0  0  0  0  0  0  0
    0.8901   -0.8463    2.8077 C   0  0  0  0  0  0  0  0  0  0  0  0
 12  1  1  1
  1 18  1  0
  4 19  1  0
  5 20  2  0
  6 21  1  0
  7 21  2  0
  8 20  1  0
  9 22  2  3
 10 22  1  0
 11 22  1  0
 12 13  1  0
 13  8  1  6
 13 15  1  0
 14 12  1  0
 14  2  1  6
 15 17  1  0
 15  9  1  1
 16 19  1  0
 16 14  1  0
 16  3  1  1
 17 18  2  0
 18 21  1  0
 20 23  1  0
M  END
>  <DRUGBANK_ID>  (1) 
DB00558

>  <SECONDARY_ACCESSION_NUMBERS>  (1) 
APRD00378

>  <COMMON_NAME>  (1) 
Zanamivir

>  <CAS_NUMBER>  (1) 
139110-80-8

>  <UNII>  (1) 
L6O3XI777I

>  <SYNONYMS>  (1) 
(2R,3R,4S)-3-(acetylamino)-4-carbamimidamido-2-[(1R,2R)-1,2,3-trihydroxypropyl]-3,4-dihydro-2H-pyran-6-carboxylic acid; 4-guanidino-2,4-dideoxy-2,3-dehydro-N-acetylneuraminic acid; 4-guanidino-Neu5Ac2en; 5-(acetylamino)-2,6-anhydro-4-carbamimidamido-3,4,5-trideoxy-D-glycero-D-galacto-non-2-enonic acid; 5-acetamido-2,6-anhydro-3,4,5-trideoxy-4-guanidino-D-glycero-D-galacto-non-2-enonic acid; GANA; Zanamivir

$$$$
