
     RDKit          3D

 29 33  0  0  0  0  0  0  0  0999 V2000
   -0.7677    2.5340    4.6303 C   0  0  2  0  0  0  0  0  0  0  0  0
   -2.1885    2.2227    5.1071 C   0  0  1  0  0  0  0  0  0  0  0  0
   -1.0918   -0.5856    1.6217 C   0  0  0  0  0  0  0  0  0  0  0  0
   -0.8641    0.4838    2.6775 C   0  0  0  0  0  0  0  0  0  0  0  0
   -0.3980    1.7094    2.3149 C   0  0  0  0  0  0  0  0  0  0  0  0
   -0.1317    2.8607    3.2890 C   0  0  1  0  0  0  0  0  0  0  0  0
   -0.7467    4.1318    2.7022 C   0  0  2  0  0  0  0  0  0  0  0  0
   -0.0760    2.1147    0.9076 C   0  0  0  0  0  0  0  0  0  0  0  0
    0.1094    3.3379    0.5160 C   0  0  0  0  0  0  0  0  0  0  0  0
    0.0403    4.5098    1.4449 C   0  0  1  0  0  0  0  0  0  0  0  0
   -1.3207    6.5257    3.0587 C   0  0  0  0  0  0  0  0  0  0  0  0
   -0.6790    5.2890    3.6963 C   0  0  0  0  0  0  0  0  0  0  0  0
   -0.6187    5.7198    0.7882 C   0  0  2  0  0  0  0  0  0  0  0  0
   -0.5824    6.8949    1.7715 C   0  0  1  0  0  0  0  0  0  0  0  0
   -1.9406    6.9752   -1.4807 C   0  0  2  0  0  0  0  0  0  0  0  0
   -2.0584    5.3920    0.4273 C   0  0  0  0  0  0  0  0  0  0  0  0
   -2.7067    6.6041   -0.2215 C   0  0  0  0  0  0  0  0  0  0  0  0
   -0.8468   -0.3349    0.4001 O   0  0  0  0  0  0  0  0  0  0  0  0
    0.0618    0.8262   -0.3127 Cl  0  0  0  0  0  0  0  0  0  0  0  0
   -0.5009    7.3030   -1.1198 C   0  0  0  0  0  0  0  0  0  0  0  0
    0.4057    6.2136   -0.5706 C   0  0  0  0  0  0  0  0  0  0  0  0
   -0.0513    8.4801   -1.2860 O   0  0  0  0  0  0  0  0  0  0  0  0
   -2.5462    8.1076   -2.0868 O   0  0  0  0  0  0  0  0  0  0  0  0
    0.8631    7.2313    2.0997 C   0  0  0  0  0  0  0  0  0  0  0  0
    1.3605    3.0638    3.4950 C   0  0  0  0  0  0  0  0  0  0  0  0
   -1.0479    1.2478    5.4101 C   0  0  0  0  0  0  0  0  0  0  0  0
   -1.7617    8.8119   -3.0381 C   0  0  0  0  0  0  0  0  0  0  0  0
   -0.3675    8.3180   -3.3884 C   0  0  0  0  0  0  0  0  0  0  0  0
   -2.2252    9.8552   -3.5965 O   0  0  0  0  0  0  0  0  0  0  0  0
  1  2  1  0
  1  6  1  0
  1 26  1  6
  2  3  1  0
  2 26  1  1
  3  4  1  0
  3 18  2  0
  4  5  2  0
  5  8  1  0
  6  5  1  0
  6 25  1  1
  7  6  1  0
  7 10  1  0
  8  9  2  0
  8 19  1  0
 10  9  1  6
 10 13  1  0
 11 12  1  0
 11 14  1  0
  7 12  1  1
 13 16  1  1
 14 13  1  0
 14 24  1  1
 15 14  1  0
 15 17  1  0
 15 23  1  1
 15 20  1  0
 16 17  1  0
 20 21  1  0
 20 22  2  0
 23 27  1  0
 27 28  1  0
 27 29  2  0
M  END
>  <DRUGBANK_ID>  (1) 
DB04839

>  <COMMON_NAME>  (1) 
Cyproterone acetate

>  <CAS_NUMBER>  (1) 
427-51-0

>  <UNII>  (1) 
4KM2BN5JHF

>  <SYNONYMS>  (1) 
Cyproterone 17-O-acetate; Cyproterone acetate

$$$$
