
     RDKit          3D

  5  3  0  0  0  0  0  0  0  0999 V2000
   -0.4174    0.5845   -0.2409 K   0  0  0  0  0 15  0  0  0  0  0  0
    1.6107   -0.5163    0.1731 O   0  0  0  0  0  0  0  0  0  0  0  0
    2.7876   -0.1074    0.1376 N   0  0  0  0  0  0  0  0  0  0  0  0
    3.5343   -0.3057    1.0969 O   0  0  0  0  0  0  0  0  0  0  0  0
    3.1456    0.5602   -0.8419 O   0  0  0  0  0  0  0  0  0  0  0  0
  2  3  1  0
  3  4  1  0
  3  5  2  0
M  CHG  4   1   1   2  -1   3   1   4  -1
M  END
>  <DRUGBANK_ID>  (1) 
DB11090

>  <COMMON_NAME>  (1) 
Potassium nitrate

>  <CAS_NUMBER>  (1) 
7757-79-1

>  <UNII>  (1) 
RU45X2JN0Z

>  <SYNONYMS>  (1) 
Potassium nitrate

$$$$
