
     RDKit          3D

 12 11  0  0  0  0  0  0  0  0999 V2000
    3.3096    0.8449   -3.4756 O   0  0  0  0  0  0  0  0  0  0  0  0
    2.4507    0.3126   -2.4541 C   0  0  0  0  0  0  0  0  0  0  0  0
    2.4558    0.0749    0.0874 C   0  0  2  0  0  0  0  0  0  0  0  0
    3.0207   -0.4597   -1.2553 C   0  0  2  0  0  0  0  0  0  0  0  0
    1.0366   -0.4198    0.3173 C   0  0  0  0  0  0  0  0  0  0  0  0
    2.4984    1.4998    0.1689 O   0  0  0  0  0  0  0  0  0  0  0  0
    4.4460   -0.4676   -1.1940 O   0  0  0  0  0  0  0  0  0  0  0  0
    0.9911    1.5063   -4.5582 O   0  0  0  0  0  0  0  0  0  0  0  0
    2.6253    3.1434   -3.3799 O   0  0  0  0  0  0  0  0  0  0  0  0
    0.0941   -0.2155   -0.4572 O   0  0  0  0  0  0  0  0  0  0  0  0
    2.4126    1.8856   -4.3454 P   0  0  0  0  0  0  0  0  0  0  0  0
    3.1975    2.4574   -5.6012 O   0  0  0  0  0  0  0  0  0  0  0  0
  1 11  1  0
  1  2  1  0
  3  6  1  6
  3  5  1  0
  4  7  1  1
  4  3  1  0
  4  2  1  0
  5 10  2  0
  8 11  2  0
  9 11  1  0
 11 12  1  0
M  END
>  <DRUGBANK_ID>  (1) 
DB03937

>  <SECONDARY_ACCESSION_NUMBERS>  (1) 
EXPT01316

>  <COMMON_NAME>  (1) 
D-erythrose 4-phosphate

>  <CAS_NUMBER>  (1) 
585-18-2

>  <UNII>  (1) 
2156QF7O8M

>  <SYNONYMS>  (1) 
4-O-phosphono-D-erythrose; Erythose-4-phosphate

$$$$
