
     RDKit          3D

 28 30  0  0  0  0  0  0  0  0999 V2000
   -0.2620   -1.1579    0.0126 C   0  0  0  0  0  0  0  0  0  0  0  0
   -1.1890    0.0281    0.1023 C   0  0  0  0  0  0  0  0  0  0  0  0
   -0.3784    1.1187    0.0844 C   0  0  0  0  0  0  0  0  0  0  0  0
    0.9627    0.7346    0.1420 N   0  0  0  0  0  0  0  0  0  0  0  0
    1.0296   -0.6567    0.0764 N   0  0  0  0  0  0  0  0  0  0  0  0
   -2.6761   -0.1723    0.1550 C   0  0  0  0  0  0  0  0  0  0  0  0
   -3.3470    0.5332    1.3386 C   0  0  0  0  0  0  0  0  0  0  0  0
   -3.3299    0.3857   -1.0695 C   0  0  0  0  0  0  0  0  0  0  0  0
    2.1224    1.5895   -0.0148 C   0  0  0  0  0  0  0  0  0  0  0  0
   -0.6339   -2.3286   -0.0577 O   0  0  0  0  0  0  0  0  0  0  0  0
    2.2451   -1.3571    0.0603 C   0  0  0  0  0  0  0  0  0  0  0  0
    3.2083   -1.0987    1.0462 C   0  0  0  0  0  0  0  0  0  0  0  0
    4.5036   -1.5974    0.9224 C   0  0  0  0  0  0  0  0  0  0  0  0
    4.8201   -2.4338   -0.1443 C   0  0  0  0  0  0  0  0  0  0  0  0
    3.8532   -2.7362   -1.1057 C   0  0  0  0  0  0  0  0  0  0  0  0
    2.5633   -2.2030   -1.0041 C   0  0  0  0  0  0  0  0  0  0  0  0
   -0.7143    2.6144    0.0155 C   0  0  0  0  0  0  0  0  0  0  0  0
   -1.3335    3.0827   -1.2383 N   0  0  0  0  0  0  0  0  0  0  0  0
   -1.7355    4.5188   -1.2293 C   0  0  0  0  0  0  0  0  0  0  0  0
   -0.5436    2.7244   -2.4158 C   0  0  0  0  0  0  0  0  0  0  0  0
   -0.5126    5.4549   -1.1861 C   0  0  0  0  0  0  0  0  0  0  0  0
   -2.6398    4.9178   -2.4548 C   0  0  0  0  0  0  0  0  0  0  0  0
   -3.9518    4.1664   -2.5459 C   0  0  0  0  0  0  0  0  0  0  0  0
   -3.9725    2.8022   -2.8274 C   0  0  0  0  0  0  0  0  0  0  0  0
   -5.1403    2.0456   -2.7227 C   0  0  0  0  0  0  0  0  0  0  0  0
   -6.3123    2.6393   -2.3042 C   0  0  0  0  0  0  0  0  0  0  0  0
   -6.3391    4.0187   -2.1374 C   0  0  0  0  0  0  0  0  0  0  0  0
   -5.1787    4.7859   -2.3141 C   0  0  0  0  0  0  0  0  0  0  0  0
  1 10  2  0
  1  2  1  0
  2  3  2  0
  2  6  1  0
  3  4  1  0
  3 17  1  0
  4  5  1  0
  4  9  1  0
  5  1  1  0
  5 11  1  0
  6  7  1  0
  6  8  1  0
 11 12  2  0
 12 13  1  0
 13 14  2  0
 14 15  1  0
 15 16  2  0
 16 11  1  0
 17 18  1  0
 18 19  1  0
 18 20  1  0
 19 21  1  0
 19 22  1  0
 22 23  1  0
 23 24  2  0
 24 25  1  0
 25 26  2  0
 26 27  1  0
 27 28  2  0
 28 23  1  0
M  END
>  <DRUGBANK_ID>  (1) 
DB16702

>  <COMMON_NAME>  (1) 
Famprofazone

>  <CAS_NUMBER>  (1) 
22881-35-2

>  <UNII>  (1) 
HN0NCX453C

>  <SYNONYMS>  (1) 
Famprofazone

$$$$
