1470
     RDKit          3D

 25 27  0  0  1  0  0  0  0  0999 V2000
   -0.8234   -0.0171    0.8624 S   0  0  0  0  0  0  0  0  0  0  0  0
   -5.8029    0.6088   -0.0412 O   0  0  0  0  0  0  0  0  0  0  0  0
   -2.2868    2.3176   -1.4073 N   0  0  0  0  0  0  0  0  0  0  0  0
   -5.8018    0.1485   -2.3066 N   0  0  0  0  0  0  0  0  0  0  0  0
   -4.5134    0.8273   -2.4996 C   0  0  0  0  0  0  0  0  0  0  0  0
   -4.6292    2.3133   -2.1557 C   0  0  0  0  0  0  0  0  0  0  0  0
   -3.3577    0.1553   -1.7618 C   0  0  0  0  0  0  0  0  0  0  0  0
   -3.2893    3.0201   -2.2203 C   0  0  0  0  0  0  0  0  0  0  0  0
   -2.1017    0.9808   -1.9991 C   0  0  0  0  0  0  0  0  0  0  0  0
   -0.9994    3.0335   -1.2498 C   0  0  0  0  0  0  0  0  0  0  0  0
   -0.2400    2.6530    0.0726 C   0  0  0  0  0  0  0  0  0  0  0  0
   -1.1943    4.5720   -1.2312 C   0  0  0  0  0  0  0  0  0  0  0  0
   -6.3547   -0.4441   -3.4691 C   0  0  0  0  0  0  0  0  0  0  0  0
   -6.3577    0.1065   -1.0175 C   0  0  0  0  0  0  0  0  0  0  0  0
    0.2113    1.2177    0.2309 C   0  0  0  0  0  0  0  0  0  0  0  0
   -7.6548   -0.6381   -0.7497 C   0  0  0  0  0  0  0  0  0  0  0  0
   -5.7058   -1.5110   -4.0923 C   0  0  0  0  0  0  0  0  0  0  0  0
   -7.5231    0.0514   -4.0412 C   0  0  0  0  0  0  0  0  0  0  0  0
    1.4773    0.6911    0.0485 C   0  0  0  0  0  0  0  0  0  0  0  0
   -8.8892    0.0194   -1.3182 C   0  0  0  0  0  0  0  0  0  0  0  0
   -6.3123   -2.1689   -5.1654 C   0  0  0  0  0  0  0  0  0  0  0  0
   -8.2034   -0.6918   -5.0058 C   0  0  0  0  0  0  0  0  0  0  0  0
    1.4737   -0.7357    0.0410 C   0  0  0  0  0  0  0  0  0  0  0  0
    0.2065   -1.2415    0.2306 C   0  0  0  0  0  0  0  0  0  0  0  0
   -7.5870   -1.7934   -5.5855 C   0  0  0  0  0  0  0  0  0  0  0  0
  1 15  1  0
  1 24  1  0
  2 14  2  0
  3  8  1  0
  3  9  1  0
  3 10  1  0
  4  5  1  0
  4 13  1  0
  4 14  1  0
  5  6  1  0
  5  7  1  0
  6  8  1  0
  7  9  1  0
 10 11  1  0
 10 12  1  0
 11 15  1  0
 13 17  2  0
 13 18  1  0
 14 16  1  0
 15 19  2  0
 16 20  1  0
 17 21  1  0
 18 22  2  0
 19 23  1  0
 21 25  2  0
 22 25  1  0
 23 24  2  0
M  END
>  <DRUGBANK_ID>  (1) 
DB01470

>  <COMMON_NAME>  (1) 
alpha-methylthiofentanyl

>  <CAS_NUMBER>  (1) 
103963-66-2

>  <UNII>  (1) 
NF684LIF79

>  <SYNONYMS>  (1) 
alpha-methylthiofentanyl; Î±-methylthiofentanyl

$$$$
