
     RDKit          3D

 27 30  0  0  1  0  0  0  0  0999 V2000
    0.1086   -0.2717   -2.0422 C   0  0  0  0  0  0  0  0  0  0  0  0
    0.6004    0.6341   -0.8990 C   0  0  1  0  0  0  0  0  0  0  0  0
    1.5827    1.6462   -1.5214 C   0  0  0  0  0  0  0  0  0  0  0  0
    2.0083    2.7552   -0.6709 N   0  0  0  0  0  0  0  0  0  0  0  0
    0.7850    3.4176   -0.0985 C   0  0  1  0  0  0  0  0  0  0  0  0
   -0.1708    4.3420   -0.9967 C   0  0  0  0  0  0  0  0  0  0  0  0
   -0.7819    3.7472   -2.2747 C   0  0  0  0  0  0  0  0  0  0  0  0
   -1.7648    2.7659   -2.1655 C   0  0  0  0  0  0  0  0  0  0  0  0
   -2.0930    1.9351   -3.2451 C   0  0  0  0  0  0  0  0  0  0  0  0
   -1.4363    2.0681   -4.4616 C   0  0  0  0  0  0  0  0  0  0  0  0
   -1.6811    0.9143   -5.7121 Cl  0  0  0  0  0  0  0  0  0  0  0  0
   -0.5541    3.1178   -4.6382 C   0  0  0  0  0  0  0  0  0  0  0  0
   -0.3193    4.0096   -3.5754 C   0  0  0  0  0  0  0  0  0  0  0  0
   -0.0721    2.3378    0.6282 C   0  0  0  0  0  0  0  0  0  0  0  0
   -0.4977    1.2651   -0.2300 O   0  0  0  0  0  0  0  0  0  0  0  0
    3.0365    3.6809   -1.2237 C   0  0  0  0  0  0  0  0  0  0  0  0
    2.6139    4.5108   -2.4367 C   0  0  0  0  0  0  0  0  0  0  0  0
    2.6886    3.7596   -3.7511 C   0  0  0  0  0  0  0  0  0  0  0  0
    4.0664    3.4152   -3.9355 N   0  0  0  0  0  0  0  0  0  0  0  0
    4.5526    2.4479   -2.9654 C   0  0  0  0  0  0  0  0  0  0  0  0
    4.4553    3.1320   -1.5835 C   0  0  0  0  0  0  0  0  0  0  0  0
    4.5654    3.5115   -5.1874 C   0  0  0  0  0  0  0  0  0  0  0  0
    5.0787    2.6382   -5.9944 N   0  0  0  0  0  0  0  0  0  0  0  0
    5.4862    3.4005   -7.0519 C   0  0  0  0  0  0  0  0  0  0  0  0
    6.0836    2.8225   -8.0701 N   0  0  0  0  0  0  0  0  0  0  0  0
    5.2541    4.7092   -6.9435 N   0  0  0  0  0  0  0  0  0  0  0  0
    4.6402    4.7581   -5.7586 N   0  0  0  0  0  0  0  0  0  0  0  0
  2  3  1  0
  2 15  1  0
  2  1  1  6
  3  4  1  0
  4 16  1  0
  5  4  1  0
  5 14  1  0
  5  6  1  6
  6  7  1  0
  7  8  2  0
  7 13  1  0
  8  9  1  0
  9 10  2  0
 10 11  1  0
 10 12  1  0
 12 13  2  0
 14 15  1  0
 16 17  1  0
 16 21  1  0
 17 18  1  0
 18 19  1  0
 19 20  1  0
 19 22  1  0
 20 21  1  0
 22 23  2  0
 22 27  1  0
 23 24  1  0
 24 25  1  0
 24 26  2  0
 26 27  1  0
M  END
>  <DRUGBANK_ID>  (1) 
DB18065

>  <COMMON_NAME>  (1) 
5-(4-((2S,5S)-5-(4-chlorobenzyl)-2-methylmorpholino)piperidin-1-yl)-1H-1,2,4-triazol-3-amine

>  <CAS_NUMBER>  (1) 
2088453-21-6

>  <UNII>  (1) 
X4D0G881CN

>  <SYNONYMS>  (1) 
1H-1,2,4-Triazol-3-amine, 5-[4-[(2S,5S)-5-[(4-chlorophenyl)methyl]-2-methyl-4-morpholinyl]-1-piperidinyl]-; 5-[4-[(2S,5S)-5-[(4-Chlorophenyl)methyl]-2-methyl-4-morpholinyl]-1-piperidinyl]-1H-1,2,4-triazol-3-amine

$$$$
