311
     RDKit          3D

 24 26  0  0  0  0  0  0  0  0999 V2000
    0.1264    1.2491    0.4010 C   0  0  0  0  0  0  0  0  0  0  0  0
   -2.2427    8.4063    1.0061 C   0  0  0  0  0  0  0  0  0  0  0  0
   -1.0375    3.4280   -1.3017 C   0  0  0  0  0  0  0  0  0  0  0  0
   -0.8101    5.7330   -1.2115 C   0  0  0  0  0  0  0  0  0  0  0  0
   -1.3797    7.0078   -0.7705 C   0  0  0  0  0  0  0  0  0  0  0  0
   -1.8272    2.2063   -0.9312 C   0  0  0  0  0  0  0  0  0  0  0  0
    0.9446   -0.0054    0.0135 C   0  0  0  0  0  0  0  0  0  0  0  0
    0.1617   -1.2794    0.3984 C   0  0  0  0  0  0  0  0  0  0  0  0
   -2.0046    0.0043    0.1963 C   0  0  0  0  0  0  0  0  0  0  0  0
   -3.2301   10.6687    0.5874 C   0  0  0  0  0  0  0  0  0  0  0  0
    1.2301   -0.0091   -1.4995 C   0  0  0  0  0  0  0  0  0  0  0  0
    2.2952    0.0100    0.7435 C   0  0  0  0  0  0  0  0  0  0  0  0
    0.8707    4.4470   -2.3310 C   0  0  0  0  0  0  0  0  0  0  0  0
    0.3947    5.6799   -1.9094 C   0  0  0  0  0  0  0  0  0  0  0  0
    0.1207    3.3096   -2.0607 C   0  0  0  0  0  0  0  0  0  0  0  0
   -2.2663    9.2317   -1.2514 C   0  0  0  0  0  0  0  0  0  0  0  0
   -1.6704    8.0407   -1.6808 C   0  0  0  0  0  0  0  0  0  0  0  0
   -1.6618    7.2166    0.5845 C   0  0  0  0  0  0  0  0  0  0  0  0
   -1.2574   -1.2764   -0.1733 C   0  0  0  0  0  0  0  0  0  0  0  0
   -2.5639    9.4197    0.1014 C   0  0  0  0  0  0  0  0  0  0  0  0
   -1.5170    4.6226   -0.8767 N   0  0  0  0  0  0  0  0  0  0  0  0
   -1.2238    1.1925   -0.1676 N   0  0  0  0  0  0  0  0  0  0  0  0
   -2.9863    2.1189   -1.3460 O   0  0  0  0  0  0  0  0  0  0  0  0
   -2.5029    8.5704    2.3110 F   0  0  0  0  0  0  0  0  0  0  0  0
  1  7  1  0
  1 22  1  0
  2 18  2  0
  2 20  1  0
  2 24  1  0
  3  6  1  0
  3 15  2  0
  3 21  1  0
  4  5  1  0
  4 14  1  0
  4 21  2  0
  5 17  2  0
  5 18  1  0
  6 22  1  0
  6 23  2  0
  7  8  1  0
  7 11  1  0
  7 12  1  0
  8 19  1  0
  9 19  1  0
  9 22  1  0
 10 20  1  0
 13 14  2  0
 13 15  1  0
 16 17  1  0
 16 20  2  0
M  END
>  <DRUGBANK_ID>  (1) 
DB06992

>  <COMMON_NAME>  (1) 
(3,3-dimethylpiperidin-1-yl)(6-(3-fluoro-4-methylphenyl)pyridin-2-yl)methanone

$$$$
