
     RDKit          3D

 31 33  0  0  1  0  0  0  0  0999 V2000
    0.9104   -0.0164   -0.0038 C   0  0  0  0  0  0  0  0  0  0  0  0
    0.3787    1.4233    0.0715 C   0  0  0  0  0  0  0  0  0  0  0  0
    0.9194    2.1995   -1.1276 C   0  0  0  0  0  0  0  0  0  0  0  0
   -1.1477    1.3730    0.0795 C   0  0  0  0  0  0  0  0  0  0  0  0
    0.8727    1.9958    1.2939 O   0  0  0  0  0  0  0  0  0  0  0  0
    0.5449    3.2718    1.6005 C   0  0  0  0  0  0  0  0  0  0  0  0
   -0.1606    4.0315    0.9507 O   0  0  0  0  0  0  0  0  0  0  0  0
    1.1182    3.6738    2.7556 N   0  0  0  0  0  0  0  0  0  0  0  0
    1.9719    2.8798    3.6340 C   0  0  0  0  0  0  0  0  0  0  0  0
    3.4063    3.4960    3.9276 C   0  0  0  0  0  0  0  0  0  0  0  0
    3.4689    4.6704    4.7655 N   0  0  0  0  0  0  0  0  0  0  0  0
    2.3661    4.8593    5.6017 C   0  0  0  0  0  0  0  0  0  0  0  0
    2.2983    6.4073    5.9907 C   0  0  2  0  0  0  0  0  0  0  0  0
    1.7803    7.8538    4.8793 C   0  0  0  0  0  0  0  0  0  0  0  0
    2.9161    8.4433    4.3152 N   0  0  0  0  0  0  0  0  0  0  0  0
    4.0991    8.0639    5.1491 C   0  0  0  0  0  0  0  0  0  0  0  0
    4.3907    6.7717    6.0270 C   0  0  2  0  0  0  0  0  0  0  0  0
    4.6195    5.3356    5.3529 C   0  0  0  0  0  0  0  0  0  0  0  0
    3.3175    6.7193    6.9028 O   0  0  0  0  0  0  0  0  0  0  0  0
    2.6754    7.8681    3.0008 C   0  0  0  0  0  0  0  0  0  0  0  0
    2.2237    6.3884    3.1947 C   0  0  0  0  0  0  0  0  0  0  0  0
    0.7238    5.9524    4.1393 O   0  0  0  0  0  0  0  0  0  0  0  0
   -0.0291    6.3088    5.6796 C   0  0  0  0  0  0  0  0  0  0  0  0
    0.2009    7.6617    6.5517 C   0  0  0  0  0  0  0  0  0  0  0  0
    0.3220    7.8317    7.9298 C   0  0  0  0  0  0  0  0  0  0  0  0
    0.3390    6.6688    8.6614 C   0  0  0  0  0  0  0  0  0  0  0  0
    0.1043    5.3746    8.0451 C   0  0  0  0  0  0  0  0  0  0  0  0
   -0.1621    5.1603    6.6048 C   0  0  0  0  0  0  0  0  0  0  0  0
   -0.0313    3.8643    6.2307 F   0  0  0  0  0  0  0  0  0  0  0  0
    0.6599    6.8848   10.0154 C   0  0  0  0  0  0  0  0  0  0  0  0
    0.8277    7.2808   11.1255 N   0  0  0  0  0  0  0  0  0  0  0  0
  1  2  1  0
  2  3  1  0
  2  4  1  0
  2  5  1  0
  5  6  1  0
  6  7  2  0
  6  8  1  0
  8  9  1  0
  9 10  1  0
 10 11  1  0
 11 12  1  0
 11 18  1  0
 13 12  1  6
 13 14  1  0
 13 19  1  0
 14 15  1  0
 15 16  1  0
 15 20  1  0
 17 16  1  6
 17 18  1  0
 17 19  1  0
 20 21  1  0
 21 22  1  0
 22 23  1  0
 23 24  2  0
 23 28  1  0
 24 25  1  0
 25 26  2  0
 26 27  1  0
 26 30  1  0
 27 28  2  0
 28 29  1  0
 30 31  3  0
M  END
>  <DRUGBANK_ID>  (1) 
DB11766

>  <COMMON_NAME>  (1) 
AZD-1305

>  <CAS_NUMBER>  (1) 
872045-91-5

>  <UNII>  (1) 
CZO834LXQM

$$$$
