EES
     RDKit          3D

 18 20  0  0  0  0  0  0  0  0999 V2000
    1.0551   -0.0365   -0.0740 Cl  0  0  0  0  0  0  0  0  0  0  0  0
    2.7614    0.0302   -0.0989 C   0  0  0  0  0  0  0  0  0  0  0  0
    3.6116    1.0913   -0.0763 C   0  0  0  0  0  0  0  0  0  0  0  0
    3.2625    2.4445   -0.0907 C   0  0  0  0  0  0  0  0  0  0  0  0
    4.3998    3.2699   -0.0797 C   0  0  0  0  0  0  0  0  0  0  0  0
    4.1542    4.6210   -0.0749 O   0  0  0  0  0  0  0  0  0  0  0  0
    5.7410    2.7897   -0.0733 C   0  0  0  0  0  0  0  0  0  0  0  0
    6.0611    1.4066   -0.0475 C   0  0  0  0  0  0  0  0  0  0  0  0
    4.9428    0.5452   -0.0240 C   0  0  0  0  0  0  0  0  0  0  0  0
    4.8742   -0.7991    0.0762 N   0  0  0  0  0  0  0  0  0  0  0  0
    3.5398   -1.1076   -0.0122 N   0  0  0  0  0  0  0  0  0  0  0  0
    3.1273   -2.4705   -0.0505 C   0  0  0  0  0  0  0  0  0  0  0  0
    3.5890   -3.3675    0.9219 C   0  0  0  0  0  0  0  0  0  0  0  0
    3.2400   -4.7216    0.8414 C   0  0  0  0  0  0  0  0  0  0  0  0
    2.2731   -2.9265   -1.0667 C   0  0  0  0  0  0  0  0  0  0  0  0
    1.9006   -4.2761   -1.1209 C   0  0  0  0  0  0  0  0  0  0  0  0
    2.4172   -5.1693   -0.1876 C   0  0  0  0  0  0  0  0  0  0  0  0
    2.1482   -6.5053   -0.2511 O   0  0  0  0  0  0  0  0  0  0  0  0
  1  2  1  0
  2  3  2  0
  2 11  1  0
  3  9  1  0
  3  4  1  0
  4  5  2  0
  5  7  1  0
  5  6  1  0
  7  8  2  0
  8  9  1  0
  9 10  2  0
 10 11  1  0
 11 12  1  0
 12 15  1  0
 12 13  2  0
 13 14  1  0
 14 17  2  0
 15 16  2  0
 16 17  1  0
 17 18  1  0
M  END
>  <DRUGBANK_ID>  (1) 
DB07708

>  <COMMON_NAME>  (1) 
3-CHLORO-2-(4-HYDROXYPHENYL)-2H-INDAZOL-5-OL

$$$$
