
     RDKit          3D

 25 28  0  0  1  0  0  0  0  0999 V2000
    0.9475    0.1788   -0.1097 N   0  0  0  0  0  0  0  0  0  0  0  0
    0.2889    0.7676   -1.1511 C   0  0  0  0  0  0  0  0  0  0  0  0
    0.9028    1.1773   -2.2144 N   0  0  0  0  0  0  0  0  0  0  0  0
    0.1872    1.9084   -3.1812 C   0  0  0  0  0  0  0  0  0  0  0  0
    0.5898    2.0625   -4.3186 O   0  0  0  0  0  0  0  0  0  0  0  0
   -1.0742    2.5036   -2.6929 C   0  0  0  0  0  0  0  0  0  0  0  0
   -1.6084    2.0604   -1.5117 C   0  0  0  0  0  0  0  0  0  0  0  0
   -1.0288    1.0365   -0.8393 N   0  0  0  0  0  0  0  0  0  0  0  0
   -2.6180    2.9382   -1.1890 N   0  0  0  0  0  0  0  0  0  0  0  0
   -2.8319    3.6736   -2.3380 C   0  0  0  0  0  0  0  0  0  0  0  0
   -1.8960    3.4600   -3.2441 N   0  0  0  0  0  0  0  0  0  0  0  0
   -3.3937    3.1081    0.0455 C   0  0  2  0  0  0  0  0  0  0  0  0
   -2.5930    3.7785    1.0458 O   0  0  0  0  0  0  0  0  0  0  0  0
   -1.9909    2.7868    1.9097 C   0  0  2  0  0  0  0  0  0  0  0  0
   -0.5100    2.6809    1.4965 C   0  0  0  0  0  0  0  0  0  0  0  0
    0.2083    3.8767    1.7705 O   0  0  0  0  0  0  0  0  0  0  0  0
   -2.8804    1.5295    1.7758 C   0  0  1  0  0  0  0  0  0  0  0  0
   -3.6956    1.3526    2.9347 O   0  0  0  0  0  0  0  0  0  0  0  0
   -5.0007    1.8189    2.6093 C   0  0  1  0  0  0  0  0  0  0  0  0
   -5.1729    1.7812    1.1871 O   0  0  0  0  0  0  0  0  0  0  0  0
   -3.8457    1.7757    0.6313 C   0  0  1  0  0  0  0  0  0  0  0  0
   -6.2551    0.8077    3.4715 P   0  0  0  0  0  0  0  0  0  0  0  0
   -7.4859    1.8358    3.6247 O   0  0  0  0  0  0  0  0  0  0  0  0
   -6.8541   -0.2794    2.4482 O   0  0  0  0  0  0  0  0  0  0  0  0
   -5.8723    0.2193    4.7926 O   0  0  0  0  0  0  0  0  0  0  0  0
  1  2  1  0
  2  3  2  0
  2  8  1  0
  3  4  1  0
  4  5  2  0
  4  6  1  0
  6  7  2  0
  6 11  1  0
  7  8  1  0
  7  9  1  0
  9 10  1  0
 10 11  2  0
 12  9  1  6
 12 13  1  0
 12 21  1  0
 13 14  1  0
 14 15  1  6
 14 17  1  0
 15 16  1  0
 17 18  1  1
 17 21  1  0
 18 19  1  0
 19 20  1  0
 19 22  1  1
 21 20  1  1
 22 23  1  0
 22 24  1  0
 22 25  2  0
M  END
>  <DRUGBANK_ID>  (1) 
DB04757

>  <COMMON_NAME>  (1) 
GUANOSINE-2',3'-O-METHYLIDENEPHOSPHONATE

$$$$
