
     RDKit          3D

 11 11  0  0  0  0  0  0  0  0999 V2000
    1.0077    0.0929   -0.1732 N   0  0  0  0  0  0  0  0  0  0  0  0
    0.3366    1.2395    0.1394 C   0  0  0  0  0  0  0  0  0  0  0  0
   -0.9479    1.2576    0.2323 N   0  0  0  0  0  0  0  0  0  0  0  0
    1.0831    2.5142    0.3277 C   0  0  0  0  0  0  0  0  0  0  0  0
    2.1611    2.8086   -0.5107 C   0  0  0  0  0  0  0  0  0  0  0  0
    2.7966    4.0501   -0.4222 C   0  0  0  0  0  0  0  0  0  0  0  0
    2.3614    5.0087    0.5041 C   0  0  0  0  0  0  0  0  0  0  0  0
    3.1070    6.3059    0.6781 C   0  0  0  0  0  0  0  0  0  0  0  0
    2.2754    7.4246    0.4165 O   0  0  0  0  0  0  0  0  0  0  0  0
    1.2593    4.7132    1.3210 C   0  0  0  0  0  0  0  0  0  0  0  0
    0.6416    3.4603    1.2569 C   0  0  0  0  0  0  0  0  0  0  0  0
  1  2  1  0
  2  3  2  0
  2  4  1  0
  4  5  2  0
  4 11  1  0
  5  6  1  0
  6  7  2  0
  7  8  1  0
  7 10  1  0
  8  9  1  0
 10 11  2  0
M  END
>  <DRUGBANK_ID>  (1) 
DB02585

>  <SECONDARY_ACCESSION_NUMBERS>  (1) 
EXPT00206

>  <COMMON_NAME>  (1) 
4-(Hydroxymethyl)Benzamidine

>  <UNII>  (1) 
E678E6SN42

$$$$
