
     RDKit          3D

 24 27  0  0  0  0  0  0  0  0999 V2000
    4.0711    7.2570    3.2013 C   0  0  0  0  0  0  0  0  0  0  0  0
    4.2060    8.4571    2.5000 C   0  0  0  0  0  0  0  0  0  0  0  0
    3.7753    8.5296    1.1898 C   0  0  0  0  0  0  0  0  0  0  0  0
    3.2017    7.4012    0.6107 C   0  0  0  0  0  0  0  0  0  0  0  0
    3.0479    6.1686    1.2972 C   0  0  0  0  0  0  0  0  0  0  0  0
    3.5148    6.1218    2.6344 C   0  0  0  0  0  0  0  0  0  0  0  0
    3.4553    5.0328    3.4134 N   0  0  0  0  0  0  0  0  0  0  0  0
    2.4691    4.9767    0.7634 C   0  0  0  0  0  0  0  0  0  0  0  0
    2.3778    3.8660    1.6303 C   0  0  0  0  0  0  0  0  0  0  0  0
    2.8987    3.9285    2.9036 C   0  0  0  0  0  0  0  0  0  0  0  0
    3.3789    2.8161   -1.1985 C   0  0  0  0  0  0  0  0  0  0  0  0
    1.0925    1.6234   -2.5602 C   0  0  0  0  0  0  0  0  0  0  0  0
    2.4539    0.8573   -2.4669 C   0  0  2  0  0  0  0  0  0  0  0  0
    3.3936    2.8017   -3.7040 C   0  0  0  0  0  0  0  0  0  0  0  0
    2.2061   -0.2214   -1.4393 C   0  0  0  0  0  0  0  0  0  0  0  0
    3.5838    1.9320   -2.4207 C   0  0  1  0  0  0  0  0  0  0  0  0
    1.2369    3.1010   -2.5136 N   0  0  0  0  0  0  0  0  0  0  0  0
    1.9982    3.4487   -3.7197 C   0  0  0  0  0  0  0  0  0  0  0  0
    3.0244   -0.8513   -0.5855 C   0  0  0  0  0  0  0  0  0  0  0  0
    1.9470    3.3994   -1.2253 C   0  0  2  0  0  0  0  0  0  0  0  0
    1.9079    4.8569   -0.6700 C   0  0  2  0  0  0  0  0  0  0  0  0
    2.6228    5.6776   -1.5903 O   0  0  0  0  0  0  0  0  0  0  0  0
    3.8442    9.6127    0.3608 O   0  0  0  0  0  0  0  0  0  0  0  0
    4.4258   10.7851    0.9086 C   0  0  0  0  0  0  0  0  0  0  0  0
  1  2  2  0
  1  6  1  0
  3 23  1  0
  3  2  1  0
  4  3  2  0
  5  4  1  0
  6  5  2  0
  6  7  1  0
  7 10  2  0
  8  5  1  0
  8  9  2  0
 10  9  1  0
 20 11  1  6
 12 13  1  0
 13 15  1  1
 14 18  1  0
 15 19  2  0
 16 11  1  1
 16 13  1  0
 16 14  1  0
 17 18  1  0
 17 12  1  0
 20 17  1  0
 20 21  1  0
 21 22  1  6
 21  8  1  0
 23 24  1  0
M  END
>  <DRUGBANK_ID>  (1) 
DB00468

>  <SECONDARY_ACCESSION_NUMBERS>  (1) 
APRD00563

>  <COMMON_NAME>  (1) 
Quinine

>  <CAS_NUMBER>  (1) 
130-95-0

>  <UNII>  (1) 
A7V27PHC7A

>  <SYNONYMS>  (1) 
(-)-Quinine; (−)-quinine; (8S,9R)-quinine; (R)-(−)-quinine; (R)-(6-methoxyquinolin-4-yl)((2S,4S,8R)-8-vinylquinuclidin-2-yl)methanol; 6'-Methoxycinchonidine; Chinin; Chinine; Chininum; Quinina; Quinine

$$$$
