JN5
     RDKit          3D

 27 30  0  0  0  0  0  0  0  0999 V2000
    6.5267  -13.9628    3.4926 C   0  0  0  0  0  0  0  0  0  0  0  0
    7.7490  -14.0174    4.1594 C   0  0  0  0  0  0  0  0  0  0  0  0
    8.4242  -12.8336    4.4111 C   0  0  0  0  0  0  0  0  0  0  0  0
    7.9857  -11.6267    4.0161 N   0  0  0  0  0  0  0  0  0  0  0  0
    6.8254  -11.6111    3.3321 C   0  0  0  0  0  0  0  0  0  0  0  0
    6.0267  -12.7272    3.0847 C   0  0  0  0  0  0  0  0  0  0  0  0
    4.6876  -12.5887    2.4051 C   0  0  0  0  0  0  0  0  0  0  0  0
    3.6653  -11.7790    3.2269 C   0  0  0  0  0  0  0  0  0  0  0  0
    4.1046  -10.4294    3.4690 N   0  0  0  0  0  0  0  0  0  0  0  0
    3.4659   -9.3601    2.9370 C   0  0  0  0  0  0  0  0  0  0  0  0
    2.1355   -9.2839    3.1006 N   0  0  0  0  0  0  0  0  0  0  0  0
    4.2342   -8.4329    2.3514 N   0  0  0  0  0  0  0  0  0  0  0  0
    3.5980   -7.3788    1.8471 C   0  0  0  0  0  0  0  0  0  0  0  0
    2.2525   -7.2029    1.9922 C   0  0  0  0  0  0  0  0  0  0  0  0
    1.5211   -8.1681    2.6708 C   0  0  0  0  0  0  0  0  0  0  0  0
    0.0274   -8.0241    2.9950 C   0  0  1  0  0  0  0  0  0  0  0  0
   -0.1596   -7.6123    4.4013 C   0  0  0  0  0  0  0  0  0  0  0  0
   -0.3350   -7.2786    5.5067 N   0  0  0  0  0  0  0  0  0  0  0  0
   -0.6288   -6.9803    2.1225 C   0  0  0  0  0  0  0  0  0  0  0  0
   -0.1168   -5.7750    2.0084 N   0  0  0  0  0  0  0  0  0  0  0  0
   -0.6150   -5.1294    0.9167 C   0  0  0  0  0  0  0  0  0  0  0  0
   -0.0837   -3.9429    0.3847 C   0  0  0  0  0  0  0  0  0  0  0  0
   -0.7679   -3.2993   -0.6385 C   0  0  0  0  0  0  0  0  0  0  0  0
   -1.9453   -3.8493   -1.1390 C   0  0  0  0  0  0  0  0  0  0  0  0
   -2.4445   -5.0760   -0.6689 C   0  0  0  0  0  0  0  0  0  0  0  0
   -1.7418   -5.7223    0.3563 C   0  0  0  0  0  0  0  0  0  0  0  0
   -2.0032   -7.2555    1.1313 S   0  0  0  0  0  0  0  0  0  0  0  0
  1  2  2  0
  3  2  1  0
  4  3  2  0
  5  4  1  0
  5  6  2  0
  6  1  1  0
  7  6  1  0
  7  8  1  0
  9  8  1  0
  9 10  1  0
 10 11  2  0
 11 15  1  0
 12 10  1  0
 12 13  2  0
 13 14  1  0
 14 15  2  0
 16 17  1  1
 16 19  1  0
 16 15  1  0
 17 18  3  0
 19 20  2  0
 20 21  1  0
 21 22  2  0
 22 23  1  0
 24 23  2  0
 25 24  1  0
 26 21  1  0
 26 25  2  0
 27 19  1  0
 27 26  1  0
M  END
>  <DRUGBANK_ID>  (1) 
DB08022

>  <COMMON_NAME>  (1) 
(2S)-1,3-benzothiazol-2-yl{2-[(2-pyridin-3-ylethyl)amino]pyrimidin-4-yl}ethanenitrile

$$$$
