
     RDKit          3D

  4  3  0  0  0  0  0  0  0  0999 V2000
    1.0873    0.0018   -0.0928 C   0  0  0  0  0  0  0  0  0  0  0  0
    0.5871    0.0421   -1.4654 N   0  0  0  0  0  0  0  0  0  0  0  0
    0.9077    0.9819   -2.0906 C   0  0  0  0  0  0  0  0  0  0  0  0
    1.2162    1.9144   -2.7359 O   0  0  0  0  0  0  0  0  0  0  0  0
  1  2  1  0
  2  3  2  0
  3  4  2  0
M  END
>  <DRUGBANK_ID>  (1) 
DB12765

>  <COMMON_NAME>  (1) 
Methyl isocyanate

>  <CAS_NUMBER>  (1) 
624-83-9

>  <UNII>  (1) 
C588JJ4BV9

>  <SYNONYMS>  (1) 
MIC

$$$$
