
     RDKit          3D

 11 11  0  0  1  0  0  0  0  0999 V2000
   -0.4554   -1.3620    0.0077 C   0  0  0  0  0  0  0  0  0  0  0  0
   -1.0742    1.0519    0.0099 C   0  0  0  0  0  0  0  0  0  0  0  0
   -2.8695   -0.7317    0.0120 C   0  0  0  0  0  0  0  0  0  0  0  0
   -1.4016   -0.4087    0.0033 C   0  0  0  0  0  0  0  0  0  0  0  0
    1.0121   -1.1111    0.0351 C   0  0  1  0  0  0  0  0  0  0  0  0
    0.3990    1.4652   -0.0156 C   0  0  1  0  0  0  0  0  0  0  0  0
    1.4805    0.3701   -0.0204 C   0  0  1  0  0  0  0  0  0  0  0  0
    1.5363   -1.8151    1.2128 N   0  0  0  0  0  0  0  0  0  0  0  0
   -3.4649   -0.1733    1.1736 O   0  0  0  0  0  0  0  0  0  0  0  0
    0.6100    2.3142   -1.1648 O   0  0  0  0  0  0  0  0  0  0  0  0
    2.3867    0.6432    1.0789 O   0  0  0  0  0  0  0  0  0  0  0  0
  4  1  2  0
  4  2  1  0
  4  3  1  0
  5  1  1  0
  5  8  1  1
  6  2  1  0
  6 10  1  6
  7  5  1  0
  7  6  1  0
  7 11  1  1
  9  3  1  0
M  END
>  <DRUGBANK_ID>  (1) 
DB01789

>  <SECONDARY_ACCESSION_NUMBERS>  (1) 
EXPT00430

>  <COMMON_NAME>  (1) 
1-Amino-2,3-Dihydroxy-5-Hydroxymethyl Cyclohex-5-Ene

$$$$
