
     RDKit          3D

 26 28  0  0  0  0  0  0  0  0999 V2000
   -1.0921   -0.0204   -0.0431 S   0  0  0  0  0  0  0  0  0  0  0  0
    0.4676   -5.3879    2.2347 O   0  0  0  0  0  0  0  0  0  0  0  0
   -0.7122   -6.7089   -0.0593 O   0  0  0  0  0  0  0  0  0  0  0  0
    3.0220    4.3382    3.0356 O   0  0  0  0  0  0  0  0  0  0  0  0
    4.9561    5.0731    2.1158 O   0  0  0  0  0  0  0  0  0  0  0  0
    1.4208   -0.5904   -0.0460 N   0  0  0  0  0  0  0  0  0  0  0  0
    2.6256    2.5661    1.0377 N   0  0  0  0  0  0  0  0  0  0  0  0
   -0.0649   -2.5698   -0.0909 C   0  0  0  0  0  0  0  0  0  0  0  0
    0.0992   -4.6768    1.1307 C   0  0  0  0  0  0  0  0  0  0  0  0
    0.3198   -3.3015    1.0306 C   0  0  0  0  0  0  0  0  0  0  0  0
   -0.5371   -5.3521    0.0771 C   0  0  0  0  0  0  0  0  0  0  0  0
    0.2188   -1.1332   -0.1061 C   0  0  0  0  0  0  0  0  0  0  0  0
   -0.7499   -3.2292   -1.1116 C   0  0  0  0  0  0  0  0  0  0  0  0
   -1.0219   -4.6016   -1.0054 C   0  0  0  0  0  0  0  0  0  0  0  0
    1.3137    0.7959    0.0284 C   0  0  0  0  0  0  0  0  0  0  0  0
    2.4840    1.6678    0.0153 C   0  0  0  0  0  0  0  0  0  0  0  0
    0.0222    1.2801    0.0273 C   0  0  0  0  0  0  0  0  0  0  0  0
    1.3475   -4.8335    3.2053 C   0  0  0  0  0  0  0  0  0  0  0  0
   -0.0919   -7.5939    0.8825 C   0  0  0  0  0  0  0  0  0  0  0  0
    3.3860    1.5472   -1.0447 C   0  0  0  0  0  0  0  0  0  0  0  0
    3.7531    3.3366    0.9866 C   0  0  0  0  0  0  0  0  0  0  0  0
    2.7097   -4.3839    2.6798 C   0  0  0  0  0  0  0  0  0  0  0  0
    4.5101    2.3632   -1.0674 C   0  0  0  0  0  0  0  0  0  0  0  0
    1.4381   -7.5722    0.8458 C   0  0  0  0  0  0  0  0  0  0  0  0
    4.7043    3.2654   -0.0304 C   0  0  0  0  0  0  0  0  0  0  0  0
    3.9814    4.3279    2.0851 C   0  0  0  0  0  0  0  0  0  0  0  0
  1 12  1  0
  1 17  1  0
  2  9  1  0
  2 18  1  0
  3 11  1  0
  3 19  1  0
  4 26  1  0
  5 26  2  0
  6 12  2  0
  6 15  1  0
  7 16  2  0
  7 21  1  0
  8 10  1  0
  8 12  1  0
  8 13  2  0
  9 10  2  0
  9 11  1  0
 11 14  2  0
 13 14  1  0
 15 16  1  0
 15 17  2  0
 16 20  1  0
 18 22  1  0
 19 24  1  0
 20 23  2  0
 21 25  2  0
 21 26  1  0
 23 25  1  0
M  END
>  <DRUGBANK_ID>  (1) 
DB05298

>  <SECONDARY_ACCESSION_NUMBERS>  (1) 
DB12166

>  <COMMON_NAME>  (1) 
Tetomilast

>  <CAS_NUMBER>  (1) 
145739-56-6

>  <UNII>  (1) 
S6RXB5KF56

>  <SYNONYMS>  (1) 
Tetomilast

$$$$
