CP8
     RDKit          3D

 26 29  0  0  0  0  0  0  0  0999 V2000
   -0.6054    0.6076    0.0261 C   0  0  0  0  0  0  0  0  0  0  0  0
   -0.2597   -0.7564    0.0363 C   0  0  0  0  0  0  0  0  0  0  0  0
   -1.9904    0.8465   -0.0292 N   0  0  0  0  0  0  0  0  0  0  0  0
    0.3674    1.5481   -0.0300 C   0  0  0  0  0  0  0  0  0  0  0  0
    1.0466   -1.2351    0.0534 C   0  0  0  0  0  0  0  0  0  0  0  0
   -1.3990   -1.7019   -0.0072 C   0  0  0  0  0  0  0  0  0  0  0  0
   -2.8169   -0.6176    0.0324 S   0  0  0  0  0  0  0  0  0  0  0  0
   -2.6694    2.1352    0.0034 C   0  0  0  0  0  0  0  0  0  0  0  0
    1.6579    1.0625   -0.1008 C   0  0  0  0  0  0  0  0  0  0  0  0
    2.0532   -0.3066    0.0070 C   0  0  0  0  0  0  0  0  0  0  0  0
   -3.5484   -0.7696   -1.2154 O   0  0  0  0  0  0  0  0  0  0  0  0
   -3.4539   -0.7358    1.3178 O   0  0  0  0  0  0  0  0  0  0  0  0
    3.5088   -0.7780    0.0078 C   0  0  1  0  0  0  0  0  0  0  0  0
    4.2278   -0.0785   -1.1250 C   0  0  0  0  0  0  0  0  0  0  0  0
    4.2274   -0.5382    1.2257 O   0  0  0  0  0  0  0  0  0  0  0  0
    4.4391    1.3534   -0.8581 N   0  0  0  0  0  0  0  0  0  0  0  0
    4.1457    0.8307    1.5850 C   0  0  0  0  0  0  0  0  0  0  0  0
    4.4942    2.2480   -2.0154 C   0  0  0  0  0  0  0  0  0  0  0  0
    4.3866    1.8664    0.4505 C   0  0  0  0  0  0  0  0  0  0  0  0
    5.7877    2.0139   -2.7403 C   0  0  0  0  0  0  0  0  0  0  0  0
    4.3080    3.0744    0.6826 O   0  0  0  0  0  0  0  0  0  0  0  0
    6.0640    0.7656   -3.3211 C   0  0  0  0  0  0  0  0  0  0  0  0
    6.7922    2.9764   -2.6817 C   0  0  0  0  0  0  0  0  0  0  0  0
    7.3711    0.3972   -3.5951 C   0  0  0  0  0  0  0  0  0  0  0  0
    8.0670    2.6625   -3.1370 C   0  0  0  0  0  0  0  0  0  0  0  0
    8.3735    1.3537   -3.5120 C   0  0  0  0  0  0  0  0  0  0  0  0
  1  2  2  0
  1  3  1  0
  1  4  1  0
  2  5  1  0
  2  6  1  0
  3  7  1  0
  3  8  1  0
  4  9  2  0
  5 10  2  0
  6  7  1  0
  7 11  2  0
  7 12  2  0
  9 10  1  0
 13 10  1  1
 13 14  1  0
 13 15  1  0
 14 16  1  0
 15 17  1  0
 16 18  1  0
 16 19  1  0
 17 19  1  0
 18 20  1  0
 19 21  2  0
 20 22  2  0
 20 23  1  0
 22 24  1  0
 23 25  2  0
 24 26  2  0
 25 26  1  0
M  END
>  <DRUGBANK_ID>  (1) 
DB02118

>  <SECONDARY_ACCESSION_NUMBERS>  (1) 
EXPT00996

>  <COMMON_NAME>  (1) 
CP-271485

>  <CAS_NUMBER>  (1) 
35580-46-2

>  <SYNONYMS>  (1) 
(6S)-4-Benzyl-6-(1-methyl-2,2-dioxido-1,3-dihydro-2,1-benzothiazol-5-yl)-3-morpholinone

$$$$
