
     RDKit          3D

 22 25  0  0  1  0  0  0  0  0999 V2000
   -0.5733   -0.0774    0.4747 C   0  0  0  0  0  0  0  0  0  0  0  0
    0.1792    1.2778    0.4001 C   0  0  1  0  0  0  0  0  0  0  0  0
    1.9208    1.3723   -0.4959 C   0  0  0  0  0  0  0  0  0  0  0  0
    1.9993    2.5945   -1.8834 C   0  0  0  0  0  0  0  0  0  0  0  0
    1.6694    3.9804   -1.1933 C   0  0  2  0  0  0  0  0  0  0  0  0
    1.0215    3.4385    0.0197 C   0  0  0  0  0  0  0  0  0  0  0  0
   -0.0465    2.2801   -0.6559 C   0  0  2  0  0  0  0  0  0  0  0  0
   -1.2365    2.8735   -1.3485 C   0  0  0  0  0  0  0  0  0  0  0  0
   -1.9718    3.7464   -0.3493 C   0  0  0  0  0  0  0  0  0  0  0  0
   -2.5355    2.7632    0.7105 C   0  0  1  0  0  0  0  0  0  0  0  0
   -1.0781    2.1944    1.4160 C   0  0  1  0  0  0  0  0  0  0  0  0
   -1.6407    1.4963    2.6451 C   0  0  0  0  0  0  0  0  0  0  0  0
   -2.1522    2.6585    3.4732 C   0  0  0  0  0  0  0  0  0  0  0  0
   -3.5896    2.9050    2.9297 C   0  0  2  0  0  0  0  0  0  0  0  0
   -4.0510    3.3132    1.6768 C   0  0  2  0  0  0  0  0  0  0  0  0
   -5.4112    3.1746    3.0553 C   0  0  0  0  0  0  0  0  0  0  0  0
   -4.9295    3.6859    4.4362 C   0  0  0  0  0  0  0  0  0  0  0  0
   -4.2683    4.5704    3.4956 C   0  0  2  0  0  0  0  0  0  0  0  0
   -3.5332    5.6782    2.7607 C   0  0  0  0  0  0  0  0  0  0  0  0
   -4.6485    5.5379    4.4969 O   0  0  0  0  0  0  0  0  0  0  0  0
   -4.4813    1.4749    2.0614 C   0  0  0  0  0  0  0  0  0  0  0  0
    0.6310    4.8345   -1.6678 O   0  0  0  0  0  0  0  0  0  0  0  0
  2  3  1  0
  2  7  1  0
  2 11  1  0
  2  1  1  6
  3  4  1  0
  4  5  1  0
  5  6  1  0
  5 22  1  6
  7  6  1  1
  7  8  1  0
  8  9  1  0
 10  9  1  1
 10 11  1  0
 10 15  1  0
 11 12  1  1
 12 13  1  0
 13 14  1  0
 14 15  1  0
 14 18  1  0
 14 21  1  1
 15 16  1  6
 16 17  1  0
 17 18  1  0
 18 20  1  0
 18 19  1  6
M  END
>  <DRUGBANK_ID>  (1) 
DB01479

>  <COMMON_NAME>  (1) 
BA-2664

>  <CAS_NUMBER>  (1) 
641-82-7

>  <UNII>  (1) 
56K8Z5YS2Z

>  <SYNONYMS>  (1) 
17alpha-methyl-3alpha,17beta-dihydroxy-5alpha-androstane

$$$$
