1074
     RDKit          3D

 20 22  0  0  1  0  0  0  0  0999 V2000
    1.3112   -0.2819    0.2426 N   0  0  0  0  0  0  0  0  0  0  0  0
    0.1211    2.4578   -2.3198 C   0  0  0  0  0  0  0  0  0  0  0  0
    0.8497    3.7735   -1.8892 C   0  0  0  0  0  0  0  0  0  0  0  0
    0.0767    2.2957   -3.8895 C   0  0  0  0  0  0  0  0  0  0  0  0
    0.7471    1.1867   -1.6761 C   0  0  0  0  0  0  0  0  0  0  0  0
    1.0060    3.8937   -0.3683 C   0  0  0  0  0  0  0  0  0  0  0  0
    0.1297    5.0313   -2.4025 C   0  0  0  0  0  0  0  0  0  0  0  0
   -1.2991    1.7760   -4.3589 C   0  0  0  0  0  0  0  0  0  0  0  0
    1.2112    1.4127   -4.4480 C   0  0  0  0  0  0  0  0  0  0  0  0
    0.6353    0.9598   -0.1553 C   0  0  0  0  0  0  0  0  0  0  0  0
    1.6009    5.1710    0.1618 C   0  0  0  0  0  0  0  0  0  0  0  0
    0.8045    6.3046   -1.8954 C   0  0  0  0  0  0  0  0  0  0  0  0
   -1.3454    1.6199   -5.8796 C   0  0  0  0  0  0  0  0  0  0  0  0
    1.1418    1.2457   -5.9562 C   0  0  0  0  0  0  0  0  0  0  0  0
    0.8584    6.3647   -0.3752 C   0  0  0  0  0  0  0  0  0  0  0  0
   -0.2235    0.7164   -6.3790 C   0  0  0  0  0  0  0  0  0  0  0  0
   -0.7997    1.0652    0.3426 C   0  0  0  0  0  0  0  0  0  0  0  0
   -1.5957   -0.1380   -0.1221 C   0  0  0  0  0  0  0  0  0  0  0  0
    0.5959   -1.4565   -0.2300 C   0  0  0  0  0  0  0  0  0  0  0  0
   -0.8529   -1.4212    0.2519 C   0  0  0  0  0  0  0  0  0  0  0  0
  1 10  1  0
  1 19  1  0
  2  3  1  0
  2  4  1  0
  2  5  1  0
  3  6  1  0
  3  7  1  0
  4  8  1  0
  4  9  1  0
  5 10  1  0
  6 11  1  0
  7 12  1  0
  8 13  1  0
  9 14  1  0
 10 17  1  0
 11 15  1  0
 12 15  1  0
 13 16  1  0
 14 16  1  0
 17 18  1  0
 18 20  1  0
 19 20  1  0
M  END
>  <DRUGBANK_ID>  (1) 
DB01074

>  <SECONDARY_ACCESSION_NUMBERS>  (1) 
APRD00107

>  <COMMON_NAME>  (1) 
Perhexiline

>  <CAS_NUMBER>  (1) 
6621-47-2

>  <UNII>  (1) 
KU65374X44

>  <SYNONYMS>  (1) 
Perhexilene; Perhexilina; Perhexiline; Perhexilinum

$$$$
