
     RDKit          3D

 14 13  0  0  0  0  0  0  0  0999 V2000
    0.9986   -0.1563    0.1011 C   0  0  0  0  0  0  0  0  0  0  0  0
    0.4154   -0.8922    1.2279 N   0  0  0  0  0  0  0  0  0  0  0  0
   -0.3968   -0.0728    2.1260 C   0  0  0  0  0  0  0  0  0  0  0  0
   -1.8550   -0.5447    2.1969 C   0  0  0  0  0  0  0  0  0  0  0  0
   -2.4966   -0.5453    3.2364 O   0  0  0  0  0  0  0  0  0  0  0  0
   -2.4423   -0.9526    1.0357 N   0  0  0  0  0  0  0  0  0  0  0  0
    0.8318   -2.2223    1.3798 C   0  0  0  0  0  0  0  0  0  0  0  0
    1.5677   -2.6794    0.4881 O   0  0  0  0  0  0  0  0  0  0  0  0
    0.4472   -3.0255    2.4650 N   0  0  0  0  0  0  0  0  0  0  0  0
   -0.3628   -2.7379    3.6696 C   0  0  0  0  0  0  0  0  0  0  0  0
   -1.7923   -3.3071    3.6619 C   0  0  0  0  0  0  0  0  0  0  0  0
   -1.9595   -4.9962    4.1880 Cl  0  0  0  0  0  0  0  0  0  0  0  0
    0.9874   -4.3417    2.3915 N   0  0  0  0  0  0  0  0  0  0  0  0
    0.8660   -5.0094    3.4234 O   0  0  0  0  0  0  0  0  0  0  0  0
  1  2  1  0
  2  3  1  0
  2  7  1  0
  3  4  1  0
  4  5  2  0
  4  6  1  0
  7  8  2  0
  7  9  1  0
  9 10  1  0
  9 13  1  0
 10 11  1  0
 11 12  1  0
 13 14  2  0
M  END
>  <DRUGBANK_ID>  (1) 
DB11688

>  <COMMON_NAME>  (1) 
2-chloroethyl-3-sarcosinamide-1-nitrosourea

>  <CAS_NUMBER>  (1) 
81965-43-7

>  <UNII>  (1) 
BHB013S3MO

>  <SYNONYMS>  (1) 
2-chloroethyl-3-sarcosinamide-1-nitrosourea; ACETAMIDE, 2-((((2-CHLOROETHYL)NITROSOAMINO)CARBONYL)METHYLAMINO)-; SarCNU; SARCOSINEAMIDE CHLOROETHYLNITROSOUREA; Sarmustine

$$$$
