
     RDKit          3D

 19 20  0  0  0  0  0  0  0  0999 V2000
    0.9140    0.1062    0.4194 N   0  0  0  0  0  0  0  0  0  0  0  0
    0.3243    1.2912    0.1002 C   0  0  0  0  0  0  0  0  0  0  0  0
   -0.8965    1.3621   -0.0061 O   0  0  0  0  0  0  0  0  0  0  0  0
    1.1306    2.3976    0.0500 N   0  0  0  0  0  0  0  0  0  0  0  0
    2.4957    2.3848   -0.1758 C   0  0  0  0  0  0  0  0  0  0  0  0
    3.2826    1.5778   -0.9818 C   0  0  0  0  0  0  0  0  0  0  0  0
    4.6691    1.8409   -0.7113 C   0  0  0  0  0  0  0  0  0  0  0  0
    4.8942    2.8690    0.1843 C   0  0  0  0  0  0  0  0  0  0  0  0
    3.4023    3.5534    0.6879 S   0  0  0  0  0  0  0  0  0  0  0  0
    6.2126    3.3689    0.6148 C   0  0  0  0  0  0  0  0  0  0  0  0
    7.1382    3.7993   -0.3562 C   0  0  0  0  0  0  0  0  0  0  0  0
    8.4376    4.1795   -0.0010 C   0  0  0  0  0  0  0  0  0  0  0  0
    8.8236    4.1282    1.3303 C   0  0  0  0  0  0  0  0  0  0  0  0
   10.0656    4.4959    1.6732 F   0  0  0  0  0  0  0  0  0  0  0  0
    7.9373    3.6915    2.3083 C   0  0  0  0  0  0  0  0  0  0  0  0
    6.6349    3.3068    1.9522 C   0  0  0  0  0  0  0  0  0  0  0  0
    2.7563    0.6146   -1.9500 C   0  0  0  0  0  0  0  0  0  0  0  0
    3.6433   -0.2584   -2.4939 N   0  0  0  0  0  0  0  0  0  0  0  0
    1.5747    0.5150   -2.2736 O   0  0  0  0  0  0  0  0  0  0  0  0
  1  2  1  0
  2  3  2  0
  2  4  1  0
  4  5  1  0
  5  6  2  0
  5  9  1  0
  6  7  1  0
  6 17  1  0
  7  8  2  0
  8  9  1  0
  8 10  1  0
 10 11  2  0
 10 16  1  0
 11 12  1  0
 12 13  2  0
 13 14  1  0
 13 15  1  0
 15 16  2  0
 17 18  1  0
 17 19  2  0
M  END
>  <DRUGBANK_ID>  (1) 
DB17058

>  <COMMON_NAME>  (1) 
TPCA-1

>  <CAS_NUMBER>  (1) 
507475-17-4

>  <UNII>  (1) 
9M632G86CC

>  <SYNONYMS>  (1) 
2-((aminocarbonyl)amino)-5-(4-fluorophenyl)-3-thiophenecarboxamide; 3-thiophenecarboxamide, 2-((aminocarbonyl)amino)-5-(4-fluorophenyl)-; Ikk 2 inhibitor iv; Ikk-2 inhibitor iv

$$$$
