
     RDKit          3D

 40 44  0  0  0  0  0  0  0  0999 V2000
    1.4759    2.2661   -2.8141 C   0  0  0  0  0  0  0  0  0  0  0  0
    1.5281    2.9825   -1.6032 C   0  0  0  0  0  0  0  0  0  0  0  0
    1.3634    4.3769   -1.6662 C   0  0  0  0  0  0  0  0  0  0  0  0
    1.3619    5.0446   -2.8904 C   0  0  0  0  0  0  0  0  0  0  0  0
    1.4061    4.3226   -4.0774 C   0  0  0  0  0  0  0  0  0  0  0  0
    1.4185    2.9315   -4.0401 C   0  0  0  0  0  0  0  0  0  0  0  0
   -1.0762   -2.3388    2.1659 N   0  0  0  0  0  0  0  0  0  0  0  0
   -0.3444   -2.3071    0.8673 C   0  0  1  0  0  0  0  0  0  0  0  0
   -0.5348   -3.1957    3.2261 C   0  0  2  0  0  0  0  0  0  0  0  0
   -0.9955   -0.9762    2.3160 C   0  0  0  0  0  0  0  0  0  0  0  0
   -0.4553   -0.7923    0.8825 C   0  0  1  0  0  0  0  0  0  0  0  0
    1.2986   -3.0138    1.2257 S   0  0  0  0  0  0  0  0  0  0  0  0
    0.5293   -4.0678    2.5155 C   0  0  0  0  0  0  0  0  0  0  0  0
   -1.6206   -3.9159    4.1009 C   0  0  0  0  0  0  0  0  0  0  0  0
    1.6078   -4.6124    3.4471 C   0  0  0  0  0  0  0  0  0  0  0  0
   -0.0989   -5.1683    1.7076 C   0  0  0  0  0  0  0  0  0  0  0  0
   -1.7468   -3.7325    5.3051 O   0  0  0  0  0  0  0  0  0  0  0  0
   -2.3658   -4.8200    3.4231 O   0  0  0  0  0  0  0  0  0  0  0  0
    0.7868    0.0395    0.6637 N   0  0  0  0  0  0  0  0  0  0  0  0
    0.6207    1.1805   -0.0942 C   0  0  0  0  0  0  0  0  0  0  0  0
    1.7571    2.2195   -0.2861 C   0  0  2  0  0  0  0  0  0  0  0  0
   -0.4866    1.3959   -0.6022 O   0  0  0  0  0  0  0  0  0  0  0  0
    1.7419    3.1146    0.8916 N   0  0  0  0  0  0  0  0  0  0  0  0
   -1.1772   -0.2881    3.2941 O   0  0  0  0  0  0  0  0  0  0  0  0
   -2.5686   -7.9598    2.2499 N   0  0  0  0  0  0  0  0  0  0  0  0
   -2.2882   -8.9110    1.1266 C   0  0  1  0  0  0  0  0  0  0  0  0
   -1.5599   -7.8522    3.3444 C   0  0  2  0  0  0  0  0  0  0  0  0
   -2.9976   -7.0056    1.3670 C   0  0  0  0  0  0  0  0  0  0  0  0
   -2.9277   -7.9034    0.1843 C   0  0  0  0  0  0  0  0  0  0  0  0
   -0.5144   -9.0499    1.1893 S   0  0  0  0  0  0  0  0  0  0  0  0
   -0.3950   -8.8450    3.0349 C   0  0  0  0  0  0  0  0  0  0  0  0
   -1.9806   -7.5705    4.8079 C   0  0  0  0  0  0  0  0  0  0  0  0
    1.0239   -8.3336    3.3531 C   0  0  0  0  0  0  0  0  0  0  0  0
   -0.6449  -10.1868    3.7049 C   0  0  0  0  0  0  0  0  0  0  0  0
   -1.4119   -8.1237    5.7476 O   0  0  0  0  0  0  0  0  0  0  0  0
   -2.8215   -6.5411    5.0855 O   0  0  0  0  0  0  0  0  0  0  0  0
   -3.3117   -5.8261    1.4152 O   0  0  0  0  0  0  0  0  0  0  0  0
   -0.1127  -10.3888    0.8108 O   0  0  0  0  0  0  0  0  0  0  0  0
    0.0826   -7.9142    0.5162 O   0  0  0  0  0  0  0  0  0  0  0  0
   -3.3513   -5.5969    4.1361 C   0  0  0  0  0  0  0  0  0  0  0  0
  1  2  2  0
  3  2  1  0
  4  3  2  0
  5  6  2  0
  5  4  1  0
  6  1  1  0
  8  7  1  0
  8 11  1  0
  8 12  1  1
  9  7  1  0
  9 14  1  6
 10  7  1  0
 10 24  2  0
 11 10  1  0
 11 19  1  1
 13  9  1  0
 13 12  1  0
 15 13  1  0
 16 13  1  0
 17 14  2  0
 18 14  1  0
 18 40  1  0
 20 19  1  0
 21 23  1  1
 21 20  1  0
 21  2  1  0
 22 20  2  0
 26 25  1  0
 26 29  1  6
 26 30  1  0
 27 25  1  0
 27 32  1  1
 28 25  1  0
 28 37  2  0
 29 28  1  0
 30 38  2  0
 30 39  2  0
 31 27  1  0
 31 30  1  0
 33 31  1  0
 34 31  1  0
 35 32  2  0
 36 32  1  0
 36 40  1  0
M  END
>  <DRUGBANK_ID>  (1) 
DB12127

>  <COMMON_NAME>  (1) 
Sultamicillin

>  <CAS_NUMBER>  (1) 
76497-13-7

>  <UNII>  (1) 
65DT0ML581

>  <SYNONYMS>  (1) 
Sultamicilina; Sultamicillin; Sultamicillinum

$$$$
