I11
     RDKit          3D

 32 34  0  0  0  0  0  0  0  0999 V2000
   -0.2399   -3.1493    3.4344 C   0  0  0  0  0  0  0  0  0  0  0  0
    0.2535   -2.7656    2.0240 C   0  0  0  0  0  0  0  0  0  0  0  0
   -0.2635   -1.3920    1.3484 C   0  0  0  0  0  0  0  0  0  0  0  0
    0.1039   -0.2994    2.3076 C   0  0  0  0  0  0  0  0  0  0  0  0
   -0.3357   -0.6538    3.7390 C   0  0  0  0  0  0  0  0  0  0  0  0
    0.1841   -1.9922    4.2918 C   0  0  0  0  0  0  0  0  0  0  0  0
    0.3627   -0.8045   -0.4929 S   0  0  0  0  0  0  0  0  0  0  0  0
   -0.0489   -1.5732   -1.6758 O   0  0  0  0  0  0  0  0  0  0  0  0
    0.2617    0.6042   -0.6064 O   0  0  0  0  0  0  0  0  0  0  0  0
    1.9319   -1.3222   -0.5269 N   0  0  0  0  0  0  0  0  0  0  0  0
    2.1149   -2.7881   -0.3235 C   0  0  0  0  0  0  0  0  0  0  0  0
    1.3394   -3.9356   -1.0628 C   0  0  0  0  0  0  0  0  0  0  0  0
    2.0371   -4.7128   -1.7344 O   0  0  0  0  0  0  0  0  0  0  0  0
   -0.0136   -4.2878   -0.9863 N   0  0  0  0  0  0  0  0  0  0  0  0
   -1.2165   -3.6055   -0.4132 C   0  0  2  0  0  0  0  0  0  0  0  0
   -1.9458   -4.2586    0.7925 C   0  0  0  0  0  0  0  0  0  0  0  0
   -2.7484   -3.2725    1.6952 C   0  0  0  0  0  0  0  0  0  0  0  0
   -3.5952   -2.3393    1.0053 N   0  0  0  0  0  0  0  0  0  0  0  0
   -4.8244   -1.9979    1.4982 C   0  0  0  0  0  0  0  0  0  0  0  0
   -5.1690   -2.0801    2.8345 C   0  0  0  0  0  0  0  0  0  0  0  0
   -6.5093   -2.1370    3.1494 C   0  0  0  0  0  0  0  0  0  0  0  0
   -7.4243   -2.1707    2.1668 N   0  0  0  0  0  0  0  0  0  0  0  0
   -7.0993   -1.9933    0.8797 C   0  0  0  0  0  0  0  0  0  0  0  0
   -5.7924   -1.7487    0.5446 C   0  0  0  0  0  0  0  0  0  0  0  0
   -2.1723   -2.7606   -1.3088 C   0  0  0  0  0  0  0  0  0  0  0  0
   -2.4414   -1.5710   -1.0980 O   0  0  0  0  0  0  0  0  0  0  0  0
   -2.8241   -3.4922   -2.2453 N   0  0  0  0  0  0  0  0  0  0  0  0
   -3.0894   -2.9010   -3.5307 C   0  0  0  0  0  0  0  0  0  0  0  0
   -4.5309   -2.4370   -3.6575 C   0  0  0  0  0  0  0  0  0  0  0  0
   -5.5122   -3.5310   -3.2244 C   0  0  0  0  0  0  0  0  0  0  0  0
   -5.1768   -4.0894   -1.8698 C   0  0  0  0  0  0  0  0  0  0  0  0
   -3.7369   -4.4925   -1.7705 C   0  0  0  0  0  0  0  0  0  0  0  0
  1  2  1  0
  1  6  1  0
  2  3  1  0
  3  4  1  0
  3  7  1  0
  4  5  1  0
  5  6  1  0
  7  8  2  0
  7  9  2  0
  7 10  1  0
 10 11  1  0
 11 12  1  0
 12 13  2  0
 12 14  1  0
 15 25  1  0
 15 16  1  6
 15 14  1  0
 16 17  1  0
 17 18  1  0
 18 19  1  0
 19 20  2  0
 19 24  1  0
 20 21  1  0
 21 22  2  0
 22 23  1  0
 23 24  2  0
 25 26  2  0
 25 27  1  0
 27 28  1  0
 27 32  1  0
 28 29  1  0
 29 30  1  0
 30 31  1  0
 31 32  1  0
M  CHG  1  22   1
M  END
>  <DRUGBANK_ID>  (1) 
DB07934

>  <COMMON_NAME>  (1) 
[[CYCLOHEXANESULFONYL-GLYCYL]-3[PYRIDIN-4-YL-AMINOMETHYL]ALANYL]PIPERIDINE

$$$$
