
     RDKit          3D

 28 30  0  0  1  0  0  0  0  0999 V2000
    0.8616   -0.1222   -0.0659 C   0  0  0  0  0  0  0  0  0  0  0  0
    0.5031    0.4825    1.1746 O   0  0  0  0  0  0  0  0  0  0  0  0
    0.9201   -0.1185    2.3379 C   0  0  0  0  0  0  0  0  0  0  0  0
    2.2359   -0.5423    2.6272 C   0  0  0  0  0  0  0  0  0  0  0  0
    2.5125   -1.0473    3.9183 C   0  0  0  0  0  0  0  0  0  0  0  0
    1.5270   -1.1142    4.9008 C   0  0  0  0  0  0  0  0  0  0  0  0
    0.2475   -0.6776    4.6011 C   0  0  0  0  0  0  0  0  0  0  0  0
   -0.6994   -0.7264    5.5475 F   0  0  0  0  0  0  0  0  0  0  0  0
   -0.0616   -0.1784    3.3390 C   0  0  0  0  0  0  0  0  0  0  0  0
    3.3401   -0.4770    1.6641 C   0  0  0  0  0  0  0  0  0  0  0  0
    3.7177    0.7421    1.0616 C   0  0  0  0  0  0  0  0  0  0  0  0
    4.6294    0.7484    0.0066 C   0  0  0  0  0  0  0  0  0  0  0  0
    4.7955    1.9480   -0.7456 N   0  0  0  0  0  0  0  0  0  0  0  0
    5.8097    2.0476   -1.7297 C   0  0  0  0  0  0  0  0  0  0  0  0
    6.8985    2.8115   -1.5272 N   0  0  0  0  0  0  0  0  0  0  0  0
    7.8665    2.7589   -2.4814 C   0  0  0  0  0  0  0  0  0  0  0  0
    7.7926    1.9927   -3.6425 C   0  0  0  0  0  0  0  0  0  0  0  0
    6.6493    1.2263   -3.8588 C   0  0  0  0  0  0  0  0  0  0  0  0
    6.4642    0.3809   -5.0902 C   0  0  0  0  0  0  0  0  0  0  0  0
    6.3985   -1.3922   -4.7144 S   0  0  1  0  0  0  0  0  0  0  0  0
    4.9332   -1.6510   -3.7193 C   0  0  0  0  0  0  0  0  0  0  0  0
    6.1266   -2.1121   -6.0563 N   0  0  0  0  0  0  0  0  0  0  0  0
    7.5402   -1.7169   -3.8669 O   0  0  0  0  0  0  0  0  0  0  0  0
    5.6424    1.3151   -2.9001 C   0  0  0  0  0  0  0  0  0  0  0  0
    5.2139   -0.4041   -0.3998 N   0  0  0  0  0  0  0  0  0  0  0  0
    4.8903   -1.5644    0.2214 C   0  0  0  0  0  0  0  0  0  0  0  0
    3.9590   -1.6482    1.2285 C   0  0  0  0  0  0  0  0  0  0  0  0
    3.6074   -2.8474    1.7165 F   0  0  0  0  0  0  0  0  0  0  0  0
  1  2  1  0
  2  3  1  0
  3  4  2  0
  3  9  1  0
  4  5  1  0
  4 10  1  0
  5  6  2  0
  6  7  1  0
  7  8  1  0
  7  9  2  0
 10 11  2  0
 10 27  1  0
 11 12  1  0
 12 13  1  0
 12 25  2  0
 13 14  1  0
 14 15  2  0
 14 24  1  0
 15 16  1  0
 16 17  2  0
 17 18  1  0
 18 19  1  0
 18 24  2  0
 20 19  1  0
 20 21  1  0
 20 22  2  0
 20 23  2  0
 25 26  1  0
 26 27  2  0
 27 28  1  0
M  END
>  <DRUGBANK_ID>  (1) 
DB17297

>  <COMMON_NAME>  (1) 
Enitociclib

>  <CAS_NUMBER>  (1) 
1610408-97-3

>  <UNII>  (1) 
1255AT22ZJ

>  <SYNONYMS>  (1) 
2-pyridinamine, 5-fluoro-4-(4-fluoro-2-methoxyphenyl)-n-(4-(((s(s))-s-methylsulfonimidoyl)methyl)-2-pyridinyl)-

$$$$
