
     RDKit          3D

 28 30  0  0  0  0  0  0  0  0999 V2000
    0.8906    0.0332    0.0910 C   0  0  0  0  0  0  0  0  0  0  0  0
   -0.7563    1.9507    4.3157 C   0  0  0  0  0  0  0  0  0  0  0  0
   -1.5075   -4.6380    4.6757 C   0  0  0  0  0  0  0  0  0  0  0  0
   -1.1435   -5.8313    3.7692 C   0  0  0  0  0  0  0  0  0  0  0  0
   -0.4325   -3.5452    4.8562 C   0  0  0  0  0  0  0  0  0  0  0  0
    2.3397   -4.5589    1.6089 C   0  0  0  0  0  0  0  0  0  0  0  0
    3.6064   -6.3339    2.4832 C   0  0  0  0  0  0  0  0  0  0  0  0
    4.4100   -4.0356    2.6549 C   0  0  0  0  0  0  0  0  0  0  0  0
    0.6226   -7.4171    3.1765 C   0  0  0  0  0  0  0  0  0  0  0  0
    0.0156   -3.3441    2.4332 C   0  0  0  0  0  0  0  0  0  0  0  0
    2.3858   -5.9080    1.9799 C   0  0  0  0  0  0  0  0  0  0  0  0
    3.2298   -3.6119    2.1237 C   0  0  0  0  0  0  0  0  0  0  0  0
    4.6227   -5.3980    2.7328 C   0  0  0  0  0  0  0  0  0  0  0  0
    1.1628   -6.8161    1.8290 C   0  0  0  0  0  0  0  0  0  0  0  0
   -0.2262   -1.4614    3.3630 C   0  0  0  0  0  0  0  0  0  0  0  0
    0.0804   -1.3136    2.0388 C   0  0  0  0  0  0  0  0  0  0  0  0
   -0.4804   -0.3773    4.2104 C   0  0  0  0  0  0  0  0  0  0  0  0
    0.0685    1.0359    2.1949 C   0  0  0  0  0  0  0  0  0  0  0  0
    0.1179   -6.4563    4.1691 N   0  0  0  0  0  0  0  0  0  0  0  0
    0.2272   -2.5046    1.4491 N   0  0  0  0  0  0  0  0  0  0  0  0
    0.3246   -0.1039    1.4374 N   0  0  0  0  0  0  0  0  0  0  0  0
   -0.3616    0.8315    3.5233 N   0  0  0  0  0  0  0  0  0  0  0  0
   -0.2208   -2.7834    3.6372 N   0  0  0  0  0  0  0  0  0  0  0  0
    3.0235   -2.2672    2.1332 O   0  0  0  0  0  0  0  0  0  0  0  0
    5.8848   -5.7904    3.0475 O   0  0  0  0  0  0  0  0  0  0  0  0
    1.4596   -7.8785    0.9325 O   0  0  0  0  0  0  0  0  0  0  0  0
   -0.8035   -0.5023    5.3748 O   0  0  0  0  0  0  0  0  0  0  0  0
    0.2044    2.1644    1.7179 O   0  0  0  0  0  0  0  0  0  0  0  0
  4  3  1  0
  5  3  1  0
 11  6  2  0
 11  7  1  0
 12  6  1  0
 12  8  2  0
 13  7  2  0
 13  8  1  0
 14  9  1  0
 14 11  1  0
 16 15  2  0
 17 15  1  0
 19  4  1  0
 19  9  1  0
 20 10  2  0
 20 16  1  0
 21  1  1  0
 21 16  1  0
 21 18  1  0
 22  2  1  0
 22 17  1  0
 22 18  1  0
 23  5  1  0
 23 10  1  0
 23 15  1  0
 24 12  1  0
 25 13  1  0
 26 14  1  0
 27 17  2  0
 28 18  2  0
M  END
>  <DRUGBANK_ID>  (1) 
DB12846

>  <COMMON_NAME>  (1) 
Reproterol

>  <CAS_NUMBER>  (1) 
54063-54-6

>  <UNII>  (1) 
11941YC6RN

>  <SYNONYMS>  (1) 
7-(3-((2-(3,5-Dihydroxyphenyl)-2-hydroxyethyl)amino)propyl)theophylline; Reproterol; Reproterolum

$$$$
