
     RDKit          3D

 31 34  0  0  0  0  0  0  0  0999 V2000
    2.5774    0.0589   -0.0204 C   0  0  0  0  0  0  0  0  0  0  0  0
    1.0826    0.1885   -0.0068 C   0  0  0  0  0  0  0  0  0  0  0  0
    0.4293    1.4894   -0.0846 C   0  0  0  0  0  0  0  0  0  0  0  0
   -0.9972    1.4084   -0.0224 C   0  0  0  0  0  0  0  0  0  0  0  0
   -1.7141    0.1627    0.0123 C   0  0  0  0  0  0  0  0  0  0  0  0
   -1.0551   -1.0652    0.0194 C   0  0  0  0  0  0  0  0  0  0  0  0
    0.3458   -1.0804    0.0235 C   0  0  0  0  0  0  0  0  0  0  0  0
    0.9946   -2.4779    0.0115 C   0  0  0  0  0  0  0  0  0  0  0  0
    0.6286   -3.2361    1.0883 F   0  0  0  0  0  0  0  0  0  0  0  0
    0.6301   -3.2139   -1.0817 F   0  0  0  0  0  0  0  0  0  0  0  0
    2.3551   -2.5009    0.0114 F   0  0  0  0  0  0  0  0  0  0  0  0
    1.2489    2.9714   -0.3311 C   0  0  0  0  0  0  0  0  0  0  0  0
    1.2870    3.6648   -1.7394 N   0  0  0  0  0  0  0  0  0  0  0  0
    1.8905    4.9005   -2.5272 C   0  0  0  0  0  0  0  0  0  0  0  0
    1.3011    4.7323   -3.6885 N   0  0  0  0  0  0  0  0  0  0  0  0
    1.4958    3.4515   -3.8957 C   0  0  0  0  0  0  0  0  0  0  0  0
    1.0346    2.7580   -2.8142 C   0  0  0  0  0  0  0  0  0  0  0  0
    0.6203    1.4300   -2.9963 C   0  0  0  0  0  0  0  0  0  0  0  0
    0.9701    0.7737   -4.1811 C   0  0  0  0  0  0  0  0  0  0  0  0
    1.7125    1.4763   -5.1430 C   0  0  0  0  0  0  0  0  0  0  0  0
    1.9842    2.8341   -5.0178 C   0  0  0  0  0  0  0  0  0  0  0  0
    2.7876    3.6617   -5.9135 C   0  0  0  0  0  0  0  0  0  0  0  0
    3.2191    4.8091   -5.7233 O   0  0  0  0  0  0  0  0  0  0  0  0
    3.1130    3.0262   -7.0358 O   0  0  0  0  0  0  0  0  0  0  0  0
    0.6600   -0.5491   -4.3843 N   0  0  0  0  0  0  0  0  0  0  0  0
    1.7225   -1.5089   -4.6876 C   0  0  0  0  0  0  0  0  0  0  0  0
    1.2954   -2.3454   -5.8981 C   0  0  0  0  0  0  0  0  0  0  0  0
    0.0363   -3.0023   -5.6613 O   0  0  0  0  0  0  0  0  0  0  0  0
   -0.9927   -2.0276   -5.3930 C   0  0  0  0  0  0  0  0  0  0  0  0
   -0.6535   -1.1651   -4.1544 C   0  0  0  0  0  0  0  0  0  0  0  0
    2.6579    6.3298   -2.7863 C   0  0  0  0  0  0  0  0  0  0  0  0
  1  2  1  0
  2  3  2  0
  2  7  1  0
  3  4  1  0
  3 12  1  0
  4  5  2  0
  5  6  1  0
  6  7  2  0
  7  8  1  0
  8  9  1  0
  8 10  1  0
  8 11  1  0
 12 13  1  0
 13 14  1  0
 13 17  1  0
 14 15  2  0
 14 31  1  0
 15 16  1  0
 16 17  2  0
 16 21  1  0
 17 18  1  0
 18 19  2  0
 19 20  1  0
 19 25  1  0
 20 21  2  0
 21 22  1  0
 22 23  2  0
 22 24  1  0
 25 26  1  0
 25 30  1  0
 26 27  1  0
 27 28  1  0
 28 29  1  0
 29 30  1  0
M  END
>  <DRUGBANK_ID>  (1) 
DB11795

>  <COMMON_NAME>  (1) 
GSK-2636771

>  <CAS_NUMBER>  (1) 
1372540-25-4

>  <UNII>  (1) 
DW94IAT0LS

$$$$
