
     RDKit          3D

 36 41  0  0  0  0  0  0  0  0999 V2000
   -2.4169   -0.0007   -0.1186 C   0  0  0  0  0  0  0  0  0  0  0  0
   -1.0115    0.0003    0.2817 N   0  0  0  0  0  0  0  0  0  0  0  0
   -0.3448   -1.2166   -0.1961 C   0  0  0  0  0  0  0  0  0  0  0  0
    1.1234   -1.2537    0.2252 C   0  0  0  0  0  0  0  0  0  0  0  0
    1.8700   -0.0043   -0.2665 C   0  0  0  0  0  0  0  0  0  0  0  0
    1.0973    1.2457    0.1926 C   0  0  0  0  0  0  0  0  0  0  0  0
   -0.3581    1.2057   -0.2342 C   0  0  0  0  0  0  0  0  0  0  0  0
    3.3160   -0.0061    0.1862 C   0  0  0  0  0  0  0  0  0  0  0  0
    4.1963   -1.0349   -0.1552 C   0  0  0  0  0  0  0  0  0  0  0  0
    5.5138   -1.0169    0.3233 C   0  0  0  0  0  0  0  0  0  0  0  0
    5.9475    0.0479    1.1136 C   0  0  0  0  0  0  0  0  0  0  0  0
    7.2439    0.0479    1.6716 N   0  0  0  0  0  0  0  0  0  0  0  0
    7.6970    1.1757    2.3869 C   0  0  0  0  0  0  0  0  0  0  0  0
    7.1269    1.4146    3.5846 N   0  0  0  0  0  0  0  0  0  0  0  0
    7.4979    2.5275    4.2523 C   0  0  0  0  0  0  0  0  0  0  0  0
    8.4234    3.3954    3.7978 C   0  0  0  0  0  0  0  0  0  0  0  0
    8.7287    4.5327    4.4449 F   0  0  0  0  0  0  0  0  0  0  0  0
    8.9912    3.0864    2.5928 C   0  0  0  0  0  0  0  0  0  0  0  0
    8.6600    1.9640    1.8664 N   0  0  0  0  0  0  0  0  0  0  0  0
    9.8456    4.0957    1.9881 C   0  0  0  0  0  0  0  0  0  0  0  0
    9.3488    4.7630    0.8564 C   0  0  0  0  0  0  0  0  0  0  0  0
   10.2853    5.3881    0.0678 C   0  0  0  0  0  0  0  0  0  0  0  0
   11.5723    5.7382    0.5537 C   0  0  0  0  0  0  0  0  0  0  0  0
   12.3535    6.3901   -0.3986 N   0  0  0  0  0  0  0  0  0  0  0  0
   11.6962    6.2232   -1.5266 C   0  0  0  0  0  0  0  0  0  0  0  0
   12.0064    7.1226   -2.7228 C   0  0  0  0  0  0  0  0  0  0  0  0
   10.4230    5.2118   -1.4172 C   0  0  0  0  0  0  0  0  0  0  0  0
   10.5188    3.4970   -1.0713 C   0  0  0  0  0  0  0  0  0  0  0  0
   11.8297    3.1476   -1.6402 C   0  0  0  0  0  0  0  0  0  0  0  0
   11.5932    3.7695   -2.9950 C   0  0  0  0  0  0  0  0  0  0  0  0
   10.3201    4.6941   -2.8508 C   0  0  0  0  0  0  0  0  0  0  0  0
   12.0088    5.2217    1.7672 C   0  0  0  0  0  0  0  0  0  0  0  0
   13.2700    5.3977    2.1830 F   0  0  0  0  0  0  0  0  0  0  0  0
   11.1637    4.3560    2.4537 C   0  0  0  0  0  0  0  0  0  0  0  0
    5.1142    1.0623    1.4055 N   0  0  0  0  0  0  0  0  0  0  0  0
    3.8449    1.0119    0.9665 C   0  0  0  0  0  0  0  0  0  0  0  0
  1  2  1  0
  2  3  1  0
  2  7  1  0
  3  4  1  0
  4  5  1  0
  5  6  1  0
  5  8  1  0
  6  7  1  0
  8  9  2  0
  8 36  1  0
  9 10  1  0
 10 11  2  0
 11 12  1  0
 11 35  1  0
 12 13  1  0
 13 14  2  0
 13 19  1  0
 14 15  1  0
 15 16  2  0
 16 17  1  0
 16 18  1  0
 18 19  2  0
 18 20  1  0
 20 21  2  0
 20 34  1  0
 21 22  1  0
 22 23  2  0
 22 27  1  0
 23 24  1  0
 23 32  1  0
 24 25  2  0
 25 26  1  0
 25 27  1  0
 27 28  1  0
 27 31  1  0
 28 29  1  0
 29 30  1  0
 30 31  1  0
 32 33  1  0
 32 34  2  0
 35 36  2  0
M  END
>  <DRUGBANK_ID>  (1) 
DB18081

>  <COMMON_NAME>  (1) 
Crozbaciclib

>  <CAS_NUMBER>  (1) 
2099128-41-1

>  <UNII>  (1) 
5Y2Z8AH65E

>  <SYNONYMS>  (1) 
2-PYRIMIDINAMINE, 5-FLUORO-4-(7'-FLUORO-2'-METHYLSPIRO(CYCLOPENTANE-1,3'-(3H)INDOL)-5'-YL)-N-(5-(1-METHYL-4-PIPERIDINYL)-2-PYRIDINYL)-; 5-fluoro-4-(7'-fluoro-2'-methylspiro[cyclopentane-1,3'- indol]-5'-yl)-N-[5-(1-methylpiperidin-4-yl)pyridin-2- yl]pyrimidin-2-amine

$$$$
