488
     RDKit          3D

 15 15  0  0  0  0  0  0  0  0999 V2000
    1.0021   -0.0541    0.1161 N   0  0  0  0  0  0  0  0  0  0  0  0
    0.4454    2.9803    3.6073 N   0  0  0  0  0  0  0  0  0  0  0  0
   -2.3363   -0.7427    3.2939 N   0  0  0  0  0  0  0  0  0  0  0  0
    0.7624    1.4372    1.8818 N   0  0  0  0  0  0  0  0  0  0  0  0
   -0.7146   -0.3675    1.6529 N   0  0  0  0  0  0  0  0  0  0  0  0
   -0.9532    1.1269    3.4225 N   0  0  0  0  0  0  0  0  0  0  0  0
    0.3278    0.3518    1.2443 C   0  0  0  0  0  0  0  0  0  0  0  0
    0.0754    1.8214    2.9507 C   0  0  0  0  0  0  0  0  0  0  0  0
   -1.3094    0.0230    2.7745 C   0  0  0  0  0  0  0  0  0  0  0  0
    0.2792   -0.5060   -1.0498 C   0  0  0  0  0  0  0  0  0  0  0  0
    2.4459   -0.0315    0.0915 C   0  0  0  0  0  0  0  0  0  0  0  0
   -0.2559    3.4345    4.7891 C   0  0  0  0  0  0  0  0  0  0  0  0
    1.5798    3.7427    3.1319 C   0  0  0  0  0  0  0  0  0  0  0  0
   -3.0254   -0.3599    4.5081 C   0  0  0  0  0  0  0  0  0  0  0  0
   -2.6692   -2.0057    2.6706 C   0  0  0  0  0  0  0  0  0  0  0  0
  1  7  1  0
  1 10  1  0
  1 11  1  0
  2  8  1  0
  2 12  1  0
  2 13  1  0
  3  9  1  0
  3 14  1  0
  3 15  1  0
  4  7  2  0
  4  8  1  0
  5  7  1  0
  5  9  2  0
  6  8  2  0
  6  9  1  0
M  END
>  <DRUGBANK_ID>  (1) 
DB00488

>  <SECONDARY_ACCESSION_NUMBERS>  (1) 
APRD00652

>  <COMMON_NAME>  (1) 
Altretamine

>  <CAS_NUMBER>  (1) 
645-05-6

>  <UNII>  (1) 
Q8BIH59O7H

>  <SYNONYMS>  (1) 
2,4,6-tris(dimethylamino)-1,3,5-triazine; 2,4,6-tris(dimethylamino)-s-triazine; Altretamin; Altretamina; Altretamine; Altr√©tamine; Altretaminum; Hexamethylmelamine; HMM

$$$$
