
     RDKit          3D

 13 14  0  0  0  0  0  0  0  0999 V2000
   -2.3115    0.1413    0.0901 C   0  0  0  0  0  0  0  0  0  0  0  0
   -1.5701    1.3345    0.0454 C   0  0  0  0  0  0  0  0  0  0  0  0
   -0.2188    1.2722    0.0018 N   0  0  0  0  0  0  0  0  0  0  0  0
    0.3300    0.0369    0.0081 C   0  0  0  0  0  0  0  0  0  0  0  0
   -0.4176   -1.1285    0.0301 C   0  0  0  0  0  0  0  0  0  0  0  0
   -1.7677   -1.1054    0.0778 N   0  0  0  0  0  0  0  0  0  0  0  0
    2.0427   -0.0027   -0.0211 Cl  0  0  0  0  0  0  0  0  0  0  0  0
   -2.1957    2.5455   -0.1199 N   0  0  0  0  0  0  0  0  0  0  0  0
   -3.1282    3.1204    0.8534 C   0  0  0  0  0  0  0  0  0  0  0  0
   -4.2300    3.8933    0.0767 C   0  0  0  0  0  0  0  0  0  0  0  0
   -3.7010    4.8953   -0.8820 N   0  0  0  0  0  0  0  0  0  0  0  0
   -2.7141    4.2397   -1.7742 C   0  0  0  0  0  0  0  0  0  0  0  0
   -1.5738    3.5294   -1.0045 C   0  0  0  0  0  0  0  0  0  0  0  0
  1  2  2  0
  1  6  1  0
  2  3  1  0
  2  8  1  0
  3  4  2  0
  4  5  1  0
  4  7  1  0
  5  6  2  0
  8  9  1  0
  8 13  1  0
  9 10  1  0
 10 11  1  0
 11 12  1  0
 12 13  1  0
M  END
>  <DRUGBANK_ID>  (1) 
DB12111

>  <COMMON_NAME>  (1) 
MK-212

>  <CAS_NUMBER>  (1) 
64022-27-1

>  <UNII>  (1) 
62C3N7238U

>  <SYNONYMS>  (1) 
CPP

$$$$
