
     RDKit          3D

 18 19  0  0  0  0  0  0  0  0999 V2000
    1.4169    0.0779   -0.0021 C   0  0  0  0  0  0  0  0  0  0  0  0
    0.6582    1.2473    0.0045 C   0  0  0  0  0  0  0  0  0  0  0  0
    0.7719   -1.1524    0.0041 C   0  0  0  0  0  0  0  0  0  0  0  0
   -1.5685    2.3702   -0.0004 C   0  0  0  0  0  0  0  0  0  0  0  0
   -2.9161    2.3809    0.0300 C   0  0  0  0  0  0  0  0  0  0  0  0
   -3.4015    4.7163   -0.8459 C   0  0  0  0  0  0  0  0  0  0  0  0
   -4.3694    5.7052   -0.5720 C   0  0  0  0  0  0  0  0  0  0  0  0
   -1.3476   -2.5042    0.0457 C   0  0  0  0  0  0  0  0  0  0  0  0
   -0.7325    1.1526    0.0110 C   0  0  0  0  0  0  0  0  0  0  0  0
   -0.6195   -1.1776    0.0236 C   0  0  0  0  0  0  0  0  0  0  0  0
   -3.6465    3.6089   -0.0328 C   0  0  0  0  0  0  0  0  0  0  0  0
   -5.1757    5.1616    0.3905 C   0  0  0  0  0  0  0  0  0  0  0  0
   -1.3689   -0.0420    0.0196 N   0  0  0  0  0  0  0  0  0  0  0  0
   -6.3106    5.7264    1.0590 N   0  0  0  0  0  0  0  0  0  0  0  0
   -2.1254   -2.6826    1.2260 O   0  0  0  0  0  0  0  0  0  0  0  0
   -6.8942    5.0546    1.9123 O   0  0  0  0  0  0  0  0  0  0  0  0
   -6.6141    6.8833    0.7160 O   0  0  0  0  0  0  0  0  0  0  0  0
   -4.7836    3.8964    0.7196 O   0  0  0  0  0  0  0  0  0  0  0  0
  2  1  2  0
  3  1  1  0
  5  4  2  0
  7  6  1  0
  9  2  1  0
  9  4  1  0
 10  3  2  0
 10  8  1  0
 11  5  1  0
 11  6  2  0
 12  7  2  0
 13  9  2  0
 13 10  1  0
 14 12  1  0
 15  8  1  0
 16 14  2  0
 17 14  1  0
 18 11  1  0
 18 12  1  0
M  CHG  2  14   1  17  -1
M  END
>  <DRUGBANK_ID>  (1) 
DB11436

>  <COMMON_NAME>  (1) 
Nifurpirinol

>  <CAS_NUMBER>  (1) 
13411-16-0

>  <UNII>  (1) 
7O5A98XY8U

>  <SYNONYMS>  (1) 
Furpyrinol; Nifurpirinol; Nifurpirinolum

$$$$
