
     RDKit          3D

 20 23  0  0  1  0  0  0  0  0999 V2000
   -2.3242    0.0922   -0.0006 C   0  0  0  0  0  0  0  0  0  0  0  0
   -1.5687    1.1583    0.0049 N   0  0  0  0  0  0  0  0  0  0  0  0
   -0.2699    0.7047    0.0069 C   0  0  0  0  0  0  0  0  0  0  0  0
   -0.2223   -0.6834    0.0092 C   0  0  0  0  0  0  0  0  0  0  0  0
   -1.5468   -1.0490    0.0046 N   0  0  0  0  0  0  0  0  0  0  0  0
    0.9304    1.4288   -0.0022 C   0  0  0  0  0  0  0  0  0  0  0  0
    2.1441    0.7294   -0.0115 C   0  0  0  0  0  0  0  0  0  0  0  0
    2.1632   -0.6674   -0.0019 C   0  0  0  0  0  0  0  0  0  0  0  0
    0.9746   -1.4115    0.0092 C   0  0  0  0  0  0  0  0  0  0  0  0
   -3.6674   -0.0236   -0.0517 N   0  0  0  0  0  0  0  0  0  0  0  0
   -4.6309    1.0857   -0.0474 C   0  0  2  0  0  0  0  0  0  0  0  0
   -4.3274    2.2523   -0.9977 C   0  0  0  0  0  0  0  0  0  0  0  0
   -3.8581    3.5157   -0.2826 C   0  0  0  0  0  0  0  0  0  0  0  0
   -4.8534    3.9646    0.7857 C   0  0  0  0  0  0  0  0  0  0  0  0
   -5.2525    2.8440    1.7142 C   0  0  0  0  0  0  0  0  0  0  0  0
   -5.8311    3.1649    2.9568 C   0  0  0  0  0  0  0  0  0  0  0  0
   -6.2215    2.1598    3.8412 C   0  0  0  0  0  0  0  0  0  0  0  0
   -6.0524    0.8259    3.4892 C   0  0  0  0  0  0  0  0  0  0  0  0
   -5.5074    0.4964    2.2489 C   0  0  0  0  0  0  0  0  0  0  0  0
   -5.1008    1.4908    1.3424 C   0  0  0  0  0  0  0  0  0  0  0  0
  1  2  2  0
  1  5  1  0
  1 10  1  0
  2  3  1  0
  3  4  2  0
  4  5  1  0
  6  7  2  0
  6  3  1  0
  7  8  1  0
  8  9  2  0
  9  4  1  0
 11 12  1  0
 11 20  1  0
 11 10  1  1
 12 13  1  0
 13 14  1  0
 14 15  1  0
 15 16  2  0
 15 20  1  0
 16 17  1  0
 17 18  2  0
 18 19  1  0
 19 20  2  0
M  END
>  <DRUGBANK_ID>  (1) 
DB16897

>  <COMMON_NAME>  (1) 
NS-8593

>  <CAS_NUMBER>  (1) 
875755-39-8

>  <UNII>  (1) 
STF2BZ33XF

$$$$
