
     RDKit          3D

  1  0  0  0  0  0  0  0  0  0999 V2000
    0.9620   -0.0572   -0.0727 Ni  0  0  0  0  0 15  0  0  0  0  0  0
M  CHG  1   1   2
M  END
>  <DRUGBANK_ID>  (1) 
DB14204

>  <COMMON_NAME>  (1) 
Nickel cation

>  <CAS_NUMBER>  (1) 
14701-22-5

>  <UNII>  (1) 
OIS2CXW7AM

>  <SYNONYMS>  (1) 
Nickel cation (Ni2+); Nickel ion(2+); Nickel, ion (Ni2+); Nickel(2+); Nickel(2+) ion; Nickel(II) cation; Nickel(II) ion; Nickelous ion

$$$$
