
     RDKit          3D

  1  0  0  0  0  0  0  0  0  0999 V2000
    1.0783   -0.0036   -0.0620 Ti  0  0  0  0  0 15  0  0  0  0  0  0
M  END
>  <DRUGBANK_ID>  (1) 
DB14160

>  <COMMON_NAME>  (1) 
Titanium

>  <CAS_NUMBER>  (1) 
7440-32-6

>  <UNII>  (1) 
D1JT611TNE

>  <SYNONYMS>  (1) 
Titan; Titane; Titanio; Titanium element; Titanium metallicum

$$$$
