
     RDKit          3D

 19 21  0  0  1  0  0  0  0  0999 V2000
    2.3329    0.0112    0.0606 C   0  0  0  0  0  0  0  0  0  0  0  0
    1.6111    1.1194    0.0297 N   0  0  0  0  0  0  0  0  0  0  0  0
    0.3073    0.6901    0.0360 C   0  0  0  0  0  0  0  0  0  0  0  0
   -0.9338    1.4372    0.0071 C   0  0  0  0  0  0  0  0  0  0  0  0
   -1.0384    2.6650   -0.0022 O   0  0  0  0  0  0  0  0  0  0  0  0
   -2.0499    0.6164   -0.0008 N   0  0  0  0  0  0  0  0  0  0  0  0
   -2.0090   -0.7639    0.0059 C   0  0  0  0  0  0  0  0  0  0  0  0
   -0.8956   -1.4517    0.0285 N   0  0  0  0  0  0  0  0  0  0  0  0
    0.2313   -0.6867    0.0605 C   0  0  0  0  0  0  0  0  0  0  0  0
    1.5461   -1.1150    0.1070 N   0  0  0  0  0  0  0  0  0  0  0  0
    1.9257   -2.5032   -0.0554 C   0  0  2  0  0  0  0  0  0  0  0  0
    2.9090   -3.1907    0.9498 C   0  0  0  0  0  0  0  0  0  0  0  0
    3.3987   -4.0350   -0.2866 C   0  0  1  0  0  0  0  0  0  0  0  0
    3.0779   -2.7422   -1.1093 C   0  0  1  0  0  0  0  0  0  0  0  0
    2.6400   -2.8991   -2.5517 C   0  0  0  0  0  0  0  0  0  0  0  0
    2.2748   -1.6227   -3.0605 O   0  0  0  0  0  0  0  0  0  0  0  0
    4.8019   -4.6174   -0.3409 C   0  0  0  0  0  0  0  0  0  0  0  0
    4.8997   -5.6930    0.5870 O   0  0  0  0  0  0  0  0  0  0  0  0
   -3.2127   -1.3846   -0.0134 N   0  0  0  0  0  0  0  0  0  0  0  0
  1  2  2  0
  1 10  1  0
  2  3  1  0
  3  4  1  0
  3  9  2  0
  4  5  2  0
  4  6  1  0
  6  7  1  0
  7  8  2  0
  7 19  1  0
  8  9  1  0
  9 10  1  0
 11 10  1  1
 11 12  1  0
 11 14  1  0
 12 13  1  0
 13 14  1  0
 13 17  1  1
 14 15  1  6
 15 16  1  0
 17 18  1  0
M  END
>  <DRUGBANK_ID>  (1) 
DB12531

>  <COMMON_NAME>  (1) 
Lobucavir

>  <CAS_NUMBER>  (1) 
127759-89-1

>  <UNII>  (1) 
8U5PYQ1R2E

>  <SYNONYMS>  (1) 
Lobucavir

$$$$
