
     RDKit          3D

 19 18  0  0  0  0  0  0  0  0999 V2000
    1.4420    0.0470   -0.0030 C   0  0  0  0  0  0  0  0  0  0  0  0
    0.6770    1.2160    0.0070 C   0  0  0  0  0  0  0  0  0  0  0  0
   -0.7010    1.1260   -0.0040 C   0  0  0  0  0  0  0  0  0  0  0  0
   -1.3480   -0.0500   -0.0030 N   0  0  0  0  0  0  0  0  0  0  0  0
   -0.6110   -1.1650    0.0090 C   0  0  0  0  0  0  0  0  0  0  0  0
    0.7650   -1.1660   -0.0050 C   0  0  0  0  0  0  0  0  0  0  0  0
   -1.3312   -2.5032    0.0397 C   0  0  0  0  0  0  0  0  0  0  0  0
   -2.6015   -2.5410    0.0534 O   0  0  0  0  0  0  0  0  0  0  0  0
   -0.5847   -3.7111    0.0533 O   0  0  0  0  0  0  0  0  0  0  0  0
    1.4420    0.0470   -0.0030 C   0  0  0  0  0  0  0  0  0  0  0  0
    0.6770    1.2160    0.0070 C   0  0  0  0  0  0  0  0  0  0  0  0
   -0.7010    1.1260   -0.0040 C   0  0  0  0  0  0  0  0  0  0  0  0
   -1.3480   -0.0500   -0.0030 N   0  0  0  0  0  0  0  0  0  0  0  0
   -0.6110   -1.1650    0.0090 C   0  0  0  0  0  0  0  0  0  0  0  0
    0.7650   -1.1660   -0.0050 C   0  0  0  0  0  0  0  0  0  0  0  0
   -1.3312   -2.5032    0.0397 C   0  0  0  0  0  0  0  0  0  0  0  0
   -2.6015   -2.5410    0.0534 O   0  0  0  0  0  0  0  0  0  0  0  0
   -0.5847   -3.7111    0.0533 O   0  0  0  0  0  0  0  0  0  0  0  0
   -3.4922   -0.9548    0.0271 Zn  0  0  0  0  0 15  0  0  0  0  0  0
  1  2  2  0
  1  6  1  0
  2  3  1  0
  3  4  2  0
  4  5  1  0
  5  6  2  0
  5  7  1  0
  7  8  2  0
  7  9  1  0
 10 11  2  0
 10 15  1  0
 11 12  1  0
 12 13  2  0
 13 14  1  0
 14 15  2  0
 14 16  1  0
 16 17  2  0
 16 18  1  0
M  CHG  3   9  -1  18  -1  19   2
M  END
>  <DRUGBANK_ID>  (1) 
DB11175

>  <COMMON_NAME>  (1) 
Zinc picolinate

>  <CAS_NUMBER>  (1) 
17949-65-4

>  <UNII>  (1) 
ALO92O31SE

$$$$
