
     RDKit          3D

 26 29  0  0  0  0  0  0  0  0999 V2000
   -2.2518   -0.0306   -0.0027 C   0  0  0  0  0  0  0  0  0  0  0  0
   -0.7815    0.1169    0.0120 C   0  0  0  0  0  0  0  0  0  0  0  0
    0.0616    1.2109    0.0167 C   0  0  0  0  0  0  0  0  0  0  0  0
    1.3731    0.6752    0.0216 C   0  0  0  0  0  0  0  0  0  0  0  0
    1.3355   -0.6595    0.0466 N   0  0  0  0  0  0  0  0  0  0  0  0
    0.0404   -0.9714    0.0190 N   0  0  0  0  0  0  0  0  0  0  0  0
    2.5039    1.4283   -0.0366 N   0  0  0  0  0  0  0  0  0  0  0  0
    3.8080    0.8797   -0.0298 C   0  0  0  0  0  0  0  0  0  0  0  0
    4.2307    0.0479   -1.0773 C   0  0  0  0  0  0  0  0  0  0  0  0
    3.4556   -0.2150   -2.2339 C   0  0  0  0  0  0  0  0  0  0  0  0
    3.9191   -1.0672   -3.2234 C   0  0  0  0  0  0  0  0  0  0  0  0
    5.1694   -1.6431   -3.0836 C   0  0  0  0  0  0  0  0  0  0  0  0
    5.9522   -1.3543   -1.9588 C   0  0  0  0  0  0  0  0  0  0  0  0
    5.5011   -0.5048   -0.9537 C   0  0  0  0  0  0  0  0  0  0  0  0
    6.3072   -0.2445    0.0837 N   0  0  0  0  0  0  0  0  0  0  0  0
    5.8364    0.5903    1.0291 C   0  0  0  0  0  0  0  0  0  0  0  0
    4.6118    1.1702    1.0102 N   0  0  0  0  0  0  0  0  0  0  0  0
    6.7713    0.9204    2.2010 C   0  0  0  0  0  0  0  0  0  0  0  0
    7.0902    2.4045    2.2798 C   0  0  0  0  0  0  0  0  0  0  0  0
    6.0543    3.3445    2.4559 C   0  0  0  0  0  0  0  0  0  0  0  0
    6.3175    4.7081    2.4661 C   0  0  0  0  0  0  0  0  0  0  0  0
    7.6271    5.1417    2.3401 C   0  0  0  0  0  0  0  0  0  0  0  0
    8.6739    4.2366    2.1928 C   0  0  0  0  0  0  0  0  0  0  0  0
    8.4085    2.8662    2.1555 C   0  0  0  0  0  0  0  0  0  0  0  0
    7.8848    6.4552    2.3612 F   0  0  0  0  0  0  0  0  0  0  0  0
    6.2168    0.5324    3.4664 O   0  0  0  0  0  0  0  0  0  0  0  0
  1  2  1  0
  2  3  2  0
  2  6  1  0
  3  4  1  0
  4  5  2  0
  4  7  1  0
  5  6  1  0
  7  8  1  0
  8  9  1  0
  8 17  2  0
  9 10  2  0
  9 14  1  0
 10 11  1  0
 11 12  2  0
 12 13  1  0
 13 14  2  0
 14 15  1  0
 15 16  2  0
 16 17  1  0
 16 18  1  0
 18 19  1  0
 18 26  1  0
 19 20  2  0
 19 24  1  0
 20 21  1  0
 21 22  2  0
 22 23  1  0
 22 25  1  0
 23 24  2  0
M  END
>  <DRUGBANK_ID>  (1) 
DB12535

>  <COMMON_NAME>  (1) 
AC-430

>  <CAS_NUMBER>  (1) 
1241914-87-3

>  <UNII>  (1) 
E7YVO9NSJ9

$$$$
