
     RDKit          3D

 32 35  0  0  1  0  0  0  0  0999 V2000
   -2.1730   -0.0714    0.0982 C   0  0  0  0  0  0  0  0  0  0  0  0
   -0.7653   -0.0394   -0.2033 N   0  0  0  0  0  0  0  0  0  0  0  0
   -0.0007   -1.2285    0.1213 C   0  0  0  0  0  0  0  0  0  0  0  0
    1.4525   -0.8039   -0.0816 C   0  0  0  0  0  0  0  0  0  0  0  0
    1.4592    0.7397   -0.0676 C   0  0  2  0  0  0  0  0  0  0  0  0
   -0.0061    1.1390    0.2414 C   0  0  2  0  0  0  0  0  0  0  0  0
   -0.2264    1.4905    1.7335 C   0  0  0  0  0  0  0  0  0  0  0  0
    0.4141    0.5916    2.6326 O   0  0  0  0  0  0  0  0  0  0  0  0
    1.9948    1.3184   -1.3824 C   0  0  0  0  0  0  0  0  0  0  0  0
    1.3813    1.0352   -2.6189 C   0  0  0  0  0  0  0  0  0  0  0  0
    0.2891    0.2225   -2.6671 O   0  0  0  0  0  0  0  0  0  0  0  0
    1.8671    1.5371   -3.8196 C   0  0  0  0  0  0  0  0  0  0  0  0
    3.0031    2.3342   -3.8155 C   0  0  0  0  0  0  0  0  0  0  0  0
    3.4731    2.8024   -5.0078 O   0  0  0  0  0  0  0  0  0  0  0  0
    3.6409    2.6530   -2.6116 C   0  0  0  0  0  0  0  0  0  0  0  0
    3.1359    2.1519   -1.3991 C   0  0  0  0  0  0  0  0  0  0  0  0
    3.7215    2.4588   -0.1879 O   0  0  0  0  0  0  0  0  0  0  0  0
    4.8015    3.3182   -0.1662 C   0  0  0  0  0  0  0  0  0  0  0  0
    5.3663    3.8588   -1.2502 C   0  0  0  0  0  0  0  0  0  0  0  0
    4.8285    3.5330   -2.5728 C   0  0  0  0  0  0  0  0  0  0  0  0
    5.3786    4.0136   -3.5594 O   0  0  0  0  0  0  0  0  0  0  0  0
    5.3488    3.6081    1.1687 C   0  0  0  0  0  0  0  0  0  0  0  0
    5.3828    4.9419    1.6161 C   0  0  0  0  0  0  0  0  0  0  0  0
    5.9130    5.2648    2.8676 C   0  0  0  0  0  0  0  0  0  0  0  0
    6.4137    4.2599    3.7059 C   0  0  0  0  0  0  0  0  0  0  0  0
    6.3884    2.9300    3.2612 C   0  0  0  0  0  0  0  0  0  0  0  0
    5.8659    2.6056    2.0049 C   0  0  0  0  0  0  0  0  0  0  0  0
    5.9339    0.9448    1.5234 Cl  0  0  0  0  0  0  0  0  0  0  0  0
    6.9641    4.6129    5.0645 C   0  0  0  0  0  0  0  0  0  0  0  0
    8.0145    5.4751    4.9905 F   0  0  0  0  0  0  0  0  0  0  0  0
    6.0361    5.2168    5.8558 F   0  0  0  0  0  0  0  0  0  0  0  0
    7.4115    3.5353    5.7657 F   0  0  0  0  0  0  0  0  0  0  0  0
  1  2  1  0
  2  3  1  0
  3  4  1  0
  5  4  1  0
  5  6  1  0
  5  9  1  6
  6  2  1  0
  6  7  1  1
  7  8  1  0
  9 10  2  0
  9 16  1  0
 10 11  1  0
 10 12  1  0
 12 13  2  0
 13 14  1  0
 13 15  1  0
 15 16  2  0
 15 20  1  0
 16 17  1  0
 17 18  1  0
 18 19  2  0
 18 22  1  0
 19 20  1  0
 20 21  2  0
 22 23  2  0
 22 27  1  0
 23 24  1  0
 24 25  2  0
 25 26  1  0
 25 29  1  0
 26 27  2  0
 27 28  1  0
 29 30  1  0
 29 31  1  0
 29 32  1  0
M  END
>  <DRUGBANK_ID>  (1) 
DB15157

>  <COMMON_NAME>  (1) 
Voruciclib

>  <CAS_NUMBER>  (1) 
1000023-04-0

>  <UNII>  (1) 
W66XP666AM

>  <SYNONYMS>  (1) 
Voruciclib

$$$$
