1091
     RDKit          3D

 24 26  0  0  1  0  0  0  0  0999 V2000
    0.9172    0.4356   -0.0044 N   0  0  0  0  0  0  0  0  0  0  0  0
    2.0934    5.2044    3.8995 C   0  0  0  0  0  0  0  0  0  0  0  0
    1.4769    3.7965    3.5247 C   0  0  0  0  0  0  0  0  0  0  0  0
    2.5646    6.3572    2.9442 C   0  0  0  0  0  0  0  0  0  0  0  0
    0.9246    5.8078    4.6501 C   0  0  0  0  0  0  0  0  0  0  0  0
    3.3618    5.0066    4.7200 C   0  0  0  0  0  0  0  0  0  0  0  0
    0.4101    0.1944    1.3816 C   0  0  0  0  0  0  0  0  0  0  0  0
    0.6500    1.3005    2.3992 C   0  0  0  0  0  0  0  0  0  0  0  0
    2.2223    2.6016    3.7217 C   0  0  0  0  0  0  0  0  0  0  0  0
    0.2602    3.6696    2.8068 C   0  0  0  0  0  0  0  0  0  0  0  0
    0.2630    1.7522   -0.8017 C   0  0  0  0  0  0  0  0  0  0  0  0
    1.8325    1.3768    3.1560 C   0  0  0  0  0  0  0  0  0  0  0  0
   -0.1720    2.4336    2.2975 C   0  0  0  0  0  0  0  0  0  0  0  0
    0.5747    3.3822   -0.3027 C   0  0  0  0  0  0  0  0  0  0  0  0
    0.0790    5.0400   -0.2210 C   0  0  0  0  0  0  0  0  0  0  0  0
    2.3724    0.0781   -0.1456 C   0  0  0  0  0  0  0  0  0  0  0  0
    1.2374    5.2821   -0.5691 C   0  0  0  0  0  0  0  0  0  0  0  0
    1.8580    3.0352    0.2260 C   0  0  0  0  0  0  0  0  0  0  0  0
   -0.4852    6.7887   -0.1412 C   0  0  0  0  0  0  0  0  0  0  0  0
    2.1502    5.1823    0.4517 C   0  0  0  0  0  0  0  0  0  0  0  0
    2.5844    3.9655    0.8162 C   0  0  0  0  0  0  0  0  0  0  0  0
    1.4003    6.2991   -1.5220 C   0  0  0  0  0  0  0  0  0  0  0  0
    0.1573    7.8972   -0.8811 C   0  0  0  0  0  0  0  0  0  0  0  0
    1.4185    7.4973   -0.8575 C   0  0  0  0  0  0  0  0  0  0  0  0
  1  7  1  0
  1 11  1  0
  1 16  1  0
  2  3  1  0
  2  4  1  0
  2  5  1  0
  2  6  1  0
  3  9  2  0
  3 10  1  0
  7  8  1  0
  8 12  2  0
  8 13  1  0
  9 12  1  0
 10 13  2  0
 11 14  1  0
 14 15  1  0
 14 18  2  0
 15 17  2  0
 15 19  1  0
 17 20  1  0
 17 22  1  0
 18 21  1  0
 19 23  2  0
 20 21  2  0
 22 24  2  0
 23 24  1  0
M  END
>  <DRUGBANK_ID>  (1) 
DB01091

>  <SECONDARY_ACCESSION_NUMBERS>  (1) 
APRD00833

>  <COMMON_NAME>  (1) 
Butenafine

>  <CAS_NUMBER>  (1) 
101828-21-1

>  <UNII>  (1) 
91Y494NL0X

>  <SYNONYMS>  (1) 
(4-tert-Butyl-benzyl)-methyl-naphthalen-1-ylmethyl-amine; (4-tert-butylphenyl)-N-methyl-N-(naphthalen-1-ylmethyl)methanamine; 4-tert-butylbenzyl(methyl)(1-naphthalenemethyl)amine; Butenafina; Butenafine; Butenafinum; N-(p-tert-butylbenzyl)-N-methyl-1-naphthalenemethylamine

$$$$
