
     RDKit          3D

 18 19  0  0  0  0  0  0  0  0999 V2000
    0.7005   -1.2912    0.3154 O   0  0  0  0  0  0  0  0  0  0  0  0
   -0.5641    2.1882    0.6590 O   0  0  0  0  0  0  0  0  0  0  0  0
    2.2124    2.6517    0.3770 O   0  0  0  0  0  0  0  0  0  0  0  0
    3.7423    0.5663   -0.8166 O   0  0  0  0  0  0  0  0  0  0  0  0
   -0.3310    0.0455   -2.2623 O   0  0  0  0  0  0  0  0  0  0  0  0
    4.2096   -1.9238   -0.7893 O   0  0  0  0  0  0  0  0  0  0  0  0
   -3.1121    0.4821   -1.9892 O   0  0  0  0  0  0  0  0  0  0  0  0
   -3.6130    0.2146    0.9092 O   0  0  0  0  0  0  0  0  0  0  0  0
   -1.4253   -0.5322    0.9697 N   0  0  0  0  0  0  0  0  0  0  0  0
   -2.2199    0.2127   -0.9605 N   0  0  0  0  0  0  0  0  0  0  0  0
   -0.2325   -0.2235    0.2084 C   0  0  1  0  0  0  0  0  0  0  0  0
    0.3731    1.1097    0.7188 C   0  0  1  0  0  0  0  0  0  0  0  0
    1.6167    1.4389   -0.0973 C   0  0  2  0  0  0  0  0  0  0  0  0
    2.5976    0.2710   -0.0090 C   0  0  1  0  0  0  0  0  0  0  0  0
    1.9189   -1.0545   -0.4296 C   0  0  1  0  0  0  0  0  0  0  0  0
   -0.8993    0.0061   -1.1766 C   0  0  0  0  0  0  0  0  0  0  0  0
    2.9136   -2.2317   -0.2852 C   0  0  0  0  0  0  0  0  0  0  0  0
   -2.5473    0.0090    0.3380 C   0  0  0  0  0  0  0  0  0  0  0  0
  1 15  1  0
  5 16  2  0
  6 17  1  0
  7 10  1  0
  8 18  2  0
 11  9  1  1
  9 18  1  0
 10 16  1  0
 10 18  1  0
 11  1  1  0
 11 12  1  0
 11 16  1  0
 12 13  1  0
 12  2  1  6
 13  3  1  1
 13 14  1  0
 14  4  1  6
 14 15  1  0
 15 17  1  1
M  END
>  <DRUGBANK_ID>  (1) 
DB02447

>  <SECONDARY_ACCESSION_NUMBERS>  (1) 
EXPT01598

>  <COMMON_NAME>  (1) 
3,8,9,10-tetrahydroxy-7-hydroxymethyl-6-oxa-1,3-diaza-spiro[4.5]decane-2,4-dione

$$$$
