5287547
     RDKit          3D

 10 11  0  0  0  0  0  0  0  0999 V2000
   -1.5814    1.0651    0.0000 N   0  0  0  0  0  0  0  0  0  0  0  0
   -1.5331   -1.1537    0.0015 N   0  0  0  0  0  0  0  0  0  0  0  0
    2.0677    0.7143   -0.0035 N   0  0  0  0  0  0  0  0  0  0  0  0
    0.8731   -1.3950   -0.0003 N   0  0  0  0  0  0  0  0  0  0  0  0
   -0.2599    0.7208   -0.0007 C   0  0  0  0  0  0  0  0  0  0  0  0
    0.9218    1.4379   -0.0030 C   0  0  0  0  0  0  0  0  0  0  0  0
   -0.2540   -0.6621    0.0004 C   0  0  0  0  0  0  0  0  0  0  0  0
    0.9848    2.9286   -0.0079 C   0  0  0  0  0  0  0  0  0  0  0  0
   -2.3090   -0.0914    0.0012 C   0  0  0  0  0  0  0  0  0  0  0  0
    1.9790   -0.6365   -0.0022 C   0  0  0  0  0  0  0  0  0  0  0  0
  1  5  1  0
  1  9  1  0
  2  7  1  0
  2  9  2  0
  3  6  1  0
  3 10  2  0
  4  7  2  0
  4 10  1  0
  5  6  2  0
  5  7  1  0
  6  8  1  0
M  END
>  <DRUGBANK_ID>  (1) 
DB02113

>  <SECONDARY_ACCESSION_NUMBERS>  (1) 
EXPT00287

>  <COMMON_NAME>  (1) 
6-Methylpurine

>  <CAS_NUMBER>  (1) 
2004-03-7

>  <UNII>  (1) 
SEO6WX0OZG

$$$$
