
     RDKit          3D

 28 31  0  0  1  0  0  0  0  0999 V2000
    1.6988    0.4944    0.3153 O   0  0  0  0  0  0  0  0  0  0  0  0
   -1.8838    0.8893    0.1424 O   0  0  0  0  0  0  0  0  0  0  0  0
   -0.7494   -1.4481    0.7306 O   0  0  0  0  0  0  0  0  0  0  0  0
    1.5727   -1.9159   -2.4456 O   0  0  0  0  0  0  0  0  0  0  0  0
    0.9202    2.6909    0.0004 N   0  0  0  0  0  0  0  0  0  0  0  0
    1.7344    4.7529    0.2892 N   0  0  0  0  0  0  0  0  0  0  0  0
    1.1104    2.5412   -2.3900 N   0  0  0  0  0  0  0  0  0  0  0  0
    0.7342    1.3828   -5.0462 N   0  0  0  0  0  0  0  0  0  0  0  0
    1.3511    2.5814   -4.7290 N   0  0  0  0  0  0  0  0  0  0  0  0
    2.1178    4.4124   -3.4164 N   0  0  0  0  0  0  0  0  0  0  0  0
    2.8901    6.2757   -2.1765 N   0  0  0  0  0  0  0  0  0  0  0  0
   -0.5927    0.6714   -0.4291 C   0  0  1  0  0  0  0  0  0  0  0  0
    0.5285    1.3435    0.3692 C   0  0  1  0  0  0  0  0  0  0  0  0
   -0.1747   -0.7957   -0.4173 C   0  0  1  0  0  0  0  0  0  0  0  0
    1.3556   -0.7538   -0.3159 C   0  0  1  0  0  0  0  0  0  0  0  0
   -0.4279   -0.6715   -4.2611 C   0  0  0  0  0  0  0  0  0  0  0  0
    0.4240   -1.5834   -5.1201 C   0  0  0  0  0  0  0  0  0  0  0  0
   -1.8733   -0.5298   -4.6946 C   0  0  0  0  0  0  0  0  0  0  0  0
   -0.2234   -2.9509   -5.2262 C   0  0  0  0  0  0  0  0  0  0  0  0
   -2.5030   -1.9075   -4.8776 C   0  0  0  0  0  0  0  0  0  0  0  0
   -1.6405   -2.8012   -5.7694 C   0  0  0  0  0  0  0  0  0  0  0  0
    2.1215   -0.8949   -1.6350 C   0  0  0  0  0  0  0  0  0  0  0  0
    1.2466    3.1708   -1.2297 C   0  0  0  0  0  0  0  0  0  0  0  0
    1.1926    3.7061    0.8828 C   0  0  0  0  0  0  0  0  0  0  0  0
    0.2380    0.6531   -4.1027 C   0  0  0  0  0  0  0  0  0  0  0  0
    1.7827    4.4145   -1.0513 C   0  0  0  0  0  0  0  0  0  0  0  0
    2.2670    5.0480   -2.2120 C   0  0  0  0  0  0  0  0  0  0  0  0
    1.5266    3.1979   -3.4671 C   0  0  0  0  0  0  0  0  0  0  0  0
  1 13  1  0
  1 15  1  0
  4 22  1  0
  5 23  1  0
  5 24  1  0
  6 24  2  0
  6 26  1  0
  7 23  1  0
  7 28  2  0
  8  9  1  0
  8 25  2  0
  9 28  1  0
 10 27  2  0
 10 28  1  0
 11 27  1  0
 12  2  1  1
 12 13  1  0
 12 14  1  0
 13  5  1  6
 14  3  1  1
 14 15  1  0
 15 22  1  6
 16 17  1  0
 16 18  1  0
 16 25  1  0
 17 19  1  0
 18 20  1  0
 19 21  1  0
 20 21  1  0
 23 26  2  0
 26 27  1  0
M  END
>  <DRUGBANK_ID>  (1) 
DB04853

>  <COMMON_NAME>  (1) 
Binodenoson

>  <CAS_NUMBER>  (1) 
144348-08-3

>  <UNII>  (1) 
LJA4M1L5LG

>  <SYNONYMS>  (1) 
2-((Cyclohexylmethylene)hydrazino)adenosine; Binodenoson

$$$$
