
     RDKit          3D

 23 26  0  0  0  0  0  0  0  0999 V2000
    0.5954    1.2870    1.0677 C   0  0  0  0  0  0  0  0  0  0  0  0
   -0.5994    0.3007    0.9248 C   0  0  0  0  0  0  0  0  0  0  0  0
    0.9888    1.4394   -0.2963 N   0  0  0  0  0  0  0  0  0  0  0  0
   -0.3841   -0.9666    0.3200 C   0  0  0  0  0  0  0  0  0  0  0  0
    0.8426   -1.4473   -0.1871 N   0  0  0  0  0  0  0  0  0  0  0  0
    0.2956    2.6805    1.2928 O   0  0  0  0  0  0  0  0  0  0  0  0
    1.7949   -0.7998   -0.9529 C   0  0  0  0  0  0  0  0  0  0  0  0
    2.1007    0.6811   -0.7596 C   0  0  0  0  0  0  0  0  0  0  0  0
   -0.1175    2.1106   -1.0444 C   0  0  0  0  0  0  0  0  0  0  0  0
   -1.9158    0.8109    0.9361 C   0  0  0  0  0  0  0  0  0  0  0  0
    1.5836    0.7616    2.1586 C   0  0  0  0  0  0  0  0  0  0  0  0
   -0.0184    3.2529   -0.0130 C   0  0  0  0  0  0  0  0  0  0  0  0
    2.5878   -1.4981   -1.6290 O   0  0  0  0  0  0  0  0  0  0  0  0
   -1.4622   -1.7298   -0.1363 C   0  0  0  0  0  0  0  0  0  0  0  0
   -2.9095    0.1587    0.2045 C   0  0  0  0  0  0  0  0  0  0  0  0
   -2.7071   -1.1287   -0.2804 C   0  0  0  0  0  0  0  0  0  0  0  0
   -4.3017    1.0429   -0.2974 Cl  0  0  0  0  0  0  0  0  0  0  0  0
    2.2438   -0.4919    2.1038 C   0  0  0  0  0  0  0  0  0  0  0  0
    1.7888    1.4497    3.3497 C   0  0  0  0  0  0  0  0  0  0  0  0
    0.9106    4.1131   -0.8871 C   0  0  0  0  0  0  0  0  0  0  0  0
    2.7660   -1.1769    3.1862 C   0  0  0  0  0  0  0  0  0  0  0  0
    2.5154    0.8579    4.3998 C   0  0  0  0  0  0  0  0  0  0  0  0
    2.9143   -0.4811    4.3539 C   0  0  0  0  0  0  0  0  0  0  0  0
  2  1  1  0
  3  1  1  0
  4  2  2  0
  5  4  1  0
  5  7  1  0
  6  1  1  0
  7  8  1  0
  8  3  1  0
  9  3  1  0
  9 12  1  0
 10  2  1  0
 11  1  1  0
 12  6  1  0
 13  7  2  0
 14  4  1  0
 14 16  2  0
 15 10  2  0
 16 15  1  0
 17 15  1  0
 18 11  2  0
 19 11  1  0
 20 12  1  0
 21 18  1  0
 21 23  2  0
 22 19  2  0
 23 22  1  0
M  END
>  <DRUGBANK_ID>  (1) 
DB15491

>  <COMMON_NAME>  (1) 
Oxazolam

>  <CAS_NUMBER>  (1) 
24143-17-7

>  <UNII>  (1) 
1V2WI2NA1C

>  <SYNONYMS>  (1) 
Oxazolam; Oxazolamum; Oxazolazepam

$$$$
