
     RDKit          3D

 23 23  0  0  0  0  0  0  0  0999 V2000
    0.9699    0.0185    0.0201 C   0  0  0  0  0  0  0  0  0  0  0  0
   -2.7488    0.5882    5.5518 C   0  0  0  0  0  0  0  0  0  0  0  0
   -0.4781   -4.5083   -2.3665 C   0  0  0  0  0  0  0  0  0  0  0  0
    4.3226   -2.7791   -2.0843 C   0  0  0  0  0  0  0  0  0  0  0  0
    5.2225   -5.2553   -3.3721 C   0  0  0  0  0  0  0  0  0  0  0  0
   -0.7570   -0.3062    2.4542 C   0  0  0  0  0  0  0  0  0  0  0  0
   -0.3557   -1.4252    1.6190 C   0  0  0  0  0  0  0  0  0  0  0  0
   -1.5205   -0.3310    3.5570 C   0  0  0  0  0  0  0  0  0  0  0  0
    0.7974   -2.4865   -0.2627 C   0  0  0  0  0  0  0  0  0  0  0  0
    1.4848   -2.4718   -1.4197 C   0  0  0  0  0  0  0  0  0  0  0  0
   -1.4790    2.1191    4.0619 C   0  0  0  0  0  0  0  0  0  0  0  0
    1.4769   -5.8325   -3.2131 C   0  0  0  0  0  0  0  0  0  0  0  0
    0.4208   -1.3018    0.5158 C   0  0  0  0  0  0  0  0  0  0  0  0
   -1.8795    0.8586    4.3519 C   0  0  0  0  0  0  0  0  0  0  0  0
    1.0063   -4.6719   -2.5703 C   0  0  0  0  0  0  0  0  0  0  0  0
    3.3049   -3.8340   -2.4519 C   0  0  0  0  0  0  0  0  0  0  0  0
    3.7613   -5.0131   -3.0923 C   0  0  0  0  0  0  0  0  0  0  0  0
    1.9258   -3.6798   -2.1519 C   0  0  0  0  0  0  0  0  0  0  0  0
    2.8374   -5.9992   -3.4549 C   0  0  0  0  0  0  0  0  0  0  0  0
   -1.7844    3.3669    4.7930 C   0  0  0  0  0  0  0  0  0  0  0  0
    3.3112   -7.1351   -4.0548 O   0  0  0  0  0  0  0  0  0  0  0  0
   -1.3747    4.4689    4.4525 O   0  0  0  0  0  0  0  0  0  0  0  0
   -2.5546    3.2182    5.8762 O   0  0  0  0  0  0  0  0  0  0  0  0
  7  6  1  0
  8  6  2  0
 10  9  2  0
 13  1  1  0
 13  7  2  0
 13  9  1  0
 14  2  1  0
 14  8  1  0
 14 11  2  0
 15  3  1  0
 15 12  2  0
 16  4  1  0
 17  5  1  0
 17 16  1  0
 18 10  1  0
 18 15  1  0
 18 16  2  0
 19 12  1  0
 19 17  2  0
 20 11  1  0
 21 19  1  0
 22 20  2  0
 23 20  1  0
M  END
>  <DRUGBANK_ID>  (1) 
DB08455

>  <COMMON_NAME>  (1) 
Ro 12-7310

>  <CAS_NUMBER>  (1) 
65316-65-6

>  <UNII>  (1) 
G2CPU7AI1D

>  <SYNONYMS>  (1) 
(2E,4E,6E,8E)-9-(4-Hydroxy-2,3,6-trimethylphenyl)-3,7-dimethyl-2,4,6,8-nonatetraenoic acid

$$$$
