
     RDKit          3D

 23 25  0  0  0  0  0  0  0  0999 V2000
    0.5795   -0.1436   -0.1193 C   0  0  0  0  0  0  0  0  0  0  0  0
    0.2893    0.0648    1.3430 C   0  0  0  0  0  0  0  0  0  0  0  0
    1.0031    1.2253    2.0744 N   0  0  0  0  0  0  0  0  0  0  0  0
    0.2704    2.5811    1.9458 C   0  0  0  0  0  0  0  0  0  0  0  0
    0.7890    3.2319    0.6894 C   0  0  0  0  0  0  0  0  0  0  0  0
    2.2684    2.8820    0.6326 C   0  0  0  0  0  0  0  0  0  0  0  0
    3.1645    3.5763   -0.1019 C   0  0  0  0  0  0  0  0  0  0  0  0
    4.5960    3.1592   -0.2475 C   0  0  0  0  0  0  0  0  0  0  0  0
    4.9274    2.0281   -1.0052 C   0  0  0  0  0  0  0  0  0  0  0  0
    6.2376    1.5512   -1.0506 C   0  0  0  0  0  0  0  0  0  0  0  0
    7.2621    2.3271   -0.5316 C   0  0  0  0  0  0  0  0  0  0  0  0
    6.9681    3.5591    0.0520 C   0  0  0  0  0  0  0  0  0  0  0  0
    5.6360    3.9482    0.2462 C   0  0  0  0  0  0  0  0  0  0  0  0
    2.7283    4.7821   -0.8778 C   0  0  0  0  0  0  0  0  0  0  0  0
    2.2590    5.9412   -0.2418 C   0  0  0  0  0  0  0  0  0  0  0  0
    1.9023    7.0634   -0.9949 C   0  0  0  0  0  0  0  0  0  0  0  0
    2.0747    7.0580   -2.3762 C   0  0  0  0  0  0  0  0  0  0  0  0
    2.5868    5.9294   -3.0121 C   0  0  0  0  0  0  0  0  0  0  0  0
    2.8811    4.7861   -2.2684 C   0  0  0  0  0  0  0  0  0  0  0  0
    2.4666    1.6304    1.5292 C   0  0  0  0  0  0  0  0  0  0  0  0
    3.2029    0.4759    0.8485 C   0  0  0  0  0  0  0  0  0  0  0  0
    0.9603    0.8415    3.5995 C   0  0  0  0  0  0  0  0  0  0  0  0
   -0.4803    0.5061    4.0534 C   0  0  0  0  0  0  0  0  0  0  0  0
  1  2  1  0
  2  3  1  0
  3  4  1  0
  3 20  1  0
  3 22  1  0
  4  5  1  0
  5  6  1  0
  6  7  2  3
  6 20  1  0
  7  8  1  0
  7 14  1  0
  8  9  2  0
  8 13  1  0
  9 10  1  0
 10 11  2  0
 11 12  1  0
 12 13  2  0
 14 15  2  0
 14 19  1  0
 15 16  1  0
 16 17  2  0
 17 18  1  0
 18 19  2  0
 20 21  1  0
 22 23  1  0
M  CHG  1   3   1
M  END
>  <DRUGBANK_ID>  (1) 
DB13254

>  <COMMON_NAME>  (1) 
Prifinium

>  <CAS_NUMBER>  (1) 
10236-81-4

>  <UNII>  (1) 
3C7TTK1K7K

$$$$
