
     RDKit          3D

  9  9  0  0  0  0  0  0  0  0999 V2000
    1.0226   -0.1717    0.0631 N   0  0  0  0  0  0  0  0  0  0  0  0
    0.5587    0.9074    0.9348 C   0  0  0  0  0  0  0  0  0  0  0  0
    1.0388    2.3056    0.5008 C   0  0  0  0  0  0  0  0  0  0  0  0
    0.6270    2.6617   -0.8768 N   0  0  0  0  0  0  0  0  0  0  0  0
    1.6759    2.3608   -1.8844 C   0  0  0  0  0  0  0  0  0  0  0  0
    2.9329    3.2378   -1.7520 C   0  0  0  0  0  0  0  0  0  0  0  0
    2.6050    4.6306   -1.8099 O   0  0  0  0  0  0  0  0  0  0  0  0
    1.6275    4.9697   -0.8167 C   0  0  0  0  0  0  0  0  0  0  0  0
    0.3559    4.1183   -0.9722 C   0  0  0  0  0  0  0  0  0  0  0  0
  1  2  1  0
  2  3  1  0
  3  4  1  0
  4  5  1  0
  4  9  1  0
  5  6  1  0
  6  7  1  0
  7  8  1  0
  8  9  1  0
M  END
>  <DRUGBANK_ID>  (1) 
DB03096

>  <SECONDARY_ACCESSION_NUMBERS>  (1) 
EXPT01341

>  <COMMON_NAME>  (1) 
2-Morpholinoethylamine

>  <CAS_NUMBER>  (1) 
2038-03-1

>  <UNII>  (1) 
T92F2H779P

>  <SYNONYMS>  (1) 
2-Morpholinoethanamine; 4-Morpholineethanamine; beta-Aminoaethyl-morpholin; N-2-Aminoethylmorpholine; N-Aminoethylmorpholine

$$$$
