
     RDKit          3D

 13 13  0  0  0  0  0  0  0  0999 V2000
    0.6521    1.2693   -0.3183 C   0  0  2  0  0  0  0  0  0  0  0  0
    1.4230    0.0141    0.1515 C   0  0  1  0  0  0  0  0  0  0  0  0
   -0.7132    1.2509    0.1193 O   0  0  0  0  0  0  0  0  0  0  0  0
    0.7650    1.4539   -1.8377 C   0  0  0  0  0  0  0  0  0  0  0  0
    0.6983   -1.2973   -0.2316 C   0  0  1  0  0  0  0  0  0  0  0  0
    2.7805    0.0181   -0.2911 O   0  0  0  0  0  0  0  0  0  0  0  0
   -1.4014    0.0529   -0.2624 C   0  0  1  0  0  0  0  0  0  0  0  0
   -0.0419    2.3937   -2.3653 O   0  0  0  0  0  0  0  0  0  0  0  0
    1.4657    0.7453   -2.5566 O   0  0  0  0  0  0  0  0  0  0  0  0
   -0.7424   -1.2389    0.2763 C   0  0  2  0  0  0  0  0  0  0  0  0
    0.6989   -1.6027   -1.6288 O   0  0  0  0  0  0  0  0  0  0  0  0
   -2.7407    0.1577    0.1794 O   0  0  0  0  0  0  0  0  0  0  0  0
   -0.7417   -1.2599    1.7112 O   0  0  0  0  0  0  0  0  0  0  0  0
  1  2  1  0
  1  3  1  0
  1  4  1  6
  2  5  1  0
  2  6  1  6
  3  7  1  0
  4  8  1  0
  4  9  2  0
  5 10  1  0
  5 11  1  6
  7 10  1  0
  7 12  1  1
 10 13  1  1
M  END
>  <DRUGBANK_ID>  (1) 
DB03511

>  <SECONDARY_ACCESSION_NUMBERS>  (1) 
EXPT01661; DB03334

>  <COMMON_NAME>  (1) 
alpha-D-galacturonic acid

>  <CAS_NUMBER>  (1) 
6294-16-2

>  <UNII>  (1) 
CEP8I6411H

>  <SYNONYMS>  (1) 
alpha-D-galactopyranuronic acid; α-D-galactopyranuronic acid; α-D-galacturonic acid

$$$$
