A46
     RDKit          3D

 23 25  0  0  0  0  0  0  0  0999 V2000
   -4.3343    2.6947    3.1690 C   0  0  0  0  0  0  0  0  0  0  0  0
   -4.6255    3.4616    4.3000 N   0  0  0  0  0  0  0  0  0  0  0  0
   -5.1638    3.1333    5.5018 C   0  0  0  0  0  0  0  0  0  0  0  0
   -6.3745    2.3488    5.6350 C   0  0  0  0  0  0  0  0  0  0  0  0
   -4.6879    3.7212    6.4823 O   0  0  0  0  0  0  0  0  0  0  0  0
   -7.5413    3.0094    6.0195 N   0  0  0  0  0  0  0  0  0  0  0  0
   -6.5093    1.1201    6.2885 C   0  0  0  0  0  0  0  0  0  0  0  0
   -7.6256    2.7629    7.3822 C   0  0  0  0  0  0  0  0  0  0  0  0
   -7.0758    1.4936    7.5575 C   0  0  0  0  0  0  0  0  0  0  0  0
   -8.0059    3.5986    8.4332 C   0  0  0  0  0  0  0  0  0  0  0  0
   -7.0050    0.9650    8.8597 C   0  0  0  0  0  0  0  0  0  0  0  0
   -7.8291    3.0989    9.7239 C   0  0  0  0  0  0  0  0  0  0  0  0
   -7.3644    1.7987    9.9292 C   0  0  0  0  0  0  0  0  0  0  0  0
   -7.1576    1.2355   11.5452 Cl  0  0  0  0  0  0  0  0  0  0  0  0
   -3.5455    3.3297    2.2006 C   0  0  0  0  0  0  0  0  0  0  0  0
   -3.0661    2.6303    1.0950 C   0  0  0  0  0  0  0  0  0  0  0  0
   -3.3814    1.2778    0.9328 C   0  0  0  0  0  0  0  0  0  0  0  0
   -4.1859    0.6525    1.9004 C   0  0  0  0  0  0  0  0  0  0  0  0
   -4.6590    1.3544    3.0142 C   0  0  0  0  0  0  0  0  0  0  0  0
   -2.8311    0.4619   -0.2149 C   0  0  2  0  0  0  0  0  0  0  0  0
   -1.3191    0.1959   -0.0555 C   0  0  0  0  0  0  0  0  0  0  0  0
   -3.1226    1.1049   -1.4565 O   0  0  0  0  0  0  0  0  0  0  0  0
   -0.9435   -1.0423   -0.6632 O   0  0  0  0  0  0  0  0  0  0  0  0
  1 15  2  0
  1 19  1  0
  2  1  1  0
  3  5  2  0
  3  2  1  0
  4  3  1  0
  6  4  1  0
  7  4  2  0
  8  9  2  0
  8  6  1  0
  9  7  1  0
 10  8  1  0
 11  9  1  0
 12 13  1  0
 12 10  2  0
 13 11  2  0
 14 13  1  0
 15 16  1  0
 16 17  2  0
 18 17  1  0
 19 18  2  0
 20 22  1  6
 20 21  1  0
 20 17  1  0
 23 21  1  0
M  END
>  <DRUGBANK_ID>  (1) 
DB07315

>  <COMMON_NAME>  (1) 
5-chloro-N-{4-[(1R)-1,2-dihydroxyethyl]phenyl}-1H-indole-2-carboxamide

$$$$
