
     RDKit          3D

 33 36  0  0  1  0  0  0  0  0999 V2000
    2.0106   -0.0528    0.0155 C   0  0  1  0  0  0  0  0  0  0  0  0
    2.7233    1.2375    0.4117 C   0  0  0  0  0  0  0  0  0  0  0  0
    3.7305    0.9665    1.5152 C   0  0  0  0  0  0  0  0  0  0  0  0
    3.9887   -0.4900    1.2548 C   0  0  1  0  0  0  0  0  0  0  0  0
    4.8146   -1.2557    2.2627 C   0  0  2  0  0  0  0  0  0  0  0  0
    6.1718   -0.5611    2.4209 C   0  0  0  0  0  0  0  0  0  0  0  0
    7.2220   -1.4487    2.9736 C   0  0  0  0  0  0  0  0  0  0  0  0
    7.0891   -2.7788    3.0714 C   0  0  0  0  0  0  0  0  0  0  0  0
    8.1808   -3.5631    3.7056 C   0  0  0  0  0  0  0  0  0  0  0  0
    8.5665   -4.8155    2.9319 C   0  0  2  0  0  0  0  0  0  0  0  0
    7.3498   -5.6371    2.5202 C   0  0  0  0  0  0  0  0  0  0  0  0
    6.2732   -4.8192    1.8363 C   0  0  0  0  0  0  0  0  0  0  0  0
    5.8461   -3.5647    2.6471 C   0  0  1  0  0  0  0  0  0  0  0  0
    5.0662   -3.9919    3.9204 C   0  0  0  0  0  0  0  0  0  0  0  0
    4.9695   -2.6919    1.7108 C   0  0  1  0  0  0  0  0  0  0  0  0
    3.6146   -3.3469    1.3407 C   0  0  0  0  0  0  0  0  0  0  0  0
    2.7579   -2.4747    0.4253 C   0  0  0  0  0  0  0  0  0  0  0  0
    2.5835   -1.0807    1.0250 C   0  0  2  0  0  0  0  0  0  0  0  0
    1.7402   -1.1587    2.3278 C   0  0  0  0  0  0  0  0  0  0  0  0
    9.5094   -5.5806    3.6834 O   0  0  0  0  0  0  0  0  0  0  0  0
    9.1377   -6.3148    5.0953 S   0  0  0  0  0  0  0  0  0  0  0  0
    8.7447   -5.1017    6.0814 O   0  0  0  0  0  0  0  0  0  0  0  0
    7.9562   -7.1399    4.9317 O   0  0  0  0  0  0  0  0  0  0  0  0
   10.3539   -6.8632    5.6294 O   0  0  0  0  0  0  0  0  0  0  0  0
    0.4489    0.0009   -0.0311 C   0  0  2  0  0  0  0  0  0  0  0  0
   -0.0160   -0.7013   -1.3107 C   0  0  0  0  0  0  0  0  0  0  0  0
   -0.2855    1.3505    0.1132 C   0  0  0  0  0  0  0  0  0  0  0  0
   -0.3213    1.9754    1.5378 C   0  0  0  0  0  0  0  0  0  0  0  0
    0.7187    3.0365    1.9896 C   0  0  0  0  0  0  0  0  0  0  0  0
    0.9625    4.1687    0.9571 C   0  0  0  0  0  0  0  0  0  0  0  0
   -0.3215    4.9797    0.8943 C   0  0  0  0  0  0  0  0  0  0  0  0
    2.1654    5.0126    1.3514 C   0  0  0  0  0  0  0  0  0  0  0  0
    1.2688    3.6966   -0.3536 O   0  0  0  0  0  0  0  0  0  0  0  0
  1  2  1  1
  1 18  1  0
  1 25  1  0
  2  3  1  0
  4  3  1  1
  4  5  1  0
  5  6  1  6
  5 15  1  0
  6  7  1  0
  7  8  2  0
  8  9  1  0
 10  9  1  0
 10 11  1  0
 10 20  1  1
 11 12  1  0
 13 12  1  0
 13  8  1  0
 13 14  1  1
 15 13  1  0
 15 16  1  1
 16 17  1  0
 18 17  1  0
 18  4  1  0
 18 19  1  1
 20 21  1  0
 21 22  1  0
 21 23  2  0
 21 24  2  0
 25 27  1  0
 25 26  1  6
 27 28  1  0
 28 29  1  0
 29 30  1  0
 30 31  1  0
 30 32  1  0
 30 33  1  0
M  END
>  <DRUGBANK_ID>  (1) 
DB18079

>  <COMMON_NAME>  (1) 
Larsucosterol

>  <CAS_NUMBER>  (1) 
884905-07-1

>  <UNII>  (1) 
UGX2V7MGMZ

>  <SYNONYMS>  (1) 
25-hydroxycholest-5-en-3.beta.-yl hydrogen sulfate; 5-cholesten-3.beta.-25-diol-3-sulfate; 5-cholesten-3.beta., 25-diol 3-sulfate; Cholest-5-ene-3,25-diol, 3-(hydrogen sulfate), (3.beta.)-

$$$$
