
     RDKit          3D

 12 12  0  0  0  0  0  0  0  0999 V2000
    0.1670   -1.2500    0.0142 C   0  0  0  0  0  0  0  0  0  0  0  0
    0.8769   -0.0369    0.0107 C   0  0  0  0  0  0  0  0  0  0  0  0
   -1.2299   -1.1928   -0.0020 C   0  0  0  0  0  0  0  0  0  0  0  0
    0.8895   -2.5588    0.0405 C   0  0  0  0  0  0  0  0  0  0  0  0
    0.2009    1.1903    0.0105 C   0  0  0  0  0  0  0  0  0  0  0  0
    2.2473    0.0315    0.0043 O   0  0  0  0  0  0  0  0  0  0  0  0
   -1.9019    0.0311   -0.0129 C   0  0  0  0  0  0  0  0  0  0  0  0
    0.1364   -3.8699    0.0636 C   0  0  0  0  0  0  0  0  0  0  0  0
    2.1250   -2.5501    0.0467 O   0  0  0  0  0  0  0  0  0  0  0  0
   -1.1959    1.2298   -0.0013 C   0  0  0  0  0  0  0  0  0  0  0  0
   -1.7731    2.4711   -0.0020 O   0  0  0  0  0  0  0  0  0  0  0  0
   -3.1999    2.5028   -0.0177 C   0  0  0  0  0  0  0  0  0  0  0  0
  1  2  2  0
  1  3  1  0
  1  4  1  0
  2  5  1  0
  2  6  1  0
  3  7  2  0
  4  8  1  0
  4  9  2  0
  5 10  2  0
  7 10  1  0
 10 11  1  0
 11 12  1  0
M  END
>  <DRUGBANK_ID>  (1) 
DB16830

>  <COMMON_NAME>  (1) 
Paeonol

>  <CAS_NUMBER>  (1) 
552-41-0

>  <UNII>  (1) 
3R834EPI82

>  <SYNONYMS>  (1) 
Peonol

$$$$
