243
     RDKit          3D

 31 33  0  0  1  0  0  0  0  0999 V2000
    0.8606   -0.7021   -1.2476 O   0  0  0  0  0  0  0  0  0  0  0  0
    0.4396   -2.9022    1.1212 O   0  0  0  0  0  0  0  0  0  0  0  0
    6.0575    0.4370   -2.7608 O   0  0  0  0  0  0  0  0  0  0  0  0
   -0.6191    0.2571    1.1797 O   0  0  0  0  0  0  0  0  0  0  0  0
    2.6277   -0.7910   -2.8821 N   0  0  0  0  0  0  0  0  0  0  0  0
    3.6940    2.5072   -1.5806 N   0  0  0  0  0  0  0  0  0  0  0  0
    5.4255   -0.3982   -0.6378 N   0  0  0  0  0  0  0  0  0  0  0  0
    3.2973   -0.4138   -1.5481 C   0  0  0  0  0  0  0  0  0  0  0  0
    3.0286    0.4378   -3.6561 C   0  0  0  0  0  0  0  0  0  0  0  0
    3.5884    1.5117   -0.5607 C   0  0  0  0  0  0  0  0  0  0  0  0
    2.9139    2.1093   -3.0695 C   0  0  0  0  0  0  0  0  0  0  0  0
    1.1194   -1.2548   -2.9589 C   0  0  0  0  0  0  0  0  0  0  0  0
    5.1064    2.1550   -1.3835 C   0  0  0  0  0  0  0  0  0  0  0  0
    0.4041   -1.8525   -1.6902 C   0  0  0  0  0  0  0  0  0  0  0  0
    0.9099   -2.8920   -0.5201 C   0  0  0  0  0  0  0  0  0  0  0  0
    5.5915    0.6827   -1.6415 C   0  0  0  0  0  0  0  0  0  0  0  0
    4.2782   -0.5660    0.4616 C   0  0  0  0  0  0  0  0  0  0  0  0
    0.3381   -1.8902    2.2109 C   0  0  0  0  0  0  0  0  0  0  0  0
    2.6942   -0.0031    0.4596 C   0  0  0  0  0  0  0  0  0  0  0  0
    4.5360   -1.5251    1.4005 C   0  0  0  0  0  0  0  0  0  0  0  0
    2.3562    0.3494    1.6308 C   0  0  0  0  0  0  0  0  0  0  0  0
    3.7403   -1.4938    2.4900 C   0  0  0  0  0  0  0  0  0  0  0  0
   -0.1084   -0.4579    2.2113 C   0  0  0  0  0  0  0  0  0  0  0  0
    1.7058    1.0195   -0.9896 C   0  0  0  0  0  0  0  0  0  0  0  0
    5.6171   -2.5036    1.3113 C   0  0  0  0  0  0  0  0  0  0  0  0
    0.7426   -2.2278    3.4769 C   0  0  0  0  0  0  0  0  0  0  0  0
    2.8980   -0.4159    2.6324 C   0  0  0  0  0  0  0  0  0  0  0  0
    0.1005    0.5702    3.1688 C   0  0  0  0  0  0  0  0  0  0  0  0
    0.7114   -1.2276    4.5528 C   0  0  0  0  0  0  0  0  0  0  0  0
    0.5349    0.1761    4.3784 C   0  0  0  0  0  0  0  0  0  0  0  0
   -0.6259   -0.6967    0.2525 C   0  0  0  0  0  0  0  0  0  0  0  0
  1 14  1  0
  2 15  1  0
  2 18  1  0
  3 16  2  0
  4 23  1  0
  4 31  1  0
  5  8  1  0
  5  9  1  0
  5 12  1  0
  6 10  1  0
  6 11  1  0
  6 13  1  0
  7 16  1  0
  7 17  1  0
  8 10  1  0
  9 11  1  0
 12 14  1  0
 13 16  1  0
 14 15  1  0
 17 19  2  0
 17 20  1  0
 18 23  2  0
 18 26  1  0
 19 21  1  0
 19 24  1  0
 20 22  2  0
 20 25  1  0
 21 27  2  0
 22 27  1  0
 23 28  1  0
 26 29  2  0
 28 30  2  0
 29 30  1  0
M  END
>  <DRUGBANK_ID>  (1) 
DB00243

>  <SECONDARY_ACCESSION_NUMBERS>  (1) 
APRD01300

>  <COMMON_NAME>  (1) 
Ranolazine

>  <CAS_NUMBER>  (1) 
95635-55-5

>  <UNII>  (1) 
A6IEZ5M406

>  <SYNONYMS>  (1) 
Ranolazina; Ranolazine

$$$$
