
     RDKit          3D

 31 33  0  0  1  0  0  0  0  0999 V2000
    0.1150   -0.7076    0.0073 C   0  0  0  0  0  0  0  0  0  0  0  0
    1.3930   -1.1634    0.1147 N   0  0  0  0  0  0  0  0  0  0  0  0
    0.2136    0.6716   -0.0019 C   0  0  0  0  0  0  0  0  0  0  0  0
   -0.9977   -1.4687   -0.0110 N   0  0  0  0  0  0  0  0  0  0  0  0
    1.8090   -2.5585    0.1053 C   0  0  2  0  0  0  0  0  0  0  0  0
    2.1773   -0.0448    0.2252 C   0  0  0  0  0  0  0  0  0  0  0  0
    1.5118    1.0807    0.0945 N   0  0  0  0  0  0  0  0  0  0  0  0
   -1.0082    1.4226   -0.0181 C   0  0  0  0  0  0  0  0  0  0  0  0
   -2.0957   -0.7637   -0.0093 C   0  0  0  0  0  0  0  0  0  0  0  0
    2.7324   -2.8174    1.1934 O   0  0  0  0  0  0  0  0  0  0  0  0
    2.5118   -2.9598   -1.1582 C   0  0  0  0  0  0  0  0  0  0  0  0
   -2.1265    0.6198   -0.0169 N   0  0  0  0  0  0  0  0  0  0  0  0
   -1.0949    2.6693   -0.0004 O   0  0  0  0  0  0  0  0  0  0  0  0
   -3.2872   -1.3905    0.0030 N   0  0  0  0  0  0  0  0  0  0  0  0
    3.8678   -3.5991    0.7172 C   0  0  1  0  0  0  0  0  0  0  0  0
    3.4643   -4.0400   -0.7037 C   0  0  1  0  0  0  0  0  0  0  0  0
    5.0972   -2.6839    0.8601 C   0  0  0  0  0  0  0  0  0  0  0  0
    2.8301   -5.3125   -0.6821 O   0  0  0  0  0  0  0  0  0  0  0  0
    4.9501   -1.6275   -0.0759 O   0  0  0  0  0  0  0  0  0  0  0  0
    5.3515   -1.8459   -1.6282 P   0  0  1  0  0  0  0  0  0  0  0  0
    6.4388   -0.7757   -1.6421 O   0  0  0  0  0  0  0  0  0  0  0  0
    6.2849   -3.1356   -1.6290 O   0  0  0  0  0  0  0  0  0  0  0  0
    4.3959   -1.7149   -2.7578 O   0  0  0  0  0  0  0  0  0  0  0  0
    6.2841    0.9465   -1.6974 P   0  0  2  0  0  0  0  0  0  0  0  0
    6.4833    0.7821   -3.2960 O   0  0  0  0  0  0  0  0  0  0  0  0
    4.6867    0.7388   -1.5449 O   0  0  0  0  0  0  0  0  0  0  0  0
    6.1456    2.4878   -1.7469 O   0  0  0  0  0  0  0  0  0  0  0  0
    7.8650    0.9698   -4.0557 P   0  0  0  0  0  0  0  0  0  0  0  0
    7.9011   -0.3914   -4.8914 O   0  0  0  0  0  0  0  0  0  0  0  0
    7.4775    2.0599   -5.1525 O   0  0  0  0  0  0  0  0  0  0  0  0
    9.1063    1.1967   -3.2653 O   0  0  0  0  0  0  0  0  0  0  0  0
  1  2  1  0
  1  3  2  0
  1  4  1  0
  2  6  1  0
  3  7  1  0
  3  8  1  0
  4  9  2  0
  5  2  1  6
  5 10  1  0
  5 11  1  0
  6  7  2  0
  8 12  1  0
  8 13  2  0
  9 14  1  0
  9 12  1  0
 10 15  1  0
 11 16  1  0
 15 16  1  0
 15 17  1  6
 16 18  1  1
 17 19  1  0
 19 20  1  0
 20 21  1  0
 20 22  1  1
 20 23  2  0
 21 24  1  0
 24 25  1  0
 24 26  1  6
 24 27  2  0
 25 28  1  0
 28 29  1  0
 28 30  1  0
 28 31  2  0
M  END
>  <DRUGBANK_ID>  (1) 
DB02181

>  <SECONDARY_ACCESSION_NUMBERS>  (1) 
EXPT01184

>  <COMMON_NAME>  (1) 
2'-Deoxyguanosine-5'-Triphosphate

>  <CAS_NUMBER>  (1) 
2564-35-4

>  <UNII>  (1) 
8C2O37Y44Q

$$$$
