CLT
     RDKit          3D

 12 12  0  0  0  0  0  0  0  0999 V2000
    1.1309   -0.0709    0.0632 C   0  0  0  0  0  0  0  0  0  0  0  0
    0.5068    1.0278    0.9606 C   0  0  0  0  0  0  0  0  0  0  0  0
    0.8314    2.4814    0.5698 C   0  0  0  0  0  0  0  0  0  0  0  0
    0.1231    2.9506   -0.6862 C   0  0  0  0  0  0  0  0  0  0  0  0
   -0.7897    2.1263   -1.3588 C   0  0  0  0  0  0  0  0  0  0  0  0
    0.4239    4.1787   -1.2709 C   0  0  0  0  0  0  0  0  0  0  0  0
   -1.0672    2.3108   -2.7062 C   0  0  0  0  0  0  0  0  0  0  0  0
   -0.0972    4.4894   -2.5326 C   0  0  0  0  0  0  0  0  0  0  0  0
   -0.7323    3.5106   -3.2966 C   0  0  0  0  0  0  0  0  0  0  0  0
    0.9152   -0.0501   -1.4356 C   0  0  0  0  0  0  0  0  0  0  0  0
    0.0391   -0.6649   -2.0433 O   0  0  0  0  0  0  0  0  0  0  0  0
    1.7117    0.8429   -2.0573 O   0  0  0  0  0  0  0  0  0  0  0  0
  1  2  1  0
  1 10  1  0
  2  3  1  0
  3  4  1  0
  4  5  2  0
  4  6  1  0
  5  7  1  0
  6  8  2  0
  7  9  2  0
  8  9  1  0
 10 11  2  0
 10 12  1  0
M  END
>  <DRUGBANK_ID>  (1) 
DB06819

>  <SECONDARY_ACCESSION_NUMBERS>  (1) 
EXPT00947; DB02000; DB12600

>  <COMMON_NAME>  (1) 
Phenylbutyric acid

>  <CAS_NUMBER>  (1) 
1821-12-1

>  <UNII>  (1) 
7WY7YBI87E

>  <SYNONYMS>  (1) 
4-Phenyl-n-butyric acid; 4-phenylbutyrate; 4-phenylbutyric acid; Benzenebutyric acid; PBA; Phenylbutyrate; γ-Phenyl-n-butyric acid; γ-phenylbutyric acid; ω-Phenylbutanoic acid; ω-phenylbutyric acid

$$$$
