ILB
     RDKit          3D

 30 32  0  0  0  0  0  0  0  0999 V2000
    1.4115   -0.2179   -0.0049 C   0  0  0  0  0  0  0  0  0  0  0  0
    0.5521   -1.3137    0.0008 C   0  0  0  0  0  0  0  0  0  0  0  0
   -0.8320   -1.1381    0.0029 C   0  0  0  0  0  0  0  0  0  0  0  0
    0.8951    1.0687    0.0275 C   0  0  0  0  0  0  0  0  0  0  0  0
   -1.8292    2.8988    1.4884 C   0  0  0  0  0  0  0  0  0  0  0  0
   -2.4791    4.1367    1.5727 C   0  0  0  0  0  0  0  0  0  0  0  0
   -2.3530    5.0987    0.5575 C   0  0  0  0  0  0  0  0  0  0  0  0
   -1.5012    4.7754   -0.5034 C   0  0  0  0  0  0  0  0  0  0  0  0
   -0.8060    3.5849   -0.5643 C   0  0  0  0  0  0  0  0  0  0  0  0
   -2.9413    7.3918   -0.2266 C   0  0  0  0  0  0  0  0  0  0  0  0
   -3.5629    9.3075    1.2750 C   0  0  0  0  0  0  0  0  0  0  0  0
   -4.3118   10.6074    1.1400 C   0  0  0  0  0  0  0  0  0  0  0  0
   -4.5780   10.7511   -0.3626 C   0  0  0  0  0  0  0  0  0  0  0  0
   -4.3045    9.3875   -0.9805 C   0  0  0  0  0  0  0  0  0  0  0  0
   -1.2509   -3.4632    0.0853 C   0  0  0  0  0  0  0  0  0  0  0  0
   -1.3446    0.1578    0.0466 C   0  0  0  0  0  0  0  0  0  0  0  0
   -0.4844    1.2643    0.1484 C   0  0  0  0  0  0  0  0  0  0  0  0
   -1.0291    2.5957    0.3764 C   0  0  0  0  0  0  0  0  0  0  0  0
   -3.2562    4.3748    2.6422 F   0  0  0  0  0  0  0  0  0  0  0  0
   -3.0581    6.3382    0.6597 N   0  0  0  0  0  0  0  0  0  0  0  0
   -1.3403    5.5354   -1.5841 F   0  0  0  0  0  0  0  0  0  0  0  0
   -3.6401    8.6238    0.1271 C   0  0  0  0  0  0  0  0  0  0  0  0
   -2.2585    7.4672   -1.2424 O   0  0  0  0  0  0  0  0  0  0  0  0
   -2.8577    9.0078    2.5357 C   0  0  0  0  0  0  0  0  0  0  0  0
   -2.1059    7.8955    2.5881 O   0  0  0  0  0  0  0  0  0  0  0  0
   -2.9783    9.7277    3.5192 O   0  0  0  0  0  0  0  0  0  0  0  0
   -1.7619   -2.1406    0.0053 O   0  0  0  0  0  0  0  0  0  0  0  0
   -0.5091   -3.7573   -1.0048 F   0  0  0  0  0  0  0  0  0  0  0  0
   -0.5022   -3.6308    1.1984 F   0  0  0  0  0  0  0  0  0  0  0  0
   -2.2797   -4.3355    0.1408 F   0  0  0  0  0  0  0  0  0  0  0  0
  1  2  2  0
  1  4  1  0
  2  3  1  0
  3 16  2  0
  3 27  1  0
  4 17  2  0
  5  6  2  0
  5 18  1  0
  6  7  1  0
  6 19  1  0
  7  8  2  0
  7 20  1  0
  8  9  1  0
  8 21  1  0
  9 18  2  0
 10 20  1  0
 10 22  1  0
 10 23  2  0
 11 12  1  0
 11 22  2  0
 11 24  1  0
 12 13  1  0
 13 14  1  0
 14 22  1  0
 15 27  1  0
 15 28  1  0
 15 29  1  0
 15 30  1  0
 16 17  1  0
 17 18  1  0
 24 25  1  0
 24 26  2  0
M  END
>  <DRUGBANK_ID>  (1) 
DB07975

>  <COMMON_NAME>  (1) 
2-({[3,5-DIFLUORO-3'-(TRIFLUOROMETHOXY)BIPHENYL-4-YL]AMINO}CARBONYL)CYCLOPENT-1-ENE-1-CARBOXYLIC ACID

$$$$
