
     RDKit          3D

 21 23  0  0  0  0  0  0  0  0999 V2000
   -0.7389   -0.9323   -0.2261 O   0  0  0  0  0  0  0  0  0  0  0  0
    1.8329    0.8194    1.3434 O   0  0  0  0  0  0  0  0  0  0  0  0
   -0.0114    2.5341    0.4856 O   0  0  0  0  0  0  0  0  0  0  0  0
   -3.5334   -0.0193    0.0915 O   0  0  0  0  0  0  0  0  0  0  0  0
    1.4311   -1.6282   -2.4326 N   0  0  0  0  0  0  0  0  0  0  0  0
    0.9512   -0.5789   -3.1386 N   0  0  0  0  0  0  0  0  0  0  0  0
    1.1181   -2.2016    2.3751 N   0  0  0  0  0  0  0  0  0  0  0  0
    1.8608   -1.6435   -5.1041 N   0  0  0  0  0  0  0  0  0  0  0  0
    3.0175   -3.6424   -5.0613 N   0  0  0  0  0  0  0  0  0  0  0  0
    0.6975   -1.0253    0.0159 C   0  0  2  0  0  0  0  0  0  0  0  0
    1.2393    0.4317    0.0891 C   0  0  1  0  0  0  0  0  0  0  0  0
    0.0047    1.2865   -0.1923 C   0  0  1  0  0  0  0  0  0  0  0  0
   -1.1402    0.3830    0.2282 C   0  0  1  0  0  0  0  0  0  0  0  0
    1.3480   -1.8800   -1.0645 C   0  0  0  0  0  0  0  0  0  0  0  0
   -2.4800    0.8294   -0.3601 C   0  0  0  0  0  0  0  0  0  0  0  0
    2.0604   -3.0610   -0.8487 C   0  0  0  0  0  0  0  0  0  0  0  0
    0.9094   -1.7006    1.3404 C   0  0  0  0  0  0  0  0  0  0  0  0
    2.1336   -2.6467   -3.0225 C   0  0  0  0  0  0  0  0  0  0  0  0
    2.5354   -3.5454   -2.0704 C   0  0  0  0  0  0  0  0  0  0  0  0
    2.3409   -2.6398   -4.4321 C   0  0  0  0  0  0  0  0  0  0  0  0
    1.1891   -0.6519   -4.4215 C   0  0  0  0  0  0  0  0  0  0  0  0
  1 10  1  0
  1 13  1  0
  4 15  1  0
  5  6  1  0
  5 14  1  0
  5 18  1  0
  6 21  2  0
  7 17  3  0
  8 20  2  0
  8 21  1  0
  9 20  1  0
 10 11  1  0
 10 17  1  1
 10 14  1  0
 11  2  1  1
 11 12  1  0
 12  3  1  1
 12 13  1  0
 13 15  1  6
 14 16  2  0
 16 19  1  0
 18 19  2  0
 18 20  1  0
M  END
>  <DRUGBANK_ID>  (1) 
DB15686

>  <COMMON_NAME>  (1) 
GS-441524

>  <CAS_NUMBER>  (1) 
1191237-69-0

>  <UNII>  (1) 
1BQK176DT6

$$$$
