NP4
     RDKit          3D

 22 23  0  0  0  0  0  0  0  0999 V2000
   -1.9613    0.6594    4.0258 C   0  0  0  0  0  0  0  0  0  0  0  0
   -2.9267    2.1172    5.0945 C   0  0  0  0  0  0  0  0  0  0  0  0
   -0.6418   -0.4849    3.4264 O   0  0  0  0  0  0  0  0  0  0  0  0
   -3.2873    3.5191    6.3998 C   0  0  0  0  0  0  0  0  0  0  0  0
   -3.8349    5.2039    6.3935 C   0  0  0  0  0  0  0  0  0  0  0  0
   -4.0292    5.6462    5.1786 C   0  0  0  0  0  0  0  0  0  0  0  0
   -4.4090    4.4995    4.4897 C   0  0  0  0  0  0  0  0  0  0  0  0
   -4.2284    2.9304    4.8851 C   0  0  0  0  0  0  0  0  0  0  0  0
   -5.6250    2.2535    4.9335 C   0  0  0  0  0  0  0  0  0  0  0  0
   -5.0033    1.4671    3.9098 C   0  0  0  0  0  0  0  0  0  0  0  0
   -4.3296    0.2301    4.4269 C   0  0  0  0  0  0  0  0  0  0  0  0
   -4.3976   -0.5343    3.1540 C   0  0  0  0  0  0  0  0  0  0  0  0
   -3.7532    0.2863    1.6162 C   0  0  0  0  0  0  0  0  0  0  0  0
   -2.2358    0.8935    1.4710 C   0  0  0  0  0  0  0  0  0  0  0  0
   -1.1689    0.2343    0.9388 C   0  0  0  0  0  0  0  0  0  0  0  0
    0.2821    0.0754    1.5326 C   0  0  0  0  0  0  0  0  0  0  0  0
    0.4671   -1.2758    2.1155 C   0  0  0  0  0  0  0  0  0  0  0  0
   -2.3373   -0.6173    3.5266 O   0  0  0  0  0  0  0  0  0  0  0  0
   -4.8680    3.7894    7.3412 O   0  0  0  0  0  0  0  0  0  0  0  0
   -3.1378    6.5464    4.6340 O   0  0  0  0  0  0  0  0  0  0  0  0
   -3.6120    4.5630    2.9426 Cl  0  0  0  0  0  0  0  0  0  0  0  0
   -4.6587    2.1179    2.9121 O   0  0  0  0  0  0  0  0  0  0  0  0
  1  2  1  0
  1  3  1  0
  1 18  2  0
  2  4  2  0
  2  8  1  0
  3 17  1  0
  4  5  1  0
  4 19  1  0
  5  6  2  0
  6  7  1  0
  6 20  1  0
  7  8  2  0
  7 21  1  0
  8  9  1  0
  9 10  1  0
 10 11  1  0
 10 22  2  0
 11 12  1  0
 12 13  1  0
 13 14  1  0
 14 15  2  0
 15 16  1  0
 16 17  1  0
M  END
>  <DRUGBANK_ID>  (1) 
DB08292

>  <COMMON_NAME>  (1) 
(5Z)-12-CHLORO-13,15-DIHYDROXY-4,7,8,9-TETRAHYDRO-2-BENZOXACYCLOTRIDECINE-1,10(3H,11H)-DIONE

$$$$
