995
     RDKit          3D

 30 30  0  0  0  0  0  0  0  0999 V2000
    1.7271   -5.4179   -3.4933 C   0  0  0  0  0  0  0  0  0  0  0  0
    0.4251   -5.9925   -2.9370 C   0  0  2  0  0  0  0  0  0  0  0  0
    2.3141   -4.2431   -2.9129 C   0  0  0  0  0  0  0  0  0  0  0  0
    2.3516   -6.0545   -4.3652 O   0  0  0  0  0  0  0  0  0  0  0  0
    3.2260   -4.4577   -1.4863 S   0  0  0  0  0  0  0  0  0  0  0  0
    3.7654   -2.8454   -1.6199 C   0  0  0  0  0  0  0  0  0  0  0  0
    3.2503   -2.2633   -2.7601 C   0  0  0  0  0  0  0  0  0  0  0  0
    2.4460   -3.0873   -3.5401 N   0  0  0  0  0  0  0  0  0  0  0  0
   -0.4646   -6.7379   -3.9519 C   0  0  0  0  0  0  0  0  0  0  0  0
   -0.9740   -5.9132   -5.1447 C   0  0  0  0  0  0  0  0  0  0  0  0
   -0.3598   -5.0826   -2.1156 N   0  0  0  0  0  0  0  0  0  0  0  0
   -0.3903   -5.2728   -0.7478 C   0  0  0  0  0  0  0  0  0  0  0  0
   -1.2429   -4.2860    0.0604 C   0  0  2  0  0  0  0  0  0  0  0  0
   -0.3486   -3.2427    0.7579 C   0  0  0  0  0  0  0  0  0  0  0  0
   -1.1966   -2.1236    1.3703 C   0  0  0  0  0  0  0  0  0  0  0  0
    0.5219   -3.8728    1.8512 C   0  0  0  0  0  0  0  0  0  0  0  0
   -2.0323   -5.0367    1.0323 N   0  0  0  0  0  0  0  0  0  0  0  0
   -3.3959   -5.0630    0.9577 C   0  0  0  0  0  0  0  0  0  0  0  0
   -4.1057   -5.8064    2.0783 C   0  0  0  0  0  0  0  0  0  0  0  0
   -5.0360   -4.8879    2.8827 C   0  0  0  0  0  0  0  0  0  0  0  0
   -6.1090   -4.1889    2.0260 C   0  0  0  0  0  0  0  0  0  0  0  0
   -6.9918   -5.2049    1.3012 C   0  0  0  0  0  0  0  0  0  0  0  0
   -6.9630   -3.2456    2.8637 C   0  0  0  0  0  0  0  0  0  0  0  0
   -3.9877   -4.5086    0.0354 O   0  0  0  0  0  0  0  0  0  0  0  0
    0.2684   -6.1648   -0.2133 O   0  0  0  0  0  0  0  0  0  0  0  0
    0.1083   -5.3577   -6.0777 C   0  0  0  0  0  0  0  0  0  0  0  0
    1.1156   -6.3653   -6.4662 N   0  0  0  0  0  0  0  0  0  0  0  0
    2.2232   -6.0107   -7.3073 C   0  0  0  0  0  0  0  0  0  0  0  0
    3.0768   -5.0872   -6.6589 N   0  0  0  0  0  0  0  0  0  0  0  0
    3.0334   -7.1426   -7.5958 N   0  0  0  0  0  0  0  0  0  0  0  0
  1  3  1  0
  1  4  2  0
  2 11  1  0
  2  9  1  6
  2  1  1  0
  3  5  1  0
  3  8  2  0
  5  6  1  0
  6  7  2  0
  7  8  1  0
  9 10  1  0
 10 26  1  0
 11 12  1  0
 12 25  2  0
 13 17  1  1
 13 14  1  0
 13 12  1  0
 14 15  1  0
 14 16  1  0
 17 18  1  0
 18 19  1  0
 18 24  2  0
 19 20  1  0
 20 21  1  0
 21 22  1  0
 21 23  1  0
 26 27  1  0
 27 28  1  0
 28 29  1  0
 28 30  1  0
M  END
>  <DRUGBANK_ID>  (1) 
DB07299

>  <COMMON_NAME>  (1) 
4-METHYL-PENTANOIC ACID {1-[4-GUANIDINO-1-(THIAZOLE-2-CARBONYL)-BUTYLCARBAMOYL]-2-METHYL-PROPYL}-AMIDE

$$$$
