
     RDKit          3D

 23 25  0  0  0  0  0  0  0  0999 V2000
    0.9424   -0.0537   -0.0617 P   0  0  0  0  0  0  0  0  0  0  0  0
   -0.7323    3.7070    1.7226 O   0  0  0  0  0  0  0  0  0  0  0  0
   -3.6667    3.3664   -0.4507 O   0  0  0  0  0  0  0  0  0  0  0  0
   -2.5425    1.2644    0.9149 O   0  0  0  0  0  0  0  0  0  0  0  0
    0.8515    1.4361   -0.7605 O   0  0  0  0  0  0  0  0  0  0  0  0
    0.8500   -1.0820   -1.3129 O   0  0  0  0  0  0  0  0  0  0  0  0
   -0.7876   -0.0537   -0.0617 O   0  0  0  0  0  0  0  0  0  0  0  0
    2.4908   -0.0537   -0.0617 O   0  0  0  0  0  0  0  0  0  0  0  0
   -3.0114    3.8866    2.3927 N   0  0  0  0  0  0  0  0  0  0  0  0
   -4.7610    3.1143    3.5547 N   0  0  0  0  0  0  0  0  0  0  0  0
   -4.3188    4.2748    5.5898 N   0  0  0  0  0  0  0  0  0  0  0  0
   -2.3301    5.6053    5.5568 N   0  0  0  0  0  0  0  0  0  0  0  0
   -3.6669    5.4665    7.4324 N   0  0  0  0  0  0  0  0  0  0  0  0
   -2.3234    3.4964   -0.0269 C   0  0  2  0  0  0  0  0  0  0  0  0
   -1.6758    2.1701    0.1892 C   0  0  1  0  0  0  0  0  0  0  0  0
   -2.0658    4.1597    1.3125 C   0  0  2  0  0  0  0  0  0  0  0  0
   -0.4321    2.4821    1.0240 C   0  0  1  0  0  0  0  0  0  0  0  0
    0.8480    2.5256    0.1709 C   0  0  0  0  0  0  0  0  0  0  0  0
   -2.9256    4.4320    3.6434 C   0  0  0  0  0  0  0  0  0  0  0  0
   -4.1469    3.1121    2.3981 C   0  0  0  0  0  0  0  0  0  0  0  0
   -4.0296    3.9571    4.3284 C   0  0  0  0  0  0  0  0  0  0  0  0
   -2.0486    5.2724    4.2838 C   0  0  0  0  0  0  0  0  0  0  0  0
   -3.4360    5.1044    6.1441 C   0  0  0  0  0  0  0  0  0  0  0  0
  1  5  1  0
  1  6  1  0
  1  7  1  0
  1  8  2  0
  2 16  1  0
  2 17  1  0
  5 18  1  0
  9 19  1  0
  9 20  1  0
 10 20  2  0
 10 21  1  0
 11 21  2  0
 11 23  1  0
 12 22  1  0
 12 23  2  0
 13 23  1  0
 14  3  1  1
 14 15  1  0
 14 16  1  0
 15  4  1  1
 15 17  1  0
 16  9  1  1
 17 18  1  6
 19 21  1  0
 19 22  2  0
M  END
>  <DRUGBANK_ID>  (1) 
DB02770

>  <SECONDARY_ACCESSION_NUMBERS>  (1) 
EXPT00315

>  <COMMON_NAME>  (1) 
7-alpha-D-Ribofuranosyl-2-aminopurine-5'-phosphate

$$$$
