
     RDKit          3D

 10 11  0  0  0  0  0  0  0  0999 V2000
   -2.9720    0.0541    0.7863 O   0  0  0  0  0  0  0  0  0  0  0  0
   -1.8909    0.0380    0.2256 C   0  0  0  0  0  0  0  0  0  0  0  0
   -1.0702    1.1305    0.0195 N   0  0  0  0  0  0  0  0  0  0  0  0
    1.2932    1.0941   -0.2752 N   0  0  0  0  0  0  0  0  0  0  0  0
    1.8880   -0.0426    0.2320 C   0  0  0  0  0  0  0  0  0  0  0  0
    2.9711   -0.0851    0.7870 O   0  0  0  0  0  0  0  0  0  0  0  0
    1.0617   -1.1225   -0.0107 N   0  0  0  0  0  0  0  0  0  0  0  0
   -1.2948   -1.0762   -0.3270 N   0  0  0  0  0  0  0  0  0  0  0  0
    0.0229    0.7923   -0.8381 C   0  0  1  0  0  0  0  0  0  0  0  0
   -0.0211   -0.7517   -0.8668 C   0  0  1  0  0  0  0  0  0  0  0  0
  1  2  2  0
  2  3  1  0
  2  8  1  0
  9  3  1  1
  4  5  1  0
  5  6  2  0
  5  7  1  0
 10  7  1  1
  9  4  1  0
  9 10  1  0
 10  8  1  0
M  END
>  <DRUGBANK_ID>  (1) 
DB03533

>  <SECONDARY_ACCESSION_NUMBERS>  (1) 
EXPT01607

>  <COMMON_NAME>  (1) 
Acetyleneurea

>  <CAS_NUMBER>  (1) 
496-46-8

>  <UNII>  (1) 
U9H2W4OS13

>  <SYNONYMS>  (1) 
cis-glycoluril; Glycoluril; Glyoxaldiureine; Glyoxaldiurene

$$$$
