
     RDKit          3D

 20 20  0  0  1  0  0  0  0  0999 V2000
    0.9065    0.0544    0.2363 C   0  0  0  0  0  0  0  0  0  0  0  0
    0.4971    1.5307    0.0585 C   0  0  1  0  0  0  0  0  0  0  0  0
    1.0517    2.1647   -1.2668 C   0  0  0  0  0  0  0  0  0  0  0  0
    0.6587    1.4588   -2.5479 C   0  0  0  0  0  0  0  0  0  0  0  0
    0.0432    2.1401   -3.6038 C   0  0  0  0  0  0  0  0  0  0  0  0
   -0.2781    1.4520   -4.7715 C   0  0  0  0  0  0  0  0  0  0  0  0
   -0.0468    0.0770   -4.8378 C   0  0  0  0  0  0  0  0  0  0  0  0
   -0.2839   -0.6969   -5.9189 O   0  0  0  0  0  0  0  0  0  0  0  0
   -0.8699    0.0578   -7.3611 P   0  0  0  0  0  0  0  0  0  0  0  0
   -0.6793   -1.4247   -8.0341 O   0  0  0  0  0  0  0  0  0  0  0  0
   -2.3672   -0.2089   -6.7373 O   0  0  0  0  0  0  0  0  0  0  0  0
   -1.3944    0.7332   -8.6519 O   0  0  0  0  0  0  0  0  0  0  0  0
    0.5050   -0.6105   -3.7852 C   0  0  0  0  0  0  0  0  0  0  0  0
    0.6816   -1.9619   -3.7801 O   0  0  0  0  0  0  0  0  0  0  0  0
    0.9426    0.0971   -2.7034 C   0  0  0  0  0  0  0  0  0  0  0  0
   -1.0081    1.5225    0.0588 N   0  0  0  0  0  0  0  0  0  0  0  0
   -1.5358    2.8717   -0.0596 N   0  0  0  0  0  0  0  0  0  0  0  0
    1.0345    2.3697    1.2622 C   0  0  0  0  0  0  0  0  0  0  0  0
    1.8546    1.7415    2.1431 O   0  0  0  0  0  0  0  0  0  0  0  0
    0.7718    3.5511    1.4334 O   0  0  0  0  0  0  0  0  0  0  0  0
  2  1  1  1
  2  3  1  0
  2 16  1  0
  2 18  1  0
  3  4  1  0
  4  5  2  0
  4 15  1  0
  5  6  1  0
  6  7  2  0
  7  8  1  0
  7 13  1  0
  8  9  1  0
  9 10  1  0
  9 11  1  0
  9 12  2  0
 13 14  1  0
 13 15  2  0
 16 17  1  0
 18 19  1  0
 18 20  2  0
M  END
>  <DRUGBANK_ID>  (1) 
DB16171

>  <COMMON_NAME>  (1) 
Foscarbidopa

>  <CAS_NUMBER>  (1) 
1907685-81-7

>  <UNII>  (1) 
5NT8HCA4OO

>  <SYNONYMS>  (1) 
Foscarbidopa

$$$$
