FYX
     RDKit          3D

 19 21  0  0  0  0  0  0  0  0999 V2000
    0.7226    1.2261    0.0190 C   0  0  0  0  0  0  0  0  0  0  0  0
   -0.6610    1.1259    0.0009 C   0  0  0  0  0  0  0  0  0  0  0  0
   -1.3270   -0.0475   -0.0115 N   0  0  0  0  0  0  0  0  0  0  0  0
   -0.5793   -1.1697   -0.0046 C   0  0  0  0  0  0  0  0  0  0  0  0
    0.8087   -1.1725   -0.0099 C   0  0  0  0  0  0  0  0  0  0  0  0
    1.4809    0.0528    0.0104 C   0  0  0  0  0  0  0  0  0  0  0  0
    2.9407    0.1166    0.0463 C   0  0  0  0  0  0  0  0  0  0  0  0
    3.7076    0.6771    0.9641 N   0  0  0  0  0  0  0  0  0  0  0  0
    3.7553   -0.4004   -0.9253 N   0  0  0  0  0  0  0  0  0  0  0  0
    5.0552   -0.1624   -0.6688 N   0  0  0  0  0  0  0  0  0  0  0  0
    4.9931    0.4792    0.5071 C   0  0  0  0  0  0  0  0  0  0  0  0
    6.1649    0.9614    1.2294 C   0  0  0  0  0  0  0  0  0  0  0  0
    6.4372    0.5256    2.5298 C   0  0  0  0  0  0  0  0  0  0  0  0
    7.0316    1.8806    0.6339 C   0  0  0  0  0  0  0  0  0  0  0  0
    8.1179    2.3379    1.3636 C   0  0  0  0  0  0  0  0  0  0  0  0
    8.4075    1.9277    2.6168 N   0  0  0  0  0  0  0  0  0  0  0  0
    7.5649    1.0234    3.1753 C   0  0  0  0  0  0  0  0  0  0  0  0
    7.9053    0.5878    4.5036 C   0  0  0  0  0  0  0  0  0  0  0  0
    8.1488    0.2066    5.5770 N   0  0  0  0  0  0  0  0  0  0  0  0
  1  2  2  0
  1  6  1  0
  2  3  1  0
  3  4  2  0
  4  5  1  0
  5  6  2  0
  6  7  1  0
  7  8  2  0
  7  9  1  0
  8 11  1  0
  9 10  1  0
 10 11  2  0
 11 12  1  0
 12 13  2  0
 12 14  1  0
 13 17  1  0
 14 15  2  0
 15 16  1  0
 16 17  2  0
 17 18  1  0
 18 19  3  0
M  END
>  <DRUGBANK_ID>  (1) 
DB01685

>  <SECONDARY_ACCESSION_NUMBERS>  (1) 
EXPT01517

>  <COMMON_NAME>  (1) 
Topiroxostat

>  <CAS_NUMBER>  (1) 
577778-58-6

>  <UNII>  (1) 
0J877412JV

>  <SYNONYMS>  (1) 
4-(5-(pyridin-4-yl)-1H-1,2,4-triazol-3-yl)pyridine-2-carbonitrile; Topiroxostat

$$$$
