
     RDKit          3D

 30 33  0  0  0  0  0  0  0  0999 V2000
    2.4455    0.3671    0.0038 C   0  0  0  0  0  0  0  0  0  0  0  0
    0.9558    0.3990    0.0498 C   0  0  0  0  0  0  0  0  0  0  0  0
    0.0699    1.4796    0.0983 C   0  0  0  0  0  0  0  0  0  0  0  0
   -1.3547    1.3928    0.2220 N   0  0  0  0  0  0  0  0  0  0  0  0
   -1.8674    0.1493    0.1184 C   0  0  0  0  0  0  0  0  0  0  0  0
   -0.8906   -0.7677   -0.3311 C   0  0  0  0  0  0  0  0  0  0  0  0
    0.4280   -0.7834   -0.0950 N   0  0  0  0  0  0  0  0  0  0  0  0
   -1.1191   -1.6810   -1.3272 O   0  0  0  0  0  0  0  0  0  0  0  0
   -2.3837   -2.0664   -1.0727 C   0  0  0  0  0  0  0  0  0  0  0  0
   -3.3962   -0.1782    0.4960 N   0  0  0  0  0  0  0  0  0  0  0  0
   -4.2523   -2.1005    0.6776 S   0  0  0  0  0  0  0  0  0  0  0  0
   -5.0427   -2.1280    1.8423 O   0  0  0  0  0  0  0  0  0  0  0  0
   -4.9431   -2.2284   -0.6493 O   0  0  0  0  0  0  0  0  0  0  0  0
   -2.6315   -3.6695    0.8394 C   0  0  0  0  0  0  0  0  0  0  0  0
   -1.1538   -3.4318    0.7902 C   0  0  0  0  0  0  0  0  0  0  0  0
   -0.1126   -4.2411    0.2430 C   0  0  0  0  0  0  0  0  0  0  0  0
   -0.4966   -5.5072   -0.0053 C   0  0  0  0  0  0  0  0  0  0  0  0
   -1.8271   -5.8360   -0.0696 N   0  0  0  0  0  0  0  0  0  0  0  0
   -2.8530   -4.8860    0.2133 C   0  0  0  0  0  0  0  0  0  0  0  0
   -4.1930   -5.3112   -0.0862 C   0  0  0  0  0  0  0  0  0  0  0  0
   -4.9428   -4.9215   -1.2132 C   0  0  0  0  0  0  0  0  0  0  0  0
   -6.2886   -5.2664   -1.3092 C   0  0  0  0  0  0  0  0  0  0  0  0
   -6.8434   -6.0840   -0.3238 C   0  0  0  0  0  0  0  0  0  0  0  0
   -6.0667   -6.4999    0.7654 C   0  0  0  0  0  0  0  0  0  0  0  0
   -4.7877   -6.0302    0.9329 C   0  0  0  0  0  0  0  0  0  0  0  0
   -8.2432   -6.4198   -0.3128 C   0  0  0  0  0  0  0  0  0  0  0  0
   -9.1246   -6.2156    0.6428 N   0  0  0  0  0  0  0  0  0  0  0  0
  -10.3011   -6.7730    0.2062 N   0  0  0  0  0  0  0  0  0  0  0  0
  -10.0372   -7.2976   -0.9669 C   0  0  0  0  0  0  0  0  0  0  0  0
   -8.7513   -7.1099   -1.3787 O   0  0  0  0  0  0  0  0  0  0  0  0
  1  2  1  0
  2  3  2  0
  2  7  1  0
  3  4  1  0
  4  5  2  0
  5  6  1  0
  5 10  1  0
  6  7  2  0
  6  8  1  0
  8  9  1  0
 10 11  1  0
 11 12  2  0
 11 13  2  0
 11 14  1  0
 14 15  2  0
 14 19  1  0
 15 16  1  0
 16 17  2  0
 17 18  1  0
 18 19  2  0
 19 20  1  0
 20 21  2  0
 20 25  1  0
 21 22  1  0
 22 23  2  0
 23 24  1  0
 23 26  1  0
 24 25  2  0
 26 27  2  0
 26 30  1  0
 27 28  1  0
 28 29  2  0
 29 30  1  0
M  END
>  <DRUGBANK_ID>  (1) 
DB06629

>  <COMMON_NAME>  (1) 
Zibotentan

>  <CAS_NUMBER>  (1) 
186497-07-4

>  <UNII>  (1) 
8054MM4902

>  <SYNONYMS>  (1) 
Zibotentan

$$$$
