
     RDKit          3D

 11 11  0  0  1  0  0  0  0  0999 V2000
    0.9511    0.1751   -0.0901 C   0  0  0  0  0  0  0  0  0  0  0  0
    0.5339   -0.7032   -1.2733 C   0  0  2  0  0  0  0  0  0  0  0  0
    0.0772   -2.1150   -0.8640 C   0  0  2  0  0  0  0  0  0  0  0  0
    1.2710   -3.0148   -0.4838 C   0  0  1  0  0  0  0  0  0  0  0  0
    2.3386   -2.9952   -1.5908 C   0  0  2  0  0  0  0  0  0  0  0  0
    2.7050   -1.5356   -1.9452 C   0  0  1  0  0  0  0  0  0  0  0  0
   -0.6389   -2.6789   -1.9738 O   0  0  0  0  0  0  0  0  0  0  0  0
    1.8272   -2.6592    0.7879 O   0  0  0  0  0  0  0  0  0  0  0  0
    1.8373   -3.7010   -2.7438 O   0  0  0  0  0  0  0  0  0  0  0  0
    3.6199   -1.4866   -3.0344 O   0  0  0  0  0  0  0  0  0  0  0  0
    1.5470   -0.7804   -2.2955 O   0  0  0  0  0  0  0  0  0  0  0  0
  2  1  1  1
  3  2  1  0
  3  7  1  6
  4  3  1  0
  4  8  1  1
  5  4  1  0
  5  9  1  6
  6  5  1  0
  6 10  1  6
 11  2  1  0
 11  6  1  0
M  END
>  <DRUGBANK_ID>  (1) 
DB03773

>  <SECONDARY_ACCESSION_NUMBERS>  (1) 
EXPT01536; EXPT01615; DB04319

>  <COMMON_NAME>  (1) 
alpha-D-quinovopyranose

>  <CAS_NUMBER>  (1) 
7658-08-4

>  <UNII>  (1) 
68BDH91OBS

>  <SYNONYMS>  (1) 
D-Chinovose; D-Epifucose; D-Glucomethylose; D-Quinovose; Isorhamnose; Isorhodeose; Quinovose; Î±-D-quinovopyranose

$$$$
