
     RDKit          3D

 12 11  0  0  1  0  0  0  0  0999 V2000
    1.0636    0.1524   -0.2613 N   0  0  0  0  0  0  0  0  0  0  0  0
    0.5446    0.1744   -1.6560 C   0  0  1  0  0  0  0  0  0  0  0  0
    0.9285   -1.1653   -2.2842 C   0  0  0  0  0  0  0  0  0  0  0  0
    0.4275   -2.4229   -1.5364 C   0  0  0  0  0  0  0  0  0  0  0  0
   -1.0711   -2.6267   -1.3621 C   0  0  0  0  0  0  0  0  0  0  0  0
   -1.6901   -3.3990   -2.0931 O   0  0  0  0  0  0  0  0  0  0  0  0
   -1.9340   -1.9091   -0.3444 C   0  0  0  0  0  0  0  0  0  0  0  0
   -1.5187   -0.9714    0.4539 N   0  0  0  0  0  0  0  0  0  0  0  0
   -1.2716   -0.0646    1.1320 N   0  0  0  0  0  0  0  0  0  0  0  0
   -0.9740    0.4574   -1.9655 C   0  0  0  0  0  0  0  0  0  0  0  0
   -1.4173    1.7222   -1.9550 O   0  0  0  0  0  0  0  0  0  0  0  0
   -1.7713   -0.3938   -2.3372 O   0  0  0  0  0  0  0  0  0  0  0  0
  2  1  1  1
  2  3  1  0
  2 10  1  0
  3  4  1  0
  4  5  1  0
  5  6  2  0
  5  7  1  0
  7  8  2  0
  8  9  2  0
 10 11  1  0
 10 12  2  0
M  CHG  2   8   1   9  -1
M  END
>  <DRUGBANK_ID>  (1) 
DB17537

>  <COMMON_NAME>  (1) 
6-diazo-5-oxo-L-norleucine

>  <CAS_NUMBER>  (1) 
157-03-9

>  <UNII>  (1) 
03J0H273KZ

$$$$
