
     RDKit          3D

 20 20  0  0  1  0  0  0  0  0999 V2000
    0.1060   -2.1060    0.3470 O   0  0  0  0  0  0  0  0  0  0  0  0
    0.0300   -0.7940   -0.1950 C   0  0  2  0  0  0  0  0  0  0  0  0
    1.2410   -0.0130    0.2510 C   0  0  1  0  0  0  0  0  0  0  0  0
    2.4200   -0.5880   -0.3070 O   0  0  0  0  0  0  0  0  0  0  0  0
    1.1210    1.4260   -0.1770 C   0  0  2  0  0  0  0  0  0  0  0  0
    2.3066    2.1937    0.3846 C   0  0  0  0  0  0  0  0  0  0  0  0
    3.5126    1.6293   -0.1088 O   0  0  0  0  0  0  0  0  0  0  0  0
    3.6428   -0.4682    0.5076 V   0  0  0  0  0  6  0  0  0  0  0  0
    3.6212   -0.5892    2.6941 O   0  0  0  0  0  0  0  0  0  0  0  0
    2.1139   -1.4581   -0.2167 O   0  0  0  0  0  0  0  0  0  0  0  0
    5.3074   -1.2472   -0.1735 O   0  0  0  0  0  0  0  0  0  0  0  0
   -0.0700    2.0150    0.3210 O   0  0  0  0  0  0  0  0  0  0  0  0
   -1.2310    1.3770   -0.2060 C   0  0  2  0  0  0  0  0  0  0  0  0
   -2.3935    2.0192    0.2966 O   0  0  0  0  0  0  0  0  0  0  0  0
   -2.4104    1.9124    2.0232 P   0  0  0  0  0  0  0  0  0  0  0  0
   -1.0563    2.9862    2.1029 O   0  0  0  0  0  0  0  0  0  0  0  0
   -4.0198    2.5467    2.0466 O   0  0  0  0  0  0  0  0  0  0  0  0
   -2.4256    1.8169    3.5685 O   0  0  0  0  0  0  0  0  0  0  0  0
   -1.2390   -0.0840    0.2110 C   0  0  1  0  0  0  0  0  0  0  0  0
   -2.3970   -0.7560   -0.2730 O   0  0  0  0  0  0  0  0  0  0  0  0
  2  1  1  1
  2  3  1  0
  2 19  1  0
  3  4  1  6
  3  5  1  0
  5  6  1  1
  5 12  1  0
  6  7  1  0
  7  8  1  0
  8  9  1  0
  8 10  2  0
  8 11  2  0
 12 13  1  0
 13 14  1  1
 13 19  1  0
 14 15  1  0
 15 16  1  0
 15 17  1  0
 15 18  2  0
 19 20  1  6
M  END
>  <DRUGBANK_ID>  (1) 
DB04397

>  <SECONDARY_ACCESSION_NUMBERS>  (1) 
EXPT03221

>  <COMMON_NAME>  (1) 
Alpha-D-Glucose-1-Phosphate-6-Vanadate

$$$$
