
     RDKit          3D

 33 37  0  0  0  0  0  0  0  0999 V2000
    0.9505   -0.0770   -0.0059 C   0  0  0  0  0  0  0  0  0  0  0  0
    0.4816   -0.6501   -1.3210 C   0  0  0  0  0  0  0  0  0  0  0  0
   -0.1498   -1.7077   -1.3474 O   0  0  0  0  0  0  0  0  0  0  0  0
    0.7779    0.0850   -2.5977 C   0  0  0  0  0  0  0  0  0  0  0  0
   -0.1783    0.2419   -3.5349 C   0  0  0  0  0  0  0  0  0  0  0  0
   -1.6130   -0.1817   -3.3494 C   0  0  0  0  0  0  0  0  0  0  0  0
    0.2028    0.8401   -4.8308 C   0  0  0  0  0  0  0  0  0  0  0  0
    1.4922    1.2807   -5.1061 C   0  0  0  0  0  0  0  0  0  0  0  0
    1.8486    1.8076   -6.3147 N   0  0  0  0  0  0  0  0  0  0  0  0
    0.9055    1.9115   -7.2715 C   0  0  0  0  0  0  0  0  0  0  0  0
    1.2401    2.4654   -8.5155 N   0  0  0  0  0  0  0  0  0  0  0  0
    0.3565    2.5610   -9.6032 C   0  0  0  0  0  0  0  0  0  0  0  0
   -0.7906    3.2957   -9.3951 C   0  0  0  0  0  0  0  0  0  0  0  0
   -1.7174    3.4019  -10.4030 C   0  0  0  0  0  0  0  0  0  0  0  0
   -1.5516    2.7719  -11.6328 C   0  0  0  0  0  0  0  0  0  0  0  0
   -0.3638    2.0647  -11.7702 C   0  0  0  0  0  0  0  0  0  0  0  0
    0.6032    1.9756  -10.8012 N   0  0  0  0  0  0  0  0  0  0  0  0
   -2.5939    2.8668  -12.7392 C   0  0  0  0  0  0  0  0  0  0  0  0
   -2.7940    4.3154  -13.2231 C   0  0  0  0  0  0  0  0  0  0  0  0
   -3.5546    5.1736  -12.2124 C   0  0  0  0  0  0  0  0  0  0  0  0
   -4.8121    4.5527  -11.7871 N   0  0  0  0  0  0  0  0  0  0  0  0
   -4.7001    3.1664  -11.3248 C   0  0  0  0  0  0  0  0  0  0  0  0
   -3.9542    2.2774  -12.3197 C   0  0  0  0  0  0  0  0  0  0  0  0
   -0.3601    1.5138   -7.0690 N   0  0  0  0  0  0  0  0  0  0  0  0
   -0.6799    0.9831   -5.8788 C   0  0  0  0  0  0  0  0  0  0  0  0
    2.4660    1.1624   -4.0616 N   0  0  0  0  0  0  0  0  0  0  0  0
    3.8410    1.6332   -4.2807 C   0  0  0  0  0  0  0  0  0  0  0  0
    4.9034    0.5254   -4.1877 C   0  0  0  0  0  0  0  0  0  0  0  0
    6.2089    1.2436   -3.8520 C   0  0  0  0  0  0  0  0  0  0  0  0
    5.8342    2.6398   -3.3578 C   0  0  0  0  0  0  0  0  0  0  0  0
    4.3194    2.6497   -3.2301 C   0  0  0  0  0  0  0  0  0  0  0  0
    2.1537    0.5751   -2.8419 C   0  0  0  0  0  0  0  0  0  0  0  0
    2.9804    0.4246   -1.9336 O   0  0  0  0  0  0  0  0  0  0  0  0
  1  2  1  0
  2  3  2  0
  2  4  1  0
  4  5  2  0
  4 32  1  0
  5  6  1  0
  5  7  1  0
  7  8  2  0
  7 25  1  0
  8  9  1  0
  8 26  1  0
  9 10  2  0
 10 11  1  0
 10 24  1  0
 11 12  1  0
 12 13  2  0
 12 17  1  0
 13 14  1  0
 14 15  2  0
 15 16  1  0
 15 18  1  0
 16 17  2  0
 18 19  1  0
 18 23  1  0
 19 20  1  0
 20 21  1  0
 21 22  1  0
 22 23  1  0
 24 25  2  0
 26 27  1  0
 26 32  1  0
 27 28  1  0
 27 31  1  0
 28 29  1  0
 29 30  1  0
 30 31  1  0
 32 33  2  0
M  END
>  <DRUGBANK_ID>  (1) 
DB17456

>  <COMMON_NAME>  (1) 
Dalpiciclib

>  <CAS_NUMBER>  (1) 
1637781-04-4

>  <UNII>  (1) 
5ZHA5P4PFX

>  <SYNONYMS>  (1) 
Cdk4/6 inhibitor shr6390; Pyrido(2,3-d)pyrimidin-7(8h)-one, 6-acetyl-8-cyclopentyl-5-methyl-2-((5-(4-piperidinyl)-2-pyridinyl)amino)-

$$$$
