
     RDKit          3D

 31 34  0  0  1  0  0  0  0  0999 V2000
   -3.6247  -10.8378   12.5246 C   0  0  0  0  0  0  0  0  0  0  0  0
   -2.2534  -11.2555   12.5353 N   0  0  0  0  0  0  0  0  0  0  0  0
   -1.5312  -11.6534   13.6374 C   0  0  0  0  0  0  0  0  0  0  0  0
   -1.9592  -11.7430   14.7867 O   0  0  0  0  0  0  0  0  0  0  0  0
   -0.2052  -11.9528   13.2953 O   0  0  0  0  0  0  0  0  0  0  0  0
   -0.1854  -11.6987   11.9336 C   0  0  0  0  0  0  0  0  0  0  0  0
    0.9063  -11.8459   11.1082 C   0  0  0  0  0  0  0  0  0  0  0  0
    0.7234  -11.5449    9.7576 C   0  0  0  0  0  0  0  0  0  0  0  0
   -0.5305  -11.0982    9.2600 C   0  0  0  0  0  0  0  0  0  0  0  0
   -1.6164  -10.9552   10.1325 C   0  0  0  0  0  0  0  0  0  0  0  0
   -1.4066  -11.2686   11.4550 C   0  0  0  0  0  0  0  0  0  0  0  0
   -0.6697  -10.7844    7.8423 C   0  0  0  0  0  0  0  0  0  0  0  0
   -0.4312  -11.7709    6.8888 C   0  0  0  0  0  0  0  0  0  0  0  0
   -0.3731  -11.4366    5.5468 C   0  0  0  0  0  0  0  0  0  0  0  0
   -0.5869  -10.1234    5.1122 C   0  0  0  0  0  0  0  0  0  0  0  0
   -0.3065   -9.7532    3.6714 C   0  0  0  0  0  0  0  0  0  0  0  0
    1.2217   -9.8469    3.3286 C   0  0  2  0  0  0  0  0  0  0  0  0
    1.5170   -9.2333    2.0292 N   0  0  0  0  0  0  0  0  0  0  0  0
    2.0611   -7.9899    1.7792 C   0  0  0  0  0  0  0  0  0  0  0  0
    2.1237   -7.6124    0.6102 O   0  0  0  0  0  0  0  0  0  0  0  0
    2.6024   -7.1612    2.9824 C   0  0  2  0  0  0  0  0  0  0  0  0
    1.4130   -6.7731    3.8806 C   0  0  0  0  0  0  0  0  0  0  0  0
    1.7881   -6.6636    5.2952 N   0  0  0  0  0  0  0  0  0  0  0  0
    2.1163   -5.2854    5.6374 C   0  0  0  0  0  0  0  0  0  0  0  0
    2.8539   -4.5036    4.5446 C   0  0  0  0  0  0  0  0  0  0  0  0
    3.9178   -5.3418    3.8325 C   0  0  0  0  0  0  0  0  0  0  0  0
    3.3767   -6.0015    2.6736 O   0  0  0  0  0  0  0  0  0  0  0  0
    1.5828  -11.3230    3.3583 C   0  0  0  0  0  0  0  0  0  0  0  0
    1.8825  -12.5476    3.3830 N   0  0  0  0  0  0  0  0  0  0  0  0
   -0.9921   -9.1696    6.0487 C   0  0  0  0  0  0  0  0  0  0  0  0
   -0.9938   -9.4909    7.4084 C   0  0  0  0  0  0  0  0  0  0  0  0
  1  2  1  0
  2  3  1  0
  2 11  1  0
  3  4  2  0
  3  5  1  0
  5  6  1  0
  6  7  1  0
  6 11  2  0
  7  8  2  0
  8  9  1  0
  9 10  2  0
  9 12  1  0
 10 11  1  0
 12 13  2  0
 12 31  1  0
 13 14  1  0
 14 15  2  0
 15 16  1  0
 15 30  1  0
 17 28  1  6
 17 18  1  0
 17 16  1  0
 18 19  1  0
 19 20  2  0
 21 19  1  6
 21 22  1  0
 21 27  1  0
 22 23  1  0
 23 24  1  0
 24 25  1  0
 25 26  1  0
 26 27  1  0
 28 29  3  0
 30 31  2  0
M  END
>  <DRUGBANK_ID>  (1) 
DB15638

>  <COMMON_NAME>  (1) 
Brensocatib

>  <CAS_NUMBER>  (1) 
1802148-05-5

>  <UNII>  (1) 
25CG88L0BB

>  <SYNONYMS>  (1) 
(S)-N-((S)-1-Cyano-2-(4-(3-methyl-2-oxo-2,3-dihydrobenzo-(d)oxazol-5-yl)phenyl)ethyl)-1,4-oxazepane-2-carboxamide; Brensocatib

$$$$
