EMD
     RDKit          3D

 30 33  0  0  0  0  0  0  0  0999 V2000
    0.6029    1.6651   -0.2833 S   0  0  0  0  0  0  0  0  0  0  0  0
    1.5558    0.2512   -0.0359 C   0  0  0  0  0  0  0  0  0  0  0  0
    2.7816    0.3479    0.0371 O   0  0  0  0  0  0  0  0  0  0  0  0
    0.9388   -0.9683    0.0156 N   0  0  0  0  0  0  0  0  0  0  0  0
   -0.3807   -1.3144   -0.0347 N   0  0  0  0  0  0  0  0  0  0  0  0
   -1.2906   -0.3914   -0.0609 C   0  0  0  0  0  0  0  0  0  0  0  0
   -1.0535    1.0920    0.0238 C   0  0  1  0  0  0  0  0  0  0  0  0
   -1.4803    1.5599    1.4085 C   0  0  0  0  0  0  0  0  0  0  0  0
   -2.7375   -0.7790   -0.0669 C   0  0  0  0  0  0  0  0  0  0  0  0
   -3.5858   -0.2973   -1.0708 C   0  0  0  0  0  0  0  0  0  0  0  0
   -4.9752   -0.5260   -1.0175 C   0  0  0  0  0  0  0  0  0  0  0  0
   -5.5243   -1.2239    0.0766 C   0  0  0  0  0  0  0  0  0  0  0  0
   -4.6574   -1.6925    1.0769 C   0  0  0  0  0  0  0  0  0  0  0  0
   -3.2760   -1.4730    1.0142 C   0  0  0  0  0  0  0  0  0  0  0  0
   -6.9419   -1.4459    0.1424 N   0  0  0  0  0  0  0  0  0  0  0  0
   -7.6359   -1.3972   -1.1534 C   0  0  0  0  0  0  0  0  0  0  0  0
   -7.3204   -0.1139   -1.8893 C   0  0  0  0  0  0  0  0  0  0  0  0
   -5.8267   -0.0084   -2.1522 C   0  0  0  0  0  0  0  0  0  0  0  0
   -7.5984   -1.5849    1.3777 C   0  0  0  0  0  0  0  0  0  0  0  0
   -7.0789   -1.4975    2.4891 O   0  0  0  0  0  0  0  0  0  0  0  0
   -9.0498   -1.8505    1.4006 C   0  0  0  0  0  0  0  0  0  0  0  0
   -9.5352   -2.9950    0.7730 C   0  0  0  0  0  0  0  0  0  0  0  0
  -10.8854   -3.3340    0.8589 C   0  0  0  0  0  0  0  0  0  0  0  0
  -11.3910   -4.4473    0.2510 O   0  0  0  0  0  0  0  0  0  0  0  0
  -11.7560   -2.5266    1.6156 C   0  0  0  0  0  0  0  0  0  0  0  0
  -13.1125   -2.6927    1.7706 O   0  0  0  0  0  0  0  0  0  0  0  0
  -11.2385   -1.4152    2.3037 C   0  0  0  0  0  0  0  0  0  0  0  0
   -9.8969   -1.0507    2.1663 C   0  0  0  0  0  0  0  0  0  0  0  0
  -10.5103   -5.2780   -0.4831 C   0  0  0  0  0  0  0  0  0  0  0  0
  -13.7395   -3.7098    0.9927 C   0  0  0  0  0  0  0  0  0  0  0  0
  1  2  1  0
  1  7  1  0
  2  3  2  0
  2  4  1  0
  4  5  1  0
  5  6  2  0
  6  7  1  0
  6  9  1  0
  7  8  1  1
  9 10  2  0
  9 14  1  0
 10 11  1  0
 11 12  2  0
 11 18  1  0
 12 13  1  0
 12 15  1  0
 13 14  2  0
 15 16  1  0
 15 19  1  0
 16 17  1  0
 17 18  1  0
 19 20  2  0
 19 21  1  0
 21 22  2  0
 21 28  1  0
 22 23  1  0
 23 24  1  0
 23 25  2  0
 24 29  1  0
 25 26  1  0
 25 27  1  0
 26 30  1  0
 27 28  2  0
M  END
>  <DRUGBANK_ID>  (1) 
DB03944

>  <SECONDARY_ACCESSION_NUMBERS>  (1) 
EXPT01339

>  <COMMON_NAME>  (1) 
5-[1-(3,4-Dimethoxy-Benzoyl)-1,2,3,4-Tetrahydro-Quinolin-6-Yl]-6-Methyl-3,6-Dihydro-[1,3,4]Thiadiazin-2-One

$$$$
