
     RDKit          3D

 32 35  0  0  1  0  0  0  0  0999 V2000
    0.6520   -1.9816   -1.7556 C   0  0  0  0  0  0  0  0  0  0  0  0
    4.5256   -1.8195   -3.6288 N   0  0  0  0  0  0  0  0  0  0  0  0
    2.9931   -0.9310   -1.8867 C   0  0  1  0  0  0  0  0  0  0  0  0
    2.9795    0.2281   -0.1799 C   0  0  2  0  0  0  0  0  0  0  0  0
    4.0494   -0.7235   -2.7846 C   0  0  1  0  0  0  0  0  0  0  0  0
    2.9246   -2.9162   -1.1229 C   0  0  0  0  0  0  0  0  0  0  0  0
    3.5122   -0.7598    1.1664 C   0  0  0  0  0  0  0  0  0  0  0  0
    1.5765   -0.0002   -0.0393 C   0  0  0  0  0  0  0  0  0  0  0  0
    3.7257    1.3628   -0.3495 O   0  0  0  0  0  0  0  0  0  0  0  0
    3.5376   -1.1563   -1.3436 C   0  0  0  0  0  0  0  0  0  0  0  0
    3.9212   -3.1806    0.0247 C   0  0  1  0  0  0  0  0  0  0  0  0
    3.8613   -2.1129    1.1723 C   0  0  0  0  0  0  0  0  0  0  0  0
    3.3877   -0.0573    2.3497 O   0  0  0  0  0  0  0  0  0  0  0  0
    1.8451   -1.2903   -0.6273 C   0  0  0  0  0  0  0  0  0  0  0  0
    0.6634    0.5933    0.4619 O   0  0  0  0  0  0  0  0  0  0  0  0
    4.9847   -1.5392   -1.0117 O   0  0  0  0  0  0  0  0  0  0  0  0
    3.6160   -4.6136    0.2521 C   0  0  1  0  0  0  0  0  0  0  0  0
    4.4164   -2.7198    2.3949 C   0  0  0  0  0  0  0  0  0  0  0  0
    4.4887   -5.0600    1.3113 C   0  0  0  0  0  0  0  0  0  0  0  0
    2.2861   -4.8546    0.6243 O   0  0  0  0  0  0  0  0  0  0  0  0
    4.8273   -4.1612    2.3479 C   0  0  0  0  0  0  0  0  0  0  0  0
    4.6587   -2.0610    3.4002 O   0  0  0  0  0  0  0  0  0  0  0  0
    4.8815   -6.3899    1.2545 C   0  0  0  0  0  0  0  0  0  0  0  0
    5.5878   -4.6512    3.3749 C   0  0  0  0  0  0  0  0  0  0  0  0
    5.6162   -6.8586    2.2997 C   0  0  0  0  0  0  0  0  0  0  0  0
    4.4231   -7.4571   -0.0373 Cl  0  0  0  0  0  0  0  0  0  0  0  0
    5.9611   -5.9929    3.3493 C   0  0  0  0  0  0  0  0  0  0  0  0
    5.9894   -3.8737    4.4217 O   0  0  0  0  0  0  0  0  0  0  0  0
    5.8323   -1.5516   -4.2026 C   0  0  0  0  0  0  0  0  0  0  0  0
    4.4028   -3.2646   -3.4057 C   0  0  0  0  0  0  0  0  0  0  0  0
   -0.4098   -2.5305   -1.4943 O   0  0  0  0  0  0  0  0  0  0  0  0
    1.2457   -2.3915   -2.9531 N   0  0  0  0  0  0  0  0  0  0  0  0
  1 31  2  0
  1 32  1  0
  2 29  1  0
  2 30  1  0
  3  4  1  0
  3  5  1  0
  3  6  1  1
  4  7  1  0
  4  8  1  0
  4  9  1  6
  5 10  1  0
  5  2  1  6
 11  6  1  6
  7 12  2  0
  7 13  1  0
  8 14  1  0
  8 15  2  0
 10 14  2  0
 10 16  1  0
 11 12  1  0
 11 17  1  0
 12 18  1  0
 14  1  1  0
 17 19  1  0
 17 20  1  1
 18 21  1  0
 18 22  2  0
 19 23  2  0
 19 21  1  0
 21 24  2  0
 23 25  1  0
 23 26  1  0
 24 27  1  0
 24 28  1  0
 25 27  2  0
M  END
>  <DRUGBANK_ID>  (1) 
DB00618

>  <SECONDARY_ACCESSION_NUMBERS>  (1) 
APRD00272

>  <COMMON_NAME>  (1) 
Demeclocycline

>  <CAS_NUMBER>  (1) 
127-33-3

>  <UNII>  (1) 
5R5W9ICI6O

>  <SYNONYMS>  (1) 
[4S-(4α,4aα,5aα,6β,12aα)]-7-chloro-4-(dimethylamino)1,4,4a,5,5a,6,11,12a-octahydro-3,6,10,12,12a-pentahydroxy-1,11-dioxo-2-naphthacenecarboxamide; 6-demethyl-7-chlorotetracycline; 7-chloro-6-demethyltetracycline; Demeclociclina; Demeclocycline; Demeclocyclinum; Demethylchlortetracyclin; Demethylchlortetracycline; DMCT; DMCTC

$$$$
