
     RDKit          3D

 22 25  0  0  0  0  0  0  0  0999 V2000
    0.6569   -0.0062   -0.1988 N   0  0  0  0  0  0  0  0  0  0  0  0
    0.0677    0.1204   -1.4260 C   0  0  0  0  0  0  0  0  0  0  0  0
   -1.3639    0.0588   -1.5147 C   0  0  0  0  0  0  0  0  0  0  0  0
   -2.2620    0.7031   -0.6701 C   0  0  0  0  0  0  0  0  0  0  0  0
   -3.5431    0.3984   -1.0095 N   0  0  0  0  0  0  0  0  0  0  0  0
   -3.4482   -0.5766   -1.8953 C   0  0  0  0  0  0  0  0  0  0  0  0
   -2.1952   -0.5932   -2.4488 N   0  0  0  0  0  0  0  0  0  0  0  0
   -1.9028   -1.3210   -3.6853 C   0  0  0  0  0  0  0  0  0  0  0  0
   -2.7314   -2.6084   -4.1294 C   0  0  0  0  0  0  0  0  0  0  0  0
   -4.2369   -2.5671   -4.2884 C   0  0  0  0  0  0  0  0  0  0  0  0
   -5.0224   -2.0315   -3.2773 C   0  0  0  0  0  0  0  0  0  0  0  0
   -6.4162   -1.8327   -3.5568 C   0  0  0  0  0  0  0  0  0  0  0  0
   -7.0517   -2.4461   -4.6421 C   0  0  0  0  0  0  0  0  0  0  0  0
   -6.2855   -3.1969   -5.5121 C   0  0  0  0  0  0  0  0  0  0  0  0
   -4.8910   -3.2175   -5.3575 C   0  0  0  0  0  0  0  0  0  0  0  0
   -4.3414   -1.8162   -1.9018 C   0  0  0  0  0  0  0  0  0  0  0  0
   -3.2903   -3.1636   -1.2839 C   0  0  0  0  0  0  0  0  0  0  0  0
   -2.9012   -3.0466    0.2168 C   0  0  0  0  0  0  0  0  0  0  0  0
   -3.8218   -2.0852    0.7519 N   0  0  0  0  0  0  0  0  0  0  0  0
   -5.1502   -2.4943    0.2651 C   0  0  0  0  0  0  0  0  0  0  0  0
   -5.4866   -1.5606   -0.8457 C   0  0  0  0  0  0  0  0  0  0  0  0
    0.8077    0.2721   -2.4249 O   0  0  0  0  0  0  0  0  0  0  0  0
  1  2  1  0
  2  3  1  0
  2 22  2  0
  3  4  2  0
  3  7  1  0
  4  5  1  0
  5  6  2  0
  6  7  1  0
  6 16  1  0
  7  8  1  0
  8  9  1  0
  9 10  1  0
 10 11  2  0
 10 15  1  0
 11 12  1  0
 11 16  1  0
 12 13  2  0
 13 14  1  0
 14 15  2  0
 16 17  1  0
 16 21  1  0
 17 18  1  0
 18 19  1  0
 19 20  1  0
 20 21  1  0
M  END
>  <DRUGBANK_ID>  (1) 
DB05738

>  <COMMON_NAME>  (1) 
Vapitadine

>  <CAS_NUMBER>  (1) 
793655-64-8

>  <UNII>  (1) 
Z5014VUX83

>  <SYNONYMS>  (1) 
Vapitadina; Vapitadine; Vapitadinum

$$$$
