
     RDKit          3D

  8  7  0  0  1  0  0  0  0  0999 V2000
    0.9646   -0.1230   -0.1398 C   0  0  0  0  0  0  0  0  0  0  0  0
    0.5746    0.3769    1.2524 C   0  0  0  0  0  0  0  0  0  0  0  0
    1.1224    1.7811    1.5780 C   0  0  1  0  0  0  0  0  0  0  0  0
    0.5961    2.8017    0.5528 C   0  0  0  0  0  0  0  0  0  0  0  0
    0.6015    2.1707    2.9151 N   0  0  0  0  0  0  0  0  0  0  0  0
    2.6804    1.8829    1.6392 C   0  0  0  0  0  0  0  0  0  0  0  0
    3.3919    0.7404    1.5352 O   0  0  0  0  0  0  0  0  0  0  0  0
    3.2613    2.9549    1.8029 O   0  0  0  0  0  0  0  0  0  0  0  0
  1  2  1  0
  2  3  1  0
  3  4  1  6
  3  5  1  0
  3  6  1  0
  6  7  1  0
  6  8  2  0
M  END
>  <DRUGBANK_ID>  (1) 
DB04171

>  <SECONDARY_ACCESSION_NUMBERS>  (1) 
EXPT01211

>  <COMMON_NAME>  (1) 
D-Isovaline

>  <UNII>  (1) 
IF7U5GXQ28

$$$$
