
     RDKit          3D

 32 36  0  0  1  0  0  0  0  0999 V2000
    0.9409   -0.1800   -0.0952 C   0  0  0  0  0  0  0  0  0  0  0  0
    0.5602    1.2139    0.3845 C   0  0  0  0  0  0  0  0  0  0  0  0
    1.5456    2.2968   -0.1056 C   0  0  2  0  0  0  0  0  0  0  0  0
    2.7252    2.3242    0.8601 C   0  0  0  0  0  0  0  0  0  0  0  0
    3.0974    1.1771    1.6920 C   0  0  0  0  0  0  0  0  0  0  0  0
    3.6005    1.4052    2.8985 C   0  0  0  0  0  0  0  0  0  0  0  0
    3.9369    2.6895    3.2645 N   0  0  0  0  0  0  0  0  0  0  0  0
    3.8711    3.7814    2.4299 C   0  0  0  0  0  0  0  0  0  0  0  0
    4.2119    4.9202    2.7607 O   0  0  0  0  0  0  0  0  0  0  0  0
    3.2468    3.5387    1.1034 C   0  0  0  0  0  0  0  0  0  0  0  0
    2.9299    4.6582    0.1735 C   0  0  0  0  0  0  0  0  0  0  0  0
    1.5124    4.8054    0.0550 O   0  0  0  0  0  0  0  0  0  0  0  0
    0.7578    3.6788   -0.0930 C   0  0  0  0  0  0  0  0  0  0  0  0
   -0.4589    3.7817   -0.2291 O   0  0  0  0  0  0  0  0  0  0  0  0
    4.4085    2.7196    4.6431 C   0  0  0  0  0  0  0  0  0  0  0  0
    4.3524    1.2815    5.0587 C   0  0  0  0  0  0  0  0  0  0  0  0
    3.8799    0.4971    4.0150 C   0  0  0  0  0  0  0  0  0  0  0  0
    3.6599   -0.8300    4.0545 N   0  0  0  0  0  0  0  0  0  0  0  0
    3.9637   -1.4535    5.2186 C   0  0  0  0  0  0  0  0  0  0  0  0
    3.7758   -2.8396    5.3489 C   0  0  0  0  0  0  0  0  0  0  0  0
    4.0640   -3.5441    6.5289 C   0  0  0  0  0  0  0  0  0  0  0  0
    4.5850   -2.8690    7.6043 C   0  0  0  0  0  0  0  0  0  0  0  0
    4.8351   -1.5169    7.4686 C   0  0  0  0  0  0  0  0  0  0  0  0
    4.4944   -0.7517    6.3346 C   0  0  0  0  0  0  0  0  0  0  0  0
    4.6732    0.6650    6.2499 C   0  0  0  0  0  0  0  0  0  0  0  0
    5.1618    1.5136    7.3911 C   0  0  0  0  0  0  0  0  0  0  0  0
    5.4568    0.9720    8.5249 N   0  0  0  0  0  0  0  0  0  0  0  0
    5.8495    1.8464    9.5368 O   0  0  0  0  0  0  0  0  0  0  0  0
    6.1877    1.0552   10.7071 C   0  0  0  0  0  0  0  0  0  0  0  0
    4.9743    0.3475   11.3575 C   0  0  0  0  0  0  0  0  0  0  0  0
    4.4252   -0.7272   10.5327 N   0  0  0  0  0  0  0  0  0  0  0  0
    2.0613    2.0051   -1.4007 O   0  0  0  0  0  0  0  0  0  0  0  0
  1  2  1  0
  3  2  1  0
  3  4  1  0
  3 13  1  0
  3 32  1  6
  4  5  1  0
  4 10  2  0
  5  6  2  0
  6  7  1  0
  6 17  1  0
  7  8  1  0
  7 15  1  0
  8  9  2  0
  8 10  1  0
 10 11  1  0
 11 12  1  0
 12 13  1  0
 13 14  2  0
 15 16  1  0
 16 17  2  0
 16 25  1  0
 17 18  1  0
 18 19  2  0
 19 20  1  0
 19 24  1  0
 20 21  2  0
 21 22  1  0
 22 23  2  0
 23 24  1  0
 24 25  2  0
 25 26  1  0
 26 27  2  0
 27 28  1  0
 28 29  1  0
 29 30  1  0
 30 31  1  0
M  END
>  <DRUGBANK_ID>  (1) 
DB12124

>  <COMMON_NAME>  (1) 
Namitecan

>  <CAS_NUMBER>  (1) 
372105-27-6

>  <UNII>  (1) 
X34Z8N66T3

>  <SYNONYMS>  (1) 
Namitecan

$$$$
