[NO NAME]
     RDKit          3D

 32 35  0  0  1  0  0  0  0  0999 V2000
    1.5385    0.3464   -0.8352 C   0  0  1  0  0  0  0  0  0  0  0  0
    2.1246   -1.0735   -0.7654 C   0  0  0  0  0  0  0  0  0  0  0  0
   -0.1804   -2.1143   -0.5205 C   0  0  0  0  0  0  0  0  0  0  0  0
    1.1979   -2.1899   -1.1939 C   0  0  0  0  0  0  0  0  0  0  0  0
    0.2296    0.3603    0.0690 C   0  0  2  0  0  0  0  0  0  0  0  0
   -0.7911   -0.6921   -0.4958 C   0  0  2  0  0  0  0  0  0  0  0  0
   -4.5223   -1.0026    0.4392 C   0  0  2  0  0  0  0  0  0  0  0  0
   -3.2434   -1.5494   -0.2443 C   0  0  0  0  0  0  0  0  0  0  0  0
   -5.7280   -1.1059   -0.4925 C   0  0  0  0  0  0  0  0  0  0  0  0
   -0.4165    1.7688    0.3065 C   0  0  1  0  0  0  0  0  0  0  0  0
   -0.4461    2.6217   -0.8342 O   0  0  0  0  0  0  0  0  0  0  0  0
    2.5346    1.3991   -0.3756 C   0  0  0  0  0  0  0  0  0  0  0  0
    3.3514   -1.3308   -0.2751 C   0  0  0  0  0  0  0  0  0  0  0  0
    3.7545    1.1366    0.1074 C   0  0  0  0  0  0  0  0  0  0  0  0
    4.2261   -0.2539    0.2420 C   0  0  0  0  0  0  0  0  0  0  0  0
    5.3071   -0.5073    0.7665 O   0  0  0  0  0  0  0  0  0  0  0  0
    0.7057   -0.1830    1.7971 Cl  0  0  0  0  0  0  0  0  0  0  0  0
   -2.7967    0.7443    0.2811 C   0  0  1  0  0  0  0  0  0  0  0  0
   -3.1101    1.2474   -1.1585 C   0  0  0  0  0  0  0  0  0  0  0  0
   -2.1261   -0.6527    0.2732 C   0  0  2  0  0  0  0  0  0  0  0  0
    1.3004    0.6418   -2.3416 C   0  0  0  0  0  0  0  0  0  0  0  0
   -1.8217    1.7240    0.9692 C   0  0  0  0  0  0  0  0  0  0  0  0
   -5.6907    2.4484    1.9520 C   0  0  0  0  0  0  0  0  0  0  0  0
   -5.2096    1.5854    0.7761 C   0  0  0  0  0  0  0  0  0  0  0  0
   -5.6768    1.8063   -0.3456 O   0  0  0  0  0  0  0  0  0  0  0  0
   -5.4494    3.8250    1.8121 O   0  0  0  0  0  0  0  0  0  0  0  0
   -6.8433   -1.6816    3.1926 C   0  0  0  0  0  0  0  0  0  0  0  0
   -4.1741    0.4293    1.0265 C   0  0  1  0  0  0  0  0  0  0  0  0
   -3.9410    0.2330    2.4545 O   0  0  0  0  0  0  0  0  0  0  0  0
   -4.9025   -0.0974    3.3687 C   0  0  0  0  0  0  0  0  0  0  0  0
   -4.6297   -0.1268    4.5697 O   0  0  0  0  0  0  0  0  0  0  0  0
   -6.3308   -0.3001    2.8990 C   0  0  0  0  0  0  0  0  0  0  0  0
  1 12  1  0
  1 21  1  6
  1  2  1  0
  2 13  2  0
  3  4  1  0
  4  2  1  0
  5  1  1  0
  5 10  1  0
  5 17  1  1
  6  5  1  0
  6  3  1  1
  7  8  1  0
  7  9  1  6
 10 22  1  0
 10 11  1  6
 12 14  2  0
 13 15  1  0
 14 15  1  0
 15 16  2  0
 18 28  1  0
 18 22  1  0
 18 19  1  6
 20  6  1  0
 20  8  1  6
 20 18  1  0
 23 26  1  0
 24 23  1  0
 24 25  2  0
 28  7  1  0
 28 24  1  0
 28 29  1  1
 29 30  1  0
 30 32  1  0
 30 31  2  0
 32 27  1  0
M  END
>  <DRUGBANK_ID>  (1) 
DB14221

>  <COMMON_NAME>  (1) 
Beclomethasone 17-monopropionate

>  <CAS_NUMBER>  (1) 
5534-18-9

>  <UNII>  (1) 
5BGA9FD55H

>  <SYNONYMS>  (1) 
17-BMP; Beclomethasone 17-propionate; Beclomethasone-17-monopropionate

$$$$
