
     RDKit          3D

 29 30  0  0  0  0  0  0  0  0999 V2000
    1.0462   -0.0459   -0.0933 O   0  0  0  0  0  0  0  0  0  0  0  0
    3.0544    0.9184   -0.6854 O   0  0  0  0  0  0  0  0  0  0  0  0
    4.9394    2.1901   -0.2764 O   0  0  0  0  0  0  0  0  0  0  0  0
    2.9789   -1.2603    0.1563 N   0  0  0  0  0  0  0  0  0  0  0  0
    3.9301    6.3443   -0.3561 C   0  0  0  0  0  0  0  0  0  0  0  0
    3.1692    7.6699   -0.4282 C   0  0  0  0  0  0  0  0  0  0  0  0
    3.5469    5.6314    0.9445 C   0  0  0  0  0  0  0  0  0  0  0  0
    3.5331    8.5267    0.7890 C   0  0  0  0  0  0  0  0  0  0  0  0
    2.0186    5.4276    0.9834 C   0  0  0  0  0  0  0  0  0  0  0  0
    5.0385    8.8054    0.7839 C   0  0  0  0  0  0  0  0  0  0  0  0
    1.5616    4.6086   -0.2139 C   0  0  0  0  0  0  0  0  0  0  0  0
    5.4174    9.5465   -0.5012 C   0  0  0  0  0  0  0  0  0  0  0  0
    2.2907    3.3021   -0.1405 C   0  0  0  0  0  0  0  0  0  0  0  0
    4.6569   10.8748   -0.5830 C   0  0  0  0  0  0  0  0  0  0  0  0
    1.9836    2.5374    1.1718 C   0  0  0  0  0  0  0  0  0  0  0  0
    5.0162   11.7766    0.6031 C   0  0  0  0  0  0  0  0  0  0  0  0
    0.5433    2.0695    1.1299 C   0  0  0  0  0  0  0  0  0  0  0  0
    6.5166   12.0694    0.6405 C   0  0  0  0  0  0  0  0  0  0  0  0
    0.2867    1.1967   -0.1064 C   0  0  0  0  0  0  0  0  0  0  0  0
    6.9484   12.7762   -0.6339 C   0  0  0  0  0  0  0  0  0  0  0  0
    2.4026   -0.1688   -0.2068 C   0  0  0  0  0  0  0  0  0  0  0  0
    4.3700   -1.2536    0.0544 C   0  0  0  0  0  0  0  0  0  0  0  0
    5.0845   -0.0746   -0.0152 C   0  0  0  0  0  0  0  0  0  0  0  0
    4.3407    1.1100   -0.2900 C   0  0  0  0  0  0  0  0  0  0  0  0
    6.4709   -0.0005   -0.0298 C   0  0  0  0  0  0  0  0  0  0  0  0
    5.0833   -2.4266   -0.0386 C   0  0  0  0  0  0  0  0  0  0  0  0
    7.1672   -1.1749   -0.2130 C   0  0  0  0  0  0  0  0  0  0  0  0
    6.4541   -2.3768   -0.3128 C   0  0  0  0  0  0  0  0  0  0  0  0
    8.6560   -1.1188   -0.2513 C   0  0  0  0  0  0  0  0  0  0  0  0
  1 19  1  0
  1 21  1  0
  2 21  1  0
  2 24  1  0
  3 24  2  0
  4 21  2  0
  4 22  1  0
  5  6  1  0
  5  7  1  0
  6  8  1  0
  7  9  1  0
  8 10  1  0
  9 11  1  0
 10 12  1  0
 11 13  1  0
 12 14  1  0
 13 15  1  0
 14 16  1  0
 15 17  1  0
 16 18  1  0
 17 19  1  0
 18 20  1  0
 22 23  2  0
 22 26  1  0
 23 24  1  0
 23 25  1  0
 25 27  2  0
 26 28  2  0
 27 28  1  0
 27 29  1  0
M  END
>  <DRUGBANK_ID>  (1) 
DB06586

>  <COMMON_NAME>  (1) 
Cetilistat

>  <CAS_NUMBER>  (1) 
282526-98-1

>  <UNII>  (1) 
LC5G1JUA39

>  <SYNONYMS>  (1) 
Cetilistat

$$$$
