
     RDKit          3D

 21 24  0  0  0  0  0  0  0  0999 V2000
    1.1248   -0.0542   -0.0529 O   0  0  0  0  0  0  0  0  0  0  0  0
    3.7314    0.9912   -3.2309 N   0  0  0  0  0  0  0  0  0  0  0  0
    4.8641   -2.9944    3.2676 N   0  0  0  0  0  0  0  0  0  0  0  0
    5.8407   -1.2435    4.2400 N   0  0  0  0  0  0  0  0  0  0  0  0
    3.1271    0.0733   -1.2764 C   0  0  0  0  0  0  0  0  0  0  0  0
    4.2971   -0.6068   -1.7745 C   0  0  0  0  0  0  0  0  0  0  0  0
    4.6393   -0.0175   -2.9961 C   0  0  0  0  0  0  0  0  0  0  0  0
    2.3515   -0.1112   -0.0351 C   0  0  0  0  0  0  0  0  0  0  0  0
    3.0583   -0.2819    1.3088 C   0  0  1  0  0  0  0  0  0  0  0  0
    2.8076    1.0418   -2.2220 C   0  0  0  0  0  0  0  0  0  0  0  0
    4.4115   -1.8367    2.7035 C   0  0  0  0  0  0  0  0  0  0  0  0
    5.0484   -0.7463    3.2491 C   0  0  0  0  0  0  0  0  0  0  0  0
    3.4045   -1.7506    1.6176 C   0  0  0  0  0  0  0  0  0  0  0  0
    5.1254   -1.6681   -1.3463 C   0  0  0  0  0  0  0  0  0  0  0  0
    4.2626    0.6901    1.4389 C   0  0  0  0  0  0  0  0  0  0  0  0
    5.7408   -0.4588   -3.7567 C   0  0  0  0  0  0  0  0  0  0  0  0
    4.8609    0.6666    2.8554 C   0  0  0  0  0  0  0  0  0  0  0  0
    6.2238   -2.1071   -2.0732 C   0  0  0  0  0  0  0  0  0  0  0  0
    6.5264   -1.5082   -3.2732 C   0  0  0  0  0  0  0  0  0  0  0  0
    5.7052   -2.6070    4.2041 C   0  0  0  0  0  0  0  0  0  0  0  0
    3.7831    1.8787   -4.3728 C   0  0  0  0  0  0  0  0  0  0  0  0
  1  8  2  0
  2  7  1  0
  2 10  1  0
  2 21  1  0
  3 11  1  0
  3 20  2  0
  4 12  1  0
  4 20  1  0
  5  6  1  0
  5  8  1  0
  5 10  2  0
  6  7  2  0
  6 14  1  0
  7 16  1  0
  9  8  1  6
  9 13  1  0
  9 15  1  0
 11 12  2  0
 11 13  1  0
 12 17  1  0
 14 18  2  0
 15 17  1  0
 16 19  2  0
 18 19  1  0
M  END
>  <DRUGBANK_ID>  (1) 
DB09290

>  <COMMON_NAME>  (1) 
Ramosetron

>  <CAS_NUMBER>  (1) 
132036-88-5

>  <UNII>  (1) 
7ZRO0SC54Y

>  <SYNONYMS>  (1) 
Ramosetron

$$$$
