
     RDKit          3D

 23 24  0  0  0  0  0  0  0  0999 V2000
    0.9170    0.0430    0.0066 C   0  0  0  0  0  0  0  0  0  0  0  0
    5.5525   -0.1445    1.3357 C   0  0  0  0  0  0  0  0  0  0  0  0
    0.5905   -1.4390   -0.0999 C   0  0  0  0  0  0  0  0  0  0  0  0
    3.1871   -3.6643    1.1865 C   0  0  0  0  0  0  0  0  0  0  0  0
    4.5413   -3.7811    1.5723 C   0  0  0  0  0  0  0  0  0  0  0  0
    0.1220   -2.9137    1.8834 C   0  0  0  0  0  0  0  0  0  0  0  0
    0.1036   -4.4487    1.9035 C   0  0  0  0  0  0  0  0  0  0  0  0
    3.3657   -1.3385    1.2916 C   0  0  0  0  0  0  0  0  0  0  0  0
   10.8622   -2.9573    1.8682 C   0  0  0  0  0  0  0  0  0  0  0  0
    4.7739   -1.4240    1.4492 C   0  0  0  0  0  0  0  0  0  0  0  0
    2.5171   -2.4385    1.1394 C   0  0  0  0  0  0  0  0  0  0  0  0
    5.3801   -2.6691    1.6688 C   0  0  0  0  0  0  0  0  0  0  0  0
   11.1514   -1.9208    2.7192 C   0  0  0  0  0  0  0  0  0  0  0  0
    8.8111   -2.1332    2.1222 C   0  0  0  0  0  0  0  0  0  0  0  0
    9.5293   -3.0683    1.5222 N   0  0  0  0  0  0  0  0  0  0  0  0
    6.7576   -2.9331    1.9017 N   0  0  0  0  0  0  0  0  0  0  0  0
    7.4691   -1.9195    2.0475 N   0  0  0  0  0  0  0  0  0  0  0  0
    1.1399   -2.3045    0.9709 N   0  0  0  0  0  0  0  0  0  0  0  0
   12.4373   -1.6032    3.2539 N   0  0  0  0  0  0  0  0  0  0  0  0
    1.1860   -4.9587    2.6755 O   0  0  0  0  0  0  0  0  0  0  0  0
   12.5306   -0.6269    4.0160 O   0  0  0  0  0  0  0  0  0  0  0  0
   13.3688   -2.3378    2.9155 O   0  0  0  0  0  0  0  0  0  0  0  0
    9.7574   -1.0275    3.0813 S   0  0  0  0  0  0  0  0  0  0  0  0
  3  1  1  0
  5  4  2  0
  7  6  1  0
 10  2  1  0
 10  8  1  0
 11  4  1  0
 11  8  2  0
 12  5  1  0
 12 10  2  0
 13  9  2  0
 15  9  1  0
 15 14  2  0
 16 12  1  0
 17 14  1  0
 17 16  2  0
 18  3  1  0
 18  6  1  0
 18 11  1  0
 19 13  1  0
 20  7  1  0
 21 19  1  0
 22 19  2  0
 23 13  1  0
 23 14  1  0
M  CHG  2  19   1  21  -1
M  END
>  <DRUGBANK_ID>  (1) 
DB14203

>  <COMMON_NAME>  (1) 
Disperse Blue 106

>  <CAS_NUMBER>  (1) 
68516-81-4

>  <UNII>  (1) 
C48O4QYD6N

>  <SYNONYMS>  (1) 
5-Nitro-2-(2-methyl-4-(N-ethyl-N-(2-hydroxyethyl)amino)phenylazo)thiazole; C.I. Disperse Blue 106; C.I. Disperse Blue 357; Disperse Blue 357

$$$$
