1255
     RDKit          3D

 19 19  0  0  0  0  0  0  0  0999 V2000
   -1.9988   11.8837   -1.0886 C   0  0  0  0  0  0  0  0  0  0  0  0
   -2.5754   12.4734   -2.2166 C   0  0  0  0  0  0  0  0  0  0  0  0
   -2.7735   11.7260   -3.3775 C   0  0  0  0  0  0  0  0  0  0  0  0
   -2.3091   10.4190   -3.4452 C   0  0  0  0  0  0  0  0  0  0  0  0
   -1.6470    9.8719   -2.3524 C   0  0  0  0  0  0  0  0  0  0  0  0
   -1.6003   10.5436   -1.1256 C   0  0  0  0  0  0  0  0  0  0  0  0
   -1.2008    9.8041    0.1355 C   0  0  0  0  0  0  0  0  0  0  0  0
   -2.1695    8.6372    0.5040 C   0  0  1  0  0  0  0  0  0  0  0  0
   -2.1855    7.5704   -0.5137 N   0  0  0  0  0  0  0  0  0  0  0  0
   -1.8221    6.2592   -0.3254 C   0  0  0  0  0  0  0  0  0  0  0  0
   -1.7163    5.3788   -1.5661 C   0  0  2  0  0  0  0  0  0  0  0  0
   -0.2572    4.8785   -1.6253 C   0  0  0  0  0  0  0  0  0  0  0  0
   -0.1279    3.4607   -2.1801 C   0  0  0  0  0  0  0  0  0  0  0  0
   -0.6558    3.3283   -3.6081 C   0  0  0  0  0  0  0  0  0  0  0  0
    0.0380    4.2775   -4.5886 C   0  0  0  0  0  0  0  0  0  0  0  0
   -1.8102    8.1067    1.8892 C   0  0  0  0  0  0  0  0  0  0  0  0
   -1.5353    5.7620    0.7679 O   0  0  0  0  0  0  0  0  0  0  0  0
   -2.1295    6.0562   -2.8092 N   0  0  0  0  0  0  0  0  0  0  0  0
    1.4683    3.9958   -4.6703 N   0  0  0  0  0  0  0  0  0  0  0  0
  1  2  2  0
  1  6  1  0
  2  3  1  0
  3  4  2  0
  4  5  1  0
  5  6  2  0
  6  7  1  0
  7  8  1  0
  8  9  1  0
  8 16  1  1
  9 10  1  0
 10 17  2  0
 11 18  1  6
 11 12  1  0
 11 10  1  0
 12 13  1  0
 13 14  1  0
 14 15  1  0
 15 19  1  0
M  END
>  <DRUGBANK_ID>  (1) 
DB01255

>  <COMMON_NAME>  (1) 
Lisdexamfetamine

>  <CAS_NUMBER>  (1) 
608137-32-2

>  <UNII>  (1) 
H645GUL8KJ

>  <SYNONYMS>  (1) 
Lisdexamfetamine

$$$$
