1439
     RDKit          3D

 25 27  0  0  1  0  0  0  0  0999 V2000
   -0.8696   -0.0952    0.6624 S   0  0  0  0  0  0  0  0  0  0  0  0
   -0.1340    2.4958   -5.0787 O   0  0  0  0  0  0  0  0  0  0  0  0
   -2.4074    2.5493   -1.2941 N   0  0  0  0  0  0  0  0  0  0  0  0
   -2.3186    1.8928   -5.5773 N   0  0  0  0  0  0  0  0  0  0  0  0
   -2.7565    2.0423   -4.1806 C   0  0  0  0  0  0  0  0  0  0  0  0
   -2.2735    0.8856   -3.2720 C   0  0  0  0  0  0  0  0  0  0  0  0
   -2.4578    3.4267   -3.5987 C   0  0  0  0  0  0  0  0  0  0  0  0
   -2.7271    1.2054   -1.8390 C   0  0  0  0  0  0  0  0  0  0  0  0
   -3.0227    3.5453   -2.1879 C   0  0  0  0  0  0  0  0  0  0  0  0
   -0.7878    0.5241   -3.3127 C   0  0  0  0  0  0  0  0  0  0  0  0
   -0.9953    2.9680   -1.0949 C   0  0  0  0  0  0  0  0  0  0  0  0
   -0.2318    2.5753    0.1679 C   0  0  0  0  0  0  0  0  0  0  0  0
   -3.3635    1.8565   -6.5389 C   0  0  0  0  0  0  0  0  0  0  0  0
   -0.9736    2.0956   -5.9110 C   0  0  0  0  0  0  0  0  0  0  0  0
   -0.4378    1.9213   -7.3144 C   0  0  0  0  0  0  0  0  0  0  0  0
    0.2091    1.1546    0.2190 C   0  0  0  0  0  0  0  0  0  0  0  0
   -4.2104    2.9502   -6.7337 C   0  0  0  0  0  0  0  0  0  0  0  0
   -3.5482    0.7235   -7.3167 C   0  0  0  0  0  0  0  0  0  0  0  0
   -0.6183    0.5738   -7.9690 C   0  0  0  0  0  0  0  0  0  0  0  0
   -5.0768    2.9718   -7.8299 C   0  0  0  0  0  0  0  0  0  0  0  0
   -4.2715    0.8101   -8.5040 C   0  0  0  0  0  0  0  0  0  0  0  0
    1.4840    0.6545    0.0470 C   0  0  0  0  0  0  0  0  0  0  0  0
   -5.0519    1.9308   -8.7553 C   0  0  0  0  0  0  0  0  0  0  0  0
    1.4959   -0.7692    0.0225 C   0  0  0  0  0  0  0  0  0  0  0  0
    0.2292   -1.2930    0.1477 C   0  0  0  0  0  0  0  0  0  0  0  0
  1 16  1  0
  1 25  1  0
  2 14  2  0
  3  8  1  0
  3  9  1  0
  3 11  1  0
  4  5  1  0
  4 13  1  0
  4 14  1  0
  5  6  1  0
  5  7  1  0
  6  8  1  0
  6 10  1  0
  7  9  1  0
 11 12  1  0
 12 16  1  0
 13 17  2  0
 13 18  1  0
 14 15  1  0
 15 19  1  0
 16 22  2  0
 17 20  1  0
 18 21  2  0
 20 23  2  0
 21 23  1  0
 22 24  1  0
 24 25  2  0
M  END
>  <DRUGBANK_ID>  (1) 
DB01439

>  <COMMON_NAME>  (1) 
3-Methylthiofentanyl

>  <CAS_NUMBER>  (1) 
86052-04-2

>  <UNII>  (1) 
C9C204973M

>  <SYNONYMS>  (1) 
3-Methyl-thiofentanyl

$$$$
