
     RDKit          3D

 18 17  0  0  0  0  0  0  0  0999 V2000
   -1.2781   -0.0166    0.0510 N   0  0  0  0  0  0  0  0  0  0  0  0
   -2.7171   -0.0319   -0.4112 C   0  0  0  0  0  0  0  0  0  0  0  0
   -0.6614    1.1812    0.2311 C   0  0  0  0  0  0  0  0  0  0  0  0
   -0.5392   -1.1504    0.1868 C   0  0  0  0  0  0  0  0  0  0  0  0
   -3.1612   -0.6405   -1.7939 C   0  0  0  0  0  0  0  0  0  0  0  0
    0.7305    1.2678    0.3022 C   0  0  0  0  0  0  0  0  0  0  0  0
    0.8440   -1.1120    0.3967 C   0  0  0  0  0  0  0  0  0  0  0  0
   -4.0655   -1.6991   -1.8763 N   0  0  0  0  0  0  0  0  0  0  0  0
   -2.8146   -0.1352   -2.8355 O   0  0  0  0  0  0  0  0  0  0  0  0
    1.4942    0.1103    0.3525 C   0  0  0  0  0  0  0  0  0  0  0  0
   -4.2891   -2.5708   -3.0395 C   0  0  0  0  0  0  0  0  0  0  0  0
   -3.6963   -3.9860   -2.8482 C   0  0  0  0  0  0  0  0  0  0  0  0
   -4.3218   -4.7372   -1.7601 O   0  0  0  0  0  0  0  0  0  0  0  0
   -4.1211   -4.6241   -0.4296 C   0  0  0  0  0  0  0  0  0  0  0  0
   -3.3343   -3.4730    0.1111 C   0  0  0  0  0  0  0  0  0  0  0  0
   -4.6678   -5.3906    0.3621 O   0  0  0  0  0  0  0  0  0  0  0  0
   -4.2737   -2.5857    0.9527 C   0  0  0  0  0  0  0  0  0  0  0  0
    0.4116   -0.0479   -2.9869 Cl  0  0  0  0  0  0  0  0  0  0  0  0
  1  2  1  0
  1  3  2  0
  1  4  1  0
  2  5  1  0
  3  6  1  0
  4  7  2  0
  5  8  1  0
  5  9  2  0
  6 10  2  0
  7 10  1  0
  8 11  1  0
 11 12  1  0
 12 13  1  0
 13 14  1  0
 14 15  1  0
 14 16  2  0
 15 17  1  0
M  CHG  2   1   1  18  -1
M  END
>  <DRUGBANK_ID>  (1) 
DB09377

>  <COMMON_NAME>  (1) 
Undecoylium chloride iodine complex

>  <CAS_NUMBER>  (1) 
1338-54-1

>  <UNII>  (1) 
O4CEK7FP0D

>  <SYNONYMS>  (1) 
Undecoylium chloride-iodine

$$$$
