
     RDKit          3D

 18 19  0  0  1  0  0  0  0  0999 V2000
    0.9882   -0.1200    0.0520 C   0  0  0  0  0  0  0  0  0  0  0  0
    0.5449   -1.5367    0.2123 C   0  0  0  0  0  0  0  0  0  0  0  0
    1.3774   -2.5685    0.4026 C   0  0  0  0  0  0  0  0  0  0  0  0
    0.9634   -3.8854    0.3116 N   0  0  0  0  0  0  0  0  0  0  0  0
    1.9511   -4.9451    0.0652 C   0  0  2  0  0  0  0  0  0  0  0  0
    2.8628   -5.1211    1.1696 O   0  0  0  0  0  0  0  0  0  0  0  0
    4.1134   -5.6428    0.6163 C   0  0  2  0  0  0  0  0  0  0  0  0
    5.2513   -4.7255    1.0831 C   0  0  0  0  0  0  0  0  0  0  0  0
    5.3995   -4.7882    2.5004 O   0  0  0  0  0  0  0  0  0  0  0  0
    3.9811   -5.6602   -0.9147 C   0  0  1  0  0  0  0  0  0  0  0  0
    3.7085   -6.9723   -1.4113 O   0  0  0  0  0  0  0  0  0  0  0  0
    2.8390   -4.7069   -1.1628 C   0  0  2  0  0  0  0  0  0  0  0  0
    3.3658   -3.4479   -1.1625 F   0  0  0  0  0  0  0  0  0  0  0  0
   -0.3860   -4.1952    0.1576 C   0  0  0  0  0  0  0  0  0  0  0  0
   -0.8128   -5.3190   -0.0961 O   0  0  0  0  0  0  0  0  0  0  0  0
   -1.2517   -3.1343    0.2522 N   0  0  0  0  0  0  0  0  0  0  0  0
   -0.8993   -1.8268    0.0931 C   0  0  0  0  0  0  0  0  0  0  0  0
   -1.7246   -0.9463   -0.1391 O   0  0  0  0  0  0  0  0  0  0  0  0
  1  2  1  0
  2  3  2  0
  2 17  1  0
  3  4  1  0
  4 14  1  0
  5  4  1  1
  5  6  1  0
  7  6  1  0
  7  8  1  6
  8  9  1  0
 10  7  1  0
 10 12  1  0
 10 11  1  1
 12  5  1  0
 12 13  1  1
 14 15  2  0
 14 16  1  0
 16 17  1  0
 17 18  2  0
M  ISO  1  13  18
M  END
>  <DRUGBANK_ID>  (1) 
DB14913

>  <COMMON_NAME>  (1) 
5-methyl-2'-fluoroarauracil F-18

>  <CAS_NUMBER>  (1) 
241144-93-4

>  <UNII>  (1) 
J932A2CDQO

>  <SYNONYMS>  (1) 
18F-FMAU

$$$$
