CDU
     RDKit          3D

 20 20  0  0  0  0  0  0  0  0999 V2000
   -1.4465    0.3228   -0.1265 C   0  0  0  0  0  0  0  0  0  0  0  0
   -1.0106   -1.0835    0.2891 C   0  0  0  0  0  0  0  0  0  0  0  0
    0.4207   -1.4070   -0.1424 C   0  0  0  0  0  0  0  0  0  0  0  0
    1.4101   -0.3854    0.4266 C   0  0  0  0  0  0  0  0  0  0  0  0
    0.9282    1.0194    0.0985 C   0  0  0  0  0  0  0  0  0  0  0  0
   -0.5011    1.3894    0.4432 C   0  0  0  0  0  0  0  0  0  0  0  0
    1.9045    2.0553    0.3256 N   0  0  0  0  0  0  0  0  0  0  0  0
    2.6226    2.7958   -0.5278 C   0  0  0  0  0  0  0  0  0  0  0  0
    3.4033    3.6491   -0.0699 O   0  0  0  0  0  0  0  0  0  0  0  0
    2.5505    2.6631   -1.8514 N   0  0  0  0  0  0  0  0  0  0  0  0
    1.7847    1.8205   -2.7388 C   0  0  0  0  0  0  0  0  0  0  0  0
    0.7280    2.6239   -3.4676 C   0  0  0  0  0  0  0  0  0  0  0  0
    1.4118    3.3356   -4.6180 C   0  0  0  0  0  0  0  0  0  0  0  0
    2.1531    2.3078   -5.4916 C   0  0  0  0  0  0  0  0  0  0  0  0
    1.1821    1.2482   -6.0324 C   0  0  0  0  0  0  0  0  0  0  0  0
    0.1255    1.9312   -6.8999 C   0  0  0  0  0  0  0  0  0  0  0  0
    0.8067    2.6916   -8.0440 C   0  0  0  0  0  0  0  0  0  0  0  0
    1.5988    1.7329   -8.9411 C   0  0  0  0  0  0  0  0  0  0  0  0
    0.6898    0.6649   -9.5494 C   0  0  0  0  0  0  0  0  0  0  0  0
   -0.3963    1.3129  -10.3923 C   0  0  0  0  0  0  0  0  0  0  0  0
  1  2  1  0
  1  6  1  0
  2  3  1  0
  3  4  1  0
  4  5  1  0
  5  6  1  0
  5  7  1  0
  7  8  1  0
  8  9  2  0
  8 10  1  0
 10 11  1  0
 11 12  1  0
 12 13  1  0
 13 14  1  0
 14 15  1  0
 15 16  1  0
 16 17  1  0
 17 18  1  0
 18 19  1  0
 19 20  1  0
M  END
>  <DRUGBANK_ID>  (1) 
DB03677

>  <SECONDARY_ACCESSION_NUMBERS>  (1) 
EXPT00878

>  <COMMON_NAME>  (1) 
N-Cyclohexyl-N'-Decylurea

$$$$
