
     RDKit          3D

 24 28  0  0  0  0  0  0  0  0999 V2000
    1.0735   -0.0083   -0.0406 O   0  0  0  0  0  0  0  0  0  0  0  0
    2.2862   -0.0502   -0.0408 C   0  0  0  0  0  0  0  0  0  0  0  0
    3.0865    1.0794   -0.0402 N   0  0  0  0  0  0  0  0  0  0  0  0
    4.4643    1.1160   -0.0438 N   0  0  0  0  0  0  0  0  0  0  0  0
    5.1069   -0.0196   -0.0463 C   0  0  0  0  0  0  0  0  0  0  0  0
    6.4864   -0.1299   -0.0487 N   0  0  0  0  0  0  0  0  0  0  0  0
    7.1797   -1.3314   -0.0379 C   0  0  0  0  0  0  0  0  0  0  0  0
    8.7284   -1.4011    0.0123 C   0  0  0  0  0  0  0  0  0  0  0  0
    9.4502   -0.9493   -1.2147 N   0  0  0  0  0  0  0  0  0  0  0  0
   10.7464   -1.7167   -1.3160 C   0  0  0  0  0  0  0  0  0  0  0  0
   10.3267   -2.9999   -2.0069 C   0  0  0  0  0  0  0  0  0  0  0  0
    9.1151   -2.7863   -2.6495 C   0  0  0  0  0  0  0  0  0  0  0  0
    8.7390   -1.3619   -2.4715 C   0  0  0  0  0  0  0  0  0  0  0  0
    8.3568   -3.8161   -3.1639 C   0  0  0  0  0  0  0  0  0  0  0  0
    8.7559   -5.1163   -2.8740 C   0  0  0  0  0  0  0  0  0  0  0  0
    9.9514   -5.3528   -2.1778 C   0  0  0  0  0  0  0  0  0  0  0  0
   10.8012   -4.2938   -1.8323 C   0  0  0  0  0  0  0  0  0  0  0  0
    6.5544   -2.4824   -0.0410 N   0  0  0  0  0  0  0  0  0  0  0  0
    5.1449   -2.4780   -0.0471 C   0  0  0  0  0  0  0  0  0  0  0  0
    4.3895   -1.3046   -0.0453 C   0  0  0  0  0  0  0  0  0  0  0  0
    3.0056   -1.3308   -0.0424 C   0  0  0  0  0  0  0  0  0  0  0  0
    2.3259   -2.5504   -0.0413 C   0  0  0  0  0  0  0  0  0  0  0  0
    3.0600   -3.7373   -0.0417 C   0  0  0  0  0  0  0  0  0  0  0  0
    4.4607   -3.6967   -0.0441 C   0  0  0  0  0  0  0  0  0  0  0  0
  1  2  2  0
  2  3  1  0
  2 21  1  0
  3  4  1  0
  4  5  2  0
  5  6  1  0
  5 20  1  0
  6  7  1  0
  7  8  1  0
  7 18  2  0
  8  9  1  0
  9 10  1  0
  9 13  1  0
 10 11  1  0
 11 12  2  0
 11 17  1  0
 12 13  1  0
 12 14  1  0
 14 15  2  0
 15 16  1  0
 16 17  2  0
 18 19  1  0
 19 20  1  0
 19 24  2  0
 20 21  2  0
 21 22  1  0
 22 23  2  0
 23 24  1  0
M  END
>  <DRUGBANK_ID>  (1) 
DB16063

>  <COMMON_NAME>  (1) 
2X-121

>  <CAS_NUMBER>  (1) 
1140964-99-3

>  <UNII>  (1) 
9X5A2QIA7C

$$$$
