
     RDKit          3D

 33 35  0  0  0  0  0  0  0  0999 V2000
   -2.2022    1.7481   -0.6744 C   0  0  0  0  0  0  0  0  0  0  0  0
   -1.4750    0.5270   -0.3385 C   0  0  0  0  0  0  0  0  0  0  0  0
   -2.3713   -0.4817   -0.1312 C   0  0  0  0  0  0  0  0  0  0  0  0
   -1.9078   -1.7489    0.0251 C   0  0  0  0  0  0  0  0  0  0  0  0
   -0.5842   -1.9917    0.0424 N   0  0  0  0  0  0  0  0  0  0  0  0
    0.3170   -0.9446    0.0088 C   0  0  0  0  0  0  0  0  0  0  0  0
   -0.0939    0.4272   -0.0967 C   0  0  0  0  0  0  0  0  0  0  0  0
    0.8713    1.5166    0.0193 C   0  0  0  0  0  0  0  0  0  0  0  0
    2.2354    1.1877    0.0726 C   0  0  0  0  0  0  0  0  0  0  0  0
    2.6165   -0.1599    0.0935 C   0  0  0  0  0  0  0  0  0  0  0  0
    1.6984   -1.2207    0.0480 C   0  0  0  0  0  0  0  0  0  0  0  0
    2.1206   -2.5595    0.0577 N   0  0  0  0  0  0  0  0  0  0  0  0
    3.4876   -3.0532   -0.0371 C   0  0  0  0  0  0  0  0  0  0  0  0
    3.7835   -3.9289    1.1726 C   0  0  0  0  0  0  0  0  0  0  0  0
    3.7200   -3.8305   -1.3433 C   0  0  0  0  0  0  0  0  0  0  0  0
    3.5085   -2.9725   -2.5985 C   0  0  0  0  0  0  0  0  0  0  0  0
    4.3999   -1.7299   -2.6572 C   0  0  0  0  0  0  0  0  0  0  0  0
    5.8191   -2.0701   -2.6484 N   0  0  0  0  0  0  0  0  0  0  0  0
    3.3312    2.0233    0.0710 O   0  0  0  0  0  0  0  0  0  0  0  0
    3.1312    3.4302    0.0758 C   0  0  0  0  0  0  0  0  0  0  0  0
    0.6598    2.8949   -0.0376 O   0  0  0  0  0  0  0  0  0  0  0  0
   -0.4352    3.6334    0.3394 C   0  0  0  0  0  0  0  0  0  0  0  0
   -1.1487    3.4836    1.5380 C   0  0  0  0  0  0  0  0  0  0  0  0
   -2.5148    3.8690    1.5515 C   0  0  0  0  0  0  0  0  0  0  0  0
   -3.0766    4.5559    0.4646 C   0  0  0  0  0  0  0  0  0  0  0  0
   -2.2635    4.9603   -0.6032 C   0  0  0  0  0  0  0  0  0  0  0  0
   -0.9505    4.4577   -0.6812 C   0  0  0  0  0  0  0  0  0  0  0  0
   -2.7857    5.9070   -1.6494 C   0  0  0  0  0  0  0  0  0  0  0  0
   -2.0174    7.0287   -1.7095 F   0  0  0  0  0  0  0  0  0  0  0  0
   -2.8074    5.3927   -2.9080 F   0  0  0  0  0  0  0  0  0  0  0  0
   -4.0534    6.3372   -1.3965 F   0  0  0  0  0  0  0  0  0  0  0  0
   -2.8019   -2.7931    0.0993 O   0  0  0  0  0  0  0  0  0  0  0  0
   -4.1861   -2.3869    0.0402 C   0  0  0  0  0  0  0  0  0  0  0  0
  1  2  1  0
  2  3  2  0
  2  7  1  0
  3  4  1  0
  4  5  2  0
  4 32  1  0
  5  6  1  0
  6  7  2  0
  6 11  1  0
  7  8  1  0
  8  9  2  0
  8 21  1  0
  9 10  1  0
  9 19  1  0
 10 11  2  0
 11 12  1  0
 12 13  1  0
 13 14  1  0
 13 15  1  0
 15 16  1  0
 16 17  1  0
 17 18  1  0
 19 20  1  0
 21 22  1  0
 22 23  2  0
 22 27  1  0
 23 24  1  0
 24 25  2  0
 25 26  1  0
 26 27  2  0
 26 28  1  0
 28 29  1  0
 28 30  1  0
 28 31  1  0
 32 33  1  0
M  END
>  <DRUGBANK_ID>  (1) 
DB06608

>  <COMMON_NAME>  (1) 
Tafenoquine

>  <CAS_NUMBER>  (1) 
106635-80-7

>  <UNII>  (1) 
262P8GS9L9

>  <SYNONYMS>  (1) 
Tafenoquine

$$$$
