
     RDKit          3D

 24 27  0  0  1  0  0  0  0  0999 V2000
   -0.7103    0.7743    1.4849 C   0  0  2  0  0  0  0  0  0  0  0  0
    0.7066    1.1079    0.6521 C   0  0  2  0  0  0  0  0  0  0  0  0
    1.4985    2.1620    1.5485 N   0  0  0  0  0  0  0  0  0  0  0  0
    2.7052    2.6318    0.8259 C   0  0  0  0  0  0  0  0  0  0  0  0
    2.4938    3.4600   -0.4139 C   0  0  0  0  0  0  0  0  0  0  0  0
    1.0513    3.4259   -0.6182 C   0  0  2  0  0  0  0  0  0  0  0  0
   -0.0779    4.4658    0.7490 C   0  0  2  0  0  0  0  0  0  0  0  0
    0.7523    3.4682    2.0305 C   0  0  0  0  0  0  0  0  0  0  0  0
   -2.1934    4.5079    0.1134 C   0  0  0  0  0  0  0  0  0  0  0  0
   -2.7031    3.6479   -1.4115 C   0  0  0  0  0  0  0  0  0  0  0  0
    0.5963    1.6487   -0.8449 C   0  0  0  0  0  0  0  0  0  0  0  0
   -1.5992    1.9037    2.0347 C   0  0  0  0  0  0  0  0  0  0  0  0
   -2.3851    1.9433    3.1577 C   0  0  0  0  0  0  0  0  0  0  0  0
   -3.0440    3.1465    3.5886 C   0  0  0  0  0  0  0  0  0  0  0  0
   -2.8895    4.4514    3.1882 N   0  0  0  0  0  0  0  0  0  0  0  0
   -2.0304    4.6319    2.2097 C   0  0  0  0  0  0  0  0  0  0  0  0
   -1.7840    6.1593    1.4097 C   0  0  0  0  0  0  0  0  0  0  0  0
   -1.0904    6.3400   -0.1610 C   0  0  0  0  0  0  0  0  0  0  0  0
   -0.6799    4.9125   -1.0364 C   0  0  0  0  0  0  0  0  0  0  0  0
    0.0515    5.0530   -2.1767 O   0  0  0  0  0  0  0  0  0  0  0  0
    0.2347    6.3336   -2.6948 C   0  0  0  0  0  0  0  0  0  0  0  0
   -0.9940    3.2121   -0.2285 C   0  0  0  0  0  0  0  0  0  0  0  0
   -1.5762    3.1276    1.4435 C   0  0  0  0  0  0  0  0  0  0  0  0
   -0.2143    0.1263    2.6625 O   0  0  0  0  0  0  0  0  0  0  0  0
  1 12  1  0
  1 24  1  1
  2  3  1  0
  2 11  1  6
  2  1  1  0
  3  4  1  0
  3  8  1  0
  4  5  1  0
  6  5  1  1
  6  7  1  0
  7  9  1  6
  8  7  1  0
  9 10  1  0
 11  6  1  0
 12 13  2  0
 12 23  1  0
 13 14  1  0
 14 15  2  0
 16 15  1  0
 16 17  2  0
 17 18  1  0
 19 18  2  0
 19 20  1  0
 20 21  1  0
 22 19  1  0
 23 22  2  0
 23 16  1  0
M  END
>  <DRUGBANK_ID>  (1) 
DB15300

>  <COMMON_NAME>  (1) 
Hydroquinidine

>  <CAS_NUMBER>  (1) 
1435-55-8

>  <UNII>  (1) 
8P68XPY4HG

$$$$
