BPG
     RDKit          3D

 22 24  0  0  0  0  0  0  0  0999 V2000
    1.0391   -0.0008   -0.0662 C   0  0  0  0  0  0  0  0  0  0  0  0
    0.5752   -1.3370   -0.0114 O   0  0  0  0  0  0  0  0  0  0  0  0
    0.5585    0.7622    1.1595 C   0  0  0  0  0  0  0  0  0  0  0  0
    1.0440    2.2142    1.1398 C   0  0  0  0  0  0  0  0  0  0  0  0
    0.4656    3.0043   -0.0382 C   0  0  0  0  0  0  0  0  0  0  0  0
   -0.9838    3.0337   -0.0602 N   0  0  0  0  0  0  0  0  0  0  0  0
   -1.8264    3.2868    0.9878 C   0  0  0  0  0  0  0  0  0  0  0  0
   -1.4775    3.6049    2.2530 N   0  0  0  0  0  0  0  0  0  0  0  0
   -2.4717    3.7619    3.0934 C   0  0  0  0  0  0  0  0  0  0  0  0
   -2.2716    4.0747    4.4263 N   0  0  0  0  0  0  0  0  0  0  0  0
   -3.7954    3.6153    2.6784 N   0  0  0  0  0  0  0  0  0  0  0  0
   -4.1965    3.3044    1.3832 C   0  0  0  0  0  0  0  0  0  0  0  0
   -5.3905    3.2210    1.0789 O   0  0  0  0  0  0  0  0  0  0  0  0
   -3.0897    3.1116    0.4793 C   0  0  0  0  0  0  0  0  0  0  0  0
   -3.0541    2.7651   -0.8490 N   0  0  0  0  0  0  0  0  0  0  0  0
   -1.7696    2.7174   -1.1414 C   0  0  0  0  0  0  0  0  0  0  0  0
    1.7096    4.2795    5.7718 C   0  0  0  0  0  0  0  0  0  0  0  0
    1.2128    5.2600    4.9216 C   0  0  0  0  0  0  0  0  0  0  0  0
   -0.1019    5.1723    4.4674 C   0  0  0  0  0  0  0  0  0  0  0  0
   -0.9847    4.2166    4.9852 C   0  0  0  0  0  0  0  0  0  0  0  0
   -0.5132    3.3387    5.9668 C   0  0  0  0  0  0  0  0  0  0  0  0
    0.8572    3.2858    6.2487 C   0  0  0  0  0  0  0  0  0  0  0  0
  1  2  1  0
  1  3  1  0
  3  4  1  0
  4  5  1  0
  5  6  1  0
  6  7  1  0
  6 16  1  0
  7  8  1  0
  7 14  2  0
  8  9  2  0
  9 10  1  0
  9 11  1  0
 10 20  1  0
 11 12  1  0
 12 13  2  0
 12 14  1  0
 14 15  1  0
 15 16  2  0
 17 18  2  0
 17 22  1  0
 18 19  1  0
 19 20  2  0
 20 21  1  0
 21 22  2  0
M  END
>  <DRUGBANK_ID>  (1) 
DB02495

>  <SECONDARY_ACCESSION_NUMBERS>  (1) 
EXPT00745

>  <COMMON_NAME>  (1) 
9-(4-hydroxybutyl)-N2-phenylguanine

>  <SYNONYMS>  (1) 
HBPG

$$$$
