
     RDKit          3D

 22 25  0  0  0  0  0  0  0  0999 V2000
    0.0999   -0.8984    0.7094 O   0  0  0  0  0  0  0  0  0  0  0  0
    1.9307   -1.7498    1.6620 O   0  0  0  0  0  0  0  0  0  0  0  0
    5.0055   -4.4954    2.2090 O   0  0  0  0  0  0  0  0  0  0  0  0
    1.0238    0.5656    3.2894 C   0  0  2  0  0  0  0  0  0  0  0  0
    1.2556    1.6481    2.3824 C   0  0  1  0  0  0  0  0  0  0  0  0
    1.8171   -0.6793    3.7739 C   0  0  2  0  0  0  0  0  0  0  0  0
    3.6175   -0.8052    3.5205 C   0  0  2  0  0  0  0  0  0  0  0  0
    4.2845   -2.2977    4.4974 C   0  0  1  0  0  0  0  0  0  0  0  0
    3.0126    1.7574    2.7097 C   0  0  0  0  0  0  0  0  0  0  0  0
    3.9116    0.7702    3.7627 C   0  0  0  0  0  0  0  0  0  0  0  0
   -0.0500    0.4715    1.3752 C   0  0  2  0  0  0  0  0  0  0  0  0
   -0.6001    0.9335    3.2315 C   0  0  0  0  0  0  0  0  0  0  0  0
    1.3627   -1.8228    2.9391 C   0  0  2  0  0  0  0  0  0  0  0  0
   -1.2927   -0.0114    2.3836 C   0  0  0  0  0  0  0  0  0  0  0  0
    3.0535   -3.0778    4.1322 C   0  0  0  0  0  0  0  0  0  0  0  0
    5.3343   -4.0066    4.4307 C   0  0  0  0  0  0  0  0  0  0  0  0
    0.9532    2.9622    3.5434 C   0  0  0  0  0  0  0  0  0  0  0  0
    2.0011   -3.0054    3.4160 C   0  0  0  0  0  0  0  0  0  0  0  0
    4.0377   -1.4588    5.8519 C   0  0  0  0  0  0  0  0  0  0  0  0
    3.1476   -4.4553    4.4226 C   0  0  0  0  0  0  0  0  0  0  0  0
    4.5788   -5.7165    3.8889 C   0  0  0  0  0  0  0  0  0  0  0  0
    3.8369   -4.8586    2.9867 C   0  0  2  0  0  0  0  0  0  0  0  0
  4  5  1  0
  4  6  1  0
  4 12  1  6
  5  9  1  0
  5 11  1  0
  5 17  1  1
  6  7  1  0
  6 13  1  6
  7  8  1  0
  7 10  1  1
  8 15  1  0
  8 16  1  0
  8 19  1  1
  9 10  1  0
 11 14  1  0
 11  1  1  1
 12 14  1  0
 13 18  1  0
 13  2  1  6
 15 18  2  0
 15 20  1  0
 16 21  1  0
 20 22  1  0
 21 22  1  0
 22  3  1  1
M  END
>  <DRUGBANK_ID>  (1) 
DB06257

>  <COMMON_NAME>  (1) 
HE-2200

>  <CAS_NUMBER>  (1) 
2697-85-0

>  <UNII>  (1) 
Q0CZ537GC8

>  <SYNONYMS>  (1) 
beta-Aet

$$$$
