
     RDKit          3D

 24 26  0  0  1  0  0  0  0  0999 V2000
    0.7212   -3.1148    0.2077 N   0  0  0  0  0  0  0  0  0  0  0  0
    2.0200   -2.4948    0.0332 C   0  0  1  0  0  0  0  0  0  0  0  0
   -0.1002   -3.0127    1.3011 C   0  0  0  0  0  0  0  0  0  0  0  0
    0.1280   -3.9817   -0.6736 C   0  0  0  0  0  0  0  0  0  0  0  0
    2.9870   -2.8903    1.1419 C   0  0  1  0  0  0  0  0  0  0  0  0
    2.5904   -2.9508   -1.2299 O   0  0  0  0  0  0  0  0  0  0  0  0
   -1.1492   -3.8515    1.0122 C   0  0  0  0  0  0  0  0  0  0  0  0
    0.0987   -2.2777    2.4293 N   0  0  0  0  0  0  0  0  0  0  0  0
   -1.0031   -4.4599   -0.2067 N   0  0  0  0  0  0  0  0  0  0  0  0
    3.7224   -4.0908    0.5463 C   0  0  1  0  0  0  0  0  0  0  0  0
    3.8880   -1.8494    1.5401 O   0  0  0  0  0  0  0  0  0  0  0  0
    3.6916   -3.8519   -0.9771 C   0  0  1  0  0  0  0  0  0  0  0  0
   -2.2077   -3.9855    1.9894 C   0  0  0  0  0  0  0  0  0  0  0  0
   -0.8561   -2.4128    3.3171 C   0  0  0  0  0  0  0  0  0  0  0  0
    4.9695   -4.2645    1.2022 O   0  0  0  0  0  0  0  0  0  0  0  0
    3.7483   -5.0597   -1.9148 C   0  0  0  0  0  0  0  0  0  0  0  0
   -1.9622   -3.2169    3.1242 N   0  0  0  0  0  0  0  0  0  0  0  0
   -3.2012   -4.6719    1.8713 O   0  0  0  0  0  0  0  0  0  0  0  0
   -0.8149   -1.7590    4.5036 N   0  0  0  0  0  0  0  0  0  0  0  0
    6.2114   -3.2615    1.0265 P   0  0  0  0  0  0  0  0  0  0  0  0
    3.9378   -4.5969   -3.2641 O   0  0  0  0  0  0  0  0  0  0  0  0
    7.3189   -4.3150    0.5833 O   0  0  0  0  0  0  0  0  0  0  0  0
    5.9321   -2.4748   -0.3216 O   0  0  0  0  0  0  0  0  0  0  0  0
    6.6429   -2.3663    2.1309 O   0  0  0  0  0  0  0  0  0  0  0  0
  1  3  1  0
  1  4  1  0
  2  5  1  0
  2  6  1  0
  2  1  1  1
  3  7  2  0
  3  8  1  0
  4  9  2  0
  5 10  1  0
  5 11  1  6
  6 12  1  0
  7 13  1  0
  7  9  1  0
  8 14  2  0
 10 15  1  1
 10 12  1  0
 12 16  1  6
 13 17  1  0
 13 18  2  0
 14 19  1  0
 14 17  1  0
 15 20  1  0
 16 21  1  0
 20 22  1  0
 20 23  1  0
 20 24  2  0
M  END
>  <DRUGBANK_ID>  (1) 
DB03315

>  <SECONDARY_ACCESSION_NUMBERS>  (1) 
EXPT00169

>  <COMMON_NAME>  (1) 
Guanosine 3'-monophosphate

>  <CAS_NUMBER>  (1) 
117-68-0

>  <UNII>  (1) 
839SG0O89X

>  <SYNONYMS>  (1) 
3'-GMP; 3'-Guanylic acid; Guanosine 3'-phosphate; Guanosine-3'-monophosphate; Guanylic acid

$$$$
