
     RDKit          3D

 21 23  0  0  0  0  0  0  0  0999 V2000
    1.2136   -0.2111   -0.0111 N   0  0  0  0  0  0  0  0  0  0  0  0
    0.5935    0.6090    1.0414 C   0  0  0  0  0  0  0  0  0  0  0  0
    0.9496    2.1398    1.0476 C   0  0  1  0  0  0  0  0  0  0  0  0
    0.5515    2.8677   -0.2567 C   0  0  0  0  0  0  0  0  0  0  0  0
    1.0050    4.1756   -0.5127 C   0  0  0  0  0  0  0  0  0  0  0  0
    0.5568    4.9094   -1.6092 C   0  0  0  0  0  0  0  0  0  0  0  0
   -0.1446    4.2621   -2.6117 C   0  0  0  0  0  0  0  0  0  0  0  0
   -0.5798    5.1110   -4.0378 Cl  0  0  0  0  0  0  0  0  0  0  0  0
   -0.4786    2.9234   -2.4700 C   0  0  0  0  0  0  0  0  0  0  0  0
   -0.2172    2.2674   -1.2655 C   0  0  0  0  0  0  0  0  0  0  0  0
    0.5158    2.8407    2.3664 C   0  0  0  0  0  0  0  0  0  0  0  0
    0.2457    2.1212    3.5463 C   0  0  0  0  0  0  0  0  0  0  0  0
    0.0367    2.7673    4.7739 C   0  0  0  0  0  0  0  0  0  0  0  0
    0.1260    4.1520    4.8499 C   0  0  0  0  0  0  0  0  0  0  0  0
    0.4166    4.8837    3.7161 C   0  0  0  0  0  0  0  0  0  0  0  0
    0.5267    4.2400    2.4947 C   0  0  0  0  0  0  0  0  0  0  0  0
   -0.1952    4.8898    6.0388 C   0  0  0  0  0  0  0  0  0  0  0  0
    0.3903    4.7434    7.2634 C   0  0  0  0  0  0  0  0  0  0  0  0
   -0.1444    5.7272    8.0453 N   0  0  0  0  0  0  0  0  0  0  0  0
   -1.0514    6.4916    7.4084 N   0  0  0  0  0  0  0  0  0  0  0  0
   -1.0796    5.9819    6.1776 C   0  0  0  0  0  0  0  0  0  0  0  0
  2  1  1  0
  3  2  1  6
  3  4  1  0
  3 11  1  0
  4  5  2  0
  5  6  1  0
  6  7  2  0
  7  8  1  0
  7  9  1  0
 10  4  1  0
 10  9  2  0
 11 12  2  0
 11 16  1  0
 12 13  1  0
 13 14  2  0
 14 15  1  0
 14 17  1  0
 15 16  2  0
 17 18  2  0
 17 21  1  0
 18 19  1  0
 19 20  1  0
 21 20  2  0
M  END
>  <DRUGBANK_ID>  (1) 
DB07857

>  <COMMON_NAME>  (1) 
(2R)-2-(4-chlorophenyl)-2-[4-(1H-pyrazol-4-yl)phenyl]ethanamine

$$$$
