220
     RDKit          3D

 40 43  0  0  1  0  0  0  0  0999 V2000
    0.8362   -0.6246   -0.6668 S   0  0  0  0  0  0  0  0  0  0  0  0
    3.6323    2.2181   -1.8729 O   0  0  0  0  0  0  0  0  0  0  0  0
    3.6723    2.1463    1.5115 O   0  0  0  0  0  0  0  0  0  0  0  0
   -1.6474    5.2524    1.6102 O   0  0  0  0  0  0  0  0  0  0  0  0
   -2.5665   -0.3364    3.2180 O   0  0  0  0  0  0  0  0  0  0  0  0
    4.4177    4.5576    0.1754 N   0  0  0  0  0  0  0  0  0  0  0  0
    2.4894    1.3314    0.5508 N   0  0  0  0  0  0  0  0  0  0  0  0
   -0.3449    3.8855    0.3248 N   0  0  0  0  0  0  0  0  0  0  0  0
    6.4518    3.5001    2.4347 C   0  0  2  0  0  0  0  0  0  0  0  0
    5.7114    4.8569    2.4279 C   0  0  1  0  0  0  0  0  0  0  0  0
    5.8100    2.4440    1.5899 C   0  0  0  0  0  0  0  0  0  0  0  0
    5.2556    5.3563    1.0117 C   0  0  0  0  0  0  0  0  0  0  0  0
    6.6497    2.9966    3.9003 C   0  0  0  0  0  0  0  0  0  0  0  0
    4.6606    5.0808    3.5729 C   0  0  0  0  0  0  0  0  0  0  0  0
    5.0487    3.0649    0.1894 C   0  0  1  0  0  0  0  0  0  0  0  0
    5.3984    2.8047    4.7583 C   0  0  0  0  0  0  0  0  0  0  0  0
    4.5116    4.0561    4.7758 C   0  0  0  0  0  0  0  0  0  0  0  0
    2.9035    4.6818    0.5510 C   0  0  0  0  0  0  0  0  0  0  0  0
    3.6703    2.0499   -0.6174 C   0  0  0  0  0  0  0  0  0  0  0  0
    2.4188    3.2705    0.7571 C   0  0  1  0  0  0  0  0  0  0  0  0
    0.7030    2.6426    0.1715 C   0  0  2  0  0  0  0  0  0  0  0  0
    1.9260    1.9096    2.2999 C   0  0  0  0  0  0  0  0  0  0  0  0
    0.3139    1.5174   -0.8607 C   0  0  0  0  0  0  0  0  0  0  0  0
    0.8846    3.1689    2.4852 C   0  0  0  0  0  0  0  0  0  0  0  0
    1.8652    0.6970    3.1828 C   0  0  0  0  0  0  0  0  0  0  0  0
    2.8599    3.0284    3.0924 C   0  0  0  0  0  0  0  0  0  0  0  0
   -1.4088    4.1086    1.2228 C   0  0  0  0  0  0  0  0  0  0  0  0
   -2.2729    2.9840    1.6449 C   0  0  0  0  0  0  0  0  0  0  0  0
    2.7313   -1.0490   -0.6274 C   0  0  0  0  0  0  0  0  0  0  0  0
   -2.0525    1.9464    2.6169 C   0  0  0  0  0  0  0  0  0  0  0  0
   -3.3829    2.9725    0.8118 C   0  0  0  0  0  0  0  0  0  0  0  0
    3.6112   -0.1844   -1.1617 C   0  0  0  0  0  0  0  0  0  0  0  0
    3.4770   -2.0119    0.0063 C   0  0  0  0  0  0  0  0  0  0  0  0
   -2.8417    0.8128    2.5238 C   0  0  0  0  0  0  0  0  0  0  0  0
   -0.9882    1.8047    3.6610 C   0  0  0  0  0  0  0  0  0  0  0  0
   -4.2395    1.8971    0.8749 C   0  0  0  0  0  0  0  0  0  0  0  0
    4.9912    0.0830   -0.6297 C   0  0  0  0  0  0  0  0  0  0  0  0
    4.9376   -1.8892    0.3143 C   0  0  0  0  0  0  0  0  0  0  0  0
   -3.9468    0.8087    1.6979 C   0  0  0  0  0  0  0  0  0  0  0  0
    5.6946   -0.7677    0.1229 C   0  0  0  0  0  0  0  0  0  0  0  0
  1 23  1  0
  1 29  1  0
  2 19  2  0
  4 27  2  0
  5 34  1  0
  6 12  1  0
  6 15  1  0
  6 18  1  0
  7 19  1  0
  7 22  1  0
  8 27  1  0
  9 10  1  0
  9 11  1  6
  9 13  1  0
 10 12  1  6
 10 14  1  0
 11 15  1  0
 13 16  1  0
 14 17  1  0
 15 19  1  1
 16 17  1  0
 20 18  1  0
 20  3  1  1
 21 23  1  6
 21 20  1  0
 21  8  1  0
 22 24  1  0
 22 25  1  0
 22 26  1  0
 27 28  1  0
 28 30  2  0
 28 31  1  0
 29 32  2  0
 29 33  1  0
 30 34  1  0
 30 35  1  0
 31 36  2  0
 32 37  1  0
 33 38  2  0
 34 39  2  0
 36 39  1  0
 37 40  2  0
 38 40  1  0
M  END
>  <DRUGBANK_ID>  (1) 
DB00220

>  <SECONDARY_ACCESSION_NUMBERS>  (1) 
APRD00003

>  <COMMON_NAME>  (1) 
Nelfinavir

>  <CAS_NUMBER>  (1) 
159989-64-7

>  <UNII>  (1) 
HO3OGH5D7I

>  <SYNONYMS>  (1) 
Nelfinavir

$$$$
