CAT
     RDKit          3D

 16 15  0  0  0  0  0  0  0  0999 V2000
    0.9872    0.0787   -0.0462 C   0  0  0  0  0  0  0  0  0  0  0  0
    0.5459   -1.4106   -0.3198 C   0  0  0  0  0  0  0  0  0  0  0  0
    1.0576   -2.5828    0.5880 C   0  0  0  0  0  0  0  0  0  0  0  0
    0.4675   -2.8220    1.9988 C   0  0  0  0  0  0  0  0  0  0  0  0
   -1.0469   -2.5889    1.9703 C   0  0  0  0  0  0  0  0  0  0  0  0
   -1.6743   -3.8911    1.5770 C   0  0  0  0  0  0  0  0  0  0  0  0
   -1.2450   -4.9113    2.6242 C   0  0  0  0  0  0  0  0  0  0  0  0
   -1.6645   -4.4116    4.0184 C   0  0  0  0  0  0  0  0  0  0  0  0
   -3.1899   -4.3037    4.0506 C   0  0  0  0  0  0  0  0  0  0  0  0
   -3.7934   -5.6582    3.6614 C   0  0  0  0  0  0  0  0  0  0  0  0
   -3.2676   -6.7659    4.5788 C   0  0  0  0  0  0  0  0  0  0  0  0
   -3.6658   -6.4732    6.0144 C   0  0  0  0  0  0  0  0  0  0  0  0
    1.0083    2.1050    1.5994 C   0  0  0  0  0  0  0  0  0  0  0  0
   -1.0409    0.7532    1.3270 C   0  0  0  0  0  0  0  0  0  0  0  0
    1.0809   -0.0418    2.3963 C   0  0  0  0  0  0  0  0  0  0  0  0
    0.4908    0.7325    1.2895 N   0  0  0  0  0  0  0  0  0  0  0  0
  1  2  1  0
  1 16  1  0
  2  3  1  0
  3  4  1  0
  4  5  1  0
  5  6  1  0
  6  7  1  0
  7  8  1  0
  8  9  1  0
  9 10  1  0
 10 11  1  0
 11 12  1  0
 13 16  1  0
 14 16  1  0
 15 16  1  0
M  CHG  1  16   1
M  END
>  <DRUGBANK_ID>  (1) 
DB02779

>  <SECONDARY_ACCESSION_NUMBERS>  (1) 
EXPT00833

>  <COMMON_NAME>  (1) 
Dodecyltrimethylammonium

>  <CAS_NUMBER>  (1) 
10182-91-9

>  <UNII>  (1) 
GT3793XV5S

>  <SYNONYMS>  (1) 
Dodecane-trimethylamine; Dodecyl-trimethyl-azanium; Dodecyltrimethylammonium ion; laurtrimonium; laurtrimonium cation; laurtrimonium ion; n-Dodecyltrimethylammonium; N,N,N-Trimethyl-1-dodecanaminium

$$$$
