
     RDKit          3D

 20 15  0  0  0  0  0  0  0  0999 V2000
    1.0385    0.0632    0.0673 C   0  0  0  0  0  0  0  0  0  0  0  0
    0.4031   -0.1236    1.1519 O   0  0  0  0  0  0  0  0  0  0  0  0
    0.2785    0.2865   -1.2300 C   0  0  0  0  0  0  0  0  0  0  0  0
    0.9140    0.4732   -2.3147 O   0  0  0  0  0  0  0  0  0  0  0  0
   -1.1415    0.2865   -1.2300 O   0  0  0  0  0  0  0  0  0  0  0  0
    2.4585    0.0632    0.0673 O   0  0  0  0  0  0  0  0  0  0  0  0
    1.0848   -0.0025    0.0529 C   0  0  0  0  0  0  0  0  0  0  0  0
    0.4494   -0.0896    1.1500 O   0  0  0  0  0  0  0  0  0  0  0  0
    0.3248    0.1016   -1.2594 C   0  0  0  0  0  0  0  0  0  0  0  0
    0.9603    0.1887   -2.3565 O   0  0  0  0  0  0  0  0  0  0  0  0
   -1.0952    0.1016   -1.2594 O   0  0  0  0  0  0  0  0  0  0  0  0
    2.5048   -0.0025    0.0529 O   0  0  0  0  0  0  0  0  0  0  0  0
    1.0821    0.0549   -0.0157 C   0  0  0  0  0  0  0  0  0  0  0  0
    0.4466   -0.6785   -0.8365 O   0  0  0  0  0  0  0  0  0  0  0  0
    0.3221    0.9320    0.9659 C   0  0  0  0  0  0  0  0  0  0  0  0
    0.9575    1.6653    1.7866 O   0  0  0  0  0  0  0  0  0  0  0  0
   -1.0979    0.9320    0.9659 O   0  0  0  0  0  0  0  0  0  0  0  0
    2.5021    0.0549   -0.0157 O   0  0  0  0  0  0  0  0  0  0  0  0
    1.0696   -0.0336   -0.0634 Ce  0  0  0  0  0 15  0  0  0  0  0  0
    1.0445    0.0136    0.0885 Ce  0  0  0  0  0 15  0  0  0  0  0  0
  1  2  2  0
  1  3  1  0
  1  6  1  0
  3  4  2  0
  3  5  1  0
  7  8  2  0
  7  9  1  0
  7 12  1  0
  9 10  2  0
  9 11  1  0
 13 14  2  0
 13 15  1  0
 13 18  1  0
 15 16  2  0
 15 17  1  0
M  CHG  8   5  -1   6  -1  11  -1  12  -1  17  -1  18  -1  19   3  20   3
M  END
>  <DRUGBANK_ID>  (1) 
DB13519

>  <COMMON_NAME>  (1) 
Cerium oxalate

>  <CAS_NUMBER>  (1) 
139-42-4

>  <UNII>  (1) 
96P72VE680

>  <SYNONYMS>  (1) 
Cerous oxalate

$$$$
