
     RDKit          3D

  9  9  0  0  0  0  0  0  0  0999 V2000
    2.7056   -0.9079   -0.0043 C   0  0  0  0  0  0  0  0  0  0  0  0
    1.2447   -0.5506   -0.0004 C   0  0  0  0  0  0  0  0  0  0  0  0
    0.2847   -1.5773    0.0022 C   0  0  0  0  0  0  0  0  0  0  0  0
   -1.0818   -1.2866    0.0037 C   0  0  0  0  0  0  0  0  0  0  0  0
   -1.4932    0.0398    0.0005 C   0  0  0  0  0  0  0  0  0  0  0  0
   -2.8142    0.3796   -0.0003 O   0  0  0  0  0  0  0  0  0  0  0  0
   -0.5613    1.0704   -0.0016 C   0  0  0  0  0  0  0  0  0  0  0  0
    0.8162    0.7920   -0.0002 C   0  0  0  0  0  0  0  0  0  0  0  0
    1.7726    1.9527    0.0032 C   0  0  0  0  0  0  0  0  0  0  0  0
  1  2  1  0
  2  3  2  0
  2  8  1  0
  3  4  1  0
  4  5  2  0
  5  6  1  0
  5  7  1  0
  7  8  2  0
  8  9  1  0
M  END
>  <DRUGBANK_ID>  (1) 
DB04052

>  <SECONDARY_ACCESSION_NUMBERS>  (1) 
EXPT00131

>  <COMMON_NAME>  (1) 
3,4-Xylenol

>  <CAS_NUMBER>  (1) 
95-65-8

>  <UNII>  (1) 
4L479F5JU6

>  <SYNONYMS>  (1) 
1-Hydroxy-3,4-dimethylbenzene; 1,3,4-Xylenol; 3,4-Dimethylphenol; 3,4-DMP; 4,5-Dimethylphenol

$$$$
