327
     RDKit          3D

 21 25  0  0  1  0  0  0  0  0999 V2000
    1.2097    1.0563   -0.1731 O   0  0  0  0  0  0  0  0  0  0  0  0
    3.1971   -1.5804   -0.8223 O   0  0  0  0  0  0  0  0  0  0  0  0
   -0.6324    3.4857   -1.6765 O   0  0  0  0  0  0  0  0  0  0  0  0
    5.3102    2.0034    3.0295 N   0  0  0  0  0  0  0  0  0  0  0  0
    3.3371    2.2105    1.5334 C   0  0  2  0  0  0  0  0  0  0  0  0
    3.8628    0.9591    1.9389 C   0  0  2  0  0  0  0  0  0  0  0  0
    4.7351    2.0142    1.3270 C   0  0  1  0  0  0  0  0  0  0  0  0
    2.7497    0.8249    0.2243 C   0  0  1  0  0  0  0  0  0  0  0  0
    4.9057    3.6035    2.3241 C   0  0  0  0  0  0  0  0  0  0  0  0
    2.2375    2.7846    0.5382 C   0  0  0  0  0  0  0  0  0  0  0  0
    4.7061   -0.2456    1.6842 C   0  0  0  0  0  0  0  0  0  0  0  0
    3.9985    3.8008    0.6379 C   0  0  0  0  0  0  0  0  0  0  0  0
    6.1798    3.0810    2.9164 C   0  0  0  0  0  0  0  0  0  0  0  0
    2.7094    3.9503    0.1818 C   0  0  0  0  0  0  0  0  0  0  0  0
    3.8322   -1.4125    1.4143 C   0  0  0  0  0  0  0  0  0  0  0  0
    2.8024   -0.9260    0.4264 C   0  0  2  0  0  0  0  0  0  0  0  0
    1.2011    2.4133   -0.2339 C   0  0  0  0  0  0  0  0  0  0  0  0
    4.1903    2.4741    4.1225 C   0  0  0  0  0  0  0  0  0  0  0  0
    2.1090    5.1001   -0.0994 C   0  0  0  0  0  0  0  0  0  0  0  0
    0.4957    3.5145   -0.8905 C   0  0  0  0  0  0  0  0  0  0  0  0
    0.9606    4.8731   -0.7361 C   0  0  0  0  0  0  0  0  0  0  0  0
  1 17  1  0
  3 20  1  0
  4  7  1  0
  4 13  1  0
  4 18  1  0
  5  6  1  0
  5  8  1  0
  5  9  1  6
  5 10  1  0
  6  7  1  0
  6 11  1  6
  7 12  1  1
  8 16  1  0
  8  1  1  1
  9 13  1  0
 10 14  1  0
 10 17  2  0
 11 15  1  0
 12 14  1  0
 14 19  2  0
 15 16  1  0
 16  2  1  6
 17 20  1  0
 19 21  1  0
 20 21  2  0
M  END
>  <DRUGBANK_ID>  (1) 
DB01565

>  <COMMON_NAME>  (1) 
Dihydromorphine

>  <CAS_NUMBER>  (1) 
509-60-4

>  <UNII>  (1) 
C3S5FRP6JW

>  <SYNONYMS>  (1) 
Dihydromorphine

$$$$
