
     RDKit          3D

 28 29  0  0  0  0  0  0  0  0999 V2000
    0.2060    8.2107   -2.0290 C   0  0  0  0  0  0  0  0  0  0  0  0
   -0.3483    7.2795   -2.9001 C   0  0  0  0  0  0  0  0  0  0  0  0
   -0.1551    5.9307   -2.6537 C   0  0  0  0  0  0  0  0  0  0  0  0
    0.5741    5.5056   -1.5442 C   0  0  0  0  0  0  0  0  0  0  0  0
    1.0889    6.4556   -0.6482 C   0  0  0  0  0  0  0  0  0  0  0  0
    0.9238    7.8038   -0.9114 C   0  0  0  0  0  0  0  0  0  0  0  0
    0.6754    4.0485   -1.2347 C   0  0  0  0  0  0  0  0  0  0  0  0
    2.0568    3.3733   -1.1723 C   0  0  2  0  0  0  0  0  0  0  0  0
    2.1051    2.4480    0.0577 C   0  0  0  0  0  0  0  0  0  0  0  0
    0.8748    1.4969    0.1520 C   0  0  0  0  0  0  0  0  0  0  0  0
    1.1639    0.1424    0.1854 N   0  0  0  0  0  0  0  0  0  0  0  0
   -0.2818    1.8847    0.1524 O   0  0  0  0  0  0  0  0  0  0  0  0
    3.2134    4.2890   -1.1740 N   0  0  0  0  0  0  0  0  0  0  0  0
    1.4575    8.7012   -0.0731 F   0  0  0  0  0  0  0  0  0  0  0  0
   -0.7071    5.0298   -3.4784 F   0  0  0  0  0  0  0  0  0  0  0  0
    2.2320   -0.3199    1.0487 C   0  0  1  0  0  0  0  0  0  0  0  0
    1.6317   -1.0992    2.2333 C   0  0  0  0  0  0  0  0  0  0  0  0
    0.3613   -0.8265   -0.5771 C   0  0  0  0  0  0  0  0  0  0  0  0
    1.4138   -2.4449    2.0255 N   0  0  0  0  0  0  0  0  0  0  0  0
   -0.2597   -1.9740    0.2276 C   0  0  0  0  0  0  0  0  0  0  0  0
    0.7686   -2.9435    0.8192 C   0  0  0  0  0  0  0  0  0  0  0  0
    1.3075   -0.5706    3.2880 O   0  0  0  0  0  0  0  0  0  0  0  0
    0.0332    9.5155   -2.2708 F   0  0  0  0  0  0  0  0  0  0  0  0
    3.2842   -1.1298    0.3175 C   0  0  0  0  0  0  0  0  0  0  0  0
    3.8750   -0.4720   -0.8905 C   0  0  0  0  0  0  0  0  0  0  0  0
    4.6629    0.5623   -0.5598 F   0  0  0  0  0  0  0  0  0  0  0  0
    4.6292   -1.3804   -1.5502 F   0  0  0  0  0  0  0  0  0  0  0  0
    2.9392   -0.0419   -1.7624 F   0  0  0  0  0  0  0  0  0  0  0  0
  1 23  1  0
  1  2  2  0
  2  3  1  0
  3 15  1  0
  3  4  2  0
  4  7  1  0
  4  5  1  0
  5  6  2  0
  6 14  1  0
  6  1  1  0
  8 13  1  1
  8  9  1  0
  8  7  1  0
  9 10  1  0
 10 11  1  0
 10 12  2  0
 11 16  1  0
 11 18  1  0
 16 17  1  0
 16 24  1  6
 17 19  1  0
 17 22  2  0
 18 20  1  0
 19 21  1  0
 20 21  1  0
 24 25  1  0
 25 26  1  0
 25 27  1  0
 25 28  1  0
M  END
>  <DRUGBANK_ID>  (1) 
DB07271

>  <COMMON_NAME>  (1) 
4-[(3R)-3-Amino-4-(2,4,5-trifluorophenyl)butanoyl]-3-(2,2,2-trifluoroethyl)-1,4-diazepan-2-one

$$$$
