
     RDKit          3D

 32 35  0  0  0  0  0  0  0  0999 V2000
    3.8035   -1.0457   -0.1586 C   0  0  1  0  0  0  0  0  0  0  0  0
    1.2754   -0.9079   -0.1280 C   0  0  0  0  0  0  0  0  0  0  0  0
    4.3789   -0.1859   -1.4131 C   0  0  1  0  0  0  0  0  0  0  0  0
    5.6580   -2.5632   -0.1494 C   0  0  0  0  0  0  0  0  0  0  0  0
    2.3958   -1.5735    0.1644 C   0  0  0  0  0  0  0  0  0  0  0  0
    4.3032   -2.2918   -0.6322 C   0  0  0  0  0  0  0  0  0  0  0  0
    6.4108   -2.1852   -1.1737 C   0  0  0  0  0  0  0  0  0  0  0  0
   -0.0339   -1.5809    0.0774 C   0  0  0  0  0  0  0  0  0  0  0  0
    1.3665    0.4914   -0.6175 C   0  0  2  0  0  0  0  0  0  0  0  0
    5.6118   -1.6214   -2.3752 C   0  0  1  0  0  0  0  0  0  0  0  0
   -1.2611   -0.7754    0.0345 C   0  0  0  0  0  0  0  0  0  0  0  0
    2.9981    0.8788   -0.5773 C   0  0  2  0  0  0  0  0  0  0  0  0
   -1.2031    0.6196    0.0922 C   0  0  0  0  0  0  0  0  0  0  0  0
    0.1696    1.3558    0.1552 C   0  0  2  0  0  0  0  0  0  0  0  0
    6.3801   -2.3323    1.1299 C   0  0  0  0  0  0  0  0  0  0  0  0
    6.0899   -3.1258   -3.2968 N   0  0  0  0  0  0  0  0  0  0  0  0
    3.7277   -2.7789   -1.6237 O   0  0  0  0  0  0  0  0  0  0  0  0
   -0.1575   -2.7956    0.2180 O   0  0  0  0  0  0  0  0  0  0  0  0
   -2.5045   -1.4332   -0.0787 C   0  0  0  0  0  0  0  0  0  0  0  0
    4.2392   -0.4788    1.0772 O   0  0  0  0  0  0  0  0  0  0  0  0
    5.7949   -1.6655    2.1490 N   0  0  0  0  0  0  0  0  0  0  0  0
    2.3139   -2.8168    0.7956 O   0  0  0  0  0  0  0  0  0  0  0  0
    7.7687   -2.5475   -1.2296 O   0  0  0  0  0  0  0  0  0  0  0  0
    3.0259    2.3245   -0.7047 O   0  0  0  0  0  0  0  0  0  0  0  0
    7.5492   -2.6854    1.2600 O   0  0  0  0  0  0  0  0  0  0  0  0
   -2.4446    1.3123    0.0816 C   0  0  0  0  0  0  0  0  0  0  0  0
   -0.0957    2.7267   -0.5067 C   0  0  0  0  0  0  0  0  0  0  0  0
   -2.6266   -2.7978   -0.1574 O   0  0  0  0  0  0  0  0  0  0  0  0
   -3.6664    0.6616   -0.0693 C   0  0  0  0  0  0  0  0  0  0  0  0
   -3.6950   -0.7181   -0.1451 C   0  0  0  0  0  0  0  0  0  0  0  0
    5.9733   -3.4395   -4.7569 C   0  0  0  0  0  0  0  0  0  0  0  0
    6.8625   -4.4825   -2.8588 C   0  0  0  0  0  0  0  0  0  0  0  0
  1 20  1  1
  3  1  1  0
  5  1  1  0
  5  2  2  0
  6  1  1  0
  6  4  1  0
  7  4  2  0
  8  2  1  0
  9  2  1  1
  3 10  1  1
 10  7  1  0
 10 16  1  1
 11  8  1  0
 12  3  1  0
 12  9  1  0
 12 24  1  6
 13 11  2  0
 14  9  1  0
 14 13  1  0
 14 27  1  6
 15  4  1  0
 17  6  2  0
 18  8  2  0
 19 11  1  0
 21 15  1  0
 22  5  1  0
 23  7  1  0
 25 15  2  0
 26 13  1  0
 28 19  1  0
 29 26  2  0
 30 19  2  0
 30 29  1  0
 31 16  1  0
 32 16  1  0
M  END
>  <DRUGBANK_ID>  (1) 
DB00254

>  <SECONDARY_ACCESSION_NUMBERS>  (1) 
APRD00597

>  <COMMON_NAME>  (1) 
Doxycycline

>  <CAS_NUMBER>  (1) 
564-25-0

>  <UNII>  (1) 
334895S862

>  <SYNONYMS>  (1) 
5-hydroxy-α-6-deoxytetracycline; 6-alpha-deoxy-5-oxytetracycline; 6alpha-deoxy-5-oxytetracycline; 6α-deoxy-5-oxytetracycline; Anhydrous doxycycline; Doxiciclina; Doxycyclin; Doxycycline; Doxycycline (anhydrous); Doxycycline anhydrous; Doxycyclinum

$$$$
