
     RDKit          3D

 24 27  0  0  0  0  0  0  0  0999 V2000
    1.1432   -0.2572   -0.1648 C   0  0  0  0  0  0  0  0  0  0  0  0
    0.4476   -0.6209    1.1482 C   0  0  0  0  0  0  0  0  0  0  0  0
    0.8855    0.2476    2.3007 N   0  0  0  0  0  0  0  0  0  0  0  0
    1.4924   -0.2949    3.4082 C   0  0  0  0  0  0  0  0  0  0  0  0
    1.7400   -1.7564    3.4364 C   0  0  0  0  0  0  0  0  0  0  0  0
    1.1473   -2.5612    4.4322 C   0  0  0  0  0  0  0  0  0  0  0  0
    1.5452   -3.8861    4.6166 C   0  0  0  0  0  0  0  0  0  0  0  0
    2.4211   -4.4778    3.7136 C   0  0  0  0  0  0  0  0  0  0  0  0
    2.9143   -3.7412    2.6409 C   0  0  0  0  0  0  0  0  0  0  0  0
    2.6384   -2.3754    2.5470 C   0  0  0  0  0  0  0  0  0  0  0  0
    1.8347    0.5276    4.5245 C   0  0  0  0  0  0  0  0  0  0  0  0
    1.5604    1.9035    4.4785 C   0  0  0  0  0  0  0  0  0  0  0  0
    1.8863    2.6782    5.6246 C   0  0  0  0  0  0  0  0  0  0  0  0
    2.4527    2.1177    6.7747 C   0  0  0  0  0  0  0  0  0  0  0  0
    2.7554    0.7733    6.8212 C   0  0  0  0  0  0  0  0  0  0  0  0
    3.2026    0.1761    7.9846 N   0  0  0  0  0  0  0  0  0  0  0  0
    2.4445    0.0015    5.7042 C   0  0  0  0  0  0  0  0  0  0  0  0
    0.9560    2.4547    3.3107 C   0  0  0  0  0  0  0  0  0  0  0  0
    0.5878    1.5893    2.2550 C   0  0  0  0  0  0  0  0  0  0  0  0
   -0.1152    2.1500    1.1616 C   0  0  0  0  0  0  0  0  0  0  0  0
   -0.2789    3.5105    0.9487 C   0  0  0  0  0  0  0  0  0  0  0  0
   -1.0011    3.9433   -0.1582 N   0  0  0  0  0  0  0  0  0  0  0  0
    0.0688    4.3524    1.9837 C   0  0  0  0  0  0  0  0  0  0  0  0
    0.6586    3.8337    3.1457 C   0  0  0  0  0  0  0  0  0  0  0  0
  1  2  1  0
  2  3  1  0
  3  4  2  0
  3 19  1  0
  4  5  1  0
  4 11  1  0
  5  6  2  0
  5 10  1  0
  6  7  1  0
  7  8  2  0
  8  9  1  0
  9 10  2  0
 11 12  2  0
 11 17  1  0
 12 13  1  0
 12 18  1  0
 13 14  2  0
 14 15  1  0
 15 16  1  0
 15 17  2  0
 18 19  2  0
 18 24  1  0
 19 20  1  0
 20 21  2  0
 21 22  1  0
 21 23  1  0
 23 24  2  0
M  CHG  1   3   1
M  END
>  <DRUGBANK_ID>  (1) 
DB17031

>  <COMMON_NAME>  (1) 
Homidium

>  <CAS_NUMBER>  (1) 
3546-21-2

>  <UNII>  (1) 
EN464416SI

>  <SYNONYMS>  (1) 
2,7-diamino-10-ethyl-9-phenylphenanthridinium; 2,7-diamino-9-phenyl-10-ethylphenanthridinium; 3,8-diamino-5-ethyl-6-phenylphenanthridinium; Babidium; Ethidium; Homidium cation; Homidium ion; Novidium

$$$$
