
     RDKit          3D

 28 29  0  0  0  0  0  0  0  0999 V2000
    0.9634    0.1737   -0.1275 C   0  0  0  0  0  0  0  0  0  0  0  0
    0.6509   -1.1587   -0.7387 C   0  0  0  0  0  0  0  0  0  0  0  0
    1.0542   -2.4831   -0.1520 N   0  0  0  0  0  0  0  0  0  0  0  0
    1.9493   -2.5709    0.9126 C   0  0  0  0  0  0  0  0  0  0  0  0
    2.5891   -1.2973    1.4180 C   0  0  0  0  0  0  0  0  0  0  0  0
    2.2560   -3.8300    1.4923 C   0  0  0  0  0  0  0  0  0  0  0  0
    3.2465   -3.8214    2.6537 C   0  0  0  0  0  0  0  0  0  0  0  0
    3.6750   -2.7922    3.1318 O   0  0  0  0  0  0  0  0  0  0  0  0
    3.6263   -4.9974    3.1675 O   0  0  0  0  0  0  0  0  0  0  0  0
    4.4789   -4.9748    4.3407 C   0  0  0  0  0  0  0  0  0  0  0  0
    5.8564   -4.4537    3.9541 C   0  0  0  0  0  0  0  0  0  0  0  0
    3.8652   -4.2146    5.5240 C   0  0  0  0  0  0  0  0  0  0  0  0
    1.6350   -5.0025    0.9777 C   0  0  0  0  0  0  0  0  0  0  0  0
    2.0086   -6.3227    1.5623 C   0  0  0  0  0  0  0  0  0  0  0  0
    1.7003   -6.6391    2.9080 C   0  0  0  0  0  0  0  0  0  0  0  0
    2.2121   -7.7984    3.4944 C   0  0  0  0  0  0  0  0  0  0  0  0
    2.8031   -8.7697    2.6948 C   0  0  0  0  0  0  0  0  0  0  0  0
    2.9550   -8.5515    1.3293 C   0  0  0  0  0  0  0  0  0  0  0  0
    2.6955   -7.2934    0.7996 C   0  0  0  0  0  0  0  0  0  0  0  0
    3.2179   -6.9795   -0.8284 Cl  0  0  0  0  0  0  0  0  0  0  0  0
    0.7160   -4.9123   -0.1529 C   0  0  0  0  0  0  0  0  0  0  0  0
    0.0617   -6.2543   -0.5956 C   0  0  0  0  0  0  0  0  0  0  0  0
   -0.5792   -6.4519   -1.7477 O   0  0  0  0  0  0  0  0  0  0  0  0
    0.1325   -7.2499    0.1082 O   0  0  0  0  0  0  0  0  0  0  0  0
    0.4653   -3.6213   -0.7342 C   0  0  0  0  0  0  0  0  0  0  0  0
   -0.4516   -3.4453   -1.9735 C   0  0  0  0  0  0  0  0  0  0  0  0
   -0.7451   -2.3146   -2.6193 O   0  0  0  0  0  0  0  0  0  0  0  0
   -1.0139   -4.4090   -2.4830 O   0  0  0  0  0  0  0  0  0  0  0  0
  1  2  1  0
  2  3  1  0
  3  4  2  0
  3 25  1  0
  4  5  1  0
  4  6  1  0
  6  7  1  0
  6 13  2  0
  7  8  2  0
  7  9  1  0
  9 10  1  0
 10 11  1  0
 10 12  1  0
 13 14  1  0
 13 21  1  0
 14 15  2  0
 14 19  1  0
 15 16  1  0
 16 17  2  0
 17 18  1  0
 18 19  2  0
 19 20  1  0
 21 22  1  0
 21 25  2  0
 22 23  1  0
 22 24  2  0
 25 26  1  0
 26 27  1  0
 26 28  2  0
M  CHG  1   3   1
M  END
>  <DRUGBANK_ID>  (1) 
DB04055

>  <SECONDARY_ACCESSION_NUMBERS>  (1) 
EXPT00707

>  <COMMON_NAME>  (1) 
2,3-Dicarboxy-4-(2-Chloro-Phenyl)-1-Ethyl-5-Isopropoxycarbonyl-6-Methyl-Pyridinium

$$$$
