
     RDKit          3D

 31 36  0  0  1  0  0  0  0  0999 V2000
   -1.9436   -0.1411   -0.2290 C   0  0  0  0  0  0  0  0  0  0  0  0
   -0.8768   -1.1963   -0.5468 C   0  0  1  0  0  0  0  0  0  0  0  0
   -0.0756   -0.5789   -1.6806 C   0  0  0  0  0  0  0  0  0  0  0  0
    0.6850    0.5375   -1.1096 C   0  0  0  0  0  0  0  0  0  0  0  0
    1.1502    0.3819    0.3226 C   0  0  2  0  0  0  0  0  0  0  0  0
    0.3212   -0.5836    1.2775 C   0  0  2  0  0  0  0  0  0  0  0  0
    1.2097   -0.0932    2.6202 C   0  0  0  0  0  0  0  0  0  0  0  0
    1.4250    1.7401    2.8550 C   0  0  0  0  0  0  0  0  0  0  0  0
    1.8154    2.9230    1.5688 C   0  0  0  0  0  0  0  0  0  0  0  0
    1.5556    4.0992    0.6650 C   0  0  0  0  0  0  0  0  0  0  0  0
    0.6960    3.6162   -0.6573 C   0  0  0  0  0  0  0  0  0  0  0  0
    1.2418    3.5012   -1.7437 O   0  0  0  0  0  0  0  0  0  0  0  0
   -0.6919    3.1191   -0.1871 C   0  0  0  0  0  0  0  0  0  0  0  0
   -0.2354    2.5766    1.1147 C   0  0  0  0  0  0  0  0  0  0  0  0
    1.2242    1.8770    0.7561 C   0  0  2  0  0  0  0  0  0  0  0  0
   -0.5762   -2.2394    0.6925 C   0  0  0  0  0  0  0  0  0  0  0  0
   -1.6458   -3.7057   -0.2966 C   0  0  0  0  0  0  0  0  0  0  0  0
   -1.9804   -3.2329   -1.8562 C   0  0  0  0  0  0  0  0  0  0  0  0
   -1.0162   -3.3629   -2.9061 O   0  0  0  0  0  0  0  0  0  0  0  0
    0.1901   -3.8280   -2.3291 C   0  0  2  0  0  0  0  0  0  0  0  0
    0.0577   -3.3644   -1.0039 O   0  0  0  0  0  0  0  0  0  0  0  0
   -1.4779   -2.4132   -0.8362 C   0  0  1  0  0  0  0  0  0  0  0  0
   -2.9705   -2.3448    0.4570 C   0  0  0  0  0  0  0  0  0  0  0  0
   -4.0546   -1.8037    0.1545 O   0  0  0  0  0  0  0  0  0  0  0  0
   -2.9242   -3.3125    1.7741 C   0  0  0  0  0  0  0  0  0  0  0  0
   -3.2396   -4.6276    1.4937 F   0  0  0  0  0  0  0  0  0  0  0  0
    1.4664   -3.1176   -2.6041 C   0  0  0  0  0  0  0  0  0  0  0  0
    2.1276   -2.2356   -1.7502 C   0  0  0  0  0  0  0  0  0  0  0  0
    2.9479   -1.4931   -2.5831 C   0  0  0  0  0  0  0  0  0  0  0  0
    3.3197   -2.4482   -3.4888 C   0  0  0  0  0  0  0  0  0  0  0  0
    2.3613   -3.4324   -3.5843 O   0  0  0  0  0  0  0  0  0  0  0  0
  2  3  1  0
  2 16  1  0
  2 22  1  0
  2  1  1  1
  3  4  1  0
  5  4  1  6
  5 15  1  0
  6  5  1  0
  6  7  1  1
  7  8  1  0
  8  9  1  0
  9 10  2  0
 10 11  1  0
 11 13  1  0
 11 12  2  0
 13 14  1  0
 15 14  1  1
 15  9  1  0
 16  6  1  0
 16 17  1  0
 18 17  1  0
 18 19  1  0
 20 19  1  0
 20 21  1  0
 20 27  1  6
 22 21  1  0
 22 18  1  0
 22 23  1  1
 23 24  2  0
 23 25  1  0
 25 26  1  0
 27 28  2  0
 27 31  1  0
 28 29  1  0
 29 30  2  0
 30 31  1  0
M  ISO  1  26  18
M  END
>  <DRUGBANK_ID>  (1) 
DB15282

>  <COMMON_NAME>  (1) 
Fluorofuranylnorprogesterone F-18

>  <CAS_NUMBER>  (1) 
160388-43-2

>  <UNII>  (1) 
3I798OGQ8B

>  <SYNONYMS>  (1) 
18F-FFNP

$$$$
