
     RDKit          3D

 22 26  0  0  1  0  0  0  0  0999 V2000
    1.8076    0.1646    0.2208 C   0  0  0  0  0  0  0  0  0  0  0  0
    0.4326    0.4188    1.0145 C   0  0  1  0  0  0  0  0  0  0  0  0
   -0.1227   -0.2954   -0.4471 C   0  0  0  0  0  0  0  0  0  0  0  0
   -1.5526    0.0285   -0.7689 C   0  0  0  0  0  0  0  0  0  0  0  0
   -1.9818    0.4997    0.5697 C   0  0  0  0  0  0  0  0  0  0  0  0
   -0.8198    1.2960    1.0114 N   0  0  0  0  0  0  0  0  0  0  0  0
   -0.7144    2.5724    0.2210 C   0  0  0  0  0  0  0  0  0  0  0  0
    0.2616    3.5620    0.8472 C   0  0  0  0  0  0  0  0  0  0  0  0
    0.2342    4.8375    0.5467 N   0  0  0  0  0  0  0  0  0  0  0  0
    0.9578    5.7510    1.3160 N   0  0  0  0  0  0  0  0  0  0  0  0
    2.1951    6.0474    1.8967 C   0  0  0  0  0  0  0  0  0  0  0  0
    2.5520    7.1781    2.1234 O   0  0  0  0  0  0  0  0  0  0  0  0
    2.8710    4.8840    2.5864 C   0  0  0  0  0  0  0  0  0  0  0  0
    2.3678    3.5543    2.4197 C   0  0  0  0  0  0  0  0  0  0  0  0
    3.0290    2.5034    3.0518 C   0  0  0  0  0  0  0  0  0  0  0  0
    2.3437    1.3330    2.7255 N   0  0  0  0  0  0  0  0  0  0  0  0
    1.3087    1.5767    1.8048 C   0  0  0  0  0  0  0  0  0  0  0  0
    1.2688    2.9658    1.6936 C   0  0  0  0  0  0  0  0  0  0  0  0
    4.1789    2.7309    3.8406 C   0  0  0  0  0  0  0  0  0  0  0  0
    4.6173    4.0536    4.0186 C   0  0  0  0  0  0  0  0  0  0  0  0
    5.6993    4.2858    4.7780 F   0  0  0  0  0  0  0  0  0  0  0  0
    3.9734    5.1292    3.4249 C   0  0  0  0  0  0  0  0  0  0  0  0
  2  1  1  6
  2  3  1  0
  2  6  1  0
  2 17  1  0
  3  4  1  0
  4  5  1  0
  5  6  1  0
  6  7  1  0
  7  8  1  0
  8  9  2  0
  8 18  1  0
  9 10  1  0
 10 11  1  0
 11 12  2  0
 11 13  1  0
 13 14  2  0
 13 22  1  0
 14 15  1  0
 14 18  1  0
 15 16  1  0
 15 19  2  0
 16 17  1  0
 17 18  2  0
 19 20  1  0
 20 21  1  0
 20 22  2  0
M  END
>  <DRUGBANK_ID>  (1) 
DB14769

>  <COMMON_NAME>  (1) 
Pamiparib

>  <CAS_NUMBER>  (1) 
1446261-44-4

>  <UNII>  (1) 
8375F9S90C

>  <SYNONYMS>  (1) 
Pamiparib

$$$$
