
     RDKit          3D

 19 22  0  0  1  0  0  0  0  0999 V2000
    1.1555   -0.0271    0.3093 C   0  0  0  0  0  0  0  0  0  0  0  0
    0.8005   -1.3891    0.8762 C   0  0  0  0  0  0  0  0  0  0  0  0
    1.6788   -2.4471    0.5553 C   0  0  0  0  0  0  0  0  0  0  0  0
    1.2157   -3.7393    0.6372 C   0  0  0  0  0  0  0  0  0  0  0  0
   -0.1741   -3.9539    0.8496 C   0  0  0  0  0  0  0  0  0  0  0  0
   -1.1424   -2.9313    1.1774 C   0  0  0  0  0  0  0  0  0  0  0  0
   -0.5578   -1.6463    1.3279 C   0  0  0  0  0  0  0  0  0  0  0  0
   -2.8684   -3.2183    0.8675 C   0  0  2  0  0  0  0  0  0  0  0  0
   -3.5354   -2.2334    1.7886 C   0  0  0  0  0  0  0  0  0  0  0  0
   -5.0288   -2.4254    1.8740 C   0  0  0  0  0  0  0  0  0  0  0  0
   -5.4882   -3.8753    1.7008 C   0  0  0  0  0  0  0  0  0  0  0  0
   -4.3902   -4.9617    1.6230 C   0  0  0  0  0  0  0  0  0  0  0  0
   -2.9658   -4.7175    0.9224 C   0  0  1  0  0  0  0  0  0  0  0  0
   -1.9594   -4.6566   -0.5113 C   0  0  2  0  0  0  0  0  0  0  0  0
   -0.7130   -5.1876    0.2524 C   0  0  0  0  0  0  0  0  0  0  0  0
   -2.0109   -3.2856   -1.5988 N   0  0  0  0  0  0  0  0  0  0  0  0
   -3.2940   -2.5446   -1.5746 C   0  0  0  0  0  0  0  0  0  0  0  0
   -3.8946   -3.2620   -0.5506 C   0  0  0  0  0  0  0  0  0  0  0  0
   -1.1004   -2.1444   -1.4399 C   0  0  0  0  0  0  0  0  0  0  0  0
  1  2  1  0
  2  3  2  0
  2  7  1  0
  3  4  1  0
  4  5  2  0
  5  6  1  0
  5 15  1  0
  6  7  2  0
  8  6  1  0
  8  9  1  1
  8 13  1  0
  8 18  1  0
  9 10  1  0
 10 11  1  0
 11 12  1  0
 13 12  1  6
 13 14  1  0
 14 15  1  1
 14 16  1  0
 16 17  1  0
 16 19  1  0
 17 18  1  0
M  END
>  <DRUGBANK_ID>  (1) 
DB13810

>  <COMMON_NAME>  (1) 
Dimemorfan

>  <CAS_NUMBER>  (1) 
36309-01-0

>  <UNII>  (1) 
623OAC38YU

>  <SYNONYMS>  (1) 
Dimemorfan; Dimemorfano

$$$$
