
     RDKit          3D

 21 20  0  0  0  0  0  0  0  0999 V2000
    0.5894   -0.2548   -0.4564 O   0  0  0  0  0  0  0  0  0  0  0  0
    0.1825    0.0985    3.7075 O   0  0  0  0  0  0  0  0  0  0  0  0
    4.6774    0.6880    0.2485 O   0  0  0  0  0  0  0  0  0  0  0  0
    0.4321   -0.9178    5.6534 O   0  0  0  0  0  0  0  0  0  0  0  0
    6.5366    1.3338   -0.7570 O   0  0  0  0  0  0  0  0  0  0  0  0
    2.4410   -0.5942    4.2784 C   0  0  0  0  0  0  0  0  0  0  0  0
    4.4954    2.6691   -1.1718 C   0  0  0  0  0  0  0  0  0  0  0  0
    2.9071   -0.4831    2.8019 C   0  0  0  0  0  0  0  0  0  0  0  0
    2.9219    2.6437   -1.2249 C   0  0  0  0  0  0  0  0  0  0  0  0
    2.4478   -1.6559    1.9241 C   0  0  0  0  0  0  0  0  0  0  0  0
    2.2602    1.6213   -2.1824 C   0  0  0  0  0  0  0  0  0  0  0  0
    0.9267   -1.6557    1.5595 C   0  0  0  0  0  0  0  0  0  0  0  0
    2.5707    0.1900   -1.8452 C   0  0  0  0  0  0  0  0  0  0  0  0
    2.9884   -1.9152    4.8234 C   0  0  0  0  0  0  0  0  0  0  0  0
    3.0251    0.5954    5.0456 C   0  0  0  0  0  0  0  0  0  0  0  0
    4.9845    2.8886   -2.6033 C   0  0  0  0  0  0  0  0  0  0  0  0
    4.9034    3.8482   -0.2730 C   0  0  0  0  0  0  0  0  0  0  0  0
    0.2648   -0.3792    0.9277 C   0  0  0  0  0  0  0  0  0  0  0  0
    1.9876   -0.1242   -0.5132 C   0  0  0  0  0  0  0  0  0  0  0  0
    0.9273   -0.5406    4.6285 C   0  0  0  0  0  0  0  0  0  0  0  0
    5.3429    1.4940   -0.5890 C   0  0  0  0  0  0  0  0  0  0  0  0
  1 18  1  0
  1 19  1  0
  2 20  1  0
  3 21  1  0
  4 20  2  0
  5 21  2  0
  6  8  1  0
  6 14  1  0
  6 15  1  0
  6 20  1  0
  7  9  1  0
  7 16  1  0
  7 17  1  0
  7 21  1  0
  8 10  1  0
  9 11  1  0
 10 12  1  0
 11 13  1  0
 12 18  1  0
 13 19  1  0
M  END
>  <DRUGBANK_ID>  (1) 
DB05123

>  <COMMON_NAME>  (1) 
Gemcabene

>  <CAS_NUMBER>  (1) 
183293-82-5

>  <UNII>  (1) 
B96UX1DDKS

>  <SYNONYMS>  (1) 
Gemcabene

$$$$
