HLE
     RDKit          3D

 13 12  0  0  0  0  0  0  0  0999 V2000
    1.0612    0.0681   -0.1582 N   0  0  0  0  0  0  0  0  0  0  0  0
    0.3563   -0.2620    1.0197 O   0  0  0  0  0  0  0  0  0  0  0  0
    0.5568    2.1341   -2.9821 C   0  0  1  0  0  0  0  0  0  0  0  0
    1.6468    3.1268   -3.4669 C   0  0  0  0  0  0  0  0  0  0  0  0
    2.5304    2.7152   -4.6615 C   0  0  0  0  0  0  0  0  0  0  0  0
    1.7266    2.4328   -5.9229 C   0  0  0  0  0  0  0  0  0  0  0  0
    3.5368    3.8168   -5.0120 C   0  0  0  0  0  0  0  0  0  0  0  0
   -0.6233    2.0154   -3.9386 C   0  0  0  0  0  0  0  0  0  0  0  0
   -1.7534    2.4051   -3.7053 O   0  0  0  0  0  0  0  0  0  0  0  0
    1.0804    0.7442   -2.5336 C   0  0  2  0  0  0  0  0  0  0  0  0
    1.0833   -0.2768   -3.5257 O   0  0  0  0  0  0  0  0  0  0  0  0
    0.2832    0.3428   -1.2652 C   0  0  0  0  0  0  0  0  0  0  0  0
   -0.9453    0.3136   -1.2666 O   0  0  0  0  0  0  0  0  0  0  0  0
  1  2  1  0
  1 12  1  0
  3  4  1  6
  3  8  1  0
  4  5  1  0
  5  6  1  0
  5  7  1  0
  8  9  2  0
 10 12  1  0
 10 11  1  6
 10  3  1  0
 12 13  2  0
M  END
>  <DRUGBANK_ID>  (1) 
DB07900

>  <COMMON_NAME>  (1) 
3-FORMYL-2-HYDROXY-5-METHYL-HEXANOIC ACID HYDROXYAMIDE

$$$$
