RL2
     RDKit          3D

 26 26  0  0  0  0  0  0  0  0999 V2000
    3.2631    3.7535    0.4634 C   0  0  0  0  0  0  0  0  0  0  0  0
    4.0095    4.0202   -0.4377 O   0  0  0  0  0  0  0  0  0  0  0  0
    3.0416    4.6490    1.4431 O   0  0  0  0  0  0  0  0  0  0  0  0
    2.4648    2.4904    0.6674 C   0  0  0  0  0  0  0  0  0  0  0  0
    2.9534    1.3710   -0.2526 C   0  0  2  0  0  0  0  0  0  0  0  0
    2.3238    0.1378    0.1155 O   0  0  0  0  0  0  0  0  0  0  0  0
    4.4883    1.2583   -0.2208 C   0  0  0  0  0  0  0  0  0  0  0  0
    5.1837    1.4566   -1.2148 O   0  0  0  0  0  0  0  0  0  0  0  0
    5.0789    0.9103    0.9543 N   0  0  0  0  0  0  0  0  0  0  0  0
    4.4408    0.6100    2.2465 C   0  0  1  0  0  0  0  0  0  0  0  0
    4.9654   -0.7501    2.7234 C   0  0  0  0  0  0  0  0  0  0  0  0
    6.4933   -0.8863    2.9245 C   0  0  0  0  0  0  0  0  0  0  0  0
    7.0203   -0.0314    4.0511 C   0  0  0  0  0  0  0  0  0  0  0  0
    7.4187    1.2831    3.8102 C   0  0  0  0  0  0  0  0  0  0  0  0
    7.3925    2.2222    4.8466 C   0  0  0  0  0  0  0  0  0  0  0  0
    7.0882    1.8294    6.1449 C   0  0  0  0  0  0  0  0  0  0  0  0
    6.8849    0.4815    6.4140 C   0  0  0  0  0  0  0  0  0  0  0  0
    6.8930   -0.4531    5.3754 C   0  0  0  0  0  0  0  0  0  0  0  0
    4.5834    1.8972    3.1241 C   0  0  0  0  0  0  0  0  0  0  0  0
    3.6833    2.1853    4.1282 N   0  0  0  0  0  0  0  0  0  0  0  0
    4.0541    3.2487    5.0690 C   0  0  0  0  0  0  0  0  0  0  0  0
    3.7471    4.6856    4.6382 C   0  0  0  0  0  0  0  0  0  0  0  0
    2.2510    4.8786    4.4054 C   0  0  0  0  0  0  0  0  0  0  0  0
    1.4641    4.5034    5.6582 C   0  0  0  0  0  0  0  0  0  0  0  0
    1.9385    6.3097    3.9870 C   0  0  0  0  0  0  0  0  0  0  0  0
    5.4410    2.7388    2.8516 O   0  0  0  0  0  0  0  0  0  0  0  0
  1  2  2  0
  1  3  1  0
  1  4  1  0
  5  7  1  0
  5  6  1  1
  5  4  1  0
  7  8  2  0
  7  9  1  0
 10  9  1  0
 10 11  1  1
 10 19  1  0
 11 12  1  0
 12 13  1  0
 13 14  2  0
 13 18  1  0
 14 15  1  0
 15 16  2  0
 16 17  1  0
 17 18  2  0
 19 20  1  0
 19 26  2  0
 20 21  1  0
 21 22  1  0
 22 23  1  0
 23 24  1  0
 23 25  1  0
M  END
>  <DRUGBANK_ID>  (1) 
DB03691

>  <SECONDARY_ACCESSION_NUMBERS>  (1) 
EXPT02790

>  <COMMON_NAME>  (1) 
WRR-112

$$$$
