
     RDKit          3D

 33 34  0  0  0  0  0  0  0  0999 V2000
    1.0331    0.0147    0.0535 C   0  0  1  0  0  0  0  0  0  0  0  0
    0.3353    1.1608   -0.7220 C   0  0  0  0  0  0  0  0  0  0  0  0
    2.6210   -0.0716   -0.0227 C   0  0  0  0  0  0  0  0  0  0  0  0
    3.2397   -0.0727   -1.2209 O   0  0  0  0  0  0  0  0  0  0  0  0
    2.6050   -0.1225   -2.4923 C   0  0  0  0  0  0  0  0  0  0  0  0
    1.7482   -1.3598   -2.6554 C   0  0  0  0  0  0  0  0  0  0  0  0
    0.5548    0.0240    1.4751 N   0  0  0  0  0  0  0  0  0  0  0  0
    3.3473   -0.2104    0.9580 O   0  0  0  0  0  0  0  0  0  0  0  0
    5.2504   -0.4035    5.2965 C   0  0  0  0  0  0  0  0  0  0  0  0
    6.4308   -1.0232    4.8729 N   0  0  0  0  0  0  0  0  0  0  0  0
    7.4487   -0.6079    5.5945 C   0  0  0  0  0  0  0  0  0  0  0  0
    5.4187    0.5011    6.3338 C   0  0  0  0  0  0  0  0  0  0  0  0
    7.0879    0.6299    6.7170 S   0  0  0  0  0  0  0  0  0  0  0  0
    5.1784    0.7955    9.4162 C   0  0  0  0  0  0  0  0  0  0  0  0
    4.0163    0.7064    8.4357 C   0  0  0  0  0  0  0  0  0  0  0  0
    4.3862    1.2998    7.0741 C   0  0  0  0  0  0  0  0  0  0  0  0
    2.8190    1.4638    9.0124 C   0  0  0  0  0  0  0  0  0  0  0  0
    8.7029   -1.0756    5.5104 N   0  0  0  0  0  0  0  0  0  0  0  0
    3.8958   -0.6208    4.6450 C   0  0  0  0  0  0  0  0  0  0  0  0
    3.3987   -1.7192    3.9878 C   0  0  0  0  0  0  0  0  0  0  0  0
    2.2092   -1.2945    3.2938 C   0  0  0  0  0  0  0  0  0  0  0  0
    2.1046    0.0775    3.4981 C   0  0  0  0  0  0  0  0  0  0  0  0
    2.9107    0.3368    4.5846 O   0  0  0  0  0  0  0  0  0  0  0  0
    1.1481    1.4916    2.2891 P   0  0  0  0  0  0  0  0  0  0  0  0
    2.0719    2.0016    1.1821 O   0  0  0  0  0  0  0  0  0  0  0  0
    1.7415    2.9592    3.1030 N   0  0  0  0  0  0  0  0  0  0  0  0
    2.6641    2.7905    4.2087 C   0  0  1  0  0  0  0  0  0  0  0  0
    4.0255    2.3340    3.6617 C   0  0  0  0  0  0  0  0  0  0  0  0
    2.9572    4.0088    5.0330 C   0  0  0  0  0  0  0  0  0  0  0  0
    2.6575    4.1225    6.2058 O   0  0  0  0  0  0  0  0  0  0  0  0
    3.7322    4.8603    4.3051 O   0  0  0  0  0  0  0  0  0  0  0  0
    4.2910    5.9437    5.0285 C   0  0  0  0  0  0  0  0  0  0  0  0
    3.1695    6.8903    5.3797 C   0  0  0  0  0  0  0  0  0  0  0  0
  1  3  1  0
  1  2  1  1
  3  4  1  0
  3  8  2  0
  4  5  1  0
  5  6  1  0
  7  1  1  0
  9 10  1  0
  9 19  1  0
 10 11  2  0
 11 13  1  0
 11 18  1  0
 12 13  1  0
 12  9  2  0
 12 16  1  0
 14 15  1  0
 15 16  1  0
 15 17  1  0
 19 20  2  0
 20 21  1  0
 21 22  2  0
 22 23  1  0
 22 24  1  0
 23 19  1  0
 24  7  1  0
 24 25  2  0
 24 26  1  0
 26 27  1  0
 27 28  1  6
 27 29  1  0
 29 30  2  0
 29 31  1  0
 31 32  1  0
 32 33  1  0
M  END
>  <DRUGBANK_ID>  (1) 
DB05518

>  <COMMON_NAME>  (1) 
Managlinat dialanetil

>  <CAS_NUMBER>  (1) 
280782-97-0

>  <UNII>  (1) 
3W93F83K7S

>  <SYNONYMS>  (1) 
Managlinat dialanetil; Managlinat dialanÃ©til; Managlinat dialanetilo; Managlinatum dialanetilum

$$$$
