
     RDKit          3D

 21 24  0  0  1  0  0  0  0  0999 V2000
   -1.0773   -1.4138    1.5248 O   0  0  0  0  0  0  0  0  0  0  0  0
    2.2064   -0.0705    2.1920 O   0  0  0  0  0  0  0  0  0  0  0  0
    4.6507   -3.6114   10.5565 O   0  0  0  0  0  0  0  0  0  0  0  0
    0.3497   -2.9871    3.1377 C   0  0  1  0  0  0  0  0  0  0  0  0
    1.2527   -2.0407    3.8688 C   0  0  2  0  0  0  0  0  0  0  0  0
    1.8791   -2.2617    5.1701 C   0  0  1  0  0  0  0  0  0  0  0  0
    2.6552   -3.5689    5.2258 C   0  0  2  0  0  0  0  0  0  0  0  0
    0.2631   -1.8053    1.8436 C   0  0  2  0  0  0  0  0  0  0  0  0
    1.1685   -4.3717    3.2138 C   0  0  0  0  0  0  0  0  0  0  0  0
    0.5193   -0.7047    3.8477 C   0  0  0  0  0  0  0  0  0  0  0  0
    0.8230   -0.3857    2.4256 C   0  0  1  0  0  0  0  0  0  0  0  0
    1.7402   -4.6951    4.6883 C   0  0  0  0  0  0  0  0  0  0  0  0
    2.8970   -1.1170    5.3356 C   0  0  0  0  0  0  0  0  0  0  0  0
   -0.9337   -3.2969    3.9604 C   0  0  0  0  0  0  0  0  0  0  0  0
    3.2156   -3.6025    6.6497 C   0  0  0  0  0  0  0  0  0  0  0  0
    3.1432   -1.0100    6.7961 C   0  0  0  0  0  0  0  0  0  0  0  0
    3.4402   -2.3684    7.3601 C   0  0  0  0  0  0  0  0  0  0  0  0
    3.5506   -4.7881    7.2754 C   0  0  0  0  0  0  0  0  0  0  0  0
    3.8958   -2.3820    8.6746 C   0  0  0  0  0  0  0  0  0  0  0  0
    4.0368   -4.7857    8.5888 C   0  0  0  0  0  0  0  0  0  0  0  0
    4.1910   -3.5701    9.2750 C   0  0  0  0  0  0  0  0  0  0  0  0
  3 21  1  0
  4  5  1  0
  4  8  1  0
  4  9  1  0
  4 14  1  1
  5  6  1  0
  5 10  1  1
  6  7  1  0
  6 13  1  6
  7 12  1  1
  7 15  1  0
  8 11  1  0
  8  1  1  1
  9 12  1  0
 10 11  1  0
 11  2  1  1
 13 16  1  0
 15 17  2  0
 15 18  1  0
 16 17  1  0
 17 19  1  0
 18 20  2  0
 19 21  2  0
 20 21  1  0
M  END
>  <DRUGBANK_ID>  (1) 
DB04573

>  <SECONDARY_ACCESSION_NUMBERS>  (1) 
EXPT01361; DB05375

>  <COMMON_NAME>  (1) 
Estriol

>  <CAS_NUMBER>  (1) 
50-27-1

>  <UNII>  (1) 
FB33469R8E

>  <SYNONYMS>  (1) 
(16α,17β)-estra-1,3,5(10)-triene-3,16,17-triol; 1,3,5(10)-Estratriene-3,16-alpha,17beta-triol; 16-alpha-Hydroxyestradiol; 16alpha-hydroxyestradiol; 16α-hydroxyestradiol; 16α,17β-estriol; 3,16alpha,17beta-Trihydroxy-delta(1,3,5)-estratriene; Estriol; Oestriol; Östriol; Trihydroxyestrin

$$$$
