S23
     RDKit          3D

 29 30  0  0  0  0  0  0  0  0999 V2000
    7.1476   -1.3433    5.5674 O   0  0  0  0  0  0  0  0  0  0  0  0
    6.9179   -0.3078    4.4648 P   0  0  0  0  0  0  0  0  0  0  0  0
    7.6011   -1.4179    3.3273 O   0  0  0  0  0  0  0  0  0  0  0  0
    8.7376    0.5982    3.7781 C   0  0  1  0  0  0  0  0  0  0  0  0
    8.4345    1.7390    2.9140 N   0  0  0  0  0  0  0  0  0  0  0  0
    9.6403    0.6182    4.9551 C   0  0  0  0  0  0  0  0  0  0  0  0
    6.1953    0.8664    5.6681 C   0  0  0  0  0  0  0  0  0  0  0  0
    6.3982    2.3944    5.5314 C   0  0  1  0  0  0  0  0  0  0  0  0
    7.8280    2.8492    5.8713 C   0  0  0  0  0  0  0  0  0  0  0  0
    8.3967    2.2937    7.1948 C   0  0  0  0  0  0  0  0  0  0  0  0
    9.2447    3.0952    7.9286 C   0  0  0  0  0  0  0  0  0  0  0  0
    9.7896    2.6065    9.1228 C   0  0  0  0  0  0  0  0  0  0  0  0
    9.5793    1.2922    9.5681 C   0  0  0  0  0  0  0  0  0  0  0  0
    8.8416    0.4294    8.8098 C   0  0  0  0  0  0  0  0  0  0  0  0
    8.2903    0.9399    7.6554 C   0  0  0  0  0  0  0  0  0  0  0  0
    5.8458    2.6591    4.1441 C   0  0  0  0  0  0  0  0  0  0  0  0
    5.8390    1.7096    3.3397 O   0  0  0  0  0  0  0  0  0  0  0  0
    5.3436    3.8436    3.7459 N   0  0  0  0  0  0  0  0  0  0  0  0
    4.7032    4.0309    2.3993 C   0  0  2  0  0  0  0  0  0  0  0  0
    3.1793    4.2748    2.5880 C   0  0  0  0  0  0  0  0  0  0  0  0
    2.7879    5.1452    3.3555 O   0  0  0  0  0  0  0  0  0  0  0  0
    2.2655    3.5186    1.9633 O   0  0  0  0  0  0  0  0  0  0  0  0
    5.2661    3.1642    1.2230 C   0  0  0  0  0  0  0  0  0  0  0  0
    4.3943    2.0673    0.6527 C   0  0  0  0  0  0  0  0  0  0  0  0
    4.2913    0.7734    1.1936 C   0  0  0  0  0  0  0  0  0  0  0  0
    3.3814   -0.1524    0.6898 C   0  0  0  0  0  0  0  0  0  0  0  0
    2.4807    0.2389   -0.2890 C   0  0  0  0  0  0  0  0  0  0  0  0
    2.5419    1.5267   -0.8159 C   0  0  0  0  0  0  0  0  0  0  0  0
    3.5265    2.4161   -0.3912 C   0  0  0  0  0  0  0  0  0  0  0  0
  2  4  1  0
  2  7  1  0
  2  3  1  0
  2  1  2  0
  4  5  1  0
  4  6  1  1
  8  7  1  6
  8 16  1  0
  8  9  1  0
 10  9  1  0
 11 10  2  0
 12 11  1  0
 13 12  2  0
 13 14  1  0
 14 15  2  0
 15 10  1  0
 16 18  1  0
 17 16  2  0
 19 23  1  6
 19 18  1  0
 20 19  1  0
 20 22  1  0
 21 20  2  0
 23 24  1  0
 24 29  1  0
 25 24  2  0
 25 26  1  0
 26 27  2  0
 27 28  1  0
 29 28  2  0
M  END
>  <DRUGBANK_ID>  (1) 
DB08506

>  <COMMON_NAME>  (1) 
N-{(2S)-3-[(1R)-1-aminoethyl](hydroxy)phosphoryl-2-benzylpropanoyl}-L-phenylalanine

$$$$
