1116
     RDKit          3D

 26 30  0  0  1  0  0  0  0  0999 V2000
   -0.3833    1.4677    0.8067 S   0  0  0  0  0  0  0  0  0  0  0  0
    2.5260   -2.4985    1.2528 O   0  0  0  0  0  0  0  0  0  0  0  0
    0.7895   -2.2135   -0.2722 N   0  0  0  0  0  0  0  0  0  0  0  0
    2.5570   -0.7430   -0.2635 N   0  0  0  0  0  0  0  0  0  0  0  0
    0.3165   -1.0350    0.3384 C   0  0  0  0  0  0  0  0  0  0  0  0
   -1.0659   -0.5108    0.2032 C   0  0  0  0  0  0  0  0  0  0  0  0
    1.4612    0.0278    0.1731 C   0  0  0  0  0  0  0  0  0  0  0  0
    0.8868    1.2367   -0.5135 C   0  0  0  0  0  0  0  0  0  0  0  0
   -2.0690   -0.0230   -0.8100 C   0  0  0  0  0  0  0  0  0  0  0  0
   -1.7480    2.1757   -0.0859 C   0  0  0  0  0  0  0  0  0  0  0  0
   -2.6944    1.0293    0.1362 C   0  0  0  0  0  0  0  0  0  0  0  0
    2.1302   -2.0324    0.1475 C   0  0  0  0  0  0  0  0  0  0  0  0
    0.4825   -2.4457   -1.6785 C   0  0  0  0  0  0  0  0  0  0  0  0
    3.2184   -0.5479   -1.5381 C   0  0  0  0  0  0  0  0  0  0  0  0
   -0.1066   -3.8133   -1.8752 C   0  0  0  0  0  0  0  0  0  0  0  0
    4.4593   -1.4010   -1.5325 C   0  0  0  0  0  0  0  0  0  0  0  0
   -1.3715   -4.1323   -1.3640 C   0  0  0  0  0  0  0  0  0  0  0  0
    0.6107   -4.7815   -2.5895 C   0  0  0  0  0  0  0  0  0  0  0  0
    4.3546   -2.7787   -1.2454 C   0  0  0  0  0  0  0  0  0  0  0  0
    5.7244   -0.8568   -1.7137 C   0  0  0  0  0  0  0  0  0  0  0  0
   -1.9089   -5.4018   -1.5663 C   0  0  0  0  0  0  0  0  0  0  0  0
    0.0499   -6.0318   -2.8325 C   0  0  0  0  0  0  0  0  0  0  0  0
    5.4571   -3.5717   -1.0180 C   0  0  0  0  0  0  0  0  0  0  0  0
    6.8373   -1.6949   -1.6336 C   0  0  0  0  0  0  0  0  0  0  0  0
   -1.1988   -6.3492   -2.3019 C   0  0  0  0  0  0  0  0  0  0  0  0
    6.7059   -3.0336   -1.2469 C   0  0  0  0  0  0  0  0  0  0  0  0
  1  6  1  0
  1  8  1  0
  1 10  1  0
  2 12  2  0
  3  5  1  0
  3 12  1  0
  3 13  1  0
  4  7  1  0
  4 12  1  0
  4 14  1  0
  5  6  1  0
  5  7  1  0
  6  9  1  0
  7  8  1  0
  9 11  1  0
 10 11  1  0
 13 15  1  0
 14 16  1  0
 15 17  2  0
 15 18  1  0
 16 19  2  0
 16 20  1  0
 17 21  1  0
 18 22  2  0
 19 23  1  0
 20 24  2  0
 21 25  2  0
 22 25  1  0
 23 26  2  0
 24 26  1  0
M  CHG  1   1   1
M  END
>  <DRUGBANK_ID>  (1) 
DB01116

>  <SECONDARY_ACCESSION_NUMBERS>  (1) 
APRD00044

>  <COMMON_NAME>  (1) 
Trimethaphan

>  <CAS_NUMBER>  (1) 
7187-66-8

>  <UNII>  (1) 
6G8X656T45

>  <SYNONYMS>  (1) 
Thimethaphan; Trimetaphan; Trimetaphanum

$$$$
