
     RDKit          3D

 31 32  0  0  0  0  0  0  0  0999 V2000
    3.2121    0.1322    0.1738 S   0  0  0  0  0  0  0  0  0  0  0  0
   -0.9222   -3.6517   -2.0892 O   0  0  0  0  0  0  0  0  0  0  0  0
    3.7970   -3.7152    0.8096 O   0  0  0  0  0  0  0  0  0  0  0  0
    4.7424   -2.5659   -2.1818 O   0  0  0  0  0  0  0  0  0  0  0  0
    5.0521   -1.2766   -3.9621 O   0  0  0  0  0  0  0  0  0  0  0  0
   -0.6542   -1.9250    3.9139 O   0  0  0  0  0  0  0  0  0  0  0  0
   -0.4657   -3.7696    2.5810 O   0  0  0  0  0  0  0  0  0  0  0  0
    0.7776   -3.2269   -0.7499 N   0  0  0  0  0  0  0  0  0  0  0  0
    2.1955   -2.7558    2.1026 N   0  0  0  0  0  0  0  0  0  0  0  0
    2.8992    0.3678   -2.7842 N   0  0  0  0  0  0  0  0  0  0  0  0
    2.0126   -2.6067   -0.3283 C   0  0  1  0  0  0  0  0  0  0  0  0
    1.8551   -1.0137   -0.2216 C   0  0  0  0  0  0  0  0  0  0  0  0
    1.5416   -1.5022   -3.6398 C   0  0  0  0  0  0  0  0  0  0  0  0
    1.0448   -2.9284   -3.3182 C   0  0  0  0  0  0  0  0  0  0  0  0
    2.8479   -1.1042   -2.9504 C   0  0  1  0  0  0  0  0  0  0  0  0
    0.2455   -3.2597   -2.0127 C   0  0  0  0  0  0  0  0  0  0  0  0
    5.2919    0.1048    2.0449 C   0  0  0  0  0  0  0  0  0  0  0  0
    4.0056   -0.5384    1.6398 C   0  0  0  0  0  0  0  0  0  0  0  0
    2.7090   -3.1450    0.9015 C   0  0  0  0  0  0  0  0  0  0  0  0
    6.2852    0.5573    1.1279 C   0  0  0  0  0  0  0  0  0  0  0  0
    7.4011    1.2164    1.6650 C   0  0  0  0  0  0  0  0  0  0  0  0
    5.4995    0.1525    3.4383 C   0  0  0  0  0  0  0  0  0  0  0  0
    6.2443    0.4019   -0.2892 C   0  0  0  0  0  0  0  0  0  0  0  0
    7.5436    1.3228    3.0659 C   0  0  0  0  0  0  0  0  0  0  0  0
    6.6207    0.7668    3.9487 C   0  0  0  0  0  0  0  0  0  0  0  0
    4.2665   -1.6899   -3.1043 C   0  0  0  0  0  0  0  0  0  0  0  0
    8.3646    1.7490    0.7864 C   0  0  0  0  0  0  0  0  0  0  0  0
    7.1628    0.9861   -1.1491 C   0  0  0  0  0  0  0  0  0  0  0  0
    0.9984   -1.9601    2.2511 C   0  0  0  0  0  0  0  0  0  0  0  0
    8.2350    1.6587   -0.6046 C   0  0  0  0  0  0  0  0  0  0  0  0
   -0.0864   -2.6693    2.9526 C   0  0  0  0  0  0  0  0  0  0  0  0
  1 12  1  0
  1 18  1  0
  2 16  2  0
  3 19  2  0
  4 26  1  0
  5 26  2  0
  6 31  1  0
  7 31  2  0
  8 16  1  0
  9 19  1  0
  9 29  1  0
 11 19  1  0
 11 12  1  1
 11  8  1  0
 13 14  1  0
 14 16  1  0
 15 26  1  0
 15 13  1  0
 15 10  1  6
 17 18  1  0
 17 20  2  0
 17 22  1  0
 20 21  1  0
 20 23  1  0
 21 24  2  0
 21 27  1  0
 22 25  2  0
 23 28  2  0
 24 25  1  0
 27 30  2  0
 28 30  1  0
 29 31  1  0
M  END
>  <DRUGBANK_ID>  (1) 
DB03885

>  <SECONDARY_ACCESSION_NUMBERS>  (1) 
EXPT01588

>  <COMMON_NAME>  (1) 
L-gamma-glutamyl-S-(naphthalen-1-ylmethyl)-L-cysteinylglycine

>  <SYNONYMS>  (1) 
1-menaphthyl glutathione conjugate; L-gammaGlu-S-(1-Naphthylmethyl)-L-Cys-Gly-OH

$$$$
