
     RDKit          3D

 44 48  0  0  0  0  0  0  0  0999 V2000
    1.0455   -0.0646    0.0476 C   0  0  0  0  0  0  0  0  0  0  0  0
    0.6510    1.2513    0.3510 N   0  0  0  0  0  0  0  0  0  0  0  0
   -0.2896    1.9513   -0.7723 C   0  0  0  0  0  0  0  0  0  0  0  0
   -1.7308    2.4522   -0.3369 C   0  0  0  0  0  0  0  0  0  0  0  0
   -1.5954    3.7220    0.3541 N   0  0  0  0  0  0  0  0  0  0  0  0
   -0.2100    3.9983    0.8825 C   0  0  0  0  0  0  0  0  0  0  0  0
    0.1634    4.4101    2.8283 C   0  0  0  0  0  0  0  0  0  0  0  0
   -0.5332    5.1455    1.7018 C   0  0  0  0  0  0  0  0  0  0  0  0
   -2.3768    5.8222    1.3590 C   0  0  0  0  0  0  0  0  0  0  0  0
   -2.4640    4.8561    0.2352 C   0  0  0  0  0  0  0  0  0  0  0  0
   -0.1715    5.2806    3.7398 O   0  0  0  0  0  0  0  0  0  0  0  0
   -0.8255    5.2291    4.9637 C   0  0  0  0  0  0  0  0  0  0  0  0
   -1.5253    4.2639    5.3247 O   0  0  0  0  0  0  0  0  0  0  0  0
   -0.7724    6.3497    5.8199 N   0  0  0  0  0  0  0  0  0  0  0  0
   -0.8076    8.2954    6.2488 C   0  0  0  0  0  0  0  0  0  0  0  0
   -1.3040    9.3980    5.4878 C   0  0  0  0  0  0  0  0  0  0  0  0
   -0.5770   10.5589    5.5201 C   0  0  0  0  0  0  0  0  0  0  0  0
    0.3019   10.8945    6.5815 C   0  0  0  0  0  0  0  0  0  0  0  0
    0.6240   10.1150    7.6829 C   0  0  0  0  0  0  0  0  0  0  0  0
    0.3132    8.8165    7.5362 C   0  0  0  0  0  0  0  0  0  0  0  0
    1.3780    7.7034    8.4770 C   0  0  0  0  0  0  0  0  0  0  0  0
    1.9399    6.3668    7.9930 C   0  0  0  0  0  0  0  0  0  0  0  0
    2.4061    5.3616    8.7866 C   0  0  0  0  0  0  0  0  0  0  0  0
    2.2700    5.5689   10.1308 C   0  0  0  0  0  0  0  0  0  0  0  0
    1.6993    6.7257   10.6591 C   0  0  0  0  0  0  0  0  0  0  0  0
    1.2509    7.7571    9.8601 C   0  0  0  0  0  0  0  0  0  0  0  0
    1.2333    1.6234    1.6184 C   0  0  0  0  0  0  0  0  0  0  0  0
    1.9350    0.9729    2.3882 O   0  0  0  0  0  0  0  0  0  0  0  0
    0.8730    2.8321    2.2667 C   0  0  0  0  0  0  0  0  0  0  0  0
   -1.0190    2.9443    2.6536 C   0  0  0  0  0  0  0  0  0  0  0  0
   -1.8337    4.6555    2.9704 C   0  0  0  0  0  0  0  0  0  0  0  0
   -0.8738    6.4658    2.7440 C   0  0  0  0  0  0  0  0  0  0  0  0
    1.0602    6.1739    2.3507 C   0  0  0  0  0  0  0  0  0  0  0  0
    1.8511    4.4606    1.9547 C   0  0  0  0  0  0  0  0  0  0  0  0
   -1.3140    7.7922    2.8240 C   0  0  0  0  0  0  0  0  0  0  0  0
   -1.1769    7.6171    4.1687 N   0  0  0  0  0  0  0  0  0  0  0  0
   -2.5731    7.0389    5.1001 C   0  0  0  0  0  0  0  0  0  0  0  0
   -2.4070    7.1002    6.9159 C   0  0  0  0  0  0  0  0  0  0  0  0
   -0.5158    6.8556    7.5612 C   0  0  0  0  0  0  0  0  0  0  0  0
    0.9429    7.4455    6.1150 C   0  0  0  0  0  0  0  0  0  0  0  0
    0.5073    7.5116    4.5966 C   0  0  0  0  0  0  0  0  0  0  0  0
   -1.1027    7.3081    8.9232 C   0  0  0  0  0  0  0  0  0  0  0  0
   -1.1332    6.4209    9.7755 O   0  0  0  0  0  0  0  0  0  0  0  0
   -1.5138    8.6642    9.1158 N   0  0  0  0  0  0  0  0  0  0  0  0
  1  2  1  0
  2  3  1  0
  2 27  1  0
  3  4  1  0
  4  5  1  0
  5  6  1  0
  5 10  1  0
  6  7  1  0
  7  8  1  0
  8  9  1  0
  8 11  1  0
  9 10  1  0
 11 12  1  0
 12 13  2  0
 12 14  1  0
 14 15  1  0
 15 16  2  0
 15 20  1  0
 16 17  1  0
 17 18  2  0
 18 19  1  0
 19 20  2  0
 20 21  1  0
 21 22  2  0
 21 26  1  0
 22 23  1  0
 23 24  2  0
 24 25  1  0
 25 26  2  0
 27 28  2  0
 27 29  1  0
 29 30  2  0
 29 34  1  0
 30 31  1  0
 31 32  2  0
 32 33  1  0
 32 35  1  0
 33 34  2  0
 35 36  1  0
 36 37  1  0
 36 41  1  0
 37 38  1  0
 38 39  1  0
 39 40  1  0
 39 42  1  0
 40 41  1  0
 42 43  2  0
 42 44  1  0
M  END
>  <DRUGBANK_ID>  (1) 
DB11855

>  <COMMON_NAME>  (1) 
Revefenacin

>  <CAS_NUMBER>  (1) 
864750-70-9

>  <UNII>  (1) 
G2AE2VE07O

>  <SYNONYMS>  (1) 
Revefenacin

$$$$
