
     RDKit          3D

 32 35  0  0  0  0  0  0  0  0999 V2000
   -0.3464    0.0667   -0.0282 C   0  0  0  0  0  0  0  0  0  0  0  0
    0.3312    1.3046   -0.0350 C   0  0  0  0  0  0  0  0  0  0  0  0
    1.7226    1.2303   -0.0505 C   0  0  0  0  0  0  0  0  0  0  0  0
    2.4194    0.0311   -0.1095 C   0  0  0  0  0  0  0  0  0  0  0  0
    1.7643   -1.1870   -0.0683 C   0  0  0  0  0  0  0  0  0  0  0  0
    0.3631   -1.1693   -0.0377 C   0  0  0  0  0  0  0  0  0  0  0  0
   -2.0764    0.0070   -0.0033 Cl  0  0  0  0  0  0  0  0  0  0  0  0
    2.4361   -2.4000   -0.0211 O   0  0  0  0  0  0  0  0  0  0  0  0
    3.8287   -2.3970    0.0736 C   0  0  0  0  0  0  0  0  0  0  0  0
    4.5262   -2.9935   -0.9716 C   0  0  0  0  0  0  0  0  0  0  0  0
    5.9071   -2.9690   -0.9168 C   0  0  0  0  0  0  0  0  0  0  0  0
    6.6139   -2.4060    0.0896 N   0  0  0  0  0  0  0  0  0  0  0  0
    4.5422   -1.8409    1.1696 C   0  0  0  0  0  0  0  0  0  0  0  0
    5.9404   -1.8489    1.1149 C   0  0  0  0  0  0  0  0  0  0  0  0
    6.6375   -1.2421    2.1590 C   0  0  0  0  0  0  0  0  0  0  0  0
    6.0304   -0.5917    3.2689 C   0  0  0  0  0  0  0  0  0  0  0  0
    4.6284   -0.5718    3.3171 C   0  0  0  0  0  0  0  0  0  0  0  0
    3.9316   -1.2321    2.2838 C   0  0  0  0  0  0  0  0  0  0  0  0
    7.0378   -0.1112    4.0698 O   0  0  0  0  0  0  0  0  0  0  0  0
    3.6673   -0.0394    4.1355 O   0  0  0  0  0  0  0  0  0  0  0  0
    4.0086    0.7281    5.2509 C   0  0  0  0  0  0  0  0  0  0  0  0
   -0.3413    2.5855   -0.0496 N   0  0  0  0  0  0  0  0  0  0  0  0
    0.3371    3.8077   -0.0979 C   0  0  0  0  0  0  0  0  0  0  0  0
   -0.4530    4.9451   -0.1618 N   0  0  0  0  0  0  0  0  0  0  0  0
    1.5496    3.9122   -0.0874 O   0  0  0  0  0  0  0  0  0  0  0  0
    0.2108    6.1819   -0.1873 C   0  0  0  0  0  0  0  0  0  0  0  0
   -0.1953    7.2567    0.5031 N   0  0  0  0  0  0  0  0  0  0  0  0
    0.7697    8.2436    0.2776 O   0  0  0  0  0  0  0  0  0  0  0  0
    1.6890    7.7864   -0.6181 C   0  0  0  0  0  0  0  0  0  0  0  0
    1.3732    6.4942   -0.9408 C   0  0  0  0  0  0  0  0  0  0  0  0
    2.7590    8.7067   -1.0584 C   0  0  0  0  0  0  0  0  0  0  0  0
    6.7739    0.4937    5.3080 C   0  0  0  0  0  0  0  0  0  0  0  0
  1  2  2  0
  1  7  1  0
  2  3  1  0
  2 22  1  0
  3  4  2  0
  4  5  1  0
  5  6  2  0
  5  8  1  0
  6  1  1  0
  8  9  1  0
  9 10  2  0
 10 11  1  0
 11 12  2  0
 12 14  1  0
 13  9  1  0
 13 14  2  0
 14 15  1  0
 15 16  2  0
 16 17  1  0
 16 19  1  0
 17 18  2  0
 17 20  1  0
 18 13  1  0
 19 32  1  0
 20 21  1  0
 22 23  1  0
 23 24  1  0
 23 25  2  0
 24 26  1  0
 26 27  2  0
 27 28  1  0
 28 29  1  0
 29 30  2  0
 29 31  1  0
 30 26  1  0
M  END
>  <DRUGBANK_ID>  (1) 
DB11800

>  <COMMON_NAME>  (1) 
Tivozanib

>  <CAS_NUMBER>  (1) 
475108-18-0

>  <UNII>  (1) 
172030934T

>  <SYNONYMS>  (1) 
Tivozanib

$$$$
