
     RDKit          3D

 39 43  0  0  0  0  0  0  0  0999 V2000
    2.5055   -0.1433   -0.0823 C   0  0  0  0  0  0  0  0  0  0  0  0
    1.1551   -0.3056   -0.6584 N   0  0  0  0  0  0  0  0  0  0  0  0
    0.4192   -1.3633    0.0652 C   0  0  0  0  0  0  0  0  0  0  0  0
   -1.0940   -1.3163   -0.2670 C   0  0  0  0  0  0  0  0  0  0  0  0
   -1.7890   -0.0696    0.0893 N   0  0  0  0  0  0  0  0  0  0  0  0
   -2.0421    0.0577    1.5494 C   0  0  0  0  0  0  0  0  0  0  0  0
   -0.8697    0.2706    2.5057 C   0  0  0  0  0  0  0  0  0  0  0  0
   -0.0662    1.4511    2.5931 C   0  0  0  0  0  0  0  0  0  0  0  0
    1.2151    1.3898    3.1892 C   0  0  0  0  0  0  0  0  0  0  0  0
    1.5017    0.3405    4.0303 C   0  0  0  0  0  0  0  0  0  0  0  0
    2.7698    0.2203    4.6326 N   0  0  0  0  0  0  0  0  0  0  0  0
    3.2511   -0.7644    5.4875 C   0  0  0  0  0  0  0  0  0  0  0  0
    4.3168   -0.5980    6.0781 O   0  0  0  0  0  0  0  0  0  0  0  0
    2.4986   -2.0342    5.7174 C   0  0  0  0  0  0  0  0  0  0  0  0
    2.0063   -2.7972    4.6270 C   0  0  0  0  0  0  0  0  0  0  0  0
    1.0489   -3.8090    4.8129 C   0  0  0  0  0  0  0  0  0  0  0  0
    0.3845   -4.3906    3.6415 C   0  0  0  0  0  0  0  0  0  0  0  0
   -0.1268   -4.9086    2.6939 C   0  0  0  0  0  0  0  0  0  0  0  0
   -0.6489   -5.6566    1.5546 C   0  0  0  0  0  0  0  0  0  0  0  0
   -0.6043   -7.0481    1.5609 C   0  0  0  0  0  0  0  0  0  0  0  0
   -0.9884   -7.7333    0.3949 C   0  0  0  0  0  0  0  0  0  0  0  0
   -1.4338   -6.9997   -0.6922 C   0  0  0  0  0  0  0  0  0  0  0  0
   -1.7287   -7.9184   -1.6658 N   0  0  0  0  0  0  0  0  0  0  0  0
   -1.4573   -9.1946   -1.3033 N   0  0  0  0  0  0  0  0  0  0  0  0
   -1.0646   -9.0725   -0.0309 C   0  0  0  0  0  0  0  0  0  0  0  0
   -1.5634   -5.6608   -0.7551 N   0  0  0  0  0  0  0  0  0  0  0  0
   -1.1446   -5.0526    0.3999 C   0  0  0  0  0  0  0  0  0  0  0  0
    0.7313   -4.1809    6.1298 C   0  0  0  0  0  0  0  0  0  0  0  0
   -0.2545   -5.2719    6.4423 C   0  0  0  0  0  0  0  0  0  0  0  0
    1.3543   -3.5193    7.2184 C   0  0  0  0  0  0  0  0  0  0  0  0
    2.1590   -2.3933    7.0219 C   0  0  0  0  0  0  0  0  0  0  0  0
    0.4673   -0.5521    4.2620 C   0  0  0  0  0  0  0  0  0  0  0  0
   -0.5540   -0.7650    3.3606 C   0  0  0  0  0  0  0  0  0  0  0  0
   -0.4264    2.7219    1.8659 C   0  0  0  0  0  0  0  0  0  0  0  0
   -0.5103    3.8371    2.6270 F   0  0  0  0  0  0  0  0  0  0  0  0
    0.4804    3.0475    0.8999 F   0  0  0  0  0  0  0  0  0  0  0  0
   -1.6394    2.6304    1.2870 F   0  0  0  0  0  0  0  0  0  0  0  0
   -1.1024    1.0023   -0.6501 C   0  0  0  0  0  0  0  0  0  0  0  0
    0.4367    0.9563   -0.4535 C   0  0  0  0  0  0  0  0  0  0  0  0
  1  2  1  0
  2  3  1  0
  2 39  1  0
  3  4  1  0
  4  5  1  0
  5  6  1  0
  5 38  1  0
  6  7  1  0
  7  8  2  0
  7 33  1  0
  8  9  1  0
  8 34  1  0
  9 10  2  0
 10 11  1  0
 10 32  1  0
 11 12  1  0
 12 13  2  0
 12 14  1  0
 14 15  2  0
 14 31  1  0
 15 16  1  0
 16 17  1  0
 16 28  2  0
 17 18  3  0
 18 19  1  0
 19 20  2  0
 19 27  1  0
 20 21  1  0
 21 22  2  0
 21 25  1  0
 22 23  1  0
 22 26  1  0
 23 24  1  0
 24 25  2  0
 26 27  2  0
 28 29  1  0
 28 30  1  0
 30 31  2  0
 32 33  2  0
 34 35  1  0
 34 36  1  0
 34 37  1  0
 38 39  1  0
M  END
>  <DRUGBANK_ID>  (1) 
DB16185

>  <COMMON_NAME>  (1) 
HQP1351

>  <CAS_NUMBER>  (1) 
1257628-77-5

>  <UNII>  (1) 
KV1M7Q3CBP

>  <SYNONYMS>  (1) 
Hqp-1351 free base; Hqp1351 free base; Olverembatinib

$$$$
