ZY6
     RDKit          3D

 23 26  0  0  0  0  0  0  0  0999 V2000
    1.3784   -0.2460   -0.0180 C   0  0  0  0  0  0  0  0  0  0  0  0
    0.4998   -1.3306    0.0093 C   0  0  0  0  0  0  0  0  0  0  0  0
   -0.8774   -1.1177   -0.0288 C   0  0  0  0  0  0  0  0  0  0  0  0
   -1.3787    0.1783   -0.0977 C   0  0  0  0  0  0  0  0  0  0  0  0
   -0.4973    1.2581   -0.1595 C   0  0  0  0  0  0  0  0  0  0  0  0
    0.8915    1.0657   -0.1148 C   0  0  0  0  0  0  0  0  0  0  0  0
    1.8076    2.2076   -0.2506 C   0  0  0  0  0  0  0  0  0  0  0  0
    2.5735    2.2697   -1.4309 C   0  0  0  0  0  0  0  0  0  0  0  0
    3.4141    3.2585   -1.8081 N   0  0  0  0  0  0  0  0  0  0  0  0
    3.4458    4.2497   -0.9092 C   0  0  0  0  0  0  0  0  0  0  0  0
    4.1950    5.3827   -1.0096 N   0  0  0  0  0  0  0  0  0  0  0  0
    4.0629    6.2218    0.0355 N   0  0  0  0  0  0  0  0  0  0  0  0
    3.1930    5.5757    0.8243 C   0  0  0  0  0  0  0  0  0  0  0  0
    2.7504    4.3391    0.2923 C   0  0  0  0  0  0  0  0  0  0  0  0
    1.8891    3.2792    0.6811 C   0  0  0  0  0  0  0  0  0  0  0  0
    1.2063    3.3046    1.8847 N   0  0  0  0  0  0  0  0  0  0  0  0
    0.2033    4.3347    2.1649 C   0  0  0  0  0  0  0  0  0  0  0  0
    1.2729    2.2225    2.8718 C   0  0  0  0  0  0  0  0  0  0  0  0
   -0.1282    1.6749    3.1906 C   0  0  0  0  0  0  0  0  0  0  0  0
   -1.0487    2.7238    3.5490 O   0  0  0  0  0  0  0  0  0  0  0  0
   -1.1686    3.6830    2.4711 C   0  0  1  0  0  0  0  0  0  0  0  0
   -2.2148    4.7388    2.8662 C   0  0  0  0  0  0  0  0  0  0  0  0
   -2.4343    5.7464    1.8260 N   0  0  0  0  0  0  0  0  0  0  0  0
  1  2  2  0
  1  6  1  0
  2  3  1  0
  3  4  2  0
  4  5  1  0
  5  6  2  0
  6  7  1  0
  7  8  2  0
  7 15  1  0
  8  9  1  0
  9 10  2  0
 10 11  1  0
 10 14  1  0
 11 12  1  0
 12 13  2  0
 13 14  1  0
 14 15  2  0
 15 16  1  0
 16 17  1  0
 16 18  1  0
 17 21  1  0
 18 19  1  0
 19 20  1  0
 20 21  1  0
 21 22  1  1
 22 23  1  0
M  END
>  <DRUGBANK_ID>  (1) 
DB08774

>  <COMMON_NAME>  (1) 
1-[(2S)-4-(5-phenyl-1H-pyrazolo[3,4-b]pyridin-4-yl)morpholin-2-yl]methanamine

$$$$
