676
     RDKit          3D

 16 17  0  0  0  0  0  0  0  0999 V2000
    1.1358   -0.0516   -0.0709 O   0  0  0  0  0  0  0  0  0  0  0  0
    3.0483    0.6052    0.9283 O   0  0  0  0  0  0  0  0  0  0  0  0
    0.3488   -0.5058   -2.3561 C   0  0  0  0  0  0  0  0  0  0  0  0
    0.2997   -0.9152   -0.8998 C   0  0  0  0  0  0  0  0  0  0  0  0
    3.3289   -0.9555   -0.7857 C   0  0  0  0  0  0  0  0  0  0  0  0
    0.2668    0.8566   -2.6925 C   0  0  0  0  0  0  0  0  0  0  0  0
    0.7356   -1.4295   -3.3451 C   0  0  0  0  0  0  0  0  0  0  0  0
    2.4868   -0.0896    0.0736 C   0  0  0  0  0  0  0  0  0  0  0  0
    0.6887    1.3027   -3.9484 C   0  0  0  0  0  0  0  0  0  0  0  0
    1.1959   -0.9673   -4.5882 C   0  0  0  0  0  0  0  0  0  0  0  0
    3.2961   -0.8166   -2.1621 C   0  0  0  0  0  0  0  0  0  0  0  0
    4.3171   -1.7838   -0.2652 C   0  0  0  0  0  0  0  0  0  0  0  0
    1.1822    0.3954   -4.8847 C   0  0  0  0  0  0  0  0  0  0  0  0
    3.9305   -1.7202   -3.0151 C   0  0  0  0  0  0  0  0  0  0  0  0
    5.1153   -2.5528   -1.1310 C   0  0  0  0  0  0  0  0  0  0  0  0
    4.8433   -2.6077   -2.4950 C   0  0  0  0  0  0  0  0  0  0  0  0
  1  4  1  0
  1  8  1  0
  2  8  2  0
  3  4  1  0
  3  6  2  0
  3  7  1  0
  5  8  1  0
  5 11  2  0
  5 12  1  0
  6  9  1  0
  7 10  2  0
  9 13  2  0
 10 13  1  0
 11 14  1  0
 12 15  2  0
 14 16  2  0
 15 16  1  0
M  END
>  <DRUGBANK_ID>  (1) 
DB00676

>  <SECONDARY_ACCESSION_NUMBERS>  (1) 
APRD00821; EXPT00792; DB02775

>  <COMMON_NAME>  (1) 
Benzyl benzoate

>  <CAS_NUMBER>  (1) 
120-51-4

>  <UNII>  (1) 
N863NB338G

>  <SYNONYMS>  (1) 
Acarobenzyl; Benylate; Benzevan; Benzoate de benzyle; BenzoesÃ¤urebenzylester; Benzoic acid phenylmethylester; Benzoic acid, benzyl ester; Benzoic acid, phenylmethyl ester; Benzyl benzoat; Benzyl benzoate; Benzylis benzoas; Phenylmethyl benzoate

$$$$
