
     RDKit          3D

  4  3  0  0  0  0  0  0  0  0999 V2000
    0.9587    0.0486   -0.0614 C   0  0  0  0  0  0  0  0  0  0  0  0
    0.2209    0.9633   -1.0136 C   0  0  0  0  0  0  0  0  0  0  0  0
    0.3599   -0.7602    0.7553 N   0  0  0  0  0  0  0  0  0  0  0  0
   -0.6400    0.1642   -1.8821 N   0  0  0  0  0  0  0  0  0  0  0  0
  1  2  1  0
  1  3  2  0
  2  4  1  0
M  END
>  <DRUGBANK_ID>  (1) 
DB02108

>  <SECONDARY_ACCESSION_NUMBERS>  (1) 
EXPT00447

>  <COMMON_NAME>  (1) 
2-Aminoethanimidic Acid

>  <SYNONYMS>  (1) 
2-aminoethylimine

$$$$
