
     RDKit          3D

 13 13  0  0  1  0  0  0  0  0999 V2000
    0.5190    1.9101    3.6782 C   0  0  0  0  0  0  0  0  0  0  0  0
    0.7695    1.2326    2.4545 O   0  0  0  0  0  0  0  0  0  0  0  0
    0.9886    2.0792    1.3188 C   0  0  2  0  0  0  0  0  0  0  0  0
    2.4003    2.3016    1.1460 O   0  0  0  0  0  0  0  0  0  0  0  0
    2.6846    3.0173   -0.0796 C   0  0  2  0  0  0  0  0  0  0  0  0
    4.2007    3.0658   -0.2971 C   0  0  0  0  0  0  0  0  0  0  0  0
    4.7108    1.7438   -0.4605 O   0  0  0  0  0  0  0  0  0  0  0  0
    2.0945    4.4257    0.0422 C   0  0  2  0  0  0  0  0  0  0  0  0
    2.6193    5.0916    1.2067 O   0  0  0  0  0  0  0  0  0  0  0  0
    0.5728    4.3134    0.1803 C   0  0  2  0  0  0  0  0  0  0  0  0
    0.0050    5.6154    0.3621 O   0  0  0  0  0  0  0  0  0  0  0  0
    0.2035    3.4189    1.3656 C   0  0  1  0  0  0  0  0  0  0  0  0
   -1.2107    3.2117    1.4317 O   0  0  0  0  0  0  0  0  0  0  0  0
  1  2  1  0
  3  4  1  0
  3 12  1  0
  3  2  1  1
  4  5  1  0
  5  6  1  1
  5  8  1  0
  6  7  1  0
  8  9  1  1
  8 10  1  0
 10 11  1  1
 10 12  1  0
 12 13  1  6
M  END
>  <DRUGBANK_ID>  (1) 
DB04046

>  <SECONDARY_ACCESSION_NUMBERS>  (1) 
EXPT02122; DB03324

>  <COMMON_NAME>  (1) 
Methyl beta-galactoside

>  <UNII>  (1) 
64RYD088RJ

$$$$
