655
     RDKit          3D

 25 28  0  0  0  0  0  0  0  0999 V2000
    2.1879    0.7673   -0.0052 C   0  0  0  0  0  0  0  0  0  0  0  0
    2.1713   -0.6479    0.0130 C   0  0  0  0  0  0  0  0  0  0  0  0
    0.9828   -1.3992    0.0111 C   0  0  0  0  0  0  0  0  0  0  0  0
   -0.1999   -0.6713   -0.0792 C   0  0  0  0  0  0  0  0  0  0  0  0
   -0.2366    0.7114   -0.1181 C   0  0  0  0  0  0  0  0  0  0  0  0
    0.9527    1.4366   -0.0261 C   0  0  0  0  0  0  0  0  0  0  0  0
    3.4504    1.5435   -0.0437 C   0  0  0  0  0  0  0  0  0  0  0  0
    3.4407    2.8629   -0.0714 N   0  0  0  0  0  0  0  0  0  0  0  0
    4.6166    0.9309   -0.0726 N   0  0  0  0  0  0  0  0  0  0  0  0
   -1.5230   -1.0172   -0.1317 N   0  0  0  0  0  0  0  0  0  0  0  0
   -1.4946    1.2020   -0.3005 N   0  0  0  0  0  0  0  0  0  0  0  0
   -2.2754    0.1387   -0.2927 C   0  0  0  0  0  0  0  0  0  0  0  0
   -3.7494    0.1019   -0.2277 C   0  0  0  0  0  0  0  0  0  0  0  0
   -4.5244    0.6636   -1.2385 C   0  0  0  0  0  0  0  0  0  0  0  0
   -5.9113    0.5813   -1.1774 C   0  0  0  0  0  0  0  0  0  0  0  0
   -6.5243   -0.0958   -0.1241 C   0  0  0  0  0  0  0  0  0  0  0  0
   -5.7541   -0.6431    0.9189 C   0  0  0  0  0  0  0  0  0  0  0  0
   -6.5452   -1.2754    1.8644 O   0  0  0  0  0  0  0  0  0  0  0  0
   -4.3342   -0.4937    0.9132 C   0  0  0  0  0  0  0  0  0  0  0  0
   -3.5278   -0.8027    1.8528 O   0  0  0  0  0  0  0  0  0  0  0  0
   -5.3053   -1.0481    4.0100 C   0  0  0  0  0  0  0  0  0  0  0  0
   -5.9691   -1.9609    2.9788 C   0  0  0  0  0  0  0  0  0  0  0  0
   -5.0168   -3.1209    2.6295 C   0  0  0  0  0  0  0  0  0  0  0  0
   -3.8166   -2.9813    3.5729 C   0  0  0  0  0  0  0  0  0  0  0  0
   -4.2002   -1.9154    4.6107 C   0  0  0  0  0  0  0  0  0  0  0  0
  1  2  2  0
  1  6  1  0
  1  7  1  0
  2  3  1  0
  3  4  2  0
  4  5  1  0
  4 10  1  0
  5  6  2  0
  5 11  1  0
  7  8  1  0
  7  9  2  0
 10 12  1  0
 11 12  2  0
 12 13  1  0
 13 14  2  0
 13 19  1  0
 14 15  1  0
 15 16  2  0
 16 17  1  0
 17 18  1  0
 17 19  2  0
 18 22  1  0
 19 20  1  0
 21 22  1  0
 21 25  1  0
 22 23  1  0
 23 24  1  0
 24 25  1  0
M  CHG  2   9   1  20  -1
M  END
>  <DRUGBANK_ID>  (1) 
DB02526

>  <SECONDARY_ACCESSION_NUMBERS>  (1) 
EXPT00270

>  <COMMON_NAME>  (1) 
CRA_10655

$$$$
