
     RDKit          3D

  6  4  0  0  0  0  0  0  0  0999 V2000
    0.7436   -0.2060   -1.1216 Ca  0  0  0  0  0 15  0  0  0  0  0  0
    1.4291    0.2391    0.7778 O   0  0  0  0  0  0  0  0  0  0  0  0
    3.7783    0.4552    1.4113 O   0  0  0  0  0  0  0  0  0  0  0  0
    2.8944   -1.2069   -0.2106 O   0  0  0  0  0  0  0  0  0  0  0  0
    2.8528    0.1439    0.3647 S   0  0  0  0  0  0  0  0  0  0  0  0
    2.8457    1.0141   -0.8228 O   0  0  0  0  0  0  0  0  0  0  0  0
  2  5  1  0
  5  3  1  0
  5  4  2  0
  5  6  2  0
M  CHG  3   1   2   2  -1   3  -1
M  END
>  <DRUGBANK_ID>  (1) 
DB15533

>  <COMMON_NAME>  (1) 
Calcium sulfate

>  <CAS_NUMBER>  (1) 
7778-18-9

>  <UNII>  (1) 
E934B3V59H

>  <SYNONYMS>  (1) 
Anhydrous gypsum; Calcium sulfate, anhydrous; Calcium sulphate

$$$$
