
     RDKit          3D

 29 31  0  0  0  0  0  0  0  0999 V2000
    0.5210   -0.3874   -0.2463 O   0  0  0  0  0  0  0  0  0  0  0  0
   -0.1722    2.4613   -0.7887 O   0  0  0  0  0  0  0  0  0  0  0  0
    2.7002   -0.6667   -0.7241 O   0  0  0  0  0  0  0  0  0  0  0  0
    1.8596    1.6051   -1.6702 O   0  0  0  0  0  0  0  0  0  0  0  0
    2.5973   -0.0331    2.5484 N   0  0  0  0  0  0  0  0  0  0  0  0
    2.1102    1.0809    0.7230 N   0  0  0  0  0  0  0  0  0  0  0  0
    0.4449    2.6560   -2.8998 N   0  0  0  0  0  0  0  0  0  0  0  0
    3.2419   -1.2593    2.1972 C   0  0  0  0  0  0  0  0  0  0  0  0
    3.7034    1.3655    1.9010 C   0  0  0  0  0  0  0  0  0  0  0  0
    4.7181   -0.9683    2.3791 C   0  0  0  0  0  0  0  0  0  0  0  0
    4.9826    1.5957    2.4943 C   0  0  0  0  0  0  0  0  0  0  0  0
    5.4631    0.3263    1.8781 C   0  0  0  0  0  0  0  0  0  0  0  0
    0.8305   -0.5203    2.1938 C   0  0  0  0  0  0  0  0  0  0  0  0
   -0.0021    0.3372    0.8059 C   0  0  0  0  0  0  0  0  0  0  0  0
    0.1350    2.0989    0.5128 C   0  0  0  0  0  0  0  0  0  0  0  0
    1.8159   -0.0819   -0.1276 C   0  0  0  0  0  0  0  0  0  0  0  0
    0.8128    2.1934   -1.7100 C   0  0  0  0  0  0  0  0  0  0  0  0
    1.7881    2.1472    2.1861 C   0  0  0  0  0  0  0  0  0  0  0  0
   -0.3982    3.7239   -3.0093 C   0  0  0  0  0  0  0  0  0  0  0  0
    0.9216    1.7513    3.2143 C   0  0  0  0  0  0  0  0  0  0  0  0
    2.4927    3.2376    2.8843 C   0  0  0  0  0  0  0  0  0  0  0  0
   -0.2547    4.8193   -2.1419 C   0  0  0  0  0  0  0  0  0  0  0  0
   -1.3495    3.6764   -3.9968 C   0  0  0  0  0  0  0  0  0  0  0  0
    0.6905    1.8953    4.4783 C   0  0  0  0  0  0  0  0  0  0  0  0
    2.3502    3.5792    4.2217 C   0  0  0  0  0  0  0  0  0  0  0  0
    1.3261    2.9949    4.9714 C   0  0  0  0  0  0  0  0  0  0  0  0
   -1.0709    5.9150   -2.3037 C   0  0  0  0  0  0  0  0  0  0  0  0
   -2.1169    4.8055   -4.1939 C   0  0  0  0  0  0  0  0  0  0  0  0
   -2.0098    5.9007   -3.3283 C   0  0  0  0  0  0  0  0  0  0  0  0
  1 14  1  0
  1 16  1  0
  2 15  1  0
  2 17  1  0
  3 16  2  0
  4 17  2  0
  5  8  1  0
  5  9  1  0
  5 13  1  0
  6 16  1  0
  6 18  1  0
  7 17  1  0
  7 19  1  0
  8 10  1  0
  9 11  1  0
 10 12  1  0
 11 12  1  0
 13 14  1  0
 14 15  1  0
 18 20  2  0
 18 21  1  0
 19 22  2  0
 19 23  1  0
 20 24  1  0
 21 25  2  0
 22 27  1  0
 23 28  2  0
 24 26  2  0
 25 26  1  0
 27 29  2  0
 28 29  1  0
M  END
>  <DRUGBANK_ID>  (1) 
DB11513

>  <COMMON_NAME>  (1) 
Diperodon

>  <CAS_NUMBER>  (1) 
101-08-6

>  <UNII>  (1) 
UIN4PYP84R

>  <SYNONYMS>  (1) 
Diperodón; Diperodon; Dipérodon; Diperodonum

$$$$
