
     RDKit          3D

 12 13  0  0  0  0  0  0  0  0999 V2000
    0.0210    0.6910    0.0330 C   0  0  0  0  0  0  0  0  0  0  0  0
    0.0250   -0.6860   -0.0340 C   0  0  0  0  0  0  0  0  0  0  0  0
    1.2330   -1.3750   -0.0660 C   0  0  0  0  0  0  0  0  0  0  0  0
    2.4310   -0.6980   -0.0330 C   0  0  0  0  0  0  0  0  0  0  0  0
    2.4330    0.6970    0.0310 C   0  0  0  0  0  0  0  0  0  0  0  0
    1.2210    1.3830    0.0690 C   0  0  0  0  0  0  0  0  0  0  0  0
   -1.2520    1.4960    0.0790 Se  0  0  0  0  0  2  0  0  0  0  0  0
   -2.4370    0.6550   -0.3900 N   0  0  0  0  0  0  0  0  0  0  0  0
   -2.4330   -0.6640    0.3910 C   0  0  0  0  0  0  0  0  0  0  0  0
   -1.2430   -1.4980   -0.0800 C   0  0  0  0  0  0  0  0  0  0  0  0
   -1.0903   -2.6976    0.8408 C   0  0  0  0  0  0  0  0  0  0  0  0
   -1.4896   -1.9587   -1.5073 C   0  0  0  0  0  0  0  0  0  0  0  0
  1  2  1  0
  1  6  2  0
  1  7  1  0
  2  3  2  0
  2 10  1  0
  3  4  1  0
  4  5  2  0
  5  6  1  0
  7  8  1  0
  8  9  1  0
  9 10  1  0
 10 11  1  0
 10 12  1  0
M  END
>  <DRUGBANK_ID>  (1) 
DB05631

>  <COMMON_NAME>  (1) 
ALT-2074

>  <CAS_NUMBER>  (1) 
173026-17-0

>  <UNII>  (1) 
634U7OUR4R

$$$$
