
     RDKit          3D

 20 22  0  0  0  0  0  0  0  0999 V2000
    0.9050   -0.0685    0.1017 C   0  0  0  0  0  0  0  0  0  0  0  0
    0.3934   -0.0670    1.4384 O   0  0  0  0  0  0  0  0  0  0  0  0
    0.8161   -1.1402    2.1783 C   0  0  0  0  0  0  0  0  0  0  0  0
    2.1554   -1.5303    2.2299 C   0  0  0  0  0  0  0  0  0  0  0  0
    2.5269   -2.6529    2.9650 C   0  0  0  0  0  0  0  0  0  0  0  0
    1.5608   -3.3641    3.6799 C   0  0  0  0  0  0  0  0  0  0  0  0
    1.9433   -4.5667    4.4331 C   0  0  0  0  0  0  0  0  0  0  0  0
    3.1059   -4.9607    4.4306 O   0  0  0  0  0  0  0  0  0  0  0  0
    0.8613   -5.2627    5.1780 C   0  0  0  0  0  0  0  0  0  0  0  0
   -0.3654   -4.7196    5.1197 C   0  0  0  0  0  0  0  0  0  0  0  0
   -0.7361   -3.5944    4.4117 O   0  0  0  0  0  0  0  0  0  0  0  0
    0.2342   -2.9418    3.6895 C   0  0  0  0  0  0  0  0  0  0  0  0
   -0.1407   -1.8196    2.9422 C   0  0  0  0  0  0  0  0  0  0  0  0
    1.1465   -6.4834    5.9523 C   0  0  0  0  0  0  0  0  0  0  0  0
    2.0718   -6.4455    7.0073 C   0  0  0  0  0  0  0  0  0  0  0  0
    2.4244   -7.6118    7.6961 C   0  0  0  0  0  0  0  0  0  0  0  0
    1.8447   -8.8210    7.3295 C   0  0  0  0  0  0  0  0  0  0  0  0
    2.1546   -9.9900    7.9596 O   0  0  0  0  0  0  0  0  0  0  0  0
    0.9229   -8.8783    6.2909 C   0  0  0  0  0  0  0  0  0  0  0  0
    0.5680   -7.7122    5.6055 C   0  0  0  0  0  0  0  0  0  0  0  0
  1  2  1  0
  2  3  1  0
  3  4  2  0
  3 13  1  0
  4  5  1  0
  5  6  2  0
  6  7  1  0
  6 12  1  0
  7  8  2  0
  7  9  1  0
  9 10  2  0
  9 14  1  0
 10 11  1  0
 11 12  1  0
 12 13  2  0
 14 15  2  0
 14 20  1  0
 15 16  1  0
 16 17  2  0
 17 18  1  0
 17 19  1  0
 19 20  2  0
M  END
>  <DRUGBANK_ID>  (1) 
DB04202

>  <SECONDARY_ACCESSION_NUMBERS>  (1) 
EXPT01760

>  <COMMON_NAME>  (1) 
Isoformononetin

$$$$
