
     RDKit          3D

 34 36  0  0  1  0  0  0  0  0999 V2000
    1.0782    0.0130   -0.0440 C   0  0  0  0  0  0  0  0  0  0  0  0
    0.4685   -1.3621    0.1969 C   0  0  0  0  0  0  0  0  0  0  0  0
    0.9571   -1.8358    1.5574 C   0  0  0  0  0  0  0  0  0  0  0  0
   -1.0726   -1.3516    0.1548 C   0  0  0  0  0  0  0  0  0  0  0  0
   -1.5967   -0.9060   -1.1239 N   0  0  0  0  0  0  0  0  0  0  0  0
   -2.0278   -1.7710   -2.0655 N   0  0  0  0  0  0  0  0  0  0  0  0
   -2.2533   -0.9982   -3.1268 C   0  0  0  0  0  0  0  0  0  0  0  0
   -1.9277    0.3301   -2.8845 C   0  0  0  0  0  0  0  0  0  0  0  0
   -1.9731    1.4436   -3.6697 C   0  0  0  0  0  0  0  0  0  0  0  0
   -1.6991    2.5444   -2.8998 C   0  0  0  0  0  0  0  0  0  0  0  0
   -2.3371    3.6108   -3.4061 O   0  0  0  0  0  0  0  0  0  0  0  0
   -1.7865    4.5257   -2.6202 C   0  0  0  0  0  0  0  0  0  0  0  0
    0.1511    4.5718   -2.6920 C   0  0  0  0  0  0  0  0  0  0  0  0
    0.9610    6.0754   -2.0313 C   0  0  0  0  0  0  0  0  0  0  0  0
    0.0799    7.4162   -1.4794 C   0  0  0  0  0  0  0  0  0  0  0  0
    0.6307    8.5398   -0.9646 F   0  0  0  0  0  0  0  0  0  0  0  0
   -1.5265    7.4300   -1.4990 C   0  0  0  0  0  0  0  0  0  0  0  0
   -2.5921    6.0391   -1.9210 C   0  0  0  0  0  0  0  0  0  0  0  0
   -3.8773    6.4001   -2.1961 F   0  0  0  0  0  0  0  0  0  0  0  0
   -1.1609    2.6620   -1.5462 C   0  0  0  0  0  0  0  0  0  0  0  0
   -1.1882    1.5389   -0.8418 C   0  0  0  0  0  0  0  0  0  0  0  0
   -1.5715    0.3920   -1.5378 C   0  0  0  0  0  0  0  0  0  0  0  0
   -0.7831    4.0442   -0.6947 C   0  0  0  0  0  0  0  0  0  0  0  0
   -0.3215    4.0418    0.4409 O   0  0  0  0  0  0  0  0  0  0  0  0
   -0.8406    5.4387   -1.4089 N   0  0  0  0  0  0  0  0  0  0  0  0
   -0.9819    5.9899   -3.4236 C   0  0  2  0  0  0  0  0  0  0  0  0
   -2.5702    6.4745   -4.1576 C   0  0  0  0  0  0  0  0  0  0  0  0
   -2.5351    8.0226   -3.7721 C   0  0  0  0  0  0  0  0  0  0  0  0
   -1.2171    8.7202   -4.2625 N   0  0  0  0  0  0  0  0  0  0  0  0
   -0.8702    9.9852   -3.6908 C   0  0  0  0  0  0  0  0  0  0  0  0
    0.1712    8.2669   -4.1318 C   0  0  0  0  0  0  0  0  0  0  0  0
    0.2480    5.7329   -4.8162 C   0  0  0  0  0  0  0  0  0  0  0  0
    0.1940    4.7866   -5.7752 N   0  0  0  0  0  0  0  0  0  0  0  0
    1.3610    6.2629   -4.8962 O   0  0  0  0  0  0  0  0  0  0  0  0
  1  2  1  0
  2  3  1  0
  2  4  1  0
  4  5  1  0
  5  6  1  0
  5 22  1  0
  6  7  2  0
  7  8  1  0
  8  9  1  0
  8 22  2  0
  9 10  2  0
 10 11  1  0
 10 20  1  0
 11 12  1  0
 12 13  2  0
 12 18  1  0
 13 14  1  0
 14 15  2  0
 15 16  1  0
 15 17  1  0
 17 18  2  0
 18 19  1  0
 20 21  2  0
 20 23  1  0
 21 22  1  0
 23 24  2  0
 23 25  1  0
 26 25  1  0
 26 27  1  6
 26 32  1  0
 27 28  1  0
 28 29  1  0
 29 30  1  0
 29 31  1  0
 32 33  1  0
 32 34  2  0
M  END
>  <DRUGBANK_ID>  (1) 
DB17603

>  <COMMON_NAME>  (1) 
Emprumapimod

>  <CAS_NUMBER>  (1) 
765914-60-1

>  <UNII>  (1) 
4JG61K4659

$$$$
