
     RDKit          3D

 11 10  0  0  0  0  0  0  0  0999 V2000
    0.8748   -0.3357   -0.1851 C   0  0  0  0  0  0  0  0  0  0  0  0
    0.1594    0.5992   -1.1799 C   0  0  1  0  0  0  0  0  0  0  0  0
    0.3370   -0.8830    0.7652 O   0  0  0  0  0  0  0  0  0  0  0  0
   -0.7457   -0.2794   -1.9445 N   0  0  0  0  0  0  0  0  0  0  0  0
   -0.6128    1.7522   -0.4903 C   0  0  0  0  0  0  0  0  0  0  0  0
    0.2183    2.7049    0.1931 O   0  0  0  0  0  0  0  0  0  0  0  0
    2.1843   -0.5318   -0.4848 O   0  0  0  0  0  0  0  0  0  0  0  0
    0.9646    2.2009    1.5529 S   0  0  0  0  0  0  0  0  0  0  0  0
   -0.0095    1.6699    2.4666 O   0  0  0  0  0  0  0  0  0  0  0  0
    2.1510    1.4820    1.1348 O   0  0  0  0  0  0  0  0  0  0  0  0
    1.5963    3.4967    2.2462 O   0  0  0  0  0  0  0  0  0  0  0  0
  1  2  1  0
  1  3  2  0
  2  4  1  1
  2  5  1  0
  5  6  1  0
  6  8  1  0
  7  1  1  0
  9  8  2  0
 10  8  2  0
 11  8  1  0
M  END
>  <DRUGBANK_ID>  (1) 
DB03497

>  <SECONDARY_ACCESSION_NUMBERS>  (1) 
EXPT02449

>  <COMMON_NAME>  (1) 
L-serine O-sulfate

>  <CAS_NUMBER>  (1) 
626-69-7

>  <UNII>  (1) 
81K4VO7FNP

>  <SYNONYMS>  (1) 
O-sulfo-L-serine; O-sulfonato-L-serine; Serine O-sulfate; Sulfoserine

$$$$
