
     RDKit          3D

 30 32  0  0  1  0  0  0  0  0999 V2000
    1.2624   -0.2311    0.1243 C   0  0  0  0  0  0  0  0  0  0  0  0
    0.6600   -0.0424    1.5124 C   0  0  0  0  0  0  0  0  0  0  0  0
    0.9532    1.3566    1.9676 C   0  0  0  0  0  0  0  0  0  0  0  0
    0.4281    2.5981    1.2268 C   0  0  2  0  0  0  0  0  0  0  0  0
   -0.5406    2.2723    0.1119 C   0  0  0  0  0  0  0  0  0  0  0  0
   -1.2198    1.1288   -0.2925 C   0  0  0  0  0  0  0  0  0  0  0  0
   -1.6970    1.3368   -1.5753 C   0  0  0  0  0  0  0  0  0  0  0  0
   -1.5396    2.6728   -1.7823 C   0  0  0  0  0  0  0  0  0  0  0  0
   -0.8135    3.2638   -0.7941 O   0  0  0  0  0  0  0  0  0  0  0  0
   -2.0662    3.4855   -2.8684 C   0  0  0  0  0  0  0  0  0  0  0  0
    1.6313    3.4030    0.8562 N   0  0  0  0  0  0  0  0  0  0  0  0
    1.7447    4.6687    1.2442 C   0  0  0  0  0  0  0  0  0  0  0  0
    1.6311    5.3739    2.4304 C   0  0  0  0  0  0  0  0  0  0  0  0
    2.0401    6.6313    1.7692 C   0  0  0  0  0  0  0  0  0  0  0  0
    2.2180    7.8031    2.0535 O   0  0  0  0  0  0  0  0  0  0  0  0
    2.1720    5.8739    0.5068 C   0  0  0  0  0  0  0  0  0  0  0  0
    2.4436    6.1936   -0.6374 O   0  0  0  0  0  0  0  0  0  0  0  0
    1.3594    5.1097    3.7101 N   0  0  0  0  0  0  0  0  0  0  0  0
    1.3921    3.7880    4.2735 C   0  0  0  0  0  0  0  0  0  0  0  0
    0.3293    3.3200    5.0296 C   0  0  0  0  0  0  0  0  0  0  0  0
    0.3043    1.9807    5.4420 C   0  0  0  0  0  0  0  0  0  0  0  0
    1.3847    1.1070    5.1647 C   0  0  0  0  0  0  0  0  0  0  0  0
    2.5327    1.5473    4.4506 C   0  0  0  0  0  0  0  0  0  0  0  0
    2.4775    2.9163    4.0228 C   0  0  0  0  0  0  0  0  0  0  0  0
    3.3691    3.5473    3.1854 O   0  0  0  0  0  0  0  0  0  0  0  0
    3.5717    0.4275    4.0731 C   0  0  0  0  0  0  0  0  0  0  0  0
    3.3240   -0.7299    4.4292 O   0  0  0  0  0  0  0  0  0  0  0  0
    4.7530    0.6830    3.3364 N   0  0  0  0  0  0  0  0  0  0  0  0
    5.2094    1.9900    3.0393 C   0  0  0  0  0  0  0  0  0  0  0  0
    5.7402   -0.3304    3.0419 C   0  0  0  0  0  0  0  0  0  0  0  0
  1  2  1  0
  2  3  1  0
  4  3  1  6
  4  5  1  0
  4 11  1  0
  5  6  2  0
  5  9  1  0
  6  7  1  0
  7  8  2  0
  8  9  1  0
  8 10  1  0
 11 12  1  0
 12 13  2  0
 12 16  1  0
 13 14  1  0
 13 18  1  0
 14 15  2  0
 14 16  1  0
 16 17  2  0
 18 19  1  0
 19 20  2  0
 19 24  1  0
 20 21  1  0
 21 22  2  0
 22 23  1  0
 23 24  2  0
 23 26  1  0
 24 25  1  0
 26 27  2  0
 26 28  1  0
 28 29  1  0
 28 30  1  0
M  END
>  <DRUGBANK_ID>  (1) 
DB11711

>  <COMMON_NAME>  (1) 
Navarixin

>  <CAS_NUMBER>  (1) 
473727-83-2

>  <UNII>  (1) 
4GMU5HUX5I

>  <SYNONYMS>  (1) 
Navarixin; Navarixin anhydrous

$$$$
