
     RDKit          3D

 22 24  0  0  0  0  0  0  0  0999 V2000
   -0.6497   -6.2379    1.1227 C   0  0  0  0  0  0  0  0  0  0  0  0
   -0.7049   -5.2558    2.0101 C   0  0  0  0  0  0  0  0  0  0  0  0
   -0.9970   -4.2594    1.2148 C   0  0  0  0  0  0  0  0  0  0  0  0
   -0.2597   -4.1097   -0.4354 C   0  0  0  0  0  0  0  0  0  0  0  0
   -1.4947   -4.8007   -0.9475 C   0  0  0  0  0  0  0  0  0  0  0  0
   -2.0258   -3.7554   -2.3327 N   0  0  0  0  0  0  0  0  0  0  0  0
   -0.9564   -2.0975   -2.6070 C   0  0  0  0  0  0  0  0  0  0  0  0
    0.1508   -1.5970   -3.7156 C   0  0  0  0  0  0  0  0  0  0  0  0
   -0.0295   -0.2780   -3.6003 C   0  0  0  0  0  0  0  0  0  0  0  0
   -0.1640    0.2021   -2.2949 C   0  0  0  0  0  0  0  0  0  0  0  0
    0.0587   -0.6544   -1.1156 C   0  0  0  0  0  0  0  0  0  0  0  0
   -0.5169    0.0040    0.0563 O   0  0  0  0  0  0  0  0  0  0  0  0
   -0.2759   -0.5854    1.3153 C   0  0  0  0  0  0  0  0  0  0  0  0
   -0.7190   -1.9235    1.4375 C   0  0  2  0  0  0  0  0  0  0  0  0
    0.1243   -2.5366    0.4865 C   0  0  0  0  0  0  0  0  0  0  0  0
   -1.3108   -2.7177   -0.8761 N   0  0  0  0  0  0  0  0  0  0  0  0
   -0.2349   -3.7638   -2.4973 C   0  0  0  0  0  0  0  0  0  0  0  0
   -0.0825   -5.3657   -2.7178 C   0  0  0  0  0  0  0  0  0  0  0  0
   -1.3414   -3.2069   -4.1789 C   0  0  0  0  0  0  0  0  0  0  0  0
   -2.2040   -2.1193    1.3752 O   0  0  0  0  0  0  0  0  0  0  0  0
    0.3231   -2.2711   -1.4112 C   0  0  0  0  0  0  0  0  0  0  0  0
   -1.0721   -6.1198   -0.3370 C   0  0  0  0  0  0  0  0  0  0  0  0
  1  2  2  0
  2  3  1  0
  3  4  2  0
  4 21  1  0
  5  4  1  0
  5 22  2  0
  6  5  1  0
  7  6  1  0
  7 21  2  0
  8  7  1  0
  9  8  2  0
 10  9  1  0
 11 10  2  0
 11 12  1  0
 12 13  1  0
 14 20  1  6
 14 15  1  0
 14 13  1  0
 15 16  1  0
 16 17  1  0
 17 18  1  0
 17 19  1  0
 21 11  1  0
 22  1  1  0
M  END
>  <DRUGBANK_ID>  (1) 
DB07543

>  <COMMON_NAME>  (1) 
(S)-carazolol

>  <CAS_NUMBER>  (1) 
78859-33-3

>  <UNII>  (1) 
6Q9080LN3O

>  <SYNONYMS>  (1) 
(-)-Carazolol

$$$$
