1446
     RDKit          3D

 13 14  0  0  1  0  0  0  0  0999 V2000
   -1.5207    1.0790   -0.0333 N   0  0  0  0  0  0  0  0  0  0  0  0
   -4.2092   -2.0816    1.2210 N   0  0  0  0  0  0  0  0  0  0  0  0
   -2.0817   -2.5696   -0.0263 C   0  0  0  0  0  0  0  0  0  0  0  0
   -1.5794   -1.1532   -0.0419 C   0  0  0  0  0  0  0  0  0  0  0  0
   -2.9804   -2.8898    1.1906 C   0  0  0  0  0  0  0  0  0  0  0  0
   -0.2150   -0.7278    0.0019 C   0  0  0  0  0  0  0  0  0  0  0  0
   -0.2102    0.6667   -0.0045 C   0  0  0  0  0  0  0  0  0  0  0  0
   -2.3410   -0.0059   -0.1585 C   0  0  0  0  0  0  0  0  0  0  0  0
   -3.3973   -4.3564    1.1769 C   0  0  0  0  0  0  0  0  0  0  0  0
    1.0197   -1.4060    0.0248 C   0  0  0  0  0  0  0  0  0  0  0  0
    0.9662    1.4221    0.0035 C   0  0  0  0  0  0  0  0  0  0  0  0
    2.2065   -0.6682   -0.0049 C   0  0  0  0  0  0  0  0  0  0  0  0
    2.1768    0.7241   -0.0183 C   0  0  0  0  0  0  0  0  0  0  0  0
  1  7  1  0
  1  8  1  0
  2  5  1  0
  3  4  1  0
  3  5  1  0
  4  6  1  0
  4  8  2  0
  5  9  1  0
  6  7  2  0
  6 10  1  0
  7 11  1  0
 10 12  2  0
 11 13  2  0
 12 13  1  0
M  END
>  <DRUGBANK_ID>  (1) 
DB01446

>  <COMMON_NAME>  (1) 
Indopan

>  <CAS_NUMBER>  (1) 
299-26-3

>  <UNII>  (1) 
BIK35ACJ0Q

>  <SYNONYMS>  (1) 
1-(1H-Indol-3-yl)-2-propanamine; 3-(2-Aminopropyl)indole; alpha-Methyl-1H-indole-3-ethanamine; alpha-Methyl-beta-indoleethylamine; alpha-methyltryptamine; AMT; DL-3-(2-Aminopropyl)indole; Indopan; α-Methyl-3-indoleethanamine; α-methyltryptamine; αMT

$$$$
