
     RDKit          3D

 17 14  0  0  0  0  0  0  0  0999 V2000
    0.1691   -0.9073    0.6203 C   0  0  0  0  0  0  0  0  0  0  0  0
   -0.7083   -2.7867   -0.6502 C   0  0  0  0  0  0  0  0  0  0  0  0
   -1.9708   -2.3827   -1.3572 C   0  0  0  0  0  0  0  0  0  0  0  0
    0.2240   -1.6519   -0.6636 C   0  0  0  0  0  0  0  0  0  0  0  0
   -1.6595   -2.4183   -2.8505 C   0  0  0  0  0  0  0  0  0  0  0  0
    0.9942   -1.3466   -1.5762 O   0  0  0  0  0  0  0  0  0  0  0  0
   -2.0583   -3.4537   -3.4349 O   0  0  0  0  0  0  0  0  0  0  0  0
   -0.8888   -1.4722   -3.2719 O   0  0  0  0  0  0  0  0  0  0  0  0
    1.8580    0.9893    0.1119 C   0  0  0  0  0  0  0  0  0  0  0  0
   -0.1745    1.4961   -1.7246 C   0  0  0  0  0  0  0  0  0  0  0  0
   -1.6241    1.9401   -1.5711 C   0  0  0  0  0  0  0  0  0  0  0  0
    0.9928    1.9640   -0.6990 C   0  0  0  0  0  0  0  0  0  0  0  0
   -1.5967    3.4242   -1.3068 C   0  0  0  0  0  0  0  0  0  0  0  0
    1.4398    3.0770   -0.7230 O   0  0  0  0  0  0  0  0  0  0  0  0
   -1.9341    4.1391   -2.2792 O   0  0  0  0  0  0  0  0  0  0  0  0
   -1.1732    3.7045   -0.1534 O   0  0  0  0  0  0  0  0  0  0  0  0
    1.5466   -0.1976   -2.9236 Mg  0  0  0  0  0 15  0  0  0  0  0  0
  3  2  1  0
  4  1  1  0
  4  2  1  0
  5  3  1  0
  6  4  2  0
  7  5  2  0
  8  5  1  0
 11 10  1  0
 12  9  1  0
 12 10  1  0
 13 11  1  0
 14 12  2  0
 15 13  2  0
 16 13  1  0
M  CHG  3   8  -1  16  -1  17   2
M  END
>  <DRUGBANK_ID>  (1) 
DB14514

>  <SECONDARY_ACCESSION_NUMBERS>  (1) 
DBSALT002481

>  <COMMON_NAME>  (1) 
Magnesium levulinate

>  <CAS_NUMBER>  (1) 
58505-81-0

>  <UNII>  (1) 
DU3I0H5Z4H

>  <SYNONYMS>  (1) 
Magnesium diasporal

$$$$
