
     RDKit          3D

 37 41  0  0  0  0  0  0  0  0999 V2000
    0.8415   -0.9446    0.4584 C   0  0  0  0  0  0  0  0  0  0  0  0
    0.2252   -0.6933    1.7732 C   0  0  0  0  0  0  0  0  0  0  0  0
    0.9467    0.2805    2.6729 C   0  0  0  0  0  0  0  0  0  0  0  0
   -1.1576   -0.3694    1.5996 O   0  0  0  0  0  0  0  0  0  0  0  0
   -1.7661    0.8624    1.4762 C   0  0  0  0  0  0  0  0  0  0  0  0
   -1.2495    2.0120    0.8960 C   0  0  0  0  0  0  0  0  0  0  0  0
   -2.0195    3.0284    0.2963 C   0  0  0  0  0  0  0  0  0  0  0  0
   -3.2706    3.1436    0.8473 C   0  0  0  0  0  0  0  0  0  0  0  0
   -3.7296    2.2271    1.8099 C   0  0  0  0  0  0  0  0  0  0  0  0
   -2.9885    1.0258    2.0339 C   0  0  0  0  0  0  0  0  0  0  0  0
   -3.4439    0.1527    3.0198 C   0  0  0  0  0  0  0  0  0  0  0  0
   -4.4721    0.4821    3.7931 N   0  0  0  0  0  0  0  0  0  0  0  0
   -5.0891    1.6435    3.5185 C   0  0  0  0  0  0  0  0  0  0  0  0
   -4.7857    2.5100    2.5352 N   0  0  0  0  0  0  0  0  0  0  0  0
   -2.7688   -1.0723    3.2384 N   0  0  0  0  0  0  0  0  0  0  0  0
   -2.9960   -1.9423    4.2943 C   0  0  0  0  0  0  0  0  0  0  0  0
   -4.2261   -2.5875    4.4039 C   0  0  0  0  0  0  0  0  0  0  0  0
   -4.5038   -3.2647    5.5786 C   0  0  0  0  0  0  0  0  0  0  0  0
   -3.6403   -3.3707    6.6302 N   0  0  0  0  0  0  0  0  0  0  0  0
   -2.4494   -2.7753    6.4383 C   0  0  0  0  0  0  0  0  0  0  0  0
   -2.0802   -2.0854    5.3215 C   0  0  0  0  0  0  0  0  0  0  0  0
   -0.8257   -1.5640    5.4032 O   0  0  0  0  0  0  0  0  0  0  0  0
   -0.4483   -1.9765    6.7349 C   0  0  0  0  0  0  0  0  0  0  0  0
   -1.4623   -2.7567    7.4026 O   0  0  0  0  0  0  0  0  0  0  0  0
   -5.3557   -2.6056    3.0905 Cl  0  0  0  0  0  0  0  0  0  0  0  0
   -1.6486    3.9675   -0.6582 O   0  0  0  0  0  0  0  0  0  0  0  0
   -0.7161    3.8019   -1.7877 C   0  0  0  0  0  0  0  0  0  0  0  0
    0.6946    3.4423   -1.3655 C   0  0  0  0  0  0  0  0  0  0  0  0
    0.6651    2.0880   -0.8839 N   0  0  0  0  0  0  0  0  0  0  0  0
    1.9836    1.5509   -0.5939 C   0  0  0  0  0  0  0  0  0  0  0  0
    2.3611    0.5949   -1.7626 C   0  0  0  0  0  0  0  0  0  0  0  0
    1.2418   -0.2287   -2.3839 N   0  0  0  0  0  0  0  0  0  0  0  0
    0.0161    0.4897   -2.6868 C   0  0  0  0  0  0  0  0  0  0  0  0
   -0.4066    1.1878   -1.4563 C   0  0  0  0  0  0  0  0  0  0  0  0
    1.1031   -1.6151   -2.4227 C   0  0  0  0  0  0  0  0  0  0  0  0
    0.0488   -2.1776   -2.7065 O   0  0  0  0  0  0  0  0  0  0  0  0
    2.2912   -2.4437   -2.0478 C   0  0  0  0  0  0  0  0  0  0  0  0
  1  2  1  0
  2  3  1  0
  2  4  1  0
  4  5  1  0
  5  6  2  0
  5 10  1  0
  6  7  1  0
  7  8  2  0
  7 26  1  0
  8  9  1  0
  9 10  2  0
  9 14  1  0
 10 11  1  0
 11 12  2  0
 11 15  1  0
 12 13  1  0
 13 14  2  0
 15 16  1  0
 16 17  2  0
 16 21  1  0
 17 18  1  0
 17 25  1  0
 18 19  2  0
 19 20  1  0
 20 21  2  0
 20 24  1  0
 21 22  1  0
 22 23  1  0
 23 24  1  0
 26 27  1  0
 27 28  1  0
 28 29  1  0
 29 30  1  0
 29 34  1  0
 30 31  1  0
 31 32  1  0
 32 33  1  0
 32 35  1  0
 33 34  1  0
 35 36  2  0
 35 37  1  0
M  END
>  <DRUGBANK_ID>  (1) 
DB13088

>  <COMMON_NAME>  (1) 
AZD-0424

>  <CAS_NUMBER>  (1) 
692054-06-1

>  <UNII>  (1) 
642PS51324

$$$$
