
     RDKit          3D

 33 36  0  0  0  0  0  0  0  0999 V2000
   -0.3103    1.1669   -1.7959 C   0  0  0  0  0  0  0  0  0  0  0  0
   -1.6333    1.3853   -2.6757 C   0  0  0  0  0  0  0  0  0  0  0  0
   -2.5502    2.2743   -2.2089 C   0  0  0  0  0  0  0  0  0  0  0  0
   -0.3508    1.5230   -0.3339 C   0  0  0  0  0  0  0  0  0  0  0  0
   -1.0303    2.6771   -0.4479 C   0  0  0  0  0  0  0  0  0  0  0  0
   -0.4487    3.9169   -1.1891 C   0  0  0  0  0  0  0  0  0  0  0  0
   -1.0896    5.1730   -0.5083 C   0  0  0  0  0  0  0  0  0  0  0  0
   -2.7149    5.1362   -0.6833 C   0  0  2  0  0  0  0  0  0  0  0  0
   -3.8410    6.5963   -0.4536 C   0  0  1  0  0  0  0  0  0  0  0  0
   -5.7920    6.9663   -0.2009 C   0  0  0  0  0  0  0  0  0  0  0  0
   -6.2388    6.9618    1.3004 C   0  0  0  0  0  0  0  0  0  0  0  0
   -4.8118    7.1223    1.4105 C   0  0  2  0  0  0  0  0  0  0  0  0
   -4.8668    8.7276    1.6285 C   0  0  0  0  0  0  0  0  0  0  0  0
   -4.4327    9.7852    0.6191 C   0  0  0  0  0  0  0  0  0  0  0  0
   -4.7629    5.7893    0.2083 C   0  0  1  0  0  0  0  0  0  0  0  0
   -5.1010    5.6666   -1.7263 C   0  0  0  0  0  0  0  0  0  0  0  0
   -5.0439    4.4805    0.9722 C   0  0  0  0  0  0  0  0  0  0  0  0
   -4.6667    3.5437   -0.0723 C   0  0  1  0  0  0  0  0  0  0  0  0
   -3.1743    3.7008   -0.1127 C   0  0  1  0  0  0  0  0  0  0  0  0
   -2.5015    2.4514   -0.6989 C   0  0  1  0  0  0  0  0  0  0  0  0
   -2.9887    1.0364   -0.0627 C   0  0  0  0  0  0  0  0  0  0  0  0
    0.8041    1.0216   -2.2817 O   0  0  0  0  0  0  0  0  0  0  0  0
   -5.3554    9.1504    2.6945 O   0  0  0  0  0  0  0  0  0  0  0  0
   -4.0070    6.6898    2.4720 O   0  0  0  0  0  0  0  0  0  0  0  0
   -5.1697    2.2774   -0.2438 O   0  0  0  0  0  0  0  0  0  0  0  0
   -6.6435   10.8480   -0.0242 C   0  0  0  0  0  0  0  0  0  0  0  0
   -7.0993    9.5503   -0.5419 C   0  0  0  0  0  0  0  0  0  0  0  0
   -8.2614    8.8943    0.2128 C   0  0  0  0  0  0  0  0  0  0  0  0
   -9.5707    9.5501   -0.1169 C   0  0  0  0  0  0  0  0  0  0  0  0
   -9.8380    9.5126   -1.6120 C   0  0  0  0  0  0  0  0  0  0  0  0
  -10.0497    8.0919   -2.1157 C   0  0  0  0  0  0  0  0  0  0  0  0
   -7.3835   11.8573   -0.1191 O   0  0  0  0  0  0  0  0  0  0  0  0
   -5.3855   10.9101    0.4907 O   0  0  0  0  0  0  0  0  0  0  0  0
  1  2  1  0
  1  4  1  0
  1 22  2  0
  2  3  2  0
  3 20  1  0
  4  5  2  0
  5  6  1  0
  5 20  1  0
  6  7  1  0
  8  7  1  1
  8  9  1  0
  8 19  1  0
  9 10  1  6
  9 15  1  0
 10 11  1  0
 11 12  1  0
 12 15  1  0
 12 13  1  0
 12 24  1  1
 13 14  1  0
 13 23  2  0
 14 33  1  0
 15 17  1  0
 15 16  1  6
 17 18  1  0
 19 18  1  6
 18 25  1  1
 19 20  1  0
 20 21  1  1
 26 27  1  0
 26 32  2  0
 26 33  1  0
 27 28  1  0
 28 29  1  0
 29 30  1  0
 30 31  1  0
M  END
>  <DRUGBANK_ID>  (1) 
DB15999

>  <COMMON_NAME>  (1) 
Prednisolone caproate

>  <CAS_NUMBER>  (1) 
69164-69-8

>  <UNII>  (1) 
0PA7CJ4RFB

>  <SYNONYMS>  (1) 
Prednisolone hexanoate; Prednisolone-21 hexanoate

$$$$
