HOC
     RDKit          3D

 11 10  0  0  0  0  0  0  0  0999 V2000
    0.9517    0.1147   -0.1272 C   0  0  0  0  0  0  0  0  0  0  0  0
    0.5042   -1.3210   -0.3548 C   0  0  0  0  0  0  0  0  0  0  0  0
   -1.6569   -5.5034    2.8373 O   0  0  0  0  0  0  0  0  0  0  0  0
   -1.6228   -3.6920    4.4891 C   0  0  0  0  0  0  0  0  0  0  0  0
   -1.1859   -4.1722    3.0888 C   0  0  2  0  0  0  0  0  0  0  0  0
   -1.6611   -3.2117    1.9864 C   0  0  0  0  0  0  0  0  0  0  0  0
   -1.0972   -1.7933    2.1424 C   0  0  0  0  0  0  0  0  0  0  0  0
    0.4351   -1.7844    2.1366 C   0  0  0  0  0  0  0  0  0  0  0  0
    0.9879   -2.2283    0.7789 C   0  0  0  0  0  0  0  0  0  0  0  0
   -1.9755   -4.7090    5.3073 O   0  0  0  0  0  0  0  0  0  0  0  0
   -1.6306   -2.5318    4.8815 O   0  0  0  0  0  0  0  0  0  0  0  0
  1  2  1  0
  2  9  1  0
  4 10  1  0
  4 11  2  0
  5  6  1  0
  5  4  1  0
  5  3  1  6
  6  7  1  0
  7  8  1  0
  8  9  1  0
M  END
>  <DRUGBANK_ID>  (1) 
DB07907

>  <COMMON_NAME>  (1) 
(2S)-2-HYDROXYOCTANOIC ACID

$$$$
