
     RDKit          3D

 20 21  0  0  0  0  0  0  0  0999 V2000
    8.4466    4.1251   -2.0054 C   0  0  0  0  0  0  0  0  0  0  0  0
    8.7566    4.5074   -3.3110 C   0  0  0  0  0  0  0  0  0  0  0  0
    9.0224    5.8421   -3.5953 C   0  0  0  0  0  0  0  0  0  0  0  0
    8.9188    6.8021   -2.5890 C   0  0  0  0  0  0  0  0  0  0  0  0
    8.6042    6.4230   -1.2815 C   0  0  0  0  0  0  0  0  0  0  0  0
    8.3751    5.0791   -0.9740 C   0  0  0  0  0  0  0  0  0  0  0  0
    7.8733    5.5822    1.3082 O   0  0  0  0  0  0  0  0  0  0  0  0
    8.0090    4.7275    0.4378 C   0  0  0  0  0  0  0  0  0  0  0  0
    6.1865    1.5447    1.1882 C   0  0  0  0  0  0  0  0  0  0  0  0
    6.4818    2.9083    1.1638 C   0  0  0  0  0  0  0  0  0  0  0  0
    7.7607    3.3217    0.7846 C   0  0  0  0  0  0  0  0  0  0  0  0
    8.7840    2.4041    0.5892 C   0  0  0  0  0  0  0  0  0  0  0  0
    8.4922    1.0558    0.6557 C   0  0  0  0  0  0  0  0  0  0  0  0
    7.1884    0.6056    0.9063 C   0  0  0  0  0  0  0  0  0  0  0  0
    6.8842   -0.8723    0.9193 C   0  0  0  0  0  0  0  0  0  0  0  0
    6.5828   -2.9286   -0.4184 N   0  0  0  0  0  0  0  0  0  0  0  0
    7.2232   -1.5920   -0.4024 C   0  0  2  0  0  0  0  0  0  0  0  0
    9.3904   -1.1746   -1.4999 O   0  0  0  0  0  0  0  0  0  0  0  0
    8.7427   -1.6945   -0.5958 C   0  0  0  0  0  0  0  0  0  0  0  0
    9.3853   -2.3353    0.4028 O   0  0  0  0  0  0  0  0  0  0  0  0
  1  2  2  0
  2  3  1  0
  4  3  2  0
  5  4  1  0
  6  1  1  0
  6  5  2  0
  8  6  1  0
  8  7  2  0
  9 10  2  0
 10 11  1  0
 11  8  1  0
 12 11  2  0
 13 12  1  0
 14  9  1  0
 14 13  2  0
 15 14  1  0
 17 16  1  1
 17 15  1  0
 19 17  1  0
 19 18  2  0
 20 19  1  0
M  END
>  <DRUGBANK_ID>  (1) 
DB08371

>  <COMMON_NAME>  (1) 
p-Benzoyl-L-phenylalanine

>  <CAS_NUMBER>  (1) 
104504-45-2

>  <UNII>  (1) 
9RU6KQ9WYD

>  <SYNONYMS>  (1) 
4-Benzoyl-L-phenylalanine; Para-(benzoyl)-phenylalanine

$$$$
