564
     RDKit          3D

 18 20  0  0  0  0  0  0  0  0999 V2000
    1.1489    0.2132    0.0128 O   0  0  0  0  0  0  0  0  0  0  0  0
    3.1288   -0.3069   -1.1017 N   0  0  0  0  0  0  0  0  0  0  0  0
    3.0138    0.0728    1.2185 N   0  0  0  0  0  0  0  0  0  0  0  0
    2.6734    0.1166   -2.3800 C   0  0  0  0  0  0  0  0  0  0  0  0
    4.1745   -1.2699   -1.0932 C   0  0  0  0  0  0  0  0  0  0  0  0
    2.1896   -0.7428   -3.3765 C   0  0  0  0  0  0  0  0  0  0  0  0
    4.0672   -2.5172   -1.7409 C   0  0  0  0  0  0  0  0  0  0  0  0
    2.0483   -2.1902   -3.1962 C   0  0  0  0  0  0  0  0  0  0  0  0
    2.8788   -2.9660   -2.4855 C   0  0  0  0  0  0  0  0  0  0  0  0
    2.8034    1.4912   -2.6527 C   0  0  0  0  0  0  0  0  0  0  0  0
    5.3672   -0.9399   -0.4279 C   0  0  0  0  0  0  0  0  0  0  0  0
    1.7681   -0.1890   -4.6002 C   0  0  0  0  0  0  0  0  0  0  0  0
    5.1265   -3.4343   -1.6126 C   0  0  0  0  0  0  0  0  0  0  0  0
    2.3615   -0.0090    0.0217 C   0  0  0  0  0  0  0  0  0  0  0  0
    2.4513    2.0138   -3.8953 C   0  0  0  0  0  0  0  0  0  0  0  0
    6.4077   -1.8564   -0.3152 C   0  0  0  0  0  0  0  0  0  0  0  0
    1.9124    1.1759   -4.8635 C   0  0  0  0  0  0  0  0  0  0  0  0
    6.2816   -3.1104   -0.8964 C   0  0  0  0  0  0  0  0  0  0  0  0
  1 14  2  0
  2  4  1  0
  2  5  1  0
  2 14  1  0
  3 14  1  0
  4  6  2  0
  4 10  1  0
  5  7  2  0
  5 11  1  0
  6  8  1  0
  6 12  1  0
  7  9  1  0
  7 13  1  0
  8  9  2  0
 10 15  2  0
 11 16  2  0
 12 17  2  0
 13 18  2  0
 15 17  1  0
 16 18  1  0
M  END
>  <DRUGBANK_ID>  (1) 
DB00564

>  <SECONDARY_ACCESSION_NUMBERS>  (1) 
APRD00337

>  <COMMON_NAME>  (1) 
Carbamazepine

>  <CAS_NUMBER>  (1) 
298-46-4

>  <UNII>  (1) 
33CM23913M

>  <SYNONYMS>  (1) 
5-Carbamoyl-5H-dibenz(b,f)azepine; 5-carbamoyl-5H-dibenz[b,f]azepine; 5-Carbamoyl-5H-dibenzo(b,f)azepine; 5-Carbamyl-5H-dibenzo(b,f)azepine; 5H-Dibenz(b,f)azepine-5-carboxamide; Carbamazepen; Carbamazepin; Carbamazepina; Carbamaz√©pine; Carbamazepine; Carbamazepinum; CBZ; Molecusol-Carbamazepine

$$$$
