CRJ
     RDKit          3D

 33 35  0  0  0  0  0  0  0  0999 V2000
    3.0628   -0.0307   -3.8531 C   0  0  0  0  0  0  0  0  0  0  0  0
    1.3896   -0.9612   -2.6124 C   0  0  0  0  0  0  0  0  0  0  0  0
    1.5853   -0.1819   -1.4079 C   0  0  0  0  0  0  0  0  0  0  0  0
    2.7255    0.5851   -1.4826 C   0  0  0  0  0  0  0  0  0  0  0  0
    3.4741    0.6056   -2.6753 C   0  0  0  0  0  0  0  0  0  0  0  0
    1.9534   -0.7853   -3.8561 C   0  0  0  0  0  0  0  0  0  0  0  0
    0.6747   -0.0213   -0.1021 C   0  0  2  0  0  0  0  0  0  0  0  0
    3.7807    0.0191   -4.9735 F   0  0  0  0  0  0  0  0  0  0  0  0
   -0.0906    1.2651   -0.0802 N   0  0  0  0  0  0  0  0  0  0  0  0
    1.4390   -0.3166    1.2230 C   0  0  0  0  0  0  0  0  0  0  0  0
   -1.6070    1.2149   -0.0917 C   0  0  2  0  0  0  0  0  0  0  0  0
   -2.3706   -0.1931    0.2183 C   0  0  0  0  0  0  0  0  0  0  0  0
   -2.1069    1.9572   -1.3199 C   0  0  0  0  0  0  0  0  0  0  0  0
   -3.9003    2.1083   -1.3423 S   0  0  0  0  0  0  0  0  0  0  0  0
   -4.3792    2.9793    0.1605 C   0  0  0  0  0  0  0  0  0  0  0  0
   -2.7300   -1.0660   -0.8196 N   0  0  0  0  0  0  0  0  0  0  0  0
   -2.6531   -0.4953    1.3759 O   0  0  0  0  0  0  0  0  0  0  0  0
   -3.9083    4.4206    0.2208 C   0  0  2  0  0  0  0  0  0  0  0  0
   -4.6634    5.3109   -0.7624 C   0  0  0  0  0  0  0  0  0  0  0  0
   -3.6251    6.3031   -1.2596 C   0  0  0  0  0  0  0  0  0  0  0  0
   -2.3438    5.5362   -1.1191 C   0  0  0  0  0  0  0  0  0  0  0  0
   -2.5274    4.6073   -0.1137 N   0  0  0  0  0  0  0  0  0  0  0  0
   -1.3027    5.7026   -1.7256 O   0  0  0  0  0  0  0  0  0  0  0  0
   -2.0778   -2.4107   -0.9245 C   0  0  0  0  0  0  0  0  0  0  0  0
   -2.0531   -3.5405    0.0122 C   0  0  0  0  0  0  0  0  0  0  0  0
   -2.4535   -3.7876   -1.4328 C   0  0  0  0  0  0  0  0  0  0  0  0
   -4.2331    2.8968   -2.5102 O   0  0  0  0  0  0  0  0  0  0  0  0
   -4.4869    0.7902   -1.2394 O   0  0  0  0  0  0  0  0  0  0  0  0
    0.6203   -0.1946    2.2992 F   0  0  0  0  0  0  0  0  0  0  0  0
    1.8639   -1.6039    1.2027 F   0  0  0  0  0  0  0  0  0  0  0  0
    2.4994    0.4855    1.4298 F   0  0  0  0  0  0  0  0  0  0  0  0
   -0.9193   -1.0552   -2.2341 N   0  0  0  0  0  0  0  0  0  0  0  0
   -0.9603   -2.0229   -1.6553 C   0  0  0  0  0  0  0  0  0  0  0  0
  1  5  2  0
  1  6  1  0
  1  8  1  0
  2  3  1  0
  2  6  2  0
  3  4  2  0
  4  5  1  0
  7 10  1  0
  7  9  1  1
  7  3  1  0
 10 29  1  0
 10 30  1  0
 10 31  1  0
 11 13  1  6
 11 12  1  0
 11  9  1  0
 12 16  1  0
 12 17  2  0
 13 14  1  0
 14 15  1  0
 14 27  2  0
 14 28  2  0
 16 24  1  0
 18 15  1  6
 18 19  1  0
 18 22  1  0
 19 20  1  0
 20 21  1  0
 21 22  1  0
 21 23  2  0
 24 25  1  0
 24 26  1  0
 24 33  1  0
 25 26  1  0
 32 33  3  0
M  END
>  <DRUGBANK_ID>  (1) 
DB07587

>  <COMMON_NAME>  (1) 
N-(1-CYANOCYCLOPROPYL)-3-({[(2S)-5-OXOPYRROLIDIN-2-YL]METHYL}SULFONYL)-N~2~-[(1S)-2,2,2-TRIFLUORO-1-(4-FLUOROPHENYL)ETHYL]-L-ALANINAMIDE

$$$$
