
     RDKit          3D

 10 11  0  0  0  0  0  0  0  0999 V2000
   -1.5682    1.0435    0.1670 C   0  0  0  0  0  0  0  0  0  0  0  0
   -0.2045    0.7127    0.0546 C   0  0  0  0  0  0  0  0  0  0  0  0
   -0.2072   -0.6590    0.0523 C   0  0  0  0  0  0  0  0  0  0  0  0
    0.9224   -1.3793   -0.0253 N   0  0  0  0  0  0  0  0  0  0  0  0
    2.0911   -0.6557   -0.1138 C   0  0  0  0  0  0  0  0  0  0  0  0
    2.2092    0.6387   -0.1202 N   0  0  0  0  0  0  0  0  0  0  0  0
    1.0604    1.4198   -0.0312 C   0  0  0  0  0  0  0  0  0  0  0  0
    1.0176    3.0898   -0.0167 S   0  0  0  0  0  0  0  0  0  0  0  0
   -1.4936   -1.0749    0.1606 N   0  0  0  0  0  0  0  0  0  0  0  0
   -2.3606   -0.0399    0.2018 N   0  0  0  0  0  0  0  0  0  0  0  0
  1  2  1  0
  1 10  2  0
  2  3  2  0
  2  7  1  0
  3  4  1  0
  3  9  1  0
  4  5  1  0
  5  6  2  0
  6  7  1  0
  7  8  2  0
  9 10  1  0
M  END
>  <DRUGBANK_ID>  (1) 
DB13807

>  <COMMON_NAME>  (1) 
Tisopurine

>  <CAS_NUMBER>  (1) 
5334-23-6

>  <UNII>  (1) 
79F9I2R16M

>  <SYNONYMS>  (1) 
Tisopurine

$$$$
