628
     RDKit          3D

 30 33  0  0  0  0  0  0  0  0999 V2000
    2.1140    0.6801   -0.0460 C   0  0  0  0  0  0  0  0  0  0  0  0
    0.9448    1.3582   -0.0871 C   0  0  0  0  0  0  0  0  0  0  0  0
   -0.2602    0.6592   -0.0329 N   0  0  0  0  0  0  0  0  0  0  0  0
   -0.3340   -0.7249    0.0011 C   0  0  0  0  0  0  0  0  0  0  0  0
    0.8855   -1.4484    0.0106 C   0  0  0  0  0  0  0  0  0  0  0  0
    2.0549   -0.7846    0.0001 C   0  0  0  0  0  0  0  0  0  0  0  0
   -1.5578    1.1245    0.0035 C   0  0  0  0  0  0  0  0  0  0  0  0
   -2.3409   -0.0092    0.0016 C   0  0  0  0  0  0  0  0  0  0  0  0
   -1.5773   -1.1391    0.0075 N   0  0  0  0  0  0  0  0  0  0  0  0
   -7.0118   -5.0812    0.1705 S   0  0  0  0  0  0  0  0  0  0  0  0
   -6.0624   -3.5794    0.1152 C   0  0  0  0  0  0  0  0  0  0  0  0
   -5.1150   -3.3256    1.1076 C   0  0  0  0  0  0  0  0  0  0  0  0
   -4.3293   -2.1672    1.0473 C   0  0  0  0  0  0  0  0  0  0  0  0
   -4.4786   -1.2430    0.0054 C   0  0  0  0  0  0  0  0  0  0  0  0
   -5.4419   -1.5063   -0.9801 C   0  0  0  0  0  0  0  0  0  0  0  0
   -6.2588   -2.6496   -0.9120 C   0  0  0  0  0  0  0  0  0  0  0  0
    3.4628    1.3377   -0.0252 C   0  0  0  0  0  0  0  0  0  0  0  0
    3.5637    2.8056   -0.0454 C   0  0  0  0  0  0  0  0  0  0  0  0
    3.0832    3.5851    1.0180 C   0  0  0  0  0  0  0  0  0  0  0  0
    3.1962    4.9759    0.9685 C   0  0  0  0  0  0  0  0  0  0  0  0
    3.8601    5.5885   -0.0920 C   0  0  0  0  0  0  0  0  0  0  0  0
    4.3996    4.8131   -1.1165 C   0  0  0  0  0  0  0  0  0  0  0  0
    4.2056    3.4294   -1.1248 C   0  0  0  0  0  0  0  0  0  0  0  0
    4.5014    0.6825    0.0027 O   0  0  0  0  0  0  0  0  0  0  0  0
   -8.4098   -4.7517    0.0822 O   0  0  0  0  0  0  0  0  0  0  0  0
   -3.6871   -0.0721   -0.0628 N   0  0  0  0  0  0  0  0  0  0  0  0
    2.3223    2.9192    2.4231 Cl  0  0  0  0  0  0  0  0  0  0  0  0
    4.6817    2.5741   -2.5511 Cl  0  0  0  0  0  0  0  0  0  0  0  0
   -6.6222   -5.8639   -1.2718 N   0  0  0  0  0  0  0  0  0  0  0  0
   -6.4886   -5.9300    1.2241 O   0  0  0  0  0  0  0  0  0  0  0  0
  1  2  2  0
  1  6  1  0
  1 17  1  0
  2  3  1  0
  3  4  1  0
  3  7  1  0
  4  5  1  0
  4  9  2  0
  5  6  2  0
  7  8  2  0
  8  9  1  0
  8 26  1  0
 10 11  1  0
 10 25  2  0
 10 29  1  0
 10 30  2  0
 11 12  2  0
 11 16  1  0
 12 13  1  0
 13 14  2  0
 14 15  1  0
 14 26  1  0
 15 16  2  0
 17 18  1  0
 17 24  2  0
 18 19  2  0
 18 23  1  0
 19 20  1  0
 19 27  1  0
 20 21  2  0
 21 22  1  0
 22 23  2  0
 23 28  1  0
M  END
>  <DRUGBANK_ID>  (1) 
DB04607

>  <COMMON_NAME>  (1) 
PHENYLAMINOIMIDAZO(1,2-ALPHA)PYRIDINE

$$$$
