
     RDKit          3D

 30 33  0  0  0  0  0  0  0  0999 V2000
    0.2924   -1.1529    0.0606 C   0  0  1  0  0  0  0  0  0  0  0  0
    1.1335   -0.0131   -0.1918 O   0  0  0  0  0  0  0  0  0  0  0  0
    0.3175    1.1651   -0.1573 C   0  0  0  0  0  0  0  0  0  0  0  0
   -1.0941    0.7501    0.2075 C   0  0  0  0  0  0  0  0  0  0  0  0
   -1.1435   -0.7026   -0.1871 C   0  0  0  0  0  0  0  0  0  0  0  0
    0.8495   -5.8288   -1.4892 C   0  0  0  0  0  0  0  0  0  0  0  0
    1.4550   -5.8728   -2.9157 C   0  0  2  0  0  0  0  0  0  0  0  0
    1.3280   -4.5652   -1.3048 N   0  0  0  0  0  0  0  0  0  0  0  0
    1.6287   -4.3428   -2.7228 C   0  0  2  0  0  0  0  0  0  0  0  0
    0.3732   -3.2543   -3.4260 S   0  0  0  0  0  0  0  0  0  0  0  0
    0.8313   -1.9036   -2.2919 C   0  0  0  0  0  0  0  0  0  0  0  0
    0.7257   -2.3138   -0.8263 C   0  0  0  0  0  0  0  0  0  0  0  0
    0.9503   -3.5903   -0.3988 C   0  0  0  0  0  0  0  0  0  0  0  0
    0.6618   -6.4178   -4.0699 N   0  0  0  0  0  0  0  0  0  0  0  0
   -0.8994   -7.4853   -6.3666 C   0  0  0  0  0  0  0  0  0  0  0  0
    0.4446   -7.9898   -6.0634 C   0  0  0  0  0  0  0  0  0  0  0  0
    1.2491   -7.4048   -4.8693 C   0  0  0  0  0  0  0  0  0  0  0  0
   -1.2167   -6.1254   -6.2874 N   0  0  0  0  0  0  0  0  0  0  0  0
   -2.4658   -5.9247   -6.6407 C   0  0  0  0  0  0  0  0  0  0  0  0
   -3.3653   -7.3439   -6.9926 S   0  0  0  0  0  0  0  0  0  0  0  0
   -1.9704   -8.2925   -6.7082 C   0  0  0  0  0  0  0  0  0  0  0  0
   -3.0403   -4.7186   -6.7022 N   0  0  0  0  0  0  0  0  0  0  0  0
    0.8789   -8.9601   -6.8376 N   0  0  0  0  0  0  0  0  0  0  0  0
    2.1720   -9.3835   -6.4818 O   0  0  0  0  0  0  0  0  0  0  0  0
    2.6561  -10.3964   -7.3542 C   0  0  0  0  0  0  0  0  0  0  0  0
    0.2637   -6.5499   -0.7212 O   0  0  0  0  0  0  0  0  0  0  0  0
    2.3730   -7.8152   -4.5983 O   0  0  0  0  0  0  0  0  0  0  0  0
    0.8117   -3.9581    1.0799 C   0  0  0  0  0  0  0  0  0  0  0  0
    1.1723   -5.2110    1.4226 O   0  0  0  0  0  0  0  0  0  0  0  0
    0.4766   -3.1845    1.9634 O   0  0  0  0  0  0  0  0  0  0  0  0
  1  2  1  0
  1 12  1  6
  2  3  1  0
  3  4  1  0
  4  5  1  0
  5  1  1  0
  6  7  1  0
  6 26  2  0
  7  9  1  0
  7 14  1  6
  8  6  1  0
  8  9  1  0
  8 13  1  0
  9 10  1  6
 10 11  1  0
 11 12  1  0
 12 13  2  0
 13 28  1  0
 15 18  1  0
 15 16  1  0
 16 17  1  0
 16 23  2  0
 17 14  1  0
 17 27  2  0
 18 19  2  0
 19 20  1  0
 19 22  1  0
 20 21  1  0
 21 15  2  0
 23 24  1  0
 24 25  1  0
 28 29  1  0
 28 30  2  0
M  END
>  <DRUGBANK_ID>  (1) 
DB11505

>  <COMMON_NAME>  (1) 
Cefovecin

>  <UNII>  (1) 
0D1OL46ZIE

>  <SYNONYMS>  (1) 
Cefovecin

$$$$
