919
     RDKit          3D

 23 25  0  0  1  0  0  0  0  0999 V2000
   -0.3883   -0.2234    4.4376 O   0  0  0  0  0  0  0  0  0  0  0  0
   -1.4217    2.4148    4.2586 O   0  0  0  0  0  0  0  0  0  0  0  0
    1.1517    2.9897    3.2389 O   0  0  0  0  0  0  0  0  0  0  0  0
   -3.9843    1.3723    3.4978 O   0  0  0  0  0  0  0  0  0  0  0  0
   -4.7722   -2.2703    5.6681 O   0  0  0  0  0  0  0  0  0  0  0  0
    1.6005    0.4244    3.7660 O   0  0  0  0  0  0  0  0  0  0  0  0
   -1.5223    0.5816    1.7074 O   0  0  0  0  0  0  0  0  0  0  0  0
   -1.3907   -1.8090    6.2031 N   0  0  0  0  0  0  0  0  0  0  0  0
   -4.5097    0.4935    7.1792 N   0  0  0  0  0  0  0  0  0  0  0  0
   -1.8061   -0.1468    4.4468 C   0  0  2  0  0  0  0  0  0  0  0  0
   -2.1680    1.2600    5.0173 C   0  0  2  0  0  0  0  0  0  0  0  0
   -2.4112   -1.3891    5.1924 C   0  0  2  0  0  0  0  0  0  0  0  0
   -3.7389    1.3491    4.9033 C   0  0  2  0  0  0  0  0  0  0  0  0
   -4.4810    0.2090    5.7265 C   0  0  1  0  0  0  0  0  0  0  0  0
   -3.9621   -1.1672    5.2295 C   0  0  2  0  0  0  0  0  0  0  0  0
    0.2175    0.7567    3.6324 C   0  0  2  0  0  0  0  0  0  0  0  0
    0.0757    2.1788    4.1779 C   0  0  2  0  0  0  0  0  0  0  0  0
   -0.5502    1.1285    2.1445 C   0  0  0  0  0  0  0  0  0  0  0  0
    1.3448    2.3939    1.8694 C   0  0  1  0  0  0  0  0  0  0  0  0
   -0.0742    2.4072    1.4482 C   0  0  0  0  0  0  0  0  0  0  0  0
   -0.5880   -2.9409    5.6221 C   0  0  0  0  0  0  0  0  0  0  0  0
   -3.9930    1.7723    7.6224 C   0  0  0  0  0  0  0  0  0  0  0  0
    2.4074    2.7504    0.7659 C   0  0  0  0  0  0  0  0  0  0  0  0
 10  1  1  1
  1 16  1  0
 11  2  1  6
 17  2  1  6
  3 17  1  0
  3 19  1  0
  7 18  2  0
  8 21  1  0
  9 22  1  0
 10 11  1  0
 10 12  1  0
 11 13  1  0
 12 15  1  0
 12  8  1  1
 13 14  1  0
 13  4  1  6
 14 15  1  0
 14  9  1  1
 15  5  1  1
 16 17  1  0
 16 18  1  0
 16  6  1  6
 18 20  1  0
 19 20  1  0
 19 23  1  6
M  END
>  <DRUGBANK_ID>  (1) 
DB00919

>  <SECONDARY_ACCESSION_NUMBERS>  (1) 
APRD01232

>  <COMMON_NAME>  (1) 
Spectinomycin

>  <CAS_NUMBER>  (1) 
1695-77-8

>  <UNII>  (1) 
93AKI1U6QF

>  <SYNONYMS>  (1) 
Actinospectacina; Espectinomicina; SCM; Spectinomicina; Spectinomycin; Spectinomycine; Spectinomycinum

$$$$
