AAH
     RDKit          3D

 23 23  0  0  0  0  0  0  0  0999 V2000
    1.2694   -0.0768   -0.4096 C   0  0  0  0  0  0  0  0  0  0  0  0
    0.3037   -1.0542   -0.6623 C   0  0  0  0  0  0  0  0  0  0  0  0
   -1.0467   -0.8270   -0.3338 C   0  0  0  0  0  0  0  0  0  0  0  0
   -1.4651    0.4653   -0.0729 C   0  0  0  0  0  0  0  0  0  0  0  0
   -0.5268    1.4911    0.0078 C   0  0  0  0  0  0  0  0  0  0  0  0
    0.8381    1.2142   -0.1516 C   0  0  0  0  0  0  0  0  0  0  0  0
    1.8081    2.3019   -0.2470 N   0  0  0  0  0  0  0  0  0  0  0  0
    1.3621    3.4542   -0.3107 O   0  0  0  0  0  0  0  0  0  0  0  0
    3.0090    2.0011   -0.3315 O   0  0  0  0  0  0  0  0  0  0  0  0
   -2.0030   -1.9830   -0.1374 C   0  0  0  0  0  0  0  0  0  0  0  0
   -2.5875   -2.1340    1.2280 N   0  0  0  0  0  0  0  0  0  0  0  0
   -3.5413   -3.2954    1.3231 C   0  0  0  0  0  0  0  0  0  0  0  0
   -2.5642   -4.8420    1.3730 P   0  0  0  0  0  0  0  0  0  0  0  0
   -1.7592   -4.6398    0.1304 O   0  0  0  0  0  0  0  0  0  0  0  0
   -2.5850   -4.8748    2.9879 O   0  0  0  0  0  0  0  0  0  0  0  0
   -1.6405   -6.3040    1.4202 O   0  0  0  0  0  0  0  0  0  0  0  0
   -1.6201   -2.1054    2.3435 C   0  0  0  0  0  0  0  0  0  0  0  0
   -0.5609   -3.2432    2.5189 C   0  0  0  0  0  0  0  0  0  0  0  0
    0.4644   -3.5379    1.4662 C   0  0  0  0  0  0  0  0  0  0  0  0
    1.3915   -2.4043    1.5135 C   0  0  0  0  0  0  0  0  0  0  0  0
    2.1749   -2.3166    2.7715 C   0  0  0  0  0  0  0  0  0  0  0  0
    3.4930   -2.3948    2.4998 O   0  0  0  0  0  0  0  0  0  0  0  0
    1.7062   -2.1261    3.8606 O   0  0  0  0  0  0  0  0  0  0  0  0
  1  2  2  0
  1  6  1  0
  2  3  1  0
  3  4  2  0
  3 10  1  0
  4  5  1  0
  5  6  2  0
  6  7  1  0
  7  8  2  0
  7  9  1  0
 10 11  1  0
 11 12  1  0
 11 17  1  0
 12 13  1  0
 13 14  2  0
 13 15  1  0
 13 16  1  0
 17 18  1  0
 18 19  1  0
 19 20  1  0
 20 21  1  0
 21 22  1  0
 21 23  2  0
M  CHG  2   7   1   9  -1
M  END
>  <DRUGBANK_ID>  (1) 
DB07329

>  <COMMON_NAME>  (1) 
1-[N-4'-NITROBENZYL-N-4'-CARBOXYBUTYLAMINO]METHYLPHOSPHONIC ACID

$$$$
