
     RDKit          3D

  1  0  0  0  0  0  0  0  0  0999 V2000
    0.9658    0.0910   -0.0234 V   0  0  0  0  0 15  0  0  0  0  0  0
M  END
>  <DRUGBANK_ID>  (1) 
DB13971

>  <COMMON_NAME>  (1) 
Vanadium

>  <CAS_NUMBER>  (1) 
7440-62-2

>  <UNII>  (1) 
00J9J9XKDE

>  <SYNONYMS>  (1) 
vanadio; Vanadium metallicum; Vanadium, elemental

$$$$
