
     RDKit          3D

 36 38  0  0  1  0  0  0  0  0999 V2000
   -3.1916   -5.3725    5.4735 C   0  0  0  0  0  0  0  0  0  0  0  0
   -4.3808   -5.3929    4.6076 C   0  0  0  0  0  0  0  0  0  0  0  0
   -5.3282   -4.5490    5.2278 O   0  0  0  0  0  0  0  0  0  0  0  0
   -5.2829   -3.3022    4.5150 C   0  0  0  0  0  0  0  0  0  0  0  0
   -4.2361   -3.4225    3.4287 C   0  0  2  0  0  0  0  0  0  0  0  0
   -4.0201   -4.8480    3.3250 O   0  0  0  0  0  0  0  0  0  0  0  0
   -2.9908   -2.4452    3.5877 C   0  0  0  0  0  0  0  0  0  0  0  0
   -1.9224   -2.6710    4.5792 O   0  0  0  0  0  0  0  0  0  0  0  0
   -2.1554   -2.7799    5.9293 C   0  0  0  0  0  0  0  0  0  0  0  0
   -3.1432   -2.3510    6.4624 O   0  0  0  0  0  0  0  0  0  0  0  0
   -1.0952   -3.7117    6.6798 C   0  0  0  0  0  0  0  0  0  0  0  0
   -0.5773   -5.1402    6.2153 C   0  0  0  0  0  0  0  0  0  0  0  0
   -0.0594   -5.2039    4.7920 C   0  0  0  0  0  0  0  0  0  0  0  0
   -0.8365   -5.0014    3.6503 C   0  0  0  0  0  0  0  0  0  0  0  0
   -0.3302   -4.6064    2.4400 C   0  0  0  0  0  0  0  0  0  0  0  0
    1.0210   -4.6594    2.2487 C   0  0  0  0  0  0  0  0  0  0  0  0
    1.8313   -5.0539    3.3141 C   0  0  0  0  0  0  0  0  0  0  0  0
    1.2934   -5.3561    4.5719 C   0  0  0  0  0  0  0  0  0  0  0  0
    1.5964   -4.3956    1.0437 O   0  0  0  0  0  0  0  0  0  0  0  0
    0.7191   -4.5578   -0.0881 C   0  0  0  0  0  0  0  0  0  0  0  0
    0.3259   -6.0397   -0.2898 C   0  0  2  0  0  0  0  0  0  0  0  0
   -0.1897   -6.2650   -1.6999 C   0  0  0  0  0  0  0  0  0  0  0  0
   -0.0106   -7.6817   -2.0202 N   0  0  0  0  0  0  0  0  0  0  0  0
   -0.4291   -7.9814   -3.3709 C   0  0  0  0  0  0  0  0  0  0  0  0
    0.3034   -7.1670   -4.4265 C   0  0  0  0  0  0  0  0  0  0  0  0
    1.7384   -7.3710   -4.4856 N   0  0  0  0  0  0  0  0  0  0  0  0
    2.4686   -7.8590   -5.5224 C   0  0  0  0  0  0  0  0  0  0  0  0
    3.6252   -8.2166   -5.3069 O   0  0  0  0  0  0  0  0  0  0  0  0
    1.8520   -7.9971   -6.7385 N   0  0  0  0  0  0  0  0  0  0  0  0
    0.9478   -7.0102   -7.3430 C   0  0  0  0  0  0  0  0  0  0  0  0
   -0.1483   -7.7460   -8.1179 C   0  0  0  0  0  0  0  0  0  0  0  0
    0.4418   -8.5527   -9.1492 O   0  0  0  0  0  0  0  0  0  0  0  0
    1.3302   -9.5328   -8.5780 C   0  0  0  0  0  0  0  0  0  0  0  0
    2.4424   -8.8779   -7.7436 C   0  0  0  0  0  0  0  0  0  0  0  0
   -0.6595   -6.5592    0.6104 O   0  0  0  0  0  0  0  0  0  0  0  0
   -4.5705   -6.9009    4.6654 C   0  0  0  0  0  0  0  0  0  0  0  0
  1  2  1  0
  2  3  1  0
  2  6  1  0
  2 36  1  0
  3  4  1  0
  4  5  1  0
  5  6  1  0
  5  7  1  1
  7  8  1  0
  8  9  1  0
  9 10  2  0
  9 11  1  0
 11 12  1  0
 12 13  1  0
 13 14  2  0
 13 18  1  0
 14 15  1  0
 15 16  2  0
 16 17  1  0
 16 19  1  0
 17 18  2  0
 19 20  1  0
 21 35  1  1
 21 22  1  0
 21 20  1  0
 22 23  1  0
 23 24  1  0
 24 25  1  0
 25 26  1  0
 26 27  1  0
 27 28  2  0
 27 29  1  0
 29 30  1  0
 29 34  1  0
 30 31  1  0
 31 32  1  0
 32 33  1  0
 33 34  1  0
M  END
>  <DRUGBANK_ID>  (1) 
DB12212

>  <COMMON_NAME>  (1) 
Landiolol

>  <CAS_NUMBER>  (1) 
133242-30-5

>  <UNII>  (1) 
62NWQ924LH

>  <SYNONYMS>  (1) 
Landiolol; Landiololum

$$$$
