
     RDKit          3D

 29 33  0  0  1  0  0  0  0  0999 V2000
   -2.9351   -0.8844    1.7587 C   0  0  0  0  0  0  0  0  0  0  0  0
   -9.9387   -2.3806   -3.1534 C   0  0  0  0  0  0  0  0  0  0  0  0
   -9.7441   -3.2702   -1.9386 C   0  0  0  0  0  0  0  0  0  0  0  0
  -10.1899   -1.0112   -2.5499 C   0  0  0  0  0  0  0  0  0  0  0  0
   -9.0061   -2.4053   -0.9437 C   0  0  0  0  0  0  0  0  0  0  0  0
   -7.8912   -0.3951   -1.8852 C   0  0  0  0  0  0  0  0  0  0  0  0
    1.1531    2.1643    0.0793 C   0  0  0  0  0  0  0  0  0  0  0  0
    3.6382   -1.3527   -0.1198 C   0  0  0  0  0  0  0  0  0  0  0  0
   -0.2654    2.0114   -0.4381 C   0  0  0  0  0  0  0  0  0  0  0  0
    2.2700   -1.4729   -0.3670 C   0  0  0  0  0  0  0  0  0  0  0  0
   -3.2143    1.6640    0.1499 C   0  0  0  0  0  0  0  0  0  0  0  0
   -4.5661    1.0237    0.0157 C   0  0  0  0  0  0  0  0  0  0  0  0
   -7.0473    0.0302   -0.7258 C   0  0  0  0  0  0  0  0  0  0  0  0
   -0.6925   -1.8515   -0.1419 C   0  0  0  0  0  0  0  0  0  0  0  0
   -2.2055   -1.9320   -0.4100 C   0  0  0  0  0  0  0  0  0  0  0  0
    3.3580    1.0187    0.2021 C   0  0  0  0  0  0  0  0  0  0  0  0
   -9.2016   -0.9534   -1.3999 C   0  0  0  0  0  0  0  0  0  0  0  0
    1.9816    0.9088   -0.0355 C   0  0  0  0  0  0  0  0  0  0  0  0
    4.1701   -0.1047    0.1665 C   0  0  0  0  0  0  0  0  0  0  0  0
    1.4175   -0.3584   -0.2977 C   0  0  0  0  0  0  0  0  0  0  0  0
   -0.0710   -0.4956   -0.5678 C   0  0  2  0  0  0  0  0  0  0  0  0
   -0.8423    0.6900    0.0646 C   0  0  2  0  0  0  0  0  0  0  0  0
   -2.2944    0.5567   -0.3134 C   0  0  1  0  0  0  0  0  0  0  0  0
   -4.3564   -0.4930   -0.2940 C   0  0  1  0  0  0  0  0  0  0  0  0
   -6.6213   -0.9949    0.3154 C   0  0  0  0  0  0  0  0  0  0  0  0
   -2.9344   -0.7387    0.2174 C   0  0  2  0  0  0  0  0  0  0  0  0
    5.4966    0.0720    0.4228 O   0  0  0  0  0  0  0  0  0  0  0  0
   -7.4047   -1.4843    1.1313 O   0  0  0  0  0  0  0  0  0  0  0  0
   -5.3122   -1.3286    0.3570 O   0  0  0  0  0  0  0  0  0  0  0  0
  3  2  1  0
  4  2  1  0
  5  3  1  0
  9  7  1  0
 10  8  1  0
 12 11  1  0
 13  6  1  0
 15 14  1  0
 17  4  1  0
 17  5  1  0
 17  6  1  0
 18  7  1  0
 18 16  2  0
 19  8  2  0
 19 16  1  0
 20 10  2  0
 20 18  1  0
 21 14  1  1
 21 20  1  0
 22  9  1  6
 22 21  1  0
 23 11  1  1
 23 22  1  0
 24 12  1  0
 24 29  1  1
 25 13  1  0
 26  1  1  1
 26 15  1  0
 26 23  1  0
 26 24  1  0
 27 19  1  0
 28 25  2  0
 29 25  1  0
M  END
>  <DRUGBANK_ID>  (1) 
DB13954

>  <SECONDARY_ACCESSION_NUMBERS>  (1) 
DBSALT000067

>  <COMMON_NAME>  (1) 
Estradiol cypionate

>  <CAS_NUMBER>  (1) 
313-06-4

>  <UNII>  (1) 
7E1DV054LO

>  <SYNONYMS>  (1) 
Estradiol cypionate

$$$$
