
     RDKit          3D

 37 39  0  0  1  0  0  0  0  0999 V2000
   -3.9263   -5.9707   -5.2164 C   0  0  0  0  0  0  0  0  0  0  0  0
   -2.9059   -6.2128   -3.9527 C   0  0  0  0  0  0  0  0  0  0  0  0
   -2.1007   -7.5686   -3.5257 C   0  0  0  0  0  0  0  0  0  0  0  0
   -1.7050   -4.8644   -3.8623 O   0  0  0  0  0  0  0  0  0  0  0  0
   -0.1261   -3.9061   -4.3465 C   0  0  0  0  0  0  0  0  0  0  0  0
    0.6539   -4.2580   -5.2039 O   0  0  0  0  0  0  0  0  0  0  0  0
   -0.1261   -1.9688   -3.9463 C   0  0  2  0  0  0  0  0  0  0  0  0
    1.2682   -1.6070   -3.5770 C   0  0  0  0  0  0  0  0  0  0  0  0
   -1.4166   -1.3006   -3.1274 N   0  0  0  0  0  0  0  0  0  0  0  0
   -3.2374   -1.6943   -3.5318 P   0  0  0  0  0  0  0  0  0  0  0  0
   -3.6918   -1.9372   -2.0717 O   0  0  0  0  0  0  0  0  0  0  0  0
   -4.2295   -2.9937   -3.8111 O   0  0  0  0  0  0  0  0  0  0  0  0
   -4.4606   -3.9284   -2.6844 C   0  0  0  0  0  0  0  0  0  0  0  0
   -3.2206   -4.2624   -1.5181 C   0  0  1  0  0  0  0  0  0  0  0  0
   -3.9589   -4.3595   -0.3571 F   0  0  0  0  0  0  0  0  0  0  0  0
   -2.3837   -5.5737   -1.6945 O   0  0  0  0  0  0  0  0  0  0  0  0
   -0.8394   -5.3151   -2.2801 C   0  0  1  0  0  0  0  0  0  0  0  0
   -0.2389   -6.1039   -3.9513 N   0  0  0  0  0  0  0  0  0  0  0  0
   -1.0662   -5.9615   -5.4344 C   0  0  0  0  0  0  0  0  0  0  0  0
   -1.4944   -6.9216   -6.2397 C   0  0  0  0  0  0  0  0  0  0  0  0
   -0.5392   -7.9109   -6.3730 C   0  0  0  0  0  0  0  0  0  0  0  0
   -0.8267   -8.7539   -7.2095 O   0  0  0  0  0  0  0  0  0  0  0  0
    0.5595   -7.7366   -5.5145 N   0  0  0  0  0  0  0  0  0  0  0  0
    0.7349   -7.0559   -4.1865 C   0  0  0  0  0  0  0  0  0  0  0  0
    1.4862   -7.4066   -3.2889 O   0  0  0  0  0  0  0  0  0  0  0  0
   -1.1640   -3.6403   -2.4111 C   0  0  2  0  0  0  0  0  0  0  0  0
   -1.9708   -3.1580   -4.2014 C   0  0  0  0  0  0  0  0  0  0  0  0
    0.1041   -3.0752   -1.9486 O   0  0  0  0  0  0  0  0  0  0  0  0
   -2.0804   -3.2999   -1.2551 C   0  0  2  0  0  0  0  0  0  0  0  0
   -1.3630   -3.4105   -0.0149 O   0  0  0  0  0  0  0  0  0  0  0  0
   -2.7296   -1.4228   -5.1632 O   0  0  0  0  0  0  0  0  0  0  0  0
   -2.4820   -2.0443   -6.5348 C   0  0  0  0  0  0  0  0  0  0  0  0
   -3.1676   -3.1788   -6.9475 C   0  0  0  0  0  0  0  0  0  0  0  0
   -2.4991   -4.2087   -7.7008 C   0  0  0  0  0  0  0  0  0  0  0  0
   -1.1171   -4.2088   -7.8624 C   0  0  0  0  0  0  0  0  0  0  0  0
   -0.4715   -3.0110   -7.7090 C   0  0  0  0  0  0  0  0  0  0  0  0
   -1.1560   -1.9153   -7.0961 C   0  0  0  0  0  0  0  0  0  0  0  0
  1  2  1  0
  2  3  1  0
  2  4  1  0
  4  5  1  0
  5  6  2  0
  7  9  1  0
  7  8  1  1
  7  5  1  0
 10 12  1  0
 10 31  1  0
 10 11  2  0
 10  9  1  0
 12 13  1  0
 14 16  1  0
 14 15  1  1
 14 13  1  0
 17 16  1  0
 17 18  1  6
 18 19  1  0
 18 24  1  0
 19 20  2  0
 20 21  1  0
 21 22  2  0
 21 23  1  0
 23 24  1  0
 24 25  2  0
 26 17  1  0
 26 29  1  0
 26 28  1  0
 26 27  1  6
 29 14  1  0
 29 30  1  1
 31 32  1  0
 32 33  2  0
 32 37  1  0
 33 34  1  0
 34 35  2  0
 35 36  1  0
 36 37  2  0
M  END
>  <DRUGBANK_ID>  (1) 
DB14906

>  <COMMON_NAME>  (1) 
Adafosbuvir

>  <CAS_NUMBER>  (1) 
1613589-09-5

>  <UNII>  (1) 
S83770Y75R

>  <SYNONYMS>  (1) 
Adafosbuvir

$$$$
