
     RDKit          3D

 18 18  0  0  0  0  0  0  0  0999 V2000
    1.0182   -0.0811    0.0695 C   0  0  0  0  0  0  0  0  0  0  0  0
    0.5090    1.1019    0.8817 C   0  0  0  0  0  0  0  0  0  0  0  0
    1.0081    2.4562    0.3574 C   0  0  0  0  0  0  0  0  0  0  0  0
    0.5812    2.7207   -1.0083 N   0  0  0  0  0  0  0  0  0  0  0  0
   -0.2659    3.7828   -1.2563 C   0  0  0  0  0  0  0  0  0  0  0  0
    0.0590    4.9688   -0.7519 N   0  0  0  0  0  0  0  0  0  0  0  0
   -0.6806    5.9799   -1.1563 C   0  0  0  0  0  0  0  0  0  0  0  0
   -0.3078    7.2260   -0.7225 N   0  0  0  0  0  0  0  0  0  0  0  0
   -1.0184    8.4299   -1.0753 C   0  0  0  0  0  0  0  0  0  0  0  0
   -1.5762    9.1066    0.1751 C   0  0  0  0  0  0  0  0  0  0  0  0
   -0.4778    9.5694    1.1204 C   0  0  0  0  0  0  0  0  0  0  0  0
   -1.7337    5.8650   -1.9400 N   0  0  0  0  0  0  0  0  0  0  0  0
   -2.0460    4.6451   -2.3665 C   0  0  0  0  0  0  0  0  0  0  0  0
   -1.2975    3.5793   -2.0723 N   0  0  0  0  0  0  0  0  0  0  0  0
   -3.2030    4.5130   -3.1587 N   0  0  0  0  0  0  0  0  0  0  0  0
   -3.9822    5.7085   -3.4637 C   0  0  0  0  0  0  0  0  0  0  0  0
   -3.6819    3.2339   -3.5228 O   0  0  0  0  0  0  0  0  0  0  0  0
   -4.8841    3.2908   -4.2858 C   0  0  0  0  0  0  0  0  0  0  0  0
  1  2  1  0
  2  3  1  0
  3  4  1  0
  4  5  1  0
  5  6  2  0
  5 14  1  0
  6  7  1  0
  7  8  1  0
  7 12  2  0
  8  9  1  0
  9 10  1  0
 10 11  1  0
 12 13  1  0
 13 14  2  0
 13 15  1  0
 15 16  1  0
 15 17  1  0
 17 18  1  0
M  END
>  <DRUGBANK_ID>  (1) 
DB18153

>  <COMMON_NAME>  (1) 
ENA-001

>  <CAS_NUMBER>  (1) 
1380341-99-0

>  <UNII>  (1) 
4RZ4OGT40Z

>  <SYNONYMS>  (1) 
1,3,5-triazine-2,4,6-triamine, n2-methoxy-n2-methyl-n4,n6-dipropyl-

$$$$
