
     RDKit          3D

 14 16  0  0  0  0  0  0  0  0999 V2000
    0.6385    1.3587   -0.3475 C   0  0  0  0  0  0  0  0  0  0  0  0
   -0.7553    1.3815    0.1140 N   0  0  0  0  0  0  0  0  0  0  0  0
   -1.2676    0.0428   -0.1638 C   0  0  0  0  0  0  0  0  0  0  0  0
    1.1588    0.0330    0.2000 C   0  0  1  0  0  0  0  0  0  0  0  0
   -0.1199   -0.7700    0.3975 C   0  0  2  0  0  0  0  0  0  0  0  0
    0.9180   -1.3141   -0.5060 C   0  0  0  0  0  0  0  0  0  0  0  0
    2.5695    0.1656    0.8216 C   0  0  0  0  0  0  0  0  0  0  0  0
    3.7308   -0.3482    0.1931 C   0  0  0  0  0  0  0  0  0  0  0  0
    5.0452   -0.0171    0.5922 C   0  0  0  0  0  0  0  0  0  0  0  0
    5.2476    0.8777    1.6485 C   0  0  0  0  0  0  0  0  0  0  0  0
    4.1375    1.4367    2.2634 C   0  0  0  0  0  0  0  0  0  0  0  0
    2.8303    1.0812    1.8713 C   0  0  0  0  0  0  0  0  0  0  0  0
    6.8198    1.3335    2.2071 Cl  0  0  0  0  0  0  0  0  0  0  0  0
    6.3728   -0.6871   -0.2931 Cl  0  0  0  0  0  0  0  0  0  0  0  0
  1  2  1  0
  2  3  1  0
  5  3  1  6
  4  7  1  1
  4  1  1  0
  4  6  1  0
  5  4  1  0
  6  5  1  0
  7  8  2  0
  8  9  1  0
  9 10  2  0
  9 14  1  0
 10 11  1  0
 10 13  1  0
 11 12  2  0
 12  7  1  0
M  END
>  <DRUGBANK_ID>  (1) 
DB05964

>  <COMMON_NAME>  (1) 
Amitifadine

>  <CAS_NUMBER>  (1) 
410074-73-6

>  <UNII>  (1) 
GE0J375F8F

$$$$
