
     RDKit          3D

 18 20  0  0  0  0  0  0  0  0999 V2000
    1.0284   -0.0770    0.0935 C   0  0  0  0  0  0  0  0  0  0  0  0
    0.6607   -1.4921    0.0475 N   0  0  0  0  0  0  0  0  0  0  0  0
   -0.3082   -2.0645    0.8629 C   0  0  0  0  0  0  0  0  0  0  0  0
   -1.3179   -1.3369    1.4582 C   0  0  0  0  0  0  0  0  0  0  0  0
   -2.2011   -1.9292    2.3923 C   0  0  0  0  0  0  0  0  0  0  0  0
   -2.1997   -3.2861    2.8418 C   0  0  0  0  0  0  0  0  0  0  0  0
   -1.2374   -4.0477    2.1461 C   0  0  0  0  0  0  0  0  0  0  0  0
   -0.3074   -3.4334    1.1948 C   0  0  0  0  0  0  0  0  0  0  0  0
   -3.3231   -3.7141    3.8709 C   0  0  0  0  0  0  0  0  0  0  0  0
   -3.4948   -4.5788    4.9022 N   0  0  0  0  0  0  0  0  0  0  0  0
   -4.8706   -4.5069    5.4768 C   0  0  0  0  0  0  0  0  0  0  0  0
   -5.6503   -3.5895    4.7729 C   0  0  0  0  0  0  0  0  0  0  0  0
   -4.7303   -2.7125    3.6847 S   0  0  0  0  0  0  0  0  0  0  0  0
   -7.0178   -3.3844    4.9320 C   0  0  0  0  0  0  0  0  0  0  0  0
   -7.7145   -4.1046    5.8650 C   0  0  0  0  0  0  0  0  0  0  0  0
   -9.0594   -3.9373    5.9714 O   0  0  0  0  0  0  0  0  0  0  0  0
   -7.0245   -4.9806    6.6982 C   0  0  0  0  0  0  0  0  0  0  0  0
   -5.6016   -5.1643    6.5431 C   0  0  0  0  0  0  0  0  0  0  0  0
  1  2  1  0
  2  3  1  0
  3  4  2  0
  3  8  1  0
  4  5  1  0
  5  6  2  0
  6  7  1  0
  6  9  1  0
  7  8  2  0
  9 10  2  0
  9 13  1  0
 10 11  1  0
 11 12  2  0
 11 18  1  0
 12 13  1  0
 12 14  1  0
 14 15  2  0
 15 16  1  0
 15 17  1  0
 17 18  2  0
M  ISO  1   1  11
M  END
>  <DRUGBANK_ID>  (1) 
DB15161

>  <COMMON_NAME>  (1) 
Pittsburgh Compound B

>  <CAS_NUMBER>  (1) 
566170-04-5

>  <UNII>  (1) 
7P55415B0R

>  <SYNONYMS>  (1) 
(N-methyl-(11C))2-(4'-methylaminophenyl)-6-hydroxybenzothiazole; 2-(4'-(methylamino)phenyl)-6-hydroxybenzothiazole; C-11 PiB

$$$$
