
     RDKit          3D

 37 42  0  0  0  0  0  0  0  0999 V2000
   -0.3640   -0.1076    0.1563 C   0  0  0  0  0  0  0  0  0  0  0  0
   -0.0977    0.5441   -1.2040 C   0  0  2  0  0  0  0  0  0  0  0  0
   -1.4040    1.2066   -1.9801 C   0  0  1  0  0  0  0  0  0  0  0  0
   -1.6442    0.4448   -3.3016 C   0  0  2  0  0  0  0  0  0  0  0  0
   -2.7629   -0.4013   -3.2637 O   0  0  0  0  0  0  0  0  0  0  0  0
   -3.3894   -0.2629   -1.9991 C   0  0  1  0  0  0  0  0  0  0  0  0
   -4.8904   -0.1436   -2.3021 C   0  0  0  0  0  0  0  0  0  0  0  0
   -5.3153   -1.4409   -2.9781 C   0  0  0  0  0  0  0  0  0  0  0  0
   -5.0823   -2.5123   -1.9267 C   0  0  1  0  0  0  0  0  0  0  0  0
   -6.2102   -3.5343   -1.9397 C   0  0  0  0  0  0  0  0  0  0  0  0
   -3.5678   -2.7030   -1.7547 C   0  0  0  0  0  0  0  0  0  0  0  0
   -3.0951   -1.4316   -1.1794 O   0  0  0  0  0  0  0  0  0  0  0  0
   -2.8349    1.0720   -1.4278 C   0  0  1  0  0  0  0  0  0  0  0  0
   -2.8587    1.2617    0.0573 C   0  0  0  0  0  0  0  0  0  0  0  0
   -0.4806   -0.4473   -3.4477 C   0  0  0  0  0  0  0  0  0  0  0  0
    0.2247   -0.6912   -2.1481 C   0  0  1  0  0  0  0  0  0  0  0  0
    1.7436   -0.7337   -2.3339 C   0  0  2  0  0  0  0  0  0  0  0  0
    2.2076    0.6604   -2.7532 C   0  0  1  0  0  0  0  0  0  0  0  0
    2.7081    1.2448   -1.4701 C   0  0  0  0  0  0  0  0  0  0  0  0
    1.2623    1.6096   -0.8199 C   0  0  0  0  0  0  0  0  0  0  0  0
    2.4920    1.0596   -4.2105 C   0  0  1  0  0  0  0  0  0  0  0  0
    1.0722    1.3474   -5.0052 C   0  0  0  0  0  0  0  0  0  0  0  0
    3.1605    2.4728   -4.2050 C   0  0  0  0  0  0  0  0  0  0  0  0
    2.9794    2.9891   -5.5979 C   0  0  0  0  0  0  0  0  0  0  0  0
    3.5365    1.8910   -6.5844 C   0  0  1  0  0  0  0  0  0  0  0  0
    2.7862    0.4940   -6.6667 C   0  0  0  0  0  0  0  0  0  0  0  0
    2.7962   -0.0917   -5.1733 C   0  0  0  0  0  0  0  0  0  0  0  0
    2.5180   -1.3515   -4.7096 C   0  0  0  0  0  0  0  0  0  0  0  0
    2.3311   -1.7850   -3.2403 C   0  0  0  0  0  0  0  0  0  0  0  0
    3.7514    2.4401   -7.9010 O   0  0  0  0  0  0  0  0  0  0  0  0
    4.5800    3.4950   -8.0296 C   0  0  0  0  0  0  0  0  0  0  0  0
    4.2442    4.7811   -7.3121 C   0  0  0  0  0  0  0  0  0  0  0  0
    5.3818    5.4144   -6.5460 C   0  0  0  0  0  0  0  0  0  0  0  0
    6.3703    6.0126   -7.5152 C   0  0  0  0  0  0  0  0  0  0  0  0
    5.6678    6.9403   -8.5139 C   0  0  0  0  0  0  0  0  0  0  0  0
    5.0006    8.1086   -7.8009 C   0  0  0  0  0  0  0  0  0  0  0  0
    5.4929    3.4720   -8.9161 O   0  0  0  0  0  0  0  0  0  0  0  0
  2  1  1  1
  3  2  1  0
  3  4  1  6
  5  4  1  0
  6  5  1  0
  6 12  1  0
  6 13  1  0
  6  7  1  6
  8  7  1  0
  9  8  1  0
  9 11  1  0
  9 10  1  6
 11 12  1  0
 13  3  1  0
 13 14  1  1
  4 15  1  1
 16 15  1  6
 16  2  1  0
 17 16  1  0
 17 18  1  0
 18 19  1  1
 19 20  1  0
 20  2  1  0
 21 18  1  0
 21 22  1  6
 23 21  1  0
 24 23  1  0
 25 24  1  0
 25 26  1  0
 25 30  1  6
 26 27  1  0
 27 21  1  0
 28 27  2  0
 28 29  1  0
 17 29  1  6
 30 31  1  0
 31 32  1  0
 31 37  2  0
 32 33  1  0
 33 34  1  0
 34 35  1  0
 35 36  1  0
M  END
>  <DRUGBANK_ID>  (1) 
DB05263

>  <COMMON_NAME>  (1) 
Caprospinol

>  <CAS_NUMBER>  (1) 
4952-56-1

>  <UNII>  (1) 
9BU4T267E4

>  <SYNONYMS>  (1) 
Diosgenin caproate

$$$$
