
     RDKit          3D

 40 43  0  0  1  0  0  0  0  0999 V2000
    0.9000    0.0663    0.0556 O   0  0  0  0  0  0  0  0  0  0  0  0
    0.3867   -1.0536    0.6029 C   0  0  0  0  0  0  0  0  0  0  0  0
    1.0929   -1.9943    0.9094 O   0  0  0  0  0  0  0  0  0  0  0  0
   -1.0953   -0.9976    0.6902 C   0  0  0  0  0  0  0  0  0  0  0  0
   -1.7982   -0.6870   -0.4921 C   0  0  0  0  0  0  0  0  0  0  0  0
   -3.1959   -0.6871   -0.5169 C   0  0  0  0  0  0  0  0  0  0  0  0
   -3.9107   -0.9770    0.6370 C   0  0  0  0  0  0  0  0  0  0  0  0
   -3.2232   -1.2469    1.8174 C   0  0  0  0  0  0  0  0  0  0  0  0
   -3.9777   -1.3918    2.9474 O   0  0  0  0  0  0  0  0  0  0  0  0
   -1.8089   -1.2999    1.8690 C   0  0  0  0  0  0  0  0  0  0  0  0
   -1.0907   -1.5948    3.1553 C   0  0  0  0  0  0  0  0  0  0  0  0
    0.1101   -1.3830    3.2948 O   0  0  0  0  0  0  0  0  0  0  0  0
   -1.7953   -1.9981    4.3851 C   0  0  0  0  0  0  0  0  0  0  0  0
   -2.6186   -3.1278    4.4391 C   0  0  0  0  0  0  0  0  0  0  0  0
   -2.8139   -4.0262    3.4283 O   0  0  0  0  0  0  0  0  0  0  0  0
   -3.4020   -3.3548    5.5567 C   0  0  0  0  0  0  0  0  0  0  0  0
   -3.3233   -2.5179    6.6678 C   0  0  0  0  0  0  0  0  0  0  0  0
   -2.4576   -1.4123    6.6589 C   0  0  0  0  0  0  0  0  0  0  0  0
   -1.7030   -1.1509    5.5070 C   0  0  0  0  0  0  0  0  0  0  0  0
   -0.9168   -0.0232    5.5191 O   0  0  0  0  0  0  0  0  0  0  0  0
   -4.2148   -2.9825    7.7739 C   0  0  0  0  0  0  0  0  0  0  0  0
   -4.9844   -3.8808    7.6989 O   0  0  0  0  0  0  0  0  0  0  0  0
   -3.9743   -2.2880    8.9003 O   0  0  0  0  0  0  0  0  0  0  0  0
   -4.7825   -2.7485   10.0200 C   0  0  2  0  0  0  0  0  0  0  0  0
   -4.8707   -1.5633   10.8035 C   0  0  0  0  0  0  0  0  0  0  0  0
   -5.4922   -1.6023   12.5632 C   0  0  0  0  0  0  0  0  0  0  0  0
   -5.2302   -2.6405   13.5636 C   0  0  0  0  0  0  0  0  0  0  0  0
   -5.8652   -3.7039   12.8722 N   0  0  0  0  0  0  0  0  0  0  0  0
   -4.9793   -4.3296   11.9037 C   0  0  0  0  0  0  0  0  0  0  0  0
   -3.9813   -3.4999   11.0373 C   0  0  2  0  0  0  0  0  0  0  0  0
   -2.9584   -2.5260   11.9089 N   0  0  0  0  0  0  0  0  0  0  0  0
   -2.8879   -1.0005   12.3271 C   0  0  0  0  0  0  0  0  0  0  0  0
   -1.8845   -0.7608   13.0142 O   0  0  0  0  0  0  0  0  0  0  0  0
   -3.9589    0.4149   11.8121 C   0  0  0  0  0  0  0  0  0  0  0  0
   -5.5396    0.5627   11.6218 C   0  0  0  0  0  0  0  0  0  0  0  0
   -6.3877    1.2409   10.7892 C   0  0  0  0  0  0  0  0  0  0  0  0
   -5.6672    2.0089    9.9747 C   0  0  0  0  0  0  0  0  0  0  0  0
   -6.4185    2.6749    9.0615 O   0  0  0  0  0  0  0  0  0  0  0  0
   -4.2237    2.0358   10.0419 C   0  0  0  0  0  0  0  0  0  0  0  0
   -3.3620    1.2576   10.9181 C   0  0  0  0  0  0  0  0  0  0  0  0
  1  2  1  0
  2  3  2  0
  2  4  1  0
  4  5  2  0
  4 10  1  0
  5  6  1  0
  6  7  2  0
  7  8  1  0
  8  9  1  0
  8 10  2  0
 10 11  1  0
 11 12  2  0
 11 13  1  0
 13 14  2  0
 13 19  1  0
 14 15  1  0
 14 16  1  0
 16 17  2  0
 17 18  1  0
 17 21  1  0
 18 19  2  0
 19 20  1  0
 21 22  2  0
 21 23  1  0
 24 23  1  6
 24 25  1  0
 24 30  1  0
 25 26  1  0
 26 27  1  0
 27 28  1  0
 28 29  1  0
 29 30  1  0
 30 31  1  1
 31 32  1  0
 32 33  2  0
 32 34  1  0
 34 35  2  0
 34 40  1  0
 35 36  1  0
 36 37  2  0
 37 38  1  0
 37 39  1  0
 39 40  2  0
M  END
>  <DRUGBANK_ID>  (1) 
DB04098

>  <SECONDARY_ACCESSION_NUMBERS>  (1) 
EXPT00617

>  <COMMON_NAME>  (1) 
Balanol

>  <UNII>  (1) 
O0N0E1MP23

$$$$
