
     RDKit          3D

  5  3  0  0  0  0  0  0  0  0999 V2000
    1.0089   -0.3632   -1.3269 Ca  0  0  0  0  0 15  0  0  0  0  0  0
    1.2610    0.1817    0.7579 O   0  0  0  0  0  0  0  0  0  0  0  0
    2.9674    1.1908    0.6771 O   0  0  0  0  0  0  0  0  0  0  0  0
    2.4661    0.1249    0.4948 C   0  0  0  0  0  0  0  0  0  0  0  0
    2.8667   -0.7116   -0.3377 O   0  0  0  0  0  0  0  0  0  0  0  0
  2  4  1  0
  3  4  1  0
  4  5  2  0
M  CHG  3   1   2   2  -1   3  -1
M  END
>  <DRUGBANK_ID>  (1) 
DB06724

>  <COMMON_NAME>  (1) 
Calcium carbonate

>  <CAS_NUMBER>  (1) 
471-34-1

>  <UNII>  (1) 
H0G9379FGK

>  <SYNONYMS>  (1) 
Calcio carbonato; Calcium carbonate; Calcium carbonate (1:1); Calciumcarbonat; Carbonate de calcium; Carbonato de calcio; Carbonic acid calcium salt (1:1); Chalk; Kalziumkarbonat; Kohlensaurer kalk; Precipitated calcium carbonate

$$$$
