
     RDKit          3D

  1  0  0  0  0  0  0  0  0  0999 V2000
    1.0622   -0.0770   -0.0281 O   0  0  0  0  0  0  0  0  0  0  0  0
M  END
>  <DRUGBANK_ID>  (1) 
DB09145

>  <COMMON_NAME>  (1) 
Water

>  <CAS_NUMBER>  (1) 
7732-18-5

>  <UNII>  (1) 
059QF0KO0R

>  <SYNONYMS>  (1) 
agua; Dihydrogen oxide; Purified water; Sterile water; Water purified

$$$$
