
     RDKit          3D

 41 44  0  0  0  0  0  0  0  0999 V2000
   -5.4763    0.0087   -9.7917 C   0  0  0  0  0  0  0  0  0  0  0  0
   -4.2619   -0.3887   -9.0122 C   0  0  0  0  0  0  0  0  0  0  0  0
   -3.2593    0.5431   -8.7419 C   0  0  0  0  0  0  0  0  0  0  0  0
   -2.0720    0.1304   -8.1496 C   0  0  0  0  0  0  0  0  0  0  0  0
   -1.8862   -1.2047   -7.8197 C   0  0  0  0  0  0  0  0  0  0  0  0
   -2.9408   -2.0857   -7.9348 C   0  0  0  0  0  0  0  0  0  0  0  0
   -4.0992   -1.7200   -8.6022 C   0  0  0  0  0  0  0  0  0  0  0  0
   -5.1805   -2.7205   -8.8207 C   0  0  0  0  0  0  0  0  0  0  0  0
   -4.7370   -4.1108   -8.8846 N   0  0  0  0  0  0  0  0  0  0  0  0
   -5.0692   -5.2811   -8.2429 C   0  0  0  0  0  0  0  0  0  0  0  0
   -4.4104   -6.2691   -8.6002 O   0  0  0  0  0  0  0  0  0  0  0  0
   -6.0534   -5.4228   -6.9956 C   0  0  1  0  0  0  0  0  0  0  0  0
   -5.2249   -5.3281   -5.8165 N   0  0  0  0  0  0  0  0  0  0  0  0
   -4.8456   -3.9980   -5.6650 C   0  0  0  0  0  0  0  0  0  0  0  0
   -6.2692   -2.9832   -5.9853 S   0  0  0  0  0  0  0  0  0  0  0  0
   -7.1293   -4.3262   -6.8438 C   0  0  0  0  0  0  0  0  0  0  0  0
   -8.2026   -4.5392   -5.7790 C   0  0  0  0  0  0  0  0  0  0  0  0
   -7.8024   -4.0277   -8.1798 C   0  0  0  0  0  0  0  0  0  0  0  0
   -4.8623   -6.2933   -4.9125 C   0  0  0  0  0  0  0  0  0  0  0  0
   -5.2270   -7.4665   -5.0236 O   0  0  0  0  0  0  0  0  0  0  0  0
   -3.8621   -5.9155   -3.7851 C   0  0  1  0  0  0  0  0  0  0  0  0
   -2.6717   -5.4888   -4.5303 O   0  0  0  0  0  0  0  0  0  0  0  0
   -4.1626   -4.8877   -2.5766 C   0  0  2  0  0  0  0  0  0  0  0  0
   -4.0764   -5.4378   -1.1448 C   0  0  0  0  0  0  0  0  0  0  0  0
   -2.8295   -6.2503   -0.8777 C   0  0  0  0  0  0  0  0  0  0  0  0
   -1.8292   -6.4383   -1.8420 C   0  0  0  0  0  0  0  0  0  0  0  0
   -0.8584   -7.4131   -1.7728 C   0  0  0  0  0  0  0  0  0  0  0  0
   -0.6807   -8.0349   -0.5641 C   0  0  0  0  0  0  0  0  0  0  0  0
   -1.5306   -7.7206    0.5042 C   0  0  0  0  0  0  0  0  0  0  0  0
   -2.6289   -6.8658    0.3436 C   0  0  0  0  0  0  0  0  0  0  0  0
   -5.3653   -4.0770   -2.7069 N   0  0  0  0  0  0  0  0  0  0  0  0
   -5.4981   -2.7193   -2.9375 C   0  0  0  0  0  0  0  0  0  0  0  0
   -6.6567   -2.2922   -2.7266 O   0  0  0  0  0  0  0  0  0  0  0  0
   -4.3949   -1.8575   -3.6160 C   0  0  0  0  0  0  0  0  0  0  0  0
   -3.1465   -2.4179   -3.9875 C   0  0  0  0  0  0  0  0  0  0  0  0
   -2.1943   -1.8219   -4.7755 C   0  0  0  0  0  0  0  0  0  0  0  0
   -2.3985   -0.5189   -5.1183 C   0  0  0  0  0  0  0  0  0  0  0  0
   -3.6774    0.0020   -4.9992 C   0  0  0  0  0  0  0  0  0  0  0  0
   -4.0099    1.1410   -5.6850 O   0  0  0  0  0  0  0  0  0  0  0  0
   -4.6828   -0.6329   -4.2459 C   0  0  0  0  0  0  0  0  0  0  0  0
   -6.0062    0.0696   -4.2367 C   0  0  0  0  0  0  0  0  0  0  0  0
  1  2  1  0
  2  3  2  0
  2  7  1  0
  3  4  1  0
  4  5  2  0
  5  6  1  0
  6  7  2  0
  7  8  1  0
  8  9  1  0
  9 10  1  0
 10 11  2  0
 12 10  1  6
 12 13  1  0
 12 16  1  0
 13 14  1  0
 13 19  1  0
 14 15  1  0
 15 16  1  0
 16 17  1  0
 16 18  1  0
 19 20  2  0
 21 19  1  0
 21 22  1  6
 23 31  1  0
 23 24  1  1
 23 21  1  0
 24 25  1  0
 25 26  2  0
 25 30  1  0
 26 27  1  0
 27 28  2  0
 28 29  1  0
 29 30  2  0
 31 32  1  0
 32 33  2  0
 32 34  1  0
 34 35  2  0
 34 40  1  0
 35 36  1  0
 36 37  2  0
 37 38  1  0
 38 39  1  0
 38 40  2  0
 40 41  1  0
M  END
>  <DRUGBANK_ID>  (1) 
DB02668

>  <SECONDARY_ACCESSION_NUMBERS>  (1) 
EXPT01956

>  <COMMON_NAME>  (1) 
JE-2147

>  <CAS_NUMBER>  (1) 
186538-00-1

$$$$
