
     RDKit          3D

 28 32  0  0  0  0  0  0  0  0999 V2000
   -2.4005   -0.7253   -0.0059 C   0  0  0  0  0  0  0  0  0  0  0  0
   -1.2020   -1.4230   -0.0184 C   0  0  0  0  0  0  0  0  0  0  0  0
    0.0086   -0.7213   -0.0213 C   0  0  0  0  0  0  0  0  0  0  0  0
    1.2395   -1.3912   -0.0230 C   0  0  0  0  0  0  0  0  0  0  0  0
    2.4520   -0.6874    0.0201 C   0  0  0  0  0  0  0  0  0  0  0  0
    2.4068    0.7096    0.0062 C   0  0  0  0  0  0  0  0  0  0  0  0
    1.1741    1.3743   -0.0122 C   0  0  0  0  0  0  0  0  0  0  0  0
   -0.0330    0.6881   -0.0127 C   0  0  0  0  0  0  0  0  0  0  0  0
   -1.1926    1.3672   -0.0044 N   0  0  0  0  0  0  0  0  0  0  0  0
   -2.3431    0.6563    0.0015 C   0  0  0  0  0  0  0  0  0  0  0  0
    3.7700   -1.4241    0.0846 C   0  0  0  0  0  0  0  0  0  0  0  0
    3.8993   -2.1959    1.3076 N   0  0  0  0  0  0  0  0  0  0  0  0
    4.7989   -2.0166    2.3180 C   0  0  0  0  0  0  0  0  0  0  0  0
    4.4469   -3.0010    3.2365 C   0  0  0  0  0  0  0  0  0  0  0  0
    5.1078   -3.1634    4.4111 N   0  0  0  0  0  0  0  0  0  0  0  0
    6.1326   -2.2838    4.5485 C   0  0  0  0  0  0  0  0  0  0  0  0
    6.4744   -1.3096    3.6048 C   0  0  0  0  0  0  0  0  0  0  0  0
    5.8036   -1.1188    2.4350 N   0  0  0  0  0  0  0  0  0  0  0  0
    7.5899   -0.4310    3.8453 C   0  0  0  0  0  0  0  0  0  0  0  0
    8.9452   -0.7128    4.1093 C   0  0  0  0  0  0  0  0  0  0  0  0
    9.6591    0.3959    4.3243 N   0  0  0  0  0  0  0  0  0  0  0  0
    8.7593    1.3916    4.1618 N   0  0  0  0  0  0  0  0  0  0  0  0
    7.4992    0.9424    3.9012 C   0  0  0  0  0  0  0  0  0  0  0  0
    9.1760    2.7748    4.3169 C   0  0  0  0  0  0  0  0  0  0  0  0
    9.7498    3.0476    5.7035 C   0  0  0  0  0  0  0  0  0  0  0  0
   10.9497    2.3188    5.9480 O   0  0  0  0  0  0  0  0  0  0  0  0
    3.4055   -3.7365    2.7558 N   0  0  0  0  0  0  0  0  0  0  0  0
    3.1049   -3.2698    1.5465 N   0  0  0  0  0  0  0  0  0  0  0  0
  1  2  2  0
  1 10  1  0
  2  3  1  0
  3  4  2  0
  3  8  1  0
  4  5  1  0
  5  6  2  0
  5 11  1  0
  6  7  1  0
  7  8  2  0
  8  9  1  0
  9 10  2  0
 11 12  1  0
 12 13  1  0
 12 28  1  0
 13 14  1  0
 13 18  2  0
 14 15  2  0
 14 27  1  0
 15 16  1  0
 16 17  2  0
 17 18  1  0
 17 19  1  0
 19 20  1  0
 19 23  2  0
 20 21  2  0
 21 22  1  0
 22 23  1  0
 22 24  1  0
 24 25  1  0
 25 26  1  0
 27 28  2  0
M  END
>  <DRUGBANK_ID>  (1) 
DB12848

>  <COMMON_NAME>  (1) 
PF-04217903

>  <CAS_NUMBER>  (1) 
956905-27-4

>  <UNII>  (1) 
CYJ9ATV1IJ

$$$$
