
     RDKit          3D

 12 11  0  0  1  0  0  0  0  0999 V2000
   -1.2879    1.6147    2.3599 O   0  0  0  0  0  0  0  0  0  0  0  0
   -0.1015    1.4019    3.1247 C   0  0  0  0  0  0  0  0  0  0  0  0
   -0.4388    1.3446    4.6375 C   0  0  2  0  0  0  0  0  0  0  0  0
   -1.1052    0.0985    4.9382 O   0  0  0  0  0  0  0  0  0  0  0  0
   -1.3664    2.4863    5.1062 C   0  0  1  0  0  0  0  0  0  0  0  0
   -1.6755    2.3069    6.5006 O   0  0  0  0  0  0  0  0  0  0  0  0
   -0.8134    3.9103    4.8663 C   0  0  2  0  0  0  0  0  0  0  0  0
   -1.2458    4.3729    3.5726 O   0  0  0  0  0  0  0  0  0  0  0  0
    0.7283    4.1112    4.9990 C   0  0  2  0  0  0  0  0  0  0  0  0
    1.5067    3.1001    4.3497 O   0  0  0  0  0  0  0  0  0  0  0  0
    1.1808    4.1168    6.4528 C   0  0  0  0  0  0  0  0  0  0  0  0
    2.6144    4.1212    6.4824 O   0  0  0  0  0  0  0  0  0  0  0  0
  1  2  1  0
  3  5  1  0
  3  4  1  6
  3  2  1  0
  5  6  1  1
  7  8  1  6
  7  5  1  0
  9 11  1  0
  9 10  1  6
  9  7  1  0
 11 12  1  0
M  END
>  <DRUGBANK_ID>  (1) 
DB01638

>  <SECONDARY_ACCESSION_NUMBERS>  (1) 
EXPT02939; DB09391

>  <COMMON_NAME>  (1) 
Sorbitol

>  <CAS_NUMBER>  (1) 
50-70-4

>  <UNII>  (1) 
506T60A25R

>  <SYNONYMS>  (1) 
(−)-sorbitol; D-(−)-sorbitol; D-glucitol; D-Sorbit; D-Sorbitol; G-ol; L-Gulitol; Sorbitol

$$$$
