SHY
     RDKit          3D

 33 38  0  0  0  0  0  0  0  0999 V2000
    8.0125   -1.0662    6.8251 N   0  0  0  0  0  0  0  0  0  0  0  0
    6.9308   -1.6112    6.3721 C   0  0  0  0  0  0  0  0  0  0  0  0
    6.1424   -2.3821    7.1776 N   0  0  0  0  0  0  0  0  0  0  0  0
    6.5929   -1.4318    4.9270 C   0  0  0  0  0  0  0  0  0  0  0  0
    7.6475   -1.4340    4.0108 C   0  0  0  0  0  0  0  0  0  0  0  0
    7.4171   -1.4211    2.6351 C   0  0  0  0  0  0  0  0  0  0  0  0
    6.1320   -1.4396    2.1161 C   0  0  0  0  0  0  0  0  0  0  0  0
    5.0506   -1.3454    3.0552 C   0  0  0  0  0  0  0  0  0  0  0  0
    5.2836   -1.3295    4.4571 C   0  0  0  0  0  0  0  0  0  0  0  0
    5.9920   -1.4406    0.5876 C   0  0  2  0  0  0  0  0  0  0  0  0
    6.8968   -2.2506   -0.3448 N   0  0  0  0  0  0  0  0  0  0  0  0
    7.8464   -3.3353   -0.7452 C   0  0  0  0  0  0  0  0  0  0  0  0
    7.0744   -3.7620   -2.0265 C   0  0  1  0  0  0  0  0  0  0  0  0
    6.8530   -2.4115   -2.6923 C   0  0  0  0  0  0  0  0  0  0  0  0
    7.0910   -1.4467   -1.5338 C   0  0  1  0  0  0  0  0  0  0  0  0
    6.3477   -0.1917   -1.4351 C   0  0  1  0  0  0  0  0  0  0  0  0
    4.9504   -0.2605   -1.9414 C   0  0  0  0  0  0  0  0  0  0  0  0
    4.4112    0.9000   -1.5170 N   0  0  0  0  0  0  0  0  0  0  0  0
    4.7286    0.8925   -0.1834 C   0  0  0  0  0  0  0  0  0  0  0  0
    4.0387    1.3676    0.7033 O   0  0  0  0  0  0  0  0  0  0  0  0
    6.0446    0.0584    0.0301 C   0  0  1  0  0  0  0  0  0  0  0  0
    3.2787    1.4801   -2.2237 C   0  0  0  0  0  0  0  0  0  0  0  0
    2.1754    0.5342   -2.6720 C   0  0  0  0  0  0  0  0  0  0  0  0
    1.4203   -0.2072   -1.7388 C   0  0  0  0  0  0  0  0  0  0  0  0
    0.3903   -1.0755   -2.1542 C   0  0  0  0  0  0  0  0  0  0  0  0
    0.0817   -1.1252   -3.4995 C   0  0  0  0  0  0  0  0  0  0  0  0
   -0.9025   -1.8431   -4.1223 O   0  0  0  0  0  0  0  0  0  0  0  0
   -1.0522   -1.0377   -5.3132 C   0  0  0  0  0  0  0  0  0  0  0  0
    7.6320   -4.7194   -2.9053 O   0  0  0  0  0  0  0  0  0  0  0  0
    0.1561   -0.3139   -5.6226 O   0  0  0  0  0  0  0  0  0  0  0  0
    0.7553   -0.3339   -4.3974 C   0  0  0  0  0  0  0  0  0  0  0  0
    1.8538    0.4196   -4.0383 C   0  0  0  0  0  0  0  0  0  0  0  0
    4.3317   -1.2200   -2.2950 O   0  0  0  0  0  0  0  0  0  0  0  0
  1  2  2  0
  2  3  1  0
  2  4  1  0
  4  5  2  0
  4  9  1  0
  5  6  1  0
  6  7  2  0
  7  8  1  0
  8  9  2  0
 10 11  1  0
 10 21  1  0
 10  7  1  1
 11 12  1  0
 11 15  1  0
 12 13  1  0
 13 14  1  0
 13 29  1  6
 15 14  1  6
 15 16  1  0
 16 17  1  6
 16 21  1  0
 17 18  1  0
 17 33  2  0
 18 19  1  0
 18 22  1  0
 21 19  1  6
 19 20  2  0
 22 23  1  0
 23 24  2  0
 23 32  1  0
 24 25  1  0
 25 26  2  0
 26 27  1  0
 26 31  1  0
 27 28  1  0
 28 30  1  0
 30 31  1  0
 31 32  2  0
M  END
>  <DRUGBANK_ID>  (1) 
DB08546

>  <COMMON_NAME>  (1) 
4-[(3AS,4R,7R,8AS,8BR)-2-(1,3-BENZODIOXOL-5-YLMETHYL)-7-HYDROXY-1,3-DIOXODECAHYDROPYRROLO[3,4-A]PYRROLIZIN-4-YL]BENZENECARBOXIMIDAMIDE

$$$$
