
     RDKit          3D

 36 40  0  0  0  0  0  0  0  0999 V2000
    2.2802   -5.3649   -4.0599 N   0  0  0  0  0  0  0  0  0  0  0  0
    2.6780   -5.8410   -2.8033 C   0  0  0  0  0  0  0  0  0  0  0  0
    2.9338   -5.4420   -5.3593 C   0  0  2  0  0  0  0  0  0  0  0  0
    1.5578   -4.2375   -3.8739 N   0  0  0  0  0  0  0  0  0  0  0  0
    1.9773   -5.0271   -1.9267 C   0  0  0  0  0  0  0  0  0  0  0  0
    3.5287   -6.8152   -2.4236 N   0  0  0  0  0  0  0  0  0  0  0  0
    3.3307   -3.9763   -5.6908 C   0  0  0  0  0  0  0  0  0  0  0  0
    2.2803   -5.9231   -6.7058 C   0  0  1  0  0  0  0  0  0  0  0  0
    1.5098   -3.9536   -2.5933 N   0  0  0  0  0  0  0  0  0  0  0  0
    1.8549   -5.3892   -0.5816 C   0  0  0  0  0  0  0  0  0  0  0  0
    3.5030   -7.0075   -1.0668 C   0  0  0  0  0  0  0  0  0  0  0  0
    2.5236   -3.5456   -6.9219 C   0  0  1  0  0  0  0  0  0  0  0  0
    1.5847   -4.7223   -7.2990 C   0  0  1  0  0  0  0  0  0  0  0  0
    3.3349   -6.2606   -7.6516 O   0  0  0  0  0  0  0  0  0  0  0  0
    2.6310   -6.4429   -0.1835 N   0  0  0  0  0  0  0  0  0  0  0  0
    0.9692   -4.7170    0.3158 N   0  0  0  0  0  0  0  0  0  0  0  0
    1.8520   -2.3052   -6.7095 O   0  0  0  0  0  0  0  0  0  0  0  0
    1.2629   -4.8667   -8.6901 O   0  0  0  0  0  0  0  0  0  0  0  0
    4.8668   -8.0078   -0.4292 S   0  0  0  0  0  0  0  0  0  0  0  0
    4.7927   -7.9302    1.4208 C   0  0  0  0  0  0  0  0  0  0  0  0
    5.2079   -6.6178    2.1038 C   0  0  0  0  0  0  0  0  0  0  0  0
    0.7155   -2.0833   -7.5418 C   0  0  0  0  0  0  0  0  0  0  0  0
    0.9453   -2.0614   -9.0716 C   0  0  0  0  0  0  0  0  0  0  0  0
    2.1239   -2.6259   -9.6397 O   0  0  0  0  0  0  0  0  0  0  0  0
    4.2994   -5.4603    1.7696 C   0  0  0  0  0  0  0  0  0  0  0  0
    0.1678   -3.5591   -0.1794 C   0  0  1  0  0  0  0  0  0  0  0  0
   -1.1832   -3.9203   -0.8383 C   0  0  1  0  0  0  0  0  0  0  0  0
   -1.1347   -2.9868    0.3181 C   0  0  0  0  0  0  0  0  0  0  0  0
   -1.5473   -3.5875   -2.2691 C   0  0  0  0  0  0  0  0  0  0  0  0
   -1.0943   -4.4441   -3.2674 C   0  0  0  0  0  0  0  0  0  0  0  0
   -1.2672   -4.2140   -4.6216 C   0  0  0  0  0  0  0  0  0  0  0  0
   -2.0816   -3.1736   -5.0451 C   0  0  0  0  0  0  0  0  0  0  0  0
   -2.7335   -2.4273   -4.0839 C   0  0  0  0  0  0  0  0  0  0  0  0
   -2.4544   -2.6083   -2.7108 C   0  0  0  0  0  0  0  0  0  0  0  0
   -0.6746   -5.0283   -5.4828 F   0  0  0  0  0  0  0  0  0  0  0  0
   -2.2883   -2.9667   -6.3476 F   0  0  0  0  0  0  0  0  0  0  0  0
  1  2  1  0
  1  4  1  0
  2  5  2  0
  2  6  1  0
  3  1  1  1
  3  7  1  0
  3  8  1  0
  4  9  2  0
  5 10  1  0
  5  9  1  0
  6 11  2  0
  7 12  1  0
  8 13  1  0
  8 14  1  6
 10 15  2  0
 10 16  1  0
 11 15  1  0
 11 19  1  0
 12 13  1  0
 12 17  1  1
 13 18  1  6
 17 22  1  0
 19 20  1  0
 20 21  1  0
 21 25  1  0
 22 23  1  0
 23 24  1  0
 26 27  1  0
 26 16  1  1
 27 28  1  0
 27 29  1  6
 28 26  1  0
 29 30  2  0
 29 34  1  0
 30 31  1  0
 31 32  2  0
 31 35  1  0
 32 33  1  0
 32 36  1  0
 33 34  2  0
M  END
>  <DRUGBANK_ID>  (1) 
DB08816

>  <SECONDARY_ACCESSION_NUMBERS>  (1) 
DB04902

>  <COMMON_NAME>  (1) 
Ticagrelor

>  <CAS_NUMBER>  (1) 
274693-27-5

>  <UNII>  (1) 
GLH0314RVC

>  <SYNONYMS>  (1) 
(1S,2S,3R,5S)-3-(7-((1R,2S)-2-(3,4-Difluorophenyl)cyclopropylamino)-5-(propylthio)-3H-(1,2,3)triazolo(4,5-d)pyrimidin-3-yl)-5-(2-hydroxyethoxy)cyclopentane-1,2-diol; Ticagrelor

$$$$
