STC
     RDKit          3D

 19 20  0  0  0  0  0  0  0  0999 V2000
    0.9161   -0.1795   -0.1819 N   0  0  0  0  0  0  0  0  0  0  0  0
    0.1884   -1.2841    0.3779 C   0  0  0  0  0  0  0  0  0  0  0  0
    0.5699   -1.9235    1.5723 C   0  0  0  0  0  0  0  0  0  0  0  0
   -0.8655   -1.8126   -0.3561 C   0  0  0  0  0  0  0  0  0  0  0  0
   -0.1155   -3.0545    2.0312 C   0  0  0  0  0  0  0  0  0  0  0  0
   -1.5386   -2.9493    0.0870 C   0  0  0  0  0  0  0  0  0  0  0  0
   -1.1583   -3.5714    1.2730 C   0  0  0  0  0  0  0  0  0  0  0  0
   -1.9621   -5.0031    1.7793 Cl  0  0  0  0  0  0  0  0  0  0  0  0
    0.1131    1.2487   -0.5943 S   0  0  0  0  0  0  0  0  0  0  0  0
    0.5111    2.6524    0.3878 C   0  0  0  0  0  0  0  0  0  0  0  0
    0.6177    1.6461   -1.8936 O   0  0  0  0  0  0  0  0  0  0  0  0
   -1.3096    1.1279   -0.3555 O   0  0  0  0  0  0  0  0  0  0  0  0
    1.0952    2.6941    1.6486 C   0  0  0  0  0  0  0  0  0  0  0  0
    0.1669    3.9730   -0.0847 C   0  0  0  0  0  0  0  0  0  0  0  0
    1.1416    4.3032    2.2561 S   0  0  0  0  0  0  0  0  0  0  0  0
    1.6769    1.6124    2.4077 C   0  0  0  0  0  0  0  0  0  0  0  0
    0.4518    4.9537    0.8369 C   0  0  0  0  0  0  0  0  0  0  0  0
    2.0505    1.8787    3.6794 O   0  0  0  0  0  0  0  0  0  0  0  0
    1.9303    0.5139    1.9394 O   0  0  0  0  0  0  0  0  0  0  0  0
  1  2  1  0
  1  9  1  0
  2  3  2  0
  2  4  1  0
  3  5  1  0
  4  6  2  0
  5  7  2  0
  6  7  1  0
  7  8  1  0
  9 10  1  0
  9 11  2  0
  9 12  2  0
 10 13  2  0
 10 14  1  0
 13 15  1  0
 13 16  1  0
 14 17  2  0
 15 17  1  0
 16 18  1  0
 16 19  2  0
M  END
>  <DRUGBANK_ID>  (1) 
DB08573

>  <COMMON_NAME>  (1) 
3-[(4-CHLOROANILINO)SULFONYL]THIOPHENE-2-CARBOXYLIC ACID

>  <UNII>  (1) 
YPG9JNK4RX

$$$$
