BS1
     RDKit          3D

 26 30  0  0  0  0  0  0  0  0999 V2000
    1.1939   -0.3394    0.7400 C   0  0  0  0  0  0  0  0  0  0  0  0
    0.3450   -1.2757   -0.0611 N   0  0  0  0  0  0  0  0  0  0  0  0
    0.9597   -2.3682    1.2978 C   0  0  0  0  0  0  0  0  0  0  0  0
    0.7283   -1.7127   -2.2025 C   0  0  1  0  0  0  0  0  0  0  0  0
   -0.9179   -2.8801   -2.4088 C   0  0  0  0  0  0  0  0  0  0  0  0
   -2.1561   -2.5200   -1.1923 C   0  0  0  0  0  0  0  0  0  0  0  0
   -1.7462   -1.0473   -0.2181 C   0  0  2  0  0  0  0  0  0  0  0  0
    0.8192   -0.5420   -3.1838 C   0  0  0  0  0  0  0  0  0  0  0  0
   -0.1221    0.7344   -2.7772 C   0  0  1  0  0  0  0  0  0  0  0  0
   -1.7776    0.6017   -1.6319 C   0  0  0  0  0  0  0  0  0  0  0  0
    0.9313    1.6711   -2.4232 O   0  0  0  0  0  0  0  0  0  0  0  0
    1.6370    1.3384   -1.2019 C   0  0  0  0  0  0  0  0  0  0  0  0
    2.6085   -0.3084   -1.2036 C   0  0  0  0  0  0  0  0  0  0  0  0
    3.9511   -0.1226   -1.2414 C   0  0  0  0  0  0  0  0  0  0  0  0
    4.7222   -1.3138   -1.2292 C   0  0  0  0  0  0  0  0  0  0  0  0
    4.2631   -2.6881   -1.1802 C   0  0  0  0  0  0  0  0  0  0  0  0
    2.9894   -3.0387   -0.9293 C   0  0  0  0  0  0  0  0  0  0  0  0
    2.1913   -1.9517   -0.8374 C   0  0  0  0  0  0  0  0  0  0  0  0
    0.3673   -2.7486   -0.8739 C   0  0  0  0  0  0  0  0  0  0  0  0
   -0.5617   -0.8753   -1.4538 C   0  0  0  0  0  0  0  0  0  0  0  0
   -0.6872    0.6724   -0.0451 C   0  0  0  0  0  0  0  0  0  0  0  0
   -1.8653    0.7658    1.0389 C   0  0  0  0  0  0  0  0  0  0  0  0
   -1.6647    1.3466    2.2463 C   0  0  0  0  0  0  0  0  0  0  0  0
   -0.4886    2.0842    2.3364 C   0  0  0  0  0  0  0  0  0  0  0  0
    0.4787    2.2960    1.2401 C   0  0  0  0  0  0  0  0  0  0  0  0
    0.3551    1.6800   -0.0417 C   0  0  0  0  0  0  0  0  0  0  0  0
  1  2  1  0
  2  3  1  0
  2  4  1  0
  2  7  1  0
  4  5  1  6
  4  8  1  0
  5  6  1  0
  7  6  1  6
  7 10  1  0
  8  9  1  0
  9 10  1  0
  9 11  1  1
 11 12  1  0
 12 13  1  0
 12 26  1  0
 13 14  2  0
 13 18  1  0
 14 15  1  0
 15 16  2  0
 16 17  1  0
 17 18  2  0
 18 19  1  0
 19 20  1  0
 20 21  1  0
 21 22  1  0
 21 26  2  0
 22 23  2  0
 23 24  1  0
 24 25  2  0
 25 26  1  0
M  CHG  1   2   1
M  END
>  <DRUGBANK_ID>  (1) 
DB07494

>  <COMMON_NAME>  (1) 
(3-EXO)-3-(10,11-DIHYDRO-5H-DIBENZO[A,D][7]ANNULEN-5-YLOXY)-8,8-DIMETHYL-8-AZONIABICYCLO[3.2.1]OCTANE

$$$$
