
     RDKit          3D

 24 26  0  0  0  0  0  0  0  0999 V2000
    1.4663    0.9032   -0.4240 C   0  0  0  0  0  0  0  0  0  0  0  0
    0.0805    0.9386   -0.3011 C   0  0  0  0  0  0  0  0  0  0  0  0
   -0.5850   -0.2561   -0.2483 C   0  0  0  0  0  0  0  0  0  0  0  0
    0.1428   -1.4472   -0.2073 C   0  0  0  0  0  0  0  0  0  0  0  0
    1.5471   -1.4616   -0.2335 C   0  0  0  0  0  0  0  0  0  0  0  0
    2.2647   -0.2807   -0.3287 C   0  0  0  0  0  0  0  0  0  0  0  0
    3.8072   -0.3768   -0.1882 C   0  0  0  0  0  0  0  0  0  0  0  0
    4.4418   -1.0319    1.4819 S   0  0  0  0  0  0  0  0  0  0  0  0
    3.8354    0.1685    2.9176 C   0  0  0  0  0  0  0  0  0  0  0  0
    4.6208    1.5562    3.0147 C   0  0  0  0  0  0  0  0  0  0  0  0
    4.4412    2.5056    1.9250 N   0  0  0  0  0  0  0  0  0  0  0  0
    3.6459    2.1951    0.8984 C   0  0  0  0  0  0  0  0  0  0  0  0
    3.7959    3.1327   -0.0910 C   0  0  0  0  0  0  0  0  0  0  0  0
    4.3054    4.2236    0.5151 N   0  0  0  0  0  0  0  0  0  0  0  0
    4.5782    3.8489    1.7635 C   0  0  0  0  0  0  0  0  0  0  0  0
    2.2926    0.1354    3.0777 C   0  0  0  0  0  0  0  0  0  0  0  0
    1.4509    1.2657    3.2194 C   0  0  0  0  0  0  0  0  0  0  0  0
    0.0619    1.1556    3.1487 C   0  0  0  0  0  0  0  0  0  0  0  0
   -0.5417   -0.0838    3.1177 C   0  0  0  0  0  0  0  0  0  0  0  0
    0.2367   -1.2303    3.0727 C   0  0  0  0  0  0  0  0  0  0  0  0
    1.6370   -1.1249    3.0497 C   0  0  0  0  0  0  0  0  0  0  0  0
   -2.2544   -0.1687    3.1892 Cl  0  0  0  0  0  0  0  0  0  0  0  0
    1.9233    2.8859    3.5860 Cl  0  0  0  0  0  0  0  0  0  0  0  0
   -2.2986   -0.2493   -0.2251 Cl  0  0  0  0  0  0  0  0  0  0  0  0
  1  2  2  0
  1  6  1  0
  2  3  1  0
  3  4  2  0
  3 24  1  0
  4  5  1  0
  5  6  2  0
  6  7  1  0
  7  8  1  0
  8  9  1  0
  9 10  1  0
  9 16  1  0
 10 11  1  0
 11 12  1  0
 11 15  1  0
 12 13  2  0
 13 14  1  0
 14 15  2  0
 16 17  2  0
 16 21  1  0
 17 18  1  0
 17 23  1  0
 18 19  2  0
 19 20  1  0
 19 22  1  0
 20 21  2  0
M  END
>  <DRUGBANK_ID>  (1) 
DB06820

>  <COMMON_NAME>  (1) 
Sulconazole

>  <CAS_NUMBER>  (1) 
61318-90-9

>  <UNII>  (1) 
5D9HAA5Q5S

>  <SYNONYMS>  (1) 
Sulconazole

$$$$
