1433
     RDKit          3D

 26 27  0  0  1  0  0  0  0  0999 V2000
    1.1680    0.0164    0.0338 O   0  0  0  0  0  0  0  0  0  0  0  0
    2.8136   -1.4899   -0.1934 O   0  0  0  0  0  0  0  0  0  0  0  0
    1.7480    4.5843    0.4703 N   0  0  0  0  0  0  0  0  0  0  0  0
    0.5465    1.9369    1.8717 C   0  0  0  0  0  0  0  0  0  0  0  0
    2.0307    2.3628    1.9700 C   0  0  0  0  0  0  0  0  0  0  0  0
    0.3155    1.2320    0.2884 C   0  0  0  0  0  0  0  0  0  0  0  0
    2.5500    3.3681    0.8053 C   0  0  0  0  0  0  0  0  0  0  0  0
   -0.2426    3.2325    2.4840 C   0  0  0  0  0  0  0  0  0  0  0  0
    0.2969    0.7563    2.8931 C   0  0  0  0  0  0  0  0  0  0  0  0
    0.3665    1.9798   -1.0546 C   0  0  0  0  0  0  0  0  0  0  0  0
    4.0832    3.6191    0.9150 C   0  0  0  0  0  0  0  0  0  0  0  0
   -1.5949    3.1481    2.7793 C   0  0  0  0  0  0  0  0  0  0  0  0
    0.1723   -0.6041    2.5435 C   0  0  0  0  0  0  0  0  0  0  0  0
    0.3496    4.5275    2.7316 C   0  0  0  0  0  0  0  0  0  0  0  0
    0.2557    1.0613    4.2626 C   0  0  0  0  0  0  0  0  0  0  0  0
    0.1128    1.3750   -2.4028 C   0  0  0  0  0  0  0  0  0  0  0  0
    2.3053    5.5783   -0.4065 C   0  0  0  0  0  0  0  0  0  0  0  0
    0.3530    4.4762    0.0155 C   0  0  0  0  0  0  0  0  0  0  0  0
   -2.3199    4.3084    3.0911 C   0  0  0  0  0  0  0  0  0  0  0  0
    0.1517   -1.6070    3.5068 C   0  0  0  0  0  0  0  0  0  0  0  0
   -0.4089    5.7004    2.7901 C   0  0  0  0  0  0  0  0  0  0  0  0
    0.2156    0.0671    5.2272 C   0  0  0  0  0  0  0  0  0  0  0  0
    2.4648   -0.2893   -0.1083 C   0  0  0  0  0  0  0  0  0  0  0  0
   -1.7645    5.5836    2.9572 C   0  0  0  0  0  0  0  0  0  0  0  0
    0.1719   -1.2674    4.8494 C   0  0  0  0  0  0  0  0  0  0  0  0
    3.5203    0.7349   -0.1650 C   0  0  0  0  0  0  0  0  0  0  0  0
  1  6  1  0
  1 23  1  0
  2 23  2  0
  3  7  1  0
  3 17  1  0
  3 18  1  0
  4  5  1  0
  4  6  1  0
  4  8  1  0
  4  9  1  0
  5  7  1  0
  6 10  1  0
  7 11  1  0
  8 12  2  0
  8 14  1  0
  9 13  2  0
  9 15  1  0
 10 16  1  0
 12 19  1  0
 13 20  1  0
 14 21  2  0
 15 22  2  0
 19 24  2  0
 20 25  2  0
 21 24  1  0
 22 25  1  0
 23 26  1  0
M  END
>  <DRUGBANK_ID>  (1) 
DB01433

>  <COMMON_NAME>  (1) 
Methadyl acetate

>  <CAS_NUMBER>  (1) 
509-74-0

>  <UNII>  (1) 
L59OC40KWJ

>  <SYNONYMS>  (1) 
Acetilmetadol; Acetylmethadol; Acetylmethadolum; Methadyl acetate

$$$$
