ESP
     RDKit          3D

 12 13  0  0  0  0  0  0  0  0999 V2000
    0.9833   -0.0750    0.0572 C   0  0  0  0  0  0  0  0  0  0  0  0
    0.2338    0.6903    1.0355 C   0  0  0  0  0  0  0  0  0  0  0  0
    0.3183   -0.7722   -0.8391 N   0  0  0  0  0  0  0  0  0  0  0  0
    2.2944   -0.0467    0.0761 N   0  0  0  0  0  0  0  0  0  0  0  0
   -1.2020    0.1187    1.7675 S   0  0  0  0  0  0  0  0  0  0  0  0
   -1.4522    1.5910    2.5876 C   0  0  0  0  0  0  0  0  0  0  0  0
   -0.4445    2.5169    2.3403 C   0  0  0  0  0  0  0  0  0  0  0  0
    0.5553    1.9639    1.4663 C   0  0  0  0  0  0  0  0  0  0  0  0
   -2.5479    1.7752    3.3485 N   0  0  0  0  0  0  0  0  0  0  0  0
   -2.6442    3.0098    3.8854 C   0  0  0  0  0  0  0  0  0  0  0  0
   -1.7227    4.0291    3.7160 C   0  0  0  0  0  0  0  0  0  0  0  0
   -0.5897    3.7861    2.9399 C   0  0  0  0  0  0  0  0  0  0  0  0
  1  2  1  0
  1  3  1  0
  1  4  2  0
  2  5  1  0
  2  8  2  0
  5  6  1  0
  6  7  2  0
  6  9  1  0
  7  8  1  0
  7 12  1  0
  9 10  2  0
 10 11  1  0
 11 12  2  0
M  CHG  1   4   1
M  END
>  <DRUGBANK_ID>  (1) 
DB03876

>  <SECONDARY_ACCESSION_NUMBERS>  (1) 
EXPT01363

>  <COMMON_NAME>  (1) 
Thieno[2,3-B]Pyridine-2-Carboxamidine

$$$$
