
     RDKit          3D

 35 37  0  0  0  0  0  0  0  0999 V2000
    5.8602    9.5509   -1.0706 S   0  0  0  0  0  0  0  0  0  0  0  0
   11.0442   -0.6299   -1.0734 P   0  0  0  0  0  0  0  0  0  0  0  0
    7.6597    2.7039   -4.4768 O   0  0  0  0  0  0  0  0  0  0  0  0
    9.6051    3.9681   -1.6234 O   0  0  0  0  0  0  0  0  0  0  0  0
    9.2002    1.1399   -1.1292 O   0  0  0  0  0  0  0  0  0  0  0  0
   11.6152    0.1880   -2.4869 O   0  0  0  0  0  0  0  0  0  0  0  0
    6.8460    9.8256   -0.0351 O   0  0  0  0  0  0  0  0  0  0  0  0
    5.6870   10.4721   -2.1844 O   0  0  0  0  0  0  0  0  0  0  0  0
    4.5988    9.0857   -0.5264 O   0  0  0  0  0  0  0  0  0  0  0  0
    8.1065   10.7495   -1.9217 O   0  0  0  0  0  0  0  0  0  0  0  0
   11.4411    8.9386   -4.2158 O   0  0  0  0  0  0  0  0  0  0  0  0
    9.7478   -1.0770   -1.9777 O   0  0  0  0  0  0  0  0  0  0  0  0
   12.0192   -1.8569   -1.5399 O   0  0  0  0  0  0  0  0  0  0  0  0
   10.5331   -1.3619    0.1916 O   0  0  0  0  0  0  0  0  0  0  0  0
    8.0162    5.9950   -3.1978 N   0  0  0  0  0  0  0  0  0  0  0  0
    6.6492    8.2083   -1.8950 N   0  0  0  0  0  0  0  0  0  0  0  0
    9.7248    7.5339   -3.7051 N   0  0  0  0  0  0  0  0  0  0  0  0
    9.7394    9.7796   -3.0713 N   0  0  0  0  0  0  0  0  0  0  0  0
    8.6117    4.9811   -4.1962 C   0  0  0  0  0  0  0  0  0  0  0  0
    8.7518    3.4587   -3.9001 C   0  0  1  0  0  0  0  0  0  0  0  0
    8.9622    3.0238   -2.4600 C   0  0  1  0  0  0  0  0  0  0  0  0
    6.7186    5.8605   -2.6672 C   0  0  0  0  0  0  0  0  0  0  0  0
    6.0482    6.9076   -1.9838 C   0  0  0  0  0  0  0  0  0  0  0  0
    8.5763    7.2794   -3.1574 C   0  0  0  0  0  0  0  0  0  0  0  0
    9.6420    1.6579   -2.4070 C   0  0  1  0  0  0  0  0  0  0  0  0
    7.8185    8.4102   -2.4442 C   0  0  0  0  0  0  0  0  0  0  0  0
    6.0389    4.6434   -2.7619 C   0  0  0  0  0  0  0  0  0  0  0  0
    4.7889    6.5992   -1.4385 C   0  0  0  0  0  0  0  0  0  0  0  0
    4.8267    4.3349   -2.1621 C   0  0  0  0  0  0  0  0  0  0  0  0
    4.1831    5.3422   -1.4966 C   0  0  0  0  0  0  0  0  0  0  0  0
   11.1789    1.5731   -2.4815 C   0  0  0  0  0  0  0  0  0  0  0  0
    8.5431    9.7537   -2.4426 C   0  0  0  0  0  0  0  0  0  0  0  0
    4.2484    2.9569   -2.2715 C   0  0  0  0  0  0  0  0  0  0  0  0
    2.8367    5.1723   -0.8586 C   0  0  0  0  0  0  0  0  0  0  0  0
   10.3475    8.7452   -3.6936 C   0  0  0  0  0  0  0  0  0  0  0  0
  1  7  1  0
  1  8  2  0
  1  9  2  0
  1 16  1  0
  2  6  1  0
  2 12  1  0
  2 13  1  0
  2 14  2  0
  6 31  1  0
 10 32  2  0
 11 35  2  0
 15 19  1  0
 15 22  1  0
 15 24  1  0
 16 23  1  0
 16 26  2  0
 17 24  2  0
 17 35  1  0
 18 32  1  0
 18 35  1  0
 20 19  1  0
 20  3  1  1
 21 20  1  0
 21  4  1  1
 22 23  2  0
 22 27  1  0
 23 28  1  0
 24 26  1  0
 25 31  1  0
 25 21  1  0
 25  5  1  1
 26 32  1  0
 27 29  2  0
 28 30  2  0
 29 30  1  0
 29 33  1  0
 30 34  1  0
M  CHG  2   7  -1  16   1
M  END
>  <DRUGBANK_ID>  (1) 
DB02164

>  <SECONDARY_ACCESSION_NUMBERS>  (1) 
EXPT01464

>  <COMMON_NAME>  (1) 
N-sulfo-flavin mononucleotide

$$$$
