
     RDKit          3D

 11 10  0  0  1  0  0  0  0  0999 V2000
    0.9570    0.1215    0.2460 N   0  0  0  0  0  0  0  0  0  0  0  0
    0.4032    1.3464   -0.3388 C   0  0  1  0  0  0  0  0  0  0  0  0
    0.9410    1.6340   -1.7516 C   0  0  0  0  0  0  0  0  0  0  0  0
    0.4425    0.5459   -3.1361 S   0  0  0  0  0  0  0  0  0  0  0  0
    1.0338   -1.4096   -2.7085 S   0  0  0  0  0  0  0  0  0  0  0  0
    2.6373   -1.2771   -2.5852 O   0  0  0  0  0  0  0  0  0  0  0  0
    0.5340   -1.8240   -1.4231 O   0  0  0  0  0  0  0  0  0  0  0  0
    0.7943   -2.2025   -3.8966 O   0  0  0  0  0  0  0  0  0  0  0  0
   -1.1386    1.3083   -0.3345 C   0  0  0  0  0  0  0  0  0  0  0  0
   -1.7320    2.1590    0.5337 O   0  0  0  0  0  0  0  0  0  0  0  0
   -1.8066    0.5817   -1.0578 O   0  0  0  0  0  0  0  0  0  0  0  0
  2  1  1  6
  2  3  1  0
  2  9  1  0
  3  4  1  0
  4  5  1  0
  5  6  1  0
  5  7  2  0
  5  8  2  0
  9 10  1  0
  9 11  2  0
M  END
>  <DRUGBANK_ID>  (1) 
DB04370

>  <SECONDARY_ACCESSION_NUMBERS>  (1) 
EXPT01039

>  <COMMON_NAME>  (1) 
S-sulphocysteine

>  <CAS_NUMBER>  (1) 
1637-71-4

>  <UNII>  (1) 
885F2S42LL

>  <SYNONYMS>  (1) 
Cysteine-S-sulfate; Cysteine-S-sulfonate; Cysteinyl-S-sulfonate; Cysteinyl-S-sulfonic acid; L-cysteine S-sulfate; S-sulfo-L-cysteine; S-sulfocysteine; S-sulpho-L-cysteine

$$$$
