
     RDKit          3D

 37 42  0  0  0  0  0  0  0  0999 V2000
    2.6357   -0.3285    0.0019 C   0  0  0  0  0  0  0  0  0  0  0  0
    1.1710   -0.0613   -0.0118 C   0  0  0  0  0  0  0  0  0  0  0  0
    0.1835   -1.0265   -0.0267 C   0  0  0  0  0  0  0  0  0  0  0  0
   -1.3888   -0.3600   -0.0950 S   0  0  0  0  0  0  0  0  0  0  0  0
   -0.7822    1.2402   -0.0019 C   0  0  0  0  0  0  0  0  0  0  0  0
    0.5987    1.2510   -0.0147 C   0  0  0  0  0  0  0  0  0  0  0  0
   -1.6918    2.3859    0.0405 C   0  0  0  0  0  0  0  0  0  0  0  0
   -1.5515    3.2068   -1.0145 N   0  0  0  0  0  0  0  0  0  0  0  0
   -2.3025    4.3419   -1.0807 N   0  0  0  0  0  0  0  0  0  0  0  0
   -3.2158    4.6570   -0.1282 C   0  0  0  0  0  0  0  0  0  0  0  0
   -3.8525    5.9267   -0.2066 N   0  0  0  0  0  0  0  0  0  0  0  0
   -3.8665    6.6824   -1.3997 C   0  0  0  0  0  0  0  0  0  0  0  0
   -4.0989    6.0845   -2.6377 C   0  0  0  0  0  0  0  0  0  0  0  0
   -3.9530    6.8193   -3.8068 C   0  0  0  0  0  0  0  0  0  0  0  0
   -3.7325    8.1966   -3.7639 C   0  0  0  0  0  0  0  0  0  0  0  0
   -3.6093    9.0092   -4.8764 O   0  0  0  0  0  0  0  0  0  0  0  0
   -3.7890    8.4519   -6.1341 C   0  0  0  0  0  0  0  0  0  0  0  0
   -2.7057    8.5497   -6.9465 N   0  0  0  0  0  0  0  0  0  0  0  0
   -2.8146    8.0129   -8.1804 C   0  0  0  0  0  0  0  0  0  0  0  0
   -3.9551    7.3822   -8.6467 C   0  0  0  0  0  0  0  0  0  0  0  0
   -5.0654    7.3194   -7.8074 C   0  0  0  0  0  0  0  0  0  0  0  0
   -5.0203    7.8972   -6.5319 C   0  0  0  0  0  0  0  0  0  0  0  0
   -6.1979    7.8895   -5.6548 C   0  0  0  0  0  0  0  0  0  0  0  0
   -6.6821    6.6741   -5.3118 N   0  0  0  0  0  0  0  0  0  0  0  0
   -7.6231    6.6416   -4.3588 C   0  0  0  0  0  0  0  0  0  0  0  0
   -8.0715    5.4298   -3.9364 N   0  0  0  0  0  0  0  0  0  0  0  0
   -8.1501    7.7267   -3.7788 N   0  0  0  0  0  0  0  0  0  0  0  0
   -7.6734    8.9161   -4.1766 C   0  0  0  0  0  0  0  0  0  0  0  0
   -6.6845    9.0615   -5.1140 C   0  0  0  0  0  0  0  0  0  0  0  0
   -3.6341    8.8241   -2.5182 C   0  0  0  0  0  0  0  0  0  0  0  0
   -3.6769    8.0641   -1.3427 C   0  0  0  0  0  0  0  0  0  0  0  0
   -3.3854    3.8253    0.9966 C   0  0  0  0  0  0  0  0  0  0  0  0
   -2.5768    2.6646    1.0942 C   0  0  0  0  0  0  0  0  0  0  0  0
   -2.6683    1.8694    2.2596 C   0  0  0  0  0  0  0  0  0  0  0  0
   -3.5506    2.1776    3.2894 C   0  0  0  0  0  0  0  0  0  0  0  0
   -4.3772    3.2833    3.1764 C   0  0  0  0  0  0  0  0  0  0  0  0
   -4.2995    4.0944    2.0453 C   0  0  0  0  0  0  0  0  0  0  0  0
  1  2  1  0
  2  3  2  0
  2  6  1  0
  3  4  1  0
  4  5  1  0
  5  6  2  0
  5  7  1  0
  7  8  2  0
  7 33  1  0
  8  9  1  0
  9 10  2  0
 10 11  1  0
 10 32  1  0
 11 12  1  0
 12 13  2  0
 12 31  1  0
 13 14  1  0
 14 15  2  0
 15 16  1  0
 15 30  1  0
 16 17  1  0
 17 18  2  0
 17 22  1  0
 18 19  1  0
 19 20  2  0
 20 21  1  0
 21 22  2  0
 22 23  1  0
 23 24  2  0
 23 29  1  0
 24 25  1  0
 25 26  1  0
 25 27  2  0
 27 28  1  0
 28 29  2  0
 30 31  2  0
 32 33  2  0
 32 37  1  0
 33 34  1  0
 34 35  2  0
 35 36  1  0
 36 37  2  0
M  END
>  <DRUGBANK_ID>  (1) 
DB17197

>  <COMMON_NAME>  (1) 
AMG-900

>  <CAS_NUMBER>  (1) 
945595-80-2

>  <UNII>  (1) 
9R2G075611

>  <SYNONYMS>  (1) 
1-phthalazinamine, n-(4-((3-(2-amino-4-pyrimidinyl)-2-pyridinyl)oxy)phenyl)-4-(4-methyl-2-thienyl)-

$$$$
