
     RDKit          3D

 12 11  0  0  0  0  0  0  0  0999 V2000
    1.0657   -0.0771    0.1527 C   0  0  0  0  0  0  0  0  0  0  0  0
    0.5238   -0.7794   -1.1024 C   0  0  0  0  0  0  0  0  0  0  0  0
    1.0071   -2.2154   -1.1336 C   0  0  0  0  0  0  0  0  0  0  0  0
   -0.9991   -0.6301   -1.1930 C   0  0  0  0  0  0  0  0  0  0  0  0
   -1.4239    0.8444   -1.2927 C   0  0  0  0  0  0  0  0  0  0  0  0
   -0.8831    1.4664   -2.4877 O   0  0  0  0  0  0  0  0  0  0  0  0
    0.4097    1.8936   -2.5080 C   0  0  0  0  0  0  0  0  0  0  0  0
    1.2040    1.9278   -1.5772 O   0  0  0  0  0  0  0  0  0  0  0  0
    0.8653    2.3161   -3.8250 C   0  0  0  0  0  0  0  0  0  0  0  0
   -0.0022    2.7942   -4.7355 C   0  0  0  0  0  0  0  0  0  0  0  0
    2.3597    2.4547   -4.0657 C   0  0  0  0  0  0  0  0  0  0  0  0
    3.5994    2.5698   -4.2654 N   0  0  0  0  0  0  0  0  0  0  0  0
  1  2  1  0
  2  3  1  0
  2  4  1  0
  4  5  1  0
  5  6  1  0
  6  7  1  0
  7  8  2  0
  7  9  1  0
  9 10  2  0
  9 11  1  0
 11 12  3  0
M  END
>  <DRUGBANK_ID>  (1) 
DB12630

>  <COMMON_NAME>  (1) 
Isopentyl 2-cyanoacrylate

>  <CAS_NUMBER>  (1) 
19475-26-4

>  <UNII>  (1) 
3977IRA64J

$$$$
