
     RDKit          3D

 35 36  0  0  1  0  0  0  0  0999 V2000
   -2.6266   -4.0469   -0.1116 C   0  0  0  0  0  0  0  0  0  0  0  0
   -2.2439   -3.7010    1.3197 C   0  0  0  0  0  0  0  0  0  0  0  0
   -1.6366   -4.9011    2.0299 C   0  0  0  0  0  0  0  0  0  0  0  0
   -1.2767   -2.5390    1.3580 C   0  0  0  0  0  0  0  0  0  0  0  0
   -1.6837   -1.1852    0.7302 C   0  0  2  0  0  0  0  0  0  0  0  0
   -0.9929   -0.0561    1.3652 N   0  0  0  0  0  0  0  0  0  0  0  0
    0.2570    0.0178    1.9561 C   0  0  0  0  0  0  0  0  0  0  0  0
    0.5488    0.9773    2.6371 O   0  0  0  0  0  0  0  0  0  0  0  0
    1.2424   -1.0955    1.7977 C   0  0  0  0  0  0  0  0  0  0  0  0
    1.4737   -1.6806    0.5451 C   0  0  0  0  0  0  0  0  0  0  0  0
    2.2831   -2.8159    0.4277 C   0  0  0  0  0  0  0  0  0  0  0  0
    2.9730   -3.2861    1.5497 C   0  0  0  0  0  0  0  0  0  0  0  0
    2.8297   -2.6459    2.7894 C   0  0  0  0  0  0  0  0  0  0  0  0
    1.9156   -1.5900    2.9251 C   0  0  0  0  0  0  0  0  0  0  0  0
    3.8172   -4.4836    1.4334 N   0  0  0  0  0  0  0  0  0  0  0  0
    4.4425   -4.8471    2.4389 O   0  0  0  0  0  0  0  0  0  0  0  0
    3.8378   -5.0693    0.3413 O   0  0  0  0  0  0  0  0  0  0  0  0
   -3.2329   -1.0500    0.7237 C   0  0  0  0  0  0  0  0  0  0  0  0
   -3.8433   -1.1505   -0.3413 O   0  0  0  0  0  0  0  0  0  0  0  0
   -3.8635   -1.1145    1.9473 N   0  0  0  0  0  0  0  0  0  0  0  0
   -3.4879   -0.4116    3.1459 C   0  0  0  0  0  0  0  0  0  0  0  0
   -3.8523   -1.3656    4.2503 C   0  0  0  0  0  0  0  0  0  0  0  0
   -5.1380   -1.9764    3.7402 C   0  0  0  0  0  0  0  0  0  0  0  0
   -5.0580   -1.9256    2.1893 C   0  0  1  0  0  0  0  0  0  0  0  0
   -6.3159   -1.3458    1.5224 C   0  0  0  0  0  0  0  0  0  0  0  0
   -6.3243   -0.4489    0.6824 O   0  0  0  0  0  0  0  0  0  0  0  0
   -7.5080   -1.9066    1.8375 N   0  0  0  0  0  0  0  0  0  0  0  0
   -7.7385   -2.9652    2.7547 C   0  0  0  0  0  0  0  0  0  0  0  0
   -8.6026   -2.4952    3.9329 C   0  0  0  0  0  0  0  0  0  0  0  0
  -10.0605   -2.3752    3.5067 C   0  0  0  0  0  0  0  0  0  0  0  0
  -10.6369   -3.6968    2.9613 C   0  0  0  0  0  0  0  0  0  0  0  0
  -10.7455   -4.7095    4.0217 N   0  0  0  0  0  0  0  0  0  0  0  0
   -9.7928   -5.4196    4.4850 C   0  0  0  0  0  0  0  0  0  0  0  0
   -8.5091   -5.4990    4.0888 N   0  0  0  0  0  0  0  0  0  0  0  0
   -9.9126   -6.2227    5.5545 N   0  0  0  0  0  0  0  0  0  0  0  0
  1  2  1  0
  2  3  1  0
  2  4  1  0
  5 18  1  0
  5  6  1  0
  5  4  1  1
  6  7  1  0
  7  8  2  0
  7  9  1  0
  9 10  2  0
  9 14  1  0
 10 11  1  0
 11 12  2  0
 12 13  1  0
 12 15  1  0
 13 14  2  0
 15 16  1  0
 15 17  2  0
 18 19  2  0
 18 20  1  0
 20 21  1  0
 20 24  1  0
 21 22  1  0
 22 23  1  0
 23 24  1  0
 24 25  1  6
 25 26  2  0
 25 27  1  0
 27 28  1  0
 28 29  1  0
 29 30  1  0
 30 31  1  0
 31 32  1  0
 32 33  2  3
 33 34  1  0
 33 35  1  0
M  CHG  2  15   1  16  -1
M  END
>  <DRUGBANK_ID>  (1) 
DB04771

>  <COMMON_NAME>  (1) 
1-GUANIDINO-4-(N-NITRO-BENZOYLAMINO-L-LEUCYL-L-PROLYLAMINO)BUTANE

$$$$
