
     RDKit          3D

 17 17  0  0  0  0  0  0  0  0999 V2000
    0.4310    3.5826    3.1780 C   0  0  0  0  0  0  0  0  0  0  0  0
    0.7074   -0.8747   -0.3868 O   0  0  0  0  0  0  0  0  0  0  0  0
   -0.3133   -0.1861   -0.4260 C   0  0  0  0  0  0  0  0  0  0  0  0
   -1.5127   -0.6334   -0.9182 O   0  0  0  0  0  0  0  0  0  0  0  0
   -1.5626   -2.0455   -1.3979 C   0  0  0  0  0  0  0  0  0  0  0  0
   -3.0010   -2.3951   -1.8505 C   0  0  0  0  0  0  0  0  0  0  0  0
   -1.2033   -3.0638   -0.2928 C   0  0  0  0  0  0  0  0  0  0  0  0
   -0.6541   -2.2598   -2.6247 C   0  0  0  0  0  0  0  0  0  0  0  0
   -0.1738    1.0715    0.0871 N   0  0  0  0  0  0  0  0  0  0  0  0
   -0.8268    2.4042    0.0170 C   0  0  2  0  0  0  0  0  0  0  0  0
   -0.3197    3.1713   -1.2553 C   0  0  0  0  0  0  0  0  0  0  0  0
   -0.7527    4.6478   -1.3440 C   0  0  0  0  0  0  0  0  0  0  0  0
   -0.8010    2.4787   -2.5316 C   0  0  0  0  0  0  0  0  0  0  0  0
   -0.4374    3.1953    1.2716 C   0  0  0  0  0  0  0  0  0  0  0  0
    0.2316    2.5582    2.2972 O   0  0  0  0  0  0  0  0  0  0  0  0
   -0.0195    4.7354    2.7504 N   0  0  0  0  0  0  0  0  0  0  0  0
   -0.6121    4.4780    1.5370 N   0  0  0  0  0  0  0  0  0  0  0  0
  1 16  2  0
  1 15  1  0
  3  2  2  0
  3  4  1  0
  3  9  1  0
  5  4  1  0
  5  8  1  0
  5  7  1  0
  5  6  1  0
 10 14  1  0
 10  9  1  1
 11 10  1  0
 11 13  1  0
 11 12  1  0
 14 17  2  0
 14 15  1  0
 17 16  1  0
M  END
>  <DRUGBANK_ID>  (1) 
DB08336

>  <COMMON_NAME>  (1) 
2-Methyl-2-propanyl [(1R)-2-methyl-1-(1,3,4-oxadiazol-2-yl)propyl]carbamate

$$$$
