
     RDKit          3D

 30 33  0  0  0  0  0  0  0  0999 V2000
   -1.7863   -1.2653    0.0203 C   0  0  2  0  0  0  0  0  0  0  0  0
   -1.9267    0.2658   -0.0143 C   0  0  0  0  0  0  0  0  0  0  0  0
   -0.3926   -1.0094    0.5568 C   0  0  2  0  0  0  0  0  0  0  0  0
   -0.7516    0.4262    0.6776 N   0  0  0  0  0  0  0  0  0  0  0  0
    0.2400    1.3967    0.2029 C   0  0  2  0  0  0  0  0  0  0  0  0
    1.5603    0.6004    0.0127 C   0  0  0  0  0  0  0  0  0  0  0  0
    0.9918   -1.0386   -0.5959 S   0  0  0  0  0  0  0  0  0  0  0  0
    2.4468    1.1344   -1.1006 C   0  0  0  0  0  0  0  0  0  0  0  0
    2.3652    0.3653    1.3000 C   0  0  0  0  0  0  0  0  0  0  0  0
    0.3616    2.5957    1.1635 C   0  0  0  0  0  0  0  0  0  0  0  0
   -0.4859    3.6220    0.9233 O   0  0  0  0  0  0  0  0  0  0  0  0
    1.1150    2.6506    2.1248 O   0  0  0  0  0  0  0  0  0  0  0  0
   -1.9855   -2.0507   -1.2167 N   0  0  0  0  0  0  0  0  0  0  0  0
   -2.2282   -3.4077   -1.3119 C   0  0  0  0  0  0  0  0  0  0  0  0
   -2.1857   -3.9427   -2.4173 O   0  0  0  0  0  0  0  0  0  0  0  0
   -2.6668    1.0799   -0.5034 O   0  0  0  0  0  0  0  0  0  0  0  0
   -3.2199   -4.8999    1.8741 O   0  0  0  0  0  0  0  0  0  0  0  0
   -2.3657   -5.8772    1.4181 N   0  0  0  0  0  0  0  0  0  0  0  0
   -1.9412   -5.4746    0.2109 C   0  0  0  0  0  0  0  0  0  0  0  0
   -2.4750   -4.1801   -0.1071 C   0  0  0  0  0  0  0  0  0  0  0  0
   -3.3082   -3.8989    0.9614 C   0  0  0  0  0  0  0  0  0  0  0  0
   -1.0089   -6.2883   -0.5724 C   0  0  0  0  0  0  0  0  0  0  0  0
   -1.3658   -7.5554   -1.0623 C   0  0  0  0  0  0  0  0  0  0  0  0
   -0.4772   -8.2878   -1.8652 C   0  0  0  0  0  0  0  0  0  0  0  0
    0.7723   -7.7699   -2.1980 C   0  0  0  0  0  0  0  0  0  0  0  0
    1.1472   -6.5270   -1.7085 C   0  0  0  0  0  0  0  0  0  0  0  0
    0.2748   -5.8078   -0.8855 C   0  0  0  0  0  0  0  0  0  0  0  0
    0.8982   -4.3476   -0.2235 Cl  0  0  0  0  0  0  0  0  0  0  0  0
   -2.9029   -8.2850   -0.7405 Cl  0  0  0  0  0  0  0  0  0  0  0  0
   -4.2200   -2.7927    1.3397 C   0  0  0  0  0  0  0  0  0  0  0  0
  1  2  1  0
  1 13  1  6
  2 16  2  0
  2  4  1  0
  3  1  1  0
  3  4  1  0
  3  7  1  6
  4  5  1  0
  5  6  1  0
  5 10  1  1
  6  7  1  0
  6  8  1  0
  6  9  1  0
 10 11  1  0
 10 12  2  0
 13 14  1  0
 14 15  2  0
 14 20  1  0
 17 18  1  0
 17 21  1  0
 18 19  2  0
 19 20  1  0
 19 22  1  0
 20 21  2  0
 21 30  1  0
 22 23  2  0
 22 27  1  0
 23 24  1  0
 23 29  1  0
 24 25  2  0
 25 26  1  0
 26 27  2  0
 27 28  1  0
M  END
>  <DRUGBANK_ID>  (1) 
DB00485

>  <SECONDARY_ACCESSION_NUMBERS>  (1) 
APRD00916

>  <COMMON_NAME>  (1) 
Dicloxacillin

>  <CAS_NUMBER>  (1) 
3116-76-5

>  <UNII>  (1) 
COF19H7WBK

>  <SYNONYMS>  (1) 
(2S,5R,6R)-6-({[3-(2,6-dichlorophenyl)-5-methyl-1,2-oxazol-4-yl]carbonyl}amino)-3,3-dimethyl-7-oxo-4-thia-1-azabicyclo[3.2.0]heptane-2-carboxylic acid; Dicloxacilina; Dicloxacillin; Dicloxacillina; Dicloxacilline; Dicloxacillinum

$$$$
