
     RDKit          3D

 16 17  0  0  0  0  0  0  0  0999 V2000
    0.5567   -0.6920    0.0569 C   0  0  0  0  0  0  0  0  0  0  0  0
    0.5703    0.7140    0.1238 C   0  0  0  0  0  0  0  0  0  0  0  0
   -0.8782   -1.0776   -0.0383 C   0  0  0  0  0  0  0  0  0  0  0  0
    1.7428   -1.4073    0.0138 C   0  0  0  0  0  0  0  0  0  0  0  0
   -0.7295    1.2228    0.1291 N   0  0  0  0  0  0  0  0  0  0  0  0
    1.7399    1.4457    0.0671 C   0  0  0  0  0  0  0  0  0  0  0  0
   -1.5617    0.2430   -0.3440 C   0  0  0  0  0  0  0  0  0  0  0  0
   -1.3947   -2.2600    0.1249 N   0  0  0  0  0  0  0  0  0  0  0  0
    2.9419   -0.6677   -0.0101 C   0  0  0  0  0  0  0  0  0  0  0  0
   -1.1428    2.5894    0.0849 C   0  0  0  0  0  0  0  0  0  0  0  0
    2.9378    0.7423   -0.0035 C   0  0  0  0  0  0  0  0  0  0  0  0
   -2.5183    0.4153   -1.0852 O   0  0  0  0  0  0  0  0  0  0  0  0
   -2.7580   -2.5390    0.0338 N   0  0  0  0  0  0  0  0  0  0  0  0
   -3.9042   -1.7936    0.2733 C   0  0  0  0  0  0  0  0  0  0  0  0
   -5.0476   -2.3419   -0.2386 N   0  0  0  0  0  0  0  0  0  0  0  0
   -4.2204   -0.3753    1.0915 S   0  0  0  0  0  0  0  0  0  0  0  0
  1  3  1  0
  1  4  2  0
  1  2  1  0
  2  5  1  0
  2  6  2  0
  3  7  1  0
  3  8  2  0
  4  9  1  0
  5 10  1  0
  5  7  1  0
  6 11  1  0
  7 12  2  0
  8 13  1  0
  9 11  2  0
 13 14  1  0
 14 15  1  0
 14 16  2  0
M  END
>  <DRUGBANK_ID>  (1) 
DB13641

>  <COMMON_NAME>  (1) 
Metisazone

>  <CAS_NUMBER>  (1) 
1910-68-5

>  <UNII>  (1) 
K3QML4J07E

>  <SYNONYMS>  (1) 
Methisazone; Metisazona; Metisazone; Metisazonum

$$$$
