648
     RDKit          3D

 18 19  0  0  1  0  0  0  0  0999 V2000
    0.7553    0.2866   -0.1800 Cl  0  0  0  0  0  0  0  0  0  0  0  0
    2.9041   -0.5943   -1.8613 Cl  0  0  0  0  0  0  0  0  0  0  0  0
    5.1588   -1.3696    0.4293 Cl  0  0  0  0  0  0  0  0  0  0  0  0
    1.8920    4.6075    4.9783 Cl  0  0  0  0  0  0  0  0  0  0  0  0
    3.3260    1.4598   -0.0185 C   0  0  0  0  0  0  0  0  0  0  0  0
    2.8392    2.2504    1.2217 C   0  0  0  0  0  0  0  0  0  0  0  0
    4.8872    1.3834   -0.0300 C   0  0  0  0  0  0  0  0  0  0  0  0
    2.5500    0.1200   -0.2476 C   0  0  0  0  0  0  0  0  0  0  0  0
    2.9003    3.6640    1.2319 C   0  0  0  0  0  0  0  0  0  0  0  0
    2.3797    1.6128    2.3787 C   0  0  0  0  0  0  0  0  0  0  0  0
    5.6958    0.2318    0.0637 C   0  0  0  0  0  0  0  0  0  0  0  0
    5.5916    2.6146   -0.1436 C   0  0  0  0  0  0  0  0  0  0  0  0
    2.6351    4.3878    2.3979 C   0  0  0  0  0  0  0  0  0  0  0  0
    2.0391    2.3424    3.5217 C   0  0  0  0  0  0  0  0  0  0  0  0
    7.0953    0.3141   -0.0549 C   0  0  0  0  0  0  0  0  0  0  0  0
    6.9884    2.6955   -0.1421 C   0  0  0  0  0  0  0  0  0  0  0  0
    2.2085    3.7269    3.5362 C   0  0  0  0  0  0  0  0  0  0  0  0
    7.7415    1.5404   -0.1328 C   0  0  0  0  0  0  0  0  0  0  0  0
  1  8  1  0
  2  8  1  0
  3 11  1  0
  4 17  1  0
  5  6  1  0
  5  7  1  0
  5  8  1  0
  6  9  2  0
  6 10  1  0
  7 11  2  0
  7 12  1  0
  9 13  1  0
 10 14  2  0
 11 15  1  0
 12 16  2  0
 13 17  2  0
 14 17  1  0
 15 18  2  0
 16 18  1  0
M  END
>  <DRUGBANK_ID>  (1) 
DB00648

>  <SECONDARY_ACCESSION_NUMBERS>  (1) 
APRD00494

>  <COMMON_NAME>  (1) 
Mitotane

>  <CAS_NUMBER>  (1) 
53-19-0

>  <UNII>  (1) 
78E4J5IB5J

>  <SYNONYMS>  (1) 
1-chloro-2-[2,2-dichloro-1-(4-chlorophenyl)ethyl]-benzene; Mitotan; Mitotane; Mitotano; Mitotanum; o,p'-DDD

$$$$
