
     RDKit          3D

 28 29  0  0  1  0  0  0  0  0999 V2000
   -7.0597   -0.6073  -12.3490 C   0  0  0  0  0  0  0  0  0  0  0  0
   -6.5471   -0.4405  -10.9185 C   0  0  0  0  0  0  0  0  0  0  0  0
   -6.8133   -1.6142  -10.0852 N   0  0  0  0  0  0  0  0  0  0  0  0
   -5.7878   -2.4473   -9.6487 C   0  0  0  0  0  0  0  0  0  0  0  0
   -4.7116   -2.0177   -8.8564 C   0  0  0  0  0  0  0  0  0  0  0  0
   -3.7558   -2.9570   -8.3286 C   0  0  0  0  0  0  0  0  0  0  0  0
   -3.4604   -4.0900   -9.0696 C   0  0  0  0  0  0  0  0  0  0  0  0
   -4.6511   -4.5980   -9.6709 C   0  0  0  0  0  0  0  0  0  0  0  0
   -5.8011   -3.8054   -9.9283 C   0  0  0  0  0  0  0  0  0  0  0  0
   -4.9308   -5.9486   -9.6917 O   0  0  0  0  0  0  0  0  0  0  0  0
   -2.3007   -4.9615   -8.5350 C   0  0  0  0  0  0  0  0  0  0  0  0
   -2.2225   -6.1532   -8.8714 O   0  0  0  0  0  0  0  0  0  0  0  0
   -1.5292   -4.3782   -7.5445 O   0  0  0  0  0  0  0  0  0  0  0  0
   -0.6454   -5.1788   -6.6724 C   0  0  2  0  0  0  0  0  0  0  0  0
   -1.4650   -6.1367   -5.5125 C   0  0  1  0  0  0  0  0  0  0  0  0
   -2.5004   -6.9845   -6.2333 C   0  0  0  0  0  0  0  0  0  0  0  0
   -2.3879   -8.3402   -6.2347 C   0  0  0  0  0  0  0  0  0  0  0  0
   -3.4389   -9.1419   -6.8849 C   0  0  0  0  0  0  0  0  0  0  0  0
   -3.3086  -10.3675   -6.9066 O   0  0  0  0  0  0  0  0  0  0  0  0
   -4.5871   -8.3848   -7.5558 C   0  0  2  0  0  0  0  0  0  0  0  0
   -5.4104   -7.4034   -6.6021 C   0  0  2  0  0  0  0  0  0  0  0  0
   -4.8609   -5.9903   -5.7651 C   0  0  0  0  0  0  0  0  0  0  0  0
   -4.4145   -4.7081   -6.5816 C   0  0  0  0  0  0  0  0  0  0  0  0
   -3.9088   -3.4323   -6.8105 C   0  0  0  0  0  0  0  0  0  0  0  0
   -5.9117   -8.2980   -5.5729 O   0  0  0  0  0  0  0  0  0  0  0  0
   -5.4907   -9.3357   -8.1866 O   0  0  0  0  0  0  0  0  0  0  0  0
   -0.3033   -7.0640   -4.7512 C   0  0  0  0  0  0  0  0  0  0  0  0
    0.3116   -4.2654   -5.8965 C   0  0  0  0  0  0  0  0  0  0  0  0
  1  2  1  0
  2  3  1  0
  3  4  1  0
  4  5  2  0
  4  9  1  0
  5  6  1  0
  6  7  2  0
  6 24  1  0
  7  8  1  0
  7 11  1  0
  8  9  2  0
  8 10  1  0
 11 12  2  0
 11 13  1  0
 13 14  1  0
 14 15  1  0
 14 28  1  1
 15 16  1  0
 15 27  1  6
 16 17  2  0
 17 18  1  0
 18 19  2  0
 18 20  1  0
 20 21  1  0
 20 26  1  1
 21 22  1  0
 21 25  1  1
 22 23  1  0
 23 24  2  0
M  END
>  <DRUGBANK_ID>  (1) 
DB11687

>  <COMMON_NAME>  (1) 
E-6201

>  <CAS_NUMBER>  (1) 
603987-35-5

>  <UNII>  (1) 
CZP9GB25HO

$$$$
