400
     RDKit          3D

 24 26  0  0  1  0  0  0  0  0999 V2000
   -3.3021    1.8871    0.0843 Cl  0  0  0  0  0  0  0  0  0  0  0  0
   -0.4237    0.9865    0.1115 O   0  0  0  0  0  0  0  0  0  0  0  0
    0.8029    0.6895    2.5450 O   0  0  0  0  0  0  0  0  0  0  0  0
    1.4252   -2.0040    0.0438 O   0  0  0  0  0  0  0  0  0  0  0  0
    5.0056    0.4491    0.3613 O   0  0  0  0  0  0  0  0  0  0  0  0
   -1.4481   -3.7403    0.0822 O   0  0  0  0  0  0  0  0  0  0  0  0
   -4.9797   -0.5229    0.1064 O   0  0  0  0  0  0  0  0  0  0  0  0
    0.8596    0.3285    0.1209 C   0  0  2  0  0  0  0  0  0  0  0  0
    1.6659    0.7458   -1.1304 C   0  0  1  0  0  0  0  0  0  0  0  0
    3.1098    0.2317   -1.0863 C   0  0  0  0  0  0  0  0  0  0  0  0
    0.5584   -1.1447    0.0964 C   0  0  0  0  0  0  0  0  0  0  0  0
    1.6139    0.5866    1.4227 C   0  0  0  0  0  0  0  0  0  0  0  0
    1.0189    0.3061   -2.4533 C   0  0  0  0  0  0  0  0  0  0  0  0
   -0.8865   -1.3113    0.1055 C   0  0  0  0  0  0  0  0  0  0  0  0
   -1.3786   -0.0104    0.1106 C   0  0  0  0  0  0  0  0  0  0  0  0
    3.7821    0.4628    0.2428 C   0  0  0  0  0  0  0  0  0  0  0  0
    2.9566    0.6572    1.4529 C   0  0  0  0  0  0  0  0  0  0  0  0
   -1.7407   -2.4052    0.0982 C   0  0  0  0  0  0  0  0  0  0  0  0
   -2.7448    0.2504    0.1047 C   0  0  0  0  0  0  0  0  0  0  0  0
   -3.1270   -2.1415    0.1086 C   0  0  0  0  0  0  0  0  0  0  0  0
   -3.6417   -0.8296    0.1075 C   0  0  0  0  0  0  0  0  0  0  0  0
    1.4523    0.9384    3.7911 C   0  0  0  0  0  0  0  0  0  0  0  0
   -0.0775   -4.1120    0.0553 C   0  0  0  0  0  0  0  0  0  0  0  0
   -5.9096   -1.5997    0.1116 C   0  0  0  0  0  0  0  0  0  0  0  0
  1 19  1  0
  2 15  1  0
  3 12  1  0
  3 22  1  0
  4 11  2  0
  5 16  2  0
  6 18  1  0
  6 23  1  0
  7 21  1  0
  7 24  1  0
  8  2  1  1
  8  9  1  0
  8 11  1  0
  8 12  1  0
  9 10  1  0
  9 13  1  6
 10 16  1  0
 11 14  1  0
 12 17  2  0
 14 15  2  0
 14 18  1  0
 15 19  1  0
 16 17  1  0
 18 20  2  0
 19 21  2  0
 20 21  1  0
M  END
>  <DRUGBANK_ID>  (1) 
DB00400

>  <SECONDARY_ACCESSION_NUMBERS>  (1) 
APRD01004

>  <COMMON_NAME>  (1) 
Griseofulvin

>  <CAS_NUMBER>  (1) 
126-07-8

>  <UNII>  (1) 
32HRV3E3D5

>  <SYNONYMS>  (1) 
(+)-griseofulvin; Amudane; Griseofulvin; Griseofulvin, microcrystalline; Griseofulvin, ultramicrosize; Griseofulvina; Gris√©ofulvine; Griseofulvinum

$$$$
