656
     RDKit          3D

 26 29  0  0  0  0  0  0  0  0999 V2000
   -2.1887   -0.1192   -0.0225 Cl  0  0  0  0  0  0  0  0  0  0  0  0
    6.6609    4.9730   -1.7129 O   0  0  0  0  0  0  0  0  0  0  0  0
    3.4404    4.9662   -0.6881 N   0  0  0  0  0  0  0  0  0  0  0  0
    1.9272    2.5276   -0.1930 N   0  0  0  0  0  0  0  0  0  0  0  0
    6.6596    2.6899   -0.9329 N   0  0  0  0  0  0  0  0  0  0  0  0
    7.7496    3.3144   -2.6954 N   0  0  0  0  0  0  0  0  0  0  0  0
    7.0043    1.5205   -1.6041 N   0  0  0  0  0  0  0  0  0  0  0  0
    2.2583    4.9253    0.1776 C   0  0  0  0  0  0  0  0  0  0  0  0
    3.3141    3.9041   -1.7239 C   0  0  0  0  0  0  0  0  0  0  0  0
    2.0579    3.5557    0.8648 C   0  0  0  0  0  0  0  0  0  0  0  0
    2.9637    2.4888   -1.1853 C   0  0  0  0  0  0  0  0  0  0  0  0
    4.6715    5.0752    0.1261 C   0  0  0  0  0  0  0  0  0  0  0  0
    5.3418    3.8875    0.8819 C   0  0  0  0  0  0  0  0  0  0  0  0
    5.6258    2.6885    0.0149 C   0  0  0  0  0  0  0  0  0  0  0  0
    1.5057    1.2383    0.1143 C   0  0  0  0  0  0  0  0  0  0  0  0
    0.1308    1.1446    0.1130 C   0  0  0  0  0  0  0  0  0  0  0  0
    2.2900    0.0550    0.1086 C   0  0  0  0  0  0  0  0  0  0  0  0
    6.9564    3.7774   -1.7461 C   0  0  0  0  0  0  0  0  0  0  0  0
    7.7450    1.9744   -2.5628 C   0  0  0  0  0  0  0  0  0  0  0  0
   -0.4783   -0.0858    0.0531 C   0  0  0  0  0  0  0  0  0  0  0  0
    1.6715   -1.1938    0.0521 C   0  0  0  0  0  0  0  0  0  0  0  0
    0.2795   -1.2553    0.0163 C   0  0  0  0  0  0  0  0  0  0  0  0
    8.5580    4.0903   -3.4453 C   0  0  0  0  0  0  0  0  0  0  0  0
    8.6526    1.2529   -3.4472 C   0  0  0  0  0  0  0  0  0  0  0  0
    9.4745    3.4673   -4.1737 C   0  0  0  0  0  0  0  0  0  0  0  0
    9.5024    2.0098   -4.1692 C   0  0  0  0  0  0  0  0  0  0  0  0
  1 20  1  0
  2 18  2  0
  3  8  1  0
  3  9  1  0
  3 12  1  0
  4 10  1  0
  4 11  1  0
  4 15  1  0
  5  7  1  0
  5 14  1  0
  5 18  1  0
  6 18  1  0
  6 19  1  0
  6 23  1  0
  7 19  2  0
  8 10  1  0
  9 11  1  0
 12 13  1  0
 13 14  1  0
 15 16  2  0
 15 17  1  0
 16 20  1  0
 17 21  2  0
 19 24  1  0
 20 22  2  0
 21 22  1  0
 23 25  2  0
 24 26  2  0
 25 26  1  0
M  END
>  <DRUGBANK_ID>  (1) 
DB00656

>  <SECONDARY_ACCESSION_NUMBERS>  (1) 
APRD00533

>  <COMMON_NAME>  (1) 
Trazodone

>  <CAS_NUMBER>  (1) 
19794-93-5

>  <UNII>  (1) 
YBK48BXK30

>  <SYNONYMS>  (1) 
2-(3-[4-(3-chlorophenyl)-1-piperazinyl]propyl)[1,2,4]triazolo[4,3-a]pyridin-3(2H)-one; Trazodona; Trazodone; Trazodonum

$$$$
