PU9
     RDKit          3D

 29 31  0  0  0  0  0  0  0  0999 V2000
   -2.4964    0.1527   -0.3196 Cl  0  0  0  0  0  0  0  0  0  0  0  0
   -0.8739    0.6224    0.0716 C   0  0  0  0  0  0  0  0  0  0  0  0
   -0.0117    1.7503   -0.1954 C   0  0  0  0  0  0  0  0  0  0  0  0
   -0.6295    2.9690   -0.3720 O   0  0  0  0  0  0  0  0  0  0  0  0
   -2.0129    2.8817   -0.1288 C   0  0  0  0  0  0  0  0  0  0  0  0
    1.5580    1.9115   -0.0412 C   0  0  0  0  0  0  0  0  0  0  0  0
    2.3622    2.9309   -0.4490 O   0  0  0  0  0  0  0  0  0  0  0  0
    1.6920    4.1016   -0.1160 C   0  0  0  0  0  0  0  0  0  0  0  0
    2.3020    1.1284    0.7405 C   0  0  0  0  0  0  0  0  0  0  0  0
    3.5619    0.5728    0.4119 O   0  0  0  0  0  0  0  0  0  0  0  0
    4.6441    1.4735    0.1211 C   0  0  0  0  0  0  0  0  0  0  0  0
    1.3416    0.4450    1.4833 C   0  0  0  0  0  0  0  0  0  0  0  0
   -0.3006   -0.1993    0.9279 C   0  0  0  0  0  0  0  0  0  0  0  0
   -0.7880   -2.0147    0.3121 C   0  0  0  0  0  0  0  0  0  0  0  0
   -0.2305   -3.1153   -1.1404 C   0  0  0  0  0  0  0  0  0  0  0  0
   -1.0419   -3.6637   -2.0710 N   0  0  0  0  0  0  0  0  0  0  0  0
   -0.2694   -4.4798   -2.9739 C   0  0  0  0  0  0  0  0  0  0  0  0
   -0.5748   -5.2813   -4.1149 C   0  0  0  0  0  0  0  0  0  0  0  0
   -1.8501   -5.4479   -4.6032 N   0  0  0  0  0  0  0  0  0  0  0  0
    1.0584   -4.4552   -2.6159 C   0  0  0  0  0  0  0  0  0  0  0  0
    2.0917   -5.0808   -3.2522 N   0  0  0  0  0  0  0  0  0  0  0  0
    1.6821   -5.7968   -4.3247 C   0  0  0  0  0  0  0  0  0  0  0  0
    0.4228   -5.9319   -4.7757 N   0  0  0  0  0  0  0  0  0  0  0  0
    1.0827   -3.6662   -1.4592 N   0  0  0  0  0  0  0  0  0  0  0  0
    2.3449   -3.3598   -0.8263 C   0  0  0  0  0  0  0  0  0  0  0  0
    2.5417   -1.8749   -0.8780 C   0  0  0  0  0  0  0  0  0  0  0  0
    1.2982   -1.1309   -0.2153 C   0  0  0  0  0  0  0  0  0  0  0  0
    1.1449   -1.5985    1.2228 C   0  0  0  0  0  0  0  0  0  0  0  0
    1.0133   -1.9997    2.4564 C   0  0  0  0  0  0  0  0  0  0  0  0
  1  2  1  0
  2  3  2  0
  2 13  1  0
  3  4  1  0
  3  6  1  0
  4  5  1  0
  6  7  1  0
  6  9  2  0
  7  8  1  0
  9 10  1  0
  9 12  1  0
 10 11  1  0
 12 13  2  0
 13 14  1  0
 14 15  1  0
 15 16  2  0
 15 24  1  0
 16 17  1  0
 17 18  2  0
 17 20  1  0
 18 19  1  0
 18 23  1  0
 20 21  2  0
 20 24  1  0
 21 22  1  0
 22 23  2  0
 24 25  1  0
 25 26  1  0
 26 27  1  0
 27 28  1  0
 28 29  3  0
M  END
>  <DRUGBANK_ID>  (1) 
DB04505

>  <SECONDARY_ACCESSION_NUMBERS>  (1) 
EXPT02699

>  <COMMON_NAME>  (1) 
8-(2-Chloro-3,4,5-Trimethoxy-Benzyl)-9-Pent-4-Ylnyl-9h-Purin-6-Ylamine

$$$$
