736
     RDKit          3D

 32 36  0  0  0  0  0  0  0  0999 V2000
   -3.0692   -1.3820    0.6479 C   0  0  0  0  0  0  0  0  0  0  0  0
   -1.9368   -1.5563   -0.0592 N   0  0  0  0  0  0  0  0  0  0  0  0
   -1.0603   -0.4997   -0.1271 C   0  0  0  0  0  0  0  0  0  0  0  0
   -1.1895    0.6904    0.6357 C   0  0  0  0  0  0  0  0  0  0  0  0
   -2.4488    0.8541    1.2169 C   0  0  0  0  0  0  0  0  0  0  0  0
   -3.3858   -0.1844    1.2483 C   0  0  0  0  0  0  0  0  0  0  0  0
   -0.0044   -0.6409   -1.2173 C   0  0  2  0  0  0  0  0  0  0  0  0
    1.3450   -0.4195   -0.5339 C   0  0  0  0  0  0  0  0  0  0  0  0
    1.7210    0.8362   -0.0058 C   0  0  0  0  0  0  0  0  0  0  0  0
    0.9031    2.0571    0.0031 C   0  0  0  0  0  0  0  0  0  0  0  0
   -0.3500    1.9493    0.4911 C   0  0  0  0  0  0  0  0  0  0  0  0
    2.1422   -1.5351   -0.2295 C   0  0  0  0  0  0  0  0  0  0  0  0
    3.3047   -1.3808    0.5288 C   0  0  0  0  0  0  0  0  0  0  0  0
    3.6831   -0.1212    0.9838 C   0  0  0  0  0  0  0  0  0  0  0  0
    2.8969    0.9792    0.7227 C   0  0  0  0  0  0  0  0  0  0  0  0
   -0.2003    0.0965   -2.6264 C   0  0  0  0  0  0  0  0  0  0  0  0
   -0.3294    1.6012   -2.6394 C   0  0  0  0  0  0  0  0  0  0  0  0
   -1.6130    2.1751   -2.0835 C   0  0  0  0  0  0  0  0  0  0  0  0
   -2.8197    1.7023   -2.7550 N   0  0  0  0  0  0  0  0  0  0  0  0
   -2.7412    0.1856   -2.9035 C   0  0  0  0  0  0  0  0  0  0  0  0
   -1.3975   -0.2981   -3.4815 C   0  0  0  0  0  0  0  0  0  0  0  0
    5.1072    0.1019    1.9112 Cl  0  0  0  0  0  0  0  0  0  0  0  0
   -4.2868    2.1722   -1.9115 S   0  0  0  0  0  0  0  0  0  0  0  0
    1.4259    3.1976   -0.6686 N   0  0  0  0  0  0  0  0  0  0  0  0
    2.2996    3.1368   -1.8977 C   0  0  0  0  0  0  0  0  0  0  0  0
    1.2874    4.5873   -0.2240 C   0  0  0  0  0  0  0  0  0  0  0  0
    3.6900    3.6834   -1.5914 C   0  0  0  0  0  0  0  0  0  0  0  0
    2.7111    5.1079    0.0889 C   0  0  0  0  0  0  0  0  0  0  0  0
    3.6374    5.0649   -1.0731 N   0  0  0  0  0  0  0  0  0  0  0  0
   -4.4406    1.4116   -0.7123 O   0  0  0  0  0  0  0  0  0  0  0  0
   -4.0160    3.8654   -1.3667 C   0  0  0  0  0  0  0  0  0  0  0  0
   -5.3556    2.1509   -2.9043 O   0  0  0  0  0  0  0  0  0  0  0  0
  1  2  2  0
  1  6  1  0
  2  3  1  0
  3  4  2  0
  3  7  1  0
  4  5  1  0
  4 11  1  0
  5  6  2  0
  7  8  1  0
  7 16  1  6
  8  9  2  0
  8 12  1  0
  9 10  1  0
  9 15  1  0
 10 11  2  0
 10 24  1  0
 12 13  2  0
 13 14  1  0
 14 15  2  0
 14 22  1  0
 16 17  1  0
 16 21  1  0
 17 18  1  0
 18 19  1  0
 19 20  1  0
 19 23  1  0
 20 21  1  0
 23 30  2  0
 23 31  1  0
 23 32  2  0
 24 25  1  0
 24 26  1  0
 25 27  1  0
 26 28  1  0
 27 29  1  0
 28 29  1  0
M  END
>  <DRUGBANK_ID>  (1) 
DB07216

>  <COMMON_NAME>  (1) 
(11S)-8-CHLORO-11-[1-(METHYLSULFONYL)PIPERIDIN-4-YL]-6-PIPERAZIN-1-YL-11H-BENZO[5,6]CYCLOHEPTA[1,2-B]PYRIDINE

$$$$
