
     RDKit          3D

 37 41  0  0  0  0  0  0  0  0999 V2000
    1.1419    0.0461   -0.0746 C   0  0  0  0  0  0  0  0  0  0  0  0
    0.5695    1.2471    0.6887 C   0  0  0  0  0  0  0  0  0  0  0  0
    1.0882    2.5310    0.0264 C   0  0  0  0  0  0  0  0  0  0  0  0
   -0.9541    1.2193    0.7143 C   0  0  0  0  0  0  0  0  0  0  0  0
   -1.6431    0.0093    0.7163 C   0  0  0  0  0  0  0  0  0  0  0  0
   -3.0122    0.0233    0.5784 C   0  0  0  0  0  0  0  0  0  0  0  0
   -3.6509    1.2482    0.4559 C   0  0  0  0  0  0  0  0  0  0  0  0
   -2.9460    2.4343    0.6255 C   0  0  0  0  0  0  0  0  0  0  0  0
   -1.6011    2.4149    0.7396 N   0  0  0  0  0  0  0  0  0  0  0  0
   -3.6194    3.6623    0.6732 N   0  0  0  0  0  0  0  0  0  0  0  0
   -3.5629    4.7494   -0.2398 C   0  0  0  0  0  0  0  0  0  0  0  0
   -4.4080    5.7426    0.1743 C   0  0  0  0  0  0  0  0  0  0  0  0
   -4.5175    6.8627   -0.5836 C   0  0  0  0  0  0  0  0  0  0  0  0
   -3.8176    6.9951   -1.7356 N   0  0  0  0  0  0  0  0  0  0  0  0
   -3.0109    5.9679   -2.1012 C   0  0  0  0  0  0  0  0  0  0  0  0
   -2.8701    4.8361   -1.3797 N   0  0  0  0  0  0  0  0  0  0  0  0
   -2.2587    6.1227   -3.2657 N   0  0  0  0  0  0  0  0  0  0  0  0
   -1.4321    5.1675   -3.8682 C   0  0  0  0  0  0  0  0  0  0  0  0
   -1.9175    3.8931   -4.1693 C   0  0  0  0  0  0  0  0  0  0  0  0
   -1.0782    2.9081   -4.6958 C   0  0  0  0  0  0  0  0  0  0  0  0
    0.2817    3.1505   -4.9082 C   0  0  0  0  0  0  0  0  0  0  0  0
    0.7652    4.4288   -4.6153 C   0  0  0  0  0  0  0  0  0  0  0  0
   -0.0844    5.4356   -4.1244 C   0  0  0  0  0  0  0  0  0  0  0  0
    1.0941    2.1326   -5.3445 N   0  0  0  0  0  0  0  0  0  0  0  0
    0.9213    1.5435   -6.6758 C   0  0  0  0  0  0  0  0  0  0  0  0
    1.0821    0.0096   -6.5843 C   0  0  0  0  0  0  0  0  0  0  0  0
    2.3857   -0.3606   -5.9824 N   0  0  0  0  0  0  0  0  0  0  0  0
    2.4382    0.2121   -4.6149 C   0  0  0  0  0  0  0  0  0  0  0  0
    2.3164    1.7584   -4.6305 C   0  0  0  0  0  0  0  0  0  0  0  0
    2.5522   -1.8075   -5.9515 C   0  0  0  0  0  0  0  0  0  0  0  0
   -5.0555    5.2960    1.3915 C   0  0  0  0  0  0  0  0  0  0  0  0
   -5.8185    5.9896    2.0489 O   0  0  0  0  0  0  0  0  0  0  0  0
   -4.6401    3.9919    1.6158 N   0  0  0  0  0  0  0  0  0  0  0  0
   -4.8761    3.2891    2.8634 C   0  0  0  0  0  0  0  0  0  0  0  0
   -5.5645    1.9846    2.5966 C   0  0  0  0  0  0  0  0  0  0  0  0
   -5.0616    0.8013    2.9801 C   0  0  0  0  0  0  0  0  0  0  0  0
    1.0582    1.2050    2.0335 O   0  0  0  0  0  0  0  0  0  0  0  0
  1  2  1  0
  2  3  1  0
  2  4  1  0
  2 37  1  0
  4  5  2  0
  4  9  1  0
  5  6  1  0
  6  7  2  0
  7  8  1  0
  8  9  2  0
  8 10  1  0
 10 11  1  0
 10 33  1  0
 11 12  1  0
 11 16  2  0
 12 13  2  0
 12 31  1  0
 13 14  1  0
 14 15  2  0
 15 16  1  0
 15 17  1  0
 17 18  1  0
 18 19  2  0
 18 23  1  0
 19 20  1  0
 20 21  2  0
 21 22  1  0
 21 24  1  0
 22 23  2  0
 24 25  1  0
 24 29  1  0
 25 26  1  0
 26 27  1  0
 27 28  1  0
 27 30  1  0
 28 29  1  0
 31 32  2  0
 31 33  1  0
 33 34  1  0
 34 35  1  0
 35 36  2  0
M  END
>  <DRUGBANK_ID>  (1) 
DB11740

>  <COMMON_NAME>  (1) 
Adavosertib

>  <CAS_NUMBER>  (1) 
955365-80-7

>  <UNII>  (1) 
K2T6HJX3I3

$$$$
