
     RDKit          3D

 15 16  0  0  0  0  0  0  0  0999 V2000
    0.3377   -0.6577    0.0003 N   0  0  0  0  0  0  0  0  0  0  0  0
    1.6222   -1.0764   -0.0013 N   0  0  0  0  0  0  0  0  0  0  0  0
    4.5661    1.7670   -0.0086 C   0  0  0  0  0  0  0  0  0  0  0  0
    4.0405    0.0443   -0.0087 S   0  0  0  0  0  0  0  0  0  0  0  0
    2.2940    0.0825   -0.0026 C   0  0  0  0  0  0  0  0  0  0  0  0
    1.5023    1.2058   -0.0011 N   0  0  0  0  0  0  0  0  0  0  0  0
    0.2868    0.7076   -0.0002 C   0  0  0  0  0  0  0  0  0  0  0  0
   -0.9336    1.2811   -0.0007 N   0  0  0  0  0  0  0  0  0  0  0  0
   -2.1182    0.5767   -0.0002 N   0  0  0  0  0  0  0  0  0  0  0  0
   -3.4152   -2.5854    0.0030 O   0  0  0  0  0  0  0  0  0  0  0  0
   -4.3838   -0.6171    0.0019 O   0  0  0  0  0  0  0  0  0  0  0  0
   -3.3827   -1.3485    0.0020 N   0  0  0  0  0  0  0  0  0  0  0  0
   -2.0415   -0.7338    0.0009 C   0  0  0  0  0  0  0  0  0  0  0  0
   -0.7571   -1.5017    0.0010 C   0  0  0  0  0  0  0  0  0  0  0  0
   -0.6533   -2.7159    0.0015 O   0  0  0  0  0  0  0  0  0  0  0  0
  1  7  1  0
  1  2  1  0
  2  5  2  0
  4  3  1  0
  5  4  1  0
  6  5  1  0
  7  6  2  0
  7  8  1  0
  9  8  1  0
 12 10  1  0
 12 11  2  0
 13  9  2  0
 13 12  1  0
 14  1  1  0
 14 13  1  0
 15 14  2  0
M  CHG  2  10  -1  12   1
M  END
>  <DRUGBANK_ID>  (1) 
DB15622

>  <COMMON_NAME>  (1) 
Triazavirin

>  <CAS_NUMBER>  (1) 
123606-06-4

>  <UNII>  (1) 
F2HTG1MH2D

>  <SYNONYMS>  (1) 
Riamilovir; Triazavirin

$$$$
