FOH
     RDKit          3D

 16 15  0  0  0  0  0  0  0  0999 V2000
    0.9949   -0.0870    0.1781 C   0  0  0  0  0  0  0  0  0  0  0  0
    0.3835    0.4428   -1.0688 C   0  0  0  0  0  0  0  0  0  0  0  0
   -0.4481   -0.5796   -1.8470 C   0  0  0  0  0  0  0  0  0  0  0  0
    0.6328    1.7172   -1.3910 C   0  0  0  0  0  0  0  0  0  0  0  0
    1.6943    2.6843   -0.9310 C   0  0  0  0  0  0  0  0  0  0  0  0
    2.8978    2.8158   -1.8959 C   0  0  0  0  0  0  0  0  0  0  0  0
    2.6733    3.1974   -3.3492 C   0  0  0  0  0  0  0  0  0  0  0  0
    3.1071    4.6099   -3.7515 C   0  0  0  0  0  0  0  0  0  0  0  0
    2.1706    2.3455   -4.2675 C   0  0  0  0  0  0  0  0  0  0  0  0
    1.3712    1.0787   -4.1528 C   0  0  0  0  0  0  0  0  0  0  0  0
   -0.1821    1.2768   -4.2941 C   0  0  0  0  0  0  0  0  0  0  0  0
   -0.7334    1.7366   -5.6008 C   0  0  0  0  0  0  0  0  0  0  0  0
   -1.6626    0.7244   -6.2208 C   0  0  0  0  0  0  0  0  0  0  0  0
   -0.5767    2.9909   -6.0727 C   0  0  0  0  0  0  0  0  0  0  0  0
    0.1002    4.1553   -5.3997 C   0  0  0  0  0  0  0  0  0  0  0  0
    1.1906    4.6143   -6.1904 O   0  0  0  0  0  0  0  0  0  0  0  0
  1  2  1  0
  2  3  1  0
  2  4  2  3
  4  5  1  0
  5  6  1  0
  6  7  1  0
  7  8  1  0
  7  9  2  0
  9 10  1  0
 10 11  1  0
 11 12  1  0
 12 13  1  0
 12 14  2  0
 14 15  1  0
 15 16  1  0
M  END
>  <DRUGBANK_ID>  (1) 
DB02509

>  <SECONDARY_ACCESSION_NUMBERS>  (1) 
EXPT01466

>  <COMMON_NAME>  (1) 
Farnesol

>  <CAS_NUMBER>  (1) 
4602-84-0

>  <UNII>  (1) 
J03523NK03

$$$$
