
     RDKit          3D

 14 14  0  0  1  0  0  0  0  0999 V2000
    1.0290    0.0096   -0.1543 C   0  0  2  0  0  0  0  0  0  0  0  0
    0.5299   -0.1416   -1.6052 C   0  0  0  0  0  0  0  0  0  0  0  0
    0.5302   -1.1801    0.7241 C   0  0  0  0  0  0  0  0  0  0  0  0
   -0.1828   -1.0266   -2.0602 O   0  0  0  0  0  0  0  0  0  0  0  0
    0.5073    1.3080    0.3464 N   0  0  0  0  0  0  0  0  0  0  0  0
    1.0079   -1.1573    2.1726 C   0  0  0  0  0  0  0  0  0  0  0  0
    0.8966    0.9069   -2.3836 O   0  0  0  0  0  0  0  0  0  0  0  0
    2.0001   -1.0596    4.7971 C   0  0  0  0  0  0  0  0  0  0  0  0
    1.1714    0.0525    2.8687 C   0  0  0  0  0  0  0  0  0  0  0  0
    1.3144   -2.3404    2.8545 C   0  0  0  0  0  0  0  0  0  0  0  0
    1.8081   -2.2897    4.1689 C   0  0  0  0  0  0  0  0  0  0  0  0
    1.6841    0.1126    4.1515 C   0  0  0  0  0  0  0  0  0  0  0  0
    2.4964   -0.9342    6.0577 O   0  0  0  0  0  0  0  0  0  0  0  0
    2.5689    0.0191   -0.1620 C   0  0  0  0  0  0  0  0  0  0  0  0
  1  2  1  0
  1  3  1  0
  1 14  1  6
  4  2  2  0
  5  1  1  0
  6  3  1  0
  7  2  1  0
  8 11  1  0
  9  6  2  0
 10  6  1  0
 11 10  2  0
 12  9  1  0
 12  8  2  0
 13  8  1  0
M  END
>  <DRUGBANK_ID>  (1) 
DB00765

>  <SECONDARY_ACCESSION_NUMBERS>  (1) 
APRD01112

>  <COMMON_NAME>  (1) 
Metyrosine

>  <CAS_NUMBER>  (1) 
672-87-7

>  <UNII>  (1) 
DOQ0J0TPF7

>  <SYNONYMS>  (1) 
(-)-alpha-Methyl-L-tyrosine; (–)-α-methyl-L-tyrosine; (S)-alpha-Methyltyrosine; Methyltyrosine; Metirosin; Metirosina; Métirosine; Metirosine; Metirosinum; Metyrosine; α-methyl-L-p-tyrosine; α-methyl-p-tyrosine; α-methyl-para-tyrosine; α-MPT

$$$$
