
     RDKit          3D

 25 28  0  0  0  0  0  0  0  0999 V2000
    0.9462    0.1084   -0.0194 C   0  0  0  0  0  0  0  0  0  0  0  0
    0.5256   -0.0684   -1.4645 C   0  0  0  0  0  0  0  0  0  0  0  0
    0.9690   -1.2758   -2.1523 N   0  0  0  0  0  0  0  0  0  0  0  0
    0.9973   -2.5619   -1.5193 C   0  0  0  0  0  0  0  0  0  0  0  0
    1.0531   -3.7253   -2.3252 C   0  0  0  0  0  0  0  0  0  0  0  0
    1.1567   -4.9527   -1.7677 N   0  0  0  0  0  0  0  0  0  0  0  0
    1.2300   -4.9965   -0.4046 C   0  0  0  0  0  0  0  0  0  0  0  0
    1.2009   -3.8704    0.4051 C   0  0  0  0  0  0  0  0  0  0  0  0
    1.0691   -2.6471   -0.1666 N   0  0  0  0  0  0  0  0  0  0  0  0
    1.2863   -3.8951    1.8853 C   0  0  0  0  0  0  0  0  0  0  0  0
    2.4443   -4.3418    2.5415 C   0  0  0  0  0  0  0  0  0  0  0  0
    2.6112   -4.1459    3.9197 C   0  0  0  0  0  0  0  0  0  0  0  0
    1.5236   -3.7441    4.6767 C   0  0  0  0  0  0  0  0  0  0  0  0
    0.3400   -3.4160    4.1045 N   0  0  0  0  0  0  0  0  0  0  0  0
    0.2718   -3.4005    2.7269 C   0  0  0  0  0  0  0  0  0  0  0  0
   -0.9763   -2.7778    2.1582 C   0  0  0  0  0  0  0  0  0  0  0  0
    1.5994   -3.7295    6.1401 C   0  0  0  0  0  0  0  0  0  0  0  0
    0.8665   -4.5563    6.9611 N   0  0  0  0  0  0  0  0  0  0  0  0
    1.2878   -4.3208    8.2361 C   0  0  0  0  0  0  0  0  0  0  0  0
    2.2304   -3.4100    8.2201 N   0  0  0  0  0  0  0  0  0  0  0  0
    2.4445   -3.0565    6.9033 N   0  0  0  0  0  0  0  0  0  0  0  0
    1.0301   -3.6433   -3.7125 N   0  0  0  0  0  0  0  0  0  0  0  0
    0.5152   -2.4040   -4.2604 C   0  0  0  0  0  0  0  0  0  0  0  0
    1.1560   -1.2248   -3.5351 C   0  0  0  0  0  0  0  0  0  0  0  0
    1.7014   -0.2877   -4.1338 O   0  0  0  0  0  0  0  0  0  0  0  0
  1  2  1  0
  2  3  1  0
  3  4  1  0
  3 24  1  0
  4  5  2  0
  4  9  1  0
  5  6  1  0
  5 22  1  0
  6  7  2  0
  7  8  1  0
  8  9  2  0
  8 10  1  0
 10 11  2  0
 10 15  1  0
 11 12  1  0
 12 13  2  0
 13 14  1  0
 13 17  1  0
 14 15  2  0
 15 16  1  0
 17 18  1  0
 17 21  2  0
 18 19  1  0
 19 20  2  0
 20 21  1  0
 22 23  1  0
 23 24  1  0
 24 25  2  0
M  END
>  <DRUGBANK_ID>  (1) 
DB12740

>  <COMMON_NAME>  (1) 
CC-115

>  <CAS_NUMBER>  (1) 
1228013-15-7

>  <UNII>  (1) 
FII75TFH5L

$$$$
