
     RDKit          3D

 22 22  0  0  0  0  0  0  0  0999 V2000
    0.8905   -0.0569    0.0080 C   0  0  0  0  0  0  0  0  0  0  0  0
    0.4412   -1.3920   -0.5191 C   0  0  0  0  0  0  0  0  0  0  0  0
   -0.4004   -2.1887    0.3715 C   0  0  0  0  0  0  0  0  0  0  0  0
   -0.8896   -3.3927    0.0484 C   0  0  0  0  0  0  0  0  0  0  0  0
   -1.7450   -4.2045    0.8716 C   0  0  0  0  0  0  0  0  0  0  0  0
   -2.2518   -5.4007    0.5071 C   0  0  0  0  0  0  0  0  0  0  0  0
   -1.9444   -6.0834   -0.8165 C   0  0  0  0  0  0  0  0  0  0  0  0
   -3.1535   -6.1560    1.3803 C   0  0  0  0  0  0  0  0  0  0  0  0
   -3.4834   -5.8581    2.6525 C   0  0  0  0  0  0  0  0  0  0  0  0
   -4.2822   -6.6981    3.5466 C   0  0  0  0  0  0  0  0  0  0  0  0
   -4.0015   -8.0166    3.6873 C   0  0  0  0  0  0  0  0  0  0  0  0
   -2.8698   -8.7763    3.0363 C   0  0  0  0  0  0  0  0  0  0  0  0
   -4.8111   -8.8632    4.6152 C   0  0  0  0  0  0  0  0  0  0  0  0
   -4.4950  -10.0455    4.8014 O   0  0  0  0  0  0  0  0  0  0  0  0
   -5.9753   -8.2726    5.3625 C   0  0  0  0  0  0  0  0  0  0  0  0
   -6.4763   -6.9575    4.7902 C   0  0  0  0  0  0  0  0  0  0  0  0
   -5.3437   -5.9756    4.4132 C   0  0  0  0  0  0  0  0  0  0  0  0
   -4.6865   -5.4382    5.7065 C   0  0  0  0  0  0  0  0  0  0  0  0
   -6.0054   -4.7623    3.7124 C   0  0  0  0  0  0  0  0  0  0  0  0
    0.8128   -1.7923   -1.7542 C   0  0  0  0  0  0  0  0  0  0  0  0
    1.6565   -1.0219   -2.7116 C   0  0  0  0  0  0  0  0  0  0  0  0
    2.8103   -1.7925   -3.0009 O   0  0  0  0  0  0  0  0  0  0  0  0
  1  2  1  0
  2  3  1  0
  2 20  2  0
  3  4  2  0
  4  5  1  0
  5  6  2  0
  6  7  1  0
  6  8  1  0
  8  9  2  0
  9 10  1  0
 10 11  2  0
 10 17  1  0
 11 12  1  0
 11 13  1  0
 13 14  2  0
 13 15  1  0
 15 16  1  0
 16 17  1  0
 17 18  1  0
 17 19  1  0
 20 21  1  0
 21 22  1  0
M  END
>  <DRUGBANK_ID>  (1) 
DB02699

>  <SECONDARY_ACCESSION_NUMBERS>  (1) 
EXPT02464

>  <COMMON_NAME>  (1) 
4-Oxoretinol

>  <CAS_NUMBER>  (1) 
62702-55-0

>  <UNII>  (1) 
6FFM6M3NPT

$$$$
