
     RDKit          3D

 36 37  0  0  0  0  0  0  0  0999 V2000
   -3.4093    0.2992    0.1629 O   0  0  0  0  0  0  0  0  0  0  0  0
    1.4769    2.8359   -0.3288 C   0  0  0  0  0  0  0  0  0  0  0  0
    1.7133    1.5301   -0.0674 N   0  0  0  0  0  0  0  0  0  0  0  0
    1.9655    3.4133   -1.4249 C   0  0  0  0  0  0  0  0  0  0  0  0
    1.8742    0.7105   -1.1780 C   0  0  0  0  0  0  0  0  0  0  0  0
    2.8798    2.7102   -2.3356 C   0  0  0  0  0  0  0  0  0  0  0  0
    3.0384    0.2904   -1.3285 O   0  0  0  0  0  0  0  0  0  0  0  0
    0.2992    3.5526    0.1671 C   0  0  0  0  0  0  0  0  0  0  0  0
   -0.8707    3.0027   -0.3577 N   0  0  0  0  0  0  0  0  0  0  0  0
    0.4310    4.6417    0.7019 O   0  0  0  0  0  0  0  0  0  0  0  0
   -1.6144    1.9310    0.3494 C   0  0  2  0  0  0  0  0  0  0  0  0
   -2.8743    1.4311   -0.3948 C   0  0  0  0  0  0  0  0  0  0  0  0
   -1.9814    2.3017    1.7995 C   0  0  0  0  0  0  0  0  0  0  0  0
   -2.6004    1.1412    2.5667 C   0  0  0  0  0  0  0  0  0  0  0  0
   -0.7640    2.6859    2.6265 C   0  0  0  0  0  0  0  0  0  0  0  0
    0.3844   -0.0924   -1.8990 C   0  0  2  0  0  0  0  0  0  0  0  0
    1.2689   -1.2685   -1.4347 N   0  0  0  0  0  0  0  0  0  0  0  0
    1.1315   -1.7356   -0.0926 C   0  0  0  0  0  0  0  0  0  0  0  0
    0.8051   -3.1997   -0.3214 C   0  0  1  0  0  0  0  0  0  0  0  0
    2.0161   -4.1257   -0.2342 C   0  0  0  0  0  0  0  0  0  0  0  0
   -0.4228   -3.6090    0.2902 N   0  0  0  0  0  0  0  0  0  0  0  0
   -1.5091   -2.9798   -0.2980 C   0  0  0  0  0  0  0  0  0  0  0  0
   -1.9888   -1.7336    0.4447 C   0  0  0  0  0  0  0  0  0  0  0  0
   -1.8489   -3.2887   -1.4345 O   0  0  0  0  0  0  0  0  0  0  0  0
    2.2947   -4.6628   -1.6459 C   0  0  0  0  0  0  0  0  0  0  0  0
    3.2222   -3.3042    0.2119 C   0  0  0  0  0  0  0  0  0  0  0  0
    1.1408   -1.1193    0.9636 O   0  0  0  0  0  0  0  0  0  0  0  0
   -3.0470   -1.0009   -0.3354 C   0  0  1  0  0  0  0  0  0  0  0  0
   -3.4200    2.0728   -1.2922 O   0  0  0  0  0  0  0  0  0  0  0  0
   -1.0934   -0.3610   -3.0975 C   0  0  0  0  0  0  0  0  0  0  0  0
   -3.4243   -0.1369   -3.2793 S   0  0  0  0  0  0  0  0  0  0  0  0
   -5.3199   -1.4239   -4.1463 S   0  0  0  0  0  0  0  0  0  0  0  0
   -6.6940   -2.2193   -2.6664 C   0  0  0  0  0  0  0  0  0  0  0  0
   -5.8926   -3.1657   -1.7928 C   0  0  0  0  0  0  0  0  0  0  0  0
   -4.6635   -2.4376   -1.4830 C   0  0  0  0  0  0  0  0  0  0  0  0
   -4.2683   -1.8627   -0.3541 C   0  0  0  0  0  0  0  0  0  0  0  0
  1 12  1  0
  1 28  1  0
  2  8  1  0
  3  2  1  0
  4  2  2  0
  5  3  1  0
  5 16  1  0
  6  4  1  0
  7  5  2  0
  8  9  1  0
  8 10  2  0
  9 11  1  0
 11 12  1  0
 11 13  1  1
 12 29  2  0
 13 14  1  0
 13 15  1  0
 16 17  1  0
 16 30  1  6
 17 18  1  0
 18 19  1  0
 18 27  2  0
 19 21  1  0
 19 20  1  1
 20 25  1  0
 20 26  1  0
 21 22  1  0
 22 23  1  0
 22 24  2  0
 23 28  1  0
 28 36  1  1
 30 31  1  0
 31 32  1  0
 32 33  1  0
 33 34  1  0
 34 35  1  0
 35 36  2  0
M  END
>  <DRUGBANK_ID>  (1) 
DB06176

>  <COMMON_NAME>  (1) 
Romidepsin

>  <CAS_NUMBER>  (1) 
128517-07-7

>  <UNII>  (1) 
CX3T89XQBK

>  <SYNONYMS>  (1) 
Romidepsin; Romidepsina; Romidepsine; Romidepsinum

$$$$
