
     RDKit          3D

 26 29  0  0  0  0  0  0  0  0999 V2000
   -2.4181   -0.6807    0.1297 C   0  0  0  0  0  0  0  0  0  0  0  0
   -1.2072   -1.3702    0.0259 C   0  0  0  0  0  0  0  0  0  0  0  0
    0.0120   -0.7017    0.0462 C   0  0  0  0  0  0  0  0  0  0  0  0
   -0.0324    0.7040   -0.0251 C   0  0  0  0  0  0  0  0  0  0  0  0
   -1.2381    1.4104   -0.0759 C   0  0  0  0  0  0  0  0  0  0  0  0
   -2.4167    0.7146    0.0728 C   0  0  0  0  0  0  0  0  0  0  0  0
   -3.5609    1.4021    0.2129 F   0  0  0  0  0  0  0  0  0  0  0  0
    1.1543    2.7086   -0.0318 O   0  0  0  0  0  0  0  0  0  0  0  0
    1.2151    1.4857   -0.0002 C   0  0  0  0  0  0  0  0  0  0  0  0
    2.4910    0.7435    0.0708 C   0  0  0  0  0  0  0  0  0  0  0  0
    2.4120   -0.5991    0.1141 C   0  0  0  0  0  0  0  0  0  0  0  0
    1.2587   -1.3887    0.1694 N   0  0  0  0  0  0  0  0  0  0  0  0
    3.9357    2.6763    0.1090 O   0  0  0  0  0  0  0  0  0  0  0  0
    3.7772    1.4799    0.1044 C   0  0  0  0  0  0  0  0  0  0  0  0
    4.8588    0.6709    0.1594 O   0  0  0  0  0  0  0  0  0  0  0  0
   -6.7946   -1.7145    1.5529 C   0  0  0  0  0  0  0  0  0  0  0  0
   -6.7818   -3.0256    0.7647 C   0  0  0  0  0  0  0  0  0  0  0  0
    1.3292   -2.8505   -0.1658 C   0  0  0  0  0  0  0  0  0  0  0  0
    1.5606   -4.1313    0.6018 C   0  0  0  0  0  0  0  0  0  0  0  0
    2.6930   -3.5181   -0.1373 C   0  0  0  0  0  0  0  0  0  0  0  0
   -3.7180   -2.3693    1.3620 C   0  0  0  0  0  0  0  0  0  0  0  0
   -4.3928   -3.6619    0.8684 C   0  0  0  0  0  0  0  0  0  0  0  0
   -5.5857   -3.4552    0.0200 N   0  0  0  0  0  0  0  0  0  0  0  0
   -5.2323   -2.5640   -1.1077 C   0  0  0  0  0  0  0  0  0  0  0  0
   -4.6315   -1.2041   -0.7126 C   0  0  0  0  0  0  0  0  0  0  0  0
   -3.5679   -1.4141    0.2606 N   0  0  0  0  0  0  0  0  0  0  0  0
  1  2  2  0
  1  6  1  0
  1 26  1  0
  2  3  1  0
  3  4  2  0
  3 12  1  0
  4  5  1  0
  4  9  1  0
  5  6  2  0
  6  7  1  0
  8  9  2  0
  9 10  1  0
 10 11  2  0
 10 14  1  0
 11 12  1  0
 12 18  1  0
 13 14  2  0
 14 15  1  0
 16 17  1  0
 17 23  1  0
 18 19  1  0
 18 20  1  0
 19 20  1  0
 21 22  1  0
 21 26  1  0
 22 23  1  0
 23 24  1  0
 24 25  1  0
 25 26  1  0
M  END
>  <DRUGBANK_ID>  (1) 
DB11404

>  <COMMON_NAME>  (1) 
Enrofloxacin

>  <CAS_NUMBER>  (1) 
93106-60-6

>  <UNII>  (1) 
3DX3XEK1BN

>  <SYNONYMS>  (1) 
Enrofloxacin; Enrofloxacine; Enrofloxacino; Enrofloxacinum

$$$$
