
     RDKit          3D

 35 38  0  0  0  0  0  0  0  0999 V2000
    1.0890   -0.0428   -0.0402 C   0  0  0  0  0  0  0  0  0  0  0  0
    0.5427    0.0010    1.3495 N   0  0  0  0  0  0  0  0  0  0  0  0
   -0.9423    0.0428    1.3051 C   0  0  0  0  0  0  0  0  0  0  0  0
    1.1816   -1.3018    2.2866 S   0  0  0  0  0  0  0  0  0  0  0  0
    0.5801   -2.5045    1.7608 O   0  0  0  0  0  0  0  0  0  0  0  0
    2.6280   -1.1538    2.3276 O   0  0  0  0  0  0  0  0  0  0  0  0
    0.5863   -1.0708    3.9418 C   0  0  0  0  0  0  0  0  0  0  0  0
    0.3404   -2.2494    4.6792 C   0  0  0  0  0  0  0  0  0  0  0  0
   -0.0081   -2.1892    6.0274 C   0  0  0  0  0  0  0  0  0  0  0  0
   -0.1019   -0.9577    6.6493 C   0  0  0  0  0  0  0  0  0  0  0  0
    0.1207    0.2032    5.9108 C   0  0  0  0  0  0  0  0  0  0  0  0
    0.4131    0.1911    4.5267 C   0  0  0  0  0  0  0  0  0  0  0  0
    0.6257    1.4167    3.8352 N   0  0  0  0  0  0  0  0  0  0  0  0
    0.3704    2.6918    4.3983 C   0  0  0  0  0  0  0  0  0  0  0  0
   -0.7622    3.3516    4.0836 N   0  0  0  0  0  0  0  0  0  0  0  0
   -1.0596    4.4791    4.7750 C   0  0  0  0  0  0  0  0  0  0  0  0
   -2.1915    5.2148    4.4449 N   0  0  0  0  0  0  0  0  0  0  0  0
   -3.1978    4.8167    3.5681 C   0  0  0  0  0  0  0  0  0  0  0  0
   -3.8138    3.5697    3.7126 C   0  0  0  0  0  0  0  0  0  0  0  0
   -4.7361    3.1272    2.7751 C   0  0  0  0  0  0  0  0  0  0  0  0
   -5.0699    3.9406    1.6850 C   0  0  0  0  0  0  0  0  0  0  0  0
   -6.0450    3.4496    0.6447 C   0  0  0  0  0  0  0  0  0  0  0  0
   -7.3267    3.1105    1.2485 N   0  0  0  0  0  0  0  0  0  0  0  0
   -7.9636    4.2918    1.8599 C   0  0  0  0  0  0  0  0  0  0  0  0
   -9.2639    3.8835    2.5716 C   0  0  0  0  0  0  0  0  0  0  0  0
  -10.2433    3.2140    1.6886 N   0  0  0  0  0  0  0  0  0  0  0  0
  -10.8253    4.1817    0.7603 C   0  0  0  0  0  0  0  0  0  0  0  0
   -9.5752    2.1201    0.9440 C   0  0  0  0  0  0  0  0  0  0  0  0
   -8.2455    2.5214    0.2650 C   0  0  0  0  0  0  0  0  0  0  0  0
   -4.5248    5.2254    1.5890 C   0  0  0  0  0  0  0  0  0  0  0  0
   -3.5700    5.6480    2.5094 C   0  0  0  0  0  0  0  0  0  0  0  0
   -0.2904    4.9772    5.7535 N   0  0  0  0  0  0  0  0  0  0  0  0
    0.8557    4.3152    6.0080 C   0  0  0  0  0  0  0  0  0  0  0  0
    1.2477    3.1787    5.3512 C   0  0  0  0  0  0  0  0  0  0  0  0
    2.7465    2.4206    5.7253 Cl  0  0  0  0  0  0  0  0  0  0  0  0
  1  2  1  0
  2  3  1  0
  2  4  1  0
  4  5  2  0
  4  6  2  0
  4  7  1  0
  7  8  2  0
  7 12  1  0
  8  9  1  0
  9 10  2  0
 10 11  1  0
 11 12  2  0
 12 13  1  0
 13 14  1  0
 14 15  2  0
 14 34  1  0
 15 16  1  0
 16 17  1  0
 16 32  2  0
 17 18  1  0
 18 19  2  0
 18 31  1  0
 19 20  1  0
 20 21  2  0
 21 22  1  0
 21 30  1  0
 22 23  1  0
 23 24  1  0
 23 29  1  0
 24 25  1  0
 25 26  1  0
 26 27  1  0
 26 28  1  0
 28 29  1  0
 30 31  2  0
 32 33  1  0
 33 34  2  0
 34 35  1  0
M  END
>  <DRUGBANK_ID>  (1) 
DB15187

>  <COMMON_NAME>  (1) 
Dubermatinib

>  <CAS_NUMBER>  (1) 
1341200-45-0

>  <UNII>  (1) 
14D65TV20J

>  <SYNONYMS>  (1) 
Dubermatinib

$$$$
