
     RDKit          3D

 23 25  0  0  0  0  0  0  0  0999 V2000
   -2.3097    0.0738    0.0011 C   0  0  0  0  0  0  0  0  0  0  0  0
   -1.5363    1.1297    0.0025 N   0  0  0  0  0  0  0  0  0  0  0  0
   -1.5448   -1.0763   -0.0084 N   0  0  0  0  0  0  0  0  0  0  0  0
   -3.6827    0.0660    0.0055 N   0  0  0  0  0  0  0  0  0  0  0  0
   -0.2579    0.6728   -0.0030 C   0  0  0  0  0  0  0  0  0  0  0  0
   -4.4598    1.2068    0.0220 C   0  0  0  0  0  0  0  0  0  0  0  0
   -0.2145   -0.7115    0.0049 C   0  0  0  0  0  0  0  0  0  0  0  0
    2.1473    0.7541   -0.0076 C   0  0  0  0  0  0  0  0  0  0  0  0
    3.4301    1.5199   -0.0536 C   0  0  0  0  0  0  0  0  0  0  0  0
    0.9192    1.4204   -0.0217 C   0  0  0  0  0  0  0  0  0  0  0  0
    3.4319    3.0045   -0.0546 C   0  0  0  0  0  0  0  0  0  0  0  0
   -5.6873    1.1235    0.0290 O   0  0  0  0  0  0  0  0  0  0  0  0
    2.1736   -0.6523    0.0074 C   0  0  0  0  0  0  0  0  0  0  0  0
    4.5056    0.9343   -0.1303 O   0  0  0  0  0  0  0  0  0  0  0  0
    0.9909   -1.4206    0.0124 C   0  0  0  0  0  0  0  0  0  0  0  0
    4.0044    3.6835   -1.1377 C   0  0  0  0  0  0  0  0  0  0  0  0
    2.8558    3.7212    1.0039 C   0  0  0  0  0  0  0  0  0  0  0  0
   -3.7820    2.3829    0.0310 O   0  0  0  0  0  0  0  0  0  0  0  0
    3.3792    5.7818   -0.1265 C   0  0  0  0  0  0  0  0  0  0  0  0
    2.8150    5.1154    0.9563 C   0  0  0  0  0  0  0  0  0  0  0  0
    3.9767    5.0803   -1.1700 C   0  0  0  0  0  0  0  0  0  0  0  0
    3.3478    7.1202   -0.1631 F   0  0  0  0  0  0  0  0  0  0  0  0
   -4.5535    3.5844    0.0476 C   0  0  0  0  0  0  0  0  0  0  0  0
  2  1  2  0
  3  1  1  0
  4  1  1  0
  5  2  1  0
  6  4  1  0
  7  3  1  0
  7  5  2  0
  9  8  1  0
 10  5  1  0
 10  8  2  0
 11  9  1  0
 12  6  2  0
 13  8  1  0
 14  9  2  0
 15  7  1  0
 15 13  2  0
 16 11  2  0
 17 11  1  0
 18  6  1  0
 20 17  2  0
 20 19  1  0
 21 16  1  0
 21 19  2  0
 22 19  1  0
 23 18  1  0
M  END
>  <DRUGBANK_ID>  (1) 
DB08974

>  <COMMON_NAME>  (1) 
Flubendazole

>  <CAS_NUMBER>  (1) 
31430-15-6

>  <UNII>  (1) 
R8M46911LR

>  <SYNONYMS>  (1) 
(5-(4-fluorobenzoyl)-1H-benzimidazole-2-yl)carbamic acid methyl ester; Flubendazol; Flubendazole; Flubendazolum; methyl 5-(p-fluorobenzoyl)-2-benzimidazolecarbamate

$$$$
