
     RDKit          3D

 22 23  0  0  0  0  0  0  0  0999 V2000
   -1.5357   -1.7236    0.0161 C   0  0  0  0  0  0  0  0  0  0  0  0
   -0.3920   -0.7370   -0.0733 C   0  0  0  0  0  0  0  0  0  0  0  0
    0.8405   -1.2932   -0.0246 N   0  0  0  0  0  0  0  0  0  0  0  0
    1.9046   -0.4688   -0.0935 C   0  0  0  0  0  0  0  0  0  0  0  0
    1.8415    0.9244   -0.2060 C   0  0  0  0  0  0  0  0  0  0  0  0
    3.1329    1.6886   -0.0440 C   0  0  0  0  0  0  0  0  0  0  0  0
    3.7437    1.5233    1.2464 O   0  0  0  0  0  0  0  0  0  0  0  0
    2.7632    1.8082    2.6429 P   0  0  0  0  0  0  0  0  0  0  0  0
    3.9151    0.9661    3.4297 O   0  0  0  0  0  0  0  0  0  0  0  0
    3.4580    3.2864    2.6641 O   0  0  0  0  0  0  0  0  0  0  0  0
    1.8856    2.0631    3.8928 O   0  0  0  0  0  0  0  0  0  0  0  0
    0.5702    1.5350   -0.3353 C   0  0  0  0  0  0  0  0  0  0  0  0
    0.4866    3.0974   -0.4290 C   0  0  0  0  0  0  0  0  0  0  0  0
    1.3928    3.9705    0.5259 N   0  0  0  0  0  0  0  0  0  0  0  0
    0.4698    4.8544    1.2561 C   0  0  0  0  0  0  0  0  0  0  0  0
    0.3231    6.1104    0.4099 C   0  0  0  0  0  0  0  0  0  0  0  0
    0.7505    6.2529    1.8201 C   0  0  0  0  0  0  0  0  0  0  0  0
   -0.3326    3.8913    2.1866 C   0  0  0  0  0  0  0  0  0  0  0  0
    0.1362    2.5909    2.1086 O   0  0  0  0  0  0  0  0  0  0  0  0
   -1.2453    4.1353    2.9113 O   0  0  0  0  0  0  0  0  0  0  0  0
   -0.5704    0.6599   -0.2198 C   0  0  0  0  0  0  0  0  0  0  0  0
   -1.8762    1.0758   -0.1608 O   0  0  0  0  0  0  0  0  0  0  0  0
  1  2  1  0
  2  3  2  0
  2 21  1  0
  3  4  1  0
  4  5  2  0
  5  6  1  0
  5 12  1  0
  6  7  1  0
  7  8  1  0
  8  9  1  0
  8 10  1  0
  8 11  2  0
 12 13  1  0
 12 21  2  0
 13 14  1  0
 14 15  1  0
 15 16  1  0
 15 17  1  0
 15 18  1  0
 16 17  1  0
 18 19  1  0
 18 20  2  0
 21 22  1  0
M  END
>  <DRUGBANK_ID>  (1) 
DB02849

>  <SECONDARY_ACCESSION_NUMBERS>  (1) 
EXPT00257

>  <COMMON_NAME>  (1) 
N-Pyridoxyl-1-Amino-Cyclopropanecarboxylic Acid-5-Monophosphate

$$$$
