
     RDKit          3D

 39 42  0  0  0  0  0  0  0  0999 V2000
    3.0616   -3.7036   -4.8126 C   0  0  0  0  0  0  0  0  0  0  0  0
    3.5951   -4.9237   -4.3113 C   0  0  0  0  0  0  0  0  0  0  0  0
    3.4888   -5.7447   -5.9237 C   0  0  0  0  0  0  0  0  0  0  0  0
    3.3606   -5.0084   -7.7686 C   0  0  0  0  0  0  0  0  0  0  0  0
    1.9093   -3.6967   -6.2319 C   0  0  0  0  0  0  0  0  0  0  0  0
    3.1381   -3.3321   -8.5417 C   0  0  2  0  0  0  0  0  0  0  0  0
    1.8751   -3.0538   -7.8512 C   0  0  0  0  0  0  0  0  0  0  0  0
    4.4064   -6.5655   -5.4186 C   0  0  0  0  0  0  0  0  0  0  0  0
    5.5827   -6.0224   -6.0905 C   0  0  0  0  0  0  0  0  0  0  0  0
    5.6802   -6.3964   -7.3929 C   0  0  0  0  0  0  0  0  0  0  0  0
    5.2104   -5.1365   -8.1001 C   0  0  0  0  0  0  0  0  0  0  0  0
    3.9405   -5.3300   -8.8434 C   0  0  0  0  0  0  0  0  0  0  0  0
    4.4254   -5.0635   -2.6981 C   0  0  0  0  0  0  0  0  0  0  0  0
    4.8129   -3.9003   -1.7798 C   0  0  0  0  0  0  0  0  0  0  0  0
    4.3785   -2.6395   -2.4242 C   0  0  0  0  0  0  0  0  0  0  0  0
    3.5206   -2.6453   -3.8668 C   0  0  0  0  0  0  0  0  0  0  0  0
    4.2650   -1.2327   -1.6452 O   0  0  0  0  0  0  0  0  0  0  0  0
    5.3543   -3.9916   -0.2408 O   0  0  0  0  0  0  0  0  0  0  0  0
    5.3216   -4.9430    1.1758 C   0  0  0  0  0  0  0  0  0  0  0  0
    4.7702   -6.0162   -1.6953 O   0  0  0  0  0  0  0  0  0  0  0  0
    5.1961   -7.3378   -1.3990 C   0  0  0  0  0  0  0  0  0  0  0  0
    5.1138   -8.0627   -7.8162 S   0  0  0  0  0  0  0  0  0  0  0  0
    4.7898   -8.1057   -9.5642 C   0  0  0  0  0  0  0  0  0  0  0  0
    5.5075   -3.9903   -7.7188 O   0  0  0  0  0  0  0  0  0  0  0  0
    2.9649   -2.7245  -10.2302 N   0  0  0  0  0  0  0  0  0  0  0  0
    3.6180   -1.4919  -10.7659 C   0  0  0  0  0  0  0  0  0  0  0  0
    3.0167   -0.5342  -11.2760 O   0  0  0  0  0  0  0  0  0  0  0  0
    5.1275   -1.4701  -10.7947 C   0  0  0  0  0  0  0  0  0  0  0  0
    3.3688   -1.1146   -0.1892 C   0  0  2  0  0  0  0  0  0  0  0  0
    3.8996   -0.9211    1.1883 O   0  0  0  0  0  0  0  0  0  0  0  0
    3.0548   -1.6913    2.2066 C   0  0  1  0  0  0  0  0  0  0  0  0
    3.3092   -3.1672    1.9916 C   0  0  2  0  0  0  0  0  0  0  0  0
    2.7190   -3.5897    0.6775 C   0  0  1  0  0  0  0  0  0  0  0  0
    3.0002   -2.5099   -0.2599 C   0  0  1  0  0  0  0  0  0  0  0  0
    1.9924   -2.5631   -1.2206 O   0  0  0  0  0  0  0  0  0  0  0  0
    2.8190   -4.0481    2.9860 O   0  0  0  0  0  0  0  0  0  0  0  0
    3.4844   -1.4463    3.6647 C   0  0  0  0  0  0  0  0  0  0  0  0
    2.9777   -4.9033    0.1408 O   0  0  0  0  0  0  0  0  0  0  0  0
    3.1149   -0.1354    4.0365 O   0  0  0  0  0  0  0  0  0  0  0  0
  1  5  1  0
  1  2  2  0
  2  3  1  0
  2 13  1  0
  3  4  1  0
  3  8  2  0
  4  6  1  0
  4 12  2  0
  5  7  1  0
  6  7  1  0
  6 25  1  6
  8  9  1  0
  9 10  2  0
 10 11  1  0
 10 22  1  0
 11 12  1  0
 11 24  2  0
 13 14  2  0
 13 20  1  0
 14 15  1  0
 14 18  1  0
 15 16  2  0
 15 17  1  0
 16  1  1  0
 18 19  1  0
 20 21  1  0
 22 23  1  0
 25 26  1  0
 26 27  2  0
 26 28  1  0
 29 30  1  0
 29 34  1  0
 29 17  1  6
 30 31  1  0
 31 32  1  0
 31 37  1  1
 32 33  1  0
 32 36  1  1
 33 34  1  0
 33 38  1  6
 34 35  1  1
 37 39  1  0
M  END
>  <DRUGBANK_ID>  (1) 
DB11582

>  <COMMON_NAME>  (1) 
Thiocolchicoside

>  <CAS_NUMBER>  (1) 
602-41-5

>  <UNII>  (1) 
T1X8S697GT

>  <SYNONYMS>  (1) 
TCC; Thiocolchicine 2-glucoside analog; Thiocolchicoside

$$$$
