
     RDKit          3D

 34 36  0  0  0  0  0  0  0  0999 V2000
    0.8281    0.1296    0.3107 C   0  0  0  0  0  0  0  0  0  0  0  0
    0.4866    1.4641   -0.1337 N   0  0  0  0  0  0  0  0  0  0  0  0
   -0.1111    1.8506   -1.2940 C   0  0  0  0  0  0  0  0  0  0  0  0
   -0.4947    3.0076   -1.4412 O   0  0  0  0  0  0  0  0  0  0  0  0
   -0.4124    0.8118   -2.3176 C   0  0  0  0  0  0  0  0  0  0  0  0
    0.6653    0.0559   -3.0881 C   0  0  1  0  0  0  0  0  0  0  0  0
    1.6944   -0.5146   -2.2310 N   0  0  0  0  0  0  0  0  0  0  0  0
    0.1490   -1.0807   -4.0311 C   0  0  0  0  0  0  0  0  0  0  0  0
    0.3642   -1.0232   -5.2461 O   0  0  0  0  0  0  0  0  0  0  0  0
   -0.5571   -2.1600   -3.5602 N   0  0  0  0  0  0  0  0  0  0  0  0
   -1.0869   -2.4317   -2.2156 C   0  0  1  0  0  0  0  0  0  0  0  0
   -2.7024   -2.4614   -2.1126 C   0  0  0  0  0  0  0  0  0  0  0  0
   -3.3085   -3.3249   -1.4713 O   0  0  0  0  0  0  0  0  0  0  0  0
   -3.4862   -1.4505   -2.6538 N   0  0  0  0  0  0  0  0  0  0  0  0
   -2.9676   -0.2446   -3.2786 C   0  0  1  0  0  0  0  0  0  0  0  0
   -3.1666    0.2107   -4.6926 C   0  0  1  0  0  0  0  0  0  0  0  0
   -4.7308   -0.0514   -5.5047 S   0  0  0  0  0  0  0  0  0  0  0  0
   -4.7575    1.7541   -5.9928 C   0  0  0  0  0  0  0  0  0  0  0  0
   -6.2291    2.0590   -6.2071 C   0  0  0  0  0  0  0  0  0  0  0  0
   -3.9088    1.8594   -7.2693 C   0  0  0  0  0  0  0  0  0  0  0  0
   -4.1834    2.5263   -4.7852 C   0  0  1  0  0  0  0  0  0  0  0  0
   -3.2282    1.5999   -4.1801 N   0  0  0  0  0  0  0  0  0  0  0  0
   -3.3462    1.1941   -2.8785 C   0  0  0  0  0  0  0  0  0  0  0  0
   -3.6076    1.7991   -1.8568 O   0  0  0  0  0  0  0  0  0  0  0  0
   -3.5403    3.9203   -5.0088 C   0  0  0  0  0  0  0  0  0  0  0  0
   -3.8220    4.5974   -6.1417 O   0  0  0  0  0  0  0  0  0  0  0  0
   -2.8268    4.4628   -4.1736 O   0  0  0  0  0  0  0  0  0  0  0  0
   -0.4351   -3.6789   -1.6397 C   0  0  0  0  0  0  0  0  0  0  0  0
   -0.9413   -4.9305   -1.9979 C   0  0  0  0  0  0  0  0  0  0  0  0
   -0.4543   -6.0917   -1.4103 C   0  0  0  0  0  0  0  0  0  0  0  0
    0.5890   -6.0115   -0.4963 C   0  0  0  0  0  0  0  0  0  0  0  0
    1.1047   -7.1281    0.0891 O   0  0  0  0  0  0  0  0  0  0  0  0
    1.1433   -4.7869   -0.1523 C   0  0  0  0  0  0  0  0  0  0  0  0
    0.6381   -3.6195   -0.7272 C   0  0  0  0  0  0  0  0  0  0  0  0
  1  2  1  0
  2  3  1  0
  3  4  2  0
  3  5  1  0
  6  5  1  0
  6  7  1  1
  6  8  1  0
  8  9  2  0
  8 10  1  0
 11 10  1  6
 11 12  1  0
 11 28  1  0
 12 13  2  0
 12 14  1  0
 15 14  1  1
 15 16  1  0
 15 23  1  0
 16 17  1  1
 16 22  1  0
 17 18  1  0
 18 19  1  0
 18 20  1  0
 21 18  1  0
 21 22  1  0
 21 25  1  6
 22 23  1  0
 23 24  2  0
 25 26  1  0
 25 27  2  0
 28 29  2  0
 28 34  1  0
 29 30  1  0
 30 31  2  0
 31 32  1  0
 31 33  1  0
 33 34  2  0
M  END
>  <DRUGBANK_ID>  (1) 
DB13816

>  <COMMON_NAME>  (1) 
Aspoxicillin

>  <CAS_NUMBER>  (1) 
63358-49-6

>  <UNII>  (1) 
0745KNO26J

>  <SYNONYMS>  (1) 
Aspoxicillin

$$$$
