
     RDKit          3D

 38 42  0  0  0  0  0  0  0  0999 V2000
    0.2412    0.0396    0.6141 C   0  0  0  0  0  0  0  0  0  0  0  0
    0.0432   -1.1610    1.4038 C   0  0  0  0  0  0  0  0  0  0  0  0
   -0.4803   -1.0747    2.6098 N   0  0  0  0  0  0  0  0  0  0  0  0
   -0.3630   -2.3016    3.1588 N   0  0  0  0  0  0  0  0  0  0  0  0
    0.1948   -3.1511    2.3161 N   0  0  0  0  0  0  0  0  0  0  0  0
    0.4987   -2.4668    1.1902 N   0  0  0  0  0  0  0  0  0  0  0  0
    1.1077   -3.2309    0.2159 N   0  0  0  0  0  0  0  0  0  0  0  0
    1.6916   -2.8452   -0.8448 C   0  0  0  0  0  0  0  0  0  0  0  0
    1.9531   -1.4872   -1.3358 C   0  0  0  0  0  0  0  0  0  0  0  0
    2.7226   -0.5975   -0.6048 C   0  0  0  0  0  0  0  0  0  0  0  0
    2.6093    0.7823   -0.8824 C   0  0  0  0  0  0  0  0  0  0  0  0
    1.8338    1.2289   -1.9465 C   0  0  0  0  0  0  0  0  0  0  0  0
    1.2130    0.3140   -2.7902 C   0  0  0  0  0  0  0  0  0  0  0  0
    1.2142   -1.0513   -2.4211 C   0  0  0  0  0  0  0  0  0  0  0  0
    0.7554    0.7903   -4.1682 C   0  0  0  0  0  0  0  0  0  0  0  0
    1.9329    0.3288   -5.1095 C   0  0  0  0  0  0  0  0  0  0  0  0
    2.5141   -0.9750   -5.0657 C   0  0  0  0  0  0  0  0  0  0  0  0
    3.3973   -1.4598   -6.0448 C   0  0  0  0  0  0  0  0  0  0  0  0
    3.7845   -0.6005   -7.0533 C   0  0  0  0  0  0  0  0  0  0  0  0
    3.4051    0.7404   -7.0106 C   0  0  0  0  0  0  0  0  0  0  0  0
    2.4893    1.2068   -6.0442 C   0  0  0  0  0  0  0  0  0  0  0  0
    4.3268   -1.0931   -8.2078 O   0  0  0  0  0  0  0  0  0  0  0  0
   -0.7552    0.5054   -4.4863 C   0  0  0  0  0  0  0  0  0  0  0  0
   -1.1836    0.0408   -5.7466 C   0  0  0  0  0  0  0  0  0  0  0  0
   -2.4167   -0.6315   -5.9252 C   0  0  0  0  0  0  0  0  0  0  0  0
   -3.3894   -0.4832   -4.9379 C   0  0  0  0  0  0  0  0  0  0  0  0
   -3.1002    0.2640   -3.7906 C   0  0  0  0  0  0  0  0  0  0  0  0
   -1.7881    0.7124   -3.5517 C   0  0  0  0  0  0  0  0  0  0  0  0
   -1.5188    1.3828   -2.3908 O   0  0  0  0  0  0  0  0  0  0  0  0
   -2.7332   -1.6235   -7.0249 C   0  0  0  0  0  0  0  0  0  0  0  0
   -2.0269   -2.2747   -7.9049 N   0  0  0  0  0  0  0  0  0  0  0  0
   -0.7108   -2.1675   -7.8408 N   0  0  0  0  0  0  0  0  0  0  0  0
    0.1186   -2.2916   -6.7580 C   0  0  0  0  0  0  0  0  0  0  0  0
    1.1480   -1.5513   -7.0811 N   0  0  0  0  0  0  0  0  0  0  0  0
    1.0555   -1.1564   -8.3690 N   0  0  0  0  0  0  0  0  0  0  0  0
   -0.0393   -1.6550   -8.8900 N   0  0  0  0  0  0  0  0  0  0  0  0
   -0.2548   -2.7678   -5.3930 C   0  0  0  0  0  0  0  0  0  0  0  0
    1.5708    2.5540   -2.1356 O   0  0  0  0  0  0  0  0  0  0  0  0
  1  2  1  0
  2  3  2  0
  2  6  1  0
  3  4  1  0
  4  5  2  0
  5  6  1  0
  7  6  1  0
  7  8  2  3
  8  9  1  0
  9 10  2  0
  9 14  1  0
 10 11  1  0
 11 12  2  0
 12 13  1  0
 12 38  1  0
 13 14  2  0
 13 15  1  0
 15 16  1  0
 15 23  1  0
 16 17  2  0
 16 21  1  0
 17 18  1  0
 18 19  2  0
 19 20  1  0
 19 22  1  0
 20 21  2  0
 23 24  2  0
 23 28  1  0
 24 25  1  0
 25 26  2  0
 26 27  1  0
 27 28  2  0
 28 29  1  0
 30 25  1  0
 30 31  2  3
 31 32  1  0
 32 33  1  0
 32 36  1  0
 33 34  2  0
 33 37  1  0
 34 35  1  0
 35 36  2  0
M  END
>  <DRUGBANK_ID>  (1) 
DB12195

>  <COMMON_NAME>  (1) 
VP-14637

>  <CAS_NUMBER>  (1) 
235106-62-4

>  <UNII>  (1) 
HCW4G0O030

$$$$
