CKI
     RDKit          3D

 18 19  0  0  0  0  0  0  0  0999 V2000
   -1.2721   -1.3541    0.0718 C   0  0  0  0  0  0  0  0  0  0  0  0
   -2.4486   -0.7212   -0.1073 N   0  0  0  0  0  0  0  0  0  0  0  0
   -2.4118    0.6191   -0.1476 C   0  0  0  0  0  0  0  0  0  0  0  0
   -1.2758    1.3598    0.1001 C   0  0  0  0  0  0  0  0  0  0  0  0
    1.1825    1.4155    0.0859 C   0  0  0  0  0  0  0  0  0  0  0  0
    1.2583    3.1474    0.0946 Cl  0  0  0  0  0  0  0  0  0  0  0  0
    2.3875    0.7413   -0.0665 C   0  0  0  0  0  0  0  0  0  0  0  0
    2.3956   -0.6437   -0.1886 C   0  0  0  0  0  0  0  0  0  0  0  0
    1.2140   -1.3826   -0.0607 C   0  0  0  0  0  0  0  0  0  0  0  0
   -0.0240   -0.7141    0.0669 C   0  0  0  0  0  0  0  0  0  0  0  0
   -0.0378    0.7056    0.1129 C   0  0  0  0  0  0  0  0  0  0  0  0
    1.2433   -3.1636   -0.1333 S   0  0  0  0  0  0  0  0  0  0  0  0
    0.6188   -3.6733    1.0581 O   0  0  0  0  0  0  0  0  0  0  0  0
    0.7454   -3.5532   -1.4403 O   0  0  0  0  0  0  0  0  0  0  0  0
    2.8728   -3.6054   -0.0950 N   0  0  0  0  0  0  0  0  0  0  0  0
    3.7150   -3.2478    1.0744 C   0  0  0  0  0  0  0  0  0  0  0  0
    3.1995   -3.8326    2.3805 C   0  0  0  0  0  0  0  0  0  0  0  0
    3.1730   -5.2905    2.3005 N   0  0  0  0  0  0  0  0  0  0  0  0
  1  2  2  0
  1 10  1  0
  2  3  1  0
  3  4  2  0
  4 11  1  0
  5  6  1  0
  5  7  1  0
  5 11  2  0
  7  8  2  0
  8  9  1  0
  9 10  2  0
  9 12  1  0
 10 11  1  0
 12 13  2  0
 12 14  2  0
 12 15  1  0
 15 16  1  0
 16 17  1  0
 17 18  1  0
M  END
>  <DRUGBANK_ID>  (1) 
DB03693

>  <SECONDARY_ACCESSION_NUMBERS>  (1) 
EXPT00931

>  <COMMON_NAME>  (1) 
N-(2-Aminoethyl)-5-Chloroisoquinoline-8-Sulfonamide

>  <UNII>  (1) 
3IE84W82O5

$$$$
