
     RDKit          3D

 32 35  0  0  1  0  0  0  0  0999 V2000
    0.9906   -0.5222    0.2172 C   0  0  0  0  0  0  0  0  0  0  0  0
    1.5664    0.7596   -0.9736 O   0  0  0  0  0  0  0  0  0  0  0  0
    1.5087    1.9928   -1.8348 C   0  0  0  0  0  0  0  0  0  0  0  0
    0.3153    2.7912   -2.2900 C   0  0  0  0  0  0  0  0  0  0  0  0
    0.3887    4.1484   -2.4599 C   0  0  0  0  0  0  0  0  0  0  0  0
   -0.7100    4.8807   -2.7660 N   0  0  0  0  0  0  0  0  0  0  0  0
   -0.4908    6.1693   -3.0176 C   0  0  0  0  0  0  0  0  0  0  0  0
    0.6979    6.7643   -2.9227 N   0  0  0  0  0  0  0  0  0  0  0  0
    1.7490    6.0169   -2.4986 C   0  0  0  0  0  0  0  0  0  0  0  0
    3.0158    6.6179   -2.3630 N   0  0  0  0  0  0  0  0  0  0  0  0
    3.3201    7.9056   -2.7900 C   0  0  0  0  0  0  0  0  0  0  0  0
    4.1618    8.0995   -3.8866 C   0  0  0  0  0  0  0  0  0  0  0  0
    4.2075    9.3537   -4.4822 C   0  0  0  0  0  0  0  0  0  0  0  0
    3.6820   10.4576   -3.8096 C   0  0  0  0  0  0  0  0  0  0  0  0
    2.9612   10.2855   -2.6257 C   0  0  0  0  0  0  0  0  0  0  0  0
    2.5341   11.3955   -1.8696 C   0  0  0  0  0  0  0  0  0  0  0  0
    2.1996   12.3555   -1.1735 C   0  0  0  0  0  0  0  0  0  0  0  0
    2.6894    8.9974   -2.1932 C   0  0  0  0  0  0  0  0  0  0  0  0
    1.8591    8.7914   -1.1556 F   0  0  0  0  0  0  0  0  0  0  0  0
    1.6651    4.6583   -2.2416 C   0  0  0  0  0  0  0  0  0  0  0  0
    2.8105    3.8375   -1.8330 C   0  0  0  0  0  0  0  0  0  0  0  0
    2.7722    2.4765   -1.7023 C   0  0  0  0  0  0  0  0  0  0  0  0
    3.8012    1.7064   -1.1835 O   0  0  0  0  0  0  0  0  0  0  0  0
    3.3084    0.5533   -0.3486 C   0  0  2  0  0  0  0  0  0  0  0  0
    2.6353   -0.8019   -1.5616 C   0  0  0  0  0  0  0  0  0  0  0  0
    1.0149   -0.3731   -2.4275 C   0  0  0  0  0  0  0  0  0  0  0  0
   -0.3233    0.4931   -1.4292 N   0  0  0  0  0  0  0  0  0  0  0  0
   -1.2729   -0.5295   -1.0615 C   0  0  0  0  0  0  0  0  0  0  0  0
    0.2128    1.5968    0.0730 C   0  0  0  0  0  0  0  0  0  0  0  0
    2.0130    1.3833    0.8486 C   0  0  0  0  0  0  0  0  0  0  0  0
    1.9112    0.6309    2.0058 F   0  0  0  0  0  0  0  0  0  0  0  0
    2.5134    2.5616    1.3048 F   0  0  0  0  0  0  0  0  0  0  0  0
  1  2  1  0
  2  3  1  0
  3  4  2  0
  3 22  1  0
  4  5  1  0
  5  6  2  0
  5 20  1  0
  6  7  1  0
  7  8  2  0
  8  9  1  0
  9 10  1  0
  9 20  2  0
 10 11  1  0
 11 12  2  0
 11 18  1  0
 12 13  1  0
 13 14  2  0
 14 15  1  0
 15 16  1  0
 15 18  2  0
 16 17  3  0
 18 19  1  0
 20 21  1  0
 21 22  2  0
 22 23  1  0
 24 23  1  6
 24 25  1  0
 24 30  1  0
 25 26  1  0
 26 27  1  0
 27 28  1  0
 27 29  1  0
 29 30  1  0
 30 31  1  0
 30 32  1  0
M  END
>  <DRUGBANK_ID>  (1) 
DB17170

>  <COMMON_NAME>  (1) 
WSD-0922

>  <CAS_NUMBER>  (1) 
2226552-64-1

>  <UNII>  (1) 
UF6QZ5E1AY

>  <SYNONYMS>  (1) 
(r)-6-((3,3-difluoro-1-methylpiperidin-4-yl)oxy)-n-(3-ethynyl-2-fluorophenyl)-7-methoxyquinazolin-4-amine-

$$$$
