1179
     RDKit          3D

 30 34  0  0  1  0  0  0  0  0999 V2000
   -4.6086   -0.0530   -0.0455 O   0  0  0  0  0  0  0  0  0  0  0  0
   -1.1629   -2.6514   -0.6250 O   0  0  0  0  0  0  0  0  0  0  0  0
   -4.3583    2.1517    0.4599 O   0  0  0  0  0  0  0  0  0  0  0  0
    3.7274    1.1987   -0.1082 O   0  0  0  0  0  0  0  0  0  0  0  0
    3.7094   -1.1951    0.0890 O   0  0  0  0  0  0  0  0  0  0  0  0
    0.1118    1.6583   -4.7960 O   0  0  0  0  0  0  0  0  0  0  0  0
   -4.0199    3.8697   -3.4346 O   0  0  0  0  0  0  0  0  0  0  0  0
   -2.2156    3.1706   -5.4991 O   0  0  0  0  0  0  0  0  0  0  0  0
   -2.3726   -0.6359   -0.3620 C   0  0  1  0  0  0  0  0  0  0  0  0
   -2.4136    0.6710    0.3981 C   0  0  1  0  0  0  0  0  0  0  0  0
   -1.2458    1.5466   -0.1012 C   0  0  1  0  0  0  0  0  0  0  0  0
   -1.2352   -1.4806    0.1773 C   0  0  2  0  0  0  0  0  0  0  0  0
    0.0692    0.7483    0.0931 C   0  0  0  0  0  0  0  0  0  0  0  0
   -3.7608   -1.1937   -0.2199 C   0  0  0  0  0  0  0  0  0  0  0  0
    0.0681   -0.6849    0.1797 C   0  0  0  0  0  0  0  0  0  0  0  0
   -3.8617    1.0523    0.2460 C   0  0  0  0  0  0  0  0  0  0  0  0
   -1.4424    2.0147   -1.5448 C   0  0  0  0  0  0  0  0  0  0  0  0
    1.2988    1.4425    0.0417 C   0  0  0  0  0  0  0  0  0  0  0  0
    1.2915   -1.3777    0.2612 C   0  0  0  0  0  0  0  0  0  0  0  0
    2.4660    0.7077    0.0418 C   0  0  0  0  0  0  0  0  0  0  0  0
    2.4595   -0.6608    0.1515 C   0  0  0  0  0  0  0  0  0  0  0  0
   -2.5415    2.8259   -1.8418 C   0  0  0  0  0  0  0  0  0  0  0  0
   -0.6045    1.6481   -2.6043 C   0  0  0  0  0  0  0  0  0  0  0  0
   -0.8621    2.0676   -3.9133 C   0  0  0  0  0  0  0  0  0  0  0  0
   -2.8819    3.1761   -3.1416 C   0  0  0  0  0  0  0  0  0  0  0  0
   -2.0217    2.8212   -4.1921 C   0  0  0  0  0  0  0  0  0  0  0  0
    4.4583   -0.0298   -0.3113 C   0  0  0  0  0  0  0  0  0  0  0  0
   -0.0358    2.0678   -6.1483 C   0  0  0  0  0  0  0  0  0  0  0  0
   -4.9570    4.1760   -2.4172 C   0  0  0  0  0  0  0  0  0  0  0  0
   -3.3364    3.9432   -5.8714 C   0  0  0  0  0  0  0  0  0  0  0  0
  1 14  1  0
  1 16  1  0
  3 16  2  0
  4 20  1  0
  4 27  1  0
  5 21  1  0
  5 27  1  0
  6 24  1  0
  6 28  1  0
  7 25  1  0
  7 29  1  0
  8 26  1  0
  8 30  1  0
  9 10  1  0
  9 12  1  0
  9 14  1  1
 10 11  1  0
 10 16  1  6
 11 13  1  0
 11 17  1  6
 12 15  1  0
 12  2  1  6
 13 15  2  0
 13 18  1  0
 15 19  1  0
 17 22  2  0
 17 23  1  0
 18 20  2  0
 19 21  2  0
 20 21  1  0
 22 25  1  0
 23 24  2  0
 24 26  1  0
 25 26  2  0
M  END
>  <DRUGBANK_ID>  (1) 
DB01179

>  <SECONDARY_ACCESSION_NUMBERS>  (1) 
APRD01189; DB08417

>  <COMMON_NAME>  (1) 
Podofilox

>  <CAS_NUMBER>  (1) 
518-28-5

>  <UNII>  (1) 
L36H50F353

>  <SYNONYMS>  (1) 
(âˆ’)-podophyllotoxin; Podofilox; Podophyllinic acid lactone; Podophyllotoxin; PPT

$$$$
