
     RDKit          3D

 34 37  0  0  0  0  0  0  0  0999 V2000
    1.4070   -0.1629   -0.0363 C   0  0  0  0  0  0  0  0  0  0  0  0
    0.5649   -1.2660   -0.0576 C   0  0  0  0  0  0  0  0  0  0  0  0
   -0.8102   -1.0597   -0.0780 C   0  0  0  0  0  0  0  0  0  0  0  0
   -1.3364    0.2225   -0.0505 C   0  0  0  0  0  0  0  0  0  0  0  0
   -0.5127    1.3293    0.0263 C   0  0  0  0  0  0  0  0  0  0  0  0
    0.8685    1.1321   -0.0259 C   0  0  0  0  0  0  0  0  0  0  0  0
   -0.9746    2.6070    0.1982 O   0  0  0  0  0  0  0  0  0  0  0  0
   -2.3845    2.7360    0.4095 C   0  0  0  0  0  0  0  0  0  0  0  0
   -3.2249    2.4124   -0.8228 C   0  0  0  0  0  0  0  0  0  0  0  0
   -4.1496    1.6134   -0.8787 O   0  0  0  0  0  0  0  0  0  0  0  0
   -2.8120    3.0568   -1.9313 O   0  0  0  0  0  0  0  0  0  0  0  0
   -1.7834   -2.1672    0.0511 C   0  0  0  0  0  0  0  0  0  0  0  0
   -2.4752   -2.2321    1.3987 N   0  0  0  0  0  0  0  0  0  0  0  0
   -3.4256   -3.3830    1.3550 C   0  0  0  0  0  0  0  0  0  0  0  0
   -2.7279   -4.7223    1.3131 C   0  0  0  0  0  0  0  0  0  0  0  0
   -1.3355   -4.7807    1.4776 C   0  0  0  0  0  0  0  0  0  0  0  0
   -0.6272   -5.8975    1.8064 C   0  0  0  0  0  0  0  0  0  0  0  0
   -1.3026   -7.0789    1.6965 C   0  0  0  0  0  0  0  0  0  0  0  0
   -2.6630   -7.1162    1.3447 C   0  0  0  0  0  0  0  0  0  0  0  0
   -3.3892   -5.9304    1.1684 C   0  0  0  0  0  0  0  0  0  0  0  0
   -0.5418   -8.2413    1.7802 N   0  0  0  0  0  0  0  0  0  0  0  0
    0.3249   -8.5847    2.7877 C   0  0  0  0  0  0  0  0  0  0  0  0
    0.9062   -9.7663    2.3992 C   0  0  0  0  0  0  0  0  0  0  0  0
    0.4210   -9.9886    1.0995 C   0  0  0  0  0  0  0  0  0  0  0  0
   -0.4846   -9.0842    0.7303 N   0  0  0  0  0  0  0  0  0  0  0  0
   -1.5396   -1.9421    2.8663 S   0  0  0  0  0  0  0  0  0  0  0  0
   -0.6609   -3.0417    3.2421 O   0  0  0  0  0  0  0  0  0  0  0  0
   -0.9654   -0.6267    2.8129 O   0  0  0  0  0  0  0  0  0  0  0  0
   -2.7169   -1.9378    4.1638 C   0  0  0  0  0  0  0  0  0  0  0  0
   -3.1312   -3.1199    4.7869 C   0  0  0  0  0  0  0  0  0  0  0  0
   -3.8881   -3.0270    5.9466 C   0  0  0  0  0  0  0  0  0  0  0  0
   -4.1619   -1.7606    6.4422 C   0  0  0  0  0  0  0  0  0  0  0  0
   -3.7526   -0.6084    5.8624 N   0  0  0  0  0  0  0  0  0  0  0  0
   -3.0208   -0.7215    4.7345 C   0  0  0  0  0  0  0  0  0  0  0  0
  1  2  2  0
  1  6  1  0
  2  3  1  0
  3  4  2  0
  3 12  1  0
  4  5  1  0
  5  6  2  0
  5  7  1  0
  7  8  1  0
  8  9  1  0
  9 10  2  0
  9 11  1  0
 12 13  1  0
 13 14  1  0
 13 26  1  0
 14 15  1  0
 15 16  2  0
 15 20  1  0
 16 17  1  0
 17 18  2  0
 18 19  1  0
 18 21  1  0
 19 20  2  0
 21 22  1  0
 21 25  1  0
 22 23  2  0
 23 24  1  0
 24 25  2  0
 26 27  2  0
 26 28  2  0
 26 29  1  0
 29 30  2  0
 29 34  1  0
 30 31  1  0
 31 32  2  0
 32 33  1  0
 33 34  2  0
M  END
>  <DRUGBANK_ID>  (1) 
DB12623

>  <COMMON_NAME>  (1) 
Taprenepag

>  <CAS_NUMBER>  (1) 
752187-80-7

>  <UNII>  (1) 
9CD894KUMJ

>  <SYNONYMS>  (1) 
Taprenepag

$$$$
