L0D
     RDKit          3D

 14 16  0  0  0  0  0  0  0  0999 V2000
    1.0574   -0.6100   -0.0297 C   0  0  0  0  0  0  0  0  0  0  0  0
    1.0135    0.7632   -0.0647 C   0  0  0  0  0  0  0  0  0  0  0  0
   -0.3614    1.0855    0.0148 C   0  0  0  0  0  0  0  0  0  0  0  0
   -1.1228   -0.0127    0.0816 N   0  0  0  0  0  0  0  0  0  0  0  0
   -0.2418   -1.0234    0.0239 N   0  0  0  0  0  0  0  0  0  0  0  0
   -0.9120    2.4713    0.0229 C   0  0  0  0  0  0  0  0  0  0  0  0
   -1.7418    2.9681    0.9206 N   0  0  0  0  0  0  0  0  0  0  0  0
   -1.9155    4.2836    0.5691 C   0  0  0  0  0  0  0  0  0  0  0  0
   -2.6595    5.2905    1.2003 C   0  0  0  0  0  0  0  0  0  0  0  0
   -2.7211    6.5558    0.6021 C   0  0  0  0  0  0  0  0  0  0  0  0
   -2.0468    6.8161   -0.5941 C   0  0  0  0  0  0  0  0  0  0  0  0
   -1.2782    5.8314   -1.2257 C   0  0  0  0  0  0  0  0  0  0  0  0
   -1.2307    4.5822   -0.6045 C   0  0  0  0  0  0  0  0  0  0  0  0
   -0.5867    3.4149   -0.9166 N   0  0  0  0  0  0  0  0  0  0  0  0
  1  2  2  0
  1  5  1  0
  2  3  1  0
  3  4  2  0
  3  6  1  0
  4  5  1  0
  6  7  2  0
  6 14  1  0
  7  8  1  0
  8  9  2  0
  8 13  1  0
  9 10  1  0
 10 11  2  0
 11 12  1  0
 12 13  2  0
 13 14  1  0
M  END
>  <DRUGBANK_ID>  (1) 
DB08065

>  <COMMON_NAME>  (1) 
2-(1H-pyrazol-3-yl)-1H-benzimidazole

>  <UNII>  (1) 
C26MF22L5F

$$$$
