
     RDKit          3D

 10 11  0  0  0  0  0  0  0  0999 V2000
   -0.2536   -0.7144    0.0647 C   0  0  0  0  0  0  0  0  0  0  0  0
   -1.6306   -1.1517    0.0795 C   0  0  0  0  0  0  0  0  0  0  0  0
   -2.3932   -0.0170   -0.0023 N   0  0  0  0  0  0  0  0  0  0  0  0
   -1.5895    1.1502   -0.0740 O   0  0  0  0  0  0  0  0  0  0  0  0
   -0.3170    0.6112   -0.0326 C   0  0  0  0  0  0  0  0  0  0  0  0
   -2.0056   -2.3089    0.1439 O   0  0  0  0  0  0  0  0  0  0  0  0
    0.9093    1.4686   -0.0765 C   0  0  0  0  0  0  0  0  0  0  0  0
    2.1086    0.6990    0.3334 N   0  0  0  0  0  0  0  0  0  0  0  0
    2.1504   -0.6037   -0.3594 C   0  0  0  0  0  0  0  0  0  0  0  0
    0.9866   -1.5077    0.0903 C   0  0  0  0  0  0  0  0  0  0  0  0
  1  2  1  0
  1  5  2  0
  1 10  1  0
  2  3  1  0
  2  6  2  0
  3  4  1  0
  4  5  1  0
  5  7  1  0
  7  8  1  0
  8  9  1  0
  9 10  1  0
M  END
>  <DRUGBANK_ID>  (1) 
DB06554

>  <COMMON_NAME>  (1) 
Gaboxadol

>  <CAS_NUMBER>  (1) 
64603-91-4

>  <UNII>  (1) 
K1M5RVL18S

>  <SYNONYMS>  (1) 
4,5,6,7-tetrahydroisoxazolo(5,4-c)pyridin-3-ol; Gaboxadol; THIP

$$$$
