
     RDKit          3D

  9  9  0  0  0  0  0  0  0  0999 V2000
    0.8099   -0.0933   -0.0764 O   0  0  0  0  0  0  0  0  0  0  0  0
    0.3135    1.1392    0.1431 C   0  0  0  0  0  0  0  0  0  0  0  0
    1.0958    2.0668    0.2856 O   0  0  0  0  0  0  0  0  0  0  0  0
   -1.2045    1.1793    0.1438 C   0  0  0  0  0  0  0  0  0  0  0  0
   -1.7367    1.5513    1.5295 C   0  0  0  0  0  0  0  0  0  0  0  0
   -1.3971    2.9267    1.8918 N   0  0  0  0  0  0  0  0  0  0  0  0
   -1.9387    3.8843    0.9288 C   0  0  0  0  0  0  0  0  0  0  0  0
   -1.4600    3.6074   -0.4981 C   0  0  0  0  0  0  0  0  0  0  0  0
   -1.7298    2.1598   -0.9098 C   0  0  0  0  0  0  0  0  0  0  0  0
  1  2  1  0
  2  3  2  0
  2  4  1  0
  4  5  1  0
  5  6  1  0
  6  7  1  0
  7  8  1  0
  8  9  1  0
  9  4  1  0
M  END
>  <DRUGBANK_ID>  (1) 
DB08849

>  <COMMON_NAME>  (1) 
Nipecotic acid

>  <CAS_NUMBER>  (1) 
498-95-3

>  <UNII>  (1) 
1U1QTN40SY

$$$$
