
     RDKit          3D

 21 18  0  0  0  0  0  0  0  0999 V2000
    2.5312    0.1529    1.3640 Zn  0  0  0  0  0 15  0  0  0  0  0  0
    1.9991   -0.9312   -0.7565 C   0  0  0  0  0  0  0  0  0  0  0  0
    0.8343   -0.4100   -2.0223 C   0  0  0  0  0  0  0  0  0  0  0  0
   -0.4303    0.1503   -2.2430 C   0  0  0  0  0  0  0  0  0  0  0  0
   -1.5486   -0.3618   -3.2109 C   0  0  0  0  0  0  0  0  0  0  0  0
   -2.7343   -0.0721   -3.0648 O   0  0  0  0  0  0  0  0  0  0  0  0
   -1.1029   -1.2850   -4.0994 O   0  0  0  0  0  0  0  0  0  0  0  0
   -1.9764   -1.7739   -5.1873 C   0  0  0  0  0  0  0  0  0  0  0  0
   -3.0161   -2.9537   -5.0907 C   0  0  0  0  0  0  0  0  0  0  0  0
    1.6953   -1.3051    0.4489 O   0  0  0  0  0  0  0  0  0  0  0  0
    3.1912   -0.5120   -0.8059 O   0  0  0  0  0  0  0  0  0  0  0  0
   -0.1358    0.6944    0.5885 C   0  0  0  0  0  0  0  0  0  0  0  0
   -0.6192   -0.8797    0.1714 C   0  0  0  0  0  0  0  0  0  0  0  0
   -1.8652   -1.3359    0.0397 C   0  0  0  0  0  0  0  0  0  0  0  0
   -2.2141   -2.3669   -0.9553 C   0  0  0  0  0  0  0  0  0  0  0  0
   -3.4202   -2.3649   -1.3366 O   0  0  0  0  0  0  0  0  0  0  0  0
   -1.2234   -3.1301   -1.5275 O   0  0  0  0  0  0  0  0  0  0  0  0
   -1.6663   -3.7377   -2.7463 C   0  0  0  0  0  0  0  0  0  0  0  0
   -2.7359   -4.7864   -2.5291 C   0  0  0  0  0  0  0  0  0  0  0  0
   -1.0152    1.4167    1.0901 O   0  0  0  0  0  0  0  0  0  0  0  0
    1.1170    1.0115    0.5418 O   0  0  0  0  0  0  0  0  0  0  0  0
  3  2  1  0
  4  3  2  0
  5  4  1  0
  6  5  2  0
  7  5  1  0
  8  7  1  0
  9  8  1  0
 10  2  1  0
 11  2  2  0
 13 12  1  0
 14 13  2  0
 15 14  1  0
 16 15  2  0
 17 15  1  0
 18 17  1  0
 19 18  1  0
 20 12  1  0
 21 12  2  0
M  CHG  3   1   2  10  -1  20  -1
M  END
>  <DRUGBANK_ID>  (1) 
DB15818

>  <COMMON_NAME>  (1) 
Zinc monoethylfumarate

>  <CAS_NUMBER>  (1) 
62008-21-3

>  <UNII>  (1) 
M1U6WWM55B

>  <SYNONYMS>  (1) 
Ethyl fumarate zinc; Ethyl hydrogenfumarate-zinc; Monoethyl fumarate zinc salt; Zinc di(ethyl fumarate); Zinc ethyl fumarate; Zinc monoethylfumarate

$$$$
