
     RDKit          3D

 29 30  0  0  0  0  0  0  0  0999 V2000
    8.5704    1.6421   -2.4750 P   0  0  0  0  0  0  0  0  0  0  0  0
    5.2106    4.4390    3.2181 O   0  0  0  0  0  0  0  0  0  0  0  0
    4.9010    6.1794    5.1315 O   0  0  0  0  0  0  0  0  0  0  0  0
    3.4176    7.5318    2.1719 O   0  0  0  0  0  0  0  0  0  0  0  0
    7.7832    6.7429   -0.2956 O   0  0  0  0  0  0  0  0  0  0  0  0
   10.1185    2.0503   -2.6406 O   0  0  0  0  0  0  0  0  0  0  0  0
    6.3729    1.6302   -1.1315 O   0  0  0  0  0  0  0  0  0  0  0  0
    3.3381   10.0796    3.3468 O   0  0  0  0  0  0  0  0  0  0  0  0
    6.6013    0.6971    2.9564 O   0  0  0  0  0  0  0  0  0  0  0  0
    7.8819    0.4340   -3.3025 O   0  0  0  0  0  0  0  0  0  0  0  0
    8.3146    2.2514   -3.9317 O   0  0  0  0  0  0  0  0  0  0  0  0
    8.8158    0.5385   -1.4896 O   0  0  0  0  0  0  0  0  0  0  0  0
    7.3472    5.0944    1.3423 N   0  0  0  0  0  0  0  0  0  0  0  0
    7.7853    4.4298   -0.7388 N   0  0  0  0  0  0  0  0  0  0  0  0
    6.9822    2.8574    2.3177 N   0  0  0  0  0  0  0  0  0  0  0  0
    7.3626    1.1073    0.8666 N   0  0  0  0  0  0  0  0  0  0  0  0
    6.9336    5.9614    2.3934 C   0  0  0  0  0  0  0  0  0  0  0  0
    5.4555    5.7713    2.7622 C   0  0  2  0  0  0  0  0  0  0  0  0
    5.1223    6.7981    3.8560 C   0  0  1  0  0  0  0  0  0  0  0  0
    7.2936    3.7297    1.3211 C   0  0  0  0  0  0  0  0  0  0  0  0
    7.4859    3.3403    0.0613 C   0  0  0  0  0  0  0  0  0  0  0  0
    7.6652    5.5776    0.0612 C   0  0  0  0  0  0  0  0  0  0  0  0
    8.2743    4.5568   -2.0841 C   0  0  0  0  0  0  0  0  0  0  0  0
    3.9214    7.7093    3.5059 C   0  0  1  0  0  0  0  0  0  0  0  0
    9.8168    4.4361   -2.2169 C   0  0  0  0  0  0  0  0  0  0  0  0
    7.0351    1.9558   -0.1468 C   0  0  0  0  0  0  0  0  0  0  0  0
    4.3756    9.1665    3.6693 C   0  0  0  0  0  0  0  0  0  0  0  0
    6.9816    1.4868    2.1265 C   0  0  0  0  0  0  0  0  0  0  0  0
   10.4402    3.1201   -1.7347 C   0  0  0  0  0  0  0  0  0  0  0  0
  1  6  1  0
  1 10  1  0
  1 11  1  0
  1 12  2  0
  5 22  2  0
  6 29  1  0
  7 26  2  0
  8 27  1  0
  9 28  2  0
 13 17  1  0
 13 20  1  0
 13 22  1  0
 14 21  1  0
 14 22  1  0
 14 23  1  0
 15 20  1  0
 15 28  1  0
 16 26  1  0
 16 28  1  0
 17 18  1  0
 18  2  1  1
 19 18  1  0
 19  3  1  1
 20 21  2  0
 21 26  1  0
 23 25  1  0
 24 27  1  0
 24 19  1  0
 24  4  1  6
 25 29  1  0
M  END
>  <DRUGBANK_ID>  (1) 
DB03022

>  <SECONDARY_ACCESSION_NUMBERS>  (1) 
EXPT02990

>  <COMMON_NAME>  (1) 
3-[2,6,8-Trioxo-9-[(2R,3S,4R)-2,3,4,5-tetrahydroxypentyl]-3H-purin-7-yl]propyl dihydrogen phosphate

$$$$
