
     RDKit          3D

 30 32  0  0  0  0  0  0  0  0999 V2000
    2.3236    0.9488    0.0334 F   0  0  0  0  0  0  0  0  0  0  0  0
   -2.4358    0.7267   -0.0841 F   0  0  0  0  0  0  0  0  0  0  0  0
   -9.0020    6.1366    2.4277 O   0  0  0  0  0  0  0  0  0  0  0  0
   -8.1772    6.2207   -0.5540 O   0  0  0  0  0  0  0  0  0  0  0  0
  -11.6575    7.4654   -0.9904 N   0  0  0  0  0  0  0  0  0  0  0  0
   -4.1233    3.7207    2.1768 N   0  0  0  0  0  0  0  0  0  0  0  0
   -0.0488    2.3830    0.1438 N   0  0  0  0  0  0  0  0  0  0  0  0
   -3.5507    4.5597    0.0116 N   0  0  0  0  0  0  0  0  0  0  0  0
   -1.4086    4.0331   -0.9180 N   0  0  0  0  0  0  0  0  0  0  0  0
   -9.3774    6.7893   -0.0054 C   0  0  1  0  0  0  0  0  0  0  0  0
  -10.4258    6.6666   -1.1379 C   0  0  0  0  0  0  0  0  0  0  0  0
   -9.8629    6.1024    1.3010 C   0  0  0  0  0  0  0  0  0  0  0  0
  -12.4604    7.3598   -2.2083 C   0  0  0  0  0  0  0  0  0  0  0  0
  -12.4996    7.0612    0.1308 C   0  0  0  0  0  0  0  0  0  0  0  0
   -7.9403    5.3006    2.4120 C   0  0  0  0  0  0  0  0  0  0  0  0
   -5.4165    4.2361    2.2163 C   0  0  0  0  0  0  0  0  0  0  0  0
   -7.6670    4.3822    1.4033 C   0  0  0  0  0  0  0  0  0  0  0  0
   -7.0249    5.5488    3.4253 C   0  0  0  0  0  0  0  0  0  0  0  0
   -6.3788    3.9110    1.2579 C   0  0  0  0  0  0  0  0  0  0  0  0
   -5.7643    5.0009    3.3306 C   0  0  0  0  0  0  0  0  0  0  0  0
   -3.2885    3.7364    1.0426 C   0  0  0  0  0  0  0  0  0  0  0  0
   -2.1273    3.0294    1.1164 C   0  0  0  0  0  0  0  0  0  0  0  0
   -1.2070    3.1797    0.1012 C   0  0  0  0  0  0  0  0  0  0  0  0
   -0.0484    0.9634    0.0015 C   0  0  0  0  0  0  0  0  0  0  0  0
    1.1668    0.2667    0.0135 C   0  0  0  0  0  0  0  0  0  0  0  0
   -1.2157    0.1750   -0.0325 C   0  0  0  0  0  0  0  0  0  0  0  0
   -2.5923    4.6613   -0.9183 C   0  0  0  0  0  0  0  0  0  0  0  0
    1.2203   -1.1316    0.0082 C   0  0  0  0  0  0  0  0  0  0  0  0
   -1.1775   -1.2184   -0.0309 C   0  0  0  0  0  0  0  0  0  0  0  0
    0.0428   -1.8774   -0.0029 C   0  0  0  0  0  0  0  0  0  0  0  0
  1 25  1  0
  2 26  1  0
  3 12  1  0
  3 15  1  0
  5 11  1  0
  5 13  1  0
  5 14  1  0
  6 16  1  0
  6 21  1  0
  7 23  1  0
  7 24  1  0
  8 21  2  0
  8 27  1  0
  9 23  1  0
  9 27  2  0
 10  4  1  6
 10 11  1  0
 10 12  1  0
 15 17  2  0
 15 18  1  0
 16 19  2  0
 16 20  1  0
 17 19  1  0
 18 20  2  0
 21 22  1  0
 22 23  2  0
 24 25  2  0
 24 26  1  0
 25 28  1  0
 26 29  2  0
 28 30  2  0
 29 30  1  0
M  END
>  <DRUGBANK_ID>  (1) 
DB07751

>  <COMMON_NAME>  (1) 
(2S)-1-[4-({6-[(2,6-Difluorophenyl)amino]-4-pyrimidinyl}amino)phenoxy]-3-(dimethylamino)-2-propanol

$$$$
