
     RDKit          3D

 20 19  0  0  0  0  0  0  0  0999 V2000
    1.0153    0.1838   -0.0382 C   0  0  0  0  0  0  0  0  0  0  0  0
    0.5671   -0.9959   -0.8852 C   0  0  0  0  0  0  0  0  0  0  0  0
    1.0656   -2.3069   -0.2758 C   0  0  0  0  0  0  0  0  0  0  0  0
    0.5139   -2.5046    1.1405 C   0  0  0  0  0  0  0  0  0  0  0  0
   -1.0187   -2.5189    1.1260 C   0  0  0  0  0  0  0  0  0  0  0  0
   -1.5237   -3.6763    0.2597 C   0  0  0  0  0  0  0  0  0  0  0  0
   -1.0161   -5.0046    0.8281 C   0  0  0  0  0  0  0  0  0  0  0  0
   -1.5276   -5.1770    2.2616 C   0  0  0  0  0  0  0  0  0  0  0  0
   -3.0590   -5.1741    2.2595 C   0  0  0  0  0  0  0  0  0  0  0  0
   -3.5659   -6.3252    1.3864 C   0  0  0  0  0  0  0  0  0  0  0  0
   -3.0465   -7.6532    1.9466 C   0  0  0  0  0  0  0  0  0  0  0  0
   -3.5575   -7.8402    3.3784 C   0  0  0  0  0  0  0  0  0  0  0  0
   -5.0879   -7.8413    3.3779 C   0  0  0  0  0  0  0  0  0  0  0  0
   -5.5987   -8.9803    2.4894 C   0  0  0  0  0  0  0  0  0  0  0  0
   -5.1889  -10.3378    3.0615 C   0  0  0  0  0  0  0  0  0  0  0  0
   -5.6929  -10.5348    4.4903 C   0  0  0  0  0  0  0  0  0  0  0  0
   -7.4868  -10.4868    4.6274 S   0  0  0  0  0  0  0  0  0  0  0  0
   -7.7951  -11.7331    3.6426 O   0  0  0  0  0  0  0  0  0  0  0  0
   -7.8561  -10.8668    5.9762 O   0  0  0  0  0  0  0  0  0  0  0  0
   -8.0396   -9.3105    4.0105 O   0  0  0  0  0  0  0  0  0  0  0  0
  1  2  1  0
  2  3  1  0
  3  4  1  0
  4  5  1  0
  5  6  1  0
  6  7  1  0
  7  8  1  0
  8  9  1  0
  9 10  1  0
 10 11  1  0
 11 12  1  0
 12 13  1  0
 13 14  1  0
 14 15  1  0
 15 16  1  0
 16 17  1  0
 17 18  1  0
 17 19  2  0
 17 20  2  0
M  END
>  <DRUGBANK_ID>  (1) 
DB02776

>  <SECONDARY_ACCESSION_NUMBERS>  (1) 
EXPT01716

>  <COMMON_NAME>  (1) 
1-Hexadecanosulfonic Acid

>  <CAS_NUMBER>  (1) 
15015-81-3

>  <UNII>  (1) 
84694Z0M9P

$$$$
