
     RDKit          3D

  8  7  0  0  0  0  0  0  0  0999 V2000
    0.9261   -0.0098    0.0092 C   0  0  0  0  0  0  0  0  0  0  0  0
    0.4266    0.8846   -1.1149 N   0  0  0  0  0  0  0  0  0  0  0  0
    0.9465    0.3691   -2.4489 C   0  0  0  0  0  0  0  0  0  0  0  0
   -1.1050    0.8498   -1.1516 C   0  0  0  0  0  0  0  0  0  0  0  0
    0.9231    2.3469   -0.8755 C   0  0  0  0  0  0  0  0  0  0  0  0
    0.4274    2.9748    0.4316 C   0  0  0  0  0  0  0  0  0  0  0  0
    1.3767    3.2475    1.3475 O   0  0  0  0  0  0  0  0  0  0  0  0
   -0.7620    3.1320    0.6773 O   0  0  0  0  0  0  0  0  0  0  0  0
  1  2  1  0
  2  3  1  0
  2  4  1  0
  2  5  1  0
  5  6  1  0
  6  7  1  0
  6  8  2  0
M  CHG  1   2   1
M  END
>  <DRUGBANK_ID>  (1) 
DB04455

>  <SECONDARY_ACCESSION_NUMBERS>  (1) 
EXPT00674

>  <COMMON_NAME>  (1) 
N,N,N-trimethylglycinium

$$$$
