RPN
     RDKit          3D

 15 15  0  0  0  0  0  0  0  0999 V2000
    0.9817   -2.3030    1.1070 C   0  0  0  0  0  0  0  0  0  0  0  0
    0.5368   -1.5016   -0.1466 C   0  0  2  0  0  0  0  0  0  0  0  0
    1.0873   -0.1865   -0.0650 O   0  0  0  0  0  0  0  0  0  0  0  0
   -0.9792   -1.4862   -0.2810 C   0  0  0  0  0  0  0  0  0  0  0  0
    0.4818   -1.7593    2.3958 N   0  0  0  0  0  0  0  0  0  0  0  0
   -0.7406   -1.6668    2.5897 N   0  0  0  0  0  0  0  0  0  0  0  0
   -1.8649   -1.5678    2.7986 N   0  0  0  0  0  0  0  0  0  0  0  0
   -1.6789   -2.7114   -0.2443 C   0  0  0  0  0  0  0  0  0  0  0  0
   -3.0626   -2.7383   -0.0668 C   0  0  0  0  0  0  0  0  0  0  0  0
   -3.7620   -1.5310    0.0364 C   0  0  0  0  0  0  0  0  0  0  0  0
   -3.0841   -0.3067    0.0060 C   0  0  0  0  0  0  0  0  0  0  0  0
   -1.7050   -0.2849   -0.2053 C   0  0  0  0  0  0  0  0  0  0  0  0
   -5.2236   -1.5421    0.1367 N   0  0  0  0  0  0  0  0  0  0  0  0
   -5.8054   -0.4492    0.1925 O   0  0  0  0  0  0  0  0  0  0  0  0
   -5.7940   -2.6422    0.1145 O   0  0  0  0  0  0  0  0  0  0  0  0
  1  5  1  0
  2  4  1  0
  2  3  1  1
  2  1  1  0
  4  8  2  0
  4 12  1  0
  5  6  2  0
  6  7  2  0
  8  9  1  0
  9 10  2  0
 10 11  1  0
 10 13  1  0
 11 12  2  0
 13 14  1  0
 13 15  2  0
M  CHG  4   6   1   7  -1  13   1  14  -1
M  END
>  <DRUGBANK_ID>  (1) 
DB04472

>  <SECONDARY_ACCESSION_NUMBERS>  (1) 
EXPT02812

>  <COMMON_NAME>  (1) 
(R)-1-Para-Nitro-Phenyl-2-Azido-Ethanol

$$$$
