11N
     RDKit          3D

 26 29  0  0  0  0  0  0  0  0999 V2000
    1.3479    1.5821   -0.0348 C   0  0  0  0  0  0  0  0  0  0  0  0
    2.7649    1.6717   -0.0460 C   0  0  0  0  0  0  0  0  0  0  0  0
    3.5408    0.4963   -0.0130 C   0  0  0  0  0  0  0  0  0  0  0  0
   -0.7251   -0.0552   -0.0151 C   0  0  0  0  0  0  0  0  0  0  0  0
   -0.5385   -1.6063    0.0117 C   0  0  0  0  0  0  0  0  0  0  0  0
   -1.5261    0.3781   -1.2921 C   0  0  0  0  0  0  0  0  0  0  0  0
   -2.9535   -0.1560    1.1526 C   0  0  0  0  0  0  0  0  0  0  0  0
    3.4519    3.0174   -0.0965 C   0  0  0  0  0  0  0  0  0  0  0  0
   -4.6034    1.4645   -0.0009 C   0  0  0  0  0  0  0  0  0  0  0  0
   -4.8562    1.8654    2.5159 C   0  0  0  0  0  0  0  0  0  0  0  0
   -6.7821    2.6255    3.9416 C   0  0  0  0  0  0  0  0  0  0  0  0
   -6.3028    3.3892    6.1893 C   0  0  0  0  0  0  0  0  0  0  0  0
   -4.5350    2.5222    4.8303 C   0  0  0  0  0  0  0  0  0  0  0  0
    2.9200   -0.7494    0.0199 C   0  0  0  0  0  0  0  0  0  0  0  0
    1.5336   -0.7958    0.0161 C   0  0  0  0  0  0  0  0  0  0  0  0
    0.7303    0.3360   -0.0107 C   0  0  0  0  0  0  0  0  0  0  0  0
    0.8525   -1.9766    0.0317 O   0  0  0  0  0  0  0  0  0  0  0  0
   -3.0296    0.0064   -1.2271 C   0  0  0  0  0  0  0  0  0  0  0  0
   -3.6227    0.4729    0.0272 N   0  0  0  0  0  0  0  0  0  0  0  0
   -1.5157    0.3779    1.2540 C   0  0  0  0  0  0  0  0  0  0  0  0
    3.0726    3.7551   -1.2949 N   0  0  0  0  0  0  0  0  0  0  0  0
   -5.0514    1.8965   -1.0610 O   0  0  0  0  0  0  0  0  0  0  0  0
   -5.2147    2.0549    1.2446 C   0  0  0  0  0  0  0  0  0  0  0  0
   -5.4265    2.3804    3.7535 C   0  0  0  0  0  0  0  0  0  0  0  0
   -7.2062    3.1961    5.1404 C   0  0  0  0  0  0  0  0  0  0  0  0
   -4.9791    2.9855    6.0589 C   0  0  0  0  0  0  0  0  0  0  0  0
  1  2  2  0
  1 16  1  0
  2  3  1  0
  2  8  1  0
  3 14  2  0
  4  5  1  0
  4  6  1  0
  4 16  1  0
  4 20  1  0
  5 17  1  0
  6 18  1  0
  7 19  1  0
  7 20  1  0
  8 21  1  0
  9 19  1  0
  9 22  2  0
  9 23  1  0
 10 23  2  0
 10 24  1  0
 11 24  2  0
 11 25  1  0
 12 25  2  0
 12 26  1  0
 13 24  1  0
 13 26  2  0
 14 15  1  0
 15 16  2  0
 15 17  1  0
 18 19  1  0
M  END
>  <DRUGBANK_ID>  (1) 
DB06849

>  <COMMON_NAME>  (1) 
1-[1'-(3-phenylacryloyl)spiro[1-benzofuran-3,4'-piperidin]-5-yl]methanamine

$$$$
