
     RDKit          3D

 24 27  0  0  0  0  0  0  0  0999 V2000
   -3.2696    0.3170   -1.6237 C   0  0  0  0  0  0  0  0  0  0  0  0
   -2.0883   -0.8563   -1.2468 C   0  0  0  0  0  0  0  0  0  0  0  0
   -2.3017   -1.9318   -0.0783 C   0  0  0  0  0  0  0  0  0  0  0  0
   -1.6230   -3.0896    0.4641 C   0  0  0  0  0  0  0  0  0  0  0  0
   -2.7007   -2.3852    2.4641 C   0  0  0  0  0  0  0  0  0  0  0  0
   -3.7730   -1.5439    1.8646 C   0  0  0  0  0  0  0  0  0  0  0  0
   -3.8009   -1.6925    0.2522 C   0  0  1  0  0  0  0  0  0  0  0  0
   -7.3795    0.0525   -0.1815 C   0  0  0  0  0  0  0  0  0  0  0  0
   -7.0678    3.1173   -1.3340 C   0  0  0  0  0  0  0  0  0  0  0  0
   -5.8223    2.1936   -1.0817 C   0  0  0  0  0  0  0  0  0  0  0  0
   -4.8954   -0.6348   -0.1336 C   0  0  1  0  0  0  0  0  0  0  0  0
   -5.8637    0.8618   -1.9081 C   0  0  1  0  0  0  0  0  0  0  0  0
   -4.7567   -0.1229   -1.5150 C   0  0  1  0  0  0  0  0  0  0  0  0
   -7.3975    0.6575   -1.8716 C   0  0  2  0  0  0  0  0  0  0  0  0
   -7.4848    2.4241   -2.6278 C   0  0  1  0  0  0  0  0  0  0  0  0
   -2.7579   -3.5067    1.4602 C   0  0  0  0  0  0  0  0  0  0  0  0
   -3.5657   -4.3427    1.2878 O   0  0  0  0  0  0  0  0  0  0  0  0
   -6.3376   -1.1433    0.0686 C   0  0  0  0  0  0  0  0  0  0  0  0
   -8.1600    3.7760   -3.5978 C   0  0  0  0  0  0  0  0  0  0  0  0
   -9.2109    3.6852   -4.2423 O   0  0  0  0  0  0  0  0  0  0  0  0
   -6.3083    2.6324   -3.6066 O   0  0  0  0  0  0  0  0  0  0  0  0
   -4.1439   -2.8299   -0.7996 C   0  0  0  0  0  0  0  0  0  0  0  0
   -8.1196   -0.7008   -2.3922 C   0  0  0  0  0  0  0  0  0  0  0  0
   -7.1847    5.1735   -3.9723 C   0  0  0  0  0  0  0  0  0  0  0  0
  1  2  1  0
  2  3  1  0
  3  4  2  0
  3  7  1  0
  4 16  1  0
  5  6  1  0
  6  7  1  0
  7 11  1  0
  7 22  1  1
  8 14  1  0
  9 10  1  0
 12 10  1  1
 11 18  1  6
 13  1  1  1
 13 11  1  0
 13 12  1  0
 14 15  1  0
 14 12  1  0
 14 23  1  6
 15  9  1  0
 15 19  1  0
 15 21  1  6
 16  5  1  0
 16 17  2  0
 18  8  1  0
 19 20  2  0
 19 24  1  0
M  END
>  <DRUGBANK_ID>  (1) 
DB14570

>  <COMMON_NAME>  (1) 
Hydroxyprogesterone

>  <CAS_NUMBER>  (1) 
68-96-2

>  <UNII>  (1) 
21807M87J2

>  <SYNONYMS>  (1) 
17-Hydroxypregn-4-en-3,20-dione; 17-hydroxyprogesterone; 17alpha-hydroxyprogesterone; 17Î±-hydroxyprogesterone; delta(4)-Pregnene-17alpha-ol-3,20-dione; Hidroxiprogesterona; Hydroxyprogesterone; Hydroxyprogesteronum; Pregn-4-ene-3,20-dione-17-ol

$$$$
