
     RDKit          3D

 13 14  0  0  0  0  0  0  0  0999 V2000
    1.0378   -0.0868    0.0681 N   0  0  0  0  0  0  0  0  0  0  0  0
    0.3941   -0.8765   -0.8981 C   0  0  0  0  0  0  0  0  0  0  0  0
    0.8690   -2.1840   -1.0553 C   0  0  0  0  0  0  0  0  0  0  0  0
    0.2039   -3.1024   -1.8636 C   0  0  0  0  0  0  0  0  0  0  0  0
   -0.9995   -2.7474   -2.4547 C   0  0  0  0  0  0  0  0  0  0  0  0
   -1.3898   -1.4051   -2.4556 C   0  0  0  0  0  0  0  0  0  0  0  0
   -0.6785   -0.4544   -1.7101 C   0  0  0  0  0  0  0  0  0  0  0  0
   -1.0358    0.9759   -1.8623 C   0  0  0  0  0  0  0  0  0  0  0  0
   -0.4323    1.8700   -1.2687 O   0  0  0  0  0  0  0  0  0  0  0  0
   -2.0534    1.2837   -2.7355 N   0  0  0  0  0  0  0  0  0  0  0  0
   -2.7808    0.3266   -3.4201 N   0  0  0  0  0  0  0  0  0  0  0  0
   -2.5134   -1.0104   -3.3245 C   0  0  0  0  0  0  0  0  0  0  0  0
   -3.1600   -1.8416   -3.9633 O   0  0  0  0  0  0  0  0  0  0  0  0
  1  2  1  0
  2  3  2  0
  2  7  1  0
  3  4  1  0
  4  5  2  0
  5  6  1  0
  6  7  2  0
  6 12  1  0
  7  8  1  0
  8  9  2  0
  8 10  1  0
 10 11  1  0
 11 12  1  0
 12 13  2  0
M  END
>  <DRUGBANK_ID>  (1) 
DB18536

>  <COMMON_NAME>  (1) 
Luminol

>  <CAS_NUMBER>  (1) 
521-31-3

>  <UNII>  (1) 
5EXP385Q4F

>  <SYNONYMS>  (1) 
3-aminophthalic hydrazide; 5-amino-2,3-dihydro-1,4-phthalazinedione; O-aminophthaloyl hydrazide; O-aminophthalylhydrazide

$$$$
