
     RDKit          3D

 23 24  0  0  1  0  0  0  0  0999 V2000
   -1.2831    1.1677   -0.9955 C   0  0  0  0  0  0  0  0  0  0  0  0
    0.1966    1.3035   -1.2899 C   0  0  2  0  0  0  0  0  0  0  0  0
    0.7762    2.8836   -1.1159 C   0  0  2  0  0  0  0  0  0  0  0  0
    2.4345    3.0295   -1.4541 C   0  0  1  0  0  0  0  0  0  0  0  0
    2.7721    2.1535   -2.6734 C   0  0  2  0  0  0  0  0  0  0  0  0
    2.1467    0.7010   -2.5766 C   0  0  2  0  0  0  0  0  0  0  0  0
    0.6916    0.7584   -2.5079 O   0  0  0  0  0  0  0  0  0  0  0  0
    2.8329   -0.2815   -1.6527 O   0  0  0  0  0  0  0  0  0  0  0  0
    3.0850   -0.2481   -0.2913 C   0  0  0  0  0  0  0  0  0  0  0  0
    2.6946    0.6329    0.6320 C   0  0  0  0  0  0  0  0  0  0  0  0
    2.9905    0.5867    2.0050 C   0  0  2  0  0  0  0  0  0  0  0  0
    3.6945   -0.6354    1.9830 O   0  0  0  0  0  0  0  0  0  0  0  0
    3.6998   -1.1717    0.6801 C   0  0  0  0  0  0  0  0  0  0  0  0
    4.1497   -2.2676    0.4004 O   0  0  0  0  0  0  0  0  0  0  0  0
    1.6147    0.7236    2.7511 C   0  0  2  0  0  0  0  0  0  0  0  0
    1.8838    1.3217    4.1310 C   0  0  0  0  0  0  0  0  0  0  0  0
    1.1958    2.5664    4.3151 O   0  0  0  0  0  0  0  0  0  0  0  0
    0.9250   -0.5231    2.6848 O   0  0  0  0  0  0  0  0  0  0  0  0
    1.9273    1.6232    0.4004 O   0  0  0  0  0  0  0  0  0  0  0  0
    4.1849    2.0564   -2.8828 O   0  0  0  0  0  0  0  0  0  0  0  0
    2.9229    4.3609   -1.4308 O   0  0  0  0  0  0  0  0  0  0  0  0
    0.4743    3.3948    0.2051 O   0  0  0  0  0  0  0  0  0  0  0  0
   -1.9656    2.0511   -1.8462 O   0  0  0  0  0  0  0  0  0  0  0  0
  1 23  1  0
  2  3  1  0
  2  7  1  0
  2  1  1  6
  3  4  1  0
  3 22  1  1
  4  5  1  0
  4 21  1  6
  5  6  1  0
  5 20  1  1
  6  7  1  0
  6  8  1  1
  8  9  1  0
  9 10  2  0
  9 13  1  0
 10 11  1  0
 10 19  1  0
 11 12  1  6
 11 15  1  0
 12 13  1  0
 13 14  2  0
 15 18  1  1
 15 16  1  0
 16 17  1  0
M  END
>  <DRUGBANK_ID>  (1) 
DB11335

>  <COMMON_NAME>  (1) 
Ascorbyl glucoside

>  <CAS_NUMBER>  (1) 
129499-78-1

>  <UNII>  (1) 
2V52R0NHXW

>  <SYNONYMS>  (1) 
AA-2G; AA2G; Ascorbic acid 2-O-glucoside

$$$$
