
     RDKit          3D

 25 28  0  0  0  0  0  0  0  0999 V2000
    9.5446    4.4069   -8.1531 F   0  0  0  0  0  0  0  0  0  0  0  0
    3.6686    1.2030    0.0360 F   0  0  0  0  0  0  0  0  0  0  0  0
    5.9048    0.2985   -8.2834 O   0  0  0  0  0  0  0  0  0  0  0  0
    7.6259   -1.3235   -8.3282 O   0  0  0  0  0  0  0  0  0  0  0  0
    3.8557    1.2768   -5.0813 O   0  0  0  0  0  0  0  0  0  0  0  0
    3.9050    5.3061   -2.8071 O   0  0  0  0  0  0  0  0  0  0  0  0
    5.5641    2.7353   -5.2413 N   0  0  0  0  0  0  0  0  0  0  0  0
    3.5410    4.6594   -4.0161 N   0  0  0  0  0  0  0  0  0  0  0  0
    5.4120    2.6675   -6.7631 C   0  0  0  0  0  0  0  0  0  0  0  0
    6.5420    2.5303   -7.7008 C   0  0  0  0  0  0  0  0  0  0  0  0
    5.9626    2.4299   -3.6241 C   0  0  0  0  0  0  0  0  0  0  0  0
    6.8680    1.2681   -8.1904 C   0  0  0  0  0  0  0  0  0  0  0  0
    4.8351    2.9595   -2.9272 C   0  0  0  0  0  0  0  0  0  0  0  0
    8.1971    1.0249   -8.4497 C   0  0  0  0  0  0  0  0  0  0  0  0
    4.2478    2.4575   -5.0072 C   0  0  0  0  0  0  0  0  0  0  0  0
    4.0077    3.4561   -3.9495 C   0  0  0  0  0  0  0  0  0  0  0  0
    7.3530    3.6419   -7.9204 C   0  0  0  0  0  0  0  0  0  0  0  0
    8.6414   -0.3825   -8.6681 C   0  0  0  0  0  0  0  0  0  0  0  0
    6.3780    1.4073   -2.6911 C   0  0  0  0  0  0  0  0  0  0  0  0
    9.1093    2.0918   -8.4068 C   0  0  0  0  0  0  0  0  0  0  0  0
    4.0729    2.6508   -1.7525 C   0  0  0  0  0  0  0  0  0  0  0  0
    8.6696    3.3971   -8.2085 C   0  0  0  0  0  0  0  0  0  0  0  0
    6.3844   -0.9103   -8.8825 C   0  0  0  0  0  0  0  0  0  0  0  0
    5.6254    1.0097   -1.3825 C   0  0  0  0  0  0  0  0  0  0  0  0
    4.4360    1.5980   -0.9951 C   0  0  0  0  0  0  0  0  0  0  0  0
  1 22  1  0
  2 25  1  0
  3 12  1  0
  3 23  1  0
  4 18  1  0
  4 23  1  0
  5 15  2  0
  6  8  1  0
  7  9  1  0
  7 11  1  0
  7 15  1  0
  8 16  2  0
  9 10  1  0
 10 12  1  0
 10 17  2  0
 11 13  2  0
 11 19  1  0
 12 14  2  0
 13 16  1  0
 13 21  1  0
 14 18  1  0
 14 20  1  0
 15 16  1  0
 17 22  1  0
 19 24  2  0
 20 22  2  0
 21 25  2  0
 24 25  1  0
M  END
>  <DRUGBANK_ID>  (1) 
DB08011

>  <COMMON_NAME>  (1) 
(3E)-5-fluoro-1-[(6-fluoro-4H-1,3-benzodioxin-8-yl)methyl]-1H-indole-2,3-dione 3-oxime

$$$$
