IFA
     RDKit          3D

 25 26  0  0  0  0  0  0  0  0999 V2000
    2.3481    0.9433    0.0069 F   0  0  0  0  0  0  0  0  0  0  0  0
    1.2043    0.2430    0.0321 C   0  0  0  0  0  0  0  0  0  0  0  0
    0.0005    0.9404    0.0141 C   0  0  0  0  0  0  0  0  0  0  0  0
   -1.1913    0.2302   -0.0012 C   0  0  0  0  0  0  0  0  0  0  0  0
   -2.3552    0.8919   -0.0112 F   0  0  0  0  0  0  0  0  0  0  0  0
   -1.1981   -1.1592   -0.0060 C   0  0  0  0  0  0  0  0  0  0  0  0
    0.0135   -1.8514    0.0200 C   0  0  0  0  0  0  0  0  0  0  0  0
    1.2403   -1.1580    0.0442 C   0  0  0  0  0  0  0  0  0  0  0  0
    2.5044   -1.9019    0.0060 C   0  0  0  0  0  0  0  0  0  0  0  0
    3.4811   -1.8094    1.0268 C   0  0  0  0  0  0  0  0  0  0  0  0
    2.7425   -2.7372   -1.0899 C   0  0  0  0  0  0  0  0  0  0  0  0
    3.8920   -3.4903   -1.1544 C   0  0  0  0  0  0  0  0  0  0  0  0
    4.2252   -4.6597   -2.8913 I   0  0  0  0  0  0  0  0  0  0  0  0
    4.7936   -3.4944   -0.0858 C   0  0  0  0  0  0  0  0  0  0  0  0
    5.7286   -4.4839   -0.2873 O   0  0  0  0  0  0  0  0  0  0  0  0
    4.6599   -2.6007    1.0264 C   0  0  0  0  0  0  0  0  0  0  0  0
    5.6014   -2.3085    2.2384 C   0  0  0  0  0  0  0  0  0  0  0  0
    5.2455   -1.5115    3.1078 O   0  0  0  0  0  0  0  0  0  0  0  0
    6.8616   -2.8759    2.4041 N   0  0  0  0  0  0  0  0  0  0  0  0
    7.5033   -3.6799    1.4327 C   0  0  0  0  0  0  0  0  0  0  0  0
    8.7398   -3.3579    0.6588 C   0  0  0  0  0  0  0  0  0  0  0  0
    9.8667   -3.4126    1.5999 C   0  0  0  0  0  0  0  0  0  0  0  0
    9.8601   -2.7003    2.6154 O   0  0  0  0  0  0  0  0  0  0  0  0
   10.8543   -4.2931    1.3678 O   0  0  0  0  0  0  0  0  0  0  0  0
   10.8739   -5.1330    0.2032 C   0  0  0  0  0  0  0  0  0  0  0  0
  1  2  1  0
  2  3  2  0
  2  8  1  0
  3  4  1  0
  4  5  1  0
  4  6  2  0
  6  7  1  0
  7  8  2  0
  8  9  1  0
  9 10  2  0
  9 11  1  0
 10 16  1  0
 11 12  2  0
 12 13  1  0
 12 14  1  0
 14 16  2  0
 14 15  1  0
 16 17  1  0
 17 18  2  0
 17 19  1  0
 19 20  1  0
 20 21  1  0
 21 22  1  0
 22 24  1  0
 22 23  2  0
 24 25  1  0
M  END
>  <DRUGBANK_ID>  (1) 
DB07962

>  <COMMON_NAME>  (1) 
METHYL N-[(2',4'-DIFLUORO-4-HYDROXY-5-IODOBIPHENYL-3-YL)CARBONYL]-BETA-ALANINATE

$$$$
