
     RDKit          3D

 34 38  0  0  0  0  0  0  0  0999 V2000
    0.7689    0.0554   -0.3101 C   0  0  0  0  0  0  0  0  0  0  0  0
    0.3914    0.9800   -1.4160 C   0  0  0  0  0  0  0  0  0  0  0  0
    0.7431    2.2761   -1.2378 N   0  0  0  0  0  0  0  0  0  0  0  0
    0.2456    2.8811   -2.2829 C   0  0  0  0  0  0  0  0  0  0  0  0
   -0.3031    1.9763   -3.1556 N   0  0  0  0  0  0  0  0  0  0  0  0
   -0.2051    0.7141   -2.6042 N   0  0  0  0  0  0  0  0  0  0  0  0
   -0.7483    2.2893   -4.5218 C   0  0  0  0  0  0  0  0  0  0  0  0
    0.0597    1.6553   -5.6635 C   0  0  0  0  0  0  0  0  0  0  0  0
   -2.2413    2.0767   -4.7654 C   0  0  0  0  0  0  0  0  0  0  0  0
    0.3732    4.3258   -2.4425 C   0  0  0  0  0  0  0  0  0  0  0  0
    1.5863    4.9611   -2.3527 C   0  0  0  0  0  0  0  0  0  0  0  0
    1.2792    6.2626   -2.5900 N   0  0  0  0  0  0  0  0  0  0  0  0
   -0.0890    6.3835   -2.7221 C   0  0  0  0  0  0  0  0  0  0  0  0
   -0.6484    5.1885   -2.7206 N   0  0  0  0  0  0  0  0  0  0  0  0
   -0.7277    7.6376   -3.1066 C   0  0  0  0  0  0  0  0  0  0  0  0
   -1.7721    8.0811   -2.2941 C   0  0  0  0  0  0  0  0  0  0  0  0
   -2.5566    9.1520   -2.6968 C   0  0  0  0  0  0  0  0  0  0  0  0
   -2.2597    9.8374   -3.8805 C   0  0  0  0  0  0  0  0  0  0  0  0
   -1.1089    9.5185   -4.5981 C   0  0  0  0  0  0  0  0  0  0  0  0
   -0.3487    8.4018   -4.2353 C   0  0  0  0  0  0  0  0  0  0  0  0
    0.7413    8.2003   -5.0546 O   0  0  0  0  0  0  0  0  0  0  0  0
    1.5840    7.0859   -4.7528 C   0  0  0  0  0  0  0  0  0  0  0  0
    2.1392    7.1797   -3.3218 C   0  0  0  0  0  0  0  0  0  0  0  0
   -3.1227   10.9050   -4.3076 C   0  0  0  0  0  0  0  0  0  0  0  0
   -3.8893   11.1479   -5.4575 C   0  0  0  0  0  0  0  0  0  0  0  0
   -4.5870   12.2912   -5.3712 N   0  0  0  0  0  0  0  0  0  0  0  0
   -4.2626   12.7869   -4.1395 N   0  0  0  0  0  0  0  0  0  0  0  0
   -3.3967   11.9634   -3.4889 C   0  0  0  0  0  0  0  0  0  0  0  0
   -4.8328   14.0766   -3.6760 C   0  0  0  0  0  0  0  0  0  0  0  0
   -4.4237   15.1918   -4.6599 C   0  0  0  0  0  0  0  0  0  0  0  0
   -6.3722   13.9802   -3.6548 C   0  0  0  0  0  0  0  0  0  0  0  0
   -4.3446   14.4783   -2.2435 C   0  0  0  0  0  0  0  0  0  0  0  0
   -3.5906   13.8587   -1.5145 O   0  0  0  0  0  0  0  0  0  0  0  0
   -4.7916   15.6516   -1.7059 N   0  0  0  0  0  0  0  0  0  0  0  0
  1  2  1  0
  2  3  1  0
  2  6  2  0
  3  4  2  0
  4  5  1  0
  4 10  1  0
  5  6  1  0
  5  7  1  0
  7  8  1  0
  7  9  1  0
 10 11  2  0
 10 14  1  0
 11 12  1  0
 12 13  1  0
 12 23  1  0
 13 14  2  0
 13 15  1  0
 15 16  2  0
 15 20  1  0
 16 17  1  0
 17 18  2  0
 18 19  1  0
 18 24  1  0
 19 20  2  0
 20 21  1  0
 21 22  1  0
 22 23  1  0
 24 25  1  0
 24 28  2  0
 25 26  2  0
 26 27  1  0
 27 28  1  0
 27 29  1  0
 29 30  1  0
 29 31  1  0
 29 32  1  0
 32 33  2  0
 32 34  1  0
M  END
>  <DRUGBANK_ID>  (1) 
DB12108

>  <COMMON_NAME>  (1) 
Taselisib

>  <CAS_NUMBER>  (1) 
1282512-48-4

>  <UNII>  (1) 
L08J2O299M

>  <SYNONYMS>  (1) 
Taselisib

$$$$
