TNL
     RDKit          3D

 16 16  0  0  0  0  0  0  0  0999 V2000
    1.0627    0.0210    0.0027 C   0  0  0  0  0  0  0  0  0  0  0  0
    2.5710   -0.0456   -0.0138 C   0  0  0  0  0  0  0  0  0  0  0  0
    0.3255    1.2418    0.0037 C   0  0  0  0  0  0  0  0  0  0  0  0
    0.9435    2.6016    0.0015 N   0  0  0  0  0  0  0  0  0  0  0  0
    0.1768    3.5720   -0.0088 O   0  0  0  0  0  0  0  0  0  0  0  0
    2.1712    2.7162    0.0108 O   0  0  0  0  0  0  0  0  0  0  0  0
   -1.0905    1.2262    0.0000 C   0  0  0  0  0  0  0  0  0  0  0  0
   -1.7914    0.0173   -0.0084 C   0  0  0  0  0  0  0  0  0  0  0  0
   -3.2646    0.0284   -0.0372 N   0  0  0  0  0  0  0  0  0  0  0  0
   -3.8458   -1.0638   -0.0513 O   0  0  0  0  0  0  0  0  0  0  0  0
   -3.8286    1.1299   -0.0500 O   0  0  0  0  0  0  0  0  0  0  0  0
   -1.1021   -1.1957   -0.0003 C   0  0  0  0  0  0  0  0  0  0  0  0
    0.3112   -1.2024    0.0046 C   0  0  0  0  0  0  0  0  0  0  0  0
    0.9562   -2.5533    0.0036 N   0  0  0  0  0  0  0  0  0  0  0  0
    0.2082   -3.5389   -0.0012 O   0  0  0  0  0  0  0  0  0  0  0  0
    2.1884   -2.6366    0.0071 O   0  0  0  0  0  0  0  0  0  0  0  0
  1  2  1  0
  1  3  2  0
  1 13  1  0
  3  4  1  0
  3  7  1  0
  4  5  2  0
  4  6  1  0
  7  8  2  0
  8  9  1  0
  8 12  1  0
  9 10  2  0
  9 11  1  0
 12 13  2  0
 13 14  1  0
 14 15  2  0
 14 16  1  0
M  CHG  6   4   1   6  -1   9   1  11  -1  14   1  16  -1
M  END
>  <DRUGBANK_ID>  (1) 
DB01676

>  <SECONDARY_ACCESSION_NUMBERS>  (1) 
EXPT03079

>  <COMMON_NAME>  (1) 
Trinitrotoluene

>  <CAS_NUMBER>  (1) 
118-96-7

>  <UNII>  (1) 
H43RF5TRM5

>  <SYNONYMS>  (1) 
2,4,6-TNT; 2,4,6-trinitrotoluene; 2,4,6-trinitrotoluol; TNT; Î±-TNT

$$$$
