
     RDKit          3D

 27 28  0  0  0  0  0  0  0  0999 V2000
   -2.1077   -0.0388   -0.0244 Cl  0  0  0  0  0  0  0  0  0  0  0  0
    4.1923   -0.0425    0.2527 S   0  0  0  0  0  0  0  0  0  0  0  0
    8.1247    0.9846   -2.6650 O   0  0  0  0  0  0  0  0  0  0  0  0
    3.7078    3.4225   -1.0838 O   0  0  0  0  0  0  0  0  0  0  0  0
    4.8516    1.9778   -2.2830 N   0  0  0  0  0  0  0  0  0  0  0  0
    7.2177    1.6335   -4.5753 N   0  0  0  0  0  0  0  0  0  0  0  0
    3.6090    1.5050   -8.6956 N   0  0  0  0  0  0  0  0  0  0  0  0
    2.8520   -0.5358   -9.6787 N   0  0  0  0  0  0  0  0  0  0  0  0
    3.0867    1.2888  -10.9026 N   0  0  0  0  0  0  0  0  0  0  0  0
    5.6969    0.8227   -2.6500 C   0  0  0  0  0  0  0  0  0  0  0  0
    4.8800   -0.2193   -3.4106 C   0  0  0  0  0  0  0  0  0  0  0  0
    4.4033    0.2653   -4.7514 C   0  0  0  0  0  0  0  0  0  0  0  0
    7.0917    1.1433   -3.3036 C   0  0  0  0  0  0  0  0  0  0  0  0
    3.8931   -0.6603   -5.6263 C   0  0  0  0  0  0  0  0  0  0  0  0
    4.4416    1.6072   -5.1756 C   0  0  0  0  0  0  0  0  0  0  0  0
    4.4070    2.4085   -1.0874 C   0  0  0  0  0  0  0  0  0  0  0  0
    3.4855   -0.2218   -6.8749 C   0  0  0  0  0  0  0  0  0  0  0  0
    4.1941    1.9982   -6.4750 C   0  0  0  0  0  0  0  0  0  0  0  0
    3.7492    1.0620   -7.3788 C   0  0  0  0  0  0  0  0  0  0  0  0
    4.7936    1.6885    0.1723 C   0  0  0  0  0  0  0  0  0  0  0  0
    2.4188    0.0422    0.0766 C   0  0  0  0  0  0  0  0  0  0  0  0
    1.6759    1.2226    0.0528 C   0  0  0  0  0  0  0  0  0  0  0  0
    1.7262   -1.1780    0.0142 C   0  0  0  0  0  0  0  0  0  0  0  0
    3.2015    0.7636   -9.6750 C   0  0  0  0  0  0  0  0  0  0  0  0
    0.2812    1.1986   -0.0098 C   0  0  0  0  0  0  0  0  0  0  0  0
    0.3271   -1.2091   -0.0270 C   0  0  0  0  0  0  0  0  0  0  0  0
   -0.3896   -0.0168   -0.0282 C   0  0  0  0  0  0  0  0  0  0  0  0
  1 27  1  0
  2 20  1  0
  2 21  1  0
  3 13  2  0
  4 16  2  0
  5 16  1  0
  6 13  1  0
  7 19  1  0
  7 24  2  3
  8 24  1  0
  9 24  1  0
 10  5  1  0
 10 11  1  0
 10 13  1  0
 11 12  1  0
 12 14  2  0
 12 15  1  0
 14 17  1  0
 15 18  2  0
 16 20  1  0
 17 19  2  0
 18 19  1  0
 21 22  2  0
 21 23  1  0
 22 25  1  0
 23 26  2  0
 25 27  2  0
 26 27  1  0
M  END
>  <DRUGBANK_ID>  (1) 
DB07105

>  <COMMON_NAME>  (1) 
2-[2-(4-Chloro-Phenylsulfanyl)-Acetylamino]-3-(4-Guanidino-Phenyl)-Propionamide

$$$$
