
     RDKit          3D

 26 28  0  0  0  0  0  0  0  0999 V2000
   -1.0046    1.0698    0.0512 S   0  0  0  0  0  0  0  0  0  0  0  0
   -0.5375    7.4263   -1.0409 O   0  0  0  0  0  0  0  0  0  0  0  0
    2.5453   -0.4373   -0.0090 O   0  0  0  0  0  0  0  0  0  0  0  0
   -1.9027   -1.3873    0.0120 O   0  0  0  0  0  0  0  0  0  0  0  0
    0.3615   -1.0795   -0.0433 N   0  0  0  0  0  0  0  0  0  0  0  0
   -0.2445    5.9391    3.0699 N   0  0  0  0  0  0  0  0  0  0  0  0
    0.8108    1.2545    0.0291 C   0  0  0  0  0  0  0  0  0  0  0  0
    1.2978    2.0532   -1.1780 C   0  0  0  0  0  0  0  0  0  0  0  0
    0.8054    3.4741   -1.1595 C   0  0  0  0  0  0  0  0  0  0  0  0
    1.3546   -0.1506   -0.0138 C   0  0  0  0  0  0  0  0  0  0  0  0
    1.1387    4.2775   -0.0750 C   0  0  0  0  0  0  0  0  0  0  0  0
    0.0515    4.0205   -2.2042 C   0  0  0  0  0  0  0  0  0  0  0  0
   -1.0661    7.5243    1.4362 C   0  0  0  0  0  0  0  0  0  0  0  0
   -0.0204    6.1581   -1.0640 C   0  0  0  0  0  0  0  0  0  0  0  0
   -0.4038    8.1417    0.1866 C   0  0  0  0  0  0  0  0  0  0  0  0
    0.7585    5.6067   -0.0541 C   0  0  0  0  0  0  0  0  0  0  0  0
   -0.3252    5.3698   -2.1722 C   0  0  0  0  0  0  0  0  0  0  0  0
   -0.1680    7.2084    2.5927 C   0  0  0  0  0  0  0  0  0  0  0  0
   -0.9285   -0.6647    0.0012 C   0  0  0  0  0  0  0  0  0  0  0  0
    1.6276    6.4254    4.5279 C   0  0  0  0  0  0  0  0  0  0  0  0
    0.7873    8.1197    3.0223 C   0  0  0  0  0  0  0  0  0  0  0  0
    2.5612    5.9691    5.6166 C   0  0  0  0  0  0  0  0  0  0  0  0
    1.6896    7.7204    4.0083 C   0  0  0  0  0  0  0  0  0  0  0  0
    0.6510    5.5776    4.0144 C   0  0  0  0  0  0  0  0  0  0  0  0
    1.7979    5.5595    6.8690 C   0  0  0  0  0  0  0  0  0  0  0  0
   -2.2619    7.2453    1.4819 O   0  0  0  0  0  0  0  0  0  0  0  0
  1  7  1  0
  1 19  1  0
  2 14  1  0
  2 15  1  0
  3 10  2  0
  4 19  2  0
  5 10  1  0
  5 19  1  0
  6 18  2  0
  6 24  1  0
  7  8  1  0
  7 10  1  0
  8  9  1  0
  9 11  2  0
  9 12  1  0
 11 16  1  0
 12 17  2  0
 13 15  1  0
 13 18  1  0
 13 26  2  0
 14 16  2  0
 14 17  1  0
 18 21  1  0
 20 22  1  0
 20 23  1  0
 20 24  2  0
 21 23  2  0
 22 25  1  0
M  END
>  <DRUGBANK_ID>  (1) 
DB11721

>  <COMMON_NAME>  (1) 
Mitoglitazone

>  <CAS_NUMBER>  (1) 
146062-49-9

>  <UNII>  (1) 
29I7RP18RG

>  <SYNONYMS>  (1) 
MSDC-0160

$$$$
