
     RDKit          3D

 27 30  0  0  1  0  0  0  0  0999 V2000
    1.1214   -0.0188   -0.0276 C   0  0  0  0  0  0  0  0  0  0  0  0
    0.6303   -0.1427   -1.4668 C   0  0  1  0  0  0  0  0  0  0  0  0
    1.2077    0.9184   -2.3453 C   0  0  0  0  0  0  0  0  0  0  0  0
    1.6148    0.3994   -3.5079 C   0  0  0  0  0  0  0  0  0  0  0  0
    1.3527   -1.0695   -3.5216 C   0  0  0  0  0  0  0  0  0  0  0  0
    1.0367   -1.4159   -2.1038 N   0  0  0  0  0  0  0  0  0  0  0  0
    2.2802    1.0422   -4.5864 C   0  0  0  0  0  0  0  0  0  0  0  0
    3.4875    1.6953   -4.4637 C   0  0  0  0  0  0  0  0  0  0  0  0
    3.9315    2.3942   -5.9588 S   0  0  0  0  0  0  0  0  0  0  0  0
    2.5111    1.7558   -6.6755 C   0  0  0  0  0  0  0  0  0  0  0  0
    1.7218    1.0852   -5.8496 N   0  0  0  0  0  0  0  0  0  0  0  0
    2.0266    1.9485   -8.3488 S   0  0  0  0  0  0  0  0  0  0  0  0
    3.3193    2.7869   -9.1524 C   0  0  0  0  0  0  0  0  0  0  0  0
    4.6004    2.4130   -9.4120 C   0  0  0  0  0  0  0  0  0  0  0  0
    5.1673    3.3190  -10.2757 N   0  0  0  0  0  0  0  0  0  0  0  0
    4.3244    4.5074  -10.3906 C   0  0  2  0  0  0  0  0  0  0  0  0
    2.9520    3.9795  -10.0421 C   0  0  1  0  0  0  0  0  0  0  0  0
    2.1269    3.4231  -11.1987 C   0  0  0  0  0  0  0  0  0  0  0  0
    4.9254    4.7979  -11.8144 C   0  0  2  0  0  0  0  0  0  0  0  0
    6.1927    3.8347  -11.0126 C   0  0  0  0  0  0  0  0  0  0  0  0
    7.3345    3.4946  -11.0250 O   0  0  0  0  0  0  0  0  0  0  0  0
    4.7730    6.3152  -12.2536 C   0  0  1  0  0  0  0  0  0  0  0  0
    4.2108    6.4049  -13.7150 C   0  0  0  0  0  0  0  0  0  0  0  0
    3.7773    6.9755  -11.4319 O   0  0  0  0  0  0  0  0  0  0  0  0
    5.1372    1.1133   -8.9126 C   0  0  0  0  0  0  0  0  0  0  0  0
    4.5244    0.0555   -8.8843 O   0  0  0  0  0  0  0  0  0  0  0  0
    6.3151    1.2116   -8.2730 O   0  0  0  0  0  0  0  0  0  0  0  0
  2  1  1  1
  2  3  1  0
  2  6  1  0
  3  4  2  0
  4  5  1  0
  4  7  1  0
  5  6  1  0
  7  8  2  0
  7 11  1  0
  8  9  1  0
  9 10  1  0
 10 11  2  0
 10 12  1  0
 12 13  1  0
 13 14  2  0
 13 17  1  0
 14 15  1  0
 14 25  1  0
 15 20  1  0
 16 15  1  6
 16 17  1  0
 16 19  1  0
 17 18  1  6
 19 20  1  1
 19 22  1  0
 20 21  2  0
 22 23  1  6
 22 24  1  0
 25 26  2  0
 25 27  1  0
M  END
>  <DRUGBANK_ID>  (1) 
DB12587

>  <COMMON_NAME>  (1) 
Razupenem

>  <CAS_NUMBER>  (1) 
426253-04-5

>  <UNII>  (1) 
26020H3Q1L

>  <SYNONYMS>  (1) 
Razupenem

$$$$
