
     RDKit          3D

 30 31  0  0  0  0  0  0  0  0999 V2000
    9.1909   -0.0370    2.6435 C   0  0  0  0  0  0  0  0  0  0  0  0
    8.6093   -0.4886    3.9752 C   0  0  0  0  0  0  0  0  0  0  0  0
    7.1699   -0.5072    3.9487 O   0  0  0  0  0  0  0  0  0  0  0  0
    6.5923    0.7182    3.8342 C   0  0  0  0  0  0  0  0  0  0  0  0
    7.1975    1.7820    3.7657 O   0  0  0  0  0  0  0  0  0  0  0  0
    5.0880    0.6517    3.8331 C   0  0  2  0  0  0  0  0  0  0  0  0
    4.6195    1.4518    2.6072 C   0  0  0  0  0  0  0  0  0  0  0  0
    4.6137    1.2005    5.2372 C   0  0  0  0  0  0  0  0  0  0  0  0
    3.0790    1.3415    5.3648 C   0  0  2  0  0  0  0  0  0  0  0  0
    2.6898    2.5494    4.5552 N   0  0  0  0  0  0  0  0  0  0  0  0
    1.5346    3.2178    4.4445 C   0  0  0  0  0  0  0  0  0  0  0  0
    1.4015    4.2951    3.8169 O   0  0  0  0  0  0  0  0  0  0  0  0
    0.5175    2.6669    5.2706 C   0  0  0  0  0  0  0  0  0  0  0  0
    0.0515    1.2562    4.8588 C   0  0  0  0  0  0  0  0  0  0  0  0
    0.8717    0.0011    4.4770 C   0  0  0  0  0  0  0  0  0  0  0  0
    1.4257   -0.9097    5.3200 O   0  0  0  0  0  0  0  0  0  0  0  0
    1.1483   -0.1779    3.2942 O   0  0  0  0  0  0  0  0  0  0  0  0
    2.4352    1.1184    7.0010 C   0  0  0  0  0  0  0  0  0  0  0  0
    0.8194    0.9350    7.5909 C   0  0  0  0  0  0  0  0  0  0  0  0
    0.0031   -0.2561    7.4869 C   0  0  0  0  0  0  0  0  0  0  0  0
   -1.3967   -0.2032    7.3177 C   0  0  0  0  0  0  0  0  0  0  0  0
   -2.0553    1.0231    7.2826 C   0  0  0  0  0  0  0  0  0  0  0  0
   -3.4645    1.0347    6.9600 C   0  0  0  0  0  0  0  0  0  0  0  0
   -4.2267    0.3569    7.9117 C   0  0  0  0  0  0  0  0  0  0  0  0
   -5.5941    0.4361    7.9080 C   0  0  0  0  0  0  0  0  0  0  0  0
   -6.2181    1.1836    6.9183 C   0  0  0  0  0  0  0  0  0  0  0  0
   -5.4746    1.8107    5.9085 C   0  0  0  0  0  0  0  0  0  0  0  0
   -4.0843    1.6919    5.8876 C   0  0  0  0  0  0  0  0  0  0  0  0
   -1.3384    2.1708    7.6296 C   0  0  0  0  0  0  0  0  0  0  0  0
    0.0625    2.1140    7.8960 C   0  0  0  0  0  0  0  0  0  0  0  0
  2  1  1  0
  3  2  1  0
  4  3  1  0
  4  5  2  0
  6  8  1  0
  6  7  1  6
  6  4  1  0
  9 18  1  1
  9 10  1  0
  9  8  1  0
 11 10  1  0
 11 12  2  0
 11 13  1  0
 13 14  1  0
 15 14  1  0
 15 16  1  0
 15 17  2  0
 19 18  1  0
 19 20  2  0
 20 21  1  0
 22 21  2  0
 22 23  1  0
 22 29  1  0
 23 24  2  0
 23 28  1  0
 25 24  1  0
 26 25  2  0
 27 26  1  0
 28 27  2  0
 29 30  2  0
 30 19  1  0
M  END
>  <DRUGBANK_ID>  (1) 
DB09292

>  <COMMON_NAME>  (1) 
Sacubitril

>  <CAS_NUMBER>  (1) 
149709-62-6

>  <UNII>  (1) 
17ERJ0MKGI

>  <SYNONYMS>  (1) 
Sacubitril; Sacubitrilo

$$$$
