
     RDKit          3D

 15 15  0  0  1  0  0  0  0  0999 V2000
    0.8235   -0.3433    0.1981 C   0  0  0  0  0  0  0  0  0  0  0  0
    0.4257   -1.0798   -1.0525 N   0  0  0  0  0  0  0  0  0  0  0  0
    0.9847   -2.4863   -0.8804 C   0  0  0  0  0  0  0  0  0  0  0  0
   -1.0735   -1.0664   -1.1392 C   0  0  0  0  0  0  0  0  0  0  0  0
    1.1183   -0.4612   -2.4075 C   0  0  1  0  0  0  0  0  0  0  0  0
    0.7181    1.0118   -2.7099 C   0  0  0  0  0  0  0  0  0  0  0  0
    1.1311    2.1182   -1.7769 C   0  0  0  0  0  0  0  0  0  0  0  0
    0.6928    3.3930   -1.7147 C   0  0  0  0  0  0  0  0  0  0  0  0
    1.1297    3.9559   -0.5353 N   0  0  0  0  0  0  0  0  0  0  0  0
    1.8769    3.0120    0.1695 C   0  0  0  0  0  0  0  0  0  0  0  0
    2.4232    3.0810    1.7200 S   0  0  0  0  0  0  0  0  0  0  0  0
    1.9721    1.9398   -0.7034 N   0  0  0  0  0  0  0  0  0  0  0  0
    2.6795   -0.5855   -2.5310 C   0  0  0  0  0  0  0  0  0  0  0  0
    3.0687   -1.3798   -3.4346 O   0  0  0  0  0  0  0  0  0  0  0  0
    3.3340   -0.0077   -1.6226 O   0  0  0  0  0  0  0  0  0  0  0  0
  1  2  1  0
  2  3  1  0
  2  4  1  0
  5  2  1  0
  5  6  1  1
  5 13  1  0
  6  7  1  0
  7  8  2  0
  7 12  1  0
  8  9  1  0
  9 10  1  0
 10 11  2  0
 10 12  1  0
 13 14  1  0
 13 15  2  0
M  CHG  2   2   1  14  -1
M  END
>  <DRUGBANK_ID>  (1) 
DB17614

>  <COMMON_NAME>  (1) 
Ergothioneine

>  <CAS_NUMBER>  (1) 
497-30-3

>  <UNII>  (1) 
BDZ3DQM98W

>  <SYNONYMS>  (1) 
L-(+)-ergothioneine; L-ergothioneine; L(+)-ergothioneine; Sympectothion; Thiasine; Thioneine

$$$$
