
     RDKit          3D

 22 21  0  0  0  0  0  0  0  0999 V2000
    0.7212    2.9600   -9.7816 S   0  0  0  0  0  0  0  0  0  0  0  0
    0.0603    1.8252   -8.5535 C   0  0  0  0  0  0  0  0  0  0  0  0
   -0.6562    2.5354   -7.3681 C   0  0  0  0  0  0  0  0  0  0  0  0
   -1.9041    3.1699   -7.7978 N   0  0  0  0  0  0  0  0  0  0  0  0
   -4.0709    3.6985   -7.8935 O   0  0  0  0  0  0  0  0  0  0  0  0
   -3.1964    2.9797   -7.4076 C   0  0  0  0  0  0  0  0  0  0  0  0
   -3.5532    1.9115   -6.4071 C   0  0  0  0  0  0  0  0  0  0  0  0
   -3.4094    0.4945   -6.9357 C   0  0  0  0  0  0  0  0  0  0  0  0
   -2.0652    0.0705   -7.3449 N   0  0  0  0  0  0  0  0  0  0  0  0
    0.1859   -0.3443   -7.1530 O   0  0  0  0  0  0  0  0  0  0  0  0
   -0.9704   -0.5169   -6.7534 C   0  0  0  0  0  0  0  0  0  0  0  0
   -0.5134   -0.8271   -4.4756 O   0  0  0  0  0  0  0  0  0  0  0  0
   -1.1515   -1.4112   -5.6103 C   0  0  2  0  0  0  0  0  0  0  0  0
   -1.3440   -3.3808   -7.3024 C   0  0  0  0  0  0  0  0  0  0  0  0
   -0.8764   -2.9334   -5.8922 C   0  0  0  0  0  0  0  0  0  0  0  0
    0.6484   -3.0799   -5.8247 C   0  0  0  0  0  0  0  0  0  0  0  0
   -1.5004   -3.9475   -4.8629 C   0  0  0  0  0  0  0  0  0  0  0  0
   -2.9524   -3.9252   -4.8031 O   0  0  0  0  0  0  0  0  0  0  0  0
   -2.3588   -1.9708   -3.5245 O   0  0  0  0  0  0  0  0  0  0  0  0
   -3.8479   -2.0765   -5.9402 O   0  0  0  0  0  0  0  0  0  0  0  0
   -3.5291   -2.3453   -4.3980 P   0  0  0  0  0  0  0  0  0  0  0  0
   -4.1058   -0.7653   -3.9929 O   0  0  0  0  0  0  0  0  0  0  0  0
  1  2  1  0
  2  3  1  0
  3  4  1  0
  4  6  1  0
  6  5  2  0
  6  7  1  0
  7  8  1  0
  8  9  1  0
  9 11  1  0
 11 10  2  0
 13 15  1  0
 13 12  1  1
 13 11  1  0
 15 17  1  0
 15 14  1  0
 15 16  1  0
 17 18  1  0
 18 21  1  0
 21 19  2  0
 21 20  1  0
 21 22  1  0
M  END
>  <DRUGBANK_ID>  (1) 
DB03912

>  <SECONDARY_ACCESSION_NUMBERS>  (1) 
EXPT02624

>  <COMMON_NAME>  (1) 
D-pantetheine 4'-phosphate

>  <CAS_NUMBER>  (1) 
2226-71-3

>  <UNII>  (1) 
NM39WU8OFM

>  <SYNONYMS>  (1) 
(2R)-2-Hydroxy-N-(3-((2-mercaptoethyl)amino)-3-oxopropyl)-3,3-dimethyl-4-(phosphonooxy)butanamide; 4'-Phosphopantetheine; Pantetheine-4'-phosphate; Phosphopantetheine

$$$$
