
     RDKit          3D

 21 20  0  0  0  0  0  0  0  0999 V2000
   -1.8770    0.0420   -0.0140 C   0  0  0  0  0  0  0  0  0  0  0  0
   -1.2260   -1.1720   -0.0010 C   0  0  0  0  0  0  0  0  0  0  0  0
    0.1710   -1.2410    0.0150 C   0  0  0  0  0  0  0  0  0  0  0  0
    0.8850   -0.0250   -0.0010 C   0  0  0  0  0  0  0  0  0  0  0  0
    0.2240    1.1800    0.0160 C   0  0  0  0  0  0  0  0  0  0  0  0
   -1.1570    1.2120    0.0000 C   0  0  0  0  0  0  0  0  0  0  0  0
    1.0132    2.4785    0.0524 C   0  0  0  0  0  0  0  0  0  0  0  0
    0.4026    3.5930    0.0682 O   0  0  0  0  0  0  0  0  0  0  0  0
    2.4328    2.4464    0.0689 O   0  0  0  0  0  0  0  0  0  0  0  0
    2.2370    0.0050   -0.0110 O   0  0  0  0  0  0  0  0  0  0  0  0
   -1.8770    0.0420   -0.0140 C   0  0  0  0  0  0  0  0  0  0  0  0
   -1.2260   -1.1720   -0.0010 C   0  0  0  0  0  0  0  0  0  0  0  0
    0.1710   -1.2410    0.0150 C   0  0  0  0  0  0  0  0  0  0  0  0
    0.8850   -0.0250   -0.0010 C   0  0  0  0  0  0  0  0  0  0  0  0
    0.2240    1.1800    0.0160 C   0  0  0  0  0  0  0  0  0  0  0  0
   -1.1570    1.2120    0.0000 C   0  0  0  0  0  0  0  0  0  0  0  0
    1.0132    2.4785    0.0524 C   0  0  0  0  0  0  0  0  0  0  0  0
    0.4026    3.5930    0.0682 O   0  0  0  0  0  0  0  0  0  0  0  0
    2.4328    2.4464    0.0689 O   0  0  0  0  0  0  0  0  0  0  0  0
    2.2370    0.0050   -0.0110 O   0  0  0  0  0  0  0  0  0  0  0  0
    3.7173    1.8230   -0.7029 Mg  0  0  0  0  0 15  0  0  0  0  0  0
  1  2  2  0
  1  6  1  0
  2  3  1  0
  3  4  2  0
  4  5  1  0
  4 10  1  0
  5  6  2  0
  5  7  1  0
  7  8  2  0
  7  9  1  0
 11 12  2  0
 11 16  1  0
 12 13  1  0
 13 14  2  0
 14 15  1  0
 14 20  1  0
 15 16  2  0
 15 17  1  0
 17 18  2  0
 17 19  1  0
M  CHG  3   9  -1  19  -1  21   2
M  END
>  <DRUGBANK_ID>  (1) 
DB01397

>  <COMMON_NAME>  (1) 
Magnesium salicylate

>  <CAS_NUMBER>  (1) 
18917-89-0

>  <UNII>  (1) 
JQ69D454N1

>  <SYNONYMS>  (1) 
Magnesium salicylate; Magnesium salicylate anhydrous

$$$$
