368
     RDKit          3D

 12 12  0  0  1  0  0  0  0  0999 V2000
    1.0899    2.2103   -0.3360 O   0  0  0  0  0  0  0  0  0  0  0  0
   -0.4851   -2.5540    2.5491 O   0  0  0  0  0  0  0  0  0  0  0  0
    2.1353   -3.2881    2.6798 O   0  0  0  0  0  0  0  0  0  0  0  0
    0.5447   -0.6029   -2.7494 N   0  0  0  0  0  0  0  0  0  0  0  0
    0.5798    0.9491   -0.7665 C   0  0  2  0  0  0  0  0  0  0  0  0
    1.0104   -0.1348    0.2076 C   0  0  0  0  0  0  0  0  0  0  0  0
    1.0371    0.6750   -2.2196 C   0  0  0  0  0  0  0  0  0  0  0  0
    0.0439   -0.8111    0.9714 C   0  0  0  0  0  0  0  0  0  0  0  0
    2.3605   -0.5228    0.3188 C   0  0  0  0  0  0  0  0  0  0  0  0
    0.4260   -1.8606    1.8019 C   0  0  0  0  0  0  0  0  0  0  0  0
    2.7326   -1.5830    1.1479 C   0  0  0  0  0  0  0  0  0  0  0  0
    1.7624   -2.2454    1.8814 C   0  0  0  0  0  0  0  0  0  0  0  0
  2 10  1  0
  3 12  1  0
  4  7  1  0
  5  7  1  0
  5  6  1  0
  5  1  1  1
  6  8  2  0
  6  9  1  0
  8 10  1  0
  9 11  2  0
 10 12  2  0
 11 12  1  0
M  END
>  <DRUGBANK_ID>  (1) 
DB00368

>  <SECONDARY_ACCESSION_NUMBERS>  (1) 
APRD01299

>  <COMMON_NAME>  (1) 
Norepinephrine

>  <CAS_NUMBER>  (1) 
51-41-2

>  <UNII>  (1) 
X4W3ENH1CV

>  <SYNONYMS>  (1) 
(−)-arterenol; (−)-noradrenaline; (−)-norepinephrine; (R)-(−)-norepinephrine; (R)-4-(2-amino-1-hydroxyethyl)-1,2-benzenediol; (R)-noradrenaline; (R)-norepinephrine; 4-[(1R)-2-Amino-1-hydroxyethyl]-1,2-benzenediol; Arterenol; L-noradrenaline; L-Norepinephrine; Nor-adrenaline; Noradrenaline; Norepinefrina; Norépinéphrine; Norepinephrine; Norepinephrinum

$$$$
