
     RDKit          3D

 33 35  0  0  1  0  0  0  0  0999 V2000
    2.0005    0.4364    0.5865 C   0  0  0  0  0  0  0  0  0  0  0  0
    2.3549    1.2553   -0.6505 C   0  0  0  0  0  0  0  0  0  0  0  0
    2.9611    0.4181   -1.8171 C   0  0  0  0  0  0  0  0  0  0  0  0
    1.9101   -0.6377   -2.1836 C   0  0  0  0  0  0  0  0  0  0  0  0
    3.1203    1.4043   -2.9753 C   0  0  0  0  0  0  0  0  0  0  0  0
    4.3379   -0.1603   -1.3838 C   0  0  0  0  0  0  0  0  0  0  0  0
    4.8329    0.1281   -0.2934 O   0  0  0  0  0  0  0  0  0  0  0  0
    5.0276   -0.9875   -2.2088 O   0  0  0  0  0  0  0  0  0  0  0  0
    4.7970   -1.2287   -3.6108 C   0  0  1  0  0  0  0  0  0  0  0  0
    5.3936   -0.1605   -4.5170 C   0  0  0  0  0  0  0  0  0  0  0  0
    6.9080   -0.1324   -4.4939 C   0  0  2  0  0  0  0  0  0  0  0  0
    7.5249   -1.4924   -4.3969 C   0  0  0  0  0  0  0  0  0  0  0  0
    6.8302   -2.6255   -4.2213 C   0  0  0  0  0  0  0  0  0  0  0  0
    5.3213   -2.6074   -4.0945 C   0  0  1  0  0  0  0  0  0  0  0  0
    4.8417   -3.7930   -3.2568 C   0  0  2  0  0  0  0  0  0  0  0  0
    5.4149   -5.1323   -3.7358 C   0  0  2  0  0  0  0  0  0  0  0  0
    6.8934   -5.0480   -3.8878 C   0  0  0  0  0  0  0  0  0  0  0  0
    7.5259   -3.8916   -4.1046 C   0  0  0  0  0  0  0  0  0  0  0  0
    4.7861   -5.6034   -5.0395 C   0  0  0  0  0  0  0  0  0  0  0  0
    3.3150   -3.8134   -3.1677 C   0  0  0  0  0  0  0  0  0  0  0  0
    2.6313   -5.1412   -2.7950 C   0  0  0  0  0  0  0  0  0  0  0  0
    3.2427   -5.9474   -1.6379 C   0  0  2  0  0  0  0  0  0  0  0  0
    2.2246   -6.2924   -0.5921 C   0  0  0  0  0  0  0  0  0  0  0  0
    1.7649   -4.9992    0.0881 C   0  0  2  0  0  0  0  0  0  0  0  0
    2.6237   -3.7651   -0.1353 C   0  0  0  0  0  0  0  0  0  0  0  0
    4.0811   -4.1198   -0.3028 C   0  0  0  0  0  0  0  0  0  0  0  0
    4.9889   -3.3985    0.0934 O   0  0  0  0  0  0  0  0  0  0  0  0
    4.3238   -5.2738   -0.9802 O   0  0  0  0  0  0  0  0  0  0  0  0
    1.6004   -5.1712    1.4954 O   0  0  0  0  0  0  0  0  0  0  0  0
    2.7691   -5.4048    2.1720 C   0  0  0  0  0  0  0  0  0  0  0  0
    3.8566   -5.6118    1.7027 O   0  0  0  0  0  0  0  0  0  0  0  0
    2.5318   -5.4049    3.6271 C   0  0  0  0  0  0  0  0  0  0  0  0
    7.3784    0.7613   -3.3448 C   0  0  0  0  0  0  0  0  0  0  0  0
  1  2  1  0
  2  3  1  0
  3  4  1  0
  3  5  1  0
  3  6  1  0
  6  7  2  0
  6  8  1  0
  9 10  1  0
  9 14  1  0
  9  8  1  1
 10 11  1  0
 11 12  1  0
 11 33  1  1
 12 13  2  0
 13 18  1  0
 14 13  1  1
 14 15  1  0
 15 16  1  0
 15 20  1  6
 16 17  1  0
 16 19  1  6
 17 18  2  0
 20 21  1  0
 22 21  1  6
 22 23  1  0
 22 28  1  0
 23 24  1  0
 24 25  1  0
 24 29  1  1
 25 26  1  0
 26 27  2  0
 26 28  1  0
 29 30  1  0
 30 31  2  0
 30 32  1  0
M  END
>  <DRUGBANK_ID>  (1) 
DB14648

>  <SECONDARY_ACCESSION_NUMBERS>  (1) 
DBSALT002310

>  <COMMON_NAME>  (1) 
Acetyl simvastatin

>  <CAS_NUMBER>  (1) 
145576-25-6

>  <UNII>  (1) 
171OXS3HEK

>  <SYNONYMS>  (1) 
4'-acetylsimvastatin; Simvastatin acetate; Simvastatin acetate ester

$$$$
