
     RDKit          3D

 41 48  0  0  1  0  0  0  0  0999 V2000
   -1.8856   -0.4269    0.1613 C   0  0  1  0  0  0  0  0  0  0  0  0
   -0.6293   -1.4707    0.8592 C   0  0  0  0  0  0  0  0  0  0  0  0
   -0.3576   -0.8180    2.1618 C   0  0  0  0  0  0  0  0  0  0  0  0
   -1.5013   -0.1593    2.4993 N   0  0  0  0  0  0  0  0  0  0  0  0
   -1.2751    0.8336    3.3706 N   0  0  0  0  0  0  0  0  0  0  0  0
    0.0105    0.7414    3.7292 C   0  0  0  0  0  0  0  0  0  0  0  0
    0.7577    1.6330    4.5425 C   0  0  0  0  0  0  0  0  0  0  0  0
    0.2906    3.0005    4.9427 C   0  0  0  0  0  0  0  0  0  0  0  0
    2.0102    1.0930    4.9181 C   0  0  0  0  0  0  0  0  0  0  0  0
    2.5113   -0.1513    4.3825 C   0  0  0  0  0  0  0  0  0  0  0  0
    1.8435   -0.9552    3.4044 C   0  0  0  0  0  0  0  0  0  0  0  0
    0.5676   -0.4610    3.1264 C   0  0  0  0  0  0  0  0  0  0  0  0
    2.9228    1.8298    5.8660 C   0  0  0  0  0  0  0  0  0  0  0  0
    2.2967    2.3674    6.9518 O   0  0  0  0  0  0  0  0  0  0  0  0
    4.1029    1.8986    5.7064 O   0  0  0  0  0  0  0  0  0  0  0  0
   -2.6414   -0.2062    1.5098 C   0  0  1  0  0  0  0  0  0  0  0  0
   -3.4586    1.1201    1.5170 C   0  0  2  0  0  0  0  0  0  0  0  0
   -4.5259    1.3328    2.5916 C   0  0  0  0  0  0  0  0  0  0  0  0
   -4.1147    1.5317    3.9241 C   0  0  0  0  0  0  0  0  0  0  0  0
   -4.9021    2.2119    4.8480 C   0  0  0  0  0  0  0  0  0  0  0  0
   -6.2322    2.4623    4.5625 C   0  0  0  0  0  0  0  0  0  0  0  0
   -6.7178    2.1226    3.3185 C   0  0  0  0  0  0  0  0  0  0  0  0
   -8.3739    2.3455    2.9118 Cl  0  0  0  0  0  0  0  0  0  0  0  0
   -5.8578    1.6130    2.3580 C   0  0  0  0  0  0  0  0  0  0  0  0
   -6.4007    1.3827    1.1834 F   0  0  0  0  0  0  0  0  0  0  0  0
   -3.3438    1.7614    0.0818 C   0  0  2  0  0  0  0  0  0  0  0  0
   -2.2495    0.8884   -0.6058 N   0  0  0  0  0  0  0  0  0  0  0  0
   -1.2422    1.6865   -1.3262 C   0  0  0  0  0  0  0  0  0  0  0  0
   -0.1743    2.3294   -0.4566 C   0  0  0  0  0  0  0  0  0  0  0  0
    0.6778    1.4840    0.4361 C   0  0  0  0  0  0  0  0  0  0  0  0
   -0.3741    2.3411    1.0257 C   0  0  0  0  0  0  0  0  0  0  0  0
   -2.9640    3.4215    0.1362 C   0  0  0  0  0  0  0  0  0  0  0  0
   -1.9465    4.0849    0.0720 O   0  0  0  0  0  0  0  0  0  0  0  0
   -4.1210    4.1379    0.0759 N   0  0  0  0  0  0  0  0  0  0  0  0
   -5.1024    3.3705   -0.4839 C   0  0  0  0  0  0  0  0  0  0  0  0
   -6.3308    3.9112   -0.8107 C   0  0  0  0  0  0  0  0  0  0  0  0
   -7.3002    3.0091   -1.1927 C   0  0  0  0  0  0  0  0  0  0  0  0
   -8.9021    3.5780   -1.4615 Cl  0  0  0  0  0  0  0  0  0  0  0  0
   -7.0009    1.6324   -1.2724 C   0  0  0  0  0  0  0  0  0  0  0  0
   -5.6940    1.1212   -1.0216 C   0  0  0  0  0  0  0  0  0  0  0  0
   -4.7119    2.0025   -0.6053 C   0  0  0  0  0  0  0  0  0  0  0  0
  1  2  1  1
  1 27  1  0
  2  3  1  0
  3  4  1  0
  3 12  2  0
  4  5  1  0
  5  6  2  0
  6  7  1  0
  6 12  1  0
  7  9  2  0
  7  8  1  0
  9 10  1  0
  9 13  1  0
 10 11  2  0
 11 12  1  0
 13 14  1  0
 13 15  2  0
 16  4  1  1
 16  1  1  0
 16 17  1  0
 17 26  1  0
 17 18  1  6
 18 19  2  0
 18 24  1  0
 19 20  1  0
 20 21  2  0
 21 22  1  0
 22 23  1  0
 22 24  2  0
 24 25  1  0
 26 27  1  0
 26 32  1  1
 26 41  1  0
 27 28  1  0
 28 29  1  0
 29 30  1  0
 29 31  1  0
 30 31  1  0
 32 34  1  0
 32 33  2  0
 34 35  1  0
 35 36  1  0
 35 41  2  0
 36 37  2  0
 37 39  1  0
 37 38  1  0
 39 40  2  0
 40 41  1  0
M  END
>  <DRUGBANK_ID>  (1) 
DB18578

>  <COMMON_NAME>  (1) 
Brigimadlin

>  <CAS_NUMBER>  (1) 
2095116-40-6

>  <UNII>  (1) 
9A934ZAN94

$$$$
