
     RDKit          3D

  8  7  0  0  0  0  0  0  0  0999 V2000
    0.7955   -0.0613   -0.0976 O   0  0  0  0  0  0  0  0  0  0  0  0
    0.3548    0.5720    1.0931 C   0  0  0  0  0  0  0  0  0  0  0  0
    0.9398   -0.1233    2.3185 C   0  0  0  0  0  0  0  0  0  0  0  0
    2.4724   -0.0669    2.3609 C   0  0  0  0  0  0  0  0  0  0  0  0
    3.0183    1.3657    2.3974 C   0  0  0  0  0  0  0  0  0  0  0  0
    2.5691    2.1467    3.6393 C   0  0  0  0  0  0  0  0  0  0  0  0
    3.0241    1.4989    4.9435 C   0  0  0  0  0  0  0  0  0  0  0  0
    4.4407    1.4532    5.0100 O   0  0  0  0  0  0  0  0  0  0  0  0
  1  2  1  0
  2  3  1  0
  3  4  1  0
  4  5  1  0
  5  6  1  0
  6  7  1  0
  7  8  1  0
M  END
>  <DRUGBANK_ID>  (1) 
DB02210

>  <SECONDARY_ACCESSION_NUMBERS>  (1) 
EXPT01731

>  <COMMON_NAME>  (1) 
Hexane-1,6-Diol

>  <CAS_NUMBER>  (1) 
629-11-8

>  <UNII>  (1) 
ZIA319275I

$$$$
