
     RDKit          3D

  5  0  0  0  0  0  0  0  0  0999 V2000
    0.9376   -0.0246   -0.0741 O   0  0  0  0  0  0  0  0  0  0  0  0
    0.9043    0.0014   -0.0289 O   0  0  0  0  0  0  0  0  0  0  0  0
    0.9482    0.0559   -0.0647 O   0  0  0  0  0  0  0  0  0  0  0  0
    0.9055   -0.0325    0.0027 O   0  0  0  0  0  0  0  0  0  0  0  0
    0.9162    0.0449   -0.0309 Tc  0  0  0  0  0 15  0  0  0  0  0  0
M  CHG  1   5  -1
M  ISO  1   5  98
M  END
>  <DRUGBANK_ID>  (1) 
DB09314

>  <SECONDARY_ACCESSION_NUMBERS>  (1) 
DB13043

>  <COMMON_NAME>  (1) 
Technetium Tc-99m pertechnetate

>  <CAS_NUMBER>  (1) 
23288-61-1

>  <UNII>  (1) 
PPP8783IQ1

>  <SYNONYMS>  (1) 
(99Tc)pertechnetate; CPERT; GPERT; Pertechnetate-99Tc; Technetium (99mTc) Pertechnetate; Technetium Tc 99m Pertechnetate

$$$$
