
     RDKit          3D

 26 28  0  0  0  0  0  0  0  0999 V2000
    0.9524   -0.0651   -0.0851 C   0  0  0  0  0  0  0  0  0  0  0  0
    0.3960   -0.5536   -1.3044 O   0  0  0  0  0  0  0  0  0  0  0  0
    0.8665    0.0673   -2.4298 C   0  0  0  0  0  0  0  0  0  0  0  0
    2.2109    0.3886   -2.6188 C   0  0  0  0  0  0  0  0  0  0  0  0
    2.6321    0.9996   -3.7954 C   0  0  0  0  0  0  0  0  0  0  0  0
    1.7276    1.2149   -4.8256 C   0  0  0  0  0  0  0  0  0  0  0  0
    0.4117    0.7623   -4.7025 C   0  0  0  0  0  0  0  0  0  0  0  0
   -0.0422    0.2687   -3.4700 C   0  0  0  0  0  0  0  0  0  0  0  0
   -0.5010    0.7402   -5.8857 C   0  0  0  0  0  0  0  0  0  0  0  0
   -1.6237    0.2451   -5.7855 O   0  0  0  0  0  0  0  0  0  0  0  0
   -0.0322    1.3862   -7.1898 C   0  0  0  0  0  0  0  0  0  0  0  0
    0.3924    2.7379   -7.1764 O   0  0  0  0  0  0  0  0  0  0  0  0
   -0.4929    3.6631   -6.7050 C   0  0  0  0  0  0  0  0  0  0  0  0
   -1.3534    3.4972   -5.6191 C   0  0  0  0  0  0  0  0  0  0  0  0
   -2.1460    4.5343   -5.1480 C   0  0  0  0  0  0  0  0  0  0  0  0
   -2.0842    5.7780   -5.7613 C   0  0  0  0  0  0  0  0  0  0  0  0
   -3.0091    6.8755   -5.3155 C   0  0  0  0  0  0  0  0  0  0  0  0
   -2.3593    8.1292   -4.7274 C   0  0  0  0  0  0  0  0  0  0  0  0
   -1.1770    9.0758   -5.7504 S   0  0  0  0  0  0  0  0  0  0  0  0
    0.1029    8.9502   -4.5694 C   0  0  0  0  0  0  0  0  0  0  0  0
    1.2265    9.3740   -4.7354 O   0  0  0  0  0  0  0  0  0  0  0  0
   -0.3500    8.3266   -3.4537 N   0  0  0  0  0  0  0  0  0  0  0  0
   -1.6106    7.8137   -3.4506 C   0  0  0  0  0  0  0  0  0  0  0  0
   -2.0763    7.1937   -2.5022 O   0  0  0  0  0  0  0  0  0  0  0  0
   -1.2092    5.9519   -6.8396 C   0  0  0  0  0  0  0  0  0  0  0  0
   -0.4307    4.9038   -7.3192 C   0  0  0  0  0  0  0  0  0  0  0  0
  1  2  1  0
  2  3  1  0
  3  4  2  0
  3  8  1  0
  4  5  1  0
  5  6  2  0
  6  7  1  0
  7  8  2  0
  7  9  1  0
  9 10  2  0
  9 11  1  0
 11 12  1  0
 12 13  1  0
 13 14  2  0
 13 26  1  0
 14 15  1  0
 15 16  2  0
 16 17  1  0
 16 25  1  0
 17 18  1  0
 18 19  1  0
 18 23  1  0
 19 20  1  0
 20 21  2  0
 20 22  1  0
 22 23  1  0
 23 24  2  0
 25 26  2  0
M  END
>  <DRUGBANK_ID>  (1) 
DB16028

>  <COMMON_NAME>  (1) 
Azemiglitazone

>  <CAS_NUMBER>  (1) 
1133819-87-0

>  <UNII>  (1) 
81MXZ6QOBM

>  <SYNONYMS>  (1) 
Azemiglitazone

$$$$
