744
     RDKit          3D

 16 17  0  0  1  0  0  0  0  0999 V2000
    1.7350    0.7503   -0.0359 S   0  0  0  0  0  0  0  0  0  0  0  0
    4.0376   -3.5855    1.2431 O   0  0  0  0  0  0  0  0  0  0  0  0
    3.3969   -0.4328    2.7259 O   0  0  0  0  0  0  0  0  0  0  0  0
    3.7162   -2.2080    1.2792 N   0  0  0  0  0  0  0  0  0  0  0  0
    3.8218   -2.4523    3.5770 N   0  0  0  0  0  0  0  0  0  0  0  0
    3.5151   -1.4387    0.0181 C   0  0  0  0  0  0  0  0  0  0  0  0
    2.0937   -0.9222    0.0020 C   0  0  0  0  0  0  0  0  0  0  0  0
   -0.2484   -0.8989   -0.0033 C   0  0  0  0  0  0  0  0  0  0  0  0
    0.9437   -1.6782    0.0124 C   0  0  0  0  0  0  0  0  0  0  0  0
    0.0318    0.4689   -0.0075 C   0  0  0  0  0  0  0  0  0  0  0  0
    3.7489   -2.2399   -1.2720 C   0  0  0  0  0  0  0  0  0  0  0  0
   -1.5952   -1.3197   -0.0089 C   0  0  0  0  0  0  0  0  0  0  0  0
   -1.0053    1.4230    0.0026 C   0  0  0  0  0  0  0  0  0  0  0  0
   -2.6249   -0.3810   -0.0102 C   0  0  0  0  0  0  0  0  0  0  0  0
   -2.3317    0.9760    0.0017 C   0  0  0  0  0  0  0  0  0  0  0  0
    3.6338   -1.6214    2.5211 C   0  0  0  0  0  0  0  0  0  0  0  0
  1  7  1  0
  1 10  1  0
  2  4  1  0
  3 16  2  0
  4  6  1  0
  4 16  1  0
  5 16  1  0
  6  7  1  0
  6 11  1  0
  7  9  2  0
  8  9  1  0
  8 10  2  0
  8 12  1  0
 10 13  1  0
 12 14  2  0
 13 15  2  0
 14 15  1  0
M  END
>  <DRUGBANK_ID>  (1) 
DB00744

>  <SECONDARY_ACCESSION_NUMBERS>  (1) 
APRD00265

>  <COMMON_NAME>  (1) 
Zileuton

>  <CAS_NUMBER>  (1) 
111406-87-2

>  <UNII>  (1) 
V1L22WVE2S

>  <SYNONYMS>  (1) 
(±)-1-(1-Benzo[b]thien-2-ylethyl)-1-hydroxyurea; Leutrol; N-(1-Benzo(b)thien-2-ylethyl)-N-hydroxyurea; N-[1-(benzo[b]thiophen-2-yl)ethyl]-N-hydroxyurea; Zileuton; Zileutón; Zileutonum

$$$$
