
     RDKit          3D

 29 30  0  0  1  0  0  0  0  0999 V2000
   -2.4207   -0.8271   -2.5784 C   0  0  0  0  0  0  0  0  0  0  0  0
   -1.3699   -0.3074   -1.5802 C   0  0  1  0  0  0  0  0  0  0  0  0
   -1.9441    0.8102   -0.8921 O   0  0  0  0  0  0  0  0  0  0  0  0
   -0.8616   -1.3336   -0.5195 C   0  0  2  0  0  0  0  0  0  0  0  0
    0.5800   -1.3135   -0.2081 N   0  0  0  0  0  0  0  0  0  0  0  0
   -1.4634   -2.6804   -0.8784 C   0  0  0  0  0  0  0  0  0  0  0  0
   -2.6124   -2.8567   -0.4567 O   0  0  0  0  0  0  0  0  0  0  0  0
   -0.9364   -3.5111   -1.8481 N   0  0  0  0  0  0  0  0  0  0  0  0
    0.3379   -3.3939   -2.5304 C   0  0  0  0  0  0  0  0  0  0  0  0
   -0.0041   -3.5169   -3.9962 C   0  0  0  0  0  0  0  0  0  0  0  0
   -1.1481   -4.5197   -4.0095 C   0  0  0  0  0  0  0  0  0  0  0  0
   -1.8566   -4.3821   -2.6298 C   0  0  1  0  0  0  0  0  0  0  0  0
   -2.0707   -5.7864   -2.0108 C   0  0  0  0  0  0  0  0  0  0  0  0
   -1.9915   -6.8064   -2.6994 O   0  0  0  0  0  0  0  0  0  0  0  0
   -2.2582   -5.8863   -0.6608 N   0  0  0  0  0  0  0  0  0  0  0  0
   -3.3090   -5.3144    0.1560 C   0  0  0  0  0  0  0  0  0  0  0  0
   -2.5683   -4.9935    1.4492 C   0  0  0  0  0  0  0  0  0  0  0  0
   -1.6239   -6.1847    1.5994 C   0  0  0  0  0  0  0  0  0  0  0  0
   -1.3456   -6.6560    0.1628 C   0  0  1  0  0  0  0  0  0  0  0  0
   -1.6527   -8.1522    0.0210 C   0  0  0  0  0  0  0  0  0  0  0  0
   -2.7066   -8.6451    0.4297 O   0  0  0  0  0  0  0  0  0  0  0  0
   -0.7658   -8.9746   -0.6008 N   0  0  0  0  0  0  0  0  0  0  0  0
    0.5149   -8.6804   -1.2371 C   0  0  1  0  0  0  0  0  0  0  0  0
    1.6518   -9.4775   -0.5595 C   0  0  1  0  0  0  0  0  0  0  0  0
    1.5245  -10.9962   -0.6612 C   0  0  0  0  0  0  0  0  0  0  0  0
    2.9201   -9.0440   -1.0573 O   0  0  0  0  0  0  0  0  0  0  0  0
    0.4585   -8.9910   -2.7412 C   0  0  0  0  0  0  0  0  0  0  0  0
    0.8127   -7.9549   -3.5396 O   0  0  0  0  0  0  0  0  0  0  0  0
    0.1765  -10.0867   -3.2066 O   0  0  0  0  0  0  0  0  0  0  0  0
  2  1  1  6
  2  3  1  0
  4  6  1  0
  4  5  1  6
  4  2  1  0
  6  7  2  0
  6  8  1  0
  8  9  1  0
  9 10  1  0
 10 11  1  0
 12 11  1  0
 12  8  1  0
 12 13  1  1
 13 14  2  0
 13 15  1  0
 15 16  1  0
 16 17  1  0
 17 18  1  0
 19 18  1  0
 19 15  1  0
 19 20  1  1
 20 21  2  0
 20 22  1  0
 23 22  1  1
 23 24  1  0
 23 27  1  0
 24 25  1  6
 24 26  1  0
 27 28  1  0
 27 29  2  0
M  END
>  <DRUGBANK_ID>  (1) 
DB16953

>  <COMMON_NAME>  (1) 
NT 13

>  <CAS_NUMBER>  (1) 
117928-93-5

>  <UNII>  (1) 
A98MYD1EUX

>  <SYNONYMS>  (1) 
L-threonyl-l-prolyl-l-prolyl-l-threonine

$$$$
