
     RDKit          3D

 20 21  0  0  0  0  0  0  0  0999 V2000
    1.6079    0.7283    0.2594 O   0  0  0  0  0  0  0  0  0  0  0  0
    1.0424    1.3360    1.4110 C   0  0  0  0  0  0  0  0  0  0  0  0
    1.3196    0.4180    2.5901 C   0  0  0  0  0  0  0  0  0  0  0  0
    2.5808   -0.2086    2.4773 O   0  0  0  0  0  0  0  0  0  0  0  0
    2.6792   -1.1201    1.3813 N   0  0  0  0  0  0  0  0  0  0  0  0
    1.6838   -1.5814    0.4447 C   0  0  0  0  0  0  0  0  0  0  0  0
    2.1787   -2.1551   -0.6225 N   0  0  0  0  0  0  0  0  0  0  0  0
    0.0972   -1.4506    0.4616 C   0  0  0  0  0  0  0  0  0  0  0  0
   -0.7155   -0.3222    0.2383 C   0  0  0  0  0  0  0  0  0  0  0  0
   -1.9879   -0.1460    0.7561 C   0  0  0  0  0  0  0  0  0  0  0  0
   -2.6434   -1.3115    1.0249 C   0  0  0  0  0  0  0  0  0  0  0  0
   -2.0419   -2.5160    0.8892 N   0  0  0  0  0  0  0  0  0  0  0  0
   -0.6874   -2.5601    0.6412 C   0  0  0  0  0  0  0  0  0  0  0  0
    1.3747    2.7411    1.0490 C   0  0  0  0  0  0  0  0  0  0  0  0
    0.7131    3.0803   -0.3095 N   0  0  0  0  0  0  0  0  0  0  0  0
    1.0325    4.4794   -0.5226 C   0  0  0  0  0  0  0  0  0  0  0  0
    0.5269    5.0064   -1.8515 C   0  0  0  0  0  0  0  0  0  0  0  0
    1.0659    4.2062   -3.0283 C   0  0  0  0  0  0  0  0  0  0  0  0
    0.6790    2.7611   -2.8715 C   0  0  0  0  0  0  0  0  0  0  0  0
    1.1501    2.2713   -1.5091 C   0  0  0  0  0  0  0  0  0  0  0  0
  1  2  1  0
  2  3  1  0
  2 14  1  0
  3  4  1  0
  4  5  1  0
  5  6  1  0
  6  7  2  0
  6  8  1  0
  8  9  2  0
  8 13  1  0
  9 10  1  0
 10 11  2  0
 11 12  1  0
 12 13  2  0
 14 15  1  0
 15 16  1  0
 15 20  1  0
 16 17  1  0
 17 18  1  0
 18 19  1  0
 19 20  1  0
M  END
>  <DRUGBANK_ID>  (1) 
DB16995

>  <COMMON_NAME>  (1) 
NP-51

>  <CAS_NUMBER>  (1) 
66611-38-9

>  <UNII>  (1) 
28ENT76V8K

>  <SYNONYMS>  (1) 
(+/-)-o-(3-piperidino-2-hydroxy-1-propyl)nicotinic acid amidoxime; 3-pyridinecarboximidamide, n-(2-hydroxy-3-(1-piperidinyl)propoxy)-; Bgp-15 free base

$$$$
