
     RDKit          3D

 19 20  0  0  0  0  0  0  0  0999 V2000
   -0.4765    1.6140    0.5420 S   0  0  0  0  0  0  0  0  0  0  0  0
   -0.7558   -2.1904    0.3811 O   0  0  0  0  0  0  0  0  0  0  0  0
    2.1685    1.3763    0.1264 N   0  0  0  0  0  0  0  0  0  0  0  0
    0.8360   -0.5686    0.5926 N   0  0  0  0  0  0  0  0  0  0  0  0
    3.4590    0.7958   -0.3296 C   0  0  0  0  0  0  0  0  0  0  0  0
    3.3929    0.0353   -1.6875 C   0  0  0  0  0  0  0  0  0  0  0  0
    4.0232    0.0323    0.8635 C   0  0  0  0  0  0  0  0  0  0  0  0
    2.5943   -1.2567   -1.6287 C   0  0  0  0  0  0  0  0  0  0  0  0
    5.3370   -0.7049    0.6757 C   0  0  0  0  0  0  0  0  0  0  0  0
    3.2125   -2.6245   -1.4780 C   0  0  0  0  0  0  0  0  0  0  0  0
    5.3774   -1.9011   -0.2810 C   0  0  0  0  0  0  0  0  0  0  0  0
    4.1506   -2.8061   -0.2835 C   0  0  0  0  0  0  0  0  0  0  0  0
   -1.4142    0.1115   -0.0624 C   0  0  1  0  0  0  0  0  0  0  0  0
    1.0094    0.6911    0.4457 C   0  0  0  0  0  0  0  0  0  0  0  0
   -1.7098    0.0542   -1.6033 C   0  0  0  0  0  0  0  0  0  0  0  0
   -0.4481   -1.0131    0.3614 C   0  0  0  0  0  0  0  0  0  0  0  0
   -2.7017   -0.0123    0.7522 C   0  0  0  0  0  0  0  0  0  0  0  0
   -1.2603    1.2602   -2.4413 C   0  0  0  0  0  0  0  0  0  0  0  0
    0.2368    1.3197   -2.6380 C   0  0  0  0  0  0  0  0  0  0  0  0
  1 13  1  0
  1 14  1  0
  2 16  2  0
  3  5  1  0
  3 14  1  0
  4 14  2  0
  4 16  1  0
  5  6  1  0
  5  7  1  0
  6  8  1  0
  7  9  1  0
  8 10  1  0
  9 11  1  0
 10 12  1  0
 11 12  1  0
 13 16  1  0
 13 17  1  1
 13 15  1  0
 15 18  1  0
 18 19  1  0
M  END
>  <DRUGBANK_ID>  (1) 
DB07866

>  <COMMON_NAME>  (1) 
(5S)-2-(Cyclooctylamino)-5-methyl-5-propyl-1,3-thiazol-4(5H)-one

$$$$
