
     RDKit          3D

 16 17  0  0  0  0  0  0  0  0999 V2000
    1.1140   -0.0493   -0.0365 C   0  0  0  0  0  0  0  0  0  0  0  0
    0.6803    0.1617   -1.4448 C   0  0  0  0  0  0  0  0  0  0  0  0
    0.5034    1.3772   -2.0802 C   0  0  0  0  0  0  0  0  0  0  0  0
   -0.0700    1.1476   -3.6813 S   0  0  0  0  0  0  0  0  0  0  0  0
   -0.0753   -0.5502   -3.4941 C   0  0  0  0  0  0  0  0  0  0  0  0
    0.3165   -0.9026   -2.2743 N   0  0  0  0  0  0  0  0  0  0  0  0
    0.2931   -2.3145   -1.8739 C   0  0  0  0  0  0  0  0  0  0  0  0
   -1.0925   -2.9245   -1.9627 C   0  0  0  0  0  0  0  0  0  0  0  0
   -1.3104   -3.8762   -2.7177 O   0  0  0  0  0  0  0  0  0  0  0  0
   -2.2112   -2.3870   -1.1404 C   0  0  0  0  0  0  0  0  0  0  0  0
   -2.4351   -1.0124   -1.0105 C   0  0  0  0  0  0  0  0  0  0  0  0
   -3.5604   -0.5186   -0.3612 C   0  0  0  0  0  0  0  0  0  0  0  0
   -4.5002   -1.4029    0.1417 C   0  0  0  0  0  0  0  0  0  0  0  0
   -4.3029   -2.7775    0.0072 C   0  0  0  0  0  0  0  0  0  0  0  0
   -3.1451   -3.2747   -0.6005 C   0  0  0  0  0  0  0  0  0  0  0  0
    0.7137    2.7604   -1.5698 C   0  0  0  0  0  0  0  0  0  0  0  0
  1  2  1  0
  2  3  2  0
  2  6  1  0
  3  4  1  0
  3 16  1  0
  4  5  1  0
  5  6  2  0
  6  7  1  0
  7  8  1  0
  8  9  2  0
  8 10  1  0
 10 11  2  0
 10 15  1  0
 11 12  1  0
 12 13  2  0
 13 14  1  0
 14 15  2  0
M  CHG  1   6   1
M  END
>  <DRUGBANK_ID>  (1) 
DB12497

>  <COMMON_NAME>  (1) 
Alagebrium

>  <CAS_NUMBER>  (1) 
393121-34-1

>  <UNII>  (1) 
DGH49JXB1F

$$$$
