
     RDKit          3D

 22 24  0  0  0  0  0  0  0  0999 V2000
    0.0062    0.6750    0.0253 C   0  0  0  0  0  0  0  0  0  0  0  0
   -1.2014   -0.0165    0.0560 C   0  0  0  0  0  0  0  0  0  0  0  0
   -1.2117   -1.4195    0.1066 C   0  0  0  0  0  0  0  0  0  0  0  0
    1.1944   -1.4479    0.0676 C   0  0  0  0  0  0  0  0  0  0  0  0
    1.1953   -0.0553    0.0302 C   0  0  0  0  0  0  0  0  0  0  0  0
   -0.7073   -4.1827   -1.2493 C   0  0  1  0  0  0  0  0  0  0  0  0
    0.0083   -3.6958    0.0255 C   0  0  2  0  0  0  0  0  0  0  0  0
   -0.5242   -4.3855    1.1868 O   0  0  0  0  0  0  0  0  0  0  0  0
   -0.3064   -5.6313   -1.4714 C   0  0  0  0  0  0  0  0  0  0  0  0
   -0.4443   -6.4156   -0.1937 C   0  0  0  0  0  0  0  0  0  0  0  0
   -0.5383   -5.7679    1.0523 C   0  0  0  0  0  0  0  0  0  0  0  0
   -0.7166   -6.5327    2.2129 C   0  0  0  0  0  0  0  0  0  0  0  0
   -0.7635   -7.9290    2.1206 C   0  0  0  0  0  0  0  0  0  0  0  0
   -0.6436   -8.5778    0.8962 C   0  0  0  0  0  0  0  0  0  0  0  0
   -0.4801   -7.8155   -0.2522 C   0  0  0  0  0  0  0  0  0  0  0  0
   -0.3574   -8.4159   -1.4748 O   0  0  0  0  0  0  0  0  0  0  0  0
   -0.9260   -8.7251    3.2192 O   0  0  0  0  0  0  0  0  0  0  0  0
   -2.1403   -4.1084   -1.1394 O   0  0  0  0  0  0  0  0  0  0  0  0
   -2.4287    0.5850    0.0253 O   0  0  0  0  0  0  0  0  0  0  0  0
    0.1375    2.0358   -0.0170 O   0  0  0  0  0  0  0  0  0  0  0  0
    2.3976    0.5983   -0.0123 O   0  0  0  0  0  0  0  0  0  0  0  0
   -0.0168   -2.1648    0.1146 C   0  0  0  0  0  0  0  0  0  0  0  0
  1  2  2  0
  1  5  1  0
  1 20  1  0
  2  3  1  0
  2 19  1  0
  3 22  2  0
  4  5  2  0
  5 21  1  0
  6  7  1  0
  6  9  1  0
  6 18  1  1
  7  8  1  0
  7 22  1  1
  8 11  1  0
  9 10  1  0
 10 11  2  0
 10 15  1  0
 11 12  1  0
 12 13  2  0
 13 14  1  0
 13 17  1  0
 14 15  2  0
 15 16  1  0
 22  4  1  0
M  END
>  <DRUGBANK_ID>  (1) 
DB03823

>  <SECONDARY_ACCESSION_NUMBERS>  (1) 
EXPT01331

>  <COMMON_NAME>  (1) 
Epigallocatechin

>  <CAS_NUMBER>  (1) 
970-74-1

>  <UNII>  (1) 
7Z197MG6QL

>  <SYNONYMS>  (1) 
(-)-epi-gallocatechin; (-)-epigallocatechin; (-)-epigallocatechol; (âˆ’)-epigallocatechin; 3,3',4',5,5',7-flavanhexol; Antiscurvy factor C2; EGC; Epi-gallocatechin; Galloepicatechin; L-epigallocatechin

$$$$
