
     RDKit          3D

  8  7  0  0  0  0  0  0  0  0999 V2000
    0.9164    0.0526   -0.0243 C   0  0  0  0  0  0  0  0  0  0  0  0
    0.4214   -1.3222   -0.4626 C   0  0  0  0  0  0  0  0  0  0  0  0
    0.4226    0.4123    1.3749 C   0  0  0  0  0  0  0  0  0  0  0  0
    0.8964   -2.3515    0.4504 N   0  0  0  0  0  0  0  0  0  0  0  0
    0.3603    2.9200    0.8290 O   0  0  0  0  0  0  0  0  0  0  0  0
    0.4562    2.2883    3.2276 O   0  0  0  0  0  0  0  0  0  0  0  0
    2.4773    2.0361    1.7196 O   0  0  0  0  0  0  0  0  0  0  0  0
    1.0533    1.9783    1.9467 S   0  0  0  0  0  0  0  0  0  0  0  0
  2  1  1  0
  3  1  1  0
  4  2  1  0
  8  3  1  0
  8  5  1  0
  8  6  2  0
  8  7  2  0
M  END
>  <DRUGBANK_ID>  (1) 
DB06527

>  <COMMON_NAME>  (1) 
Tramiprosate

>  <CAS_NUMBER>  (1) 
3687-18-1

>  <UNII>  (1) 
5K8EAX0G53

>  <SYNONYMS>  (1) 
Tramiprosate

$$$$
