P41
     RDKit          3D

 25 28  0  0  0  0  0  0  0  0999 V2000
   -0.0461    0.5376    0.0392 C   0  0  0  0  0  0  0  0  0  0  0  0
   -4.3411   -3.2488    1.1509 C   0  0  0  0  0  0  0  0  0  0  0  0
   -4.2807   -3.2242   -1.3463 C   0  0  0  0  0  0  0  0  0  0  0  0
   -2.0337   -0.9015   -0.0240 C   0  0  0  0  0  0  0  0  0  0  0  0
    3.4693    1.8666   -0.0899 C   0  0  0  0  0  0  0  0  0  0  0  0
   -3.5286   -2.8396   -0.0748 C   0  0  0  0  0  0  0  0  0  0  0  0
    0.1804   -0.8384    0.0271 C   0  0  0  0  0  0  0  0  0  0  0  0
    5.6869    0.3180   -2.3983 C   0  0  0  0  0  0  0  0  0  0  0  0
    3.5663    0.1923   -4.2026 C   0  0  0  0  0  0  0  0  0  0  0  0
    4.6893   -0.6131   -4.3886 C   0  0  0  0  0  0  0  0  0  0  0  0
    3.5066    1.0633   -3.1137 C   0  0  0  0  0  0  0  0  0  0  0  0
    2.5632   -0.4064    0.0610 C   0  0  0  0  0  0  0  0  0  0  0  0
    1.5029   -1.3139    0.0410 C   0  0  0  0  0  0  0  0  0  0  0  0
    5.7483   -0.5539   -3.4822 C   0  0  0  0  0  0  0  0  0  0  0  0
    1.0174    1.4664    0.0630 C   0  0  0  0  0  0  0  0  0  0  0  0
    4.8625    3.4081    0.4533 C   0  0  0  0  0  0  0  0  0  0  0  0
    2.3331    0.9745    0.0650 C   0  0  0  0  0  0  0  0  0  0  0  0
    4.5736    1.1339   -2.2034 C   0  0  0  0  0  0  0  0  0  0  0  0
    4.4754    1.9669   -1.0297 C   0  0  0  0  0  0  0  0  0  0  0  0
    5.3607    2.9517   -0.6752 N   0  0  0  0  0  0  0  0  0  0  0  0
   -0.9480   -1.6314   -0.0095 N   0  0  0  0  0  0  0  0  0  0  0  0
   -3.2911   -1.4026   -0.0559 N   0  0  0  0  0  0  0  0  0  0  0  0
    3.7057    2.8110    0.8715 O   0  0  0  0  0  0  0  0  0  0  0  0
    6.6959    0.3112   -1.5141 F   0  0  0  0  0  0  0  0  0  0  0  0
   -1.7523    0.8015   -0.0043 S   0  0  0  0  0  0  0  0  0  0  0  0
  1  7  2  0
  1 15  1  0
  1 25  1  0
  2  6  1  0
  3  6  1  0
  4 21  2  0
  4 22  1  0
  4 25  1  0
  5 17  1  0
  5 19  2  0
  5 23  1  0
  6 22  1  0
  7 13  1  0
  7 21  1  0
  8 14  2  0
  8 18  1  0
  8 24  1  0
  9 10  2  0
  9 11  1  0
 10 14  1  0
 11 18  2  0
 12 13  2  0
 12 17  1  0
 15 17  2  0
 16 20  2  0
 16 23  1  0
 18 19  1  0
 19 20  1  0
M  END
>  <DRUGBANK_ID>  (1) 
DB08352

>  <COMMON_NAME>  (1) 
6-[4-(2-fluorophenyl)-1,3-oxazol-5-yl]-N-(1-methylethyl)-1,3-benzothiazol-2-amine

$$$$
