
     RDKit          3D

 26 28  0  0  0  0  0  0  0  0999 V2000
   -0.2388   -1.9136   -0.7117 C   0  0  0  0  0  0  0  0  0  0  0  0
   -1.3866   -1.2434    0.0482 C   0  0  1  0  0  0  0  0  0  0  0  0
   -2.5252   -2.0764    0.2222 O   0  0  0  0  0  0  0  0  0  0  0  0
   -0.9159   -0.6501    1.4013 C   0  0  2  0  0  0  0  0  0  0  0  0
    0.5425   -0.4653    1.5917 N   0  0  0  0  0  0  0  0  0  0  0  0
   -1.4258   -1.3518    2.6703 C   0  0  0  0  0  0  0  0  0  0  0  0
   -1.9266   -0.6224    3.6252 N   0  0  0  0  0  0  0  0  0  0  0  0
   -2.1716   -1.4962    4.6557 C   0  0  0  0  0  0  0  0  0  0  0  0
   -2.7243   -1.1739    5.8367 C   0  0  0  0  0  0  0  0  0  0  0  0
   -3.2194    0.1378    6.1277 C   0  0  0  0  0  0  0  0  0  0  0  0
   -2.7583    0.9487    7.1402 C   0  0  0  0  0  0  0  0  0  0  0  0
   -3.4024    2.1556    7.0277 N   0  0  0  0  0  0  0  0  0  0  0  0
   -4.2991    2.1310    5.9795 C   0  0  0  0  0  0  0  0  0  0  0  0
   -5.1643    3.1285    5.5099 C   0  0  0  0  0  0  0  0  0  0  0  0
   -5.9803    2.8151    4.4213 C   0  0  0  0  0  0  0  0  0  0  0  0
   -5.9519    1.5474    3.8453 C   0  0  0  0  0  0  0  0  0  0  0  0
   -5.0923    0.5428    4.3129 C   0  0  0  0  0  0  0  0  0  0  0  0
   -5.2447   -0.7557    3.7935 N   0  0  0  0  0  0  0  0  0  0  0  0
   -4.2281    0.8578    5.4005 C   0  0  0  0  0  0  0  0  0  0  0  0
   -1.7786   -2.8624    4.2257 C   0  0  0  0  0  0  0  0  0  0  0  0
   -1.8243   -3.8890    4.8877 O   0  0  0  0  0  0  0  0  0  0  0  0
   -1.3337   -2.6764    2.9461 N   0  0  0  0  0  0  0  0  0  0  0  0
   -0.6753   -3.7448    2.2000 C   0  0  0  0  0  0  0  0  0  0  0  0
   -1.4419   -4.3081    1.0109 C   0  0  0  0  0  0  0  0  0  0  0  0
   -0.9664   -4.5786   -0.0884 O   0  0  0  0  0  0  0  0  0  0  0  0
   -2.7571   -4.4996    1.2162 O   0  0  0  0  0  0  0  0  0  0  0  0
  2  1  1  1
  2  3  1  0
  4  5  1  6
  4  2  1  0
  6  4  1  0
  6  7  2  0
  6 22  1  0
  8  7  1  0
  8 20  1  0
  9  8  2  0
  9 10  1  0
 10 11  2  0
 11 12  1  0
 13 12  1  0
 14 13  1  0
 15 14  2  0
 16 15  1  0
 17 16  2  0
 17 18  1  0
 19 10  1  0
 19 13  2  0
 19 17  1  0
 20 21  2  0
 20 22  1  0
 23 22  1  0
 23 24  1  0
 24 25  2  0
 24 26  1  0
M  END
>  <DRUGBANK_ID>  (1) 
DB01641

>  <SECONDARY_ACCESSION_NUMBERS>  (1) 
EXPT00264

>  <COMMON_NAME>  (1) 
{(4Z)-2-[(1R,2R)-1-Amino-2-hydroxypropyl]-4-[(4-amino-1H-indol-3-yl)methylene]-5-oxo-4,5-dihydro-1H-imidazol-1-yl}acetic acid

$$$$
