
     RDKit          3D

 33 37  0  0  1  0  0  0  0  0999 V2000
   -1.5512    0.0166   -0.1141 C   0  0  0  0  0  0  0  0  0  0  0  0
   -0.8075    1.2528    0.3788 C   0  0  0  0  0  0  0  0  0  0  0  0
   -0.8127   -1.2503    0.3023 C   0  0  0  0  0  0  0  0  0  0  0  0
   -4.7091    2.7301   -6.7176 C   0  0  0  0  0  0  0  0  0  0  0  0
   -4.5501    0.2894   -6.9991 C   0  0  0  0  0  0  0  0  0  0  0  0
   -0.6833   -0.0289   -4.6645 C   0  0  0  0  0  0  0  0  0  0  0  0
   -0.8328    2.2783   -4.3133 C   0  0  0  0  0  0  0  0  0  0  0  0
   -5.2020    2.5458   -5.4469 C   0  0  0  0  0  0  0  0  0  0  0  0
   -5.0010    0.1201   -5.7096 C   0  0  0  0  0  0  0  0  0  0  0  0
    0.4171    5.0501   -6.1971 C   0  0  0  0  0  0  0  0  0  0  0  0
    0.4463   -0.1256   -3.7694 C   0  0  0  0  0  0  0  0  0  0  0  0
    0.3836    2.1999   -3.5213 C   0  0  0  0  0  0  0  0  0  0  0  0
    0.3648    3.7093   -6.4169 C   0  0  0  0  0  0  0  0  0  0  0  0
    0.6412    1.2045   -0.0630 C   0  0  0  0  0  0  0  0  0  0  0  0
    0.6366   -1.2261   -0.1689 C   0  0  0  0  0  0  0  0  0  0  0  0
    2.7189    0.0057   -0.3110 C   0  0  0  0  0  0  0  0  0  0  0  0
    2.8357   -0.0352   -1.8732 C   0  0  0  0  0  0  0  0  0  0  0  0
   -1.1590    5.3554   -8.0104 C   0  0  0  0  0  0  0  0  0  0  0  0
   -1.2734    1.1990   -5.1087 C   0  0  0  0  0  0  0  0  0  0  0  0
   -4.2246    1.5986   -7.3670 C   0  0  0  0  0  0  0  0  0  0  0  0
   -5.2977    1.2451   -4.9511 C   0  0  0  0  0  0  0  0  0  0  0  0
   -0.2625    5.8895   -7.0812 C   0  0  0  0  0  0  0  0  0  0  0  0
    1.0806    1.0050   -3.2931 C   0  0  0  0  0  0  0  0  0  0  0  0
   -0.5413    3.1453   -7.2882 C   0  0  0  0  0  0  0  0  0  0  0  0
   -1.3734    3.9792   -8.0484 C   0  0  0  0  0  0  0  0  0  0  0  0
   -1.7196    1.2962   -6.7153 C   0  0  1  0  0  0  0  0  0  0  0  0
   -2.8393    1.7055   -7.9138 C   0  0  2  0  0  0  0  0  0  0  0  0
    1.3589   -0.0273    0.2752 N   0  0  0  0  0  0  0  0  0  0  0  0
   -5.6439    1.0444   -3.6494 O   0  0  0  0  0  0  0  0  0  0  0  0
    0.0203    7.2132   -7.0753 O   0  0  0  0  0  0  0  0  0  0  0  0
    2.2439    1.0974   -2.5544 O   0  0  0  0  0  0  0  0  0  0  0  0
   -0.5237    1.7705   -7.3546 O   0  0  0  0  0  0  0  0  0  0  0  0
   -2.6190    3.2057   -9.0138 S   0  0  0  0  0  0  0  0  0  0  0  0
  2  1  1  0
  3  1  1  0
  8  4  2  0
  9  5  1  0
 11  6  2  0
 12  7  1  0
 13 10  2  0
 14  2  1  0
 15  3  1  0
 17 16  1  0
 19  6  1  0
 19  7  2  0
 20  4  1  0
 20  5  2  0
 21  8  1  0
 21  9  2  0
 22 10  1  0
 22 18  2  0
 23 11  1  0
 23 12  2  0
 24 13  1  0
 25 18  1  0
 25 24  2  0
 26 19  1  1
 27 20  1  1
 27 26  1  0
 28 14  1  0
 28 15  1  0
 28 16  1  0
 29 21  1  0
 30 22  1  0
 31 17  1  0
 31 23  1  0
 32 24  1  0
 32 26  1  0
 33 25  1  0
 33 27  1  0
M  END
>  <DRUGBANK_ID>  (1) 
DB03742

>  <SECONDARY_ACCESSION_NUMBERS>  (1) 
EXPT01315

>  <COMMON_NAME>  (1) 
Compound 4-D

$$$$
