
     RDKit          3D

 37 40  0  0  1  0  0  0  0  0999 V2000
    2.3388    1.2140   -0.0682 C   0  0  0  0  0  0  0  0  0  0  0  0
    1.0011    0.5052   -0.0183 C   0  0  0  0  0  0  0  0  0  0  0  0
    0.8529   -0.8666    0.1007 C   0  0  0  0  0  0  0  0  0  0  0  0
   -0.2315   -1.7048   -0.0004 C   0  0  0  0  0  0  0  0  0  0  0  0
   -1.4106   -1.0320   -0.0203 C   0  0  0  0  0  0  0  0  0  0  0  0
   -1.3916    0.3933   -0.0099 C   0  0  0  0  0  0  0  0  0  0  0  0
   -0.1845    1.1668   -0.0373 C   0  0  0  0  0  0  0  0  0  0  0  0
   -0.0979    2.6174   -0.0244 C   0  0  0  0  0  0  0  0  0  0  0  0
    0.4771    3.3199   -1.1080 C   0  0  0  0  0  0  0  0  0  0  0  0
    0.5710    4.7020   -1.0957 C   0  0  0  0  0  0  0  0  0  0  0  0
   -0.0200    5.3966   -0.0483 C   0  0  0  0  0  0  0  0  0  0  0  0
   -0.6552    4.7000    0.9990 C   0  0  0  0  0  0  0  0  0  0  0  0
   -0.5445    3.3151    1.0908 C   0  0  0  0  0  0  0  0  0  0  0  0
   -1.7404    5.3801    1.7936 C   0  0  0  0  0  0  0  0  0  0  0  0
   -3.0613    4.8115    1.6331 O   0  0  0  0  0  0  0  0  0  0  0  0
   -3.6627    4.7983    0.3982 C   0  0  0  0  0  0  0  0  0  0  0  0
   -3.0355    4.4028   -0.7938 C   0  0  0  0  0  0  0  0  0  0  0  0
   -3.6881    4.2760   -2.0134 C   0  0  0  0  0  0  0  0  0  0  0  0
   -5.0332    4.5132   -2.0069 C   0  0  0  0  0  0  0  0  0  0  0  0
   -5.7020    4.7686   -0.8200 C   0  0  0  0  0  0  0  0  0  0  0  0
   -5.0389    5.0036    0.3702 C   0  0  0  0  0  0  0  0  0  0  0  0
   -7.0654    4.7411   -0.9808 O   0  0  0  0  0  0  0  0  0  0  0  0
   -7.2237    4.2034   -2.3312 C   0  0  0  0  0  0  0  0  0  0  0  0
   -5.9823    4.6350   -3.1361 C   0  0  1  0  0  0  0  0  0  0  0  0
   -6.2304    6.0684   -3.6324 C   0  0  0  0  0  0  0  0  0  0  0  0
   -5.0570    7.0060   -3.7170 C   0  0  0  0  0  0  0  0  0  0  0  0
   -4.7436    7.6558   -4.7007 O   0  0  0  0  0  0  0  0  0  0  0  0
   -4.4244    7.1892   -2.5461 O   0  0  0  0  0  0  0  0  0  0  0  0
   -2.7105    1.0841   -0.0141 C   0  0  0  0  0  0  0  0  0  0  0  0
   -0.1674   -3.0622   -0.1123 O   0  0  0  0  0  0  0  0  0  0  0  0
    1.0607   -3.8301   -0.1863 C   0  0  0  0  0  0  0  0  0  0  0  0
    2.0579   -3.5798   -1.3351 C   0  0  0  0  0  0  0  0  0  0  0  0
    2.7423   -2.2139   -1.3445 C   0  0  0  0  0  0  0  0  0  0  0  0
    3.7962   -1.9970    0.4098 S   0  0  0  0  0  0  0  0  0  0  0  0
    4.7383   -3.1201    0.4327 O   0  0  0  0  0  0  0  0  0  0  0  0
    4.3576   -0.6804    0.5000 O   0  0  0  0  0  0  0  0  0  0  0  0
    2.7511   -2.1584    1.9921 C   0  0  0  0  0  0  0  0  0  0  0  0
  1  2  1  0
  2  3  2  0
  2  7  1  0
  3  4  1  0
  4  5  2  0
  4 30  1  0
  5  6  1  0
  6  7  2  0
  6 29  1  0
  7  8  1  0
  8  9  2  0
  8 13  1  0
  9 10  1  0
 10 11  2  0
 11 12  1  0
 12 13  2  0
 12 14  1  0
 14 15  1  0
 15 16  1  0
 16 17  2  0
 16 21  1  0
 17 18  1  0
 18 19  2  0
 19 20  1  0
 19 24  1  0
 20 21  2  0
 20 22  1  0
 22 23  1  0
 23 24  1  0
 24 25  1  1
 25 26  1  0
 26 27  2  0
 26 28  1  0
 30 31  1  0
 31 32  1  0
 32 33  1  0
 33 34  1  0
 34 35  2  0
 34 36  2  0
 34 37  1  0
M  END
>  <DRUGBANK_ID>  (1) 
DB12491

>  <COMMON_NAME>  (1) 
Fasiglifam

>  <CAS_NUMBER>  (1) 
1000413-72-8

>  <UNII>  (1) 
GLP1W4JXAH

>  <SYNONYMS>  (1) 
Fasiglifam

$$$$
