
     RDKit          3D

 18 19  0  0  0  0  0  0  0  0999 V2000
    0.9671    0.2722   -0.1095 C   0  0  0  0  0  0  0  0  0  0  0  0
    0.2909    1.0146    1.0506 C   0  0  0  0  0  0  0  0  0  0  0  0
    1.0348    2.1989    1.4969 N   0  0  0  0  0  0  0  0  0  0  0  0
    0.4503    2.7935    2.7141 C   0  0  0  0  0  0  0  0  0  0  0  0
    0.7095    2.1187    4.0618 C   0  0  0  0  0  0  0  0  0  0  0  0
    2.5017    2.0320    1.5393 C   0  0  0  0  0  0  0  0  0  0  0  0
    3.2098    1.0449    2.5250 C   0  0  0  0  0  0  0  0  0  0  0  0
    2.6369   -0.3507    2.6423 C   0  0  0  0  0  0  0  0  0  0  0  0
    1.4211   -0.7406    2.8886 N   0  0  0  0  0  0  0  0  0  0  0  0
    1.3871   -2.0529    2.4938 C   0  0  0  0  0  0  0  0  0  0  0  0
    2.6261   -2.5582    2.3578 N   0  0  0  0  0  0  0  0  0  0  0  0
    3.4701   -1.4225    2.4332 O   0  0  0  0  0  0  0  0  0  0  0  0
    0.1281   -2.7841    2.2559 C   0  0  0  0  0  0  0  0  0  0  0  0
   -0.6746   -2.6283    1.1042 C   0  0  0  0  0  0  0  0  0  0  0  0
   -1.7940   -3.4256    0.8377 C   0  0  0  0  0  0  0  0  0  0  0  0
   -2.1544   -4.4017    1.7445 C   0  0  0  0  0  0  0  0  0  0  0  0
   -1.4211   -4.5346    2.9237 C   0  0  0  0  0  0  0  0  0  0  0  0
   -0.3144   -3.7119    3.1934 C   0  0  0  0  0  0  0  0  0  0  0  0
  1  2  1  0
  2  3  1  0
  3  4  1  0
  3  6  1  0
  4  5  1  0
  6  7  1  0
  7  8  1  0
  8  9  2  0
  8 12  1  0
  9 10  1  0
 10 11  2  0
 10 13  1  0
 11 12  1  0
 13 14  2  0
 13 18  1  0
 14 15  1  0
 15 16  2  0
 16 17  1  0
 17 18  2  0
M  END
>  <DRUGBANK_ID>  (1) 
DB13216

>  <COMMON_NAME>  (1) 
Oxolamine

>  <CAS_NUMBER>  (1) 
959-14-8

>  <UNII>  (1) 
90BEA145GY

>  <SYNONYMS>  (1) 
Oxolamina; Oxolamine; Oxolaminum

$$$$
