
     RDKit          3D

 19 19  0  0  1  0  0  0  0  0999 V2000
    1.0247   -0.0866   -0.1893 C   0  0  0  0  0  0  0  0  0  0  0  0
    0.7010   -0.0806    1.2853 C   0  0  0  0  0  0  0  0  0  0  0  0
    1.3334    1.1474    1.9256 C   0  0  0  0  0  0  0  0  0  0  0  0
   -0.7337   -0.1508    1.4374 N   0  0  0  0  0  0  0  0  0  0  0  0
   -1.0813   -0.2765    2.8425 C   0  0  0  0  0  0  0  0  0  0  0  0
   -1.1931    1.0607    3.6564 C   0  0  1  0  0  0  0  0  0  0  0  0
   -1.7645    2.2967    2.8889 C   0  0  0  0  0  0  0  0  0  0  0  0
   -3.2023    2.4688    2.8066 O   0  0  0  0  0  0  0  0  0  0  0  0
   -3.9017    1.4376    2.2529 C   0  0  0  0  0  0  0  0  0  0  0  0
   -3.8459    0.1736    2.7951 C   0  0  0  0  0  0  0  0  0  0  0  0
   -4.2270   -0.9541    2.0883 C   0  0  0  0  0  0  0  0  0  0  0  0
   -5.1019   -0.8037    1.0460 C   0  0  0  0  0  0  0  0  0  0  0  0
   -5.5089    0.4990    0.7284 C   0  0  0  0  0  0  0  0  0  0  0  0
   -4.8318    1.6208    1.2497 C   0  0  0  0  0  0  0  0  0  0  0  0
   -5.6756   -2.0373    0.4148 C   0  0  0  0  0  0  0  0  0  0  0  0
   -7.1262   -2.2246    0.8107 C   0  0  0  0  0  0  0  0  0  0  0  0
   -8.0411   -2.1658    0.0173 O   0  0  0  0  0  0  0  0  0  0  0  0
   -7.3515   -2.4660    2.1435 N   0  0  0  0  0  0  0  0  0  0  0  0
   -1.7558    0.8691    4.9604 O   0  0  0  0  0  0  0  0  0  0  0  0
  1  2  1  0
  2  3  1  0
  2  4  1  0
  4  5  1  0
  5  6  1  0
  6  7  1  0
  6 19  1  1
  7  8  1  0
  8  9  1  0
  9 10  2  0
  9 14  1  0
 10 11  1  0
 11 12  2  0
 12 13  1  0
 12 15  1  0
 13 14  2  0
 15 16  1  0
 16 17  2  0
 16 18  1  0
M  END
>  <DRUGBANK_ID>  (1) 
DB13443

>  <COMMON_NAME>  (1) 
Esatenolol

>  <CAS_NUMBER>  (1) 
93379-54-5

>  <UNII>  (1) 
DPF757BOSR

>  <SYNONYMS>  (1) 
(-)-Atenolol; (S)-4-(2-Hydroxy-3-((1-methylethyl)amino)propoxy)benzeneacetamide; 2-(p-((2S)-2-hydroxy-3-(isopropylamino)propoxy)phenyl)acetamide; Esatenolol; S-(-)-4-(2-Hydroxy-3-isopropylaminopropoxy)phenylacetamide; S-atenolol

$$$$
