903
     RDKit          3D

 19 19  0  0  0  0  0  0  0  0999 V2000
    1.6817    0.7424    0.7450 Cl  0  0  0  0  0  0  0  0  0  0  0  0
    1.2230   -2.0779   -0.0912 Cl  0  0  0  0  0  0  0  0  0  0  0  0
   -1.4254   -2.8783    0.0003 O   0  0  0  0  0  0  0  0  0  0  0  0
   -2.4020    3.3697   -0.0687 O   0  0  0  0  0  0  0  0  0  0  0  0
   -4.6369   -2.7469    1.2858 O   0  0  0  0  0  0  0  0  0  0  0  0
   -2.8805   -3.3544    2.5669 O   0  0  0  0  0  0  0  0  0  0  0  0
   -1.0972    1.3369    0.0722 C   0  0  0  0  0  0  0  0  0  0  0  0
   -0.1190    3.8906   -0.1161 C   0  0  0  0  0  0  0  0  0  0  0  0
   -1.2591    2.8994   -0.0083 C   0  0  0  0  0  0  0  0  0  0  0  0
    1.2332    3.3524   -0.2418 C   0  0  0  0  0  0  0  0  0  0  0  0
    0.0291    0.4266    0.1859 C   0  0  0  0  0  0  0  0  0  0  0  0
   -2.3634    0.7134   -0.0257 C   0  0  0  0  0  0  0  0  0  0  0  0
   -1.4089   -1.5168   -0.0222 C   0  0  0  0  0  0  0  0  0  0  0  0
   -0.1401   -0.9652    0.0236 C   0  0  0  0  0  0  0  0  0  0  0  0
   -2.5135   -0.6756   -0.0387 C   0  0  0  0  0  0  0  0  0  0  0  0
    2.0930    3.5380   -1.4576 C   0  0  0  0  0  0  0  0  0  0  0  0
   -0.2655    5.2237   -0.1525 C   0  0  0  0  0  0  0  0  0  0  0  0
   -2.6578   -3.5345    0.1449 C   0  0  0  0  0  0  0  0  0  0  0  0
   -3.3858   -3.2321    1.4453 C   0  0  0  0  0  0  0  0  0  0  0  0
  1 11  1  0
  2 14  1  0
  3 13  1  0
  3 18  1  0
  4  9  2  0
  5 19  1  0
  6 19  2  0
  7  9  1  0
  7 11  2  0
  7 12  1  0
  8  9  1  0
  8 10  1  0
  8 17  2  0
 10 16  1  0
 11 14  1  0
 12 15  2  0
 13 14  2  0
 13 15  1  0
 18 19  1  0
M  END
>  <DRUGBANK_ID>  (1) 
DB00903

>  <SECONDARY_ACCESSION_NUMBERS>  (1) 
APRD00251

>  <COMMON_NAME>  (1) 
Etacrynic acid

>  <CAS_NUMBER>  (1) 
58-54-8

>  <UNII>  (1) 
M5DP350VZV

>  <SYNONYMS>  (1) 
(2,3-Dichloro-4-(2-methylene-1-oxobutyl)phenoxy)acetic acid; Acide étacrynique; ácido etacrínico; Acidum etacrynicum; Etacrinic acid; Etacrynic acid; Ethacrynate; Ethacrynic acid; Methylenebutyrylphenoxyacetic acid

$$$$
