3BD
     RDKit          3D

 30 33  0  0  0  0  0  0  0  0999 V2000
    0.9678   -0.0678   -0.0350 C   0  0  0  0  0  0  0  0  0  0  0  0
   -2.3666   -3.8403    0.5799 C   0  0  0  0  0  0  0  0  0  0  0  0
   -3.7169   -1.8216    6.0733 C   0  0  0  0  0  0  0  0  0  0  0  0
   -2.7917   -2.3750    7.1810 C   0  0  0  0  0  0  0  0  0  0  0  0
   -4.2968   -0.4828    6.5784 C   0  0  0  0  0  0  0  0  0  0  0  0
   -4.8936   -2.8095    5.9216 C   0  0  0  0  0  0  0  0  0  0  0  0
   -2.3826   -3.5295   -0.9503 C   0  0  0  0  0  0  0  0  0  0  0  0
   -4.5525   -2.3687   -0.6846 C   0  0  0  0  0  0  0  0  0  0  0  0
    0.3440    0.0187   -1.0951 O   0  0  0  0  0  0  0  0  0  0  0  0
   -1.8793   -0.8193    4.7261 N   0  0  0  0  0  0  0  0  0  0  0  0
    0.5980    0.3925    2.4233 C   0  0  0  0  0  0  0  0  0  0  0  0
    0.2601   -0.2540    1.2481 C   0  0  0  0  0  0  0  0  0  0  0  0
   -0.8531   -1.0762    1.2598 C   0  0  0  0  0  0  0  0  0  0  0  0
   -1.1971   -0.6465    3.5877 C   0  0  0  0  0  0  0  0  0  0  0  0
   -2.9570   -1.6360    4.7313 C   0  0  0  0  0  0  0  0  0  0  0  0
   -0.1220    0.1946    3.5634 N   0  0  0  0  0  0  0  0  0  0  0  0
   -3.4044   -2.2925    3.6281 N   0  0  0  0  0  0  0  0  0  0  0  0
   -1.5873   -1.3239    2.4292 C   0  0  0  0  0  0  0  0  0  0  0  0
   -2.7152   -2.1697    2.4739 C   0  0  0  0  0  0  0  0  0  0  0  0
    1.7705    1.1567    2.4884 N   0  0  0  0  0  0  0  0  0  0  0  0
    2.3295   -0.0289   -0.0120 N   0  0  0  0  0  0  0  0  0  0  0  0
   -3.1587   -2.8347    1.3317 N   0  0  0  0  0  0  0  0  0  0  0  0
   -3.7472   -3.3441   -1.4278 N   0  0  0  0  0  0  0  0  0  0  0  0
   -4.5516   -2.7311    0.8503 C   0  0  0  0  0  0  0  0  0  0  0  0
   -4.1773   -4.0102   -2.5438 C   0  0  0  0  0  0  0  0  0  0  0  0
   -4.0562   -5.3504   -2.5525 N   0  0  0  0  0  0  0  0  0  0  0  0
   -4.6430   -6.0285   -3.5638 C   0  0  0  0  0  0  0  0  0  0  0  0
   -5.3283   -5.4310   -4.5867 C   0  0  0  0  0  0  0  0  0  0  0  0
   -5.2340   -4.0645   -4.5961 C   0  0  0  0  0  0  0  0  0  0  0  0
   -4.7138   -3.3371   -3.5772 N   0  0  0  0  0  0  0  0  0  0  0  0
  1  9  2  0
  1 12  1  0
  1 21  1  0
  2  7  1  0
  2 22  1  0
  3  4  1  0
  3  5  1  0
  3  6  1  0
  3 15  1  0
  7 23  1  0
  8 23  1  0
  8 24  1  0
 10 14  2  0
 10 15  1  0
 11 12  1  0
 11 16  2  0
 11 20  1  0
 12 13  2  0
 13 18  1  0
 14 16  1  0
 14 18  1  0
 15 17  2  0
 17 19  1  0
 18 19  2  0
 19 22  1  0
 22 24  1  0
 23 25  1  0
 25 26  2  0
 25 30  1  0
 26 27  1  0
 27 28  2  0
 28 29  1  0
 29 30  2  0
M  END
>  <DRUGBANK_ID>  (1) 
DB07043

>  <COMMON_NAME>  (1) 
7-amino-2-tert-butyl-4-(4-pyrimidin-2-ylpiperazin-1-yl)pyrido[2,3-d]pyrimidine-6-carboxamide

$$$$
