
     RDKit          3D

 37 40  0  0  1  0  0  0  0  0999 V2000
    1.3530   -0.6854   -0.5694 C   0  0  0  0  0  0  0  0  0  0  0  0
    0.3977   -1.6146   -0.1028 N   0  0  0  0  0  0  0  0  0  0  0  0
   -0.4559   -1.5155    1.0468 C   0  0  0  0  0  0  0  0  0  0  0  0
   -0.9550   -2.5689    1.3367 O   0  0  0  0  0  0  0  0  0  0  0  0
   -0.7306   -0.0650    2.1456 C   0  0  1  0  0  0  0  0  0  0  0  0
    0.3046   -0.0525    3.2930 C   0  0  0  0  0  0  0  0  0  0  0  0
    0.4328    1.1866    3.8962 C   0  0  0  0  0  0  0  0  0  0  0  0
    1.6241    1.5847    4.4756 C   0  0  0  0  0  0  0  0  0  0  0  0
    2.6127    0.6529    4.7304 C   0  0  0  0  0  0  0  0  0  0  0  0
    2.3921   -0.6853    4.4048 C   0  0  0  0  0  0  0  0  0  0  0  0
    1.2615   -1.0435    3.6351 C   0  0  0  0  0  0  0  0  0  0  0  0
   -1.3642    1.4390    1.5196 N   0  0  0  0  0  0  0  0  0  0  0  0
   -1.2287    3.1457    1.5834 C   0  0  0  0  0  0  0  0  0  0  0  0
   -0.0795    3.9080    2.1442 C   0  0  0  0  0  0  0  0  0  0  0  0
    1.1029    3.1775    1.5582 C   0  0  0  0  0  0  0  0  0  0  0  0
    2.3704    3.6543    1.8706 C   0  0  0  0  0  0  0  0  0  0  0  0
    3.4866    2.8054    1.9953 C   0  0  0  0  0  0  0  0  0  0  0  0
    3.3481    1.4759    1.7351 C   0  0  0  0  0  0  0  0  0  0  0  0
    2.0922    1.1093    1.3066 C   0  0  0  0  0  0  0  0  0  0  0  0
    0.9607    1.9354    0.9465 C   0  0  0  0  0  0  0  0  0  0  0  0
   -0.5402    1.4185    0.3628 C   0  0  2  0  0  0  0  0  0  0  0  0
   -1.5805    2.0767   -0.6493 C   0  0  0  0  0  0  0  0  0  0  0  0
   -0.7867    3.0336   -1.4842 C   0  0  0  0  0  0  0  0  0  0  0  0
   -0.1230    2.3454   -2.5903 C   0  0  0  0  0  0  0  0  0  0  0  0
    0.8922    3.0614   -3.2137 C   0  0  0  0  0  0  0  0  0  0  0  0
    1.6933    2.3844   -4.0913 C   0  0  0  0  0  0  0  0  0  0  0  0
    1.5342    0.9976   -4.2211 C   0  0  0  0  0  0  0  0  0  0  0  0
    0.6196    0.2813   -3.4696 C   0  0  0  0  0  0  0  0  0  0  0  0
   -0.3035    0.9745   -2.7638 C   0  0  0  0  0  0  0  0  0  0  0  0
    2.1759    0.2062   -5.2902 C   0  0  0  0  0  0  0  0  0  0  0  0
    3.0073   -0.7473   -4.8030 F   0  0  0  0  0  0  0  0  0  0  0  0
    1.2207   -0.4473   -6.0105 F   0  0  0  0  0  0  0  0  0  0  0  0
    2.8740    0.9631   -6.1649 F   0  0  0  0  0  0  0  0  0  0  0  0
    4.1802    0.4115    1.9581 O   0  0  0  0  0  0  0  0  0  0  0  0
    5.4939    0.7161    2.3818 C   0  0  0  0  0  0  0  0  0  0  0  0
    4.6482    3.1985    2.5779 O   0  0  0  0  0  0  0  0  0  0  0  0
    4.7021    4.5783    2.8345 C   0  0  0  0  0  0  0  0  0  0  0  0
  1  2  1  0
  2  3  1  0
  3  4  2  0
  5  3  1  6
  5  6  1  0
  5 12  1  0
  6  7  2  0
  6 11  1  0
  7  8  1  0
  8  9  2  0
  9 10  1  0
 10 11  2  0
 12 13  1  0
 12 21  1  0
 13 14  1  0
 14 15  1  0
 15 16  2  0
 15 20  1  0
 16 17  1  0
 17 18  2  0
 17 36  1  0
 18 19  1  0
 18 34  1  0
 19 20  2  0
 20 21  1  0
 21 22  1  6
 22 23  1  0
 23 24  1  0
 24 25  2  0
 24 29  1  0
 25 26  1  0
 26 27  2  0
 27 28  1  0
 27 30  1  0
 28 29  2  0
 30 31  1  0
 30 32  1  0
 30 33  1  0
 34 35  1  0
 36 37  1  0
M  END
>  <DRUGBANK_ID>  (1) 
DB06673

>  <COMMON_NAME>  (1) 
Almorexant

>  <CAS_NUMBER>  (1) 
871224-64-5

>  <UNII>  (1) 
9KCW39P2EI

>  <SYNONYMS>  (1) 
Almorexant

$$$$
