236
     RDKit          3D

 16 16  0  0  0  0  0  0  0  0999 V2000
    1.5360    0.1406   -1.1542 Br  0  0  0  0  0  0  0  0  0  0  0  0
   -2.1931    1.6067   -1.0397 Br  0  0  0  0  0  0  0  0  0  0  0  0
    3.7843    0.9363    3.3224 O   0  0  0  0  0  0  0  0  0  0  0  0
   -2.9789    2.3711    3.5811 O   0  0  0  0  0  0  0  0  0  0  0  0
    1.6018    0.8490    2.7260 N   0  0  0  0  0  0  0  0  0  0  0  0
   -1.0944    1.6898    2.4926 N   0  0  0  0  0  0  0  0  0  0  0  0
    0.6407    0.0061    2.0655 C   0  0  0  0  0  0  0  0  0  0  0  0
    1.0060    1.5855    3.8543 C   0  0  0  0  0  0  0  0  0  0  0  0
   -0.4354    0.8893    1.4704 C   0  0  0  0  0  0  0  0  0  0  0  0
   -0.1623    2.4747    3.3357 C   0  0  0  0  0  0  0  0  0  0  0  0
    2.9455    0.8715    2.4290 C   0  0  0  0  0  0  0  0  0  0  0  0
   -2.4666    1.7560    2.6582 C   0  0  0  0  0  0  0  0  0  0  0  0
    3.3791    1.0523    0.9568 C   0  0  0  0  0  0  0  0  0  0  0  0
   -3.3486    0.9699    1.6815 C   0  0  0  0  0  0  0  0  0  0  0  0
    3.1550   -0.0249   -0.0852 C   0  0  0  0  0  0  0  0  0  0  0  0
   -3.5878    1.5613    0.3015 C   0  0  0  0  0  0  0  0  0  0  0  0
  1 15  1  0
  2 16  1  0
  3 11  2  0
  4 12  2  0
  5  7  1  0
  5  8  1  0
  5 11  1  0
  6  9  1  0
  6 10  1  0
  6 12  1  0
  7  9  1  0
  8 10  1  0
 11 13  1  0
 12 14  1  0
 13 15  1  0
 14 16  1  0
M  END
>  <DRUGBANK_ID>  (1) 
DB00236

>  <SECONDARY_ACCESSION_NUMBERS>  (1) 
APRD00693

>  <COMMON_NAME>  (1) 
Pipobroman

>  <CAS_NUMBER>  (1) 
54-91-1

>  <UNII>  (1) 
6Q99RDT97R

>  <SYNONYMS>  (1) 
1,4-bis(3-bromopropionyl)piperazine; N,N-bis-(3-bromopropionyl)-piperazine; Pipobroman; Pipobromanum

$$$$
