DK2
     RDKit          3D

 26 28  0  0  0  0  0  0  0  0999 V2000
    1.5175    2.2710    0.0211 O   0  0  0  0  0  0  0  0  0  0  0  0
    1.1479    1.1153    0.0259 C   0  0  0  0  0  0  0  0  0  0  0  0
   -0.2602    0.6934    0.0021 C   0  0  0  0  0  0  0  0  0  0  0  0
   -0.2841   -0.6887    0.0176 C   0  0  0  0  0  0  0  0  0  0  0  0
   -1.4650   -1.4133    0.0309 C   0  0  0  0  0  0  0  0  0  0  0  0
   -1.4294    1.4300   -0.0260 C   0  0  0  0  0  0  0  0  0  0  0  0
   -2.6445    0.7237   -0.0147 C   0  0  0  0  0  0  0  0  0  0  0  0
   -2.6697   -0.6921    0.0204 C   0  0  0  0  0  0  0  0  0  0  0  0
   -3.9505   -1.4510    0.0542 C   0  0  0  0  0  0  0  0  0  0  0  0
   -5.0332   -0.6519    0.0439 O   0  0  0  0  0  0  0  0  0  0  0  0
   -4.0534   -2.6627    0.0926 O   0  0  0  0  0  0  0  0  0  0  0  0
    1.8934   -0.0330    0.0403 N   0  0  0  0  0  0  0  0  0  0  0  0
    1.1021   -1.1484    0.0214 C   0  0  0  0  0  0  0  0  0  0  0  0
    1.4361   -2.3155    0.0090 O   0  0  0  0  0  0  0  0  0  0  0  0
    3.3492   -0.0893   -0.0957 C   0  0  1  0  0  0  0  0  0  0  0  0
    3.9666   -0.8154    1.0923 C   0  0  0  0  0  0  0  0  0  0  0  0
    3.6255   -0.2672    2.2804 O   0  0  0  0  0  0  0  0  0  0  0  0
    4.7814   -1.7238    1.0538 O   0  0  0  0  0  0  0  0  0  0  0  0
    3.7969   -0.7293   -1.4209 C   0  0  0  0  0  0  0  0  0  0  0  0
    3.2976    0.0090   -2.6438 C   0  0  0  0  0  0  0  0  0  0  0  0
    3.4681    1.3976   -2.7604 C   0  0  0  0  0  0  0  0  0  0  0  0
    3.0649    2.0759   -3.9097 C   0  0  0  0  0  0  0  0  0  0  0  0
    2.5010    1.3596   -4.9569 C   0  0  0  0  0  0  0  0  0  0  0  0
    2.1296    1.9671   -6.1192 O   0  0  0  0  0  0  0  0  0  0  0  0
    2.3048   -0.0126   -4.8549 C   0  0  0  0  0  0  0  0  0  0  0  0
    2.6993   -0.6901   -3.6998 C   0  0  0  0  0  0  0  0  0  0  0  0
  1  2  2  0
  2 12  1  0
  2  3  1  0
  3  4  2  0
  3  6  1  0
  4 13  1  0
  4  5  1  0
  5  8  2  0
  6  7  2  0
  7  8  1  0
  8  9  1  0
  9 11  2  0
  9 10  1  0
 12 13  1  0
 13 14  2  0
 15 12  1  0
 15 16  1  0
 15 19  1  6
 16 18  2  0
 16 17  1  0
 19 20  1  0
 20 21  2  0
 20 26  1  0
 21 22  1  0
 22 23  2  0
 23 24  1  0
 23 25  1  0
 25 26  2  0
M  END
>  <DRUGBANK_ID>  (1) 
DB07663

>  <COMMON_NAME>  (1) 
2-[(1R)-1-CARBOXY-2-(4-HYDROXYPHENYL)ETHYL]-1,3-DIOXOISOINDOLINE-5-CARBOXYLIC ACID

$$$$
