
     RDKit          3D

 15 12  0  0  0  0  0  0  0  0999 V2000
    1.1746    0.2229   -1.0739 N   0  0  0  0  0  0  0  0  0  0  0  0
    0.4887   -1.5478   -1.3696 Fe  0  0  0  0  0 15  0  0  0  0  0  0
    1.3450   -0.3119    1.3284 O   0  0  0  0  0  0  0  0  0  0  0  0
    0.4797   -1.3566    1.3727 C   0  0  0  0  0  0  0  0  0  0  0  0
    0.8282   -2.3349    0.8098 O   0  0  0  0  0  0  0  0  0  0  0  0
   -1.0130   -1.0159    1.2686 C   0  0  0  0  0  0  0  0  0  0  0  0
   -1.5874    0.3721    1.5388 C   0  0  0  0  0  0  0  0  0  0  0  0
   -0.9850    1.1144    0.4395 O   0  0  0  0  0  0  0  0  0  0  0  0
   -3.1390    0.3839    1.4082 C   0  0  0  0  0  0  0  0  0  0  0  0
   -3.8029   -0.6666    2.2808 C   0  0  0  0  0  0  0  0  0  0  0  0
   -4.3740   -0.4836    3.3117 O   0  0  0  0  0  0  0  0  0  0  0  0
   -3.5771   -1.9218    1.8124 O   0  0  0  0  0  0  0  0  0  0  0  0
   -1.1417    0.7363    2.9551 C   0  0  0  0  0  0  0  0  0  0  0  0
   -0.4436   -0.0018    3.6343 O   0  0  0  0  0  0  0  0  0  0  0  0
   -1.4854    1.9607    3.3414 O   0  0  0  0  0  0  0  0  0  0  0  0
  3  4  1  0
  4  5  2  0
  4  6  1  0
  6  7  1  0
  7  8  1  0
  7  9  1  0
  7 13  1  0
  9 10  1  0
 10 11  2  0
 10 12  1  0
 13 14  2  0
 13 15  1  0
M  CHG  1   2   3
M  END
>  <DRUGBANK_ID>  (1) 
DB09501

>  <COMMON_NAME>  (1) 
Ferric ammonium citrate

>  <CAS_NUMBER>  (1) 
1185-57-5

>  <UNII>  (1) 
UVP74NG1C5

>  <SYNONYMS>  (1) 
Ferric ammonium citrate; Ferric ammonium citrate, green

$$$$
