382
     RDKit          3D

 15 17  0  0  0  0  0  0  0  0999 V2000
    0.0160    1.3636    0.0368 N   0  0  0  0  0  0  0  0  0  0  0  0
    0.0252   -2.8384   -0.1406 N   0  0  0  0  0  0  0  0  0  0  0  0
   -3.6701   -0.6805    0.3827 C   0  0  0  0  0  0  0  0  0  0  0  0
   -2.4712   -1.5076   -0.0361 C   0  0  0  0  0  0  0  0  0  0  0  0
   -3.6554    0.6299   -0.3855 C   0  0  0  0  0  0  0  0  0  0  0  0
   -1.1735   -0.7443    0.0016 C   0  0  0  0  0  0  0  0  0  0  0  0
   -2.4352    1.4531    0.0389 C   0  0  0  0  0  0  0  0  0  0  0  0
   -1.1444    0.6568    0.0102 C   0  0  0  0  0  0  0  0  0  0  0  0
    0.0382   -1.4445   -0.0284 C   0  0  0  0  0  0  0  0  0  0  0  0
    1.2454   -0.7226   -0.0161 C   0  0  0  0  0  0  0  0  0  0  0  0
    1.1875    0.6927    0.0234 C   0  0  0  0  0  0  0  0  0  0  0  0
    2.4982   -1.3673   -0.0402 C   0  0  0  0  0  0  0  0  0  0  0  0
    2.4003    1.3825    0.0412 C   0  0  0  0  0  0  0  0  0  0  0  0
    3.6863   -0.6568   -0.0270 C   0  0  0  0  0  0  0  0  0  0  0  0
    3.6396    0.7271    0.0151 C   0  0  0  0  0  0  0  0  0  0  0  0
  1  8  2  0
  1 11  1  0
  2  9  1  0
  3  4  1  0
  3  5  1  0
  4  6  1  0
  5  7  1  0
  6  8  1  0
  6  9  2  0
  7  8  1  0
  9 10  1  0
 10 11  2  0
 10 12  1  0
 11 13  1  0
 12 14  2  0
 13 15  2  0
 14 15  1  0
M  END
>  <DRUGBANK_ID>  (1) 
DB00382

>  <SECONDARY_ACCESSION_NUMBERS>  (1) 
APRD00690

>  <COMMON_NAME>  (1) 
Tacrine

>  <CAS_NUMBER>  (1) 
321-64-2

>  <UNII>  (1) 
4VX7YNB537

>  <SYNONYMS>  (1) 
1,2,3,4-tetrahydro-9-acridinamine; 1,2,3,4-tetrahydro-9-aminoacridine; 1,2,3,4-tetrahydroacridin-9-amine; 5-amino-6,7,8,9-tetrahydroacridine; 9-amino-1,2,3,4-tetrahydroacridine; Tacrin; Tacrine; Tacrinum; Tetrahydroaminacrine; Tetrahydroaminoacridine; THA

$$$$
