
     RDKit          3D

 30 33  0  0  0  0  0  0  0  0999 V2000
    1.5890   -0.1611    0.0751 C   0  0  0  0  0  0  0  0  0  0  0  0
    0.7965   -1.2902    0.0712 C   0  0  0  0  0  0  0  0  0  0  0  0
    1.0052    1.1083    0.0608 C   0  0  0  0  0  0  0  0  0  0  0  0
   -0.5650   -1.1384   -0.0610 C   0  0  0  0  0  0  0  0  0  0  0  0
   -0.3813    1.2514    0.0130 C   0  0  0  0  0  0  0  0  0  0  0  0
   -3.9144   -3.5834   -0.2287 C   0  0  0  0  0  0  0  0  0  0  0  0
   -5.1408   -2.6989   -2.0938 C   0  0  0  0  0  0  0  0  0  0  0  0
   -5.4717   -0.6695    1.2628 C   0  0  0  0  0  0  0  0  0  0  0  0
   -3.2943   -2.3485   -0.0657 C   0  0  0  0  0  0  0  0  0  0  0  0
   -4.4349   -1.4968   -1.9865 C   0  0  0  0  0  0  0  0  0  0  0  0
   -6.1098   -1.8746    0.9968 C   0  0  0  0  0  0  0  0  0  0  0  0
   -4.3760   -4.9336    2.7770 C   0  0  0  0  0  0  0  0  0  0  0  0
   -5.4761   -4.1115    2.8756 C   0  0  0  0  0  0  0  0  0  0  0  0
   -7.3862    0.4168    0.4126 C   0  0  0  0  0  0  0  0  0  0  0  0
   -7.7671   -4.2983    1.7412 C   0  0  0  0  0  0  0  0  0  0  0  0
   -6.0413   -4.7387   -0.9262 C   0  0  0  0  0  0  0  0  0  0  0  0
   -6.0507   -6.0958    2.1581 C   0  0  0  0  0  0  0  0  0  0  0  0
   -4.9564   -3.7086   -1.1496 C   0  0  0  0  0  0  0  0  0  0  0  0
   -6.0743    0.4769    0.8905 C   0  0  0  0  0  0  0  0  0  0  0  0
   -1.1703    0.1148   -0.1556 C   0  0  0  0  0  0  0  0  0  0  0  0
   -3.4964   -1.3035   -0.9745 C   0  0  0  0  0  0  0  0  0  0  0  0
   -7.3888   -2.0308    0.4846 C   0  0  0  0  0  0  0  0  0  0  0  0
   -8.0419   -0.8356    0.2364 C   0  0  0  0  0  0  0  0  0  0  0  0
   -7.8414   -3.4943    0.3648 C   0  0  0  0  0  0  0  0  0  0  0  0
   -5.2431    1.9750    1.0122 Cl  0  0  0  0  0  0  0  0  0  0  0  0
   -9.7011   -0.7702   -0.2202 Cl  0  0  0  0  0  0  0  0  0  0  0  0
   -4.7518   -6.1759    2.3560 N   0  0  0  0  0  0  0  0  0  0  0  0
   -6.4917   -4.7997    2.2543 N   0  0  0  0  0  0  0  0  0  0  0  0
   -7.3686   -4.1865   -0.8223 O   0  0  0  0  0  0  0  0  0  0  0  0
   -2.8217    0.3317   -0.7578 S   0  0  0  0  0  0  0  0  0  0  0  0
  2  1  2  0
  3  1  1  0
  4  2  1  0
  5  3  2  0
  9  6  2  0
 10  7  1  0
 11  8  2  0
 13 12  2  0
 18  6  1  0
 18  7  2  0
 18 16  1  0
 19  8  1  0
 19 14  2  0
 20  4  2  0
 20  5  1  0
 21  9  1  0
 21 10  2  0
 22 11  1  0
 23 14  1  0
 23 22  2  0
 24 15  1  0
 24 22  1  0
 25 19  1  0
 26 23  1  0
 27 12  1  0
 27 17  2  0
 28 13  1  0
 28 15  1  0
 28 17  1  0
 29 16  1  0
 29 24  1  0
 30 20  1  0
 30 21  1  0
M  END
>  <DRUGBANK_ID>  (1) 
DB13434

>  <COMMON_NAME>  (1) 
Fenticonazole

>  <CAS_NUMBER>  (1) 
72479-26-6

>  <UNII>  (1) 
QG05NRB077

>  <SYNONYMS>  (1) 
Fenticonazole

$$$$
