
     RDKit          3D

 36 38  0  0  1  0  0  0  0  0999 V2000
   -1.1263   -2.2716    0.5795 C   0  0  0  0  0  0  0  0  0  0  0  0
   -1.5826   -2.8370   -0.7545 C   0  0  0  0  0  0  0  0  0  0  0  0
   -1.0197   -2.0480   -1.9439 C   0  0  0  0  0  0  0  0  0  0  0  0
    0.5286   -2.0439   -2.0199 C   0  0  2  0  0  0  0  0  0  0  0  0
    0.9092   -0.6902   -2.4545 O   0  0  0  0  0  0  0  0  0  0  0  0
    1.3252   -0.4358   -3.7309 C   0  0  0  0  0  0  0  0  0  0  0  0
    0.9844   -1.2185   -4.8174 C   0  0  0  0  0  0  0  0  0  0  0  0
    1.8376   -1.2373   -5.9233 C   0  0  0  0  0  0  0  0  0  0  0  0
    1.8318   -2.4566   -6.7583 C   0  0  0  0  0  0  0  0  0  0  0  0
    2.9222   -0.3421   -6.0416 C   0  0  0  0  0  0  0  0  0  0  0  0
    3.8046   -0.4242   -7.1712 N   0  0  0  0  0  0  0  0  0  0  0  0
    3.4326   -0.7237   -8.4608 C   0  0  0  0  0  0  0  0  0  0  0  0
    4.5256   -0.5562   -9.2746 C   0  0  0  0  0  0  0  0  0  0  0  0
    5.5621   -0.2617   -8.3759 C   0  0  0  0  0  0  0  0  0  0  0  0
    5.1536   -0.2521   -7.1019 N   0  0  0  0  0  0  0  0  0  0  0  0
    4.5663   -0.5988  -10.7464 C   0  0  0  0  0  0  0  0  0  0  0  0
    4.9123    0.6023  -11.2640 F   0  0  0  0  0  0  0  0  0  0  0  0
    5.4635   -1.5120  -11.1864 F   0  0  0  0  0  0  0  0  0  0  0  0
    3.3614   -0.9326  -11.2741 F   0  0  0  0  0  0  0  0  0  0  0  0
    3.0861    0.6292   -5.0572 C   0  0  0  0  0  0  0  0  0  0  0  0
    3.9764    1.8019   -5.3134 C   0  0  0  0  0  0  0  0  0  0  0  0
    2.2915    0.5648   -3.8927 C   0  0  0  0  0  0  0  0  0  0  0  0
    1.1482   -3.2803   -2.7021 C   0  0  0  0  0  0  0  0  0  0  0  0
    2.4012   -3.1974   -3.2967 C   0  0  0  0  0  0  0  0  0  0  0  0
    2.7927   -4.1279   -4.2717 C   0  0  0  0  0  0  0  0  0  0  0  0
    2.0172   -5.2466   -4.6064 C   0  0  0  0  0  0  0  0  0  0  0  0
    0.9477   -5.4923   -3.7411 C   0  0  0  0  0  0  0  0  0  0  0  0
    0.4942   -4.5099   -2.8403 C   0  0  0  0  0  0  0  0  0  0  0  0
    2.1733   -6.1931   -5.8061 C   0  0  0  0  0  0  0  0  0  0  0  0
    1.5379   -7.2501   -5.7958 O   0  0  0  0  0  0  0  0  0  0  0  0
    2.9313   -5.9371   -6.9478 N   0  0  0  0  0  0  0  0  0  0  0  0
    3.5615   -4.7180   -7.3398 C   0  0  0  0  0  0  0  0  0  0  0  0
    5.0569   -4.5550   -7.3100 C   0  0  0  0  0  0  0  0  0  0  0  0
    5.5629   -5.2930   -8.4873 C   0  0  0  0  0  0  0  0  0  0  0  0
    6.2756   -4.5667   -9.3610 O   0  0  0  0  0  0  0  0  0  0  0  0
    5.2804   -6.4796   -8.6923 O   0  0  0  0  0  0  0  0  0  0  0  0
  1  2  1  0
  2  3  1  0
  4 23  1  0
  4  5  1  0
  4  3  1  6
  5  6  1  0
  6  7  2  0
  6 22  1  0
  7  8  1  0
  8  9  1  0
  8 10  2  0
 10 11  1  0
 10 20  1  0
 11 12  1  0
 11 15  1  0
 12 13  2  0
 13 14  1  0
 13 16  1  0
 14 15  2  0
 16 17  1  0
 16 18  1  0
 16 19  1  0
 20 21  1  0
 20 22  2  0
 23 24  2  0
 23 28  1  0
 24 25  1  0
 25 26  2  0
 26 27  1  0
 26 29  1  0
 27 28  2  0
 29 30  2  0
 29 31  1  0
 31 32  1  0
 32 33  1  0
 33 34  1  0
 34 35  1  0
 34 36  2  0
M  END
>  <DRUGBANK_ID>  (1) 
DB15065

>  <COMMON_NAME>  (1) 
PF-06291874

>  <CAS_NUMBER>  (1) 
1393124-08-7

>  <UNII>  (1) 
CGY4I8F278

$$$$
