
     RDKit          3D

 16 16  0  0  0  0  0  0  0  0999 V2000
    0.6593   -0.0257    0.0919 C   0  0  0  0  0  0  0  0  0  0  0  0
    0.2732    4.8201   -0.3977 C   0  0  0  0  0  0  0  0  0  0  0  0
    7.3204    0.9977    3.0398 C   0  0  0  0  0  0  0  0  0  0  0  0
    0.4718    1.4049    0.5669 C   0  0  0  0  0  0  0  0  0  0  0  0
    0.1629    3.3918   -0.9218 C   0  0  0  0  0  0  0  0  0  0  0  0
    3.5356    0.4379   -0.1761 C   0  0  0  0  0  0  0  0  0  0  0  0
    4.2355   -0.4911    0.5905 C   0  0  0  0  0  0  0  0  0  0  0  0
    4.5352    2.2412    1.0202 C   0  0  0  0  0  0  0  0  0  0  0  0
    3.5179    1.7810    0.1728 C   0  0  0  0  0  0  0  0  0  0  0  0
    5.1842   -0.0516    1.4969 C   0  0  0  0  0  0  0  0  0  0  0  0
    5.4052    1.3245    1.6601 C   0  0  0  0  0  0  0  0  0  0  0  0
    2.4924    2.6752   -0.4434 C   0  0  0  0  0  0  0  0  0  0  0  0
    1.0998    2.4384   -0.2895 N   0  0  0  0  0  0  0  0  0  0  0  0
    5.8987   -0.9984    2.1759 O   0  0  0  0  0  0  0  0  0  0  0  0
    2.9352    3.6251   -1.1087 O   0  0  0  0  0  0  0  0  0  0  0  0
    6.4093    1.8955    2.4051 O   0  0  0  0  0  0  0  0  0  0  0  0
  4  1  1  0
  5  2  1  0
  7  6  2  0
  9  6  1  0
  9  8  2  0
 10  7  1  0
 11  8  1  0
 11 10  2  0
 12  9  1  0
 13  4  1  0
 13  5  1  0
 13 12  1  0
 14 10  1  0
 15 12  2  0
 16  3  1  0
 16 11  1  0
M  END
>  <DRUGBANK_ID>  (1) 
DB08989

>  <COMMON_NAME>  (1) 
Etamivan

>  <CAS_NUMBER>  (1) 
304-84-7

>  <UNII>  (1) 
M44O63YPV9

>  <SYNONYMS>  (1) 
étamivan; Etamivan; etamiván; Etamivanum; Ethamivan

$$$$
