NOM
     RDKit          3D

 22 25  0  0  0  0  0  0  0  0999 V2000
   -0.8351   -0.6374   -0.4881 C   0  0  0  0  0  0  0  0  0  0  0  0
    0.4835   -0.8256   -1.0937 C   0  0  0  0  0  0  0  0  0  0  0  0
    1.5089    0.1906   -1.0248 C   0  0  0  0  0  0  0  0  0  0  0  0
    1.2495    0.9069    0.0674 C   0  0  0  0  0  0  0  0  0  0  0  0
   -0.0499    1.4245   -0.0018 C   0  0  0  0  0  0  0  0  0  0  0  0
   -1.1188    0.5845    0.0474 C   0  0  0  0  0  0  0  0  0  0  0  0
    2.3443    1.3197   -2.0948 C   0  0  0  0  0  0  0  0  0  0  0  0
    2.5558    2.9362   -1.4807 C   0  0  0  0  0  0  0  0  0  0  0  0
    2.4316    2.9282   -0.1324 C   0  0  0  0  0  0  0  0  0  0  0  0
    2.4933    1.5895    0.3821 C   0  0  0  0  0  0  0  0  0  0  0  0
    3.5508    1.0167    0.5893 O   0  0  0  0  0  0  0  0  0  0  0  0
    2.8647    0.9674   -3.0964 O   0  0  0  0  0  0  0  0  0  0  0  0
   -0.4112    2.4610   -0.8675 O   0  0  0  0  0  0  0  0  0  0  0  0
    2.7992    4.4715   -1.9534 C   0  0  2  0  0  0  0  0  0  0  0  0
    1.8660    5.3546   -1.0879 C   0  0  1  0  0  0  0  0  0  0  0  0
    2.2525    5.3066    0.2761 O   0  0  0  0  0  0  0  0  0  0  0  0
    2.0541    4.0119    0.8363 C   0  0  1  0  0  0  0  0  0  0  0  0
    0.5755    3.9301    1.2624 C   0  0  0  0  0  0  0  0  0  0  0  0
    1.9370    6.7561   -1.6200 C   0  0  0  0  0  0  0  0  0  0  0  0
    2.3919    6.4706   -3.0160 C   0  0  0  0  0  0  0  0  0  0  0  0
    2.5064    7.3444   -3.8647 O   0  0  0  0  0  0  0  0  0  0  0  0
    2.5753    5.0899   -3.2248 O   0  0  0  0  0  0  0  0  0  0  0  0
  1  2  2  0
  1  6  1  0
  2  3  1  0
  3  4  2  0
  3  7  1  0
  4  5  1  0
  4 10  1  0
  5  6  2  0
  5 13  1  0
  7  8  1  0
  7 12  2  0
  8  9  2  0
  8 14  1  0
  9 10  1  0
  9 17  1  0
 10 11  2  0
 14 15  1  0
 14 22  1  6
 15 16  1  0
 15 19  1  6
 16 17  1  0
 17 18  1  6
 19 20  1  0
 20 21  2  0
 20 22  1  0
M  END
>  <DRUGBANK_ID>  (1) 
DB01668

>  <SECONDARY_ACCESSION_NUMBERS>  (1) 
EXPT02375

>  <COMMON_NAME>  (1) 
Nanaomycin D

$$$$
