
     RDKit          3D

 21 24  0  0  1  0  0  0  0  0999 V2000
   -1.9441   -9.4540   -0.8365 C   0  0  0  0  0  0  0  0  0  0  0  0
   -1.2772   -8.4530   -1.5710 C   0  0  0  0  0  0  0  0  0  0  0  0
   -1.7558   -7.1314   -1.5693 C   0  0  0  0  0  0  0  0  0  0  0  0
   -1.2552   -5.8362   -2.0797 C   0  0  0  0  0  0  0  0  0  0  0  0
   -2.1692   -4.7988   -1.8326 C   0  0  0  0  0  0  0  0  0  0  0  0
   -3.6419   -5.7791   -2.1489 S   0  0  0  0  0  0  0  0  0  0  0  0
   -3.0393   -6.9904   -1.0307 C   0  0  0  0  0  0  0  0  0  0  0  0
   -3.5998   -7.9061   -0.0924 C   0  0  0  0  0  0  0  0  0  0  0  0
   -3.0015   -9.1509    0.0030 C   0  0  0  0  0  0  0  0  0  0  0  0
   -5.0162   -7.7302    0.8764 Cl  0  0  0  0  0  0  0  0  0  0  0  0
   -2.0424   -3.3035   -1.8045 C   0  0  0  0  0  0  0  0  0  0  0  0
   -1.1883   -2.7358   -2.5620 O   0  0  0  0  0  0  0  0  0  0  0  0
   -2.6970   -2.3715   -0.9553 N   0  0  0  0  0  0  0  0  0  0  0  0
   -3.8303   -2.4946    0.0228 C   0  0  1  0  0  0  0  0  0  0  0  0
   -4.6141   -3.6928   -0.3856 C   0  0  0  0  0  0  0  0  0  0  0  0
   -4.2757   -4.8209    0.5236 N   0  0  0  0  0  0  0  0  0  0  0  0
   -5.1665   -4.6216    1.6547 C   0  0  0  0  0  0  0  0  0  0  0  0
   -4.7509   -3.2938    2.2955 C   0  0  0  0  0  0  0  0  0  0  0  0
   -3.5145   -2.6431    1.5517 C   0  0  0  0  0  0  0  0  0  0  0  0
   -2.3714   -3.6298    1.6896 C   0  0  0  0  0  0  0  0  0  0  0  0
   -2.8815   -4.9201    1.0954 C   0  0  0  0  0  0  0  0  0  0  0  0
  1  2  1  0
  1  9  2  0
  2  3  2  0
  3  4  1  0
  3  7  1  0
  4  5  2  0
  5  6  1  0
  5 11  1  0
  6  7  1  0
  7  8  2  0
  8  9  1  0
  8 10  1  0
 11 12  2  0
 11 13  1  0
 14 15  1  0
 14 19  1  0
 14 13  1  6
 15 16  1  0
 16 17  1  0
 16 21  1  0
 17 18  1  0
 18 19  1  0
 19 20  1  0
 20 21  1  0
M  END
>  <DRUGBANK_ID>  (1) 
DB11726

>  <SECONDARY_ACCESSION_NUMBERS>  (1) 
DB06341

>  <COMMON_NAME>  (1) 
Encenicline

>  <CAS_NUMBER>  (1) 
550999-75-2

>  <UNII>  (1) 
5FI5376A0X

>  <SYNONYMS>  (1) 
Encenicline

$$$$
