
     RDKit          3D

  9  8  0  0  0  0  0  0  0  0999 V2000
    3.5579    0.8304    0.4809 O   0  0  0  0  0  0  0  0  0  0  0  0
    1.1240    3.2619    1.4292 N   0  0  0  0  0  0  0  0  0  0  0  0
    3.0133    2.0360    0.9181 N   0  0  0  0  0  0  0  0  0  0  0  0
    1.0642    0.9198    1.1199 N   0  0  0  0  0  0  0  0  0  0  0  0
   -1.1040    3.5217    0.3138 C   0  0  0  0  0  0  0  0  0  0  0  0
   -1.1566    2.1862   -0.4269 C   0  0  0  0  0  0  0  0  0  0  0  0
   -0.3193    3.4857    1.6393 C   0  0  0  0  0  0  0  0  0  0  0  0
   -1.8553    1.0865    0.3848 C   0  0  0  0  0  0  0  0  0  0  0  0
    1.6743    2.1415    1.1778 C   0  0  0  0  0  0  0  0  0  0  0  0
  1  3  1  0
  2  7  1  0
  2  9  2  0
  3  9  1  0
  4  9  1  0
  5  6  1  0
  5  7  1  0
  6  8  1  0
M  END
>  <DRUGBANK_ID>  (1) 
DB02727

>  <SECONDARY_ACCESSION_NUMBERS>  (1) 
EXPT00698

>  <COMMON_NAME>  (1) 
2-butyl-1-hydroxyguanidine

>  <CAS_NUMBER>  (1) 
140215-98-1

>  <SYNONYMS>  (1) 
N-butyl-N'-hydroxyguanidine

$$$$
