N2T
     RDKit          3D

 29 32  0  0  0  0  0  0  0  0999 V2000
    1.3628    0.0174    0.0069 C   0  0  0  0  0  0  0  0  0  0  0  0
    0.6744    1.2329    0.0325 C   0  0  0  0  0  0  0  0  0  0  0  0
   -0.7292    1.2517    0.0833 C   0  0  0  0  0  0  0  0  0  0  0  0
   -1.4000    0.0206    0.0598 C   0  0  0  0  0  0  0  0  0  0  0  0
   -0.7073   -1.1937    0.0223 C   0  0  0  0  0  0  0  0  0  0  0  0
    0.6854   -1.1963    0.0067 C   0  0  0  0  0  0  0  0  0  0  0  0
   -1.4713    2.5161    0.0633 C   0  0  0  0  0  0  0  0  0  0  0  0
   -2.5161    2.9709    1.0465 C   0  0  0  0  0  0  0  0  0  0  0  0
   -3.0028    4.2515    0.4666 N   0  0  0  0  0  0  0  0  0  0  0  0
   -2.3821    4.4832   -0.8438 C   0  0  1  0  0  0  0  0  0  0  0  0
   -1.3690    3.3863   -0.9417 C   0  0  0  0  0  0  0  0  0  0  0  0
   -3.3114    4.5560   -2.0795 C   0  0  0  0  0  0  0  0  0  0  0  0
   -4.4133    5.4044   -2.1147 C   0  0  0  0  0  0  0  0  0  0  0  0
   -5.0124    5.9299   -3.2555 C   0  0  0  0  0  0  0  0  0  0  0  0
   -4.7004    5.3833   -4.4559 C   0  0  0  0  0  0  0  0  0  0  0  0
   -3.7395    4.3826   -4.4756 C   0  0  0  0  0  0  0  0  0  0  0  0
   -3.0380    3.9871   -3.3134 C   0  0  0  0  0  0  0  0  0  0  0  0
   -3.9116    5.0241    1.2014 C   0  0  0  0  0  0  0  0  0  0  0  0
   -4.2788    6.3200    0.7402 N   0  0  0  0  0  0  0  0  0  0  0  0
   -5.6468    6.8741    1.1678 C   0  0  0  0  0  0  0  0  0  0  0  0
   -2.7402   -0.0152    0.0297 F   0  0  0  0  0  0  0  0  0  0  0  0
    2.7025    0.0186   -0.0160 F   0  0  0  0  0  0  0  0  0  0  0  0
   -4.4369    4.5461    2.1936 O   0  0  0  0  0  0  0  0  0  0  0  0
   -6.8303    5.8680    1.0131 C   0  0  0  0  0  0  0  0  0  0  0  0
   -3.3806    7.1985   -0.0464 C   0  0  0  0  0  0  0  0  0  0  0  0
   -6.1143    8.1756    0.4489 C   0  0  0  0  0  0  0  0  0  0  0  0
   -7.2608    5.6224   -0.4281 C   0  0  0  0  0  0  0  0  0  0  0  0
   -6.5496    7.9020   -0.9868 C   0  0  0  0  0  0  0  0  0  0  0  0
   -7.5714    6.8671   -1.1324 N   0  0  0  0  0  0  0  0  0  0  0  0
  1  2  2  0
  1  6  1  0
  1 22  1  0
  2  3  1  0
  3  4  2  0
  3  7  1  0
  4  5  1  0
  4 21  1  0
  5  6  2  0
  7  8  1  0
  7 11  2  0
  8  9  1  0
  9 10  1  0
  9 18  1  0
 10 11  1  0
 10 12  1  6
 12 13  2  0
 12 17  1  0
 13 14  1  0
 14 15  2  0
 15 16  1  0
 16 17  2  0
 18 19  1  0
 18 23  2  0
 19 20  1  0
 19 25  1  0
 20 24  1  0
 20 26  1  0
 24 27  1  0
 26 28  1  0
 27 29  1  0
 28 29  1  0
M  END
>  <DRUGBANK_ID>  (1) 
DB08239

>  <COMMON_NAME>  (1) 
(2S)-4-(2,5-DIFLUOROPHENYL)-N-METHYL-2-PHENYL-N-PIPERIDIN-4-YL-2,5-DIHYDRO-1H-PYRROLE-1-CARBOXAMIDE

$$$$
