
     RDKit          3D

 32 36  0  0  0  0  0  0  0  0999 V2000
   10.5248    4.4682    3.1978 C   0  0  0  0  0  0  0  0  0  0  0  0
   11.2559    3.2967    2.4092 C   0  0  0  0  0  0  0  0  0  0  0  0
   11.3916    2.0465    3.1595 O   0  0  0  0  0  0  0  0  0  0  0  0
   10.9991    0.8445    2.3073 C   0  0  1  0  0  0  0  0  0  0  0  0
    9.3844   -0.0234    2.7916 C   0  0  0  0  0  0  0  0  0  0  0  0
    8.8609    1.1941    2.2770 C   0  0  0  0  0  0  0  0  0  0  0  0
    8.1269    2.4509    2.5317 C   0  0  2  0  0  0  0  0  0  0  0  0
    7.5491    2.6082    3.9620 C   0  0  0  0  0  0  0  0  0  0  0  0
    7.0182    4.0295    4.1140 C   0  0  1  0  0  0  0  0  0  0  0  0
    6.1478    4.4347    2.9500 C   0  0  0  0  0  0  0  0  0  0  0  0
    5.0665    5.2121    3.1142 C   0  0  0  0  0  0  0  0  0  0  0  0
    4.1353    5.5163    1.9546 C   0  0  0  0  0  0  0  0  0  0  0  0
    3.3869    6.4328    1.9752 O   0  0  0  0  0  0  0  0  0  0  0  0
    4.2416    4.6582    0.7038 C   0  0  0  0  0  0  0  0  0  0  0  0
    5.0385    3.6198    0.9327 C   0  0  0  0  0  0  0  0  0  0  0  0
    6.4063    3.9468    1.5332 C   0  0  2  0  0  0  0  0  0  0  0  0
    7.1886    2.6434    1.3928 C   0  0  1  0  0  0  0  0  0  0  0  0
    7.7972    2.5298   -0.0389 C   0  0  2  0  0  0  0  0  0  0  0  0
    8.3989    1.1822   -0.2169 C   0  0  0  0  0  0  0  0  0  0  0  0
    9.4617    0.8505    0.7860 C   0  0  1  0  0  0  0  0  0  0  0  0
   10.7650    1.5630    0.8954 C   0  0  1  0  0  0  0  0  0  0  0  0
   10.6377    2.9642    1.1687 O   0  0  0  0  0  0  0  0  0  0  0  0
   11.6107    1.2854   -0.4134 C   0  0  0  0  0  0  0  0  0  0  0  0
   12.7717    0.8781   -0.3244 O   0  0  0  0  0  0  0  0  0  0  0  0
   10.9924    1.4960   -1.8789 C   0  0  0  0  0  0  0  0  0  0  0  0
   10.1063    0.6114   -2.5460 O   0  0  0  0  0  0  0  0  0  0  0  0
    9.9217   -0.7832    0.4627 C   0  0  0  0  0  0  0  0  0  0  0  0
    8.9577    3.7616   -0.7105 Cl  0  0  0  0  0  0  0  0  0  0  0  0
    6.0861    1.0755    1.6742 Cl  0  0  0  0  0  0  0  0  0  0  0  0
    6.3208    4.0804    5.2839 F   0  0  0  0  0  0  0  0  0  0  0  0
   12.5387    4.0591    2.0445 C   0  0  0  0  0  0  0  0  0  0  0  0
    7.0068    5.1521    0.7299 C   0  0  0  0  0  0  0  0  0  0  0  0
  1  2  1  0
  2 22  1  0
  2 31  1  0
  2  3  1  0
  4  5  1  1
  4 21  1  0
  4  3  1  0
  6  5  1  0
  6  7  1  0
  6 20  1  0
  7  8  1  1
  7 17  1  0
  8  9  1  0
  9 10  1  0
  9 30  1  1
 10 11  2  0
 10 16  1  0
 11 12  1  0
 12 13  2  0
 12 14  1  0
 14 15  2  0
 15 16  1  0
 16 17  1  0
 16 32  1  6
 17 18  1  0
 17 29  1  6
 18 19  1  0
 18 28  1  1
 19 20  1  0
 20 21  1  0
 20 27  1  1
 21 22  1  0
 21 23  1  6
 23 24  2  0
 23 25  1  0
 25 26  1  0
M  END
>  <DRUGBANK_ID>  (1) 
DB08973

>  <COMMON_NAME>  (1) 
Fluclorolone acetonide

>  <CAS_NUMBER>  (1) 
3693-39-8

>  <UNII>  (1) 
MG258KTA37

>  <SYNONYMS>  (1) 
Fluclorolone acetonide; Flucloronide

$$$$
