975
     RDKit          3D

 36 39  0  0  0  0  0  0  0  0999 V2000
    0.7242    0.0248    0.0625 O   0  0  0  0  0  0  0  0  0  0  0  0
    1.7012    1.4161   -2.1370 O   0  0  0  0  0  0  0  0  0  0  0  0
    9.0605   -9.3550   -4.4316 O   0  0  0  0  0  0  0  0  0  0  0  0
    9.2399   -5.8650   -1.3116 O   0  0  0  0  0  0  0  0  0  0  0  0
    3.2283   -5.2154   -4.8529 N   0  0  0  0  0  0  0  0  0  0  0  0
    6.4145   -4.0189    0.2020 N   0  0  0  0  0  0  0  0  0  0  0  0
    2.9114   -3.3934   -3.3700 N   0  0  0  0  0  0  0  0  0  0  0  0
    6.6591   -5.8254   -1.2734 N   0  0  0  0  0  0  0  0  0  0  0  0
    4.2579   -3.0722   -1.4698 N   0  0  0  0  0  0  0  0  0  0  0  0
    5.3239   -6.1743   -3.1485 N   0  0  0  0  0  0  0  0  0  0  0  0
    2.5744   -1.5338   -1.9369 N   0  0  0  0  0  0  0  0  0  0  0  0
    7.1405   -7.6178   -2.7138 N   0  0  0  0  0  0  0  0  0  0  0  0
    2.7274   -6.5887   -4.8611 C   0  0  0  0  0  0  0  0  0  0  0  0
    3.2635   -4.5657   -6.1597 C   0  0  0  0  0  0  0  0  0  0  0  0
    7.7871   -3.5343    0.3745 C   0  0  0  0  0  0  0  0  0  0  0  0
    5.5296   -3.7280    1.3269 C   0  0  0  0  0  0  0  0  0  0  0  0
    3.5737   -7.4511   -5.8011 C   0  0  0  0  0  0  0  0  0  0  0  0
    4.1728   -5.3824   -7.1010 C   0  0  0  0  0  0  0  0  0  0  0  0
    8.4253   -4.1540    1.6245 C   0  0  0  0  0  0  0  0  0  0  0  0
    6.1087   -4.3686    2.6034 C   0  0  0  0  0  0  0  0  0  0  0  0
    3.7453   -6.8511   -7.1919 C   0  0  0  0  0  0  0  0  0  0  0  0
    7.5568   -3.9448    2.8676 C   0  0  0  0  0  0  0  0  0  0  0  0
    3.5878   -4.5435   -3.6752 C   0  0  0  0  0  0  0  0  0  0  0  0
    5.9793   -4.6925   -0.9421 C   0  0  0  0  0  0  0  0  0  0  0  0
    4.9173   -4.2331   -1.7412 C   0  0  0  0  0  0  0  0  0  0  0  0
    4.6271   -5.0334   -2.8505 C   0  0  0  0  0  0  0  0  0  0  0  0
    3.2616   -2.6956   -2.2725 C   0  0  0  0  0  0  0  0  0  0  0  0
    6.3262   -6.5461   -2.3595 C   0  0  0  0  0  0  0  0  0  0  0  0
    1.1187   -1.6269   -1.7971 C   0  0  0  0  0  0  0  0  0  0  0  0
    3.3565   -0.3634   -1.5267 C   0  0  0  0  0  0  0  0  0  0  0  0
    6.8205   -8.4910   -3.8526 C   0  0  0  0  0  0  0  0  0  0  0  0
    8.1577   -8.0722   -1.7606 C   0  0  0  0  0  0  0  0  0  0  0  0
    0.5506   -1.3100   -0.3928 C   0  0  0  0  0  0  0  0  0  0  0  0
    3.0136    0.9085   -2.3328 C   0  0  0  0  0  0  0  0  0  0  0  0
    7.9523   -8.5865   -4.8935 C   0  0  0  0  0  0  0  0  0  0  0  0
    9.4144   -7.1760   -1.8184 C   0  0  0  0  0  0  0  0  0  0  0  0
  1 33  1  0
  2 34  1  0
  3 35  1  0
  4 36  1  0
  5 13  1  0
  5 14  1  0
  5 23  1  0
  6 15  1  0
  6 16  1  0
  6 24  1  0
  7 23  2  0
  7 27  1  0
  8 24  1  0
  8 28  2  0
  9 25  1  0
  9 27  2  0
 10 26  2  0
 10 28  1  0
 11 27  1  0
 11 29  1  0
 11 30  1  0
 12 28  1  0
 12 31  1  0
 12 32  1  0
 13 17  1  0
 14 18  1  0
 15 19  1  0
 16 20  1  0
 17 21  1  0
 18 21  1  0
 19 22  1  0
 20 22  1  0
 23 26  1  0
 24 25  2  0
 25 26  1  0
 29 33  1  0
 30 34  1  0
 31 35  1  0
 32 36  1  0
M  END
>  <DRUGBANK_ID>  (1) 
DB00975

>  <SECONDARY_ACCESSION_NUMBERS>  (1) 
APRD00360

>  <COMMON_NAME>  (1) 
Dipyridamole

>  <CAS_NUMBER>  (1) 
58-32-2

>  <UNII>  (1) 
64ALC7F90C

>  <SYNONYMS>  (1) 
Dipiridamol; Dipyridamine; Dipyridamole; Dipyridamolum; Dipyudamine; Dypyridamol

$$$$
