815
     RDKit          3D

 31 35  0  0  0  0  0  0  0  0999 V2000
    2.4007    0.7771   -0.0149 C   0  0  0  0  0  0  0  0  0  0  0  0
    1.1759    1.4460    0.0801 C   0  0  0  0  0  0  0  0  0  0  0  0
   -0.0352    0.7290    0.1062 C   0  0  0  0  0  0  0  0  0  0  0  0
   -0.0190   -0.6738    0.0447 C   0  0  0  0  0  0  0  0  0  0  0  0
    1.2153   -1.3027   -0.0893 C   0  0  0  0  0  0  0  0  0  0  0  0
    2.4321   -0.6148   -0.0776 C   0  0  0  0  0  0  0  0  0  0  0  0
   -1.2663    1.3680    0.1008 C   0  0  0  0  0  0  0  0  0  0  0  0
   -2.3852    0.5863   -0.1272 C   0  0  0  0  0  0  0  0  0  0  0  0
   -2.4050   -0.7678   -0.0748 N   0  0  0  0  0  0  0  0  0  0  0  0
   -1.2275   -1.3930    0.0858 C   0  0  0  0  0  0  0  0  0  0  0  0
    1.0904   -9.5322    2.9184 C   0  0  0  0  0  0  0  0  0  0  0  0
    1.2706  -10.6078    2.0446 C   0  0  0  0  0  0  0  0  0  0  0  0
    1.2543  -11.8828    2.5673 C   0  0  0  0  0  0  0  0  0  0  0  0
    0.7463  -12.0203    3.8409 C   0  0  0  0  0  0  0  0  0  0  0  0
    0.6268  -11.0029    4.7576 N   0  0  0  0  0  0  0  0  0  0  0  0
    0.9405   -9.7376    4.2845 C   0  0  0  0  0  0  0  0  0  0  0  0
    1.3210   -8.4827    4.9748 C   0  0  0  0  0  0  0  0  0  0  0  0
    1.4764   -7.3902    4.0970 C   0  0  0  0  0  0  0  0  0  0  0  0
    1.0918   -7.8801    2.5045 S   0  0  0  0  0  0  0  0  0  0  0  0
    3.8790   -2.2806    1.0108 N   0  0  0  0  0  0  0  0  0  0  0  0
    3.0744   -3.3915    1.3095 C   0  0  0  0  0  0  0  0  0  0  0  0
    3.3179   -3.7504    2.7694 C   0  0  2  0  0  0  0  0  0  0  0  0
    4.7712   -3.2893    2.9078 C   0  0  0  0  0  0  0  0  0  0  0  0
    4.8412   -2.0248    2.0499 C   0  0  0  0  0  0  0  0  0  0  0  0
    3.1137   -5.2104    3.0283 N   0  0  0  0  0  0  0  0  0  0  0  0
    1.8846   -5.6021    4.1508 S   0  0  0  0  0  0  0  0  0  0  0  0
    2.4845   -5.3605    5.4550 O   0  0  0  0  0  0  0  0  0  0  0  0
    0.6871   -4.9203    3.7403 O   0  0  0  0  0  0  0  0  0  0  0  0
    2.3092   -3.9669    0.5684 O   0  0  0  0  0  0  0  0  0  0  0  0
   -1.2418   -2.7898    0.1368 N   0  0  0  0  0  0  0  0  0  0  0  0
    3.7157   -1.4044   -0.1497 C   0  0  0  0  0  0  0  0  0  0  0  0
  1  2  2  0
  1  6  1  0
  2  3  1  0
  3  4  2  0
  3  7  1  0
  4  5  1  0
  4 10  1  0
  5  6  2  0
  6 31  1  0
  7  8  2  0
  8  9  1  0
  9 10  2  0
 10 30  1  0
 11 12  2  0
 11 16  1  0
 11 19  1  0
 12 13  1  0
 13 14  2  0
 14 15  1  0
 15 16  2  0
 16 17  1  0
 17 18  2  0
 18 19  1  0
 18 26  1  0
 20 21  1  0
 20 24  1  0
 20 31  1  0
 21 22  1  0
 21 29  2  0
 22 23  1  0
 22 25  1  6
 23 24  1  0
 25 26  1  0
 26 27  2  0
 26 28  2  0
M  END
>  <DRUGBANK_ID>  (1) 
DB07261

>  <COMMON_NAME>  (1) 
THIENO[3,2-B]PYRIDINE-2-SULFONIC ACID [1-(1-AMINO-ISOQUINOLIN-7-YLMETHYL)-2-OXO-PYRROLDIN-3-YL]-AMIDE

$$$$
