
     RDKit          3D

  5  3  0  0  0  0  0  0  0  0999 V2000
    1.0857    0.3392    0.4567 N   0  0  0  0  0  0  0  0  0  0  0  0
    0.4413    1.2017   -0.1529 O   0  0  0  0  0  0  0  0  0  0  0  0
    0.4677   -0.6098    0.9540 O   0  0  0  0  0  0  0  0  0  0  0  0
    2.2889    0.2124    0.2185 O   0  0  0  0  0  0  0  0  0  0  0  0
    0.5777   -0.8604   -1.5637 Na  0  0  0  0  0 15  0  0  0  0  0  0
  1  2  2  0
  1  3  1  0
  1  4  1  0
M  CHG  4   1   1   3  -1   4  -1   5   1
M  END
>  <DRUGBANK_ID>  (1) 
DB15952

>  <COMMON_NAME>  (1) 
Sodium nitrate

>  <CAS_NUMBER>  (1) 
7631-99-4

>  <UNII>  (1) 
8M4L3H2ZVZ

>  <SYNONYMS>  (1) 
Chile saltpeter; Cubic niter; Soda niter

$$$$
