
     RDKit          3D

 11 11  0  0  0  0  0  0  0  0999 V2000
    0.1664   -1.2213    0.0174 C   0  0  0  0  0  0  0  0  0  0  0  0
    0.2037    1.2003    0.0219 C   0  0  0  0  0  0  0  0  0  0  0  0
   -1.2333   -1.1962   -0.0003 C   0  0  0  0  0  0  0  0  0  0  0  0
   -1.1922    1.2337    0.0046 C   0  0  0  0  0  0  0  0  0  0  0  0
    0.8731   -0.0209    0.0203 C   0  0  0  0  0  0  0  0  0  0  0  0
   -1.9055    0.0321   -0.0171 C   0  0  0  0  0  0  0  0  0  0  0  0
    2.2363    0.0161    0.0165 O   0  0  0  0  0  0  0  0  0  0  0  0
   -4.0895    0.9067    1.2473 O   0  0  0  0  0  0  0  0  0  0  0  0
   -4.0543    0.8732   -1.2363 O   0  0  0  0  0  0  0  0  0  0  0  0
   -4.1706   -1.2639    0.1162 O   0  0  0  0  0  0  0  0  0  0  0  0
   -3.6832    0.0823   -0.0825 S   0  0  0  0  0  0  0  0  0  0  0  0
  3  1  2  0
  4  2  1  0
  5  1  1  0
  5  2  2  0
  6  3  1  0
  6  4  2  0
  7  5  1  0
 11  6  1  0
 11  8  1  0
 11  9  2  0
 11 10  2  0
M  END
>  <DRUGBANK_ID>  (1) 
DB14739

>  <SECONDARY_ACCESSION_NUMBERS>  (1) 
DBSALT001584

>  <COMMON_NAME>  (1) 
Phenolsulfonic acid

>  <CAS_NUMBER>  (1) 
98-67-9

>  <UNII>  (1) 
L74LRO149A

>  <SYNONYMS>  (1) 
4-hydroxybenzenesulfonic acid; 4-Sulfophenol; p-Phenolsulfonic acid; Phenolsulfonic acid; Sulfocarbolic acid

$$$$
