
     RDKit          3D

 11 10  0  0  0  0  0  0  0  0999 V2000
    0.9524    0.0532   -0.1285 N   0  0  0  0  0  0  0  0  0  0  0  0
    0.4179    1.4329   -0.2098 C   0  0  0  0  0  0  0  0  0  0  0  0
    0.5074   -0.8052   -1.2571 C   0  0  0  0  0  0  0  0  0  0  0  0
    2.4190   -0.0249    0.0790 C   0  0  0  0  0  0  0  0  0  0  0  0
    0.9640    2.2523   -1.3847 C   0  0  0  0  0  0  0  0  0  0  0  0
    0.9528   -0.4208   -2.6843 C   0  0  0  0  0  0  0  0  0  0  0  0
    2.9509    0.7562    1.2834 C   0  0  0  0  0  0  0  0  0  0  0  0
    0.0094    2.7145   -2.2312 O   0  0  0  0  0  0  0  0  0  0  0  0
    2.1480    2.4133   -1.6237 O   0  0  0  0  0  0  0  0  0  0  0  0
    2.3629   -0.4228   -2.8360 O   0  0  0  0  0  0  0  0  0  0  0  0
    2.4189    0.2460    2.4946 O   0  0  0  0  0  0  0  0  0  0  0  0
  1  2  1  0
  1  3  1  0
  1  4  1  0
  2  5  1  0
  3  6  1  0
  4  7  1  0
  5  8  1  0
  5  9  2  0
  6 10  1  0
  7 11  1  0
M  END
>  <DRUGBANK_ID>  (1) 
DB03709

>  <SECONDARY_ACCESSION_NUMBERS>  (1) 
EXPT00641

>  <COMMON_NAME>  (1) 
Bicine

>  <CAS_NUMBER>  (1) 
150-25-4

>  <UNII>  (1) 
1J484QFI1O

>  <SYNONYMS>  (1) 
Bicene; Diethanol glycine; Diethylolglycine; Dihydroxyethylglycine; N,N-Dihydroxyethyl glycine; N,N-Dihydroxyethylglycine

$$$$
