
     RDKit          3D

 22 24  0  0  0  0  0  0  0  0999 V2000
    1.3934   -0.1734    0.0422 C   0  0  0  0  0  0  0  0  0  0  0  0
    0.4705   -1.2053    0.0001 C   0  0  0  0  0  0  0  0  0  0  0  0
   -0.8581   -0.8926   -0.3104 C   0  0  0  0  0  0  0  0  0  0  0  0
   -1.2317    0.4405   -0.6729 C   0  0  0  0  0  0  0  0  0  0  0  0
   -0.4118    1.4486   -0.2040 C   0  0  0  0  0  0  0  0  0  0  0  0
    0.9360    1.1477    0.0125 C   0  0  0  0  0  0  0  0  0  0  0  0
   -2.3184    0.6762   -1.7478 C   0  0  0  0  0  0  0  0  0  0  0  0
   -2.0218    1.5740   -3.0193 N   0  0  0  0  0  0  0  0  0  0  0  0
   -3.1224    1.9694   -3.8993 C   0  0  0  0  0  0  0  0  0  0  0  0
   -3.1798    2.9290   -4.9539 C   0  0  0  0  0  0  0  0  0  0  0  0
   -4.4575    3.3548   -5.5567 C   0  0  0  0  0  0  0  0  0  0  0  0
   -5.6670    2.7756   -5.1589 C   0  0  0  0  0  0  0  0  0  0  0  0
   -5.5977    1.7599   -4.2129 C   0  0  0  0  0  0  0  0  0  0  0  0
   -4.3935    1.5116   -3.5480 C   0  0  0  0  0  0  0  0  0  0  0  0
   -4.4218    0.7904   -2.2830 C   0  0  0  0  0  0  0  0  0  0  0  0
   -4.8947   -0.3210   -2.2628 O   0  0  0  0  0  0  0  0  0  0  0  0
   -3.4998    1.3277   -1.3570 N   0  0  0  0  0  0  0  0  0  0  0  0
   -7.3438    3.2802   -5.5113 S   0  0  0  0  0  0  0  0  0  0  0  0
   -7.9665    2.2076   -6.2768 O   0  0  0  0  0  0  0  0  0  0  0  0
   -7.9149    3.7317   -4.2739 O   0  0  0  0  0  0  0  0  0  0  0  0
   -7.3630    4.6071   -6.5275 N   0  0  0  0  0  0  0  0  0  0  0  0
   -4.4063    4.5832   -6.7819 Cl  0  0  0  0  0  0  0  0  0  0  0  0
  1  2  2  0
  1  6  1  0
  2  3  1  0
  3  4  2  0
  4  5  1  0
  4  7  1  0
  5  6  2  0
  7  8  1  0
  7 17  1  0
  8  9  1  0
  9 10  2  0
  9 14  1  0
 10 11  1  0
 11 12  2  0
 11 22  1  0
 12 13  1  0
 12 18  1  0
 13 14  2  0
 14 15  1  0
 15 16  2  0
 15 17  1  0
 18 19  2  0
 18 20  2  0
 18 21  1  0
M  END
>  <DRUGBANK_ID>  (1) 
DB13708

>  <COMMON_NAME>  (1) 
Fenquizone

>  <CAS_NUMBER>  (1) 
20287-37-0

>  <UNII>  (1) 
LJ1U13R8IK

>  <SYNONYMS>  (1) 
Fenquizone

$$$$
