P5C
     RDKit          3D

 25 27  0  0  0  0  0  0  0  0999 V2000
    0.0522    1.3507    0.0098 C   0  0  0  0  0  0  0  0  0  0  0  0
    1.0920   -0.7065   -0.0262 C   0  0  0  0  0  0  0  0  0  0  0  0
   -1.1398    0.7561    0.0769 N   0  0  0  0  0  0  0  0  0  0  0  0
   -0.0948   -1.4083    0.0030 C   0  0  0  0  0  0  0  0  0  0  0  0
   -1.2286   -0.6034    0.0232 C   0  0  0  0  0  0  0  0  0  0  0  0
   -0.1629   -2.8952    0.0211 C   0  0  0  0  0  0  0  0  0  0  0  0
   -3.7311   -0.4515   -0.0992 C   0  0  0  0  0  0  0  0  0  0  0  0
   -3.9667    0.4698   -1.1259 C   0  0  0  0  0  0  0  0  0  0  0  0
   -6.0758    1.0892   -0.1379 C   0  0  0  0  0  0  0  0  0  0  0  0
   -5.8592    0.1847    0.9081 C   0  0  0  0  0  0  0  0  0  0  0  0
   -5.1365    1.2252   -1.1563 C   0  0  0  0  0  0  0  0  0  0  0  0
   -4.6897   -0.5944    0.9113 C   0  0  0  0  0  0  0  0  0  0  0  0
   -6.8503    0.0727    2.0280 C   0  0  0  0  0  0  0  0  0  0  0  0
   -1.2477   -3.4880    0.0325 O   0  0  0  0  0  0  0  0  0  0  0  0
    0.9886   -3.6358    0.0385 N   0  0  0  0  0  0  0  0  0  0  0  0
   -2.5225   -1.1592   -0.0461 N   0  0  0  0  0  0  0  0  0  0  0  0
    1.1906    0.6501   -0.0811 N   0  0  0  0  0  0  0  0  0  0  0  0
    0.0945    2.7325   -0.1310 N   0  0  0  0  0  0  0  0  0  0  0  0
   -0.3871    3.5820    0.9836 C   0  0  1  0  0  0  0  0  0  0  0  0
    0.0270    3.1029    2.4182 C   0  0  1  0  0  0  0  0  0  0  0  0
    1.4876    2.9514    2.5741 N   0  0  0  0  0  0  0  0  0  0  0  0
   -0.4963    4.0830    3.4924 C   0  0  0  0  0  0  0  0  0  0  0  0
    0.0004    5.5094    3.2736 C   0  0  0  0  0  0  0  0  0  0  0  0
   -0.3801    5.9950    1.8789 C   0  0  0  0  0  0  0  0  0  0  0  0
    0.1030    5.0439    0.7732 C   0  0  0  0  0  0  0  0  0  0  0  0
  1  3  1  0
  1 17  2  0
  1 18  1  0
  2  4  2  0
  2 17  1  0
  3  5  2  0
  4  5  1  0
  4  6  1  0
  5 16  1  0
  6 14  2  0
  6 15  1  0
  7  8  2  0
  7 12  1  0
  7 16  1  0
  8 11  1  0
  9 10  1  0
  9 11  2  0
 10 12  2  0
 10 13  1  0
 19 18  1  6
 19 20  1  0
 19 25  1  0
 20 22  1  0
 20 21  1  6
 22 23  1  0
 23 24  1  0
 24 25  1  0
M  END
>  <DRUGBANK_ID>  (1) 
DB08361

>  <COMMON_NAME>  (1) 
2-{[(1R,2S)-2-aminocyclohexyl]amino}-4-[(3-methylphenyl)amino]pyrimidine-5-carboxamide

$$$$
