
     RDKit          3D

 33 37  0  0  1  0  0  0  0  0999 V2000
    1.1132    0.0831    0.0111 C   0  0  0  0  0  0  0  0  0  0  0  0
   -1.9336   -0.1175    2.3098 C   0  0  0  0  0  0  0  0  0  0  0  0
   -2.3236   -1.5810    2.4004 C   0  0  0  0  0  0  0  0  0  0  0  0
   -3.2663   -2.2883   10.0769 C   0  0  0  0  0  0  0  0  0  0  0  0
   -2.6178    0.0798   10.2510 C   0  0  0  0  0  0  0  0  0  0  0  0
   -1.3137   -2.0700    5.8439 C   0  0  0  0  0  0  0  0  0  0  0  0
   -0.8629    0.1529    6.3801 C   0  0  0  0  0  0  0  0  0  0  0  0
   -1.9506   -2.6570   10.3280 C   0  0  0  0  0  0  0  0  0  0  0  0
   -1.3063   -0.3009   10.4678 C   0  0  0  0  0  0  0  0  0  0  0  0
   -2.7172    3.2656    5.9209 C   0  0  0  0  0  0  0  0  0  0  0  0
   -0.2861   -2.0471    4.7895 C   0  0  0  0  0  0  0  0  0  0  0  0
    0.0122    0.2258    5.2086 C   0  0  0  0  0  0  0  0  0  0  0  0
   -3.0071    1.9452    5.7304 C   0  0  0  0  0  0  0  0  0  0  0  0
   -1.7001    0.0466    0.8391 C   0  0  0  0  0  0  0  0  0  0  0  0
   -1.6384   -2.2663    1.2278 C   0  0  0  0  0  0  0  0  0  0  0  0
   -4.2923    3.3134    7.7597 C   0  0  0  0  0  0  0  0  0  0  0  0
    1.1424   -1.5192    2.0947 C   0  0  0  0  0  0  0  0  0  0  0  0
    0.4915   -1.1643    0.6698 C   0  0  1  0  0  0  0  0  0  0  0  0
   -1.7033   -0.9507    6.6535 C   0  0  0  0  0  0  0  0  0  0  0  0
   -3.4945   -0.9297    9.8697 C   0  0  0  0  0  0  0  0  0  0  0  0
   -0.9995   -1.6480   10.4688 C   0  0  0  0  0  0  0  0  0  0  0  0
   -3.4416    3.9806    6.8726 C   0  0  0  0  0  0  0  0  0  0  0  0
    0.3092   -0.8655    4.3789 C   0  0  0  0  0  0  0  0  0  0  0  0
   -3.8206    1.2481    6.6008 C   0  0  0  0  0  0  0  0  0  0  0  0
   -4.4202    1.9235    7.6730 C   0  0  0  0  0  0  0  0  0  0  0  0
   -3.2700   -0.8578    7.2781 C   0  0  1  0  0  0  0  0  0  0  0  0
   -4.2708   -0.6185    8.6307 C   0  0  2  0  0  0  0  0  0  0  0  0
   -0.9877   -1.1898    0.4676 N   0  0  0  0  0  0  0  0  0  0  0  0
    0.3298   -1.9610   10.5565 O   0  0  0  0  0  0  0  0  0  0  0  0
   -3.3618    5.3340    6.8832 O   0  0  0  0  0  0  0  0  0  0  0  0
    0.9980   -0.5905    3.2029 O   0  0  0  0  0  0  0  0  0  0  0  0
   -3.9945   -0.0868    6.3037 O   0  0  0  0  0  0  0  0  0  0  0  0
   -5.2985    0.9459    8.8429 S   0  0  0  0  0  0  0  0  0  0  0  0
  3  2  1  0
  8  4  2  0
  9  5  1  0
 11  6  2  0
 12  7  1  0
 13 10  2  0
 14  2  1  0
 15  3  1  0
 18  1  1  1
 18 17  1  0
 19  6  1  0
 19  7  2  0
 20  4  1  0
 20  5  2  0
 21  8  1  0
 21  9  2  0
 22 10  1  0
 22 16  2  0
 23 11  1  0
 23 12  2  0
 24 13  1  0
 25 16  1  0
 25 24  2  0
 26 19  1  1
 27 20  1  1
 27 26  1  0
 28 14  1  0
 28 15  1  0
 28 18  1  0
 29 21  1  0
 30 22  1  0
 31 17  1  0
 31 23  1  0
 32 24  1  0
 32 26  1  0
 33 25  1  0
 33 27  1  0
M  END
>  <DRUGBANK_ID>  (1) 
DB02715

>  <SECONDARY_ACCESSION_NUMBERS>  (1) 
EXPT00473

>  <COMMON_NAME>  (1) 
Compound 18

>  <CAS_NUMBER>  (1) 
31112-66-0

$$$$
