
     RDKit          3D

 35 38  0  0  0  0  0  0  0  0999 V2000
    1.0036   -0.1543    0.0259 O   0  0  0  0  0  0  0  0  0  0  0  0
    2.2128   -0.0120   -0.0552 C   0  0  0  0  0  0  0  0  0  0  0  0
    3.0891   -1.2642   -0.0502 C   0  0  0  0  0  0  0  0  0  0  0  0
    2.3743   -2.4910   -0.0613 C   0  0  0  0  0  0  0  0  0  0  0  0
    3.0146   -3.7371   -0.0571 C   0  0  0  0  0  0  0  0  0  0  0  0
    4.3996   -3.7987   -0.0300 C   0  0  0  0  0  0  0  0  0  0  0  0
    5.1560   -2.6180    0.0163 C   0  0  0  0  0  0  0  0  0  0  0  0
    6.6319   -2.7034    0.0193 C   0  0  0  0  0  0  0  0  0  0  0  0
    7.3075   -3.2432   -1.0771 C   0  0  0  0  0  0  0  0  0  0  0  0
    8.6965   -3.1478   -1.1732 C   0  0  0  0  0  0  0  0  0  0  0  0
    9.4361   -2.4880   -0.1899 C   0  0  0  0  0  0  0  0  0  0  0  0
    8.7686   -1.9111    0.8869 C   0  0  0  0  0  0  0  0  0  0  0  0
    7.3957   -2.1008    1.0339 C   0  0  0  0  0  0  0  0  0  0  0  0
   10.7958   -2.3657   -0.1604 O   0  0  0  0  0  0  0  0  0  0  0  0
   11.5133   -3.0999   -1.1396 C   0  0  0  0  0  0  0  0  0  0  0  0
   11.1944   -4.4131   -1.1107 F   0  0  0  0  0  0  0  0  0  0  0  0
   11.2704   -2.6050   -2.3725 F   0  0  0  0  0  0  0  0  0  0  0  0
   12.8359   -2.9871   -0.8931 F   0  0  0  0  0  0  0  0  0  0  0  0
    4.5011   -1.3339   -0.0005 C   0  0  0  0  0  0  0  0  0  0  0  0
    5.4213   -0.1420   -0.0076 C   0  0  0  0  0  0  0  0  0  0  0  0
    2.8018    1.2399   -0.2288 N   0  0  0  0  0  0  0  0  0  0  0  0
    2.1344    2.4728   -0.1872 C   0  0  0  0  0  0  0  0  0  0  0  0
    1.0845    2.7142    0.6650 C   0  0  0  0  0  0  0  0  0  0  0  0
    0.5064    3.9718    0.6368 C   0  0  0  0  0  0  0  0  0  0  0  0
    0.9637    4.9695   -0.2367 C   0  0  0  0  0  0  0  0  0  0  0  0
    1.9961    4.7494   -1.0673 N   0  0  0  0  0  0  0  0  0  0  0  0
    2.5755    3.5240   -0.9980 C   0  0  0  0  0  0  0  0  0  0  0  0
    0.3490    6.1935   -0.1841 N   0  0  0  0  0  0  0  0  0  0  0  0
    0.3957    6.9217    1.0749 C   0  0  0  0  0  0  0  0  0  0  0  0
   -0.9987    7.5053    1.3459 C   0  0  1  0  0  0  0  0  0  0  0  0
   -1.4715    8.2901    0.2273 O   0  0  0  0  0  0  0  0  0  0  0  0
   -1.4055    7.6275   -1.0654 C   0  0  1  0  0  0  0  0  0  0  0  0
   -0.0021    7.0064   -1.3433 C   0  0  0  0  0  0  0  0  0  0  0  0
   -2.5528    6.6255   -1.2102 C   0  0  0  0  0  0  0  0  0  0  0  0
   -2.0064    6.4434    1.8057 C   0  0  0  0  0  0  0  0  0  0  0  0
  1  2  2  0
  2  3  1  0
  2 21  1  0
  3  4  2  0
  3 19  1  0
  4  5  1  0
  5  6  2  0
  6  7  1  0
  7  8  1  0
  7 19  2  0
  8  9  2  0
  8 13  1  0
  9 10  1  0
 10 11  2  0
 11 12  1  0
 11 14  1  0
 12 13  2  0
 14 15  1  0
 15 16  1  0
 15 17  1  0
 15 18  1  0
 19 20  1  0
 21 22  1  0
 22 23  2  0
 22 27  1  0
 23 24  1  0
 24 25  2  0
 25 26  1  0
 25 28  1  0
 26 27  2  0
 28 29  1  0
 28 33  1  0
 29 30  1  0
 30 31  1  0
 30 35  1  6
 31 32  1  0
 32 33  1  0
 32 34  1  1
M  END
>  <DRUGBANK_ID>  (1) 
DB09143

>  <COMMON_NAME>  (1) 
Sonidegib

>  <CAS_NUMBER>  (1) 
956697-53-3

>  <UNII>  (1) 
0RLU3VTK5M

>  <SYNONYMS>  (1) 
Erismodegib; N-[6-(cis-2,6-dimethylmorpholin-4-yl)pyridin-3-yl]-2-methyl-4'-(trifluoromethoxy)[1,1'-biphenyl]-3-carboxamide; Sonidegib

$$$$
