
     RDKit          3D

 31 33  0  0  0  0  0  0  0  0999 V2000
    0.8521    0.3140    0.0002 C   0  0  0  0  0  0  0  0  0  0  0  0
   -1.2844   -3.4670   -3.9667 C   0  0  0  0  0  0  0  0  0  0  0  0
    0.2456    0.4432   -1.4156 C   0  0  0  0  0  0  0  0  0  0  0  0
   -1.9381   -2.3333   -3.1635 C   0  0  0  0  0  0  0  0  0  0  0  0
    0.5239   -0.7139   -2.3503 C   0  0  0  0  0  0  0  0  0  0  0  0
    8.8202  -11.1932    0.8504 C   0  0  0  0  0  0  0  0  0  0  0  0
    8.4689  -10.3670    1.9143 C   0  0  0  0  0  0  0  0  0  0  0  0
    8.2314  -11.0145   -0.4007 C   0  0  0  0  0  0  0  0  0  0  0  0
    3.5913   -3.7046   -2.4304 C   0  0  0  0  0  0  0  0  0  0  0  0
    2.7238   -2.7163   -2.2131 C   0  0  0  0  0  0  0  0  0  0  0  0
   -0.0864   -2.0037   -1.7917 C   0  0  0  0  0  0  0  0  0  0  0  0
    7.5162   -9.3704    1.7258 C   0  0  0  0  0  0  0  0  0  0  0  0
    7.3221   -9.9814   -0.6044 C   0  0  0  0  0  0  0  0  0  0  0  0
    3.6241   -4.6145   -1.4097 C   0  0  0  0  0  0  0  0  0  0  0  0
    2.1781   -2.6092   -0.9128 C   0  0  0  0  0  0  0  0  0  0  0  0
    5.9749   -6.9050    0.6910 C   0  0  0  0  0  0  0  0  0  0  0  0
    4.5412   -8.7420   -0.0433 C   0  0  0  0  0  0  0  0  0  0  0  0
    4.8644   -6.1095    0.8472 C   0  0  0  0  0  0  0  0  0  0  0  0
    3.4238   -7.9572    0.1027 C   0  0  0  0  0  0  0  0  0  0  0  0
   -1.6057   -3.6664   -0.8956 C   0  0  0  0  0  0  0  0  0  0  0  0
   -1.5220   -2.3237   -1.7040 C   0  0  0  0  0  0  0  0  0  0  0  0
    6.9217   -9.1800    0.4654 C   0  0  0  0  0  0  0  0  0  0  0  0
    5.8126   -8.2486    0.3247 C   0  0  0  0  0  0  0  0  0  0  0  0
    3.6122   -6.6695    0.5725 C   0  0  0  0  0  0  0  0  0  0  0  0
    2.5548   -4.7116   -0.4243 C   0  0  0  0  0  0  0  0  0  0  0  0
    1.6545   -3.7108   -0.2708 C   0  0  0  0  0  0  0  0  0  0  0  0
    2.4656   -5.8221    0.4986 C   0  0  0  0  0  0  0  0  0  0  0  0
    0.4905   -3.6660    0.7485 C   0  0  0  0  0  0  0  0  0  0  0  0
    1.4246   -6.1432    1.0992 O   0  0  0  0  0  0  0  0  0  0  0  0
    0.7800   -3.5433    1.9295 O   0  0  0  0  0  0  0  0  0  0  0  0
   -0.8555   -3.6409    0.3933 O   0  0  0  0  0  0  0  0  0  0  0  0
  3  1  1  0
  4  2  1  0
  5  3  1  0
  7  6  2  0
  8  6  1  0
 10  9  2  0
 11  5  1  0
 12  7  1  0
 13  8  2  0
 14  9  1  0
 15 10  1  0
 18 16  2  0
 19 17  1  0
 21  4  1  0
 21 11  1  0
 21 20  1  0
 22 12  2  0
 22 13  1  0
 23 16  1  0
 23 17  2  0
 23 22  1  0
 24 18  1  0
 24 19  2  0
 25 14  2  0
 26 15  2  0
 26 25  1  0
 27 24  1  0
 27 25  1  0
 28 26  1  0
 29 27  2  0
 30 28  2  0
 31 20  1  0
 31 28  1  0
M  END
>  <DRUGBANK_ID>  (1) 
DB14471

>  <COMMON_NAME>  (1) 
2-Ethylhexyl 4-phenylbenzophenone-2'-carboxylate

>  <CAS_NUMBER>  (1) 
75005-95-7

>  <UNII>  (1) 
93NOD9WBCS

$$$$
