099
     RDKit          3D

 27 29  0  0  0  0  0  0  0  0999 V2000
    9.1985   -5.3536   -2.3600 C   0  0  0  0  0  0  0  0  0  0  0  0
    6.9832   -3.8275   -1.4946 C   0  0  0  0  0  0  0  0  0  0  0  0
    2.8515   -8.3516    1.7869 C   0  0  0  0  0  0  0  0  0  0  0  0
    0.8355   -7.4410    0.8112 C   0  0  0  0  0  0  0  0  0  0  0  0
    1.7833   -6.4132    2.7799 C   0  0  0  0  0  0  0  0  0  0  0  0
    4.0610   -7.1349    3.6017 C   0  0  0  0  0  0  0  0  0  0  0  0
    0.8007   -6.4623    1.8013 C   0  0  0  0  0  0  0  0  0  0  0  0
    7.0313   -5.2003   -1.2941 C   0  0  0  0  0  0  0  0  0  0  0  0
    4.9402   -5.8636    1.5443 C   0  0  0  0  0  0  0  0  0  0  0  0
    5.0049   -6.0107    3.0793 C   0  0  1  0  0  0  0  0  0  0  0  0
    9.1630   -3.9721   -2.5615 C   0  0  0  0  0  0  0  0  0  0  0  0
    8.0590   -3.2144   -2.1409 C   0  0  0  0  0  0  0  0  0  0  0  0
    1.8622   -8.3901    0.8093 C   0  0  0  0  0  0  0  0  0  0  0  0
    7.9301   -7.4047   -1.4247 C   0  0  0  0  0  0  0  0  0  0  0  0
    4.6812   -4.6376    3.6988 C   0  0  0  0  0  0  0  0  0  0  0  0
    2.8330   -7.3447    2.7590 C   0  0  0  0  0  0  0  0  0  0  0  0
    8.1181   -5.9562   -1.7418 C   0  0  0  0  0  0  0  0  0  0  0  0
    4.7918   -4.6142    5.2153 C   0  0  0  0  0  0  0  0  0  0  0  0
    6.4146   -7.4905   -1.1782 C   0  0  2  0  0  0  0  0  0  0  0  0
    6.0124   -6.0814   -0.6299 C   0  0  1  0  0  0  0  0  0  0  0  0
    5.7357   -3.7724    5.7332 N   0  0  0  0  0  0  0  0  0  0  0  0
    6.0947   -5.9981    0.8257 N   0  0  0  0  0  0  0  0  0  0  0  0
   -0.1587   -5.4923    1.8283 O   0  0  0  0  0  0  0  0  0  0  0  0
    6.1567   -8.5859   -0.2978 O   0  0  0  0  0  0  0  0  0  0  0  0
    5.8247   -3.7365    7.1454 O   0  0  0  0  0  0  0  0  0  0  0  0
    4.0985   -5.2977    5.9718 O   0  0  0  0  0  0  0  0  0  0  0  0
    3.8981   -5.5859    0.9440 O   0  0  0  0  0  0  0  0  0  0  0  0
  1 11  2  0
  1 17  1  0
  2  8  1  0
  2 12  2  0
  3 13  2  0
  3 16  1  0
  4  7  2  0
  4 13  1  0
  5  7  1  0
  5 16  2  0
  6 16  1  0
  7 23  1  0
  8 17  2  0
  8 20  1  0
  9 22  1  0
  9 27  2  0
 10 15  1  1
 10  9  1  0
 10  6  1  0
 11 12  1  0
 14 17  1  0
 14 19  1  0
 15 18  1  0
 18 21  1  0
 18 26  2  0
 19 20  1  0
 19 24  1  1
 20 22  1  1
 21 25  1  0
M  END
>  <DRUGBANK_ID>  (1) 
DB06837

>  <COMMON_NAME>  (1) 
(2R)-N~4~-hydroxy-2-(3-hydroxybenzyl)-N~1~-[(1S,2R)-2-hydroxy-2,3-dihydro-1H-inden-1-yl]butanediamide

$$$$
