
     RDKit          3D

 25 25  0  0  0  0  0  0  0  0999 V2000
    0.9968    0.0467    0.1468 C   0  0  0  0  0  0  0  0  0  0  0  0
    0.6417    1.4979    1.1734 S   0  0  0  0  0  0  0  0  0  0  0  0
    0.8619    0.8822    2.8134 C   0  0  0  0  0  0  0  0  0  0  0  0
    1.3066   -0.2375    3.0338 O   0  0  0  0  0  0  0  0  0  0  0  0
    0.5189    1.7972    3.9645 C   0  0  0  0  0  0  0  0  0  0  0  0
   -0.7873    2.3865    4.1654 C   0  0  0  0  0  0  0  0  0  0  0  0
   -1.9040    2.0238    3.2191 C   0  0  0  0  0  0  0  0  0  0  0  0
   -2.9945    1.0757    3.7584 C   0  0  0  0  0  0  0  0  0  0  0  0
   -3.6934    1.4307    5.0561 C   0  0  0  0  0  0  0  0  0  0  0  0
   -4.0570    0.9732    2.6642 C   0  0  0  0  0  0  0  0  0  0  0  0
   -1.0694    3.2301    5.3012 C   0  0  0  0  0  0  0  0  0  0  0  0
   -2.3971    3.9704    5.5558 C   0  0  0  0  0  0  0  0  0  0  0  0
   -2.8340    4.0852    6.7019 O   0  0  0  0  0  0  0  0  0  0  0  0
   -3.4088    4.6488    4.2708 S   0  0  0  0  0  0  0  0  0  0  0  0
   -5.1029    4.4242    5.0087 C   0  0  0  0  0  0  0  0  0  0  0  0
   -0.0870    3.2371    6.3059 C   0  0  0  0  0  0  0  0  0  0  0  0
    1.1563    2.6691    6.1069 N   0  0  0  0  0  0  0  0  0  0  0  0
    1.4845    2.0044    4.9483 C   0  0  0  0  0  0  0  0  0  0  0  0
    2.9520    1.5744    4.8074 C   0  0  0  0  0  0  0  0  0  0  0  0
    3.7993    2.6381    4.9690 F   0  0  0  0  0  0  0  0  0  0  0  0
    3.3344    0.6591    5.7426 F   0  0  0  0  0  0  0  0  0  0  0  0
    3.3167    1.0566    3.6024 F   0  0  0  0  0  0  0  0  0  0  0  0
   -0.2757    3.8499    7.6928 C   0  0  0  0  0  0  0  0  0  0  0  0
    0.0384    2.9748    8.6985 F   0  0  0  0  0  0  0  0  0  0  0  0
    0.5270    4.9373    7.8815 F   0  0  0  0  0  0  0  0  0  0  0  0
  1  2  1  0
  2  3  1  0
  3  4  2  0
  3  5  1  0
  5  6  2  0
  5 18  1  0
  6  7  1  0
  6 11  1  0
  7  8  1  0
  8  9  1  0
  8 10  1  0
 11 12  1  0
 11 16  2  0
 12 13  2  0
 12 14  1  0
 14 15  1  0
 16 17  1  0
 16 23  1  0
 17 18  2  0
 18 19  1  0
 19 20  1  0
 19 21  1  0
 19 22  1  0
 23 24  1  0
 23 25  1  0
M  END
>  <DRUGBANK_ID>  (1) 
DB15230

>  <COMMON_NAME>  (1) 
Dithiopyr

>  <CAS_NUMBER>  (1) 
97886-45-8

>  <UNII>  (1) 
2TXF17HAV1

>  <SYNONYMS>  (1) 
DIMENSION

$$$$
