
     RDKit          3D

 10 10  0  0  0  0  0  0  0  0999 V2000
    2.2747   -0.0503    0.0121 O   0  0  0  0  0  0  0  0  0  0  0  0
    0.9081   -0.0364    0.0123 C   0  0  0  0  0  0  0  0  0  0  0  0
    0.1905   -1.2322    0.0108 C   0  0  0  0  0  0  0  0  0  0  0  0
   -1.2058   -1.2032    0.0002 C   0  0  0  0  0  0  0  0  0  0  0  0
   -1.8805    0.0154   -0.0040 C   0  0  0  0  0  0  0  0  0  0  0  0
   -1.1579    1.2072    0.0107 C   0  0  0  0  0  0  0  0  0  0  0  0
    0.2484    1.1962    0.0119 C   0  0  0  0  0  0  0  0  0  0  0  0
    1.0076    2.5010    0.0316 C   0  0  0  0  0  0  0  0  0  0  0  0
    0.6834    3.3638   -1.1558 C   0  0  0  0  0  0  0  0  0  0  0  0
    0.1424    4.5861   -1.0530 C   0  0  0  0  0  0  0  0  0  0  0  0
  1  2  1  0
  2  3  2  0
  2  7  1  0
  3  4  1  0
  4  5  2  0
  5  6  1  0
  6  7  2  0
  7  8  1  0
  8  9  1  0
  9 10  2  0
M  END
>  <DRUGBANK_ID>  (1) 
DB02534

>  <SECONDARY_ACCESSION_NUMBERS>  (1) 
EXPT00127

>  <COMMON_NAME>  (1) 
2-Allylphenol

>  <CAS_NUMBER>  (1) 
1745-81-9

>  <UNII>  (1) 
O04F145ZJZ

$$$$
