
     RDKit          3D

 18 19  0  0  0  0  0  0  0  0999 V2000
   -2.4993   -0.0249   -0.0009 C   0  0  0  0  0  0  0  0  0  0  0  0
    6.2479    2.7993    3.0469 C   0  0  0  0  0  0  0  0  0  0  0  0
    6.3451    0.3975    3.1003 C   0  0  0  0  0  0  0  0  0  0  0  0
    5.4172    2.7439    1.9222 C   0  0  0  0  0  0  0  0  0  0  0  0
    5.5252    0.3265    1.9666 C   0  0  0  0  0  0  0  0  0  0  0  0
   -0.2256   -1.1451   -0.0043 C   0  0  0  0  0  0  0  0  0  0  0  0
   -0.2967    1.1666   -0.0014 C   0  0  0  0  0  0  0  0  0  0  0  0
   -1.0090   -0.0079   -0.0064 C   0  0  0  0  0  0  0  0  0  0  0  0
    6.7072    1.6290    3.6554 C   0  0  0  0  0  0  0  0  0  0  0  0
    5.0600    1.5048    1.3805 C   0  0  0  0  0  0  0  0  0  0  0  0
    1.7070    0.0728   -0.0354 C   0  0  0  0  0  0  0  0  0  0  0  0
    7.5515    1.6887    4.7486 N   0  0  0  0  0  0  0  0  0  0  0  0
    1.1326   -1.1383   -0.0115 N   0  0  0  0  0  0  0  0  0  0  0  0
    1.0440    1.2193    0.0194 N   0  0  0  0  0  0  0  0  0  0  0  0
    3.0863    0.0632    0.2299 N   0  0  0  0  0  0  0  0  0  0  0  0
    4.8500    1.2136   -1.1832 O   0  0  0  0  0  0  0  0  0  0  0  0
    3.1933    2.6708    0.0358 O   0  0  0  0  0  0  0  0  0  0  0  0
    3.9841    1.4579   -0.0531 S   0  0  0  0  0  0  0  0  0  0  0  0
  4  2  2  0
  5  3  1  0
  8  1  1  0
  8  6  2  0
  8  7  1  0
  9  2  1  0
  9  3  2  0
 10  4  1  0
 10  5  2  0
 12  9  1  0
 13  6  1  0
 13 11  2  0
 14  7  2  0
 14 11  1  0
 15 11  1  0
 18 10  1  0
 18 15  1  0
 18 16  2  0
 18 17  2  0
M  END
>  <DRUGBANK_ID>  (1) 
DB13320

>  <COMMON_NAME>  (1) 
Sulfaperin

>  <CAS_NUMBER>  (1) 
599-88-2

>  <UNII>  (1) 
W5E840UV9P

>  <SYNONYMS>  (1) 
Sulfaperin; sulfaperina

$$$$
