
     RDKit          3D

 19 21  0  0  1  0  0  0  0  0999 V2000
    1.0633    0.0021   -0.0832 C   0  0  0  0  0  0  0  0  0  0  0  0
    1.5775   -7.1462    3.4016 C   0  0  0  0  0  0  0  0  0  0  0  0
    1.5804   -5.1487   -0.4876 C   0  0  0  0  0  0  0  0  0  0  0  0
    0.5612   -1.1765    0.7469 C   0  0  2  0  0  0  0  0  0  0  0  0
    1.9210   -6.8467    0.7773 C   0  0  0  0  0  0  0  0  0  0  0  0
    1.4481   -1.3731    1.9374 C   0  0  0  0  0  0  0  0  0  0  0  0
    1.6360   -2.8219    2.2485 C   0  0  2  0  0  0  0  0  0  0  0  0
    2.2250   -8.0841    1.3817 C   0  0  0  0  0  0  0  0  0  0  0  0
    1.4391   -5.8428    1.6027 C   0  0  0  0  0  0  0  0  0  0  0  0
    0.7180   -3.4542    1.2090 C   0  0  2  0  0  0  0  0  0  0  0  0
    2.7024   -9.1695    0.6808 N   0  0  0  0  0  0  0  0  0  0  0  0
    2.0446   -8.2115    2.7163 N   0  0  0  0  0  0  0  0  0  0  0  0
    1.2447   -5.9263    2.9291 N   0  0  0  0  0  0  0  0  0  0  0  0
    2.0071   -6.3965   -0.5245 N   0  0  0  0  0  0  0  0  0  0  0  0
    1.2215   -4.7594    0.7750 N   0  0  0  0  0  0  0  0  0  0  0  0
    0.5883    1.2411    0.4544 O   0  0  0  0  0  0  0  0  0  0  0  0
    1.9313   -0.4663    2.6156 O   0  0  0  0  0  0  0  0  0  0  0  0
    1.2390   -3.0396    3.5871 O   0  0  0  0  0  0  0  0  0  0  0  0
    0.6866   -2.4826    0.1149 O   0  0  0  0  0  0  0  0  0  0  0  0
  4  1  1  6
  6  4  1  0
  7  6  1  0
  7 18  1  1
  8  5  2  0
  9  5  1  0
 10  7  1  0
 10 15  1  6
 11  8  1  0
 12  2  2  0
 12  8  1  0
 13  2  1  0
 13  9  2  0
 14  3  2  0
 14  5  1  0
 15  3  1  0
 15  9  1  0
 16  1  1  0
 17  6  2  0
 19  4  1  0
 19 10  1  0
M  END
>  <DRUGBANK_ID>  (1) 
DB03273

>  <SECONDARY_ACCESSION_NUMBERS>  (1) 
EXPT00442

>  <COMMON_NAME>  (1) 
3'-Oxo-Adenosine

$$$$
