
     RDKit          3D

 24 24  0  0  0  0  0  0  0  0999 V2000
    0.6943    1.3170   -0.1853 C   0  0  2  0  0  0  0  0  0  0  0  0
    1.4174    0.0564    0.2941 C   0  0  2  0  0  0  0  0  0  0  0  0
    2.7682    0.0940   -0.1777 O   0  0  0  0  0  0  0  0  0  0  0  0
    0.6499   -1.1721   -0.2270 C   0  0  1  0  0  0  0  0  0  0  0  0
   -1.7616    0.0574    0.2931 C   0  0  1  0  0  0  0  0  0  0  0  0
   -2.8955   -0.0069   -0.5768 O   0  0  0  0  0  0  0  0  0  0  0  0
   -0.8174   -1.1451    0.2653 C   0  0  2  0  0  0  0  0  0  0  0  0
   -0.8498    1.3382    0.4102 C   0  0  1  0  0  0  0  0  0  0  0  0
   -0.6513    1.5429    1.8349 O   0  0  0  0  0  0  0  0  0  0  0  0
    0.7121    1.2809   -1.6746 O   0  0  0  0  0  0  0  0  0  0  0  0
    0.7136   -1.2863   -1.6744 O   0  0  0  0  0  0  0  0  0  0  0  0
   -0.7519   -1.2196    1.6668 O   0  0  0  0  0  0  0  0  0  0  0  0
    2.3275   -0.3281   -2.7515 O   0  0  0  0  0  0  0  0  0  0  0  0
    1.2164    1.7445   -4.0170 O   0  0  0  0  0  0  0  0  0  0  0  0
    2.0504    1.1633   -2.7646 P   0  0  0  0  0  0  0  0  0  0  0  0
    3.3887    1.0457   -3.8545 O   0  0  0  0  0  0  0  0  0  0  0  0
   -1.4126   -0.5680   -2.1709 O   0  0  0  0  0  0  0  0  0  0  0  0
    0.2236   -0.4016   -3.8531 O   0  0  0  0  0  0  0  0  0  0  0  0
   -0.0643    0.1284   -2.2959 P   0  0  0  0  0  0  0  0  0  0  0  0
   -0.8422    1.5432   -2.9173 O   0  0  0  0  0  0  0  0  0  0  0  0
   -2.1707   -2.0390    3.3751 O   0  0  0  0  0  0  0  0  0  0  0  0
   -2.3891   -2.9270    1.0606 O   0  0  0  0  0  0  0  0  0  0  0  0
   -1.3564   -2.7604    2.1701 P   0  0  0  0  0  0  0  0  0  0  0  0
   -1.9608   -4.3013    2.6734 O   0  0  0  0  0  0  0  0  0  0  0  0
  1  2  1  0
  1  8  1  0
  1 10  1  6
  2  4  1  0
  2  3  1  6
  4  7  1  0
  4 11  1  6
  5  8  1  0
  5  6  1  6
  7  5  1  0
  7 12  1  1
  8  9  1  1
 10 15  1  0
 11 19  1  0
 12 23  1  0
 15 13  2  0
 15 14  1  0
 15 16  1  0
 19 17  2  0
 19 18  1  0
 19 20  1  0
 23 21  1  0
 23 22  2  0
 23 24  1  0
M  END
>  <DRUGBANK_ID>  (1) 
DB01729

>  <SECONDARY_ACCESSION_NUMBERS>  (1) 
EXPT01812

>  <COMMON_NAME>  (1) 
1D-myo-inositol 1,3,4-trisphosphate

>  <SYNONYMS>  (1) 
(1S,3S,4S)-1,3,4-triphospho-myo-inositol; 1D-myo-inositol 1,3,4-trisphosphate; D-myo-Inositol 1,3,4-trisphosphate; Inositol 1,3,4-trisphosphate

$$$$
