34Q
     RDKit          3D

 25 28  0  0  0  0  0  0  0  0999 V2000
   -0.7579   -0.9401   -0.2008 N   0  0  0  0  0  0  0  0  0  0  0  0
   -0.1600    1.6935   -1.6276 N   0  0  0  0  0  0  0  0  0  0  0  0
    2.4399    0.5524   -1.0348 C   0  0  0  0  0  0  0  0  0  0  0  0
    4.4775   -0.2387    0.1708 C   0  0  0  0  0  0  0  0  0  0  0  0
    5.4723    0.5762    0.9879 C   0  0  0  0  0  0  0  0  0  0  0  0
    4.5666    1.8416   -0.8858 C   0  0  0  0  0  0  0  0  0  0  0  0
    5.5099    1.9591    0.3099 C   0  0  0  0  0  0  0  0  0  0  0  0
   -1.5663   -1.9695   -0.6711 C   0  0  0  0  0  0  0  0  0  0  0  0
   -5.7072   -1.4833   -1.2505 C   0  0  0  0  0  0  0  0  0  0  0  0
   -5.2558    0.3833   -2.7163 C   0  0  0  0  0  0  0  0  0  0  0  0
   -3.0322   -1.7530   -0.8774 C   0  0  0  0  0  0  0  0  0  0  0  0
   -1.1176   -3.0968   -0.9100 O   0  0  0  0  0  0  0  0  0  0  0  0
   -3.9424   -2.6152   -0.2896 C   0  0  0  0  0  0  0  0  0  0  0  0
   -5.2886   -2.4834   -0.4470 N   0  0  0  0  0  0  0  0  0  0  0  0
   -4.7725   -0.6220   -1.8853 C   0  0  0  0  0  0  0  0  0  0  0  0
   -3.4369   -0.7442   -1.6943 N   0  0  0  0  0  0  0  0  0  0  0  0
   -6.6249    0.5765   -2.9224 C   0  0  0  0  0  0  0  0  0  0  0  0
   -7.0715   -1.2780   -1.4606 C   0  0  0  0  0  0  0  0  0  0  0  0
   -7.5379   -0.2536   -2.2876 C   0  0  0  0  0  0  0  0  0  0  0  0
    0.6960   -1.0769   -0.0535 C   0  0  0  0  0  0  0  0  0  0  0  0
    1.2736    0.3478   -0.0288 C   0  0  2  0  0  0  0  0  0  0  0  0
    0.0303    1.2694   -0.2420 C   0  0  2  0  0  0  0  0  0  0  0  0
   -1.1597    0.3929    0.2070 C   0  0  0  0  0  0  0  0  0  0  0  0
    2.3111    0.5862   -2.2562 O   0  0  0  0  0  0  0  0  0  0  0  0
    3.6666    0.7952   -0.4377 N   0  0  0  0  0  0  0  0  0  0  0  0
  1  8  1  0
  1 20  1  0
  1 23  1  0
  3 24  2  0
  3 25  1  0
  4  5  1  0
  4 25  1  0
  5  7  1  0
  6  7  1  0
  6 25  1  0
  8 11  1  0
  8 12  2  0
  9 14  1  0
  9 15  1  0
  9 18  2  0
 10 15  2  0
 10 17  1  0
 11 13  1  0
 11 16  2  0
 13 14  2  0
 15 16  1  0
 17 19  2  0
 18 19  1  0
 20 21  1  0
 21 22  1  0
 21  3  1  6
 22 23  1  0
 22  2  1  6
M  END
>  <DRUGBANK_ID>  (1) 
DB07015

>  <COMMON_NAME>  (1) 
(3R,4R)-4-(pyrrolidin-1-ylcarbonyl)-1-(quinoxalin-2-ylcarbonyl)pyrrolidin-3-amine

$$$$
