
     RDKit          3D

 32 35  0  0  1  0  0  0  0  0999 V2000
   -1.1138   -0.5729    1.7028 Cl  0  0  0  0  0  0  0  0  0  0  0  0
    0.0984    3.5171   -0.1554 O   0  0  0  0  0  0  0  0  0  0  0  0
   -2.9012   -3.0883   -2.1980 O   0  0  0  0  0  0  0  0  0  0  0  0
   -1.9207    2.4588    0.0460 N   0  0  0  0  0  0  0  0  0  0  0  0
    2.5523   -2.4299   -0.0983 N   0  0  0  0  0  0  0  0  0  0  0  0
   -4.2766   -1.7107   -3.2946 N   0  0  0  0  0  0  0  0  0  0  0  0
   -3.3554    0.0628   -0.5977 C   0  0  1  0  0  0  0  0  0  0  0  0
   -3.8303    1.1131   -1.5757 C   0  0  0  0  0  0  0  0  0  0  0  0
   -2.9413    2.2412   -2.0726 C   0  0  0  0  0  0  0  0  0  0  0  0
   -3.5309    0.7320    0.7472 C   0  0  0  0  0  0  0  0  0  0  0  0
   -2.6444    3.2153   -0.9785 C   0  0  0  0  0  0  0  0  0  0  0  0
   -3.9076   -1.4001   -0.7857 C   0  0  0  0  0  0  0  0  0  0  0  0
   -2.7656    1.8941    1.0310 C   0  0  0  0  0  0  0  0  0  0  0  0
    3.4546   -2.8890    0.9463 C   0  0  0  0  0  0  0  0  0  0  0  0
    2.2952   -3.4903   -1.0663 C   0  0  0  0  0  0  0  0  0  0  0  0
    4.3892   -3.7784    0.1352 C   0  0  0  0  0  0  0  0  0  0  0  0
    3.4436   -4.4812   -0.8395 C   0  0  0  0  0  0  0  0  0  0  0  0
   -4.3535    0.2068    1.7512 C   0  0  0  0  0  0  0  0  0  0  0  0
    1.8600   -1.2524   -0.1019 C   0  0  0  0  0  0  0  0  0  0  0  0
   -0.5139    2.4716    0.0890 C   0  0  0  0  0  0  0  0  0  0  0  0
   -2.9149    2.5673    2.2395 C   0  0  0  0  0  0  0  0  0  0  0  0
   -3.6353   -2.1194   -2.1384 C   0  0  0  0  0  0  0  0  0  0  0  0
    0.3023    1.1711    0.1627 C   0  0  0  0  0  0  0  0  0  0  0  0
   -4.4559    0.8579    2.9806 C   0  0  0  0  0  0  0  0  0  0  0  0
   -3.7648    2.0482    3.2115 C   0  0  0  0  0  0  0  0  0  0  0  0
    0.4810   -1.2665   -0.1409 C   0  0  0  0  0  0  0  0  0  0  0  0
    2.4633    0.0074   -0.0003 C   0  0  0  0  0  0  0  0  0  0  0  0
   -0.2183   -0.1209    0.2636 C   0  0  0  0  0  0  0  0  0  0  0  0
    1.6990    1.2081    0.0184 C   0  0  0  0  0  0  0  0  0  0  0  0
   -5.1477   -0.5647   -3.4677 C   0  0  0  0  0  0  0  0  0  0  0  0
   -4.4993    0.5217   -4.3727 C   0  0  0  0  0  0  0  0  0  0  0  0
   -6.5614   -0.8151   -3.8918 C   0  0  0  0  0  0  0  0  0  0  0  0
  1 28  1  0
  2 20  2  0
  3 22  2  0
  4 11  1  0
  4 13  1  0
  4 20  1  0
  5 14  1  0
  5 15  1  0
  5 19  1  0
  6 22  1  0
  6 30  1  0
  7  8  1  0
  7 10  1  0
  7 12  1  1
  8  9  1  0
  9 11  1  0
 10 13  2  0
 10 18  1  0
 12 22  1  0
 13 21  1  0
 14 16  1  0
 15 17  1  0
 16 17  1  0
 18 24  2  0
 19 26  2  0
 19 27  1  0
 20 23  1  0
 21 25  2  0
 23 28  2  0
 23 29  1  0
 24 25  1  0
 26 28  1  0
 27 29  2  0
 30 31  1  0
 30 32  1  0
M  END
>  <DRUGBANK_ID>  (1) 
DB05838

>  <COMMON_NAME>  (1) 
OPC-51803

>  <UNII>  (1) 
1IGV6WTK9I

$$$$
