VGG
     RDKit          3D

 22 24  0  0  0  0  0  0  0  0999 V2000
    1.0300    0.0736   -0.0787 C   0  0  0  0  0  0  0  0  0  0  0  0
    0.5340   -1.3686   -0.3439 C   0  0  0  0  0  0  0  0  0  0  0  0
    1.0375   -2.2377    0.8272 C   0  0  0  0  0  0  0  0  0  0  0  0
   -1.0085   -1.3424   -0.3237 C   0  0  0  0  0  0  0  0  0  0  0  0
    1.0009   -1.8961   -1.6433 N   0  0  0  0  0  0  0  0  0  0  0  0
    1.5141   -1.0647   -2.5948 N   0  0  0  0  0  0  0  0  0  0  0  0
    0.8890   -3.1935   -2.0969 C   0  0  0  0  0  0  0  0  0  0  0  0
    0.5268   -4.2868   -1.3945 N   0  0  0  0  0  0  0  0  0  0  0  0
    0.5416   -5.3916   -2.1543 C   0  0  0  0  0  0  0  0  0  0  0  0
    0.7627   -5.4907   -3.4756 N   0  0  0  0  0  0  0  0  0  0  0  0
    0.9820   -4.3571   -4.1670 C   0  0  0  0  0  0  0  0  0  0  0  0
    1.0914   -4.4831   -5.5506 N   0  0  0  0  0  0  0  0  0  0  0  0
    1.1766   -3.1648   -3.4430 C   0  0  0  0  0  0  0  0  0  0  0  0
    1.6820   -1.8534   -3.6740 C   0  0  0  0  0  0  0  0  0  0  0  0
    2.2875   -1.3119   -4.9350 C   0  0  0  0  0  0  0  0  0  0  0  0
    3.6515   -1.9558   -5.1853 C   0  0  0  0  0  0  0  0  0  0  0  0
    3.8654   -3.3411   -5.2305 C   0  0  0  0  0  0  0  0  0  0  0  0
    4.7690   -1.1775   -5.4858 C   0  0  0  0  0  0  0  0  0  0  0  0
    5.9930   -1.7881   -5.8138 C   0  0  0  0  0  0  0  0  0  0  0  0
    6.1137   -3.1779   -5.9438 C   0  0  0  0  0  0  0  0  0  0  0  0
    5.0164   -3.9781   -5.6838 C   0  0  0  0  0  0  0  0  0  0  0  0
    5.0187   -5.4754   -5.8156 C   0  0  0  0  0  0  0  0  0  0  0  0
  1  2  1  0
  2  3  1  0
  2  4  1  0
  2  5  1  0
  5  6  1  0
  5  7  1  0
  6 14  2  0
  7  8  2  0
  7 13  1  0
  8  9  1  0
  9 10  2  0
 10 11  1  0
 11 12  1  0
 11 13  2  0
 13 14  1  0
 14 15  1  0
 15 16  1  0
 16 17  2  0
 16 18  1  0
 17 21  1  0
 18 19  2  0
 19 20  1  0
 20 21  2  0
 21 22  1  0
M  END
>  <DRUGBANK_ID>  (1) 
DB08699

>  <COMMON_NAME>  (1) 
1-tert-butyl-3-(3-methylbenzyl)-1H-pyrazolo[3,4-d]pyrimidin-4-amine

>  <UNII>  (1) 
LP62329LQ7

$$$$
