1114
     RDKit          3D

 19 20  0  0  1  0  0  0  0  0999 V2000
   -2.1888    0.2003   -0.0320 Cl  0  0  0  0  0  0  0  0  0  0  0  0
    4.1411   -3.1464    0.0958 N   0  0  0  0  0  0  0  0  0  0  0  0
    5.8620   -1.1857   -1.1399 N   0  0  0  0  0  0  0  0  0  0  0  0
    4.0060    0.1050    0.0164 C   0  0  0  0  0  0  0  0  0  0  0  0
    4.4466   -0.7744    1.2288 C   0  0  0  0  0  0  0  0  0  0  0  0
    3.9912   -2.2753    1.2866 C   0  0  0  0  0  0  0  0  0  0  0  0
    2.4128    0.1440   -0.0439 C   0  0  0  0  0  0  0  0  0  0  0  0
    4.8705   -0.2494   -1.2774 C   0  0  0  0  0  0  0  0  0  0  0  0
    1.7065    1.3389   -0.0766 C   0  0  0  0  0  0  0  0  0  0  0  0
    1.5703   -0.9979    0.0623 C   0  0  0  0  0  0  0  0  0  0  0  0
    4.3909    0.0580   -2.5525 C   0  0  0  0  0  0  0  0  0  0  0  0
    3.8640   -4.5481    0.3285 C   0  0  0  0  0  0  0  0  0  0  0  0
    3.4289   -2.8541   -1.1501 C   0  0  0  0  0  0  0  0  0  0  0  0
    0.2824    1.3672   -0.0617 C   0  0  0  0  0  0  0  0  0  0  0  0
    0.1752   -1.0039    0.0025 C   0  0  0  0  0  0  0  0  0  0  0  0
    4.7149   -0.7909   -3.6299 C   0  0  0  0  0  0  0  0  0  0  0  0
   -0.4714    0.1831   -0.0471 C   0  0  0  0  0  0  0  0  0  0  0  0
    6.0965   -2.0432   -2.1761 C   0  0  0  0  0  0  0  0  0  0  0  0
    5.5250   -1.9040   -3.4273 C   0  0  0  0  0  0  0  0  0  0  0  0
  1 17  1  0
  2  6  1  0
  2 12  1  0
  2 13  1  0
  3  8  2  0
  3 18  1  0
  4  5  1  0
  4  7  1  0
  4  8  1  0
  5  6  1  0
  7  9  2  0
  7 10  1  0
  8 11  1  0
  9 14  1  0
 10 15  2  0
 11 16  2  0
 14 17  2  0
 15 17  1  0
 16 19  1  0
 18 19  2  0
M  END
>  <DRUGBANK_ID>  (1) 
DB01114

>  <SECONDARY_ACCESSION_NUMBERS>  (1) 
APRD00001; DB09440

>  <COMMON_NAME>  (1) 
Chlorpheniramine

>  <CAS_NUMBER>  (1) 
132-22-9

>  <UNII>  (1) 
3U6IO1965U

>  <SYNONYMS>  (1) 
1-(p-chlorophenyl)-1-(2-pyridyl)-3-dimethylaminopropane; 1-(p-chlorophenyl)-1-(2-pyridyl)-3-N,N-dimethylpropylamine; 2-[p-chloro-α-[2-(dimethylamino)ethyl]benzyl]pyridine; 3-(p-chlorophenyl)-3-(2-pyridyl)-N,N-dimethylpropylamine; Chlorophenylpyridamine; Chlorphenamin; Chlorphenamine; Chlorphenaminum; Chlorpheniramine; Chlorpheniramine polistirex; Chlorpheniraminum; Clorfenamina; Clorfeniramina; γ-(4-chlorophenyl)-N,N-dimethyl-2-pyridinepropanamine; γ-(4-chlorophenyl)-γ-(2-pyridyl)propyldimethylamine

$$$$
