
     RDKit          3D

 17 17  0  0  1  0  0  0  0  0999 V2000
   -1.2169   -1.2144    0.0177 C   0  0  0  0  0  0  0  0  0  0  0  0
   -1.8891    0.0034   -0.0016 C   0  0  0  0  0  0  0  0  0  0  0  0
    2.5344    2.5117    2.7887 C   0  0  0  0  0  0  0  0  0  0  0  0
    1.0322    2.7291    2.6029 C   0  0  0  0  0  0  0  0  0  0  0  0
    0.1781   -1.2448    0.0254 C   0  0  0  0  0  0  0  0  0  0  0  0
   -1.1638    1.1918   -0.0420 C   0  0  0  0  0  0  0  0  0  0  0  0
    3.3413    3.8106    2.8279 C   0  0  0  0  0  0  0  0  0  0  0  0
    0.6168    3.5004    1.3483 C   0  0  0  0  0  0  0  0  0  0  0  0
    0.9038   -0.0527   -0.0047 C   0  0  0  0  0  0  0  0  0  0  0  0
    0.2410    1.1779   -0.0597 C   0  0  0  0  0  0  0  0  0  0  0  0
    2.2658   -0.1111    0.0350 O   0  0  0  0  0  0  0  0  0  0  0  0
    4.3833    5.4358    4.1311 O   0  0  0  0  0  0  0  0  0  0  0  0
    2.0782    5.7882    3.3639 O   0  0  0  0  0  0  0  0  0  0  0  0
    2.5318    5.5426    5.6132 O   0  0  0  0  0  0  0  0  0  0  0  0
    2.5484    2.5763   -0.2748 O   0  0  0  0  0  0  0  0  0  0  0  0
    2.9028    4.7488    4.3366 P   0  0  0  0  0  0  0  0  0  0  0  0
    1.0646    2.7670   -0.2404 S   0  0  0  0  0  0  0  0  0  0  0  0
  2  1  2  0
  4  3  1  0
  5  1  1  0
  6  2  1  0
  7  3  1  0
  8  4  1  0
  9  5  2  0
 10  6  2  0
 10  9  1  0
 11  9  1  0
 16  7  1  0
 16 12  1  0
 16 13  1  0
 16 14  2  0
 17  8  1  0
 17 10  1  0
 17 15  2  0
M  END
>  <DRUGBANK_ID>  (1) 
DB07925

>  <COMMON_NAME>  (1) 
4-(2-HYDROXYPHENYLSULFINYL)-BUTYLPHOSPHONIC ACID

$$$$
