
     RDKit          3D

 21 24  0  0  0  0  0  0  0  0999 V2000
    9.0565    3.7664   -5.0675 C   0  0  1  0  0  0  0  0  0  0  0  0
    9.3117    2.5223   -5.9173 C   0  0  2  0  0  0  0  0  0  0  0  0
    7.0699    1.5822   -3.9406 C   0  0  1  0  0  0  0  0  0  0  0  0
    8.6705    1.3815   -4.6128 C   0  0  1  0  0  0  0  0  0  0  0  0
    6.2414    0.2528   -2.9202 C   0  0  1  0  0  0  0  0  0  0  0  0
    9.0340    4.7373   -6.2426 C   0  0  0  0  0  0  0  0  0  0  0  0
    7.6939    3.9901   -4.4339 C   0  0  0  0  0  0  0  0  0  0  0  0
    7.2961    3.0267   -3.3120 C   0  0  0  0  0  0  0  0  0  0  0  0
   10.5409    3.4888   -6.9812 C   0  0  0  0  0  0  0  0  0  0  0  0
   10.4210    5.0124   -6.6152 C   0  0  0  0  0  0  0  0  0  0  0  0
    8.6415   -0.1047   -4.7920 C   0  0  0  0  0  0  0  0  0  0  0  0
    7.3917   -0.5347   -2.3891 C   0  0  0  0  0  0  0  0  0  0  0  0
    8.4803   -0.8085   -3.4200 C   0  0  0  0  0  0  0  0  0  0  0  0
    5.5292    1.0995   -1.8009 C   0  0  0  0  0  0  0  0  0  0  0  0
    5.1577   -1.1359   -3.2362 C   0  0  0  0  0  0  0  0  0  0  0  0
    7.2373   -1.6343   -1.6004 C   0  0  0  0  0  0  0  0  0  0  0  0
    4.8316   -2.0140   -2.2134 C   0  0  0  0  0  0  0  0  0  0  0  0
    6.1632   -2.6113   -1.9228 C   0  0  0  0  0  0  0  0  0  0  0  0
    6.4998   -3.7496   -2.2945 O   0  0  0  0  0  0  0  0  0  0  0  0
    8.1569    4.8533   -7.0415 O   0  0  0  0  0  0  0  0  0  0  0  0
   10.2434    3.9122   -4.0810 C   0  0  0  0  0  0  0  0  0  0  0  0
  1 21  1  1
  2  1  1  0
  4  2  1  0
  4  3  1  0
  5  3  1  0
  5 14  1  1
  6  1  1  0
  7  1  1  0
  3  8  1  1
  8  7  1  0
  2  9  1  6
 10  6  1  0
 10  9  1  0
  4 11  1  6
 12  5  1  0
 13 11  1  0
 13 12  1  0
 15  5  1  0
 16 12  2  0
 17 15  2  0
 18 16  1  0
 18 17  1  0
 19 18  2  0
 20  6  2  0
M  END
>  <DRUGBANK_ID>  (1) 
DB07373

>  <COMMON_NAME>  (1) 
Boldione

>  <CAS_NUMBER>  (1) 
897-06-3

>  <UNII>  (1) 
2166Q8568W

>  <SYNONYMS>  (1) 
1-Dehydroandrostenedione; 1,4-Androstadiene-3,17-dione; Androsta-1,4-diene-3,17-dione; Androstadienedione

$$$$
