L13
     RDKit          3D

 14 15  0  0  0  0  0  0  0  0999 V2000
   -0.1986   -2.1640   -0.3577 N   0  0  0  0  0  0  0  0  0  0  0  0
   -0.5690   -0.8447   -0.0638 N   0  0  0  0  0  0  0  0  0  0  0  0
    0.2855    0.2381   -0.0379 C   0  0  0  0  0  0  0  0  0  0  0  0
    1.9420    0.2757   -0.0182 S   0  0  0  0  0  0  0  0  0  0  0  0
   -0.5408    1.3591   -0.0132 N   0  0  0  0  0  0  0  0  0  0  0  0
   -1.8660    0.9891   -0.0246 N   0  0  0  0  0  0  0  0  0  0  0  0
   -1.8348   -0.3194   -0.0430 C   0  0  0  0  0  0  0  0  0  0  0  0
   -3.0304   -1.1737    0.0051 C   0  0  0  0  0  0  0  0  0  0  0  0
   -3.9688   -1.0616   -1.0287 C   0  0  0  0  0  0  0  0  0  0  0  0
   -5.1048   -1.8736   -1.0304 C   0  0  0  0  0  0  0  0  0  0  0  0
   -5.3176   -2.7772    0.0091 C   0  0  0  0  0  0  0  0  0  0  0  0
   -4.3984   -2.8690    1.0558 C   0  0  0  0  0  0  0  0  0  0  0  0
   -3.2463   -2.0654    1.0745 C   0  0  0  0  0  0  0  0  0  0  0  0
   -2.3075   -2.1974    2.2420 C   0  0  0  0  0  0  0  0  0  0  0  0
  1  2  1  0
  2  3  1  0
  2  7  1  0
  3  4  2  0
  3  5  1  0
  5  6  1  0
  6  7  2  0
  7  8  1  0
  8  9  2  0
  8 13  1  0
  9 10  1  0
 10 11  2  0
 11 12  1  0
 12 13  2  0
 13 14  1  0
M  END
>  <DRUGBANK_ID>  (1) 
DB08069

>  <COMMON_NAME>  (1) 
4-AMINO-5-(2-METHYLPHENYL)-2,4-DIHYDRO-3H-1,2,4-TRIAZOLE-3-THIONE

>  <UNII>  (1) 
9GLA8V58ZZ

$$$$
