QIG
     RDKit          3D

 27 31  0  0  0  0  0  0  0  0999 V2000
    2.4301   -0.0999   -0.0062 C   0  0  0  0  0  0  0  0  0  0  0  0
    0.9316   -0.0714   -0.0003 C   0  0  0  0  0  0  0  0  0  0  0  0
    0.1950   -1.2505    0.0059 C   0  0  0  0  0  0  0  0  0  0  0  0
   -1.1931   -1.1738    0.0050 C   0  0  0  0  0  0  0  0  0  0  0  0
   -1.8067    0.0748    0.0137 C   0  0  0  0  0  0  0  0  0  0  0  0
   -1.0127    1.2215    0.0147 C   0  0  0  0  0  0  0  0  0  0  0  0
    0.3494    1.1506    0.0012 N   0  0  0  0  0  0  0  0  0  0  0  0
   -1.6189    2.5633    0.0312 C   0  0  0  0  0  0  0  0  0  0  0  0
   -1.3372    3.3827   -0.9934 N   0  0  0  0  0  0  0  0  0  0  0  0
   -1.9163    4.5947   -1.0158 C   0  0  0  0  0  0  0  0  0  0  0  0
   -1.6483    5.4293   -2.1265 N   0  0  0  0  0  0  0  0  0  0  0  0
   -0.7969    5.1113   -3.2021 C   0  0  0  0  0  0  0  0  0  0  0  0
   -1.0713    3.9760   -3.9739 C   0  0  0  0  0  0  0  0  0  0  0  0
   -0.2586    3.5847   -5.0377 C   0  0  0  0  0  0  0  0  0  0  0  0
    0.8706    4.3646   -5.2808 C   0  0  0  0  0  0  0  0  0  0  0  0
    1.8667    4.2475   -6.2121 N   0  0  0  0  0  0  0  0  0  0  0  0
    2.8109    5.2018   -6.1313 N   0  0  0  0  0  0  0  0  0  0  0  0
    2.4062    5.9468   -5.0979 C   0  0  0  0  0  0  0  0  0  0  0  0
    1.1976    5.4858   -4.5273 C   0  0  0  0  0  0  0  0  0  0  0  0
    0.3544    5.8743   -3.4668 C   0  0  0  0  0  0  0  0  0  0  0  0
   -2.8092    5.0060   -0.0128 C   0  0  0  0  0  0  0  0  0  0  0  0
   -3.4787    6.2542    0.0399 C   0  0  0  0  0  0  0  0  0  0  0  0
   -4.3313    6.5719    1.0926 C   0  0  0  0  0  0  0  0  0  0  0  0
   -4.5239    5.6504    2.1127 C   0  0  0  0  0  0  0  0  0  0  0  0
   -3.8710    4.4176    2.0619 C   0  0  0  0  0  0  0  0  0  0  0  0
   -3.0272    4.0685    1.0168 C   0  0  0  0  0  0  0  0  0  0  0  0
   -2.4657    2.8610    1.0322 N   0  0  0  0  0  0  0  0  0  0  0  0
  1  2  1  0
  2  3  2  0
  2  7  1  0
  3  4  1  0
  4  5  2  0
  5  6  1  0
  6  7  2  0
  6  8  1  0
  8  9  2  0
  8 27  1  0
  9 10  1  0
 10 11  1  0
 10 21  2  0
 11 12  1  0
 12 13  2  0
 12 20  1  0
 13 14  1  0
 14 15  2  0
 15 16  1  0
 15 19  1  0
 16 17  1  0
 17 18  2  0
 18 19  1  0
 19 20  2  0
 21 22  1  0
 21 26  1  0
 22 23  2  0
 23 24  1  0
 24 25  2  0
 25 26  1  0
 26 27  2  0
M  END
>  <DRUGBANK_ID>  (1) 
DB08450

>  <COMMON_NAME>  (1) 
N-1H-indazol-5-yl-2-(6-methylpyridin-2-yl)quinazolin-4-amine

$$$$
