1122
     RDKit          3D

 36 37  0  0  0  0  0  0  0  0999 V2000
   -2.0929   -0.2627   -0.1669 Cl  0  0  0  0  0  0  0  0  0  0  0  0
    6.9469   14.0452    0.0235 Cl  0  0  0  0  0  0  0  0  0  0  0  0
    0.8945    7.8367   -0.0826 O   0  0  0  0  0  0  0  0  0  0  0  0
    3.9573    6.0416   -0.0224 O   0  0  0  0  0  0  0  0  0  0  0  0
   -0.2379    3.2827    1.1915 N   0  0  0  0  0  0  0  0  0  0  0  0
    4.9651   10.5761    1.1485 N   0  0  0  0  0  0  0  0  0  0  0  0
    1.1398    5.6748   -0.3040 N   0  0  0  0  0  0  0  0  0  0  0  0
    3.7257    8.2015   -0.3576 N   0  0  0  0  0  0  0  0  0  0  0  0
    1.2712    3.7227    1.2312 C   0  0  0  0  0  0  0  0  0  0  0  0
    3.4726   10.2085    1.0821 C   0  0  0  0  0  0  0  0  0  0  0  0
   -0.4700    2.4081   -0.0875 C   0  0  0  0  0  0  0  0  0  0  0  0
    5.3214   11.4191   -0.1545 C   0  0  0  0  0  0  0  0  0  0  0  0
   -1.0820    4.5603    1.1790 C   0  0  0  0  0  0  0  0  0  0  0  0
   -0.4979    2.4692    2.4798 C   0  0  0  0  0  0  0  0  0  0  0  0
    5.2707   11.4904    2.3620 C   0  0  0  0  0  0  0  0  0  0  0  0
    5.9021    9.3452    1.1973 C   0  0  0  0  0  0  0  0  0  0  0  0
    1.7274    4.3764   -0.0965 C   0  0  0  0  0  0  0  0  0  0  0  0
    3.1057    9.4955   -0.2337 C   0  0  0  0  0  0  0  0  0  0  0  0
    0.2963    1.1056   -0.1415 C   0  0  0  0  0  0  0  0  0  0  0  0
    4.5686   12.7287   -0.3040 C   0  0  0  0  0  0  0  0  0  0  0  0
   -2.5794    4.4777    1.0494 C   0  0  0  0  0  0  0  0  0  0  0  0
   -1.9334    2.0054    2.6194 C   0  0  0  0  0  0  0  0  0  0  0  0
    4.8700   10.9005    3.7008 C   0  0  0  0  0  0  0  0  0  0  0  0
    5.4878    8.2820    2.2157 C   0  0  0  0  0  0  0  0  0  0  0  0
   -0.3733   -0.1250   -0.1027 C   0  0  0  0  0  0  0  0  0  0  0  0
    5.2365   13.9539   -0.1905 C   0  0  0  0  0  0  0  0  0  0  0  0
    1.7090    1.0706   -0.1951 C   0  0  0  0  0  0  0  0  0  0  0  0
    3.1651   12.7738   -0.4861 C   0  0  0  0  0  0  0  0  0  0  0  0
    1.6705    6.8838   -0.1172 C   0  0  0  0  0  0  0  0  0  0  0  0
    3.1918    6.9977   -0.1198 C   0  0  0  0  0  0  0  0  0  0  0  0
    0.3449   -1.3168   -0.0350 C   0  0  0  0  0  0  0  0  0  0  0  0
    4.5223   15.1530   -0.2112 C   0  0  0  0  0  0  0  0  0  0  0  0
    2.4240   -0.1126   -0.0593 C   0  0  0  0  0  0  0  0  0  0  0  0
    2.4452   13.9606   -0.4140 C   0  0  0  0  0  0  0  0  0  0  0  0
    1.7369   -1.3101    0.0069 C   0  0  0  0  0  0  0  0  0  0  0  0
    3.1301   15.1551   -0.2973 C   0  0  0  0  0  0  0  0  0  0  0  0
  1 25  1  0
  2 26  1  0
  3 29  2  0
  4 30  2  0
  5  9  1  0
  5 11  1  0
  5 13  1  0
  5 14  1  0
  6 10  1  0
  6 12  1  0
  6 15  1  0
  6 16  1  0
  7 17  1  0
  7 29  1  0
  8 18  1  0
  8 30  1  0
  9 17  1  0
 10 18  1  0
 11 19  1  0
 12 20  1  0
 13 21  1  0
 14 22  1  0
 15 23  1  0
 16 24  1  0
 19 25  2  0
 19 27  1  0
 20 26  2  0
 20 28  1  0
 25 31  1  0
 26 32  1  0
 27 33  2  0
 28 34  2  0
 29 30  1  0
 31 35  2  0
 32 36  2  0
 33 35  1  0
 34 36  1  0
M  CHG  2   5   1   6   1
M  END
>  <DRUGBANK_ID>  (1) 
DB01122

>  <SECONDARY_ACCESSION_NUMBERS>  (1) 
APRD00771

>  <COMMON_NAME>  (1) 
Ambenonium

>  <CAS_NUMBER>  (1) 
7648-98-8

>  <UNII>  (1) 
L16PUN799N

>  <SYNONYMS>  (1) 
Ambenonium; Ambenonium base; Ambenonum

$$$$
