
     RDKit          3D

 26 27  0  0  0  0  0  0  0  0999 V2000
    0.6543   -0.1527    0.0024 N   0  0  0  0  0  0  0  0  0  0  0  0
    0.0328   -1.1909   -0.6535 C   0  0  0  0  0  0  0  0  0  0  0  0
   -1.3245   -1.1331   -0.5183 N   0  0  0  0  0  0  0  0  0  0  0  0
    0.8026   -2.0383   -1.2813 N   0  0  0  0  0  0  0  0  0  0  0  0
   -1.3480   -4.0224   -3.5585 C   0  0  0  0  0  0  0  0  0  0  0  0
   -0.7049   -2.9184   -3.0185 C   0  0  0  0  0  0  0  0  0  0  0  0
    0.2689   -3.1095   -2.0349 C   0  0  0  0  0  0  0  0  0  0  0  0
    0.6927   -4.4123   -1.7953 C   0  0  0  0  0  0  0  0  0  0  0  0
    0.0631   -5.4520   -2.4692 C   0  0  0  0  0  0  0  0  0  0  0  0
   -0.9725   -5.2909   -3.3198 N   0  0  0  0  0  0  0  0  0  0  0  0
   -2.2734   -2.1362   -0.8907 C   0  0  0  0  0  0  0  0  0  0  0  0
   -3.1003   -2.8383   -1.2553 N   0  0  0  0  0  0  0  0  0  0  0  0
    0.0405    0.9400    0.7319 C   0  0  0  0  0  0  0  0  0  0  0  0
    0.3779    0.8861    2.2193 C   0  0  0  0  0  0  0  0  0  0  0  0
    1.8254    1.1600    2.3913 C   0  0  0  0  0  0  0  0  0  0  0  0
    2.0565    2.4895    1.7234 C   0  0  0  0  0  0  0  0  0  0  0  0
    1.6427    3.7387    2.4865 C   0  0  0  0  0  0  0  0  0  0  0  0
    2.1805    3.7679    3.9198 C   0  0  0  0  0  0  0  0  0  0  0  0
    3.5992    4.0665    4.0855 O   0  0  0  0  0  0  0  0  0  0  0  0
    4.5534    3.2814    3.4932 C   0  0  0  0  0  0  0  0  0  0  0  0
    4.7145    3.1895    2.1195 C   0  0  0  0  0  0  0  0  0  0  0  0
    5.3150    2.0467    1.5549 C   0  0  0  0  0  0  0  0  0  0  0  0
    6.2368    1.3611    2.3022 C   0  0  0  0  0  0  0  0  0  0  0  0
    6.4335    1.7589    3.6194 C   0  0  0  0  0  0  0  0  0  0  0  0
    5.5386    2.6603    4.2390 C   0  0  0  0  0  0  0  0  0  0  0  0
    7.2060    0.1632    1.5477 Cl  0  0  0  0  0  0  0  0  0  0  0  0
  1  2  1  0
  1 13  1  0
  2  3  1  0
  2  4  2  0
  3 11  1  0
  4  7  1  0
  5  6  2  0
  5 10  1  0
  6  7  1  0
  7  8  2  0
  8  9  1  0
  9 10  2  0
 11 12  3  0
 13 14  1  0
 14 15  1  0
 15 16  1  0
 16 17  1  0
 17 18  1  0
 18 19  1  0
 19 20  1  0
 20 21  2  0
 20 25  1  0
 21 22  1  0
 22 23  2  0
 23 24  1  0
 23 26  1  0
 24 25  2  0
M  END
>  <DRUGBANK_ID>  (1) 
DB12980

>  <COMMON_NAME>  (1) 
CHS-828

>  <CAS_NUMBER>  (1) 
200484-11-3

>  <UNII>  (1) 
8LAP87DNSZ

$$$$
