MAX
     RDKit          3D

 26 28  0  0  0  0  0  0  0  0999 V2000
   -1.1190   -1.2017   -0.0350 C   0  0  0  0  0  0  0  0  0  0  0  0
    0.2973   -1.2343   -0.0019 C   0  0  0  0  0  0  0  0  0  0  0  0
    0.9981   -0.0194   -0.0054 C   0  0  0  0  0  0  0  0  0  0  0  0
    0.3091    1.1740   -0.0893 C   0  0  0  0  0  0  0  0  0  0  0  0
   -1.0622    1.1795   -0.2335 C   0  0  0  0  0  0  0  0  0  0  0  0
   -1.8183    0.0103   -0.1234 C   0  0  0  0  0  0  0  0  0  0  0  0
   -3.3314    0.0771   -0.0408 C   0  0  0  0  0  0  0  0  0  0  0  0
   -3.9173    0.8116    1.2054 C   0  0  1  0  0  0  0  0  0  0  0  0
   -3.4243    0.2196    2.5118 C   0  0  0  0  0  0  0  0  0  0  0  0
   -2.2788    0.9715    2.8975 O   0  0  0  0  0  0  0  0  0  0  0  0
   -2.2691    2.1694    2.2436 C   0  0  0  0  0  0  0  0  0  0  0  0
   -3.4540    2.2593    1.2949 C   0  0  2  0  0  0  0  0  0  0  0  0
   -1.4092    3.0139    2.4031 O   0  0  0  0  0  0  0  0  0  0  0  0
   -4.4740    3.2720    1.7823 C   0  0  0  0  0  0  0  0  0  0  0  0
   -3.8843    4.6674    1.7609 C   0  0  0  0  0  0  0  0  0  0  0  0
   -3.3715    5.2207    0.5818 C   0  0  0  0  0  0  0  0  0  0  0  0
   -2.7618    6.4692    0.6009 C   0  0  0  0  0  0  0  0  0  0  0  0
   -2.6711    7.2051    1.7817 C   0  0  0  0  0  0  0  0  0  0  0  0
   -3.1802    6.6800    2.9768 C   0  0  0  0  0  0  0  0  0  0  0  0
   -3.7710    5.4018    2.9480 C   0  0  0  0  0  0  0  0  0  0  0  0
   -3.2112    7.2188    4.2341 O   0  0  0  0  0  0  0  0  0  0  0  0
   -2.7029    8.5216    4.4204 C   0  0  0  0  0  0  0  0  0  0  0  0
   -2.0634    8.4096    1.5702 O   0  0  0  0  0  0  0  0  0  0  0  0
    2.3387    0.2168    0.0478 O   0  0  0  0  0  0  0  0  0  0  0  0
    0.7937   -2.5111    0.0490 O   0  0  0  0  0  0  0  0  0  0  0  0
    2.1995   -2.6701    0.0661 C   0  0  0  0  0  0  0  0  0  0  0  0
  1  2  2  0
  1  6  1  0
  2  3  1  0
  2 25  1  0
  3  4  2  0
  3 24  1  0
  4  5  1  0
  5  6  2  0
  6  7  1  0
  8  7  1  6
  8  9  1  0
  8 12  1  0
  9 10  1  0
 10 11  1  0
 11 12  1  0
 11 13  2  0
 12 14  1  1
 14 15  1  0
 15 16  2  0
 15 20  1  0
 16 17  1  0
 17 18  2  0
 18 19  1  0
 18 23  1  0
 19 20  2  0
 19 21  1  0
 21 22  1  0
 25 26  1  0
M  END
>  <DRUGBANK_ID>  (1) 
DB04200

>  <SECONDARY_ACCESSION_NUMBERS>  (1) 
EXPT02118

>  <COMMON_NAME>  (1) 
Matairesinol

>  <CAS_NUMBER>  (1) 
580-72-3

>  <UNII>  (1) 
XLW63P8WUA

>  <SYNONYMS>  (1) 
(âˆ’)-matairesinol; 3R,4R-Bis((4-hydroxy-3-methoxyphenyl)methyl)dihydro-2(3H)-furanone; Artigenin congener; Matairesinol

$$$$
