
     RDKit          3D

 41 45  0  0  1  0  0  0  0  0999 V2000
    1.0673    0.0585   -0.1442 C   0  0  0  0  0  0  0  0  0  0  0  0
    0.5870   -1.1123    0.6742 C   0  0  2  0  0  0  0  0  0  0  0  0
    1.5146   -1.3152    1.8585 C   0  0  0  0  0  0  0  0  0  0  0  0
    1.5773   -2.7489    1.9589 N   0  0  0  0  0  0  0  0  0  0  0  0
    2.2617   -3.3455    2.9554 C   0  0  0  0  0  0  0  0  0  0  0  0
    1.8924   -3.1104    4.2580 C   0  0  0  0  0  0  0  0  0  0  0  0
    2.2505   -4.1781    4.9566 C   0  0  0  0  0  0  0  0  0  0  0  0
    3.0032   -5.2556    4.5236 C   0  0  0  0  0  0  0  0  0  0  0  0
    3.5389   -5.3908    3.3194 C   0  0  0  0  0  0  0  0  0  0  0  0
    3.1718   -4.3684    2.5212 N   0  0  0  0  0  0  0  0  0  0  0  0
    4.4909   -6.5448    3.0990 N   0  0  0  0  0  0  0  0  0  0  0  0
    4.5795   -7.8202    3.6746 C   0  0  0  0  0  0  0  0  0  0  0  0
    5.7191   -8.4473    3.1511 C   0  0  0  0  0  0  0  0  0  0  0  0
    6.3360   -7.4895    2.3402 C   0  0  0  0  0  0  0  0  0  0  0  0
    7.5005   -7.5765    1.5955 O   0  0  0  0  0  0  0  0  0  0  0  0
    8.2129   -6.4025    1.0688 C   0  0  0  0  0  0  0  0  0  0  0  0
    7.4330   -5.4759    0.1242 C   0  0  0  0  0  0  0  0  0  0  0  0
    6.3231   -4.7603    0.8478 C   0  0  0  0  0  0  0  0  0  0  0  0
    4.9085   -5.2431    0.2616 C   0  0  0  0  0  0  0  0  0  0  0  0
    5.3296   -3.8376    0.1468 C   0  0  0  0  0  0  0  0  0  0  0  0
    6.7859   -4.3483    2.3472 C   0  0  0  0  0  0  0  0  0  0  0  0
    7.3846   -5.3108    3.1321 F   0  0  0  0  0  0  0  0  0  0  0  0
    7.7685   -3.4145    2.2326 F   0  0  0  0  0  0  0  0  0  0  0  0
    5.8234   -3.8273    3.1425 F   0  0  0  0  0  0  0  0  0  0  0  0
    5.5320   -6.4520    2.2720 N   0  0  0  0  0  0  0  0  0  0  0  0
    1.0081   -2.2051    5.0575 C   0  0  0  0  0  0  0  0  0  0  0  0
    0.1345   -1.4898    4.5157 O   0  0  0  0  0  0  0  0  0  0  0  0
    1.0512   -2.1463    6.5014 N   0  0  0  0  0  0  0  0  0  0  0  0
    1.7191   -2.8846    7.8970 S   0  0  0  0  0  0  0  0  0  0  0  0
    2.3450   -1.8110    8.6431 O   0  0  0  0  0  0  0  0  0  0  0  0
    0.6169   -3.6197    8.4860 O   0  0  0  0  0  0  0  0  0  0  0  0
    3.0776   -4.1613    7.6330 C   0  0  0  0  0  0  0  0  0  0  0  0
    4.3001   -3.7498    7.0615 C   0  0  0  0  0  0  0  0  0  0  0  0
    5.2115   -4.7051    6.5481 C   0  0  0  0  0  0  0  0  0  0  0  0
    4.9539   -6.0877    6.6627 C   0  0  0  0  0  0  0  0  0  0  0  0
    3.7100   -6.5235    7.1920 C   0  0  0  0  0  0  0  0  0  0  0  0
    2.7593   -5.5583    7.6370 C   0  0  0  0  0  0  0  0  0  0  0  0
    0.7019   -3.4876    1.0554 C   0  0  0  0  0  0  0  0  0  0  0  0
    1.2631   -4.8313    0.5868 C   0  0  0  0  0  0  0  0  0  0  0  0
   -0.6738   -3.7722    1.6807 C   0  0  0  0  0  0  0  0  0  0  0  0
    0.6400   -2.4572   -0.0734 C   0  0  0  0  0  0  0  0  0  0  0  0
  2  1  1  6
  2  3  1  0
  2 41  1  0
  3  4  1  0
  4  5  1  0
  4 38  1  0
  5  6  1  0
  5 10  2  0
  6  7  2  0
  6 26  1  0
  7  8  1  0
  8  9  2  0
  9 10  1  0
  9 11  1  0
 11 12  1  0
 11 25  1  0
 12 13  2  0
 13 14  1  0
 14 15  1  0
 14 25  2  0
 15 16  1  0
 16 17  1  0
 17 18  1  0
 18 19  1  0
 18 20  1  0
 18 21  1  0
 19 20  1  0
 21 22  1  0
 21 23  1  0
 21 24  1  0
 26 27  2  0
 26 28  1  0
 28 29  1  0
 29 30  2  0
 29 31  2  0
 29 32  1  0
 32 33  2  0
 32 37  1  0
 33 34  1  0
 34 35  2  0
 35 36  1  0
 36 37  2  0
 38 39  1  0
 38 40  1  0
 38 41  1  0
M  END
>  <DRUGBANK_ID>  (1) 
DB15177

>  <COMMON_NAME>  (1) 
Bamocaftor

>  <CAS_NUMBER>  (1) 
2204245-48-5

>  <UNII>  (1) 
8C7XEW3K7S

>  <SYNONYMS>  (1) 
3-Pyridinecarboxamide, N-(phenylsulfonyl)-6-(3-(2-(1-(trifluoromethyl)cyclopropyl)ethoxy)-1H-pyrazol-1-yl)-2-((4S)-2,2,4-trimethyl-1-pyrrolidinyl)-; N-(benzenesulfonyl)-6-[3-[2-[1-(trifluoromethyl)cyclopropyl]ethoxy]pyrazol-1-yl]-2-[(4S)-2,2,4-trimethylpyrrolidin-1-yl]pyridine-3-carboxamide

$$$$
