A96
     RDKit          3D

 30 33  0  0  0  0  0  0  0  0999 V2000
    1.2456    0.5168    0.0162 N   0  0  0  0  0  0  0  0  0  0  0  0
    1.0606   -0.8277    0.0051 C   0  0  0  0  0  0  0  0  0  0  0  0
   -0.1796   -1.4487   -0.0200 C   0  0  0  0  0  0  0  0  0  0  0  0
   -1.2406   -0.5604   -0.0246 C   0  0  0  0  0  0  0  0  0  0  0  0
   -1.1211    0.7872   -0.0094 N   0  0  0  0  0  0  0  0  0  0  0  0
    0.1281    1.2599    0.0076 C   0  0  0  0  0  0  0  0  0  0  0  0
   -0.3154   -2.8656   -0.0344 N   0  0  0  0  0  0  0  0  0  0  0  0
   -1.5294   -3.5463   -0.0393 C   0  0  0  0  0  0  0  0  0  0  0  0
   -1.5090   -5.0207    0.0094 C   0  0  0  0  0  0  0  0  0  0  0  0
   -2.6434   -3.0210   -0.0661 O   0  0  0  0  0  0  0  0  0  0  0  0
   -2.3993   -5.7772   -0.7789 C   0  0  0  0  0  0  0  0  0  0  0  0
   -2.4989   -7.1637   -0.7502 C   0  0  0  0  0  0  0  0  0  0  0  0
   -1.6764   -7.8714    0.1415 C   0  0  0  0  0  0  0  0  0  0  0  0
   -0.7988   -7.1506    0.9639 C   0  0  0  0  0  0  0  0  0  0  0  0
   -0.7185   -5.7535    0.9061 C   0  0  0  0  0  0  0  0  0  0  0  0
   -3.2911   -5.3092   -1.6962 O   0  0  0  0  0  0  0  0  0  0  0  0
   -3.9600   -6.3639   -2.2867 N   0  0  0  0  0  0  0  0  0  0  0  0
   -3.4897   -7.4881   -1.7284 C   0  0  0  0  0  0  0  0  0  0  0  0
    0.3587   -4.9955    2.0289 Cl  0  0  0  0  0  0  0  0  0  0  0  0
   -3.8829   -8.7686   -2.0140 N   0  0  0  0  0  0  0  0  0  0  0  0
   -4.8530   -9.1266   -2.9782 C   0  0  0  0  0  0  0  0  0  0  0  0
   -4.6841   -8.7494   -4.3155 C   0  0  0  0  0  0  0  0  0  0  0  0
   -5.6979   -8.9399   -5.2517 C   0  0  0  0  0  0  0  0  0  0  0  0
   -6.9417   -9.3968   -4.8315 C   0  0  0  0  0  0  0  0  0  0  0  0
   -7.1353   -9.7968   -3.5006 C   0  0  0  0  0  0  0  0  0  0  0  0
   -6.0518   -9.7461   -2.6010 C   0  0  0  0  0  0  0  0  0  0  0  0
   -8.5222  -10.1807   -3.0475 C   0  0  0  0  0  0  0  0  0  0  0  0
   -9.4123   -9.1567   -3.1840 F   0  0  0  0  0  0  0  0  0  0  0  0
   -9.0393  -11.2176   -3.7625 F   0  0  0  0  0  0  0  0  0  0  0  0
   -8.5876  -10.5562   -1.7401 F   0  0  0  0  0  0  0  0  0  0  0  0
  1  2  2  0
  1  6  1  0
  2  3  1  0
  3  4  2  0
  3  7  1  0
  4  5  1  0
  5  6  2  0
  7  8  1  0
  8  9  1  0
  8 10  2  0
  9 11  2  0
  9 15  1  0
 11 12  1  0
 11 16  1  0
 12 13  2  0
 12 18  1  0
 13 14  1  0
 14 15  2  0
 15 19  1  0
 16 17  1  0
 17 18  2  0
 18 20  1  0
 20 21  1  0
 21 22  2  0
 21 26  1  0
 22 23  1  0
 23 24  2  0
 24 25  1  0
 25 26  2  0
 25 27  1  0
 27 28  1  0
 27 29  1  0
 27 30  1  0
M  END
>  <DRUGBANK_ID>  (1) 
DB07326

>  <COMMON_NAME>  (1) 
6-chloro-N-pyrimidin-5-yl-3-{[3-(trifluoromethyl)phenyl]amino}-1,2-benzisoxazole-7-carboxamide

$$$$
