IZD
     RDKit          3D

 34 36  0  0  0  0  0  0  0  0999 V2000
   -0.7550   -1.0362   -0.1773 C   0  0  2  0  0  0  0  0  0  0  0  0
    0.7622   -1.0098    0.0399 C   0  0  0  0  0  0  0  0  0  0  0  0
    1.1765    0.4372   -0.0340 C   0  0  0  0  0  0  0  0  0  0  0  0
    0.0838    1.2822   -0.2403 N   0  0  0  0  0  0  0  0  0  0  0  0
   -1.3528    0.5989    0.2625 S   0  0  0  0  0  0  0  0  0  0  0  0
   -2.4102    1.0152   -0.6394 O   0  0  0  0  0  0  0  0  0  0  0  0
   -1.4152    0.8316    1.6791 O   0  0  0  0  0  0  0  0  0  0  0  0
    2.3257    0.8394    0.0547 O   0  0  0  0  0  0  0  0  0  0  0  0
   -1.3899   -2.0859    0.6721 C   0  0  0  0  0  0  0  0  0  0  0  0
   -1.3184   -1.9882    2.0715 C   0  0  0  0  0  0  0  0  0  0  0  0
   -1.8723   -2.9416    2.8951 C   0  0  0  0  0  0  0  0  0  0  0  0
   -2.3771   -4.0972    2.3228 C   0  0  0  0  0  0  0  0  0  0  0  0
   -2.3071   -4.2670    0.9301 C   0  0  0  0  0  0  0  0  0  0  0  0
   -1.9116   -3.2359    0.0941 C   0  0  0  0  0  0  0  0  0  0  0  0
   -2.9580   -5.1706    3.1940 C   0  0  0  0  0  0  0  0  0  0  0  0
   -4.4871   -5.3373    3.1132 C   0  0  1  0  0  0  0  0  0  0  0  0
   -4.9768   -5.7453    1.6938 C   0  0  0  0  0  0  0  0  0  0  0  0
   -5.2053   -6.9086    1.3677 O   0  0  0  0  0  0  0  0  0  0  0  0
   -5.0529   -4.7592    0.7411 N   0  0  0  0  0  0  0  0  0  0  0  0
   -4.8782   -6.3658    4.0992 N   0  0  0  0  0  0  0  0  0  0  0  0
   -5.7804   -6.0910    5.1091 C   0  0  0  0  0  0  0  0  0  0  0  0
   -6.2182   -7.2887    5.9997 C   0  0  1  0  0  0  0  0  0  0  0  0
   -6.2151   -4.9554    5.2953 O   0  0  0  0  0  0  0  0  0  0  0  0
   -6.0167   -7.0065    7.4411 N   0  0  0  0  0  0  0  0  0  0  0  0
   -7.6785   -7.5765    5.7079 C   0  0  0  0  0  0  0  0  0  0  0  0
   -8.0405   -7.9184    4.3230 C   0  0  0  0  0  0  0  0  0  0  0  0
   -8.8800   -7.0547    3.6143 C   0  0  0  0  0  0  0  0  0  0  0  0
   -9.0935   -7.2924    2.2753 C   0  0  0  0  0  0  0  0  0  0  0  0
   -8.4665   -8.3831    1.6725 C   0  0  0  0  0  0  0  0  0  0  0  0
   -7.6597   -9.2573    2.4068 C   0  0  0  0  0  0  0  0  0  0  0  0
   -7.5006   -9.0655    3.7596 C   0  0  0  0  0  0  0  0  0  0  0  0
   -6.8939   -6.8480    8.4837 C   0  0  0  0  0  0  0  0  0  0  0  0
   -6.4335   -6.5541    9.5888 O   0  0  0  0  0  0  0  0  0  0  0  0
   -8.3876   -7.0640    8.3370 C   0  0  0  0  0  0  0  0  0  0  0  0
  1  2  1  0
  1  5  1  0
  1  9  1  1
  2  3  1  0
  3  4  1  0
  3  8  2  0
  4  5  1  0
  5  6  2  0
  5  7  2  0
  9 10  2  0
  9 14  1  0
 10 11  1  0
 11 12  2  0
 12 13  1  0
 12 15  1  0
 13 14  2  0
 16 15  1  6
 16 17  1  0
 16 20  1  0
 17 18  2  0
 17 19  1  0
 20 21  1  0
 21 22  1  0
 21 23  2  0
 22 24  1  0
 22 25  1  1
 24 32  1  0
 25 26  1  0
 26 27  2  0
 26 31  1  0
 27 28  1  0
 28 29  2  0
 29 30  1  0
 30 31  2  0
 32 33  2  0
 32 34  1  0
M  END
>  <DRUGBANK_ID>  (1) 
DB08003

>  <COMMON_NAME>  (1) 
ISOTHIAZOLIDINONE ANALOG

$$$$
