U32
     RDKit          3D

 19 20  0  0  0  0  0  0  0  0999 V2000
    0.9709   -0.0723   -0.1097 O   0  0  0  0  0  0  0  0  0  0  0  0
    3.0777   -0.7760    1.0985 O   0  0  0  0  0  0  0  0  0  0  0  0
    7.9201    5.9649    0.0208 C   0  0  0  0  0  0  0  0  0  0  0  0
    7.9893    6.4449    1.3108 C   0  0  0  0  0  0  0  0  0  0  0  0
    9.2318    6.8790    2.0474 C   0  0  0  0  0  0  0  0  0  0  0  0
    9.1740    8.3521    2.4397 C   0  0  0  0  0  0  0  0  0  0  0  0
    9.5296    5.9999    3.2598 C   0  0  0  0  0  0  0  0  0  0  0  0
    6.3908    6.5148    1.9560 S   0  0  0  0  0  0  0  0  0  0  0  0
    5.7588    5.8522    0.4857 C   0  0  0  0  0  0  0  0  0  0  0  0
    6.6725    5.6153   -0.4283 N   0  0  0  0  0  0  0  0  0  0  0  0
    3.0223   -0.7193   -1.4023 N   0  0  0  0  0  0  0  0  0  0  0  0
    4.3698    1.8293    0.0476 C   0  0  0  0  0  0  0  0  0  0  0  0
    2.9971    1.5970    0.0047 C   0  0  0  0  0  0  0  0  0  0  0  0
    4.4417    5.5694    0.3009 N   0  0  0  0  0  0  0  0  0  0  0  0
    2.1052    2.6715   -0.0145 C   0  0  0  0  0  0  0  0  0  0  0  0
    2.5936    3.9876    0.0377 C   0  0  0  0  0  0  0  0  0  0  0  0
    3.9695    4.2410    0.1467 C   0  0  0  0  0  0  0  0  0  0  0  0
    4.8428    3.1426    0.0630 C   0  0  0  0  0  0  0  0  0  0  0  0
    2.4129   -0.0746    0.0310 S   0  0  0  0  0  0  0  0  0  0  0  0
  1 19  2  0
  2 19  2  0
  3  4  2  0
  3 10  1  0
  4  5  1  0
  4  8  1  0
  5  6  1  0
  5  7  1  0
  8  9  1  0
  9 10  2  0
  9 14  1  0
 11 19  1  0
 12 13  2  0
 12 18  1  0
 13 15  1  0
 13 19  1  0
 14 17  1  0
 15 16  2  0
 16 17  1  0
 17 18  2  0
M  END
>  <DRUGBANK_ID>  (1) 
DB08673

>  <COMMON_NAME>  (1) 
4-[(5-ISOPROPYL-1,3-THIAZOL-2-YL)AMINO]BENZENESULFONAMIDE

$$$$
