
     RDKit          3D

 19 19  0  0  0  0  0  0  0  0999 V2000
    0.4594   -0.0501   -0.2411 C   0  0  0  0  0  0  0  0  0  0  0  0
    0.1789    1.1026    0.5642 O   0  0  0  0  0  0  0  0  0  0  0  0
    0.5186    1.2067    1.9536 C   0  0  0  0  0  0  0  0  0  0  0  0
    0.3751    0.0022    2.8339 C   0  0  0  0  0  0  0  0  0  0  0  0
    1.2178   -1.1900    2.3868 C   0  0  0  0  0  0  0  0  0  0  0  0
    2.7689   -1.1122    2.2726 C   0  0  0  0  0  0  0  0  0  0  0  0
    3.4046   -1.9996    2.8262 O   0  0  0  0  0  0  0  0  0  0  0  0
    3.5355   -0.2202    1.5605 N   0  0  0  0  0  0  0  0  0  0  0  0
    3.3050    0.9178    0.6750 C   0  0  0  0  0  0  0  0  0  0  0  0
    3.4488    2.3171    1.2180 C   0  0  0  0  0  0  0  0  0  0  0  0
    3.0354    3.3881    0.3953 C   0  0  0  0  0  0  0  0  0  0  0  0
    2.9389    4.6770    0.9092 C   0  0  0  0  0  0  0  0  0  0  0  0
    3.1896    4.8981    2.2675 C   0  0  0  0  0  0  0  0  0  0  0  0
    3.4113    3.8090    3.1197 C   0  0  0  0  0  0  0  0  0  0  0  0
    3.6042    2.5404    2.5917 C   0  0  0  0  0  0  0  0  0  0  0  0
    3.3514    6.2856    2.8164 C   0  0  0  0  0  0  0  0  0  0  0  0
    2.4627    6.5857    3.7990 F   0  0  0  0  0  0  0  0  0  0  0  0
    4.5897    6.4463    3.3648 F   0  0  0  0  0  0  0  0  0  0  0  0
    3.2344    7.2612    1.8756 F   0  0  0  0  0  0  0  0  0  0  0  0
  1  2  1  0
  2  3  1  0
  3  4  1  0
  4  5  1  0
  5  6  1  0
  6  7  2  0
  6  8  1  0
  8  9  1  0
  9 10  1  0
 10 11  2  0
 10 15  1  0
 11 12  1  0
 12 13  2  0
 13 14  1  0
 13 16  1  0
 14 15  2  0
 16 17  1  0
 16 18  1  0
 16 19  1  0
M  END
>  <DRUGBANK_ID>  (1) 
DB12928

>  <COMMON_NAME>  (1) 
GET-73

>  <CAS_NUMBER>  (1) 
202402-01-5

>  <UNII>  (1) 
U5CLZ223FH

$$$$
