
     RDKit          3D

 15 15  0  0  0  0  0  0  0  0999 V2000
    1.4137   -0.2085   -0.0138 C   0  0  0  0  0  0  0  0  0  0  0  0
    0.5364   -1.2946    0.0129 C   0  0  0  0  0  0  0  0  0  0  0  0
   -0.4628    1.3077   -0.0622 C   0  0  0  0  0  0  0  0  0  0  0  0
    0.9146    1.0993   -0.0843 C   0  0  0  0  0  0  0  0  0  0  0  0
   -1.3137    0.2294   -0.1805 C   0  0  0  0  0  0  0  0  0  0  0  0
   -0.8420   -1.0805   -0.0620 C   0  0  0  0  0  0  0  0  0  0  0  0
    1.8191    2.2867   -0.3270 C   0  0  1  0  0  0  0  0  0  0  0  0
    1.4439    2.9876   -1.6323 C   0  0  0  0  0  0  0  0  0  0  0  0
    1.0791    4.1511   -1.7608 O   0  0  0  0  0  0  0  0  0  0  0  0
    1.5326    2.1916   -2.7190 O   0  0  0  0  0  0  0  0  0  0  0  0
    1.7393    3.2620    0.8455 C   0  0  0  0  0  0  0  0  0  0  0  0
   -1.8207   -2.2213    0.0425 C   0  0  0  0  0  0  0  0  0  0  0  0
   -3.5877   -0.9045    1.3968 C   0  0  0  0  0  0  0  0  0  0  0  0
   -2.6973   -2.1498    1.3180 C   0  0  0  0  0  0  0  0  0  0  0  0
   -3.6072   -3.3731    1.3780 C   0  0  0  0  0  0  0  0  0  0  0  0
  1  4  2  0
  2  1  1  0
  2  6  2  0
  4  3  1  0
  5  3  2  0
  6  5  1  0
  7  4  1  0
  7  8  1  0
  7 11  1  1
  9  8  2  0
 10  8  1  0
 12  6  1  0
 12 14  1  0
 14 13  1  0
 14 15  1  0
M  END
>  <DRUGBANK_ID>  (1) 
DB09213

>  <COMMON_NAME>  (1) 
Dexibuprofen

>  <CAS_NUMBER>  (1) 
51146-56-6

>  <UNII>  (1) 
671DKG7P5S

>  <SYNONYMS>  (1) 
(+)-(S)-p-isobutylhydratropic acid; (2S)-2-(4-isobutylphenyl)propanoic acid; (S)-Î±-methyl-4-(2-methylpropyl)benzeneacetic acid; d-ibuproten; Dexibuprofen; Dexibuprofeno

$$$$
