
     RDKit          3D

 15 16  0  0  0  0  0  0  0  0999 V2000
    1.1215   -0.1590    0.1022 N   0  0  0  0  0  0  0  0  0  0  0  0
    0.6462    0.9052   -0.7279 N   0  0  0  0  0  0  0  0  0  0  0  0
   -0.8251    0.9032   -0.7585 C   0  0  0  0  0  0  0  0  0  0  0  0
   -1.4496    1.2097    0.6450 C   0  0  0  0  0  0  0  0  0  0  0  0
   -1.0854    2.5504    1.3304 C   0  0  0  0  0  0  0  0  0  0  0  0
   -1.6234    3.8067    0.6748 C   0  0  0  0  0  0  0  0  0  0  0  0
   -1.0529    5.0636    0.9719 C   0  0  0  0  0  0  0  0  0  0  0  0
   -1.2903    6.1667    0.1380 C   0  0  0  0  0  0  0  0  0  0  0  0
   -2.0138    5.9694   -1.0140 C   0  0  0  0  0  0  0  0  0  0  0  0
   -2.6387    4.7696   -1.2467 C   0  0  0  0  0  0  0  0  0  0  0  0
   -2.5861    3.7482   -0.3336 C   0  0  0  0  0  0  0  0  0  0  0  0
   -3.1894    4.6923   -2.4875 O   0  0  0  0  0  0  0  0  0  0  0  0
   -3.0199    6.0507   -2.9311 C   0  0  0  0  0  0  0  0  0  0  0  0
   -2.2068    6.8444   -2.0354 O   0  0  0  0  0  0  0  0  0  0  0  0
   -1.1677    1.8496   -1.9089 C   0  0  0  0  0  0  0  0  0  0  0  0
  1  2  1  0
  2  3  1  0
  3  4  1  0
  3 15  1  0
  4  5  1  0
  5  6  1  0
  6  7  2  0
  6 11  1  0
  7  8  1  0
  8  9  2  0
  9 10  1  0
  9 14  1  0
 10 11  2  0
 10 12  1  0
 12 13  1  0
 13 14  1  0
M  END
>  <DRUGBANK_ID>  (1) 
DB09253

>  <COMMON_NAME>  (1) 
Safrazine

>  <CAS_NUMBER>  (1) 
33419-68-0

>  <UNII>  (1) 
F5G0P5378C

>  <SYNONYMS>  (1) 
Safra

$$$$
