IP6
     RDKit          3D

 24 27  0  0  0  0  0  0  0  0999 V2000
    2.2900   -0.1305    0.1952 N   0  0  0  0  0  0  0  0  0  0  0  0
    0.9002   -0.1037    0.0396 C   0  0  0  0  0  0  0  0  0  0  0  0
    0.3525    1.1322    0.0043 N   0  0  0  0  0  0  0  0  0  0  0  0
   -0.9965    1.2181   -0.0079 C   0  0  0  0  0  0  0  0  0  0  0  0
   -1.8343    0.1256   -0.0407 C   0  0  0  0  0  0  0  0  0  0  0  0
   -1.2548   -1.1339   -0.0143 C   0  0  0  0  0  0  0  0  0  0  0  0
    0.1327   -1.2942    0.0734 C   0  0  0  0  0  0  0  0  0  0  0  0
    0.7230   -2.5471    0.1562 N   0  0  0  0  0  0  0  0  0  0  0  0
    0.0035   -3.8066    0.2014 C   0  0  0  0  0  0  0  0  0  0  0  0
    0.3065   -4.6830   -0.9919 C   0  0  0  0  0  0  0  0  0  0  0  0
   -0.1421   -6.0075   -0.9862 C   0  0  0  0  0  0  0  0  0  0  0  0
    0.1774   -6.8594   -2.0433 C   0  0  0  0  0  0  0  0  0  0  0  0
    0.9095   -6.3867   -3.1429 C   0  0  0  0  0  0  0  0  0  0  0  0
    1.3784   -5.0654   -3.1849 C   0  0  0  0  0  0  0  0  0  0  0  0
    1.0281   -4.2244   -2.1075 C   0  0  0  0  0  0  0  0  0  0  0  0
    2.4298   -4.6316   -4.1349 C   0  0  0  0  0  0  0  0  0  0  0  0
    2.3305   -4.6256   -5.5411 C   0  0  0  0  0  0  0  0  0  0  0  0
    3.4929   -4.4456   -6.3573 C   0  0  0  0  0  0  0  0  0  0  0  0
    4.7446   -4.2647   -5.7241 C   0  0  0  0  0  0  0  0  0  0  0  0
    6.1695   -4.0322   -5.9448 C   0  0  0  0  0  0  0  0  0  0  0  0
    6.1134   -2.6461   -5.7516 C   0  0  0  0  0  0  0  0  0  0  0  0
    5.5922   -2.7214   -4.4270 N   0  0  0  0  0  0  0  0  0  0  0  0
    4.6047   -3.7098   -4.4504 C   0  0  0  0  0  0  0  0  0  0  0  0
    3.6206   -4.1261   -3.5833 C   0  0  0  0  0  0  0  0  0  0  0  0
  1  2  1  0
  2  3  2  0
  2  7  1  0
  3  4  1  0
  4  5  2  0
  5  6  1  0
  6  7  2  0
  7  8  1  0
  8  9  1  0
  9 10  1  0
 10 15  1  0
 10 11  2  0
 11 12  1  0
 12 13  2  0
 13 14  1  0
 14 16  1  0
 14 15  2  0
 16 24  1  0
 16 17  2  0
 17 18  1  0
 18 19  2  0
 19 20  1  0
 19 23  1  0
 20 21  2  0
 21 22  1  0
 22 23  1  0
 23 24  2  0
M  END
>  <DRUGBANK_ID>  (1) 
DB07993

>  <COMMON_NAME>  (1) 
N~3~-[3-(1H-INDOL-6-YL)BENZYL]PYRIDINE-2,3-DIAMINE

$$$$
