
     RDKit          3D

 29 32  0  0  0  0  0  0  0  0999 V2000
    2.4974   -0.1087   -0.1441 C   0  0  0  0  0  0  0  0  0  0  0  0
    1.1076   -0.1175   -0.6148 N   0  0  0  0  0  0  0  0  0  0  0  0
    0.4155   -1.2563    0.0291 C   0  0  0  0  0  0  0  0  0  0  0  0
   -1.1017   -1.2255   -0.2230 C   0  0  0  0  0  0  0  0  0  0  0  0
   -1.7805    0.0023    0.2345 N   0  0  0  0  0  0  0  0  0  0  0  0
   -1.0821    1.1899   -0.2887 C   0  0  0  0  0  0  0  0  0  0  0  0
    0.4631    1.1406   -0.1895 C   0  0  0  0  0  0  0  0  0  0  0  0
   -2.0817    0.0495    1.6809 C   0  0  0  0  0  0  0  0  0  0  0  0
   -0.8734    0.1711    2.5752 C   0  0  0  0  0  0  0  0  0  0  0  0
   -0.0609    1.2812    2.7871 C   0  0  0  0  0  0  0  0  0  0  0  0
    1.1407    0.8313    3.3096 N   0  0  0  0  0  0  0  0  0  0  0  0
    0.9427   -0.4237    3.8366 C   0  0  0  0  0  0  0  0  0  0  0  0
   -0.3150   -0.8658    3.3869 C   0  0  0  0  0  0  0  0  0  0  0  0
   -0.7620   -2.1596    3.7473 C   0  0  0  0  0  0  0  0  0  0  0  0
    0.0009   -2.9425    4.6160 C   0  0  0  0  0  0  0  0  0  0  0  0
    1.2192   -2.4704    5.0661 C   0  0  0  0  0  0  0  0  0  0  0  0
    1.6825   -1.2234    4.6947 C   0  0  0  0  0  0  0  0  0  0  0  0
   -0.5452   -4.1338    5.0092 O   0  0  0  0  0  0  0  0  0  0  0  0
    0.2347   -4.8587    5.9593 C   0  0  0  0  0  0  0  0  0  0  0  0
    2.5818    1.8009    3.2695 S   0  0  0  0  0  0  0  0  0  0  0  0
    3.1399    1.7156    1.9261 O   0  0  0  0  0  0  0  0  0  0  0  0
    2.0926    3.0744    3.7320 O   0  0  0  0  0  0  0  0  0  0  0  0
    3.8289    1.1232    4.3454 C   0  0  0  0  0  0  0  0  0  0  0  0
    4.3994   -0.1421    4.0391 C   0  0  0  0  0  0  0  0  0  0  0  0
    5.1436   -0.8318    5.0120 C   0  0  0  0  0  0  0  0  0  0  0  0
    5.5022   -0.1856    6.1868 C   0  0  0  0  0  0  0  0  0  0  0  0
    5.1324    1.1427    6.3769 C   0  0  0  0  0  0  0  0  0  0  0  0
    4.2492    1.7854    5.4993 C   0  0  0  0  0  0  0  0  0  0  0  0
    3.7077    3.5092    6.0753 Br  0  0  0  0  0  0  0  0  0  0  0  0
  1  2  1  0
  2  3  1  0
  2  7  1  0
  3  4  1  0
  4  5  1  0
  5  6  1  0
  5  8  1  0
  6  7  1  0
  8  9  1  0
  9 10  2  0
  9 13  1  0
 10 11  1  0
 11 12  1  0
 11 20  1  0
 12 13  2  0
 12 17  1  0
 13 14  1  0
 14 15  2  0
 15 16  1  0
 15 18  1  0
 16 17  2  0
 18 19  1  0
 20 21  2  0
 20 22  2  0
 20 23  1  0
 23 24  2  0
 23 28  1  0
 24 25  1  0
 25 26  2  0
 26 27  1  0
 27 28  2  0
 28 29  1  0
M  END
>  <DRUGBANK_ID>  (1) 
DB06140

>  <COMMON_NAME>  (1) 
SUVN-502

>  <CAS_NUMBER>  (1) 
701205-60-9

>  <UNII>  (1) 
8XZ281AO3G

$$$$
