
     RDKit          3D

 16 18  0  0  0  0  0  0  0  0999 V2000
    1.3440   -0.2250    0.0360 C   0  0  0  0  0  0  0  0  0  0  0  0
    0.5020   -1.2510   -0.0040 C   0  0  0  0  0  0  0  0  0  0  0  0
    0.8920    1.0800   -0.0700 C   0  0  0  0  0  0  0  0  0  0  0  0
   -8.3193    0.6807   -1.0969 C   0  0  0  0  0  0  0  0  0  0  0  0
   -7.3217    1.5345   -0.8992 C   0  0  0  0  0  0  0  0  0  0  0  0
   -0.8560   -1.0420    0.0030 C   0  0  0  0  0  0  0  0  0  0  0  0
   -0.5090    1.2150    0.0750 C   0  0  0  0  0  0  0  0  0  0  0  0
   -8.0957   -0.6851   -1.1530 C   0  0  0  0  0  0  0  0  0  0  0  0
   -6.0623    1.0795   -0.5913 C   0  0  0  0  0  0  0  0  0  0  0  0
   -1.3730    0.2230   -0.0410 C   0  0  0  0  0  0  0  0  0  0  0  0
   -6.8140   -1.0753   -0.6978 C   0  0  0  0  0  0  0  0  0  0  0  0
   -5.7838   -0.2590   -0.5705 C   0  0  0  0  0  0  0  0  0  0  0  0
   -3.2994    1.7703   -0.2482 C   0  0  0  0  0  0  0  0  0  0  0  0
   -2.8131    0.4658   -0.2084 N   0  0  0  0  0  0  0  0  0  0  0  0
   -2.4981    2.7508   -0.1398 O   0  0  0  0  0  0  0  0  0  0  0  0
   -3.9542   -0.9304   -0.3628 Se  0  0  0  0  0  2  0  0  0  0  0  0
  2  1  2  0
  3  1  1  0
  5  4  2  0
  6  2  1  0
  7  3  2  0
  8  4  1  0
  9  5  1  0
 10  6  2  0
 10  7  1  0
 11  8  2  0
 12  9  2  0
 12 11  1  0
 13 11  1  0
 14 10  1  0
 14 13  1  0
 15 13  2  0
 16 12  1  0
 16 14  1  0
M  END
>  <DRUGBANK_ID>  (1) 
DB12610

>  <SECONDARY_ACCESSION_NUMBERS>  (1) 
DB05994

>  <COMMON_NAME>  (1) 
Ebselen

>  <CAS_NUMBER>  (1) 
60940-34-3

>  <UNII>  (1) 
40X2P7DPGH

>  <SYNONYMS>  (1) 
Ebselen; ebseleno

$$$$
