1467
     RDKit          3D

 16 16  0  0  1  0  0  0  0  0999 V2000
    0.8702   -0.0542   -0.0059 O   0  0  0  0  0  0  0  0  0  0  0  0
   -1.7306    1.1770    4.7430 O   0  0  0  0  0  0  0  0  0  0  0  0
    0.8737    4.3510    2.6729 N   0  0  0  0  0  0  0  0  0  0  0  0
    1.7946    2.1955    1.7807 C   0  0  0  0  0  0  0  0  0  0  0  0
    0.6662    1.2418    2.0529 C   0  0  0  0  0  0  0  0  0  0  0  0
    1.4631    3.6704    1.5235 C   0  0  0  0  0  0  0  0  0  0  0  0
   -1.5984   -0.3742    2.7590 C   0  0  0  0  0  0  0  0  0  0  0  0
    0.3050    0.1880    1.2270 C   0  0  0  0  0  0  0  0  0  0  0  0
   -0.0592    1.4297    3.2431 C   0  0  0  0  0  0  0  0  0  0  0  0
   -1.1799    0.6647    3.5947 C   0  0  0  0  0  0  0  0  0  0  0  0
   -0.8272   -0.5934    1.5698 C   0  0  0  0  0  0  0  0  0  0  0  0
   -2.8713   -1.2045    2.9245 C   0  0  0  0  0  0  0  0  0  0  0  0
    2.7679    4.3672    1.1263 C   0  0  0  0  0  0  0  0  0  0  0  0
   -2.9321   -2.2475    4.0501 C   0  0  0  0  0  0  0  0  0  0  0  0
    2.2760   -0.3245   -0.0499 C   0  0  0  0  0  0  0  0  0  0  0  0
   -2.4395    0.2739    5.5489 C   0  0  0  0  0  0  0  0  0  0  0  0
  1  8  1  0
  1 15  1  0
  2 10  1  0
  2 16  1  0
  3  6  1  0
  4  5  1  0
  4  6  1  0
  5  8  2  0
  5  9  1  0
  6 13  1  0
  7 10  1  0
  7 11  2  0
  7 12  1  0
  8 11  1  0
  9 10  2  0
 12 14  1  0
M  END
>  <DRUGBANK_ID>  (1) 
DB01467

>  <COMMON_NAME>  (1) 
2,5-Dimethoxy-4-ethylamphetamine

>  <CAS_NUMBER>  (1) 
22004-32-6

>  <UNII>  (1) 
9SK6K682UL

$$$$
