
     RDKit          3D

 27 28  0  0  0  0  0  0  0  0999 V2000
    1.0558   -0.0417    0.0258 C   0  0  0  0  0  0  0  0  0  0  0  0
    0.6662    1.3757   -0.3920 C   0  0  0  0  0  0  0  0  0  0  0  0
    1.1531    1.7967   -1.6962 O   0  0  0  0  0  0  0  0  0  0  0  0
    2.5033    1.7867   -1.9075 C   0  0  0  0  0  0  0  0  0  0  0  0
    3.3237    1.4635   -1.0521 O   0  0  0  0  0  0  0  0  0  0  0  0
    2.8544    2.0583   -3.2172 N   0  0  0  0  0  0  0  0  0  0  0  0
    2.3025    3.1667   -3.9987 C   0  0  0  0  0  0  0  0  0  0  0  0
    1.9427    2.7028   -5.4214 C   0  0  0  0  0  0  0  0  0  0  0  0
    3.0708    2.0254   -6.0486 N   0  0  0  0  0  0  0  0  0  0  0  0
    3.6661    0.9344   -5.2604 C   0  0  0  0  0  0  0  0  0  0  0  0
    4.0287    1.4230   -3.8320 C   0  0  0  0  0  0  0  0  0  0  0  0
    3.5736    2.4148   -7.3115 N   0  0  0  0  0  0  0  0  0  0  0  0
    4.5760    1.7641   -7.7513 O   0  0  0  0  0  0  0  0  0  0  0  0
    3.0155    3.4089   -7.9186 N   0  0  0  0  0  0  0  0  0  0  0  0
    3.6735    3.6406   -9.1508 O   0  0  0  0  0  0  0  0  0  0  0  0
    3.0364    4.6206   -9.8932 C   0  0  0  0  0  0  0  0  0  0  0  0
    2.7686    5.8873   -9.3460 C   0  0  0  0  0  0  0  0  0  0  0  0
    2.2298    6.9221  -10.1387 C   0  0  0  0  0  0  0  0  0  0  0  0
    1.9929    6.7105  -11.5035 C   0  0  0  0  0  0  0  0  0  0  0  0
    2.3178    5.4810  -12.0835 C   0  0  0  0  0  0  0  0  0  0  0  0
    2.7823    4.4241  -11.2655 C   0  0  0  0  0  0  0  0  0  0  0  0
    2.8613    3.0854  -11.8722 N   0  0  0  0  0  0  0  0  0  0  0  0
    2.5549    2.9889  -13.0694 O   0  0  0  0  0  0  0  0  0  0  0  0
    3.1647    2.1251  -11.1578 O   0  0  0  0  0  0  0  0  0  0  0  0
    1.3211    7.7442  -12.3147 N   0  0  0  0  0  0  0  0  0  0  0  0
    1.1002    7.4855  -13.5059 O   0  0  0  0  0  0  0  0  0  0  0  0
    0.9883    8.7940  -11.7485 O   0  0  0  0  0  0  0  0  0  0  0  0
  1  2  1  0
  2  3  1  0
  3  4  1  0
  4  5  2  0
  4  6  1  0
  6  7  1  0
  6 11  1  0
  7  8  1  0
  8  9  1  0
  9 10  1  0
  9 12  1  0
 10 11  1  0
 12 13  1  0
 12 14  2  0
 14 15  1  0
 15 16  1  0
 16 17  2  0
 16 21  1  0
 17 18  1  0
 18 19  2  0
 19 20  1  0
 19 25  1  0
 20 21  2  0
 21 22  1  0
 22 23  1  0
 22 24  2  0
 25 26  1  0
 25 27  2  0
M  CHG  6  12   1  13  -1  22   1  23  -1  25   1  26  -1
M  END
>  <DRUGBANK_ID>  (1) 
DB17257

>  <COMMON_NAME>  (1) 
JS-K

>  <CAS_NUMBER>  (1) 
205432-12-8

>  <UNII>  (1) 
80P1Q21652

>  <SYNONYMS>  (1) 
1-piperazinecarboxylic acid, 4-((2,4-dinitrophenoxy)-nno-azoxy)-, ethyl ester; 1-piperazinecarboxylic acid, 4-(2-(2,4-dinitrophenoxy)-1-oxidodiazenyl)-, ethyl ester; O2-(2,4-dinitrophenyl) 1-((4-ethoxycarbonyl)piperazin-1-yl)diazen-1-ium-1,2-diolate; O2-(2,4-dinitrophenyl) 1-((4-ethoxycarbonyl)piperazin-1yl)diazen-1-ium-1,2-diolate

$$$$
