
     RDKit          3D

  8  8  0  0  0  0  0  0  0  0999 V2000
    2.5119    1.1901    0.0001 C   0  0  0  0  0  0  0  0  0  0  0  0
    1.2625    0.3615    0.0043 C   0  0  0  0  0  0  0  0  0  0  0  0
    1.3042   -1.0377    0.0164 C   0  0  0  0  0  0  0  0  0  0  0  0
    0.1169   -1.7777    0.0023 C   0  0  0  0  0  0  0  0  0  0  0  0
   -1.1180   -1.1264   -0.0138 C   0  0  0  0  0  0  0  0  0  0  0  0
   -1.1552    0.2633   -0.0116 C   0  0  0  0  0  0  0  0  0  0  0  0
   -2.3305    0.9540   -0.0126 O   0  0  0  0  0  0  0  0  0  0  0  0
    0.0202    1.0060   -0.0072 C   0  0  0  0  0  0  0  0  0  0  0  0
  1  2  1  0
  2  3  2  0
  2  8  1  0
  3  4  1  0
  4  5  2  0
  5  6  1  0
  6  7  1  0
  6  8  2  0
M  END
>  <DRUGBANK_ID>  (1) 
DB01776

>  <SECONDARY_ACCESSION_NUMBERS>  (1) 
EXPT01026

>  <COMMON_NAME>  (1) 
M-Cresol

>  <CAS_NUMBER>  (1) 
108-39-4

>  <UNII>  (1) 
GGO4Y809LO

>  <SYNONYMS>  (1) 
3-Cresol; 3-Methylphenol; m-Cresylic acid; m-Kresol; meta-Cresol; Metacresol

$$$$
