
     RDKit          3D

 21 23  0  0  0  0  0  0  0  0999 V2000
    0.8617   -0.1265    0.0165 C   0  0  0  0  0  0  0  0  0  0  0  0
    0.4352    0.6605    1.2092 C   0  0  0  0  0  0  0  0  0  0  0  0
   -0.1289    0.0940    2.3331 C   0  0  0  0  0  0  0  0  0  0  0  0
   -0.1792    0.8380    3.5033 C   0  0  0  0  0  0  0  0  0  0  0  0
    0.0820    2.2155    3.4847 C   0  0  0  0  0  0  0  0  0  0  0  0
    0.4870    2.8336    2.3155 C   0  0  0  0  0  0  0  0  0  0  0  0
    0.7354    2.0149    1.2178 C   0  0  0  0  0  0  0  0  0  0  0  0
    0.6144    4.2448    2.2632 N   0  0  0  0  0  0  0  0  0  0  0  0
    0.3075    5.0114    3.3951 C   0  0  0  0  0  0  0  0  0  0  0  0
    0.3776    6.2489    3.3606 O   0  0  0  0  0  0  0  0  0  0  0  0
   -0.0782    4.3872    4.5563 N   0  0  0  0  0  0  0  0  0  0  0  0
   -0.1748    3.0940    4.6336 C   0  0  0  0  0  0  0  0  0  0  0  0
   -0.6323    2.4972    5.9147 C   0  0  0  0  0  0  0  0  0  0  0  0
   -1.8534    2.9153    6.4454 C   0  0  0  0  0  0  0  0  0  0  0  0
   -2.2727    2.4151    7.6769 C   0  0  0  0  0  0  0  0  0  0  0  0
   -1.5399    1.4095    8.3094 C   0  0  0  0  0  0  0  0  0  0  0  0
   -0.3857    0.9028    7.7145 C   0  0  0  0  0  0  0  0  0  0  0  0
    0.1111    1.4981    6.5566 C   0  0  0  0  0  0  0  0  0  0  0  0
    0.9983    4.9150    1.0005 C   0  0  0  0  0  0  0  0  0  0  0  0
    2.4433    4.5821    0.5875 C   0  0  0  0  0  0  0  0  0  0  0  0
   -0.0335    4.7009   -0.1258 C   0  0  0  0  0  0  0  0  0  0  0  0
  1  2  1  0
  2  3  2  0
  2  7  1  0
  3  4  1  0
  4  5  2  0
  5  6  1  0
  5 12  1  0
  6  7  2  0
  6  8  1  0
  8  9  1  0
  8 19  1  0
  9 10  2  0
  9 11  1  0
 11 12  2  0
 12 13  1  0
 13 14  2  0
 13 18  1  0
 14 15  1  0
 15 16  2  0
 16 17  1  0
 17 18  2  0
 19 20  1  0
 19 21  1  0
M  END
>  <DRUGBANK_ID>  (1) 
DB13649

>  <COMMON_NAME>  (1) 
Proquazone

>  <CAS_NUMBER>  (1) 
22760-18-5

>  <UNII>  (1) 
42VPJ2980S

>  <SYNONYMS>  (1) 
Proquazone

$$$$
