
     RDKit          3D

 26 27  0  0  0  0  0  0  0  0999 V2000
    1.3215   -0.2302   -0.0018 C   0  0  0  0  0  0  0  0  0  0  0  0
    0.4255   -1.2868    0.0168 C   0  0  0  0  0  0  0  0  0  0  0  0
   -5.1413    3.2493    0.4116 C   0  0  0  0  0  0  0  0  0  0  0  0
   -4.6990    4.2187   -0.5212 C   0  0  0  0  0  0  0  0  0  0  0  0
   -4.6403    1.9342    0.3677 C   0  0  0  0  0  0  0  0  0  0  0  0
    0.8175    1.0594   -0.1110 C   0  0  0  0  0  0  0  0  0  0  0  0
   -0.9641   -1.0452   -0.0671 C   0  0  0  0  0  0  0  0  0  0  0  0
   -0.6413    2.3177    3.3665 C   0  0  0  0  0  0  0  0  0  0  0  0
   -0.0836    3.5098    2.5869 C   0  0  0  0  0  0  0  0  0  0  0  0
   -1.9739    4.8963    2.4474 C   0  0  0  0  0  0  0  0  0  0  0  0
   -2.3384    4.3584    1.0822 C   0  0  0  0  0  0  0  0  0  0  0  0
   -3.3451    2.5224   -1.6060 C   0  0  0  0  0  0  0  0  0  0  0  0
   -3.7412    3.8810   -1.5033 C   0  0  0  0  0  0  0  0  0  0  0  0
   -3.7220    1.5540   -0.6354 C   0  0  0  0  0  0  0  0  0  0  0  0
   -0.5824    1.3162   -0.1932 C   0  0  0  0  0  0  0  0  0  0  0  0
   -1.5145    0.2594   -0.1923 C   0  0  0  0  0  0  0  0  0  0  0  0
   -0.9346    2.7552   -0.1749 C   0  0  0  0  0  0  0  0  0  0  0  0
   -2.8961    4.9805   -2.1709 C   0  0  0  0  0  0  0  0  0  0  0  0
   -1.5557    4.8572   -1.9826 F   0  0  0  0  0  0  0  0  0  0  0  0
   -3.0522    5.0309   -3.5161 F   0  0  0  0  0  0  0  0  0  0  0  0
   -3.1777    6.2341   -1.7002 F   0  0  0  0  0  0  0  0  0  0  0  0
   -2.9222    0.3777   -0.4497 N   0  0  0  0  0  0  0  0  0  0  0  0
   -2.0333    2.0177    3.1898 O   0  0  0  0  0  0  0  0  0  0  0  0
   -0.1392    3.6151   -0.5993 O   0  0  0  0  0  0  0  0  0  0  0  0
   -0.6100    4.8099    2.7933 O   0  0  0  0  0  0  0  0  0  0  0  0
   -1.9818    3.0138    0.6637 O   0  0  0  0  0  0  0  0  0  0  0  0
  2  1  2  0
  4  3  2  0
  5  3  1  0
  6  1  1  0
  7  2  1  0
  9  8  1  0
 11 10  1  0
 13  4  1  0
 13 12  2  0
 14  5  2  0
 14 12  1  0
 15  6  2  0
 16  7  2  0
 16 15  1  0
 17 15  1  0
 18 13  1  0
 19 18  1  0
 20 18  1  0
 21 18  1  0
 22 14  1  0
 22 16  1  0
 23  8  1  0
 24 17  2  0
 25  9  1  0
 25 10  1  0
 26 11  1  0
 26 17  1  0
M  END
>  <DRUGBANK_ID>  (1) 
DB08984

>  <COMMON_NAME>  (1) 
Etofenamate

>  <CAS_NUMBER>  (1) 
30544-47-9

>  <UNII>  (1) 
KZF0XM66JC

>  <SYNONYMS>  (1) 
Etofenamate; Etofenamato; Etofenamatum

$$$$
