
     RDKit          3D

 26 27  0  0  0  0  0  0  0  0999 V2000
    1.4141   -0.2123    0.0514 C   0  0  0  0  0  0  0  0  0  0  0  0
    0.5074   -1.2847    0.0230 C   0  0  0  0  0  0  0  0  0  0  0  0
   -0.8846   -1.0671   -0.0269 C   0  0  0  0  0  0  0  0  0  0  0  0
   -1.4021    0.2280   -0.0532 C   0  0  0  0  0  0  0  0  0  0  0  0
   -0.4947    1.2853    0.0350 C   0  0  0  0  0  0  0  0  0  0  0  0
    0.8749    1.0651   -0.0051 C   0  0  0  0  0  0  0  0  0  0  0  0
    2.7770   -0.4440    0.0593 N   0  0  0  0  0  0  0  0  0  0  0  0
   -2.8508    0.5087   -0.2090 C   0  0  0  0  0  0  0  0  0  0  0  0
   -3.3431    1.7371   -0.3073 C   0  0  0  0  0  0  0  0  0  0  0  0
   -4.7517    2.1582   -0.2876 C   0  0  0  0  0  0  0  0  0  0  0  0
   -5.5668    1.6563    0.7217 C   0  0  0  0  0  0  0  0  0  0  0  0
   -6.8637    2.1527    0.9175 C   0  0  0  0  0  0  0  0  0  0  0  0
   -7.4173    3.0504   -0.0069 C   0  0  0  0  0  0  0  0  0  0  0  0
   -6.5823    3.5966   -1.0120 C   0  0  0  0  0  0  0  0  0  0  0  0
   -5.2508    3.1414   -1.1491 C   0  0  0  0  0  0  0  0  0  0  0  0
   -8.7859    3.0013   -0.3088 O   0  0  0  0  0  0  0  0  0  0  0  0
   -9.6596    2.0104    0.3371 C   0  0  0  0  0  0  0  0  0  0  0  0
   -9.5312    0.3992    0.2086 C   0  0  0  0  0  0  0  0  0  0  0  0
   -8.2882   -0.2433   -0.0734 O   0  0  0  0  0  0  0  0  0  0  0  0
   -7.5118    0.3179   -1.1452 C   0  0  0  0  0  0  0  0  0  0  0  0
   -7.6443    0.5170   -2.6766 C   0  0  0  0  0  0  0  0  0  0  0  0
   -8.8579    1.0288   -3.2552 O   0  0  0  0  0  0  0  0  0  0  0  0
   -9.9919    0.4376   -2.6645 C   0  0  0  0  0  0  0  0  0  0  0  0
   -9.8960   -1.1113   -2.6302 C   0  0  0  0  0  0  0  0  0  0  0  0
   -8.7229   -1.6065   -2.1512 F   0  0  0  0  0  0  0  0  0  0  0  0
    3.7620    0.6082    0.2276 C   0  0  0  0  0  0  0  0  0  0  0  0
  1  2  2  0
  1  6  1  0
  1  7  1  0
  2  3  1  0
  3  4  2  0
  4  5  1  0
  4  8  1  0
  5  6  2  0
  7 26  1  0
  8  9  2  0
  9 10  1  0
 10 11  2  0
 10 15  1  0
 11 12  1  0
 12 13  2  0
 13 14  1  0
 13 16  1  0
 14 15  2  0
 16 17  1  0
 17 18  1  0
 18 19  1  0
 19 20  1  0
 20 21  1  0
 21 22  1  0
 22 23  1  0
 23 24  1  0
 24 25  1  0
M  ISO  1  25  18
M  END
>  <DRUGBANK_ID>  (1) 
DB09148

>  <COMMON_NAME>  (1) 
Florbetaben F-18

>  <CAS_NUMBER>  (1) 
902143-01-5

>  <UNII>  (1) 
TLA7312TOI

>  <SYNONYMS>  (1) 
4-((1E)-2-(4-(2-(2-(2-((SUP 18(F))FLUOROETHOXY)ETHOXY)ETHOXY)PHENYL)ETH-1-EN-1-YL)-N-METHYLANILINE; Florbetaben (18F); florbetaben (¹⁸F); florbetaben F18; FLORBETABEN(18F)

$$$$
