
     RDKit          3D

 31 35  0  0  0  0  0  0  0  0999 V2000
    0.3749    2.2201    0.0194 O   0  0  0  0  0  0  0  0  0  0  0  0
    1.0193    1.0169   -0.0114 C   0  0  0  0  0  0  0  0  0  0  0  0
    0.2647   -0.1413   -0.0688 C   0  0  0  0  0  0  0  0  0  0  0  0
   -1.6331   -0.1257   -0.0150 Br  0  0  0  0  0  0  0  0  0  0  0  0
    0.8972   -1.3829   -0.1657 C   0  0  0  0  0  0  0  0  0  0  0  0
    2.2945   -1.5527   -0.1324 C   0  0  0  0  0  0  0  0  0  0  0  0
    3.0439   -0.3541   -0.0411 C   0  0  0  0  0  0  0  0  0  0  0  0
    2.4112    0.9175   -0.0006 C   0  0  0  0  0  0  0  0  0  0  0  0
    2.9519   -2.9871   -0.1171 C   0  0  0  0  0  0  0  0  0  0  0  0
    3.7020   -2.9953    1.1206 O   0  0  0  0  0  0  0  0  0  0  0  0
    4.9446   -3.5074    1.2683 C   0  0  0  0  0  0  0  0  0  0  0  0
    5.5485   -3.4315    2.3207 O   0  0  0  0  0  0  0  0  0  0  0  0
    5.5251   -4.2229    0.1071 C   0  0  0  0  0  0  0  0  0  0  0  0
    4.9585   -4.1047   -1.1658 C   0  0  0  0  0  0  0  0  0  0  0  0
    5.3983   -4.9803   -2.2053 C   0  0  0  0  0  0  0  0  0  0  0  0
    4.6518   -5.0171   -3.4090 C   0  0  0  0  0  0  0  0  0  0  0  0
    3.5717   -4.1580   -3.6284 C   0  0  0  0  0  0  0  0  0  0  0  0
    3.2003   -3.2358   -2.6458 C   0  0  0  0  0  0  0  0  0  0  0  0
    3.8395   -3.2598   -1.3736 C   0  0  0  0  0  0  0  0  0  0  0  0
    6.4846   -5.8494   -1.9449 C   0  0  0  0  0  0  0  0  0  0  0  0
    7.0926   -6.9473   -3.1396 Cl  0  0  0  0  0  0  0  0  0  0  0  0
    7.1285   -5.8423   -0.7076 C   0  0  0  0  0  0  0  0  0  0  0  0
    6.6395   -5.0460    0.3241 C   0  0  0  0  0  0  0  0  0  0  0  0
    1.9185   -4.2098   -0.0872 C   0  0  0  0  0  0  0  0  0  0  0  0
    2.0228   -5.2550   -1.0420 C   0  0  0  0  0  0  0  0  0  0  0  0
    0.9641   -6.0045   -1.5076 C   0  0  0  0  0  0  0  0  0  0  0  0
    1.1985   -7.0233   -3.0913 Br  0  0  0  0  0  0  0  0  0  0  0  0
   -0.2067   -5.9376   -0.8060 C   0  0  0  0  0  0  0  0  0  0  0  0
   -1.2361   -6.7269   -1.2120 O   0  0  0  0  0  0  0  0  0  0  0  0
   -0.2863   -5.1140    0.3272 C   0  0  0  0  0  0  0  0  0  0  0  0
    0.7776   -4.2631    0.7017 C   0  0  0  0  0  0  0  0  0  0  0  0
  1  2  1  0
  2  3  2  0
  2  8  1  0
  3  4  1  0
  3  5  1  0
  5  6  2  0
  6  7  1  0
  6  9  1  0
  7  8  2  0
  9 10  1  0
  9 19  1  0
  9 24  1  0
 10 11  1  0
 11 12  2  0
 11 13  1  0
 13 14  2  0
 13 23  1  0
 14 15  1  0
 14 19  1  0
 15 16  1  0
 15 20  2  0
 16 17  2  0
 17 18  1  0
 18 19  2  0
 20 21  1  0
 20 22  1  0
 22 23  2  0
 24 25  2  0
 24 31  1  0
 25 26  1  0
 26 27  1  0
 26 28  2  0
 28 29  1  0
 28 30  1  0
 30 31  2  0
M  END
>  <DRUGBANK_ID>  (1) 
DB04696

>  <COMMON_NAME>  (1) 
4-CHLORO-3',3''-DIBROMOPHENOL-1,8-NAPHTHALEIN

$$$$
