
     RDKit          3D

 24 26  0  0  1  0  0  0  0  0999 V2000
   10.6525   12.3373   -4.9206 C   0  0  0  0  0  0  0  0  0  0  0  0
    9.9292   12.8216   -3.6793 C   0  0  0  0  0  0  0  0  0  0  0  0
    8.4206   12.7957   -3.8934 C   0  0  0  0  0  0  0  0  0  0  0  0
    7.8921   11.3827   -4.1952 C   0  0  0  0  0  0  0  0  0  0  0  0
    8.1561   10.4097   -3.0474 C   0  0  0  0  0  0  0  0  0  0  0  0
    7.5016   10.8492   -1.7406 C   0  0  0  0  0  0  0  0  0  0  0  0
    5.9788   10.9626   -1.8861 C   0  0  2  0  0  0  0  0  0  0  0  0
    5.5017   12.3715   -2.2852 C   0  0  0  0  0  0  0  0  0  0  0  0
    4.0097   12.3663   -2.5356 C   0  0  0  0  0  0  0  0  0  0  0  0
    3.2780   11.6872   -1.4184 C   0  0  0  0  0  0  0  0  0  0  0  0
    3.8808   10.8637   -0.4813 C   0  0  0  0  0  0  0  0  0  0  0  0
    5.3479   10.5691   -0.5474 C   0  0  0  0  0  0  0  0  0  0  0  0
    3.1256   10.3433    0.5773 C   0  0  0  0  0  0  0  0  0  0  0  0
    1.7689   10.6646    0.7088 C   0  0  0  0  0  0  0  0  0  0  0  0
    1.1479   11.4785   -0.2348 C   0  0  0  0  0  0  0  0  0  0  0  0
    1.9134   11.9117   -1.3302 C   0  0  0  0  0  0  0  0  0  0  0  0
   -0.3083   11.9021   -0.1114 C   0  0  1  0  0  0  0  0  0  0  0  0
   -0.7360   12.5435    1.2300 C   0  0  0  0  0  0  0  0  0  0  0  0
   -0.7538   14.0748    1.0295 C   0  0  0  0  0  0  0  0  0  0  0  0
   -0.2529   14.3343   -0.3992 C   0  0  2  0  0  0  0  0  0  0  0  0
    1.1939   14.5960   -0.2896 N   0  0  0  0  0  0  0  0  0  0  0  0
   -0.8547   15.5551   -1.1272 C   0  0  0  0  0  0  0  0  0  0  0  0
   -0.9566   16.7070   -0.3002 O   0  0  0  0  0  0  0  0  0  0  0  0
   -0.6963   13.0210   -1.0950 C   0  0  0  0  0  0  0  0  0  0  0  0
  1  2  1  0
  2  3  1  0
  3  4  1  0
  4  5  1  0
  5  6  1  0
  7  6  1  1
  7  8  1  0
  7 12  1  0
  8  9  1  0
  9 10  1  0
 10 11  2  0
 10 16  1  0
 11 12  1  0
 11 13  1  0
 13 14  2  0
 14 15  1  0
 15 16  2  0
 17 18  1  0
 17 24  1  0
 17 15  1  1
 18 19  1  0
 20 19  1  0
 20 24  1  0
 20 22  1  0
 20 21  1  1
 22 23  1  0
M  END
>  <DRUGBANK_ID>  (1) 
DB15214

>  <COMMON_NAME>  (1) 
BMS-986104

>  <CAS_NUMBER>  (1) 
1622180-31-7

>  <UNII>  (1) 
KJ9D084FO4

$$$$
