
     RDKit          3D

 29 31  0  0  0  0  0  0  0  0999 V2000
    0.6267    1.2719    0.0040 C   0  0  0  0  0  0  0  0  0  0  0  0
    1.3069    0.0682    0.0020 C   0  0  0  0  0  0  0  0  0  0  0  0
    0.5831   -1.1378    0.0078 C   0  0  0  0  0  0  0  0  0  0  0  0
   -0.7959   -1.0779    0.0111 C   0  0  0  0  0  0  0  0  0  0  0  0
   -1.4830    0.0795    0.0056 N   0  0  0  0  0  0  0  0  0  0  0  0
   -0.7554    1.2203    0.0018 C   0  0  0  0  0  0  0  0  0  0  0  0
    1.3296   -2.3852    0.0182 C   0  0  0  0  0  0  0  0  0  0  0  0
    0.9091   -3.6542   -0.0286 C   0  0  0  0  0  0  0  0  0  0  0  0
    1.6920   -4.9264   -0.0623 C   0  0  0  0  0  0  0  0  0  0  0  0
    1.0788   -5.9829   -0.0183 O   0  0  0  0  0  0  0  0  0  0  0  0
    3.0430   -4.9744   -0.1833 N   0  0  0  0  0  0  0  0  0  0  0  0
    4.0500   -3.9544   -0.2092 C   0  0  0  0  0  0  0  0  0  0  0  0
    4.7614   -3.8238    1.0955 C   0  0  0  0  0  0  0  0  0  0  0  0
    5.0740   -2.5512    1.5324 C   0  0  0  0  0  0  0  0  0  0  0  0
    5.8992   -2.4150    2.6265 C   0  0  0  0  0  0  0  0  0  0  0  0
    6.1905   -3.4565    3.5029 C   0  0  0  0  0  0  0  0  0  0  0  0
    5.8201   -4.7387    3.0891 C   0  0  0  0  0  0  0  0  0  0  0  0
    5.1937   -4.9219    1.8481 C   0  0  0  0  0  0  0  0  0  0  0  0
    6.9622   -3.2637    4.7771 C   0  0  0  0  0  0  0  0  0  0  0  0
    7.3828   -4.2729    5.3608 O   0  0  0  0  0  0  0  0  0  0  0  0
    7.3155   -2.0204    5.2878 N   0  0  0  0  0  0  0  0  0  0  0  0
    6.9642   -0.7294    4.8422 C   0  0  0  0  0  0  0  0  0  0  0  0
    5.6156   -0.4083    4.5974 C   0  0  0  0  0  0  0  0  0  0  0  0
    5.2962    0.7273    3.8530 C   0  0  0  0  0  0  0  0  0  0  0  0
    6.3025    1.6259    3.5320 C   0  0  0  0  0  0  0  0  0  0  0  0
    7.6236    1.4015    3.9216 C   0  0  0  0  0  0  0  0  0  0  0  0
    7.9916    0.1753    4.4890 C   0  0  0  0  0  0  0  0  0  0  0  0
    9.3419   -0.0838    4.7830 N   0  0  0  0  0  0  0  0  0  0  0  0
    6.0033    2.7062    2.7982 F   0  0  0  0  0  0  0  0  0  0  0  0
  1  2  2  0
  1  6  1  0
  2  3  1  0
  3  4  2  0
  3  7  1  0
  4  5  1  0
  5  6  2  0
  7  8  2  0
  8  9  1  0
  9 10  2  0
  9 11  1  0
 11 12  1  0
 12 13  1  0
 13 14  2  0
 13 18  1  0
 14 15  1  0
 15 16  2  0
 16 17  1  0
 16 19  1  0
 17 18  2  0
 19 20  2  0
 19 21  1  0
 21 22  1  0
 22 23  2  0
 22 27  1  0
 23 24  1  0
 24 25  2  0
 25 26  1  0
 25 29  1  0
 26 27  2  0
 27 28  1  0
M  END
>  <DRUGBANK_ID>  (1) 
DB06334

>  <COMMON_NAME>  (1) 
Tucidinostat

>  <CAS_NUMBER>  (1) 
1616493-44-7

>  <UNII>  (1) 
87CIC980Y0

>  <SYNONYMS>  (1) 
Chidamide; Tucidinostat

$$$$
