
     RDKit          3D

 10  9  0  0  0  0  0  0  0  0999 V2000
    1.0096   -0.0404    0.0219 C   0  0  0  0  0  0  0  0  0  0  0  0
    0.5052    0.5369   -1.2723 N   0  0  0  0  0  0  0  0  0  0  0  0
    0.8197   -0.3566   -2.4628 C   0  0  0  0  0  0  0  0  0  0  0  0
   -1.0074    0.7045   -1.2602 C   0  0  0  0  0  0  0  0  0  0  0  0
    1.0526    1.9146   -1.4406 N   0  0  0  0  0  0  0  0  0  0  0  0
    2.5334    2.0500   -1.4606 C   0  0  0  0  0  0  0  0  0  0  0  0
    3.2519    1.4937   -2.6811 C   0  0  0  0  0  0  0  0  0  0  0  0
    2.6401    2.0441   -3.9680 C   0  0  0  0  0  0  0  0  0  0  0  0
    3.4645    2.2595   -4.8947 O   0  0  0  0  0  0  0  0  0  0  0  0
    1.3855    2.1927   -3.9517 O   0  0  0  0  0  0  0  0  0  0  0  0
  1  2  1  0
  2  3  1  0
  2  4  1  0
  2  5  1  0
  5  6  1  0
  6  7  1  0
  7  8  1  0
  8  9  2  0
  8 10  1  0
M  CHG  2   2   1  10  -1
M  END
>  <DRUGBANK_ID>  (1) 
DB13723

>  <COMMON_NAME>  (1) 
Meldonium

>  <CAS_NUMBER>  (1) 
76144-81-5

>  <UNII>  (1) 
73H7UDN6EC

>  <SYNONYMS>  (1) 
Meldonium

$$$$
