292
     RDKit          3D

 22 25  0  0  0  0  0  0  0  0999 V2000
   -0.1010    0.8258   -0.0217 C   0  0  0  0  0  0  0  0  0  0  0  0
    0.6921   -0.4605    0.1021 C   0  0  0  0  0  0  0  0  0  0  0  0
   -0.7961   -0.5021   -0.0918 C   0  0  0  0  0  0  0  0  0  0  0  0
   -1.7934   -1.0261    0.9351 C   0  0  0  0  0  0  0  0  0  0  0  0
   -3.1046   -0.5026    1.0964 C   0  0  0  0  0  0  0  0  0  0  0  0
   -3.7717   -1.4196    1.8787 C   0  0  0  0  0  0  0  0  0  0  0  0
   -2.8627   -2.4268    2.1061 N   0  0  0  0  0  0  0  0  0  0  0  0
   -1.6539   -2.2058    1.5484 N   0  0  0  0  0  0  0  0  0  0  0  0
   -5.1005   -1.3416    2.3098 N   0  0  0  0  0  0  0  0  0  0  0  0
   -5.6643   -2.3797    3.1404 C   0  0  0  0  0  0  0  0  0  0  0  0
   -7.1238   -2.2549    3.5642 C   0  0  0  0  0  0  0  0  0  0  0  0
   -7.9582   -3.4225    3.0844 C   0  0  0  0  0  0  0  0  0  0  0  0
   -7.5684   -4.7335    3.4093 C   0  0  0  0  0  0  0  0  0  0  0  0
   -8.2208   -5.8501    2.8724 C   0  0  0  0  0  0  0  0  0  0  0  0
   -9.3452   -5.6562    2.0449 C   0  0  0  0  0  0  0  0  0  0  0  0
   -9.7942   -4.3480    1.7968 C   0  0  0  0  0  0  0  0  0  0  0  0
   -9.1035   -3.2398    2.3024 C   0  0  0  0  0  0  0  0  0  0  0  0
   -9.9788   -6.7776    1.4864 C   0  0  0  0  0  0  0  0  0  0  0  0
   -7.7570   -7.1506    3.1259 C   0  0  0  0  0  0  0  0  0  0  0  0
   -8.3929   -8.2529    2.5576 C   0  0  0  0  0  0  0  0  0  0  0  0
   -9.5035   -8.0664    1.7400 C   0  0  0  0  0  0  0  0  0  0  0  0
   -4.9320   -3.3122    3.4670 O   0  0  0  0  0  0  0  0  0  0  0  0
  1  2  1  0
  1  3  1  0
  2  3  1  0
  3  4  1  0
  4  5  1  0
  4  8  2  0
  5  6  2  0
  6  7  1  0
  6  9  1  0
  7  8  1  0
  9 10  1  0
 10 11  1  0
 10 22  2  0
 11 12  1  0
 12 13  2  0
 12 17  1  0
 13 14  1  0
 14 15  2  0
 14 19  1  0
 15 16  1  0
 15 18  1  0
 16 17  2  0
 18 21  2  0
 19 20  2  0
 20 21  1  0
M  END
>  <DRUGBANK_ID>  (1) 
DB06944

>  <COMMON_NAME>  (1) 
N-(3-cyclopropyl-1H-pyrazol-5-yl)-2-(2-naphthyl)acetamide

>  <UNII>  (1) 
64H5U84UFB

$$$$
