
     RDKit          3D

 35 37  0  0  0  0  0  0  0  0999 V2000
   -1.3659    5.9079   -1.9399 S   0  0  0  0  0  0  0  0  0  0  0  0
   -0.0378    5.1952   -5.2909 O   0  0  0  0  0  0  0  0  0  0  0  0
   -1.5204    3.3090   -2.2814 O   0  0  0  0  0  0  0  0  0  0  0  0
   -1.6238    1.5915    2.5824 O   0  0  0  0  0  0  0  0  0  0  0  0
    0.2940    7.6368   -0.8897 O   0  0  0  0  0  0  0  0  0  0  0  0
    2.2566    7.0207   -0.0623 O   0  0  0  0  0  0  0  0  0  0  0  0
    2.6766   -0.0982    0.0318 O   0  0  0  0  0  0  0  0  0  0  0  0
    0.5039   -0.6811   -0.0574 O   0  0  0  0  0  0  0  0  0  0  0  0
   -2.1113    2.2771    0.5571 N   0  0  0  0  0  0  0  0  0  0  0  0
   -0.0240    2.1014   -0.9470 N   0  0  0  0  0  0  0  0  0  0  0  0
    1.2811    4.2173   -0.2130 N   0  0  0  0  0  0  0  0  0  0  0  0
    0.4530    5.1833   -2.9749 C   0  0  2  0  0  0  0  0  0  0  0  0
   -0.3665    4.5050   -4.1091 C   0  0  2  0  0  0  0  0  0  0  0  0
    1.8405    4.3202   -2.6675 C   0  0  0  0  0  0  0  0  0  0  0  0
   -0.4876    2.9187   -4.2340 C   0  0  0  0  0  0  0  0  0  0  0  0
    1.8644    2.8987   -2.9458 C   0  0  0  0  0  0  0  0  0  0  0  0
    0.5371    2.1120   -3.6694 C   0  0  0  0  0  0  0  0  0  0  0  0
   -1.8635    4.6937   -0.3293 C   0  0  0  0  0  0  0  0  0  0  0  0
    3.0578    4.9168   -1.9858 C   0  0  0  0  0  0  0  0  0  0  0  0
   -2.3077    3.2648   -0.4260 C   0  0  1  0  0  0  0  0  0  0  0  0
   -1.9369    2.3478   -4.2829 C   0  0  0  0  0  0  0  0  0  0  0  0
    2.9129    2.1968   -2.1828 C   0  0  0  0  0  0  0  0  0  0  0  0
   -0.0144    0.7412   -3.2147 C   0  0  0  0  0  0  0  0  0  0  0  0
    4.0152    4.1617   -1.2351 C   0  0  0  0  0  0  0  0  0  0  0  0
    3.8854    2.7912   -1.2685 C   0  0  0  0  0  0  0  0  0  0  0  0
   -2.3888    1.1118   -3.7185 C   0  0  0  0  0  0  0  0  0  0  0  0
   -1.4194    0.3127   -3.1476 C   0  0  0  0  0  0  0  0  0  0  0  0
   -1.2496    2.7567   -1.3125 C   0  0  0  0  0  0  0  0  0  0  0  0
   -1.2990    4.0435    2.2239 C   0  0  0  0  0  0  0  0  0  0  0  0
   -1.6591    2.5439    1.8091 C   0  0  0  0  0  0  0  0  0  0  0  0
    0.1094    4.9028    1.6763 C   0  0  0  0  0  0  0  0  0  0  0  0
    0.5588    5.3541    0.2127 C   0  0  1  0  0  0  0  0  0  0  0  0
    0.9447    1.6338    0.1510 C   0  0  0  0  0  0  0  0  0  0  0  0
    1.0803    6.7359   -0.2290 C   0  0  0  0  0  0  0  0  0  0  0  0
    1.3491    0.1889    0.0719 C   0  0  0  0  0  0  0  0  0  0  0  0
  1 18  1  0
  3 28  2  0
  4 30  2  0
  5 34  1  0
  6 34  2  0
  7 35  1  0
  8 35  2  0
  9 30  1  0
 10 28  1  0
 10 33  1  0
 12 13  1  0
 12 14  1  0
 12  1  1  1
 13 15  1  0
 13  2  1  6
 14 16  2  0
 14 19  1  0
 15 17  2  0
 15 21  1  0
 16 17  1  0
 16 22  1  0
 17 23  1  0
 19 24  2  0
 20 28  1  0
 20 18  1  1
 20  9  1  0
 21 26  2  0
 22 25  2  0
 23 27  2  0
 24 25  1  0
 26 27  1  0
 29 30  1  0
 29 31  1  0
 32 34  1  0
 32 31  1  0
 32 11  1  1
 33 35  1  0
M  END
>  <DRUGBANK_ID>  (1) 
DB04187

>  <SECONDARY_ACCESSION_NUMBERS>  (1) 
EXPT01642

>  <COMMON_NAME>  (1) 
(9S,10S)-9-(S-glutathionyl)-10-hydroxy-9,10-dihydrophenanthrene

$$$$
