
     RDKit          3D

 29 31  0  0  1  0  0  0  0  0999 V2000
   14.5436   -6.3354    8.7989 C   0  0  0  0  0  0  0  0  0  0  0  0
   14.5554   -6.0904    7.3483 C   0  0  2  0  0  0  0  0  0  0  0  0
   13.3071   -5.1579    7.0813 C   0  0  1  0  0  0  0  0  0  0  0  0
   12.0658   -6.0431    7.1875 C   0  0  0  0  0  0  0  0  0  0  0  0
   13.2773   -3.8615    7.8722 O   0  0  0  0  0  0  0  0  0  0  0  0
   12.8681   -3.7009    9.2058 C   0  0  0  0  0  0  0  0  0  0  0  0
   13.6722   -3.8733   10.3421 C   0  0  0  0  0  0  0  0  0  0  0  0
   12.9776   -3.9660   11.5304 C   0  0  0  0  0  0  0  0  0  0  0  0
   11.7369   -3.5276   11.7096 N   0  0  0  0  0  0  0  0  0  0  0  0
   11.1502   -3.0239   10.6265 C   0  0  0  0  0  0  0  0  0  0  0  0
   11.6251   -3.1930    9.3636 N   0  0  0  0  0  0  0  0  0  0  0  0
   10.0740   -2.1962   10.9117 N   0  0  0  0  0  0  0  0  0  0  0  0
    9.1916   -1.6109   10.0170 C   0  0  0  0  0  0  0  0  0  0  0  0
    8.6031   -2.3881    9.0211 C   0  0  0  0  0  0  0  0  0  0  0  0
    7.7444   -1.8176    8.0942 C   0  0  0  0  0  0  0  0  0  0  0  0
    7.4609   -0.4510    8.1622 C   0  0  0  0  0  0  0  0  0  0  0  0
    8.0298    0.3423    9.1627 C   0  0  0  0  0  0  0  0  0  0  0  0
    8.9130   -0.2399   10.0778 C   0  0  0  0  0  0  0  0  0  0  0  0
    6.4995    0.2770    6.8563 S   0  0  2  0  0  0  0  0  0  0  0  0
    5.9391   -0.8642    6.0076 N   0  0  0  0  0  0  0  0  0  0  0  0
    7.3274    1.3727    6.3239 O   0  0  0  0  0  0  0  0  0  0  0  0
    5.1150    1.1304    7.6622 C   0  0  0  0  0  0  0  0  0  0  0  0
    4.1240    0.3035    8.4306 C   0  0  0  0  0  0  0  0  0  0  0  0
    3.7525    0.8368    7.0730 C   0  0  0  0  0  0  0  0  0  0  0  0
   15.1274   -4.2319   10.5131 C   0  0  0  0  0  0  0  0  0  0  0  0
   15.8135   -3.5259   11.4472 F   0  0  0  0  0  0  0  0  0  0  0  0
   15.2146   -5.5220   10.9866 F   0  0  0  0  0  0  0  0  0  0  0  0
   15.8957   -4.1621    9.3869 F   0  0  0  0  0  0  0  0  0  0  0  0
   14.5450   -7.4082    6.8224 O   0  0  0  0  0  0  0  0  0  0  0  0
  2 29  1  0
  2  3  1  0
  2  1  1  1
  3  4  1  1
  3  5  1  0
  5  6  1  0
  6  7  2  0
  6 11  1  0
  7  8  1  0
  7 25  1  0
  8  9  2  0
  9 10  1  0
 10 11  2  0
 10 12  1  0
 12 13  1  0
 13 14  2  0
 13 18  1  0
 14 15  1  0
 15 16  2  0
 16 17  1  0
 17 18  2  0
 19 21  2  0
 19 22  1  0
 19 20  2  0
 19 16  1  0
 22 23  1  0
 22 24  1  0
 23 24  1  0
 25 26  1  0
 25 27  1  0
 25 28  1  0
M  END
>  <DRUGBANK_ID>  (1) 
DB12974

>  <COMMON_NAME>  (1) 
Roniciclib

>  <CAS_NUMBER>  (1) 
1223498-69-8

>  <UNII>  (1) 
0W9Q8U337A

>  <SYNONYMS>  (1) 
Roniciclib

$$$$
