KS5
     RDKit          3D

 23 26  0  0  0  0  0  0  0  0999 V2000
    1.0093    0.0807    0.0801 C   0  0  0  0  0  0  0  0  0  0  0  0
    0.4174    0.6403   -1.2154 C   0  0  0  0  0  0  0  0  0  0  0  0
    0.9739   -0.1341   -2.4141 C   0  0  0  0  0  0  0  0  0  0  0  0
   -1.0509    0.6451   -1.1827 N   0  0  0  0  0  0  0  0  0  0  0  0
   -1.7507   -0.4054   -0.6414 N   0  0  0  0  0  0  0  0  0  0  0  0
   -1.8599    1.6626   -1.6281 C   0  0  0  0  0  0  0  0  0  0  0  0
   -1.4874    2.8336   -2.1882 N   0  0  0  0  0  0  0  0  0  0  0  0
   -2.5555    3.5834   -2.5204 C   0  0  0  0  0  0  0  0  0  0  0  0
   -3.8586    3.2724   -2.3815 N   0  0  0  0  0  0  0  0  0  0  0  0
   -4.1825    2.0885   -1.8205 C   0  0  0  0  0  0  0  0  0  0  0  0
   -5.5176    1.7852   -1.7121 N   0  0  0  0  0  0  0  0  0  0  0  0
   -3.1575    1.2360   -1.3889 C   0  0  0  0  0  0  0  0  0  0  0  0
   -3.0473   -0.0429   -0.7276 C   0  0  0  0  0  0  0  0  0  0  0  0
   -4.1848   -0.9365   -0.3328 C   0  0  0  0  0  0  0  0  0  0  0  0
   -4.5094   -1.3302    1.0188 C   0  0  0  0  0  0  0  0  0  0  0  0
   -5.7011   -2.0526    1.3155 C   0  0  0  0  0  0  0  0  0  0  0  0
   -6.2926   -2.5357    2.5361 C   0  0  0  0  0  0  0  0  0  0  0  0
   -6.7682   -3.7292    2.4043 C   0  0  0  0  0  0  0  0  0  0  0  0
   -7.6715   -3.9384    1.4120 C   0  0  0  0  0  0  0  0  0  0  0  0
   -7.5670   -3.2793    0.2700 N   0  0  0  0  0  0  0  0  0  0  0  0
   -6.4891   -2.4702    0.2204 C   0  0  0  0  0  0  0  0  0  0  0  0
   -6.1708   -2.0803   -1.0823 C   0  0  0  0  0  0  0  0  0  0  0  0
   -5.0245   -1.3413   -1.3597 C   0  0  0  0  0  0  0  0  0  0  0  0
  1  2  1  0
  2  3  1  0
  2  4  1  0
  4  5  1  0
  4  6  1  0
  5 13  2  0
  6  7  2  0
  6 12  1  0
  7  8  1  0
  8  9  2  0
  9 10  1  0
 10 11  1  0
 10 12  2  0
 12 13  1  0
 13 14  1  0
 14 15  2  0
 14 23  1  0
 15 16  1  0
 16 17  2  0
 16 21  1  0
 17 18  1  0
 18 19  2  0
 19 20  1  0
 20 21  2  0
 21 22  1  0
 22 23  2  0
M  END
>  <DRUGBANK_ID>  (1) 
DB08054

>  <COMMON_NAME>  (1) 
1-(1-methylethyl)-3-quinolin-6-yl-1H-pyrazolo[3,4-d]pyrimidin-4-amine

$$$$
