
     RDKit          3D

 20 21  0  0  1  0  0  0  0  0999 V2000
    0.7030    1.2470   -0.2550 B   0  0  0  0  0  0  0  0  0  0  0  0
    1.4460   -0.0010    0.2330 C   0  0  2  0  0  0  0  0  0  0  0  0
    0.7020   -1.2480   -0.2550 C   0  0  0  0  0  0  0  0  0  0  0  0
   -0.7430   -1.1990    0.2470 C   0  0  0  0  0  0  0  0  0  0  0  0
   -1.3670    0.0000   -0.2160 C   0  0  2  0  0  0  0  0  0  0  0  0
   -0.7420    1.1990    0.2470 O   0  0  0  0  0  0  0  0  0  0  0  0
   -2.8111    0.0005    0.2583 C   0  0  0  0  0  0  0  0  0  0  0  0
   -3.5159    1.2416   -0.2645 C   0  0  0  0  0  0  0  0  0  0  0  0
   -4.5325    1.1251   -1.0182 O   0  0  0  0  0  0  0  0  0  0  0  0
   -3.0384    2.5313    0.0893 O   0  0  0  0  0  0  0  0  0  0  0  0
    1.4969   -0.0011    1.7021 N   0  0  0  0  0  0  0  0  0  0  0  0
    0.2501   -0.0018    2.4808 C   0  0  0  0  0  0  0  0  0  0  0  0
    0.2941   -0.0023    3.7509 O   0  0  0  0  0  0  0  0  0  0  0  0
   -1.0918   -0.0020    1.7668 C   0  0  0  0  0  0  0  0  0  0  0  0
   -1.2030    1.2394    0.8968 C   0  0  0  0  0  0  0  0  0  0  0  0
   -1.3669    1.2682   -0.4688 C   0  0  0  0  0  0  0  0  0  0  0  0
   -1.4632    2.5693   -0.9738 C   0  0  0  0  0  0  0  0  0  0  0  0
   -1.3689    3.5176   -0.0030 C   0  0  0  0  0  0  0  0  0  0  0  0
   -1.1758    2.8285    1.5615 S   0  0  0  0  0  0  0  0  0  0  0  0
    1.2971    2.3413   -1.0914 O   0  0  0  0  0  0  0  0  0  0  0  0
  1  2  1  0
  1  6  1  0
  1 20  1  0
  2  3  1  0
  2 11  1  1
  3  4  1  0
  4  5  1  0
  5  6  1  0
  5  7  1  1
  7  8  1  0
  8  9  2  0
  8 10  1  0
 11 12  1  0
 12 13  2  0
 12 14  1  0
 14 15  1  0
 15 16  2  0
 15 19  1  0
 16 17  1  0
 17 18  2  0
 18 19  1  0
M  END
>  <DRUGBANK_ID>  (1) 
DB12107

>  <COMMON_NAME>  (1) 
Vaborbactam

>  <CAS_NUMBER>  (1) 
1360457-46-0

>  <UNII>  (1) 
1C75676F8V

>  <SYNONYMS>  (1) 
Vaborbactam

$$$$
