JT6
     RDKit          3D

 21 22  0  0  0  0  0  0  0  0999 V2000
   -0.5030    0.0162   -0.0588 C   0  0  0  0  0  0  0  0  0  0  0  0
    0.2063    1.2235   -0.0512 C   0  0  0  0  0  0  0  0  0  0  0  0
    1.6036    1.2172   -0.0199 C   0  0  0  0  0  0  0  0  0  0  0  0
    2.2963    0.0015   -0.0105 C   0  0  0  0  0  0  0  0  0  0  0  0
    5.5777   -0.1854    1.6913 C   0  0  0  0  0  0  0  0  0  0  0  0
    4.2978    0.2451    1.3680 C   0  0  0  0  0  0  0  0  0  0  0  0
    4.5543   -0.7059   -0.8159 C   0  0  0  0  0  0  0  0  0  0  0  0
    5.9012   -0.9727   -0.5445 C   0  0  0  0  0  0  0  0  0  0  0  0
    0.1827   -1.1983   -0.0626 C   0  0  0  0  0  0  0  0  0  0  0  0
    6.4324   -0.6590    0.7037 C   0  0  0  0  0  0  0  0  0  0  0  0
    1.5716   -1.2014   -0.0253 C   0  0  0  0  0  0  0  0  0  0  0  0
    7.0128    2.1499    2.0464 C   0  0  0  0  0  0  0  0  0  0  0  0
    8.3634   -0.1233    2.0135 C   0  0  0  0  0  0  0  0  0  0  0  0
    8.3571    1.4247    2.0717 C   0  0  0  0  0  0  0  0  0  0  0  0
    6.4497    2.3974    3.2833 N   0  0  0  0  0  0  0  0  0  0  0  0
    6.4208    2.4150    1.0006 O   0  0  0  0  0  0  0  0  0  0  0  0
    5.1202    2.8886    3.3017 O   0  0  0  0  0  0  0  0  0  0  0  0
    7.7929   -0.7272    0.8404 O   0  0  0  0  0  0  0  0  0  0  0  0
    3.7419   -0.0868    0.1415 C   0  0  0  0  0  0  0  0  0  0  0  0
   -1.9393    0.0160   -0.0189 C   0  0  0  0  0  0  0  0  0  0  0  0
   -3.0902    0.0027    0.0380 N   0  0  0  0  0  0  0  0  0  0  0  0
  1  9  2  0
  1  2  1  0
  2  3  2  0
  3  4  1  0
  4 19  1  0
  5 10  2  0
  6  5  1  0
  7  8  2  0
  8 10  1  0
  9 11  1  0
 10 18  1  0
 11  4  2  0
 12 14  1  0
 13 14  1  0
 15 12  1  0
 16 12  2  0
 17 15  1  0
 18 13  1  0
 19  7  1  0
 19  6  2  0
 20  1  1  0
 21 20  3  0
M  END
>  <DRUGBANK_ID>  (1) 
DB08030

>  <COMMON_NAME>  (1) 
3-[(4'-cyanobiphenyl-4-yl)oxy]-N-hydroxypropanamide

$$$$
