
     RDKit          3D

  8  7  0  0  0  0  0  0  0  0999 V2000
    0.9654    0.1013    0.0874 O   0  0  0  0  0  0  0  0  0  0  0  0
    0.5251   -1.2451    0.1585 C   0  0  0  0  0  0  0  0  0  0  0  0
    1.1061   -2.0635   -0.9906 C   0  0  0  0  0  0  0  0  0  0  0  0
    2.6385   -2.1242   -0.9646 C   0  0  0  0  0  0  0  0  0  0  0  0
    3.1929   -2.7611    0.3149 C   0  0  0  0  0  0  0  0  0  0  0  0
    2.7603   -4.2218    0.5032 C   0  0  0  0  0  0  0  0  0  0  0  0
    3.1806   -5.1415   -0.6348 C   0  0  0  0  0  0  0  0  0  0  0  0
    5.1190   -5.2863   -0.7426 Br  0  0  0  0  0  0  0  0  0  0  0  0
  1  2  1  0
  2  3  1  0
  3  4  1  0
  4  5  1  0
  5  6  1  0
  6  7  1  0
  7  8  1  0
M  END
>  <DRUGBANK_ID>  (1) 
DB04637

>  <COMMON_NAME>  (1) 
6-Bromo-1-hexanol

>  <CAS_NUMBER>  (1) 
4286-55-9

>  <UNII>  (1) 
3U3A1ZLY0T

$$$$
