
     RDKit          3D

 30 31  0  0  0  0  0  0  0  0999 V2000
   -2.8778    0.1858    0.9041 C   0  0  0  0  0  0  0  0  0  0  0  0
   -2.4137   -7.3215   -3.7075 C   0  0  0  0  0  0  0  0  0  0  0  0
    5.6536   -1.3577    0.2864 C   0  0  0  0  0  0  0  0  0  0  0  0
   -3.5331   -0.2798   -2.0350 C   0  0  0  0  0  0  0  0  0  0  0  0
    1.9552   -0.8623   -1.9202 C   0  0  0  0  0  0  0  0  0  0  0  0
    0.7910   -1.1351   -1.1071 C   0  0  0  0  0  0  0  0  0  0  0  0
    2.9378    0.2624   -1.4365 C   0  0  0  0  0  0  0  0  0  0  0  0
   -0.0545    0.0265   -0.9469 C   0  0  0  0  0  0  0  0  0  0  0  0
    0.7837    1.6723    1.2528 C   0  0  0  0  0  0  0  0  0  0  0  0
   -0.6964   -6.0335   -0.6687 C   0  0  0  0  0  0  0  0  0  0  0  0
    1.4040    0.3624    1.6060 C   0  0  0  0  0  0  0  0  0  0  0  0
   -1.1028   -4.6980   -0.6662 C   0  0  0  0  0  0  0  0  0  0  0  0
   -0.7279    1.6808    1.1115 C   0  0  0  0  0  0  0  0  0  0  0  0
   -1.1969   -6.9002   -1.6322 C   0  0  0  0  0  0  0  0  0  0  0  0
    3.8481    0.1461   -0.1445 C   0  0  0  0  0  0  0  0  0  0  0  0
   -1.1217    0.3954   -1.8920 C   0  0  0  0  0  0  0  0  0  0  0  0
   -0.7134   -0.9705    1.6334 C   0  0  0  0  0  0  0  0  0  0  0  0
   -2.5252   -5.1761   -2.5442 C   0  0  0  0  0  0  0  0  0  0  0  0
    0.7729   -0.9092    1.8586 C   0  0  0  0  0  0  0  0  0  0  0  0
   -2.0576   -4.2715   -1.5956 C   0  0  0  0  0  0  0  0  0  0  0  0
    3.3626   -2.3321    0.4572 C   0  0  0  0  0  0  0  0  0  0  0  0
   -1.7897   -1.9965   -2.1583 C   0  0  0  0  0  0  0  0  0  0  0  0
   -1.4268    0.3672    1.3339 N   0  0  0  0  0  0  0  0  0  0  0  0
   -2.0536   -6.4477   -2.5767 N   0  0  0  0  0  0  0  0  0  0  0  0
    4.2153   -1.2303    0.1347 N   0  0  0  0  0  0  0  0  0  0  0  0
   -2.1181   -0.6816   -1.9301 N   0  0  0  0  0  0  0  0  0  0  0  0
    3.7314   -3.4982    0.1957 O   0  0  0  0  0  0  0  0  0  0  0  0
   -0.6520   -2.3663   -2.7440 O   0  0  0  0  0  0  0  0  0  0  0  0
    1.9172   -2.0833    1.1975 O   0  0  0  0  0  0  0  0  0  0  0  0
   -2.5843   -2.9600   -1.5984 O   0  0  0  0  0  0  0  0  0  0  0  0
  6  5  1  0
  7  5  1  0
  8  6  1  0
 11  9  2  0
 12 10  2  0
 13  9  1  0
 14 10  1  0
 15  7  1  0
 16  8  1  0
 19 11  1  0
 19 17  2  0
 20 12  1  0
 20 18  2  0
 23  1  1  0
 23 13  2  0
 23 17  1  0
 24  2  1  0
 24 14  2  0
 24 18  1  0
 25  3  1  0
 25 15  1  0
 25 21  1  0
 26  4  1  0
 26 16  1  0
 26 22  1  0
 27 21  2  0
 28 22  2  0
 29 19  1  0
 29 21  1  0
 30 20  1  0
 30 22  1  0
M  CHG  2  23   1  24   1
M  END
>  <DRUGBANK_ID>  (1) 
DB13694

>  <COMMON_NAME>  (1) 
Distigmine

>  <CAS_NUMBER>  (1) 
17299-00-2

>  <UNII>  (1) 
T940307O7B

$$$$
