
     RDKit          3D

 33 38  0  0  0  0  0  0  0  0999 V2000
   -0.9194   -1.0623   -0.2480 C   0  0  1  0  0  0  0  0  0  0  0  0
   -1.3586    0.3024   -0.1672 O   0  0  0  0  0  0  0  0  0  0  0  0
   -0.2729    1.2109   -0.4824 C   0  0  0  0  0  0  0  0  0  0  0  0
    0.9827    0.4240   -0.4407 C   0  0  0  0  0  0  0  0  0  0  0  0
    0.5759   -0.9951   -0.4384 C   0  0  0  0  0  0  0  0  0  0  0  0
    2.9118    1.0525    2.0028 C   0  0  0  0  0  0  0  0  0  0  0  0
    3.2628   -0.2639    1.6989 C   0  0  0  0  0  0  0  0  0  0  0  0
    2.4669   -1.3297    2.0827 C   0  0  0  0  0  0  0  0  0  0  0  0
    1.2634   -1.1692    2.7812 C   0  0  0  0  0  0  0  0  0  0  0  0
    0.8577    0.1455    3.0522 C   0  0  0  0  0  0  0  0  0  0  0  0
    1.7022    1.2270    2.7293 C   0  0  0  0  0  0  0  0  0  0  0  0
    0.3753   -2.3864    3.0259 C   0  0  1  0  0  0  0  0  0  0  0  0
   -1.0959   -2.0453    2.4121 C   0  0  0  0  0  0  0  0  0  0  0  0
    0.6003   -3.9368    1.0075 C   0  0  1  0  0  0  0  0  0  0  0  0
    1.1068   -3.7939    2.5941 C   0  0  0  0  0  0  0  0  0  0  0  0
    1.6973   -6.1531    0.9360 C   0  0  2  0  0  0  0  0  0  0  0  0
    0.9427   -5.1357    0.1507 C   0  0  0  0  0  0  0  0  0  0  0  0
    1.8020   -5.9936    2.4201 C   0  0  0  0  0  0  0  0  0  0  0  0
    2.0388   -4.7533    3.1725 C   0  0  0  0  0  0  0  0  0  0  0  0
    3.1618   -5.4203    4.5304 C   0  0  0  0  0  0  0  0  0  0  0  0
    2.8010   -6.9214    5.1429 C   0  0  0  0  0  0  0  0  0  0  0  0
    1.4899   -6.8035    4.5869 C   0  0  0  0  0  0  0  0  0  0  0  0
    1.5466   -7.0843    3.1560 C   0  0  0  0  0  0  0  0  0  0  0  0
   -1.3479   -1.9582    0.9130 C   0  0  2  0  0  0  0  0  0  0  0  0
   -0.6819   -3.2970    0.3775 C   0  0  2  0  0  0  0  0  0  0  0  0
   -1.8544   -3.6365   -0.4340 C   0  0  0  0  0  0  0  0  0  0  0  0
   -1.6396   -2.0809   -1.3201 C   0  0  0  0  0  0  0  0  0  0  0  0
   -3.0606   -1.6773    0.7906 C   0  0  0  0  0  0  0  0  0  0  0  0
    3.0704   -6.3086    0.3431 C   0  0  0  0  0  0  0  0  0  0  0  0
    0.6254   -6.0723    5.1660 O   0  0  0  0  0  0  0  0  0  0  0  0
    3.5603    2.1143    1.3866 N   0  0  0  0  0  0  0  0  0  0  0  0
    4.7047    1.9404    0.4994 C   0  0  0  0  0  0  0  0  0  0  0  0
    3.1601    3.4752    1.6975 C   0  0  0  0  0  0  0  0  0  0  0  0
  1  5  1  6
  1  2  1  0
  1 24  1  0
  2  3  1  0
  3  4  1  0
  4  5  1  0
  6  7  2  0
  6 31  1  0
  7  8  1  0
  8  9  2  0
  9 10  1  0
 10 11  2  0
 11  6  1  0
 12  9  1  6
 12 15  1  0
 12 13  1  0
 14 17  1  1
 14 25  1  0
 14 15  1  0
 15 19  2  0
 16 17  1  0
 16 29  1  6
 18 16  1  0
 18 19  1  0
 18 23  2  0
 19 20  1  0
 20 21  1  0
 21 22  1  0
 22 23  1  0
 22 30  2  0
 24 25  1  0
 24 28  1  1
 24 13  1  0
 25 26  1  1
 26 27  1  0
 27  1  1  0
 31 32  1  0
 31 33  1  0
M  END
>  <DRUGBANK_ID>  (1) 
DB15585

>  <COMMON_NAME>  (1) 
ORG-31710

>  <CAS_NUMBER>  (1) 
118968-41-5

>  <UNII>  (1) 
X2V3MG6PE8

$$$$
