246
     RDKit          3D

 28 32  0  0  0  0  0  0  0  0999 V2000
    2.1586   -0.5593    1.6664 Cl  0  0  0  0  0  0  0  0  0  0  0  0
    0.2218   -4.6545   -3.8448 S   0  0  0  0  0  0  0  0  0  0  0  0
    8.1544   -0.6285    1.6354 O   0  0  0  0  0  0  0  0  0  0  0  0
    0.6519    1.6085   -1.4733 N   0  0  0  0  0  0  0  0  0  0  0  0
    0.2882   -1.1281   -2.5204 N   0  0  0  0  0  0  0  0  0  0  0  0
    0.2602   -2.9992   -4.0592 N   0  0  0  0  0  0  0  0  0  0  0  0
    6.7048   -1.8868    0.2313 N   0  0  0  0  0  0  0  0  0  0  0  0
    0.3187    0.4591   -0.6383 C   0  0  0  0  0  0  0  0  0  0  0  0
    0.3282    1.2964   -2.8814 C   0  0  0  0  0  0  0  0  0  0  0  0
    0.8504   -0.9013   -1.1744 C   0  0  0  0  0  0  0  0  0  0  0  0
    0.8303   -0.0897   -3.4157 C   0  0  0  0  0  0  0  0  0  0  0  0
    1.8855    2.3772   -1.2863 C   0  0  0  0  0  0  0  0  0  0  0  0
    2.7780    2.2742   -0.0057 C   0  0  0  0  0  0  0  0  0  0  0  0
   -0.0104   -2.4203   -2.8905 C   0  0  0  0  0  0  0  0  0  0  0  0
    3.7103    1.0633    0.0765 C   0  0  0  0  0  0  0  0  0  0  0  0
   -0.6744   -3.3096   -1.9380 C   0  0  0  0  0  0  0  0  0  0  0  0
    5.8867    0.1719   -0.4161 C   0  0  0  0  0  0  0  0  0  0  0  0
    5.0483    1.2643   -0.2483 C   0  0  0  0  0  0  0  0  0  0  0  0
    5.5173   -1.1484   -0.1628 C   0  0  0  0  0  0  0  0  0  0  0  0
    3.3931   -0.2597    0.4785 C   0  0  0  0  0  0  0  0  0  0  0  0
    7.3637    0.1910   -0.5427 C   0  0  0  0  0  0  0  0  0  0  0  0
   -0.4311   -4.6447   -2.2533 C   0  0  0  0  0  0  0  0  0  0  0  0
    4.2293   -1.3898    0.2456 C   0  0  0  0  0  0  0  0  0  0  0  0
    7.6213   -0.8390    0.5392 C   0  0  0  0  0  0  0  0  0  0  0  0
   -1.3777   -3.0344   -0.7393 C   0  0  0  0  0  0  0  0  0  0  0  0
   -0.7271   -5.6841   -1.3439 C   0  0  0  0  0  0  0  0  0  0  0  0
   -1.5986   -4.0325    0.2039 C   0  0  0  0  0  0  0  0  0  0  0  0
   -1.2537   -5.3436   -0.0873 C   0  0  0  0  0  0  0  0  0  0  0  0
  1 20  1  0
  2  6  1  0
  2 22  1  0
  3 24  2  0
  4  8  1  0
  4  9  1  0
  4 12  1  0
  5 10  1  0
  5 11  1  0
  5 14  1  0
  6 14  2  0
  7 19  1  0
  7 24  1  0
  8 10  1  0
  9 11  1  0
 12 13  1  0
 13 15  1  0
 14 16  1  0
 15 18  2  0
 15 20  1  0
 16 22  2  0
 16 25  1  0
 17 18  1  0
 17 19  2  0
 17 21  1  0
 19 23  1  0
 20 23  2  0
 21 24  1  0
 22 26  1  0
 25 27  2  0
 26 28  2  0
 27 28  1  0
M  END
>  <DRUGBANK_ID>  (1) 
DB00246

>  <SECONDARY_ACCESSION_NUMBERS>  (1) 
APRD00540

>  <COMMON_NAME>  (1) 
Ziprasidone

>  <CAS_NUMBER>  (1) 
146939-27-7

>  <UNII>  (1) 
6UKA5VEJ6X

>  <SYNONYMS>  (1) 
Ziprasidona; Ziprasidone; Ziprasidonum

$$$$
