
     RDKit          3D

 22 23  0  0  0  0  0  0  0  0999 V2000
    0.9605    0.0259    0.0882 P   0  0  0  0  0  0  0  0  0  0  0  0
    0.8628    0.9023   -1.1670 O   0  0  0  0  0  0  0  0  0  0  0  0
    1.0361   -1.4790   -0.5300 O   0  0  0  0  0  0  0  0  0  0  0  0
   -0.7695    0.0259    0.0882 O   0  0  0  0  0  0  0  0  0  0  0  0
    2.6905    0.0259    0.0882 O   0  0  0  0  0  0  0  0  0  0  0  0
    3.2585    1.1792    0.7591 C   0  0  0  0  0  0  0  0  0  0  0  0
    2.6972    2.4814    0.1648 C   0  0  1  0  0  0  0  0  0  0  0  0
    1.3622    2.5980    0.7301 O   0  0  0  0  0  0  0  0  0  0  0  0
    3.3793    3.8274    0.4149 C   0  0  1  0  0  0  0  0  0  0  0  0
    3.1447    4.7182   -0.7026 O   0  0  0  0  0  0  0  0  0  0  0  0
    2.6603    4.4023    1.6237 C   0  0  1  0  0  0  0  0  0  0  0  0
    2.5888    5.8301    1.6332 O   0  0  0  0  0  0  0  0  0  0  0  0
    1.2624    3.8024    1.4786 C   0  0  2  0  0  0  0  0  0  0  0  0
    0.5494    3.5512    2.7238 N   0  0  0  0  0  0  0  0  0  0  0  0
    1.1882    2.7390    3.6658 C   0  0  0  0  0  0  0  0  0  0  0  0
    2.2795    2.1993    3.5072 O   0  0  0  0  0  0  0  0  0  0  0  0
    0.5506    2.5550    4.8563 N   0  0  0  0  0  0  0  0  0  0  0  0
   -0.6142    3.1353    5.2240 C   0  0  0  0  0  0  0  0  0  0  0  0
   -1.1158    2.9801    6.3388 O   0  0  0  0  0  0  0  0  0  0  0  0
   -1.2489    3.9734    4.2144 C   0  0  0  0  0  0  0  0  0  0  0  0
   -0.6639    4.1487    3.0280 C   0  0  0  0  0  0  0  0  0  0  0  0
   -1.3208    4.9714    2.1371 O   0  0  0  0  0  0  0  0  0  0  0  0
  2  1  2  0
  3  1  1  0
  4  1  1  0
  5  1  1  0
  6  5  1  0
  7  6  1  1
  7  8  1  0
  9  7  1  0
  9 10  1  6
 11  9  1  0
 11 12  1  6
 13  8  1  0
 13 11  1  0
 13 14  1  1
 15 14  1  0
 15 16  2  0
 15 17  1  0
 18 17  1  0
 18 19  2  0
 18 20  1  0
 20 21  2  0
 21 14  1  0
 21 22  1  0
M  END
>  <DRUGBANK_ID>  (1) 
DB02890

>  <SECONDARY_ACCESSION_NUMBERS>  (1) 
EXPT00724

>  <COMMON_NAME>  (1) 
6-hydroxyuridine-5'-phosphate

>  <CAS_NUMBER>  (1) 
29741-00-2

>  <SYNONYMS>  (1) 
6-hydroxy-UMP

$$$$
