CIN
     RDKit          3D

 14 14  0  0  0  0  0  0  0  0999 V2000
    1.3853   -0.2107    0.0374 C   0  0  0  0  0  0  0  0  0  0  0  0
    0.4974   -1.2983    0.0176 C   0  0  0  0  0  0  0  0  0  0  0  0
   -0.8935   -1.1009   -0.0244 C   0  0  0  0  0  0  0  0  0  0  0  0
   -1.4211    0.1940   -0.0374 C   0  0  0  0  0  0  0  0  0  0  0  0
   -0.5469    1.2815    0.0128 C   0  0  0  0  0  0  0  0  0  0  0  0
    0.8377    1.0794   -0.0041 C   0  0  0  0  0  0  0  0  0  0  0  0
    2.8383   -0.4606    0.1591 C   0  0  0  0  0  0  0  0  0  0  0  0
    3.7775    0.4982    0.2316 C   0  0  0  0  0  0  0  0  0  0  0  0
    5.2173    0.2631    0.4044 C   0  0  0  0  0  0  0  0  0  0  0  0
   -2.8737    0.4700   -0.1677 C   0  0  0  0  0  0  0  0  0  0  0  0
    6.0488    1.1541    0.4610 O   0  0  0  0  0  0  0  0  0  0  0  0
    5.5554   -1.0296    0.5022 O   0  0  0  0  0  0  0  0  0  0  0  0
   -3.3835    1.5782   -0.2176 O   0  0  0  0  0  0  0  0  0  0  0  0
   -3.6154   -0.6447   -0.2859 O   0  0  0  0  0  0  0  0  0  0  0  0
  1  2  2  0
  1  6  1  0
  1  7  1  0
  2  3  1  0
  3  4  2  0
  4  5  1  0
  4 10  1  0
  5  6  2  0
  7  8  2  0
  8  9  1  0
  9 11  2  0
  9 12  1  0
 10 13  2  0
 10 14  1  0
M  END
>  <DRUGBANK_ID>  (1) 
DB02126

>  <SECONDARY_ACCESSION_NUMBERS>  (1) 
EXPT00919

>  <COMMON_NAME>  (1) 
4-Carboxycinnamic Acid

$$$$
