
     RDKit          3D

 30 29  0  0  1  0  0  0  0  0999 V2000
   -2.6830    4.6543    0.4747 C   0  0  0  0  0  0  0  0  0  0  0  0
   -1.5765    4.1934   -0.4623 C   0  0  0  0  0  0  0  0  0  0  0  0
   -0.5946    5.3136   -0.7929 C   0  0  0  0  0  0  0  0  0  0  0  0
   -0.8462    2.9029   -0.0685 C   0  0  0  0  0  0  0  0  0  0  0  0
   -1.5124    1.5082   -0.2334 C   0  0  2  0  0  0  0  0  0  0  0  0
   -0.9960    0.6387   -1.3374 N   0  0  0  0  0  0  0  0  0  0  0  0
   -0.2175    1.0226   -2.4084 C   0  0  0  0  0  0  0  0  0  0  0  0
    0.0131   -0.0062   -3.4754 C   0  0  0  0  0  0  0  0  0  0  0  0
    0.2475    2.1435   -2.5862 O   0  0  0  0  0  0  0  0  0  0  0  0
   -3.0596    1.4635   -0.2278 C   0  0  0  0  0  0  0  0  0  0  0  0
   -3.6966    1.1243    0.7734 O   0  0  0  0  0  0  0  0  0  0  0  0
   -3.7766    1.8133   -1.3329 N   0  0  0  0  0  0  0  0  0  0  0  0
   -3.2710    2.3929   -2.5736 C   0  0  1  0  0  0  0  0  0  0  0  0
   -3.3482    1.3928   -3.7690 C   0  0  0  0  0  0  0  0  0  0  0  0
   -4.6714    1.4587   -4.5062 C   0  0  0  0  0  0  0  0  0  0  0  0
   -4.5894    2.8100   -5.2642 C   0  0  0  0  0  0  0  0  0  0  0  0
   -5.0542    0.3570   -5.4658 C   0  0  0  0  0  0  0  0  0  0  0  0
   -3.8040    3.8827   -2.7630 C   0  0  0  0  0  0  0  0  0  0  0  0
   -3.0493    4.8004   -3.1195 O   0  0  0  0  0  0  0  0  0  0  0  0
   -5.1427    4.1911   -2.7992 N   0  0  0  0  0  0  0  0  0  0  0  0
   -6.3054    3.2772   -2.8699 C   0  0  1  0  0  0  0  0  0  0  0  0
   -7.3065    3.6691   -1.8215 C   0  0  0  0  0  0  0  0  0  0  0  0
   -7.9099    5.0223   -2.1484 C   0  0  0  0  0  0  0  0  0  0  0  0
   -8.6130    5.1008   -3.4947 C   0  0  0  0  0  0  0  0  0  0  0  0
   -9.5518    4.0002   -3.6684 N   0  0  0  0  0  0  0  0  0  0  0  0
  -10.8170    4.2352   -4.0433 C   0  0  0  0  0  0  0  0  0  0  0  0
  -11.6304    3.1725   -4.0217 N   0  0  0  0  0  0  0  0  0  0  0  0
  -11.2058    5.4207   -4.3383 N   0  0  0  0  0  0  0  0  0  0  0  0
   -7.0922    2.8694   -4.2261 C   0  0  0  0  0  0  0  0  0  0  0  0
   -7.6760    1.8509   -4.4109 O   0  0  0  0  0  0  0  0  0  0  0  0
  1  2  1  0
  2  3  1  0
  2  4  1  0
  5 10  1  0
  5  6  1  0
  5  4  1  6
  6  7  1  0
  7  8  1  0
  7  9  2  0
 10 11  2  0
 10 12  1  0
 13 12  1  0
 13 14  1  6
 13 18  1  0
 14 15  1  0
 15 16  1  0
 15 17  1  0
 18 19  2  0
 18 20  1  0
 21 20  1  0
 21 22  1  1
 21 29  1  0
 22 23  1  0
 23 24  1  0
 24 25  1  0
 25 26  1  0
 26 27  1  0
 26 28  2  0
 29 30  2  0
M  END
>  <DRUGBANK_ID>  (1) 
DB16961

>  <COMMON_NAME>  (1) 
Leupeptin

>  <CAS_NUMBER>  (1) 
55123-66-5

>  <UNII>  (1) 
J97339NR3V

>  <SYNONYMS>  (1) 
Acetyl-l-leucyl-l-leucyl-l-argininal; Acetyl-leucyl-leucyl-argininal; L-leucinamide, n-acetyl-l-leucyl-n-((1s)-4-((aminoiminomethyl)amino)-1-formylbutyl)-; L-leucinamide, n-acetyl-l-leucyl-n-(4-((aminoiminomethyl)amino)-1-formylbutyl)-, (s)-; Leupeptins

$$$$
