
     RDKit          3D

 30 35  0  0  0  0  0  0  0  0999 V2000
    2.0161   -0.9947   -0.1230 N   0  0  0  0  0  0  0  0  0  0  0  0
    2.9699   -0.0167   -0.2775 C   0  0  0  0  0  0  0  0  0  0  0  0
    2.4413    1.4472   -0.5233 C   0  0  0  0  0  0  0  0  0  0  0  0
    1.1361    1.7459   -0.4048 C   0  0  0  0  0  0  0  0  0  0  0  0
    0.2125    0.6381   -0.1140 C   0  0  0  0  0  0  0  0  0  0  0  0
   -1.1458    0.9093   -0.0097 C   0  0  0  0  0  0  0  0  0  0  0  0
   -2.0593   -0.1242    0.0261 C   0  0  0  0  0  0  0  0  0  0  0  0
   -1.6269   -1.4458    0.0378 C   0  0  0  0  0  0  0  0  0  0  0  0
   -0.2630   -1.7432    0.0272 C   0  0  0  0  0  0  0  0  0  0  0  0
    0.6545   -0.7001   -0.0518 C   0  0  0  0  0  0  0  0  0  0  0  0
    4.1392   -0.3260   -0.0456 O   0  0  0  0  0  0  0  0  0  0  0  0
   -3.7304    0.2641    0.0151 Cl  0  0  0  0  0  0  0  0  0  0  0  0
    3.3152    2.6490   -0.3713 C   0  0  0  0  0  0  0  0  0  0  0  0
    4.5994    2.9122   -1.3970 N   0  0  0  0  0  0  0  0  0  0  0  0
    5.9184    3.8526   -0.5723 C   0  0  0  0  0  0  0  0  0  0  0  0
    5.6007    4.2914    1.0038 C   0  0  0  0  0  0  0  0  0  0  0  0
    3.9286    3.6021    1.2944 N   0  0  0  0  0  0  0  0  0  0  0  0
    6.8869    4.5922   -1.1520 C   0  0  0  0  0  0  0  0  0  0  0  0
    7.3535    5.7025   -0.3815 C   0  0  0  0  0  0  0  0  0  0  0  0
    6.9279    6.2087    0.8564 C   0  0  0  0  0  0  0  0  0  0  0  0
    6.0121    5.5368    1.5370 C   0  0  0  0  0  0  0  0  0  0  0  0
    0.6809    3.0796   -0.4655 N   0  0  0  0  0  0  0  0  0  0  0  0
    4.0421    4.4145   -0.2125 N   0  0  0  0  0  0  0  0  0  0  0  0
    2.7329    4.6351   -0.9880 C   0  0  0  0  0  0  0  0  0  0  0  0
    1.5219    4.1756   -0.0120 C   0  0  2  0  0  0  0  0  0  0  0  0
    1.8949    3.5789    1.5975 C   0  0  0  0  0  0  0  0  0  0  0  0
    2.4225    5.0330    2.1959 C   0  0  0  0  0  0  0  0  0  0  0  0
    3.5261    5.5351    1.2144 C   0  0  0  0  0  0  0  0  0  0  0  0
    4.8076    2.4470    0.5037 C   0  0  0  0  0  0  0  0  0  0  0  0
    3.1633    1.9908    1.7089 C   0  0  0  0  0  0  0  0  0  0  0  0
  1  2  1  0
  1 10  1  0
  2  3  1  0
  2 11  2  0
  3  4  2  0
  3 13  1  0
  4  5  1  0
  4 22  1  0
  5  6  1  0
  5 10  2  0
  6  7  2  0
  7  8  1  0
  7 12  1  0
  8  9  2  0
  9 10  1  0
 13 14  2  0
 13 17  1  0
 14 15  1  0
 15 16  2  0
 16 17  1  0
 18 19  2  0
 18 15  1  0
 19 20  1  0
 20 21  2  0
 21 16  1  0
 23 24  1  0
 23 28  1  0
 23 29  1  0
 24 25  1  0
 25 26  1  0
 25 22  1  6
 26 27  1  0
 27 28  1  0
 29 30  1  0
 30 26  1  0
M  END
>  <DRUGBANK_ID>  (1) 
DB06852

>  <COMMON_NAME>  (1) 
CHIR-124

>  <CAS_NUMBER>  (1) 
405168-58-3

>  <UNII>  (1) 
5K64W8EU3E

$$$$
