
     RDKit          3D

 16 18  0  0  0  0  0  0  0  0999 V2000
    0.9227   -1.4228   -0.0014 C   0  0  0  0  0  0  0  0  0  0  0  0
   -0.2715   -0.7124   -0.0034 C   0  0  0  0  0  0  0  0  0  0  0  0
   -0.2664    0.6754    0.0017 C   0  0  0  0  0  0  0  0  0  0  0  0
    0.8529    1.4152    0.0016 N   0  0  0  0  0  0  0  0  0  0  0  0
    1.9593    0.6660   -0.0129 C   0  0  0  0  0  0  0  0  0  0  0  0
    2.0535   -0.6817   -0.0098 N   0  0  0  0  0  0  0  0  0  0  0  0
   -1.5396    1.1849    0.0008 N   0  0  0  0  0  0  0  0  0  0  0  0
   -2.3244    0.1333   -0.0236 C   0  0  0  0  0  0  0  0  0  0  0  0
   -1.6029   -1.0205   -0.0222 N   0  0  0  0  0  0  0  0  0  0  0  0
    1.0804   -2.7832    0.0246 N   0  0  0  0  0  0  0  0  0  0  0  0
    0.0361   -3.7686    0.0038 C   0  0  0  0  0  0  0  0  0  0  0  0
   -0.0294   -4.6783   -1.1639 C   0  0  0  0  0  0  0  0  0  0  0  0
   -0.3118   -6.0236   -1.2334 C   0  0  0  0  0  0  0  0  0  0  0  0
   -0.2471   -6.3743   -2.5972 C   0  0  0  0  0  0  0  0  0  0  0  0
    0.0217   -5.2110   -3.2813 C   0  0  0  0  0  0  0  0  0  0  0  0
    0.1347   -4.1651   -2.4174 O   0  0  0  0  0  0  0  0  0  0  0  0
  1  2  2  0
  1  6  1  0
  1 10  1  0
  2  3  1  0
  2  9  1  0
  3  4  2  0
  3  7  1  0
  4  5  1  0
  5  6  2  0
  7  8  2  0
  8  9  1  0
 10 11  1  0
 11 12  1  0
 12 13  2  0
 12 16  1  0
 13 14  1  0
 14 15  2  0
 15 16  1  0
M  END
>  <DRUGBANK_ID>  (1) 
DB11336

>  <COMMON_NAME>  (1) 
Kinetin

>  <CAS_NUMBER>  (1) 
525-79-1

>  <UNII>  (1) 
P39Y9652YJ

$$$$
