809
     RDKit          3D

 25 28  0  0  0  0  0  0  0  0999 V2000
    1.2079    0.3828   -0.8852 O   0  0  0  0  0  0  0  0  0  0  0  0
    2.3213    0.1244   -0.4747 C   0  0  0  0  0  0  0  0  0  0  0  0
    3.2453    1.1042   -0.2465 N   0  0  0  0  0  0  0  0  0  0  0  0
    4.4095    0.7116    0.3504 C   0  0  0  0  0  0  0  0  0  0  0  0
    5.2263    1.5181    0.7719 O   0  0  0  0  0  0  0  0  0  0  0  0
    4.3315   -0.7368    0.3372 C   0  0  0  0  0  0  0  0  0  0  0  0
    3.0407   -1.0754   -0.1282 C   0  0  0  0  0  0  0  0  0  0  0  0
    2.7562   -2.4661   -0.1409 C   0  0  0  0  0  0  0  0  0  0  0  0
    1.5128   -3.0327   -0.3922 C   0  0  0  0  0  0  0  0  0  0  0  0
    0.1914   -2.3944   -0.6279 C   0  0  0  0  0  0  0  0  0  0  0  0
   -0.4116   -1.7406    0.6310 C   0  0  0  0  0  0  0  0  0  0  0  0
    0.4089   -0.8325    1.3599 O   0  0  0  0  0  0  0  0  0  0  0  0
    1.7771   -4.3989   -0.3515 C   0  0  0  0  0  0  0  0  0  0  0  0
    3.1027   -4.6011   -0.0179 N   0  0  0  0  0  0  0  0  0  0  0  0
    3.7291   -5.8988    0.1171 C   0  0  0  0  0  0  0  0  0  0  0  0
    3.7242   -3.3847    0.1624 C   0  0  0  0  0  0  0  0  0  0  0  0
    5.0097   -3.0362    0.5485 C   0  0  0  0  0  0  0  0  0  0  0  0
    5.3160   -1.6788    0.6804 C   0  0  0  0  0  0  0  0  0  0  0  0
    6.6496   -1.2613    1.0688 C   0  0  0  0  0  0  0  0  0  0  0  0
    7.7190   -1.5419    0.1976 C   0  0  0  0  0  0  0  0  0  0  0  0
    6.9193   -0.6017    2.2771 C   0  0  0  0  0  0  0  0  0  0  0  0
    5.6808   -0.2688    3.4426 Cl  0  0  0  0  0  0  0  0  0  0  0  0
    8.2202   -0.2112    2.5811 C   0  0  0  0  0  0  0  0  0  0  0  0
    9.2306   -0.3516    1.6302 C   0  0  0  0  0  0  0  0  0  0  0  0
    8.9658   -0.9708    0.4140 C   0  0  0  0  0  0  0  0  0  0  0  0
  1  2  2  0
  2  3  1  0
  2  7  1  0
  3  4  1  0
  4  5  2  0
  4  6  1  0
  6  7  2  0
  6 18  1  0
  7  8  1  0
  8  9  1  0
  8 16  2  0
  9 10  1  0
  9 13  2  0
 10 11  1  0
 11 12  1  0
 13 14  1  0
 14 15  1  0
 14 16  1  0
 16 17  1  0
 17 18  2  0
 18 19  1  0
 19 20  2  0
 19 21  1  0
 20 25  1  0
 21 22  1  0
 21 23  2  0
 23 24  1  0
 24 25  2  0
M  END
>  <DRUGBANK_ID>  (1) 
DB07257

>  <COMMON_NAME>  (1) 
4-(2-chlorophenyl)-8-(2-hydroxyethyl)-6-methylpyrrolo[3,4-e]indole-1,3(2H,6H)-dione

$$$$
