BBH
     RDKit          3D

 29 31  0  0  0  0  0  0  0  0999 V2000
    1.2321    0.0023    0.6154 C   0  0  0  0  0  0  0  0  0  0  0  0
    0.2280   -0.9597    0.8807 C   0  0  0  0  0  0  0  0  0  0  0  0
   -1.0449   -0.8726    0.3080 C   0  0  0  0  0  0  0  0  0  0  0  0
   -1.5227    0.3702   -0.0158 C   0  0  0  0  0  0  0  0  0  0  0  0
   -0.6048    1.4364   -0.0127 C   0  0  0  0  0  0  0  0  0  0  0  0
    0.7956    1.2268    0.1181 C   0  0  0  0  0  0  0  0  0  0  0  0
   -2.8478    0.6153   -0.2590 O   0  0  0  0  0  0  0  0  0  0  0  0
   -3.6975   -0.5426   -0.3358 C   0  0  0  0  0  0  0  0  0  0  0  0
    3.0918   -0.4187    0.6450 S   0  0  0  0  0  0  0  0  0  0  0  0
    3.7041    0.4727   -0.3113 O   0  0  0  0  0  0  0  0  0  0  0  0
    3.5170   -0.3776    2.0418 O   0  0  0  0  0  0  0  0  0  0  0  0
    3.3519   -2.0163   -0.0538 N   0  0  0  0  0  0  0  0  0  0  0  0
    2.8355   -1.9802   -1.4475 C   0  0  2  0  0  0  0  0  0  0  0  0
    1.4097   -2.3825   -1.3293 C   0  0  0  0  0  0  0  0  0  0  0  0
    1.0544   -3.7067   -0.7477 C   0  0  0  0  0  0  0  0  0  0  0  0
    1.6944   -3.8431    0.4804 N   0  0  0  0  0  0  0  0  0  0  0  0
    3.0811   -3.3676    0.5516 C   0  0  0  0  0  0  0  0  0  0  0  0
    0.1155   -4.3527   -1.1914 O   0  0  0  0  0  0  0  0  0  0  0  0
    3.4225   -2.7241   -2.5754 C   0  0  0  0  0  0  0  0  0  0  0  0
    2.4432   -3.1344   -3.4653 N   0  0  0  0  0  0  0  0  0  0  0  0
    2.8629   -3.9003   -4.5504 O   0  0  0  0  0  0  0  0  0  0  0  0
    4.6225   -2.8797   -2.7557 O   0  0  0  0  0  0  0  0  0  0  0  0
    0.9993   -4.4744    1.6181 C   0  0  0  0  0  0  0  0  0  0  0  0
    3.2527   -7.4097    2.4033 C   0  0  0  0  0  0  0  0  0  0  0  0
    2.7682   -6.1181    2.2767 C   0  0  0  0  0  0  0  0  0  0  0  0
    1.4406   -5.8755    1.9103 C   0  0  0  0  0  0  0  0  0  0  0  0
    0.5609   -6.9596    1.7979 C   0  0  0  0  0  0  0  0  0  0  0  0
    1.0434   -8.2608    1.9458 C   0  0  0  0  0  0  0  0  0  0  0  0
    2.3841   -8.4825    2.2622 C   0  0  0  0  0  0  0  0  0  0  0  0
  1  2  2  0
  1  6  1  0
  1  9  1  0
  2  3  1  0
  3  4  2  0
  4  5  1  0
  4  7  1  0
  5  6  2  0
  7  8  1  0
  9 10  2  0
  9 11  2  0
  9 12  1  0
 12 13  1  0
 12 17  1  0
 13 14  1  0
 13 19  1  6
 14 15  1  0
 15 16  1  0
 15 18  2  0
 16 17  1  0
 16 23  1  0
 19 20  1  0
 19 22  2  0
 20 21  1  0
 23 26  1  0
 24 25  2  0
 24 29  1  0
 25 26  1  0
 26 27  2  0
 27 28  1  0
 28 29  2  0
M  END
>  <DRUGBANK_ID>  (1) 
DB04140

>  <SECONDARY_ACCESSION_NUMBERS>  (1) 
EXPT00633

>  <COMMON_NAME>  (1) 
1-Benzyl-3-(4-Methoxy-Benzenesulfonyl)-6-Oxo-Hexahydro-Pyrimidine-4-Carboxylic Acid Hydroxyamide

$$$$
