
     RDKit          3D

 17 20  0  0  0  0  0  0  0  0999 V2000
   -0.2189    0.7675   -0.0877 C   0  0  0  0  0  0  0  0  0  0  0  0
    0.5856   -0.5522    0.1199 C   0  0  0  0  0  0  0  0  0  0  0  0
   -6.4136   -4.4019   -0.5685 C   0  0  0  0  0  0  0  0  0  0  0  0
   -6.8600   -3.8836    0.8111 C   0  0  0  0  0  0  0  0  0  0  0  0
   -3.8645   -3.9806    3.6247 C   0  0  0  0  0  0  0  0  0  0  0  0
   -4.3289   -5.0977    2.6986 C   0  0  0  0  0  0  0  0  0  0  0  0
   -2.8347   -1.1691   -0.8728 C   0  0  0  0  0  0  0  0  0  0  0  0
   -1.9080   -1.2596    0.0689 C   0  0  0  0  0  0  0  0  0  0  0  0
   -4.1065   -1.9420   -0.8836 C   0  0  0  0  0  0  0  0  0  0  0  0
   -4.4915   -2.9000    0.2634 C   0  0  0  0  0  0  0  0  0  0  0  0
   -3.5617   -3.0979    1.2342 C   0  0  0  0  0  0  0  0  0  0  0  0
   -2.2281   -2.2543    1.1916 C   0  0  0  0  0  0  0  0  0  0  0  0
   -0.8222   -0.4409    0.3341 N   0  0  0  0  0  0  0  0  0  0  0  0
   -5.8156   -3.2690    0.0832 N   0  0  0  0  0  0  0  0  0  0  0  0
   -3.4634   -4.0638    2.2392 N   0  0  0  0  0  0  0  0  0  0  0  0
   -4.8473   -1.7648   -1.8433 O   0  0  0  0  0  0  0  0  0  0  0  0
   -1.4151   -2.3598    2.1122 O   0  0  0  0  0  0  0  0  0  0  0  0
  2  1  1  0
  4  3  1  0
  6  5  1  0
  8  7  2  0
  9  7  1  0
 10  9  1  0
 11 10  2  0
 12  8  1  0
 12 11  1  0
 13  1  1  0
 13  2  1  0
 13  8  1  0
 14  3  1  0
 14  4  1  0
 14 10  1  0
 15  5  1  0
 15  6  1  0
 15 11  1  0
 16  9  2  0
 17 12  2  0
M  END
>  <DRUGBANK_ID>  (1) 
DB13304

>  <COMMON_NAME>  (1) 
Triaziquone

>  <CAS_NUMBER>  (1) 
68-76-8

>  <UNII>  (1) 
F3D5D9P25I

>  <SYNONYMS>  (1) 
triazicuona; Triaziquone

$$$$
