
     RDKit          3D

 12 11  0  0  0  0  0  0  0  0999 V2000
    0.9532   -0.1124    0.0725 C   0  0  0  0  0  0  0  0  0  0  0  0
    0.4810   -1.5619   -0.3279 C   0  0  0  0  0  0  0  0  0  0  0  0
    0.5311    0.3221    1.4873 C   0  0  0  0  0  0  0  0  0  0  0  0
    0.5365    0.8703   -1.0577 C   0  0  0  0  0  0  0  0  0  0  0  0
    2.9453   -0.3013    0.0484 Br  0  0  0  0  0  0  0  0  0  0  0  0
   -0.3092   -2.2767    0.5702 N   0  0  0  0  0  0  0  0  0  0  0  0
    0.8101   -2.0187   -1.4246 O   0  0  0  0  0  0  0  0  0  0  0  0
    1.0305    1.6657    2.0097 C   0  0  0  0  0  0  0  0  0  0  0  0
    1.0252    2.3174   -0.9854 C   0  0  0  0  0  0  0  0  0  0  0  0
   -0.7802   -3.5427    0.3096 C   0  0  0  0  0  0  0  0  0  0  0  0
   -1.5550   -4.0818    1.2927 N   0  0  0  0  0  0  0  0  0  0  0  0
   -0.5895   -4.2139   -0.6887 O   0  0  0  0  0  0  0  0  0  0  0  0
  1  2  1  0
  1  3  1  0
  1  4  1  0
  1  5  1  0
  2  6  1  0
  2  7  2  0
  3  8  1  0
  4  9  1  0
  6 10  1  0
 10 11  1  0
 10 12  2  0
M  END
>  <DRUGBANK_ID>  (1) 
DB13817

>  <COMMON_NAME>  (1) 
Carbromal

>  <CAS_NUMBER>  (1) 
77-65-6

>  <UNII>  (1) 
0Y299JY9V3

>  <SYNONYMS>  (1) 
Carbromal; Carbromalum

$$$$
