
     RDKit          3D

 26 29  0  0  0  0  0  0  0  0999 V2000
   -0.1425   -1.1910   -0.0410 N   0  0  0  0  0  0  0  0  0  0  0  0
   -0.7858   -0.0209    0.0052 C   0  0  0  0  0  0  0  0  0  0  0  0
   -0.1528    1.1463   -0.0352 N   0  0  0  0  0  0  0  0  0  0  0  0
    1.1849    1.1028   -0.3032 C   0  0  0  0  0  0  0  0  0  0  0  0
    1.9377   -0.0249   -0.6347 C   0  0  0  0  0  0  0  0  0  0  0  0
    1.2059   -1.1575   -0.3055 C   0  0  0  0  0  0  0  0  0  0  0  0
    3.4207    0.0879   -0.8364 C   0  0  0  0  0  0  0  0  0  0  0  0
    6.0404    0.6832   -0.4030 N   0  0  0  0  0  0  0  0  0  0  0  0
    5.1955    0.7097    0.6328 C   0  0  0  0  0  0  0  0  0  0  0  0
    3.8994    0.4599    0.4109 N   0  0  0  0  0  0  0  0  0  0  0  0
    5.6280    0.0172   -1.4919 C   0  0  0  0  0  0  0  0  0  0  0  0
    4.3159   -0.1463   -1.9071 C   0  0  0  0  0  0  0  0  0  0  0  0
    4.6064   -0.7331   -3.3188 C   0  0  0  0  0  0  0  0  0  0  0  0
    5.4467   -1.9218   -2.8481 C   0  0  0  0  0  0  0  0  0  0  0  0
    6.3521   -1.1974   -1.9464 N   0  0  0  0  0  0  0  0  0  0  0  0
    5.7271    0.4203    1.9676 N   0  0  0  0  0  0  0  0  0  0  0  0
    5.5099   -1.0829    2.1325 C   0  0  0  0  0  0  0  0  0  0  0  0
    6.3914   -1.7540    1.0902 C   0  0  0  0  0  0  0  0  0  0  0  0
    7.7697   -1.6965    1.4161 O   0  0  0  0  0  0  0  0  0  0  0  0
    8.0879   -0.5269    2.1907 C   0  0  0  0  0  0  0  0  0  0  0  0
    7.2068    0.7488    2.0118 C   0  0  0  0  0  0  0  0  0  0  0  0
   -2.1527   -0.0120    0.0546 N   0  0  0  0  0  0  0  0  0  0  0  0
    8.0165   -1.2472   -2.0219 S   0  0  0  0  0  0  0  0  0  0  0  0
    8.5179    0.0906   -2.1070 O   0  0  0  0  0  0  0  0  0  0  0  0
    8.5119   -2.2006   -1.0262 O   0  0  0  0  0  0  0  0  0  0  0  0
    8.4686   -2.0680   -3.5317 C   0  0  0  0  0  0  0  0  0  0  0  0
  1  2  2  0
  1  6  1  0
  2  3  1  0
  2 22  1  0
  3  4  2  0
  4  5  1  0
  5  6  2  0
  5  7  1  0
  7 12  1  0
  7 10  2  0
  8  9  2  0
  9 16  1  0
  9 10  1  0
 11  8  1  0
 11 12  2  0
 12 13  1  0
 13 14  1  0
 14 15  1  0
 15 11  1  0
 15 23  1  0
 16 17  1  0
 16 21  1  0
 17 18  1  0
 18 19  1  0
 19 20  1  0
 20 21  1  0
 23 24  2  0
 23 25  2  0
 23 26  1  0
M  END
>  <DRUGBANK_ID>  (1) 
DB13051

>  <COMMON_NAME>  (1) 
CH-5132799

>  <CAS_NUMBER>  (1) 
1007207-67-1

>  <UNII>  (1) 
JCL936W835

$$$$
