
     RDKit          3D

 29 30  0  0  1  0  0  0  0  0999 V2000
    0.3814    1.4977    0.3342 C   0  0  2  0  0  0  0  0  0  0  0  0
    0.6658    2.8663   -0.0067 N   0  0  0  0  0  0  0  0  0  0  0  0
    1.6331    0.8372    0.1570 O   0  0  0  0  0  0  0  0  0  0  0  0
   -0.6849    0.7537   -0.4670 C   0  0  1  0  0  0  0  0  0  0  0  0
    1.1323    3.0863   -1.3234 C   0  0  0  0  0  0  0  0  0  0  0  0
    1.0996    3.6462    1.0399 C   0  0  0  0  0  0  0  0  0  0  0  0
    1.3718   -0.4390   -0.3932 C   0  0  1  0  0  0  0  0  0  0  0  0
   -0.1442   -0.6567   -0.4574 C   0  0  1  0  0  0  0  0  0  0  0  0
   -1.9916    0.8556    0.0792 O   0  0  0  0  0  0  0  0  0  0  0  0
    1.8221    4.2523   -1.5621 N   0  0  0  0  0  0  0  0  0  0  0  0
    0.9766    2.2736   -2.2126 O   0  0  0  0  0  0  0  0  0  0  0  0
    2.0318    4.5732    0.8454 C   0  0  0  0  0  0  0  0  0  0  0  0
    2.0428   -0.7181   -1.7797 C   0  0  0  0  0  0  0  0  0  0  0  0
   -0.5889   -1.4778    0.6293 O   0  0  0  0  0  0  0  0  0  0  0  0
    2.2811    4.9256   -0.5631 C   0  0  0  0  0  0  0  0  0  0  0  0
    1.3373   -1.7441   -2.5724 O   0  0  0  0  0  0  0  0  0  0  0  0
    3.0098    6.0407   -0.8334 N   0  0  0  0  0  0  0  0  0  0  0  0
    1.2796   -3.3125   -1.8445 P   0  0  2  0  0  0  0  0  0  0  0  0
    2.6606   -3.7925   -2.7692 O   0  0  0  0  0  0  0  0  0  0  0  0
    2.0700   -2.7969   -0.5401 O   0  0  0  0  0  0  0  0  0  0  0  0
    1.2279   -4.7161   -1.1930 O   0  0  0  0  0  0  0  0  0  0  0  0
    2.1401   -4.4713   -4.2730 P   0  0  2  0  0  0  0  0  0  0  0  0
    3.6899   -4.8775   -4.5085 O   0  0  0  0  0  0  0  0  0  0  0  0
    1.6493   -5.7947   -3.4295 O   0  0  0  0  0  0  0  0  0  0  0  0
    1.6742   -5.0788   -5.6188 O   0  0  0  0  0  0  0  0  0  0  0  0
    4.7650   -3.8828   -5.1137 P   0  0  0  0  0  0  0  0  0  0  0  0
    4.8917   -2.8093   -3.9425 O   0  0  0  0  0  0  0  0  0  0  0  0
    6.0670   -4.7913   -4.9563 O   0  0  0  0  0  0  0  0  0  0  0  0
    4.5472   -3.2660   -6.4489 O   0  0  0  0  0  0  0  0  0  0  0  0
  1  3  1  0
  1  4  1  0
  1  2  1  6
  2  5  1  0
  2  6  1  0
  3  7  1  0
  4  8  1  0
  4  9  1  1
  5 10  1  0
  5 11  2  0
  6 12  2  0
  7  8  1  0
  7 13  1  6
  8 14  1  1
 10 15  2  0
 12 15  1  0
 13 16  1  0
 15 17  1  0
 16 18  1  0
 18 19  1  0
 18 20  1  1
 18 21  2  0
 19 22  1  0
 22 23  1  0
 22 24  1  1
 22 25  2  0
 23 26  1  0
 26 27  1  0
 26 28  1  0
 26 29  2  0
M  END
>  <DRUGBANK_ID>  (1) 
DB02431

>  <SECONDARY_ACCESSION_NUMBERS>  (1) 
EXPT01053

>  <COMMON_NAME>  (1) 
Cytidine-5'-Triphosphate

>  <CAS_NUMBER>  (1) 
65-47-4

>  <UNII>  (1) 
K0118UX80T

$$$$
