
     RDKit          3D

  5  4  0  0  0  0  0  0  0  0999 V2000
    1.0890   -0.1541    0.0982 C   0  0  0  0  0  0  0  0  0  0  0  0
    0.5584   -0.6002   -1.1419 O   0  0  0  0  0  0  0  0  0  0  0  0
    1.0866    0.0895   -2.2805 C   0  0  0  0  0  0  0  0  0  0  0  0
    0.5805    1.5277   -2.4071 C   0  0  0  0  0  0  0  0  0  0  0  0
    1.1722    2.3881   -1.4371 O   0  0  0  0  0  0  0  0  0  0  0  0
  1  2  1  0
  2  3  1  0
  3  4  1  0
  4  5  1  0
M  END
>  <DRUGBANK_ID>  (1) 
DB02806

>  <SECONDARY_ACCESSION_NUMBERS>  (1) 
EXPT02260

>  <COMMON_NAME>  (1) 
2-Methoxyethanol

>  <CAS_NUMBER>  (1) 
109-86-4

>  <UNII>  (1) 
EK1L6XWI56

$$$$
