KSF
     RDKit          3D

 23 26  0  0  0  0  0  0  0  0999 V2000
   -2.0932    0.0094   -0.0280 Cl  0  0  0  0  0  0  0  0  0  0  0  0
   -0.3625    0.0381   -0.0382 C   0  0  0  0  0  0  0  0  0  0  0  0
    0.3373    1.2607   -0.0431 C   0  0  0  0  0  0  0  0  0  0  0  0
    1.7401    1.1997   -0.0114 C   0  0  0  0  0  0  0  0  0  0  0  0
    2.4206   -0.0192    0.0192 C   0  0  0  0  0  0  0  0  0  0  0  0
    1.7104   -1.2135    0.0072 C   0  0  0  0  0  0  0  0  0  0  0  0
    0.3168   -1.1874   -0.0158 C   0  0  0  0  0  0  0  0  0  0  0  0
   -0.3468    2.4977   -0.1695 N   0  0  0  0  0  0  0  0  0  0  0  0
    0.2790    3.7255   -0.1345 C   0  0  0  0  0  0  0  0  0  0  0  0
    1.1378    4.0430   -1.0831 N   0  0  0  0  0  0  0  0  0  0  0  0
    1.7755    5.2651   -1.0581 C   0  0  0  0  0  0  0  0  0  0  0  0
    1.5995    6.2069   -0.1017 C   0  0  0  0  0  0  0  0  0  0  0  0
    0.7105    5.8861    0.9177 N   0  0  0  0  0  0  0  0  0  0  0  0
    0.3223    6.5523    2.0531 C   0  0  0  0  0  0  0  0  0  0  0  0
   -0.5463    5.8586    2.7592 N   0  0  0  0  0  0  0  0  0  0  0  0
   -0.7083    4.6807    2.0730 C   0  0  0  0  0  0  0  0  0  0  0  0
    0.0395    4.6845    0.9197 C   0  0  0  0  0  0  0  0  0  0  0  0
    2.3621    7.4652   -0.1592 C   0  0  0  0  0  0  0  0  0  0  0  0
    2.2574    8.3144   -1.2703 C   0  0  0  0  0  0  0  0  0  0  0  0
    3.0850    9.4330   -1.3862 C   0  0  0  0  0  0  0  0  0  0  0  0
    3.9490    9.7715   -0.3472 C   0  0  0  0  0  0  0  0  0  0  0  0
    3.9813    8.9962    0.8094 C   0  0  0  0  0  0  0  0  0  0  0  0
    3.2298    7.8219    0.8830 C   0  0  0  0  0  0  0  0  0  0  0  0
  1  2  1  0
  2  3  2  0
  2  7  1  0
  3  4  1  0
  3  8  1  0
  4  5  2  0
  5  6  1  0
  6  7  2  0
  8  9  1  0
  9 10  2  0
  9 17  1  0
 10 11  1  0
 11 12  2  0
 12 13  1  0
 12 18  1  0
 13 14  1  0
 13 17  1  0
 14 15  2  0
 15 16  1  0
 16 17  2  0
 18 19  2  0
 18 23  1  0
 19 20  1  0
 20 21  2  0
 21 22  1  0
 22 23  2  0
M  END
>  <DRUGBANK_ID>  (1) 
DB08055

>  <COMMON_NAME>  (1) 
N-(2-chlorophenyl)-5-phenylimidazo[1,5-a]pyrazin-8-amine

$$$$
