928
     RDKit          3D

 17 18  0  0  1  0  0  0  0  0999 V2000
    1.6789    0.4697    0.2650 O   0  0  0  0  0  0  0  0  0  0  0  0
   -1.8951    0.8764    0.0720 O   0  0  0  0  0  0  0  0  0  0  0  0
   -0.7558   -1.4871    0.6490 O   0  0  0  0  0  0  0  0  0  0  0  0
    1.4458   -1.7995   -2.6296 O   0  0  0  0  0  0  0  0  0  0  0  0
    1.0289    2.2667   -2.2392 O   0  0  0  0  0  0  0  0  0  0  0  0
    0.8744    2.6679   -0.0069 N   0  0  0  0  0  0  0  0  0  0  0  0
    1.8015    4.2325   -1.4915 N   0  0  0  0  0  0  0  0  0  0  0  0
    1.6196    4.7346    0.7725 N   0  0  0  0  0  0  0  0  0  0  0  0
    2.6428    6.1881   -0.6971 N   0  0  0  0  0  0  0  0  0  0  0  0
   -0.6053    0.6465   -0.5018 C   0  0  2  0  0  0  0  0  0  0  0  0
   -0.1932   -0.8181   -0.4945 C   0  0  1  0  0  0  0  0  0  0  0  0
    1.3356   -0.7670   -0.3995 C   0  0  1  0  0  0  0  0  0  0  0  0
    0.5048    1.3058    0.3280 C   0  0  1  0  0  0  0  0  0  0  0  0
    2.0613   -0.8663   -1.7501 C   0  0  0  0  0  0  0  0  0  0  0  0
    1.2159    3.0232   -1.2852 C   0  0  0  0  0  0  0  0  0  0  0  0
    1.0850    3.5844    0.9692 C   0  0  0  0  0  0  0  0  0  0  0  0
    2.0077    5.0188   -0.4931 C   0  0  0  0  0  0  0  0  0  0  0  0
  1 12  1  0
  1 13  1  0
  4 14  1  0
  5 15  2  0
  6 15  1  0
  6 16  1  0
  7 15  1  0
  7 17  2  0
  8 16  2  0
  8 17  1  0
  9 17  1  0
 10  2  1  1
 10 11  1  0
 10 13  1  0
 11  3  1  1
 11 12  1  0
 12 14  1  6
 13  6  1  6
M  END
>  <DRUGBANK_ID>  (1) 
DB00928

>  <SECONDARY_ACCESSION_NUMBERS>  (1) 
APRD00809

>  <COMMON_NAME>  (1) 
Azacitidine

>  <CAS_NUMBER>  (1) 
320-67-2

>  <UNII>  (1) 
M801H13NRU

>  <SYNONYMS>  (1) 
4-amino-1-beta-D-ribofuranosyl-s-triazin-2(1H)-one; 5-azacytidine; Azacitidina; Azacitidine; Azacitidinum; Azacytidine

$$$$
