
     RDKit          3D

 13 13  0  0  1  0  0  0  0  0999 V2000
   -1.0248    1.0572   -0.0090 C   0  0  1  0  0  0  0  0  0  0  0  0
   -1.4355   -0.3866    0.0029 C   0  0  0  0  0  0  0  0  0  0  0  0
    0.4545    1.3845    0.1297 C   0  0  2  0  0  0  0  0  0  0  0  0
   -0.5310   -1.3909    0.0120 C   0  0  0  0  0  0  0  0  0  0  0  0
   -0.7810   -2.8798    0.0016 C   0  0  0  0  0  0  0  0  0  0  0  0
    1.3800    0.1842   -0.0655 C   0  0  2  0  0  0  0  0  0  0  0  0
   -1.5422    1.6110   -1.2256 O   0  0  0  0  0  0  0  0  0  0  0  0
   -2.8088   -0.4493    0.0346 O   0  0  0  0  0  0  0  0  0  0  0  0
    0.6692    1.9938    1.4176 O   0  0  0  0  0  0  0  0  0  0  0  0
   -2.0243   -3.3788    0.0139 O   0  0  0  0  0  0  0  0  0  0  0  0
    0.1619   -3.6719    0.0052 O   0  0  0  0  0  0  0  0  0  0  0  0
    2.0655    0.2895   -1.3121 O   0  0  0  0  0  0  0  0  0  0  0  0
    0.8310   -1.1165    0.0635 O   0  0  0  0  0  0  0  0  0  0  0  0
  1  7  1  6
  2  1  1  0
  3  1  1  0
  3  9  1  1
  4  2  2  0
  5  4  1  0
  6  3  1  0
  6 12  1  6
  8  2  1  0
 10  5  1  0
 11  5  2  0
 13  4  1  0
 13  6  1  0
M  END
>  <DRUGBANK_ID>  (1) 
DB03569

>  <SECONDARY_ACCESSION_NUMBERS>  (1) 
EXPT01844

>  <COMMON_NAME>  (1) 
4,5-Dehydro-L-Iduronic Acid

$$$$
