
     RDKit          3D

 33 37  0  0  1  0  0  0  0  0999 V2000
   -4.6645   -7.1965    1.0153 C   0  0  0  0  0  0  0  0  0  0  0  0
   -4.8794   -5.9026    1.4637 C   0  0  0  0  0  0  0  0  0  0  0  0
   -4.1421   -4.8946    0.8664 C   0  0  0  0  0  0  0  0  0  0  0  0
   -3.1277   -5.0890   -0.0726 C   0  0  0  0  0  0  0  0  0  0  0  0
   -2.9942   -6.3752   -0.6032 C   0  0  0  0  0  0  0  0  0  0  0  0
   -3.7659   -7.4226   -0.0416 C   0  0  0  0  0  0  0  0  0  0  0  0
   -2.3453   -6.7408   -1.7572 O   0  0  0  0  0  0  0  0  0  0  0  0
   -1.7714   -5.7246   -2.5882 C   0  0  0  0  0  0  0  0  0  0  0  0
   -2.7457   -4.7857   -3.2888 C   0  0  0  0  0  0  0  0  0  0  0  0
   -2.3663   -3.9783   -4.3566 C   0  0  0  0  0  0  0  0  0  0  0  0
   -3.2681   -3.0162   -4.8650 C   0  0  0  0  0  0  0  0  0  0  0  0
   -4.4476   -2.6916   -4.1739 C   0  0  0  0  0  0  0  0  0  0  0  0
   -4.6018   -3.2533   -2.9289 C   0  0  0  0  0  0  0  0  0  0  0  0
   -3.9761   -4.4825   -2.7192 C   0  0  0  0  0  0  0  0  0  0  0  0
   -5.6563   -2.0173   -4.8148 C   0  0  0  0  0  0  0  0  0  0  0  0
   -6.8421   -2.8522   -5.2121 N   0  0  0  0  0  0  0  0  0  0  0  0
   -7.5991   -3.5249   -4.1213 C   0  0  0  0  0  0  0  0  0  0  0  0
   -6.9440   -4.8443   -3.6988 C   0  0  0  0  0  0  0  0  0  0  0  0
   -6.5934   -5.7690   -4.7296 O   0  0  0  0  0  0  0  0  0  0  0  0
   -5.7816   -5.0945   -5.7204 C   0  0  0  0  0  0  0  0  0  0  0  0
   -6.5433   -3.8726   -6.2457 C   0  0  0  0  0  0  0  0  0  0  0  0
   -2.5608   -3.7317   -0.4279 C   0  0  0  0  0  0  0  0  0  0  0  0
   -3.4164   -2.8032    0.2625 N   0  0  0  0  0  0  0  0  0  0  0  0
   -4.4339   -3.4614    0.9539 C   0  0  0  0  0  0  0  0  0  0  0  0
   -5.4203   -3.0265    1.4806 O   0  0  0  0  0  0  0  0  0  0  0  0
   -3.2988   -1.3530    0.0728 C   0  0  1  0  0  0  0  0  0  0  0  0
   -3.7073   -0.7365   -1.2808 C   0  0  0  0  0  0  0  0  0  0  0  0
   -3.8196    0.7768   -1.1468 C   0  0  0  0  0  0  0  0  0  0  0  0
   -4.8641    1.1110   -0.1088 C   0  0  0  0  0  0  0  0  0  0  0  0
   -5.5421    2.1315   -0.1607 O   0  0  0  0  0  0  0  0  0  0  0  0
   -4.9287    0.2611    0.9622 N   0  0  0  0  0  0  0  0  0  0  0  0
   -4.0065   -0.7017    1.2614 C   0  0  0  0  0  0  0  0  0  0  0  0
   -3.7758   -1.0167    2.4279 O   0  0  0  0  0  0  0  0  0  0  0  0
  1  2  2  0
  1  6  1  0
  2  3  1  0
  3  4  2  0
  3 24  1  0
  4  5  1  0
  4 22  1  0
  5  6  2  0
  5  7  1  0
  7  8  1  0
  8  9  1  0
  9 10  2  0
  9 14  1  0
 10 11  1  0
 11 12  2  0
 12 13  1  0
 12 15  1  0
 13 14  2  0
 15 16  1  0
 16 17  1  0
 16 21  1  0
 17 18  1  0
 18 19  1  0
 19 20  1  0
 20 21  1  0
 22 23  1  0
 23 24  1  0
 24 25  2  0
 26 27  1  0
 26 32  1  0
 26 23  1  6
 27 28  1  0
 28 29  1  0
 29 30  2  0
 29 31  1  0
 31 32  1  0
 32 33  2  0
M  END
>  <DRUGBANK_ID>  (1) 
DB12101

>  <COMMON_NAME>  (1) 
Iberdomide

>  <CAS_NUMBER>  (1) 
1323403-33-3

>  <UNII>  (1) 
8V66F27X44

>  <SYNONYMS>  (1) 
(S)-3-(4-((4-(Morpholinomethyl)benzyl)oxy)-1-oxoisoindolin-2-yl)piperidine-2,6-dione; 2,6-Piperidinedione, 3-(1,3-dihydro-4-((4-(4-morpholinylmethyl)phenyl)methoxy)-1-oxo-2H-isoindol-2-yl)-, (3S)-

$$$$
