DEB
     RDKit          3D

 27 27  0  0  0  0  0  0  0  0999 V2000
   -1.1536    2.5916    0.5644 C   0  0  0  0  0  0  0  0  0  0  0  0
   -1.9858    1.6221   -0.3200 C   0  0  1  0  0  0  0  0  0  0  0  0
   -3.2303    0.9335    0.3265 C   0  0  2  0  0  0  0  0  0  0  0  0
   -3.3484   -0.6086    0.0519 C   0  0  1  0  0  0  0  0  0  0  0  0
   -2.1404   -1.4377    0.6014 C   0  0  2  0  0  0  0  0  0  0  0  0
   -1.4465   -2.2707   -0.5167 C   0  0  2  0  0  0  0  0  0  0  0  0
   -0.0843   -2.9178    0.0150 C   0  0  0  0  0  0  0  0  0  0  0  0
    1.3453   -2.5345   -0.5052 C   0  0  2  0  0  0  0  0  0  0  0  0
    2.0904   -1.5730    0.4659 C   0  0  0  0  0  0  0  0  0  0  0  0
    3.3031   -0.7953   -0.0637 C   0  0  1  0  0  0  0  0  0  0  0  0
    3.2330    0.7125    0.2959 C   0  0  2  0  0  0  0  0  0  0  0  0
    2.0583    1.5336   -0.3465 C   0  0  2  0  0  0  0  0  0  0  0  0
    1.2905    2.4607    0.6052 C   0  0  1  0  0  0  0  0  0  0  0  0
    2.3474    3.5140    0.8363 C   0  0  0  0  0  0  0  0  0  0  0  0
    1.9322    4.5918    1.7677 C   0  0  0  0  0  0  0  0  0  0  0  0
    0.0554    2.9498   -0.0402 O   0  0  0  0  0  0  0  0  0  0  0  0
   -1.4124    2.8485    1.7120 O   0  0  0  0  0  0  0  0  0  0  0  0
   -2.2427    2.1541   -1.7323 C   0  0  0  0  0  0  0  0  0  0  0  0
   -4.4137    1.5494   -0.1954 O   0  0  0  0  0  0  0  0  0  0  0  0
   -4.6791   -1.2306    0.4510 C   0  0  0  0  0  0  0  0  0  0  0  0
   -2.5868   -2.3262    1.6288 O   0  0  0  0  0  0  0  0  0  0  0  0
   -1.3938   -1.4324   -1.7928 C   0  0  0  0  0  0  0  0  0  0  0  0
    1.3406   -2.0825   -1.9516 C   0  0  0  0  0  0  0  0  0  0  0  0
    1.7554   -1.4557    1.6481 O   0  0  0  0  0  0  0  0  0  0  0  0
    4.5502   -1.4964    0.4407 C   0  0  0  0  0  0  0  0  0  0  0  0
    4.4641    1.3472   -0.0966 O   0  0  0  0  0  0  0  0  0  0  0  0
    1.0297    0.6677   -0.8991 C   0  0  0  0  0  0  0  0  0  0  0  0
  1  2  1  0
  1 16  1  0
  1 17  2  0
  2  3  1  0
  2 18  1  6
  3  4  1  0
  3 19  1  6
  4  5  1  0
  4 20  1  1
  5  6  1  0
  5 21  1  1
  6  7  1  0
  6 22  1  6
  7  8  1  0
  8  9  1  0
  8 23  1  6
  9 10  1  0
  9 24  2  0
 10 11  1  0
 10 25  1  1
 11 12  1  0
 11 26  1  6
 12 13  1  0
 12 27  1  1
 13 16  1  0
 13 14  1  6
 14 15  1  0
M  END
>  <DRUGBANK_ID>  (1) 
DB04070

>  <SECONDARY_ACCESSION_NUMBERS>  (1) 
EXPT01153

>  <COMMON_NAME>  (1) 
6-Deoxyerythronolide B

$$$$
