
     RDKit          3D

 28 30  0  0  1  0  0  0  0  0999 V2000
    1.9176   -0.7852    0.1316 C   0  0  0  0  0  0  0  0  0  0  0  0
    1.7343    0.6599    0.5868 C   0  0  0  0  0  0  0  0  0  0  0  0
    0.6475   -1.6371    0.1433 C   0  0  0  0  0  0  0  0  0  0  0  0
    0.9555    1.4794   -0.4301 C   0  0  0  0  0  0  0  0  0  0  0  0
   -2.4672   -1.4963   -3.2161 C   0  0  0  0  0  0  0  0  0  0  0  0
   -3.9703   -1.9407   -1.3888 C   0  0  0  0  0  0  0  0  0  0  0  0
   -3.2719    2.9158   -0.1617 C   0  0  0  0  0  0  0  0  0  0  0  0
   -3.5235    1.7241   -2.1993 C   0  0  0  0  0  0  0  0  0  0  0  0
   -3.5434   -1.0363   -3.9908 C   0  0  0  0  0  0  0  0  0  0  0  0
   -5.0443   -1.4755   -2.1596 C   0  0  0  0  0  0  0  0  0  0  0  0
   -4.6456    2.7844    0.1177 C   0  0  0  0  0  0  0  0  0  0  0  0
   -4.8778    1.6297   -1.9124 C   0  0  0  0  0  0  0  0  0  0  0  0
   -1.5052   -2.2867   -0.9986 C   0  0  0  0  0  0  0  0  0  0  0  0
   -1.2074    2.1290   -1.4483 C   0  0  0  0  0  0  0  0  0  0  0  0
   -2.6678   -1.9282   -1.8997 C   0  0  0  0  0  0  0  0  0  0  0  0
   -2.6877    2.2927   -1.2717 C   0  0  0  0  0  0  0  0  0  0  0  0
   -4.8501   -1.0367   -3.4832 C   0  0  0  0  0  0  0  0  0  0  0  0
   -5.4603    2.0731   -0.7415 C   0  0  0  0  0  0  0  0  0  0  0  0
   -0.4905   -1.1388   -0.7634 C   0  0  1  0  0  0  0  0  0  0  0  0
   -0.5611    1.4352   -0.2423 C   0  0  1  0  0  0  0  0  0  0  0  0
   -1.1432    0.0344   -0.0520 C   0  0  0  0  0  0  0  0  0  0  0  0
   -5.9290   -0.2710   -4.2338 C   0  0  0  0  0  0  0  0  0  0  0  0
   -6.9189    1.8180   -0.4899 C   0  0  0  0  0  0  0  0  0  0  0  0
   -7.2192   -0.2392   -3.7874 N   0  0  0  0  0  0  0  0  0  0  0  0
   -5.5957    0.4857   -5.2316 N   0  0  0  0  0  0  0  0  0  0  0  0
   -7.6406    0.9814   -1.3028 N   0  0  0  0  0  0  0  0  0  0  0  0
   -7.5197    2.4109    0.4866 N   0  0  0  0  0  0  0  0  0  0  0  0
   -2.1145   -0.1400    0.7092 O   0  0  0  0  0  0  0  0  0  0  0  0
  2  1  1  0
  3  1  1  0
  4  2  1  0
  9  5  2  0
 10  6  1  0
 11  7  2  0
 12  8  1  0
 15  5  1  0
 15  6  2  0
 15 13  1  0
 16  7  1  0
 16  8  2  0
 16 14  1  0
 17  9  1  0
 17 10  2  0
 18 11  1  0
 18 12  2  0
 19  3  1  0
 19 13  1  1
 20  4  1  0
 20 14  1  6
 21 19  1  0
 21 20  1  0
 22 17  1  0
 23 18  1  0
 24 22  1  0
 25 22  2  0
 26 23  1  0
 27 23  2  0
 28 21  2  0
M  END
>  <DRUGBANK_ID>  (1) 
DB02081

>  <SECONDARY_ACCESSION_NUMBERS>  (1) 
EXPT00632

>  <COMMON_NAME>  (1) 
Bis-Benzamidine

$$$$
