PF4
     RDKit          3D

 26 29  0  0  0  0  0  0  0  0999 V2000
    1.4172   -0.1895   -0.0574 C   0  0  0  0  0  0  0  0  0  0  0  0
    3.2688    3.4867   -1.2688 C   0  0  0  0  0  0  0  0  0  0  0  0
   -1.3416    0.1864    0.0083 C   0  0  0  0  0  0  0  0  0  0  0  0
    0.1480    4.1082    4.3244 C   0  0  0  0  0  0  0  0  0  0  0  0
   -0.4817    1.2921   -0.0209 C   0  0  0  0  0  0  0  0  0  0  0  0
    3.8651    4.3586   -3.5539 C   0  0  0  0  0  0  0  0  0  0  0  0
    0.8881    2.9475    4.1107 C   0  0  0  0  0  0  0  0  0  0  0  0
   -0.4488    3.4305    6.5154 C   0  0  0  0  0  0  0  0  0  0  0  0
   -0.4837    4.4293    5.4969 O   0  0  0  0  0  0  0  0  0  0  0  0
    0.0047    5.0247    3.2774 C   0  0  0  0  0  0  0  0  0  0  0  0
    0.5652    4.7649    2.0186 C   0  0  0  0  0  0  0  0  0  0  0  0
    1.4743    2.7039    2.8679 C   0  0  0  0  0  0  0  0  0  0  0  0
    1.3324    3.6156    1.8165 C   0  0  0  0  0  0  0  0  0  0  0  0
    1.9406    3.3181    0.5268 C   0  0  0  0  0  0  0  0  0  0  0  0
    2.9033    4.0994   -0.0894 N   0  0  0  0  0  0  0  0  0  0  0  0
    4.1721    4.0421   -2.2427 C   0  0  0  0  0  0  0  0  0  0  0  0
    5.8282    4.3414   -1.9155 S   0  0  0  0  0  0  0  0  0  0  0  0
    6.1373    4.8366   -3.5310 C   0  0  0  0  0  0  0  0  0  0  0  0
    4.9934    4.8206   -4.2970 C   0  0  0  0  0  0  0  0  0  0  0  0
    2.6200    2.3516   -1.4191 N   0  0  0  0  0  0  0  0  0  0  0  0
    1.8023    2.2308   -0.3145 C   0  0  0  0  0  0  0  0  0  0  0  0
    0.9034    1.1074   -0.1136 C   0  0  0  0  0  0  0  0  0  0  0  0
    0.5578   -1.2916    0.0048 C   0  0  0  0  0  0  0  0  0  0  0  0
   -0.8264   -1.1121    0.0123 C   0  0  0  0  0  0  0  0  0  0  0  0
   -1.7548   -2.1193    0.0282 O   0  0  0  0  0  0  0  0  0  0  0  0
   -1.2364   -3.4450    0.0914 C   0  0  0  0  0  0  0  0  0  0  0  0
  1 23  2  0
  2 15  1  0
  2 20  2  0
  3 24  2  0
  4  9  1  0
  4  7  2  0
  5  3  1  0
  6 16  2  0
  8  9  1  0
 10  4  1  0
 11 10  2  0
 11 13  1  0
 12  7  1  0
 13 12  2  0
 14 13  1  0
 14 21  2  0
 15 14  1  0
 16  2  1  0
 17 16  1  0
 18 17  1  0
 19  6  1  0
 19 18  2  0
 20 21  1  0
 21 22  1  0
 22  1  1  0
 22  5  2  0
 23 24  1  0
 24 25  1  0
 25 26  1  0
M  END
>  <DRUGBANK_ID>  (1) 
DB08383

>  <COMMON_NAME>  (1) 
4,5-bis(4-methoxyphenyl)-2-thiophen-2-yl-1H-imidazole

$$$$
