
     RDKit          3D

 15 16  0  0  0  0  0  0  0  0999 V2000
    0.9609   -0.0904    0.0200 O   0  0  0  0  0  0  0  0  0  0  0  0
    0.3859    0.6633   -0.9418 C   0  0  0  0  0  0  0  0  0  0  0  0
    1.0812    1.2643   -1.7505 O   0  0  0  0  0  0  0  0  0  0  0  0
   -1.1461    0.6620   -0.9076 C   0  0  1  0  0  0  0  0  0  0  0  0
   -1.6610   -0.7103   -1.1321 N   0  0  0  0  0  0  0  0  0  0  0  0
   -1.6586    1.2330    0.4237 C   0  0  0  0  0  0  0  0  0  0  0  0
   -1.2022    2.6415    0.6539 C   0  0  0  0  0  0  0  0  0  0  0  0
    0.0303    3.0212    1.1596 C   0  0  0  0  0  0  0  0  0  0  0  0
    0.0955    4.3884    1.1584 N   0  0  0  0  0  0  0  0  0  0  0  0
   -1.0849    4.9059    0.7064 C   0  0  0  0  0  0  0  0  0  0  0  0
   -1.9255    3.8439    0.3874 C   0  0  0  0  0  0  0  0  0  0  0  0
   -3.2073    4.1626   -0.0906 C   0  0  0  0  0  0  0  0  0  0  0  0
   -3.5436    5.5129   -0.1903 C   0  0  0  0  0  0  0  0  0  0  0  0
   -2.5997    6.4708    0.1580 C   0  0  0  0  0  0  0  0  0  0  0  0
   -1.3494    6.2214    0.6087 N   0  0  0  0  0  0  0  0  0  0  0  0
  2  1  1  0
  2  3  2  0
  4  2  1  0
  4  5  1  1
  4  6  1  0
  6  7  1  0
  7  8  2  0
  7 11  1  0
  8  9  1  0
 10  9  1  0
 10 15  1  0
 11 10  2  0
 11 12  1  0
 12 13  2  0
 13 14  1  0
 15 14  2  0
M  END
>  <DRUGBANK_ID>  (1) 
DB04206

>  <SECONDARY_ACCESSION_NUMBERS>  (1) 
EXPT03111

>  <COMMON_NAME>  (1) 
7-Aza-L-tryptophan

>  <CAS_NUMBER>  (1) 
49758-35-2

>  <UNII>  (1) 
72B59WRT3H

>  <SYNONYMS>  (1) 
L-7-azatryptophan

$$$$
