QND
     RDKit          3D

 13 14  0  0  0  0  0  0  0  0999 V2000
   -1.1896    1.3825    0.0000 N   0  0  0  0  0  0  0  0  0  0  0  0
   -2.3520    0.6786    0.0030 C   0  0  0  0  0  0  0  0  0  0  0  0
   -2.4029   -0.7090   -0.0032 C   0  0  0  0  0  0  0  0  0  0  0  0
   -1.2039   -1.4143   -0.0076 C   0  0  0  0  0  0  0  0  0  0  0  0
    1.2464   -1.3939    0.0048 C   0  0  0  0  0  0  0  0  0  0  0  0
    2.4405   -0.6767    0.0084 C   0  0  0  0  0  0  0  0  0  0  0  0
    2.4044    0.7127   -0.0028 C   0  0  0  0  0  0  0  0  0  0  0  0
    1.1741    1.3796   -0.0089 C   0  0  0  0  0  0  0  0  0  0  0  0
    0.0111   -0.7192   -0.0024 C   0  0  0  0  0  0  0  0  0  0  0  0
   -0.0333    0.6932   -0.0035 C   0  0  0  0  0  0  0  0  0  0  0  0
   -3.6431    1.4350    0.0115 C   0  0  0  0  0  0  0  0  0  0  0  0
   -4.7540    0.9274    0.0106 O   0  0  0  0  0  0  0  0  0  0  0  0
   -3.4955    2.7749    0.0208 O   0  0  0  0  0  0  0  0  0  0  0  0
  1  2  2  0
  1 10  1  0
  2  3  1  0
  2 11  1  0
  3  4  2  0
  4  9  1  0
  5  6  1  0
  5  9  2  0
  6  7  2  0
  7  8  1  0
  8 10  2  0
  9 10  1  0
 11 12  2  0
 11 13  1  0
M  END
>  <DRUGBANK_ID>  (1) 
DB02428

>  <SECONDARY_ACCESSION_NUMBERS>  (1) 
EXPT02730; DB08452

>  <COMMON_NAME>  (1) 
Quinaldic Acid

>  <CAS_NUMBER>  (1) 
93-10-7

>  <UNII>  (1) 
P90NWT719R

$$$$
