
     RDKit          3D

 18 18  0  0  0  0  0  0  0  0999 V2000
   -1.9026   -0.0217   -0.0583 C   0  0  0  0  0  0  0  0  0  0  0  0
   -3.6924   -0.0340    0.0129 S   0  0  0  0  0  0  0  0  0  0  0  0
   -1.2034    1.1919   -0.0361 C   0  0  0  0  0  0  0  0  0  0  0  0
   -1.1991   -1.2262   -0.0342 C   0  0  0  0  0  0  0  0  0  0  0  0
   -4.1609   -0.9670   -1.3292 N   0  0  0  0  0  0  0  0  0  0  0  0
   -4.0125   -0.6880    1.2630 O   0  0  0  0  0  0  0  0  0  0  0  0
   -4.1275    1.3194   -0.2569 O   0  0  0  0  0  0  0  0  0  0  0  0
    0.2001    1.1915   -0.0247 C   0  0  0  0  0  0  0  0  0  0  0  0
    0.2044   -1.2104   -0.0175 C   0  0  0  0  0  0  0  0  0  0  0  0
   -5.0521   -2.0428   -1.2038 C   0  0  0  0  0  0  0  0  0  0  0  0
    0.9187   -0.0068    0.0026 C   0  0  0  0  0  0  0  0  0  0  0  0
   -5.5221   -2.6126   -2.3637 N   0  0  0  0  0  0  0  0  0  0  0  0
   -5.3942   -2.4901   -0.1148 O   0  0  0  0  0  0  0  0  0  0  0  0
    2.3025   -0.0028   -0.1073 N   0  0  0  0  0  0  0  0  0  0  0  0
   -6.3813   -3.8013   -2.3074 C   0  0  0  0  0  0  0  0  0  0  0  0
   -7.7208   -3.6029   -3.0207 C   0  0  0  0  0  0  0  0  0  0  0  0
   -7.5622   -3.3406   -4.5179 C   0  0  0  0  0  0  0  0  0  0  0  0
   -6.8957   -4.5070   -5.2330 C   0  0  0  0  0  0  0  0  0  0  0  0
  1  2  1  0
  1  3  2  0
  1  4  1  0
  2  5  1  0
  2  6  2  0
  2  7  2  0
  3  8  1  0
  4  9  2  0
  5 10  1  0
  8 11  2  0
  9 11  1  0
 10 12  1  0
 10 13  2  0
 11 14  1  0
 12 15  1  0
 15 16  1  0
 16 17  1  0
 17 18  1  0
M  END
>  <DRUGBANK_ID>  (1) 
DB13406

>  <COMMON_NAME>  (1) 
Carbutamide

>  <CAS_NUMBER>  (1) 
339-43-5

>  <UNII>  (1) 
E3K8P4869P

>  <SYNONYMS>  (1) 
Carbutamida; Carbutamide; Carbutamidum

$$$$
