
     RDKit          3D

 17 18  0  0  1  0  0  0  0  0999 V2000
    1.1527   -0.8260   -0.3517 C   0  0  2  0  0  0  0  0  0  0  0  0
    2.3785   -1.6102   -0.2135 N   0  0  0  0  0  0  0  0  0  0  0  0
    1.3861    0.5704   -0.1859 O   0  0  0  0  0  0  0  0  0  0  0  0
   -0.0122   -1.2343    0.5349 C   0  0  0  0  0  0  0  0  0  0  0  0
    3.0951   -1.6764    0.9804 C   0  0  0  0  0  0  0  0  0  0  0  0
    2.6800   -2.4437   -1.2683 C   0  0  0  0  0  0  0  0  0  0  0  0
    0.2164    1.1425    0.4445 C   0  0  1  0  0  0  0  0  0  0  0  0
   -0.8371    0.0319    0.5418 C   0  0  1  0  0  0  0  0  0  0  0  0
    4.1518   -2.5679    0.9746 N   0  0  0  0  0  0  0  0  0  0  0  0
    2.8254   -1.0459    1.9991 O   0  0  0  0  0  0  0  0  0  0  0  0
    3.5379   -3.4600   -1.1688 C   0  0  0  0  0  0  0  0  0  0  0  0
    0.6249    1.6677    1.8233 C   0  0  0  0  0  0  0  0  0  0  0  0
   -1.7130    0.0294   -0.5920 O   0  0  0  0  0  0  0  0  0  0  0  0
    4.3214   -3.5815    0.0739 C   0  0  0  0  0  0  0  0  0  0  0  0
    3.6727   -4.4952   -2.2285 C   0  0  0  0  0  0  0  0  0  0  0  0
    0.0200    2.9390    2.0540 O   0  0  0  0  0  0  0  0  0  0  0  0
    5.0712   -4.5348    0.2734 O   0  0  0  0  0  0  0  0  0  0  0  0
  1  3  1  0
  1  4  1  0
  1  2  1  1
  2  5  1  0
  2  6  1  0
  3  7  1  0
  4  8  1  0
  5  9  1  0
  5 10  2  0
  6 11  2  0
  7  8  1  0
  7 12  1  1
  8 13  1  6
  9 14  1  0
 11 15  1  0
 11 14  1  0
 12 16  1  0
 14 17  2  0
M  END
>  <DRUGBANK_ID>  (1) 
DB04485

>  <SECONDARY_ACCESSION_NUMBERS>  (1) 
EXPT03053

>  <COMMON_NAME>  (1) 
Thymidine

>  <CAS_NUMBER>  (1) 
50-89-5

>  <UNII>  (1) 
VC2W18DGKR

>  <SYNONYMS>  (1) 
2'-deoxy-5-methyluridine; 2'-deoxythymidine; 2'-thymidine; Deoxyribosylthymine; Deoxythymidine; dThd; Thymidine; Thymine 2'-deoxyriboside; Thymine deoxyriboside

$$$$
