
     RDKit          3D

 13 12  0  0  1  0  0  0  0  0999 V2000
    0.9706    0.1192    0.1203 N   0  0  0  0  0  0  0  0  0  0  0  0
    0.4252    0.1351   -1.2505 C   0  0  1  0  0  0  0  0  0  0  0  0
    0.9477   -1.1194   -2.0018 C   0  0  0  0  0  0  0  0  0  0  0  0
    0.5404   -2.4911   -1.4233 C   0  0  0  0  0  0  0  0  0  0  0  0
   -0.9630   -2.7419   -1.4570 C   0  0  0  0  0  0  0  0  0  0  0  0
   -1.5591   -2.5275   -2.8457 C   0  0  0  0  0  0  0  0  0  0  0  0
   -1.1364   -3.6136   -3.7130 N   0  0  0  0  0  0  0  0  0  0  0  0
   -2.0663   -4.4852   -4.2023 C   0  0  0  0  0  0  0  0  0  0  0  0
   -1.5045   -5.5293   -4.8387 O   0  0  0  0  0  0  0  0  0  0  0  0
   -3.2666   -4.3659   -4.0833 O   0  0  0  0  0  0  0  0  0  0  0  0
   -1.1256    0.3850   -1.1824 C   0  0  0  0  0  0  0  0  0  0  0  0
   -1.6048    1.2980   -2.0557 O   0  0  0  0  0  0  0  0  0  0  0  0
   -1.8993   -0.1471   -0.3984 O   0  0  0  0  0  0  0  0  0  0  0  0
  2  1  1  1
  2  3  1  0
  2 11  1  0
  3  4  1  0
  4  5  1  0
  5  6  1  0
  6  7  1  0
  7  8  1  0
  8  9  1  0
  8 10  2  0
 11 12  1  0
 11 13  2  0
M  END
>  <DRUGBANK_ID>  (1) 
DB03801

>  <SECONDARY_ACCESSION_NUMBERS>  (1) 
EXPT01965

>  <COMMON_NAME>  (1) 
Lysine Nz-Carboxylic Acid

>  <UNII>  (1) 
J9ET8AZ2P7

$$$$
