
     RDKit          3D

 34 36  0  0  1  0  0  0  0  0999 V2000
    1.2910    2.4690    0.9355 C   0  0  0  0  0  0  0  0  0  0  0  0
   -3.8605   -8.3450   -0.6824 C   0  0  0  0  0  0  0  0  0  0  0  0
   -4.4510   -1.9191    2.8891 C   0  0  0  0  0  0  0  0  0  0  0  0
    0.4376    1.3251    0.3907 C   0  0  2  0  0  0  0  0  0  0  0  0
   -3.1015   -8.6234    0.6283 C   0  0  2  0  0  0  0  0  0  0  0  0
   -3.2998   -2.8872    2.5959 C   0  0  2  0  0  0  0  0  0  0  0  0
   -0.3167    1.7426   -0.8776 C   0  0  2  0  0  0  0  0  0  0  0  0
   -1.0443    0.5268   -1.4418 C   0  0  1  0  0  0  0  0  0  0  0  0
   -1.5045   -7.5911    2.3195 C   0  0  2  0  0  0  0  0  0  0  0  0
   -1.2838   -3.2403    1.1136 C   0  0  2  0  0  0  0  0  0  0  0  0
   -0.5435   -8.7279    2.0178 C   0  0  2  0  0  0  0  0  0  0  0  0
   -1.9084   -0.1389   -0.3785 C   0  0  2  0  0  0  0  0  0  0  0  0
   -1.9001   -4.5405    0.6749 C   0  0  2  0  0  0  0  0  0  0  0  0
   -2.4430   -7.3327    1.1198 C   0  0  2  0  0  0  0  0  0  0  0  0
   -2.3726   -2.2586    1.5530 C   0  0  2  0  0  0  0  0  0  0  0  0
   -1.3028   -9.9414    1.4731 C   0  0  2  0  0  0  0  0  0  0  0  0
   -1.0705   -0.3776    0.9234 C   0  0  1  0  0  0  0  0  0  0  0  0
   -2.8449   -5.0726    1.7788 C   0  0  1  0  0  0  0  0  0  0  0  0
    2.6683    2.2253    0.6280 O   0  0  0  0  0  0  0  0  0  0  0  0
   -4.4268   -9.5517   -1.1868 O   0  0  0  0  0  0  0  0  0  0  0  0
   -5.3508   -2.5025    3.8265 O   0  0  0  0  0  0  0  0  0  0  0  0
    0.5852    2.2825   -1.8436 O   0  0  0  0  0  0  0  0  0  0  0  0
   -1.8456    0.8804   -2.5742 O   0  0  0  0  0  0  0  0  0  0  0  0
   -0.6966   -6.4343    2.6581 O   0  0  0  0  0  0  0  0  0  0  0  0
   -0.4927   -2.7986   -0.0240 O   0  0  0  0  0  0  0  0  0  0  0  0
    0.2182   -9.0038    3.1997 O   0  0  0  0  0  0  0  0  0  0  0  0
   -2.4759   -1.2982   -1.0294 O   0  0  0  0  0  0  0  0  0  0  0  0
   -0.7583   -5.3276    0.2697 O   0  0  0  0  0  0  0  0  0  0  0  0
   -0.3861  -10.9497    1.0838 O   0  0  0  0  0  0  0  0  0  0  0  0
   -2.0839   -9.6021    0.3347 O   0  0  0  0  0  0  0  0  0  0  0  0
   -0.5211    0.8749    1.3658 O   0  0  0  0  0  0  0  0  0  0  0  0
   -3.8741   -4.1030    2.0407 O   0  0  0  0  0  0  0  0  0  0  0  0
   -3.4268   -6.3246    1.3965 O   0  0  0  0  0  0  0  0  0  0  0  0
   -1.8346   -0.9983    1.9678 O   0  0  0  0  0  0  0  0  0  0  0  0
  4  1  1  1
  5  2  1  6
  6  3  1  6
  7  4  1  0
  7 22  1  6
  8  7  1  0
  8 23  1  6
  9 24  1  6
 10 25  1  6
 11  9  1  0
 11 26  1  1
 12  8  1  0
 12 27  1  6
 13 10  1  0
 13 28  1  1
 14  5  1  0
 14  9  1  0
 14 33  1  1
 15  6  1  0
 15 10  1  0
 15 34  1  1
 16 11  1  0
 16 29  1  6
 17 12  1  0
 17 34  1  1
 18 13  1  0
 18 33  1  6
 19  1  1  0
 20  2  1  0
 21  3  1  0
 30  5  1  0
 30 16  1  0
 31  4  1  0
 31 17  1  0
 32  6  1  0
 32 18  1  0
M  END
>  <DRUGBANK_ID>  (1) 
DB01697

>  <SECONDARY_ACCESSION_NUMBERS>  (1) 
EXPT01054

>  <COMMON_NAME>  (1) 
beta-cellotriose

>  <SYNONYMS>  (1) 
Î²-cellotriose

$$$$
