
     RDKit          3D

 16 17  0  0  0  0  0  0  0  0999 V2000
    1.0549   -0.0447    0.1271 O   0  0  0  0  0  0  0  0  0  0  0  0
    2.2937   -0.1381    0.1385 N   0  0  0  0  0  0  0  0  0  0  0  0
    2.9448   -1.0013   -0.4600 O   0  0  0  0  0  0  0  0  0  0  0  0
    3.0293    0.8547    0.9052 C   0  0  0  0  0  0  0  0  0  0  0  0
    2.7185    1.0366    2.2597 C   0  0  0  0  0  0  0  0  0  0  0  0
    1.5322    0.1128    3.1156 Cl  0  0  0  0  0  0  0  0  0  0  0  0
    3.4105    2.0010    2.9997 C   0  0  0  0  0  0  0  0  0  0  0  0
    4.4038    2.7732    2.3986 C   0  0  0  0  0  0  0  0  0  0  0  0
    4.7208    2.5802    1.0515 C   0  0  0  0  0  0  0  0  0  0  0  0
    4.0390    1.6201    0.2818 C   0  0  0  0  0  0  0  0  0  0  0  0
    4.3638    1.5041   -1.1347 C   0  0  0  0  0  0  0  0  0  0  0  0
    5.6221    1.1680   -1.6063 C   0  0  0  0  0  0  0  0  0  0  0  0
    5.5551    1.0842   -2.9772 N   0  0  0  0  0  0  0  0  0  0  0  0
    4.2798    1.3612   -3.3891 C   0  0  0  0  0  0  0  0  0  0  0  0
    3.5250    1.6445   -2.2767 C   0  0  0  0  0  0  0  0  0  0  0  0
    1.8806    2.0756   -2.2833 Cl  0  0  0  0  0  0  0  0  0  0  0  0
  1  2  1  0
  2  3  2  0
  2  4  1  0
  4  5  2  0
  4 10  1  0
  5  6  1  0
  5  7  1  0
  7  8  2  0
  8  9  1  0
  9 10  2  0
 10 11  1  0
 11 12  2  0
 11 15  1  0
 12 13  1  0
 13 14  1  0
 14 15  2  0
 15 16  1  0
M  CHG  2   1  -1   2   1
M  END
>  <DRUGBANK_ID>  (1) 
DB13603

>  <COMMON_NAME>  (1) 
Pyrrolnitrin

>  <CAS_NUMBER>  (1) 
1018-71-9

>  <UNII>  (1) 
N0P24B6EDQ

>  <SYNONYMS>  (1) 
pirrolnitrina; Pyrrolnitrin

$$$$
