455
     RDKit          3D

 27 30  0  0  0  0  0  0  0  0999 V2000
    1.0168    0.0434    0.0756 Cl  0  0  0  0  0  0  0  0  0  0  0  0
   11.2568   -3.4463   -3.0445 O   0  0  0  0  0  0  0  0  0  0  0  0
    9.3182   -4.2321   -3.7803 O   0  0  0  0  0  0  0  0  0  0  0  0
    9.1696   -2.8801   -1.9320 N   0  0  0  0  0  0  0  0  0  0  0  0
    8.7576    0.3163    1.6898 N   0  0  0  0  0  0  0  0  0  0  0  0
    7.6326   -0.6165   -0.9190 C   0  0  0  0  0  0  0  0  0  0  0  0
    7.0631   -1.5246   -2.0265 C   0  0  0  0  0  0  0  0  0  0  0  0
    9.1221   -0.5868   -1.0574 C   0  0  0  0  0  0  0  0  0  0  0  0
    6.9836    0.0710    0.0545 C   0  0  0  0  0  0  0  0  0  0  0  0
    7.6972   -2.9421   -1.9750 C   0  0  0  0  0  0  0  0  0  0  0  0
    9.6169   -2.0181   -0.8307 C   0  0  0  0  0  0  0  0  0  0  0  0
    5.5132    0.0337    0.0387 C   0  0  0  0  0  0  0  0  0  0  0  0
    7.7141    0.9262    1.0563 C   0  0  0  0  0  0  0  0  0  0  0  0
    4.8163    1.2155   -0.2540 C   0  0  0  0  0  0  0  0  0  0  0  0
    5.5783    2.4831   -0.5338 C   0  0  0  0  0  0  0  0  0  0  0  0
    6.1943    3.0198    0.7518 C   0  0  0  0  0  0  0  0  0  0  0  0
    7.3396    2.2446    1.3599 C   0  0  0  0  0  0  0  0  0  0  0  0
    4.8189   -1.1428    0.3385 C   0  0  0  0  0  0  0  0  0  0  0  0
    9.8952   -3.5368   -2.9333 C   0  0  0  0  0  0  0  0  0  0  0  0
    3.4206    1.2153   -0.2227 C   0  0  0  0  0  0  0  0  0  0  0  0
    8.0695    2.9215    2.3529 C   0  0  0  0  0  0  0  0  0  0  0  0
    3.4269   -1.1431    0.3348 C   0  0  0  0  0  0  0  0  0  0  0  0
    2.7355    0.0363    0.0615 C   0  0  0  0  0  0  0  0  0  0  0  0
    9.1429    2.3128    2.9810 C   0  0  0  0  0  0  0  0  0  0  0  0
    9.4516    1.0217    2.6112 C   0  0  0  0  0  0  0  0  0  0  0  0
   12.1570   -2.6264   -2.2840 C   0  0  0  0  0  0  0  0  0  0  0  0
   11.8809   -1.1617   -2.5692 C   0  0  0  0  0  0  0  0  0  0  0  0
  1 23  1  0
  2 19  1  0
  2 26  1  0
  3 19  2  0
  4 10  1  0
  4 11  1  0
  4 19  1  0
  5 13  2  0
  5 25  1  0
  6  7  1  0
  6  8  1  0
  6  9  2  3
  7 10  1  0
  8 11  1  0
  9 12  1  0
  9 13  1  0
 12 14  2  0
 12 18  1  0
 13 17  1  0
 14 15  1  0
 14 20  1  0
 15 16  1  0
 16 17  1  0
 17 21  2  0
 18 22  2  0
 20 23  2  0
 21 24  1  0
 22 23  1  0
 24 25  2  0
 26 27  1  0
M  END
>  <DRUGBANK_ID>  (1) 
DB00455

>  <SECONDARY_ACCESSION_NUMBERS>  (1) 
APRD00384

>  <COMMON_NAME>  (1) 
Loratadine

>  <CAS_NUMBER>  (1) 
79794-75-5

>  <UNII>  (1) 
7AJO3BO7QN

>  <SYNONYMS>  (1) 
Loratadina; Loratadine; Loratadinum

$$$$
