
     RDKit          3D

 10  4  0  0  0  0  0  0  0  0999 V2000
    0.9519    0.0723   -0.0497 O   0  0  0  0  0  0  0  0  0  0  0  0
    2.6819    0.0723   -0.0497 P   0  0  0  0  0  0  0  0  0  0  0  0
    2.6997    1.4643   -0.6802 O   0  0  0  0  0  0  0  0  0  0  0  0
    4.4119    0.0723   -0.0497 O   0  0  0  0  0  0  0  0  0  0  0  0
    2.7383   -1.1230   -0.9992 O   0  0  0  0  0  0  0  0  0  0  0  0
    1.3140   -0.9574   -2.6667 K   0  0  0  0  0 15  0  0  0  0  0  0
    0.3072    2.1863    0.9417 O   0  0  0  0  0  0  0  0  0  0  0  0
    0.8991    2.5748   -1.5217 K   0  0  0  0  0 15  0  0  0  0  0  0
   -0.6287   -0.7258    1.7637 O   0  0  0  0  0  0  0  0  0  0  0  0
    1.3523   -2.4737    0.5079 O   0  0  0  0  0  0  0  0  0  0  0  0
  1  2  1  0
  2  5  1  0
  2  3  2  0
  2  4  1  0
M  CHG  4   1  -1   5  -1   6   1   8   1
M  END
>  <DRUGBANK_ID>  (1) 
DB16534

>  <COMMON_NAME>  (1) 
Potassium phosphate, dibasic, trihydrate

>  <CAS_NUMBER>  (1) 
16788-57-1

>  <UNII>  (1) 
RJK174X3TZ

>  <SYNONYMS>  (1) 
Dipotassium hydrogen phosphate trihydrate; Dipotassium monophosphate trihydrate

$$$$
