317
     RDKit          3D

 30 33  0  0  0  0  0  0  0  0999 V2000
    0.9385    0.0358   -0.1140 C   0  0  2  0  0  0  0  0  0  0  0  0
    0.4259   -0.4394    1.2771 C   0  0  1  0  0  0  0  0  0  0  0  0
    0.8016    0.5418    2.3931 C   0  0  0  0  0  0  0  0  0  0  0  0
   -0.0188    1.2365    3.2113 C   0  0  0  0  0  0  0  0  0  0  0  0
    2.1361    0.7394    2.5647 F   0  0  0  0  0  0  0  0  0  0  0  0
   -1.0096   -0.7170    1.1795 N   0  0  0  0  0  0  0  0  0  0  0  0
    0.4765    1.4924   -0.4147 C   0  0  0  0  0  0  0  0  0  0  0  0
    0.4541    2.2461    4.2334 C   0  0  0  0  0  0  0  0  0  0  0  0
   -0.7560    3.1618    4.4685 C   0  0  0  0  0  0  0  0  0  0  0  0
   -1.8332    2.7071    3.5060 C   0  0  0  0  0  0  0  0  0  0  0  0
   -1.5207    1.2546    3.2570 C   0  0  0  0  0  0  0  0  0  0  0  0
    0.9649    1.9819   -1.7475 C   0  0  0  0  0  0  0  0  0  0  0  0
    0.6894    3.3719   -2.2512 C   0  0  0  0  0  0  0  0  0  0  0  0
   -0.0671    2.2151   -2.8264 C   0  0  0  0  0  0  0  0  0  0  0  0
    0.4810   -0.8995   -1.2126 C   0  0  0  0  0  0  0  0  0  0  0  0
   -0.1718   -0.6170   -2.3181 N   0  0  0  0  0  0  0  0  0  0  0  0
   -0.2135   -1.8109   -2.9797 C   0  0  0  0  0  0  0  0  0  0  0  0
    0.2936   -2.8385   -2.2792 N   0  0  0  0  0  0  0  0  0  0  0  0
    0.7856   -2.2287   -1.1113 O   0  0  0  0  0  0  0  0  0  0  0  0
   -0.7657   -1.9130   -4.3237 C   0  0  0  0  0  0  0  0  0  0  0  0
   -1.8857   -2.7297   -4.5484 C   0  0  0  0  0  0  0  0  0  0  0  0
   -2.4469   -2.8516   -5.8279 C   0  0  0  0  0  0  0  0  0  0  0  0
   -1.8900   -2.1548   -6.9002 C   0  0  0  0  0  0  0  0  0  0  0  0
   -0.7793   -1.3286   -6.6954 C   0  0  0  0  0  0  0  0  0  0  0  0
   -0.2201   -1.2102   -5.4131 C   0  0  0  0  0  0  0  0  0  0  0  0
   -2.5396   -2.2931   -8.5554 S   0  0  0  0  0  0  0  0  0  0  0  0
   -3.0480   -0.9869   -8.9069 O   0  0  0  0  0  0  0  0  0  0  0  0
   -1.5009   -2.9360   -9.3464 O   0  0  0  0  0  0  0  0  0  0  0  0
   -3.9196   -3.4068   -8.4952 C   0  0  0  0  0  0  0  0  0  0  0  0
    1.1975   -0.2277   -5.2693 Cl  0  0  0  0  0  0  0  0  0  0  0  0
  1  2  1  0
  1  7  1  6
  1 15  1  0
  2  3  1  0
  2  6  1  6
  3  4  2  3
  3  5  1  0
  4  8  1  0
  4 11  1  0
  7 12  1  0
  8  9  1  0
  9 10  1  0
 10 11  1  0
 12 13  1  0
 12 14  1  0
 13 14  1  0
 15 16  2  0
 15 19  1  0
 16 17  1  0
 17 18  2  0
 17 20  1  0
 18 19  1  0
 20 21  2  0
 20 25  1  0
 21 22  1  0
 22 23  2  0
 23 24  1  0
 23 26  1  0
 24 25  2  0
 25 30  1  0
 26 27  2  0
 26 28  2  0
 26 29  1  0
M  END
>  <DRUGBANK_ID>  (1) 
DB06994

>  <COMMON_NAME>  (1) 
(2S,3S)-3-{3-[2-chloro-4-(methylsulfonyl)phenyl]-1,2,4-oxadiazol-5-yl}-1-cyclopentylidene-4-cyclopropyl-1-fluorobutan-2-amine

$$$$
