
     RDKit          3D

 34 37  0  0  1  0  0  0  0  0999 V2000
    1.0004   -0.0982   -0.0511 C   0  0  0  0  0  0  0  0  0  0  0  0
    0.6264   -0.5679   -1.4351 C   0  0  1  0  0  0  0  0  0  0  0  0
    0.8247    0.2858   -2.6765 C   0  0  0  0  0  0  0  0  0  0  0  0
    0.3667    1.7390   -2.3793 C   0  0  1  0  0  0  0  0  0  0  0  0
    1.1063    2.2655   -1.1287 C   0  0  2  0  0  0  0  0  0  0  0  0
    0.6256    1.3853    0.1032 C   0  0  0  0  0  0  0  0  0  0  0  0
    0.5881    2.6349   -3.6065 C   0  0  0  0  0  0  0  0  0  0  0  0
    0.3819    4.2016   -3.4193 C   0  0  2  0  0  0  0  0  0  0  0  0
    1.2694    4.8008   -2.2046 C   0  0  2  0  0  0  0  0  0  0  0  0
    0.8157    3.8031   -0.9407 C   0  0  2  0  0  0  0  0  0  0  0  0
    1.7956    6.6069   -1.9898 C   0  0  1  0  0  0  0  0  0  0  0  0
    1.5726    6.4138   -0.5652 C   0  0  2  0  0  0  0  0  0  0  0  0
    1.0613    5.6072    0.5349 C   0  0  0  0  0  0  0  0  0  0  0  0
    1.4363    4.2037    0.3735 C   0  0  0  0  0  0  0  0  0  0  0  0
    2.7017    7.9685   -0.7844 C   0  0  0  0  0  0  0  0  0  0  0  0
    1.7252    8.6100    0.2343 C   0  0  0  0  0  0  0  0  0  0  0  0
    0.8095    7.8901   -0.5975 C   0  0  2  0  0  0  0  0  0  0  0  0
    0.9965   -1.9158   -1.6239 O   0  0  0  0  0  0  0  0  0  0  0  0
    3.3215    5.8134   -0.8869 C   0  0  0  0  0  0  0  0  0  0  0  0
   -0.6520    8.0583   -0.4113 C   0  0  2  0  0  0  0  0  0  0  0  0
   -1.1699    7.5759    0.9125 C   0  0  0  0  0  0  0  0  0  0  0  0
   -1.3404    7.4694   -1.6561 C   0  0  0  0  0  0  0  0  0  0  0  0
   -2.7304    8.0346   -1.8189 C   0  0  0  0  0  0  0  0  0  0  0  0
   -2.6809    9.5385   -2.0613 C   0  0  0  0  0  0  0  0  0  0  0  0
    2.6291    2.0701   -1.3036 C   0  0  0  0  0  0  0  0  0  0  0  0
   -3.2058    9.9717   -3.2421 N   0  0  0  0  0  0  0  0  0  0  0  0
   -3.1518   11.3776   -3.6074 C   0  0  0  0  0  0  0  0  0  0  0  0
   -2.2087   10.3466   -1.2639 O   0  0  0  0  0  0  0  0  0  0  0  0
   -2.4516   11.6157   -4.9284 C   0  0  0  0  0  0  0  0  0  0  0  0
   -3.2822   10.7758   -6.2610 S   0  0  0  0  0  0  0  0  0  0  0  0
   -4.6949   11.5578   -6.1772 O   0  0  0  0  0  0  0  0  0  0  0  0
   -2.6391   11.1439   -7.5191 O   0  0  0  0  0  0  0  0  0  0  0  0
   -3.5311    9.4125   -5.8958 O   0  0  0  0  0  0  0  0  0  0  0  0
   -1.0211    4.4316   -3.3001 O   0  0  0  0  0  0  0  0  0  0  0  0
  1  2  1  0
  2  3  1  0
  2 18  1  6
  4  3  1  6
  4  5  1  0
  4  7  1  0
  5  6  1  0
  5 25  1  6
  6  1  1  0
  7  8  1  0
  9  8  1  6
  8 34  1  1
  9 10  1  0
  9 11  1  0
 10  5  1  0
 11 12  1  0
 11 15  1  1
 12 13  1  0
 12 19  1  1
 13 14  1  0
 10 14  1  1
 15 16  1  0
 17 16  1  1
 17 12  1  0
 17 20  1  0
 20 22  1  0
 20 21  1  1
 22 23  1  0
 23 24  1  0
 26 24  1  0
 27 26  1  0
 28 24  2  0
 29 27  1  0
 30 29  1  0
 31 30  1  0
 32 30  2  0
 33 30  2  0
M  END
>  <DRUGBANK_ID>  (1) 
DB08833

>  <COMMON_NAME>  (1) 
Taurochenodeoxycholic acid

>  <CAS_NUMBER>  (1) 
516-35-8

>  <UNII>  (1) 
651KU15938

>  <SYNONYMS>  (1) 
Chenodeoxycholoyltaurine; Taurine chenodeoxycholate; Taurochenodeoxycholate; Taurochenodeoxycholic acid

$$$$
