
     RDKit          3D

 28 32  0  0  0  0  0  0  0  0999 V2000
    1.1388   -0.0399    0.2232 C   0  0  0  0  0  0  0  0  0  0  0  0
    0.5742    1.1936   -0.5357 C   0  0  0  0  0  0  0  0  0  0  0  0
    3.0566   -8.6940   -2.4979 C   0  0  0  0  0  0  0  0  0  0  0  0
    0.3072   -3.9567   -4.6350 C   0  0  0  0  0  0  0  0  0  0  0  0
    0.6990   -3.2138   -5.9121 C   0  0  0  0  0  0  0  0  0  0  0  0
    2.1661   -7.8066   -3.0425 C   0  0  0  0  0  0  0  0  0  0  0  0
    3.5817   -8.3153   -1.2887 C   0  0  0  0  0  0  0  0  0  0  0  0
    0.6778   -1.3504   -0.3771 C   0  0  0  0  0  0  0  0  0  0  0  0
    0.9755    1.3404   -2.0271 C   0  0  0  0  0  0  0  0  0  0  0  0
    2.4986   -2.8971   -0.4536 C   0  0  0  0  0  0  0  0  0  0  0  0
    0.1429   -3.6615   -0.3945 C   0  0  0  0  0  0  0  0  0  0  0  0
    2.9598   -4.3043   -0.0675 C   0  0  0  0  0  0  0  0  0  0  0  0
    0.6165   -5.0879   -0.1365 C   0  0  0  0  0  0  0  0  0  0  0  0
    2.0167   -2.3608   -4.1323 C   0  0  0  0  0  0  0  0  0  0  0  0
    0.7418   -2.9468   -3.5648 C   0  0  1  0  0  0  0  0  0  0  0  0
    1.3074   -1.8967   -5.3895 C   0  0  2  0  0  0  0  0  0  0  0  0
   -0.3220   -1.8000   -3.6081 C   0  0  2  0  0  0  0  0  0  0  0  0
    0.1590   -1.0315   -4.8432 C   0  0  1  0  0  0  0  0  0  0  0  0
   -0.4793   -0.5956   -2.7029 C   0  0  0  0  0  0  0  0  0  0  0  0
    0.6986    0.2816   -4.2868 C   0  0  0  0  0  0  0  0  0  0  0  0
    2.3610   -6.3780   -1.2467 C   0  0  0  0  0  0  0  0  0  0  0  0
    1.7840   -6.6691   -2.4286 N   0  0  0  0  0  0  0  0  0  0  0  0
    3.2847   -7.1568   -0.6696 N   0  0  0  0  0  0  0  0  0  0  0  0
    1.1326   -2.6365    0.0911 N   0  0  0  0  0  0  0  0  0  0  0  0
    1.9834   -5.2294   -0.6221 N   0  0  0  0  0  0  0  0  0  0  0  0
    0.5444    0.2728   -2.9368 N   0  0  0  0  0  0  0  0  0  0  0  0
   -1.4199   -0.4211   -1.9688 O   0  0  0  0  0  0  0  0  0  0  0  0
    1.1422    1.1912   -4.9748 O   0  0  0  0  0  0  0  0  0  0  0  0
  2  1  1  0
  5  4  1  0
  6  3  2  0
  7  3  1  0
  8  1  1  0
  9  2  1  0
 12 10  1  0
 13 11  1  0
 15  4  1  6
 15 14  1  0
 16  5  1  1
 16 14  1  0
 17 15  1  0
 18 16  1  0
 18 17  1  0
 17 19  1  1
 18 20  1  1
 22  6  1  0
 22 21  2  0
 23  7  2  0
 23 21  1  0
 24  8  1  0
 24 10  1  0
 24 11  1  0
 25 12  1  0
 25 13  1  0
 25 21  1  0
 26  9  1  0
 26 19  1  0
 26 20  1  0
 27 19  2  0
 28 20  2  0
M  END
>  <DRUGBANK_ID>  (1) 
DB12833

>  <COMMON_NAME>  (1) 
Tandospirone

>  <CAS_NUMBER>  (1) 
87760-53-0

>  <UNII>  (1) 
190230I669

>  <SYNONYMS>  (1) 
Tandospirone

$$$$
