988
     RDKit          3D

 11 11  0  0  0  0  0  0  0  0999 V2000
    1.7101   -1.3561    0.0263 O   0  0  0  0  0  0  0  0  0  0  0  0
    1.7292    1.3677    0.0244 O   0  0  0  0  0  0  0  0  0  0  0  0
   -4.5051    0.3764    1.3394 N   0  0  0  0  0  0  0  0  0  0  0  0
   -3.2566   -1.3444   -0.0370 C   0  0  0  0  0  0  0  0  0  0  0  0
   -1.9067   -0.6543   -0.0628 C   0  0  0  0  0  0  0  0  0  0  0  0
   -4.1177   -1.0305    1.2072 C   0  0  0  0  0  0  0  0  0  0  0  0
   -0.7071   -1.3811   -0.0093 C   0  0  0  0  0  0  0  0  0  0  0  0
   -1.8415    0.7491   -0.1504 C   0  0  0  0  0  0  0  0  0  0  0  0
    0.5108   -0.6990    0.0040 C   0  0  0  0  0  0  0  0  0  0  0  0
   -0.6281    1.4247   -0.0668 C   0  0  0  0  0  0  0  0  0  0  0  0
    0.5417    0.6955   -0.0035 C   0  0  0  0  0  0  0  0  0  0  0  0
  1  9  1  0
  2 11  1  0
  3  6  1  0
  4  5  1  0
  4  6  1  0
  5  7  2  0
  5  8  1  0
  7  9  1  0
  8 10  2  0
  9 11  2  0
 10 11  1  0
M  END
>  <DRUGBANK_ID>  (1) 
DB00988

>  <SECONDARY_ACCESSION_NUMBERS>  (1) 
APRD00085

>  <COMMON_NAME>  (1) 
Dopamine

>  <CAS_NUMBER>  (1) 
51-61-6

>  <UNII>  (1) 
VTD58H1Z2X

>  <SYNONYMS>  (1) 
2-(3,4-dihydroxyphenyl)ethylamine; 3-Hydroxytyramine; 3,4-Dihydroxyphenethylamine; 4-(2-aminoethyl)-1,2-benzenediol; 4-(2-Aminoethyl)benzene-1,2-diol; 4-(2-aminoethyl)catechol; 4-(2-aminoethyl)pyrocatechol; Dopamina; Dopamine; Dopaminum; Oxytyramine

$$$$
