
     RDKit          3D

 20 21  0  0  1  0  0  0  0  0999 V2000
    1.0368   -0.0163   -0.1298 Cl  0  0  0  0  0  0  0  0  0  0  0  0
    5.2890    2.6487    1.2408 O   0  0  0  0  0  0  0  0  0  0  0  0
    2.7184    2.1337   -0.0615 O   0  0  0  0  0  0  0  0  0  0  0  0
    4.1113    6.2253    0.9947 N   0  0  0  0  0  0  0  0  0  0  0  0
    3.5032    1.0033   -0.0620 N   0  0  0  0  0  0  0  0  0  0  0  0
    5.3278   -2.5931    0.8457 N   0  0  0  0  0  0  0  0  0  0  0  0
    4.8115    7.4906    0.7624 C   0  0  0  0  0  0  0  0  0  0  0  0
    3.0359    6.0646    0.0322 C   0  0  0  0  0  0  0  0  0  0  0  0
    3.7972    8.6491    0.7796 C   0  0  0  0  0  0  0  0  0  0  0  0
    2.0143    7.1558   -0.0920 C   0  0  0  0  0  0  0  0  0  0  0  0
    2.6943    8.4847   -0.2680 C   0  0  0  0  0  0  0  0  0  0  0  0
    5.0099    5.0465    0.9730 C   0  0  0  0  0  0  0  0  0  0  0  0
    4.2924    3.6630    1.0005 C   0  0  0  0  0  0  0  0  0  0  0  0
    3.5360    3.2704   -0.2969 C   0  0  0  0  0  0  0  0  0  0  0  0
    2.7648   -0.0720   -0.0776 C   0  0  0  0  0  0  0  0  0  0  0  0
    3.4815   -1.3372   -0.0456 C   0  0  0  0  0  0  0  0  0  0  0  0
    3.1055   -2.3916   -0.8687 C   0  0  0  0  0  0  0  0  0  0  0  0
    4.5894   -1.4680    0.7809 C   0  0  0  0  0  0  0  0  0  0  0  0
    3.8593   -3.5543   -0.8245 C   0  0  0  0  0  0  0  0  0  0  0  0
    4.9463   -3.6085    0.0388 C   0  0  0  0  0  0  0  0  0  0  0  0
  1 15  1  0
  2 13  1  0
  3  5  1  0
  3 14  1  0
  4  7  1  0
  4  8  1  0
  4 12  1  0
  5 15  2  0
  6 18  2  0
  6 20  1  0
  7  9  1  0
  8 10  1  0
  9 11  1  0
 10 11  1  0
 12 13  1  0
 13 14  1  0
 15 16  1  0
 16 17  2  0
 16 18  1  0
 17 19  1  0
 19 20  2  0
M  END
>  <DRUGBANK_ID>  (1) 
DB06258

>  <COMMON_NAME>  (1) 
Bimoclomol

>  <CAS_NUMBER>  (1) 
130493-03-7

>  <UNII>  (1) 
9IYF14814M

>  <SYNONYMS>  (1) 
Bimoclomol

$$$$
