
     RDKit          3D

 29 33  0  0  0  0  0  0  0  0999 V2000
    1.5437   -0.3692    0.0925 C   0  0  0  0  0  0  0  0  0  0  0  0
    0.6815   -1.5615    0.1701 C   0  0  0  0  0  0  0  0  0  0  0  0
   -0.7117   -1.4845    0.3132 C   0  0  0  0  0  0  0  0  0  0  0  0
   -1.0055   -0.0409    0.3514 C   0  0  0  0  0  0  0  0  0  0  0  0
   -0.2548    1.1674    0.3682 C   0  0  0  0  0  0  0  0  0  0  0  0
    1.0824    0.9742    0.1712 C   0  0  0  0  0  0  0  0  0  0  0  0
   -0.8088    2.4349    0.1947 O   0  0  0  0  0  0  0  0  0  0  0  0
   -2.2301    2.7132    0.4439 C   0  0  0  0  0  0  0  0  0  0  0  0
   -3.2136    2.5186   -0.7775 C   0  0  0  0  0  0  0  0  0  0  0  0
   -3.4475    1.1428   -1.1146 N   0  0  0  0  0  0  0  0  0  0  0  0
   -3.9152    0.3561   -0.0090 C   0  0  0  0  0  0  0  0  0  0  0  0
   -3.5099   -0.9949   -0.4357 C   0  0  0  0  0  0  0  0  0  0  0  0
   -3.8334   -1.5855   -1.7916 C   0  0  0  0  0  0  0  0  0  0  0  0
   -3.4262   -0.6362   -2.8601 C   0  0  0  0  0  0  0  0  0  0  0  0
   -3.9653    0.7335   -2.4133 C   0  0  0  0  0  0  0  0  0  0  0  0
   -1.7633   -2.9142    0.2453 C   0  0  0  0  0  0  0  0  0  0  0  0
   -3.4180   -3.4904    0.2726 C   0  0  0  0  0  0  0  0  0  0  0  0
   -4.9604   -3.1781    0.1120 C   0  0  0  0  0  0  0  0  0  0  0  0
   -6.0517   -3.8729    0.6865 C   0  0  0  0  0  0  0  0  0  0  0  0
   -5.6480   -4.9477    1.4204 C   0  0  0  0  0  0  0  0  0  0  0  0
   -4.3249   -5.4827    1.3203 C   0  0  0  0  0  0  0  0  0  0  0  0
   -3.2599   -4.7584    0.6975 C   0  0  0  0  0  0  0  0  0  0  0  0
   -1.9621   -5.0906    0.3834 N   0  0  0  0  0  0  0  0  0  0  0  0
   -1.0734   -4.0732    0.2214 N   0  0  0  0  0  0  0  0  0  0  0  0
   -7.4938   -3.4107    0.6697 C   0  0  0  0  0  0  0  0  0  0  0  0
   -8.3861   -3.5643   -0.3960 N   0  0  0  0  0  0  0  0  0  0  0  0
   -9.5540   -3.1691    0.0800 C   0  0  0  0  0  0  0  0  0  0  0  0
   -9.3865   -2.7591    1.3638 N   0  0  0  0  0  0  0  0  0  0  0  0
   -8.1075   -2.9111    1.7644 N   0  0  0  0  0  0  0  0  0  0  0  0
  1  2  2  0
  1  6  1  0
  2  3  1  0
  3  4  2  0
  3 16  1  0
  4  5  1  0
  5  6  2  0
  5  7  1  0
  7  8  1  0
  8  9  1  0
  9 10  1  0
 10 11  1  0
 10 15  1  0
 11 12  1  0
 12 13  1  0
 13 14  1  0
 14 15  1  0
 16 17  1  0
 16 24  2  0
 17 18  2  0
 17 22  1  0
 18 19  1  0
 19 20  2  0
 19 25  1  0
 20 21  1  0
 21 22  2  0
 22 23  1  0
 23 24  1  0
 25 26  1  0
 25 29  2  0
 26 27  2  0
 27 28  1  0
 28 29  1  0
M  END
>  <DRUGBANK_ID>  (1) 
DB12432

>  <COMMON_NAME>  (1) 
CC-401

>  <CAS_NUMBER>  (1) 
395104-30-0

>  <UNII>  (1) 
NOE38VQA1W

$$$$
