481
     RDKit          3D

 34 38  0  0  0  0  0  0  0  0999 V2000
    1.9673    1.0861   -0.0817 S   0  0  0  0  0  0  0  0  0  0  0  0
   -1.6443   -7.0159    0.1350 O   0  0  0  0  0  0  0  0  0  0  0  0
    3.4481   -3.2882    0.2961 O   0  0  0  0  0  0  0  0  0  0  0  0
   -3.2481    1.0239    0.0342 O   0  0  0  0  0  0  0  0  0  0  0  0
    8.2851   -1.2348    0.2697 O   0  0  0  0  0  0  0  0  0  0  0  0
   -2.8554   -4.7672   -1.8700 N   0  0  0  0  0  0  0  0  0  0  0  0
   -2.3383   -4.9000   -3.2453 C   0  0  0  0  0  0  0  0  0  0  0  0
   -3.5882   -3.5313   -1.6864 C   0  0  0  0  0  0  0  0  0  0  0  0
   -1.3069   -3.8041   -3.5754 C   0  0  0  0  0  0  0  0  0  0  0  0
   -2.6192   -2.4060   -1.9878 C   0  0  0  0  0  0  0  0  0  0  0  0
   -1.8426   -2.4225   -3.2832 C   0  0  0  0  0  0  0  0  0  0  0  0
   -3.4999   -5.9490   -1.2936 C   0  0  0  0  0  0  0  0  0  0  0  0
   -2.5199   -7.1314   -1.0264 C   0  0  0  0  0  0  0  0  0  0  0  0
   -0.6133   -6.1156    0.1602 C   0  0  0  0  0  0  0  0  0  0  0  0
    1.8223   -1.4946    0.1755 C   0  0  0  0  0  0  0  0  0  0  0  0
    0.4586   -0.9601    0.2430 C   0  0  0  0  0  0  0  0  0  0  0  0
    2.7265   -0.4437    0.0547 C   0  0  0  0  0  0  0  0  0  0  0  0
    0.3860    0.4268    0.0502 C   0  0  0  0  0  0  0  0  0  0  0  0
    1.3055   -4.0190    0.3353 C   0  0  0  0  0  0  0  0  0  0  0  0
    2.2617   -2.9123    0.3071 C   0  0  0  0  0  0  0  0  0  0  0  0
   -0.2663   -5.3087   -0.8935 C   0  0  0  0  0  0  0  0  0  0  0  0
    0.1819   -5.9725    1.2882 C   0  0  0  0  0  0  0  0  0  0  0  0
    0.5941   -4.2167   -0.8125 C   0  0  0  0  0  0  0  0  0  0  0  0
    1.1762   -4.9593    1.3572 C   0  0  0  0  0  0  0  0  0  0  0  0
    4.1941   -0.5171    0.0670 C   0  0  0  0  0  0  0  0  0  0  0  0
   -0.7717   -1.6021    0.4955 C   0  0  0  0  0  0  0  0  0  0  0  0
   -0.8601    1.1187    0.0097 C   0  0  0  0  0  0  0  0  0  0  0  0
   -1.9975   -0.9329    0.4777 C   0  0  0  0  0  0  0  0  0  0  0  0
   -2.0417    0.4043    0.1810 C   0  0  0  0  0  0  0  0  0  0  0  0
    4.9263   -0.0367    1.1629 C   0  0  0  0  0  0  0  0  0  0  0  0
    4.8667   -1.2162   -0.9456 C   0  0  0  0  0  0  0  0  0  0  0  0
    6.3071   -0.2552    1.2430 C   0  0  0  0  0  0  0  0  0  0  0  0
    6.2364   -1.4564   -0.8536 C   0  0  0  0  0  0  0  0  0  0  0  0
    6.9477   -0.9709    0.2344 C   0  0  0  0  0  0  0  0  0  0  0  0
  1 17  1  0
  1 18  1  0
  2 13  1  0
  2 14  1  0
  3 20  2  0
  4 29  1  0
  5 34  1  0
  6  7  1  0
  6  8  1  0
  6 12  1  0
  7  9  1  0
  8 10  1  0
  9 11  1  0
 10 11  1  0
 12 13  1  0
 14 21  2  0
 14 22  1  0
 15 16  1  0
 15 17  2  0
 15 20  1  0
 16 18  2  0
 16 26  1  0
 17 25  1  0
 18 27  1  0
 19 20  1  0
 19 23  2  0
 19 24  1  0
 21 23  1  0
 22 24  2  0
 25 30  2  0
 25 31  1  0
 26 28  2  0
 27 29  2  0
 28 29  1  0
 30 32  1  0
 31 33  2  0
 32 34  2  0
 33 34  1  0
M  END
>  <DRUGBANK_ID>  (1) 
DB00481

>  <SECONDARY_ACCESSION_NUMBERS>  (1) 
APRD00400

>  <COMMON_NAME>  (1) 
Raloxifene

>  <CAS_NUMBER>  (1) 
84449-90-1

>  <UNII>  (1) 
YX9162EO3I

>  <SYNONYMS>  (1) 
(2-(4-Hydroxyphenyl)-6-hydroxybenzo(b)thien-3-yl)(4-(2-(1-piperidinyl)ethoxy)phenyl)methanone; Raloxif√®ne; Raloxifene; Raloxifeno; Raloxifenum

$$$$
