EED
     RDKit          3D

 23 26  0  0  0  0  0  0  0  0999 V2000
    0.2219    0.3109    0.7551 C   0  0  2  0  0  0  0  0  0  0  0  0
    1.7407    0.2653    0.4896 C   0  0  0  0  0  0  0  0  0  0  0  0
    2.5226    1.4398    0.5184 C   0  0  0  0  0  0  0  0  0  0  0  0
    3.8722    1.4500    0.1287 C   0  0  0  0  0  0  0  0  0  0  0  0
    4.4593    0.2468   -0.2270 C   0  0  0  0  0  0  0  0  0  0  0  0
    5.7794    0.2106   -0.6049 O   0  0  0  0  0  0  0  0  0  0  0  0
    3.7392   -0.9313   -0.2006 C   0  0  0  0  0  0  0  0  0  0  0  0
    2.3736   -0.9532    0.1788 C   0  0  0  0  0  0  0  0  0  0  0  0
    1.6292   -2.2689    0.1641 C   0  0  0  0  0  0  0  0  0  0  0  0
    0.1788   -2.2355    0.7304 C   0  0  0  0  0  0  0  0  0  0  0  0
   -0.5175   -0.9588    0.2332 C   0  0  1  0  0  0  0  0  0  0  0  0
   -2.0748   -0.7863    0.3912 C   0  0  2  0  0  0  0  0  0  0  0  0
   -3.0053   -1.8565   -0.1459 C   0  0  0  0  0  0  0  0  0  0  0  0
   -4.4137   -1.2446    0.0510 C   0  0  0  0  0  0  0  0  0  0  0  0
   -4.2205    0.2322    0.4967 C   0  0  2  0  0  0  0  0  0  0  0  0
   -5.3080    1.0484    0.0611 O   0  0  0  0  0  0  0  0  0  0  0  0
   -2.8147    0.5714   -0.1000 C   0  0  2  0  0  0  0  0  0  0  0  0
   -3.2770    0.9563   -1.5700 C   0  0  0  0  0  0  0  0  0  0  0  0
   -2.0091    1.7048    0.5507 C   0  0  0  0  0  0  0  0  0  0  0  0
   -0.4693    1.6496    0.2649 C   0  0  2  0  0  0  0  0  0  0  0  0
    0.0013    2.1184   -1.1659 C   0  0  0  0  0  0  0  0  0  0  0  0
   -0.6558    1.7034   -2.3587 O   0  0  0  0  0  0  0  0  0  0  0  0
   -0.6636    0.2987   -2.5235 C   0  0  0  0  0  0  0  0  0  0  0  0
  1 20  1  0
  1 11  1  0
  1  2  1  6
  2  3  2  0
  2  8  1  0
  3  4  1  0
  4  5  2  0
  5  7  1  0
  5  6  1  0
  7  8  2  0
  8  9  1  0
  9 10  1  0
 11 10  1  1
 11 12  1  0
 12 17  1  0
 12 13  1  6
 13 14  1  0
 14 15  1  0
 15 16  1  6
 15 17  1  0
 17 19  1  0
 17 18  1  6
 19 20  1  0
 20 21  1  6
 21 22  1  0
 22 23  1  0
M  END
>  <DRUGBANK_ID>  (1) 
DB07707

>  <COMMON_NAME>  (1) 
(9BETA,11ALPHA,13ALPHA,14BETA,17ALPHA)-11-(METHOXYMETHYL)ESTRA-1(10),2,4-TRIENE-3,17-DIOL

$$$$
