
     RDKit          3D

 30 33  0  0  1  0  0  0  0  0999 V2000
   -0.7289   -0.9522    0.9638 C   0  0  0  0  0  0  0  0  0  0  0  0
    0.5727   -1.4302    0.2916 C   0  0  1  0  0  0  0  0  0  0  0  0
    1.2765   -2.3299    1.3026 N   0  0  0  0  0  0  0  0  0  0  0  0
    0.6566   -3.6623    1.4594 C   0  0  0  0  0  0  0  0  0  0  0  0
    0.7904   -4.4896    0.1897 C   0  0  0  0  0  0  0  0  0  0  0  0
    0.3851   -3.6569   -0.9460 C   0  0  0  0  0  0  0  0  0  0  0  0
    0.3208   -2.2858   -0.9609 C   0  0  0  0  0  0  0  0  0  0  0  0
    0.0981   -1.9048   -2.2639 N   0  0  0  0  0  0  0  0  0  0  0  0
    0.0991   -3.0110   -3.0396 N   0  0  0  0  0  0  0  0  0  0  0  0
    0.2414   -4.0970   -2.2313 N   0  0  0  0  0  0  0  0  0  0  0  0
    0.2354   -5.4857   -2.6050 C   0  0  0  0  0  0  0  0  0  0  0  0
   -0.5119   -6.3036   -1.8071 N   0  0  0  0  0  0  0  0  0  0  0  0
   -0.4174   -7.6356   -2.0029 C   0  0  0  0  0  0  0  0  0  0  0  0
    0.4412   -8.1911   -2.9100 C   0  0  0  0  0  0  0  0  0  0  0  0
    0.5129   -9.5145   -3.0893 F   0  0  0  0  0  0  0  0  0  0  0  0
    1.2075   -7.3036   -3.6310 C   0  0  0  0  0  0  0  0  0  0  0  0
    1.1158   -5.9481   -3.5218 N   0  0  0  0  0  0  0  0  0  0  0  0
    2.3050   -1.8691    2.1393 C   0  0  0  0  0  0  0  0  0  0  0  0
    2.7105   -0.7038    2.1500 O   0  0  0  0  0  0  0  0  0  0  0  0
    2.9662   -2.8509    3.0682 C   0  0  0  0  0  0  0  0  0  0  0  0
    3.6655   -3.9554    2.5439 C   0  0  0  0  0  0  0  0  0  0  0  0
    4.1052   -3.9365    0.8679 Cl  0  0  0  0  0  0  0  0  0  0  0  0
    4.0902   -5.0014    3.3838 C   0  0  0  0  0  0  0  0  0  0  0  0
    3.9371   -4.8518    4.7789 C   0  0  0  0  0  0  0  0  0  0  0  0
    3.3740   -3.6914    5.3151 C   0  0  0  0  0  0  0  0  0  0  0  0
    2.8797   -2.6937    4.4628 C   0  0  0  0  0  0  0  0  0  0  0  0
    4.7085   -6.2805    2.8701 C   0  0  0  0  0  0  0  0  0  0  0  0
    5.9882   -6.4405    3.3040 F   0  0  0  0  0  0  0  0  0  0  0  0
    4.0282   -7.3790    3.3134 F   0  0  0  0  0  0  0  0  0  0  0  0
    4.7523   -6.4297    1.5207 F   0  0  0  0  0  0  0  0  0  0  0  0
  2  3  1  0
  2  7  1  0
  2  1  1  1
  3  4  1  0
  3 18  1  0
  4  5  1  0
  5  6  1  0
  6  7  2  0
  6 10  1  0
  7  8  1  0
  8  9  2  0
  9 10  1  0
 10 11  1  0
 11 12  2  0
 11 17  1  0
 12 13  1  0
 13 14  2  0
 14 15  1  0
 14 16  1  0
 16 17  2  0
 18 19  2  0
 18 20  1  0
 20 21  2  0
 20 26  1  0
 21 22  1  0
 21 23  1  0
 23 24  2  0
 23 27  1  0
 24 25  1  0
 25 26  2  0
 27 28  1  0
 27 29  1  0
 27 30  1  0
M  END
>  <DRUGBANK_ID>  (1) 
DB15358

>  <COMMON_NAME>  (1) 
JNJ-54175446

>  <CAS_NUMBER>  (1) 
1627902-21-9

>  <UNII>  (1) 
32524GLF40

$$$$
