484
     RDKit          3D

 17 19  0  0  0  0  0  0  0  0999 V2000
    1.1341   -0.5350   -0.4592 Br  0  0  0  0  0  0  0  0  0  0  0  0
    0.6965    2.1551    1.0946 N   0  0  0  0  0  0  0  0  0  0  0  0
    2.8090    2.3842    0.1311 N   0  0  0  0  0  0  0  0  0  0  0  0
    0.8274    3.0632   -0.9855 N   0  0  0  0  0  0  0  0  0  0  0  0
    3.1543   -2.5173   -0.0934 N   0  0  0  0  0  0  0  0  0  0  0  0
    5.8741   -2.3239    0.4509 N   0  0  0  0  0  0  0  0  0  0  0  0
   -0.6634    2.0180    0.6175 C   0  0  0  0  0  0  0  0  0  0  0  0
   -0.6172    2.9541   -0.5914 C   0  0  0  0  0  0  0  0  0  0  0  0
    1.4593    2.5313    0.0264 C   0  0  0  0  0  0  0  0  0  0  0  0
    3.5209    1.1495    0.0275 C   0  0  0  0  0  0  0  0  0  0  0  0
    2.9648   -0.1456   -0.0464 C   0  0  0  0  0  0  0  0  0  0  0  0
    3.7362   -1.3080    0.0633 C   0  0  0  0  0  0  0  0  0  0  0  0
    4.9234    1.2129    0.1627 C   0  0  0  0  0  0  0  0  0  0  0  0
    5.1193   -1.2103    0.3257 C   0  0  0  0  0  0  0  0  0  0  0  0
    5.6832    0.0547    0.3912 C   0  0  0  0  0  0  0  0  0  0  0  0
    3.9133   -3.6107   -0.0198 C   0  0  0  0  0  0  0  0  0  0  0  0
    5.2547   -3.5145    0.2562 C   0  0  0  0  0  0  0  0  0  0  0  0
  1 11  1  0
  2  7  1  0
  2  9  1  0
  3  9  1  0
  3 10  1  0
  4  8  1  0
  4  9  2  0
  5 12  2  0
  5 16  1  0
  6 14  2  0
  6 17  1  0
  7  8  1  0
 10 11  2  0
 10 13  1  0
 11 12  1  0
 12 14  1  0
 13 15  2  0
 14 15  1  0
 16 17  2  0
M  END
>  <DRUGBANK_ID>  (1) 
DB00484

>  <SECONDARY_ACCESSION_NUMBERS>  (1) 
APRD00034

>  <COMMON_NAME>  (1) 
Brimonidine

>  <CAS_NUMBER>  (1) 
59803-98-4

>  <UNII>  (1) 
E6GNX3HHTE

>  <SYNONYMS>  (1) 
5-Bromo-6-(2-imidazolin-2-ylamino)quinoxaline; Brimonidina; Brimonidine; Brimonidinum; Bromoxidine

$$$$
