
     RDKit          3D

 24 26  0  0  0  0  0  0  0  0999 V2000
    1.9733    0.1218   -0.0610 O   0  0  0  0  0  0  0  0  0  0  0  0
   -3.4595   -5.8455   -0.8873 O   0  0  0  0  0  0  0  0  0  0  0  0
    2.2767   -1.9768    3.1426 O   0  0  0  0  0  0  0  0  0  0  0  0
   -0.0828   -0.9465   -0.2894 N   0  0  0  0  0  0  0  0  0  0  0  0
   -2.2088   -4.1050   -0.2864 N   0  0  0  0  0  0  0  0  0  0  0  0
   -1.1349   -4.9748    3.1435 N   0  0  0  0  0  0  0  0  0  0  0  0
    1.1718   -5.8293    2.9258 N   0  0  0  0  0  0  0  0  0  0  0  0
   -0.5605   -2.8743    3.7556 N   0  0  0  0  0  0  0  0  0  0  0  0
    2.9112   -4.1921    3.2014 N   0  0  0  0  0  0  0  0  0  0  0  0
   -1.4621   -0.5732   -0.0739 C   0  0  0  0  0  0  0  0  0  0  0  0
   -1.4795    0.8917   -0.3528 C   0  0  0  0  0  0  0  0  0  0  0  0
    0.4004   -2.3113   -0.4305 C   0  0  0  0  0  0  0  0  0  0  0  0
   -0.1268    1.3277    0.1965 C   0  0  0  0  0  0  0  0  0  0  0  0
    0.7576    0.1290   -0.0569 C   0  0  0  0  0  0  0  0  0  0  0  0
   -0.1282   -3.1554    0.6732 C   0  0  0  0  0  0  0  0  0  0  0  0
   -1.6298   -3.2823    0.6958 C   0  0  0  0  0  0  0  0  0  0  0  0
   -1.9467   -5.9932    2.4459 C   0  0  0  0  0  0  0  0  0  0  0  0
   -3.1705   -5.6199    1.5315 C   0  0  0  0  0  0  0  0  0  0  0  0
   -2.9413   -5.2166    0.0344 C   0  0  0  0  0  0  0  0  0  0  0  0
    0.2361   -4.9190    3.2375 C   0  0  0  0  0  0  0  0  0  0  0  0
    0.5827   -3.6160    3.5430 C   0  0  0  0  0  0  0  0  0  0  0  0
   -1.5632   -3.7162    3.5734 C   0  0  0  0  0  0  0  0  0  0  0  0
    1.9771   -3.1714    3.3096 C   0  0  0  0  0  0  0  0  0  0  0  0
    2.4816   -5.4057    3.0258 C   0  0  0  0  0  0  0  0  0  0  0  0
  1 14  2  0
  2 19  2  0
  3 23  2  0
  4 10  1  0
  4 12  1  0
  4 14  1  0
  5 16  1  0
  5 19  1  0
  6 17  1  0
  6 20  1  0
  6 22  1  0
  7 20  1  0
  7 24  1  0
  8 21  1  0
  8 22  2  0
  9 23  1  0
  9 24  2  0
 10 11  1  0
 11 13  1  0
 12 15  1  0
 13 14  1  0
 15 16  1  0
 17 18  1  0
 18 19  1  0
 20 21  2  0
 21 23  1  0
M  END
>  <DRUGBANK_ID>  (1) 
DB06106

>  <COMMON_NAME>  (1) 
AIT-034

>  <CAS_NUMBER>  (1) 
138117-48-3

>  <UNII>  (1) 
5F3GZ8G54Z

$$$$
