215
     RDKit          3D

 24 26  0  0  1  0  0  0  0  0999 V2000
    2.2458    0.4437   -0.0942 F   0  0  0  0  0  0  0  0  0  0  0  0
   -4.1086    0.8373   -1.2008 O   0  0  0  0  0  0  0  0  0  0  0  0
   -1.1604   -3.0531    0.3978 N   0  0  0  0  0  0  0  0  0  0  0  0
   -6.5986    4.9012    4.0831 N   0  0  0  0  0  0  0  0  0  0  0  0
   -3.5041    0.2918    0.0113 C   0  0  0  0  0  0  0  0  0  0  0  0
   -3.9694   -1.3040   -0.0375 C   0  0  0  0  0  0  0  0  0  0  0  0
   -4.1680    1.0704    1.1406 C   0  0  0  0  0  0  0  0  0  0  0  0
   -4.9183    2.0919    0.5804 C   0  0  0  0  0  0  0  0  0  0  0  0
   -3.3500   -2.3615   -1.0837 C   0  0  0  0  0  0  0  0  0  0  0  0
   -2.0002    0.6812   -0.0788 C   0  0  0  0  0  0  0  0  0  0  0  0
   -4.9190    1.9799   -0.8913 C   0  0  0  0  0  0  0  0  0  0  0  0
   -1.7980   -2.6936   -1.0765 C   0  0  0  0  0  0  0  0  0  0  0  0
   -4.0353    1.0229    2.5260 C   0  0  0  0  0  0  0  0  0  0  0  0
   -5.5361    3.0840    1.3289 C   0  0  0  0  0  0  0  0  0  0  0  0
   -1.2509    1.8137    0.0011 C   0  0  0  0  0  0  0  0  0  0  0  0
   -1.1440   -0.3196   -0.3190 C   0  0  0  0  0  0  0  0  0  0  0  0
   -4.6607    2.0218    3.3100 C   0  0  0  0  0  0  0  0  0  0  0  0
   -5.4098    3.0503    2.7124 C   0  0  0  0  0  0  0  0  0  0  0  0
    0.2058    1.7590    0.0072 C   0  0  0  0  0  0  0  0  0  0  0  0
    0.2060   -0.4299   -0.6530 C   0  0  0  0  0  0  0  0  0  0  0  0
    0.9270    0.6042   -0.2493 C   0  0  0  0  0  0  0  0  0  0  0  0
    0.3227   -3.0535    0.5012 C   0  0  0  0  0  0  0  0  0  0  0  0
   -1.5784   -2.3528    1.6948 C   0  0  0  0  0  0  0  0  0  0  0  0
   -6.0628    4.0786    3.5002 C   0  0  0  0  0  0  0  0  0  0  0  0
  1 21  1  0
  2  5  1  0
  2 11  1  0
  3 12  1  0
  3 22  1  0
  3 23  1  0
  4 24  3  0
  5  6  1  0
  5  7  1  0
  5 10  1  0
  6  9  1  0
  7  8  2  0
  7 13  1  0
  8 11  1  0
  8 14  1  0
  9 12  1  0
 10 15  2  0
 10 16  1  0
 13 17  2  0
 14 18  2  0
 15 19  1  0
 16 20  2  0
 17 18  1  0
 18 24  1  0
 19 21  2  0
 20 21  1  0
M  END
>  <DRUGBANK_ID>  (1) 
DB00215

>  <SECONDARY_ACCESSION_NUMBERS>  (1) 
APRD00147

>  <COMMON_NAME>  (1) 
Citalopram

>  <CAS_NUMBER>  (1) 
59729-33-8

>  <UNII>  (1) 
0DHU5B8D6V

>  <SYNONYMS>  (1) 
Citalopram; Citalopramum; Nitalapram

$$$$
