CQP
     RDKit          3D

 29 32  0  0  0  0  0  0  0  0999 V2000
    7.3252    5.3222    4.0185 Cl  0  0  0  0  0  0  0  0  0  0  0  0
    7.1560    3.6261    3.8045 C   0  0  0  0  0  0  0  0  0  0  0  0
    7.4608    2.7442    4.8383 C   0  0  0  0  0  0  0  0  0  0  0  0
    7.1619    1.3809    4.7114 C   0  0  0  0  0  0  0  0  0  0  0  0
    6.6812    0.8781    3.4992 C   0  0  0  0  0  0  0  0  0  0  0  0
    5.9931   -0.4805    3.4249 C   0  0  0  0  0  0  0  0  0  0  0  0
    4.5527   -0.4276    3.5487 O   0  0  0  0  0  0  0  0  0  0  0  0
    3.8239    0.0286    2.3983 C   0  0  1  0  0  0  0  0  0  0  0  0
    2.3162   -0.0961    2.6164 C   0  0  0  0  0  0  0  0  0  0  0  0
    1.9769    1.0106    3.5552 N   0  0  0  0  0  0  0  0  0  0  0  0
    2.8966    2.1253    3.2286 C   0  0  2  0  0  0  0  0  0  0  0  0
    2.2435    3.3099    2.5658 C   0  0  0  0  0  0  0  0  0  0  0  0
    3.0046    4.5398    2.2343 N   0  0  0  0  0  0  0  0  0  0  0  0
    1.9748    5.7640    1.5451 S   0  0  0  0  0  0  0  0  0  0  0  0
    0.8411    5.9157    2.4465 O   0  0  0  0  0  0  0  0  0  0  0  0
    2.8251    6.8892    1.2629 O   0  0  0  0  0  0  0  0  0  0  0  0
    1.3508    5.1073   -0.0164 C   0  0  0  0  0  0  0  0  0  0  0  0
    1.7779    5.7424   -1.1938 C   0  0  0  0  0  0  0  0  0  0  0  0
    1.2809    5.3286   -2.4305 C   0  0  0  0  0  0  0  0  0  0  0  0
    0.3974    4.2523   -2.5079 C   0  0  0  0  0  0  0  0  0  0  0  0
   -0.0218    3.5832   -1.3473 C   0  0  0  0  0  0  0  0  0  0  0  0
   -0.8626    2.4599   -1.4045 C   0  0  0  0  0  0  0  0  0  0  0  0
   -1.2716    1.7338   -0.3386 N   0  0  0  0  0  0  0  0  0  0  0  0
   -0.9215    2.2103    0.8585 C   0  0  0  0  0  0  0  0  0  0  0  0
   -0.1993    3.3772    1.0143 C   0  0  0  0  0  0  0  0  0  0  0  0
    0.3912    4.0430   -0.0815 C   0  0  0  0  0  0  0  0  0  0  0  0
    6.6775    1.7396    2.3856 C   0  0  0  0  0  0  0  0  0  0  0  0
    3.8681    1.5256    2.2646 C   0  0  0  0  0  0  0  0  0  0  0  0
    6.7278    3.1297    2.5852 C   0  0  0  0  0  0  0  0  0  0  0  0
  1  2  1  0
  2  3  2  0
  2 29  1  0
  3  4  1  0
  4  5  2  0
  5  6  1  0
  5 27  1  0
  6  7  1  0
  8  9  1  0
  8 28  1  0
  8  7  1  1
  9 10  1  0
 10 11  1  0
 11 28  1  0
 11 12  1  6
 12 13  1  0
 13 14  1  0
 14 15  2  0
 14 16  2  0
 14 17  1  0
 17 18  2  0
 17 26  1  0
 18 19  1  0
 19 20  2  0
 20 21  1  0
 21 22  1  0
 21 26  2  0
 22 23  2  0
 23 24  1  0
 24 25  2  0
 25 26  1  0
 27 29  2  0
M  END
>  <DRUGBANK_ID>  (1) 
DB07583

>  <COMMON_NAME>  (1) 
(4R,2S)-5'-(4-(4-CHLOROBENZYLOXY)PYRROLIDIN-2-YLMETHANESULFONYL)ISOQUINOLINE

$$$$
