
     RDKit          3D

 31 34  0  0  1  0  0  0  0  0999 V2000
   -2.6106    0.2256    2.3120 C   0  0  0  0  0  0  0  0  0  0  0  0
   -1.5281    0.0407    1.2558 C   0  0  1  0  0  0  0  0  0  0  0  0
   -1.9163   -1.0814    0.3510 C   0  0  0  0  0  0  0  0  0  0  0  0
   -3.1252   -1.5917    0.3207 N   0  0  0  0  0  0  0  0  0  0  0  0
   -3.1613   -2.6034   -0.6018 C   0  0  0  0  0  0  0  0  0  0  0  0
   -1.9801   -2.8320   -1.2762 C   0  0  0  0  0  0  0  0  0  0  0  0
   -0.7458   -1.8397   -0.6512 S   0  0  0  0  0  0  0  0  0  0  0  0
   -4.3833   -3.3263   -0.8661 C   0  0  0  0  0  0  0  0  0  0  0  0
   -5.5407   -2.6348   -1.2414 C   0  0  0  0  0  0  0  0  0  0  0  0
   -6.7042   -3.3401   -1.5606 C   0  0  0  0  0  0  0  0  0  0  0  0
   -6.7174   -4.7382   -1.5032 C   0  0  0  0  0  0  0  0  0  0  0  0
   -5.5750   -5.4240   -1.0761 C   0  0  0  0  0  0  0  0  0  0  0  0
   -4.4124   -4.7199   -0.7564 C   0  0  0  0  0  0  0  0  0  0  0  0
   -7.8778   -5.4600   -1.9185 C   0  0  0  0  0  0  0  0  0  0  0  0
   -8.8190   -6.0469   -2.2893 N   0  0  0  0  0  0  0  0  0  0  0  0
   -1.0375    1.3585    0.4995 C   0  0  2  0  0  0  0  0  0  0  0  0
    0.5409    1.3149    0.5645 C   0  0  0  0  0  0  0  0  0  0  0  0
    1.0875    1.5464    1.8999 N   0  0  0  0  0  0  0  0  0  0  0  0
    0.6391    1.1323    3.1204 C   0  0  0  0  0  0  0  0  0  0  0  0
    1.4085    1.5729    4.0783 N   0  0  0  0  0  0  0  0  0  0  0  0
    2.3424    2.2748    3.3936 C   0  0  0  0  0  0  0  0  0  0  0  0
    2.1984    2.2915    2.0649 N   0  0  0  0  0  0  0  0  0  0  0  0
   -1.5096    2.7579    0.9465 C   0  0  0  0  0  0  0  0  0  0  0  0
   -2.5275    3.0156    1.8762 C   0  0  0  0  0  0  0  0  0  0  0  0
   -2.7546    4.2527    2.4526 C   0  0  0  0  0  0  0  0  0  0  0  0
   -2.0787    5.3355    1.9586 C   0  0  0  0  0  0  0  0  0  0  0  0
   -1.1739    5.1815    0.9220 C   0  0  0  0  0  0  0  0  0  0  0  0
   -0.8935    3.9087    0.4299 C   0  0  0  0  0  0  0  0  0  0  0  0
   -0.0244    3.8209   -0.5866 F   0  0  0  0  0  0  0  0  0  0  0  0
   -2.3654    6.5456    2.4436 F   0  0  0  0  0  0  0  0  0  0  0  0
   -1.4456    1.2828   -0.8833 O   0  0  0  0  0  0  0  0  0  0  0  0
  2  1  1  6
  2  3  1  0
  3  4  2  0
  3  7  1  0
  4  5  1  0
  5  6  2  0
  5  8  1  0
  6  7  1  0
  8  9  2  0
  8 13  1  0
  9 10  1  0
 10 11  2  0
 11 12  1  0
 11 14  1  0
 12 13  2  0
 14 15  3  0
 16 23  1  0
 16 31  1  6
 16 17  1  0
 16  2  1  0
 17 18  1  0
 18 19  1  0
 18 22  1  0
 19 20  2  0
 20 21  1  0
 21 22  2  0
 23 24  2  0
 23 28  1  0
 24 25  1  0
 25 26  2  0
 26 27  1  0
 26 30  1  0
 27 28  2  0
 28 29  1  0
M  END
>  <DRUGBANK_ID>  (1) 
DB06440

>  <COMMON_NAME>  (1) 
Ravuconazole

>  <CAS_NUMBER>  (1) 
182760-06-1

>  <UNII>  (1) 
95YH599JWV

>  <SYNONYMS>  (1) 
Ravuconazole

$$$$
