AZL
     RDKit          3D

 30 31  0  0  0  0  0  0  0  0999 V2000
   -5.6014   -3.8256    0.2342 N   0  0  0  0  0  0  0  0  0  0  0  0
   -5.7258   -2.4068   -0.0064 C   0  0  0  0  0  0  0  0  0  0  0  0
   -6.4158   -1.4917    1.0107 C   0  0  0  0  0  0  0  0  0  0  0  0
   -5.6847   -1.3887    2.3612 C   0  0  0  0  0  0  0  0  0  0  0  0
   -4.4070   -0.5247    2.3145 C   0  0  0  0  0  0  0  0  0  0  0  0
   -4.3510    0.8558    1.8357 N   0  0  0  0  0  0  0  0  0  0  0  0
   -2.9715    1.2930    1.6641 N   0  0  0  0  0  0  0  0  0  0  0  0
   -2.3723    1.6531    0.4576 C   0  0  0  0  0  0  0  0  0  0  0  0
   -1.1997    2.0299    0.4158 O   0  0  0  0  0  0  0  0  0  0  0  0
   -3.1925    1.5460   -0.8157 C   0  0  1  0  0  0  0  0  0  0  0  0
   -3.9645    0.3082   -0.9537 N   0  0  0  0  0  0  0  0  0  0  0  0
   -4.2546    2.6435   -0.8289 C   0  0  0  0  0  0  0  0  0  0  0  0
   -5.2689    2.1475   -1.8415 C   0  0  0  0  0  0  0  0  0  0  0  0
   -5.1524    0.6160   -1.7902 C   0  0  0  0  0  0  0  0  0  0  0  0
   -3.3125   -0.9475   -1.0007 C   0  0  0  0  0  0  0  0  0  0  0  0
   -3.6273   -1.7665   -1.8737 O   0  0  0  0  0  0  0  0  0  0  0  0
   -2.2047   -1.3680    0.1277 C   0  0  2  0  0  0  0  0  0  0  0  0
   -1.1360   -1.8246   -0.7131 N   0  0  0  0  0  0  0  0  0  0  0  0
   -2.4126   -2.4622    1.2672 C   0  0  0  0  0  0  0  0  0  0  0  0
   -1.3234   -2.5139    2.3212 C   0  0  0  0  0  0  0  0  0  0  0  0
   -0.7966   -1.3671    2.9490 C   0  0  0  0  0  0  0  0  0  0  0  0
    0.2545   -1.4667    3.8539 C   0  0  0  0  0  0  0  0  0  0  0  0
    0.7073   -2.7276    4.2185 C   0  0  0  0  0  0  0  0  0  0  0  0
    0.0886   -3.8731    3.7106 C   0  0  0  0  0  0  0  0  0  0  0  0
   -0.9018   -3.7673    2.7435 C   0  0  0  0  0  0  0  0  0  0  0  0
    0.1975   -1.6882   -0.4691 C   0  0  0  0  0  0  0  0  0  0  0  0
    1.0089   -2.2374   -1.1728 O   0  0  0  0  0  0  0  0  0  0  0  0
    0.4676   -0.9055    0.6082 O   0  0  0  0  0  0  0  0  0  0  0  0
    1.8323   -0.8008    1.0499 C   0  0  0  0  0  0  0  0  0  0  0  0
    2.4970   -2.1366    1.3529 C   0  0  0  0  0  0  0  0  0  0  0  0
  1  2  1  0
  2  3  1  0
  3  4  1  0
  4  5  1  0
  5  6  1  0
  6  7  1  0
  7  8  1  0
  8  9  2  0
 10  8  1  1
 10 11  1  0
 10 12  1  0
 11 14  1  0
 11 15  1  0
 12 13  1  0
 13 14  1  0
 15 16  2  0
 17 19  1  1
 17 18  1  0
 17 15  1  0
 18 26  1  0
 19 20  1  0
 20 21  2  0
 20 25  1  0
 21 22  1  0
 22 23  2  0
 23 24  1  0
 24 25  2  0
 26 27  2  0
 26 28  1  0
 28 29  1  0
 29 30  1  0
M  END
>  <DRUGBANK_ID>  (1) 
DB07400

>  <COMMON_NAME>  (1) 
1-ETHOXYCARBONYL-D-PHE-PRO-2(4-AMINOBUTYL)HYDRAZINE

$$$$
