
     RDKit          3D

 28 31  0  0  0  0  0  0  0  0999 V2000
    1.0527    0.0201   -0.0673 N   0  0  0  0  0  0  0  0  0  0  0  0
    0.3290    0.8429   -0.8796 C   0  0  0  0  0  0  0  0  0  0  0  0
   -0.8955    0.8987   -0.8037 O   0  0  0  0  0  0  0  0  0  0  0  0
    1.1137    1.6796   -1.7716 C   0  0  0  0  0  0  0  0  0  0  0  0
    2.1747    1.2814   -2.5726 C   0  0  0  0  0  0  0  0  0  0  0  0
    2.6819    2.3890   -3.2184 N   0  0  0  0  0  0  0  0  0  0  0  0
    1.9345    3.4856   -2.8655 C   0  0  0  0  0  0  0  0  0  0  0  0
    0.9282    3.0684   -2.0224 C   0  0  0  0  0  0  0  0  0  0  0  0
    3.7766    2.4058   -4.0861 C   0  0  0  0  0  0  0  0  0  0  0  0
    3.8171    1.6162   -5.2031 C   0  0  0  0  0  0  0  0  0  0  0  0
    4.8648    1.6209   -6.0418 N   0  0  0  0  0  0  0  0  0  0  0  0
    5.9057    2.4153   -5.7415 C   0  0  0  0  0  0  0  0  0  0  0  0
    7.0100    2.4058   -6.5414 N   0  0  0  0  0  0  0  0  0  0  0  0
    7.0304    1.6437   -7.7617 C   0  0  0  0  0  0  0  0  0  0  0  0
    7.2277    2.4891   -9.0379 C   0  0  2  0  0  0  0  0  0  0  0  0
    8.5056    3.3841   -9.0148 C   0  0  0  0  0  0  0  0  0  0  0  0
    7.6593    4.5990   -9.4299 C   0  0  2  0  0  0  0  0  0  0  0  0
    7.8687    5.7143   -8.6920 F   0  0  0  0  0  0  0  0  0  0  0  0
    6.3845    3.8033   -9.1004 C   0  0  0  0  0  0  0  0  0  0  0  0
    7.1473    1.4584  -10.2431 C   0  0  0  0  0  0  0  0  0  0  0  0
    6.1171    1.6086  -11.1169 N   0  0  0  0  0  0  0  0  0  0  0  0
    5.9930    0.6801  -12.0970 C   0  0  0  0  0  0  0  0  0  0  0  0
    6.8460   -0.4039  -12.2522 C   0  0  0  0  0  0  0  0  0  0  0  0
    7.8882   -0.5553  -11.3513 C   0  0  0  0  0  0  0  0  0  0  0  0
    8.0385    0.3870  -10.3541 C   0  0  0  0  0  0  0  0  0  0  0  0
    9.0309    0.2449   -9.4647 F   0  0  0  0  0  0  0  0  0  0  0  0
    5.9434    3.2271   -4.6782 N   0  0  0  0  0  0  0  0  0  0  0  0
    4.8620    3.2221   -3.8728 C   0  0  0  0  0  0  0  0  0  0  0  0
  1  2  1  0
  2  3  2  0
  2  4  1  0
  4  5  2  0
  4  8  1  0
  5  6  1  0
  6  7  1  0
  6  9  1  0
  7  8  2  0
  9 10  2  0
  9 28  1  0
 10 11  1  0
 11 12  2  0
 12 13  1  0
 12 27  1  0
 13 14  1  0
 15 14  1  1
 15 16  1  0
 15 19  1  0
 15 20  1  0
 17 16  1  0
 17 18  1  1
 17 19  1  0
 20 21  2  0
 20 25  1  0
 21 22  1  0
 22 23  2  0
 23 24  1  0
 24 25  2  0
 25 26  1  0
 27 28  2  0
M  END
>  <DRUGBANK_ID>  (1) 
DB15256

>  <COMMON_NAME>  (1) 
Reldesemtiv

>  <CAS_NUMBER>  (1) 
1345410-31-2

>  <UNII>  (1) 
4S0HBYW6QE

>  <SYNONYMS>  (1) 
CK-2127107; CK2127107; Reldesemtiv

$$$$
