
     RDKit          3D

 29 34  0  0  1  0  0  0  0  0999 V2000
   -2.2815   -4.4957   -4.5913 C   0  0  0  0  0  0  0  0  0  0  0  0
   -3.8863   -0.7273   -0.2707 C   0  0  0  0  0  0  0  0  0  0  0  0
   -3.5414    3.8717   -2.1752 C   0  0  0  0  0  0  0  0  0  0  0  0
   -3.1616    3.1138   -1.0894 C   0  0  0  0  0  0  0  0  0  0  0  0
   -3.4459    3.3517   -3.4810 C   0  0  0  0  0  0  0  0  0  0  0  0
   -2.5781    1.8829   -1.3044 C   0  0  0  0  0  0  0  0  0  0  0  0
   -2.0705   -6.7686   -1.9126 C   0  0  0  0  0  0  0  0  0  0  0  0
   -2.2326   -5.6647   -0.9567 C   0  0  0  0  0  0  0  0  0  0  0  0
   -2.8524   -2.7148    0.1196 C   0  0  0  0  0  0  0  0  0  0  0  0
   -1.7358   -1.6316   -1.0550 C   0  0  0  0  0  0  0  0  0  0  0  0
   -2.9657   -6.5723   -6.0312 C   0  0  0  0  0  0  0  0  0  0  0  0
   -4.3506   -3.1586   -3.3370 C   0  0  0  0  0  0  0  0  0  0  0  0
   -4.1030   -6.0842   -4.9571 C   0  0  0  0  0  0  0  0  0  0  0  0
   -4.7376   -2.0918   -2.3377 C   0  0  0  0  0  0  0  0  0  0  0  0
   -2.3942   -7.9630   -4.0086 C   0  0  0  0  0  0  0  0  0  0  0  0
   -2.5699    0.0514   -4.3885 C   0  0  0  0  0  0  0  0  0  0  0  0
   -2.5845   -6.7365   -3.1586 C   0  0  0  0  0  0  0  0  0  0  0  0
   -1.8065   -7.4474   -5.3137 C   0  0  1  0  0  0  0  0  0  0  0  0
   -2.6599   -4.4678   -1.7962 C   0  0  2  0  0  0  0  0  0  0  0  0
   -2.5056   -3.2637   -1.1419 C   0  0  1  0  0  0  0  0  0  0  0  0
   -3.8753   -4.5555   -2.7336 C   0  0  2  0  0  0  0  0  0  0  0  0
   -3.0446    2.0091   -3.6744 C   0  0  0  0  0  0  0  0  0  0  0  0
   -2.6407    1.2736   -2.5641 C   0  0  0  0  0  0  0  0  0  0  0  0
   -2.3878   -1.2235   -2.1832 C   0  0  0  0  0  0  0  0  0  0  0  0
   -3.2673   -5.4876   -3.8149 C   0  0  1  0  0  0  0  0  0  0  0  0
   -3.5201   -1.8187   -1.5158 C   0  0  2  0  0  0  0  0  0  0  0  0
   -2.9359    1.2514   -4.8091 N   0  0  0  0  0  0  0  0  0  0  0  0
   -2.4275   -0.0408   -2.9929 N   0  0  0  0  0  0  0  0  0  0  0  0
   -1.3411   -8.4998   -6.1465 O   0  0  0  0  0  0  0  0  0  0  0  0
  4  3  2  0
  5  3  1  0
  6  4  1  0
  8  7  1  0
 10  9  1  0
 13 11  1  0
 14 12  1  0
 17  7  2  0
 17 15  1  0
 18 11  1  0
 18 15  1  0
 18 29  1  6
 19  8  1  1
 20  9  1  1
 20 19  1  0
 21 12  1  6
 21 19  1  0
 22  5  2  0
 23  6  2  0
 23 22  1  0
 24 10  2  0
 25 13  1  0
 25 17  1  0
 25 21  1  0
 25  1  1  6
 26 14  1  0
 26 20  1  0
 26 24  1  0
 26  2  1  1
 27 16  2  0
 27 22  1  0
 28 16  1  0
 28 23  1  0
 28 24  1  0
M  END
>  <DRUGBANK_ID>  (1) 
DB12415

>  <COMMON_NAME>  (1) 
Galeterone

>  <CAS_NUMBER>  (1) 
851983-85-2

>  <UNII>  (1) 
WA33E149SW

>  <SYNONYMS>  (1) 
Galeterone

$$$$
