CT1
     RDKit          3D

 22 22  0  0  0  0  0  0  0  0999 V2000
   -3.1706   -7.8069   -2.1045 C   0  0  0  0  0  0  0  0  0  0  0  0
   -2.5565   -6.4896   -1.9449 C   0  0  0  0  0  0  0  0  0  0  0  0
   -3.3169   -5.5516   -1.0184 C   0  0  0  0  0  0  0  0  0  0  0  0
   -3.1339   -5.3228    0.6222 C   0  0  0  0  0  0  0  0  0  0  0  0
   -1.6323   -3.5021    3.0900 O   0  0  0  0  0  0  0  0  0  0  0  0
   -1.3250   -7.0351    2.2831 N   0  0  0  0  0  0  0  0  0  0  0  0
   -1.8465   -8.3729    2.6393 C   0  0  0  0  0  0  0  0  0  0  0  0
   -1.0650   -9.3268    2.5012 O   0  0  0  0  0  0  0  0  0  0  0  0
   -3.1788   -8.7145    2.9393 O   0  0  0  0  0  0  0  0  0  0  0  0
   -4.4183   -7.9025    2.8405 C   0  0  2  0  0  0  0  0  0  0  0  0
   -4.8205   -7.8324    1.3369 C   0  0  0  0  0  0  0  0  0  0  0  0
   -3.6408   -8.6564    0.5222 C   0  0  0  0  0  0  0  0  0  0  0  0
   -2.1207   -8.1250    0.2793 C   0  0  0  0  0  0  0  0  0  0  0  0
   -0.9327   -8.6516   -0.4586 C   0  0  0  0  0  0  0  0  0  0  0  0
   -1.2197   -9.7904   -1.2709 C   0  0  0  0  0  0  0  0  0  0  0  0
   -2.6741  -10.4225   -1.1913 C   0  0  0  0  0  0  0  0  0  0  0  0
   -3.8939   -9.8386   -0.3128 C   0  0  0  0  0  0  0  0  0  0  0  0
   -4.0062   -6.6681    3.6170 C   0  0  0  0  0  0  0  0  0  0  0  0
   -4.7385   -5.3478    3.5573 C   0  0  0  0  0  0  0  0  0  0  0  0
   -3.4248   -6.9944    5.0028 C   0  0  0  0  0  0  0  0  0  0  0  0
   -1.7658   -4.6495    2.9925 C   0  0  0  0  0  0  0  0  0  0  0  0
   -1.8114   -5.4971    1.6809 C   0  0  2  0  0  0  0  0  0  0  0  0
  1  2  1  0
  2  3  1  0
  3  4  1  0
  5 21  2  0
  6  7  1  0
  7  8  2  0
  7  9  1  0
 10 18  1  0
 10 11  1  6
 10  9  1  0
 11 12  1  0
 12 13  2  0
 12 17  1  0
 13 14  1  0
 14 15  2  0
 15 16  1  0
 16 17  2  0
 18 19  1  0
 18 20  1  0
 22 21  1  1
 22  6  1  0
 22  4  1  0
M  END
>  <DRUGBANK_ID>  (1) 
DB07592

>  <COMMON_NAME>  (1) 
(2R)-3-Methyl-1-phenyl-2-butanyl [(2S)-1-oxo-2-hexanyl]carbamate

$$$$
