
     RDKit          3D

 18 18  0  0  0  0  0  0  0  0999 V2000
    1.1358   -1.1926    0.0422 C   0  0  0  0  0  0  0  0  0  0  0  0
    1.1969    0.1899    0.0096 C   0  0  0  0  0  0  0  0  0  0  0  0
    2.3173   -2.1127    0.0345 C   0  0  0  0  0  0  0  0  0  0  0  0
   -0.1434   -1.7207    0.0119 C   0  0  0  0  0  0  0  0  0  0  0  0
    0.0934    0.9592   -0.0054 N   0  0  0  0  0  0  0  0  0  0  0  0
    2.3747    0.8953    0.0636 N   0  0  0  0  0  0  0  0  0  0  0  0
    2.3207   -3.0122    1.1752 N   0  0  0  0  0  0  0  0  0  0  0  0
   -1.2704   -0.9880   -0.0040 N   0  0  0  0  0  0  0  0  0  0  0  0
   -1.1027    0.3417   -0.0047 C   0  0  0  0  0  0  0  0  0  0  0  0
    2.3604   -4.3868    1.0558 C   0  0  0  0  0  0  0  0  0  0  0  0
   -2.3311    1.1978    0.0030 C   0  0  0  0  0  0  0  0  0  0  0  0
    2.3623   -5.1193    2.2499 N   0  0  0  0  0  0  0  0  0  0  0  0
    2.3739   -4.9231   -0.0562 O   0  0  0  0  0  0  0  0  0  0  0  0
    2.3512   -6.5929    2.2183 C   0  0  0  0  0  0  0  0  0  0  0  0
    2.2482   -4.4237    3.4598 N   0  0  0  0  0  0  0  0  0  0  0  0
    3.6149   -7.2925    2.7413 C   0  0  0  0  0  0  0  0  0  0  0  0
    1.9105   -5.1131    4.4235 O   0  0  0  0  0  0  0  0  0  0  0  0
    3.8583   -7.2553    4.5035 Cl  0  0  0  0  0  0  0  0  0  0  0  0
  1  2  2  0
  1  3  1  0
  1  4  1  0
  2  5  1  0
  2  6  1  0
  3  7  1  0
  4  8  2  0
  5  9  2  0
  7 10  1  0
  8  9  1  0
  9 11  1  0
 10 12  1  0
 10 13  2  0
 12 14  1  0
 12 15  1  0
 14 16  1  0
 15 17  2  0
 16 18  1  0
M  END
>  <DRUGBANK_ID>  (1) 
DB13069

>  <COMMON_NAME>  (1) 
Nimustine

>  <CAS_NUMBER>  (1) 
42471-28-3

>  <UNII>  (1) 
0S726V972K

>  <SYNONYMS>  (1) 
Nimustina; Nimustine; Nimustinum

$$$$
