
     RDKit          3D

 11  9  0  0  1  0  0  0  0  0999 V2000
    1.3161   -0.1963    0.3695 C   0  0  0  0  0  0  0  0  0  0  0  0
    0.6515   -1.8866    0.3344 S   0  0  0  0  0  0  0  0  0  0  0  0
   -1.1414   -1.7736    0.1649 C   0  0  0  0  0  0  0  0  0  0  0  0
    1.0460   -2.5639   -1.2949 C   0  0  0  0  0  0  0  0  0  0  0  0
    0.5933   -1.8761   -2.5848 C   0  0  0  0  0  0  0  0  0  0  0  0
    1.1492   -0.4770   -2.8021 C   0  0  1  0  0  0  0  0  0  0  0  0
    2.6997   -0.3944   -2.8120 C   0  0  0  0  0  0  0  0  0  0  0  0
    3.3839    0.1305   -3.6650 O   0  0  0  0  0  0  0  0  0  0  0  0
    3.3012   -0.9621   -1.7441 O   0  0  0  0  0  0  0  0  0  0  0  0
    0.6037    0.1445   -4.0307 N   0  0  0  0  0  0  0  0  0  0  0  0
   -1.6368    1.6749   -0.5435 Cl  0  0  0  0  0  0  0  0  0  0  0  0
  1  2  1  0
  2  3  1  0
  2  4  1  0
  4  5  1  0
  5  6  1  0
  6  7  1  0
  6 10  1  6
  7  8  2  0
  7  9  1  0
M  CHG  2   2   1  11  -1
M  END
>  <DRUGBANK_ID>  (1) 
DB13250

>  <COMMON_NAME>  (1) 
Methylmethionine chloride

>  <CAS_NUMBER>  (1) 
1115-84-0

>  <UNII>  (1) 
G9CUR2204U

>  <SYNONYMS>  (1) 
Methiosulfonium chloride

$$$$
