
     RDKit          3D

  5  4  0  0  0  0  0  0  0  0999 V2000
    0.8441    0.0394   -0.0738 O   0  0  0  0  0  0  0  0  0  0  0  0
    0.2652    1.1889   -0.4264 C   0  0  0  0  0  0  0  0  0  0  0  0
    0.8879    2.1879   -0.7329 O   0  0  0  0  0  0  0  0  0  0  0  0
   -1.2600    1.1438   -0.4126 C   0  0  0  0  0  0  0  0  0  0  0  0
   -1.8938    0.1470   -0.1068 O   0  0  0  0  0  0  0  0  0  0  0  0
  1  2  1  0
  2  3  2  0
  2  4  1  0
  4  5  2  0
M  END
>  <DRUGBANK_ID>  (1) 
DB04343

>  <SECONDARY_ACCESSION_NUMBERS>  (1) 
EXPT01614

>  <COMMON_NAME>  (1) 
Glyoxylic acid

>  <CAS_NUMBER>  (1) 
298-12-4

>  <UNII>  (1) 
JQ39C92HH6

$$$$
