
     RDKit          3D

 19 19  0  0  0  0  0  0  0  0999 V2000
    3.5713   -0.6237    1.2419 S   0  0  0  0  0  0  0  0  0  0  0  0
    0.7384   -3.1959    2.5391 O   0  0  0  0  0  0  0  0  0  0  0  0
    2.4265   -0.8245    2.4325 O   0  0  0  0  0  0  0  0  0  0  0  0
    0.5399    0.6556    4.1807 O   0  0  0  0  0  0  0  0  0  0  0  0
   -1.2997   -3.2713    3.6390 O   0  0  0  0  0  0  0  0  0  0  0  0
    0.7962   -3.6214   -0.2592 O   0  0  0  0  0  0  0  0  0  0  0  0
    2.8559    0.3772    0.2055 O   0  0  0  0  0  0  0  0  0  0  0  0
   -0.3305   -1.7470    8.0523 O   0  0  0  0  0  0  0  0  0  0  0  0
    3.8667   -1.8412    0.5403 O   0  0  0  0  0  0  0  0  0  0  0  0
    4.6821    0.1209    1.8092 O   0  0  0  0  0  0  0  0  0  0  0  0
   -0.1978   -1.6379    5.8057 N   0  0  0  0  0  0  0  0  0  0  0  0
    0.2143   -0.5951    3.5747 C   0  0  1  0  0  0  0  0  0  0  0  0
    0.9767   -0.7771    2.2222 C   0  0  2  0  0  0  0  0  0  0  0  0
    0.4792   -1.7836    4.5151 C   0  0  2  0  0  0  0  0  0  0  0  0
    0.4285   -2.1034    1.6445 C   0  0  1  0  0  0  0  0  0  0  0  0
    0.0993   -3.0987    3.8021 C   0  0  2  0  0  0  0  0  0  0  0  0
    1.1265   -2.3966    0.3481 C   0  0  0  0  0  0  0  0  0  0  0  0
    0.3591   -1.8245    7.0403 C   0  0  0  0  0  0  0  0  0  0  0  0
    1.8372   -2.1038    7.0911 C   0  0  0  0  0  0  0  0  0  0  0  0
  1  3  1  0
  1  7  1  0
  1  9  2  0
  1 10  2  0
  2 15  1  0
  2 16  1  0
  6 17  1  0
  8 18  2  0
 11 18  1  0
 12  4  1  1
 12 13  1  0
 12 14  1  0
 13 15  1  0
 13  3  1  1
 14 16  1  0
 14 11  1  1
 15 17  1  6
 16  5  1  6
 18 19  1  0
M  END
>  <DRUGBANK_ID>  (1) 
DB04492

>  <SECONDARY_ACCESSION_NUMBERS>  (1) 
EXPT02336

>  <COMMON_NAME>  (1) 
2-(acetylamino)-2-deoxy-4-O-sulfo-alpha-D-galactopyranose

$$$$
