
     RDKit          3D

 16 18  0  0  0  0  0  0  0  0999 V2000
    2.5012   -0.6258   -0.3185 C   0  0  0  0  0  0  0  0  0  0  0  0
    2.4490    0.7231    0.3809 C   0  0  0  0  0  0  0  0  0  0  0  0
   -2.4429   -0.7778    0.0440 C   0  0  0  0  0  0  0  0  0  0  0  0
    1.2683   -1.4411    0.0386 C   0  0  0  0  0  0  0  0  0  0  0  0
   -1.2120   -1.4115    0.0394 C   0  0  0  0  0  0  0  0  0  0  0  0
    1.2235    1.5311   -0.0628 C   0  0  0  0  0  0  0  0  0  0  0  0
   -2.5043    0.6122    0.0117 C   0  0  0  0  0  0  0  0  0  0  0  0
   -4.2700    4.8641   -0.7178 C   0  0  0  0  0  0  0  0  0  0  0  0
   -4.7977    3.9875    0.4246 C   0  0  0  0  0  0  0  0  0  0  0  0
   -0.0275   -0.6646   -0.0067 C   0  0  0  0  0  0  0  0  0  0  0  0
   -0.0797    0.7545   -0.0063 C   0  0  0  0  0  0  0  0  0  0  0  0
   -1.3452    1.4112   -0.0127 C   0  0  0  0  0  0  0  0  0  0  0  0
   -2.6213    3.5230   -0.0918 C   0  0  0  0  0  0  0  0  0  0  0  0
   -2.9070    4.3355   -1.0697 N   0  0  0  0  0  0  0  0  0  0  0  0
   -3.5730    3.3926    0.8654 N   0  0  0  0  0  0  0  0  0  0  0  0
   -1.4466    2.8378    0.0676 N   0  0  0  0  0  0  0  0  0  0  0  0
  2  1  1  0
  4  1  1  0
  5  3  1  0
  6  2  1  0
  7  3  2  0
  9  8  1  0
 10  4  1  0
 10  5  2  0
 11  6  1  0
 11 10  1  0
 12  7  1  0
 12 11  2  0
 14  8  1  0
 14 13  2  0
 15  9  1  0
 15 13  1  0
 16 12  1  0
 16 13  1  0
M  END
>  <DRUGBANK_ID>  (1) 
DB13064

>  <COMMON_NAME>  (1) 
Tramazoline

>  <CAS_NUMBER>  (1) 
1082-57-1

>  <UNII>  (1) 
SLE31693IV

>  <SYNONYMS>  (1) 
Tramazolina; Tramazoline

$$$$
