
     RDKit          3D

 39 42  0  0  0  0  0  0  0  0999 V2000
    0.9231   -0.2333    0.0122 C   0  0  0  0  0  0  0  0  0  0  0  0
    0.3761    0.8334   -0.9186 C   0  0  0  0  0  0  0  0  0  0  0  0
    0.7104    0.3860   -2.4299 C   0  0  0  0  0  0  0  0  0  0  0  0
   -1.1795    0.7529   -1.0024 C   0  0  0  0  0  0  0  0  0  0  0  0
    0.7450    2.2298   -0.2352 C   0  0  0  0  0  0  0  0  0  0  0  0
   -0.1017    3.2597   -0.4716 C   0  0  0  0  0  0  0  0  0  0  0  0
    0.0887    4.6632   -0.1022 C   0  0  0  0  0  0  0  0  0  0  0  0
    1.2863    5.4030    0.1652 C   0  0  0  0  0  0  0  0  0  0  0  0
    2.0804    4.3412    0.7386 C   0  0  0  0  0  0  0  0  0  0  0  0
    1.7883    2.7575    0.5643 C   0  0  0  0  0  0  0  0  0  0  0  0
    1.6639    7.1413   -0.6042 C   0  0  0  0  0  0  0  0  0  0  0  0
    1.1295    8.2938   -2.0302 C   0  0  0  0  0  0  0  0  0  0  0  0
    0.9275    9.7886   -2.6367 C   0  0  0  0  0  0  0  0  0  0  0  0
   -0.4541   10.4400   -2.9769 C   0  0  0  0  0  0  0  0  0  0  0  0
   -1.6405    9.7449   -2.8502 C   0  0  0  0  0  0  0  0  0  0  0  0
   -1.4741    8.4557   -2.4863 C   0  0  0  0  0  0  0  0  0  0  0  0
   -0.2371    8.1139   -2.0210 C   0  0  0  0  0  0  0  0  0  0  0  0
    0.0446    7.1623   -1.1679 N   0  0  0  0  0  0  0  0  0  0  0  0
    0.8110    7.9006    0.0315 C   0  0  0  0  0  0  0  0  0  0  0  0
    1.5745    9.1655    0.3866 C   0  0  0  0  0  0  0  0  0  0  0  0
    2.6956    9.1555    0.9511 O   0  0  0  0  0  0  0  0  0  0  0  0
    1.1950   10.3186   -0.1854 O   0  0  0  0  0  0  0  0  0  0  0  0
    0.2487    5.9192   -2.2603 C   0  0  0  0  0  0  0  0  0  0  0  0
    1.5697    5.0730   -2.3284 C   0  0  0  0  0  0  0  0  0  0  0  0
    2.8552    5.6106   -2.0845 C   0  0  0  0  0  0  0  0  0  0  0  0
    4.0844    4.9581   -1.9982 C   0  0  0  0  0  0  0  0  0  0  0  0
    4.0863    3.6220   -1.8600 C   0  0  0  0  0  0  0  0  0  0  0  0
    2.8679    3.0137   -2.0306 C   0  0  0  0  0  0  0  0  0  0  0  0
    1.6724    3.7167   -2.4928 C   0  0  0  0  0  0  0  0  0  0  0  0
    2.7947    1.6597   -1.9370 O   0  0  0  0  0  0  0  0  0  0  0  0
    3.9443    0.8354   -2.0787 C   0  0  0  0  0  0  0  0  0  0  0  0
    4.3902    0.6790   -3.5532 C   0  0  0  0  0  0  0  0  0  0  0  0
    4.7187    1.8488   -4.3101 O   0  0  0  0  0  0  0  0  0  0  0  0
    3.5711    2.6008   -4.6433 C   0  0  0  0  0  0  0  0  0  0  0  0
    5.2376    5.5369   -2.4399 O   0  0  0  0  0  0  0  0  0  0  0  0
    5.1488    6.9511   -2.6254 C   0  0  0  0  0  0  0  0  0  0  0  0
    4.4453    7.5297   -3.9171 C   0  0  0  0  0  0  0  0  0  0  0  0
    3.0631    7.2945   -4.2467 O   0  0  0  0  0  0  0  0  0  0  0  0
    2.8440    5.9788   -4.7234 C   0  0  0  0  0  0  0  0  0  0  0  0
  1  2  1  0
  2  3  1  0
  2  4  1  0
  2  5  1  0
  5  6  2  0
  5 10  1  0
  6  7  1  0
  7  8  2  0
  8  9  1  0
  8 11  1  0
  9 10  2  0
 11 12  1  0
 11 19  2  0
 12 13  2  0
 12 17  1  0
 13 14  1  0
 14 15  2  0
 15 16  1  0
 16 17  2  0
 17 18  1  0
 18 19  1  0
 18 23  1  0
 19 20  1  0
 20 21  2  0
 20 22  1  0
 23 24  1  0
 24 25  2  0
 24 29  1  0
 25 26  1  0
 26 27  2  0
 26 35  1  0
 27 28  1  0
 28 29  2  0
 28 30  1  0
 30 31  1  0
 31 32  1  0
 32 33  1  0
 33 34  1  0
 35 36  1  0
 36 37  1  0
 37 38  1  0
 38 39  1  0
M  END
>  <DRUGBANK_ID>  (1) 
DB12654

>  <COMMON_NAME>  (1) 
GSK-376501

>  <CAS_NUMBER>  (1) 
1010412-80-2

>  <UNII>  (1) 
7511RY999U

$$$$
