
     RDKit          3D

 24 27  0  0  0  0  0  0  0  0999 V2000
   -4.2049    1.6045   -0.0234 C   0  0  0  0  0  0  0  0  0  0  0  0
   -4.9004    0.4409    0.2664 C   0  0  0  0  0  0  0  0  0  0  0  0
   -4.1953   -0.7717    0.3078 C   0  0  0  0  0  0  0  0  0  0  0  0
   -2.8410    1.5783   -0.2575 C   0  0  0  0  0  0  0  0  0  0  0  0
   -2.1110    0.3893   -0.1906 C   0  0  0  0  0  0  0  0  0  0  0  0
   -2.7999   -0.8109    0.0685 C   0  0  0  0  0  0  0  0  0  0  0  0
   -2.0639   -2.1320    0.1457 C   0  0  0  0  0  0  0  0  0  0  0  0
   -0.6235   -2.0935   -0.3832 C   0  0  0  0  0  0  0  0  0  0  0  0
   -0.6242    0.4080   -0.4939 C   0  0  2  0  0  0  0  0  0  0  0  0
    0.1002   -0.8332    0.0965 C   0  0  2  0  0  0  0  0  0  0  0  0
    1.5773    1.7323   -0.4137 C   0  0  0  0  0  0  0  0  0  0  0  0
    0.0844    1.7206   -0.0745 C   0  0  0  0  0  0  0  0  0  0  0  0
    2.2817    0.4991    0.1490 C   0  0  1  0  0  0  0  0  0  0  0  0
    1.5628   -0.7717   -0.3566 C   0  0  1  0  0  0  0  0  0  0  0  0
    2.5331   -1.8900    0.0196 C   0  0  0  0  0  0  0  0  0  0  0  0
    3.9298   -1.2406   -0.1243 C   0  0  0  0  0  0  0  0  0  0  0  0
    3.6773    0.2445   -0.4450 C   0  0  2  0  0  0  0  0  0  0  0  0
    4.6879    1.1040    0.0426 O   0  0  0  0  0  0  0  0  0  0  0  0
    2.3469    0.6099    1.6936 C   0  0  0  0  0  0  0  0  0  0  0  0
   -6.2515    0.4208    0.5244 O   0  0  0  0  0  0  0  0  0  0  0  0
   -7.1840    1.7640    0.4300 S   0  0  0  0  0  0  0  0  0  0  0  0
   -6.5690    2.8176    1.6027 N   0  0  0  0  0  0  0  0  0  0  0  0
   -7.0017    2.4254   -0.8404 O   0  0  0  0  0  0  0  0  0  0  0  0
   -8.5122    1.4428    0.9085 O   0  0  0  0  0  0  0  0  0  0  0  0
  1  2  2  0
  2  3  1  0
  2 20  1  0
  3  6  2  0
  4  1  1  0
  5  9  1  0
  5  4  2  0
  5  6  1  0
  6  7  1  0
  7  8  1  0
 10  8  1  6
  9 10  1  0
  9 12  1  1
 10 14  1  0
 11 12  1  0
 13 14  1  0
 13 19  1  1
 13 11  1  0
 14 15  1  1
 15 16  1  0
 16 17  1  0
 17 13  1  0
 17 18  1  1
 20 21  1  0
 21 22  1  0
 21 23  2  0
 21 24  2  0
M  END
>  <DRUGBANK_ID>  (1) 
DB06597

>  <COMMON_NAME>  (1) 
Estradiol sulfamate

>  <CAS_NUMBER>  (1) 
172377-52-5

>  <UNII>  (1) 
WO55ODW08Z

>  <SYNONYMS>  (1) 
Estradiol 3-sulfamate; Estradiol-3-O-Sulfamate

$$$$
