
     RDKit          3D

 17 17  0  0  0  0  0  0  0  0999 V2000
    0.8980   -0.0485   -0.0361 O   0  0  0  0  0  0  0  0  0  0  0  0
    0.9441    2.1636   -0.6524 O   0  0  0  0  0  0  0  0  0  0  0  0
   -1.1433    1.0817   -0.3408 C   0  0  0  0  0  0  0  0  0  0  0  0
    0.3408    1.1479   -0.3685 C   0  0  0  0  0  0  0  0  0  0  0  0
   -1.8232    0.4384    0.6987 C   0  0  0  0  0  0  0  0  0  0  0  0
   -1.8652    1.8133   -1.2940 C   0  0  0  0  0  0  0  0  0  0  0  0
    2.8951   -1.4192    0.2934 C   0  0  0  0  0  0  0  0  0  0  0  0
    2.3384   -0.0144   -0.0014 C   0  0  0  0  0  0  0  0  0  0  0  0
   -3.2160    0.5411    0.7896 C   0  0  0  0  0  0  0  0  0  0  0  0
   -3.2517    1.9462   -1.1747 C   0  0  0  0  0  0  0  0  0  0  0  0
   -3.9286    1.2932   -0.1458 C   0  0  0  0  0  0  0  0  0  0  0  0
    2.4469   -2.4036   -0.8222 C   0  0  0  0  0  0  0  0  0  0  0  0
    4.4231   -1.4054    0.5000 C   0  0  0  0  0  0  0  0  0  0  0  0
    2.9356   -2.0664   -2.2483 C   0  0  0  0  0  0  0  0  0  0  0  0
    4.9759   -0.4752    1.5491 C   0  0  0  0  0  0  0  0  0  0  0  0
    4.4457   -2.1421   -2.4883 C   0  0  0  0  0  0  0  0  0  0  0  0
    5.0339   -3.4635   -2.0156 C   0  0  0  0  0  0  0  0  0  0  0  0
  1  4  1  0
  1  8  1  0
  2  4  2  0
  3  4  1  0
  3  5  2  0
  3  6  1  0
  5  9  1  0
  6 10  2  0
  7  8  1  0
  7 12  1  0
  7 13  1  0
  9 11  2  0
 10 11  1  0
 12 14  1  0
 13 15  1  0
 14 16  1  0
 16 17  1  0
M  END
>  <DRUGBANK_ID>  (1) 
DB11291

>  <COMMON_NAME>  (1) 
2-ethylhexyl benzoate

>  <CAS_NUMBER>  (1) 
5444-75-7

>  <UNII>  (1) 
R63ZWW1A13

>  <SYNONYMS>  (1) 
2-Ethyl-1-hexanol benzoate; Ethylhexyl benzoate

$$$$
