BYM
     RDKit          3D

 19 21  0  0  0  0  0  0  0  0999 V2000
    1.0186   -0.7486    0.0148 C   0  0  0  0  0  0  0  0  0  0  0  0
   -1.2941   -0.4274    0.0132 C   0  0  0  0  0  0  0  0  0  0  0  0
    2.6370    5.0688   -0.9768 C   0  0  0  0  0  0  0  0  0  0  0  0
    1.9927    5.7968   -0.0042 C   0  0  0  0  0  0  0  0  0  0  0  0
    2.6723    3.6866   -0.9632 C   0  0  0  0  0  0  0  0  0  0  0  0
    1.3518    5.1604    1.0442 C   0  0  0  0  0  0  0  0  0  0  0  0
    2.8417    7.1463   -1.4581 C   0  0  0  0  0  0  0  0  0  0  0  0
    2.0170    3.0053    0.0699 C   0  0  0  0  0  0  0  0  0  0  0  0
    1.3740    3.7526    1.0800 C   0  0  0  0  0  0  0  0  0  0  0  0
   -0.2373   -1.2791    0.0522 N   0  0  0  0  0  0  0  0  0  0  0  0
   -0.7176    1.2239   -0.0467 S   0  0  0  0  0  0  0  0  0  0  0  0
    0.9387    0.7405    0.0205 C   0  0  0  0  0  0  0  0  0  0  0  0
   -2.4684   -0.7432    0.0175 O   0  0  0  0  0  0  0  0  0  0  0  0
    2.0475   -1.4042   -0.0230 O   0  0  0  0  0  0  0  0  0  0  0  0
    3.2120    5.8476   -1.9331 O   0  0  0  0  0  0  0  0  0  0  0  0
    2.0849    7.1389   -0.2303 O   0  0  0  0  0  0  0  0  0  0  0  0
    3.9732    7.8746   -1.2807 F   0  0  0  0  0  0  0  0  0  0  0  0
    2.0220    1.5305    0.0711 C   0  0  0  0  0  0  0  0  0  0  0  0
    2.1157    7.7638   -2.4246 F   0  0  0  0  0  0  0  0  0  0  0  0
  1 10  1  0
  1 12  1  0
  1 14  2  0
  2 10  1  0
  2 11  1  0
  2 13  2  0
  3  4  1  0
  3  5  2  0
  3 15  1  0
  4  6  2  0
  4 16  1  0
  5  8  1  0
  6  9  1  0
  7 15  1  0
  7 16  1  0
  7 17  1  0
  7 19  1  0
  8  9  2  0
  8 18  1  0
 11 12  1  0
 12 18  2  0
M  END
>  <DRUGBANK_ID>  (1) 
DB07503

>  <COMMON_NAME>  (1) 
(5E)-5-[(2,2-DIFLUORO-1,3-BENZODIOXOL-5-YL)METHYLENE]-1,3-THIAZOLIDINE-2,4-DIONE

$$$$
