
     RDKit          3D

 27 30  0  0  0  0  0  0  0  0999 V2000
   -4.7374   -2.8431    3.8864 C   0  0  1  0  0  0  0  0  0  0  0  0
   -4.3810   -4.6645    3.4007 C   0  0  1  0  0  0  0  0  0  0  0  0
   -5.6882   -2.6965    6.5261 C   0  0  2  0  0  0  0  0  0  0  0  0
   -5.1789   -3.3777    5.2431 C   0  0  2  0  0  0  0  0  0  0  0  0
   -4.5155   -1.9901    7.3788 C   0  0  2  0  0  0  0  0  0  0  0  0
   -6.1908   -2.0619    9.3598 C   0  0  0  0  0  0  0  0  0  0  0  0
   -3.7172   -1.6000    4.6831 C   0  0  0  0  0  0  0  0  0  0  0  0
   -4.7159   -2.1326    9.2491 C   0  0  1  0  0  0  0  0  0  0  0  0
   -4.4005   -0.7537    6.0660 C   0  0  2  0  0  0  0  0  0  0  0  0
   -6.5280   -1.4813   10.5216 C   0  0  0  0  0  0  0  0  0  0  0  0
   -3.2029   -4.6237    4.3255 C   0  0  0  0  0  0  0  0  0  0  0  0
   -5.5712   -5.7336    4.0830 O   0  0  0  0  0  0  0  0  0  0  0  0
   -3.8259   -4.1605    5.6195 C   0  0  0  0  0  0  0  0  0  0  0  0
   -6.4275   -3.6920    7.3794 C   0  0  0  0  0  0  0  0  0  0  0  0
   -4.2955   -6.1596    2.5187 C   0  0  0  0  0  0  0  0  0  0  0  0
   -4.4854   -3.1347   10.8884 C   0  0  0  0  0  0  0  0  0  0  0  0
   -5.6322   -6.8810    4.8888 C   0  0  0  0  0  0  0  0  0  0  0  0
   -7.0392   -3.0257    8.5842 C   0  0  0  0  0  0  0  0  0  0  0  0
   -6.8131   -2.6331   11.4911 C   0  0  0  0  0  0  0  0  0  0  0  0
   -6.3103   -7.8822    4.6619 O   0  0  0  0  0  0  0  0  0  0  0  0
   -3.3001   -6.9043    2.6876 O   0  0  0  0  0  0  0  0  0  0  0  0
   -7.7076   -3.3755   11.4558 O   0  0  0  0  0  0  0  0  0  0  0  0
   -5.4778   -1.7600    2.9701 C   0  0  0  0  0  0  0  0  0  0  0  0
   -5.5210   -2.7361   12.2492 C   0  0  0  0  0  0  0  0  0  0  0  0
   -3.7885    0.6820    5.9488 C   0  0  0  0  0  0  0  0  0  0  0  0
   -5.1421   -6.6524    6.2467 C   0  0  0  0  0  0  0  0  0  0  0  0
   -5.5082   -6.9116    1.8151 C   0  0  0  0  0  0  0  0  0  0  0  0
  1 23  1  6
  2  1  1  0
  2 15  1  0
  2 12  1  1
  3  4  1  0
  3  5  1  0
  4  1  1  0
  5  9  1  1
  6  8  1  0
  7  1  1  0
  8  5  1  0
  9  7  1  0
  9 25  1  1
 10  6  2  0
 10 19  1  0
 11  2  1  0
 11 13  1  0
  4 13  1  1
  3 14  1  1
  8 16  1  6
 17 12  1  0
 18 14  1  0
 18  6  1  0
 19 24  1  0
 20 17  2  0
 21 15  2  0
 22 19  2  0
 24 16  1  0
 26 17  1  0
 27 15  1  0
M  END
>  <DRUGBANK_ID>  (1) 
DB11440

>  <COMMON_NAME>  (1) 
Norgestomet

>  <CAS_NUMBER>  (1) 
25092-41-5

>  <UNII>  (1) 
3L33UD42X4

>  <SYNONYMS>  (1) 
Norgestomet

$$$$
