
     RDKit          3D

  9  8  0  0  1  0  0  0  0  0999 V2000
    0.6656   -3.1860   -0.8352 C   0  0  0  0  0  0  0  0  0  0  0  0
    2.4823   -3.0009   -0.7953 S   0  0  0  0  0  0  0  0  0  0  0  0
    2.9633   -3.0969    0.9752 C   0  0  0  0  0  0  0  0  0  0  0  0
    2.4594   -1.9675    1.8741 C   0  0  0  0  0  0  0  0  0  0  0  0
    0.9407   -1.9741    1.9937 C   0  0  2  0  0  0  0  0  0  0  0  0
    0.5348   -1.1560    3.1705 N   0  0  0  0  0  0  0  0  0  0  0  0
    0.3307   -3.6831    2.2308 P   0  0  1  0  0  0  0  0  0  0  0  0
    1.0616   -3.8795    3.6876 O   0  0  0  0  0  0  0  0  0  0  0  0
   -1.0978   -3.1973    2.4993 O   0  0  0  0  0  0  0  0  0  0  0  0
  1  2  1  0
  2  3  1  0
  3  4  1  0
  5  7  1  0
  5  6  1  1
  5  4  1  0
  7  8  1  1
  7  9  2  0
M  END
>  <DRUGBANK_ID>  (1) 
DB04015

>  <SECONDARY_ACCESSION_NUMBERS>  (1) 
EXPT02222

>  <COMMON_NAME>  (1) 
Methionine Phosphinate

$$$$
