
     RDKit          3D

 34 37  0  0  1  0  0  0  0  0999 V2000
   -0.2984   -0.4367   -0.1888 C   0  0  0  0  0  0  0  0  0  0  0  0
    0.0898   -1.4338    1.1091 C   0  0  0  0  0  0  0  0  0  0  0  0
    1.0680   -1.4446    2.3596 C   0  0  0  0  0  0  0  0  0  0  0  0
    1.7438   -0.4207    2.8676 C   0  0  0  0  0  0  0  0  0  0  0  0
    2.0106   -0.1857    4.1672 C   0  0  0  0  0  0  0  0  0  0  0  0
    1.9164   -1.0423    5.1711 C   0  0  0  0  0  0  0  0  0  0  0  0
    1.7499   -2.2896    4.6217 C   0  0  0  0  0  0  0  0  0  0  0  0
    1.3039   -2.4890    3.2376 C   0  0  0  0  0  0  0  0  0  0  0  0
    2.0906   -0.2684    6.4908 C   0  0  0  0  0  0  0  0  0  0  0  0
    1.0830   -0.7718    7.5606 C   0  0  0  0  0  0  0  0  0  0  0  0
    0.8608   -2.2770    7.4872 C   0  0  0  0  0  0  0  0  0  0  0  0
    3.5757   -0.6357    6.7924 C   0  0  0  0  0  0  0  0  0  0  0  0
    4.5689   -0.0225    5.7883 C   0  0  0  0  0  0  0  0  0  0  0  0
    1.9241    1.4275    6.4405 N   0  0  0  0  0  0  0  0  0  0  0  0
    1.5639    2.5637    5.5364 C   0  0  0  0  0  0  0  0  0  0  0  0
    1.8648    3.6519    5.9399 O   0  0  0  0  0  0  0  0  0  0  0  0
    0.8749    2.4159    4.0980 C   0  0  0  0  0  0  0  0  0  0  0  0
   -0.3105    1.5098    3.7257 C   0  0  0  0  0  0  0  0  0  0  0  0
   -1.0233    0.3273    4.5708 C   0  0  0  0  0  0  0  0  0  0  0  0
   -0.4335    1.4715    2.3676 N   0  0  0  0  0  0  0  0  0  0  0  0
    0.7697    1.9570    1.8514 N   0  0  0  0  0  0  0  0  0  0  0  0
    1.4953    2.7130    2.8015 C   0  0  0  0  0  0  0  0  0  0  0  0
    2.6917    3.2275    2.2969 N   0  0  0  0  0  0  0  0  0  0  0  0
    2.8253    3.3922    0.8144 C   0  0  2  0  0  0  0  0  0  0  0  0
    2.7746    2.0464    0.1854 C   0  0  0  0  0  0  0  0  0  0  0  0
    1.4202    1.4265    0.4684 C   0  0  0  0  0  0  0  0  0  0  0  0
    0.3911    2.2789   -0.4108 C   0  0  0  0  0  0  0  0  0  0  0  0
    2.2107   -0.2192    0.0021 C   0  0  0  0  0  0  0  0  0  0  0  0
    4.0057    4.0495    0.1606 C   0  0  0  0  0  0  0  0  0  0  0  0
    3.9985    4.2333   -1.2570 C   0  0  0  0  0  0  0  0  0  0  0  0
    5.0291    4.9017   -1.8972 C   0  0  0  0  0  0  0  0  0  0  0  0
    6.0461    5.4379   -1.1213 C   0  0  0  0  0  0  0  0  0  0  0  0
    6.0507    5.2651    0.2666 C   0  0  0  0  0  0  0  0  0  0  0  0
    5.0739    4.5108    0.8977 C   0  0  0  0  0  0  0  0  0  0  0  0
  1  2  1  0
  2  3  1  0
  3  4  2  0
  3  8  1  0
  4  5  1  0
  5  6  2  0
  6  7  1  0
  6  9  1  0
  7  8  2  0
  9 10  1  0
  9 12  1  0
  9 14  1  0
 10 11  1  0
 12 13  1  0
 14 15  1  0
 15 16  2  0
 15 17  1  0
 17 18  1  0
 17 22  2  0
 18 19  1  0
 18 20  2  0
 20 21  1  0
 21 22  1  0
 21 26  1  0
 22 23  1  0
 24 23  1  0
 24 25  1  0
 24 29  1  1
 25 26  1  0
 26 27  1  0
 26 28  1  0
 29 30  2  0
 29 34  1  0
 30 31  1  0
 31 32  2  0
 32 33  1  0
 33 34  2  0
M  END
>  <DRUGBANK_ID>  (1) 
DB18268

>  <COMMON_NAME>  (1) 
TAK-075 Free base

>  <CAS_NUMBER>  (1) 
667931-25-1

>  <UNII>  (1) 
4B002AUC52

>  <SYNONYMS>  (1) 
Pyrazolo(1,5-a)pyrimidine-3-carboxamide, n-(1-ethyl-1-(4-ethylphenyl)propyl)-4,5,6,7-tetrahydro-2,7,7-trimethyl-5-phenyl-, (5r)-

$$$$
