
     RDKit          3D

 23 25  0  0  0  0  0  0  0  0999 V2000
    0.8430   -5.7181   -0.0145 C   0  0  0  0  0  0  0  0  0  0  0  0
    0.7696   -7.1498   -0.0081 N   0  0  0  0  0  0  0  0  0  0  0  0
   -0.3417   -7.6898   -0.0092 O   0  0  0  0  0  0  0  0  0  0  0  0
    1.8611   -7.7409    0.0045 O   0  0  0  0  0  0  0  0  0  0  0  0
   -0.3146   -4.9861   -0.0354 O   0  0  0  0  0  0  0  0  0  0  0  0
    0.0850   -3.6627   -0.0551 C   0  0  0  0  0  0  0  0  0  0  0  0
   -0.8366   -2.5619   -0.1485 C   0  0  0  0  0  0  0  0  0  0  0  0
   -2.1041   -2.7208   -0.3119 N   0  0  0  0  0  0  0  0  0  0  0  0
   -2.8402   -1.5785   -0.4213 N   0  0  0  0  0  0  0  0  0  0  0  0
   -2.7050   -0.4301   -1.1727 C   0  0  0  0  0  0  0  0  0  0  0  0
   -3.8129    0.3975   -0.9443 O   0  0  0  0  0  0  0  0  0  0  0  0
   -4.4305   -0.0243    0.2867 C   0  0  0  0  0  0  0  0  0  0  0  0
   -3.9465   -1.4626    0.3840 C   0  0  0  0  0  0  0  0  0  0  0  0
   -5.9960    0.2118    0.4522 C   0  0  0  0  0  0  0  0  0  0  0  0
   -6.7785   -0.1592    1.7031 N   0  0  0  0  0  0  0  0  0  0  0  0
   -6.3343    0.5660    2.9314 C   0  0  0  0  0  0  0  0  0  0  0  0
   -4.9452    0.1863    3.4790 C   0  0  0  0  0  0  0  0  0  0  0  0
   -4.9126   -1.2340    3.7664 O   0  0  0  0  0  0  0  0  0  0  0  0
   -5.4742   -1.9889    2.6924 C   0  0  0  0  0  0  0  0  0  0  0  0
   -6.7960   -1.6181    2.0337 C   0  0  0  0  0  0  0  0  0  0  0  0
   -1.8016   -0.1661   -1.9255 O   0  0  0  0  0  0  0  0  0  0  0  0
    1.4636   -3.5894   -0.0132 C   0  0  0  0  0  0  0  0  0  0  0  0
    1.9527   -4.9085   -0.0107 C   0  0  0  0  0  0  0  0  0  0  0  0
  2  1  1  0
  3  2  1  0
  4  2  2  0
  5  1  1  0
  6  5  1  0
  6 22  2  0
  7  6  1  0
  8  7  2  0
  9  8  1  0
 10  9  1  0
 11 10  1  0
 11 12  1  0
 12 13  1  0
 12 14  1  0
 13  9  1  0
 15 14  1  0
 16 15  1  0
 17 16  1  0
 18 17  1  0
 18 19  1  0
 19 20  1  0
 20 15  1  0
 21 10  2  0
 22 23  1  0
 23  1  2  0
M  CHG  2   2   1   3  -1
M  END
>  <DRUGBANK_ID>  (1) 
DB16567

>  <COMMON_NAME>  (1) 
Furaltadone

>  <CAS_NUMBER>  (1) 
139-91-3

>  <UNII>  (1) 
5X4V82ZN30

>  <SYNONYMS>  (1) 
Furaltadona; Furaltadone

$$$$
