
     RDKit          3D

 16 15  0  0  0  0  0  0  0  0999 V2000
    0.9819   -0.0282    0.1086 C   0  0  0  0  0  0  0  0  0  0  0  0
    0.3897    1.2752   -0.5726 C   0  0  0  0  0  0  0  0  0  0  0  0
    0.7645   -1.2559   -0.8178 C   0  0  0  0  0  0  0  0  0  0  0  0
    0.3558   -0.2733    1.5196 C   0  0  0  0  0  0  0  0  0  0  0  0
    2.4853    0.2413    0.3180 C   0  0  0  0  0  0  0  0  0  0  0  0
    0.8883    1.5148   -2.0389 C   0  0  0  0  0  0  0  0  0  0  0  0
   -1.1422    1.3581   -0.5211 C   0  0  0  0  0  0  0  0  0  0  0  0
    1.2679   -2.5439   -0.4364 O   0  0  0  0  0  0  0  0  0  0  0  0
    0.7451   -1.5231    2.1356 O   0  0  0  0  0  0  0  0  0  0  0  0
    0.4038    0.5482   -3.1246 C   0  0  0  0  0  0  0  0  0  0  0  0
    2.5771   -2.8857   -0.3271 C   0  0  0  0  0  0  0  0  0  0  0  0
    0.2457   -2.7631    1.8574 C   0  0  0  0  0  0  0  0  0  0  0  0
    3.4561   -2.0843   -0.9848 N   0  0  0  0  0  0  0  0  0  0  0  0
    2.9577   -3.8329    0.3173 O   0  0  0  0  0  0  0  0  0  0  0  0
   -0.7927   -2.8573    0.9686 N   0  0  0  0  0  0  0  0  0  0  0  0
    0.7798   -3.7770    2.2833 O   0  0  0  0  0  0  0  0  0  0  0  0
  1  2  1  0
  1  3  1  0
  1  4  1  0
  1  5  1  0
  2  6  1  0
  2  7  1  0
  3  8  1  0
  4  9  1  0
  6 10  1  0
  8 11  1  0
  9 12  1  0
 11 13  1  0
 11 14  2  0
 12 15  1  0
 12 16  2  0
M  END
>  <DRUGBANK_ID>  (1) 
DB06797

>  <COMMON_NAME>  (1) 
Mebutamate

>  <CAS_NUMBER>  (1) 
64-55-1

>  <UNII>  (1) 
5H8F175RER

>  <SYNONYMS>  (1) 
2-Methyl-2-sec-butyl-1,3-propanediol dicarbamate; 2-sec-Butyl-2-methyl-1,3-propanediol dicarbamate; 2-sec-Butyl-2-methylpropane-1,3-diyl dicarbamate; 2-sec-Butyl-2-methyltrimethylene dicarbamate; 2,2-Dicarbamyloxymethyl-3-methylpentane; Dicamoylmethtane; Mebutamate; Mebutamato; Mebutamatum

$$$$
