
     RDKit          3D

 23 23  0  0  0  0  0  0  0  0999 V2000
   -0.5121    3.0627   -0.3460 C   0  0  2  0  0  0  0  0  0  0  0  0
    0.2751    1.8138    0.3399 C   0  0  1  0  0  0  0  0  0  0  0  0
   -0.3176    0.4460    0.2252 C   0  0  2  0  0  0  0  0  0  0  0  0
   -1.7220    0.8978    0.3901 C   0  0  1  0  0  0  0  0  0  0  0  0
   -2.5447    2.6235    0.3597 C   0  0  2  0  0  0  0  0  0  0  0  0
   -1.6293    3.6390    0.4416 O   0  0  0  0  0  0  0  0  0  0  0  0
   -0.8791    2.7879   -1.8013 O   0  0  0  0  0  0  0  0  0  0  0  0
   -1.9950    1.6426   -2.2397 C   0  0  2  0  0  0  0  0  0  0  0  0
   -3.5978    1.4400   -1.1682 C   0  0  2  0  0  0  0  0  0  0  0  0
   -4.0071    2.8391   -1.6983 O   0  0  0  0  0  0  0  0  0  0  0  0
   -3.7602    0.8224    0.8797 C   0  0  0  0  0  0  0  0  0  0  0  0
   -3.1086   -0.4764    1.5918 O   0  0  0  0  0  0  0  0  0  0  0  0
   -1.1773    0.3415   -2.5133 C   0  0  1  0  0  0  0  0  0  0  0  0
    0.2688    0.4241   -2.6291 O   0  0  0  0  0  0  0  0  0  0  0  0
   -1.7152   -1.1542   -2.6869 C   0  0  1  0  0  0  0  0  0  0  0  0
   -0.9332   -2.1161   -1.9746 O   0  0  0  0  0  0  0  0  0  0  0  0
   -3.1544   -1.5530   -2.2962 C   0  0  0  0  0  0  0  0  0  0  0  0
   -3.9910   -0.4892   -2.6236 O   0  0  0  0  0  0  0  0  0  0  0  0
   -4.4928    2.8172    0.5757 C   0  0  0  0  0  0  0  0  0  0  0  0
   -5.2051    3.9089    0.1047 O   0  0  0  0  0  0  0  0  0  0  0  0
   -2.5160   -0.3053   -0.3572 O   0  0  0  0  0  0  0  0  0  0  0  0
    0.0985   -0.6630    1.0431 O   0  0  0  0  0  0  0  0  0  0  0  0
    1.5153    1.7103   -0.3169 O   0  0  0  0  0  0  0  0  0  0  0  0
  1  2  1  0
  1  6  1  0
  1  7  1  6
  2  3  1  0
  2 23  1  6
  3  4  1  0
  3 22  1  1
  4  5  1  0
  4 21  1  6
  5  6  1  0
  5 19  1  1
  8  9  1  0
  8  7  1  1
  9 11  1  0
  9 10  1  1
 11 12  1  0
 13 15  1  0
 13 14  1  6
 13  8  1  0
 15 16  1  1
 15 17  1  0
 17 18  1  0
 19 20  1  0
M  END
>  <DRUGBANK_ID>  (1) 
DB16867

>  <COMMON_NAME>  (1) 
Maltitol

>  <CAS_NUMBER>  (1) 
585-88-6

>  <UNII>  (1) 
D65DG142WK

>  <SYNONYMS>  (1) 
Maltitol

$$$$
