
     RDKit          3D

 22 26  0  0  0  0  0  0  0  0999 V2000
    1.8687    4.7878   -2.1319 C   0  0  2  0  0  0  0  0  0  0  0  0
    2.0415    3.5316   -3.2866 C   0  0  0  0  0  0  0  0  0  0  0  0
    1.8444    2.3374   -2.6453 C   0  0  0  0  0  0  0  0  0  0  0  0
    0.7352    4.2073   -1.3955 C   0  0  1  0  0  0  0  0  0  0  0  0
    2.2766    6.6659   -2.5367 C   0  0  1  0  0  0  0  0  0  0  0  0
    1.2208    2.6334   -1.3825 O   0  0  0  0  0  0  0  0  0  0  0  0
    3.1035    6.6332   -4.1906 C   0  0  1  0  0  0  0  0  0  0  0  0
    2.7223    3.6881   -4.6194 C   0  0  0  0  0  0  0  0  0  0  0  0
    3.3672    5.1798   -5.1343 C   0  0  0  0  0  0  0  0  0  0  0  0
    2.0993    5.7485   -3.9612 N   0  0  0  0  0  0  0  0  0  0  0  0
    3.1317    4.6787   -1.3983 C   0  0  0  0  0  0  0  0  0  0  0  0
    1.2890    7.4954   -1.8386 C   0  0  0  0  0  0  0  0  0  0  0  0
    2.4088    1.2100   -3.3516 C   0  0  0  0  0  0  0  0  0  0  0  0
    0.7939    5.1959   -0.1571 C   0  0  1  0  0  0  0  0  0  0  0  0
    3.6138    5.1515   -2.7394 C   0  0  0  0  0  0  0  0  0  0  0  0
    3.0971    2.6037   -5.3427 C   0  0  0  0  0  0  0  0  0  0  0  0
    1.0387    6.8106   -0.4732 C   0  0  0  0  0  0  0  0  0  0  0  0
    2.9882    1.3933   -4.6892 C   0  0  0  0  0  0  0  0  0  0  0  0
   -0.1743    5.1192    0.8822 O   0  0  0  0  0  0  0  0  0  0  0  0
    2.4726   -0.0876   -2.8465 O   0  0  0  0  0  0  0  0  0  0  0  0
    0.7783    6.6407   -4.3637 C   0  0  0  0  0  0  0  0  0  0  0  0
    2.7020   -1.1098   -3.8570 C   0  0  0  0  0  0  0  0  0  0  0  0
  1  2  1  0
  1 11  1  1
  3  2  2  0
  4  1  1  0
  5  1  1  0
  4  6  1  1
  6  3  1  0
  7  5  1  0
  7  9  1  1
  7 10  1  0
  8  2  1  0
  9  8  1  0
 10 15  1  0
  5 12  1  6
 13  3  1  0
 14  4  1  0
 14 19  1  6
 15 11  1  0
 16  8  2  0
 16 18  1  0
 17 12  1  0
 17 14  1  0
 18 13  2  0
 20 13  1  0
 21 10  1  0
 22 20  1  0
M  END
>  <DRUGBANK_ID>  (1) 
DB01551

>  <COMMON_NAME>  (1) 
Dihydrocodeine

>  <CAS_NUMBER>  (1) 
125-28-0

>  <UNII>  (1) 
N9I9HDB855

>  <SYNONYMS>  (1) 
DHC; Dihydrocodeine

$$$$
