637
     RDKit          3D

 34 38  0  0  0  0  0  0  0  0999 V2000
    2.6167    0.0033   -0.2413 F   0  0  0  0  0  0  0  0  0  0  0  0
   -8.2431   -3.3392   -0.0770 O   0  0  0  0  0  0  0  0  0  0  0  0
   -2.9557    1.0790    0.7275 N   0  0  0  0  0  0  0  0  0  0  0  0
   -3.0601   -3.1501   -1.2151 N   0  0  0  0  0  0  0  0  0  0  0  0
   -3.5549   -0.9925   -1.9205 N   0  0  0  0  0  0  0  0  0  0  0  0
   -4.4675   -2.5784   -3.1448 N   0  0  0  0  0  0  0  0  0  0  0  0
   -2.1225   -2.5590   -0.1914 C   0  0  0  0  0  0  0  0  0  0  0  0
   -2.9808   -2.1220    1.4858 C   0  0  0  0  0  0  0  0  0  0  0  0
   -1.2654   -1.1335   -1.1970 C   0  0  0  0  0  0  0  0  0  0  0  0
   -3.5208   -0.3580    1.8522 C   0  0  0  0  0  0  0  0  0  0  0  0
   -1.9326    0.7342   -0.9926 C   0  0  0  0  0  0  0  0  0  0  0  0
   -3.9562    2.0678    0.6317 C   0  0  0  0  0  0  0  0  0  0  0  0
   -4.9805    1.6016   -0.3500 C   0  0  0  0  0  0  0  0  0  0  0  0
   -3.6228   -2.3401   -2.1681 C   0  0  0  0  0  0  0  0  0  0  0  0
   -5.9251    0.2124   -0.2215 C   0  0  0  0  0  0  0  0  0  0  0  0
   -4.6108   -0.2992   -2.7227 C   0  0  0  0  0  0  0  0  0  0  0  0
   -3.0659   -0.7121   -0.2595 C   0  0  0  0  0  0  0  0  0  0  0  0
   -5.1429   -1.3769   -3.4211 C   0  0  0  0  0  0  0  0  0  0  0  0
   -5.3338    0.9957   -2.9005 C   0  0  0  0  0  0  0  0  0  0  0  0
   -1.3429   -0.2838    0.8554 C   0  0  0  0  0  0  0  0  0  0  0  0
   -5.6307   -1.2724   -0.2907 C   0  0  0  0  0  0  0  0  0  0  0  0
   -7.2520    0.3809   -0.1233 C   0  0  0  0  0  0  0  0  0  0  0  0
   -6.2654   -1.0942   -4.2513 C   0  0  0  0  0  0  0  0  0  0  0  0
   -6.5301    1.2004   -3.5641 C   0  0  0  0  0  0  0  0  0  0  0  0
   -6.9377    0.1599   -4.3266 C   0  0  0  0  0  0  0  0  0  0  0  0
   -6.3230   -2.4316   -0.3883 C   0  0  0  0  0  0  0  0  0  0  0  0
   -8.0262   -0.7990    0.0424 C   0  0  0  0  0  0  0  0  0  0  0  0
   -0.6190    1.0953    0.8295 C   0  0  0  0  0  0  0  0  0  0  0  0
   -0.4585   -1.2595    1.2718 C   0  0  0  0  0  0  0  0  0  0  0  0
   -7.5826   -2.1642   -0.1473 C   0  0  0  0  0  0  0  0  0  0  0  0
    0.7102    1.1879    0.4251 C   0  0  0  0  0  0  0  0  0  0  0  0
    0.8654   -1.2022    0.7935 C   0  0  0  0  0  0  0  0  0  0  0  0
    1.4242    0.0103    0.3596 C   0  0  0  0  0  0  0  0  0  0  0  0
   -9.5888   -3.0860    0.1366 C   0  0  0  0  0  0  0  0  0  0  0  0
  1 33  1  0
  2 30  1  0
  2 34  1  0
  3 10  1  0
  3 11  1  0
  3 12  1  0
  4  7  1  0
  4 14  1  0
  5 14  1  0
  5 16  1  0
  5 17  1  0
  6 14  2  0
  6 18  1  0
  7  8  1  0
  7  9  1  0
  8 10  1  0
  9 11  1  0
 12 13  1  0
 13 15  1  0
 15 21  2  0
 15 22  1  0
 16 18  2  0
 16 19  1  0
 17 20  1  0
 18 23  1  0
 19 24  2  0
 20 28  2  0
 20 29  1  0
 21 26  1  0
 22 27  2  0
 23 25  2  0
 24 25  1  0
 26 30  2  0
 27 30  1  0
 28 31  1  0
 29 32  2  0
 31 33  2  0
 32 33  1  0
M  END
>  <DRUGBANK_ID>  (1) 
DB00637

>  <SECONDARY_ACCESSION_NUMBERS>  (1) 
APRD00585

>  <COMMON_NAME>  (1) 
Astemizole

>  <CAS_NUMBER>  (1) 
68844-77-9

>  <UNII>  (1) 
7HU6337315

>  <SYNONYMS>  (1) 
1-(p-Fluorobenzyl)-2-((1-(2-(p-methoxyphenyl)ethyl)piperid-4-yl)amino)benzimidazole; 1-(p-Fluorobenzyl)-2-((1-(p-methoxyphenethyl)-4-piperidyl)amino)benzimidazole; Astemizol; Ast√©mizole; Astemizole; Astemizolum

$$$$
