
     RDKit          3D

 34 37  0  0  0  0  0  0  0  0999 V2000
   -0.4170    1.4413    2.0344 C   0  0  0  0  0  0  0  0  0  0  0  0
   -0.9540    2.8342    1.6348 C   0  0  0  0  0  0  0  0  0  0  0  0
    0.8796    0.9609    1.4433 N   0  0  0  0  0  0  0  0  0  0  0  0
    0.8345   -0.2039    0.6436 C   0  0  0  0  0  0  0  0  0  0  0  0
   -0.0219   -0.1649   -0.4430 C   0  0  0  0  0  0  0  0  0  0  0  0
   -0.5646   -1.3837   -0.9424 C   0  0  0  0  0  0  0  0  0  0  0  0
    0.1775   -2.5770   -0.8356 C   0  0  0  0  0  0  0  0  0  0  0  0
    1.4300   -2.4901   -0.2397 C   0  0  0  0  0  0  0  0  0  0  0  0
    1.6616   -1.3542    0.6256 C   0  0  0  0  0  0  0  0  0  0  0  0
    2.5203   -3.3141   -0.4688 O   0  0  0  0  0  0  0  0  0  0  0  0
    2.7507   -4.2422   -1.5613 C   0  0  0  0  0  0  0  0  0  0  0  0
    0.0220    1.2108   -1.1726 C   0  0  1  0  0  0  0  0  0  0  0  0
    1.5677    1.9177   -1.7091 C   0  0  0  0  0  0  0  0  0  0  0  0
    2.1439    1.1979   -2.8852 C   0  0  0  0  0  0  0  0  0  0  0  0
    3.3096    0.3716   -2.5930 C   0  0  0  0  0  0  0  0  0  0  0  0
    3.1489   -0.9721   -2.7461 C   0  0  0  0  0  0  0  0  0  0  0  0
    1.9152   -1.3327   -3.2829 C   0  0  0  0  0  0  0  0  0  0  0  0
    0.8518   -0.4459   -3.5878 C   0  0  0  0  0  0  0  0  0  0  0  0
    0.9839    0.9192   -3.5713 C   0  0  0  0  0  0  0  0  0  0  0  0
   -0.2170    1.9310   -3.3857 C   0  0  0  0  0  0  0  0  0  0  0  0
   -1.0572    1.3439   -2.2895 C   0  0  0  0  0  0  0  0  0  0  0  0
    1.5728   -2.6245   -3.5102 O   0  0  0  0  0  0  0  0  0  0  0  0
    2.1395    1.6248    1.8286 C   0  0  0  0  0  0  0  0  0  0  0  0
    2.1356    3.1651    1.5828 C   0  0  0  0  0  0  0  0  0  0  0  0
    1.7752    4.2464    2.2941 C   0  0  0  0  0  0  0  0  0  0  0  0
    1.6139    5.5580    1.6813 C   0  0  0  0  0  0  0  0  0  0  0  0
    1.8546    5.7654    0.2894 C   0  0  0  0  0  0  0  0  0  0  0  0
    2.2560    4.7044   -0.3990 C   0  0  0  0  0  0  0  0  0  0  0  0
    2.5029    3.4887    0.2811 C   0  0  0  0  0  0  0  0  0  0  0  0
    1.7204    7.1161   -0.4075 C   0  0  0  0  0  0  0  0  0  0  0  0
    3.0717    7.6743   -0.9213 C   0  0  0  0  0  0  0  0  0  0  0  0
    3.6686    6.9082   -2.0315 N   0  0  0  0  0  0  0  0  0  0  0  0
    4.9773    7.4111   -2.4472 C   0  0  0  0  0  0  0  0  0  0  0  0
    5.9963    7.3124   -1.3200 C   0  0  0  0  0  0  0  0  0  0  0  0
  1  2  1  0
  1  3  1  0
  3  4  1  0
  3 23  1  0
  4  5  1  0
  4  9  2  0
  5  6  2  0
  6  7  1  0
  7  8  2  0
  8  9  1  0
  8 10  1  0
 10 11  1  0
 12 13  1  0
 12 21  1  0
 12  5  1  6
 13 14  1  0
 14 15  2  0
 14 19  1  0
 15 16  1  0
 16 17  2  0
 17 18  1  0
 17 22  1  0
 18 19  2  0
 19 20  1  0
 20 21  1  0
 23 24  1  0
 24 25  2  0
 24 29  1  0
 25 26  1  0
 26 27  2  0
 27 28  1  0
 27 30  1  0
 28 29  2  0
 30 31  1  0
 31 32  1  0
 32 33  1  0
 33 34  1  0
M  END
>  <DRUGBANK_ID>  (1) 
DB06374

>  <COMMON_NAME>  (1) 
Elacestrant

>  <CAS_NUMBER>  (1) 
722533-56-4

>  <UNII>  (1) 
FM6A2627A8

>  <SYNONYMS>  (1) 
(2R)-2-(2-(ethyl-((4-(2-(ethylamino)ethyl)phenyl)methyl)amino)-4-methoxy-phenyl)tetralin-6-ol; (6R)-6-(2-(ethyl((4-(2- (ethylamino)ethyl)phenyl)methyl)amino)-4-methoxyphenyl)- 5,6,7,8-tetrahydronaphthalen-2-ol; 2-naphthalenol, 6-(2-(ethyl((4-(2-(ethylamino)ethyl)phenyl)methyl)amino)-4-methoxyphenyl)-5,6,7,8-tetrahydro-, (6R)-; Elacestrant

$$$$
