319
     RDKit          3D

 29 31  0  0  0  0  0  0  0  0999 V2000
   -1.2856    1.1791    0.0124 C   0  0  0  0  0  0  0  0  0  0  0  0
   -1.2571   -1.2383    0.0164 C   0  0  0  0  0  0  0  0  0  0  0  0
   -7.9217   -4.7294   -3.5193 C   0  0  0  0  0  0  0  0  0  0  0  0
   -8.3454   -5.2679   -4.7696 C   0  0  0  0  0  0  0  0  0  0  0  0
    0.1161    1.1926    0.0072 C   0  0  0  0  0  0  0  0  0  0  0  0
    0.1387   -1.2216    0.0144 C   0  0  0  0  0  0  0  0  0  0  0  0
   -7.1764   -5.6316   -9.2584 C   0  0  0  0  0  0  0  0  0  0  0  0
   -5.6900   -4.6080   -4.3687 C   0  0  0  0  0  0  0  0  0  0  0  0
   -6.0307   -7.2346   -7.8866 C   0  0  0  0  0  0  0  0  0  0  0  0
   -6.2354   -5.9049  -10.2392 C   0  0  0  0  0  0  0  0  0  0  0  0
   -1.9898   -0.0419    0.0105 C   0  0  0  0  0  0  0  0  0  0  0  0
   -6.5838   -4.3544   -3.3307 C   0  0  0  0  0  0  0  0  0  0  0  0
   -7.4320   -5.4736   -5.8223 C   0  0  0  0  0  0  0  0  0  0  0  0
   -7.0387   -6.2792   -8.0377 C   0  0  0  0  0  0  0  0  0  0  0  0
    0.8137   -0.0085    0.0077 C   0  0  0  0  0  0  0  0  0  0  0  0
   -6.1059   -5.1207   -5.5886 C   0  0  0  0  0  0  0  0  0  0  0  0
   -5.1299   -7.4421   -8.9234 C   0  0  0  0  0  0  0  0  0  0  0  0
   -4.0268   -0.7441   -1.3227 C   0  0  0  0  0  0  0  0  0  0  0  0
   -5.2945   -2.5274   -2.3534 C   0  0  0  0  0  0  0  0  0  0  0  0
   -3.5107   -0.1029   -0.0318 C   0  0  0  0  0  0  0  0  0  0  0  0
   -5.2219   -6.7905  -10.0952 N   0  0  0  0  0  0  0  0  0  0  0  0
   -4.1645   -8.4229   -8.8311 N   0  0  0  0  0  0  0  0  0  0  0  0
   -6.0957   -3.6648   -2.1654 N   0  0  0  0  0  0  0  0  0  0  0  0
   -4.8335   -1.8815   -1.2208 N   0  0  0  0  0  0  0  0  0  0  0  0
   -3.7042   -0.2122   -2.3905 O   0  0  0  0  0  0  0  0  0  0  0  0
   -5.0319   -2.1209   -3.4918 O   0  0  0  0  0  0  0  0  0  0  0  0
   -7.9254   -5.9744   -7.0187 O   0  0  0  0  0  0  0  0  0  0  0  0
    2.1536   -0.0001    0.0006 F   0  0  0  0  0  0  0  0  0  0  0  0
   -5.1561   -5.2290   -6.5244 F   0  0  0  0  0  0  0  0  0  0  0  0
  1  5  2  0
  1 11  1  0
  2  6  1  0
  2 11  2  0
  3  4  2  0
  3 12  1  0
  4 13  1  0
  5 15  1  0
  6 15  2  0
  7 10  2  0
  7 14  1  0
  8 12  2  0
  8 16  1  0
  9 14  2  0
  9 17  1  0
 10 21  1  0
 11 20  1  0
 12 23  1  0
 13 16  2  0
 13 27  1  0
 14 27  1  0
 15 28  1  0
 16 29  1  0
 17 21  2  0
 17 22  1  0
 18 20  1  0
 18 24  1  0
 18 25  2  0
 19 23  1  0
 19 24  1  0
 19 26  2  0
M  END
>  <DRUGBANK_ID>  (1) 
DB06995

>  <COMMON_NAME>  (1) 
N-({4-[(2-aminopyridin-4-yl)oxy]-3-fluorophenyl}carbamoyl)-2-(4-fluorophenyl)acetamide

$$$$
