926
     RDKit          3D

 26 26  0  0  0  0  0  0  0  0999 V2000
    0.9866    0.0880    0.0428 O   0  0  0  0  0  0  0  0  0  0  0  0
   -2.5634    4.3365    0.2483 O   0  0  0  0  0  0  0  0  0  0  0  0
   -3.4186    4.1312   -1.7850 O   0  0  0  0  0  0  0  0  0  0  0  0
    0.1623    2.1669   -2.9258 C   0  0  0  0  0  0  0  0  0  0  0  0
   -1.1220    2.6277   -2.5908 C   0  0  0  0  0  0  0  0  0  0  0  0
    0.8634    1.2717   -2.0946 C   0  0  0  0  0  0  0  0  0  0  0  0
   -1.7154    2.0931   -1.3675 C   0  0  0  0  0  0  0  0  0  0  0  0
    0.4122    0.9896   -0.8127 C   0  0  0  0  0  0  0  0  0  0  0  0
   -0.8528    1.4419   -0.4440 C   0  0  0  0  0  0  0  0  0  0  0  0
    0.7426    2.4969   -4.2740 C   0  0  0  0  0  0  0  0  0  0  0  0
   -1.6690    3.6693   -3.5413 C   0  0  0  0  0  0  0  0  0  0  0  0
    2.0284    0.5934   -2.7266 C   0  0  0  0  0  0  0  0  0  0  0  0
   -3.2112    1.9278   -0.9599 C   0  0  0  0  0  0  0  0  0  0  0  0
   -1.5678    4.1849   -4.7811 C   0  0  0  0  0  0  0  0  0  0  0  0
   -2.4075    5.2351   -5.4265 C   0  0  0  0  0  0  0  0  0  0  0  0
    2.3987    0.1296    0.2205 C   0  0  0  0  0  0  0  0  0  0  0  0
   -1.8901    5.4965   -6.8202 C   0  0  0  0  0  0  0  0  0  0  0  0
   -3.5494    5.8934   -5.0474 C   0  0  0  0  0  0  0  0  0  0  0  0
   -4.1828    5.8427   -3.7493 C   0  0  0  0  0  0  0  0  0  0  0  0
   -5.2270    6.2665   -3.0204 C   0  0  0  0  0  0  0  0  0  0  0  0
   -5.4721    5.9133   -1.5650 C   0  0  0  0  0  0  0  0  0  0  0  0
   -6.8022    6.3527   -1.0227 C   0  0  0  0  0  0  0  0  0  0  0  0
   -4.7173    5.3239   -0.5937 C   0  0  0  0  0  0  0  0  0  0  0  0
   -3.4276    4.7051   -0.7515 C   0  0  0  0  0  0  0  0  0  0  0  0
   -2.9785    3.5150    1.4018 C   0  0  0  0  0  0  0  0  0  0  0  0
   -3.1949    4.5891    2.3756 C   0  0  0  0  0  0  0  0  0  0  0  0
  1  8  1  0
  1 16  1  0
  2 24  1  0
  2 25  1  0
  3 24  2  0
  4  5  2  0
  4  6  1  0
  4 10  1  0
  5  7  1  0
  5 11  1  0
  6  8  2  0
  6 12  1  0
  7  9  2  0
  7 13  1  0
  8  9  1  0
 11 14  2  3
 14 15  1  0
 15 17  1  0
 15 18  2  3
 18 19  1  0
 19 20  2  3
 20 21  1  0
 21 22  1  0
 21 23  2  3
 23 24  1  0
 25 26  1  0
M  END
>  <DRUGBANK_ID>  (1) 
DB00926

>  <SECONDARY_ACCESSION_NUMBERS>  (1) 
APRD00966

>  <COMMON_NAME>  (1) 
Etretinate

>  <CAS_NUMBER>  (1) 
54350-48-0

>  <UNII>  (1) 
65M2UDR9AG

>  <SYNONYMS>  (1) 
Etretinate; etretinato

$$$$
