
     RDKit          3D

 13 12  0  0  0  0  0  0  0  0999 V2000
    1.0971   -0.0123    0.0204 C   0  0  0  0  0  0  0  0  0  0  0  0
    0.3805    1.3614    1.5109 Sn  0  0  0  0  0  4  0  0  0  0  0  0
   -1.7695    1.3614    1.5109 C   0  0  0  0  0  0  0  0  0  0  0  0
    1.0971    0.7574    3.4459 C   0  0  0  0  0  0  0  0  0  0  0  0
   -2.2762   -0.0368    1.8251 C   0  0  0  0  0  0  0  0  0  0  0  0
   -1.7696   -0.4638    3.1931 C   0  0  0  0  0  0  0  0  0  0  0  0
   -2.2762    0.5074    4.2469 C   0  0  0  0  0  0  0  0  0  0  0  0
    0.5904   -1.4105    0.3346 C   0  0  0  0  0  0  0  0  0  0  0  0
    1.0971   -1.8375    1.7026 C   0  0  0  0  0  0  0  0  0  0  0  0
    0.5904   -0.8663    2.7563 C   0  0  0  0  0  0  0  0  0  0  0  0
    0.5904   -0.6408    3.7601 C   0  0  0  0  0  0  0  0  0  0  0  0
    1.0971   -1.6120    2.7063 C   0  0  0  0  0  0  0  0  0  0  0  0
    2.6171   -1.6120    2.7063 C   0  0  0  0  0  0  0  0  0  0  0  0
  1  8  1  0
  2  1  1  0
  2  3  1  0
  2  4  1  0
  3  5  1  0
  4 11  1  0
  5  6  1  0
  6  7  1  0
  8  9  1  0
  9 10  1  0
 11 12  1  0
 12 13  1  0
M  END
>  <DRUGBANK_ID>  (1) 
DB08601

>  <COMMON_NAME>  (1) 
Tributyltin

>  <CAS_NUMBER>  (1) 
688-73-3

>  <UNII>  (1) 
4XDX163P3D

>  <SYNONYMS>  (1) 
Tri-n-butylstannane hydride; Tri-n-butyltin hydride; Tributylstannane; Tributylstannanyl; Tributyltin hydride

$$$$
