B11
     RDKit          3D

 33 36  0  0  0  0  0  0  0  0999 V2000
    0.1849   -1.2241    0.0101 C   0  0  0  0  0  0  0  0  0  0  0  0
   -1.2124   -1.2067   -0.0029 C   0  0  0  0  0  0  0  0  0  0  0  0
   -1.9028    0.0042   -0.0088 C   0  0  0  0  0  0  0  0  0  0  0  0
   -1.1994    1.2019    0.0137 C   0  0  0  0  0  0  0  0  0  0  0  0
    0.1988    1.2075    0.0226 C   0  0  0  0  0  0  0  0  0  0  0  0
    0.8855   -0.0182    0.0173 C   0  0  0  0  0  0  0  0  0  0  0  0
    2.2543   -0.0159    0.0124 O   0  0  0  0  0  0  0  0  0  0  0  0
    0.9074    2.5314    0.1043 C   0  0  0  0  0  0  0  0  0  0  0  0
    0.4440    3.5421   -0.9159 N   0  0  0  0  0  0  0  0  0  0  0  0
    1.5939    4.4644   -1.1236 C   0  0  0  0  0  0  0  0  0  0  0  0
    1.6593    6.0039   -1.0247 C   0  0  0  0  0  0  0  0  0  0  0  0
    1.2728    6.8127   -2.2433 C   0  0  0  0  0  0  0  0  0  0  0  0
    1.8961    6.2628   -3.4704 N   0  0  0  0  0  0  0  0  0  0  0  0
    1.6444    4.8194   -3.6264 C   0  0  0  0  0  0  0  0  0  0  0  0
    2.2400    4.0459   -2.4470 C   0  0  0  0  0  0  0  0  0  0  0  0
    1.6254    7.2124   -4.8553 S   0  0  0  0  0  0  0  0  0  0  0  0
   -0.0567    7.1597   -4.8843 N   0  0  0  0  0  0  0  0  0  0  0  0
    2.0848    8.5542   -4.5410 O   0  0  0  0  0  0  0  0  0  0  0  0
    2.1065    6.4990   -6.0045 O   0  0  0  0  0  0  0  0  0  0  0  0
   -0.8368    8.3509   -4.9309 C   0  0  0  0  0  0  0  0  0  0  0  0
   -0.4321    9.4608   -5.6642 C   0  0  0  0  0  0  0  0  0  0  0  0
   -1.1807   10.6390   -5.6624 C   0  0  0  0  0  0  0  0  0  0  0  0
   -2.3696   10.6933   -4.9345 C   0  0  0  0  0  0  0  0  0  0  0  0
   -2.8158    9.5638   -4.2454 C   0  0  0  0  0  0  0  0  0  0  0  0
   -2.0613    8.3852   -4.2652 C   0  0  0  0  0  0  0  0  0  0  0  0
   -0.8006   11.8059   -6.2896 O   0  0  0  0  0  0  0  0  0  0  0  0
    0.2864   11.7906   -7.1330 C   0  0  0  0  0  0  0  0  0  0  0  0
    0.3627   10.9333   -8.2380 C   0  0  0  0  0  0  0  0  0  0  0  0
    1.4769   10.9757   -9.0733 C   0  0  0  0  0  0  0  0  0  0  0  0
    2.4639   11.9271   -8.8437 C   0  0  0  0  0  0  0  0  0  0  0  0
    2.3629   12.8281   -7.7879 C   0  0  0  0  0  0  0  0  0  0  0  0
    1.2912   12.7313   -6.9001 C   0  0  0  0  0  0  0  0  0  0  0  0
    3.5332   11.9727   -9.6487 F   0  0  0  0  0  0  0  0  0  0  0  0
  1  2  2  0
  1  6  1  0
  2  3  1  0
  3  4  2  0
  4  5  1  0
  5  6  2  0
  5  8  1  0
  6  7  1  0
  8  9  1  0
  9 10  1  0
 10 11  1  0
 10 15  1  0
 11 12  1  0
 12 13  1  0
 13 14  1  0
 13 16  1  0
 14 15  1  0
 16 17  1  0
 16 18  2  0
 16 19  2  0
 17 20  1  0
 20 21  2  0
 20 25  1  0
 21 22  1  0
 22 23  2  0
 22 26  1  0
 23 24  1  0
 24 25  2  0
 26 27  1  0
 27 28  2  0
 27 32  1  0
 28 29  1  0
 29 30  2  0
 30 31  1  0
 30 33  1  0
 31 32  2  0
M  END
>  <DRUGBANK_ID>  (1) 
DB04632

>  <COMMON_NAME>  (1) 
4-(2-HYDROXYBENZYLAMINO)-N-(3-(4-FLUOROPHENOXY)PHENYL)PIPERIDINE-1-SULFONAMIDE

$$$$
