
     RDKit          3D

 37 39  0  0  0  0  0  0  0  0999 V2000
    1.7211    8.2465   -1.7829 C   0  0  0  0  0  0  0  0  0  0  0  0
    0.7117    7.2294   -2.1085 C   0  0  0  0  0  0  0  0  0  0  0  0
   -0.0829    6.8924   -0.8386 C   0  0  2  0  0  0  0  0  0  0  0  0
   -1.0827    5.9168   -1.0787 N   0  0  0  0  0  0  0  0  0  0  0  0
   -0.7523    4.8317   -1.8369 C   0  0  0  0  0  0  0  0  0  0  0  0
   -1.8018    3.9052   -1.9128 C   0  0  1  0  0  0  0  0  0  0  0  0
   -2.5264    3.8606   -3.6510 N   0  0  0  0  0  0  0  0  0  0  0  0
   -3.9043    2.7735   -3.9479 P   0  0  1  0  0  0  0  0  0  0  0  0
   -3.1129    1.4459   -4.4641 O   0  0  0  0  0  0  0  0  0  0  0  0
   -2.0499    2.0533   -3.9088 C   0  0  2  0  0  0  0  0  0  0  0  0
    1.4656    9.4580   -1.1910 C   0  0  0  0  0  0  0  0  0  0  0  0
    2.6361   10.0407   -0.8558 N   0  0  0  0  0  0  0  0  0  0  0  0
    3.6561    9.3386   -1.4319 C   0  0  0  0  0  0  0  0  0  0  0  0
    3.1158    8.1783   -1.9870 C   0  0  0  0  0  0  0  0  0  0  0  0
    5.0027    9.6560   -1.5172 C   0  0  0  0  0  0  0  0  0  0  0  0
    5.8110    8.7641   -2.2217 C   0  0  0  0  0  0  0  0  0  0  0  0
    5.3056    7.5794   -2.7582 C   0  0  0  0  0  0  0  0  0  0  0  0
    3.9589    7.2539   -2.6223 C   0  0  0  0  0  0  0  0  0  0  0  0
   -0.7698    8.1369   -0.2673 C   0  0  0  0  0  0  0  0  0  0  0  0
   -1.4674    2.4052   -1.3814 C   0  0  0  0  0  0  0  0  0  0  0  0
    0.2196    4.6002   -2.5335 O   0  0  0  0  0  0  0  0  0  0  0  0
   -0.5213    8.6419    0.8183 O   0  0  0  0  0  0  0  0  0  0  0  0
   -1.5848    8.7645   -1.1580 O   0  0  0  0  0  0  0  0  0  0  0  0
   -1.3954    2.4626    0.0742 C   0  0  0  0  0  0  0  0  0  0  0  0
   -2.7227    2.9480    0.6877 C   0  0  0  0  0  0  0  0  0  0  0  0
   -1.1198    1.0108    0.3703 C   0  0  0  0  0  0  0  0  0  0  0  0
   -3.1548    2.9011   -2.4716 O   0  0  0  0  0  0  0  0  0  0  0  0
   -4.0404    4.5057   -3.1605 C   0  0  2  0  0  0  0  0  0  0  0  0
   -3.3881    5.0115   -5.0546 C   0  0  1  0  0  0  0  0  0  0  0  0
   -2.6804    3.7899   -6.1587 C   0  0  2  0  0  0  0  0  0  0  0  0
   -1.5148    2.8974   -5.5559 C   0  0  1  0  0  0  0  0  0  0  0  0
   -2.2426    4.3785   -7.4158 O   0  0  0  0  0  0  0  0  0  0  0  0
   -0.2587    3.6181   -5.6167 O   0  0  0  0  0  0  0  0  0  0  0  0
   -3.8669    5.7808   -2.4101 C   0  0  0  0  0  0  0  0  0  0  0  0
   -4.3404    5.6975   -5.7947 O   0  0  0  0  0  0  0  0  0  0  0  0
   -4.9070    2.5631   -2.6088 O   0  0  0  0  0  0  0  0  0  0  0  0
   -5.2435    1.7170   -4.2365 O   0  0  0  0  0  0  0  0  0  0  0  0
  1  2  1  0
  1 11  2  0
  1 14  1  0
  3 19  1  0
  3  4  1  0
  3  2  1  6
  4  5  1  0
  5  6  1  0
  5 21  2  0
  6  7  1  0
  6 20  1  6
  7  8  1  0
  8  9  1  0
  8 36  2  0
  8 37  1  6
 10 27  1  0
 10 31  1  0
 10  9  1  6
 11 12  1  0
 12 13  1  0
 13 14  2  0
 13 15  1  0
 14 18  1  0
 15 16  2  0
 16 17  1  0
 17 18  2  0
 19 22  2  0
 19 23  1  0
 20 24  1  0
 24 25  1  0
 24 26  1  0
 27 28  1  0
 28 29  1  0
 28 34  1  1
 29 30  1  0
 29 35  1  6
 30 31  1  0
 30 32  1  6
 31 33  1  1
M  END
>  <DRUGBANK_ID>  (1) 
DB02557

>  <SECONDARY_ACCESSION_NUMBERS>  (1) 
EXPT02764

>  <COMMON_NAME>  (1) 
Phosphoramidon

>  <CAS_NUMBER>  (1) 
36357-77-4

>  <UNII>  (1) 
T3G94E2LB1

$$$$
