
     RDKit          3D

 17 16  0  0  1  0  0  0  0  0999 V2000
    5.5977    1.6388   -0.3231 C   0  0  0  0  0  0  0  0  0  0  0  0
    5.6611    2.1711   -1.7618 C   0  0  0  0  0  0  0  0  0  0  0  0
    1.7459   -2.8991   -4.1496 C   0  0  0  0  0  0  0  0  0  0  0  0
    2.9441    1.3761   -2.1601 C   0  0  0  0  0  0  0  0  0  0  0  0
    5.2176    2.7432    0.6626 C   0  0  1  0  0  0  0  0  0  0  0  0
    1.5810   -1.5564   -3.4528 C   0  0  0  0  0  0  0  0  0  0  0  0
    3.3063    0.1498   -3.0173 C   0  0  2  0  0  0  0  0  0  0  0  0
    2.6947   -1.1591   -2.5058 C   0  0  1  0  0  0  0  0  0  0  0  0
    5.1825    2.2301    2.1004 C   0  0  0  0  0  0  0  0  0  0  0  0
    6.2025    3.8377    0.5288 N   0  0  0  0  0  0  0  0  0  0  0  0
    0.7037   -3.7969   -3.8254 O   0  0  0  0  0  0  0  0  0  0  0  0
    0.5939   -0.8399   -3.6219 O   0  0  0  0  0  0  0  0  0  0  0  0
    4.7105   -0.1314   -3.0712 O   0  0  0  0  0  0  0  0  0  0  0  0
    2.2798   -1.0898   -1.1501 O   0  0  0  0  0  0  0  0  0  0  0  0
    5.8367    2.6674    3.0400 O   0  0  0  0  0  0  0  0  0  0  0  0
    4.2985    1.2315    2.2917 O   0  0  0  0  0  0  0  0  0  0  0  0
    4.0624    2.8036   -2.4254 S   0  0  0  0  0  0  0  0  0  0  0  0
  2  1  1  0
  5  1  1  0
  5 10  1  1
  6  3  1  0
  7 13  1  1
  7  8  1  0
  7  4  1  0
  8 14  1  1
  8  6  1  0
  9  5  1  0
 11  3  1  0
 12  6  2  0
 15  9  2  0
 16  9  1  0
 17  2  1  0
 17  4  1  0
M  END
>  <DRUGBANK_ID>  (1) 
DB04182

>  <SECONDARY_ACCESSION_NUMBERS>  (1) 
EXPT01982

>  <COMMON_NAME>  (1) 
(S)-2-Amino-4-[(2s,3r)-2,3,5-Trihydroxy-4-Oxo-Pentyl]Mercapto-Butyric Acid

$$$$
