1428
     RDKit          3D

 17 18  0  0  0  0  0  0  0  0999 V2000
    2.2765    0.0383    0.0181 O   0  0  0  0  0  0  0  0  0  0  0  0
   -1.8325   -2.4329   -0.1937 O   0  0  0  0  0  0  0  0  0  0  0  0
   -3.9565    1.1556   -0.1463 O   0  0  0  0  0  0  0  0  0  0  0  0
   -1.9054   -0.0247   -0.0347 C   0  0  0  0  0  0  0  0  0  0  0  0
   -3.3958    0.0586   -0.0724 C   0  0  0  0  0  0  0  0  0  0  0  0
   -4.2519   -1.1440   -0.0184 C   0  0  0  0  0  0  0  0  0  0  0  0
   -1.1954   -1.2332   -0.0602 C   0  0  0  0  0  0  0  0  0  0  0  0
   -1.1771    1.1763    0.0050 C   0  0  0  0  0  0  0  0  0  0  0  0
    0.9120   -0.0570    0.0197 C   0  0  0  0  0  0  0  0  0  0  0  0
    0.1959   -1.2514   -0.0010 C   0  0  0  0  0  0  0  0  0  0  0  0
    0.2223    1.1566    0.0225 C   0  0  0  0  0  0  0  0  0  0  0  0
   -4.1750   -2.0172    1.0744 C   0  0  0  0  0  0  0  0  0  0  0  0
   -5.1377   -1.4021   -1.0673 C   0  0  0  0  0  0  0  0  0  0  0  0
   -4.9389   -3.1818    1.0882 C   0  0  0  0  0  0  0  0  0  0  0  0
   -5.9654   -2.5238   -1.0032 C   0  0  0  0  0  0  0  0  0  0  0  0
   -5.8433   -3.4271    0.0560 C   0  0  0  0  0  0  0  0  0  0  0  0
    2.9893   -1.1940   -0.0225 C   0  0  0  0  0  0  0  0  0  0  0  0
  1  9  1  0
  1 17  1  0
  2  7  1  0
  3  5  2  0
  4  5  1  0
  4  7  2  0
  4  8  1  0
  5  6  1  0
  6 12  2  0
  6 13  1  0
  7 10  1  0
  8 11  2  0
  9 10  2  0
  9 11  1  0
 12 14  1  0
 13 15  2  0
 14 16  2  0
 15 16  1  0
M  END
>  <DRUGBANK_ID>  (1) 
DB01428

>  <COMMON_NAME>  (1) 
Oxybenzone

>  <CAS_NUMBER>  (1) 
131-57-7

>  <UNII>  (1) 
95OOS7VE0Y

>  <SYNONYMS>  (1) 
2-Benzoyl-5-methoxyphenol; 2-Hydroxy-4-methoxybenzophenone; 4-Methoxy-2-hydroxybenzophenone; Benzophenone-3; Oxibenzona; Oxybenzone; Oxybenzonum

$$$$
