
     RDKit          3D

 25 26  0  0  0  0  0  0  0  0999 V2000
    0.7601   -0.0861   -0.3432 C   0  0  0  0  0  0  0  0  0  0  0  0
    0.3428    0.6673   -1.5594 C   0  0  0  0  0  0  0  0  0  0  0  0
   -0.1255   -1.5198   -0.2455 C   0  0  0  0  0  0  0  0  0  0  0  0
    0.3519    0.9557    0.9505 C   0  0  0  0  0  0  0  0  0  0  0  0
    2.2112   -0.2191   -0.5291 O   0  0  0  0  0  0  0  0  0  0  0  0
   -0.3454   -0.0342   -2.5464 C   0  0  0  0  0  0  0  0  0  0  0  0
    0.6766    2.0188   -1.7045 C   0  0  0  0  0  0  0  0  0  0  0  0
    0.6178   -2.6685   -0.4307 C   0  0  0  0  0  0  0  0  0  0  0  0
   -1.3344   -1.7945    0.3963 C   0  0  0  0  0  0  0  0  0  0  0  0
    1.3405    1.5104    1.7459 O   0  0  0  0  0  0  0  0  0  0  0  0
   -0.8192    1.2370    1.2410 O   0  0  0  0  0  0  0  0  0  0  0  0
    2.9989   -0.7578   -1.6273 C   0  0  0  0  0  0  0  0  0  0  0  0
   -0.7838    0.6136   -3.6592 C   0  0  0  0  0  0  0  0  0  0  0  0
    0.1848    2.6837   -2.8033 C   0  0  0  0  0  0  0  0  0  0  0  0
    0.3711   -3.9903   -0.0586 C   0  0  0  0  0  0  0  0  0  0  0  0
   -1.6079   -3.1331    0.8591 C   0  0  0  0  0  0  0  0  0  0  0  0
    2.7718    1.1919    1.8074 C   0  0  0  0  0  0  0  0  0  0  0  0
    3.0348   -2.2359   -1.9388 C   0  0  0  0  0  0  0  0  0  0  0  0
   -0.5126    1.9694   -3.7860 C   0  0  0  0  0  0  0  0  0  0  0  0
   -0.8079   -4.2434    0.5573 C   0  0  0  0  0  0  0  0  0  0  0  0
    3.2686   -0.2748    2.1483 C   0  0  0  0  0  0  0  0  0  0  0  0
    2.8488   -3.4005   -2.0887 C   0  0  0  0  0  0  0  0  0  0  0  0
    2.4780   -1.3603    1.5890 N   0  0  0  0  0  0  0  0  0  0  0  0
    3.1314   -2.6462    1.4456 C   0  0  0  0  0  0  0  0  0  0  0  0
    1.2162   -1.3501    2.2877 C   0  0  0  0  0  0  0  0  0  0  0  0
  1  2  1  0
  1  3  1  0
  1  4  1  0
  1  5  1  0
  2  6  2  0
  2  7  1  0
  3  8  2  0
  3  9  1  0
  4 10  1  0
  4 11  2  0
  5 12  1  0
  6 13  1  0
  7 14  2  0
  8 15  1  0
  9 16  2  0
 10 17  1  0
 12 18  1  0
 13 19  2  0
 14 19  1  0
 15 20  2  0
 16 20  1  0
 17 21  1  0
 18 22  3  0
 21 23  1  0
 23 24  1  0
 23 25  1  0
M  END
>  <DRUGBANK_ID>  (1) 
DB15783

>  <COMMON_NAME>  (1) 
Pargeverine

>  <CAS_NUMBER>  (1) 
13479-13-5

>  <UNII>  (1) 
UC61HM8FX0

>  <SYNONYMS>  (1) 
Pargeverina; Pargeverine; Pargeverinum

$$$$
