
     RDKit          3D

  8  8  0  0  0  0  0  0  0  0999 V2000
   -4.6071   -0.0393   -0.0064 O   0  0  0  0  0  0  0  0  0  0  0  0
   -3.2447    0.0087   -0.0080 C   0  0  0  0  0  0  0  0  0  0  0  0
   -2.5569    1.2195   -0.0074 C   0  0  0  0  0  0  0  0  0  0  0  0
   -1.1589    1.2143   -0.0027 C   0  0  0  0  0  0  0  0  0  0  0  0
   -0.4680    0.0008   -0.0003 C   0  0  0  0  0  0  0  0  0  0  0  0
    1.6110   -0.0062    0.0076 I   0  0  0  0  0  0  0  0  0  0  0  0
   -1.1638   -1.2087   -0.0045 C   0  0  0  0  0  0  0  0  0  0  0  0
   -2.5594   -1.2011   -0.0092 C   0  0  0  0  0  0  0  0  0  0  0  0
  1  2  1  0
  2  3  2  0
  2  8  1  0
  3  4  1  0
  4  5  2  0
  5  6  1  0
  5  7  1  0
  7  8  2  0
M  END
>  <DRUGBANK_ID>  (1) 
DB03002

>  <SECONDARY_ACCESSION_NUMBERS>  (1) 
EXPT01906

>  <COMMON_NAME>  (1) 
p-Iodophenol

>  <CAS_NUMBER>  (1) 
540-38-5

>  <UNII>  (1) 
BH194BAK0B

>  <SYNONYMS>  (1) 
4-iodophenol

$$$$
