
     RDKit          3D

 29 32  0  0  0  0  0  0  0  0999 V2000
   -0.0313   -1.1312    1.6404 O   0  0  0  0  0  0  0  0  0  0  0  0
    1.3309   -0.0809   -1.6747 O   0  0  0  0  0  0  0  0  0  0  0  0
    0.8381    1.2929    0.0267 O   0  0  0  0  0  0  0  0  0  0  0  0
    1.3049  -11.0008    0.3014 O   0  0  0  0  0  0  0  0  0  0  0  0
   -0.1201   -0.4300    3.7860 O   0  0  0  0  0  0  0  0  0  0  0  0
    1.0080   -2.6524   -0.2409 C   0  0  1  0  0  0  0  0  0  0  0  0
   -0.1956   -3.5546   -0.4323 C   0  0  2  0  0  0  0  0  0  0  0  0
    0.2279   -4.8793   -1.0420 C   0  0  1  0  0  0  0  0  0  0  0  0
    1.2587   -5.5824   -0.1044 C   0  0  1  0  0  0  0  0  0  0  0  0
    0.2525   -1.3249    0.1626 C   0  0  1  0  0  0  0  0  0  0  0  0
    1.9543   -3.2597    0.7968 C   0  0  0  0  0  0  0  0  0  0  0  0
    1.7223   -6.9510   -0.7191 C   0  0  2  0  0  0  0  0  0  0  0  0
   -1.2083   -2.6961   -1.1995 C   0  0  0  0  0  0  0  0  0  0  0  0
    2.4208   -4.6579    0.3525 C   0  0  0  0  0  0  0  0  0  0  0  0
   -1.0520   -1.2885   -0.6303 C   0  0  0  0  0  0  0  0  0  0  0  0
   -1.0027   -5.7510   -1.2442 C   0  0  0  0  0  0  0  0  0  0  0  0
    1.8517   -2.5060   -1.5916 C   0  0  0  0  0  0  0  0  0  0  0  0
    0.4649   -7.7907   -0.9774 C   0  0  0  0  0  0  0  0  0  0  0  0
   -0.6495   -7.1335   -1.7524 C   0  0  0  0  0  0  0  0  0  0  0  0
    2.6563   -7.6805    0.2845 C   0  0  0  0  0  0  0  0  0  0  0  0
    2.4790   -6.7538   -2.0528 C   0  0  0  0  0  0  0  0  0  0  0  0
    1.1767   -0.3668   -0.4534 C   0  0  0  0  0  0  0  0  0  0  0  0
    2.8142   -9.1623   -0.0300 C   0  0  0  0  0  0  0  0  0  0  0  0
    0.3210   -9.0660   -0.5793 C   0  0  0  0  0  0  0  0  0  0  0  0
    1.4636   -9.8293   -0.0304 C   0  0  0  0  0  0  0  0  0  0  0  0
    1.9352    0.3035    0.4889 C   0  0  0  0  0  0  0  0  0  0  0  0
    0.0601   -0.1093    2.6033 C   0  0  0  0  0  0  0  0  0  0  0  0
    0.3790    1.4861    2.2680 C   0  0  0  0  0  0  0  0  0  0  0  0
    1.9391    2.2545    1.9031 C   0  0  0  0  0  0  0  0  0  0  0  0
  1 27  1  0
  2 22  2  0
  3 26  1  0
  4 25  2  0
  5 27  2  0
  6  7  1  0
  6 10  1  0
  6 11  1  0
  6 17  1  6
  7  8  1  0
  7 13  1  6
  8  9  1  0
  8 16  1  1
  9 12  1  0
  9 14  1  6
 10 15  1  0
 10 22  1  0
 10  1  1  1
 11 14  1  0
 12 18  1  0
 12 20  1  0
 12 21  1  6
 13 15  1  0
 16 19  1  0
 18 19  1  0
 18 24  2  0
 20 23  1  0
 22 26  1  0
 23 25  1  0
 24 25  1  0
 27 28  1  0
 28 29  1  0
M  END
>  <DRUGBANK_ID>  (1) 
DB12499

>  <COMMON_NAME>  (1) 
Clascoterone

>  <CAS_NUMBER>  (1) 
19608-29-8

>  <UNII>  (1) 
XN7MM8XG2M

>  <SYNONYMS>  (1) 
11-deoxycortisol 17α-propionate; Clascoterone; Cortexolone 17alpha-propionate; Cortexolone 17α-propionate

$$$$
