915
     RDKit          3D

 23 24  0  0  0  0  0  0  0  0999 V2000
   -2.0416    0.4709   -0.0423 C   0  0  0  0  0  0  0  0  0  0  0  0
   -0.9273    1.3345   -0.0260 C   0  0  0  0  0  0  0  0  0  0  0  0
    0.3739    0.8301   -0.0136 C   0  0  0  0  0  0  0  0  0  0  0  0
    0.5396   -0.5526   -0.0125 C   0  0  0  0  0  0  0  0  0  0  0  0
   -0.5592   -1.4180   -0.0091 C   0  0  0  0  0  0  0  0  0  0  0  0
   -1.8644   -0.9097   -0.0118 C   0  0  0  0  0  0  0  0  0  0  0  0
    1.7767   -1.0685   -0.0058 F   0  0  0  0  0  0  0  0  0  0  0  0
    1.5569    1.7489    0.0098 C   0  0  0  0  0  0  0  0  0  0  0  0
   -3.6523    1.2257    0.0322 S   0  0  0  0  0  0  0  0  0  0  0  0
   -4.4483    0.7942   -1.4097 N   0  0  0  0  0  0  0  0  0  0  0  0
   -5.8774    1.2994   -1.5526 C   0  0  1  0  0  0  0  0  0  0  0  0
   -5.9858    2.8681   -1.4474 C   0  0  0  0  0  0  0  0  0  0  0  0
   -6.5108    3.5569   -2.5065 N   0  0  0  0  0  0  0  0  0  0  0  0
   -6.3451    4.9573   -2.5298 O   0  0  0  0  0  0  0  0  0  0  0  0
   -5.6063    3.5262   -0.4816 O   0  0  0  0  0  0  0  0  0  0  0  0
   -4.3790    0.6253    1.1351 O   0  0  0  0  0  0  0  0  0  0  0  0
   -3.3677    2.6313   -0.0505 O   0  0  0  0  0  0  0  0  0  0  0  0
   -6.5050    0.6853   -2.8572 C   0  0  0  0  0  0  0  0  0  0  0  0
   -6.1875   -0.8184   -3.0557 C   0  0  0  0  0  0  0  0  0  0  0  0
   -6.6803   -1.3307   -4.4134 C   0  0  0  0  0  0  0  0  0  0  0  0
   -6.1999   -0.5335   -5.4939 O   0  0  0  0  0  0  0  0  0  0  0  0
   -6.6419    0.8001   -5.3854 C   0  0  0  0  0  0  0  0  0  0  0  0
   -6.0595    1.4120   -4.1423 C   0  0  0  0  0  0  0  0  0  0  0  0
  1  2  2  0
  1  6  1  0
  1  9  1  0
  2  3  1  0
  3  4  2  0
  3  8  1  0
  4  5  1  0
  4  7  1  0
  5  6  2  0
  9 10  1  0
  9 16  2  0
  9 17  2  0
 11 10  1  6
 11 12  1  0
 11 18  1  0
 12 13  1  0
 12 15  2  0
 13 14  1  0
 18 19  1  0
 18 23  1  0
 19 20  1  0
 20 21  1  0
 21 22  1  0
 22 23  1  0
M  END
>  <DRUGBANK_ID>  (1) 
DB07290

>  <COMMON_NAME>  (1) 
(2R)-2-{[(4-FLUORO-3-METHYLPHENYL)SULFONYL]AMINO}-N-HYDROXY-2-TETRAHYDRO-2H-PYRAN-4-YLACETAMIDE

$$$$
