
     RDKit          3D

 27 28  0  0  0  0  0  0  0  0999 V2000
    0.9797   -0.1034   -0.0671 C   0  0  0  0  0  0  0  0  0  0  0  0
    0.3552    0.2731    1.5694 S   0  0  0  0  0  0  0  0  0  0  0  0
    0.9070   -1.1234    2.5210 C   0  0  0  0  0  0  0  0  0  0  0  0
    1.2592   -0.8145    3.8160 C   0  0  0  0  0  0  0  0  0  0  0  0
    1.3752   -1.8250    4.7541 C   0  0  0  0  0  0  0  0  0  0  0  0
    1.3106   -3.1831    4.4460 C   0  0  0  0  0  0  0  0  0  0  0  0
    0.9550   -3.4927    3.1304 C   0  0  0  0  0  0  0  0  0  0  0  0
    0.7809   -2.4718    2.1700 C   0  0  0  0  0  0  0  0  0  0  0  0
    1.5945   -4.3054    5.4070 C   0  0  0  0  0  0  0  0  0  0  0  0
    1.4795   -5.4728    5.0299 O   0  0  0  0  0  0  0  0  0  0  0  0
    2.0479   -4.0933    6.8133 C   0  0  0  0  0  0  0  0  0  0  0  0
    2.3069   -2.9255    7.4070 C   0  0  0  0  0  0  0  0  0  0  0  0
    2.7694   -2.6777    8.7451 C   0  0  0  0  0  0  0  0  0  0  0  0
    3.9016   -3.3624    9.1115 C   0  0  0  0  0  0  0  0  0  0  0  0
    4.5995   -3.0405   10.2603 C   0  0  0  0  0  0  0  0  0  0  0  0
    5.8476   -3.9026   10.3521 C   0  0  0  0  0  0  0  0  0  0  0  0
    4.1064   -1.9569   11.0561 C   0  0  0  0  0  0  0  0  0  0  0  0
    4.5369   -1.5547   12.3028 O   0  0  0  0  0  0  0  0  0  0  0  0
    5.5437   -2.3088   12.9639 C   0  0  0  0  0  0  0  0  0  0  0  0
    5.0085   -3.7440   13.2428 C   0  0  0  0  0  0  0  0  0  0  0  0
    6.8546   -2.0118   12.2027 C   0  0  0  0  0  0  0  0  0  0  0  0
    5.8598   -1.7761   14.3648 C   0  0  0  0  0  0  0  0  0  0  0  0
    5.3483   -0.8241   14.9498 O   0  0  0  0  0  0  0  0  0  0  0  0
    6.8645   -2.4746   14.9527 O   0  0  0  0  0  0  0  0  0  0  0  0
    3.0162   -1.1652   10.5979 C   0  0  0  0  0  0  0  0  0  0  0  0
    2.6418    0.1680   11.2078 C   0  0  0  0  0  0  0  0  0  0  0  0
    2.3154   -1.5743    9.4648 C   0  0  0  0  0  0  0  0  0  0  0  0
  1  2  1  0
  2  3  1  0
  3  4  2  0
  3  8  1  0
  4  5  1  0
  5  6  2  0
  6  7  1  0
  6  9  1  0
  7  8  2  0
  9 10  2  0
  9 11  1  0
 11 12  2  0
 12 13  1  0
 13 14  2  0
 13 27  1  0
 14 15  1  0
 15 16  1  0
 15 17  2  0
 17 18  1  0
 17 25  1  0
 18 19  1  0
 19 20  1  0
 19 21  1  0
 19 22  1  0
 22 23  2  0
 22 24  1  0
 25 26  1  0
 25 27  2  0
M  END
>  <DRUGBANK_ID>  (1) 
DB05187

>  <COMMON_NAME>  (1) 
Elafibranor

>  <CAS_NUMBER>  (1) 
923978-27-2

>  <UNII>  (1) 
2J3H5C81A5

>  <SYNONYMS>  (1) 
Elafibranor

$$$$
