269
     RDKit          3D

 27 29  0  0  0  0  0  0  0  0999 V2000
    1.0380    0.0976    0.2145 Cl  0  0  0  0  0  0  0  0  0  0  0  0
    9.1292   -1.3714   -0.3418 O   0  0  0  0  0  0  0  0  0  0  0  0
    0.5490   -5.3544   -2.8462 O   0  0  0  0  0  0  0  0  0  0  0  0
    5.7992    3.9946    2.7145 O   0  0  0  0  0  0  0  0  0  0  0  0
    3.4407   -1.0944   -0.4341 C   0  0  0  0  0  0  0  0  0  0  0  0
    4.9403   -1.1988   -0.3724 C   0  0  0  0  0  0  0  0  0  0  0  0
    2.6583   -2.2130   -1.0500 C   0  0  0  0  0  0  0  0  0  0  0  0
    2.7970    0.0132    0.0605 C   0  0  0  0  0  0  0  0  0  0  0  0
    3.4671    1.1993    0.6599 C   0  0  0  0  0  0  0  0  0  0  0  0
    5.6424   -0.9232    0.8076 C   0  0  0  0  0  0  0  0  0  0  0  0
    1.6521   -1.9397   -1.9784 C   0  0  0  0  0  0  0  0  0  0  0  0
    5.6810   -1.5914   -1.5000 C   0  0  0  0  0  0  0  0  0  0  0  0
    2.9788   -3.5603   -0.8023 C   0  0  0  0  0  0  0  0  0  0  0  0
    7.0358   -0.9214    0.8436 C   0  0  0  0  0  0  0  0  0  0  0  0
    0.9077   -2.9544   -2.5668 C   0  0  0  0  0  0  0  0  0  0  0  0
    7.0775   -1.6910   -1.4315 C   0  0  0  0  0  0  0  0  0  0  0  0
    2.2844   -4.5847   -1.4616 C   0  0  0  0  0  0  0  0  0  0  0  0
    3.0535    1.6495    1.9207 C   0  0  0  0  0  0  0  0  0  0  0  0
    4.6051    1.7913    0.0856 C   0  0  0  0  0  0  0  0  0  0  0  0
    7.7638   -1.3174   -0.2760 C   0  0  0  0  0  0  0  0  0  0  0  0
    1.2192   -4.2883   -2.3110 C   0  0  0  0  0  0  0  0  0  0  0  0
    3.7912    2.5970    2.6240 C   0  0  0  0  0  0  0  0  0  0  0  0
    5.3946    2.6695    0.8327 C   0  0  0  0  0  0  0  0  0  0  0  0
    4.9776    3.0977    2.0907 C   0  0  0  0  0  0  0  0  0  0  0  0
    9.8276   -0.8528    0.7878 C   0  0  0  0  0  0  0  0  0  0  0  0
   -0.6318   -5.0304   -3.5781 C   0  0  0  0  0  0  0  0  0  0  0  0
    5.2595    4.6062    3.8817 C   0  0  0  0  0  0  0  0  0  0  0  0
  1  8  1  0
  2 20  1  0
  2 25  1  0
  3 21  1  0
  3 26  1  0
  4 24  1  0
  4 27  1  0
  5  6  1  0
  5  7  1  0
  5  8  2  3
  6 10  2  0
  6 12  1  0
  7 11  2  0
  7 13  1  0
  8  9  1  0
  9 18  2  0
  9 19  1  0
 10 14  1  0
 11 15  1  0
 12 16  2  0
 13 17  2  0
 14 20  2  0
 15 21  2  0
 16 20  1  0
 17 21  1  0
 18 22  1  0
 19 23  2  0
 22 24  2  0
 23 24  1  0
M  END
>  <DRUGBANK_ID>  (1) 
DB00269

>  <SECONDARY_ACCESSION_NUMBERS>  (1) 
APRD00715

>  <COMMON_NAME>  (1) 
Chlorotrianisene

>  <CAS_NUMBER>  (1) 
569-57-3

>  <UNII>  (1) 
6V5034L121

>  <SYNONYMS>  (1) 
Chloortrianisestrol; Chlorestrolo; Chlorotrianisene; Chlorotrianisenum; Chlorotrianisine; Chlorotrianizen; Chlortrianisen; Chlortrianisestrol; Chlortrianisoestrolum; Chlortrianizen; Clorotrianiseno

$$$$
