
     RDKit          3D

 27 29  0  0  0  0  0  0  0  0999 V2000
   -0.6918    1.1108   -0.0049 C   0  0  0  0  0  0  0  0  0  0  0  0
    0.6884    1.2324   -0.0042 C   0  0  0  0  0  0  0  0  0  0  0  0
    1.4490    0.0719   -0.0187 C   0  0  0  0  0  0  0  0  0  0  0  0
    0.8049   -1.1584   -0.0180 C   0  0  0  0  0  0  0  0  0  0  0  0
   -0.5868   -1.1980    0.0317 C   0  0  0  0  0  0  0  0  0  0  0  0
   -1.3450   -0.0733    0.0104 N   0  0  0  0  0  0  0  0  0  0  0  0
   -1.3037   -2.4771    0.0940 C   0  0  0  0  0  0  0  0  0  0  0  0
   -2.1819   -2.8138   -0.9539 C   0  0  0  0  0  0  0  0  0  0  0  0
   -2.8527   -4.0400   -1.0251 C   0  0  0  0  0  0  0  0  0  0  0  0
   -2.6327   -4.9642    0.0062 C   0  0  0  0  0  0  0  0  0  0  0  0
   -1.7729   -4.6487    1.0731 C   0  0  0  0  0  0  0  0  0  0  0  0
   -1.1221   -3.4119    1.1211 C   0  0  0  0  0  0  0  0  0  0  0  0
   -0.1089   -3.0918    2.4906 Cl  0  0  0  0  0  0  0  0  0  0  0  0
   -3.7330   -4.3624   -2.0996 N   0  0  0  0  0  0  0  0  0  0  0  0
   -4.0327   -3.5309   -3.1799 C   0  0  0  0  0  0  0  0  0  0  0  0
   -4.9986   -4.0077   -4.2055 C   0  0  0  0  0  0  0  0  0  0  0  0
   -3.5450   -2.4261   -3.4122 O   0  0  0  0  0  0  0  0  0  0  0  0
   -4.6766   -3.7597   -5.5599 C   0  0  0  0  0  0  0  0  0  0  0  0
   -5.5442   -4.1355   -6.5958 C   0  0  0  0  0  0  0  0  0  0  0  0
   -6.7605   -4.7387   -6.2774 C   0  0  0  0  0  0  0  0  0  0  0  0
   -7.1081   -4.9556   -4.9366 C   0  0  0  0  0  0  0  0  0  0  0  0
   -6.2362   -4.5787   -3.9026 C   0  0  0  0  0  0  0  0  0  0  0  0
   -6.7884   -4.7948   -2.2815 Cl  0  0  0  0  0  0  0  0  0  0  0  0
   -7.8368   -5.3345   -7.5728 S   0  0  0  0  0  0  0  0  0  0  0  0
   -8.3004   -3.9198   -8.5365 C   0  0  0  0  0  0  0  0  0  0  0  0
   -7.0249   -6.2034   -8.4071 O   0  0  0  0  0  0  0  0  0  0  0  0
   -9.0371   -5.8325   -6.9336 O   0  0  0  0  0  0  0  0  0  0  0  0
  1  2  2  0
  1  6  1  0
  2  3  1  0
  3  4  2  0
  4  5  1  0
  5  6  2  0
  5  7  1  0
  7  8  2  0
  7 12  1  0
  8  9  1  0
  9 10  2  0
  9 14  1  0
 10 11  1  0
 11 12  2  0
 12 13  1  0
 14 15  1  0
 15 16  1  0
 15 17  2  0
 16 18  2  0
 16 22  1  0
 18 19  1  0
 19 20  2  0
 20 21  1  0
 20 24  1  0
 21 22  2  0
 22 23  1  0
 24 25  1  0
 24 26  2  0
 24 27  2  0
M  END
>  <DRUGBANK_ID>  (1) 
DB08828

>  <COMMON_NAME>  (1) 
Vismodegib

>  <CAS_NUMBER>  (1) 
879085-55-9

>  <UNII>  (1) 
25X868M3DS

>  <SYNONYMS>  (1) 
2-chloro-N-(4-chloro-3-pyridin-2-yl)phenyl)-4-(methylsulfonyl)benzamide; Benzamide, 2-chloro-N-(4-chloro-3-(2-pyridinyl)phenyl)-4-(methylsulfonyl)-; Vismodegib; Vismod√©gib; Vismodegibum

$$$$
