
     RDKit          3D

  6  5  0  0  1  0  0  0  0  0999 V2000
    0.9003   -2.5281    0.3533 C   0  0  0  0  0  0  0  0  0  0  0  0
    0.4213   -1.3719   -0.5190 C   0  0  2  0  0  0  0  0  0  0  0  0
    1.0220   -0.0572    0.0020 C   0  0  0  0  0  0  0  0  0  0  0  0
    2.2026    0.1174    0.2776 O   0  0  0  0  0  0  0  0  0  0  0  0
    0.1450    0.9549    0.1591 O   0  0  0  0  0  0  0  0  0  0  0  0
   -1.0566   -1.3570   -0.5450 N   0  0  0  0  0  0  0  0  0  0  0  0
  2  6  1  0
  2  3  1  0
  2  1  1  1
  3  4  2  0
  3  5  1  0
M  END
>  <DRUGBANK_ID>  (1) 
DB01786

>  <SECONDARY_ACCESSION_NUMBERS>  (1) 
EXPT01109

>  <COMMON_NAME>  (1) 
D-Alanine

>  <CAS_NUMBER>  (1) 
338-69-2

>  <UNII>  (1) 
E3UDS4613U

>  <SYNONYMS>  (1) 
(2R)-2-aminopropanoic acid; (R)-2-aminopropanoic acid; (R)-alanine; D-2-Aminopropionic acid; D-Ala; D-Alanin; D-α-alanine; D-α-aminopropionic acid; DAL

$$$$
