
     RDKit          3D

 36 40  0  0  1  0  0  0  0  0999 V2000
   -2.6971    0.1936    0.0213 C   0  0  0  0  0  0  0  0  0  0  0  0
   -1.2514   -0.0553   -0.0626 C   0  0  0  0  0  0  0  0  0  0  0  0
   -0.0727   -0.2749   -0.0852 C   0  0  0  0  0  0  0  0  0  0  0  0
    1.3502   -0.5570    0.0464 C   0  0  0  0  0  0  0  0  0  0  0  0
    2.1354    0.3779    0.1298 O   0  0  0  0  0  0  0  0  0  0  0  0
    1.7057   -1.8748    0.2149 N   0  0  0  0  0  0  0  0  0  0  0  0
    1.0845   -3.0037   -0.4466 C   0  0  0  0  0  0  0  0  0  0  0  0
    1.4148   -4.1650    0.4752 C   0  0  0  0  0  0  0  0  0  0  0  0
    2.8255   -3.8305    1.0180 C   0  0  2  0  0  0  0  0  0  0  0  0
    2.8655   -2.2855    1.0044 C   0  0  0  0  0  0  0  0  0  0  0  0
    3.8903   -4.4003    0.1897 N   0  0  0  0  0  0  0  0  0  0  0  0
    4.0835   -4.0405   -1.1190 C   0  0  0  0  0  0  0  0  0  0  0  0
    5.1402   -4.7423   -1.6331 C   0  0  0  0  0  0  0  0  0  0  0  0
    5.5109   -4.5920   -3.0089 C   0  0  0  0  0  0  0  0  0  0  0  0
    5.9166   -3.3501   -3.4845 C   0  0  0  0  0  0  0  0  0  0  0  0
    6.2547   -3.2202   -4.8221 C   0  0  0  0  0  0  0  0  0  0  0  0
    6.2407   -4.3307   -5.6785 C   0  0  0  0  0  0  0  0  0  0  0  0
    6.5749   -4.2952   -7.0186 O   0  0  0  0  0  0  0  0  0  0  0  0
    7.0204   -3.1021   -7.5307 C   0  0  0  0  0  0  0  0  0  0  0  0
    8.1801   -2.4819   -7.0612 C   0  0  0  0  0  0  0  0  0  0  0  0
    8.9117   -3.0533   -6.0925 F   0  0  0  0  0  0  0  0  0  0  0  0
    8.5467   -1.2186   -7.5129 C   0  0  0  0  0  0  0  0  0  0  0  0
    7.7872   -0.5918   -8.4997 C   0  0  0  0  0  0  0  0  0  0  0  0
    6.6638   -1.2338   -9.0250 C   0  0  0  0  0  0  0  0  0  0  0  0
    6.2863   -2.4843   -8.5386 C   0  0  0  0  0  0  0  0  0  0  0  0
    5.1868   -3.0676   -9.0377 F   0  0  0  0  0  0  0  0  0  0  0  0
    5.8457   -5.5760   -5.1863 C   0  0  0  0  0  0  0  0  0  0  0  0
    5.4577   -5.7010   -3.8571 C   0  0  0  0  0  0  0  0  0  0  0  0
    5.6627   -5.5340   -0.5940 C   0  0  0  0  0  0  0  0  0  0  0  0
    6.7849   -6.4476   -0.5095 C   0  0  0  0  0  0  0  0  0  0  0  0
    7.5101   -6.6206   -1.6420 N   0  0  0  0  0  0  0  0  0  0  0  0
    7.0527   -7.0614    0.6055 N   0  0  0  0  0  0  0  0  0  0  0  0
    6.2474   -6.8241    1.7071 N   0  0  0  0  0  0  0  0  0  0  0  0
    5.1465   -5.9776    1.7703 C   0  0  0  0  0  0  0  0  0  0  0  0
    4.5007   -5.8413    2.8047 O   0  0  0  0  0  0  0  0  0  0  0  0
    4.8701   -5.3087    0.5263 C   0  0  0  0  0  0  0  0  0  0  0  0
  1  2  1  0
  2  3  3  0
  3  4  1  0
  4  5  2  0
  4  6  1  0
  6  7  1  0
  6 10  1  0
  7  8  1  0
  9  8  1  0
  9 10  1  0
  9 11  1  6
 11 12  1  0
 11 36  1  0
 12 13  2  0
 13 14  1  0
 13 29  1  0
 14 15  2  0
 14 28  1  0
 15 16  1  0
 16 17  2  0
 17 18  1  0
 17 27  1  0
 18 19  1  0
 19 20  2  0
 19 25  1  0
 20 21  1  0
 20 22  1  0
 22 23  2  0
 23 24  1  0
 24 25  2  0
 25 26  1  0
 27 28  2  0
 29 30  1  0
 29 36  2  0
 30 31  1  0
 30 32  2  0
 32 33  1  0
 33 34  1  0
 34 35  2  0
 34 36  1  0
M  END
>  <DRUGBANK_ID>  (1) 
DB18095

>  <COMMON_NAME>  (1) 
Edralbrutinib

>  <CAS_NUMBER>  (1) 
1858206-58-2

>  <UNII>  (1) 
SG5I5QTR4E

>  <SYNONYMS>  (1) 
4-amino-3-(4-(2,6-difluorophenoxy)phenyl)-1,6-dihydro-1-((3r)-1-(1-oxo-2-butyn-1-yl)-3-pyrrolidinyl)-7h-pyrrolo(2,3-d)pyridazin-7-one; 7h-pyrrolo(2,3-d)pyridazin-7-one, 4-amino-3-(4-(2,6-difluorophenoxy)phenyl)-1,6-dihydro-1-((3r)-1-(1-oxo-2-butyn-1-yl)-3-pyrrolidinyl)-; Edralbrutinib

$$$$
