
     RDKit          3D

 12 12  0  0  0  0  0  0  0  0999 V2000
   -2.6274    0.8716   -0.1661 O   0  0  0  0  0  0  0  0  0  0  0  0
   -1.2935    0.5071    0.2043 C   0  0  1  0  0  0  0  0  0  0  0  0
   -0.8229   -0.6839   -0.6332 C   0  0  2  0  0  0  0  0  0  0  0  0
   -1.6187   -1.8381   -0.3302 O   0  0  0  0  0  0  0  0  0  0  0  0
    0.6558   -0.9921   -0.3589 C   0  0  2  0  0  0  0  0  0  0  0  0
    0.7814   -1.4778    0.9912 O   0  0  0  0  0  0  0  0  0  0  0  0
    1.4931    0.2832   -0.5646 C   0  0  1  0  0  0  0  0  0  0  0  0
    1.0254    1.3057    0.3418 O   0  0  0  0  0  0  0  0  0  0  0  0
   -0.3219    1.6963    0.0422 C   0  0  2  0  0  0  0  0  0  0  0  0
   -0.7291    2.8360    0.8163 O   0  0  0  0  0  0  0  0  0  0  0  0
    2.9769    0.0464   -0.3021 C   0  0  0  0  0  0  0  0  0  0  0  0
   -1.1233    2.5682    2.1544 C   0  0  0  0  0  0  0  0  0  0  0  0
  2  1  1  6
  2  3  1  0
  2  9  1  0
  3  4  1  1
  3  5  1  0
  5  6  1  1
  5  7  1  0
  7 11  1  1
  8  7  1  0
  9  8  1  0
  9 10  1  1
 10 12  1  0
M  END
>  <DRUGBANK_ID>  (1) 
DB03194

>  <SECONDARY_ACCESSION_NUMBERS>  (1) 
EXPT02161

>  <COMMON_NAME>  (1) 
Methyl beta-L-fucopyranoside

>  <CAS_NUMBER>  (1) 
24332-98-7

>  <UNII>  (1) 
WW71PB1NF3

>  <SYNONYMS>  (1) 
Methyl 6-deoxy-beta-L-galactopyranoside

$$$$
