PF8
     RDKit          3D

 29 33  0  0  0  0  0  0  0  0999 V2000
    1.3639   -0.2103    0.0256 C   0  0  0  0  0  0  0  0  0  0  0  0
    2.1371   -4.4927    0.5279 C   0  0  0  0  0  0  0  0  0  0  0  0
   -1.3683    0.1983   -0.0316 C   0  0  0  0  0  0  0  0  0  0  0  0
   -3.0901    2.4038   -0.8320 C   0  0  0  0  0  0  0  0  0  0  0  0
   -0.8611   -1.0746   -0.0097 C   0  0  0  0  0  0  0  0  0  0  0  0
   -0.5090    1.2694    0.0745 C   0  0  0  0  0  0  0  0  0  0  0  0
   -2.4226    2.6711    0.5168 C   0  0  0  0  0  0  0  0  0  0  0  0
   -0.5775    5.7539   -3.7559 C   0  0  0  0  0  0  0  0  0  0  0  0
   -1.8524    4.8102   -5.5480 C   0  0  0  0  0  0  0  0  0  0  0  0
   -0.8295    5.6927   -5.4185 C   0  0  0  0  0  0  0  0  0  0  0  0
   -1.3601    4.6317   -2.4730 C   0  0  0  0  0  0  0  0  0  0  0  0
   -2.4558    3.2164   -1.4561 N   0  0  0  0  0  0  0  0  0  0  0  0
   -2.2387    4.0705   -4.5122 C   0  0  0  0  0  0  0  0  0  0  0  0
   -1.6708    4.7029   -3.5572 C   0  0  0  0  0  0  0  0  0  0  0  0
   -1.7768    4.2702   -2.4368 C   0  0  0  0  0  0  0  0  0  0  0  0
   -2.9484    2.8778   -2.0394 C   0  0  0  0  0  0  0  0  0  0  0  0
   -0.9756    2.5155    0.3766 O   0  0  0  0  0  0  0  0  0  0  0  0
    0.8654    1.0822   -0.0553 C   0  0  0  0  0  0  0  0  0  0  0  0
    0.5031   -1.2995   -0.0118 C   0  0  0  0  0  0  0  0  0  0  0  0
    1.0391   -2.6561   -0.0445 C   0  0  0  0  0  0  0  0  0  0  0  0
    1.8883   -3.2083    0.9514 C   0  0  0  0  0  0  0  0  0  0  0  0
    1.4814   -4.6560   -0.6587 N   0  0  0  0  0  0  0  0  0  0  0  0
    0.8031   -3.5425   -1.0375 N   0  0  0  0  0  0  0  0  0  0  0  0
    2.3763   -2.6229    2.1984 C   0  0  0  0  0  0  0  0  0  0  0  0
    3.7297   -2.4357    2.4668 C   0  0  0  0  0  0  0  0  0  0  0  0
    4.1149   -1.9439    3.7060 C   0  0  0  0  0  0  0  0  0  0  0  0
    3.2454   -1.6358    4.6889 N   0  0  0  0  0  0  0  0  0  0  0  0
    1.9391   -1.8165    4.4061 C   0  0  0  0  0  0  0  0  0  0  0  0
    1.4686   -2.2755    3.1899 C   0  0  0  0  0  0  0  0  0  0  0  0
  1 19  2  0
  2 22  1  0
  3  5  2  0
  4  7  1  0
  5 19  1  0
  6  3  1  0
  6 18  2  0
  7 17  1  0
  8 11  2  0
  9 13  1  0
  9 10  2  0
 10  8  1  0
 11 12  1  0
 12  4  2  0
 13 14  2  0
 14 11  1  0
 14 15  1  0
 15 16  2  0
 16  4  1  0
 17  6  1  0
 18  1  1  0
 19 20  1  0
 20 21  1  0
 20 23  2  0
 21  2  2  0
 23 22  1  0
 24 21  1  0
 24 29  1  0
 25 24  2  0
 26 25  1  0
 26 27  2  0
 27 28  1  0
 28 29  2  0
M  END
>  <DRUGBANK_ID>  (1) 
DB08386

>  <COMMON_NAME>  (1) 
2-{[4-(4-pyridin-4-yl-1H-pyrazol-3-yl)phenoxy]methyl}quinoline

$$$$
