OLU
     RDKit          3D

 16 18  0  0  0  0  0  0  0  0999 V2000
   -2.2613    0.3739   -0.0166 O   0  0  0  0  0  0  0  0  0  0  0  0
   -1.0684    0.0851   -0.0051 C   0  0  0  0  0  0  0  0  0  0  0  0
   -0.6022   -1.2081    0.0180 N   0  0  0  0  0  0  0  0  0  0  0  0
    0.6878   -1.2703    0.0701 C   0  0  0  0  0  0  0  0  0  0  0  0
    1.5651    0.2409    0.0518 S   0  0  0  0  0  0  0  0  0  0  0  0
    0.0028    1.1540    0.0114 C   0  0  0  0  0  0  0  0  0  0  0  0
    1.4367   -2.5049    0.1243 C   0  0  0  0  0  0  0  0  0  0  0  0
    2.4691   -2.8618    1.4478 S   0  0  0  0  0  0  0  0  0  0  0  0
    2.7978   -4.4184    0.7791 C   0  0  0  0  0  0  0  0  0  0  0  0
    3.6180   -5.4493    1.2726 C   0  0  0  0  0  0  0  0  0  0  0  0
    2.0931   -4.5507   -0.4201 C   0  0  0  0  0  0  0  0  0  0  0  0
    1.3134   -3.4589   -0.7764 N   0  0  0  0  0  0  0  0  0  0  0  0
    2.2228   -5.7531   -1.1502 C   0  0  0  0  0  0  0  0  0  0  0  0
    3.0429   -6.7851   -0.6735 C   0  0  0  0  0  0  0  0  0  0  0  0
    3.7273   -6.6213    0.5226 C   0  0  0  0  0  0  0  0  0  0  0  0
    4.5426   -7.6000    1.0163 O   0  0  0  0  0  0  0  0  0  0  0  0
  1  2  2  0
  2  3  1  0
  2  6  1  0
  3  4  2  0
  4  5  1  0
  4  7  1  0
  5  6  1  0
  7  8  1  0
  7 12  2  0
  8  9  1  0
  9 10  2  0
  9 11  1  0
 10 15  1  0
 11 12  1  0
 11 13  2  0
 13 14  1  0
 14 15  2  0
 15 16  1  0
M  END
>  <DRUGBANK_ID>  (1) 
DB08326

>  <COMMON_NAME>  (1) 
2-(6-HYDROXY-1,3-BENZOTHIAZOL-2-YL)-1,3-THIAZOL-4(5H)-ONE

>  <UNII>  (1) 
8T3Z7X2Y9G

$$$$
