
     RDKit          3D

 33 35  0  0  0  0  0  0  0  0999 V2000
   -1.0988    1.4894   -0.0433 C   0  0  0  0  0  0  0  0  0  0  0  0
   -2.1877    0.6401   -0.0248 N   0  0  0  0  0  0  0  0  0  0  0  0
   -1.0650   -1.4500   -0.0196 N   0  0  0  0  0  0  0  0  0  0  0  0
    0.0274   -0.6757    0.0354 C   0  0  0  0  0  0  0  0  0  0  0  0
    0.0817    0.7161   -0.0140 C   0  0  0  0  0  0  0  0  0  0  0  0
    2.0001   -0.0252    0.5939 C   0  0  0  0  0  0  0  0  0  0  0  0
    1.2765   -1.1536    0.3237 N   0  0  0  0  0  0  0  0  0  0  0  0
    1.6439   -2.7579    0.2258 C   0  0  2  0  0  0  0  0  0  0  0  0
    2.3359   -3.3704    1.4811 O   0  0  0  0  0  0  0  0  0  0  0  0
    3.7490   -3.9381    1.1450 C   0  0  1  0  0  0  0  0  0  0  0  0
    3.5814   -4.3136   -0.3813 C   0  0  1  0  0  0  0  0  0  0  0  0
    3.0778   -5.6204   -0.5577 O   0  0  0  0  0  0  0  0  0  0  0  0
    2.4199   -3.3159   -1.0324 C   0  0  1  0  0  0  0  0  0  0  0  0
    1.8322   -3.7847   -2.2453 O   0  0  0  0  0  0  0  0  0  0  0  0
    5.1851   -1.1835    0.7032 O   0  0  0  0  0  0  0  0  0  0  0  0
    3.2186   -0.5699   -1.2409 O   0  0  0  0  0  0  0  0  0  0  0  0
    4.7256   -1.1117   -0.9631 P   0  0  2  0  0  0  0  0  0  0  0  0
    4.2661   -1.0398   -2.6294 O   0  0  0  0  0  0  0  0  0  0  0  0
    6.2067    0.2940   -1.1001 O   0  0  0  0  0  0  0  0  0  0  0  0
    5.3096    1.9308    0.8882 O   0  0  0  0  0  0  0  0  0  0  0  0
    6.3127    0.8155    0.6039 P   0  0  2  0  0  0  0  0  0  0  0  0
    7.4308    1.3004    1.6003 O   0  0  0  0  0  0  0  0  0  0  0  0
    5.9518   -0.7274    0.9921 O   0  0  0  0  0  0  0  0  0  0  0  0
    3.6271   -1.9925    0.5209 O   0  0  0  0  0  0  0  0  0  0  0  0
    4.3867    0.3709   -0.1711 O   0  0  0  0  0  0  0  0  0  0  0  0
    5.2421   -1.6927   -0.2558 P   0  0  0  0  0  0  0  0  0  0  0  0
    4.5324   -2.6580   -1.5038 O   0  0  0  0  0  0  0  0  0  0  0  0
    5.2074   -2.9067    1.5245 C   0  0  0  0  0  0  0  0  0  0  0  0
   -2.1481   -0.7396   -0.0172 C   0  0  0  0  0  0  0  0  0  0  0  0
   -3.3269   -1.3795   -0.0071 N   0  0  0  0  0  0  0  0  0  0  0  0
   -1.2336    2.7097   -0.0189 O   0  0  0  0  0  0  0  0  0  0  0  0
    1.3834    1.1004    0.1348 N   0  0  0  0  0  0  0  0  0  0  0  0
    1.9636    2.4573    0.0320 C   0  0  0  0  0  0  0  0  0  0  0  0
  1  2  1  0
  1  5  1  0
  2 29  1  0
  3  4  1  0
  4  5  2  0
  4  7  1  0
  5 32  1  0
  6  7  1  0
  8  7  1  1
  8  9  1  0
  8 13  1  0
  9 10  1  0
 10 11  1  0
 10 28  1  6
 11 12  1  1
 11 13  1  0
 13 14  1  6
 15 17  1  0
 17 16  2  0
 17 19  1  0
 17 18  1  6
 19 21  1  0
 21 20  2  0
 21 23  1  0
 21 22  1  1
 23 26  1  0
 26 24  2  0
 26 25  1  0
 26 27  1  0
 28 15  1  0
 29  3  2  0
 29 30  1  0
 31  1  2  0
 32  6  2  0
 32 33  1  0
M  CHG  1  32   1
M  END
>  <DRUGBANK_ID>  (1) 
DB02716

>  <SECONDARY_ACCESSION_NUMBERS>  (1) 
EXPT02167

>  <COMMON_NAME>  (1) 
7-methyl-guanosine-5'-triphosphate

>  <SYNONYMS>  (1) 
7-methyl-GTP(1+); 7-methylguanosine 5'-(tetrahydrogen triphosphate)

$$$$
