
     RDKit          3D

 17 18  0  0  0  0  0  0  0  0999 V2000
   -1.1450   -0.3660   -0.0620 O   0  0  0  0  0  0  0  0  0  0  0  0
    1.1390   -0.3930    0.0300 O   0  0  0  0  0  0  0  0  0  0  0  0
   -2.8539    1.8718   -0.6909 O   0  0  0  0  0  0  0  0  0  0  0  0
    0.0221   -6.9425    0.2174 N   0  0  0  0  0  0  0  0  0  0  0  0
   -1.2190   -6.9290   -1.8527 N   0  0  0  0  0  0  0  0  0  0  0  0
   -0.6350   -9.0965   -0.6512 N   0  0  0  0  0  0  0  0  0  0  0  0
   -0.7540    1.0160    0.0990 C   0  0  1  0  0  0  0  0  0  0  0  0
    0.7790    1.0080   -0.0840 C   0  0  0  0  0  0  0  0  0  0  0  0
   -1.4498    1.9329   -0.8938 C   0  0  0  0  0  0  0  0  0  0  0  0
   -0.0420   -2.7228    0.1286 C   0  0  0  0  0  0  0  0  0  0  0  0
   -0.5936   -3.4158   -0.8607 C   0  0  0  0  0  0  0  0  0  0  0  0
    0.5001   -3.3563    1.2346 C   0  0  0  0  0  0  0  0  0  0  0  0
   -0.5052   -4.7867   -0.8883 C   0  0  0  0  0  0  0  0  0  0  0  0
    0.6717   -4.7511    1.0695 C   0  0  0  0  0  0  0  0  0  0  0  0
    0.0703   -5.4752    0.1433 C   0  0  0  0  0  0  0  0  0  0  0  0
   -0.5868   -7.6292   -0.7253 C   0  0  0  0  0  0  0  0  0  0  0  0
   -0.0170   -1.1260    0.0300 B   0  0  0  0  0  0  0  0  0  0  0  0
  1  7  1  0
  1 17  1  0
  2  8  1  0
  2 17  1  0
  3  9  1  0
  4 15  1  0
  4 16  2  3
  5 16  1  0
  6 16  1  0
  7  8  1  0
  7  9  1  6
 10 11  2  0
 10 12  1  0
 10 17  1  0
 11 13  1  0
 12 14  2  0
 13 15  2  0
 14 15  1  0
M  END
>  <DRUGBANK_ID>  (1) 
DB07077

>  <COMMON_NAME>  (1) 
(R)-1-(4-(4-(Hydroxymethyl)-1,3,2-dioxaborolan-2-YL)phenyl)guanidine

$$$$
