
     RDKit          3D

 26 26  0  0  0  0  0  0  0  0999 V2000
    1.1870   -0.0842   -1.0604 C   0  0  0  0  0  0  0  0  0  0  0  0
    0.2533   -1.1566   -0.9230 C   0  0  0  0  0  0  0  0  0  0  0  0
    0.7266    1.1313   -0.5542 C   0  0  0  0  0  0  0  0  0  0  0  0
    2.7194   -0.4481   -1.2982 C   0  0  0  0  0  0  0  0  0  0  0  0
   -1.0623   -0.9763   -0.4455 C   0  0  0  0  0  0  0  0  0  0  0  0
   -0.5645    1.2967   -0.0837 C   0  0  0  0  0  0  0  0  0  0  0  0
    3.6778    0.3622   -2.0942 C   0  0  0  0  0  0  0  0  0  0  0  0
    3.8248   -0.6663   -0.4193 O   0  0  0  0  0  0  0  0  0  0  0  0
   -1.5136    0.3135   -0.2204 C   0  0  0  0  0  0  0  0  0  0  0  0
    3.6566    1.8265   -1.5507 C   0  0  0  0  0  0  0  0  0  0  0  0
   -2.9023    0.6026   -0.1485 N   0  0  0  0  0  0  0  0  0  0  0  0
    4.0769    2.3550   -0.0861 C   0  0  0  0  0  0  0  0  0  0  0  0
   -3.4982    2.1851   -0.2006 S   0  0  0  0  0  0  0  0  0  0  0  0
    5.4019    2.0383    0.4846 N   0  0  0  0  0  0  0  0  0  0  0  0
   -4.2659    2.3246   -1.7982 C   0  0  0  0  0  0  0  0  0  0  0  0
   -4.5972    2.1896    0.8015 O   0  0  0  0  0  0  0  0  0  0  0  0
   -2.5091    3.1899   -0.1724 O   0  0  0  0  0  0  0  0  0  0  0  0
    5.7991    2.8564    1.6459 C   0  0  0  0  0  0  0  0  0  0  0  0
    5.1005    2.5744    2.9717 C   0  0  0  0  0  0  0  0  0  0  0  0
    5.7336    0.6431    0.7990 C   0  0  0  0  0  0  0  0  0  0  0  0
    4.9028   -0.1233    1.9884 C   0  0  0  0  0  0  0  0  0  0  0  0
    3.3423    0.1165    2.3423 C   0  0  0  0  0  0  0  0  0  0  0  0
    2.4285   -0.5691    1.3792 C   0  0  0  0  0  0  0  0  0  0  0  0
    2.8150   -2.1293    1.0160 C   0  0  0  0  0  0  0  0  0  0  0  0
    2.1048   -2.8995    2.0489 C   0  0  0  0  0  0  0  0  0  0  0  0
    0.6119   -2.6775    1.8680 C   0  0  0  0  0  0  0  0  0  0  0  0
  1  2  2  0
  1  3  1  0
  1  4  1  0
  2  5  1  0
  3  6  2  0
  4  7  1  0
  4  8  1  0
  5  9  2  0
  6  9  1  0
  7 10  1  0
  9 11  1  0
 10 12  1  0
 11 13  1  0
 12 14  1  0
 13 15  1  0
 13 16  2  0
 13 17  2  0
 14 18  1  0
 14 20  1  0
 18 19  1  0
 20 21  1  0
 21 22  1  0
 22 23  1  0
 23 24  1  0
 24 25  1  0
 25 26  1  0
M  END
>  <DRUGBANK_ID>  (1) 
DB00308

>  <SECONDARY_ACCESSION_NUMBERS>  (1) 
APRD01025

>  <COMMON_NAME>  (1) 
Ibutilide

>  <CAS_NUMBER>  (1) 
122647-31-8

>  <UNII>  (1) 
2436VX1U9B

>  <SYNONYMS>  (1) 
Ibutilid; Ibutilida; Ibutilide; Ibutilidum; N-(4-{4-[ethyl(heptyl)amino]-1-hydroxybutyl}phenyl)methanesulfonamide

$$$$
