
     RDKit          3D

 19 21  0  0  0  0  0  0  0  0999 V2000
    1.0776   -0.0026    0.0765 C   0  0  0  0  0  0  0  0  0  0  0  0
   -0.1509    2.0968   -0.3695 C   0  0  0  0  0  0  0  0  0  0  0  0
    0.2576    3.5287   -0.5579 C   0  0  0  0  0  0  0  0  0  0  0  0
    1.4962    5.4520    0.3303 C   0  0  0  0  0  0  0  0  0  0  0  0
    2.9162    5.3403    2.2495 C   0  0  0  0  0  0  0  0  0  0  0  0
    2.0645    1.2767    2.7219 C   0  0  0  0  0  0  0  0  0  0  0  0
    0.5028    1.2650    0.7344 C   0  0  0  0  0  0  0  0  0  0  0  0
    1.1802    4.0858    0.4612 C   0  0  0  0  0  0  0  0  0  0  0  0
    2.3586    6.0635    1.2190 C   0  0  0  0  0  0  0  0  0  0  0  0
    2.6091    3.9770    2.3736 C   0  0  0  0  0  0  0  0  0  0  0  0
    2.8942    1.8046    3.6440 C   0  0  0  0  0  0  0  0  0  0  0  0
    1.7445    3.3117    1.4773 C   0  0  0  0  0  0  0  0  0  0  0  0
    3.2256    3.2408    3.4942 C   0  0  0  0  0  0  0  0  0  0  0  0
    3.4272    0.9604    4.7321 C   0  0  0  0  0  0  0  0  0  0  0  0
    2.6514    7.3604    1.0724 F   0  0  0  0  0  0  0  0  0  0  0  0
    1.4973    1.9336    1.6190 N   0  0  0  0  0  0  0  0  0  0  0  0
    3.9715    3.8484    4.2547 O   0  0  0  0  0  0  0  0  0  0  0  0
    3.1825   -0.2275    4.9005 O   0  0  0  0  0  0  0  0  0  0  0  0
    4.2507    1.6158    5.5637 O   0  0  0  0  0  0  0  0  0  0  0  0
  3  2  1  0
  7  1  1  0
  7  2  1  0
  8  3  1  0
  8  4  1  0
  9  4  2  0
  9  5  1  0
 10  5  2  0
 11  6  2  0
 12  8  2  0
 12 10  1  0
 13 10  1  0
 13 11  1  0
 14 11  1  0
 15  9  1  0
 16  6  1  0
 16  7  1  0
 16 12  1  0
 17 13  2  0
 18 14  2  0
 19 14  1  0
M  END
>  <DRUGBANK_ID>  (1) 
DB08972

>  <COMMON_NAME>  (1) 
Flumequine

>  <CAS_NUMBER>  (1) 
42835-25-6

>  <UNII>  (1) 
UVG8VSP2SJ

>  <SYNONYMS>  (1) 
Flumequine

$$$$
