
     RDKit          3D

 23 24  0  0  0  0  0  0  0  0999 V2000
    7.0789   -6.7838   -0.7909 C   0  0  0  0  0  0  0  0  0  0  0  0
    7.0629   -5.3810   -1.1307 C   0  0  0  0  0  0  0  0  0  0  0  0
    7.0090   -4.9315   -2.4572 C   0  0  0  0  0  0  0  0  0  0  0  0
    7.0926   -3.5329   -2.7307 C   0  0  0  0  0  0  0  0  0  0  0  0
    7.2685   -2.5732   -1.7236 C   0  0  0  0  0  0  0  0  0  0  0  0
    7.3048   -3.0711   -0.4073 C   0  0  0  0  0  0  0  0  0  0  0  0
    7.1607   -4.4394   -0.1075 C   0  0  0  0  0  0  0  0  0  0  0  0
    7.1383   -7.9110   -0.5458 N   0  0  0  0  0  0  0  0  0  0  0  0
    6.8827   -5.8904   -3.6175 C   0  0  0  0  0  0  0  0  0  0  0  0
    5.7756   -5.6392   -4.3690 F   0  0  0  0  0  0  0  0  0  0  0  0
    7.9438   -5.7991   -4.4641 F   0  0  0  0  0  0  0  0  0  0  0  0
    6.7967   -7.2039   -3.2844 F   0  0  0  0  0  0  0  0  0  0  0  0
    7.3040   -1.2192   -1.9905 N   0  0  0  0  0  0  0  0  0  0  0  0
    6.2801   -0.4757   -2.7370 C   0  0  2  0  0  0  0  0  0  0  0  0
    7.1525    0.5622   -3.4782 C   0  0  0  0  0  0  0  0  0  0  0  0
    8.2085    0.9382   -2.4362 C   0  0  0  0  0  0  0  0  0  0  0  0
    8.3935   -0.3305   -1.5770 C   0  0  0  0  0  0  0  0  0  0  0  0
    5.2707    0.2686   -1.8244 C   0  0  2  0  0  0  0  0  0  0  0  0
    4.6221   -0.6004   -0.7384 C   0  0  0  0  0  0  0  0  0  0  0  0
    4.2577    0.8652   -2.6852 O   0  0  0  0  0  0  0  0  0  0  0  0
    4.6296    0.0413    0.4544 F   0  0  0  0  0  0  0  0  0  0  0  0
    3.3317   -0.8664   -1.0567 F   0  0  0  0  0  0  0  0  0  0  0  0
    5.1766   -1.7938   -0.5289 F   0  0  0  0  0  0  0  0  0  0  0  0
  1  2  1  0
  1  8  3  0
  2  3  2  0
  2  7  1  0
  3  4  1  0
  3  9  1  0
  4  5  2  0
  5  6  1  0
  5 13  1  0
  6  7  2  0
  9 10  1  0
  9 11  1  0
  9 12  1  0
 13 14  1  0
 13 17  1  0
 14 15  1  6
 15 16  1  0
 16 17  1  0
 18 20  1  6
 18 19  1  0
 18 14  1  0
 19 21  1  0
 19 22  1  0
 19 23  1  0
M  END
>  <DRUGBANK_ID>  (1) 
DB13934

>  <COMMON_NAME>  (1) 
Ligandrol

>  <CAS_NUMBER>  (1) 
1165910-22-4

>  <UNII>  (1) 
1EJT54415A

$$$$
