
     RDKit          3D

 20 21  0  0  0  0  0  0  0  0999 V2000
    0.8970    0.0654    0.1133 C   0  0  0  0  0  0  0  0  0  0  0  0
    0.4383    1.1427   -0.8461 C   0  0  0  0  0  0  0  0  0  0  0  0
    0.9312    0.9102   -2.2981 C   0  0  2  0  0  0  0  0  0  0  0  0
    0.5821    2.1164   -3.1841 C   0  0  0  0  0  0  0  0  0  0  0  0
    0.8814    1.9146   -4.6147 N   0  0  0  0  0  0  0  0  0  0  0  0
    0.3602    3.0338   -5.3965 C   0  0  0  0  0  0  0  0  0  0  0  0
    0.4480    0.6467   -5.2236 C   0  0  0  0  0  0  0  0  0  0  0  0
    0.8230   -0.5637   -4.3915 C   0  0  0  0  0  0  0  0  0  0  0  0
    0.4209   -0.4340   -2.9100 C   0  0  1  0  0  0  0  0  0  0  0  0
    1.0324   -1.5989   -2.2161 O   0  0  0  0  0  0  0  0  0  0  0  0
    2.3919   -1.7117   -2.1110 C   0  0  0  0  0  0  0  0  0  0  0  0
    3.2176   -0.9661   -2.6393 O   0  0  0  0  0  0  0  0  0  0  0  0
    2.8397   -2.8724   -1.2544 C   0  0  0  0  0  0  0  0  0  0  0  0
    2.4867   -2.7438    0.2139 C   0  0  0  0  0  0  0  0  0  0  0  0
   -1.1463   -0.4967   -2.8068 C   0  0  0  0  0  0  0  0  0  0  0  0
   -1.9764    0.4676   -3.4328 C   0  0  0  0  0  0  0  0  0  0  0  0
   -3.3611    0.4411   -3.4413 C   0  0  0  0  0  0  0  0  0  0  0  0
   -3.9936   -0.5900   -2.7942 C   0  0  0  0  0  0  0  0  0  0  0  0
   -3.2274   -1.5537   -2.1325 C   0  0  0  0  0  0  0  0  0  0  0  0
   -1.8215   -1.4878   -2.0969 C   0  0  0  0  0  0  0  0  0  0  0  0
  1  2  1  0
  3  2  1  1
  3  4  1  0
  3  9  1  0
  4  5  1  0
  5  6  1  0
  5  7  1  0
  7  8  1  0
  8  9  1  0
  9 10  1  1
  9 15  1  0
 10 11  1  0
 11 12  2  0
 11 13  1  0
 13 14  1  0
 15 16  2  0
 15 20  1  0
 16 17  1  0
 17 18  2  0
 18 19  1  0
 19 20  2  0
M  END
>  <DRUGBANK_ID>  (1) 
DB01552

>  <COMMON_NAME>  (1) 
Betameprodine

>  <CAS_NUMBER>  (1) 
468-50-8

>  <UNII>  (1) 
4XS533X38C

>  <SYNONYMS>  (1) 
beta-1-Methyl-3-ethyl-4-phenyl-4-propionoxy-piperidin; beta-3-Ethyl-1-methyl-4-phenyl-4-propionoxypiperidine; beta-meprodine; Betameprodina; Betameprodine; Betameprodinum

$$$$
