
     RDKit          3D

 26 30  0  0  1  0  0  0  0  0999 V2000
    2.1942    0.0240    0.0335 C   0  0  1  0  0  0  0  0  0  0  0  0
    2.6859   -0.3414   -1.3717 C   0  0  0  0  0  0  0  0  0  0  0  0
    2.8860   -1.8149   -1.2356 C   0  0  0  0  0  0  0  0  0  0  0  0
    2.9220   -2.1902    0.0497 C   0  0  0  0  0  0  0  0  0  0  0  0
    2.7843   -1.0216    0.9919 C   0  0  1  0  0  0  0  0  0  0  0  0
    4.0932   -0.6134    1.6130 C   0  0  0  0  0  0  0  0  0  0  0  0
    4.8224   -1.5358    2.3857 C   0  0  0  0  0  0  0  0  0  0  0  0
    6.0704   -1.1959    2.9192 C   0  0  0  0  0  0  0  0  0  0  0  0
    6.5726    0.0847    2.6833 C   0  0  0  0  0  0  0  0  0  0  0  0
    5.8386    1.0079    1.9383 C   0  0  0  0  0  0  0  0  0  0  0  0
    4.5995    0.6725    1.3956 C   0  0  0  0  0  0  0  0  0  0  0  0
    3.8849    1.6322    0.7046 N   0  0  0  0  0  0  0  0  0  0  0  0
    2.4540    1.4717    0.4600 C   0  0  1  0  0  0  0  0  0  0  0  0
    1.8672    2.5129   -0.5077 C   0  0  0  0  0  0  0  0  0  0  0  0
    2.6803    3.5135   -1.0993 C   0  0  0  0  0  0  0  0  0  0  0  0
    2.1033    4.4620   -1.9202 C   0  0  0  0  0  0  0  0  0  0  0  0
    2.7491    5.4995   -2.5176 O   0  0  0  0  0  0  0  0  0  0  0  0
    1.6764    6.0640   -3.3022 C   0  0  0  0  0  0  0  0  0  0  0  0
    0.3940    5.4698   -3.0226 O   0  0  0  0  0  0  0  0  0  0  0  0
    0.7666    4.4499   -2.2088 C   0  0  0  0  0  0  0  0  0  0  0  0
   -0.0707    3.5010   -1.6864 C   0  0  0  0  0  0  0  0  0  0  0  0
    0.4704    2.5484   -0.8135 C   0  0  0  0  0  0  0  0  0  0  0  0
   -0.8548    1.4128   -0.0418 Br  0  0  0  0  0  0  0  0  0  0  0  0
    6.8102   -2.2219    3.7116 C   0  0  0  0  0  0  0  0  0  0  0  0
    8.1559   -1.9035    4.3110 C   0  0  0  0  0  0  0  0  0  0  0  0
    6.3107   -3.3389    3.8763 O   0  0  0  0  0  0  0  0  0  0  0  0
  1  2  1  6
  1  5  1  0
  1 13  1  0
  2  3  1  0
  3  4  2  0
  5  4  1  6
  5  6  1  0
  6  7  2  0
  6 11  1  0
  7  8  1  0
  8  9  2  0
  8 24  1  0
  9 10  1  0
 10 11  2  0
 11 12  1  0
 13 12  1  0
 13 14  1  6
 14 15  2  0
 14 22  1  0
 15 16  1  0
 16 17  1  0
 16 20  2  0
 17 18  1  0
 18 19  1  0
 19 20  1  0
 20 21  1  0
 21 22  2  0
 22 23  1  0
 24 25  1  0
 24 26  2  0
M  END
>  <DRUGBANK_ID>  (1) 
DB18091

>  <COMMON_NAME>  (1) 
LNS-8801

>  <CAS_NUMBER>  (1) 
881639-98-1

>  <UNII>  (1) 
Y3V5BV7OKM

>  <SYNONYMS>  (1) 
Ethanone, 1-((3ar,4s,9bs)-4-(6-bromo-1,3-benzodioxol-5-yl)-3a,4,5,9b-tetrahydro-3h-cyclopenta(c)quinolin-8-yl)-, rel-; G 1 (anti-tumor agent); G 1 (g protein-coupled estrogen receptor agonist); G 1 (gper agonist)

$$$$
