INT
     RDKit          3D

 33 34  0  0  0  0  0  0  0  0999 V2000
    4.1745   -0.7833    1.5946 C   0  0  2  0  0  0  0  0  0  0  0  0
    4.1614    0.7316    1.3820 C   0  0  0  0  0  0  0  0  0  0  0  0
    5.2932    1.3468    1.9745 O   0  0  0  0  0  0  0  0  0  0  0  0
    5.4306   -1.4117    0.9345 C   0  0  0  0  0  0  0  0  0  0  0  0
    5.4941   -2.9135    1.0874 C   0  0  0  0  0  0  0  0  0  0  0  0
    6.4577   -3.5264    1.8920 C   0  0  0  0  0  0  0  0  0  0  0  0
    6.4418   -4.9124    2.0646 C   0  0  0  0  0  0  0  0  0  0  0  0
    5.4371   -5.6840    1.4811 C   0  0  0  0  0  0  0  0  0  0  0  0
    4.4579   -5.0777    0.7085 C   0  0  0  0  0  0  0  0  0  0  0  0
    4.5420   -3.7172    0.4479 C   0  0  0  0  0  0  0  0  0  0  0  0
    2.9287   -1.3293    1.0579 N   0  0  0  0  0  0  0  0  0  0  0  0
    0.9252   -2.8818    1.1147 C   0  0  2  0  0  0  0  0  0  0  0  0
    2.0931   -2.1084    1.8224 C   0  0  0  0  0  0  0  0  0  0  0  0
    2.2540   -2.1637    3.0432 O   0  0  0  0  0  0  0  0  0  0  0  0
    0.8413   -2.7948   -0.4292 C   0  0  0  0  0  0  0  0  0  0  0  0
    1.0168   -4.1194   -1.1946 C   0  0  0  0  0  0  0  0  0  0  0  0
   -0.4579   -2.1339   -0.8508 C   0  0  0  0  0  0  0  0  0  0  0  0
   -0.3347   -2.4708    1.7868 N   0  0  0  0  0  0  0  0  0  0  0  0
   -1.2494   -3.1754    2.5144 C   0  0  0  0  0  0  0  0  0  0  0  0
   -2.3265   -2.6284    2.7709 O   0  0  0  0  0  0  0  0  0  0  0  0
   -0.9810   -4.6350    2.9082 C   0  0  2  0  0  0  0  0  0  0  0  0
    0.4603   -4.8690    3.3344 C   0  0  0  0  0  0  0  0  0  0  0  0
   -1.3826   -5.5411    1.8402 N   0  0  0  0  0  0  0  0  0  0  0  0
   -2.2345   -6.5925    1.9626 C   0  0  0  0  0  0  0  0  0  0  0  0
   -2.4581   -7.3354    1.0059 O   0  0  0  0  0  0  0  0  0  0  0  0
   -2.7715   -6.7088    3.1963 O   0  0  0  0  0  0  0  0  0  0  0  0
   -3.7356   -7.7565    3.3785 C   0  0  0  0  0  0  0  0  0  0  0  0
   -4.9809   -7.5975    2.5399 C   0  0  0  0  0  0  0  0  0  0  0  0
   -5.7021   -8.7313    2.1417 C   0  0  0  0  0  0  0  0  0  0  0  0
   -6.8671   -8.5948    1.3874 C   0  0  0  0  0  0  0  0  0  0  0  0
   -7.3345   -7.3256    1.0496 C   0  0  0  0  0  0  0  0  0  0  0  0
   -6.6451   -6.1918    1.4723 C   0  0  0  0  0  0  0  0  0  0  0  0
   -5.4575   -6.3270    2.1863 C   0  0  0  0  0  0  0  0  0  0  0  0
  1  2  1  6
  1  4  1  0
  1 11  1  0
  2  3  1  0
  4  5  1  0
  5  6  2  0
  5 10  1  0
  6  7  1  0
  7  8  2  0
  8  9  1  0
  9 10  2  0
 11 13  1  0
 12 18  1  1
 12 15  1  0
 12 13  1  0
 13 14  2  0
 15 16  1  0
 15 17  1  0
 18 19  1  0
 19 20  2  0
 21 23  1  0
 21 22  1  6
 21 19  1  0
 23 24  1  0
 24 25  2  0
 24 26  1  0
 26 27  1  0
 27 28  1  0
 28 29  2  0
 28 33  1  0
 29 30  1  0
 30 31  2  0
 31 32  1  0
 32 33  2  0
M  END
>  <DRUGBANK_ID>  (1) 
DB01891

>  <SECONDARY_ACCESSION_NUMBERS>  (1) 
EXPT01893

>  <COMMON_NAME>  (1) 
Tl-3-093

$$$$
