
     RDKit          3D

 13 13  0  0  1  0  0  0  0  0999 V2000
    2.5368    0.5226   -0.6205 C   0  0  0  0  0  0  0  0  0  0  0  0
    1.8600    0.7950   -1.9622 C   0  0  1  0  0  0  0  0  0  0  0  0
    0.4893    1.4696   -1.7982 C   0  0  0  0  0  0  0  0  0  0  0  0
    0.4550    2.7431   -0.9258 C   0  0  1  0  0  0  0  0  0  0  0  0
    1.3543    3.8660   -1.4775 C   0  0  1  0  0  0  0  0  0  0  0  0
    1.1750    5.1742   -0.7100 C   0  0  2  0  0  0  0  0  0  0  0  0
   -0.3020    5.5270   -0.5434 C   0  0  1  0  0  0  0  0  0  0  0  0
   -1.0583    4.3212    0.0087 C   0  0  0  0  0  0  0  0  0  0  0  0
   -0.9091    3.1865   -0.8461 O   0  0  0  0  0  0  0  0  0  0  0  0
   -0.4624    6.6439    0.3317 O   0  0  0  0  0  0  0  0  0  0  0  0
    1.8819    6.2302   -1.3734 O   0  0  0  0  0  0  0  0  0  0  0  0
    2.7462    3.5215   -1.4095 O   0  0  0  0  0  0  0  0  0  0  0  0
    2.7078    1.5071   -2.8531 O   0  0  0  0  0  0  0  0  0  0  0  0
  2  1  1  1
  2  3  1  0
  2 13  1  0
  4  5  1  0
  4  9  1  0
  4  3  1  6
  5  6  1  0
  5 12  1  1
  6  7  1  0
  6 11  1  6
  7  8  1  0
  7 10  1  1
  8  9  1  0
M  END
>  <DRUGBANK_ID>  (1) 
DB13121

>  <COMMON_NAME>  (1) 
Hydroxypropyl tetrahydropyrantriol

>  <CAS_NUMBER>  (1) 
439685-79-7

>  <UNII>  (1) 
4U3GMG1OT1

$$$$
