
     RDKit          3D

 23 25  0  0  0  0  0  0  0  0999 V2000
    0.9933    0.7136   -0.1916 C   0  0  0  0  0  0  0  0  0  0  0  0
    0.9906   -4.3795    3.0794 C   0  0  0  0  0  0  0  0  0  0  0  0
   -1.8106   -3.9017   -1.0690 C   0  0  0  0  0  0  0  0  0  0  0  0
    0.2143   -2.5667   -1.3844 C   0  0  0  0  0  0  0  0  0  0  0  0
   -1.6293   -4.2010    0.4274 C   0  0  0  0  0  0  0  0  0  0  0  0
    0.5162   -2.9613    0.0689 C   0  0  0  0  0  0  0  0  0  0  0  0
    1.0660   -0.9588    4.1229 C   0  0  0  0  0  0  0  0  0  0  0  0
    0.8861    0.2564    4.7621 C   0  0  0  0  0  0  0  0  0  0  0  0
   -1.8541   -1.0881   -1.1368 C   0  0  0  0  0  0  0  0  0  0  0  0
   -2.8566   -1.7841    3.6707 C   0  0  0  0  0  0  0  0  0  0  0  0
   -1.2911   -2.5153   -1.5846 C   0  0  0  0  0  0  0  0  0  0  0  0
   -0.1914   -4.0010    0.9011 C   0  0  0  0  0  0  0  0  0  0  0  0
   -0.2146   -1.5180    3.8016 C   0  0  0  0  0  0  0  0  0  0  0  0
   -1.1283   -0.5470    4.2313 C   0  0  0  0  0  0  0  0  0  0  0  0
   -0.7423   -2.7043    3.1567 C   0  0  0  0  0  0  0  0  0  0  0  0
    0.2696   -0.2450    0.5983 N   0  0  0  0  0  0  0  0  0  0  0  0
   -0.4553    0.5245    4.7551 N   0  0  0  0  0  0  0  0  0  0  0  0
   -2.4629   -0.5890    4.1483 N   0  0  0  0  0  0  0  0  0  0  0  0
   -2.1002   -2.8580    3.2935 N   0  0  0  0  0  0  0  0  0  0  0  0
   -0.0113   -3.6281    2.3731 N   0  0  0  0  0  0  0  0  0  0  0  0
   -1.9788   -1.4305    1.2814 O   0  0  0  0  0  0  0  0  0  0  0  0
   -1.9414    0.9436    0.6643 O   0  0  0  0  0  0  0  0  0  0  0  0
   -1.4293   -0.3735    0.4632 S   0  0  0  0  0  0  0  0  0  0  0  0
  5  3  1  0
  6  4  1  0
  8  7  2  0
 11  3  1  0
 11  4  1  0
 11  9  1  0
 12  5  1  0
 12  6  1  0
 13  7  1  0
 14 13  2  0
 15 13  1  0
 16  1  1  0
 17  8  1  0
 17 14  1  0
 18 10  2  0
 18 14  1  0
 19 10  1  0
 19 15  2  0
 20  2  1  0
 20 12  1  0
 20 15  1  0
 23  9  1  0
 23 16  1  0
 23 21  2  0
 23 22  2  0
M  END
>  <DRUGBANK_ID>  (1) 
DB11441

>  <COMMON_NAME>  (1) 
Oclacitinib

>  <UNII>  (1) 
99GS5XTB51

>  <SYNONYMS>  (1) 
Oclacitinib

$$$$
