4BG
     RDKit          3D

 19 20  0  0  0  0  0  0  0  0999 V2000
    1.3768   -0.2381    0.1798 C   0  0  0  0  0  0  0  0  0  0  0  0
    0.4958   -1.3183    0.1263 C   0  0  0  0  0  0  0  0  0  0  0  0
   -0.8812   -1.0948    0.0675 C   0  0  0  0  0  0  0  0  0  0  0  0
   -1.3851    0.2070    0.1016 C   0  0  0  0  0  0  0  0  0  0  0  0
   -0.5120    1.2924    0.1789 C   0  0  0  0  0  0  0  0  0  0  0  0
    0.8768    1.0747    0.1457 C   0  0  0  0  0  0  0  0  0  0  0  0
    1.8015    2.2045   -0.2372 C   0  0  0  0  0  0  0  0  0  0  0  0
    1.4000    2.8544   -1.4510 O   0  0  0  0  0  0  0  0  0  0  0  0
    1.4652    2.1267   -2.6026 C   0  0  0  0  0  0  0  0  0  0  0  0
    0.8992    0.8701   -2.8399 C   0  0  0  0  0  0  0  0  0  0  0  0
    0.8925    0.2500   -4.0973 C   0  0  0  0  0  0  0  0  0  0  0  0
    2.0095    2.7847   -3.6670 C   0  0  0  0  0  0  0  0  0  0  0  0
    1.9737    2.1805   -4.9115 C   0  0  0  0  0  0  0  0  0  0  0  0
    1.4357    0.9207   -5.1762 C   0  0  0  0  0  0  0  0  0  0  0  0
    1.4269    0.3038   -6.4468 N   0  0  0  0  0  0  0  0  0  0  0  0
    1.8630    0.7676   -7.6643 C   0  0  0  0  0  0  0  0  0  0  0  0
    1.8502   -0.0050   -8.6390 O   0  0  0  0  0  0  0  0  0  0  0  0
    2.3678    2.2011   -7.8365 C   0  0  0  0  0  0  0  0  0  0  0  0
    1.2942    3.1573   -7.5252 N   0  0  0  0  0  0  0  0  0  0  0  0
  1  2  2  0
  1  6  1  0
  2  3  1  0
  3  4  2  0
  4  5  1  0
  5  6  2  0
  6  7  1  0
  7  8  1  0
  8  9  1  0
  9 10  2  0
  9 12  1  0
 10 11  1  0
 11 14  2  0
 12 13  2  0
 13 14  1  0
 14 15  1  0
 15 16  1  0
 16 17  2  0
 16 18  1  0
 18 19  1  0
M  END
>  <DRUGBANK_ID>  (1) 
DB07099

>  <COMMON_NAME>  (1) 
N-[4-(benzyloxy)phenyl]glycinamide

$$$$
