
     RDKit          3D

  8  8  0  0  0  0  0  0  0  0999 V2000
    0.9066    0.0684    0.0483 O   0  0  0  0  0  0  0  0  0  0  0  0
    0.3270   -0.6850   -0.9143 C   0  0  0  0  0  0  0  0  0  0  0  0
    1.0188   -1.3469   -1.6803 O   0  0  0  0  0  0  0  0  0  0  0  0
   -1.1303   -0.6807   -0.8938 C   0  0  0  0  0  0  0  0  0  0  0  0
   -1.8930   -1.8116   -1.1331 C   0  0  0  0  0  0  0  0  0  0  0  0
   -3.5636   -1.4410   -1.0400 S   0  0  0  0  0  0  0  0  0  0  0  0
   -3.1615    0.1935   -0.7173 C   0  0  0  0  0  0  0  0  0  0  0  0
   -1.8787    0.4721   -0.6411 N   0  0  0  0  0  0  0  0  0  0  0  0
  1  2  1  0
  2  3  2  0
  2  4  1  0
  4  5  2  0
  4  8  1  0
  5  6  1  0
  6  7  1  0
  7  8  2  0
M  END
>  <DRUGBANK_ID>  (1) 
DB03422

>  <SECONDARY_ACCESSION_NUMBERS>  (1) 
EXPT03153

>  <COMMON_NAME>  (1) 
1,3-Thiazole-4-Carboxylic Acid

>  <UNII>  (1) 
UE1ZOP7MLZ

$$$$
