
     RDKit          3D

 13 12  0  0  0  0  0  0  0  0999 V2000
    0.9028    0.0756   -0.0469 N   0  0  0  0  0  0  0  0  0  0  0  0
    0.1460    1.0535    0.5267 C   0  0  0  0  0  0  0  0  0  0  0  0
   -1.0748    0.9326    0.6085 O   0  0  0  0  0  0  0  0  0  0  0  0
    0.8923    2.2385    1.1456 C   0  0  0  0  0  0  0  0  0  0  0  0
    1.6496    1.8270    2.3458 N   0  0  0  0  0  0  0  0  0  0  0  0
    2.4775    2.9333    2.8951 C   0  0  0  0  0  0  0  0  0  0  0  0
    1.7252    4.1976    3.3301 C   0  0  0  0  0  0  0  0  0  0  0  0
    1.9921    4.5833    4.6001 O   0  0  0  0  0  0  0  0  0  0  0  0
    0.9931    4.8477    2.5972 O   0  0  0  0  0  0  0  0  0  0  0  0
    0.8266    1.1289    3.3584 C   0  0  0  0  0  0  0  0  0  0  0  0
   -0.2385    1.9631    4.0543 C   0  0  0  0  0  0  0  0  0  0  0  0
   -1.5084    1.7260    3.6742 O   0  0  0  0  0  0  0  0  0  0  0  0
    0.0395    2.7643    4.9427 O   0  0  0  0  0  0  0  0  0  0  0  0
  1  2  1  0
  2  3  2  0
  2  4  1  0
  4  5  1  0
  5  6  1  0
  5 10  1  0
  6  7  1  0
  7  8  1  0
  7  9  2  0
 10 11  1  0
 11 12  1  0
 11 13  2  0
M  END
>  <DRUGBANK_ID>  (1) 
DB02810

>  <SECONDARY_ACCESSION_NUMBERS>  (1) 
EXPT02170

>  <COMMON_NAME>  (1) 
N-(2-Acetamido)Iminodiacetic Acid

>  <CAS_NUMBER>  (1) 
26239-55-4

>  <UNII>  (1) 
5C4R3O704E

$$$$
