
     RDKit          3D

 31 33  0  0  1  0  0  0  0  0999 V2000
    1.5903    0.0479   -0.9881 C   0  0  0  0  0  0  0  0  0  0  0  0
   -0.4673   -3.5825   -3.2906 C   0  0  0  0  0  0  0  0  0  0  0  0
    1.2091    0.7484    1.5360 C   0  0  0  0  0  0  0  0  0  0  0  0
    0.0500    1.2463    0.7990 C   0  0  0  0  0  0  0  0  0  0  0  0
   -1.1076   -2.6706    3.2957 C   0  0  0  0  0  0  0  0  0  0  0  0
    2.6332   -0.0247    3.3090 C   0  0  0  0  0  0  0  0  0  0  0  0
   -0.9572    0.4178   -1.9029 C   0  0  0  0  0  0  0  0  0  0  0  0
    1.4946    0.9019    2.8417 C   0  0  0  0  0  0  0  0  0  0  0  0
   -0.8640    2.1847    1.4502 C   0  0  2  0  0  0  0  0  0  0  0  0
   -0.8416   -1.1623    3.4924 C   0  0  1  0  0  0  0  0  0  0  0  0
   -1.8329   -3.0288    1.9966 C   0  0  2  0  0  0  0  0  0  0  0  0
   -2.7198   -0.6818    1.9393 C   0  0  1  0  0  0  0  0  0  0  0  0
   -0.7054   -2.1910   -0.8185 C   0  0  2  0  0  0  0  0  0  0  0  0
   -2.0621   -0.2703    3.2884 C   0  0  2  0  0  0  0  0  0  0  0  0
   -2.9403   -2.1039    1.5204 C   0  0  1  0  0  0  0  0  0  0  0  0
    0.2606   -1.7679   -1.9499 C   0  0  2  0  0  0  0  0  0  0  0  0
   -0.6808    1.9658    2.9788 C   0  0  2  0  0  0  0  0  0  0  0  0
   -2.1090   -1.5465   -0.9094 C   0  0  2  0  0  0  0  0  0  0  0  0
    0.4955   -0.2324   -1.9715 C   0  0  2  0  0  0  0  0  0  0  0  0
    2.5070   -1.4679    2.9133 N   0  0  0  0  0  0  0  0  0  0  0  0
   -2.2407    1.9576    1.0029 N   0  0  0  0  0  0  0  0  0  0  0  0
   -0.2235   -0.9344    4.8059 N   0  0  0  0  0  0  0  0  0  0  0  0
   -2.0060   -4.4125    1.5276 N   0  0  0  0  0  0  0  0  0  0  0  0
   -0.2216   -2.1547   -3.2637 N   0  0  0  0  0  0  0  0  0  0  0  0
   -3.9005    0.0503    1.6110 O   0  0  0  0  0  0  0  0  0  0  0  0
   -0.0104   -1.8403    0.3715 O   0  0  0  0  0  0  0  0  0  0  0  0
    1.2096    0.3099   -3.0771 O   0  0  0  0  0  0  0  0  0  0  0  0
   -1.9787   -0.1132   -0.9933 O   0  0  0  0  0  0  0  0  0  0  0  0
    0.6193    1.6211    3.5980 O   0  0  0  0  0  0  0  0  0  0  0  0
   -1.7959    1.1683    3.5222 O   0  0  0  0  0  0  0  0  0  0  0  0
   -3.1018   -2.1267    0.0431 O   0  0  0  0  0  0  0  0  0  0  0  0
  4  3  1  0
  8  3  2  0
  8  6  1  0
  9  4  1  0
  9 21  1  6
 10  5  1  0
 10 22  1  1
 11  5  1  0
 11 23  1  1
 12 25  1  1
 13 26  1  1
 14 10  1  0
 14 12  1  0
 14 30  1  6
 15 11  1  0
 15 12  1  0
 15 31  1  6
 16 13  1  0
 16 24  1  6
 17  9  1  0
 17 30  1  6
 18 13  1  0
 18 31  1  1
 19  1  1  1
 19  7  1  0
 19 16  1  0
 19 27  1  0
 20  6  1  0
 24  2  1  0
 28  7  1  0
 28 18  1  0
 29  8  1  0
 29 17  1  0
M  END
>  <DRUGBANK_ID>  (1) 
DB12604

>  <COMMON_NAME>  (1) 
Sisomicin

>  <CAS_NUMBER>  (1) 
32385-11-8

>  <UNII>  (1) 
X55XSL74YQ

>  <SYNONYMS>  (1) 
Sisomicin

$$$$
