690
     RDKit          3D

 27 29  0  0  0  0  0  0  0  0999 V2000
    1.0630    0.0156    0.0559 Cl  0  0  0  0  0  0  0  0  0  0  0  0
    5.0921    1.8783    2.9793 F   0  0  0  0  0  0  0  0  0  0  0  0
    8.8942    1.4471    0.6327 O   0  0  0  0  0  0  0  0  0  0  0  0
    7.0034    0.1021    0.3397 N   0  0  0  0  0  0  0  0  0  0  0  0
    9.4810   -1.3249   -1.0475 N   0  0  0  0  0  0  0  0  0  0  0  0
    6.4375    3.1781   -0.3188 N   0  0  0  0  0  0  0  0  0  0  0  0
    7.6914   -1.0924    0.8547 C   0  0  0  0  0  0  0  0  0  0  0  0
    8.4533   -1.9668   -0.2010 C   0  0  0  0  0  0  0  0  0  0  0  0
    5.5921    0.1005    0.1305 C   0  0  0  0  0  0  0  0  0  0  0  0
   10.3718   -2.2422   -1.7483 C   0  0  0  0  0  0  0  0  0  0  0  0
    8.9993   -0.3263   -1.9981 C   0  0  0  0  0  0  0  0  0  0  0  0
    4.8481    1.2988    0.1791 C   0  0  0  0  0  0  0  0  0  0  0  0
    7.7665    1.2665    0.1420 C   0  0  0  0  0  0  0  0  0  0  0  0
    5.4373    2.6747    0.3253 C   0  0  0  0  0  0  0  0  0  0  0  0
    7.2249    2.1884   -0.9902 C   0  0  0  0  0  0  0  0  0  0  0  0
    4.8923   -1.1132   -0.0344 C   0  0  0  0  0  0  0  0  0  0  0  0
    3.4459    1.2524    0.1445 C   0  0  0  0  0  0  0  0  0  0  0  0
    9.6595   -2.9716   -2.8740 C   0  0  0  0  0  0  0  0  0  0  0  0
    7.8324   -0.5767   -2.9444 C   0  0  0  0  0  0  0  0  0  0  0  0
    4.8562    3.5676    1.3199 C   0  0  0  0  0  0  0  0  0  0  0  0
    3.4950   -1.1447   -0.0725 C   0  0  0  0  0  0  0  0  0  0  0  0
    2.7803    0.0387    0.0401 C   0  0  0  0  0  0  0  0  0  0  0  0
    4.7066    3.1136    2.6245 C   0  0  0  0  0  0  0  0  0  0  0  0
    4.5474    4.8749    0.9522 C   0  0  0  0  0  0  0  0  0  0  0  0
    4.1588    3.9527    3.5731 C   0  0  0  0  0  0  0  0  0  0  0  0
    4.0999    5.7469    1.9318 C   0  0  0  0  0  0  0  0  0  0  0  0
    3.8939    5.2821    3.2354 C   0  0  0  0  0  0  0  0  0  0  0  0
  1 22  1  0
  2 23  1  0
  3 13  2  0
  4  7  1  0
  4  9  1  0
  4 13  1  0
  5  8  1  0
  5 10  1  0
  5 11  1  0
  6 14  2  0
  6 15  1  0
  7  8  1  0
  9 12  2  0
  9 16  1  0
 10 18  1  0
 11 19  1  0
 12 14  1  0
 12 17  1  0
 13 15  1  0
 14 20  1  0
 16 21  2  0
 17 22  2  0
 20 23  2  0
 20 24  1  0
 21 22  1  0
 23 25  1  0
 24 26  2  0
 25 27  2  0
 26 27  1  0
M  END
>  <DRUGBANK_ID>  (1) 
DB00690

>  <SECONDARY_ACCESSION_NUMBERS>  (1) 
APRD00983

>  <COMMON_NAME>  (1) 
Flurazepam

>  <CAS_NUMBER>  (1) 
17617-23-1

>  <UNII>  (1) 
IHP475989U

>  <SYNONYMS>  (1) 
Flurazepam; Fluraz√©pam; Flurazepamum

$$$$
