
     RDKit          3D

 27 30  0  0  0  0  0  0  0  0999 V2000
   -1.2112    1.2541    0.0480 C   0  0  0  0  0  0  0  0  0  0  0  0
    0.1810    1.2083    0.0107 C   0  0  0  0  0  0  0  0  0  0  0  0
    0.8235   -0.0189   -0.0055 C   0  0  0  0  0  0  0  0  0  0  0  0
    0.0952   -1.2030   -0.0053 C   0  0  0  0  0  0  0  0  0  0  0  0
   -1.3057   -1.1565   -0.0045 C   0  0  0  0  0  0  0  0  0  0  0  0
   -1.9721    0.0779    0.0179 C   0  0  0  0  0  0  0  0  0  0  0  0
   -3.3561    0.0346    0.0352 O   0  0  0  0  0  0  0  0  0  0  0  0
   -4.0590    1.2257   -0.0155 C   0  0  0  0  0  0  0  0  0  0  0  0
   -3.9081    2.1026   -1.0831 C   0  0  0  0  0  0  0  0  0  0  0  0
   -4.5537    3.3371   -1.0290 C   0  0  0  0  0  0  0  0  0  0  0  0
   -5.4301    3.6196    0.0263 C   0  0  0  0  0  0  0  0  0  0  0  0
   -5.5607    2.6548    1.0134 C   0  0  0  0  0  0  0  0  0  0  0  0
   -4.8938    1.4684    1.0193 N   0  0  0  0  0  0  0  0  0  0  0  0
   -6.1724    4.9012    0.1824 C   0  0  0  0  0  0  0  0  0  0  0  0
   -6.7509    5.1765    1.2412 O   0  0  0  0  0  0  0  0  0  0  0  0
   -6.1316    5.8004   -0.8596 N   0  0  0  0  0  0  0  0  0  0  0  0
   -6.6304    5.3524   -2.1751 C   0  0  0  0  0  0  0  0  0  0  0  0
   -7.8159    6.0705   -2.7971 C   0  0  0  0  0  0  0  0  0  0  0  0
   -7.9961    7.5730   -2.6197 C   0  0  0  0  0  0  0  0  0  0  0  0
   -6.8248    8.3988   -2.3393 N   0  0  0  0  0  0  0  0  0  0  0  0
   -6.4771    8.3381   -0.9250 C   0  0  0  0  0  0  0  0  0  0  0  0
   -5.6027    7.1557   -0.5363 C   0  0  0  0  0  0  0  0  0  0  0  0
   -5.7767    8.4357   -3.3807 C   0  0  0  0  0  0  0  0  0  0  0  0
   -4.9320    7.1617   -3.5471 C   0  0  0  0  0  0  0  0  0  0  0  0
   -3.6740    7.9758   -3.6468 C   0  0  0  0  0  0  0  0  0  0  0  0
   -4.4509    9.1338   -2.9619 C   0  0  0  0  0  0  0  0  0  0  0  0
    2.1619   -0.0569   -0.0106 F   0  0  0  0  0  0  0  0  0  0  0  0
  1  2  2  0
  1  6  1  0
  2  3  1  0
  3  4  2  0
  3 27  1  0
  4  5  1  0
  5  6  2  0
  6  7  1  0
  7  8  1  0
  8  9  2  0
  8 13  1  0
  9 10  1  0
 10 11  2  0
 11 12  1  0
 11 14  1  0
 12 13  2  0
 14 15  2  0
 14 16  1  0
 16 17  1  0
 16 22  1  0
 17 18  1  0
 18 19  1  0
 19 20  1  0
 20 21  1  0
 20 23  1  0
 21 22  1  0
 23 24  1  0
 23 26  1  0
 24 25  1  0
 25 26  1  0
M  END
>  <DRUGBANK_ID>  (1) 
DB12929

>  <COMMON_NAME>  (1) 
JNJ-39220675

>  <CAS_NUMBER>  (1) 
959740-39-7

>  <UNII>  (1) 
41WC0AZ27V

$$$$
