
     RDKit          3D

 27 30  0  0  0  0  0  0  0  0999 V2000
    2.1373    0.7468   -0.0210 C   0  0  0  0  0  0  0  0  0  0  0  0
   -5.5590    2.1107    5.2925 C   0  0  0  0  0  0  0  0  0  0  0  0
    0.9139    1.4260   -0.0151 C   0  0  0  0  0  0  0  0  0  0  0  0
   -5.5886    0.9560    4.4955 C   0  0  0  0  0  0  0  0  0  0  0  0
    0.9976   -1.4187   -0.0025 C   0  0  0  0  0  0  0  0  0  0  0  0
   -4.4061    3.3684    3.5603 C   0  0  0  0  0  0  0  0  0  0  0  0
    2.1929   -0.6621   -0.0090 C   0  0  0  0  0  0  0  0  0  0  0  0
   -4.9730    3.3087    4.8457 C   0  0  0  0  0  0  0  0  0  0  0  0
   -0.2684    0.6838   -0.0282 C   0  0  0  0  0  0  0  0  0  0  0  0
   -5.0352    1.0158    3.2155 C   0  0  0  0  0  0  0  0  0  0  0  0
   -0.2051   -0.7031   -0.0205 C   0  0  0  0  0  0  0  0  0  0  0  0
   -4.4712    2.2071    2.7831 C   0  0  0  0  0  0  0  0  0  0  0  0
    3.5386   -1.3349    0.0211 C   0  0  0  0  0  0  0  0  0  0  0  0
   -4.9496    4.5074    5.7525 C   0  0  0  0  0  0  0  0  0  0  0  0
   -2.3023    0.0326   -0.0603 C   0  0  0  0  0  0  0  0  0  0  0  0
   -4.3071    0.6082    1.2410 C   0  0  0  0  0  0  0  0  0  0  0  0
   -3.7985   -0.0328   -0.0082 C   0  0  0  0  0  0  0  0  0  0  0  0
    3.6526   -2.6223   -0.0005 N   0  0  0  0  0  0  0  0  0  0  0  0
    4.7189   -0.5278    0.1178 N   0  0  0  0  0  0  0  0  0  0  0  0
   -4.4321    5.6504    5.4237 N   0  0  0  0  0  0  0  0  0  0  0  0
   -5.4659    4.4553    7.0066 N   0  0  0  0  0  0  0  0  0  0  0  0
   -1.5556    1.1248   -0.0587 N   0  0  0  0  0  0  0  0  0  0  0  0
   -4.9299    0.0385    2.2566 N   0  0  0  0  0  0  0  0  0  0  0  0
   -1.5208   -1.0978   -0.0363 N   0  0  0  0  0  0  0  0  0  0  0  0
   -4.0434    1.9335    1.5150 N   0  0  0  0  0  0  0  0  0  0  0  0
   -4.3158    0.6355   -1.1363 O   0  0  0  0  0  0  0  0  0  0  0  0
   -4.1750   -1.3952   -0.0646 O   0  0  0  0  0  0  0  0  0  0  0  0
  3  1  2  0
  4  2  2  0
  7  1  1  0
  7  5  2  0
  8  2  1  0
  8  6  2  0
  9  3  1  0
 10  4  1  0
 11  5  1  0
 11  9  2  0
 12  6  1  0
 12 10  2  0
 13  7  1  0
 14  8  1  0
 17 15  1  0
 17 16  1  0
 18 13  2  0
 19 13  1  0
 20 14  2  0
 21 14  1  0
 22  9  1  0
 22 15  2  0
 23 10  1  0
 23 16  2  0
 24 11  1  0
 24 15  1  0
 25 12  1  0
 25 16  1  0
 26 17  1  0
 27 17  1  0
M  CHG  2  18   1  19   1
M  END
>  <DRUGBANK_ID>  (1) 
DB04301

>  <SECONDARY_ACCESSION_NUMBERS>  (1) 
EXPT00621

>  <COMMON_NAME>  (1) 
Bis(5-Amidino-2-Benzimidazolyl)Methane Ketone Hydrate

$$$$
