
     RDKit          3D

 24 25  0  0  1  0  0  0  0  0999 V2000
   -0.4522   -1.1961   -0.0340 N   0  0  0  0  0  0  0  0  0  0  0  0
   -1.1336   -2.5478   -0.2230 C   0  0  1  0  0  0  0  0  0  0  0  0
   -0.9338    0.0578   -0.4330 C   0  0  0  0  0  0  0  0  0  0  0  0
   -0.4717    1.1011    0.2975 N   0  0  0  0  0  0  0  0  0  0  0  0
   -2.0131   -3.1444    0.9020 C   0  0  0  0  0  0  0  0  0  0  0  0
   -1.8855   -2.5404   -1.4490 O   0  0  0  0  0  0  0  0  0  0  0  0
   -3.4431   -0.4546    0.1763 P   0  0  1  0  0  0  0  0  0  0  0  0
   -5.0198    1.8798    0.3895 P   0  0  0  0  0  0  0  0  0  0  0  0
   -4.9781    0.1730    0.6690 O   0  0  0  0  0  0  0  0  0  0  0  0
    0.9296   -1.1713    0.1551 C   0  0  0  0  0  0  0  0  0  0  0  0
   -3.1793   -3.1712   -1.2820 C   0  0  1  0  0  0  0  0  0  0  0  0
   -3.1584   -3.8493    0.1255 C   0  0  1  0  0  0  0  0  0  0  0  0
    1.6057   -0.0095    0.0883 C   0  0  0  0  0  0  0  0  0  0  0  0
    0.8446    1.2623    0.0707 C   0  0  0  0  0  0  0  0  0  0  0  0
   -4.3419   -2.1461   -1.6388 C   0  0  0  0  0  0  0  0  0  0  0  0
   -1.7565    0.3180   -1.3106 O   0  0  0  0  0  0  0  0  0  0  0  0
   -4.0662   -0.7302   -1.4138 O   0  0  0  0  0  0  0  0  0  0  0  0
   -3.9907   -1.7541    0.7411 O   0  0  0  0  0  0  0  0  0  0  0  0
   -6.0073    2.0836    1.5373 O   0  0  0  0  0  0  0  0  0  0  0  0
    1.3375    2.3460   -0.1955 O   0  0  0  0  0  0  0  0  0  0  0  0
   -2.8200   -0.1790    1.7665 O   0  0  0  0  0  0  0  0  0  0  0  0
   -3.5577    2.1764    1.0628 O   0  0  0  0  0  0  0  0  0  0  0  0
   -5.0616    3.5866    0.1100 O   0  0  0  0  0  0  0  0  0  0  0  0
   -2.8270   -5.2397    0.0303 O   0  0  0  0  0  0  0  0  0  0  0  0
  2  1  1  1
  3  1  1  0
  4  3  1  0
  5  2  1  0
  6  2  1  0
  9  7  1  0
  9  8  1  0
 10  1  1  0
 11  6  1  0
 11 15  1  1
 12  5  1  0
 12 11  1  0
 12 24  1  6
 13 10  2  0
 14  4  1  0
 14 13  1  0
 16  3  2  0
 17  7  1  0
 17 15  1  0
 18  7  2  0
 19  8  2  0
 20 14  2  0
  7 21  1  6
 22  8  1  0
 23  8  1  0
M  END
>  <DRUGBANK_ID>  (1) 
DB03413

>  <SECONDARY_ACCESSION_NUMBERS>  (1) 
EXPT01297

>  <COMMON_NAME>  (1) 
Deoxyuridine-5'-Diphosphate

>  <UNII>  (1) 
B2SK7999YL

$$$$
