S1H
     RDKit          3D

 26 25  0  0  0  0  0  0  0  0999 V2000
    1.0639   -1.9457   -1.7333 N   0  0  0  0  0  0  0  0  0  0  0  0
    0.7991   -0.4815   -1.5428 C   0  0  2  0  0  0  0  0  0  0  0  0
    1.9059   -0.0024   -0.5322 C   0  0  0  0  0  0  0  0  0  0  0  0
    2.5821   -0.7606    0.1595 O   0  0  0  0  0  0  0  0  0  0  0  0
   -0.7512   -0.3786   -1.3698 C   0  0  0  0  0  0  0  0  0  0  0  0
   -1.3720    0.8196   -0.9531 O   0  0  0  0  0  0  0  0  0  0  0  0
    2.0623    1.3255   -0.4564 O   0  0  0  0  0  0  0  0  0  0  0  0
   -1.8368    0.2930    1.6886 C   0  0  0  0  0  0  0  0  0  0  0  0
   -1.2904   -1.1365    1.6597 C   0  0  0  0  0  0  0  0  0  0  0  0
    0.2199   -1.1427    1.6591 C   0  0  0  0  0  0  0  0  0  0  0  0
    0.8954   -0.5867    2.8965 C   0  0  0  0  0  0  0  0  0  0  0  0
    0.5027   -1.4957    4.0368 C   0  0  0  0  0  0  0  0  0  0  0  0
    1.0433   -2.9059    3.7583 C   0  0  0  0  0  0  0  0  0  0  0  0
    2.5749   -2.8801    3.7164 C   0  0  0  0  0  0  0  0  0  0  0  0
    3.0963   -2.3434    5.0500 C   0  0  0  0  0  0  0  0  0  0  0  0
    2.5796   -3.2346    6.1844 C   0  0  0  0  0  0  0  0  0  0  0  0
    3.0811   -4.6664    5.9727 C   0  0  0  0  0  0  0  0  0  0  0  0
    4.6119   -4.6730    5.9703 C   0  0  0  0  0  0  0  0  0  0  0  0
    5.1290   -4.1346    7.3074 C   0  0  0  0  0  0  0  0  0  0  0  0
    4.6237   -5.0148    8.4560 C   0  0  0  0  0  0  0  0  0  0  0  0
    5.1323   -6.4518    8.2971 C   0  0  0  0  0  0  0  0  0  0  0  0
    6.6607   -6.4966    8.2758 C   0  0  0  0  0  0  0  0  0  0  0  0
    7.2220   -5.9395    9.5738 C   0  0  0  0  0  0  0  0  0  0  0  0
   -1.2250    1.5190    0.5093 S   0  0  0  0  0  0  0  0  0  0  0  0
    0.1555    1.7624    0.8081 O   0  0  0  0  0  0  0  0  0  0  0  0
   -2.1433    2.6562    0.5241 O   0  0  0  0  0  0  0  0  0  0  0  0
  2  5  1  0
  2  3  1  0
  2  1  1  1
  3  4  2  0
  3  7  1  0
  5  6  1  0
  6 24  1  0
  8  9  1  0
  8 24  1  0
  9 10  1  0
 10 11  1  0
 11 12  1  0
 12 13  1  0
 13 14  1  0
 14 15  1  0
 15 16  1  0
 16 17  1  0
 17 18  1  0
 18 19  1  0
 19 20  1  0
 20 21  1  0
 21 22  1  0
 22 23  1  0
 24 25  2  0
 24 26  2  0
M  END
>  <DRUGBANK_ID>  (1) 
DB03692

>  <SECONDARY_ACCESSION_NUMBERS>  (1) 
EXPT02830

>  <COMMON_NAME>  (1) 
1-Hexadecanosulfonyl-O-L-Serine

$$$$
