
     RDKit          3D

 21 20  0  0  0  0  0  0  0  0999 V2000
    3.5928   -9.9408  -13.7276 C   0  0  0  0  0  0  0  0  0  0  0  0
    2.1265   -9.5404  -13.7099 C   0  0  0  0  0  0  0  0  0  0  0  0
    1.2334  -10.7753  -13.8377 C   0  0  0  0  0  0  0  0  0  0  0  0
    1.4642  -11.7545  -12.6814 C   0  0  0  0  0  0  0  0  0  0  0  0
    1.1792  -11.0825  -11.3335 C   0  0  0  0  0  0  0  0  0  0  0  0
   -0.2819  -10.6279  -11.2674 C   0  0  0  0  0  0  0  0  0  0  0  0
   -1.2095  -11.8364  -11.4209 C   0  0  0  0  0  0  0  0  0  0  0  0
   -0.9375  -12.8428  -10.2978 C   0  0  0  0  0  0  0  0  0  0  0  0
   -1.1978  -12.1882   -8.9365 C   0  0  0  0  0  0  0  0  0  0  0  0
   -2.6574  -11.7429   -8.8505 C   0  0  0  0  0  0  0  0  0  0  0  0
   -3.5724  -12.9605   -9.0348 C   0  0  0  0  0  0  0  0  0  0  0  0
   -3.3028  -14.0522   -7.9622 C   0  0  0  0  0  0  0  0  0  0  0  0
   -3.4464  -13.5544   -6.5270 C   0  0  0  0  0  0  0  0  0  0  0  0
   -4.8118  -13.0492   -6.4011 C   0  0  0  0  0  0  0  0  0  0  0  0
   -5.7645  -13.2027   -5.4714 C   0  0  0  0  0  0  0  0  0  0  0  0
   -7.0353   -9.5247   -5.7869 C   0  0  0  0  0  0  0  0  0  0  0  0
   -6.5241  -10.8749   -6.2962 C   0  0  1  0  0  0  0  0  0  0  0  0
   -6.8196  -12.1199   -5.3541 C   0  0  2  0  0  0  0  0  0  0  0  0
   -6.9861  -11.1199   -7.6945 N   0  0  0  0  0  0  0  0  0  0  0  0
   -5.9605   -8.5744   -5.7137 O   0  0  0  0  0  0  0  0  0  0  0  0
   -6.8081  -11.7268   -3.9814 O   0  0  0  0  0  0  0  0  0  0  0  0
  2  1  1  0
  3  2  1  0
  4  3  1  0
  5  4  1  0
  6  5  1  0
  7  6  1  0
  8  7  1  0
  9  8  1  0
 10  9  1  0
 11 10  1  0
 12 11  1  0
 13 12  1  0
 14 13  1  0
 15 14  2  0
 17 19  1  6
 17 18  1  0
 17 16  1  0
 18 21  1  1
 18 15  1  0
 20 16  1  0
M  END
>  <DRUGBANK_ID>  (1) 
DB03203

>  <SECONDARY_ACCESSION_NUMBERS>  (1) 
EXPT02945

>  <COMMON_NAME>  (1) 
Sphingosine

>  <CAS_NUMBER>  (1) 
123-78-4

>  <UNII>  (1) 
NGZ37HRE42

$$$$
