
     RDKit          3D

 33 35  0  0  1  0  0  0  0  0999 V2000
   -2.0275   -3.3344   -7.8693 C   0  0  0  0  0  0  0  0  0  0  0  0
   -2.4671   -2.2604   -6.8683 C   0  0  0  0  0  0  0  0  0  0  0  0
   -3.0757   -2.9976   -5.7436 C   0  0  0  0  0  0  0  0  0  0  0  0
   -1.9444   -3.7066   -5.0025 C   0  0  0  0  0  0  0  0  0  0  0  0
   -0.9368   -2.7445   -4.3428 C   0  0  0  0  0  0  0  0  0  0  0  0
   -1.4895   -1.7189   -3.3108 C   0  0  2  0  0  0  0  0  0  0  0  0
   -0.9705   -2.0423   -2.0226 O   0  0  0  0  0  0  0  0  0  0  0  0
   -2.9889   -1.6400   -3.1192 C   0  0  0  0  0  0  0  0  0  0  0  0
   -3.7263   -2.8183   -2.8810 C   0  0  0  0  0  0  0  0  0  0  0  0
   -5.1101   -2.8507   -2.9943 C   0  0  0  0  0  0  0  0  0  0  0  0
   -5.8088   -1.6614   -3.1304 C   0  0  0  0  0  0  0  0  0  0  0  0
   -5.1024   -0.4554   -3.2224 C   0  0  0  0  0  0  0  0  0  0  0  0
   -3.7005   -0.4452   -3.2877 C   0  0  0  0  0  0  0  0  0  0  0  0
   -7.2114   -1.6954   -3.1480 N   0  0  0  0  0  0  0  0  0  0  0  0
   -8.0124   -1.0742   -4.1729 C   0  0  1  0  0  0  0  0  0  0  0  0
   -8.0380   -1.8751   -5.4852 C   0  0  0  0  0  0  0  0  0  0  0  0
   -8.8468   -1.1632   -6.5884 C   0  0  0  0  0  0  0  0  0  0  0  0
   -8.3429    0.2537   -6.8872 C   0  0  0  0  0  0  0  0  0  0  0  0
   -6.9410    0.3447   -7.4367 C   0  0  0  0  0  0  0  0  0  0  0  0
   -6.1925    1.4929   -7.6035 C   0  0  0  0  0  0  0  0  0  0  0  0
   -4.8931    1.2435   -8.1403 C   0  0  0  0  0  0  0  0  0  0  0  0
   -4.7156   -0.0790   -8.4751 C   0  0  0  0  0  0  0  0  0  0  0  0
   -6.0843   -1.0059   -8.0352 S   0  0  0  0  0  0  0  0  0  0  0  0
   -3.6146   -0.7622   -9.1167 C   0  0  0  0  0  0  0  0  0  0  0  0
   -3.7222   -1.9240   -9.5356 O   0  0  0  0  0  0  0  0  0  0  0  0
   -2.4474   -0.0393   -9.0838 O   0  0  0  0  0  0  0  0  0  0  0  0
   -1.1826   -0.5502   -9.6276 C   0  0  0  0  0  0  0  0  0  0  0  0
   -0.1746   -1.0739   -8.5829 C   0  0  0  0  0  0  0  0  0  0  0  0
   -1.3700   -1.4353  -10.8650 C   0  0  0  0  0  0  0  0  0  0  0  0
   -9.4000   -1.0377   -3.5475 C   0  0  0  0  0  0  0  0  0  0  0  0
   -9.4161   -2.2597   -2.6425 C   0  0  0  0  0  0  0  0  0  0  0  0
   -7.9789   -2.3860   -2.2149 C   0  0  0  0  0  0  0  0  0  0  0  0
   -7.6043   -2.9819   -1.2180 O   0  0  0  0  0  0  0  0  0  0  0  0
  1  2  1  0
  2  3  1  0
  3  4  1  0
  4  5  1  0
  6  8  1  0
  6  7  1  1
  6  5  1  0
  8  9  2  0
  8 13  1  0
  9 10  1  0
 10 11  2  0
 11 12  1  0
 11 14  1  0
 12 13  2  0
 14 32  1  0
 15 14  1  0
 15 16  1  6
 15 30  1  0
 16 17  1  0
 17 18  1  0
 18 19  1  0
 19 20  2  0
 19 23  1  0
 20 21  1  0
 21 22  2  0
 22 23  1  0
 22 24  1  0
 24 25  2  0
 24 26  1  0
 26 27  1  0
 27 28  1  0
 27 29  1  0
 30 31  1  0
 31 32  1  0
 32 33  2  0
M  END
>  <DRUGBANK_ID>  (1) 
DB16085

>  <COMMON_NAME>  (1) 
Aganepag isopropyl

>  <CAS_NUMBER>  (1) 
910562-20-8

>  <UNII>  (1) 
R096XE6760

>  <SYNONYMS>  (1) 
Aganepag isopropyl

$$$$
