
     RDKit          3D

 12 11  0  0  0  0  0  0  0  0999 V2000
    0.9278   -0.0135   -0.0555 C   0  0  0  0  0  0  0  0  0  0  0  0
   -0.3498   -2.0712    0.4807 C   0  0  0  0  0  0  0  0  0  0  0  0
   -1.0272   -7.9211   -3.7629 C   0  0  0  0  0  0  0  0  0  0  0  0
   -1.0147   -6.1590   -2.1109 C   0  0  0  0  0  0  0  0  0  0  0  0
    0.8888   -1.8619   -1.7381 C   0  0  0  0  0  0  0  0  0  0  0  0
    0.2657   -5.8042   -4.2725 C   0  0  0  0  0  0  0  0  0  0  0  0
    0.4951   -1.3436   -0.4763 N   0  0  0  0  0  0  0  0  0  0  0  0
   -0.5506   -6.5771   -3.4147 N   0  0  0  0  0  0  0  0  0  0  0  0
    1.8589   -1.0180   -2.8288 S   0  0  0  0  0  0  0  0  0  0  0  0
    0.7763   -6.3591   -5.7973 S   0  0  0  0  0  0  0  0  0  0  0  0
    0.2604   -3.4836   -2.0542 S   0  0  0  0  0  0  0  0  0  0  0  0
    0.8681   -4.1600   -3.8841 S   0  0  0  0  0  0  0  0  0  0  0  0
  7  1  1  0
  7  2  1  0
  7  5  1  0
  8  3  1  0
  8  4  1  0
  8  6  1  0
  9  5  2  0
 10  6  2  0
 11  5  1  0
 12  6  1  0
 12 11  1  0
M  END
>  <DRUGBANK_ID>  (1) 
DB13245

>  <COMMON_NAME>  (1) 
Thiram

>  <CAS_NUMBER>  (1) 
137-26-8

>  <UNII>  (1) 
0D771IS0FH

>  <SYNONYMS>  (1) 
Tetramethylthiuram disulfide; Thiram; Thirame; Thiramum; Thiuram; Tiramo

$$$$
