
     RDKit          3D

 27 29  0  0  0  0  0  0  0  0999 V2000
    0.9901    0.1159   -0.2353 N   0  0  0  0  0  0  0  0  0  0  0  0
    0.3639   -0.8646   -0.9497 C   0  0  0  0  0  0  0  0  0  0  0  0
    0.6112   -2.2223   -0.9975 C   0  0  0  0  0  0  0  0  0  0  0  0
   -0.2974   -2.7028   -1.9673 C   0  0  0  0  0  0  0  0  0  0  0  0
   -1.1646   -1.7740   -2.3755 N   0  0  0  0  0  0  0  0  0  0  0  0
   -0.7407   -0.6394   -1.7616 N   0  0  0  0  0  0  0  0  0  0  0  0
   -1.3788    0.5984   -1.9873 C   0  0  0  0  0  0  0  0  0  0  0  0
   -0.6075    1.7263   -2.3020 C   0  0  0  0  0  0  0  0  0  0  0  0
   -1.2307    2.9610   -2.4635 C   0  0  0  0  0  0  0  0  0  0  0  0
   -2.6056    3.0605   -2.2807 C   0  0  0  0  0  0  0  0  0  0  0  0
   -3.1997    4.2533   -2.4156 F   0  0  0  0  0  0  0  0  0  0  0  0
   -3.3745    1.9449   -1.9544 C   0  0  0  0  0  0  0  0  0  0  0  0
   -2.7649    0.6960   -1.8253 C   0  0  0  0  0  0  0  0  0  0  0  0
    1.5743   -2.9248   -0.1817 C   0  0  0  0  0  0  0  0  0  0  0  0
    2.2127   -2.3802    0.7278 O   0  0  0  0  0  0  0  0  0  0  0  0
    1.8418   -4.3434   -0.4379 C   0  0  0  0  0  0  0  0  0  0  0  0
    2.3059   -4.7174   -1.7040 C   0  0  0  0  0  0  0  0  0  0  0  0
    2.8080   -5.9885   -1.8932 C   0  0  0  0  0  0  0  0  0  0  0  0
    2.9230   -6.8331   -0.8012 C   0  0  0  0  0  0  0  0  0  0  0  0
    2.3605   -6.5124    0.4397 C   0  0  0  0  0  0  0  0  0  0  0  0
    2.2897   -7.3716    1.5005 O   0  0  0  0  0  0  0  0  0  0  0  0
    2.8830   -8.6637    1.3174 C   0  0  0  0  0  0  0  0  0  0  0  0
    1.9684   -9.6384    0.5311 C   0  0  0  0  0  0  0  0  0  0  0  0
    1.6180   -9.2123   -0.7888 O   0  0  0  0  0  0  0  0  0  0  0  0
    2.6572  -10.9895    0.3608 C   0  0  0  0  0  0  0  0  0  0  0  0
    2.8051  -11.6653    1.5984 O   0  0  0  0  0  0  0  0  0  0  0  0
    1.7936   -5.2576    0.6209 C   0  0  0  0  0  0  0  0  0  0  0  0
  1  2  1  0
  2  3  2  0
  2  6  1  0
  3  4  1  0
  3 14  1  0
  4  5  2  0
  5  6  1  0
  6  7  1  0
  7  8  2  0
  7 13  1  0
  8  9  1  0
  9 10  2  0
 10 11  1  0
 10 12  1  0
 12 13  2  0
 14 15  2  0
 14 16  1  0
 16 17  2  0
 16 27  1  0
 17 18  1  0
 18 19  2  0
 19 20  1  0
 20 21  1  0
 20 27  2  0
 21 22  1  0
 22 23  1  0
 23 24  1  0
 23 25  1  0
 25 26  1  0
M  END
>  <DRUGBANK_ID>  (1) 
DB17106

>  <COMMON_NAME>  (1) 
SYD-003

>  <CAS_NUMBER>  (1) 
249937-52-8

>  <UNII>  (1) 
TE3ESF890C

>  <SYNONYMS>  (1) 
(5-amino-1-(4-fluoro-phenyl)-1h-pyrazol-4-yl)-(3-(2,3-dihydroxy-propoxy)-phenyl)-methanone; [5-Amino-1-(4-fluoro-phenyl)-1H-pyrazol-4-yl]-[3-(2,3-dihydroxy-propoxy)-phenyl]-methanone; Methanone, (5-amino-1-(4-fluorophenyl)-1h-pyrazol-4-yl)(3-(2,3-dihydroxypropoxy)phenyl)-

$$$$
