
     RDKit          3D

 15 14  0  0  0  0  0  0  0  0999 V2000
   -3.0325   -0.1149    2.8077 C   0  0  0  0  0  0  0  0  0  0  0  0
   -1.6967   -0.0489    2.4748 N   0  0  0  0  0  0  0  0  0  0  0  0
    0.3556    0.4474    1.2331 C   0  0  0  0  0  0  0  0  0  0  0  0
   -1.1888    0.5463    1.2435 C   0  0  2  0  0  0  0  0  0  0  0  0
   -1.7442    1.9890   -1.4853 C   0  0  0  0  0  0  0  0  0  0  0  0
   -3.9307    0.3857    2.1363 O   0  0  0  0  0  0  0  0  0  0  0  0
    1.0543   -0.0860    2.0887 O   0  0  0  0  0  0  0  0  0  0  0  0
   -2.4825    2.5466   -2.2911 O   0  0  0  0  0  0  0  0  0  0  0  0
   -3.3373   -0.8509    4.1225 C   0  0  1  0  0  0  0  0  0  0  0  0
   -1.6644    1.9973    1.0682 C   0  0  0  0  0  0  0  0  0  0  0  0
   -1.2413    2.6845   -0.2295 C   0  0  0  0  0  0  0  0  0  0  0  0
   -1.3462    0.7058   -1.7153 N   0  0  0  0  0  0  0  0  0  0  0  0
    0.9375    0.9684    0.1317 O   0  0  0  0  0  0  0  0  0  0  0  0
   -2.1264   -1.5136    4.6571 N   0  0  0  0  0  0  0  0  0  0  0  0
   -3.9024    0.1320    5.1404 C   0  0  0  0  0  0  0  0  0  0  0  0
  2  1  1  0
  4  2  1  0
  4  3  1  0
  5 11  1  0
  6  1  2  0
  7  3  2  0
  8  5  2  0
  9  1  1  0
  9 14  1  0
  4 10  1  1
 11 10  1  0
 12  5  1  0
 13  3  1  0
  9 15  1  1
M  END
>  <DRUGBANK_ID>  (1) 
DB11876

>  <COMMON_NAME>  (1) 
Alanyl glutamine

>  <CAS_NUMBER>  (1) 
39537-23-0

>  <UNII>  (1) 
U5JDO2770Z

>  <SYNONYMS>  (1) 
Alanyl glutamine; Alanyl-glutamine dipeptide; Alanylglutamine; L-Alanyl-L-glutamine; N(2)-L-Alanyl-L-glutamine

$$$$
