
     RDKit          3D

 26 29  0  0  0  0  0  0  0  0999 V2000
    0.4300    1.9378   -7.8452 O   0  0  0  0  0  0  0  0  0  0  0  0
   -6.1375    7.7226   -2.3190 O   0  0  0  0  0  0  0  0  0  0  0  0
    3.3933    4.2264   -6.3724 O   0  0  0  0  0  0  0  0  0  0  0  0
    2.4025    2.3861   -6.9196 O   0  0  0  0  0  0  0  0  0  0  0  0
    0.5726    3.0925   -5.0145 C   0  0  1  0  0  0  0  0  0  0  0  0
   -0.8790    3.0296   -4.6680 C   0  0  2  0  0  0  0  0  0  0  0  0
   -0.1461    2.7143   -6.7837 C   0  0  2  0  0  0  0  0  0  0  0  0
   -1.4114    3.6255   -3.4353 C   0  0  1  0  0  0  0  0  0  0  0  0
   -1.1550    5.1338   -3.5889 C   0  0  1  0  0  0  0  0  0  0  0  0
   -2.4581    5.9874   -3.1119 C   0  0  2  0  0  0  0  0  0  0  0  0
    1.2139    4.5975   -4.2981 C   0  0  0  0  0  0  0  0  0  0  0  0
   -1.2074    1.6127   -5.1303 C   0  0  0  0  0  0  0  0  0  0  0  0
   -1.5104    1.9619   -6.5503 C   0  0  0  0  0  0  0  0  0  0  0  0
   -3.4132    5.3490   -2.1169 C   0  0  0  0  0  0  0  0  0  0  0  0
    0.3770    5.1918   -3.1291 C   0  0  0  0  0  0  0  0  0  0  0  0
   -2.8404    3.3152   -3.4046 C   0  0  0  0  0  0  0  0  0  0  0  0
   -0.2487    4.0443   -7.5793 C   0  0  0  0  0  0  0  0  0  0  0  0
    1.3160    2.1456   -3.9712 C   0  0  0  0  0  0  0  0  0  0  0  0
   -3.7127    3.9932   -2.6596 C   0  0  0  0  0  0  0  0  0  0  0  0
   -3.9296    6.0026   -4.2964 C   0  0  0  0  0  0  0  0  0  0  0  0
   -4.2637    6.3402   -1.6511 C   0  0  0  0  0  0  0  0  0  0  0  0
   -1.6966    7.0458   -2.1699 C   0  0  0  0  0  0  0  0  0  0  0  0
   -5.4434    6.6858   -2.4936 C   0  0  0  0  0  0  0  0  0  0  0  0
   -5.5344    5.8466   -3.6655 C   0  0  0  0  0  0  0  0  0  0  0  0
    1.0181    4.6391   -7.0579 C   0  0  0  0  0  0  0  0  0  0  0  0
    2.3145    3.6048   -6.8725 C   0  0  0  0  0  0  0  0  0  0  0  0
  2 23  2  0
  3 26  1  0
  4 26  2  0
  5  6  1  0
  5  7  1  0
  5 11  1  0
  5 18  1  1
  6  8  1  0
  6 12  1  1
  7  1  1  6
  7 13  1  0
  7 17  1  0
  8  9  1  0
  8 16  1  6
  9 10  1  0
  9 15  1  1
 10 14  1  0
 10 20  1  0
 10 22  1  1
 11 15  1  0
 12 13  1  0
 14 19  1  0
 14 21  2  0
 16 19  2  0
 17 25  1  0
 20 24  1  0
 21 23  1  0
 23 24  1  0
 25 26  1  0
M  END
>  <DRUGBANK_ID>  (1) 
DB09015

>  <COMMON_NAME>  (1) 
Canrenoic acid

>  <CAS_NUMBER>  (1) 
4138-96-9

>  <UNII>  (1) 
87UG89VA9K

>  <SYNONYMS>  (1) 
Ã¡cido canrenoico; Canrenoate; Canrenoic acid

$$$$
