389
     RDKit          3D

 12 12  0  0  0  0  0  0  0  0999 V2000
    1.0638   -0.7269    1.2691 S   0  0  0  0  0  0  0  0  0  0  0  0
    1.5738    2.8267   -0.1652 O   0  0  0  0  0  0  0  0  0  0  0  0
    3.7539    3.2474   -0.0046 O   0  0  0  0  0  0  0  0  0  0  0  0
    3.3727   -1.2932    0.0001 N   0  0  0  0  0  0  0  0  0  0  0  0
    3.1632    0.9856    0.1546 N   0  0  0  0  0  0  0  0  0  0  0  0
    2.4624   -0.3057    0.4506 C   0  0  0  0  0  0  0  0  0  0  0  0
    4.5011    0.5997   -0.0666 C   0  0  0  0  0  0  0  0  0  0  0  0
    4.6124   -0.7302   -0.1466 C   0  0  0  0  0  0  0  0  0  0  0  0
    3.0458   -2.6937   -0.1122 C   0  0  0  0  0  0  0  0  0  0  0  0
    2.8558    2.3866    0.0284 C   0  0  0  0  0  0  0  0  0  0  0  0
    0.4497    1.9554   -0.2676 C   0  0  0  0  0  0  0  0  0  0  0  0
    0.5298    1.0883   -1.5205 C   0  0  0  0  0  0  0  0  0  0  0  0
  1  6  2  0
  2 10  1  0
  2 11  1  0
  3 10  2  0
  4  6  1  0
  4  8  1  0
  4  9  1  0
  5  6  1  0
  5  7  1  0
  5 10  1  0
  7  8  2  0
 11 12  1  0
M  END
>  <DRUGBANK_ID>  (1) 
DB00389

>  <SECONDARY_ACCESSION_NUMBERS>  (1) 
APRD00503

>  <COMMON_NAME>  (1) 
Carbimazole

>  <CAS_NUMBER>  (1) 
22232-54-8

>  <UNII>  (1) 
8KQ660G60G

>  <SYNONYMS>  (1) 
Athyromazole; Carbethoxymethimazole; Carbimazol; Carbimazole; Carbimazolo; Carbimazolum; Carbinazole; Ethyl 3-methyl-2-thioimidazoline-1-carboxylate

$$$$
