
     RDKit          3D

 15 16  0  0  1  0  0  0  0  0999 V2000
   -4.2838    2.7856    3.1619 C   0  0  0  0  0  0  0  0  0  0  0  0
   -3.4789    3.3933    2.2054 C   0  0  0  0  0  0  0  0  0  0  0  0
   -3.0129    2.6592    1.1157 C   0  0  0  0  0  0  0  0  0  0  0  0
   -3.3531    1.3039    0.9687 C   0  0  0  0  0  0  0  0  0  0  0  0
   -4.1322    0.6934    1.9620 C   0  0  0  0  0  0  0  0  0  0  0  0
   -4.6131    1.4354    3.0432 C   0  0  0  0  0  0  0  0  0  0  0  0
   -2.8492    0.4874   -0.2115 C   0  0  2  0  0  0  0  0  0  0  0  0
   -1.3458    0.1991   -0.0388 C   0  0  0  0  0  0  0  0  0  0  0  0
   -0.9502   -1.1175   -0.6525 C   0  0  0  0  0  0  0  0  0  0  0  0
   -0.0722   -1.1536   -1.7304 C   0  0  0  0  0  0  0  0  0  0  0  0
    0.2720   -2.3873   -2.2719 C   0  0  0  0  0  0  0  0  0  0  0  0
   -0.2670   -3.5453   -1.7257 C   0  0  0  0  0  0  0  0  0  0  0  0
   -1.1237   -3.4228   -0.6459 C   0  0  0  0  0  0  0  0  0  0  0  0
   -1.4683   -2.2403   -0.0926 N   0  0  0  0  0  0  0  0  0  0  0  0
   -3.1232    1.1818   -1.4865 N   0  0  0  0  0  0  0  0  0  0  0  0
  1  2  2  0
  1  6  1  0
  2  3  1  0
  3  4  2  0
  4  5  1  0
  5  6  2  0
  7 15  1  6
  7  8  1  0
  7  4  1  0
  8  9  1  0
  9 10  2  0
  9 14  1  0
 10 11  1  0
 11 12  2  0
 12 13  1  0
 13 14  2  0
M  END
>  <DRUGBANK_ID>  (1) 
DB11889

>  <COMMON_NAME>  (1) 
Lanicemine

>  <CAS_NUMBER>  (1) 
153322-05-5

>  <UNII>  (1) 
9TMU325RK3

>  <SYNONYMS>  (1) 
Lanicemine

$$$$
