
     RDKit          3D

 15 14  0  0  0  0  0  0  0  0999 V2000
    1.0446   -0.0923    0.1640 C   0  0  2  0  0  0  0  0  0  0  0  0
    0.5509    1.1417   -0.6170 C   0  0  0  0  0  0  0  0  0  0  0  0
    0.5756   -1.3785   -0.3555 N   0  0  0  0  0  0  0  0  0  0  0  0
    0.5045   -0.0127    1.6030 C   0  0  0  0  0  0  0  0  0  0  0  0
    1.0013    1.2187   -2.0774 C   0  0  0  0  0  0  0  0  0  0  0  0
    1.4547   -0.0311    2.5636 O   0  0  0  0  0  0  0  0  0  0  0  0
   -0.6921    0.0195    1.8655 O   0  0  0  0  0  0  0  0  0  0  0  0
    0.4705    0.1274   -2.9997 C   0  0  0  0  0  0  0  0  0  0  0  0
   -0.9940    0.0858   -3.0264 N   0  0  0  0  0  0  0  0  0  0  0  0
   -1.6586    0.0476   -4.2224 C   0  0  0  0  0  0  0  0  0  0  0  0
   -3.0210    0.0307   -4.1545 N   0  0  0  0  0  0  0  0  0  0  0  0
   -0.9279    0.0555   -5.2883 N   0  0  0  0  0  0  0  0  0  0  0  0
   -3.7803    0.0572   -5.2721 N   0  0  0  0  0  0  0  0  0  0  0  0
   -4.9947    0.0538   -5.0471 O   0  0  0  0  0  0  0  0  0  0  0  0
   -3.2428    0.0812   -6.3788 O   0  0  0  0  0  0  0  0  0  0  0  0
  1  2  1  0
  1  3  1  6
  1  4  1  0
  2  5  1  0
  4  6  1  0
  4  7  2  0
  5  8  1  0
  8  9  1  0
  9 10  1  0
 10 11  1  0
 10 12  2  0
 11 13  1  0
 13 14  2  0
 13 15  1  0
M  CHG  2  13   1  15  -1
M  END
>  <DRUGBANK_ID>  (1) 
DB04223

>  <SECONDARY_ACCESSION_NUMBERS>  (1) 
EXPT02387

>  <COMMON_NAME>  (1) 
Nitroarginine

>  <CAS_NUMBER>  (1) 
2149-70-4

>  <UNII>  (1) 
7O8V7H6P2J

>  <SYNONYMS>  (1) 
L-NNA; N(gamma)-nitro-L-arginine; Ngamma-Nitro-L-arginine; omega-Nitroarginine

$$$$
