
     RDKit          3D

 11 12  0  0  1  0  0  0  0  0999 V2000
    4.0901    2.6800   -3.9823 C   0  0  0  0  0  0  0  0  0  0  0  0
    4.7299    4.1269    1.1658 C   0  0  0  0  0  0  0  0  0  0  0  0
    5.7960    3.7863   -0.9012 C   0  0  0  0  0  0  0  0  0  0  0  0
    2.6524    4.2126   -2.6968 C   0  0  0  0  0  0  0  0  0  0  0  0
    2.6260    2.2339   -0.5016 C   0  0  0  0  0  0  0  0  0  0  0  0
    3.5185    3.1772   -2.6981 C   0  0  0  0  0  0  0  0  0  0  0  0
    3.8926    2.4901   -1.3331 C   0  0  1  0  0  0  0  0  0  0  0  0
    2.6936    3.7752   -0.2456 C   0  0  2  0  0  0  0  0  0  0  0  0
    1.9988    4.5126   -1.4072 C   0  0  0  0  0  0  0  0  0  0  0  0
    4.3856    3.6427   -0.2476 C   0  0  0  0  0  0  0  0  0  0  0  0
    0.9427    5.1115   -1.3641 O   0  0  0  0  0  0  0  0  0  0  0  0
  6  4  2  0
  6  1  1  0
  7  5  1  1
  7  6  1  0
  8  5  1  6
  9  4  1  0
  9  8  1  0
 10  7  1  0
 10  8  1  0
 10  2  1  0
 10  3  1  0
 11  9  2  0
M  END
>  <DRUGBANK_ID>  (1) 
DB13391

>  <COMMON_NAME>  (1) 
Levoverbenone

>  <CAS_NUMBER>  (1) 
1196-01-6

>  <UNII>  (1) 
2XP0J7754U

$$$$
