
     RDKit          3D

 23 24  0  0  0  0  0  0  0  0999 V2000
    1.0829   -0.0551    0.0092 C   0  0  0  0  0  0  0  0  0  0  0  0
    0.5929    1.2754    0.3973 N   0  0  0  0  0  0  0  0  0  0  0  0
    1.2888    1.9764    1.9233 C   0  0  0  0  0  0  0  0  0  0  0  0
    0.7007    3.3742    2.1351 C   0  0  0  0  0  0  0  0  0  0  0  0
    1.1035    4.2883    0.9817 O   0  0  0  0  0  0  0  0  0  0  0  0
    0.3670    3.9027   -0.2979 C   0  0  0  0  0  0  0  0  0  0  0  0
    0.9119    2.5749   -0.8324 C   0  0  0  0  0  0  0  0  0  0  0  0
   -0.8342    0.9623    0.5591 C   0  0  0  0  0  0  0  0  0  0  0  0
   -1.3928    0.4487   -0.7580 C   0  0  0  0  0  0  0  0  0  0  0  0
   -0.6423   -0.8068   -1.1714 C   0  0  0  0  0  0  0  0  0  0  0  0
   -0.8090   -1.8725   -0.1005 C   0  0  0  0  0  0  0  0  0  0  0  0
   -1.3090   -3.0678   -0.3910 C   0  0  0  0  0  0  0  0  0  0  0  0
   -1.2215   -4.1006    0.5109 C   0  0  0  0  0  0  0  0  0  0  0  0
   -0.7021   -3.9014    1.7599 C   0  0  0  0  0  0  0  0  0  0  0  0
   -0.1490   -2.7235    1.9850 C   0  0  0  0  0  0  0  0  0  0  0  0
   -0.3267   -1.5838    1.1655 C   0  0  0  0  0  0  0  0  0  0  0  0
   -1.2009   -1.3204   -2.4885 C   0  0  0  0  0  0  0  0  0  0  0  0
   -1.1294   -2.6417   -2.8645 C   0  0  0  0  0  0  0  0  0  0  0  0
   -1.5898   -2.8580   -4.1677 C   0  0  0  0  0  0  0  0  0  0  0  0
   -2.0019   -1.7129   -4.7757 C   0  0  0  0  0  0  0  0  0  0  0  0
   -1.8482   -0.3409   -3.7492 S   0  0  0  0  0  0  0  0  0  0  0  0
    0.7363   -0.5044   -1.3277 O   0  0  0  0  0  0  0  0  0  0  0  0
    1.0382    0.0177    0.0907 I   0  0  0  0  0  0  0  0  0  0  0  0
  1  2  1  0
  2  3  1  0
  2  7  1  0
  2  8  1  0
  3  4  1  0
  4  5  1  0
  5  6  1  0
  6  7  1  0
  8  9  1  0
  9 10  1  0
 10 11  1  0
 10 17  1  0
 10 22  1  0
 11 12  2  0
 11 16  1  0
 12 13  1  0
 13 14  2  0
 14 15  1  0
 15 16  2  0
 17 18  2  0
 17 21  1  0
 18 19  1  0
 19 20  2  0
 20 21  1  0
M  CHG  2   2   1  23  -1
M  END
>  <DRUGBANK_ID>  (1) 
DB13666

>  <COMMON_NAME>  (1) 
Tiemonium iodide

>  <CAS_NUMBER>  (1) 
144-12-7

>  <UNII>  (1) 
FZ2LZ7U304

>  <SYNONYMS>  (1) 
Tiemonium iodide

$$$$
