
     RDKit          3D

 35 38  0  0  0  0  0  0  0  0999 V2000
   -6.4095    3.8084   -6.8902 C   0  0  0  0  0  0  0  0  0  0  0  0
   -7.2390    4.7909   -7.4045 C   0  0  0  0  0  0  0  0  0  0  0  0
   -8.1732    5.3855   -6.5723 C   0  0  0  0  0  0  0  0  0  0  0  0
   -8.2272    5.1436   -5.1950 C   0  0  0  0  0  0  0  0  0  0  0  0
   -7.3770    4.1396   -4.6876 C   0  0  0  0  0  0  0  0  0  0  0  0
   -6.4880    3.4561   -5.5383 C   0  0  0  0  0  0  0  0  0  0  0  0
   -5.6301    2.4050   -4.9135 C   0  0  0  0  0  0  0  0  0  0  0  0
   -7.3088    3.7792   -3.2368 C   0  0  0  0  0  0  0  0  0  0  0  0
   -7.3002    2.2437   -3.0177 C   0  0  1  0  0  0  0  0  0  0  0  0
   -6.2439    1.5312   -3.7936 C   0  0  0  0  0  0  0  0  0  0  0  0
   -5.6809    0.3697   -3.3362 C   0  0  0  0  0  0  0  0  0  0  0  0
   -6.9602    2.0996   -1.5449 C   0  0  0  0  0  0  0  0  0  0  0  0
   -6.6409    0.7137   -1.0063 C   0  0  1  0  0  0  0  0  0  0  0  0
   -5.9097   -0.3366   -1.8252 C   0  0  1  0  0  0  0  0  0  0  0  0
   -6.6723   -1.7531   -0.8212 C   0  0  0  0  0  0  0  0  0  0  0  0
   -6.0877    0.6771    0.4912 C   0  0  1  0  0  0  0  0  0  0  0  0
   -5.9247   -0.8222    0.9310 C   0  0  0  0  0  0  0  0  0  0  0  0
   -7.0325   -1.5246    0.7816 C   0  0  0  0  0  0  0  0  0  0  0  0
   -5.5770    3.1670   -7.7552 O   0  0  0  0  0  0  0  0  0  0  0  0
   -4.4266    2.3511   -5.1554 O   0  0  0  0  0  0  0  0  0  0  0  0
   -4.3853    0.0961   -3.8827 O   0  0  0  0  0  0  0  0  0  0  0  0
   -6.4083   -2.9424   -1.0396 O   0  0  0  0  0  0  0  0  0  0  0  0
   -8.2473   -0.9211    1.5392 C   0  0  0  0  0  0  0  0  0  0  0  0
   -9.0588   -0.2499    1.0097 O   0  0  0  0  0  0  0  0  0  0  0  0
   -8.3541   -1.1410    2.9349 N   0  0  0  0  0  0  0  0  0  0  0  0
   -4.7196   -1.5647    0.5829 O   0  0  0  0  0  0  0  0  0  0  0  0
   -4.9312    1.4363    1.0105 N   0  0  0  0  0  0  0  0  0  0  0  0
   -4.5477    2.5764    0.2191 C   0  0  0  0  0  0  0  0  0  0  0  0
   -3.7287    0.6258    1.2174 C   0  0  0  0  0  0  0  0  0  0  0  0
   -9.1376    5.9358   -4.2699 C   0  0  0  0  0  0  0  0  0  0  0  0
  -10.3314    6.5620   -4.8728 N   0  0  0  0  0  0  0  0  0  0  0  0
  -11.0882    7.1531   -3.7508 O   0  0  0  0  0  0  0  0  0  0  0  0
  -11.7031    6.1613   -2.9299 C   0  0  0  0  0  0  0  0  0  0  0  0
   -9.9779    7.7723   -5.6296 C   0  0  0  0  0  0  0  0  0  0  0  0
   -4.4803   -0.3708   -1.5027 O   0  0  0  0  0  0  0  0  0  0  0  0
  1  2  2  0
  1  6  1  0
  1 19  1  0
  2  3  1  0
  3  4  2  0
  4  5  1  0
  4 30  1  0
  5  8  1  0
  6  5  2  0
  7  6  1  0
  7 10  1  0
  7 20  2  0
  9  8  1  6
  9 12  1  0
 10  9  1  0
 11 10  2  0
 11 14  1  0
 11 21  1  0
 13 12  1  6
 13 16  1  0
 14 13  1  0
 14 35  1  1
 15 14  1  0
 15 18  1  0
 15 22  2  0
 16 17  1  0
 16 27  1  6
 17 18  2  0
 17 26  1  0
 18 23  1  0
 23 24  2  0
 23 25  1  0
 27 28  1  0
 27 29  1  0
 30 31  1  0
 31 32  1  0
 31 34  1  0
 32 33  1  0
M  END
>  <DRUGBANK_ID>  (1) 
DB12035

>  <COMMON_NAME>  (1) 
Sarecycline

>  <CAS_NUMBER>  (1) 
1035654-66-0

>  <UNII>  (1) 
94O110CX2E

>  <SYNONYMS>  (1) 
Sareciclina; Sarecycline; SarÃ©cycline; Sarecyclinum

$$$$
