
     RDKit          3D

 33 37  0  0  0  0  0  0  0  0999 V2000
    1.0084    0.0767   -0.0779 C   0  0  0  0  0  0  0  0  0  0  0  0
    0.3882   -0.6645   -1.1559 N   0  0  0  0  0  0  0  0  0  0  0  0
   -0.4183   -1.7668   -1.0820 C   0  0  0  0  0  0  0  0  0  0  0  0
   -0.8291   -2.2832   -2.1440 O   0  0  0  0  0  0  0  0  0  0  0  0
   -0.7609   -2.3568    0.2402 C   0  0  0  0  0  0  0  0  0  0  0  0
   -1.2542   -1.5071    1.2401 C   0  0  0  0  0  0  0  0  0  0  0  0
   -1.3893   -1.9660    2.5448 C   0  0  0  0  0  0  0  0  0  0  0  0
   -1.1187   -3.3026    2.8433 C   0  0  0  0  0  0  0  0  0  0  0  0
   -0.7593   -4.2158    1.8322 C   0  0  0  0  0  0  0  0  0  0  0  0
   -0.5710   -3.7350    0.5102 C   0  0  0  0  0  0  0  0  0  0  0  0
   -0.2154   -4.6647   -0.4812 C   0  0  0  0  0  0  0  0  0  0  0  0
   -0.1390   -6.0266   -0.2128 C   0  0  0  0  0  0  0  0  0  0  0  0
   -0.2828   -6.5067    1.0838 C   0  0  0  0  0  0  0  0  0  0  0  0
   -0.5860   -5.5956    2.1075 C   0  0  0  0  0  0  0  0  0  0  0  0
   -0.1065   -7.8365    1.4328 O   0  0  0  0  0  0  0  0  0  0  0  0
    0.4440   -8.7315    0.5190 C   0  0  0  0  0  0  0  0  0  0  0  0
   -0.2857   -9.8899    0.2845 C   0  0  0  0  0  0  0  0  0  0  0  0
    0.2467  -10.8122   -0.5962 C   0  0  0  0  0  0  0  0  0  0  0  0
    1.4318  -10.6575   -1.2377 N   0  0  0  0  0  0  0  0  0  0  0  0
    2.1868   -9.5745   -0.9567 C   0  0  0  0  0  0  0  0  0  0  0  0
    1.7316   -8.5886   -0.0649 C   0  0  0  0  0  0  0  0  0  0  0  0
    2.5782   -7.5000    0.1931 C   0  0  0  0  0  0  0  0  0  0  0  0
    3.8509   -7.3279   -0.3786 C   0  0  0  0  0  0  0  0  0  0  0  0
    4.3202   -8.2905   -1.2955 C   0  0  0  0  0  0  0  0  0  0  0  0
    3.4533   -9.3997   -1.5557 C   0  0  0  0  0  0  0  0  0  0  0  0
    5.3105   -8.1656   -2.2791 O   0  0  0  0  0  0  0  0  0  0  0  0
    6.0735   -6.9234   -2.5880 C   0  0  0  0  0  0  0  0  0  0  0  0
    5.0532   -5.6703   -3.0434 C   0  0  0  0  0  0  0  0  0  0  0  0
    5.2856   -4.4896   -3.9847 C   0  0  0  0  0  0  0  0  0  0  0  0
    5.2110   -4.1854   -2.5385 C   0  0  0  0  0  0  0  0  0  0  0  0
    3.6740   -6.1699   -3.1766 N   0  0  0  0  0  0  0  0  0  0  0  0
    4.2185   -6.0341   -0.1229 O   0  0  0  0  0  0  0  0  0  0  0  0
    5.5574   -5.6404   -0.0495 C   0  0  0  0  0  0  0  0  0  0  0  0
  1  2  1  0
  2  3  1  0
  3  4  2  0
  3  5  1  0
  5  6  2  0
  5 10  1  0
  6  7  1  0
  7  8  2  0
  8  9  1  0
  9 10  2  0
  9 14  1  0
 10 11  1  0
 11 12  2  0
 12 13  1  0
 13 14  2  0
 13 15  1  0
 15 16  1  0
 16 17  2  0
 16 21  1  0
 17 18  1  0
 18 19  2  0
 19 20  1  0
 20 21  2  0
 20 25  1  0
 21 22  1  0
 22 23  2  0
 23 24  1  0
 23 32  1  0
 24 25  2  0
 24 26  1  0
 26 27  1  0
 27 28  1  0
 28 29  1  0
 28 30  1  0
 28 31  1  0
 29 30  1  0
 32 33  1  0
M  END
>  <DRUGBANK_ID>  (1) 
DB11845

>  <COMMON_NAME>  (1) 
Lucitanib

>  <CAS_NUMBER>  (1) 
1058137-23-7

>  <UNII>  (1) 
PP449XA4BH

>  <SYNONYMS>  (1) 
Lucitanib

$$$$
