960
     RDKit          3D

 18 19  0  0  1  0  0  0  0  0999 V2000
    1.0898   -0.0220   -0.0624 O   0  0  0  0  0  0  0  0  0  0  0  0
    1.9188   -2.3460   -1.8597 O   0  0  0  0  0  0  0  0  0  0  0  0
   -1.6233   -3.1467   -1.4164 N   0  0  0  0  0  0  0  0  0  0  0  0
    4.9109    2.5021   -0.0748 N   0  0  0  0  0  0  0  0  0  0  0  0
    0.5724   -1.9918   -1.5254 C   0  0  0  0  0  0  0  0  0  0  0  0
   -0.1776   -3.3232   -1.4896 C   0  0  0  0  0  0  0  0  0  0  0  0
   -2.3297   -4.4270   -1.4304 C   0  0  0  0  0  0  0  0  0  0  0  0
    0.4029   -1.2659   -0.1643 C   0  0  0  0  0  0  0  0  0  0  0  0
    3.1222    1.1788    0.0018 C   0  0  0  0  0  0  0  0  0  0  0  0
    2.4468   -0.0521    0.0951 C   0  0  0  0  0  0  0  0  0  0  0  0
   -1.9918   -5.2805   -0.2065 C   0  0  0  0  0  0  0  0  0  0  0  0
   -3.8218   -4.1080   -1.4504 C   0  0  0  0  0  0  0  0  0  0  0  0
    4.5192    1.1852   -0.0234 C   0  0  0  0  0  0  0  0  0  0  0  0
    2.6967    2.5330   -0.1127 C   0  0  0  0  0  0  0  0  0  0  0  0
    3.2134   -1.2155    0.2536 C   0  0  0  0  0  0  0  0  0  0  0  0
    5.2792    0.0128   -0.0158 C   0  0  0  0  0  0  0  0  0  0  0  0
    3.8192    3.3247   -0.1390 C   0  0  0  0  0  0  0  0  0  0  0  0
    4.5972   -1.1935    0.1113 C   0  0  0  0  0  0  0  0  0  0  0  0
  1  8  1  0
  1 10  1  0
  2  5  1  0
  3  6  1  0
  3  7  1  0
  4 13  1  0
  4 17  1  0
  5  6  1  0
  5  8  1  0
  7 11  1  0
  7 12  1  0
  9 10  1  0
  9 13  2  0
  9 14  1  0
 10 15  2  0
 13 16  1  0
 14 17  2  0
 15 18  1  0
 16 18  2  0
M  END
>  <DRUGBANK_ID>  (1) 
DB00960

>  <SECONDARY_ACCESSION_NUMBERS>  (1) 
APRD00678

>  <COMMON_NAME>  (1) 
Pindolol

>  <CAS_NUMBER>  (1) 
13523-86-9

>  <UNII>  (1) 
BJ4HF6IU1D

>  <SYNONYMS>  (1) 
1-(1H-indol-4-yloxy)-3-(isopropylamino)propan-2-ol; 1-(1H-indol-4-yloxy)-3-(propan-2-ylamino)-propan-2-ol; 1-(1H-indol-4-yloxy)-3-[(1-methylethyl)amino]propan-2-ol; 4-(2-hydroxy-3-isopropylaminopropoxy)-indole; Pindolol; Pindololum

$$$$
