
     RDKit          3D

 12 13  0  0  1  0  0  0  0  0999 V2000
   -3.2948    4.0725   -3.2259 C   0  0  0  0  0  0  0  0  0  0  0  0
   -3.3584    2.7938   -3.4728 C   0  0  0  0  0  0  0  0  0  0  0  0
   -3.4325    1.3032   -3.7605 C   0  0  0  0  0  0  0  0  0  0  0  0
   -2.1244    0.7822   -3.3193 O   0  0  0  0  0  0  0  0  0  0  0  0
   -1.7785    0.9294   -1.8996 C   0  0  1  0  0  0  0  0  0  0  0  0
   -0.2301    0.8494   -1.6330 C   0  0  0  0  0  0  0  0  0  0  0  0
    0.3537    2.0139   -0.8533 N   0  0  0  0  0  0  0  0  0  0  0  0
   -0.4120    2.3053    0.3931 C   0  0  0  0  0  0  0  0  0  0  0  0
   -1.9195    2.3328    0.1926 C   0  0  0  0  0  0  0  0  0  0  0  0
   -2.1598    2.2769   -1.2851 C   0  0  0  0  0  0  0  0  0  0  0  0
   -1.2404    3.3867   -1.9469 C   0  0  0  0  0  0  0  0  0  0  0  0
    0.2298    3.1940   -1.7012 C   0  0  0  0  0  0  0  0  0  0  0  0
  1  2  3  0
  2  3  1  0
  3  4  1  0
  5  6  1  0
  5 10  1  0
  5  4  1  6
  6  7  1  0
  7  8  1  0
  7 12  1  0
  8  9  1  0
  9 10  1  0
 10 11  1  0
 11 12  1  0
M  END
>  <DRUGBANK_ID>  (1) 
DB12287

>  <COMMON_NAME>  (1) 
Talsaclidine

>  <CAS_NUMBER>  (1) 
147025-53-4

>  <UNII>  (1) 
1O8VSL798T

>  <SYNONYMS>  (1) 
Talsaclidine

$$$$
