
     RDKit          3D

 25 25  0  0  0  0  0  0  0  0999 V2000
    0.5607    1.1962   -0.0937 C   0  0  0  0  0  0  0  0  0  0  0  0
    1.2600    2.5344   -0.1548 C   0  0  0  0  0  0  0  0  0  0  0  0
   -0.8219    1.1334    0.0430 C   0  0  0  0  0  0  0  0  0  0  0  0
    1.2654   -0.0163   -0.1836 C   0  0  0  0  0  0  0  0  0  0  0  0
    2.2635    2.7296    0.9913 C   0  0  0  0  0  0  0  0  0  0  0  0
   -1.4665   -0.1061   -0.0052 C   0  0  0  0  0  0  0  0  0  0  0  0
    0.6534   -1.2445   -0.0060 C   0  0  0  0  0  0  0  0  0  0  0  0
   -0.7257   -1.2895   -0.0136 C   0  0  0  0  0  0  0  0  0  0  0  0
   -1.6529   -3.1325   -0.1714 I   0  0  0  0  0  0  0  0  0  0  0  0
    3.4047    1.7090    0.9662 C   0  0  0  0  0  0  0  0  0  0  0  0
    4.1148    1.7311   -0.4001 C   0  0  0  0  0  0  0  0  0  0  0  0
    4.8020    3.0804   -0.5818 C   0  0  0  0  0  0  0  0  0  0  0  0
    5.8100    3.2783    0.5503 C   0  0  0  0  0  0  0  0  0  0  0  0
    6.8454    2.1485    0.5141 C   0  0  0  0  0  0  0  0  0  0  0  0
    7.5852    2.1836   -0.8258 C   0  0  0  0  0  0  0  0  0  0  0  0
    8.2770    3.5402   -0.9855 C   0  0  0  0  0  0  0  0  0  0  0  0
    9.2657    3.7544    0.1685 C   0  0  0  0  0  0  0  0  0  0  0  0
   10.3292    2.6492    0.1765 C   0  0  0  0  0  0  0  0  0  0  0  0
   11.1046    2.6534   -1.1403 C   0  0  0  0  0  0  0  0  0  0  0  0
   11.7729    4.0158   -1.4113 C   0  0  0  0  0  0  0  0  0  0  0  0
   12.7721    4.2931   -0.2804 C   0  0  0  0  0  0  0  0  0  0  0  0
   12.4458    4.0696   -2.7863 C   0  0  0  0  0  0  0  0  0  0  0  0
   11.4721    3.8603   -3.9332 C   0  0  0  0  0  0  0  0  0  0  0  0
   11.3486    4.9014   -4.7786 O   0  0  0  0  0  0  0  0  0  0  0  0
   10.8377    2.8239   -4.1192 O   0  0  0  0  0  0  0  0  0  0  0  0
  1  4  2  0
  1  2  1  0
  1  3  1  0
  2  5  1  0
  3  6  2  0
  4  7  1  0
  5 10  1  0
  6  8  1  0
  7  8  2  0
  8  9  1  0
 10 11  1  0
 11 12  1  0
 12 13  1  0
 13 14  1  0
 14 15  1  0
 15 16  1  0
 16 17  1  0
 17 18  1  0
 18 19  1  0
 19 20  1  0
 20 21  1  0
 20 22  1  0
 22 23  1  0
 23 24  1  0
 23 25  2  0
M  ISO  1   9 123
M  END
>  <DRUGBANK_ID>  (1) 
DB05683

>  <COMMON_NAME>  (1) 
Iodofiltic acid I-123

>  <CAS_NUMBER>  (1) 
123748-56-1

>  <UNII>  (1) 
0J7USQ749M

>  <SYNONYMS>  (1) 
I-123 BMIPP; Iodofiltic acid (123I); Iodofiltic acid I 123

$$$$
