
     RDKit          3D

 26 29  0  0  0  0  0  0  0  0999 V2000
    0.7910   -0.0324   -0.0898 C   0  0  0  0  0  0  0  0  0  0  0  0
    0.4332    1.4323    0.1000 C   0  0  0  0  0  0  0  0  0  0  0  0
    1.0190    2.5021   -1.2193 S   0  0  0  0  0  0  0  0  0  0  0  0
    0.6874    1.8833   -2.4838 O   0  0  0  0  0  0  0  0  0  0  0  0
    0.5761    3.8488   -0.9164 O   0  0  0  0  0  0  0  0  0  0  0  0
    2.7134    2.4901   -1.0248 N   0  0  0  0  0  0  0  0  0  0  0  0
    3.5687    1.4222   -0.4327 C   0  0  0  0  0  0  0  0  0  0  0  0
    4.6514    2.4458   -0.0327 C   0  0  0  0  0  0  0  0  0  0  0  0
    3.4805    3.4709   -0.1937 C   0  0  0  0  0  0  0  0  0  0  0  0
    5.1954    2.2421    1.4024 C   0  0  0  0  0  0  0  0  0  0  0  0
    5.9837    1.0083    1.5171 C   0  0  0  0  0  0  0  0  0  0  0  0
    6.6195    0.0072    1.5511 N   0  0  0  0  0  0  0  0  0  0  0  0
    5.7432    2.5541   -1.0203 N   0  0  0  0  0  0  0  0  0  0  0  0
    5.7652    2.6763   -2.4092 C   0  0  0  0  0  0  0  0  0  0  0  0
    7.0784    2.3565   -2.8553 C   0  0  0  0  0  0  0  0  0  0  0  0
    7.7559    2.2841   -1.6184 C   0  0  0  0  0  0  0  0  0  0  0  0
    6.9951    2.4920   -0.5508 N   0  0  0  0  0  0  0  0  0  0  0  0
    7.6008    2.2974   -4.2950 C   0  0  0  0  0  0  0  0  0  0  0  0
    9.0495    2.2143   -4.7804 C   0  0  0  0  0  0  0  0  0  0  0  0
   10.4528    2.0530   -4.3008 C   0  0  0  0  0  0  0  0  0  0  0  0
   10.3224    2.9673   -3.2927 C   0  0  0  0  0  0  0  0  0  0  0  0
    9.5845    3.9677   -3.9846 N   0  0  0  0  0  0  0  0  0  0  0  0
    9.3166    3.4551   -5.3637 C   0  0  0  0  0  0  0  0  0  0  0  0
    8.5293    4.0044   -6.3237 N   0  0  0  0  0  0  0  0  0  0  0  0
    7.2465    3.6307   -6.1931 C   0  0  0  0  0  0  0  0  0  0  0  0
    6.7397    2.9584   -5.1477 N   0  0  0  0  0  0  0  0  0  0  0  0
  1  2  1  0
  2  3  1  0
  3  4  2  0
  3  5  2  0
  3  6  1  0
  6  7  1  0
  6  9  1  0
  7  8  1  0
  8  9  1  0
  8 10  1  0
  8 13  1  0
 10 11  1  0
 11 12  3  0
 13 14  1  0
 13 17  1  0
 14 15  2  0
 15 16  1  0
 15 18  1  0
 16 17  2  0
 18 19  2  0
 18 26  1  0
 19 20  1  0
 19 23  1  0
 20 21  2  0
 21 22  1  0
 22 23  1  0
 23 24  2  0
 24 25  1  0
 25 26  2  0
M  END
>  <DRUGBANK_ID>  (1) 
DB11817

>  <COMMON_NAME>  (1) 
Baricitinib

>  <CAS_NUMBER>  (1) 
1187594-09-7

>  <UNII>  (1) 
ISP4442I3Y

>  <SYNONYMS>  (1) 
Baricitinib

$$$$
