
     RDKit          3D

 24 27  0  0  0  0  0  0  0  0999 V2000
   -1.0499   -1.6699    0.0885 S   0  0  0  0  0  0  0  0  0  0  0  0
    4.3133   -0.3545   -1.4377 S   0  0  0  0  0  0  0  0  0  0  0  0
    3.9780    1.4213    3.5747 O   0  0  0  0  0  0  0  0  0  0  0  0
    3.0950    2.4988    1.8484 O   0  0  0  0  0  0  0  0  0  0  0  0
    7.9970   -2.7792   -1.0675 O   0  0  0  0  0  0  0  0  0  0  0  0
    7.3108   -3.6031    0.8840 O   0  0  0  0  0  0  0  0  0  0  0  0
   -0.0549    0.7018   -0.2869 N   0  0  0  0  0  0  0  0  0  0  0  0
    1.5955   -0.7914    0.0102 N   0  0  0  0  0  0  0  0  0  0  0  0
    5.5240   -1.6456    1.2818 N   0  0  0  0  0  0  0  0  0  0  0  0
   -1.4187    0.8623   -0.4022 C   0  0  0  0  0  0  0  0  0  0  0  0
   -2.3613    1.9985   -0.2801 C   0  0  0  0  0  0  0  0  0  0  0  0
   -3.0880    1.4923    0.9685 C   0  0  0  0  0  0  0  0  0  0  0  0
   -3.3883    0.0192    0.4850 C   0  0  0  0  0  0  0  0  0  0  0  0
   -2.0655   -0.2856   -0.1354 C   0  0  0  0  0  0  0  0  0  0  0  0
    0.3150   -0.6040   -0.0797 C   0  0  0  0  0  0  0  0  0  0  0  0
    1.0935    1.4368   -0.1770 C   0  0  0  0  0  0  0  0  0  0  0  0
    2.1214    0.4879   -0.1179 C   0  0  0  0  0  0  0  0  0  0  0  0
    3.6329    0.6641   -0.0613 C   0  0  1  0  0  0  0  0  0  0  0  0
    4.0984    0.3878    1.3485 C   0  0  0  0  0  0  0  0  0  0  0  0
    6.0263   -0.5820   -0.9427 C   0  0  0  0  0  0  0  0  0  0  0  0
    4.8016   -0.6439    1.8359 C   0  0  0  0  0  0  0  0  0  0  0  0
    6.1374   -1.6245    0.1367 C   0  0  0  0  0  0  0  0  0  0  0  0
    3.6555    1.4907    2.2708 C   0  0  0  0  0  0  0  0  0  0  0  0
    7.1817   -2.7701   -0.0180 C   0  0  0  0  0  0  0  0  0  0  0  0
  1 14  1  0
  1 15  1  0
  2 18  1  0
  2 20  1  0
  3 23  1  0
  4 23  2  0
  5 24  1  0
  6 24  2  0
  7 10  1  0
  7 15  1  0
  7 16  1  0
  8 15  2  0
  8 17  1  0
  9 21  1  0
  9 22  2  0
 10 11  1  0
 10 14  2  0
 11 12  1  0
 12 13  1  0
 13 14  1  0
 16 17  2  0
 18 17  1  1
 18 19  1  0
 19 21  2  0
 19 23  1  0
 20 22  1  0
 22 24  1  0
M  END
>  <DRUGBANK_ID>  (1) 
DB03970

>  <SECONDARY_ACCESSION_NUMBERS>  (1) 
EXPT03247

>  <COMMON_NAME>  (1) 
(7R)-7-(6,7-Dihydro-5H-cyclopenta[d]imidazo[2,1-b][1,3]thiazol-2-yl)-2,7-dihydro-1,4-thiazepine-3,6-dicarboxylic acid

$$$$
