
     RDKit          3D

 34 37  0  0  0  0  0  0  0  0999 V2000
   -0.9791    0.8872   -2.5524 C   0  0  2  0  0  0  0  0  0  0  0  0
   -0.5092    0.3109   -4.2283 C   0  0  2  0  0  0  0  0  0  0  0  0
   -2.6625    0.1514   -1.7523 C   0  0  2  0  0  0  0  0  0  0  0  0
   -0.5975    2.0250   -1.6433 C   0  0  0  0  0  0  0  0  0  0  0  0
   -0.6485   -1.4463   -4.3419 C   0  0  2  0  0  0  0  0  0  0  0  0
    0.6987    0.4760   -5.2718 C   0  0  0  0  0  0  0  0  0  0  0  0
   -2.4480    0.5601    0.0396 C   0  0  2  0  0  0  0  0  0  0  0  0
   -2.9185   -1.7261   -1.8238 C   0  0  1  0  0  0  0  0  0  0  0  0
   -1.0940    1.4978    0.0942 C   0  0  1  0  0  0  0  0  0  0  0  0
   -0.2672   -2.0024   -5.7236 C   0  0  2  0  0  0  0  0  0  0  0  0
   -2.4923   -1.6828   -3.6686 C   0  0  0  0  0  0  0  0  0  0  0  0
    0.8493   -2.4191   -3.4945 C   0  0  0  0  0  0  0  0  0  0  0  0
    0.9595   -1.0006   -5.9040 C   0  0  2  0  0  0  0  0  0  0  0  0
   -3.2226    1.6313    0.1032 C   0  0  0  0  0  0  0  0  0  0  0  0
   -2.4038    2.7309    0.0817 C   0  0  0  0  0  0  0  0  0  0  0  0
   -2.8824   -1.1096    1.0414 C   0  0  0  0  0  0  0  0  0  0  0  0
   -3.3255   -3.1293   -0.7981 O   0  0  0  0  0  0  0  0  0  0  0  0
   -0.2599    0.9317    0.9688 F   0  0  0  0  0  0  0  0  0  0  0  0
   -1.6881   -2.5221   -5.8234 C   0  0  0  0  0  0  0  0  0  0  0  0
    2.2792   -1.5055   -5.3416 C   0  0  0  0  0  0  0  0  0  0  0  0
   -4.1240    1.6147    1.0692 C   0  0  0  0  0  0  0  0  0  0  0  0
   -2.7642    3.6187    1.0383 C   0  0  0  0  0  0  0  0  0  0  0  0
   -1.9327   -4.0579   -4.9255 C   0  0  0  0  0  0  0  0  0  0  0  0
   -2.5826   -1.7417   -6.2022 O   0  0  0  0  0  0  0  0  0  0  0  0
   -3.6026    2.7725    1.8424 C   0  0  0  0  0  0  0  0  0  0  0  0
   -2.5796   -4.6047   -3.7819 O   0  0  0  0  0  0  0  0  0  0  0  0
   -3.7567    2.9792    3.0228 O   0  0  0  0  0  0  0  0  0  0  0  0
   -2.7500   -3.7652   -2.7772 C   0  0  0  0  0  0  0  0  0  0  0  0
   -1.0588   -3.0399   -2.2877 C   0  0  0  0  0  0  0  0  0  0  0  0
   -3.9350   -3.3530   -2.7429 O   0  0  0  0  0  0  0  0  0  0  0  0
   -0.6185   -1.3944   -2.1072 C   0  0  0  0  0  0  0  0  0  0  0  0
   -0.8681   -0.9174   -0.7717 C   0  0  0  0  0  0  0  0  0  0  0  0
   -0.0173   -1.0754    0.3272 C   0  0  0  0  0  0  0  0  0  0  0  0
    1.2612   -0.3098    0.0019 C   0  0  0  0  0  0  0  0  0  0  0  0
  1  2  1  0
  1  3  1  0
  1  4  1  6
  2  5  1  0
  2  6  1  1
  3  7  1  0
  3  8  1  1
  4  9  1  0
  5 10  1  0
  5 11  1  0
  5 12  1  1
  6 13  1  0
  7 14  1  0
  7 15  1  0
  7 16  1  1
  8 11  1  0
  8 17  1  1
  9 14  1  0
  9 18  1  6
 10 13  1  0
 10 19  1  1
 13 20  1  1
 14 21  2  0
 15 22  2  0
 19 23  1  0
 19 24  2  0
 21 25  1  0
 22 25  1  0
 23 26  1  0
 25 27  2  0
 26 28  1  0
 28 29  1  0
 28 30  2  0
 29 31  1  0
 31 32  1  0
 32 33  1  0
 33 34  1  0
M  END
>  <DRUGBANK_ID>  (1) 
DB15821

>  <COMMON_NAME>  (1) 
Fluocortolone caproate

>  <CAS_NUMBER>  (1) 
303-40-2

>  <UNII>  (1) 
90893P8662

>  <SYNONYMS>  (1) 
Fluocortolone 21-caproate; Fluocortolone 21-hexanoate; Fluocortolone caproate; Fluocortolone hexanoate

$$$$
