
     RDKit          3D

 28 30  0  0  0  0  0  0  0  0999 V2000
    0.7942   -0.0365    0.3706 C   0  0  0  0  0  0  0  0  0  0  0  0
    4.5771    3.1135   -0.0847 C   0  0  0  0  0  0  0  0  0  0  0  0
    5.4663   -1.7831   -1.4205 C   0  0  0  0  0  0  0  0  0  0  0  0
    7.6540    0.8439   -4.0807 C   0  0  0  0  0  0  0  0  0  0  0  0
    4.6902   -2.8534   -1.8567 C   0  0  0  0  0  0  0  0  0  0  0  0
    4.8144   -0.6831   -0.9269 C   0  0  0  0  0  0  0  0  0  0  0  0
    6.5919   -0.0476   -3.9397 C   0  0  0  0  0  0  0  0  0  0  0  0
    7.4726    2.1974   -3.7880 C   0  0  0  0  0  0  0  0  0  0  0  0
    3.2622   -2.8153   -1.8414 C   0  0  0  0  0  0  0  0  0  0  0  0
    3.4120   -0.6478   -0.9756 C   0  0  0  0  0  0  0  0  0  0  0  0
    5.4017    0.4702   -3.5329 C   0  0  0  0  0  0  0  0  0  0  0  0
    6.3979    2.6334   -3.1022 C   0  0  0  0  0  0  0  0  0  0  0  0
    0.4628    2.6332   -4.4059 C   0  0  0  0  0  0  0  0  0  0  0  0
    2.1644    1.0297   -4.5134 C   0  0  0  0  0  0  0  0  0  0  0  0
    0.0624    2.2459   -2.9451 C   0  0  0  0  0  0  0  0  0  0  0  0
    1.8380    0.8069   -3.0528 C   0  0  0  0  0  0  0  0  0  0  0  0
    2.9111    3.3329   -4.4038 C   0  0  0  0  0  0  0  0  0  0  0  0
    0.0787   -0.4385   -2.6582 C   0  0  0  0  0  0  0  0  0  0  0  0
    2.5630   -1.6634   -1.4651 C   0  0  0  0  0  0  0  0  0  0  0  0
    5.3146    1.7901   -2.9843 C   0  0  0  0  0  0  0  0  0  0  0  0
    3.2778    3.5219   -2.9071 C   0  0  0  0  0  0  0  0  0  0  0  0
    0.9718   -1.4558   -1.5975 C   0  0  0  0  0  0  0  0  0  0  0  0
    4.1133    2.3531   -2.3115 C   0  0  0  0  0  0  0  0  0  0  0  0
    1.8569    2.3920   -4.8634 N   0  0  0  0  0  0  0  0  0  0  0  0
    0.5271    0.9197   -2.5358 N   0  0  0  0  0  0  0  0  0  0  0  0
    3.9097    4.7915   -2.6941 O   0  0  0  0  0  0  0  0  0  0  0  0
    0.4380   -1.2631   -0.2682 O   0  0  0  0  0  0  0  0  0  0  0  0
    3.9001    2.2185   -0.9078 O   0  0  0  0  0  0  0  0  0  0  0  0
  5  3  2  0
  6  3  1  0
  7  4  2  0
  8  4  1  0
  9  5  1  0
 10  6  2  0
 11  7  1  0
 12  8  2  0
 15 13  1  0
 16 14  1  0
 19  9  2  0
 19 10  1  0
 20 11  2  0
 20 12  1  0
 21 17  1  0
 22 18  1  0
 22 19  1  0
 23 20  1  0
 23 21  1  0
 24 13  1  0
 24 14  1  0
 24 17  1  0
 25 15  1  0
 25 16  1  0
 25 18  1  0
 26 21  1  0
 27  1  1  0
 27 22  1  0
 28  2  1  0
 28 23  1  0
M  END
>  <DRUGBANK_ID>  (1) 
DB13564

>  <COMMON_NAME>  (1) 
Zipeprol

>  <CAS_NUMBER>  (1) 
34758-83-3

>  <UNII>  (1) 
G5MUV8139H

>  <SYNONYMS>  (1) 
Zipeprol

$$$$
