
     RDKit          3D

 33 36  0  0  0  0  0  0  0  0999 V2000
   -0.3753   -0.0043   -0.0166 C   0  0  0  0  0  0  0  0  0  0  0  0
    8.3650   -0.7167   -0.8203 C   0  0  0  0  0  0  0  0  0  0  0  0
    7.3172   -1.8243   -2.7581 C   0  0  0  0  0  0  0  0  0  0  0  0
    9.1624   -1.4170   -4.3588 C   0  0  0  0  0  0  0  0  0  0  0  0
   10.1027   -1.9316   -5.2653 C   0  0  0  0  0  0  0  0  0  0  0  0
   10.8157   -3.0627   -4.8297 C   0  0  0  0  0  0  0  0  0  0  0  0
    9.3764   -3.2741   -2.8703 C   0  0  0  0  0  0  0  0  0  0  0  0
    3.9062    0.0151    0.0397 C   0  0  0  0  0  0  0  0  0  0  0  0
    4.5854    0.6191    1.1032 C   0  0  0  0  0  0  0  0  0  0  0  0
    5.9254    0.6743    1.2806 N   0  0  0  0  0  0  0  0  0  0  0  0
    4.6870   -0.5972   -0.9611 C   0  0  0  0  0  0  0  0  0  0  0  0
    7.9626   -0.0360    0.2823 N   0  0  0  0  0  0  0  0  0  0  0  0
    7.2390   -1.0805   -1.5335 C   0  0  0  0  0  0  0  0  0  0  0  0
    6.0952   -0.5844   -0.8213 C   0  0  0  0  0  0  0  0  0  0  0  0
    6.6032    0.0584    0.3019 C   0  0  0  0  0  0  0  0  0  0  0  0
    2.4375    0.0093   -0.0016 C   0  0  0  0  0  0  0  0  0  0  0  0
    8.6832   -2.1536   -3.2726 C   0  0  0  0  0  0  0  0  0  0  0  0
   10.4881   -3.6904   -3.6052 C   0  0  0  0  0  0  0  0  0  0  0  0
    8.9998   -3.9545   -1.7809 F   0  0  0  0  0  0  0  0  0  0  0  0
    8.5528   -0.2606   -4.5689 F   0  0  0  0  0  0  0  0  0  0  0  0
   10.2301   -1.5405   -6.6588 N   0  0  0  0  0  0  0  0  0  0  0  0
    9.2656   -0.5545   -7.6175 S   0  0  0  0  0  0  0  0  0  0  0  0
    9.9482    0.7064   -7.6971 O   0  0  0  0  0  0  0  0  0  0  0  0
    9.0273   -1.3040   -8.8519 O   0  0  0  0  0  0  0  0  0  0  0  0
    7.6525   -0.2881   -6.8954 C   0  0  0  0  0  0  0  0  0  0  0  0
    6.7767   -1.5352   -6.6769 C   0  0  0  0  0  0  0  0  0  0  0  0
    7.3647   -2.8474   -6.1755 C   0  0  0  0  0  0  0  0  0  0  0  0
    1.7096    1.2122   -0.0031 C   0  0  0  0  0  0  0  0  0  0  0  0
    0.3113    1.2068   -0.0128 C   0  0  0  0  0  0  0  0  0  0  0  0
    0.3235   -1.2085   -0.0206 C   0  0  0  0  0  0  0  0  0  0  0  0
    1.7221   -1.2000   -0.0122 C   0  0  0  0  0  0  0  0  0  0  0  0
   -2.0954   -0.0121   -0.0115 Cl  0  0  0  0  0  0  0  0  0  0  0  0
    6.3006   -2.1308   -3.3900 O   0  0  0  0  0  0  0  0  0  0  0  0
  1 30  2  0
  1 32  1  0
  2 12  1  0
  2 13  2  0
  3 17  1  0
  3 33  2  0
  4  5  2  0
  4 20  1  0
  5  6  1  0
  5 21  1  0
  6 18  2  0
  7 19  1  0
  8  9  1  0
  8 11  2  0
  8 16  1  0
  9 10  2  0
 11 14  1  0
 13  3  1  0
 14 13  1  0
 14 15  2  0
 15 10  1  0
 15 12  1  0
 16 28  1  0
 16 31  2  0
 17  4  1  0
 17  7  2  0
 18  7  1  0
 21 22  1  0
 23 22  2  0
 24 22  2  0
 25 22  1  0
 25 26  1  0
 26 27  1  0
 28 29  2  0
 29  1  1  0
 30 31  1  0
M  END
>  <DRUGBANK_ID>  (1) 
DB08881

>  <SECONDARY_ACCESSION_NUMBERS>  (1) 
DB05238

>  <COMMON_NAME>  (1) 
Vemurafenib

>  <CAS_NUMBER>  (1) 
918504-65-1

>  <UNII>  (1) 
207SMY3FQT

>  <SYNONYMS>  (1) 
Vémurafénib; Vemurafenib; Vemurafenibum

$$$$
