
     RDKit          3D

 17 17  0  0  0  0  0  0  0  0999 V2000
    0.9218   -0.1854   -0.1456 C   0  0  0  0  0  0  0  0  0  0  0  0
    0.5991    0.8525    0.9181 C   0  0  0  0  0  0  0  0  0  0  0  0
    1.1110    2.2116    0.3239 C   0  0  0  0  0  0  0  0  0  0  0  0
   -0.8285    0.8313    1.4828 N   0  0  0  0  0  0  0  0  0  0  0  0
   -1.1540    2.2828    2.2423 P   0  0  0  0  0  0  0  0  0  0  0  0
    0.5070    2.5293    3.3585 S   0  0  0  0  0  0  0  0  0  0  0  0
   -1.9228    2.9078    0.9334 O   0  0  0  0  0  0  0  0  0  0  0  0
   -2.5606    2.2568   -0.1754 C   0  0  0  0  0  0  0  0  0  0  0  0
   -2.1946    3.0866    3.2423 O   0  0  0  0  0  0  0  0  0  0  0  0
   -1.7048    4.4401    3.5834 C   0  0  0  0  0  0  0  0  0  0  0  0
   -1.4879    4.7156    4.9497 C   0  0  0  0  0  0  0  0  0  0  0  0
   -0.6216    5.7644    5.3705 C   0  0  0  0  0  0  0  0  0  0  0  0
    0.0714    6.5326    4.4181 C   0  0  0  0  0  0  0  0  0  0  0  0
   -0.1211    6.2880    3.0892 C   0  0  0  0  0  0  0  0  0  0  0  0
   -1.0311    5.3099    2.6470 C   0  0  0  0  0  0  0  0  0  0  0  0
   -1.1461    5.3297    0.9263 Cl  0  0  0  0  0  0  0  0  0  0  0  0
    1.1467    7.7886    4.9023 Cl  0  0  0  0  0  0  0  0  0  0  0  0
  1  2  1  0
  2  3  1  0
  2  4  1  0
  4  5  1  0
  5  6  2  0
  5  7  1  0
  5  9  1  0
  7  8  1  0
  9 10  1  0
 10 11  2  0
 10 15  1  0
 11 12  1  0
 12 13  2  0
 13 14  1  0
 13 17  1  0
 14 15  2  0
 15 16  1  0
M  END
>  <DRUGBANK_ID>  (1) 
DB11768

>  <COMMON_NAME>  (1) 
Zytron

>  <CAS_NUMBER>  (1) 
299-85-4

>  <UNII>  (1) 
IK51552IFH

>  <SYNONYMS>  (1) 
DMPA; O-(2,4-dichlorophenyl)-O-methyl-isopropylphosphoramidothioate

$$$$
