
     RDKit          3D

 23 26  0  0  1  0  0  0  0  0999 V2000
    0.0648    0.4553   -3.6990 O   0  0  0  0  0  0  0  0  0  0  0  0
    0.2375   -0.7614   -4.4458 C   0  0  2  0  0  0  0  0  0  0  0  0
   -1.0545   -1.5714   -4.4651 C   0  0  0  0  0  0  0  0  0  0  0  0
   -1.7700   -1.5638   -5.8149 C   0  0  2  0  0  0  0  0  0  0  0  0
   -3.2115   -1.6514   -5.5879 N   0  0  0  0  0  0  0  0  0  0  0  0
   -4.1439   -0.9319   -4.9391 C   0  0  0  0  0  0  0  0  0  0  0  0
   -5.3040   -1.5626   -4.9801 N   0  0  0  0  0  0  0  0  0  0  0  0
   -5.0767   -2.7452   -5.6713 C   0  0  0  0  0  0  0  0  0  0  0  0
   -3.7714   -2.8163   -6.0405 C   0  0  0  0  0  0  0  0  0  0  0  0
   -2.7634   -3.6033   -6.6809 C   0  0  0  0  0  0  0  0  0  0  0  0
   -2.8406   -4.8431   -7.2807 C   0  0  0  0  0  0  0  0  0  0  0  0
   -1.6655   -5.3845   -7.8126 C   0  0  0  0  0  0  0  0  0  0  0  0
   -0.4510   -4.6828   -7.7225 C   0  0  0  0  0  0  0  0  0  0  0  0
   -0.4022   -3.4284   -7.1095 C   0  0  0  0  0  0  0  0  0  0  0  0
    0.7627   -2.7815   -7.0226 F   0  0  0  0  0  0  0  0  0  0  0  0
   -1.5558   -2.8780   -6.5865 C   0  0  0  0  0  0  0  0  0  0  0  0
    1.4144   -1.4935   -3.7585 C   0  0  1  0  0  0  0  0  0  0  0  0
    1.1586   -2.9461   -3.2963 C   0  0  0  0  0  0  0  0  0  0  0  0
    2.3911   -3.5516   -2.6513 C   0  0  0  0  0  0  0  0  0  0  0  0
    3.5516   -3.5135   -3.6384 C   0  0  2  0  0  0  0  0  0  0  0  0
    4.7144   -4.0459   -3.0242 O   0  0  0  0  0  0  0  0  0  0  0  0
    3.8341   -2.0879   -4.1060 C   0  0  0  0  0  0  0  0  0  0  0  0
    2.6077   -1.4452   -4.7187 C   0  0  0  0  0  0  0  0  0  0  0  0
  2  3  1  0
  2  1  1  1
  4  5  1  0
  4 16  1  0
  4  3  1  1
  5  6  1  0
  5  9  1  0
  6  7  2  0
  7  8  1  0
  8  9  2  0
  9 10  1  0
 10 11  2  0
 10 16  1  0
 11 12  1  0
 12 13  2  0
 13 14  1  0
 14 15  1  0
 14 16  2  0
 17 18  1  6
 17 23  1  0
 17  2  1  0
 18 19  1  0
 20 19  1  0
 20 21  1  1
 20 22  1  0
 22 23  1  0
M  END
>  <DRUGBANK_ID>  (1) 
DB15439

>  <COMMON_NAME>  (1) 
Navoximod

>  <CAS_NUMBER>  (1) 
1402837-78-8

>  <UNII>  (1) 
926SHL95NC

>  <SYNONYMS>  (1) 
Navoximod

$$$$
