
     RDKit          3D

 24 28  0  0  0  0  0  0  0  0999 V2000
    1.0858   -0.0565    0.0335 C   0  0  0  0  0  0  0  0  0  0  0  0
    0.3923   -0.6544    1.1560 N   0  0  0  0  0  0  0  0  0  0  0  0
    0.4980   -1.8989    2.1905 C   0  0  0  0  0  0  0  0  0  0  0  0
   -0.4110   -3.6606    1.3453 C   0  0  0  0  0  0  0  0  0  0  0  0
   -0.5495   -4.5467   -0.0352 C   0  0  0  0  0  0  0  0  0  0  0  0
   -1.7125   -4.6676   -1.2450 C   0  0  0  0  0  0  0  0  0  0  0  0
   -2.7772   -3.8130   -1.2587 C   0  0  0  0  0  0  0  0  0  0  0  0
   -2.7654   -3.1017   -0.1017 C   0  0  0  0  0  0  0  0  0  0  0  0
   -1.6636   -3.1785    0.9017 C   0  0  0  0  0  0  0  0  0  0  0  0
   -1.3357   -2.0611    1.4800 C   0  0  0  0  0  0  0  0  0  0  0  0
   -1.8432   -2.0113    2.6232 O   0  0  0  0  0  0  0  0  0  0  0  0
    0.5594   -1.9923    0.8294 C   0  0  0  0  0  0  0  0  0  0  0  0
    1.9280   -2.6791    1.9641 C   0  0  0  0  0  0  0  0  0  0  0  0
    1.9835   -1.5977    2.6838 C   0  0  0  0  0  0  0  0  0  0  0  0
    2.7800   -1.2822    3.9799 C   0  0  0  0  0  0  0  0  0  0  0  0
    3.1715   -0.1677    4.3290 O   0  0  0  0  0  0  0  0  0  0  0  0
    3.3560   -2.4398    4.7023 C   0  0  0  0  0  0  0  0  0  0  0  0
    4.3171   -2.3754    5.7598 C   0  0  0  0  0  0  0  0  0  0  0  0
    4.7830   -3.5612    6.3607 C   0  0  0  0  0  0  0  0  0  0  0  0
    4.2864   -4.7889    5.9286 C   0  0  0  0  0  0  0  0  0  0  0  0
    3.3545   -4.8343    4.8884 C   0  0  0  0  0  0  0  0  0  0  0  0
    2.9177   -3.6705    4.2416 C   0  0  0  0  0  0  0  0  0  0  0  0
    2.0550   -3.8197    3.0077 C   0  0  0  0  0  0  0  0  0  0  0  0
    1.4966   -4.8951    2.8383 O   0  0  0  0  0  0  0  0  0  0  0  0
  1  2  1  0
  2  3  1  0
  2 12  1  0
  3  4  1  0
  3 14  1  0
  4  5  2  0
  4  9  1  0
  5  6  1  0
  6  7  2  0
  7  8  1  0
  8  9  2  0
  9 10  1  0
 10 11  2  0
 10 12  1  0
 12 13  1  0
 13 14  2  0
 13 23  1  0
 14 15  1  0
 15 16  2  0
 15 17  1  0
 17 18  2  0
 17 22  1  0
 18 19  1  0
 19 20  2  0
 20 21  1  0
 21 22  2  0
 22 23  1  0
 23 24  2  0
M  END
>  <DRUGBANK_ID>  (1) 
DB12467

>  <COMMON_NAME>  (1) 
TU-100

>  <CAS_NUMBER>  (1) 
1310907-71-1

>  <UNII>  (1) 
N3KQ8A1E0X

$$$$
