
     RDKit          3D

 22 25  0  0  0  0  0  0  0  0999 V2000
    0.9584    0.1073    0.1631 C   0  0  0  0  0  0  0  0  0  0  0  0
    0.7857    1.3100   -3.6132 C   0  0  0  0  0  0  0  0  0  0  0  0
    0.3522   -3.7217   -1.9944 C   0  0  0  0  0  0  0  0  0  0  0  0
   -0.3220   -4.8410   -1.1990 C   0  0  0  0  0  0  0  0  0  0  0  0
   -3.8796   -3.2618   -1.4622 C   0  0  0  0  0  0  0  0  0  0  0  0
   -4.6445   -4.6233   -1.8128 C   0  0  0  0  0  0  0  0  0  0  0  0
   -1.8005   -0.7781   -0.6391 C   0  0  0  0  0  0  0  0  0  0  0  0
    2.3395   -1.0088   -2.3224 C   0  0  0  0  0  0  0  0  0  0  0  0
   -1.0669    0.3594   -1.3443 C   0  0  0  0  0  0  0  0  0  0  0  0
    2.6502    0.5156   -2.0863 C   0  0  0  0  0  0  0  0  0  0  0  0
   -2.3714   -3.2943   -0.7799 C   0  0  2  0  0  0  0  0  0  0  0  0
   -1.4774   -2.1252   -1.3331 C   0  0  2  0  0  0  0  0  0  0  0  0
    0.0911   -2.3783   -1.3332 C   0  0  2  0  0  0  0  0  0  0  0  0
   -1.8032   -4.6767   -0.9672 C   0  0  0  0  0  0  0  0  0  0  0  0
    0.8037   -1.1889   -2.0524 C   0  0  1  0  0  0  0  0  0  0  0  0
   -4.1115   -5.3299   -0.6397 C   0  0  0  0  0  0  0  0  0  0  0  0
   -2.6601   -5.7166   -0.9586 C   0  0  0  0  0  0  0  0  0  0  0  0
    0.4473    0.1250   -1.3242 C   0  0  2  0  0  0  0  0  0  0  0  0
    1.2469    1.1576   -2.1454 C   0  0  2  0  0  0  0  0  0  0  0  0
   -4.6267   -5.2578    0.4467 O   0  0  0  0  0  0  0  0  0  0  0  0
   -2.3542   -6.8237   -1.7336 O   0  0  0  0  0  0  0  0  0  0  0  0
    1.2128    2.4406   -1.5412 O   0  0  0  0  0  0  0  0  0  0  0  0
  4  3  1  0
  6  5  1  0
  9  7  1  0
 10  8  1  0
 11  5  1  6
 12  7  1  1
 12 11  1  0
 13  3  1  6
 13 12  1  0
 14  4  1  0
 14 11  1  0
 15  8  1  1
 15 13  1  0
 16  6  1  0
 17 14  2  0
 17 16  1  0
 18  1  1  1
 18  9  1  0
 18 15  1  0
 19 10  1  0
 19 18  1  0
 19 22  1  0
 19  2  1  6
 20 16  2  0
 21 17  1  0
M  END
>  <DRUGBANK_ID>  (1) 
DB01540

>  <COMMON_NAME>  (1) 
17alpha-methyl-4-hydroxynandrolone

>  <CAS_NUMBER>  (1) 
2747-16-2

>  <UNII>  (1) 
AL9HUA7C4C

>  <SYNONYMS>  (1) 
17Î±-Methyl-4-hydroxynandrolone; 4-Hydroxy-19-normethyltestosterone

$$$$
