
     RDKit          3D

 20 23  0  0  0  0  0  0  0  0999 V2000
   -1.0792    0.4962    0.1435 N   0  0  0  0  0  0  0  0  0  0  0  0
   -0.8347   -0.9150   -0.2332 C   0  0  1  0  0  0  0  0  0  0  0  0
    0.5820   -1.1505    0.2531 C   0  0  0  0  0  0  0  0  0  0  0  0
    1.2811    0.1462   -0.1210 C   0  0  0  0  0  0  0  0  0  0  0  0
    0.1972    1.2075   -0.0078 C   0  0  0  0  0  0  0  0  0  0  0  0
   -3.2029   -1.5267   -0.0167 N   0  0  0  0  0  0  0  0  0  0  0  0
   -1.9669   -1.8457    0.2664 C   0  0  0  0  0  0  0  0  0  0  0  0
   -1.5858   -3.0297    0.8919 N   0  0  0  0  0  0  0  0  0  0  0  0
   -2.4683   -4.0513    1.2118 C   0  0  0  0  0  0  0  0  0  0  0  0
   -4.1430   -2.5098    0.3040 C   0  0  0  0  0  0  0  0  0  0  0  0
   -3.8061   -3.7080    0.8629 C   0  0  0  0  0  0  0  0  0  0  0  0
   -4.9010   -4.5032    1.0020 O   0  0  0  0  0  0  0  0  0  0  0  0
   -5.5315   -2.5175    0.0703 C   0  0  0  0  0  0  0  0  0  0  0  0
   -5.9589   -3.7722    0.5174 C   0  0  0  0  0  0  0  0  0  0  0  0
   -7.2877   -4.1983    0.4631 C   0  0  0  0  0  0  0  0  0  0  0  0
   -8.2197   -3.2968   -0.0691 C   0  0  0  0  0  0  0  0  0  0  0  0
   -7.8211   -2.0389   -0.5271 C   0  0  0  0  0  0  0  0  0  0  0  0
   -6.4819   -1.6314   -0.4710 C   0  0  0  0  0  0  0  0  0  0  0  0
   -9.0049   -0.9644   -1.1718 Cl  0  0  0  0  0  0  0  0  0  0  0  0
   -2.0774   -5.1032    1.7115 O   0  0  0  0  0  0  0  0  0  0  0  0
  1  2  1  0
  2  3  1  0
  2  7  1  1
  3  4  1  0
  4  5  1  0
  5  1  1  0
  6  7  2  0
  7  8  1  0
  8  9  1  0
  9 20  2  0
 10  6  1  0
 10 11  2  0
 11 12  1  0
 11  9  1  0
 12 14  1  0
 13 10  1  0
 13 14  2  0
 14 15  1  0
 15 16  2  0
 16 17  1  0
 17 18  2  0
 17 19  1  0
 18 13  1  0
M  END
>  <DRUGBANK_ID>  (1) 
DB12357

>  <COMMON_NAME>  (1) 
BMS-863233

>  <CAS_NUMBER>  (1) 
1169558-38-6

>  <UNII>  (1) 
8QK62S7492

$$$$
