
     RDKit          3D

 21 24  0  0  0  0  0  0  0  0999 V2000
    1.6780    0.4846    2.4787 C   0  0  0  0  0  0  0  0  0  0  0  0
    0.2114    0.3381    2.1632 C   0  0  0  0  0  0  0  0  0  0  0  0
    0.5586    1.8361    1.4872 C   0  0  0  0  0  0  0  0  0  0  0  0
   -0.2324    2.8292    2.2294 C   0  0  0  0  0  0  0  0  0  0  0  0
    0.3151    2.7413    3.6460 C   0  0  2  0  0  0  0  0  0  0  0  0
    0.2775    4.2054    4.1603 C   0  0  0  0  0  0  0  0  0  0  0  0
    0.5432    4.5557    5.6489 C   0  0  0  0  0  0  0  0  0  0  0  0
    1.9269    4.0782    6.1343 C   0  0  2  0  0  0  0  0  0  0  0  0
    1.9290    2.3079    5.5591 C   0  0  1  0  0  0  0  0  0  0  0  0
    1.7222    1.9607    3.7256 C   0  0  1  0  0  0  0  0  0  0  0  0
    3.1993    1.7620    6.1714 C   0  0  0  0  0  0  0  0  0  0  0  0
    3.3906    2.2312    7.6040 C   0  0  0  0  0  0  0  0  0  0  0  0
    3.6351    3.7199    7.8092 C   0  0  1  0  0  0  0  0  0  0  0  0
    2.4760    4.7076    7.8365 C   0  0  1  0  0  0  0  0  0  0  0  0
    3.5087    5.7539    9.0779 C   0  0  0  0  0  0  0  0  0  0  0  0
    4.7574    4.9342    9.5385 C   0  0  0  0  0  0  0  0  0  0  0  0
    3.9447    3.7848    9.2785 C   0  0  0  0  0  0  0  0  0  0  0  0
    4.7054    4.3353    6.8670 C   0  0  0  0  0  0  0  0  0  0  0  0
    2.9414    2.7504    3.3105 C   0  0  0  0  0  0  0  0  0  0  0  0
    1.4801    2.2413    0.8352 O   0  0  0  0  0  0  0  0  0  0  0  0
    3.2362    3.3034   10.1851 O   0  0  0  0  0  0  0  0  0  0  0  0
  1 10  1  0
  2  1  1  0
  3  4  1  0
  3  2  1  0
  5  4  1  6
  5 10  1  0
  6  7  1  0
  6  5  1  0
  8  7  1  1
  8 14  1  0
  8  9  1  0
 10  9  1  0
 10 19  1  6
  9 11  1  6
 11 12  1  0
 12 13  1  0
 13 18  1  6
 14 13  1  0
 14 15  1  1
 16 17  1  0
 16 15  1  0
 17 13  1  0
 20  3  2  0
 21 17  2  0
M  END
>  <DRUGBANK_ID>  (1) 
DB07375

>  <COMMON_NAME>  (1) 
Etiocholanedione

>  <CAS_NUMBER>  (1) 
1229-12-5

>  <UNII>  (1) 
213MVW2TZD

>  <SYNONYMS>  (1) 
5beta-androstane-3,17-dione; 5Î²-androstane-3,17-dione; Etiocholane-3,17-dione

$$$$
