
     RDKit          3D

 23 22  0  0  0  0  0  0  0  0999 V2000
    4.5497    1.5490   -3.9617 S   0  0  0  0  0  0  0  0  0  0  0  0
    3.0720    1.8243   -4.6945 O   0  0  0  0  0  0  0  0  0  0  0  0
    0.2075   -0.7248   -1.4007 O   0  0  0  0  0  0  0  0  0  0  0  0
    3.7566    2.8890    1.0992 O   0  0  0  0  0  0  0  0  0  0  0  0
    4.5853    3.0214   -3.8631 O   0  0  0  0  0  0  0  0  0  0  0  0
    5.3769    0.9485   -4.9935 O   0  0  0  0  0  0  0  0  0  0  0  0
    7.0003    1.4361   -1.8277 O   0  0  0  0  0  0  0  0  0  0  0  0
    6.6329    3.1851   -3.0390 O   0  0  0  0  0  0  0  0  0  0  0  0
   -0.0298    3.6578   -3.4875 O   0  0  0  0  0  0  0  0  0  0  0  0
   -0.8141    2.7928   -1.5200 O   0  0  0  0  0  0  0  0  0  0  0  0
    2.0423    0.0341   -0.2801 N   0  0  0  0  0  0  0  0  0  0  0  0
    2.0048    3.2809   -0.3703 N   0  0  0  0  0  0  0  0  0  0  0  0
    3.9545    3.5149   -1.5690 N   0  0  0  0  0  0  0  0  0  0  0  0
    3.3479    0.6899   -0.3729 C   0  0  1  0  0  0  0  0  0  0  0  0
    4.5468    0.2158   -1.9451 C   0  0  0  0  0  0  0  0  0  0  0  0
    2.2643   -0.6576   -2.4952 C   0  0  0  0  0  0  0  0  0  0  0  0
    2.8411    0.8956   -2.6429 C   0  0  0  0  0  0  0  0  0  0  0  0
    1.4046   -0.5210   -1.3378 C   0  0  0  0  0  0  0  0  0  0  0  0
    4.2878    2.1532   -1.8101 C   0  0  1  0  0  0  0  0  0  0  0  0
    2.9510    2.3706    0.2936 C   0  0  0  0  0  0  0  0  0  0  0  0
    6.1420    2.3813   -2.2533 C   0  0  0  0  0  0  0  0  0  0  0  0
    1.4884    3.0605   -1.7362 C   0  0  0  0  0  0  0  0  0  0  0  0
    0.1018    3.2033   -2.2113 C   0  0  0  0  0  0  0  0  0  0  0  0
  1  2  1  0
  1  5  2  0
  1  6  2  0
  1 15  1  0
  3 18  2  0
  4 20  2  0
  7 21  1  0
  8 21  2  0
  9 23  1  0
 10 23  2  0
 11 18  1  0
 12 20  1  0
 12 22  1  0
 14 20  1  0
 14 15  1  6
 14 11  1  0
 16 17  1  0
 16 18  1  0
 19 21  1  0
 19 17  1  0
 19 13  1  6
 22 23  1  0
M  END
>  <DRUGBANK_ID>  (1) 
DB03003

>  <SECONDARY_ACCESSION_NUMBERS>  (1) 
EXPT01662

>  <COMMON_NAME>  (1) 
Glutathione sulfonic acid

>  <CAS_NUMBER>  (1) 
3773-07-7

>  <UNII>  (1) 
ZU672FB3GH

$$$$
