AND
     RDKit          3D

 21 24  0  0  0  0  0  0  0  0999 V2000
   -1.3293    0.0390   -0.0843 C   0  0  0  0  0  0  0  0  0  0  0  0
   -2.6524   -0.3314   -0.8453 C   0  0  0  0  0  0  0  0  0  0  0  0
   -3.3470    1.0195   -1.1173 C   0  0  2  0  0  0  0  0  0  0  0  0
   -4.6771    0.9281   -1.6021 O   0  0  0  0  0  0  0  0  0  0  0  0
   -2.5195    1.9302   -2.0270 C   0  0  0  0  0  0  0  0  0  0  0  0
   -1.1861    2.1996   -1.3369 C   0  0  0  0  0  0  0  0  0  0  0  0
   -0.7649    3.4176   -0.9246 C   0  0  0  0  0  0  0  0  0  0  0  0
    0.5323    3.7253   -0.1221 C   0  0  0  0  0  0  0  0  0  0  0  0
    1.0814    2.5019    0.7232 C   0  0  1  0  0  0  0  0  0  0  0  0
    1.0596    1.3533   -0.5072 C   0  0  2  0  0  0  0  0  0  0  0  0
   -0.3948    0.9247   -1.0628 C   0  0  1  0  0  0  0  0  0  0  0  0
    1.8649    0.0992   -0.2676 C   0  0  0  0  0  0  0  0  0  0  0  0
    3.2040    0.4065    0.3081 C   0  0  0  0  0  0  0  0  0  0  0  0
    3.0807    1.2357    1.5470 C   0  0  2  0  0  0  0  0  0  0  0  0
    2.6302    2.6925    1.6011 C   0  0  2  0  0  0  0  0  0  0  0  0
    3.5041    2.8121    3.2333 C   0  0  0  0  0  0  0  0  0  0  0  0
    4.4992    1.5538    3.4084 C   0  0  0  0  0  0  0  0  0  0  0  0
    4.4950    1.4921    1.9791 C   0  0  0  0  0  0  0  0  0  0  0  0
    5.3755    2.0758    1.2597 O   0  0  0  0  0  0  0  0  0  0  0  0
    2.0486    0.5694    2.5969 C   0  0  0  0  0  0  0  0  0  0  0  0
   -0.2164    0.1353   -2.4410 C   0  0  0  0  0  0  0  0  0  0  0  0
  1  2  1  0
  1 11  1  0
  2  3  1  0
  3  5  1  0
  3  4  1  6
  5  6  1  0
  6  7  2  0
  6 11  1  0
  7  8  1  0
  9  8  1  6
  9 10  1  0
  9 15  1  0
 10 11  1  0
 10 12  1  1
 11 21  1  6
 12 13  1  0
 13 14  1  0
 14 15  1  0
 14 18  1  0
 14 20  1  1
 15 16  1  1
 16 17  1  0
 17 18  1  0
 18 19  2  0
M  END
>  <DRUGBANK_ID>  (1) 
DB01708

>  <SECONDARY_ACCESSION_NUMBERS>  (1) 
EXPT00519; DB06593

>  <COMMON_NAME>  (1) 
Prasterone

>  <CAS_NUMBER>  (1) 
53-43-0

>  <UNII>  (1) 
459AG36T1B

>  <SYNONYMS>  (1) 
3-beta-hydroxy-5-androsten-17-one; 3beta-hydroxyandrost-5-en-17-one; 3Î²-hydroxyandrost-5-en-17-one; Dehydroandrosterone; Dehydroepiandrosterone; Dehydroisoandrosterone; DHEA; Prasterone

$$$$
