
     RDKit          3D

 22 24  0  0  0  0  0  0  0  0999 V2000
    1.1477    0.0536    0.1370 Cl  0  0  0  0  0  0  0  0  0  0  0  0
    2.8764    0.0853   -0.0376 C   0  0  0  0  0  0  0  0  0  0  0  0
    3.6721   -0.9981    0.0659 C   0  0  0  0  0  0  0  0  0  0  0  0
    3.2273   -2.2030    0.5224 N   0  0  0  0  0  0  0  0  0  0  0  0
    3.6958   -3.5683    0.2649 C   0  0  0  0  0  0  0  0  0  0  0  0
    2.9910   -4.5305    1.2477 C   0  0  0  0  0  0  0  0  0  0  0  0
    1.5202   -4.7310    1.1376 N   0  0  0  0  0  0  0  0  0  0  0  0
    1.1007   -5.7672    0.1771 C   0  0  0  0  0  0  0  0  0  0  0  0
    1.3158   -5.3964   -1.2937 C   0  0  0  0  0  0  0  0  0  0  0  0
    0.5511   -4.2252   -1.6168 O   0  0  0  0  0  0  0  0  0  0  0  0
    0.9211   -3.1444   -0.7647 C   0  0  0  0  0  0  0  0  0  0  0  0
    0.7764   -3.5130    0.7728 C   0  0  0  0  0  0  0  0  0  0  0  0
    5.1396   -0.9340   -0.1072 C   0  0  0  0  0  0  0  0  0  0  0  0
    5.8482   -1.9151   -0.1902 O   0  0  0  0  0  0  0  0  0  0  0  0
    5.7062    0.3980   -0.1005 C   0  0  0  0  0  0  0  0  0  0  0  0
    4.8986    1.5143   -0.0987 C   0  0  0  0  0  0  0  0  0  0  0  0
    5.5081    2.7482   -0.0616 C   0  0  0  0  0  0  0  0  0  0  0  0
    6.8957    2.7966   -0.0453 C   0  0  0  0  0  0  0  0  0  0  0  0
    7.6227    1.6173   -0.0499 C   0  0  0  0  0  0  0  0  0  0  0  0
    7.0539    0.4131   -0.0717 N   0  0  0  0  0  0  0  0  0  0  0  0
    3.4403    1.4406   -0.1213 C   0  0  0  0  0  0  0  0  0  0  0  0
    2.7632    2.4482   -0.1210 O   0  0  0  0  0  0  0  0  0  0  0  0
  1  2  1  0
  2  3  2  0
  2 21  1  0
  3  4  1  0
  3 13  1  0
  4  5  1  0
  5  6  1  0
  6  7  1  0
  7  8  1  0
  7 12  1  0
  8  9  1  0
  9 10  1  0
 10 11  1  0
 11 12  1  0
 13 14  2  0
 13 15  1  0
 15 16  2  0
 15 20  1  0
 16 17  1  0
 16 21  1  0
 17 18  2  0
 18 19  1  0
 19 20  2  0
 21 22  2  0
M  END
>  <DRUGBANK_ID>  (1) 
DB17038

>  <COMMON_NAME>  (1) 
NSC-663284

>  <CAS_NUMBER>  (1) 
383907-43-5

>  <UNII>  (1) 
CY8W2F69MW

>  <SYNONYMS>  (1) 
5,8-quinolinedione, 6-chloro-7-((2-(4-morpholinyl)ethyl)amino)-; 6-chloro-7-((2-morpholinoethyl)amino)quinoline-5,8-dione

$$$$
