
     RDKit          3D

 32 37  0  0  0  0  0  0  0  0999 V2000
    2.5609   -1.2329   -2.9189 C   0  0  0  0  0  0  0  0  0  0  0  0
    0.3435    2.0375   -3.7297 C   0  0  1  0  0  0  0  0  0  0  0  0
    3.3475   -2.2040   -2.0701 C   0  0  0  0  0  0  0  0  0  0  0  0
    2.7515    0.5313   -2.9311 C   0  0  1  0  0  0  0  0  0  0  0  0
    1.4328   -1.0739   -4.1155 C   0  0  2  0  0  0  0  0  0  0  0  0
    1.5273    1.7260   -2.8131 C   0  0  2  0  0  0  0  0  0  0  0  0
    3.8172   -1.4147   -0.9304 C   0  0  0  0  0  0  0  0  0  0  0  0
    0.0537    0.1250   -3.8425 C   0  0  0  0  0  0  0  0  0  0  0  0
   -0.4322    3.4968   -2.5037 C   0  0  2  0  0  0  0  0  0  0  0  0
    1.2571   -2.2828   -5.0580 C   0  0  0  0  0  0  0  0  0  0  0  0
    3.5708   -1.9862    0.2539 C   0  0  0  0  0  0  0  0  0  0  0  0
   -0.0525    5.1424   -1.4427 C   0  0  0  0  0  0  0  0  0  0  0  0
    3.6397    1.0582   -1.8428 C   0  0  0  0  0  0  0  0  0  0  0  0
    1.2643   -4.6389   -5.3260 C   0  0  0  0  0  0  0  0  0  0  0  0
    3.8631   -3.9444   -1.4129 C   0  0  0  0  0  0  0  0  0  0  0  0
    0.9384   -3.5401   -4.5516 C   0  0  0  0  0  0  0  0  0  0  0  0
    0.6249    1.4657   -1.5246 C   0  0  0  0  0  0  0  0  0  0  0  0
    0.1075    6.2973   -0.8590 C   0  0  0  0  0  0  0  0  0  0  0  0
    1.8300   -4.5333   -6.5809 C   0  0  0  0  0  0  0  0  0  0  0  0
    3.8240    0.0666   -0.7562 C   0  0  0  0  0  0  0  0  0  0  0  0
    1.1718   -5.9332   -4.9136 O   0  0  0  0  0  0  0  0  0  0  0  0
    2.7668   -3.2292    0.1921 C   0  0  0  0  0  0  0  0  0  0  0  0
    2.1781   -5.7427   -7.0979 O   0  0  0  0  0  0  0  0  0  0  0  0
   -0.7090    2.1916   -1.7083 C   0  0  0  0  0  0  0  0  0  0  0  0
    1.6525   -6.6218   -6.0832 C   0  0  0  0  0  0  0  0  0  0  0  0
    1.7137   -2.1830   -6.4213 C   0  0  0  0  0  0  0  0  0  0  0  0
    2.0377   -3.3153   -7.1790 C   0  0  0  0  0  0  0  0  0  0  0  0
    1.5285   -3.3175   -0.1845 O   0  0  0  0  0  0  0  0  0  0  0  0
    3.5927   -4.3505    0.2273 C   0  0  0  0  0  0  0  0  0  0  0  0
   -1.8449    3.8539   -2.4931 O   0  0  0  0  0  0  0  0  0  0  0  0
    0.5355    1.9898   -5.4050 C   0  0  0  0  0  0  0  0  0  0  0  0
    0.2940    7.6436   -0.1786 C   0  0  0  0  0  0  0  0  0  0  0  0
  2  6  1  0
  2  8  1  0
  2 31  1  6
  3  1  2  0
  4  1  1  0
  5  1  1  0
  5 10  1  1
  6  4  1  0
  7  3  1  0
  8  5  1  0
  9  2  1  0
  9 24  1  0
  9 30  1  6
  9 12  1  0
 11  7  2  0
  4 13  1  1
 14 16  2  0
 15  3  1  0
 16 10  1  0
  6 17  1  1
 18 12  3  0
 19 27  2  0
 19 14  1  0
 20 13  1  0
 20  7  1  0
 21 14  1  0
 22 29  1  0
 22 11  1  0
 23 19  1  0
 24 17  1  0
 25 21  1  0
 25 23  1  0
 26 10  2  0
 27 26  1  0
 28 22  2  0
 29 15  1  0
 32 18  1  0
M  END
>  <DRUGBANK_ID>  (1) 
DB05423

>  <COMMON_NAME>  (1) 
ORG-34517

>  <CAS_NUMBER>  (1) 
189035-07-2

>  <UNII>  (1) 
17VAN37K4Y

$$$$
