
     RDKit          3D

 34 33  0  0  1  0  0  0  0  0999 V2000
    1.0263    0.0576    0.0774 Cr  0  0  0  0  0 15  0  0  0  0  0  0
    0.9429   -0.0247   -0.0783 N   0  0  0  0  0  0  0  0  0  0  0  0
    0.4529   -1.3779    0.2210 C   0  0  1  0  0  0  0  0  0  0  0  0
    0.9596   -1.8096    1.5875 C   0  0  0  0  0  0  0  0  0  0  0  0
    0.4529   -0.8419    2.6446 C   0  0  0  0  0  0  0  0  0  0  0  0
   -0.1078   -1.1036    3.8589 C   0  0  0  0  0  0  0  0  0  0  0  0
   -0.2149    0.0783    4.5983 N   0  0  0  0  0  0  0  0  0  0  0  0
    0.2755    1.0136    3.8275 C   0  0  0  0  0  0  0  0  0  0  0  0
    0.6887    0.5162    2.6104 N   0  0  0  0  0  0  0  0  0  0  0  0
   -1.0671   -1.3779    0.2210 C   0  0  0  0  0  0  0  0  0  0  0  0
   -1.7771   -2.2083   -0.6861 O   0  0  0  0  0  0  0  0  0  0  0  0
   -1.7026   -0.6348    1.0329 O   0  0  0  0  0  0  0  0  0  0  0  0
    1.0419   -0.0902    0.0106 N   0  0  0  0  0  0  0  0  0  0  0  0
    0.5519   -1.4693    0.1477 C   0  0  1  0  0  0  0  0  0  0  0  0
    1.0586   -2.0596    1.4535 C   0  0  0  0  0  0  0  0  0  0  0  0
    0.5519   -1.2238    2.6177 C   0  0  0  0  0  0  0  0  0  0  0  0
    0.0291   -1.6374    3.8063 C   0  0  0  0  0  0  0  0  0  0  0  0
   -0.1024   -0.5483    4.6732 N   0  0  0  0  0  0  0  0  0  0  0  0
    0.3368    0.4834    4.0007 C   0  0  0  0  0  0  0  0  0  0  0  0
    0.7389    0.1378    2.7286 N   0  0  0  0  0  0  0  0  0  0  0  0
   -0.9681   -1.4693    0.1477 C   0  0  0  0  0  0  0  0  0  0  0  0
   -1.6781   -2.1865   -0.8513 O   0  0  0  0  0  0  0  0  0  0  0  0
   -1.6035   -0.8274    1.0417 O   0  0  0  0  0  0  0  0  0  0  0  0
    0.9758    0.0683   -0.0689 N   0  0  0  0  0  0  0  0  0  0  0  0
    0.4858    0.9250    1.0206 C   0  0  1  0  0  0  0  0  0  0  0  0
    0.9924    2.3435    0.8168 C   0  0  0  0  0  0  0  0  0  0  0  0
    0.4858    2.8762   -0.5136 C   0  0  0  0  0  0  0  0  0  0  0  0
   -0.0083    2.1700   -1.5693 C   0  0  0  0  0  0  0  0  0  0  0  0
   -0.2402    3.0278   -2.6489 N   0  0  0  0  0  0  0  0  0  0  0  0
    0.1129    4.2146   -2.2291 C   0  0  0  0  0  0  0  0  0  0  0  0
    0.5803    4.1863   -0.9330 N   0  0  0  0  0  0  0  0  0  0  0  0
   -1.0342    0.9250    1.0206 C   0  0  0  0  0  0  0  0  0  0  0  0
   -1.7442    0.4678    2.1622 O   0  0  0  0  0  0  0  0  0  0  0  0
   -1.6697    1.3341   -0.0011 O   0  0  0  0  0  0  0  0  0  0  0  0
  3  2  1  1
  3  4  1  0
  3 10  1  0
  4  5  1  0
  5  6  2  0
  5  9  1  0
  6  7  1  0
  7  8  2  0
  8  9  1  0
 10 11  1  0
 10 12  2  0
 14 13  1  1
 14 15  1  0
 14 21  1  0
 15 16  1  0
 16 17  2  0
 16 20  1  0
 17 18  1  0
 18 19  2  0
 19 20  1  0
 21 22  1  0
 21 23  2  0
 25 24  1  6
 25 26  1  0
 25 32  1  0
 26 27  1  0
 27 28  2  0
 27 31  1  0
 28 29  1  0
 29 30  2  0
 30 31  1  0
 32 33  1  0
 32 34  2  0
M  CHG  4   1   3  11  -1  22  -1  33  -1
M  END
>  <DRUGBANK_ID>  (1) 
DB18516

>  <COMMON_NAME>  (1) 
Chromium histidinate

>  <CAS_NUMBER>  (1) 
18984-90-2

>  <UNII>  (1) 
1BY3EP7D99

>  <SYNONYMS>  (1) 
Chromium, tris(histidinato)-; Chromium, tris(l-histidinato-n,o)-; Chromium, tris(l-histidinato)-

$$$$
