
     RDKit          3D

 11 12  0  0  0  0  0  0  0  0999 V2000
    2.0789    0.6894    0.0033 N   0  0  0  0  0  0  0  0  0  0  0  0
    2.1216   -0.6934   -0.0004 C   0  0  0  0  0  0  0  0  0  0  0  0
    0.9173   -1.3564   -0.0000 N   0  0  0  0  0  0  0  0  0  0  0  0
   -0.2505   -0.6519    0.0004 C   0  0  0  0  0  0  0  0  0  0  0  0
   -0.2373    0.7075   -0.0004 C   0  0  0  0  0  0  0  0  0  0  0  0
    0.9455    1.4773   -0.0008 C   0  0  0  0  0  0  0  0  0  0  0  0
   -1.5454    1.0579   -0.0004 N   0  0  0  0  0  0  0  0  0  0  0  0
   -2.3264   -0.0457    0.0008 N   0  0  0  0  0  0  0  0  0  0  0  0
   -1.5227   -1.1134    0.0010 N   0  0  0  0  0  0  0  0  0  0  0  0
    3.1925   -1.2938   -0.0045 O   0  0  0  0  0  0  0  0  0  0  0  0
    0.9763    2.7013   -0.0050 O   0  0  0  0  0  0  0  0  0  0  0  0
  2  1  1  0
  3  2  1  0
  4  3  1  0
  4  5  2  0
  5  6  1  0
  6  1  1  0
  7  5  1  0
  7  8  1  0
  8  9  2  0
  9  4  1  0
 10  2  2  0
 11  6  2  0
M  END
>  <DRUGBANK_ID>  (1) 
DB01875

>  <SECONDARY_ACCESSION_NUMBERS>  (1) 
EXPT00599

>  <COMMON_NAME>  (1) 
8-azaxanthine

>  <CAS_NUMBER>  (1) 
1468-26-4

>  <UNII>  (1) 
97MRZ3ZY2U

>  <SYNONYMS>  (1) 
Xanthazol

$$$$
