
     RDKit          3D

 32 35  0  0  1  0  0  0  0  0999 V2000
    1.0126    0.0147   -0.0719 C   0  0  0  0  0  0  0  0  0  0  0  0
    0.4879   -1.3923   -0.3002 C   0  0  0  0  0  0  0  0  0  0  0  0
    0.9505   -2.3559    0.7968 C   0  0  0  0  0  0  0  0  0  0  0  0
    0.4123   -1.9975    2.1818 C   0  0  0  0  0  0  0  0  0  0  0  0
   -1.1110   -1.9763    2.2290 C   0  0  0  0  0  0  0  0  0  0  0  0
   -1.6934   -3.2797    2.0088 N   0  0  0  0  0  0  0  0  0  0  0  0
   -2.4707   -4.0093    2.8762 C   0  0  0  0  0  0  0  0  0  0  0  0
   -2.7522   -5.1723    2.5906 O   0  0  0  0  0  0  0  0  0  0  0  0
   -2.9119   -3.3935    4.1185 C   0  0  0  0  0  0  0  0  0  0  0  0
   -2.9690   -3.9986    5.3513 C   0  0  0  0  0  0  0  0  0  0  0  0
   -3.4225   -3.0894    6.2651 O   0  0  0  0  0  0  0  0  0  0  0  0
   -3.6692   -1.9665    5.5196 C   0  0  0  0  0  0  0  0  0  0  0  0
   -3.3953   -2.1082    4.2381 N   0  0  0  0  0  0  0  0  0  0  0  0
   -4.1520   -0.7386    6.2346 C   0  0  2  0  0  0  0  0  0  0  0  0
   -5.4504   -0.2344    5.5834 C   0  0  1  0  0  0  0  0  0  0  0  0
   -6.1202    0.8598    6.4185 C   0  0  0  0  0  0  0  0  0  0  0  0
   -5.1868    2.0543    6.2143 C   0  0  0  0  0  0  0  0  0  0  0  0
   -4.1435    1.4669    5.2705 C   0  0  1  0  0  0  0  0  0  0  0  0
   -3.2434    0.5061    6.0734 C   0  0  2  0  0  0  0  0  0  0  0  0
   -1.9178    0.2318    5.3874 C   0  0  0  0  0  0  0  0  0  0  0  0
   -1.0881    1.4550    5.1486 C   0  0  0  0  0  0  0  0  0  0  0  0
   -0.6672    2.2008    6.2590 C   0  0  0  0  0  0  0  0  0  0  0  0
    0.1572    3.3030    6.0970 C   0  0  0  0  0  0  0  0  0  0  0  0
    0.6836    3.5727    4.8455 C   0  0  0  0  0  0  0  0  0  0  0  0
    0.3614    2.7539    3.7680 C   0  0  0  0  0  0  0  0  0  0  0  0
   -0.6820    1.8322    3.8616 C   0  0  0  0  0  0  0  0  0  0  0  0
   -1.3683    1.3688    2.5917 C   0  0  0  0  0  0  0  0  0  0  0  0
   -2.0803    2.4437    1.7654 C   0  0  0  0  0  0  0  0  0  0  0  0
   -1.1898    3.5058    1.1875 C   0  0  0  0  0  0  0  0  0  0  0  0
   -0.7454    3.5283    0.0449 O   0  0  0  0  0  0  0  0  0  0  0  0
   -0.8299    4.4484    2.0746 O   0  0  0  0  0  0  0  0  0  0  0  0
   -4.9495    0.5671    4.4838 O   0  0  0  0  0  0  0  0  0  0  0  0
  1  2  1  0
  2  3  1  0
  3  4  1  0
  4  5  1  0
  5  6  1  0
  6  7  1  0
  7  8  2  0
  7  9  1  0
  9 10  2  0
  9 13  1  0
 10 11  1  0
 11 12  1  0
 12 13  2  0
 14 12  1  6
 14 15  1  0
 14 19  1  0
 15 16  1  1
 15 32  1  0
 16 17  1  0
 18 17  1  1
 18 19  1  0
 18 32  1  0
 19 20  1  6
 20 21  1  0
 21 22  2  0
 21 26  1  0
 22 23  1  0
 23 24  2  0
 24 25  1  0
 25 26  2  0
 26 27  1  0
 27 28  1  0
 28 29  1  0
 29 30  2  0
 29 31  1  0
M  END
>  <DRUGBANK_ID>  (1) 
DB12321

>  <COMMON_NAME>  (1) 
Ifetroban

>  <CAS_NUMBER>  (1) 
143443-90-7

>  <UNII>  (1) 
E833KT807K

>  <SYNONYMS>  (1) 
Ifetroban

$$$$
