
     RDKit          3D

 12 12  0  0  1  0  0  0  0  0999 V2000
    1.1777   -2.1208   -1.1727 N   0  0  0  0  0  0  0  0  0  0  0  0
    0.5978   -0.7561   -1.1576 C   0  0  2  0  0  0  0  0  0  0  0  0
    1.1120    0.0607    0.0582 C   0  0  0  0  0  0  0  0  0  0  0  0
    1.6910   -0.6657    1.0466 O   0  0  0  0  0  0  0  0  0  0  0  0
    1.0107    1.2802    0.1545 O   0  0  0  0  0  0  0  0  0  0  0  0
   -0.9262   -0.7679   -1.2193 C   0  0  0  0  0  0  0  0  0  0  0  0
   -1.6473    0.4428   -1.2508 C   0  0  0  0  0  0  0  0  0  0  0  0
   -3.0478    0.4515   -1.2663 C   0  0  0  0  0  0  0  0  0  0  0  0
   -3.7372   -0.7550   -1.2719 C   0  0  0  0  0  0  0  0  0  0  0  0
   -5.0981   -0.8164   -1.2941 O   0  0  0  0  0  0  0  0  0  0  0  0
   -3.0523   -1.9594   -1.2609 C   0  0  0  0  0  0  0  0  0  0  0  0
   -1.6595   -1.9660   -1.2461 C   0  0  0  0  0  0  0  0  0  0  0  0
  2  6  1  0
  2  3  1  0
  2  1  1  1
  3  4  1  0
  3  5  2  0
  6  7  2  0
  6 12  1  0
  7  8  1  0
  8  9  2  0
  9 10  1  0
  9 11  1  0
 11 12  2  0
M  END
>  <DRUGBANK_ID>  (1) 
DB04291

>  <SECONDARY_ACCESSION_NUMBERS>  (1) 
EXPT01097

>  <COMMON_NAME>  (1) 
Oxfenicine

>  <CAS_NUMBER>  (1) 
32462-30-9

>  <UNII>  (1) 
9YH0WH2Z02

>  <SYNONYMS>  (1) 
(2S)-Amino(4-Hydroxyphenyl)Acetic Acid; (S)-(4-hydroxyphenyl)glycine; L-2-(p-hydroxyphenyl)glycine; L-4-hydroxyphenylglycine; Oxfenicine

$$$$
