
     RDKit          3D

 12 12  0  0  0  0  0  0  0  0999 V2000
   -2.7588   -0.0199   -0.0062 O   0  0  0  0  0  0  0  0  0  0  0  0
   -1.3927   -0.0277    0.0121 C   0  0  0  0  0  0  0  0  0  0  0  0
    0.6856    1.1976    0.0057 C   0  0  0  0  0  0  0  0  0  0  0  0
    0.7123   -1.2179    0.0032 C   0  0  0  0  0  0  0  0  0  0  0  0
   -0.6865   -1.2311    0.0089 C   0  0  0  0  0  0  0  0  0  0  0  0
   -0.7195    1.1974    0.0297 C   0  0  0  0  0  0  0  0  0  0  0  0
   -1.4659    2.5067    0.0807 C   0  0  0  0  0  0  0  0  0  0  0  0
    1.3873   -0.0022   -0.0051 C   0  0  0  0  0  0  0  0  0  0  0  0
   -0.6322    4.4520    1.2780 O   0  0  0  0  0  0  0  0  0  0  0  0
   -1.1182    3.3297    1.2924 C   0  0  0  0  0  0  0  0  0  0  0  0
    2.7492    0.0613   -0.0186 O   0  0  0  0  0  0  0  0  0  0  0  0
   -1.4013    2.7222    2.4628 O   0  0  0  0  0  0  0  0  0  0  0  0
  2  1  1  0
  3  6  2  0
  3  8  1  0
  4  5  1  0
  5  2  2  0
  6  2  1  0
  7  6  1  0
  7 10  1  0
  8  4  2  0
  8 11  1  0
  9 10  2  0
 10 12  1  0
M  END
>  <DRUGBANK_ID>  (1) 
DB08327

>  <COMMON_NAME>  (1) 
Homogentisic acid

>  <CAS_NUMBER>  (1) 
451-13-8

>  <UNII>  (1) 
NP8UE6VF08

>  <SYNONYMS>  (1) 
2,5-Dihydroxyphenylacetic acid; Homogentisate acid; Homogentisic acid; Homogentisinic acid

$$$$
