
     RDKit          3D

 31 34  0  0  1  0  0  0  0  0999 V2000
   -2.1375   -0.2107    0.4911 O   0  0  0  0  0  0  0  0  0  0  0  0
    1.7567    3.2075   -3.6849 O   0  0  0  0  0  0  0  0  0  0  0  0
    1.4579   -0.8662    0.1560 N   0  0  0  0  0  0  0  0  0  0  0  0
    1.1274    1.1447   -2.7558 N   0  0  0  0  0  0  0  0  0  0  0  0
    0.0631   -1.3172    0.3034 C   0  0  0  0  0  0  0  0  0  0  0  0
    1.4886    0.5562    0.5093 C   0  0  0  0  0  0  0  0  0  0  0  0
   -0.8125   -0.1097    0.0173 C   0  0  2  0  0  0  0  0  0  0  0  0
    0.0038    0.9861    0.6904 C   0  0  0  0  0  0  0  0  0  0  0  0
    1.9308   -1.0766   -1.2334 C   0  0  0  0  0  0  0  0  0  0  0  0
    1.0515   -0.5952   -2.4490 C   0  0  2  0  0  0  0  0  0  0  0  0
    1.4448   -1.5621   -3.5930 C   0  0  0  0  0  0  0  0  0  0  0  0
    1.7201    1.9707   -3.7811 C   0  0  0  0  0  0  0  0  0  0  0  0
    2.2650    1.3557   -5.1317 C   0  0  0  0  0  0  0  0  0  0  0  0
    0.5009    2.0862   -1.8294 C   0  0  0  0  0  0  0  0  0  0  0  0
    2.0924   -0.8791   -4.5202 C   0  0  0  0  0  0  0  0  0  0  0  0
    1.4527   -2.8511   -4.0794 C   0  0  0  0  0  0  0  0  0  0  0  0
    3.9950    0.5810   -4.6844 C   0  0  0  0  0  0  0  0  0  0  0  0
    0.6441    0.6812   -5.8588 C   0  0  0  0  0  0  0  0  0  0  0  0
    2.6166   -1.0929   -6.0979 C   0  0  0  0  0  0  0  0  0  0  0  0
    2.0719   -3.2531   -5.4774 C   0  0  0  0  0  0  0  0  0  0  0  0
    2.5948   -2.3796   -6.5131 C   0  0  0  0  0  0  0  0  0  0  0  0
    4.9474    1.1612   -3.8735 C   0  0  0  0  0  0  0  0  0  0  0  0
    0.2500   -0.7057   -6.0419 C   0  0  0  0  0  0  0  0  0  0  0  0
    4.3484   -0.9663   -4.5007 C   0  0  0  0  0  0  0  0  0  0  0  0
   -0.5998    1.2627   -6.0277 C   0  0  0  0  0  0  0  0  0  0  0  0
    5.9817    0.2633   -3.2462 C   0  0  0  0  0  0  0  0  0  0  0  0
   -0.7757   -1.6158   -6.3044 C   0  0  0  0  0  0  0  0  0  0  0  0
    5.0285   -1.8559   -3.7191 C   0  0  0  0  0  0  0  0  0  0  0  0
   -1.8478    0.4076   -6.3316 C   0  0  0  0  0  0  0  0  0  0  0  0
    6.0513   -1.1757   -3.1702 C   0  0  0  0  0  0  0  0  0  0  0  0
   -1.9175   -1.0062   -6.4863 C   0  0  0  0  0  0  0  0  0  0  0  0
  2 12  2  0
  3  5  1  0
  3  6  1  0
  3  9  1  0
  4 12  1  0
  4 14  1  0
  5  7  1  0
  6  8  1  0
  7  1  1  1
  7  8  1  0
 10  9  1  1
 10  4  1  0
 10 11  1  0
 11 15  2  0
 11 16  1  0
 12 13  1  0
 13 17  1  0
 13 18  1  0
 15 19  1  0
 16 20  2  0
 17 22  2  0
 17 24  1  0
 18 23  2  0
 18 25  1  0
 19 21  2  0
 20 21  1  0
 22 26  1  0
 23 27  1  0
 24 28  2  0
 25 29  2  0
 26 30  2  0
 27 31  2  0
 28 30  1  0
 29 31  1  0
M  END
>  <DRUGBANK_ID>  (1) 
DB05104

>  <COMMON_NAME>  (1) 
Asimadoline

>  <CAS_NUMBER>  (1) 
153205-46-0

>  <UNII>  (1) 
D0VK52NV5M

>  <SYNONYMS>  (1) 
Asimadoline

$$$$
