
     RDKit          3D

 11 11  0  0  0  0  0  0  0  0999 V2000
    1.1180    0.2337    0.0164 C   0  0  0  0  0  0  0  0  0  0  0  0
   -0.2180   -2.5693    0.6581 C   0  0  0  0  0  0  0  0  0  0  0  0
    0.9115   -4.1907   -0.7053 C   0  0  0  0  0  0  0  0  0  0  0  0
   -0.4796   -3.5292    1.6285 C   0  0  0  0  0  0  0  0  0  0  0  0
    0.6182   -5.1703    0.2508 C   0  0  0  0  0  0  0  0  0  0  0  0
    0.9504   -1.8142   -1.5125 C   0  0  0  0  0  0  0  0  0  0  0  0
    0.5128   -0.3511   -1.2710 C   0  0  0  0  0  0  0  0  0  0  0  0
    0.5171   -2.8629   -0.5023 C   0  0  0  0  0  0  0  0  0  0  0  0
   -0.0573   -4.8243    1.4146 C   0  0  0  0  0  0  0  0  0  0  0  0
   -0.9484   -0.1968   -1.3697 N   0  0  0  0  0  0  0  0  0  0  0  0
   -0.3009   -5.7896    2.3452 O   0  0  0  0  0  0  0  0  0  0  0  0
  4  2  2  0
  5  3  1  0
  7  1  1  0
  7  6  1  0
  8  2  1  0
  8  3  2  0
  8  6  1  0
  9  4  1  0
  9  5  2  0
 10  7  1  0
 11  9  1  0
M  END
>  <DRUGBANK_ID>  (1) 
DB09352

>  <COMMON_NAME>  (1) 
Hydroxyamphetamine

>  <CAS_NUMBER>  (1) 
103-86-6

>  <UNII>  (1) 
FQR280JW2N

>  <SYNONYMS>  (1) 
4-(2-aminopropyl)phenol; 4-hydroxyamphetamine; dl-4-hydroxyamphetamine; dl-p-hydroxyamphetamine; Hydroxyamphetamine; p-hydroxyamphetamine

$$$$
