
     RDKit          3D

 26 29  0  0  0  0  0  0  0  0999 V2000
   -1.2870   -0.6189   -0.6840 C   0  0  0  0  0  0  0  0  0  0  0  0
   -2.9750   -2.3675    2.2781 C   0  0  0  0  0  0  0  0  0  0  0  0
   -0.5161   -1.8997   -2.2914 C   0  0  1  0  0  0  0  0  0  0  0  0
    0.9554   -2.2460    0.0666 C   0  0  0  0  0  0  0  0  0  0  0  0
   -0.2863   -0.5289   -1.7708 C   0  0  0  0  0  0  0  0  0  0  0  0
   -1.3834    0.0273    2.5112 C   0  0  1  0  0  0  0  0  0  0  0  0
    0.5429   -1.2659    1.1847 C   0  0  0  0  0  0  0  0  0  0  0  0
   -3.5260   -0.7152    2.9465 C   0  0  0  0  0  0  0  0  0  0  0  0
   -2.4438    0.7467    3.5552 C   0  0  2  0  0  0  0  0  0  0  0  0
   -0.1843    0.4874    3.2292 C   0  0  0  0  0  0  0  0  0  0  0  0
   -1.6190    2.7838    3.8333 C   0  0  0  0  0  0  0  0  0  0  0  0
   -0.6858    1.5516    4.0776 C   0  0  1  0  0  0  0  0  0  0  0  0
   -2.0269   -1.9434    1.1999 C   0  0  1  0  0  0  0  0  0  0  0  0
   -0.8892   -1.3461    1.9718 C   0  0  2  0  0  0  0  0  0  0  0  0
   -0.2277   -2.6795   -0.8359 C   0  0  2  0  0  0  0  0  0  0  0  0
    0.0174   -4.1195   -1.3738 C   0  0  0  0  0  0  0  0  0  0  0  0
   -1.4721   -2.3051   -0.1023 C   0  0  2  0  0  0  0  0  0  0  0  0
   -2.2063    3.0345    1.8506 O   0  0  0  0  0  0  0  0  0  0  0  0
   -2.0494    2.2190    2.7288 C   0  0  0  0  0  0  0  0  0  0  0  0
   -2.2025    0.6898    1.3318 C   0  0  0  0  0  0  0  0  0  0  0  0
   -1.7027   -1.2333   -3.0715 O   0  0  0  0  0  0  0  0  0  0  0  0
   -0.0629    1.2177    5.4621 C   0  0  0  0  0  0  0  0  0  0  0  0
   -3.0287   -1.0520   -3.0339 C   0  0  0  0  0  0  0  0  0  0  0  0
   -3.8671   -1.8867   -2.1158 C   0  0  0  0  0  0  0  0  0  0  0  0
   -4.8323   -1.0164   -1.3361 C   0  0  0  0  0  0  0  0  0  0  0  0
   -3.5378   -0.2580   -3.8214 O   0  0  0  0  0  0  0  0  0  0  0  0
  2  8  1  0
  3  5  1  0
  3 21  1  6
  4  7  1  0
  5  1  1  0
  6  9  1  0
  6 10  1  0
  6 20  1  6
  9  8  1  6
  9 11  1  0
 10 12  1  0
 11 19  1  0
 12 19  1  0
 12 22  1  6
 13 14  1  0
 13  2  1  1
 14  6  1  0
 14  7  1  6
 15  3  1  0
 15  4  1  0
 15 16  1  6
 17 13  1  0
 17 15  1  0
 17  1  1  6
 19 18  2  0
 21 23  1  0
 23 24  1  0
 23 26  2  0
 24 25  1  0
M  END
>  <DRUGBANK_ID>  (1) 
DB14655

>  <SECONDARY_ACCESSION_NUMBERS>  (1) 
DBSALT001342

>  <COMMON_NAME>  (1) 
Drostanolone propionate

>  <CAS_NUMBER>  (1) 
521-12-0

>  <UNII>  (1) 
X20UZ57G4O

>  <SYNONYMS>  (1) 
17β-Hydroxy-2α-methyl-5α-androstan-3-one propionate; 2M-DHTP; 2MDTP; 2α-Methyl-4,5-dihydrotestosterone propionate; Blackburn Compound; Dromostanolone propionate; Drostanolone propionate; Emdisterone; Testosterone, 4,5α-dihydro-2α-methyl-, propionate

$$$$
