
     RDKit          3D

 11 12  0  0  0  0  0  0  0  0999 V2000
    0.9227    0.1746    0.0378 N   0  0  0  0  0  0  0  0  0  0  0  0
    0.2358    1.2229   -0.4965 C   0  0  0  0  0  0  0  0  0  0  0  0
    0.6447    1.9012   -1.5264 N   0  0  0  0  0  0  0  0  0  0  0  0
   -0.1331    2.9690   -1.8893 C   0  0  0  0  0  0  0  0  0  0  0  0
   -1.2130    3.3836   -1.2319 C   0  0  0  0  0  0  0  0  0  0  0  0
   -1.8069    4.5881   -1.8212 C   0  0  0  0  0  0  0  0  0  0  0  0
   -0.8005    4.6744   -2.9393 C   0  0  0  0  0  0  0  0  0  0  0  0
    0.1345    3.7688   -2.9711 N   0  0  0  0  0  0  0  0  0  0  0  0
   -1.6499    2.6504   -0.0732 C   0  0  0  0  0  0  0  0  0  0  0  0
   -2.5984    3.0187    0.6141 O   0  0  0  0  0  0  0  0  0  0  0  0
   -0.9093    1.5358    0.1853 N   0  0  0  0  0  0  0  0  0  0  0  0
  1  2  1  0
  2  3  2  0
  2 11  1  0
  3  4  1  0
  4  5  2  0
  4  8  1  0
  5  6  1  0
  5  9  1  0
  6  7  1  0
  7  8  2  0
  9 10  2  0
  9 11  1  0
M  END
>  <DRUGBANK_ID>  (1) 
DB02245

>  <SECONDARY_ACCESSION_NUMBERS>  (1) 
EXPT00310

>  <COMMON_NAME>  (1) 
7-Deazaguanine

>  <CAS_NUMBER>  (1) 
7355-55-7

>  <UNII>  (1) 
GPL8T5ZO3M

$$$$
