
     RDKit          3D

 10  9  0  0  0  0  0  0  0  0999 V2000
    0.9585   -0.0569   -0.1328 C   0  0  0  0  0  0  0  0  0  0  0  0
    0.5004   -0.5656    1.2256 C   0  0  0  0  0  0  0  0  0  0  0  0
    1.0033    0.3319    2.3652 C   0  0  0  0  0  0  0  0  0  0  0  0
    0.5029    1.7885    2.2674 C   0  0  0  0  0  0  0  0  0  0  0  0
   -1.0493    1.8394    2.2920 C   0  0  0  0  0  0  0  0  0  0  0  0
   -1.7173    1.2139    3.5280 C   0  0  0  0  0  0  0  0  0  0  0  0
   -1.3769    1.9733    4.7908 C   0  0  0  0  0  0  0  0  0  0  0  0
    1.2464    2.6702    3.2860 C   0  0  0  0  0  0  0  0  0  0  0  0
    1.6197    3.9174    2.8930 N   0  0  0  0  0  0  0  0  0  0  0  0
    1.5689    2.3278    4.4247 O   0  0  0  0  0  0  0  0  0  0  0  0
  1  2  1  0
  2  3  1  0
  3  4  1  0
  4  5  1  0
  4  8  1  0
  5  6  1  0
  6  7  1  0
  8  9  1  0
  8 10  2  0
M  END
>  <DRUGBANK_ID>  (1) 
DB04165

>  <SECONDARY_ACCESSION_NUMBERS>  (1) 
EXPT03231

>  <COMMON_NAME>  (1) 
Valpromide

>  <UNII>  (1) 
RUA6CWU76G

>  <SYNONYMS>  (1) 
Valpromida; Valpromide

$$$$
