
     RDKit          3D

 13 12  0  0  0  0  0  0  0  0999 V2000
    0.9300   -0.0528    0.0985 O   0  0  0  0  0  0  0  0  0  0  0  0
    2.1461    0.0510    0.2230 C   0  0  0  0  0  0  0  0  0  0  0  0
    2.9023   -0.7832    0.9675 O   0  0  0  0  0  0  0  0  0  0  0  0
    4.3455   -0.7482    0.9112 C   0  0  0  0  0  0  0  0  0  0  0  0
    4.8767   -1.3090   -0.4097 C   0  0  0  0  0  0  0  0  0  0  0  0
    4.4909   -0.4286   -1.5977 C   0  0  0  0  0  0  0  0  0  0  0  0
    4.9948    1.0107   -1.3858 C   0  0  0  0  0  0  0  0  0  0  0  0
    6.5206    1.0365   -1.3789 C   0  0  0  0  0  0  0  0  0  0  0  0
    7.0449    0.5145   -2.7154 C   0  0  0  0  0  0  0  0  0  0  0  0
    6.5255    1.3873   -3.8652 C   0  0  0  0  0  0  0  0  0  0  0  0
    7.0250    2.8289   -3.7201 C   0  0  0  0  0  0  0  0  0  0  0  0
    8.5530    2.8845   -3.6968 C   0  0  0  0  0  0  0  0  0  0  0  0
    9.1231    2.3138   -4.9853 C   0  0  0  0  0  0  0  0  0  0  0  0
  1  2  2  0
  2  3  1  0
  3  4  1  0
  4  5  1  0
  5  6  1  0
  6  7  1  0
  7  8  1  0
  8  9  1  0
  9 10  1  0
 10 11  1  0
 11 12  1  0
 12 13  1  0
M  END
>  <DRUGBANK_ID>  (1) 
DB07650

>  <COMMON_NAME>  (1) 
Decyl formate

>  <CAS_NUMBER>  (1) 
5451-52-5

>  <UNII>  (1) 
I3X2P7V6YF

>  <SYNONYMS>  (1) 
n-Decyl methanoate

$$$$
