AGF
     RDKit          3D

 32 33  0  0  0  0  0  0  0  0999 V2000
    3.1589   -0.3301   -0.3066 C   0  0  0  0  0  0  0  0  0  0  0  0
    2.4740    0.2105    0.5593 O   0  0  0  0  0  0  0  0  0  0  0  0
    2.6786   -1.0222   -1.3736 O   0  0  0  0  0  0  0  0  0  0  0  0
    1.2403   -1.2276   -1.4222 C   0  0  0  0  0  0  0  0  0  0  0  0
    0.7817   -2.0911   -0.2709 C   0  0  0  0  0  0  0  0  0  0  0  0
    1.0403   -3.4656   -0.2707 C   0  0  0  0  0  0  0  0  0  0  0  0
    0.2917   -1.4897    0.8967 C   0  0  0  0  0  0  0  0  0  0  0  0
    0.9118   -4.2030    0.9054 C   0  0  0  0  0  0  0  0  0  0  0  0
    0.2440   -2.2085    2.0874 C   0  0  0  0  0  0  0  0  0  0  0  0
    0.5401   -3.5683    2.0894 C   0  0  0  0  0  0  0  0  0  0  0  0
    6.1145    1.5677    0.1868 C   0  0  0  0  0  0  0  0  0  0  0  0
    5.8976    2.7348    0.5186 O   0  0  0  0  0  0  0  0  0  0  0  0
    5.2796    0.4050    0.7260 C   0  0  2  0  0  0  0  0  0  0  0  0
    6.2216   -0.5009    1.5191 C   0  0  0  0  0  0  0  0  0  0  0  0
    4.5214   -0.3135   -0.3041 N   0  0  0  0  0  0  0  0  0  0  0  0
    7.4811    0.0854   -1.4344 C   0  0  0  0  0  0  0  0  0  0  0  0
    7.2324    1.2899   -0.5681 N   0  0  0  0  0  0  0  0  0  0  0  0
    7.0733    0.7631   -3.0776 P   0  0  1  0  0  0  0  0  0  0  0  0
    5.9484    1.7025   -2.8436 O   0  0  0  0  0  0  0  0  0  0  0  0
    8.4682    1.5081   -3.3734 O   0  0  0  0  0  0  0  0  0  0  0  0
    6.9383   -0.1768   -4.3621 O   0  0  0  0  0  0  0  0  0  0  0  0
    5.6556   -0.5587   -4.8871 C   0  0  2  0  0  0  0  0  0  0  0  0
    4.3256    0.2081   -4.5198 C   0  0  0  0  0  0  0  0  0  0  0  0
    4.1519    1.4146   -4.4554 O   0  0  0  0  0  0  0  0  0  0  0  0
    3.2381   -0.5535   -4.3384 O   0  0  0  0  0  0  0  0  0  0  0  0
    5.7096   -2.0456   -4.5669 C   0  0  0  0  0  0  0  0  0  0  0  0
    4.5274   -2.8733   -4.9159 C   0  0  0  0  0  0  0  0  0  0  0  0
    4.2412   -3.1971   -6.2430 C   0  0  0  0  0  0  0  0  0  0  0  0
    3.6679   -3.2728   -3.8863 C   0  0  0  0  0  0  0  0  0  0  0  0
    3.1006   -3.9356   -6.5320 C   0  0  0  0  0  0  0  0  0  0  0  0
    2.5483   -4.0319   -4.1768 C   0  0  0  0  0  0  0  0  0  0  0  0
    2.2569   -4.3494   -5.5000 C   0  0  0  0  0  0  0  0  0  0  0  0
  1  2  2  0
  1  3  1  0
  1 15  1  0
  3  4  1  0
  4  5  1  0
  5  6  2  0
  5  7  1  0
  6  8  1  0
  7  9  2  0
  8 10  2  0
  9 10  1  0
 11 12  2  0
 11 17  1  0
 13 15  1  0
 13 14  1  6
 13 11  1  0
 16 17  1  0
 16 18  1  0
 18 19  2  0
 18 20  1  0
 18 21  1  0
 22 26  1  1
 22 23  1  0
 22 21  1  0
 23 24  2  0
 23 25  1  0
 26 27  1  0
 27 28  2  0
 27 29  1  0
 28 30  1  0
 29 31  2  0
 30 32  2  0
 31 32  1  0
M  END
>  <DRUGBANK_ID>  (1) 
DB07351

>  <COMMON_NAME>  (1) 
O-(((1R)-((N-(PHENYL-METHOXY-CARBONYL)-ALANYL)-AMINO)METHYL)HYDROXYPHOSPHINYL)3-L-PHENYLLACTATE

$$$$
