
     RDKit          3D

 14 14  0  0  0  0  0  0  0  0999 V2000
    0.5948    0.0962    0.1131 O   0  0  0  0  0  0  0  0  0  0  0  0
    2.5669   -0.4712   -2.2919 N   0  0  0  0  0  0  0  0  0  0  0  0
    1.0707   -0.5431   -2.2247 C   0  0  2  0  0  0  0  0  0  0  0  0
    0.4568   -0.9671   -0.8401 C   0  0  1  0  0  0  0  0  0  0  0  0
    0.5226   -1.4719   -3.3387 C   0  0  0  0  0  0  0  0  0  0  0  0
    3.0545   -0.1284   -3.6412 C   0  0  0  0  0  0  0  0  0  0  0  0
    0.9174   -2.3262   -0.3367 C   0  0  0  0  0  0  0  0  0  0  0  0
    3.1613    0.4609   -1.3287 C   0  0  0  0  0  0  0  0  0  0  0  0
    2.5618    1.2271   -4.1439 C   0  0  0  0  0  0  0  0  0  0  0  0
    1.8120   -2.4965    0.7302 C   0  0  0  0  0  0  0  0  0  0  0  0
    0.4209   -3.4849   -0.9623 C   0  0  0  0  0  0  0  0  0  0  0  0
    2.1720   -3.7758    1.1549 C   0  0  0  0  0  0  0  0  0  0  0  0
    0.7999   -4.7591   -0.5593 C   0  0  0  0  0  0  0  0  0  0  0  0
    1.6746   -4.9045    0.5119 C   0  0  0  0  0  0  0  0  0  0  0  0
  2  6  1  0
  2  8  1  0
  3  2  1  0
  3  4  1  0
  3  5  1  6
  4  1  1  1
  4  7  1  0
  6  9  1  0
  7 10  2  0
  7 11  1  0
 10 12  1  0
 11 13  2  0
 12 14  2  0
 13 14  1  0
M  END
>  <DRUGBANK_ID>  (1) 
DB11587

>  <COMMON_NAME>  (1) 
Etafedrine

>  <CAS_NUMBER>  (1) 
48141-64-6

>  <UNII>  (1) 
2Y6VQU63E8

>  <SYNONYMS>  (1) 
(-)-etafedrine; alpha-(1-(ethylmethylamino)ethyl)benzyl alcohol; Etafedrine

$$$$
