
     RDKit          3D

 12 12  0  0  0  0  0  0  0  0999 V2000
    1.4322   -0.2003    0.0057 C   0  0  0  0  0  0  0  0  0  0  0  0
    0.5433   -1.2744   -0.0017 C   0  0  0  0  0  0  0  0  0  0  0  0
   -0.8375   -1.0456   -0.0699 C   0  0  0  0  0  0  0  0  0  0  0  0
   -1.2824    0.2838   -0.1820 C   0  0  0  0  0  0  0  0  0  0  0  0
   -0.4088    1.3533   -0.0681 C   0  0  0  0  0  0  0  0  0  0  0  0
    0.9589    1.1125   -0.0073 C   0  0  0  0  0  0  0  0  0  0  0  0
   -1.8163   -2.2011    0.0227 C   0  0  1  0  0  0  0  0  0  0  0  0
   -2.7221   -2.1593    1.3154 C   0  0  1  0  0  0  0  0  0  0  0  0
   -3.5620   -0.9327    1.3659 N   0  0  0  0  0  0  0  0  0  0  0  0
   -4.3702   -0.8063    2.5692 C   0  0  0  0  0  0  0  0  0  0  0  0
   -3.6019   -3.4126    1.3569 C   0  0  0  0  0  0  0  0  0  0  0  0
   -2.6104   -2.2153   -1.1644 O   0  0  0  0  0  0  0  0  0  0  0  0
  1  2  2  0
  1  6  1  0
  2  3  1  0
  3  4  2  0
  3  7  1  0
  4  5  1  0
  5  6  2  0
  7  8  1  0
  7 12  1  6
  8  9  1  0
  8 11  1  6
  9 10  1  0
M  END
>  <DRUGBANK_ID>  (1) 
DB00852

>  <SECONDARY_ACCESSION_NUMBERS>  (1) 
APRD00634

>  <COMMON_NAME>  (1) 
Pseudoephedrine

>  <CAS_NUMBER>  (1) 
90-82-4

>  <UNII>  (1) 
7CUC9DDI9F

>  <SYNONYMS>  (1) 
(+) threo-2-(methylamino)-1-phenyl-1-propanol; (+)-(1S,2S)-Pseudoephedrine; (+)-Pseudoephedrine; (+)-psi-Ephedrine; (+)-threo-Ephedrine; d-Isoephedrine; d-Pseudoephedrine; d-psi-2-Methylamino-1-phenyl-1-propanol; d-psi-Ephedrine; Isoephedrine; L-(+)-Pseudoephedrine; L(+)-psi-Ephedrine; Pseudoefedrina; Pseudoephedrine; pseudoéphédrine; Pseudoephedrine D-form; Pseudoephedrinum; Psi-ephedrin; Psi-ephedrine; trans-Ephedrine; ψ-ephedrine

$$$$
