
     RDKit          3D

 26 28  0  0  0  0  0  0  0  0999 V2000
    1.5276   -4.0061   -0.5418 C   0  0  0  0  0  0  0  0  0  0  0  0
    1.9077   -3.6932    0.7728 C   0  0  0  0  0  0  0  0  0  0  0  0
    1.8222   -5.2882   -1.0281 C   0  0  0  0  0  0  0  0  0  0  0  0
    2.6061   -4.6200    1.5510 C   0  0  0  0  0  0  0  0  0  0  0  0
    2.5817   -6.1896   -0.2812 C   0  0  0  0  0  0  0  0  0  0  0  0
    2.9622   -5.8532    1.0107 C   0  0  0  0  0  0  0  0  0  0  0  0
    3.8309   -6.9891    1.9659 Cl  0  0  0  0  0  0  0  0  0  0  0  0
    1.1298   -5.8762   -2.4859 Cl  0  0  0  0  0  0  0  0  0  0  0  0
    0.8043   -2.9720   -1.3738 C   0  0  0  0  0  0  0  0  0  0  0  0
    1.5006   -2.6154   -2.5771 O   0  0  0  0  0  0  0  0  0  0  0  0
    2.7425   -2.0133   -2.2963 N   0  0  0  0  0  0  0  0  0  0  0  0
    3.3957   -1.7661   -3.4049 C   0  0  0  0  0  0  0  0  0  0  0  0
    4.7449   -1.1330   -3.3085 C   0  0  0  0  0  0  0  0  0  0  0  0
    2.8750   -2.0916   -4.7969 C   0  0  0  0  0  0  0  0  0  0  0  0
    2.6335   -3.5051   -5.0225 N   0  0  0  0  0  0  0  0  0  0  0  0
    3.4611   -4.5337   -4.6796 C   0  0  0  0  0  0  0  0  0  0  0  0
    2.9814   -5.6864   -5.0883 N   0  0  0  0  0  0  0  0  0  0  0  0
    1.5544   -4.0325   -5.6755 C   0  0  0  0  0  0  0  0  0  0  0  0
    1.7720   -5.3892   -5.6673 C   0  0  0  0  0  0  0  0  0  0  0  0
    7.3088   -0.0346   -3.0363 C   0  0  0  0  0  0  0  0  0  0  0  0
    6.4134    0.5160   -3.9484 C   0  0  0  0  0  0  0  0  0  0  0  0
    6.9377   -1.1270   -2.2552 C   0  0  0  0  0  0  0  0  0  0  0  0
    5.1286   -0.0216   -4.0790 C   0  0  0  0  0  0  0  0  0  0  0  0
    5.6583   -1.6774   -2.3901 C   0  0  0  0  0  0  0  0  0  0  0  0
    8.8742    0.6557   -2.8608 Cl  0  0  0  0  0  0  0  0  0  0  0  0
    4.0605    0.8012   -5.1617 Cl  0  0  0  0  0  0  0  0  0  0  0  0
  2  1  2  0
  3  1  1  0
  4  2  1  0
  5  3  2  0
  6  4  2  0
  6  5  1  0
  7  6  1  0
  8  3  1  0
  9  1  1  0
 10  9  1  0
 11 10  1  0
 12 11  2  0
 13 12  1  0
 14 12  1  0
 15 14  1  0
 16 15  1  0
 17 16  2  0
 18 15  1  0
 19 17  1  0
 19 18  2  0
 21 20  2  0
 22 20  1  0
 23 13  2  0
 23 21  1  0
 24 13  1  0
 24 22  2  0
 25 20  1  0
 26 23  1  0
M  END
>  <DRUGBANK_ID>  (1) 
DB00239

>  <SECONDARY_ACCESSION_NUMBERS>  (1) 
APRD01154

>  <COMMON_NAME>  (1) 
Oxiconazole

>  <CAS_NUMBER>  (1) 
64211-45-6

>  <UNII>  (1) 
C668Q9I33J

>  <SYNONYMS>  (1) 
2',4'-Dichloro-2-imidazol-1-ylacetophenone (Z)-[O-(2,4-dichlorobenzyl)oxime]; Oxiconazol; Oxiconazole; Oxiconazolum

$$$$
