
     RDKit          3D

 11 11  0  0  0  0  0  0  0  0999 V2000
   -0.6559    1.2916    0.0006 N   0  0  0  0  0  0  0  0  0  0  0  0
   -1.2782    0.0795   -0.0005 C   0  0  0  0  0  0  0  0  0  0  0  0
   -0.5889   -1.1269   -0.0000 C   0  0  0  0  0  0  0  0  0  0  0  0
    0.7578   -1.1893   -0.0011 N   0  0  0  0  0  0  0  0  0  0  0  0
    1.4019    0.0148   -0.0019 C   0  0  0  0  0  0  0  0  0  0  0  0
    0.6936    1.2203    0.0003 C   0  0  0  0  0  0  0  0  0  0  0  0
    1.3091    2.4387    0.0027 O   0  0  0  0  0  0  0  0  0  0  0  0
    2.9019   -0.0287   -0.0082 C   0  0  0  0  0  0  0  0  0  0  0  0
    3.5881    1.1595   -0.0122 N   0  0  0  0  0  0  0  0  0  0  0  0
    3.5287   -1.0862   -0.0110 O   0  0  0  0  0  0  0  0  0  0  0  0
   -1.2794   -2.2759    0.0014 F   0  0  0  0  0  0  0  0  0  0  0  0
  1  2  2  0
  1  6  1  0
  2  3  1  0
  3  4  2  0
  3 11  1  0
  4  5  1  0
  5  6  2  0
  5  8  1  0
  6  7  1  0
  8  9  1  0
  8 10  2  0
M  END
>  <DRUGBANK_ID>  (1) 
DB12466

>  <SECONDARY_ACCESSION_NUMBERS>  (1) 
DB06046; DB15625

>  <COMMON_NAME>  (1) 
Favipiravir

>  <CAS_NUMBER>  (1) 
259793-96-9

>  <UNII>  (1) 
EW5GL2X7E0

>  <SYNONYMS>  (1) 
Fapilavir; Favilavir; Favipiravir

$$$$
