1224
     RDKit          3D

 27 30  0  0  0  0  0  0  0  0999 V2000
   -0.0204   -1.6439   -1.0965 S   0  0  0  0  0  0  0  0  0  0  0  0
   -0.1236    5.2559   -3.4501 O   0  0  0  0  0  0  0  0  0  0  0  0
   -1.0245    5.2800   -0.4360 O   0  0  0  0  0  0  0  0  0  0  0  0
   -3.3525    3.6063   -3.9733 N   0  0  0  0  0  0  0  0  0  0  0  0
   -1.6851    1.8334   -2.2489 N   0  0  0  0  0  0  0  0  0  0  0  0
    0.5712    1.3963   -1.2977 N   0  0  0  0  0  0  0  0  0  0  0  0
   -3.8622    3.3129   -2.6317 C   0  0  0  0  0  0  0  0  0  0  0  0
   -2.6690    2.3677   -4.4769 C   0  0  0  0  0  0  0  0  0  0  0  0
   -2.6936    2.9040   -1.7929 C   0  0  0  0  0  0  0  0  0  0  0  0
   -1.4118    1.7971   -3.7446 C   0  0  0  0  0  0  0  0  0  0  0  0
   -2.7236    4.9762   -4.1756 C   0  0  0  0  0  0  0  0  0  0  0  0
   -0.7703    1.2922   -1.2784 C   0  0  0  0  0  0  0  0  0  0  0  0
   -1.4560    5.7808   -3.5339 C   0  0  0  0  0  0  0  0  0  0  0  0
   -1.4496    0.5530   -0.1826 C   0  0  0  0  0  0  0  0  0  0  0  0
   -1.3718   -0.8313   -0.2555 C   0  0  0  0  0  0  0  0  0  0  0  0
   -2.3651    1.1833    0.6830 C   0  0  0  0  0  0  0  0  0  0  0  0
    1.4086    0.6721   -0.3735 C   0  0  0  0  0  0  0  0  0  0  0  0
    1.3142   -0.7376   -0.2824 C   0  0  0  0  0  0  0  0  0  0  0  0
   -2.3393   -1.5748    0.4022 C   0  0  0  0  0  0  0  0  0  0  0  0
   -0.0826    4.1390   -2.5910 C   0  0  0  0  0  0  0  0  0  0  0  0
   -3.3505    0.4357    1.3037 C   0  0  0  0  0  0  0  0  0  0  0  0
   -3.3469   -0.9447    1.1463 C   0  0  0  0  0  0  0  0  0  0  0  0
    2.4715    1.2748    0.3621 C   0  0  0  0  0  0  0  0  0  0  0  0
    2.2241   -1.4961    0.4704 C   0  0  0  0  0  0  0  0  0  0  0  0
   -0.2554    4.2327   -1.0255 C   0  0  0  0  0  0  0  0  0  0  0  0
    3.3924    0.4985    1.1126 C   0  0  0  0  0  0  0  0  0  0  0  0
    3.2725   -0.8880    1.1548 C   0  0  0  0  0  0  0  0  0  0  0  0
  1 15  1  0
  1 18  1  0
  2 13  1  0
  2 20  1  0
  3 25  1  0
  4  7  1  0
  4  8  1  0
  4 11  1  0
  5  9  1  0
  5 10  1  0
  5 12  1  0
  6 12  2  0
  6 17  1  0
  7  9  1  0
  8 10  1  0
 11 13  1  0
 12 14  1  0
 14 15  2  0
 14 16  1  0
 15 19  1  0
 16 21  2  0
 17 18  2  0
 17 23  1  0
 18 24  1  0
 19 22  2  0
 20 25  1  0
 21 22  1  0
 23 26  2  0
 24 27  2  0
 26 27  1  0
M  END
>  <DRUGBANK_ID>  (1) 
DB01224

>  <SECONDARY_ACCESSION_NUMBERS>  (1) 
APRD00675

>  <COMMON_NAME>  (1) 
Quetiapine

>  <CAS_NUMBER>  (1) 
111974-69-7

>  <UNII>  (1) 
BGL0JSY5SI

>  <SYNONYMS>  (1) 
2-[2-(4-Dibenzo[b,f][1,4]thiazepin-11-yl-1-piperazinyl)ethoxy]ethanol; Quetiapina; Quetiapine; Qu√©tiapine; Quetiapinum

$$$$
