
     RDKit          3D

 20 20  0  0  1  0  0  0  0  0999 V2000
    0.8882   -0.4029    0.4033 C   0  0  0  0  0  0  0  0  0  0  0  0
    0.2682    1.1323    0.4107 C   0  0  2  0  0  0  0  0  0  0  0  0
   -0.9102    0.9110   -0.4764 C   0  0  2  0  0  0  0  0  0  0  0  0
   -0.3099    1.0900   -1.9396 C   0  0  1  0  0  0  0  0  0  0  0  0
   -0.2309    2.5512   -2.2907 C   0  0  2  0  0  0  0  0  0  0  0  0
    0.8251    2.9951   -1.3155 C   0  0  1  0  0  0  0  0  0  0  0  0
    0.5338   -1.2436   -0.7283 O   0  0  0  0  0  0  0  0  0  0  0  0
   -2.0009    1.7745   -0.1532 O   0  0  0  0  0  0  0  0  0  0  0  0
    1.2828    4.3109   -1.5580 O   0  0  0  0  0  0  0  0  0  0  0  0
    3.4696    1.7617   -2.5471 O   0  0  0  0  0  0  0  0  0  0  0  0
    2.8015    1.0637   -0.3585 O   0  0  0  0  0  0  0  0  0  0  0  0
    3.4192   -0.6277   -2.0763 O   0  0  0  0  0  0  0  0  0  0  0  0
   -0.6053    5.7232   -2.5926 O   0  0  0  0  0  0  0  0  0  0  0  0
   -1.1553    4.2062   -4.4460 O   0  0  0  0  0  0  0  0  0  0  0  0
   -2.9512    5.0972   -2.9020 O   0  0  0  0  0  0  0  0  0  0  0  0
    0.7786    2.4947    0.0428 O   0  0  0  0  0  0  0  0  0  0  0  0
    1.1040    0.4845   -2.3526 O   0  0  0  0  0  0  0  0  0  0  0  0
   -1.3945    3.3332   -2.1335 O   0  0  0  0  0  0  0  0  0  0  0  0
    2.7383    0.5768   -1.7318 S   0  0  0  0  0  0  0  0  0  0  0  0
   -1.6198    4.5957   -3.1316 S   0  0  0  0  0  0  0  0  0  0  0  0
  2  1  1  6
  3  2  1  0
  3  8  1  1
  4  3  1  0
  4 17  1  1
  5  4  1  0
  5 18  1  1
  6  5  1  0
  6  9  1  1
  7  1  1  0
 16  2  1  0
 16  6  1  0
 19 10  1  0
 19 11  2  0
 19 12  2  0
 19 17  1  0
 20 13  1  0
 20 14  2  0
 20 15  2  0
 20 18  1  0
M  END
>  <DRUGBANK_ID>  (1) 
DB02879

>  <SECONDARY_ACCESSION_NUMBERS>  (1) 
EXPT02535

>  <COMMON_NAME>  (1) 
2,3-Di-O-Sulfo-Alpha-D-Glucopyranose

$$$$
