RSA
     RDKit          3D

 13 14  0  0  0  0  0  0  0  0999 V2000
   -5.0393   -3.7778    4.7169 C   0  0  0  0  0  0  0  0  0  0  0  0
   -4.8282   -3.4356    3.4765 C   0  0  0  0  0  0  0  0  0  0  0  0
   -4.5822   -3.0367    2.0306 C   0  0  0  0  0  0  0  0  0  0  0  0
   -4.2481   -1.6287    1.9071 N   0  0  0  0  0  0  0  0  0  0  0  0
   -3.8795   -1.2612    0.5351 C   0  0  1  0  0  0  0  0  0  0  0  0
   -4.4721   -2.1239   -0.6156 C   0  0  0  0  0  0  0  0  0  0  0  0
   -5.8308   -1.5133   -0.9687 C   0  0  0  0  0  0  0  0  0  0  0  0
   -5.5421   -0.0677   -0.7238 C   0  0  0  0  0  0  0  0  0  0  0  0
   -4.4443    0.0852    0.1347 C   0  0  0  0  0  0  0  0  0  0  0  0
   -3.9961    1.3525    0.4820 C   0  0  0  0  0  0  0  0  0  0  0  0
   -6.2208    1.0250   -1.2394 C   0  0  0  0  0  0  0  0  0  0  0  0
   -5.7617    2.3003   -0.9070 C   0  0  0  0  0  0  0  0  0  0  0  0
   -4.6591    2.4626   -0.0560 C   0  0  0  0  0  0  0  0  0  0  0  0
  1  2  3  0
  2  3  1  0
  3  4  1  0
  5  6  1  0
  5  9  1  0
  5  4  1  1
  6  7  1  0
  7  8  1  0
  8  9  2  0
  8 11  1  0
  9 10  1  0
 10 13  2  0
 11 12  2  0
 12 13  1  0
M  END
>  <DRUGBANK_ID>  (1) 
DB03894

>  <SECONDARY_ACCESSION_NUMBERS>  (1) 
EXPT02818

>  <COMMON_NAME>  (1) 
N-Propargyl-1(S)-Aminoindan

>  <UNII>  (1) 
4KM7HJ6CBA

$$$$
