555
     RDKit          3D

 20 22  0  0  0  0  0  0  0  0999 V2000
    2.4676   -0.7208   -0.0236 C   0  0  0  0  0  0  0  0  0  0  0  0
    2.4712    0.6606    0.0024 C   0  0  0  0  0  0  0  0  0  0  0  0
    1.2610    1.3407    0.0471 C   0  0  0  0  0  0  0  0  0  0  0  0
    0.0101    0.6782    0.0124 C   0  0  0  0  0  0  0  0  0  0  0  0
   -0.0007   -0.7512    0.0113 C   0  0  0  0  0  0  0  0  0  0  0  0
    1.2545   -1.4136    0.0011 C   0  0  0  0  0  0  0  0  0  0  0  0
   -1.2584   -1.4194    0.0149 C   0  0  0  0  0  0  0  0  0  0  0  0
   -2.4523   -0.6892   -0.0018 C   0  0  0  0  0  0  0  0  0  0  0  0
   -2.4296    0.7018   -0.0184 C   0  0  0  0  0  0  0  0  0  0  0  0
   -1.2159    1.4065   -0.0171 C   0  0  0  0  0  0  0  0  0  0  0  0
   -1.2609    2.8869   -0.0624 C   0  0  0  0  0  0  0  0  0  0  0  0
   -0.6746    3.6027   -1.1251 C   0  0  0  0  0  0  0  0  0  0  0  0
   -0.6660    5.0010   -1.1418 C   0  0  0  0  0  0  0  0  0  0  0  0
   -1.2782    5.6948   -0.1058 C   0  0  0  0  0  0  0  0  0  0  0  0
   -1.8766    5.0152    0.9474 C   0  0  0  0  0  0  0  0  0  0  0  0
   -1.8661    3.6184    0.9712 C   0  0  0  0  0  0  0  0  0  0  0  0
   -1.3161    7.0571   -0.0797 O   0  0  0  0  0  0  0  0  0  0  0  0
   -1.3806   -2.9037    0.0388 C   0  0  0  0  0  0  0  0  0  0  0  0
   -2.5365   -3.4985    0.0351 N   0  0  0  0  0  0  0  0  0  0  0  0
   -2.3475   -4.8851    0.0659 O   0  0  0  0  0  0  0  0  0  0  0  0
  1  6  2  0
  1  2  1  0
  2  3  2  0
  3  4  1  0
  4  5  2  0
  4 10  1  0
  5  6  1  0
  5  7  1  0
  7 18  1  0
  7  8  2  0
  8  9  1  0
  9 10  2  0
 10 11  1  0
 11 16  1  0
 11 12  2  0
 12 13  1  0
 13 14  2  0
 14 15  1  0
 14 17  1  0
 15 16  2  0
 18 19  2  0
 19 20  1  0
M  END
>  <DRUGBANK_ID>  (1) 
DB07150

>  <COMMON_NAME>  (1) 
4-(4-HYDROXYPHENYL)-1-NAPHTHALDEHYDE OXIME

>  <UNII>  (1) 
KA345Z0JXL

$$$$
