
     RDKit          3D

 23 26  0  0  0  0  0  0  0  0999 V2000
    0.5601    0.3575   -0.7688 C   0  0  0  0  0  0  0  0  0  0  0  0
    0.4347   -0.2649    0.6619 C   0  0  0  0  0  0  0  0  0  0  0  0
    1.5323    0.4055    2.2056 C   0  0  0  0  0  0  0  0  0  0  0  0
    2.2760   -0.1855    3.4075 C   0  0  0  0  0  0  0  0  0  0  0  0
    2.1992   -1.5278    2.8271 C   0  0  0  0  0  0  0  0  0  0  0  0
    0.3964   -1.4768    3.0266 C   0  0  0  0  0  0  0  0  0  0  0  0
   -0.4817    0.1630    2.9374 C   0  0  0  0  0  0  0  0  0  0  0  0
    0.4997    1.2021    2.3943 C   0  0  0  0  0  0  0  0  0  0  0  0
    2.0853    0.8677    1.1286 C   0  0  0  0  0  0  0  0  0  0  0  0
    3.1739    1.8200    1.3914 C   0  0  0  0  0  0  0  0  0  0  0  0
    1.9956    2.2231    2.0818 C   0  0  0  0  0  0  0  0  0  0  0  0
    0.9937    3.0899    1.2168 C   0  0  0  0  0  0  0  0  0  0  0  0
    0.0289    3.5572    0.5551 C   0  0  0  0  0  0  0  0  0  0  0  0
    2.2791    2.8428    3.3070 O   0  0  0  0  0  0  0  0  0  0  0  0
   -2.0381    0.4444    3.1266 C   0  0  0  0  0  0  0  0  0  0  0  0
   -2.6988   -0.3692    2.0143 C   0  0  0  0  0  0  0  0  0  0  0  0
   -2.0322   -1.7769    1.9187 C   0  0  0  0  0  0  0  0  0  0  0  0
   -3.0079   -2.5959    1.5255 C   0  0  0  0  0  0  0  0  0  0  0  0
   -2.8376   -3.9515    1.9949 C   0  0  0  0  0  0  0  0  0  0  0  0
   -3.6601   -4.4553    2.7476 O   0  0  0  0  0  0  0  0  0  0  0  0
   -1.4716   -4.4713    1.7746 C   0  0  0  0  0  0  0  0  0  0  0  0
   -0.6693   -3.7793    2.8759 C   0  0  0  0  0  0  0  0  0  0  0  0
   -0.4829   -2.4064    2.2479 C   0  0  0  0  0  0  0  0  0  0  0  0
  1  2  1  0
  2  3  1  0
  3  4  1  0
  3  8  1  0
  3 11  1  0
  4  5  1  0
  5  6  1  0
  6  7  1  0
  6 23  1  0
  7  8  1  0
  7 15  1  0
  8  9  1  0
  9 10  1  0
 10 11  1  0
 11 12  1  0
 11 14  1  0
 12 13  3  0
 15 16  1  0
 16 17  1  0
 17 18  2  0
 17 23  1  0
 18 19  1  0
 19 20  2  0
 19 21  1  0
 21 22  1  0
 22 23  1  0
M  END
>  <DRUGBANK_ID>  (1) 
DB09389

>  <COMMON_NAME>  (1) 
Norgestrel

>  <CAS_NUMBER>  (1) 
6533-00-2

>  <UNII>  (1) 
3J8Q1747Z2

>  <SYNONYMS>  (1) 
17-ethynyl-17-hydroxy-18a-homoestr-4-en-3-one; LD norgestrel; Methylnorethindrone; Norgestrel; Norgestrelum

$$$$
