TIO
     RDKit          3D

 17 17  0  0  0  0  0  0  0  0999 V2000
    2.9670    3.6546    0.8483 S   0  0  0  0  0  0  0  0  0  0  0  0
    2.3183    2.6639   -0.5458 C   0  0  0  0  0  0  0  0  0  0  0  0
    0.7454    2.6167   -0.6608 C   0  0  2  0  0  0  0  0  0  0  0  0
    0.4315    1.1141   -1.2229 C   0  0  0  0  0  0  0  0  0  0  0  0
    1.3742    0.3567   -1.5063 O   0  0  0  0  0  0  0  0  0  0  0  0
    0.3298    3.9824   -1.4805 C   0  0  0  0  0  0  0  0  0  0  0  0
   -1.1303    4.4464   -1.4092 C   0  0  0  0  0  0  0  0  0  0  0  0
   -1.9808    3.4368   -1.5982 C   0  0  0  0  0  0  0  0  0  0  0  0
   -1.8625    5.6032   -1.3392 C   0  0  0  0  0  0  0  0  0  0  0  0
   -3.3573    3.3369   -1.2618 C   0  0  0  0  0  0  0  0  0  0  0  0
   -3.3169    5.5952   -1.1818 C   0  0  0  0  0  0  0  0  0  0  0  0
   -4.0763    4.4469   -1.0993 C   0  0  0  0  0  0  0  0  0  0  0  0
   -0.7658    0.4678   -1.3823 N   0  0  0  0  0  0  0  0  0  0  0  0
   -2.1365    0.8817   -1.3074 C   0  0  0  0  0  0  0  0  0  0  0  0
   -2.8158    1.2387   -2.8665 C   0  0  0  0  0  0  0  0  0  0  0  0
   -4.0353    1.3193   -3.1286 O   0  0  0  0  0  0  0  0  0  0  0  0
   -1.9642    1.8196   -3.7731 O   0  0  0  0  0  0  0  0  0  0  0  0
  1  2  1  0
  3  6  1  6
  3  4  1  0
  3  2  1  0
  4  5  2  0
  4 13  1  0
  6  7  1  0
  7  8  2  0
  7  9  1  0
  8 10  1  0
  9 11  2  0
 10 12  2  0
 11 12  1  0
 13 14  1  0
 14 15  1  0
 15 16  2  0
 15 17  1  0
M  END
>  <DRUGBANK_ID>  (1) 
DB08626

>  <SECONDARY_ACCESSION_NUMBERS>  (1) 
DB01654

>  <COMMON_NAME>  (1) 
Thiorphan

>  <CAS_NUMBER>  (1) 
76721-89-6

>  <UNII>  (1) 
XJ8Z52GK3X

$$$$
