JTP
     RDKit          3D

 33 37  0  0  0  0  0  0  0  0999 V2000
    1.0059   -0.0487   -0.0285 C   0  0  0  0  0  0  0  0  0  0  0  0
    0.6225   -0.8030    1.2286 C   0  0  0  0  0  0  0  0  0  0  0  0
   -0.7873   -0.9313    1.2585 N   0  0  0  0  0  0  0  0  0  0  0  0
   -1.1967   -1.9872    0.4924 C   0  0  0  0  0  0  0  0  0  0  0  0
   -2.2002   -2.6698    1.1140 C   0  0  0  0  0  0  0  0  0  0  0  0
   -3.2009   -1.6967    0.9820 C   0  0  0  0  0  0  0  0  0  0  0  0
   -3.9367   -2.3269    1.8400 C   0  0  0  0  0  0  0  0  0  0  0  0
   -4.2339   -3.6284    1.4636 C   0  0  0  0  0  0  0  0  0  0  0  0
   -3.2956   -4.6261    1.3017 C   0  0  0  0  0  0  0  0  0  0  0  0
   -3.9827   -5.7780    1.0770 N   0  0  0  0  0  0  0  0  0  0  0  0
   -5.3111   -5.4168    1.0267 C   0  0  0  0  0  0  0  0  0  0  0  0
   -6.3899   -6.3119    0.9337 C   0  0  0  0  0  0  0  0  0  0  0  0
   -6.4373   -7.4915    1.6466 C   0  0  0  0  0  0  0  0  0  0  0  0
   -7.6074   -8.2100    1.5041 C   0  0  0  0  0  0  0  0  0  0  0  0
   -8.6671   -7.7422    0.6998 C   0  0  0  0  0  0  0  0  0  0  0  0
   -8.6094   -6.5270    0.0426 C   0  0  0  0  0  0  0  0  0  0  0  0
   -7.4492   -5.8280    0.1438 C   0  0  0  0  0  0  0  0  0  0  0  0
   -5.5155   -7.9990    2.5098 O   0  0  0  0  0  0  0  0  0  0  0  0
   -4.0978   -7.7991    2.3766 C   0  0  0  0  0  0  0  0  0  0  0  0
   -3.5394   -7.1646    1.1108 C   0  0  0  0  0  0  0  0  0  0  0  0
   -5.4617   -4.0641    1.1444 C   0  0  0  0  0  0  0  0  0  0  0  0
   -6.5493   -3.0499    1.2067 C   0  0  0  0  0  0  0  0  0  0  0  0
   -6.4911   -2.2689    2.5602 C   0  0  0  0  0  0  0  0  0  0  0  0
   -7.5412   -1.2100    2.6232 C   0  0  0  0  0  0  0  0  0  0  0  0
   -7.4990   -0.2944    1.4027 C   0  0  0  0  0  0  0  0  0  0  0  0
   -7.6021   -1.0722    0.0922 C   0  0  0  0  0  0  0  0  0  0  0  0
   -6.5135   -2.1158   -0.0385 C   0  0  0  0  0  0  0  0  0  0  0  0
   -2.0273   -4.1701    1.3645 C   0  0  0  0  0  0  0  0  0  0  0  0
   -1.1529   -2.2755   -0.6853 O   0  0  0  0  0  0  0  0  0  0  0  0
    1.2100   -2.2601    1.2319 C   0  0  0  0  0  0  0  0  0  0  0  0
    1.8171   -2.7870    0.3119 O   0  0  0  0  0  0  0  0  0  0  0  0
    0.7977   -3.0047    2.2959 O   0  0  0  0  0  0  0  0  0  0  0  0
    1.0199   -0.0835    2.4965 C   0  0  0  0  0  0  0  0  0  0  0  0
  1  2  1  0
  2 33  1  0
  2  3  1  0
  2 30  1  0
  3  4  1  0
  4 29  2  0
  4  5  1  0
  5  6  2  0
  5 28  1  0
  6  7  1  0
  7  8  2  0
  8  9  1  0
  8 21  1  0
  9 28  2  0
  9 10  1  0
 10 20  1  0
 10 11  1  0
 11 12  1  0
 11 21  2  0
 12 17  2  0
 12 13  1  0
 13 18  1  0
 13 14  2  0
 14 15  1  0
 15 16  2  0
 16 17  1  0
 18 19  1  0
 19 20  1  0
 21 22  1  0
 22 27  1  0
 22 23  1  0
 23 24  1  0
 24 25  1  0
 25 26  1  0
 26 27  1  0
 30 31  2  0
 30 32  1  0
M  END
>  <DRUGBANK_ID>  (1) 
DB08031

>  <COMMON_NAME>  (1) 
N-[(13-CYCLOHEXYL-6,7-DIHYDROINDOLO[1,2-D][1,4]BENZOXAZEPIN-10-YL)CARBONYL]-2-METHYL-L-ALANINE

$$$$
