
     RDKit          3D

 39 43  0  0  0  0  0  0  0  0999 V2000
    0.9937   -0.2132    0.0079 C   0  0  0  0  0  0  0  0  0  0  0  0
    0.4813   -1.5094    0.3516 O   0  0  0  0  0  0  0  0  0  0  0  0
    0.8382   -2.6214   -0.3863 C   0  0  0  0  0  0  0  0  0  0  0  0
    2.1873   -3.0457   -0.6609 C   0  0  0  0  0  0  0  0  0  0  0  0
    2.5315   -4.0627   -1.6891 C   0  0  0  0  0  0  0  0  0  0  0  0
    3.8129   -4.0705   -2.3037 N   0  0  0  0  0  0  0  0  0  0  0  0
    4.2875   -5.0563   -3.2872 C   0  0  0  0  0  0  0  0  0  0  0  0
    4.8237   -3.0247   -1.9791 C   0  0  0  0  0  0  0  0  0  0  0  0
    4.5745   -1.5718   -2.5525 C   0  0  0  0  0  0  0  0  0  0  0  0
    3.2938   -0.9150   -2.2286 N   0  0  0  0  0  0  0  0  0  0  0  0
    3.2218    0.5111   -2.4599 C   0  0  0  0  0  0  0  0  0  0  0  0
    2.1965   -1.4848   -3.0044 C   0  0  0  0  0  0  0  0  0  0  0  0
    1.4232   -4.7925   -2.1785 C   0  0  0  0  0  0  0  0  0  0  0  0
    1.3840   -5.5112   -3.4487 N   0  0  0  0  0  0  0  0  0  0  0  0
    0.4798   -6.3002   -4.1127 C   0  0  0  0  0  0  0  0  0  0  0  0
    0.8300   -7.0555   -5.0198 O   0  0  0  0  0  0  0  0  0  0  0  0
   -0.9260   -6.2775   -3.7913 C   0  0  0  0  0  0  0  0  0  0  0  0
   -1.4843   -5.1197   -3.4864 C   0  0  0  0  0  0  0  0  0  0  0  0
    0.2486   -4.6603   -1.4203 C   0  0  0  0  0  0  0  0  0  0  0  0
   -0.1915   -3.4607   -0.8216 C   0  0  0  0  0  0  0  0  0  0  0  0
   -1.6118   -3.1887   -0.6580 N   0  0  0  0  0  0  0  0  0  0  0  0
   -2.7451   -4.0261   -1.0165 C   0  0  0  0  0  0  0  0  0  0  0  0
   -3.6892   -3.7140   -1.9429 N   0  0  0  0  0  0  0  0  0  0  0  0
   -4.6521   -4.6424   -2.6011 C   0  0  0  0  0  0  0  0  0  0  0  0
   -4.5544   -5.9449   -2.3066 C   0  0  0  0  0  0  0  0  0  0  0  0
   -3.6995   -6.1531   -1.2329 C   0  0  0  0  0  0  0  0  0  0  0  0
   -2.8183   -5.2775   -0.5921 N   0  0  0  0  0  0  0  0  0  0  0  0
   -6.2886   -4.1697   -3.1797 C   0  0  0  0  0  0  0  0  0  0  0  0
   -7.7945   -3.7795   -2.3530 C   0  0  0  0  0  0  0  0  0  0  0  0
   -6.9916   -4.7196   -1.8818 N   0  0  0  0  0  0  0  0  0  0  0  0
   -6.0247   -3.3075   -1.2347 C   0  0  0  0  0  0  0  0  0  0  0  0
   -6.0393   -1.8087   -1.4207 C   0  0  0  0  0  0  0  0  0  0  0  0
   -5.2978   -2.1802   -2.6020 C   0  0  0  0  0  0  0  0  0  0  0  0
   -7.5522   -5.1723   -3.4932 C   0  0  0  0  0  0  0  0  0  0  0  0
   -6.8296   -4.3228   -4.2985 C   0  0  0  0  0  0  0  0  0  0  0  0
   -6.8308   -4.1617   -5.6933 C   0  0  0  0  0  0  0  0  0  0  0  0
   -7.9217   -4.7750   -6.2703 C   0  0  0  0  0  0  0  0  0  0  0  0
   -8.8826   -5.4625   -5.4900 C   0  0  0  0  0  0  0  0  0  0  0  0
   -8.7876   -5.6086   -4.0692 C   0  0  0  0  0  0  0  0  0  0  0  0
  1  2  1  0
  2  3  1  0
  3  4  2  0
  3 20  1  0
  4  5  1  0
  5  6  1  0
  5 13  2  0
  6  7  1  0
  6  8  1  0
  8  9  1  0
  9 10  1  0
 10 11  1  0
 10 12  1  0
 13 14  1  0
 13 19  1  0
 14 15  1  0
 15 16  2  0
 15 17  1  0
 17 18  2  0
 19 20  2  0
 20 21  1  0
 21 22  1  0
 22 23  2  0
 22 27  1  0
 23 24  1  0
 24 25  2  0
 24 28  1  0
 25 26  1  0
 26 27  2  0
 28 29  2  0
 28 35  1  0
 29 30  1  0
 30 31  1  0
 30 34  1  0
 31 32  1  0
 31 33  1  0
 32 33  1  0
 34 35  2  0
 34 39  1  0
 35 36  1  0
 36 37  2  0
 37 38  1  0
 38 39  2  0
M  END
>  <DRUGBANK_ID>  (1) 
DB16640

>  <COMMON_NAME>  (1) 
Almonertinib

>  <CAS_NUMBER>  (1) 
1899921-05-1

>  <UNII>  (1) 
T4RS462G19

>  <SYNONYMS>  (1) 
Almonertinib; HS-10296

$$$$
