664
     RDKit          3D

 19 20  0  0  0  0  0  0  0  0999 V2000
    1.0012    0.0721   -0.0101 S   0  0  0  0  0  0  0  0  0  0  0  0
    0.6014   -0.6879   -1.1717 O   0  0  0  0  0  0  0  0  0  0  0  0
    0.4955   -0.3220    1.2976 O   0  0  0  0  0  0  0  0  0  0  0  0
   -0.0291    3.8501    1.8322 O   0  0  0  0  0  0  0  0  0  0  0  0
    0.4143    1.6161   -0.3308 N   0  0  0  0  0  0  0  0  0  0  0  0
    2.0810    2.9781   -1.0868 N   0  0  0  0  0  0  0  0  0  0  0  0
    6.9595   -0.0599    0.1039 N   0  0  0  0  0  0  0  0  0  0  0  0
    1.8234    4.8247    1.0119 N   0  0  0  0  0  0  0  0  0  0  0  0
    2.7672   -0.0198    0.0997 C   0  0  0  0  0  0  0  0  0  0  0  0
    3.5356    1.1031    0.3277 C   0  0  0  0  0  0  0  0  0  0  0  0
    3.4290   -1.2406   -0.0095 C   0  0  0  0  0  0  0  0  0  0  0  0
    1.1067    2.8392   -0.1525 C   0  0  0  0  0  0  0  0  0  0  0  0
    5.5826   -0.0762    0.0282 C   0  0  0  0  0  0  0  0  0  0  0  0
    4.9062    1.1183    0.1493 C   0  0  0  0  0  0  0  0  0  0  0  0
    4.8376   -1.2618    0.0114 C   0  0  0  0  0  0  0  0  0  0  0  0
    0.9391    3.7909    0.8748 C   0  0  0  0  0  0  0  0  0  0  0  0
    2.9745    3.9799   -0.8962 C   0  0  0  0  0  0  0  0  0  0  0  0
    2.8525    4.8831    0.1362 C   0  0  0  0  0  0  0  0  0  0  0  0
   -1.0294    2.8516    1.8225 C   0  0  0  0  0  0  0  0  0  0  0  0
  1  2  2  0
  1  3  2  0
  1  5  1  0
  1  9  1  0
  4 16  1  0
  4 19  1  0
  5 12  1  0
  6 12  2  0
  6 17  1  0
  7 13  1  0
  8 16  2  0
  8 18  1  0
  9 10  2  0
  9 11  1  0
 10 14  1  0
 11 15  2  0
 12 16  1  0
 13 14  2  0
 13 15  1  0
 17 18  2  0
M  END
>  <DRUGBANK_ID>  (1) 
DB00664

>  <SECONDARY_ACCESSION_NUMBERS>  (1) 
APRD00517

>  <COMMON_NAME>  (1) 
Sulfametopyrazine

>  <CAS_NUMBER>  (1) 
152-47-6

>  <UNII>  (1) 
T6BL4ZC15G

>  <SYNONYMS>  (1) 
Solfametopirazina; Sulfalene; Sulfaleno; Sulfalenum; Sulfamethopyrazine

$$$$
