1203
     RDKit          3D

 22 23  0  0  1  0  0  0  0  0999 V2000
    0.8408   -0.0378   -0.0932 O   0  0  0  0  0  0  0  0  0  0  0  0
   -0.3264    2.5417    0.9382 O   0  0  0  0  0  0  0  0  0  0  0  0
   -3.1093    0.9718   -3.0749 O   0  0  0  0  0  0  0  0  0  0  0  0
   -5.2489    3.1382   -3.1214 O   0  0  0  0  0  0  0  0  0  0  0  0
   -7.2552    0.3172   -4.2825 N   0  0  0  0  0  0  0  0  0  0  0  0
    0.4996    1.0908   -0.8923 C   0  0  2  0  0  0  0  0  0  0  0  0
    0.6441    2.4078   -0.1096 C   0  0  1  0  0  0  0  0  0  0  0  0
   -0.9253    0.9562   -1.4196 C   0  0  0  0  0  0  0  0  0  0  0  0
    0.5148    3.5740   -1.0859 C   0  0  0  0  0  0  0  0  0  0  0  0
   -1.3272    2.1949   -2.1995 C   0  0  0  0  0  0  0  0  0  0  0  0
   -0.6750    3.4339   -2.0030 C   0  0  0  0  0  0  0  0  0  0  0  0
   -2.3804    2.1275   -3.1104 C   0  0  0  0  0  0  0  0  0  0  0  0
   -8.4345    0.2482   -5.1570 C   0  0  0  0  0  0  0  0  0  0  0  0
   -1.0937    4.5674   -2.7139 C   0  0  0  0  0  0  0  0  0  0  0  0
   -5.4809    1.7316   -3.2647 C   0  0  1  0  0  0  0  0  0  0  0  0
   -6.6618    1.6488   -4.2227 C   0  0  0  0  0  0  0  0  0  0  0  0
   -4.3026    0.9151   -3.8456 C   0  0  0  0  0  0  0  0  0  0  0  0
   -2.6778    3.2319   -3.9153 C   0  0  0  0  0  0  0  0  0  0  0  0
   -2.0934    4.4682   -3.6611 C   0  0  0  0  0  0  0  0  0  0  0  0
   -8.0528    0.5522   -6.6153 C   0  0  0  0  0  0  0  0  0  0  0  0
   -8.9509   -1.1955   -5.0661 C   0  0  0  0  0  0  0  0  0  0  0  0
   -9.5352    1.2020   -4.6666 C   0  0  0  0  0  0  0  0  0  0  0  0
  3 12  1  0
  3 17  1  0
 15  4  1  6
  5 13  1  0
  5 16  1  0
  6  1  1  1
  6  7  1  0
  6  8  1  0
  7  2  1  1
  7  9  1  0
  8 10  1  0
  9 11  1  0
 10 11  2  0
 10 12  1  0
 11 14  1  0
 12 18  2  0
 13 20  1  0
 13 21  1  0
 13 22  1  0
 14 19  2  0
 15 16  1  0
 15 17  1  0
 18 19  1  0
M  END
>  <DRUGBANK_ID>  (1) 
DB01203

>  <SECONDARY_ACCESSION_NUMBERS>  (1) 
APRD00301

>  <COMMON_NAME>  (1) 
Nadolol

>  <CAS_NUMBER>  (1) 
42200-33-9

>  <UNII>  (1) 
FEN504330V

>  <SYNONYMS>  (1) 
Nadolol

$$$$
