1012
     RDKit          3D

 26 28  0  0  1  0  0  0  0  0999 V2000
    1.0355   -0.0819   -0.1338 F   0  0  0  0  0  0  0  0  0  0  0  0
    2.6462   -0.2338    1.3144 F   0  0  0  0  0  0  0  0  0  0  0  0
    2.7102   -1.4217   -0.5078 F   0  0  0  0  0  0  0  0  0  0  0  0
    5.1557    4.5276   -5.2012 N   0  0  0  0  0  0  0  0  0  0  0  0
    4.5680    5.8597   -4.9776 C   0  0  1  0  0  0  0  0  0  0  0  0
    4.2818    3.5768   -5.8606 C   0  0  0  0  0  0  0  0  0  0  0  0
    3.4451    6.0234   -3.8849 C   0  0  0  0  0  0  0  0  0  0  0  0
    4.5375    2.0961   -5.3458 C   0  0  0  0  0  0  0  0  0  0  0  0
    5.2083    1.7386   -3.9016 C   0  0  0  0  0  0  0  0  0  0  0  0
    2.4945    5.0192   -3.3930 C   0  0  0  0  0  0  0  0  0  0  0  0
    5.8494    6.7073   -4.6934 C   0  0  0  0  0  0  0  0  0  0  0  0
    1.6013    5.2729   -2.3274 C   0  0  0  0  0  0  0  0  0  0  0  0
    4.5654    1.8605   -2.4880 C   0  0  0  0  0  0  0  0  0  0  0  0
    3.2734    7.3186   -3.3874 C   0  0  0  0  0  0  0  0  0  0  0  0
    2.4353    3.6727   -3.7304 C   0  0  0  0  0  0  0  0  0  0  0  0
    1.6454    6.5380   -1.7673 C   0  0  0  0  0  0  0  0  0  0  0  0
    2.4046    7.5685   -2.3221 C   0  0  0  0  0  0  0  0  0  0  0  0
    3.9332    0.7657   -1.8556 C   0  0  0  0  0  0  0  0  0  0  0  0
    0.8158    4.1984   -1.7812 C   0  0  0  0  0  0  0  0  0  0  0  0
    4.5034    3.0926   -1.7984 C   0  0  0  0  0  0  0  0  0  0  0  0
    3.1250    0.9371   -0.6982 C   0  0  0  0  0  0  0  0  0  0  0  0
    1.6150    2.6171   -3.3430 C   0  0  0  0  0  0  0  0  0  0  0  0
    0.7970    2.8924   -2.2872 C   0  0  0  0  0  0  0  0  0  0  0  0
    3.6511    3.2822   -0.6929 C   0  0  0  0  0  0  0  0  0  0  0  0
    2.9261    2.2195   -0.1784 C   0  0  0  0  0  0  0  0  0  0  0  0
    2.3909   -0.1927   -0.0248 C   0  0  0  0  0  0  0  0  0  0  0  0
  1 26  1  0
  2 26  1  0
  3 26  1  0
  4  6  1  0
  5  4  1  0
  5  7  1  0
  5 11  1  1
  6  8  1  0
  7 10  1  0
  7 14  2  0
  8  9  1  0
  9 13  1  0
 10 12  2  0
 10 15  1  0
 12 16  1  0
 12 19  1  0
 13 18  2  0
 13 20  1  0
 14 17  1  0
 15 22  2  0
 16 17  2  0
 18 21  1  0
 19 23  2  0
 20 24  2  0
 21 25  2  0
 21 26  1  0
 22 23  1  0
 24 25  1  0
M  END
>  <DRUGBANK_ID>  (1) 
DB01012

>  <SECONDARY_ACCESSION_NUMBERS>  (1) 
APRD00872

>  <COMMON_NAME>  (1) 
Cinacalcet

>  <CAS_NUMBER>  (1) 
226256-56-0

>  <UNII>  (1) 
UAZ6V7728S

>  <SYNONYMS>  (1) 
(R)-Î±-methyl-N-[3-[3-(trifluoromethyl)phenyl]propyl]-1-naphthalenemethane amine; Cinacalcet; CNC; N-((1R)-1-(Naphthalen-1-yl)ethyl)-3-(3-(trifluoromethyl)phenyl)propan-1-amine

$$$$
