
     RDKit          3D

 29 30  0  0  1  0  0  0  0  0999 V2000
   -1.6088    4.6320    0.3726 C   0  0  0  0  0  0  0  0  0  0  0  0
   -0.4092    3.7989    0.2402 C   0  0  0  0  0  0  0  0  0  0  0  0
    0.6462    4.8535    0.4365 C   0  0  0  0  0  0  0  0  0  0  0  0
   -0.6180    2.6508    1.1951 C   0  0  0  0  0  0  0  0  0  0  0  0
   -1.4701    1.4908    0.6157 C   0  0  2  0  0  0  0  0  0  0  0  0
   -0.8367    0.7741   -0.6030 C   0  0  1  0  0  0  0  0  0  0  0  0
   -1.6881    1.1167   -1.7429 C   0  0  0  0  0  0  0  0  0  0  0  0
   -1.2444    1.9770   -2.5119 O   0  0  0  0  0  0  0  0  0  0  0  0
   -2.9823    0.5776   -1.6723 N   0  0  0  0  0  0  0  0  0  0  0  0
   -3.3812   -0.5921   -1.0388 O   0  0  0  0  0  0  0  0  0  0  0  0
    0.5398    1.0947   -0.8024 O   0  0  0  0  0  0  0  0  0  0  0  0
   -3.0739    1.7199    0.6056 C   0  0  0  0  0  0  0  0  0  0  0  0
   -3.7174    0.9802    1.3725 O   0  0  0  0  0  0  0  0  0  0  0  0
   -3.8475    2.4687   -0.3088 N   0  0  0  0  0  0  0  0  0  0  0  0
   -3.4910    3.4603   -1.4318 C   0  0  1  0  0  0  0  0  0  0  0  0
   -3.7430    3.1956   -2.9538 C   0  0  0  0  0  0  0  0  0  0  0  0
   -3.5312    2.0220   -3.7381 C   0  0  0  0  0  0  0  0  0  0  0  0
   -3.9816    1.7609   -4.9977 C   0  0  0  0  0  0  0  0  0  0  0  0
   -4.4639    2.8331   -5.6633 C   0  0  0  0  0  0  0  0  0  0  0  0
   -4.4307    4.0965   -5.0622 C   0  0  0  0  0  0  0  0  0  0  0  0
   -4.0083    4.2908   -3.7510 C   0  0  0  0  0  0  0  0  0  0  0  0
   -3.8801    4.9023   -1.0631 C   0  0  0  0  0  0  0  0  0  0  0  0
   -3.0395    5.8258   -1.2067 O   0  0  0  0  0  0  0  0  0  0  0  0
   -5.1149    5.2114   -0.7198 O   0  0  0  0  0  0  0  0  0  0  0  0
   -5.2714    6.6184   -0.4112 C   0  0  0  0  0  0  0  0  0  0  0  0
   -6.4643    7.0577   -1.2161 C   0  0  0  0  0  0  0  0  0  0  0  0
   -6.4373    8.5778   -1.1803 C   0  0  0  0  0  0  0  0  0  0  0  0
   -5.0305    9.0112   -0.7946 C   0  0  0  0  0  0  0  0  0  0  0  0
   -4.2447    7.7349   -0.8192 C   0  0  0  0  0  0  0  0  0  0  0  0
  1  2  1  0
  2  3  1  0
  2  4  1  0
  5 12  1  0
  5  6  1  0
  5  4  1  6
  6  7  1  0
  6 11  1  6
  7  8  2  0
  7  9  1  0
  9 10  1  0
 12 13  2  0
 12 14  1  0
 15 14  1  1
 15 16  1  0
 15 22  1  0
 16 17  2  0
 16 21  1  0
 17 18  1  0
 18 19  2  0
 19 20  1  0
 20 21  2  0
 22 23  2  0
 22 24  1  0
 24 25  1  0
 25 26  1  0
 25 29  1  0
 26 27  1  0
 27 28  1  0
 28 29  1  0
M  END
>  <DRUGBANK_ID>  (1) 
DB11781

>  <SECONDARY_ACCESSION_NUMBERS>  (1) 
DB05745

>  <COMMON_NAME>  (1) 
Tosedostat

>  <CAS_NUMBER>  (1) 
238750-77-1

>  <UNII>  (1) 
KZK563J2UW

>  <SYNONYMS>  (1) 
Tosedostat

$$$$
