
     RDKit          3D

 21 24  0  0  0  0  0  0  0  0999 V2000
    1.0375    0.0440   -0.0026 C   0  0  0  0  0  0  0  0  0  0  0  0
    0.5964   -1.1506   -0.7979 C   0  0  0  0  0  0  0  0  0  0  0  0
   -0.3321   -1.0432   -1.8912 C   0  0  0  0  0  0  0  0  0  0  0  0
   -1.1241    0.6650   -2.3021 Br  0  0  0  0  0  0  0  0  0  0  0  0
   -0.6908   -2.1611   -2.6783 C   0  0  0  0  0  0  0  0  0  0  0  0
   -1.8836   -2.0144   -4.1728 Br  0  0  0  0  0  0  0  0  0  0  0  0
   -0.1606   -3.4243   -2.3921 C   0  0  0  0  0  0  0  0  0  0  0  0
   -0.4122   -4.6951   -3.1455 C   0  0  0  0  0  0  0  0  0  0  0  0
   -0.1940   -5.9057   -2.2178 C   0  0  0  0  0  0  0  0  0  0  0  0
    1.1675   -5.8722   -1.4903 C   0  0  0  0  0  0  0  0  0  0  0  0
    1.3994   -4.5889   -0.8556 N   0  0  0  0  0  0  0  0  0  0  0  0
    2.1478   -4.2338    0.2419 C   0  0  0  0  0  0  0  0  0  0  0  0
    1.9604   -2.9454    0.4918 N   0  0  0  0  0  0  0  0  0  0  0  0
    1.1077   -2.4474   -0.5035 C   0  0  0  0  0  0  0  0  0  0  0  0
    0.7324   -3.4817   -1.3179 C   0  0  0  0  0  0  0  0  0  0  0  0
    2.8555   -5.1716    0.9353 N   0  0  0  0  0  0  0  0  0  0  0  0
    3.9934   -5.9032    0.3690 C   0  0  0  0  0  0  0  0  0  0  0  0
    3.8408   -7.4126    0.6995 C   0  0  0  0  0  0  0  0  0  0  0  0
    3.6818   -7.6962    2.1443 N   0  0  0  0  0  0  0  0  0  0  0  0
    2.5749   -6.8637    2.6811 C   0  0  0  0  0  0  0  0  0  0  0  0
    2.7285   -5.3402    2.3851 C   0  0  0  0  0  0  0  0  0  0  0  0
  1  2  1  0
  2  3  2  0
  2 14  1  0
  3  4  1  0
  3  5  1  0
  5  6  1  0
  5  7  2  0
  7  8  1  0
  7 15  1  0
  8  9  1  0
  9 10  1  0
 10 11  1  0
 11 12  1  0
 11 15  1  0
 12 13  2  0
 12 16  1  0
 13 14  1  0
 14 15  2  0
 16 17  1  0
 16 21  1  0
 17 18  1  0
 18 19  1  0
 19 20  1  0
 20 21  1  0
M  END
>  <DRUGBANK_ID>  (1) 
DB18107

>  <COMMON_NAME>  (1) 
SEL120-34A free base

>  <CAS_NUMBER>  (1) 
1609522-33-9

>  <UNII>  (1) 
6LGR0RYY5Q

>  <SYNONYMS>  (1) 
4h-imidazo(4,5,1-ij)quinoline, 7,8-dibromo-5,6-dihydro-9-methyl-2-(1-piperazinyl)-; 7,8-DIBROMO-5,6-DIHYDRO-9-METHYL-2-(1-PIPERAZINYL)-4H-IMIDAZO(4,5,1-IJ)QUINOLINE; Cdk8-in-2 free base

$$$$
