1586
     RDKit          3D

 28 31  0  0  1  0  0  0  0  0999 V2000
   -0.9322   -3.0197   -0.1696 O   0  0  0  0  0  0  0  0  0  0  0  0
    4.5128    0.1253    1.9491 O   0  0  0  0  0  0  0  0  0  0  0  0
   -5.8729    2.5236   -3.7381 O   0  0  0  0  0  0  0  0  0  0  0  0
   -5.4489    0.8356   -2.4324 O   0  0  0  0  0  0  0  0  0  0  0  0
   -1.9656   -0.3886    0.6620 C   0  0  2  0  0  0  0  0  0  0  0  0
   -2.6384    0.9285    0.2804 C   0  0  1  0  0  0  0  0  0  0  0  0
   -0.7625   -0.6066   -0.2679 C   0  0  1  0  0  0  0  0  0  0  0  0
    0.2239    0.5960   -0.1187 C   0  0  1  0  0  0  0  0  0  0  0  0
    1.4538    0.4467   -1.0722 C   0  0  2  0  0  0  0  0  0  0  0  0
   -3.9478    0.9278    1.1077 C   0  0  2  0  0  0  0  0  0  0  0  0
    2.1412   -0.9300   -0.8049 C   0  0  2  0  0  0  0  0  0  0  0  0
   -1.7141    2.0984    0.6127 C   0  0  0  0  0  0  0  0  0  0  0  0
   -0.4252    2.0006   -0.1911 C   0  0  0  0  0  0  0  0  0  0  0  0
   -0.0565   -1.9203    0.0413 C   0  0  2  0  0  0  0  0  0  0  0  0
   -3.1145   -1.3870    0.5855 C   0  0  0  0  0  0  0  0  0  0  0  0
   -4.3228   -0.6050    1.0888 C   0  0  0  0  0  0  0  0  0  0  0  0
    1.1526   -2.1033   -0.8654 C   0  0  0  0  0  0  0  0  0  0  0  0
    2.4843    1.5888   -0.8497 C   0  0  0  0  0  0  0  0  0  0  0  0
   -2.9360    0.8044   -1.2023 C   0  0  0  0  0  0  0  0  0  0  0  0
   -5.1556    1.9256    0.7668 C   0  0  1  0  0  0  0  0  0  0  0  0
    2.8968   -0.9638    0.5364 C   0  0  0  0  0  0  0  0  0  0  0  0
    1.0239    0.5194   -2.5623 C   0  0  0  0  0  0  0  0  0  0  0  0
    3.1774    1.5292    0.5075 C   0  0  0  0  0  0  0  0  0  0  0  0
    3.8819    0.1896    0.6760 C   0  0  1  0  0  0  0  0  0  0  0  0
   -5.0328    3.1968   -0.1728 C   0  0  0  0  0  0  0  0  0  0  0  0
   -6.3435    1.0954    0.3052 C   0  0  0  0  0  0  0  0  0  0  0  0
   -4.6396    3.1164   -1.6836 C   0  0  0  0  0  0  0  0  0  0  0  0
   -5.3636    2.0277   -2.5938 C   0  0  0  0  0  0  0  0  0  0  0  0
  3 28  1  0
  4 28  2  0
  5  6  1  0
  5  7  1  0
  5 15  1  6
  6 10  1  0
  6 12  1  0
  6 19  1  6
  7  8  1  0
  7 14  1  1
  8  9  1  0
  8 13  1  6
  9 11  1  0
  9 18  1  0
  9 22  1  6
 10 16  1  6
 10 20  1  0
 11 17  1  1
 11 21  1  0
 12 13  1  0
 14  1  1  6
 14 17  1  0
 15 16  1  0
 18 23  1  0
 20 25  1  0
 20 26  1  6
 21 24  1  0
 23 24  1  0
 24  2  1  1
 25 27  1  0
 27 28  1  0
M  END
>  <DRUGBANK_ID>  (1) 
DB01586

>  <COMMON_NAME>  (1) 
Ursodeoxycholic acid

>  <CAS_NUMBER>  (1) 
128-13-2

>  <UNII>  (1) 
724L30Y2QR

>  <SYNONYMS>  (1) 
(3alpha,5beta,7beta)-3,7-dihydroxycholan-24-oic acid; (3α,5β,7β)-3,7-dihydroxycholan-24-oic acid; 3alpha,7beta-Dihydroxy-5beta-cholan-24-oic acid; Acide ursodesoxycholique; Acido ursodeossicolico; Acido ursodeoxicolico; Acidum ursodeoxycholicum; UDCA; Ursodeoxycholate; Ursodeoxycholic acid; Ursodiol

$$$$
