
     RDKit          3D

 19 19  0  0  1  0  0  0  0  0999 V2000
    0.7153    1.1488   -0.1998 C   0  0  1  0  0  0  0  0  0  0  0  0
    1.5105   -0.0811    0.2331 C   0  0  1  0  0  0  0  0  0  0  0  0
   -0.5799    1.0078    0.3720 O   0  0  0  0  0  0  0  0  0  0  0  0
    0.7780   -1.3514   -0.2410 C   0  0  2  0  0  0  0  0  0  0  0  0
   -1.3430   -0.0267   -0.2618 C   0  0  1  0  0  0  0  0  0  0  0  0
   -0.7087   -1.3406    0.2013 C   0  0  2  0  0  0  0  0  0  0  0  0
    1.3114    2.3477    0.2666 O   0  0  0  0  0  0  0  0  0  0  0  0
    2.8993   -0.0367   -0.2120 N   0  0  0  0  0  0  0  0  0  0  0  0
    1.4520   -2.4940    0.2917 O   0  0  0  0  0  0  0  0  0  0  0  0
   -0.8045   -1.4365    1.6336 O   0  0  0  0  0  0  0  0  0  0  0  0
   -2.7974    0.1323    0.1962 C   0  0  0  0  0  0  0  0  0  0  0  0
   -3.3660    1.3504   -0.2858 O   0  0  0  0  0  0  0  0  0  0  0  0
    3.9938   -0.0147    0.6027 C   0  0  0  0  0  0  0  0  0  0  0  0
    5.1197    0.0057    0.1124 O   0  0  0  0  0  0  0  0  0  0  0  0
    3.7615   -0.0086    2.0925 C   0  0  0  0  0  0  0  0  0  0  0  0
   -2.8512    2.8036    0.2622 S   0  0  0  0  0  0  0  0  0  0  0  0
   -2.7143    2.5670    1.8551 O   0  0  0  0  0  0  0  0  0  0  0  0
   -1.5544    3.1167   -0.3009 O   0  0  0  0  0  0  0  0  0  0  0  0
   -3.9329    3.7367    0.1011 O   0  0  0  0  0  0  0  0  0  0  0  0
  1  2  1  0
  1  3  1  0
  1  7  1  1
  2  4  1  0
  2  8  1  6
  3  5  1  0
  4  6  1  0
  4  9  1  1
  5  6  1  0
  5 11  1  1
  6 10  1  1
  8 13  1  0
 12 11  1  0
 12 16  1  0
 14 13  2  0
 15 13  1  0
 16 17  1  0
 18 16  2  0
 19 16  2  0
M  END
>  <DRUGBANK_ID>  (1) 
DB02186

>  <SECONDARY_ACCESSION_NUMBERS>  (1) 
EXPT02335

>  <COMMON_NAME>  (1) 
N-acetyl-beta-D-galactosamine 6-sulfate

>  <CAS_NUMBER>  (1) 
157296-99-6

>  <SYNONYMS>  (1) 
2-(acetylamino)-2-deoxy-6-O-sulfo-β-D-galactopyranose; N-Acetyl-D-galactosamine 6-sulfate; N-acetyl-β-D-galactosamine 6-sulfate; β-D-GalpNAc6S

$$$$
