
     RDKit          3D

  9  8  0  0  1  0  0  0  0  0999 V2000
    0.9781   -0.0716    0.1425 C   0  0  0  0  0  0  0  0  0  0  0  0
    0.3853   -1.3270    0.7981 C   0  0  1  0  0  0  0  0  0  0  0  0
    0.8524   -1.4206    2.1901 N   0  0  0  0  0  0  0  0  0  0  0  0
    0.0185   -1.6198    3.2442 C   0  0  0  0  0  0  0  0  0  0  0  0
    0.6113   -1.6143    4.4533 N   0  0  0  0  0  0  0  0  0  0  0  0
   -1.1933   -1.7744    3.1858 O   0  0  0  0  0  0  0  0  0  0  0  0
   -1.1452   -1.2181    0.5888 C   0  0  0  0  0  0  0  0  0  0  0  0
   -1.6957   -2.2570   -0.0885 O   0  0  0  0  0  0  0  0  0  0  0  0
   -1.8182   -0.2592    0.9451 O   0  0  0  0  0  0  0  0  0  0  0  0
  2  1  1  1
  2  3  1  0
  2  7  1  0
  3  4  1  0
  4  5  1  0
  4  6  2  0
  7  8  1  0
  7  9  2  0
M  END
>  <DRUGBANK_ID>  (1) 
DB04048

>  <SECONDARY_ACCESSION_NUMBERS>  (1) 
EXPT02308

>  <COMMON_NAME>  (1) 
N-Carbamoyl-Alanine

$$$$
