RF2
     RDKit          3D

 18 20  0  0  0  0  0  0  0  0999 V2000
   -1.2638    1.2230   -0.0279 C   0  0  0  0  0  0  0  0  0  0  0  0
    0.1339    1.2099   -0.0203 C   0  0  0  0  0  0  0  0  0  0  0  0
    0.8101   -0.0049   -0.0104 C   0  0  0  0  0  0  0  0  0  0  0  0
    2.1493   -0.0140   -0.0020 F   0  0  0  0  0  0  0  0  0  0  0  0
    0.1159   -1.2085   -0.0030 C   0  0  0  0  0  0  0  0  0  0  0  0
   -1.2815   -1.1972   -0.0052 C   0  0  0  0  0  0  0  0  0  0  0  0
   -1.9823    0.0183   -0.0259 C   0  0  0  0  0  0  0  0  0  0  0  0
   -3.4374    0.0182    0.0012 C   0  0  0  0  0  0  0  0  0  0  0  0
   -4.2378    0.5945   -0.9544 N   0  0  0  0  0  0  0  0  0  0  0  0
   -4.2103   -0.5333    0.9123 N   0  0  0  0  0  0  0  0  0  0  0  0
   -5.5192   -0.2698    0.5821 N   0  0  0  0  0  0  0  0  0  0  0  0
   -5.5351    0.3880   -0.5588 C   0  0  0  0  0  0  0  0  0  0  0  0
   -6.7156    0.8108   -1.2983 C   0  0  0  0  0  0  0  0  0  0  0  0
   -7.6836    1.6079   -0.6733 C   0  0  0  0  0  0  0  0  0  0  0  0
   -8.8877    1.8985   -1.3198 C   0  0  0  0  0  0  0  0  0  0  0  0
   -9.1126    1.4369   -2.6153 C   0  0  0  0  0  0  0  0  0  0  0  0
   -8.1454    0.6635   -3.2556 C   0  0  0  0  0  0  0  0  0  0  0  0
   -6.9527    0.3467   -2.5986 C   0  0  0  0  0  0  0  0  0  0  0  0
  1  7  2  0
  1  2  1  0
  2  3  2  0
  3  5  1  0
  3  4  1  0
  6  5  2  0
  7  6  1  0
  8  7  1  0
  8  9  1  0
 10  8  2  0
 11 10  1  0
 11 12  2  0
 12  9  1  0
 13 12  1  0
 13 18  1  0
 14 13  2  0
 15 14  1  0
 15 16  2  0
 16 17  1  0
 17 18  2  0
M  END
>  <DRUGBANK_ID>  (1) 
DB08470

>  <COMMON_NAME>  (1) 
3-(4-fluorophenyl)-5-phenyl-4H-1,2,4-triazole

$$$$
