
     RDKit          3D

 14 15  0  0  0  0  0  0  0  0999 V2000
   -2.0716   -0.9586   -0.0547 S   0  0  0  0  0  0  0  0  0  0  0  0
   -0.3798   -0.7369    0.5911 C   0  0  1  0  0  0  0  0  0  0  0  0
    0.5599   -1.4980   -0.1546 O   0  0  0  0  0  0  0  0  0  0  0  0
    1.9359   -1.0671   -0.1002 C   0  0  1  0  0  0  0  0  0  0  0  0
    2.0039    0.3688   -0.6237 C   0  0  2  0  0  0  0  0  0  0  0  0
    1.1701    1.3244    0.2460 C   0  0  1  0  0  0  0  0  0  0  0  0
   -0.2187    0.7909    0.6026 C   0  0  1  0  0  0  0  0  0  0  0  0
   -1.2028    1.4872   -0.2507 N   0  0  0  0  0  0  0  0  0  0  0  0
   -2.2066    0.7106   -0.5042 C   0  0  0  0  0  0  0  0  0  0  0  0
   -3.4298    1.2496   -1.1681 C   0  0  0  0  0  0  0  0  0  0  0  0
    1.8303    1.6765    1.4649 O   0  0  0  0  0  0  0  0  0  0  0  0
    1.5378    0.3874   -1.9869 O   0  0  0  0  0  0  0  0  0  0  0  0
    2.6506   -1.3671    1.2503 C   0  0  0  0  0  0  0  0  0  0  0  0
    2.8928   -0.2666    2.1158 O   0  0  0  0  0  0  0  0  0  0  0  0
  1  9  1  0
  2  1  1  0
  2  7  1  0
  2  3  1  6
  4  3  1  0
  4 13  1  1
  5  4  1  0
  5 12  1  6
  6  5  1  0
  6 11  1  1
  7  6  1  0
  7  8  1  6
  8  9  2  0
  9 10  1  0
 14 13  1  0
M  END
>  <DRUGBANK_ID>  (1) 
DB03747

>  <SECONDARY_ACCESSION_NUMBERS>  (1) 
EXPT02338

>  <COMMON_NAME>  (1) 
N-Acetyl-glucosamine thiazoline

>  <CAS_NUMBER>  (1) 
179030-22-9

>  <UNII>  (1) 
ML5FHL557A

>  <SYNONYMS>  (1) 
NAG-thiazoline

$$$$
