
     RDKit          3D

  4  3  0  0  0  0  0  0  0  0999 V2000
    0.9402    0.0795   -0.0100 O   0  0  0  0  0  0  0  0  0  0  0  0
    1.4149   -1.0274    2.2920 O   0  0  0  0  0  0  0  0  0  0  0  0
    0.4402   -0.5333    1.2645 B   0  0  0  0  0  0  0  0  0  0  0  0
   -1.0346   -0.6521    1.5116 O   0  0  0  0  0  0  0  0  0  0  0  0
  1  3  1  0
  2  3  1  0
  3  4  1  0
M  END
>  <DRUGBANK_ID>  (1) 
DB11326

>  <COMMON_NAME>  (1) 
Boric acid

>  <CAS_NUMBER>  (1) 
10043-35-3

>  <UNII>  (1) 
R57ZHV85D4

>  <SYNONYMS>  (1) 
ácido bórico; boracic acid; Boric acid; hydrogen borate; orthoboric acid

$$$$
