
     RDKit          3D

 20 21  0  0  0  0  0  0  0  0999 V2000
   -0.5004    1.3141   -0.0091 C   0  0  0  0  0  0  0  0  0  0  0  0
   -1.1866    2.6449    0.0759 C   0  0  0  0  0  0  0  0  0  0  0  0
   -1.3280    0.1542   -0.0075 C   0  0  0  0  0  0  0  0  0  0  0  0
    0.8859    1.1063   -0.0410 C   0  0  0  0  0  0  0  0  0  0  0  0
   -0.4897    3.9892   -0.1445 C   0  0  0  0  0  0  0  0  0  0  0  0
   -2.3757    2.6170    0.3876 O   0  0  0  0  0  0  0  0  0  0  0  0
   -0.7916   -1.1361   -0.0024 C   0  0  0  0  0  0  0  0  0  0  0  0
   -2.7047    0.1834   -0.0208 O   0  0  0  0  0  0  0  0  0  0  0  0
    1.4147   -0.1877   -0.0316 C   0  0  0  0  0  0  0  0  0  0  0  0
    1.8746    2.0455   -0.1163 O   0  0  0  0  0  0  0  0  0  0  0  0
   -0.7391    4.6884   -1.4777 C   0  0  0  0  0  0  0  0  0  0  0  0
    0.5809   -1.2942   -0.0064 C   0  0  0  0  0  0  0  0  0  0  0  0
   -2.1571    5.1481   -1.6309 C   0  0  0  0  0  0  0  0  0  0  0  0
    1.0990   -2.5528    0.0089 O   0  0  0  0  0  0  0  0  0  0  0  0
   -2.5007    6.5011   -1.5467 C   0  0  0  0  0  0  0  0  0  0  0  0
   -3.1670    4.1935   -1.7891 C   0  0  0  0  0  0  0  0  0  0  0  0
   -3.8446    6.8788   -1.5894 C   0  0  0  0  0  0  0  0  0  0  0  0
   -4.5016    4.5565   -1.7308 C   0  0  0  0  0  0  0  0  0  0  0  0
   -4.8324    5.8977   -1.6610 C   0  0  0  0  0  0  0  0  0  0  0  0
   -6.1591    6.2032   -1.6867 O   0  0  0  0  0  0  0  0  0  0  0  0
  1  2  1  0
  1  3  2  0
  1  4  1  0
  2  5  1  0
  2  6  2  0
  3  7  1  0
  3  8  1  0
  4  9  2  0
  4 10  1  0
  5 11  1  0
  7 12  2  0
  9 12  1  0
 11 13  1  0
 12 14  1  0
 13 15  2  0
 13 16  1  0
 15 17  1  0
 16 18  2  0
 17 19  2  0
 18 19  1  0
 19 20  1  0
M  END
>  <DRUGBANK_ID>  (1) 
DB07810

>  <COMMON_NAME>  (1) 
Phloretin

>  <CAS_NUMBER>  (1) 
60-82-2

>  <UNII>  (1) 
S5J5OE47MK

>  <SYNONYMS>  (1) 
2',4,4',6'-Tetrahydroxy-Dihydrochalcone; 2',4,4',6'-Tetrahydroxydihydrochalcone; Dihydronaringenin; Phloretol

$$$$
