
     RDKit          3D

  1  0  0  0  0  0  0  0  0  0999 V2000
    0.9552    0.0692    0.0566 Ca  0  0  0  0  0 15  0  0  0  0  0  0
M  END
>  <DRUGBANK_ID>  (1) 
DB01373

>  <COMMON_NAME>  (1) 
Calcium

>  <CAS_NUMBER>  (1) 
7440-70-2

>  <UNII>  (1) 
SY7Q814VUP

>  <SYNONYMS>  (1) 
Calcio; Calcium, elemental; Elemental calcium; Kalzium

$$$$
