
     RDKit          3D

 16 17  0  0  1  0  0  0  0  0999 V2000
    0.2264    1.3290   -0.3595 C   0  0  2  0  0  0  0  0  0  0  0  0
    0.9856   -0.0081   -0.0479 C   0  0  0  0  0  0  0  0  0  0  0  0
    2.1886   -0.0500    0.2044 O   0  0  0  0  0  0  0  0  0  0  0  0
   -1.2091    1.2185    0.2497 C   0  0  0  0  0  0  0  0  0  0  0  0
    0.2147   -1.3105   -0.2584 C   0  0  0  0  0  0  0  0  0  0  0  0
   -1.9945   -0.0422   -0.0609 C   0  0  0  0  0  0  0  0  0  0  0  0
   -1.1966   -1.2806    0.3158 C   0  0  0  0  0  0  0  0  0  0  0  0
    0.2764    1.5851   -1.8921 C   0  0  0  0  0  0  0  0  0  0  0  0
    0.8632    2.4095    0.4491 N   0  0  0  0  0  0  0  0  0  0  0  0
   -0.4343    0.7099   -2.7463 C   0  0  0  0  0  0  0  0  0  0  0  0
   -0.5502    0.8982   -4.1200 C   0  0  0  0  0  0  0  0  0  0  0  0
    0.0265    2.0057   -4.7023 C   0  0  0  0  0  0  0  0  0  0  0  0
    0.9854    2.6139   -2.5552 C   0  0  0  0  0  0  0  0  0  0  0  0
    0.7817    2.8658   -3.9193 C   0  0  0  0  0  0  0  0  0  0  0  0
    0.1719    3.6997    0.3809 C   0  0  0  0  0  0  0  0  0  0  0  0
    2.2483    3.5968   -1.8745 Cl  0  0  0  0  0  0  0  0  0  0  0  0
  1  9  1  1
  1  8  1  0
  2  1  1  0
  3  2  2  0
  4  1  1  0
  5  2  1  0
  6  4  1  0
  7  5  1  0
  7  6  1  0
  8 10  2  0
  9 15  1  0
 11 10  1  0
 12 11  2  0
 13  8  1  0
 13 16  1  0
 14 12  1  0
 14 13  2  0
M  END
>  <DRUGBANK_ID>  (1) 
DB11823

>  <COMMON_NAME>  (1) 
Esketamine

>  <CAS_NUMBER>  (1) 
33643-46-8

>  <UNII>  (1) 
50LFG02TXD

>  <SYNONYMS>  (1) 
(-)-Ketamine; (−)-ketamine; (S)-(−)-ketamine; (S)-2-(o-chlorophenyl)-2-(methylamino)cyclohexanone; (S)-ketamine; Esketamine; L-ketamine; S-(-)-Ketamine; S-ketamine

$$$$
