775
     RDKit          3D

 30 31  0  0  1  0  0  0  0  0999 V2000
    1.0387   -0.0394   -0.0726 S   0  0  0  0  0  0  0  0  0  0  0  0
   -5.2605    0.8653    2.5279 O   0  0  0  0  0  0  0  0  0  0  0  0
    0.4769    1.2893    0.1401 O   0  0  0  0  0  0  0  0  0  0  0  0
    0.6221   -0.8104   -1.2039 O   0  0  0  0  0  0  0  0  0  0  0  0
    1.7506   -1.8571    4.6171 O   0  0  0  0  0  0  0  0  0  0  0  0
   -0.4104   -1.6022    4.4086 O   0  0  0  0  0  0  0  0  0  0  0  0
   -4.9883    7.4279    0.3799 N   0  0  0  0  0  0  0  0  0  0  0  0
    0.7079   -0.9721    1.3177 N   0  0  0  0  0  0  0  0  0  0  0  0
   -4.6355    5.6058    2.6435 C   0  0  0  0  0  0  0  0  0  0  0  0
   -5.2321    5.2045    1.2771 C   0  0  0  0  0  0  0  0  0  0  0  0
   -4.6778    7.1050    2.8116 C   0  0  0  0  0  0  0  0  0  0  0  0
   -3.4933    4.6638    2.9665 C   0  0  0  0  0  0  0  0  0  0  0  0
   -4.6574    6.0353    0.1439 C   0  0  0  0  0  0  0  0  0  0  0  0
   -4.3055    7.9056    1.5825 C   0  0  0  0  0  0  0  0  0  0  0  0
   -4.0633    3.6148    4.0526 C   0  0  0  0  0  0  0  0  0  0  0  0
   -5.5275    3.0448    3.8564 C   0  0  0  0  0  0  0  0  0  0  0  0
   -5.8724    2.1654    2.6226 C   0  0  0  0  0  0  0  0  0  0  0  0
    1.0459   -0.4427    2.7119 C   0  0  1  0  0  0  0  0  0  0  0  0
    0.4111    0.9312    2.9504 C   0  0  0  0  0  0  0  0  0  0  0  0
    2.8262    0.0323   -0.0416 C   0  0  0  0  0  0  0  0  0  0  0  0
   -3.9108    0.8098    2.3897 C   0  0  0  0  0  0  0  0  0  0  0  0
    3.3752    0.9223   -1.1520 C   0  0  0  0  0  0  0  0  0  0  0  0
   -1.0902    0.8801    2.7431 C   0  0  0  0  0  0  0  0  0  0  0  0
    2.9683    2.3942   -1.0209 C   0  0  0  0  0  0  0  0  0  0  0  0
   -3.1162    1.9001    2.1408 C   0  0  0  0  0  0  0  0  0  0  0  0
   -3.2510   -0.3587    2.5145 C   0  0  0  0  0  0  0  0  0  0  0  0
   -1.7650    2.0328    2.4866 C   0  0  0  0  0  0  0  0  0  0  0  0
   -1.8685   -0.3016    2.6489 C   0  0  0  0  0  0  0  0  0  0  0  0
    0.6945   -1.3500    3.9505 C   0  0  0  0  0  0  0  0  0  0  0  0
    3.4123    2.9971    0.3040 C   0  0  0  0  0  0  0  0  0  0  0  0
  1  3  2  0
  1  4  2  0
  1  8  1  0
  1 20  1  0
  2 17  1  0
  2 21  1  0
  5 29  1  0
  6 29  2  0
  7 13  1  0
  7 14  1  0
  9 10  1  0
  9 11  1  0
  9 12  1  0
 10 13  1  0
 11 14  1  0
 12 15  1  0
 15 16  1  0
 16 17  1  0
 18  8  1  0
 18 19  1  1
 18 29  1  0
 19 23  1  0
 20 22  1  0
 21 25  2  0
 21 26  1  0
 22 24  1  0
 23 27  2  0
 23 28  1  0
 24 30  1  0
 25 27  1  0
 26 28  2  0
M  END
>  <DRUGBANK_ID>  (1) 
DB00775

>  <SECONDARY_ACCESSION_NUMBERS>  (1) 
APRD00304

>  <COMMON_NAME>  (1) 
Tirofiban

>  <CAS_NUMBER>  (1) 
144494-65-5

>  <UNII>  (1) 
GGX234SI5H

>  <SYNONYMS>  (1) 
(2S)-2-(butylsulfonylamino)-3-[4-(4-piperidin-4-ylbutoxy)phenyl]propanoic acid; N-(Butylsulfonyl)-O-(4-(4-piperidyl)butyl)-L-tyrosine; Tirofiban; Tirofib√°n; Tirofibanum

$$$$
