5212
     RDKit          3D

 33 36  0  0  0  0  0  0  0  0999 V2000
    1.4646   -0.1983   -0.2741 C   0  0  0  0  0  0  0  0  0  0  0  0
    3.0234   -0.2734    0.0164 C   0  0  0  0  0  0  0  0  0  0  0  0
    0.5643   -1.2885   -0.0401 C   0  0  0  0  0  0  0  0  0  0  0  0
    0.8591    1.0656   -0.5304 C   0  0  0  0  0  0  0  0  0  0  0  0
    3.4638   -0.2220    1.2460 N   0  0  0  0  0  0  0  0  0  0  0  0
    3.9113   -0.4986   -1.0477 N   0  0  0  0  0  0  0  0  0  0  0  0
   -0.8410   -1.0922   -0.0542 C   0  0  0  0  0  0  0  0  0  0  0  0
    0.8390   -2.6206    0.1881 O   0  0  0  0  0  0  0  0  0  0  0  0
   -0.5401    1.2661   -0.2488 C   0  0  0  0  0  0  0  0  0  0  0  0
    4.8447   -0.4472    1.4270 C   0  0  0  0  0  0  0  0  0  0  0  0
    5.1018   -1.1878   -0.8466 C   0  0  0  0  0  0  0  0  0  0  0  0
   -1.3978    0.1784   -0.1318 C   0  0  0  0  0  0  0  0  0  0  0  0
    2.1572   -3.0670   -0.0694 C   0  0  0  0  0  0  0  0  0  0  0  0
   -1.2297    2.8979    0.2570 S   0  0  0  0  0  0  0  0  0  0  0  0
    5.5946   -1.0140    0.4507 C   0  0  0  0  0  0  0  0  0  0  0  0
    5.7896   -0.0295    2.4024 C   0  0  0  0  0  0  0  0  0  0  0  0
    2.5211   -2.8133   -1.5203 C   0  0  0  0  0  0  0  0  0  0  0  0
   -0.6418    3.3288    1.8228 N   0  0  0  0  0  0  0  0  0  0  0  0
   -0.6980    3.8437   -0.6998 O   0  0  0  0  0  0  0  0  0  0  0  0
   -2.6586    2.7201    0.4217 O   0  0  0  0  0  0  0  0  0  0  0  0
    6.8277   -1.2156    0.9721 N   0  0  0  0  0  0  0  0  0  0  0  0
    7.0107   -0.5424    2.1316 N   0  0  0  0  0  0  0  0  0  0  0  0
    5.6211    0.9176    3.5506 C   0  0  0  0  0  0  0  0  0  0  0  0
    0.8091    3.5587    1.9212 C   0  0  0  0  0  0  0  0  0  0  0  0
   -1.1120    2.5590    3.0430 C   0  0  0  0  0  0  0  0  0  0  0  0
    7.8995   -1.9519    0.3466 C   0  0  0  0  0  0  0  0  0  0  0  0
    5.4026    2.3820    3.1344 C   0  0  0  0  0  0  0  0  0  0  0  0
    1.4024    2.1756    2.0998 C   0  0  0  0  0  0  0  0  0  0  0  0
   -0.3754    1.2182    3.2358 C   0  0  0  0  0  0  0  0  0  0  0  0
    4.1968    2.5112    2.2981 C   0  0  0  0  0  0  0  0  0  0  0  0
    1.0922    1.4413    3.3319 N   0  0  0  0  0  0  0  0  0  0  0  0
    1.7284    0.1138    3.3772 C   0  0  0  0  0  0  0  0  0  0  0  0
    5.6255   -1.9146   -1.6998 O   0  0  0  0  0  0  0  0  0  0  0  0
  1  2  1  0
  1  3  2  0
  1  4  1  0
  2  5  2  0
  2  6  1  0
  3  7  1  0
  3  8  1  0
  4  9  2  0
  5 10  1  0
  6 11  1  0
  7 12  2  0
  8 13  1  0
  9 14  1  0
  9 12  1  0
 10 15  2  0
 10 16  1  0
 11 15  1  0
 11 33  2  0
 13 17  1  0
 14 18  1  0
 14 19  2  0
 14 20  2  0
 15 21  1  0
 16 22  2  0
 16 23  1  0
 18 24  1  0
 18 25  1  0
 21 26  1  0
 21 22  1  0
 23 27  1  0
 24 28  1  0
 25 29  1  0
 27 30  1  0
 28 31  1  0
 29 31  1  0
 31 32  1  0
M  END
>  <DRUGBANK_ID>  (1) 
DB00203

>  <SECONDARY_ACCESSION_NUMBERS>  (1) 
APRD00556

>  <COMMON_NAME>  (1) 
Sildenafil

>  <CAS_NUMBER>  (1) 
139755-83-2

>  <UNII>  (1) 
3M7OB98Y7H

>  <SYNONYMS>  (1) 
1-((3-(4,7-Dihydro-1-methyl-7-oxo-3-propyl-1H-pyrazolo(4,3-d)pyrimidin-5-yl)-4-ethoxyphenyl)sulfonyl)-4-methylpiperazine; Sildenafil; Sildenafilo

$$$$
