
     RDKit          3D

 23 24  0  0  0  0  0  0  0  0999 V2000
    0.8093    0.0224   -0.0446 C   0  0  0  0  0  0  0  0  0  0  0  0
    4.6385   -0.3606   -2.0204 C   0  0  0  0  0  0  0  0  0  0  0  0
    4.2937    0.7096   -4.1300 C   0  0  0  0  0  0  0  0  0  0  0  0
    4.6380   -1.5533    1.3308 C   0  0  0  0  0  0  0  0  0  0  0  0
    4.2860   -3.9266    1.3239 C   0  0  0  0  0  0  0  0  0  0  0  0
    3.2611   -0.3506   -1.8383 C   0  0  0  0  0  0  0  0  0  0  0  0
    2.9034    0.7593   -3.8933 C   0  0  0  0  0  0  0  0  0  0  0  0
    3.2625   -1.3693    1.2957 C   0  0  0  0  0  0  0  0  0  0  0  0
    2.8979   -3.7241    1.1869 C   0  0  0  0  0  0  0  0  0  0  0  0
    0.4993    0.8090   -1.3105 C   0  0  0  0  0  0  0  0  0  0  0  0
    0.5760   -1.4915   -0.1463 C   0  0  0  0  0  0  0  0  0  0  0  0
    5.1666    0.1265   -3.2009 C   0  0  0  0  0  0  0  0  0  0  0  0
    5.1616   -2.8348    1.4072 C   0  0  0  0  0  0  0  0  0  0  0  0
    2.3761    0.2622   -2.7110 C   0  0  0  0  0  0  0  0  0  0  0  0
    2.3816   -2.4322    1.1217 C   0  0  0  0  0  0  0  0  0  0  0  0
    6.6153   -0.1446   -3.4635 C   0  0  0  0  0  0  0  0  0  0  0  0
    6.6169   -2.9558    1.7287 C   0  0  0  0  0  0  0  0  0  0  0  0
    7.1878    0.2317   -4.6398 N   0  0  0  0  0  0  0  0  0  0  0  0
    7.3134   -0.7741   -2.5827 N   0  0  0  0  0  0  0  0  0  0  0  0
    7.1855   -4.1685    1.9554 N   0  0  0  0  0  0  0  0  0  0  0  0
    7.3270   -1.8797    1.8433 N   0  0  0  0  0  0  0  0  0  0  0  0
    1.0164    0.2427   -2.5349 O   0  0  0  0  0  0  0  0  0  0  0  0
    1.0279   -2.2479    1.0046 O   0  0  0  0  0  0  0  0  0  0  0  0
  6  2  2  0
  7  3  1  0
  8  4  2  0
  9  5  1  0
 10  1  1  0
 11  1  1  0
 12  2  1  0
 12  3  2  0
 13  4  1  0
 13  5  2  0
 14  6  1  0
 14  7  2  0
 15  8  1  0
 15  9  2  0
 16 12  1  0
 17 13  1  0
 18 16  1  0
 19 16  2  0
 20 17  1  0
 21 17  2  0
 22 10  1  0
 22 14  1  0
 23 11  1  0
 23 15  1  0
M  END
>  <DRUGBANK_ID>  (1) 
DB13296

>  <COMMON_NAME>  (1) 
Propamidine

>  <CAS_NUMBER>  (1) 
104-32-5

>  <UNII>  (1) 
G20G12V769

>  <SYNONYMS>  (1) 
propamidina; Propamidine

$$$$
