
     RDKit          3D

 13 13  0  0  0  0  0  0  0  0999 V2000
    1.4410   -0.2905    0.0180 C   0  0  0  0  0  0  0  0  0  0  0  0
    0.5302   -1.3497    0.0395 C   0  0  0  0  0  0  0  0  0  0  0  0
   -0.8474   -1.1068    0.0097 C   0  0  0  0  0  0  0  0  0  0  0  0
   -1.3180    0.2065   -0.0875 C   0  0  0  0  0  0  0  0  0  0  0  0
   -0.3771    1.2421   -0.1956 C   0  0  0  0  0  0  0  0  0  0  0  0
    0.9849    1.0114   -0.1041 C   0  0  0  0  0  0  0  0  0  0  0  0
   -2.8048    0.5269   -0.1875 C   0  0  0  0  0  0  0  0  0  0  0  0
   -3.3419    1.2931    1.0446 C   0  0  0  0  0  0  0  0  0  0  0  0
   -2.7783    2.6824    1.2457 C   0  0  0  0  0  0  0  0  0  0  0  0
   -3.2838    3.7165    0.8568 O   0  0  0  0  0  0  0  0  0  0  0  0
   -1.5634    2.6900    1.8294 O   0  0  0  0  0  0  0  0  0  0  0  0
   -3.1105    1.2766   -1.5102 C   0  0  0  0  0  0  0  0  0  0  0  0
   -2.6482    0.5309   -2.6862 N   0  0  0  0  0  0  0  0  0  0  0  0
  1  2  2  0
  1  6  1  0
  2  3  1  0
  3  4  2  0
  4  5  1  0
  4  7  1  0
  5  6  2  0
  7  8  1  0
  7 12  1  0
  8  9  1  0
  9 10  2  0
  9 11  1  0
 12 13  1  0
M  END
>  <DRUGBANK_ID>  (1) 
DB13455

>  <COMMON_NAME>  (1) 
Phenibut

>  <CAS_NUMBER>  (1) 
1078-21-3

>  <UNII>  (1) 
T2M58D6LA8

>  <SYNONYMS>  (1) 
4-amino-3-phenylbutyric acid

$$$$
