
     RDKit          3D

 29 31  0  0  0  0  0  0  0  0999 V2000
   -1.1858   -1.3242   -0.0494 O   0  0  0  0  0  0  0  0  0  0  0  0
   -3.5775   -1.3132    0.1138 O   0  0  0  0  0  0  0  0  0  0  0  0
    1.3422    1.3450   -0.2569 O   0  0  0  0  0  0  0  0  0  0  0  0
    2.4177   -0.7408   -0.2445 O   0  0  0  0  0  0  0  0  0  0  0  0
   -3.7650   -0.1858    3.6503 O   0  0  0  0  0  0  0  0  0  0  0  0
   -1.0342    2.9272    0.0033 O   0  0  0  0  0  0  0  0  0  0  0  0
   -1.9612    1.1446    1.5372 O   0  0  0  0  0  0  0  0  0  0  0  0
   -2.4946   -3.6781    1.5668 O   0  0  0  0  0  0  0  0  0  0  0  0
   -1.4117   -3.0072    4.0978 O   0  0  0  0  0  0  0  0  0  0  0  0
   -1.3785   -0.1440    3.6926 O   0  0  0  0  0  0  0  0  0  0  0  0
   -5.1045    1.7172    1.2498 O   0  0  0  0  0  0  0  0  0  0  0  0
    1.6232    0.0793    2.6522 O   0  0  0  0  0  0  0  0  0  0  0  0
   -6.5149    0.1395    1.9657 O   0  0  0  0  0  0  0  0  0  0  0  0
    3.5116    1.2105    2.4644 O   0  0  0  0  0  0  0  0  0  0  0  0
    0.1123    0.7497    0.0462 C   0  0  2  0  0  0  0  0  0  0  0  0
    0.0126   -0.6896   -0.4610 C   0  0  1  0  0  0  0  0  0  0  0  0
   -1.0588    1.5729   -0.4896 C   0  0  1  0  0  0  0  0  0  0  0  0
   -2.2705    0.9169    0.1133 C   0  0  1  0  0  0  0  0  0  0  0  0
   -2.3831   -0.6011   -0.3222 C   0  0  1  0  0  0  0  0  0  0  0  0
   -3.7985   -1.6164    1.5241 C   0  0  1  0  0  0  0  0  0  0  0  0
    1.2313   -1.4737    0.0304 C   0  0  0  0  0  0  0  0  0  0  0  0
   -2.5767   -2.3563    2.1049 C   0  0  1  0  0  0  0  0  0  0  0  0
   -4.1457   -0.3333    2.2911 C   0  0  1  0  0  0  0  0  0  0  0  0
    2.4286    0.5901    0.2907 C   0  0  1  0  0  0  0  0  0  0  0  0
   -2.5670   -2.3195    3.6185 C   0  0  2  0  0  0  0  0  0  0  0  0
   -2.5671   -0.8450    4.0544 C   0  0  2  0  0  0  0  0  0  0  0  0
    3.6518    1.2837   -0.3483 C   0  0  0  0  0  0  0  0  0  0  0  0
   -5.3483    0.5055    1.8202 C   0  0  0  0  0  0  0  0  0  0  0  0
    2.5837    0.6542    1.8886 C   0  0  0  0  0  0  0  0  0  0  0  0
  1 16  1  0
  1 19  1  0
 15  3  1  6
  3 24  1  0
  4 21  1  0
  4 24  1  0
  5 23  1  0
  5 26  1  0
 26 10  1  6
 11 28  1  0
 12 29  1  0
 13 28  2  0
 14 29  2  0
 15 16  1  0
 15 17  1  0
 16 21  1  1
 17 18  1  0
 17  6  1  1
 18 19  1  0
 18  7  1  1
 19  2  1  1
 20  2  1  6
 20 22  1  0
 20 23  1  0
 22  8  1  1
 22 25  1  0
 23 28  1  1
 24 29  1  0
 24 27  1  6
 25 26  1  0
 25  9  1  6
M  END
>  <DRUGBANK_ID>  (1) 
DB04596

>  <COMMON_NAME>  (1) 
4-O-{4,6-O-[(1S)-1-Carboxyethylidene]-Î²-D-mannopyranosyl}-D-glucopyranuronic acid

$$$$
