
     RDKit          3D

 43 45  0  0  0  0  0  0  0  0999 V2000
    1.9722   -0.0231   -0.0796 O   0  0  0  0  0  0  0  0  0  0  0  0
   -3.6776    1.0088    0.2984 O   0  0  0  0  0  0  0  0  0  0  0  0
    0.9379   -4.1578   -1.8443 O   0  0  0  0  0  0  0  0  0  0  0  0
    0.3764    4.4611    2.3743 O   0  0  0  0  0  0  0  0  0  0  0  0
    2.3769   -1.6364    3.0967 O   0  0  0  0  0  0  0  0  0  0  0  0
    0.1408    4.5751    0.1848 O   0  0  0  0  0  0  0  0  0  0  0  0
    0.3089   -2.4055    3.0854 O   0  0  0  0  0  0  0  0  0  0  0  0
   -1.4327    0.7494    0.0460 N   0  0  0  0  0  0  0  0  0  0  0  0
    0.1992   -2.1617   -1.1308 N   0  0  0  0  0  0  0  0  0  0  0  0
   -1.4886    3.4572    1.3790 N   0  0  0  0  0  0  0  0  0  0  0  0
    1.6569   -2.9069    1.2689 N   0  0  0  0  0  0  0  0  0  0  0  0
   -0.1382   -1.2017   -0.1098 C   0  0  2  0  0  0  0  0  0  0  0  0
   -1.5508   -0.6809   -0.1263 C   0  0  0  0  0  0  0  0  0  0  0  0
   -0.0643    1.2402   -0.0602 C   0  0  0  0  0  0  0  0  0  0  0  0
    0.7456    0.0002   -0.0889 C   0  0  0  0  0  0  0  0  0  0  0  0
   -2.3823    3.0587    0.2873 C   0  0  2  0  0  0  0  0  0  0  0  0
   -2.5567    1.5210    0.2425 C   0  0  0  0  0  0  0  0  0  0  0  0
   -1.9421    3.6007   -1.0666 C   0  0  0  0  0  0  0  0  0  0  0  0
   -2.8034    3.2158   -2.2510 C   0  0  0  0  0  0  0  0  0  0  0  0
    0.7979   -3.8817    0.5675 C   0  0  1  0  0  0  0  0  0  0  0  0
   -0.5716   -4.0573    1.2230 C   0  0  0  0  0  0  0  0  0  0  0  0
    0.6871   -3.4167   -0.8953 C   0  0  0  0  0  0  0  0  0  0  0  0
   -1.5690   -4.9142    0.4736 C   0  0  0  0  0  0  0  0  0  0  0  0
   -4.1760    3.8448   -2.0906 C   0  0  0  0  0  0  0  0  0  0  0  0
   -2.1012    3.7202   -3.5099 C   0  0  0  0  0  0  0  0  0  0  0  0
   -1.0778   -6.3496    0.4444 C   0  0  0  0  0  0  0  0  0  0  0  0
   -2.9077   -4.7915    1.2002 C   0  0  0  0  0  0  0  0  0  0  0  0
   -0.3332    4.1942    1.2579 C   0  0  0  0  0  0  0  0  0  0  0  0
    1.3877   -2.3346    2.5051 C   0  0  0  0  0  0  0  0  0  0  0  0
   -0.0163    4.0718    3.6882 C   0  0  0  0  0  0  0  0  0  0  0  0
    3.7260   -1.6470    2.6336 C   0  0  0  0  0  0  0  0  0  0  0  0
   -1.3106    4.7195    4.0827 C   0  0  0  0  0  0  0  0  0  0  0  0
    4.3812   -3.0077    2.7539 C   0  0  0  0  0  0  0  0  0  0  0  0
   -2.3931    3.9137    4.4595 C   0  0  0  0  0  0  0  0  0  0  0  0
   -1.4582    6.1116    4.0517 C   0  0  0  0  0  0  0  0  0  0  0  0
    5.7509   -3.0777    2.9814 C   0  0  0  0  0  0  0  0  0  0  0  0
    3.6904   -4.2322    2.6526 C   0  0  0  0  0  0  0  0  0  0  0  0
   -3.6050    4.4903    4.8117 C   0  0  0  0  0  0  0  0  0  0  0  0
   -2.6460    6.6880    4.4916 C   0  0  0  0  0  0  0  0  0  0  0  0
   -3.7247    5.8773    4.8460 C   0  0  0  0  0  0  0  0  0  0  0  0
    6.3742   -4.3243    3.0967 C   0  0  0  0  0  0  0  0  0  0  0  0
    4.3006   -5.4679    2.7260 C   0  0  0  0  0  0  0  0  0  0  0  0
    5.6563   -5.5135    2.9434 C   0  0  0  0  0  0  0  0  0  0  0  0
  1 15  2  0
  2 17  2  0
  3 22  2  0
  4 28  1  0
  4 30  1  0
  5 29  1  0
  5 31  1  0
  6 28  2  0
  7 29  2  0
  8 13  1  0
  8 14  1  0
  8 17  1  0
  9 22  1  0
 10 28  1  0
 11 29  1  0
 12  9  1  6
 12 13  1  0
 12 15  1  0
 14 15  1  0
 16 10  1  0
 16 17  1  0
 16 18  1  6
 18 19  1  0
 19 24  1  0
 19 25  1  0
 20 11  1  0
 20 21  1  1
 20 22  1  0
 21 23  1  0
 23 26  1  0
 23 27  1  0
 30 32  1  0
 31 33  1  0
 32 34  2  0
 32 35  1  0
 33 36  2  0
 33 37  1  0
 34 38  1  0
 35 39  2  0
 36 41  1  0
 37 42  2  0
 38 40  2  0
 39 40  1  0
 41 43  2  0
 42 43  1  0
M  END
>  <DRUGBANK_ID>  (1) 
DB03405

>  <SECONDARY_ACCESSION_NUMBERS>  (1) 
EXPT02520

>  <COMMON_NAME>  (1) 
N2-[(Benzyloxy)carbonyl]-N-[(3R)-1-{N-[(benzyloxy)carbonyl]-L-leucyl}-4-oxo-3-pyrrolidinyl]-L-leucinamide

$$$$
