
     RDKit          3D

 17 18  0  0  0  0  0  0  0  0999 V2000
    1.3691   -0.2278    0.0043 C   0  0  0  0  0  0  0  0  0  0  0  0
    0.4809   -1.3140    0.0251 C   0  0  0  0  0  0  0  0  0  0  0  0
   -0.9074   -1.1115    0.0157 C   0  0  0  0  0  0  0  0  0  0  0  0
   -1.3784    0.2016    0.0392 C   0  0  0  0  0  0  0  0  0  0  0  0
   -0.4991    1.2721    0.1041 C   0  0  0  0  0  0  0  0  0  0  0  0
    0.8785    1.0815   -0.0247 C   0  0  0  0  0  0  0  0  0  0  0  0
    1.7749    2.2671   -0.2963 C   0  0  0  0  0  0  0  0  0  0  0  0
    1.4194    2.9067   -1.5640 N   0  0  0  0  0  0  0  0  0  0  0  0
    0.2606    3.5734   -1.8701 C   0  0  0  0  0  0  0  0  0  0  0  0
    0.3427    3.8530   -3.2116 C   0  0  0  0  0  0  0  0  0  0  0  0
    1.5535    3.4597   -3.7105 N   0  0  0  0  0  0  0  0  0  0  0  0
    2.1828    2.9028   -2.6987 C   0  0  0  0  0  0  0  0  0  0  0  0
   -1.8251   -2.2631    0.0369 C   0  0  0  0  0  0  0  0  0  0  0  0
   -3.1645   -2.1562    0.0570 C   0  0  0  0  0  0  0  0  0  0  0  0
   -4.0925   -3.2862    0.1214 C   0  0  0  0  0  0  0  0  0  0  0  0
   -5.3083   -3.1668    0.1398 O   0  0  0  0  0  0  0  0  0  0  0  0
   -3.4917   -4.4812    0.1662 O   0  0  0  0  0  0  0  0  0  0  0  0
  1  2  2  0
  1  6  1  0
  2  3  1  0
  3  4  2  0
  3 13  1  0
  4  5  1  0
  5  6  2  0
  6  7  1  0
  7  8  1  0
  8  9  1  0
  8 12  1  0
  9 10  2  0
 10 11  1  0
 11 12  2  0
 13 14  2  0
 14 15  1  0
 15 16  2  0
 15 17  1  0
M  END
>  <DRUGBANK_ID>  (1) 
DB12017

>  <COMMON_NAME>  (1) 
Ozagrel

>  <CAS_NUMBER>  (1) 
82571-53-7

>  <UNII>  (1) 
L256JB984D

>  <SYNONYMS>  (1) 
Ozagrel

$$$$
