1537
     RDKit          3D

 14 14  0  0  0  0  0  0  0  0999 V2000
   -1.5685    0.5401   -0.0221 Br  0  0  0  0  0  0  0  0  0  0  0  0
    3.0827    2.4971    0.1567 O   0  0  0  0  0  0  0  0  0  0  0  0
    0.3490   -2.3647   -0.0229 O   0  0  0  0  0  0  0  0  0  0  0  0
    4.5504    1.6171   -2.2080 N   0  0  0  0  0  0  0  0  0  0  0  0
    3.1153    0.0131    0.0273 C   0  0  0  0  0  0  0  0  0  0  0  0
    4.5947   -0.1215   -0.1902 C   0  0  0  0  0  0  0  0  0  0  0  0
    2.4957    1.2605    0.1501 C   0  0  0  0  0  0  0  0  0  0  0  0
    5.1041    0.4122   -1.5674 C   0  0  0  0  0  0  0  0  0  0  0  0
    2.3065   -1.1511    0.0082 C   0  0  0  0  0  0  0  0  0  0  0  0
    0.8977   -1.1122    0.0166 C   0  0  0  0  0  0  0  0  0  0  0  0
    1.1007    1.3041    0.1009 C   0  0  0  0  0  0  0  0  0  0  0  0
    0.2948    0.1529    0.0372 C   0  0  0  0  0  0  0  0  0  0  0  0
    4.4124    2.7302    0.6214 C   0  0  0  0  0  0  0  0  0  0  0  0
   -1.0606   -2.5256   -0.0354 C   0  0  0  0  0  0  0  0  0  0  0  0
  1 12  1  0
  2  7  1  0
  2 13  1  0
  3 10  1  0
  3 14  1  0
  4  8  1  0
  5  6  1  0
  5  7  2  0
  5  9  1  0
  6  8  1  0
  7 11  1  0
  9 10  2  0
 10 12  1  0
 11 12  2  0
M  END
>  <DRUGBANK_ID>  (1) 
DB01537

>  <COMMON_NAME>  (1) 
4-Bromo-2,5-dimethoxyphenethylamine

>  <CAS_NUMBER>  (1) 
66142-81-2

>  <UNII>  (1) 
V77772N32H

>  <SYNONYMS>  (1) 
2C-B

$$$$
