
     RDKit          3D

  8  8  0  0  0  0  0  0  0  0999 V2000
   -2.2308    0.9692    0.0061 O   0  0  0  0  0  0  0  0  0  0  0  0
   -1.1845    0.3292    0.0090 C   0  0  0  0  0  0  0  0  0  0  0  0
   -1.1716   -1.0405    0.0173 N   0  0  0  0  0  0  0  0  0  0  0  0
   -0.0267   -1.7863    0.0006 C   0  0  0  0  0  0  0  0  0  0  0  0
    1.1726   -1.2005   -0.0166 C   0  0  0  0  0  0  0  0  0  0  0  0
    1.2416    0.2748   -0.0040 C   0  0  0  0  0  0  0  0  0  0  0  0
    2.3208    0.8550   -0.0002 O   0  0  0  0  0  0  0  0  0  0  0  0
    0.0426    0.9304    0.0038 N   0  0  0  0  0  0  0  0  0  0  0  0
  1  2  2  0
  2  3  1  0
  2  8  1  0
  3  4  1  0
  4  5  2  0
  5  6  1  0
  6  7  2  0
  6  8  1  0
M  END
>  <DRUGBANK_ID>  (1) 
DB03419

>  <SECONDARY_ACCESSION_NUMBERS>  (1) 
EXPT03201

>  <COMMON_NAME>  (1) 
Uracil

>  <CAS_NUMBER>  (1) 
66-22-8

>  <UNII>  (1) 
56HH86ZVCT

>  <SYNONYMS>  (1) 
Uracil

$$$$
