BVL
     RDKit          3D

 25 26  0  0  0  0  0  0  0  0999 V2000
   -1.0914    1.2669   -0.0195 C   0  0  0  0  0  0  0  0  0  0  0  0
    0.9321   -0.0283    0.0180 C   0  0  0  0  0  0  0  0  0  0  0  0
    0.1977   -1.2091    0.0128 C   0  0  0  0  0  0  0  0  0  0  0  0
   -1.2001   -1.1434   -0.0251 C   0  0  0  0  0  0  0  0  0  0  0  0
   -6.1509    2.3674   -0.1703 O   0  0  0  0  0  0  0  0  0  0  0  0
   -5.5729    1.2977   -0.1192 C   0  0  0  0  0  0  0  0  0  0  0  0
   -4.0791    1.2530   -0.1164 C   0  0  0  0  0  0  0  0  0  0  0  0
   -3.3196    0.1457   -0.1857 C   0  0  0  0  0  0  0  0  0  0  0  0
   -1.8566    0.1000   -0.0703 C   0  0  0  0  0  0  0  0  0  0  0  0
    0.2963    1.2033    0.0187 C   0  0  0  0  0  0  0  0  0  0  0  0
    2.2938   -0.0159    0.0181 O   0  0  0  0  0  0  0  0  0  0  0  0
   -6.3361    0.0362   -0.0486 C   0  0  0  0  0  0  0  0  0  0  0  0
   -6.0106   -0.9630    0.8637 C   0  0  0  0  0  0  0  0  0  0  0  0
   -5.0718   -0.9232    1.8524 O   0  0  0  0  0  0  0  0  0  0  0  0
   -6.6688   -2.1570    0.8031 C   0  0  0  0  0  0  0  0  0  0  0  0
   -7.7273   -2.3569   -0.0775 C   0  0  0  0  0  0  0  0  0  0  0  0
   -8.1982   -3.6011    0.2595 O   0  0  0  0  0  0  0  0  0  0  0  0
   -9.2278   -4.0035   -0.5545 C   0  0  0  0  0  0  0  0  0  0  0  0
   -8.1362   -1.3587   -1.0157 C   0  0  0  0  0  0  0  0  0  0  0  0
   -7.4037   -0.1452   -0.9602 C   0  0  0  0  0  0  0  0  0  0  0  0
   -9.3248   -1.3881   -2.0210 C   0  0  0  0  0  0  0  0  0  0  0  0
   -9.3064   -2.4997   -3.0594 C   0  0  0  0  0  0  0  0  0  0  0  0
  -10.1937   -3.5241   -3.1969 C   0  0  0  0  0  0  0  0  0  0  0  0
  -11.4990   -3.6943   -2.4267 C   0  0  0  0  0  0  0  0  0  0  0  0
   -9.7724   -4.7587   -3.9743 C   0  0  0  0  0  0  0  0  0  0  0  0
  1  9  2  0
  2  3  1  0
  3  4  2  0
  6  7  1  0
  6  5  2  0
  8  7  2  0
  9  8  1  0
  9  4  1  0
 10  1  1  0
 10  2  2  0
 11  2  1  0
 12 20  1  0
 12  6  1  0
 13 12  2  0
 14 13  1  0
 15 16  2  0
 15 13  1  0
 16 19  1  0
 17 16  1  0
 18 17  1  0
 19 21  1  0
 19 20  2  0
 21 22  1  0
 22 23  2  3
 23 25  1  0
 24 23  1  0
M  END
>  <DRUGBANK_ID>  (1) 
DB07500

>  <COMMON_NAME>  (1) 
(2E)-1-[2-hydroxy-4-methoxy-5-(3-methylbut-2-en-1-yl)phenyl]-3-(4-hydroxyphenyl)prop-2-en-1-one

$$$$
