
     RDKit          3D

 30 28  0  0  0  0  0  0  0  0999 V2000
    1.0538   -0.0830    0.0148 C   0  0  0  0  0  0  0  0  0  0  0  0
    0.5471   -1.5160   -0.0022 C   0  0  0  0  0  0  0  0  0  0  0  0
    1.0537   -2.2472    1.2302 C   0  0  0  0  0  0  0  0  0  0  0  0
   -0.9729   -1.5160   -0.0022 C   0  0  0  0  0  0  0  0  0  0  0  0
   -1.6084   -2.0549   -0.9619 O   0  0  0  0  0  0  0  0  0  0  0  0
   -1.6829   -0.9138    1.0700 O   0  0  0  0  0  0  0  0  0  0  0  0
    1.0204   -2.1715   -1.1695 O   0  0  0  0  0  0  0  0  0  0  0  0
    0.6774   -3.5282   -1.4104 C   0  0  0  0  0  0  0  0  0  0  0  0
   -0.6199   -3.9979   -1.2384 C   0  0  0  0  0  0  0  0  0  0  0  0
   -0.9126   -5.3338   -1.4929 C   0  0  0  0  0  0  0  0  0  0  0  0
    0.1071   -6.1745   -1.9065 C   0  0  0  0  0  0  0  0  0  0  0  0
    1.3985   -5.7173   -2.1232 C   0  0  0  0  0  0  0  0  0  0  0  0
    1.6777   -4.3777   -1.8553 C   0  0  0  0  0  0  0  0  0  0  0  0
   -0.2658   -7.8445   -2.2052 Cl  0  0  0  0  0  0  0  0  0  0  0  0
    0.9364   -0.0756    0.0152 C   0  0  0  0  0  0  0  0  0  0  0  0
    0.4297    1.3494    0.1666 C   0  0  0  0  0  0  0  0  0  0  0  0
    0.9364    2.1931   -0.9918 C   0  0  0  0  0  0  0  0  0  0  0  0
   -1.0903    1.3494    0.1666 C   0  0  0  0  0  0  0  0  0  0  0  0
   -1.7257    1.7959    1.1726 O   0  0  0  0  0  0  0  0  0  0  0  0
   -1.8003    0.8505   -0.9574 O   0  0  0  0  0  0  0  0  0  0  0  0
    0.9030    1.8925    1.3903 O   0  0  0  0  0  0  0  0  0  0  0  0
    0.5600    3.2207    1.7574 C   0  0  0  0  0  0  0  0  0  0  0  0
   -0.7655    3.6060    1.5910 C   0  0  0  0  0  0  0  0  0  0  0  0
   -1.1407    4.9224    1.8390 C   0  0  0  0  0  0  0  0  0  0  0  0
   -0.1738    5.8287    2.2405 C   0  0  0  0  0  0  0  0  0  0  0  0
    1.1453    5.4557    2.4515 C   0  0  0  0  0  0  0  0  0  0  0  0
    1.5072    4.1348    2.1901 C   0  0  0  0  0  0  0  0  0  0  0  0
   -0.6500    7.4737    2.5311 Cl  0  0  0  0  0  0  0  0  0  0  0  0
    1.0000    0.0976    0.0219 O   0  0  0  0  0  0  0  0  0  0  0  0
    1.0778    0.0387    0.0495 Al  0  0  0  0  0 15  0  0  0  0  0  0
  1  2  1  0
  2  3  1  0
  2  4  1  0
  2  7  1  0
  4  5  2  0
  4  6  1  0
  7  8  1  0
  8  9  2  0
  8 13  1  0
  9 10  1  0
 10 11  2  0
 11 12  1  0
 11 14  1  0
 12 13  2  0
 15 16  1  0
 16 17  1  0
 16 18  1  0
 16 21  1  0
 18 19  2  0
 18 20  1  0
 21 22  1  0
 22 23  2  0
 22 27  1  0
 23 24  1  0
 24 25  2  0
 25 26  1  0
 25 28  1  0
 26 27  2  0
M  CHG  4   6  -1  20  -1  29  -1  30   3
M  END
>  <DRUGBANK_ID>  (1) 
DB13780

>  <COMMON_NAME>  (1) 
Aluminium clofibrate

>  <CAS_NUMBER>  (1) 
24818-79-9

>  <UNII>  (1) 
56203T2K2X

>  <SYNONYMS>  (1) 
Aluminium clofibrate; Aluminum clofibrate

$$$$
