
     RDKit          3D

 41 44  0  0  0  0  0  0  0  0999 V2000
    0.7258   -0.3762   -0.8950 C   0  0  0  0  0  0  0  0  0  0  0  0
    0.2272    1.0680   -0.7188 C   0  0  0  0  0  0  0  0  0  0  0  0
    0.9952    2.3252   -0.6775 N   0  0  0  0  0  0  0  0  0  0  0  0
    0.5226    3.4170    0.2992 C   0  0  0  0  0  0  0  0  0  0  0  0
    1.0188    4.2215    1.6649 C   0  0  0  0  0  0  0  0  0  0  0  0
    2.4707    4.8238    1.7295 C   0  0  0  0  0  0  0  0  0  0  0  0
    2.8325    5.8160    0.7278 O   0  0  0  0  0  0  0  0  0  0  0  0
    2.5809    5.6346   -0.6171 C   0  0  0  0  0  0  0  0  0  0  0  0
    1.2789    5.7305   -1.1322 C   0  0  0  0  0  0  0  0  0  0  0  0
    0.9788    5.1952   -2.3901 C   0  0  0  0  0  0  0  0  0  0  0  0
    1.9898    5.1048   -3.3347 C   0  0  0  0  0  0  0  0  0  0  0  0
    3.3252    5.2735   -2.9100 C   0  0  0  0  0  0  0  0  0  0  0  0
    3.6034    5.4239   -1.5397 C   0  0  0  0  0  0  0  0  0  0  0  0
    4.3235    5.3558   -3.7870 N   0  0  0  0  0  0  0  0  0  0  0  0
    3.9887    5.3349   -5.0807 C   0  0  0  0  0  0  0  0  0  0  0  0
    2.7726    5.1198   -5.5743 N   0  0  0  0  0  0  0  0  0  0  0  0
    1.7558    4.9900   -4.7112 C   0  0  0  0  0  0  0  0  0  0  0  0
    0.4456    5.0581   -5.2580 N   0  0  0  0  0  0  0  0  0  0  0  0
    0.2649    5.0381   -6.6059 C   0  0  0  0  0  0  0  0  0  0  0  0
    0.8917    4.3313   -7.6104 C   0  0  0  0  0  0  0  0  0  0  0  0
    0.1493    4.6012   -8.7891 C   0  0  0  0  0  0  0  0  0  0  0  0
   -0.7861    5.5389   -8.5631 N   0  0  0  0  0  0  0  0  0  0  0  0
   -0.7074    5.7680   -7.2312 N   0  0  0  0  0  0  0  0  0  0  0  0
    0.2253    3.8089  -10.0520 C   0  0  0  0  0  0  0  0  0  0  0  0
   -1.0971    3.1939  -10.5587 C   0  0  0  0  0  0  0  0  0  0  0  0
   -1.5413    3.5184  -11.6382 O   0  0  0  0  0  0  0  0  0  0  0  0
   -1.7013    2.1129   -9.9105 N   0  0  0  0  0  0  0  0  0  0  0  0
   -1.4189    1.5210   -8.6701 C   0  0  0  0  0  0  0  0  0  0  0  0
   -1.1903    2.3114   -7.5625 C   0  0  0  0  0  0  0  0  0  0  0  0
   -0.6788    1.8281   -6.3608 C   0  0  0  0  0  0  0  0  0  0  0  0
   -0.6104    0.4714   -6.1719 C   0  0  0  0  0  0  0  0  0  0  0  0
   -1.0672   -0.3509   -7.1961 C   0  0  0  0  0  0  0  0  0  0  0  0
   -1.4625    0.1551   -8.4477 C   0  0  0  0  0  0  0  0  0  0  0  0
   -1.1289   -1.6671   -6.9672 F   0  0  0  0  0  0  0  0  0  0  0  0
    2.4532    2.0324   -0.6302 C   0  0  0  0  0  0  0  0  0  0  0  0
    3.0825    1.9723    0.7685 C   0  0  0  0  0  0  0  0  0  0  0  0
    2.4839    1.5555    1.9933 O   0  0  0  0  0  0  0  0  0  0  0  0
    0.7539    1.5555    1.9933 P   0  0  0  0  0  0  0  0  0  0  0  0
    0.7592    0.0147    1.8814 O   0  0  0  0  0  0  0  0  0  0  0  0
    0.8345    1.4885    3.6186 O   0  0  0  0  0  0  0  0  0  0  0  0
   -0.9761    1.5555    1.9933 O   0  0  0  0  0  0  0  0  0  0  0  0
  1  2  1  0
  2  3  1  0
  3  4  1  0
  3 35  1  0
  4  5  1  0
  5  6  1  0
  6  7  1  0
  7  8  1  0
  8  9  2  0
  8 13  1  0
  9 10  1  0
 10 11  2  0
 11 12  1  0
 11 17  1  0
 12 13  2  0
 12 14  1  0
 14 15  2  0
 15 16  1  0
 16 17  2  0
 17 18  1  0
 18 19  1  0
 19 20  2  0
 19 23  1  0
 20 21  1  0
 21 22  2  0
 21 24  1  0
 22 23  1  0
 24 25  1  0
 25 26  2  0
 25 27  1  0
 27 28  1  0
 28 29  2  0
 28 33  1  0
 29 30  1  0
 30 31  2  0
 31 32  1  0
 32 33  2  0
 32 34  1  0
 35 36  1  0
 36 37  1  0
 37 38  1  0
 38 39  2  0
 38 40  1  0
 38 41  1  0
M  END
>  <DRUGBANK_ID>  (1) 
DB11747

>  <COMMON_NAME>  (1) 
Barasertib

>  <CAS_NUMBER>  (1) 
722543-31-9

>  <UNII>  (1) 
16XC2U7W8N

>  <SYNONYMS>  (1) 
Barasertib

$$$$
