
     RDKit          3D

 30 34  0  0  1  0  0  0  0  0999 V2000
   -1.0932    2.1260   -0.5613 C   0  0  0  0  0  0  0  0  0  0  0  0
   -1.9495    0.9354   -0.2049 C   0  0  0  0  0  0  0  0  0  0  0  0
    0.3252    2.0215   -0.0277 C   0  0  0  0  0  0  0  0  0  0  0  0
   -1.3358   -0.4566   -0.4327 C   0  0  1  0  0  0  0  0  0  0  0  0
    0.0954   -0.4815    0.2258 C   0  0  2  0  0  0  0  0  0  0  0  0
    0.9639    0.6629   -0.3747 C   0  0  2  0  0  0  0  0  0  0  0  0
   -2.2373   -1.5443    0.2120 C   0  0  0  0  0  0  0  0  0  0  0  0
   -3.7163   -1.3381   -0.0942 C   0  0  0  0  0  0  0  0  0  0  0  0
   -3.1963    1.1401    0.2515 C   0  0  0  0  0  0  0  0  0  0  0  0
    0.8024   -1.8680    0.1854 C   0  0  0  0  0  0  0  0  0  0  0  0
    2.2895   -1.8544    0.6099 C   0  0  0  0  0  0  0  0  0  0  0  0
    3.3481    1.6628   -0.2899 C   0  0  0  0  0  0  0  0  0  0  0  0
    4.7497    1.0703   -0.1073 C   0  0  0  0  0  0  0  0  0  0  0  0
    2.3829    0.5785    0.1485 C   0  0  2  0  0  0  0  0  0  0  0  0
    3.1069   -0.7746   -0.1622 C   0  0  2  0  0  0  0  0  0  0  0  0
   -1.2413   -0.7198   -1.9537 C   0  0  0  0  0  0  0  0  0  0  0  0
    3.2018   -1.1223   -1.6351 C   0  0  0  0  0  0  0  0  0  0  0  0
    4.5960   -0.4599    0.2124 C   0  0  1  0  0  0  0  0  0  0  0  0
    5.7490   -1.3408    0.0657 O   0  0  0  0  0  0  0  0  0  0  0  0
   -4.1589    0.0203    0.3946 C   0  0  0  0  0  0  0  0  0  0  0  0
   -5.2884    0.2416    0.7929 O   0  0  0  0  0  0  0  0  0  0  0  0
    6.5398   -1.9021    1.0634 C   0  0  0  0  0  0  0  0  0  0  0  0
    7.3908   -2.7472    0.6967 O   0  0  0  0  0  0  0  0  0  0  0  0
    6.4459   -1.6884    2.6228 C   0  0  0  0  0  0  0  0  0  0  0  0
    6.4981   -0.2840    3.2795 C   0  0  0  0  0  0  0  0  0  0  0  0
    3.3492   -0.0368    4.2641 C   0  0  0  0  0  0  0  0  0  0  0  0
    3.4103    1.4702    4.0867 C   0  0  0  0  0  0  0  0  0  0  0  0
    4.7809    1.7965    3.4504 C   0  0  0  0  0  0  0  0  0  0  0  0
    5.2654    0.4729    2.8890 C   0  0  0  0  0  0  0  0  0  0  0  0
    4.0066   -0.3975    3.0123 C   0  0  0  0  0  0  0  0  0  0  0  0
  1  3  1  0
  2  1  1  0
  2  9  2  0
  4  2  1  0
  4  7  1  0
  4 16  1  6
  5  4  1  0
  5 10  1  6
  6  5  1  0
  6  3  1  1
  8  7  1  0
 10 11  1  0
 13 12  1  0
 13 18  1  0
 14  6  1  0
 14 12  1  6
 14 15  1  0
 15 11  1  0
 15 18  1  0
 15 17  1  6
 18 19  1  6
 19 22  1  0
 20  8  1  0
 20  9  1  0
 20 21  2  0
 22 23  2  0
 22 24  1  0
 24 25  1  0
 25 29  1  0
 26 27  1  0
 26 30  1  0
 27 28  1  0
 28 29  1  0
 29 30  1  0
M  END
>  <DRUGBANK_ID>  (1) 
DB13943

>  <SECONDARY_ACCESSION_NUMBERS>  (1) 
DBSALT001298

>  <COMMON_NAME>  (1) 
Testosterone cypionate

>  <CAS_NUMBER>  (1) 
58-20-8

>  <UNII>  (1) 
M0XW1UBI14

>  <SYNONYMS>  (1) 
testosterone 17β-cyclopentanepropionate; testosterone 17β-cyclopentylpropionate; testosterone 17β-cypionate; Testosterone cipionate; Testosterone cyclopentanepropionate; Testosterone cyclopentylpropionate; Testosterone cypionate

$$$$
