
     RDKit          3D

 36 40  0  0  1  0  0  0  0  0999 V2000
   -2.8415   -0.3691   -7.8415 C   0  0  0  0  0  0  0  0  0  0  0  0
   -2.5289   -0.1523   -6.3535 C   0  0  2  0  0  0  0  0  0  0  0  0
   -1.5543   -1.3200   -5.8756 C   0  0  0  0  0  0  0  0  0  0  0  0
   -2.3203   -2.5942   -5.8093 C   0  0  0  0  0  0  0  0  0  0  0  0
   -3.6508   -2.4166   -4.9937 C   0  0  2  0  0  0  0  0  0  0  0  0
   -4.0931   -3.8571   -4.7905 C   0  0  0  0  0  0  0  0  0  0  0  0
   -5.5588   -4.1177   -4.5635 C   0  0  0  0  0  0  0  0  0  0  0  0
   -6.5668   -3.0475   -5.0274 C   0  0  0  0  0  0  0  0  0  0  0  0
   -6.0031   -1.6329   -4.9003 C   0  0  0  0  0  0  0  0  0  0  0  0
   -4.6179   -1.4136   -5.5898 C   0  0  1  0  0  0  0  0  0  0  0  0
   -3.8321   -0.0248   -5.5408 C   0  0  1  0  0  0  0  0  0  0  0  0
   -3.3467    0.8448   -4.2789 C   0  0  0  0  0  0  0  0  0  0  0  0
   -4.0704    1.7424   -3.8401 O   0  0  0  0  0  0  0  0  0  0  0  0
   -1.9040    0.8330   -3.8231 C   0  0  0  0  0  0  0  0  0  0  0  0
   -1.1605    1.2836   -4.8684 C   0  0  0  0  0  0  0  0  0  0  0  0
   -1.8381    1.2021   -6.2097 C   0  0  1  0  0  0  0  0  0  0  0  0
   -0.7038    1.0817   -7.1355 C   0  0  0  0  0  0  0  0  0  0  0  0
   -0.2838    2.4578   -7.5582 C   0  0  0  0  0  0  0  0  0  0  0  0
    0.9255    2.2237   -6.8483 C   0  0  2  0  0  0  0  0  0  0  0  0
    0.0980    2.1606   -5.0160 C   0  0  2  0  0  0  0  0  0  0  0  0
    1.4067    1.9288   -4.4301 C   0  0  0  0  0  0  0  0  0  0  0  0
    1.6973    3.0409   -5.1386 C   0  0  0  0  0  0  0  0  0  0  0  0
    2.8706    2.9264   -5.9688 C   0  0  0  0  0  0  0  0  0  0  0  0
    3.9382    2.4718   -5.6392 O   0  0  0  0  0  0  0  0  0  0  0  0
    2.2740    3.1378   -7.2929 C   0  0  0  0  0  0  0  0  0  0  0  0
    3.4217    2.7977   -8.2916 C   0  0  0  0  0  0  0  0  0  0  0  0
    1.8535    4.5643   -7.6189 C   0  0  0  0  0  0  0  0  0  0  0  0
    1.4352    4.4709   -4.6951 C   0  0  0  0  0  0  0  0  0  0  0  0
    1.2177    5.6573   -4.3273 N   0  0  0  0  0  0  0  0  0  0  0  0
   -0.5064    3.1840   -3.6353 C   0  0  0  0  0  0  0  0  0  0  0  0
   -2.6568    2.5099   -6.4548 C   0  0  0  0  0  0  0  0  0  0  0  0
   -7.7522   -3.1258   -4.0301 C   0  0  0  0  0  0  0  0  0  0  0  0
   -7.0033   -3.2007   -6.4725 C   0  0  0  0  0  0  0  0  0  0  0  0
   -3.4307   -1.8082   -3.5760 C   0  0  0  0  0  0  0  0  0  0  0  0
   -2.3616   -1.9920   -2.9574 O   0  0  0  0  0  0  0  0  0  0  0  0
   -4.3169   -0.9507   -3.0002 O   0  0  0  0  0  0  0  0  0  0  0  0
  2  1  1  6
  2  3  1  0
  2 11  1  0
  2 16  1  0
  3  4  1  0
  4  5  1  0
  5  6  1  0
  5 10  1  0
  5 34  1  1
  6  7  1  0
  7  8  1  0
  8  9  1  0
  8 32  1  0
  8 33  1  0
 10  9  1  1
 10 11  1  0
 11 12  1  1
 12 13  2  0
 12 14  1  0
 14 15  2  0
 15 16  1  0
 15 20  1  0
 16 17  1  0
 16 31  1  6
 17 18  1  0
 19 18  1  6
 19 20  1  0
 19 25  1  0
 20 21  1  0
 20 30  1  1
 21 22  2  0
 22 23  1  0
 22 28  1  0
 23 24  2  0
 23 25  1  0
 25 26  1  0
 25 27  1  0
 28 29  3  0
 34 35  2  0
 34 36  1  0
M  END
>  <DRUGBANK_ID>  (1) 
DB12651

>  <SECONDARY_ACCESSION_NUMBERS>  (1) 
DB06120

>  <COMMON_NAME>  (1) 
Bardoxolone

>  <CAS_NUMBER>  (1) 
218600-44-3

>  <UNII>  (1) 
7HT68L8941

>  <SYNONYMS>  (1) 
Bardoxolone

$$$$
