809
     RDKit          3D

 21 22  0  0  1  0  0  0  0  0999 V2000
    0.9746   -0.0211   -0.0968 O   0  0  0  0  0  0  0  0  0  0  0  0
    3.0569   -1.5627    2.2981 O   0  0  0  0  0  0  0  0  0  0  0  0
    2.9260   -0.7302   -1.0661 N   0  0  0  0  0  0  0  0  0  0  0  0
    5.9938   -4.8090   -1.2411 N   0  0  0  0  0  0  0  0  0  0  0  0
    2.9422    0.5780    1.1137 C   0  0  0  0  0  0  0  0  0  0  0  0
    2.2165   -0.0601   -0.0711 C   0  0  0  0  0  0  0  0  0  0  0  0
    4.4097   -0.7759   -1.1637 C   0  0  0  0  0  0  0  0  0  0  0  0
    2.5834    2.0495    1.2342 C   0  0  0  0  0  0  0  0  0  0  0  0
    2.1460   -1.2939   -2.1974 C   0  0  0  0  0  0  0  0  0  0  0  0
    2.6115   -0.2134    2.3910 C   0  0  0  0  0  0  0  0  0  0  0  0
    4.9972   -2.1690   -1.1299 C   0  0  0  0  0  0  0  0  0  0  0  0
    1.4840    2.4637    2.0009 C   0  0  0  0  0  0  0  0  0  0  0  0
    3.3600    3.0204    0.5857 C   0  0  0  0  0  0  0  0  0  0  0  0
    1.1171   -2.3807   -1.8248 C   0  0  0  0  0  0  0  0  0  0  0  0
    4.1936   -3.2860   -0.9344 C   0  0  0  0  0  0  0  0  0  0  0  0
    6.3626   -2.4059   -1.2574 C   0  0  0  0  0  0  0  0  0  0  0  0
    1.2106    3.8119    2.1869 C   0  0  0  0  0  0  0  0  0  0  0  0
    3.1004    4.3749    0.7960 C   0  0  0  0  0  0  0  0  0  0  0  0
    2.0241    4.7681    1.5914 C   0  0  0  0  0  0  0  0  0  0  0  0
    4.6899   -4.5627   -1.0732 C   0  0  0  0  0  0  0  0  0  0  0  0
    6.8044   -3.7267   -1.2752 C   0  0  0  0  0  0  0  0  0  0  0  0
  1  6  2  0
  2 10  1  0
  3  6  1  0
  3  7  1  0
  3  9  1  0
  4 20  2  0
  4 21  1  0
  5  6  1  0
  5  8  1  0
  5 10  1  0
  7 11  1  0
  8 12  2  0
  8 13  1  0
  9 14  1  0
 11 15  2  0
 11 16  1  0
 12 17  1  0
 13 18  2  0
 15 20  1  0
 16 21  2  0
 17 19  2  0
 18 19  1  0
M  END
>  <DRUGBANK_ID>  (1) 
DB00809

>  <SECONDARY_ACCESSION_NUMBERS>  (1) 
APRD00287

>  <COMMON_NAME>  (1) 
Tropicamide

>  <CAS_NUMBER>  (1) 
1508-75-4

>  <UNII>  (1) 
N0A3Z5XTC6

>  <SYNONYMS>  (1) 
Tropicamid; Tropicamida; Tropicamide; Tropicamidum

$$$$
