PPX
     RDKit          3D

 28 30  0  0  0  0  0  0  0  0999 V2000
    0.6235   -1.3166    2.1857 N   0  0  0  0  0  0  0  0  0  0  0  0
    0.2868   -1.1564    0.7458 C   0  0  2  0  0  0  0  0  0  0  0  0
    1.0471   -0.0849   -0.0620 C   0  0  0  0  0  0  0  0  0  0  0  0
    2.3967    0.3185    0.4836 C   0  0  0  0  0  0  0  0  0  0  0  0
    3.5125    0.2521   -0.3486 C   0  0  0  0  0  0  0  0  0  0  0  0
    2.5614    0.8079    1.7940 C   0  0  0  0  0  0  0  0  0  0  0  0
    4.7661    0.6124    0.1406 C   0  0  0  0  0  0  0  0  0  0  0  0
    3.8177    1.1105    2.3006 C   0  0  0  0  0  0  0  0  0  0  0  0
    4.9231    1.0091    1.4699 C   0  0  0  0  0  0  0  0  0  0  0  0
   -1.2593   -1.0503    0.7107 C   0  0  0  0  0  0  0  0  0  0  0  0
   -1.9308   -2.0628    0.4819 O   0  0  0  0  0  0  0  0  0  0  0  0
   -1.8399    0.0898    1.2470 N   0  0  0  0  0  0  0  0  0  0  0  0
   -1.5261    1.4854    1.0484 C   0  0  0  0  0  0  0  0  0  0  0  0
   -2.9723   -0.0293    2.1620 C   0  0  1  0  0  0  0  0  0  0  0  0
   -3.1612    1.3850    2.7512 C   0  0  0  0  0  0  0  0  0  0  0  0
   -1.9003    2.1303    2.3578 C   0  0  0  0  0  0  0  0  0  0  0  0
   -4.2738   -0.4647    1.4736 C   0  0  0  0  0  0  0  0  0  0  0  0
   -4.6889    0.0859    0.4440 O   0  0  0  0  0  0  0  0  0  0  0  0
   -5.0462   -1.4272    2.0564 N   0  0  0  0  0  0  0  0  0  0  0  0
   -4.7669   -2.2230    3.2457 C   0  0  0  0  0  0  0  0  0  0  0  0
   -5.8538   -2.0556    4.3130 C   0  0  0  0  0  0  0  0  0  0  0  0
   -7.1195   -2.6088    3.8565 N   0  0  0  0  0  0  0  0  0  0  0  0
   -7.7363   -3.6458    4.5297 C   0  0  0  0  0  0  0  0  0  0  0  0
   -7.8335   -3.6597    5.9197 C   0  0  0  0  0  0  0  0  0  0  0  0
   -8.4509   -4.7309    6.5436 C   0  0  0  0  0  0  0  0  0  0  0  0
   -8.9346   -5.8035    5.8868 N   0  0  0  0  0  0  0  0  0  0  0  0
   -8.7997   -5.7920    4.5444 C   0  0  0  0  0  0  0  0  0  0  0  0
   -8.2232   -4.7495    3.8323 C   0  0  0  0  0  0  0  0  0  0  0  0
  2 10  1  0
  2  3  1  0
  2  1  1  1
  3  4  1  0
  4  5  2  0
  4  6  1  0
  5  7  1  0
  6  8  2  0
  7  9  2  0
  8  9  1  0
 10 11  2  0
 10 12  1  0
 12 13  1  0
 12 14  1  0
 13 16  1  0
 14 15  1  0
 14 17  1  6
 15 16  1  0
 17 18  2  0
 17 19  1  0
 19 20  1  0
 20 21  1  0
 21 22  1  0
 22 23  1  0
 23 24  2  0
 23 28  1  0
 24 25  1  0
 25 26  2  0
 26 27  1  0
 27 28  2  0
M  END
>  <DRUGBANK_ID>  (1) 
DB08422

>  <COMMON_NAME>  (1) 
[PHENYLALANINYL-PROLINYL]-[2-(PYRIDIN-4-YLAMINO)-ETHYL]-AMINE

$$$$
