472
     RDKit          3D

 22 23  0  0  1  0  0  0  0  0999 V2000
    0.6137   -0.2691    0.1377 F   0  0  0  0  0  0  0  0  0  0  0  0
    2.4611   -0.7175    1.2238 F   0  0  0  0  0  0  0  0  0  0  0  0
    2.4516   -0.6823   -0.9408 F   0  0  0  0  0  0  0  0  0  0  0  0
    3.8780    5.3213   -0.3723 O   0  0  0  0  0  0  0  0  0  0  0  0
    7.0432    2.7376   -1.3366 N   0  0  0  0  0  0  0  0  0  0  0  0
    5.2247    5.4734   -0.9768 C   0  0  0  0  0  0  0  0  0  0  0  0
    6.4578    4.8724   -0.1239 C   0  0  0  0  0  0  0  0  0  0  0  0
    5.2825    5.2276   -2.5107 C   0  0  0  0  0  0  0  0  0  0  0  0
    6.7155    3.3311   -0.0221 C   0  0  0  0  0  0  0  0  0  0  0  0
    6.1736    5.9080   -3.3489 C   0  0  0  0  0  0  0  0  0  0  0  0
    4.5697    4.1774   -3.1101 C   0  0  0  0  0  0  0  0  0  0  0  0
    3.3069    4.0954   -0.1648 C   0  0  0  0  0  0  0  0  0  0  0  0
    6.4077    5.4403   -4.6560 C   0  0  0  0  0  0  0  0  0  0  0  0
    5.0045    3.5496   -4.2650 C   0  0  0  0  0  0  0  0  0  0  0  0
    3.9572    2.9438   -0.5308 C   0  0  0  0  0  0  0  0  0  0  0  0
    2.0624    3.8772    0.3676 C   0  0  0  0  0  0  0  0  0  0  0  0
    2.3228    1.4136    0.1764 C   0  0  0  0  0  0  0  0  0  0  0  0
    5.8832    4.2194   -5.0817 C   0  0  0  0  0  0  0  0  0  0  0  0
    6.5533    1.3920   -1.6233 C   0  0  0  0  0  0  0  0  0  0  0  0
    3.5592    1.6460   -0.2933 C   0  0  0  0  0  0  0  0  0  0  0  0
    1.5688    2.5406    0.5596 C   0  0  0  0  0  0  0  0  0  0  0  0
    1.9438   -0.0398    0.1642 C   0  0  0  0  0  0  0  0  0  0  0  0
  1 22  1  0
  2 22  1  0
  3 22  1  0
  4  6  1  0
  4 12  1  0
  5  9  1  0
  5 19  1  0
  6  7  1  0
  6  8  1  0
  7  9  1  0
  8 10  2  0
  8 11  1  0
 10 13  1  0
 11 14  2  0
 12 15  2  0
 12 16  1  0
 13 18  2  0
 14 18  1  0
 15 20  1  0
 16 21  2  0
 17 20  2  0
 17 21  1  0
 17 22  1  0
M  END
>  <DRUGBANK_ID>  (1) 
DB00472

>  <SECONDARY_ACCESSION_NUMBERS>  (1) 
APRD00530

>  <COMMON_NAME>  (1) 
Fluoxetine

>  <CAS_NUMBER>  (1) 
54910-89-3

>  <UNII>  (1) 
01K63SUP8D

>  <SYNONYMS>  (1) 
(+-)-N-Methyl-3-phenyl-3-((alpha,alpha,alpha-trifluoro-P-tolyl)oxy)propylamine; (+-)-N-Methyl-gamma-(4-(trifluoromethyl)phenoxy)benzenepropanamine; Fluoxetin; Fluoxetina; Fluoxetine; Fluox√©tine; Fluoxetinum

$$$$
