2BE
     RDKit          3D

 22 23  0  0  0  0  0  0  0  0999 V2000
    1.3766    0.9930   -0.4233 C   0  0  0  0  0  0  0  0  0  0  0  0
   -0.0087    0.9175   -0.2215 C   0  0  0  0  0  0  0  0  0  0  0  0
   -0.5865   -0.3102   -0.0223 C   0  0  0  0  0  0  0  0  0  0  0  0
   -2.2985   -0.4111    0.0535 Cl  0  0  0  0  0  0  0  0  0  0  0  0
    0.2401   -1.4285    0.0189 C   0  0  0  0  0  0  0  0  0  0  0  0
    1.6569   -1.2928   -0.0013 C   0  0  0  0  0  0  0  0  0  0  0  0
    2.2755   -0.0421   -0.1667 C   0  0  0  0  0  0  0  0  0  0  0  0
    3.8125    0.0770   -0.0548 C   0  0  0  0  0  0  0  0  0  0  0  0
    4.4460   -0.9649    0.0632 O   0  0  0  0  0  0  0  0  0  0  0  0
    4.5634    1.2837   -0.0132 N   0  0  0  0  0  0  0  0  0  0  0  0
    4.1639    2.5942   -0.2537 N   0  0  0  0  0  0  0  0  0  0  0  0
    3.1233    2.9307    0.4456 C   0  0  0  0  0  0  0  0  0  0  0  0
    2.1914    4.0691    0.2407 C   0  0  0  0  0  0  0  0  0  0  0  0
    2.4155    5.0199   -0.7586 C   0  0  0  0  0  0  0  0  0  0  0  0
    1.5671    6.1322   -0.8446 C   0  0  0  0  0  0  0  0  0  0  0  0
    2.0143    7.5274   -2.0486 Br  0  0  0  0  0  0  0  0  0  0  0  0
    0.4446    6.2508   -0.0151 C   0  0  0  0  0  0  0  0  0  0  0  0
   -0.3426    7.3721   -0.0283 O   0  0  0  0  0  0  0  0  0  0  0  0
    0.1282    5.2210    0.8681 C   0  0  0  0  0  0  0  0  0  0  0  0
   -1.4552    5.3245    1.9312 Br  0  0  0  0  0  0  0  0  0  0  0  0
    0.9964    4.1270    0.9983 C   0  0  0  0  0  0  0  0  0  0  0  0
    0.5936    3.1572    1.8849 O   0  0  0  0  0  0  0  0  0  0  0  0
  1  2  2  0
  1  7  1  0
  2  3  1  0
  3  4  1  0
  3  5  2  0
  5  6  1  0
  6  7  2  0
  7  8  1  0
  8  9  2  0
  8 10  1  0
 10 11  1  0
 11 12  2  0
 12 13  1  0
 13 14  2  0
 13 21  1  0
 14 15  1  0
 15 16  1  0
 15 17  2  0
 17 18  1  0
 17 19  1  0
 19 20  1  0
 19 21  2  0
 21 22  1  0
M  END
>  <DRUGBANK_ID>  (1) 
DB06950

>  <COMMON_NAME>  (1) 
4-chloro-N'-[(1E)-(3,5-dibromo-2,4-dihydroxyphenyl)methylidene]benzohydrazide

$$$$
