1254
     RDKit          3D

 33 36  0  0  0  0  0  0  0  0999 V2000
    1.6451   -0.3299    1.7342 Cl  0  0  0  0  0  0  0  0  0  0  0  0
    4.0925    1.8288    0.7886 S   0  0  0  0  0  0  0  0  0  0  0  0
    3.7463    0.2176    7.1150 O   0  0  0  0  0  0  0  0  0  0  0  0
    1.6851    3.8752    0.1728 O   0  0  0  0  0  0  0  0  0  0  0  0
    6.6181    0.9044    8.1334 N   0  0  0  0  0  0  0  0  0  0  0  0
    6.5609    0.7052    5.2560 N   0  0  0  0  0  0  0  0  0  0  0  0
    8.1467    1.0291    3.5898 N   0  0  0  0  0  0  0  0  0  0  0  0
    7.7421    0.2380    1.3719 N   0  0  0  0  0  0  0  0  0  0  0  0
    5.5610   -0.5305    0.7689 N   0  0  0  0  0  0  0  0  0  0  0  0
    3.8984   -0.1389   -0.8477 N   0  0  0  0  0  0  0  0  0  0  0  0
    0.2439    2.1537    0.1038 N   0  0  0  0  0  0  0  0  0  0  0  0
    7.1695    1.9894    7.3091 C   0  0  0  0  0  0  0  0  0  0  0  0
    6.8790   -0.3951    7.4698 C   0  0  0  0  0  0  0  0  0  0  0  0
    6.6000    2.0251    5.8869 C   0  0  0  0  0  0  0  0  0  0  0  0
    6.4654   -0.5593    5.9830 C   0  0  0  0  0  0  0  0  0  0  0  0
    5.2776    1.1699    8.7103 C   0  0  0  0  0  0  0  0  0  0  0  0
    6.9268    0.6188    3.9354 C   0  0  0  0  0  0  0  0  0  0  0  0
    4.0234    1.3936    7.8334 C   0  0  0  0  0  0  0  0  0  0  0  0
    6.0496    0.0778    3.0266 C   0  0  0  0  0  0  0  0  0  0  0  0
    6.4805   -0.0615    1.7274 C   0  0  0  0  0  0  0  0  0  0  0  0
    8.5174    0.8071    2.3224 C   0  0  0  0  0  0  0  0  0  0  0  0
    9.8952    1.2605    1.9558 C   0  0  0  0  0  0  0  0  0  0  0  0
    4.5860    0.2513    0.2095 C   0  0  0  0  0  0  0  0  0  0  0  0
    2.6840    1.7663   -0.2037 C   0  0  0  0  0  0  0  0  0  0  0  0
   -0.2634    0.8186    0.1465 C   0  0  0  0  0  0  0  0  0  0  0  0
    2.8422    0.7280   -1.1016 C   0  0  0  0  0  0  0  0  0  0  0  0
   -1.6413    0.5551   -0.0024 C   0  0  0  0  0  0  0  0  0  0  0  0
    1.5523    2.6426    0.0344 C   0  0  0  0  0  0  0  0  0  0  0  0
    0.5496   -0.3030    0.3709 C   0  0  0  0  0  0  0  0  0  0  0  0
   -2.0758   -0.7925   -0.0546 C   0  0  0  0  0  0  0  0  0  0  0  0
   -2.6964    1.6286   -0.0487 C   0  0  0  0  0  0  0  0  0  0  0  0
    0.1789   -1.5845   -0.0099 C   0  0  0  0  0  0  0  0  0  0  0  0
   -1.1666   -1.8481   -0.1249 C   0  0  0  0  0  0  0  0  0  0  0  0
  1 29  1  0
  2 23  1  0
  2 24  1  0
  3 18  1  0
  4 28  2  0
  5 12  1  0
  5 13  1  0
  5 16  1  0
  6 14  1  0
  6 15  1  0
  6 17  1  0
  7 17  2  0
  7 21  1  0
  8 20  1  0
  8 21  2  0
  9 20  1  0
  9 23  1  0
 10 23  2  0
 10 26  1  0
 11 25  1  0
 11 28  1  0
 12 14  1  0
 13 15  1  0
 16 18  1  0
 17 19  1  0
 19 20  2  0
 21 22  1  0
 24 26  2  0
 24 28  1  0
 25 27  2  0
 25 29  1  0
 27 30  1  0
 27 31  1  0
 29 32  2  0
 30 33  2  0
 32 33  1  0
M  END
>  <DRUGBANK_ID>  (1) 
DB01254

>  <COMMON_NAME>  (1) 
Dasatinib

>  <CAS_NUMBER>  (1) 
302962-49-8

>  <UNII>  (1) 
X78UG0A0RN

>  <SYNONYMS>  (1) 
Anh. dasatinib; Anhydrous dasatinib; BMS dasatinib; Dasatinib; Dasatinib (anh.); dasatinib (anhydrous); Dasatinib anhydrous; Dasatinibum; N-(2-CHLORO-6-methylphenyl)-2-({6-[4-(2-hydroxyethyl)piperazin-1-yl]-2-methylpyrimidin-4-yl}amino)-1,3-thiazole-5-carboxamide

$$$$
