PGJ
     RDKit          3D

 31 34  0  0  0  0  0  0  0  0999 V2000
   -0.3634   -1.2165    0.0516 C   0  0  0  0  0  0  0  0  0  0  0  0
    0.9174   -0.6910    0.1344 N   0  0  0  0  0  0  0  0  0  0  0  0
    0.8764    0.6943    0.0402 O   0  0  0  0  0  0  0  0  0  0  0  0
   -0.4505    1.0411   -0.0164 C   0  0  0  0  0  0  0  0  0  0  0  0
   -1.2807   -0.2169   -0.0142 C   0  0  0  0  0  0  0  0  0  0  0  0
    2.2434   -1.2708    0.0580 C   0  0  0  0  0  0  0  0  0  0  0  0
    2.9476   -0.9306   -1.1345 O   0  0  0  0  0  0  0  0  0  0  0  0
    2.2996   -1.3497   -2.3321 C   0  0  0  0  0  0  0  0  0  0  0  0
    2.1257   -2.8569   -2.4063 C   0  0  0  0  0  0  0  0  0  0  0  0
   -0.5609   -2.6938    0.0730 C   0  0  0  0  0  0  0  0  0  0  0  0
    0.0125   -3.4592    1.0818 C   0  0  0  0  0  0  0  0  0  0  0  0
   -0.1005   -4.8282    0.9784 C   0  0  0  0  0  0  0  0  0  0  0  0
   -0.7162   -5.4330   -0.0445 N   0  0  0  0  0  0  0  0  0  0  0  0
   -1.2618   -4.6180   -0.9677 C   0  0  0  0  0  0  0  0  0  0  0  0
   -1.1959   -3.2675   -0.9729 N   0  0  0  0  0  0  0  0  0  0  0  0
   -1.9653   -5.2155   -2.0064 O   0  0  0  0  0  0  0  0  0  0  0  0
   -3.0900   -5.9456   -1.6627 C   0  0  0  0  0  0  0  0  0  0  0  0
   -3.6586   -5.9647   -0.3811 C   0  0  0  0  0  0  0  0  0  0  0  0
   -4.8147   -6.7028   -0.1203 C   0  0  0  0  0  0  0  0  0  0  0  0
   -5.4296   -7.4188   -1.1424 C   0  0  0  0  0  0  0  0  0  0  0  0
   -4.8878   -7.3977   -2.4269 C   0  0  0  0  0  0  0  0  0  0  0  0
   -3.7264   -6.6673   -2.6815 C   0  0  0  0  0  0  0  0  0  0  0  0
   -3.2593   -6.6863   -3.9679 O   0  0  0  0  0  0  0  0  0  0  0  0
   -2.7652   -0.2061   -0.0168 C   0  0  0  0  0  0  0  0  0  0  0  0
   -3.4883   -0.7954    1.0364 C   0  0  0  0  0  0  0  0  0  0  0  0
   -4.8949   -0.8087    1.0455 C   0  0  0  0  0  0  0  0  0  0  0  0
   -5.6009   -0.2145    0.0101 C   0  0  0  0  0  0  0  0  0  0  0  0
   -4.9228    0.4172   -1.0216 C   0  0  0  0  0  0  0  0  0  0  0  0
   -3.5132    0.4321   -1.0291 C   0  0  0  0  0  0  0  0  0  0  0  0
   -6.9415   -0.2498    0.0103 F   0  0  0  0  0  0  0  0  0  0  0  0
   -0.8643    2.1949   -0.0362 O   0  0  0  0  0  0  0  0  0  0  0  0
  1  2  1  0
  1  5  2  0
  1 10  1  0
  2  3  1  0
  2  6  1  0
  3  4  1  0
  4  5  1  0
  4 31  2  0
  5 24  1  0
  6  7  1  0
  7  8  1  0
  8  9  1  0
 10 11  2  0
 10 15  1  0
 11 12  1  0
 12 13  2  0
 13 14  1  0
 14 15  2  0
 14 16  1  0
 16 17  1  0
 17 18  2  0
 17 22  1  0
 18 19  1  0
 19 20  2  0
 20 21  1  0
 21 22  2  0
 22 23  1  0
 24 25  2  0
 24 29  1  0
 25 26  1  0
 26 27  2  0
 27 28  1  0
 27 30  1  0
 28 29  2  0
M  END
>  <DRUGBANK_ID>  (1) 
DB08395

>  <COMMON_NAME>  (1) 
2-(ETHOXYMETHYL)-4-(4-FLUOROPHENYL)-3-[2-(2-HYDROXYPHENOXY)PYRIMIDIN-4-YL]ISOXAZOL-5(2H)-ONE

$$$$
