1625
     RDKit          3D

 26 27  0  0  0  0  0  0  0  0999 V2000
    1.1823    0.4302   -0.1423 O   0  0  0  0  0  0  0  0  0  0  0  0
    0.5802   -1.5418    3.0294 N   0  0  0  0  0  0  0  0  0  0  0  0
    3.0597    0.7904   -1.2700 N   0  0  0  0  0  0  0  0  0  0  0  0
    1.2075   -0.0999    2.8478 C   0  0  0  0  0  0  0  0  0  0  0  0
    1.4958   -2.4346    3.9783 C   0  0  0  0  0  0  0  0  0  0  0  0
   -0.9928   -1.7165    3.0390 C   0  0  0  0  0  0  0  0  0  0  0  0
    2.7127   -0.1738    2.2806 C   0  0  0  0  0  0  0  0  0  0  0  0
    0.8623   -2.0006    1.7495 C   0  0  0  0  0  0  0  0  0  0  0  0
    3.1628   -0.8225    0.6748 C   0  0  0  0  0  0  0  0  0  0  0  0
    1.2569   -1.9445    5.3596 C   0  0  0  0  0  0  0  0  0  0  0  0
    1.4059   -3.9637    3.8880 C   0  0  0  0  0  0  0  0  0  0  0  0
   -1.6429   -0.9610    1.8458 C   0  0  0  0  0  0  0  0  0  0  0  0
   -1.4743   -3.1933    2.8247 C   0  0  0  0  0  0  0  0  0  0  0  0
    2.8426   -2.4901    0.0675 C   0  0  0  0  0  0  0  0  0  0  0  0
    4.7231   -0.5121    0.7432 C   0  0  0  0  0  0  0  0  0  0  0  0
    2.4107    0.1718   -0.2722 C   0  0  0  0  0  0  0  0  0  0  0  0
    3.7864   -3.4910    0.2795 C   0  0  0  0  0  0  0  0  0  0  0  0
    5.2160    0.8053    0.7742 C   0  0  0  0  0  0  0  0  0  0  0  0
    1.5958   -3.1314   -0.2302 C   0  0  0  0  0  0  0  0  0  0  0  0
    5.7123   -1.4929    0.9004 C   0  0  0  0  0  0  0  0  0  0  0  0
    3.5620   -4.8371    0.6536 C   0  0  0  0  0  0  0  0  0  0  0  0
    6.5933    1.0679    0.7083 C   0  0  0  0  0  0  0  0  0  0  0  0
    1.3021   -4.4626    0.3047 C   0  0  0  0  0  0  0  0  0  0  0  0
    7.0744   -1.2594    0.8008 C   0  0  0  0  0  0  0  0  0  0  0  0
    2.2874   -5.3186    0.7489 C   0  0  0  0  0  0  0  0  0  0  0  0
    7.5186    0.0302    0.6637 C   0  0  0  0  0  0  0  0  0  0  0  0
  1 16  2  0
  2  4  1  0
  2  5  1  0
  2  6  1  0
  2  8  1  0
  3 16  1  0
  4  7  1  0
  5 10  1  0
  5 11  1  0
  6 12  1  0
  6 13  1  0
  7  9  1  0
  9 14  1  0
  9 15  1  0
  9 16  1  0
 14 17  2  0
 14 19  1  0
 15 18  2  0
 15 20  1  0
 17 21  1  0
 18 22  1  0
 19 23  2  0
 20 24  2  0
 21 25  2  0
 22 26  2  0
 23 25  1  0
 24 26  1  0
M  CHG  1   2   1
M  END
>  <DRUGBANK_ID>  (1) 
DB01625

>  <COMMON_NAME>  (1) 
Isopropamide

>  <CAS_NUMBER>  (1) 
7492-32-2

>  <UNII>  (1) 
8B9I31H724

>  <SYNONYMS>  (1) 
Isopropamide

$$$$
