
     RDKit          3D

 18 19  0  0  1  0  0  0  0  0999 V2000
    1.1000   -0.6746    0.1642 C   0  0  0  0  0  0  0  0  0  0  0  0
   -0.2106   -1.1312    0.0464 N   0  0  0  0  0  0  0  0  0  0  0  0
   -0.3627    1.0861   -0.0197 N   0  0  0  0  0  0  0  0  0  0  0  0
    2.4132   -1.3288    0.2592 C   0  0  0  0  0  0  0  0  0  0  0  0
   -1.0425   -0.0330    0.0017 C   0  0  0  0  0  0  0  0  0  0  0  0
   -0.7144   -2.5090   -0.0174 C   0  0  1  0  0  0  0  0  0  0  0  0
    0.9461    0.6996    0.0451 C   0  0  0  0  0  0  0  0  0  0  0  0
    3.4633   -0.7556    0.0690 O   0  0  0  0  0  0  0  0  0  0  0  0
   -0.3453   -3.1947   -1.3390 C   0  0  0  0  0  0  0  0  0  0  0  0
    2.3272   -2.6740    0.4758 O   0  0  0  0  0  0  0  0  0  0  0  0
   -0.3754   -3.2471    1.2914 C   0  0  0  0  0  0  0  0  0  0  0  0
    0.9566   -3.2736   -1.8272 C   0  0  0  0  0  0  0  0  0  0  0  0
   -1.2928   -3.7591   -2.1885 C   0  0  0  0  0  0  0  0  0  0  0  0
    3.4039   -3.6152    0.1873 C   0  0  0  0  0  0  0  0  0  0  0  0
    4.2325   -3.3758   -1.0733 C   0  0  0  0  0  0  0  0  0  0  0  0
   -0.8998   -4.4739   -3.3434 C   0  0  0  0  0  0  0  0  0  0  0  0
    1.3726   -4.0361   -2.9095 C   0  0  0  0  0  0  0  0  0  0  0  0
    0.4342   -4.6243   -3.6954 C   0  0  0  0  0  0  0  0  0  0  0  0
  2  1  1  0
  4  1  1  0
  5  2  1  0
  5  3  2  0
  6  2  1  0
  6 11  1  1
  7  1  2  0
  7  3  1  0
  8  4  2  0
  9  6  1  0
 10  4  1  0
 12  9  2  0
 13  9  1  0
 14 10  1  0
 15 14  1  0
 16 13  2  0
 17 12  1  0
 18 16  1  0
 18 17  2  0
M  END
>  <DRUGBANK_ID>  (1) 
DB00292

>  <SECONDARY_ACCESSION_NUMBERS>  (1) 
APRD00965

>  <COMMON_NAME>  (1) 
Etomidate

>  <CAS_NUMBER>  (1) 
33125-97-2

>  <UNII>  (1) 
Z22628B598

>  <SYNONYMS>  (1) 
(+)-ethyl 1-(α-methylbenzyl)imidazole-5-carboxylate; (+)-etomidate; (R)-(+)-1-(α-methylbenzyl)imidazole-5-carboxylic acid ethyl ester; (R)-1-(1-phenylethyl)-1H-imidazole-5-carboxylic acid ethyl ester; 3-((R)-1-Phenyl-ethyl)-3H-imidazole-4-carboxylic acid ethyl ester; Etomidate; Etomidato; Etomidatum; R-(+)-ethyl 1-(1-phenylethyl)-1H-imidazole-5-carboxylate

$$$$
