BIR
     RDKit          3D

 29 30  0  0  0  0  0  0  0  0999 V2000
   -7.1722    6.0295   -0.0373 C   0  0  0  0  0  0  0  0  0  0  0  0
   -5.7604    6.4577    0.4134 C   0  0  2  0  0  0  0  0  0  0  0  0
   -5.3530    7.6288   -0.3755 N   0  0  0  0  0  0  0  0  0  0  0  0
   -4.5070    5.1310    0.2801 P   0  0  2  0  0  0  0  0  0  0  0  0
   -4.6618    4.9313    1.7823 O   0  0  0  0  0  0  0  0  0  0  0  0
   -5.3702    4.3446   -0.8727 O   0  0  0  0  0  0  0  0  0  0  0  0
   -3.2536    3.8043    0.1468 C   0  0  0  0  0  0  0  0  0  0  0  0
   -3.7943    2.5510    0.8548 C   0  0  2  0  0  0  0  0  0  0  0  0
   -3.2883    1.1992    0.0848 C   0  0  0  0  0  0  0  0  0  0  0  0
   -2.0620    1.0428   -0.0452 O   0  0  0  0  0  0  0  0  0  0  0  0
   -4.1486    0.0856   -0.2511 N   0  0  0  0  0  0  0  0  0  0  0  0
   -5.6904   -0.2346    0.0081 C   0  0  1  0  0  0  0  0  0  0  0  0
   -6.4349   -0.3492   -1.2819 C   0  0  0  0  0  0  0  0  0  0  0  0
   -6.3259   -1.3817    0.8848 C   0  0  0  0  0  0  0  0  0  0  0  0
   -7.3712   -0.9900    1.6699 O   0  0  0  0  0  0  0  0  0  0  0  0
   -5.9863   -2.5769    0.8417 O   0  0  0  0  0  0  0  0  0  0  0  0
   -5.3284    2.5877    1.2287 C   0  0  0  0  0  0  0  0  0  0  0  0
   -5.5307    1.7663    2.4775 C   0  0  0  0  0  0  0  0  0  0  0  0
   -4.8038    0.6060    2.4703 C   0  0  0  0  0  0  0  0  0  0  0  0
   -4.9569   -0.5291    3.1715 C   0  0  0  0  0  0  0  0  0  0  0  0
   -5.8678   -0.4609    4.1565 C   0  0  0  0  0  0  0  0  0  0  0  0
   -6.3439    0.8331    4.4990 C   0  0  0  0  0  0  0  0  0  0  0  0
   -6.2476    1.9460    3.6227 C   0  0  0  0  0  0  0  0  0  0  0  0
   -6.3068   -1.7166    4.7302 C   0  0  0  0  0  0  0  0  0  0  0  0
   -5.4280   -2.8112    4.8115 C   0  0  0  0  0  0  0  0  0  0  0  0
   -5.6763   -3.8231    5.7139 C   0  0  0  0  0  0  0  0  0  0  0  0
   -6.8464   -3.7845    6.4596 C   0  0  0  0  0  0  0  0  0  0  0  0
   -7.8169   -2.8153    6.2047 C   0  0  0  0  0  0  0  0  0  0  0  0
   -7.5862   -1.8360    5.2565 C   0  0  0  0  0  0  0  0  0  0  0  0
  2  4  1  0
  2  3  1  0
  2  1  1  6
  4  5  2  0
  4  6  1  0
  4  7  1  0
  8 17  1  6
  8  9  1  0
  8  7  1  0
  9 10  2  0
  9 11  1  0
 11 12  1  0
 12 13  1  6
 12 14  1  0
 14 15  1  0
 14 16  2  0
 17 18  1  0
 18 19  2  0
 18 23  1  0
 19 20  1  0
 20 21  2  0
 21 22  1  0
 21 24  1  0
 22 23  2  0
 24 25  2  0
 24 29  1  0
 25 26  1  0
 26 27  2  0
 27 28  1  0
 28 29  2  0
M  END
>  <DRUGBANK_ID>  (1) 
DB02062

>  <SECONDARY_ACCESSION_NUMBERS>  (1) 
EXPT00710

>  <COMMON_NAME>  (1) 
N-[3-[(1-Aminoethyl)(Hydroxy)Phosphoryl]-2-(1,1'-Biphenyl-4-Ylmethyl)Propanoyl]Alanine

$$$$
