
     RDKit          3D

 28 30  0  0  0  0  0  0  0  0999 V2000
    1.0698   -0.0870   -0.0672 C   0  0  0  0  0  0  0  0  0  0  0  0
    0.5697    1.0448   -0.7728 O   0  0  0  0  0  0  0  0  0  0  0  0
    0.8820    2.2736   -0.2573 C   0  0  0  0  0  0  0  0  0  0  0  0
    2.1869    2.5649    0.1227 C   0  0  0  0  0  0  0  0  0  0  0  0
    2.5772    3.8796    0.4024 C   0  0  0  0  0  0  0  0  0  0  0  0
    1.6484    4.9134    0.2972 C   0  0  0  0  0  0  0  0  0  0  0  0
    0.3309    4.6255   -0.0595 C   0  0  0  0  0  0  0  0  0  0  0  0
   -0.0802    3.2964   -0.2720 C   0  0  0  0  0  0  0  0  0  0  0  0
   -1.4378    3.1276   -0.4869 O   0  0  0  0  0  0  0  0  0  0  0  0
   -1.9840    1.8623   -0.4449 C   0  0  0  0  0  0  0  0  0  0  0  0
   -1.8230    0.9733    0.6248 C   0  0  0  0  0  0  0  0  0  0  0  0
   -2.2513   -0.3281    0.6082 N   0  0  0  0  0  0  0  0  0  0  0  0
   -2.9131   -0.6810   -0.5298 C   0  0  0  0  0  0  0  0  0  0  0  0
   -3.1404    0.2250   -1.5602 C   0  0  0  0  0  0  0  0  0  0  0  0
   -2.6958    1.5107   -1.5378 N   0  0  0  0  0  0  0  0  0  0  0  0
   -3.4270   -2.0763   -0.6649 C   0  0  0  0  0  0  0  0  0  0  0  0
   -4.0776   -2.4315   -1.6490 O   0  0  0  0  0  0  0  0  0  0  0  0
   -3.1575   -2.9614    0.3429 N   0  0  0  0  0  0  0  0  0  0  0  0
    4.0131    4.1648    0.7234 C   0  0  0  0  0  0  0  0  0  0  0  0
    4.6051    5.0387   -0.2853 N   0  0  0  0  0  0  0  0  0  0  0  0
    6.0321    5.2286   -0.0440 C   0  0  0  0  0  0  0  0  0  0  0  0
    6.8283    3.9232   -0.0867 C   0  0  0  0  0  0  0  0  0  0  0  0
    6.7053    3.2324   -1.4548 C   0  0  0  0  0  0  0  0  0  0  0  0
    5.9839    1.8808   -1.3675 C   0  0  0  0  0  0  0  0  0  0  0  0
    6.0545    1.1441   -2.6965 C   0  0  0  0  0  0  0  0  0  0  0  0
    7.4067    1.0147   -3.1297 O   0  0  0  0  0  0  0  0  0  0  0  0
    8.0288    2.2807   -3.3436 C   0  0  0  0  0  0  0  0  0  0  0  0
    8.0985    3.0645   -2.0485 C   0  0  0  0  0  0  0  0  0  0  0  0
  1  2  1  0
  2  3  1  0
  3  4  2  0
  3  8  1  0
  4  5  1  0
  5  6  2  0
  5 19  1  0
  6  7  1  0
  7  8  2  0
  8  9  1  0
  9 10  1  0
 10 11  2  0
 10 15  1  0
 11 12  1  0
 12 13  2  0
 13 14  1  0
 13 16  1  0
 14 15  2  0
 16 17  2  0
 16 18  1  0
 19 20  1  0
 20 21  1  0
 21 22  1  0
 22 23  1  0
 23 24  1  0
 23 28  1  0
 24 25  1  0
 25 26  1  0
 26 27  1  0
 27 28  1  0
M  END
>  <DRUGBANK_ID>  (1) 
DB12464

>  <COMMON_NAME>  (1) 
Bevenopran

>  <CAS_NUMBER>  (1) 
676500-67-7

>  <UNII>  (1) 
IC58Q2EHPJ

>  <SYNONYMS>  (1) 
Bevenopran

$$$$
