
     RDKit          3D

 27 30  0  0  0  0  0  0  0  0999 V2000
   -3.3125   -1.3169    3.8174 C   0  0  0  0  0  0  0  0  0  0  0  0
   -3.0684   -2.9680    3.7034 C   0  0  1  0  0  0  0  0  0  0  0  0
   -2.8429   -3.2177    5.1979 C   0  0  1  0  0  0  0  0  0  0  0  0
   -4.3206   -3.7256    3.1822 C   0  0  1  0  0  0  0  0  0  0  0  0
   -1.9291   -3.3570    2.7646 C   0  0  0  0  0  0  0  0  0  0  0  0
   -1.3700   -2.1802    5.4402 C   0  0  2  0  0  0  0  0  0  0  0  0
   -4.5709   -3.3491    5.4627 C   0  0  0  0  0  0  0  0  0  0  0  0
   -4.9903   -4.9526    2.6011 C   0  0  0  0  0  0  0  0  0  0  0  0
   -5.3892   -3.1562    4.0583 C   0  0  1  0  0  0  0  0  0  0  0  0
   -0.6942   -2.5329    2.9220 C   0  0  1  0  0  0  0  0  0  0  0  0
   -0.1844   -2.5392    4.3229 C   0  0  1  0  0  0  0  0  0  0  0  0
   -0.6061   -2.4086    6.7421 C   0  0  0  0  0  0  0  0  0  0  0  0
   -5.2463   -6.1554    3.4553 C   0  0  0  0  0  0  0  0  0  0  0  0
   -5.6138   -4.8192    1.5341 O   0  0  0  0  0  0  0  0  0  0  0  0
   -5.8274   -2.0583    3.0611 C   0  0  0  0  0  0  0  0  0  0  0  0
    0.2918   -3.0616    2.0531 O   0  0  0  0  0  0  0  0  0  0  0  0
    1.2268   -1.6618    4.3441 C   0  0  1  0  0  0  0  0  0  0  0  0
    0.9541   -1.9499    6.7435 C   0  0  1  0  0  0  0  0  0  0  0  0
   -6.5556   -6.1671    4.0049 O   0  0  0  0  0  0  0  0  0  0  0  0
    0.7546   -0.1563    4.2213 C   0  0  0  0  0  0  0  0  0  0  0  0
    1.9863   -2.4842    5.4832 C   0  0  0  0  0  0  0  0  0  0  0  0
    2.3564   -1.4628    3.3049 C   0  0  0  0  0  0  0  0  0  0  0  0
    0.8023   -0.5695    6.5393 F   0  0  0  0  0  0  0  0  0  0  0  0
    3.1826   -3.2201    5.0160 C   0  0  0  0  0  0  0  0  0  0  0  0
    3.6722   -1.4752    3.6388 C   0  0  0  0  0  0  0  0  0  0  0  0
    3.6901   -2.9256    3.5799 C   0  0  0  0  0  0  0  0  0  0  0  0
    3.9069   -3.6321    2.5598 O   0  0  0  0  0  0  0  0  0  0  0  0
  2  4  1  0
  2  5  1  0
  2  1  1  1
  3  2  1  0
  3  7  1  1
  4  9  1  0
  4  8  1  1
  6  3  1  0
  6 12  1  1
  8 13  1  0
  8 14  2  0
  9  7  1  0
  9 15  1  6
 10  5  1  0
 10 16  1  6
 11  6  1  0
 11 10  1  6
 11 17  1  0
 13 19  1  0
 17 21  1  0
 17 22  1  0
 17 20  1  1
 18 12  1  0
 18 21  1  0
 18 23  1  6
 21 24  2  0
 22 25  2  0
 24 26  1  0
 25 26  1  0
 26 27  2  0
M  END
>  <DRUGBANK_ID>  (1) 
DB08971

>  <COMMON_NAME>  (1) 
Fluocortolone

>  <CAS_NUMBER>  (1) 
152-97-6

>  <UNII>  (1) 
65VXC1MH0J

>  <SYNONYMS>  (1) 
Fluocortolona; Fluocortolone

$$$$
