
     RDKit          3D

 39 45  0  0  0  0  0  0  0  0999 V2000
    0.9966    0.1796    0.0723 C   0  0  0  0  0  0  0  0  0  0  0  0
    0.6532   -0.6678   -1.0767 N   0  0  0  0  0  0  0  0  0  0  0  0
   -0.4092   -1.6390   -0.7802 C   0  0  0  0  0  0  0  0  0  0  0  0
   -0.0138   -2.6514    0.3249 C   0  0  0  0  0  0  0  0  0  0  0  0
    1.3368   -3.3807    0.0233 C   0  0  0  0  0  0  0  0  0  0  0  0
    1.1101   -4.3856   -1.1428 C   0  0  0  0  0  0  0  0  0  0  0  0
    1.4310   -5.7345   -0.7628 O   0  0  0  0  0  0  0  0  0  0  0  0
    1.7423   -5.6738    0.5614 C   0  0  0  0  0  0  0  0  0  0  0  0
    2.0741   -6.8290    1.2746 C   0  0  0  0  0  0  0  0  0  0  0  0
    2.4504   -6.7034    2.5906 C   0  0  0  0  0  0  0  0  0  0  0  0
    2.6522   -5.4243    3.0887 C   0  0  0  0  0  0  0  0  0  0  0  0
    2.2196   -4.2616    2.3807 C   0  0  0  0  0  0  0  0  0  0  0  0
    1.7511   -4.3894    1.0825 C   0  0  0  0  0  0  0  0  0  0  0  0
    3.6868   -5.5072    4.1008 N   0  0  0  0  0  0  0  0  0  0  0  0
    4.2375   -6.9275    3.9498 C   0  0  0  0  0  0  0  0  0  0  0  0
    3.0330   -7.7369    3.4987 C   0  0  0  0  0  0  0  0  0  0  0  0
    4.5937   -4.4605    3.9467 C   0  0  0  0  0  0  0  0  0  0  0  0
    5.3162   -4.3086    2.9898 O   0  0  0  0  0  0  0  0  0  0  0  0
    4.5093   -3.4032    4.9665 C   0  0  0  0  0  0  0  0  0  0  0  0
    5.6081   -3.2227    5.7927 C   0  0  0  0  0  0  0  0  0  0  0  0
    5.5967   -2.1669    6.6974 C   0  0  0  0  0  0  0  0  0  0  0  0
    4.5628   -1.2187    6.6796 C   0  0  0  0  0  0  0  0  0  0  0  0
    3.5350   -1.3517    5.7460 C   0  0  0  0  0  0  0  0  0  0  0  0
    3.4464   -2.5020    4.9901 C   0  0  0  0  0  0  0  0  0  0  0  0
    4.5161   -0.1273    7.6493 C   0  0  0  0  0  0  0  0  0  0  0  0
    3.4270    0.0215    8.5414 C   0  0  0  0  0  0  0  0  0  0  0  0
    2.2590   -0.9354    8.5352 C   0  0  0  0  0  0  0  0  0  0  0  0
    3.4168    1.1065    9.4280 C   0  0  0  0  0  0  0  0  0  0  0  0
    4.3887    2.1098    9.3321 C   0  0  0  0  0  0  0  0  0  0  0  0
    5.4669    1.9520    8.4596 C   0  0  0  0  0  0  0  0  0  0  0  0
    5.5616    0.8075    7.6741 C   0  0  0  0  0  0  0  0  0  0  0  0
    4.2379    3.3315   10.0929 C   0  0  0  0  0  0  0  0  0  0  0  0
    4.0519    4.5314    9.5189 N   0  0  0  0  0  0  0  0  0  0  0  0
    3.8834    5.3879   10.6063 O   0  0  0  0  0  0  0  0  0  0  0  0
    3.9999    4.6157   11.7234 C   0  0  0  0  0  0  0  0  0  0  0  0
    3.8533    5.2967   13.0195 C   0  0  0  0  0  0  0  0  0  0  0  0
    4.2089    3.3459   11.4653 N   0  0  0  0  0  0  0  0  0  0  0  0
    2.4020   -2.3376   -0.4600 C   0  0  0  0  0  0  0  0  0  0  0  0
    1.8365   -1.3905   -1.5522 C   0  0  0  0  0  0  0  0  0  0  0  0
  1  2  1  0
  2  3  1  0
  2 39  1  0
  3  4  1  0
  4  5  1  0
  5  6  1  0
  5 13  1  0
  5 38  1  0
  6  7  1  0
  7  8  1  0
  8  9  1  0
  8 13  2  0
  9 10  2  0
 10 11  1  0
 10 16  1  0
 11 12  2  0
 11 14  1  0
 12 13  1  0
 14 15  1  0
 14 17  1  0
 15 16  1  0
 17 18  2  0
 17 19  1  0
 19 20  2  0
 19 24  1  0
 20 21  1  0
 21 22  2  0
 22 23  1  0
 22 25  1  0
 23 24  2  0
 25 26  2  0
 25 31  1  0
 26 27  1  0
 26 28  1  0
 28 29  2  0
 29 30  1  0
 29 32  1  0
 30 31  2  0
 32 33  2  0
 32 37  1  0
 33 34  1  0
 34 35  1  0
 35 36  1  0
 35 37  2  0
 38 39  1  0
M  END
>  <DRUGBANK_ID>  (1) 
DB17052

>  <COMMON_NAME>  (1) 
SB 224289

>  <CAS_NUMBER>  (1) 
180083-23-2

>  <UNII>  (1) 
F95C648W4N

>  <SYNONYMS>  (1) 
(1'-methyl-6,7-dihydro-5h-spiro(furo(2,3-f)indole-3,4'-piperidin)-5-yl)(2'-methyl-4'-(5-methyl-1,2,4-oxadiazol-3-yl)biphenyl-4-yl)methanone; (2'-methyl-4'-(5-methyl-1,2,4-oxadiazol-3-yl)-(1,1'-biphenyl)-4-yl)(1'-methyl-6,7-dihydrospiro(furo(2,3-f)indole-3,4'-piperidin)-5(2h)-yl)methanone; (4-(2-methyl-4-(5-methyl-1,2,4-oxadiazol-3-yl)phenyl)phenyl)-(1'-methylspiro(6,7-dihydro-2h-furo(2,3-f)indole-3,4'-piperidine)-5-yl)methanone; 6,7-dihydro-1'-methyl-5-((2'-methyl-4'-(5-methyl-1,2,4-oxadiazol-3-yl)-1,1'-biphenyl-4-yl)carbonyl)spiro(2h-furo(2,3-f)indole-3(5h),4'-piperidine); Methanone, (2'-methyl-4'-(5-methyl-1,2,4-oxadiazol-3-yl)(1,1'-biphenyl)-4-yl)(2,5,6,7-tetrahydro-1'-methylspiro(3h-furo(2,3-f)indole-3,4'-piperidin)-5-yl)-; Spiro(2h-furo(2,3-f)indole-3(5h),4'-piperidine), 6,7-dihydro-1'-methyl-5-((2'-methyl-4'-(5-methyl-1,2,4-oxadiazol-3-yl)(1,1'-biphenyl)-4-yl)carbonyl)-

$$$$
