
     RDKit          3D

 20 21  0  0  1  0  0  0  0  0999 V2000
   -1.8164   -7.2075    2.5374 C   0  0  0  0  0  0  0  0  0  0  0  0
   -0.8850   -7.1461    1.3714 C   0  0  0  0  0  0  0  0  0  0  0  0
    0.1547   -6.3048    1.2732 C   0  0  0  0  0  0  0  0  0  0  0  0
    0.8865   -6.1350    0.0988 N   0  0  0  0  0  0  0  0  0  0  0  0
    1.7308   -4.9075    0.0084 C   0  0  1  0  0  0  0  0  0  0  0  0
    2.8737   -4.8236    1.0228 C   0  0  0  0  0  0  0  0  0  0  0  0
    4.0349   -5.4365    0.2893 C   0  0  0  0  0  0  0  0  0  0  0  0
    3.7225   -5.2480   -1.2008 C   0  0  1  0  0  0  0  0  0  0  0  0
    3.8680   -6.3935   -2.2387 C   0  0  0  0  0  0  0  0  0  0  0  0
    3.1729   -7.5970   -1.8919 O   0  0  0  0  0  0  0  0  0  0  0  0
    3.5478   -8.1790   -0.3065 P   0  0  0  0  0  0  0  0  0  0  0  0
    3.3517   -9.6745   -0.9469 O   0  0  0  0  0  0  0  0  0  0  0  0
    5.1428   -8.1126   -0.7279 O   0  0  0  0  0  0  0  0  0  0  0  0
    3.8833   -8.6998    1.1125 O   0  0  0  0  0  0  0  0  0  0  0  0
    2.3660   -4.7888   -1.2597 O   0  0  0  0  0  0  0  0  0  0  0  0
    0.4853   -6.8529   -1.0407 C   0  0  0  0  0  0  0  0  0  0  0  0
    0.7283   -6.5810   -2.2096 O   0  0  0  0  0  0  0  0  0  0  0  0
   -0.2519   -7.9827   -0.7813 N   0  0  0  0  0  0  0  0  0  0  0  0
   -1.1621   -8.0377    0.2265 C   0  0  0  0  0  0  0  0  0  0  0  0
   -2.1538   -8.7617    0.1812 O   0  0  0  0  0  0  0  0  0  0  0  0
  1  2  1  0
  2  3  2  0
  2 19  1  0
  3  4  1  0
  4 16  1  0
  5  6  1  0
  5 15  1  0
  5  4  1  6
  6  7  1  0
  7  8  1  0
  8 15  1  0
  8  9  1  6
  9 10  1  0
 10 11  1  0
 11 12  1  0
 11 13  1  0
 11 14  2  0
 16 17  2  0
 16 18  1  0
 18 19  1  0
 19 20  2  0
M  END
>  <DRUGBANK_ID>  (1) 
DB03150

>  <SECONDARY_ACCESSION_NUMBERS>  (1) 
EXPT00113

>  <COMMON_NAME>  (1) 
2',3'-Dideoxythymidine-5'-Monophosphate

>  <UNII>  (1) 
R6VJB6HJ6Y

$$$$
