
     RDKit          3D

 19 22  0  0  1  0  0  0  0  0999 V2000
   -2.2170   -0.2537    0.3088 C   0  0  2  0  0  0  0  0  0  0  0  0
   -2.5551   -1.5264   -0.5457 C   0  0  0  0  0  0  0  0  0  0  0  0
   -4.0828   -1.4892   -0.7387 C   0  0  0  0  0  0  0  0  0  0  0  0
   -4.4928   -0.2982   -1.6259 C   0  0  0  0  0  0  0  0  0  0  0  0
   -4.3484    0.9367   -0.8019 N   0  0  2  0  0  0  0  0  0  0  0  0
   -5.2686    0.9626    0.2013 O   0  0  0  0  0  0  0  0  0  0  0  0
   -4.3125    2.2632   -1.6036 C   0  0  0  0  0  0  0  0  0  0  0  0
   -2.8368    2.5605   -2.1062 C   0  0  0  0  0  0  0  0  0  0  0  0
   -1.8159    2.6655   -0.6133 C   0  0  0  0  0  0  0  0  0  0  0  0
   -2.8980    2.2148    0.5459 C   0  0  2  0  0  0  0  0  0  0  0  0
   -3.4049    1.9778    2.2116 C   0  0  1  0  0  0  0  0  0  0  0  0
   -4.6145    1.3941    3.5167 C   0  0  0  0  0  0  0  0  0  0  0  0
   -4.3879   -0.0792    4.0813 C   0  0  0  0  0  0  0  0  0  0  0  0
   -2.8836   -0.1964    4.4404 C   0  0  0  0  0  0  0  0  0  0  0  0
   -2.1946    1.0385    3.8964 C   0  0  0  0  0  0  0  0  0  0  0  0
   -1.9767    2.0913    4.5687 O   0  0  0  0  0  0  0  0  0  0  0  0
   -2.3227    1.0750    2.5148 N   0  0  0  0  0  0  0  0  0  0  0  0
   -2.3800   -0.2352    1.7895 C   0  0  0  0  0  0  0  0  0  0  0  0
   -3.0060    0.9068   -0.2164 C   0  0  1  0  0  0  0  0  0  0  0  0
  1  2  1  6
  1 18  1  0
  2  3  1  0
  3  4  1  0
  5  4  1  0
  5  7  1  0
  5  6  1  1
  7  8  1  0
  8  9  1  0
 10  9  1  1
 10 11  1  0
 11 12  1  6
 11 17  1  0
 12 13  1  0
 13 14  1  0
 14 15  1  0
 15 17  1  0
 15 16  2  0
 17 18  1  0
 19 10  1  0
 19  1  1  1
 19  5  1  0
M  CHG  2   5   1   6  -1
M  END
>  <DRUGBANK_ID>  (1) 
DB16276

>  <COMMON_NAME>  (1) 
Oxymatrine

>  <CAS_NUMBER>  (1) 
16837-52-8

>  <UNII>  (1) 
85U4C366QS

$$$$
