EQI
     RDKit          3D

 20 23  0  0  0  0  0  0  0  0999 V2000
    4.2368   -3.7356   -2.0834 C   0  0  0  0  0  0  0  0  0  0  0  0
    5.1921   -3.2160   -1.0898 C   0  0  0  0  0  0  0  0  0  0  0  0
    4.8502   -2.2024   -0.1085 C   0  0  0  0  0  0  0  0  0  0  0  0
    3.4887   -2.2584    0.0751 C   0  0  0  0  0  0  0  0  0  0  0  0
    2.6946   -2.3942   -1.1183 C   0  0  0  0  0  0  0  0  0  0  0  0
    3.0549   -3.0989   -2.2271 C   0  0  0  0  0  0  0  0  0  0  0  0
    5.4323   -0.6450    0.3963 C   0  0  0  0  0  0  0  0  0  0  0  0
    4.6005    0.0350    1.5468 C   0  0  0  0  0  0  0  0  0  0  0  0
    3.2965   -0.2150    1.2881 C   0  0  0  0  0  0  0  0  0  0  0  0
    3.0665   -1.6956    1.4203 C   0  0  1  0  0  0  0  0  0  0  0  0
    2.5770    0.3194   -0.0500 C   0  0  1  0  0  0  0  0  0  0  0  0
    0.8669    0.0628   -0.1301 C   0  0  1  0  0  0  0  0  0  0  0  0
    0.9058   -0.6362    1.2090 C   0  0  0  0  0  0  0  0  0  0  0  0
    1.6235   -1.8276    1.8499 C   0  0  0  0  0  0  0  0  0  0  0  0
    2.9742    1.7562   -0.3385 C   0  0  0  0  0  0  0  0  0  0  0  0
    1.6978    2.4707   -0.6281 C   0  0  0  0  0  0  0  0  0  0  0  0
    0.5367    1.4635   -0.6231 C   0  0  0  0  0  0  0  0  0  0  0  0
   -0.5032   -0.9879   -0.1142 C   0  0  0  0  0  0  0  0  0  0  0  0
    4.2375   -4.8430   -2.8908 O   0  0  0  0  0  0  0  0  0  0  0  0
   -0.5364    1.7518   -1.1032 O   0  0  0  0  0  0  0  0  0  0  0  0
  1  2  2  0
  1  6  1  0
  1 19  1  0
  2  3  1  0
  3  4  2  0
  3  7  1  0
  4  5  1  0
  4 10  1  0
  5  6  2  0
  7  8  1  0
  8  9  2  0
  9 10  1  0
  9 11  1  0
 10 14  1  6
 11 12  1  0
 11 15  1  1
 12 13  1  0
 12 17  1  0
 12 18  1  6
 13 14  1  0
 15 16  1  0
 16 17  1  0
 17 20  2  0
M  END
>  <DRUGBANK_ID>  (1) 
DB02187

>  <SECONDARY_ACCESSION_NUMBERS>  (1) 
EXPT01355

>  <COMMON_NAME>  (1) 
Equilin

>  <CAS_NUMBER>  (1) 
474-86-2

>  <UNII>  (1) 
08O86EX0J4

>  <SYNONYMS>  (1) 
1,3,5,7-Estratetraen-3-ol-17-one; 7-Dehydroestrone; Dihydroequilenin; Equilin

$$$$
