RF1
     RDKit          3D

 23 25  0  0  0  0  0  0  0  0999 V2000
    1.2060    0.0255    0.0295 C   0  0  0  0  0  0  0  0  0  0  0  0
    0.5274    0.9910    1.0254 C   0  0  0  0  0  0  0  0  0  0  0  0
    1.1095    2.3860    0.7804 C   0  0  0  0  0  0  0  0  0  0  0  0
   -0.9503    0.7917    0.6079 C   0  0  0  0  0  0  0  0  0  0  0  0
    0.8174    0.5611    2.4165 O   0  0  0  0  0  0  0  0  0  0  0  0
    0.7066    1.3011    3.5877 C   0  0  0  0  0  0  0  0  0  0  0  0
    1.3430    0.9728    4.6017 O   0  0  0  0  0  0  0  0  0  0  0  0
   -0.2069    2.3393    3.6273 N   0  0  0  0  0  0  0  0  0  0  0  0
    0.0188    3.6895    4.1235 C   0  0  0  0  0  0  0  0  0  0  0  0
   -1.2285    4.1847    4.8712 C   0  0  0  0  0  0  0  0  0  0  0  0
   -1.4141    2.1830    2.9200 C   0  0  0  0  0  0  0  0  0  0  0  0
   -2.6749    2.5871    3.5784 C   0  0  0  0  0  0  0  0  0  0  0  0
   -2.5433    4.0122    4.0679 C   0  0  0  0  0  0  0  0  0  0  0  0
   -3.7333    4.3444    4.8839 C   0  0  0  0  0  0  0  0  0  0  0  0
   -4.0787    5.4865    5.4210 N   0  0  0  0  0  0  0  0  0  0  0  0
   -4.6037    3.3271    5.1636 O   0  0  0  0  0  0  0  0  0  0  0  0
   -5.5193    3.8296    6.0693 N   0  0  0  0  0  0  0  0  0  0  0  0
   -5.1544    5.1118    6.1865 C   0  0  0  0  0  0  0  0  0  0  0  0
   -5.8548    6.0574    7.0787 C   0  0  0  0  0  0  0  0  0  0  0  0
   -6.2148    7.3318    6.7058 C   0  0  0  0  0  0  0  0  0  0  0  0
   -6.9404    7.9868    7.7421 C   0  0  0  0  0  0  0  0  0  0  0  0
   -7.0165    7.2203    8.8851 C   0  0  0  0  0  0  0  0  0  0  0  0
   -6.3079    5.6794    8.6747 S   0  0  0  0  0  0  0  0  0  0  0  0
  2  1  1  0
  2  3  1  0
  4  2  1  0
  5  2  1  0
  6  5  1  0
  6  8  1  0
  7  6  2  0
  8  9  1  0
 10  9  1  0
 11  8  1  0
 12 11  1  0
 12 13  1  0
 13 10  1  0
 14 13  1  0
 14 16  1  0
 15 14  2  0
 15 18  1  0
 17 16  1  0
 18 17  2  0
 19 18  1  0
 19 23  1  0
 20 19  2  0
 21 20  1  0
 21 22  2  0
 22 23  1  0
M  END
>  <DRUGBANK_ID>  (1) 
DB08469

>  <COMMON_NAME>  (1) 
tert-butyl 4-(3-thiophen-2-yl-1,2,4-oxadiazol-5-yl)piperidine-1-carboxylate

$$$$
