
     RDKit          3D

 22 23  0  0  0  0  0  0  0  0999 V2000
    0.9594    0.0617   -0.0674 P   0  0  0  0  0  0  0  0  0  0  0  0
   -1.8077    0.2706   -2.0291 O   0  0  0  0  0  0  0  0  0  0  0  0
   -1.5854    3.3206   -2.1945 O   0  0  0  0  0  0  0  0  0  0  0  0
    0.8413   -0.7442   -1.4515 O   0  0  0  0  0  0  0  0  0  0  0  0
   -4.1638   -0.3067    1.6090 O   0  0  0  0  0  0  0  0  0  0  0  0
    1.1107   -0.5720    1.3558 O   0  0  0  0  0  0  0  0  0  0  0  0
   -0.7706    0.0617   -0.0674 O   0  0  0  0  0  0  0  0  0  0  0  0
    2.5077    0.0617   -0.0674 O   0  0  0  0  0  0  0  0  0  0  0  0
    1.3324   -3.1512    3.4431 O   0  0  0  0  0  0  0  0  0  0  0  0
   -2.3354   -0.9714    0.4891 N   0  0  0  0  0  0  0  0  0  0  0  0
   -2.7210   -1.6867    2.7693 N   0  0  0  0  0  0  0  0  0  0  0  0
   -1.2373   -2.8781    4.1175 N   0  0  0  0  0  0  0  0  0  0  0  0
   -0.6784    2.4195   -1.5615 C   0  0  2  0  0  0  0  0  0  0  0  0
   -0.6071    1.1291   -2.4133 C   0  0  1  0  0  0  0  0  0  0  0  0
   -1.3482    2.0663   -0.2105 C   0  0  0  0  0  0  0  0  0  0  0  0
   -2.4486    0.6097   -0.5678 C   0  0  1  0  0  0  0  0  0  0  0  0
    0.7607    0.2846   -2.4835 C   0  0  0  0  0  0  0  0  0  0  0  0
   -1.0299   -1.9406    0.7355 C   0  0  0  0  0  0  0  0  0  0  0  0
   -3.0916   -0.9733    1.6412 C   0  0  0  0  0  0  0  0  0  0  0  0
   -0.4980   -2.2770    1.9418 C   0  0  0  0  0  0  0  0  0  0  0  0
   -1.5378   -2.2223    2.9505 C   0  0  0  0  0  0  0  0  0  0  0  0
    0.9930   -2.7094    2.3412 C   0  0  0  0  0  0  0  0  0  0  0  0
  1  4  1  0
  1  6  1  0
  1  7  1  0
  1  8  2  0
  2 14  1  0
  2 16  1  0
  4 17  1  0
  5 19  2  0
  9 22  2  0
 10 18  1  0
 10 19  1  0
 11 19  1  0
 11 21  2  0
 12 21  1  0
 13  3  1  6
 13 14  1  0
 13 15  1  0
 14 17  1  1
 15 16  1  0
 16 10  1  1
 18 20  2  0
 20 21  1  0
 20 22  1  0
M  END
>  <DRUGBANK_ID>  (1) 
DB04603

>  <COMMON_NAME>  (1) 
5-Formyl-2'-deoxy-cytidine-5'-monophosphate

$$$$
