JCL
     RDKit          3D

 18 18  0  0  0  0  0  0  0  0999 V2000
   -0.8119    1.0811   -0.0882 N   0  0  0  0  0  0  0  0  0  0  0  0
   -0.7518   -1.2188    0.0205 N   0  0  0  0  0  0  0  0  0  0  0  0
    0.6006   -1.2181    0.0203 C   0  0  0  0  0  0  0  0  0  0  0  0
    1.2670   -2.7945   -0.0454 Cl  0  0  0  0  0  0  0  0  0  0  0  0
    1.3041   -0.0850    0.0505 C   0  0  0  0  0  0  0  0  0  0  0  0
    2.7855   -0.0264   -0.0881 C   0  0  0  0  0  0  0  0  0  0  0  0
   -1.5064   -0.0855   -0.0307 C   0  0  0  0  0  0  0  0  0  0  0  0
    0.4988    1.1556    0.2248 C   0  0  0  0  0  0  0  0  0  0  0  0
   -2.7272   -0.1074    0.0013 O   0  0  0  0  0  0  0  0  0  0  0  0
    0.9536    2.2270    0.6324 O   0  0  0  0  0  0  0  0  0  0  0  0
    3.1895    0.6662   -1.4104 C   0  0  0  0  0  0  0  0  0  0  0  0
    2.9365    2.1675   -1.3856 C   0  0  0  0  0  0  0  0  0  0  0  0
    3.5075    2.7892   -0.1108 C   0  0  0  0  0  0  0  0  0  0  0  0
    4.9049    2.6740   -0.1723 O   0  0  0  0  0  0  0  0  0  0  0  0
    5.8379    1.4246    0.1782 P   0  0  0  0  0  0  0  0  0  0  0  0
    6.9750    1.7947   -0.8727 O   0  0  0  0  0  0  0  0  0  0  0  0
    6.3452    1.8771    1.6103 O   0  0  0  0  0  0  0  0  0  0  0  0
    5.4325   -0.0012    0.0787 O   0  0  0  0  0  0  0  0  0  0  0  0
  1  7  1  0
  1  8  1  0
  2  3  1  0
  2  7  1  0
  3  4  1  0
  3  5  2  0
  5  6  1  0
  5  8  1  0
  6 11  1  0
  7  9  2  0
  8 10  2  0
 11 12  1  0
 12 13  1  0
 13 14  1  0
 14 15  1  0
 15 16  1  0
 15 17  1  0
 15 18  2  0
M  END
>  <DRUGBANK_ID>  (1) 
DB08016

>  <COMMON_NAME>  (1) 
4-(6-CHLORO-2,4-DIOXO-1,2,3,4-TETRAHYDROPYRIMIDIN-5-YL) BUTYL PHOSPHATE

$$$$
