
     RDKit          3D

 23 25  0  0  0  0  0  0  0  0999 V2000
    1.0112    0.0502   -0.0006 C   0  0  0  0  0  0  0  0  0  0  0  0
    0.2532    7.8608    2.0669 C   0  0  0  0  0  0  0  0  0  0  0  0
    1.9999    4.0508    3.3229 C   0  0  0  0  0  0  0  0  0  0  0  0
    0.4877    1.5451    0.2836 C   0  0  2  0  0  0  0  0  0  0  0  0
    1.8138    6.1723    3.3999 C   0  0  0  0  0  0  0  0  0  0  0  0
    0.8730    2.7027   -0.7170 C   0  0  2  0  0  0  0  0  0  0  0  0
    0.8961    3.9801    0.0809 C   0  0  1  0  0  0  0  0  0  0  0  0
    1.9305    7.5514    3.6376 C   0  0  0  0  0  0  0  0  0  0  0  0
    0.8680    5.7635    2.4910 C   0  0  0  0  0  0  0  0  0  0  0  0
    0.4588    3.5221    1.4497 C   0  0  2  0  0  0  0  0  0  0  0  0
    2.8318    8.0542    4.5382 N   0  0  0  0  0  0  0  0  0  0  0  0
    1.1246    8.3947    2.9498 N   0  0  0  0  0  0  0  0  0  0  0  0
    0.0372    6.5574    1.7694 N   0  0  0  0  0  0  0  0  0  0  0  0
    2.5079    5.0939    3.9255 N   0  0  0  0  0  0  0  0  0  0  0  0
    1.0116    4.3938    2.4485 N   0  0  0  0  0  0  0  0  0  0  0  0
   -0.0099    3.1614   -1.7180 O   0  0  0  0  0  0  0  0  0  0  0  0
    2.1986    4.5566   -0.0406 O   0  0  0  0  0  0  0  0  0  0  0  0
    0.6374   -0.7643   -3.5718 O   0  0  0  0  0  0  0  0  0  0  0  0
    0.5295   -0.5893   -1.2470 O   0  0  0  0  0  0  0  0  0  0  0  0
    0.9374    2.1265    1.5428 O   0  0  0  0  0  0  0  0  0  0  0  0
    1.1062    0.4274   -2.5224 P   0  0  1  0  0  0  0  0  0  0  0  0
   -1.2802    1.0396   -2.5208 S   0  0  0  0  0  0  0  0  0  0  0  0
    1.7387    1.5426   -3.9212 S   0  0  0  0  0  0  0  0  0  0  0  0
  4  1  1  6
  4 20  1  0
  6  4  1  0
  6  7  1  0
  6 16  1  6
  8  5  2  0
  9  5  1  0
 10  7  1  0
 10 15  1  1
 10 20  1  0
 11  8  1  0
 12  2  2  0
 12  8  1  0
 13  2  1  0
 13  9  2  0
 14  3  2  0
 14  5  1  0
 15  3  1  0
 15  9  1  0
  7 17  1  1
 19  1  1  0
 21 18  1  6
 21 19  1  0
 22 21  1  0
 23 21  2  0
M  END
>  <DRUGBANK_ID>  (1) 
DB03011

>  <SECONDARY_ACCESSION_NUMBERS>  (1) 
EXPT00438

>  <COMMON_NAME>  (1) 
Adenosine-5'-(Dithio)Phosphate

>  <UNII>  (1) 
9WPM6R7Z7Q

$$$$
