
     RDKit          3D

 37 40  0  0  1  0  0  0  0  0999 V2000
   -4.0384   -1.0900    1.8935 C   0  0  0  0  0  0  0  0  0  0  0  0
   -2.8332   -0.5595    2.6352 C   0  0  0  0  0  0  0  0  0  0  0  0
   -1.7650   -1.3787    2.0285 C   0  0  0  0  0  0  0  0  0  0  0  0
   -2.5891    0.8577    2.2567 N   0  0  0  0  0  0  0  0  0  0  0  0
   -2.7561   -0.8563    4.1446 C   0  0  0  0  0  0  0  0  0  0  0  0
   -3.6502   -1.4485    4.7503 O   0  0  0  0  0  0  0  0  0  0  0  0
   -1.5981   -0.5862    4.8210 N   0  0  0  0  0  0  0  0  0  0  0  0
   -0.3107   -0.0230    4.3631 C   0  0  2  0  0  0  0  0  0  0  0  0
    0.6530   -1.0487    3.8183 C   0  0  0  0  0  0  0  0  0  0  0  0
    1.9171   -0.5983    3.3848 O   0  0  0  0  0  0  0  0  0  0  0  0
    1.8217    0.3608    2.3159 C   0  0  0  0  0  0  0  0  0  0  0  0
    1.3372   -0.2138    0.9838 C   0  0  0  0  0  0  0  0  0  0  0  0
    1.4370    0.5435   -0.1734 C   0  0  0  0  0  0  0  0  0  0  0  0
    0.8247    0.1123   -1.3655 C   0  0  0  0  0  0  0  0  0  0  0  0
   -0.0155   -0.9959   -1.3984 C   0  0  0  0  0  0  0  0  0  0  0  0
   -0.0145   -1.8229   -0.3113 C   0  0  0  0  0  0  0  0  0  0  0  0
    0.7554   -1.4786    0.8015 C   0  0  0  0  0  0  0  0  0  0  0  0
    0.2531    0.6496    5.5595 C   0  0  0  0  0  0  0  0  0  0  0  0
    0.5333    1.8450    5.5872 O   0  0  0  0  0  0  0  0  0  0  0  0
    0.2442   -0.2095    6.6535 N   0  0  0  0  0  0  0  0  0  0  0  0
    0.9929   -1.7743    6.5117 C   0  0  0  0  0  0  0  0  0  0  0  0
    0.8441   -2.4831    7.7856 C   0  0  0  0  0  0  0  0  0  0  0  0
    1.3743   -1.2993    8.6782 C   0  0  0  0  0  0  0  0  0  0  0  0
    2.3804   -0.3264    7.6865 C   0  0  0  0  0  0  0  0  0  0  0  0
    3.4150    0.2638    8.3554 N   0  0  0  0  0  0  0  0  0  0  0  0
    3.6928   -0.7636    9.2342 C   0  0  0  0  0  0  0  0  0  0  0  0
    4.9483   -0.9813    9.6619 C   0  0  0  0  0  0  0  0  0  0  0  0
    5.0580   -1.8390   10.7135 C   0  0  0  0  0  0  0  0  0  0  0  0
    3.9176   -2.4609   11.2747 C   0  0  0  0  0  0  0  0  0  0  0  0
    2.6258   -2.3047   10.7458 C   0  0  0  0  0  0  0  0  0  0  0  0
    2.5210   -1.4949    9.6442 C   0  0  0  0  0  0  0  0  0  0  0  0
    4.3864    1.1074    7.2635 S   0  0  0  0  0  0  0  0  0  0  0  0
    4.9976    2.2609    8.4193 C   0  0  0  0  0  0  0  0  0  0  0  0
    5.3720    0.2361    6.7300 O   0  0  0  0  0  0  0  0  0  0  0  0
    3.5242    1.9003    6.3545 O   0  0  0  0  0  0  0  0  0  0  0  0
    0.0485   -0.4859    9.0729 C   0  0  0  0  0  0  0  0  0  0  0  0
    0.0416    0.6230    8.0755 C   0  0  0  0  0  0  0  0  0  0  0  0
  1  2  1  0
  2  3  1  0
  2  4  1  0
  2  5  1  0
  5  6  2  0
  5  7  1  0
  8 18  1  0
  8  9  1  1
  8  7  1  0
  9 10  1  0
 10 11  1  0
 11 12  1  0
 12 13  2  0
 12 17  1  0
 13 14  1  0
 14 15  2  0
 15 16  1  0
 16 17  2  0
 18 19  2  0
 18 20  1  0
 20 21  1  0
 20 37  1  0
 21 22  1  0
 22 23  1  0
 23 24  1  0
 23 31  1  0
 23 36  1  0
 24 25  1  0
 25 26  1  0
 25 32  1  0
 26 27  1  0
 26 31  2  0
 27 28  2  0
 28 29  1  0
 29 30  2  0
 30 31  1  0
 32 33  1  0
 32 34  2  0
 32 35  2  0
 36 37  1  0
M  END
>  <DRUGBANK_ID>  (1) 
DB18214

>  <COMMON_NAME>  (1) 
Ibutamoren

>  <CAS_NUMBER>  (1) 
159634-47-6

>  <UNII>  (1) 
GJ0EGN38UL

>  <SYNONYMS>  (1) 
2-amino-n-((r)-2-(benzyloxy)-1-((1-(methylsulfonyl)spiro(indoline-3,4'-piperidin)-1'-yl)carbonyl)ethyl)-2-methylpropionamide; 2-amino-n-(3-(benzyloxy)-1-(1-methanesulfonyl-1,2-dihydrospiro(indole-3,4'-piperidin)-1'-yl)-1-oxopropan-2-yl)-2-methylpropanamide

$$$$
