
     RDKit          3D

 14 16  0  0  0  0  0  0  0  0999 V2000
    3.4958   -1.0917   -0.4256 C   0  0  0  0  0  0  0  0  0  0  0  0
   -3.4894   -1.0978   -0.4380 C   0  0  0  0  0  0  0  0  0  0  0  0
    3.6112    0.2637   -0.7167 C   0  0  0  0  0  0  0  0  0  0  0  0
   -3.6172    0.2623   -0.6998 C   0  0  0  0  0  0  0  0  0  0  0  0
    2.3203   -1.5919    0.1463 C   0  0  0  0  0  0  0  0  0  0  0  0
   -2.3060   -1.6003    0.1158 C   0  0  0  0  0  0  0  0  0  0  0  0
    2.5526    1.1300   -0.4461 C   0  0  0  0  0  0  0  0  0  0  0  0
   -2.5593    1.1292   -0.4283 C   0  0  0  0  0  0  0  0  0  0  0  0
    1.2444   -0.7337    0.4145 C   0  0  0  0  0  0  0  0  0  0  0  0
   -1.2377   -0.7386    0.4025 C   0  0  0  0  0  0  0  0  0  0  0  0
    1.3641    0.6296    0.0974 C   0  0  0  0  0  0  0  0  0  0  0  0
   -1.3641    0.6270    0.0992 C   0  0  0  0  0  0  0  0  0  0  0  0
    0.0027   -1.2926    0.7831 N   0  0  0  0  0  0  0  0  0  0  0  0
   -0.0010    1.7601    0.3533 S   0  0  0  0  0  0  0  0  0  0  0  0
  3  1  2  0
  4  2  2  0
  5  1  1  0
  6  2  1  0
  7  3  1  0
  8  4  1  0
  9  5  2  0
 10  6  2  0
 11  7  2  0
 11  9  1  0
 12  8  2  0
 12 10  1  0
 13  9  1  0
 13 10  1  0
 14 11  1  0
 14 12  1  0
M  END
>  <DRUGBANK_ID>  (1) 
DB11447

>  <COMMON_NAME>  (1) 
Phenothiazine

>  <CAS_NUMBER>  (1) 
92-84-2

>  <UNII>  (1) 
GS9EX7QNU6

>  <SYNONYMS>  (1) 
10H-phenothiazine; dibenzo-1,4-thiazine; Fenotiazina; Phenothiazine; Phenothiazinum; Thiodiphenylamin

$$$$
