123
     RDKit          3D

 21 23  0  0  0  0  0  0  0  0999 V2000
    2.1822    0.7651   -0.0171 C   0  0  0  0  0  0  0  0  0  0  0  0
    2.1837   -0.6502    0.0000 C   0  0  0  0  0  0  0  0  0  0  0  0
    1.0101   -1.4222    0.0153 C   0  0  0  0  0  0  0  0  0  0  0  0
   -0.1876   -0.7215    0.0106 C   0  0  0  0  0  0  0  0  0  0  0  0
   -0.2519    0.6610   -0.0124 C   0  0  0  0  0  0  0  0  0  0  0  0
    0.9313    1.4144   -0.0122 C   0  0  0  0  0  0  0  0  0  0  0  0
    3.4497    1.5459   -0.0556 C   0  0  0  0  0  0  0  0  0  0  0  0
    3.4406    2.8667   -0.0766 N   0  0  0  0  0  0  0  0  0  0  0  0
    4.6163    0.9360   -0.0781 N   0  0  0  0  0  0  0  0  0  0  0  0
   -1.4984   -1.1221    0.0164 N   0  0  0  0  0  0  0  0  0  0  0  0
   -1.5461    1.0925   -0.0558 N   0  0  0  0  0  0  0  0  0  0  0  0
   -2.2872    0.0032    0.0118 C   0  0  0  0  0  0  0  0  0  0  0  0
   -3.7401   -0.0386   -0.0110 C   0  0  0  0  0  0  0  0  0  0  0  0
   -4.4359   -0.6680    1.0326 C   0  0  0  0  0  0  0  0  0  0  0  0
   -5.8315   -0.6896    1.0377 C   0  0  0  0  0  0  0  0  0  0  0  0
   -6.6156   -1.2519    2.0068 O   0  0  0  0  0  0  0  0  0  0  0  0
   -5.9474   -1.8371    3.1184 C   0  0  0  0  0  0  0  0  0  0  0  0
   -6.5297   -0.0925   -0.0158 C   0  0  0  0  0  0  0  0  0  0  0  0
   -5.8467    0.5318   -1.0611 C   0  0  0  0  0  0  0  0  0  0  0  0
   -4.4581    0.5624   -1.0521 C   0  0  0  0  0  0  0  0  0  0  0  0
   -3.8437    1.1811   -2.1078 O   0  0  0  0  0  0  0  0  0  0  0  0
  1  2  2  0
  1  6  1  0
  1  7  1  0
  2  3  1  0
  3  4  2  0
  4  5  1  0
  4 10  1  0
  5  6  2  0
  5 11  1  0
  7  8  1  0
  7  9  2  0
 10 12  1  0
 11 12  2  0
 12 13  1  0
 13 14  2  0
 13 20  1  0
 14 15  1  0
 15 16  1  0
 15 18  2  0
 16 17  1  0
 18 19  1  0
 19 20  2  0
 20 21  1  0
M  CHG  1   9   1
M  END
>  <DRUGBANK_ID>  (1) 
DB01905

>  <SECONDARY_ACCESSION_NUMBERS>  (1) 
EXPT00017

>  <COMMON_NAME>  (1) 
2-(2-Hydroxy-5-Methoxy-Phenyl)-1h-Benzoimidazole-5-Carboxamidine

$$$$
