
     RDKit          3D

  4  3  0  0  0  0  0  0  0  0999 V2000
    0.9559   -0.0713    0.0140 Br  0  0  0  0  0  0  0  0  0  0  0  0
    2.8976   -0.0817    0.1100 C   0  0  0  0  0  0  0  0  0  0  0  0
    3.5903    1.4324    1.1137 Br  0  0  0  0  0  0  0  0  0  0  0  0
    3.5903   -1.7754    0.7664 Br  0  0  0  0  0  0  0  0  0  0  0  0
  1  2  1  0
  2  3  1  0
  2  4  1  0
M  END
>  <DRUGBANK_ID>  (1) 
DB03054

>  <SECONDARY_ACCESSION_NUMBERS>  (1) 
EXPT02127

>  <COMMON_NAME>  (1) 
Bromoform

>  <CAS_NUMBER>  (1) 
75-25-2

>  <UNII>  (1) 
TUT9J99IMU

>  <SYNONYMS>  (1) 
Tribrommethan; Tribromomethane

$$$$
