839
     RDKit          3D

 30 34  0  0  0  0  0  0  0  0999 V2000
    1.5326   -0.2605    1.1462 O   0  0  0  0  0  0  0  0  0  0  0  0
    2.4999    0.0123    0.4498 C   0  0  0  0  0  0  0  0  0  0  0  0
    3.1120   -0.9469   -0.2714 O   0  0  0  0  0  0  0  0  0  0  0  0
    3.0675    1.3978    0.4041 C   0  0  0  0  0  0  0  0  0  0  0  0
    2.3951    2.4132   -0.5641 C   0  0  0  0  0  0  0  0  0  0  0  0
    0.9404    2.7100   -0.5018 N   0  0  0  0  0  0  0  0  0  0  0  0
    0.3748    4.0305   -0.4410 C   0  0  0  0  0  0  0  0  0  0  0  0
   -0.1381    1.7651   -0.5742 C   0  0  0  0  0  0  0  0  0  0  0  0
   -0.2548    0.3521   -0.7574 C   0  0  0  0  0  0  0  0  0  0  0  0
   -1.4800   -0.3222   -0.5341 C   0  0  0  0  0  0  0  0  0  0  0  0
   -2.6298    0.3958   -0.3468 C   0  0  0  0  0  0  0  0  0  0  0  0
   -3.8633   -0.1647   -0.2171 O   0  0  0  0  0  0  0  0  0  0  0  0
   -2.5645    1.7693   -0.3224 C   0  0  0  0  0  0  0  0  0  0  0  0
   -1.3461    2.4718   -0.3878 C   0  0  0  0  0  0  0  0  0  0  0  0
   -0.9771    3.8004   -0.3538 C   0  0  0  0  0  0  0  0  0  0  0  0
   -1.9448    4.8438   -0.3195 C   0  0  0  0  0  0  0  0  0  0  0  0
   -3.3853    4.9091   -0.3055 C   0  0  0  0  0  0  0  0  0  0  0  0
   -4.3008    4.1715   -0.0039 O   0  0  0  0  0  0  0  0  0  0  0  0
   -1.4391    6.1598   -0.3511 C   0  0  0  0  0  0  0  0  0  0  0  0
   -2.5928    7.0424   -0.3690 C   0  0  0  0  0  0  0  0  0  0  0  0
   -2.7738    8.2310   -0.1304 O   0  0  0  0  0  0  0  0  0  0  0  0
   -3.6303    6.2064   -0.6483 N   0  0  0  0  0  0  0  0  0  0  0  0
   -0.0753    6.4786   -0.3963 C   0  0  0  0  0  0  0  0  0  0  0  0
    0.8449    5.3736   -0.4506 C   0  0  0  0  0  0  0  0  0  0  0  0
    0.3499    7.8869   -0.4136 C   0  0  0  0  0  0  0  0  0  0  0  0
    1.1351    8.3894   -1.4631 C   0  0  0  0  0  0  0  0  0  0  0  0
    1.7232    9.6564   -1.3797 C   0  0  0  0  0  0  0  0  0  0  0  0
    1.4205   10.4986   -0.3137 C   0  0  0  0  0  0  0  0  0  0  0  0
    0.5166   10.0804    0.6562 C   0  0  0  0  0  0  0  0  0  0  0  0
    0.0369    8.7671    0.6386 C   0  0  0  0  0  0  0  0  0  0  0  0
  1  2  2  0
  2  3  1  0
  2  4  1  0
  4  5  1  0
  5  6  1  0
  6  8  1  0
  6  7  1  0
  7 15  2  0
  7 24  1  0
  8  9  2  0
  8 14  1  0
  9 10  1  0
 10 11  2  0
 11 12  1  0
 11 13  1  0
 13 14  2  0
 14 15  1  0
 15 16  1  0
 16 17  1  0
 16 19  2  0
 17 18  2  0
 17 22  1  0
 19 23  1  0
 19 20  1  0
 20 22  1  0
 20 21  2  0
 23 24  2  0
 23 25  1  0
 25 26  2  0
 25 30  1  0
 26 27  1  0
 27 28  2  0
 28 29  1  0
 29 30  2  0
M  END
>  <DRUGBANK_ID>  (1) 
DB07265

>  <COMMON_NAME>  (1) 
3-(9-HYDROXY-1,3-DIOXO-4-PHENYL-2,3-DIHYDROPYRROLO[3,4-C]CARBAZOL-6(1H)-YL)PROPANOIC ACID

$$$$
