
     RDKit          3D

  7  6  0  0  0  0  0  0  0  0999 V2000
    0.9364   -0.0009    0.0978 O   0  0  0  0  0  0  0  0  0  0  0  0
    0.3781   -0.2489    1.2882 C   0  0  0  0  0  0  0  0  0  0  0  0
    1.0383   -0.4076    2.2973 O   0  0  0  0  0  0  0  0  0  0  0  0
   -1.1597   -0.2751    1.2413 C   0  0  0  0  0  0  0  0  0  0  0  0
   -1.7516   -0.0151    0.1977 O   0  0  0  0  0  0  0  0  0  0  0  0
   -1.8754   -0.5276    2.5338 C   0  0  0  0  0  0  0  0  0  0  0  0
   -1.4977   -2.3215    3.1588 Br  0  0  0  0  0  0  0  0  0  0  0  0
  1  2  1  0
  2  3  2  0
  2  4  1  0
  4  5  2  0
  4  6  1  0
  6  7  1  0
M  END
>  <DRUGBANK_ID>  (1) 
DB17135

>  <COMMON_NAME>  (1) 
Bromopyruvate

>  <CAS_NUMBER>  (1) 
1113-59-3

>  <UNII>  (1) 
63JMV04GRK

>  <SYNONYMS>  (1) 
3-bromo-2-oxopropanoic acid; 3-bromopyruvate; 3-bromopyruvic acid; Bromopyruvic acid

$$$$
