
     RDKit          3D

 11 12  0  0  1  0  0  0  0  0999 V2000
   -3.3275    3.0769    0.8479 C   0  0  0  0  0  0  0  0  0  0  0  0
   -2.3077    2.1242    1.4781 C   0  0  0  0  0  0  0  0  0  0  0  0
   -2.7592    1.1252    2.2045 C   0  0  0  0  0  0  0  0  0  0  0  0
   -0.7981    2.3818    1.1496 C   0  0  2  0  0  0  0  0  0  0  0  0
    0.3989    2.0526    2.1464 C   0  0  0  0  0  0  0  0  0  0  0  0
   -0.0628    2.4876    3.5155 C   0  0  0  0  0  0  0  0  0  0  0  0
   -0.0845    4.0037    3.5938 C   0  0  2  0  0  0  0  0  0  0  0  0
    0.7610    4.4452    4.8026 C   0  0  0  0  0  0  0  0  0  0  0  0
    0.5391    4.8668    2.6036 O   0  0  0  0  0  0  0  0  0  0  0  0
   -0.7142    4.6035    2.1319 C   0  0  1  0  0  0  0  0  0  0  0  0
   -0.5787    3.8582    0.7988 C   0  0  0  0  0  0  0  0  0  0  0  0
  1  2  1  0
  2  3  2  0
  4  5  1  0
  4 11  1  0
  4  2  1  1
  5  6  1  0
  6  7  1  0
  7  9  1  0
  7 10  1  0
  7  8  1  1
 10  9  1  0
 10 11  1  6
M  END
>  <DRUGBANK_ID>  (1) 
DB02924

>  <SECONDARY_ACCESSION_NUMBERS>  (1) 
EXPT02019

>  <COMMON_NAME>  (1) 
(4R)-limonene 1α,2α-epoxide

>  <CAS_NUMBER>  (1) 
6909-30-4

>  <UNII>  (1) 
KBX06MQJ5Y

>  <SYNONYMS>  (1) 
(+)-trans-limonene oxide; (1S,4R,6R)-4-isopropenyl-1-methyl-7-oxabicyclo[4.1.0]heptane; (4R)-limonene 1alpha,2alpha-epoxide; 1α,2α-epoxy-4βH-p-menth-8-ene; D-limonene 1,2-epoxide

$$$$
