
     RDKit          3D

 19 21  0  0  0  0  0  0  0  0999 V2000
    0.4112    1.3146    0.3738 C   0  0  1  0  0  0  0  0  0  0  0  0
   -0.6397    0.6224   -0.4956 C   0  0  1  0  0  0  0  0  0  0  0  0
    1.6240    0.5087    0.2803 O   0  0  0  0  0  0  0  0  0  0  0  0
   -0.2022   -0.8286   -0.4806 C   0  0  1  0  0  0  0  0  0  0  0  0
    1.3184   -0.7419   -0.3853 C   0  0  1  0  0  0  0  0  0  0  0  0
   -0.7391   -1.5033    0.6707 O   0  0  0  0  0  0  0  0  0  0  0  0
    0.6653    2.6744   -0.1047 N   0  0  0  0  0  0  0  0  0  0  0  0
   -0.2341    3.7263   -0.0409 C   0  0  0  0  0  0  0  0  0  0  0  0
    1.7287    3.0306   -0.9020 C   0  0  0  0  0  0  0  0  0  0  0  0
    0.2099    4.6961   -0.9305 C   0  0  0  0  0  0  0  0  0  0  0  0
    1.4432    4.2546   -1.4687 C   0  0  0  0  0  0  0  0  0  0  0  0
   -1.3640    3.7890    0.6861 N   0  0  0  0  0  0  0  0  0  0  0  0
   -2.0541    4.9255    0.4291 C   0  0  0  0  0  0  0  0  0  0  0  0
   -0.5997    5.8262   -1.1210 C   0  0  0  0  0  0  0  0  0  0  0  0
   -1.7432    5.9272   -0.4219 N   0  0  0  0  0  0  0  0  0  0  0  0
   -0.2590    6.8196   -2.0048 N   0  0  0  0  0  0  0  0  0  0  0  0
    2.0482   -0.8329   -1.7364 C   0  0  0  0  0  0  0  0  0  0  0  0
    1.4514   -1.7721   -2.6233 O   0  0  0  0  0  0  0  0  0  0  0  0
   -1.9745    0.7783   -0.0277 O   0  0  0  0  0  0  0  0  0  0  0  0
  1  7  1  6
  2  1  1  0
  2 19  1  1
  3  1  1  0
  4  2  1  0
  4  6  1  1
  5  3  1  0
  5  4  1  0
  5 17  1  6
  8  7  1  0
  9  7  1  0
 10  8  2  0
 11  9  2  0
 11 10  1  0
 12  8  1  0
 13 12  2  0
 14 10  1  0
 14 16  1  0
 15 13  1  0
 15 14  2  0
 17 18  1  0
M  END
>  <DRUGBANK_ID>  (1) 
DB03172

>  <SECONDARY_ACCESSION_NUMBERS>  (1) 
EXPT03017

>  <COMMON_NAME>  (1) 
Tubercidin

>  <CAS_NUMBER>  (1) 
69-33-0

>  <UNII>  (1) 
M351LCX45Y

>  <SYNONYMS>  (1) 
7-deazaadenosine; Sparsomycin A; Tubercidine

$$$$
