414
     RDKit          3D

 22 23  0  0  0  0  0  0  0  0999 V2000
    0.9625   -0.2751    0.3896 S   0  0  0  0  0  0  0  0  0  0  0  0
    0.5143    4.1553    0.0017 O   0  0  0  0  0  0  0  0  0  0  0  0
    0.2185   -0.7158   -0.8546 O   0  0  0  0  0  0  0  0  0  0  0  0
    0.4313   -0.7286    1.6702 O   0  0  0  0  0  0  0  0  0  0  0  0
    8.0920   -0.9343    0.3868 O   0  0  0  0  0  0  0  0  0  0  0  0
    2.3215    3.0002    0.2889 N   0  0  0  0  0  0  0  0  0  0  0  0
    0.2799    1.7520    0.2170 N   0  0  0  0  0  0  0  0  0  0  0  0
    2.5711    1.6909    0.2066 C   0  0  0  0  0  0  0  0  0  0  0  0
    2.1957    0.3386   -1.1342 C   0  0  0  0  0  0  0  0  0  0  0  0
    3.5240    1.1399    1.8268 C   0  0  0  0  0  0  0  0  0  0  0  0
    2.3045   -1.6445   -0.5646 C   0  0  0  0  0  0  0  0  0  0  0  0
    4.2207   -0.4859    2.0875 C   0  0  0  0  0  0  0  0  0  0  0  0
    3.0904   -1.8263    1.3278 C   0  0  0  0  0  0  0  0  0  0  0  0
    1.0059    3.0457    0.1468 C   0  0  0  0  0  0  0  0  0  0  0  0
    3.4589   -0.2065    0.0608 C   0  0  0  0  0  0  0  0  0  0  0  0
    4.4124    1.0937   -0.4019 C   0  0  0  0  0  0  0  0  0  0  0  0
    4.3720   -1.2820   -0.4115 C   0  0  0  0  0  0  0  0  0  0  0  0
    6.2522    0.1279   -0.2856 C   0  0  0  0  0  0  0  0  0  0  0  0
    5.6686    1.3315   -0.2329 C   0  0  0  0  0  0  0  0  0  0  0  0
    5.6916   -1.1405   -0.4095 C   0  0  0  0  0  0  0  0  0  0  0  0
    7.5737    0.1359    0.1366 C   0  0  0  0  0  0  0  0  0  0  0  0
    8.1164    1.5065    0.1903 C   0  0  0  0  0  0  0  0  0  0  0  0
  1  3  2  0
  1  4  2  0
  1  7  1  0
  1 15  1  0
  2 14  2  0
  5 21  2  0
  6  8  1  0
  6 14  1  0
  7 14  1  0
  8  9  1  0
  8 10  1  0
  9 11  1  0
 10 12  1  0
 11 13  1  0
 12 13  1  0
 15 16  2  0
 15 17  1  0
 16 19  1  0
 17 20  2  0
 18 19  2  0
 18 20  1  0
 18 21  1  0
 21 22  1  0
M  END
>  <DRUGBANK_ID>  (1) 
DB00414

>  <SECONDARY_ACCESSION_NUMBERS>  (1) 
APRD00773

>  <COMMON_NAME>  (1) 
Acetohexamide

>  <CAS_NUMBER>  (1) 
968-81-0

>  <UNII>  (1) 
QGC8W08I6I

>  <SYNONYMS>  (1) 
1-((p-Acetylphenyl)sulfonyl)-3-cyclohexylurea; 1-[(4-acetylbenzene)sulfonyl]-3-cyclohexylurea 4-acetyl-N-(cyclohexylcarbamoyl)benzenesulfonamide; Acetohexamid; Acetohexamida; Ac√©tohexamide; Acetohexamide; Acetohexamidum; N-(p-Acetylphenylsulfonyl)-N'-cyclohexylurea

$$$$
