3G4
     RDKit          3D

 26 27  0  0  0  0  0  0  0  0999 V2000
    1.8741   -0.8606    0.1554 Cl  0  0  0  0  0  0  0  0  0  0  0  0
    0.1493   -0.6241    0.1984 C   0  0  0  0  0  0  0  0  0  0  0  0
   -0.6737   -1.6908    0.0027 C   0  0  0  0  0  0  0  0  0  0  0  0
   -2.0471   -1.4459   -0.0422 C   0  0  0  0  0  0  0  0  0  0  0  0
   -2.5812   -0.1248   -0.0595 C   0  0  0  0  0  0  0  0  0  0  0  0
   -0.4233    0.6416    0.4039 C   0  0  0  0  0  0  0  0  0  0  0  0
    0.4685    1.6607    0.8835 C   0  0  0  0  0  0  0  0  0  0  0  0
   -1.7332    0.9757    0.0858 C   0  0  0  0  0  0  0  0  0  0  0  0
   -2.3612    2.7109   -0.1352 S   0  0  0  0  0  0  0  0  0  0  0  0
   -3.1035    2.6905   -1.3658 O   0  0  0  0  0  0  0  0  0  0  0  0
   -3.0818    2.9798    1.1165 O   0  0  0  0  0  0  0  0  0  0  0  0
   -1.2604    4.0488   -0.3143 N   0  0  0  0  0  0  0  0  0  0  0  0
    0.1657    4.0268   -0.5063 C   0  0  0  0  0  0  0  0  0  0  0  0
    0.9060    4.5321    0.5304 N   0  0  0  0  0  0  0  0  0  0  0  0
    0.7481    3.2505   -1.4995 C   0  0  0  0  0  0  0  0  0  0  0  0
    2.0855    2.8071   -1.3305 C   0  0  0  0  0  0  0  0  0  0  0  0
    2.7847    3.1475   -0.1704 C   0  0  0  0  0  0  0  0  0  0  0  0
    2.2123    4.0965    0.6788 C   0  0  0  0  0  0  0  0  0  0  0  0
    3.1380    4.7536    1.6831 C   0  0  0  0  0  0  0  0  0  0  0  0
    3.2451    6.2330    1.3784 C   0  0  0  0  0  0  0  0  0  0  0  0
    3.0029    7.0473    2.2754 O   0  0  0  0  0  0  0  0  0  0  0  0
    3.6303    6.6294    0.0889 N   0  0  0  0  0  0  0  0  0  0  0  0
    4.0854    5.7554   -0.9985 C   0  0  0  0  0  0  0  0  0  0  0  0
    3.1251    5.7389   -2.1860 C   0  0  0  0  0  0  0  0  0  0  0  0
    3.5601    8.0460   -0.2327 C   0  0  0  0  0  0  0  0  0  0  0  0
    2.1432    8.5947   -0.1573 C   0  0  0  0  0  0  0  0  0  0  0  0
  1  2  1  0
  2  3  2  0
  2  6  1  0
  3  4  1  0
  4  5  2  0
  5  8  1  0
  6  7  1  0
  6  8  2  0
  8  9  1  0
  9 10  2  0
  9 11  2  0
  9 12  1  0
 12 13  1  0
 13 14  2  0
 13 15  1  0
 14 18  1  0
 15 16  2  0
 16 17  1  0
 17 18  2  0
 18 19  1  0
 19 20  1  0
 20 21  2  0
 20 22  1  0
 22 23  1  0
 22 25  1  0
 23 24  1  0
 25 26  1  0
M  END
>  <DRUGBANK_ID>  (1) 
DB07056

>  <COMMON_NAME>  (1) 
2-(6-{[(3-chloro-2-methylphenyl)sulfonyl]amino}pyridin-2-yl)-N,N-diethylacetamide

$$$$
