NBL
     RDKit          3D

 26 27  0  0  0  0  0  0  0  0999 V2000
   -0.3372   -2.2760    2.9189 C   0  0  0  0  0  0  0  0  0  0  0  0
   -1.1174   -1.1791    3.6272 C   0  0  0  0  0  0  0  0  0  0  0  0
   -0.6431   -1.0462    5.0730 C   0  0  0  0  0  0  0  0  0  0  0  0
   -0.9138    0.1467    2.9004 C   0  0  0  0  0  0  0  0  0  0  0  0
   -1.5024    0.1473    1.4802 C   0  0  2  0  0  0  0  0  0  0  0  0
   -0.8811    1.1717    0.6534 N   0  0  0  0  0  0  0  0  0  0  0  0
    0.2514    0.9609   -0.0734 C   0  0  0  0  0  0  0  0  0  0  0  0
    0.8402    1.8825   -0.6168 O   0  0  0  0  0  0  0  0  0  0  0  0
    0.5939   -0.3468   -0.1120 O   0  0  0  0  0  0  0  0  0  0  0  0
    1.7130   -0.6875   -0.9268 C   0  0  0  0  0  0  0  0  0  0  0  0
    1.5206   -0.3859   -2.3893 C   0  0  0  0  0  0  0  0  0  0  0  0
    2.6501   -0.1213   -3.1710 C   0  0  0  0  0  0  0  0  0  0  0  0
    2.5278    0.0440   -4.5466 C   0  0  0  0  0  0  0  0  0  0  0  0
    1.2779   -0.0690   -5.1518 C   0  0  0  0  0  0  0  0  0  0  0  0
    0.1497   -0.3481   -4.3834 C   0  0  0  0  0  0  0  0  0  0  0  0
    0.2602   -0.4515   -2.9999 C   0  0  0  0  0  0  0  0  0  0  0  0
   -3.0364    0.2144    1.4953 C   0  0  0  0  0  0  0  0  0  0  0  0
   -3.7168   -0.7305    1.0901 O   0  0  0  0  0  0  0  0  0  0  0  0
   -3.6639    1.3126    2.0216 N   0  0  0  0  0  0  0  0  0  0  0  0
   -3.0361    2.4743    2.6267 C   0  0  2  0  0  0  0  0  0  0  0  0
   -3.2239    2.5772    4.1391 C   0  0  0  0  0  0  0  0  0  0  0  0
   -3.1392    4.0695    4.4465 C   0  0  0  0  0  0  0  0  0  0  0  0
   -3.0070    4.7511    3.1335 N   0  0  0  0  0  0  0  0  0  0  0  0
   -3.4952    3.8223    2.0899 C   0  0  0  0  0  0  0  0  0  0  0  0
   -2.4830    5.9615    2.9358 C   0  0  0  0  0  0  0  0  0  0  0  0
   -2.0209    7.0159    2.7731 N   0  0  0  0  0  0  0  0  0  0  0  0
  1  2  1  0
  2  3  1  0
  2  4  1  0
  5 17  1  0
  5  6  1  0
  5  4  1  1
  6  7  1  0
  7  8  2  0
  7  9  1  0
  9 10  1  0
 10 11  1  0
 11 12  2  0
 11 16  1  0
 12 13  1  0
 13 14  2  0
 14 15  1  0
 15 16  2  0
 17 18  2  0
 17 19  1  0
 20 19  1  6
 20 21  1  0
 20 24  1  0
 21 22  1  0
 22 23  1  0
 23 24  1  0
 23 25  1  0
 25 26  3  0
M  END
>  <DRUGBANK_ID>  (1) 
DB03456

>  <SECONDARY_ACCESSION_NUMBERS>  (1) 
EXPT02301

>  <COMMON_NAME>  (1) 
N2-[(benzyloxy)carbonyl]-n1-[(3S)-1-cyanopyrrolidin-3-yl]-l-leucinamide

$$$$
