
     RDKit          3D

 31 33  0  0  0  0  0  0  0  0999 V2000
    1.9903   -1.3461    0.1356 C   0  0  0  0  0  0  0  0  0  0  0  0
    2.3206   -0.0674    0.1616 N   0  0  0  0  0  0  0  0  0  0  0  0
   -0.3149   -0.8895    0.0200 C   0  0  0  0  0  0  0  0  0  0  0  0
   -0.0265    0.4737    0.0153 C   0  0  0  0  0  0  0  0  0  0  0  0
    0.7192   -1.7674    0.0311 N   0  0  0  0  0  0  0  0  0  0  0  0
    1.3285    0.8182    0.0700 C   0  0  0  0  0  0  0  0  0  0  0  0
   -1.6913   -1.2620    0.0067 C   0  0  0  0  0  0  0  0  0  0  0  0
   -2.7386   -0.2719    0.0015 C   0  0  0  0  0  0  0  0  0  0  0  0
    3.0154   -2.2126   -0.0778 N   0  0  0  0  0  0  0  0  0  0  0  0
    6.3016   -4.6218   -1.2026 C   0  0  0  0  0  0  0  0  0  0  0  0
    5.3532   -3.5786   -1.0669 N   0  0  0  0  0  0  0  0  0  0  0  0
   -1.0569    1.4410   -0.0148 C   0  0  0  0  0  0  0  0  0  0  0  0
   -2.4012    1.0959   -0.0104 C   0  0  0  0  0  0  0  0  0  0  0  0
    6.1904   -5.5714   -2.1926 O   0  0  0  0  0  0  0  0  0  0  0  0
    4.0579   -2.6086    0.8744 C   0  0  0  0  0  0  0  0  0  0  0  0
    2.8379   -3.0970   -1.1903 C   0  0  0  0  0  0  0  0  0  0  0  0
    5.4326   -2.7239    0.1342 C   0  0  0  0  0  0  0  0  0  0  0  0
    4.2270   -3.1131   -1.9308 C   0  0  0  0  0  0  0  0  0  0  0  0
    7.1714   -4.8050   -0.3684 O   0  0  0  0  0  0  0  0  0  0  0  0
    1.7805    2.1119   -0.0853 N   0  0  0  0  0  0  0  0  0  0  0  0
    3.7863   -6.0610   -2.5780 C   0  0  0  0  0  0  0  0  0  0  0  0
   -2.1319   -2.5850    0.0137 O   0  0  0  0  0  0  0  0  0  0  0  0
   -4.0355   -0.7605    0.0132 O   0  0  0  0  0  0  0  0  0  0  0  0
    5.1648   -5.6991   -3.1882 C   0  0  0  0  0  0  0  0  0  0  0  0
   -3.3876    2.0440   -0.0092 O   0  0  0  0  0  0  0  0  0  0  0  0
    3.5351   -5.4422   -1.3365 O   0  0  0  0  0  0  0  0  0  0  0  0
    2.6597   -5.6559   -3.5405 C   0  0  0  0  0  0  0  0  0  0  0  0
    3.6577   -7.4589   -2.0341 C   0  0  0  0  0  0  0  0  0  0  0  0
   -1.1583   -3.6334    0.0230 C   0  0  0  0  0  0  0  0  0  0  0  0
   -5.1161    0.1742    0.0165 C   0  0  0  0  0  0  0  0  0  0  0  0
   -3.0720    3.4299   -0.0155 C   0  0  0  0  0  0  0  0  0  0  0  0
  2  1  2  0
  3  5  2  0
  4  3  1  0
  5  1  1  0
  6  2  1  0
  6  4  2  0
  7  3  1  0
  8  7  2  0
  9  1  1  0
 10 11  1  0
 11 18  1  0
 12  4  1  0
 13  8  1  0
 13 12  2  0
 14 10  1  0
 15  9  1  0
 16  9  1  0
 17 15  1  0
 17 11  1  0
 18 16  1  0
 19 10  2  0
 20  6  1  0
 21 24  1  0
 22  7  1  0
 23  8  1  0
 24 14  1  0
 25 13  1  0
 26 21  1  0
 27 21  1  0
 28 21  1  0
 29 22  1  0
 30 23  1  0
 31 25  1  0
M  END
>  <DRUGBANK_ID>  (1) 
DB09206

>  <COMMON_NAME>  (1) 
Trimazosin

>  <CAS_NUMBER>  (1) 
35795-16-5

>  <UNII>  (1) 
31L760807H

>  <SYNONYMS>  (1) 
Trimazosin

$$$$
