TL6
     RDKit          3D

 13 13  0  0  0  0  0  0  0  0999 V2000
    0.9497    0.1446   -0.0358 O   0  0  0  0  0  0  0  0  0  0  0  0
    2.1657    0.0453   -0.0111 C   0  0  0  0  0  0  0  0  0  0  0  0
    3.0177   -1.4787   -0.0371 S   0  0  0  0  0  0  0  0  0  0  0  0
    4.5259   -0.7156    0.6854 C   0  0  1  0  0  0  0  0  0  0  0  0
    5.7689   -1.2726   -0.0146 C   0  0  0  0  0  0  0  0  0  0  0  0
    4.3362    0.7639    0.4018 C   0  0  0  0  0  0  0  0  0  0  0  0
    5.4286    1.5913    0.5673 O   0  0  0  0  0  0  0  0  0  0  0  0
    3.1097    1.1796    0.0502 C   0  0  0  0  0  0  0  0  0  0  0  0
    2.6634    2.5686   -0.2069 C   0  0  0  0  0  0  0  0  0  0  0  0
    4.5147   -1.0420    2.1692 C   0  0  0  0  0  0  0  0  0  0  0  0
    3.9206   -0.3023    3.1213 C   0  0  0  0  0  0  0  0  0  0  0  0
    3.9391   -0.6281    4.5213 C   0  0  0  0  0  0  0  0  0  0  0  0
    3.3227    0.1384    5.4280 C   0  0  0  0  0  0  0  0  0  0  0  0
  1  2  2  0
  2  3  1  0
  2  8  1  0
  3  4  1  0
  4  6  1  0
  4 10  1  0
  4  5  1  6
  6  7  1  0
  6  8  2  0
  8  9  1  0
 10 11  2  0
 11 12  1  0
 12 13  2  0
M  END
>  <DRUGBANK_ID>  (1) 
DB08628

>  <COMMON_NAME>  (1) 
(5R)-5-[(1E)-BUTA-1,3-DIENYL]-4-HYDROXY-3,5-DIMETHYLTHIOPHEN-2(5H)-ONE

$$$$
