
     RDKit          3D

 26 26  0  0  1  0  0  0  0  0999 V2000
   -0.1212    0.0224    2.2392 C   0  0  0  0  0  0  0  0  0  0  0  0
    1.2649    0.2689    1.9759 C   0  0  0  0  0  0  0  0  0  0  0  0
    1.4862   -1.2489    2.0815 C   0  0  2  0  0  0  0  0  0  0  0  0
    0.8741   -1.6639    0.6801 C   0  0  0  0  0  0  0  0  0  0  0  0
    0.0677   -2.4970    0.4543 O   0  0  0  0  0  0  0  0  0  0  0  0
    1.2262   -0.6033   -0.1957 O   0  0  0  0  0  0  0  0  0  0  0  0
    0.8638   -0.8185   -1.4911 C   0  0  0  0  0  0  0  0  0  0  0  0
   -0.4792   -0.7028   -1.8847 C   0  0  0  0  0  0  0  0  0  0  0  0
   -0.7769   -1.0520   -3.1844 C   0  0  0  0  0  0  0  0  0  0  0  0
    0.2478   -1.4472   -4.0568 C   0  0  0  0  0  0  0  0  0  0  0  0
    1.5897   -1.4910   -3.6262 C   0  0  0  0  0  0  0  0  0  0  0  0
    1.9226   -1.1653   -2.3239 C   0  0  0  0  0  0  0  0  0  0  0  0
    3.2538   -1.2387   -1.9813 O   0  0  0  0  0  0  0  0  0  0  0  0
    3.6624   -0.9145   -0.6467 C   0  0  0  0  0  0  0  0  0  0  0  0
   -0.1084   -1.8141   -5.4617 C   0  0  0  0  0  0  0  0  0  0  0  0
   -1.3961   -0.2732   -0.9604 O   0  0  0  0  0  0  0  0  0  0  0  0
   -2.7662   -0.2683   -1.3606 C   0  0  0  0  0  0  0  0  0  0  0  0
    0.6470   -2.0439    3.3730 N   0  0  0  0  0  0  0  0  0  0  0  0
    1.1001   -1.4169    4.8091 C   0  0  0  0  0  0  0  0  0  0  0  0
    0.8554    0.0091    5.6501 C   0  0  0  0  0  0  0  0  0  0  0  0
   -0.3946    0.2768    6.3570 O   0  0  0  0  0  0  0  0  0  0  0  0
   -1.4080    0.4539    5.4376 C   0  0  0  0  0  0  0  0  0  0  0  0
   -1.1034   -1.9739    3.1737 C   0  0  0  0  0  0  0  0  0  0  0  0
   -2.3340   -0.5168    3.0579 C   0  0  0  0  0  0  0  0  0  0  0  0
   -2.0226    1.2143    2.7704 O   0  0  0  0  0  0  0  0  0  0  0  0
   -0.5991    2.1417    3.0677 C   0  0  0  0  0  0  0  0  0  0  0  0
  1  2  1  0
  3 18  1  0
  3  4  1  0
  3  2  1  1
  4  5  2  0
  4  6  1  0
  6  7  1  0
  7  8  2  0
  7 12  1  0
  8  9  1  0
  8 16  1  0
  9 10  2  0
 10 11  1  0
 10 15  1  0
 11 12  2  0
 12 13  1  0
 13 14  1  0
 16 17  1  0
 18 19  1  0
 18 23  1  0
 19 20  1  0
 20 21  1  0
 21 22  1  0
 23 24  1  0
 24 25  1  0
 25 26  1  0
M  END
>  <DRUGBANK_ID>  (1) 
DB12312

>  <COMMON_NAME>  (1) 
ORG-25435

>  <CAS_NUMBER>  (1) 
256456-73-2

>  <UNII>  (1) 
VCW1NHW3OV

$$$$
