
     RDKit          3D

 16 15  0  0  1  0  0  0  0  0999 V2000
   -3.3213    5.4541    0.5949 O   0  0  0  0  0  0  0  0  0  0  0  0
   -3.4883    5.9378   -0.7240 C   0  0  0  0  0  0  0  0  0  0  0  0
   -2.8226    5.1014   -1.8139 C   0  0  0  0  0  0  0  0  0  0  0  0
   -3.4707    4.5309   -2.6754 O   0  0  0  0  0  0  0  0  0  0  0  0
   -1.3159    5.0212   -1.7786 C   0  0  1  0  0  0  0  0  0  0  0  0
   -0.7880    6.3451   -1.9282 O   0  0  0  0  0  0  0  0  0  0  0  0
   -0.8384    4.4621   -0.4444 C   0  0  1  0  0  0  0  0  0  0  0  0
   -1.3456    3.1488   -0.1197 O   0  0  0  0  0  0  0  0  0  0  0  0
    0.6865    4.4703   -0.5478 C   0  0  2  0  0  0  0  0  0  0  0  0
    0.9996    3.4280   -1.4918 O   0  0  0  0  0  0  0  0  0  0  0  0
    1.2525    4.6332    0.9089 C   0  0  0  0  0  0  0  0  0  0  0  0
    2.6567    4.4094    1.0337 O   0  0  0  0  0  0  0  0  0  0  0  0
    3.0747    2.7593    0.7247 P   0  0  0  0  0  0  0  0  0  0  0  0
    1.5449    2.3447    0.4133 O   0  0  0  0  0  0  0  0  0  0  0  0
    3.6038    3.3567   -0.6888 O   0  0  0  0  0  0  0  0  0  0  0  0
    3.4487    1.2825    0.4482 O   0  0  0  0  0  0  0  0  0  0  0  0
  1  2  1  0
  2  3  1  0
  3  4  2  0
  3  5  1  0
  5  6  1  1
  5  7  1  0
  7  8  1  6
  9 11  1  0
  9 10  1  1
  9  7  1  0
 11 12  1  0
 12 13  1  0
 13 14  1  0
 13 15  1  0
 13 16  2  0
M  END
>  <DRUGBANK_ID>  (1) 
DB04277

>  <SECONDARY_ACCESSION_NUMBERS>  (1) 
EXPT01384

>  <COMMON_NAME>  (1) 
Fructose -6-Phosphate

$$$$
