
     RDKit          3D

  8  8  0  0  0  0  0  0  0  0999 V2000
    1.1152   -0.1345   -0.0960 O   0  0  0  0  0  0  0  0  0  0  0  0
    2.3661   -0.0583   -0.0065 C   0  0  0  0  0  0  0  0  0  0  0  0
    3.1294    0.8737    0.3541 O   0  0  0  0  0  0  0  0  0  0  0  0
    3.0839   -1.3106   -0.2999 C   0  0  0  0  0  0  0  0  0  0  0  0
    4.1042   -1.7136    0.3551 N   0  0  0  0  0  0  0  0  0  0  0  0
    4.6681   -2.9780   -0.1008 C   0  0  0  0  0  0  0  0  0  0  0  0
    3.7721   -3.3544   -1.2717 C   0  0  0  0  0  0  0  0  0  0  0  0
    2.7409   -2.2432   -1.3991 C   0  0  0  0  0  0  0  0  0  0  0  0
  1  2  1  0
  2  3  2  0
  2  4  1  0
  4  5  2  0
  4  8  1  0
  5  6  1  0
  6  7  1  0
  7  8  1  0
M  CHG  2   1  -1   5   1
M  END
>  <DRUGBANK_ID>  (1) 
DB02838

>  <SECONDARY_ACCESSION_NUMBERS>  (1) 
EXPT00141

>  <COMMON_NAME>  (1) 
3,4-Dihydro-2h-Pyrrolium-5-Carboxylate

>  <UNII>  (1) 
497H5RPL8F

$$$$
