
     RDKit          3D

  8  8  0  0  0  0  0  0  0  0999 V2000
    0.9780    0.1414   -0.1092 N   0  0  0  0  0  0  0  0  0  0  0  0
    0.4818   -0.8470   -1.0994 C   0  0  0  0  0  0  0  0  0  0  0  0
    1.0357   -2.2428   -0.7877 C   0  0  0  0  0  0  0  0  0  0  0  0
    0.4008   -3.2886   -1.7225 C   0  0  0  0  0  0  0  0  0  0  0  0
    0.9310   -4.6929   -1.4335 C   0  0  0  0  0  0  0  0  0  0  0  0
    0.7251   -5.0798    0.0278 C   0  0  0  0  0  0  0  0  0  0  0  0
    1.3468   -4.0531    0.9638 C   0  0  0  0  0  0  0  0  0  0  0  0
    0.8246   -2.6498    0.6807 C   0  0  0  0  0  0  0  0  0  0  0  0
  1  2  1  0
  2  3  1  0
  3  4  1  0
  3  8  1  0
  4  5  1  0
  5  6  1  0
  6  7  1  0
  7  8  1  0
M  CHG  1   1   1
M  END
>  <DRUGBANK_ID>  (1) 
DB02435

>  <SECONDARY_ACCESSION_NUMBERS>  (1) 
EXPT00505

>  <COMMON_NAME>  (1) 
Aminomethylcyclohexane

>  <CAS_NUMBER>  (1) 
3218-02-8

$$$$
