
     RDKit          3D

 31 34  0  0  0  0  0  0  0  0999 V2000
    1.0035   -0.0087   -0.1030 C   0  0  0  0  0  0  0  0  0  0  0  0
    0.1867   -1.2595   -0.4339 C   0  0  0  0  0  0  0  0  0  0  0  0
   -0.6543   -1.7076    0.7294 C   0  0  0  0  0  0  0  0  0  0  0  0
    0.3784    1.0234    0.0618 O   0  0  0  0  0  0  0  0  0  0  0  0
    2.3986   -0.1223    0.0091 N   0  0  0  0  0  0  0  0  0  0  0  0
    3.0466   -1.4468   -0.2632 C   0  0  0  0  0  0  0  0  0  0  0  0
    2.8327   -2.0755   -1.5182 C   0  0  0  0  0  0  0  0  0  0  0  0
    3.6575   -3.0926   -2.0121 C   0  0  0  0  0  0  0  0  0  0  0  0
    4.7938   -3.4482   -1.3068 C   0  0  0  0  0  0  0  0  0  0  0  0
    5.0411   -2.8450   -0.0780 C   0  0  0  0  0  0  0  0  0  0  0  0
    4.1033   -1.9624    0.4987 C   0  0  0  0  0  0  0  0  0  0  0  0
    4.6065    1.7340   -2.3834 N   0  0  0  0  0  0  0  0  0  0  0  0
    3.4413    2.4408   -1.8683 C   0  0  0  0  0  0  0  0  0  0  0  0
    3.2834    2.5461   -0.3978 C   0  0  0  0  0  0  0  0  0  0  0  0
    3.3366    1.1519    0.3471 C   0  0  0  0  0  0  0  0  0  0  0  0
    4.7748    0.7578   -0.1194 C   0  0  0  0  0  0  0  0  0  0  0  0
    4.7131    0.4836   -1.6524 C   0  0  0  0  0  0  0  0  0  0  0  0
    2.9936    1.6484    1.7660 C   0  0  0  0  0  0  0  0  0  0  0  0
    1.8128    2.4303    1.9788 C   0  0  0  0  0  0  0  0  0  0  0  0
    1.3987    2.8757    3.2219 C   0  0  0  0  0  0  0  0  0  0  0  0
    2.1616    2.5305    4.3149 C   0  0  0  0  0  0  0  0  0  0  0  0
    3.3456    1.8016    4.1378 C   0  0  0  0  0  0  0  0  0  0  0  0
    3.7937    1.4112    2.8681 C   0  0  0  0  0  0  0  0  0  0  0  0
    4.4474    1.4863   -3.8437 C   0  0  0  0  0  0  0  0  0  0  0  0
    3.1344    0.8139   -4.3949 C   0  0  0  0  0  0  0  0  0  0  0  0
    1.8332    1.5690   -4.1255 C   0  0  0  0  0  0  0  0  0  0  0  0
    0.7532    0.9078   -3.5130 C   0  0  0  0  0  0  0  0  0  0  0  0
   -0.2634    1.6416   -2.8881 C   0  0  0  0  0  0  0  0  0  0  0  0
   -0.2001    3.0323   -2.8359 C   0  0  0  0  0  0  0  0  0  0  0  0
    0.8523    3.6963   -3.4550 C   0  0  0  0  0  0  0  0  0  0  0  0
    1.8114    2.9767   -4.1777 C   0  0  0  0  0  0  0  0  0  0  0  0
  1  2  1  0
  1  4  2  0
  1  5  1  0
  2  3  1  0
  5  6  1  0
  5 15  1  0
  6  7  2  0
  6 11  1  0
  7  8  1  0
  8  9  2  0
  9 10  1  0
 10 11  2  0
 12 13  1  0
 12 17  1  0
 12 24  1  0
 13 14  1  0
 14 15  1  0
 15 16  1  0
 15 18  1  0
 16 17  1  0
 18 19  2  0
 18 23  1  0
 19 20  1  0
 20 21  2  0
 21 22  1  0
 22 23  2  0
 24 25  1  0
 25 26  1  0
 26 27  2  0
 26 31  1  0
 27 28  1  0
 28 29  2  0
 29 30  1  0
 30 31  2  0
M  END
>  <DRUGBANK_ID>  (1) 
DB09168

>  <COMMON_NAME>  (1) 
4-Phenylfentanyl

>  <CAS_NUMBER>  (1) 
120448-97-7

>  <UNII>  (1) 
L9P31JAO37

>  <SYNONYMS>  (1) 
N-(1-Phenethyl-4-phenyl-4-piperidyl)-N-phenyl-propanamide

$$$$
