
     RDKit          3D

 23 26  0  0  0  0  0  0  0  0999 V2000
    0.8143    0.0354    0.0004 O   0  0  0  0  0  0  0  0  0  0  0  0
    2.0373    0.0725    0.0203 C   0  0  0  0  0  0  0  0  0  0  0  0
    2.9021    1.1584    0.0244 N   0  0  0  0  0  0  0  0  0  0  0  0
    4.2039    0.7101   -0.2213 N   0  0  0  0  0  0  0  0  0  0  0  0
    4.1604   -0.6518    0.0040 C   0  0  0  0  0  0  0  0  0  0  0  0
    2.9050   -1.1286    0.0184 C   0  0  0  0  0  0  0  0  0  0  0  0
    2.4440   -2.4229    0.0547 N   0  0  0  0  0  0  0  0  0  0  0  0
    1.5800   -2.9792   -0.8800 C   0  0  0  0  0  0  0  0  0  0  0  0
    1.4106   -4.2816   -0.4943 C   0  0  0  0  0  0  0  0  0  0  0  0
    2.1369   -4.5122    0.6301 N   0  0  0  0  0  0  0  0  0  0  0  0
    2.8251   -3.4125    0.9084 N   0  0  0  0  0  0  0  0  0  0  0  0
    2.4983    2.4971    0.0038 C   0  0  0  0  0  0  0  0  0  0  0  0
    1.6989    2.9131    0.9998 N   0  0  0  0  0  0  0  0  0  0  0  0
    1.3334    4.1947    0.9514 C   0  0  0  0  0  0  0  0  0  0  0  0
    1.6882    5.0790    0.0084 N   0  0  0  0  0  0  0  0  0  0  0  0
    2.4388    4.6276   -1.0106 C   0  0  0  0  0  0  0  0  0  0  0  0
    2.8922    3.3221   -1.0313 C   0  0  0  0  0  0  0  0  0  0  0  0
    2.7370    5.5112   -2.0152 N   0  0  0  0  0  0  0  0  0  0  0  0
    2.4600    5.2729   -3.4302 C   0  0  0  0  0  0  0  0  0  0  0  0
    3.7758    5.2505   -4.2226 C   0  0  0  0  0  0  0  0  0  0  0  0
    4.5529    6.4396   -3.9913 O   0  0  0  0  0  0  0  0  0  0  0  0
    4.8550    6.5789   -2.5895 C   0  0  0  0  0  0  0  0  0  0  0  0
    3.5727    6.6785   -1.7389 C   0  0  0  0  0  0  0  0  0  0  0  0
  1  2  2  0
  2  3  1  0
  2  6  1  0
  3  4  1  0
  3 12  1  0
  4  5  1  0
  5  6  2  0
  6  7  1  0
  7  8  1  0
  7 11  1  0
  8  9  2  0
  9 10  1  0
 10 11  2  0
 12 13  2  0
 12 17  1  0
 13 14  1  0
 14 15  2  0
 15 16  1  0
 16 17  2  0
 16 18  1  0
 18 19  1  0
 18 23  1  0
 19 20  1  0
 20 21  1  0
 21 22  1  0
 22 23  1  0
M  END
>  <DRUGBANK_ID>  (1) 
DB15642

>  <COMMON_NAME>  (1) 
Molidustat

>  <CAS_NUMBER>  (1) 
1154028-82-6

>  <UNII>  (1) 
9JH486CZ13

>  <SYNONYMS>  (1) 
Molidustat

$$$$
