
     RDKit          3D

  1  0  0  0  0  0  0  0  0  0999 V2000
    0.9619    0.0824   -0.0420 Ga  0  0  0  0  0 15  0  0  0  0  0  0
M  CHG  1   1   3
M  END
>  <DRUGBANK_ID>  (1) 
DB14524

>  <COMMON_NAME>  (1) 
Gallium cation

>  <CAS_NUMBER>  (1) 
22537-33-3

>  <UNII>  (1) 
F7K5MP217W

>  <SYNONYMS>  (1) 
Ga3+; Gallium (ga3+); Gallium ion(3+); Gallium, ion (Ga3+); Gallium(3+) cation; Gallium(III) cation

$$$$
