
     RDKit          3D

 40 41  0  0  0  0  0  0  0  0999 V2000
    0.9460   -0.1438    0.0275 C   0  0  0  0  0  0  0  0  0  0  0  0
    2.0981    1.0126   -3.5132 C   0  0  0  0  0  0  0  0  0  0  0  0
    0.5598    0.0965    1.4792 C   0  0  0  0  0  0  0  0  0  0  0  0
    2.2771    0.3284   -4.8600 C   0  0  0  0  0  0  0  0  0  0  0  0
    1.1591    1.4200    1.9819 C   0  0  0  0  0  0  0  0  0  0  0  0
    3.7187   -0.1799   -5.0160 C   0  0  0  0  0  0  0  0  0  0  0  0
    0.7039    2.5823    1.1394 C   0  0  0  0  0  0  0  0  0  0  0  0
    4.0867   -1.1375   -3.9114 C   0  0  0  0  0  0  0  0  0  0  0  0
   -0.7887    2.5845    1.1660 C   0  0  0  0  0  0  0  0  0  0  0  0
    3.0989   -2.2595   -3.9420 C   0  0  0  0  0  0  0  0  0  0  0  0
   -4.1119   -1.7319   -1.6271 C   0  0  0  0  0  0  0  0  0  0  0  0
   -3.4425   -1.8367   -2.9950 C   0  0  0  0  0  0  0  0  0  0  0  0
   -3.4547   -0.6125   -0.8256 C   0  0  0  0  0  0  0  0  0  0  0  0
   -1.9553   -2.1389   -2.8213 C   0  0  0  0  0  0  0  0  0  0  0  0
   -1.3672    2.8513    2.6013 C   0  0  0  0  0  0  0  0  0  0  0  0
    3.1529   -3.0724   -5.2722 C   0  0  0  0  0  0  0  0  0  0  0  0
   -3.6154    0.7154   -1.5836 C   0  0  0  0  0  0  0  0  0  0  0  0
   -1.7695   -3.4778   -2.0953 C   0  0  0  0  0  0  0  0  0  0  0  0
   -1.1371    4.2869    3.0763 C   0  0  0  0  0  0  0  0  0  0  0  0
    4.4110   -3.9216   -5.3612 C   0  0  0  0  0  0  0  0  0  0  0  0
   -5.0995    1.1277   -1.6625 C   0  0  0  0  0  0  0  0  0  0  0  0
   -2.4050   -4.6369   -2.8813 C   0  0  0  0  0  0  0  0  0  0  0  0
   -5.5221    4.4186    1.6619 C   0  0  0  0  0  0  0  0  0  0  0  0
   -3.4635    3.5043    0.8310 C   0  0  0  0  0  0  0  0  0  0  0  0
    1.7173   -4.6692   -3.4283 C   0  0  0  0  0  0  0  0  0  0  0  0
    1.2678   -6.9496   -4.0754 C   0  0  0  0  0  0  0  0  0  0  0  0
   -1.7845    5.3790    2.1910 C   0  0  0  0  0  0  0  0  0  0  0  0
    4.5451   -4.9370   -4.2085 C   0  0  0  0  0  0  0  0  0  0  0  0
   -5.8595    1.1736   -0.3010 C   0  0  0  0  0  0  0  0  0  0  0  0
   -1.8290   -4.7968   -4.2968 C   0  0  0  0  0  0  0  0  0  0  0  0
   -6.0731    3.3433    1.0460 C   0  0  0  0  0  0  0  0  0  0  0  0
   -4.0071    2.3126    0.8232 C   0  0  0  0  0  0  0  0  0  0  0  0
    0.5411   -4.2783   -3.9148 C   0  0  0  0  0  0  0  0  0  0  0  0
   -0.0183   -6.5423   -4.1115 C   0  0  0  0  0  0  0  0  0  0  0  0
   -4.0322    4.5548    1.6565 C   0  0  0  0  0  0  0  0  0  0  0  0
    2.3112   -5.8981   -3.9630 C   0  0  0  0  0  0  0  0  0  0  0  0
   -3.2934    5.4211    2.2715 N   0  0  0  0  0  0  0  0  0  0  0  0
    3.5545   -6.0477   -4.2769 N   0  0  0  0  0  0  0  0  0  0  0  0
   -5.3560    2.2204    0.6138 N   0  0  0  0  0  0  0  0  0  0  0  0
   -0.4182   -5.2076   -4.2424 N   0  0  0  0  0  0  0  0  0  0  0  0
  3  1  1  0
  4  2  1  0
  5  3  1  0
  6  4  1  0
  7  5  1  0
  8  6  1  0
  9  7  1  0
 10  8  1  0
 12 11  1  0
 13 11  1  0
 14 12  1  0
 15  9  1  0
 16 10  1  0
 17 13  1  0
 18 14  1  0
 19 15  1  0
 20 16  1  0
 21 17  1  0
 22 18  1  0
 27 19  1  0
 28 20  1  0
 29 21  1  0
 30 22  1  0
 31 23  2  0
 32 24  2  0
 33 25  2  0
 34 26  2  0
 35 23  1  0
 35 24  1  0
 36 25  1  0
 36 26  1  0
 37 27  1  0
 37 35  2  3
 38 28  1  0
 38 36  2  3
 39 29  1  0
 39 31  1  0
 39 32  1  0
 40 30  1  0
 40 33  1  0
 40 34  1  0
M  END
>  <DRUGBANK_ID>  (1) 
DB12624

>  <COMMON_NAME>  (1) 
Octenidine

>  <CAS_NUMBER>  (1) 
71251-02-0

>  <UNII>  (1) 
OZE0372S5A

>  <SYNONYMS>  (1) 
Octenidine

$$$$
