226
     RDKit          3D

 15 16  0  0  0  0  0  0  0  0999 V2000
    1.0127    0.1470   -0.1093 O   0  0  0  0  0  0  0  0  0  0  0  0
    0.3255    0.5680   -1.2236 C   0  0  0  0  0  0  0  0  0  0  0  0
   -0.7419    1.4665   -1.0635 C   0  0  0  0  0  0  0  0  0  0  0  0
   -1.1498    1.8987    0.2100 C   0  0  0  0  0  0  0  0  0  0  0  0
   -2.1809    2.8137    0.3607 C   0  0  0  0  0  0  0  0  0  0  0  0
   -2.5052    3.1834    1.6323 O   0  0  0  0  0  0  0  0  0  0  0  0
   -2.8430    3.3274   -0.7467 C   0  0  0  0  0  0  0  0  0  0  0  0
   -2.4541    2.8994   -2.0176 C   0  0  0  0  0  0  0  0  0  0  0  0
   -3.1005    3.3996   -3.1279 O   0  0  0  0  0  0  0  0  0  0  0  0
   -1.4058    1.9653   -2.2149 C   0  0  0  0  0  0  0  0  0  0  0  0
   -0.9657    1.5003   -3.4809 C   0  0  0  0  0  0  0  0  0  0  0  0
   -1.5414    1.9335   -4.6512 O   0  0  0  0  0  0  0  0  0  0  0  0
    0.0763    0.5867   -3.6232 C   0  0  0  0  0  0  0  0  0  0  0  0
    0.7257    0.1282   -2.4856 C   0  0  0  0  0  0  0  0  0  0  0  0
    1.7716   -0.7485   -2.5755 O   0  0  0  0  0  0  0  0  0  0  0  0
  1  2  1  0
  2 14  2  0
  2  3  1  0
  3 10  2  0
  4  3  1  0
  4  5  2  0
  5  7  1  0
  6  5  1  0
  7  8  2  0
  8  9  1  0
 10 11  1  0
 10  8  1  0
 11 12  1  0
 13 11  2  0
 14 13  1  0
 15 14  1  0
M  END
>  <DRUGBANK_ID>  (1) 
DB06915

>  <COMMON_NAME>  (1) 
naphthalene-1,2,4,5,7-pentol

$$$$
