
     RDKit          3D

 30 33  0  0  0  0  0  0  0  0999 V2000
    3.7075    0.7035   -0.0068 C   0  0  0  0  0  0  0  0  0  0  0  0
    3.8076   -0.6752   -0.0036 C   0  0  0  0  0  0  0  0  0  0  0  0
   -1.5049    3.4976    0.2024 C   0  0  0  0  0  0  0  0  0  0  0  0
    2.4394    1.3064   -0.0045 C   0  0  0  0  0  0  0  0  0  0  0  0
   -0.3421    2.4278    0.2271 C   0  0  0  0  0  0  0  0  0  0  0  0
    2.6477   -1.4426   -0.0075 C   0  0  0  0  0  0  0  0  0  0  0  0
   -3.9121   -0.9881   -0.0074 C   0  0  0  0  0  0  0  0  0  0  0  0
   -2.6812   -1.6841   -0.0097 C   0  0  0  0  0  0  0  0  0  0  0  0
   -1.4806    4.4737    1.3857 C   0  0  0  0  0  0  0  0  0  0  0  0
   -0.1817    6.6877    1.6442 C   0  0  0  0  0  0  0  0  0  0  0  0
    0.2867    5.1277   -0.0484 C   0  0  0  0  0  0  0  0  0  0  0  0
   -0.2962    7.6996    0.4503 C   0  0  0  0  0  0  0  0  0  0  0  0
   -0.1637    6.0319   -1.1649 C   0  0  0  0  0  0  0  0  0  0  0  0
    1.8269    7.3493   -0.9358 C   0  0  0  0  0  0  0  0  0  0  0  0
    2.7745    6.4639   -0.0676 C   0  0  0  0  0  0  0  0  0  0  0  0
   -2.6603    0.9223   -0.0155 C   0  0  0  0  0  0  0  0  0  0  0  0
   -3.9136    0.3682   -0.0114 C   0  0  0  0  0  0  0  0  0  0  0  0
   -0.1818    1.1321    0.0629 C   0  0  0  0  0  0  0  0  0  0  0  0
    1.2300    0.5403    0.0193 C   0  0  0  0  0  0  0  0  0  0  0  0
   -1.4111    0.3170   -0.0072 C   0  0  0  0  0  0  0  0  0  0  0  0
    1.3710   -0.8541   -0.0002 C   0  0  0  0  0  0  0  0  0  0  0  0
   -1.4263   -1.0412   -0.0116 C   0  0  0  0  0  0  0  0  0  0  0  0
   -5.0540    1.3562   -0.0036 C   0  0  0  0  0  0  0  0  0  0  0  0
   -5.0124    2.1943    1.0783 F   0  0  0  0  0  0  0  0  0  0  0  0
   -5.0195    2.1993   -1.0813 F   0  0  0  0  0  0  0  0  0  0  0  0
   -6.2778    0.7832   -0.0006 F   0  0  0  0  0  0  0  0  0  0  0  0
   -0.3257    5.2954    1.2367 N   0  0  0  0  0  0  0  0  0  0  0  0
    0.3386    7.3364   -0.8504 N   0  0  0  0  0  0  0  0  0  0  0  0
    2.9410    5.1414   -0.6156 O   0  0  0  0  0  0  0  0  0  0  0  0
    0.0301   -2.0340    0.0013 S   0  0  0  0  0  0  0  0  0  0  0  0
  2  1  2  0
  4  1  1  0
  5  3  1  0
  6  2  1  0
  8  7  1  0
  9  3  1  0
 12 10  1  0
 13 11  1  0
 15 14  1  0
 17  7  2  0
 17 16  1  0
 18  5  2  0
 19  4  2  0
 19 18  1  0
 20 16  2  0
 20 18  1  0
 21  6  2  0
 21 19  1  0
 22  8  2  0
 22 20  1  0
 23 17  1  0
 24 23  1  0
 25 23  1  0
 26 23  1  0
 27  9  1  0
 27 10  1  0
 27 11  1  0
 28 12  1  0
 28 13  1  0
 28 14  1  0
 29 15  1  0
 30 21  1  0
 30 22  1  0
M  END
>  <DRUGBANK_ID>  (1) 
DB00875

>  <SECONDARY_ACCESSION_NUMBERS>  (1) 
APRD00388

>  <COMMON_NAME>  (1) 
Flupentixol

>  <CAS_NUMBER>  (1) 
2709-56-0

>  <UNII>  (1) 
FA0UYH6QUO

>  <SYNONYMS>  (1) 
Flupenthixol; Flupenthixole; Flupentixol; Flupentixolo; Flupentixolum

$$$$
