
     RDKit          3D

  6  5  0  0  0  0  0  0  0  0999 V2000
    1.0575    0.0840    0.0070 O   0  0  0  0  0  0  0  0  0  0  0  0
    0.5871    0.7077    1.2107 C   0  0  0  0  0  0  0  0  0  0  0  0
    1.0794    0.0364    2.4906 C   0  0  0  0  0  0  0  0  0  0  0  0
    2.4328    0.0184    2.5200 F   0  0  0  0  0  0  0  0  0  0  0  0
    0.6535    0.7057    3.5840 F   0  0  0  0  0  0  0  0  0  0  0  0
    0.6473   -1.2380    2.5895 F   0  0  0  0  0  0  0  0  0  0  0  0
  1  2  1  0
  2  3  1  0
  3  4  1  0
  3  5  1  0
  3  6  1  0
M  END
>  <DRUGBANK_ID>  (1) 
DB03226

>  <SECONDARY_ACCESSION_NUMBERS>  (1) 
EXPT01368

>  <COMMON_NAME>  (1) 
Trifluoroethanol

>  <CAS_NUMBER>  (1) 
75-89-8

>  <UNII>  (1) 
8T8I76KYF1

>  <SYNONYMS>  (1) 
2,2,2-trifluoroethanol; 2,2,2-trifluoroethyl alcohol

$$$$
