
     RDKit          3D

 31 33  0  0  1  0  0  0  0  0999 V2000
    2.0453    8.5720   -9.4040 C   0  0  0  0  0  0  0  0  0  0  0  0
    1.8857    9.3750   -8.1319 C   0  0  0  0  0  0  0  0  0  0  0  0
    3.0645    9.1579   -7.1746 C   0  0  1  0  0  0  0  0  0  0  0  0
    4.4115    9.5900   -7.7697 C   0  0  0  0  0  0  0  0  0  0  0  0
    2.8291    9.9397   -5.9035 C   0  0  0  0  0  0  0  0  0  0  0  0
    2.8863    9.3274   -4.6515 C   0  0  0  0  0  0  0  0  0  0  0  0
    3.0145    7.9600   -4.6188 O   0  0  0  0  0  0  0  0  0  0  0  0
    2.8989   10.1021   -3.4737 C   0  0  0  0  0  0  0  0  0  0  0  0
    3.0237    9.5520   -2.1798 C   0  0  0  0  0  0  0  0  0  0  0  0
    2.9042    8.1772   -2.0628 O   0  0  0  0  0  0  0  0  0  0  0  0
    3.1435   10.3872   -1.0538 C   0  0  0  0  0  0  0  0  0  0  0  0
    3.0354   11.8052   -1.1837 C   0  0  0  0  0  0  0  0  0  0  0  0
    2.5196   12.6402    0.0051 C   0  0  0  0  0  0  0  0  0  0  0  0
    1.7956   11.7480    1.0765 C   0  0  2  0  0  0  0  0  0  0  0  0
    2.8904   10.7363    1.4514 C   0  0  0  0  0  0  0  0  0  0  0  0
    2.9818    9.7721    0.2938 C   0  0  0  0  0  0  0  0  0  0  0  0
    2.7703    8.5809    0.4188 O   0  0  0  0  0  0  0  0  0  0  0  0
    0.4489   10.8865    0.8126 C   0  0  2  0  0  0  0  0  0  0  0  0
   -0.2422   10.8064   -0.4350 O   0  0  0  0  0  0  0  0  0  0  0  0
    0.1562   11.6948   -1.4269 C   0  0  0  0  0  0  0  0  0  0  0  0
   -0.6732   11.0538    1.8344 C   0  0  0  0  0  0  0  0  0  0  0  0
   -0.9141   10.1820    2.6749 O   0  0  0  0  0  0  0  0  0  0  0  0
   -1.5118   12.3156    1.7774 C   0  0  1  0  0  0  0  0  0  0  0  0
   -0.6448   13.4034    2.1080 O   0  0  0  0  0  0  0  0  0  0  0  0
   -2.1902   12.5224    0.4110 C   0  0  1  0  0  0  0  0  0  0  0  0
   -2.9984   11.3151   -0.0634 C   0  0  0  0  0  0  0  0  0  0  0  0
   -3.0021   13.6952    0.3738 O   0  0  0  0  0  0  0  0  0  0  0  0
    2.8734   12.3561   -2.4757 C   0  0  0  0  0  0  0  0  0  0  0  0
    2.7852   11.5183   -3.5978 C   0  0  0  0  0  0  0  0  0  0  0  0
    2.5492   12.1002   -4.8393 C   0  0  0  0  0  0  0  0  0  0  0  0
    2.6326   11.3260   -5.9804 C   0  0  0  0  0  0  0  0  0  0  0  0
  1  2  1  0
  2  3  1  0
  3  4  1  6
  3  5  1  0
  5  6  2  0
  5 31  1  0
  6  7  1  0
  6  8  1  0
  8  9  2  0
  8 29  1  0
  9 10  1  0
  9 11  1  0
 11 12  2  0
 11 16  1  0
 12 13  1  0
 12 28  1  0
 14 13  1  6
 14 15  1  0
 15 16  1  0
 16 17  2  0
 18 21  1  0
 18 19  1  6
 18 14  1  0
 19 20  1  0
 21 22  2  0
 21 23  1  0
 23 24  1  6
 23 25  1  0
 25 26  1  1
 25 27  1  0
 28 29  2  0
 29 30  1  0
 30 31  2  0
M  END
>  <DRUGBANK_ID>  (1) 
DB04240

>  <SECONDARY_ACCESSION_NUMBERS>  (1) 
EXPT01305

>  <COMMON_NAME>  (1) 
(1S)-1-C-{(2R)-6-[(2R)-2-Butanyl]-5,10-dihydroxy-4-oxo-1,2,3,4-tetrahydro-2-anthracenyl}-5-deoxy-1-O-methyl-D-xylulose

>  <SYNONYMS>  (1) 
1,2-HYDRO-1-OXY-3,4-HYDRO-3-(1-METHOXY-2-OXY-3,4-DIHYDROXYPENTYL)-8,9-DIHYDROXY-7-(SEC-BUTYL)-ANTHRACENE

$$$$
