
     RDKit          3D

 24 27  0  0  0  0  0  0  0  0999 V2000
    2.6462   -2.5927   -9.1253 C   0  0  0  0  0  0  0  0  0  0  0  0
    6.1953   -8.1970   -8.6491 C   0  0  0  0  0  0  0  0  0  0  0  0
    2.2274   -3.5330   -6.0765 C   0  0  0  0  0  0  0  0  0  0  0  0
    3.1266   -4.7256   -5.8290 C   0  0  0  0  0  0  0  0  0  0  0  0
    5.1905   -6.0334   -7.5665 C   0  0  0  0  0  0  0  0  0  0  0  0
    3.7819   -6.2567   -8.9979 C   0  0  0  0  0  0  0  0  0  0  0  0
    4.4708   -0.2135   -5.9778 C   0  0  0  0  0  0  0  0  0  0  0  0
    5.3059   -4.2331   -9.5105 C   0  0  0  0  0  0  0  0  0  0  0  0
    4.5234   -0.8784   -7.6932 C   0  0  0  0  0  0  0  0  0  0  0  0
    6.0827   -5.6649   -9.5628 C   0  0  0  0  0  0  0  0  0  0  0  0
    4.3122   -2.4561   -5.5886 C   0  0  0  0  0  0  0  0  0  0  0  0
    3.9607   -9.8728   -9.0420 C   0  0  0  0  0  0  0  0  0  0  0  0
    3.1509   -2.4917   -6.6245 C   0  0  1  0  0  0  0  0  0  0  0  0
    3.8446   -1.2198   -5.1073 C   0  0  0  0  0  0  0  0  0  0  0  0
    3.4850   -5.0545   -7.2444 C   0  0  2  0  0  0  0  0  0  0  0  0
    4.0292   -6.7075   -7.4043 C   0  0  1  0  0  0  0  0  0  0  0  0
    4.6046   -3.7834   -8.0894 C   0  0  2  0  0  0  0  0  0  0  0  0
    4.1349   -7.3552   -9.9347 C   0  0  2  0  0  0  0  0  0  0  0  0
    3.5363   -8.7536   -9.9955 C   0  0  0  0  0  0  0  0  0  0  0  0
    3.7717   -2.4544   -8.0180 C   0  0  1  0  0  0  0  0  0  0  0  0
    5.1564   -7.1050   -8.9354 C   0  0  2  0  0  0  0  0  0  0  0  0
    2.9141  -10.7178   -8.6352 O   0  0  0  0  0  0  0  0  0  0  0  0
    2.9508   -1.1399   -4.2193 O   0  0  0  0  0  0  0  0  0  0  0  0
    2.8190   -9.0333  -10.9652 O   0  0  0  0  0  0  0  0  0  0  0  0
  4  3  1  0
  6  5  1  0
  9  7  1  0
 10  8  1  0
 13  3  1  6
 13 11  1  0
 14  7  1  0
 14 11  1  0
 15  4  1  1
 16  5  1  1
 16 15  1  0
 17  8  1  6
 17 15  1  0
 18  6  1  0
 18 19  1  1
 19 12  1  0
 20  9  1  0
 20 13  1  0
 20 17  1  0
 20  1  1  6
 21 10  1  0
 21 16  1  0
 21 18  1  0
 21  2  1  1
 22 12  1  0
 23 14  2  0
 24 19  2  0
M  END
>  <DRUGBANK_ID>  (1) 
DB08956

>  <COMMON_NAME>  (1) 
Hydroxydione

>  <CAS_NUMBER>  (1) 
303-01-5

>  <UNII>  (1) 
B7VFN88375

>  <SYNONYMS>  (1) 
21-hydroxy-5β-pregnane-3,20-dione; 5beta-dihydrodeoxycorticosterone; 5β-dihydrodeoxycorticosterone

$$$$
