
     RDKit          3D

 14 14  0  0  0  0  0  0  0  0999 V2000
   -1.9010   -0.0191   -0.0588 C   0  0  0  0  0  0  0  0  0  0  0  0
   -3.6892   -0.0203    0.0271 S   0  0  0  0  0  0  0  0  0  0  0  0
   -1.2019    1.1935   -0.0398 C   0  0  0  0  0  0  0  0  0  0  0  0
   -1.2005   -1.2253   -0.0368 C   0  0  0  0  0  0  0  0  0  0  0  0
   -4.1639   -0.9744   -1.2997 N   0  0  0  0  0  0  0  0  0  0  0  0
   -3.9946   -0.6393    1.3027 O   0  0  0  0  0  0  0  0  0  0  0  0
   -4.1189    1.3268   -0.2707 O   0  0  0  0  0  0  0  0  0  0  0  0
    0.2005    1.1916   -0.0277 C   0  0  0  0  0  0  0  0  0  0  0  0
    0.2028   -1.2112   -0.0205 C   0  0  0  0  0  0  0  0  0  0  0  0
   -5.0398   -2.0507   -1.2200 C   0  0  0  0  0  0  0  0  0  0  0  0
    0.9179   -0.0076    0.0020 C   0  0  0  0  0  0  0  0  0  0  0  0
   -5.4772   -2.5516   -2.3877 N   0  0  0  0  0  0  0  0  0  0  0  0
   -5.3849   -2.5430   -0.0953 N   0  0  0  0  0  0  0  0  0  0  0  0
    2.3022   -0.0038   -0.1231 N   0  0  0  0  0  0  0  0  0  0  0  0
  1  2  1  0
  1  3  2  0
  1  4  1  0
  2  5  1  0
  2  6  2  0
  2  7  2  0
  3  8  1  0
  4  9  2  0
  5 10  1  0
  8 11  2  0
  9 11  1  0
 10 12  1  0
 10 13  2  0
 11 14  1  0
M  END
>  <DRUGBANK_ID>  (1) 
DB13726

>  <COMMON_NAME>  (1) 
Sulfaguanidine

>  <CAS_NUMBER>  (1) 
57-67-0

>  <UNII>  (1) 
15XQ8043FN

>  <SYNONYMS>  (1) 
Sulfaguanidina; Sulfaguanidine; Sulfaguanidinum

$$$$
