
     RDKit          3D

 23 23  0  0  0  0  0  0  0  0999 V2000
   -3.7752    1.0878   -0.4258 C   0  0  2  0  0  0  0  0  0  0  0  0
   -4.9240    1.0563    0.6274 C   0  0  1  0  0  0  0  0  0  0  0  0
   -5.4639   -0.3742    0.7447 C   0  0  1  0  0  0  0  0  0  0  0  0
   -4.3848   -1.4411    0.8862 C   0  0  2  0  0  0  0  0  0  0  0  0
   -3.1217   -1.2643    0.0138 C   0  0  1  0  0  0  0  0  0  0  0  0
   -2.7538    0.0727   -0.3100 O   0  0  0  0  0  0  0  0  0  0  0  0
   -3.0767    2.4699   -0.4707 C   0  0  0  0  0  0  0  0  0  0  0  0
   -4.9215   -2.7727    0.7967 O   0  0  0  0  0  0  0  0  0  0  0  0
   -4.6685    1.6356    1.9194 O   0  0  0  0  0  0  0  0  0  0  0  0
   -6.3527   -0.4760    1.8741 O   0  0  0  0  0  0  0  0  0  0  0  0
   -1.9623   -2.0144    0.4897 O   0  0  0  0  0  0  0  0  0  0  0  0
   -1.3241   -1.8046    1.7801 C   0  0  1  0  0  0  0  0  0  0  0  0
   -0.5236   -0.4565    1.9603 C   0  0  1  0  0  0  0  0  0  0  0  0
   -1.3749    0.7984    1.8621 C   0  0  2  0  0  0  0  0  0  0  0  0
   -1.1957    2.0020    2.7661 C   0  0  0  0  0  0  0  0  0  0  0  0
   -1.5248    1.6131    4.1042 O   0  0  0  0  0  0  0  0  0  0  0  0
   -2.1738   -2.2470    3.0278 C   0  0  1  0  0  0  0  0  0  0  0  0
   -2.7058   -3.6737    2.9099 C   0  0  0  0  0  0  0  0  0  0  0  0
   -1.6551   -4.5960    3.1522 O   0  0  0  0  0  0  0  0  0  0  0  0
    0.1797   -0.4383    3.1987 O   0  0  0  0  0  0  0  0  0  0  0  0
   -2.7075    0.4277    2.1711 O   0  0  0  0  0  0  0  0  0  0  0  0
   -1.5191   -2.0013    4.2746 O   0  0  0  0  0  0  0  0  0  0  0  0
   -2.0121    2.4980   -1.4242 O   0  0  0  0  0  0  0  0  0  0  0  0
  1  7  1  1
  1  2  1  0
  2  9  1  1
  2  3  1  0
  3 10  1  1
  3  4  1  0
  4  5  1  0
  4  8  1  6
  5  6  1  0
  5 11  1  1
  6  1  1  0
  7 23  1  0
 12 11  1  6
 12 13  1  0
 12 17  1  0
 13 20  1  1
 14 21  1  1
 14 15  1  0
 14 13  1  0
 15 16  1  0
 17 18  1  0
 17 22  1  1
 18 19  1  0
M  END
>  <DRUGBANK_ID>  (1) 
DB12942

>  <COMMON_NAME>  (1) 
Lactitol

>  <CAS_NUMBER>  (1) 
585-86-4

>  <UNII>  (1) 
L2B0WJF7ZY

>  <SYNONYMS>  (1) 
Lactitol; Lactitolum

$$$$
