705
     RDKit          3D

 32 35  0  0  0  0  0  0  0  0999 V2000
    1.0201    0.0859   -0.0278 S   0  0  0  0  0  0  0  0  0  0  0  0
    3.0396    2.0217   -8.9690 O   0  0  0  0  0  0  0  0  0  0  0  0
    0.5944   -1.1433    0.6084 O   0  0  0  0  0  0  0  0  0  0  0  0
    0.5288    1.3598    0.4559 O   0  0  0  0  0  0  0  0  0  0  0  0
    7.4027   -0.5358   -8.9420 N   0  0  0  0  0  0  0  0  0  0  0  0
    4.8699    0.7140   -8.5076 N   0  0  0  0  0  0  0  0  0  0  0  0
    3.8312    0.0118   -6.0460 N   0  0  0  0  0  0  0  0  0  0  0  0
    7.1639   -2.2110  -11.5975 N   0  0  0  0  0  0  0  0  0  0  0  0
    9.6910   -0.8916   -9.1211 N   0  0  0  0  0  0  0  0  0  0  0  0
    0.5490   -0.0304   -1.6217 N   0  0  0  0  0  0  0  0  0  0  0  0
    6.3243   -1.3046   -8.2929 C   0  0  0  0  0  0  0  0  0  0  0  0
    7.2874    0.9340   -8.8280 C   0  0  0  0  0  0  0  0  0  0  0  0
    4.9126   -0.7227   -8.6379 C   0  0  0  0  0  0  0  0  0  0  0  0
    5.8882    1.4084   -9.3234 C   0  0  0  0  0  0  0  0  0  0  0  0
    8.4531   -1.1309   -9.6390 C   0  0  0  0  0  0  0  0  0  0  0  0
    3.6250    1.2555   -8.2353 C   0  0  0  0  0  0  0  0  0  0  0  0
    3.1626    0.8506   -6.9139 C   0  0  0  0  0  0  0  0  0  0  0  0
    8.3124   -1.9569  -10.8228 C   0  0  0  0  0  0  0  0  0  0  0  0
    2.0439    1.2839   -6.2339 C   0  0  0  0  0  0  0  0  0  0  0  0
    2.0268    0.6645   -4.9550 C   0  0  0  0  0  0  0  0  0  0  0  0
    3.1386   -0.1673   -4.8840 C   0  0  0  0  0  0  0  0  0  0  0  0
    5.8711   -1.7049  -11.2598 C   0  0  0  0  0  0  0  0  0  0  0  0
    9.4883   -2.5259  -11.3644 C   0  0  0  0  0  0  0  0  0  0  0  0
    1.1654    0.7343   -3.8449 C   0  0  0  0  0  0  0  0  0  0  0  0
    3.4120   -0.9951   -3.7982 C   0  0  0  0  0  0  0  0  0  0  0  0
   10.7769   -1.4785   -9.6933 C   0  0  0  0  0  0  0  0  0  0  0  0
    1.4264   -0.0742   -2.7329 C   0  0  0  0  0  0  0  0  0  0  0  0
   10.7305   -2.3011  -10.7973 C   0  0  0  0  0  0  0  0  0  0  0  0
    2.4839   -0.9789   -2.7609 C   0  0  0  0  0  0  0  0  0  0  0  0
    5.2555   -0.7052  -12.2113 C   0  0  0  0  0  0  0  0  0  0  0  0
    4.9290   -2.8150  -10.7680 C   0  0  0  0  0  0  0  0  0  0  0  0
    2.8101    0.1448    0.0303 C   0  0  0  0  0  0  0  0  0  0  0  0
  1  3  2  0
  1  4  2  0
  1 10  1  0
  1 32  1  0
  2 16  2  0
  5 11  1  0
  5 12  1  0
  5 15  1  0
  6 13  1  0
  6 14  1  0
  6 16  1  0
  7 17  1  0
  7 21  1  0
  8 18  1  0
  8 22  1  0
  9 15  2  0
  9 26  1  0
 10 27  1  0
 11 13  1  0
 12 14  1  0
 15 18  1  0
 16 17  1  0
 17 19  2  0
 18 23  2  0
 19 20  1  0
 20 21  2  0
 20 24  1  0
 21 25  1  0
 22 30  1  0
 22 31  1  0
 23 28  1  0
 24 27  2  0
 25 29  2  0
 26 28  2  0
 27 29  1  0
M  END
>  <DRUGBANK_ID>  (1) 
DB00705

>  <SECONDARY_ACCESSION_NUMBERS>  (1) 
APRD00149; DB08563

>  <COMMON_NAME>  (1) 
Delavirdine

>  <CAS_NUMBER>  (1) 
136817-59-9

>  <UNII>  (1) 
DOL5F9JD3E

>  <SYNONYMS>  (1) 
(N-[2-[4-[3-(1-methylethylamino)pyridin-2-yl]piperazin-1-yl]carbonyl-1H-indol-5-yl] methanesulfonamide); 1-(3-((1-methylethyl)amino)-2-pyridinyl)-4-((5-((methylsulfonyl)amino)-1H-indol-2-yl)carbonyl)piperazine; 2-(4-(5-methanesulfonamido-1H-indol-2-ylcarbonyl)-1-piperazinyl)-N-(1-methylethyl)-3-pyridinamine; Delavirdin; Delavirdina; Delavirdine; Delavirdinum; N-(2-(1-(3-(isopropylamino)pyridin-2-yl)piperazine-4-carbonyl)-1H-indol-5-yl)methanesulfonamide; N-{2-[4-(3-Isopropylamino-pyridin-2-yl)-piperazine-1-carbonyl]-1H-indol-5-yl}-methanesulfonamide

$$$$
