
     RDKit          3D

 21 22  0  0  0  0  0  0  0  0999 V2000
    1.1248    0.0521    0.6236 C   0  0  0  0  0  0  0  0  0  0  0  0
    1.4643   -0.0240    2.0968 C   0  0  0  0  0  0  0  0  0  0  0  0
    2.7100    0.1125   -0.0093 C   0  0  0  0  0  0  0  0  0  0  0  0
    0.0167   -1.1809    0.4905 C   0  0  0  0  0  0  0  0  0  0  0  0
    0.2544    1.3024    0.3523 C   0  0  0  0  0  0  0  0  0  0  0  0
    2.1155   -1.1718    2.5777 C   0  0  0  0  0  0  0  0  0  0  0  0
    1.2760    1.0835    2.9128 C   0  0  0  0  0  0  0  0  0  0  0  0
    3.1123    1.0403   -0.9263 O   0  0  0  0  0  0  0  0  0  0  0  0
    3.5757   -0.7756    0.2551 O   0  0  0  0  0  0  0  0  0  0  0  0
   -1.3513   -0.5749    0.7577 C   0  0  0  0  0  0  0  0  0  0  0  0
   -1.2005    0.9365    0.6226 C   0  0  0  0  0  0  0  0  0  0  0  0
    2.5907   -1.1771    3.8670 C   0  0  0  0  0  0  0  0  0  0  0  0
    1.8103    1.1025    4.1681 C   0  0  0  0  0  0  0  0  0  0  0  0
    2.2864    1.9170   -1.7381 C   0  0  0  0  0  0  0  0  0  0  0  0
    2.4325   -0.0378    4.6547 C   0  0  0  0  0  0  0  0  0  0  0  0
    1.1172    1.3090   -2.6378 C   0  0  0  0  0  0  0  0  0  0  0  0
    0.4367    0.1135   -2.1157 N   0  0  0  0  0  0  0  0  0  0  0  0
   -0.9654   -0.0697   -2.4648 C   0  0  0  0  0  0  0  0  0  0  0  0
    1.3574   -0.9972   -1.9661 C   0  0  0  0  0  0  0  0  0  0  0  0
   -1.0642   -0.9578   -3.6541 C   0  0  0  0  0  0  0  0  0  0  0  0
    1.8536   -1.9987   -2.9118 C   0  0  0  0  0  0  0  0  0  0  0  0
  1  2  1  0
  1  3  1  0
  1  4  1  0
  1  5  1  0
  2  6  2  0
  2  7  1  0
  3  8  1  0
  3  9  2  0
  4 10  1  0
  5 11  1  0
  6 12  1  0
  7 13  2  0
  8 14  1  0
 10 11  1  0
 12 15  2  0
 13 15  1  0
 14 16  1  0
 16 17  1  0
 17 18  1  0
 17 19  1  0
 18 20  1  0
 19 21  1  0
M  END
>  <DRUGBANK_ID>  (1) 
DB11504

>  <COMMON_NAME>  (1) 
Caramiphen

>  <CAS_NUMBER>  (1) 
77-22-5

>  <UNII>  (1) 
97J7NP0XJY

>  <SYNONYMS>  (1) 
Caramifenio; Caramiphen; Caramiphenum

$$$$
