
     RDKit          3D

 20 20  0  0  0  0  0  0  0  0999 V2000
   -2.6689    0.8764    2.8145 O   0  0  0  0  0  0  0  0  0  0  0  0
   -2.2902    3.0026    0.0842 O   0  0  0  0  0  0  0  0  0  0  0  0
    0.8283    2.5350    1.3929 O   0  0  0  0  0  0  0  0  0  0  0  0
    1.0768    4.3027    3.1870 O   0  0  0  0  0  0  0  0  0  0  0  0
   -0.5744   -1.4096   -1.9809 O   0  0  0  0  0  0  0  0  0  0  0  0
   -3.8095    0.7610    5.2184 O   0  0  0  0  0  0  0  0  0  0  0  0
   -2.1009   -0.4081    6.1206 O   0  0  0  0  0  0  0  0  0  0  0  0
   -0.9542   -0.6456    0.0966 N   0  0  0  0  0  0  0  0  0  0  0  0
    1.2816    0.3689    2.6755 N   0  0  0  0  0  0  0  0  0  0  0  0
   -2.0173    1.1072    1.5510 C   0  0  2  0  0  0  0  0  0  0  0  0
   -0.7756    0.2844    1.2012 C   0  0  1  0  0  0  0  0  0  0  0  0
   -1.7907    2.6382    1.3856 C   0  0  1  0  0  0  0  0  0  0  0  0
    0.0114   -0.3105    2.3847 C   0  0  2  0  0  0  0  0  0  0  0  0
   -0.3737    3.3027    1.5493 C   0  0  1  0  0  0  0  0  0  0  0  0
   -0.7624   -0.3102    3.6489 C   0  0  0  0  0  0  0  0  0  0  0  0
   -1.9754    0.2345    3.8050 C   0  0  0  0  0  0  0  0  0  0  0  0
   -0.2552    3.8503    2.9645 C   0  0  0  0  0  0  0  0  0  0  0  0
   -0.3682   -0.5362   -1.1429 C   0  0  0  0  0  0  0  0  0  0  0  0
   -2.6049    0.1409    5.1658 C   0  0  0  0  0  0  0  0  0  0  0  0
    0.5259    0.6575   -1.4507 C   0  0  0  0  0  0  0  0  0  0  0  0
 10  1  1  1
  1 16  1  0
  4 17  1  0
  5 18  2  0
  6 19  1  0
  7 19  2  0
  8 18  1  0
 10 11  1  0
 11  8  1  6
 11 13  1  0
 12 10  1  0
 12  2  1  6
 13 15  1  0
 13  9  1  1
 14 17  1  0
 14 12  1  0
 14  3  1  1
 15 16  2  0
 16 19  1  0
 18 20  1  0
M  END
>  <DRUGBANK_ID>  (1) 
DB03321

>  <SECONDARY_ACCESSION_NUMBERS>  (1) 
EXPT00202

>  <COMMON_NAME>  (1) 
Des(carbamimidoyl) zanamivir

>  <CAS_NUMBER>  (1) 
130525-62-1

>  <UNII>  (1) 
OE4L5BBV9M

>  <SYNONYMS>  (1) 
4-AM-DANA; 4-Amino-2-deoxy-2,3-dehydro-N-neuraminic acid; 4-amino-4-deoxy-Neu5Ac2en

$$$$
