
     RDKit          3D

 26 27  0  0  0  0  0  0  0  0999 V2000
    2.9645   -1.5996   -7.5620 O   0  0  0  0  0  0  0  0  0  0  0  0
    3.8861   -2.4445   -6.8749 C   0  0  0  0  0  0  0  0  0  0  0  0
    3.2135   -3.7473   -6.4379 C   0  0  0  0  0  0  0  0  0  0  0  0
    2.6571   -4.5684   -7.6110 C   0  0  0  0  0  0  0  0  0  0  0  0
    3.6957   -4.9489   -8.5062 O   0  0  0  0  0  0  0  0  0  0  0  0
    4.0993   -4.5895   -5.6174 N   0  0  0  0  0  0  0  0  0  0  0  0
    3.9123   -4.9973   -4.3250 C   0  0  0  0  0  0  0  0  0  0  0  0
    4.7649   -5.7041   -3.7733 O   0  0  0  0  0  0  0  0  0  0  0  0
    2.6848   -4.5069   -3.5757 C   0  0  1  0  0  0  0  0  0  0  0  0
    2.8270   -3.0935   -3.6151 O   0  0  0  0  0  0  0  0  0  0  0  0
    1.3642   -5.0247   -4.1835 C   0  0  1  0  0  0  0  0  0  0  0  0
    1.3756   -6.4609   -4.1155 O   0  0  0  0  0  0  0  0  0  0  0  0
    0.1382   -4.4319   -3.4511 C   0  0  1  0  0  0  0  0  0  0  0  0
   -0.2283   -2.9947   -3.8574 C   0  0  2  0  0  0  0  0  0  0  0  0
    0.3394   -1.8820   -2.9684 C   0  0  0  0  0  0  0  0  0  0  0  0
   -1.6759   -3.0101   -3.8190 O   0  0  0  0  0  0  0  0  0  0  0  0
   -2.0149   -4.3274   -3.8932 C   0  0  0  0  0  0  0  0  0  0  0  0
   -1.0773   -5.2114   -3.7923 N   0  0  0  0  0  0  0  0  0  0  0  0
   -3.4427   -4.6627   -4.1260 C   0  0  0  0  0  0  0  0  0  0  0  0
   -4.0894   -4.2126   -5.2854 C   0  0  0  0  0  0  0  0  0  0  0  0
   -5.3986   -4.6328   -5.5652 C   0  0  0  0  0  0  0  0  0  0  0  0
   -6.1938   -4.0882   -6.9937 Cl  0  0  0  0  0  0  0  0  0  0  0  0
   -6.0753   -5.5036   -4.7110 C   0  0  0  0  0  0  0  0  0  0  0  0
   -5.4368   -5.9667   -3.5628 C   0  0  0  0  0  0  0  0  0  0  0  0
   -4.1290   -5.5484   -3.2746 C   0  0  0  0  0  0  0  0  0  0  0  0
   -3.5372   -6.0056   -2.1298 O   0  0  0  0  0  0  0  0  0  0  0  0
  1  2  1  0
  2  3  1  0
  3  4  1  0
  3  6  1  0
  4  5  1  0
  6  7  1  0
  7  8  2  0
  9  7  1  0
  9 10  1  6
 11  9  1  0
 11 12  1  1
 13 14  1  0
 13 18  1  6
 13 11  1  0
 14 15  1  1
 14 16  1  0
 16 17  1  0
 17 18  2  0
 17 19  1  0
 19 20  2  0
 19 25  1  0
 20 21  1  0
 21 22  1  0
 21 23  2  0
 23 24  1  0
 24 25  2  0
 25 26  1  0
M  END
>  <DRUGBANK_ID>  (1) 
DB15552

>  <COMMON_NAME>  (1) 
Leptazoline B

$$$$
