[NO NAME]
     RDKit          3D

 38 36  0  0  0  0  0  0  0  0999 V2000
    2.6194   -2.5766    1.5940 C   0  0  0  0  0  0  0  0  0  0  0  0
    1.2760   -3.4919    1.7421 N   0  0  0  0  0  0  0  0  0  0  0  0
    1.0616   -2.2759    3.1045 C   0  0  0  0  0  0  0  0  0  0  0  0
   -0.4260   -3.5126    1.8278 C   0  0  0  0  0  0  0  0  0  0  0  0
    1.4673   -4.1057   -0.0940 C   0  0  0  0  0  0  0  0  0  0  0  0
    0.9243   -3.3900   -1.7506 C   0  0  0  0  0  0  0  0  0  0  0  0
    1.5203   -2.1424   -2.2486 O   0  0  0  0  0  0  0  0  0  0  0  0
   -1.8770    0.0420   -0.0140 C   0  0  0  0  0  0  0  0  0  0  0  0
   -1.2260   -1.1720   -0.0010 C   0  0  0  0  0  0  0  0  0  0  0  0
    0.1710   -1.2410    0.0150 C   0  0  0  0  0  0  0  0  0  0  0  0
    0.8850   -0.0250   -0.0010 C   0  0  0  0  0  0  0  0  0  0  0  0
    0.2240    1.1800    0.0160 C   0  0  0  0  0  0  0  0  0  0  0  0
   -1.1570    1.2120    0.0000 C   0  0  0  0  0  0  0  0  0  0  0  0
    1.0132    2.4785    0.0524 C   0  0  0  0  0  0  0  0  0  0  0  0
    0.4026    3.5930    0.0682 O   0  0  0  0  0  0  0  0  0  0  0  0
    2.4328    2.4464    0.0689 O   0  0  0  0  0  0  0  0  0  0  0  0
    2.2370    0.0050   -0.0110 O   0  0  0  0  0  0  0  0  0  0  0  0
   -1.8770    0.0420   -0.0140 C   0  0  0  0  0  0  0  0  0  0  0  0
   -1.2260   -1.1720   -0.0010 C   0  0  0  0  0  0  0  0  0  0  0  0
    0.1710   -1.2410    0.0150 C   0  0  0  0  0  0  0  0  0  0  0  0
    0.8850   -0.0250   -0.0010 C   0  0  0  0  0  0  0  0  0  0  0  0
    0.2240    1.1800    0.0160 C   0  0  0  0  0  0  0  0  0  0  0  0
   -1.1570    1.2120    0.0000 C   0  0  0  0  0  0  0  0  0  0  0  0
    1.0132    2.4785    0.0524 C   0  0  0  0  0  0  0  0  0  0  0  0
    0.4026    3.5930    0.0682 O   0  0  0  0  0  0  0  0  0  0  0  0
    2.4328    2.4464    0.0689 O   0  0  0  0  0  0  0  0  0  0  0  0
    2.2370    0.0050   -0.0110 O   0  0  0  0  0  0  0  0  0  0  0  0
    3.4671    1.9486   -1.1120 Mg  0  0  0  0  0 15  0  0  0  0  0  0
   -1.8770    0.0420   -0.0140 C   0  0  0  0  0  0  0  0  0  0  0  0
   -1.2260   -1.1720   -0.0010 C   0  0  0  0  0  0  0  0  0  0  0  0
    0.1710   -1.2410    0.0150 C   0  0  0  0  0  0  0  0  0  0  0  0
    0.8850   -0.0250   -0.0010 C   0  0  0  0  0  0  0  0  0  0  0  0
    0.2240    1.1800    0.0160 C   0  0  0  0  0  0  0  0  0  0  0  0
   -1.1570    1.2120    0.0000 C   0  0  0  0  0  0  0  0  0  0  0  0
    1.0132    2.4785    0.0524 C   0  0  0  0  0  0  0  0  0  0  0  0
    0.4026    3.5930    0.0682 O   0  0  0  0  0  0  0  0  0  0  0  0
    2.4328    2.4464    0.0689 O   0  0  0  0  0  0  0  0  0  0  0  0
    2.2370    0.0050   -0.0110 O   0  0  0  0  0  0  0  0  0  0  0  0
  1  2  1  0
  2  3  1  0
  2  4  1  0
  2  5  1  0
  5  6  1  0
  6  7  1  0
  8  9  2  0
  8 13  1  0
  9 10  1  0
 10 11  2  0
 11 12  1  0
 11 17  1  0
 12 13  2  0
 12 14  1  0
 14 15  2  0
 14 16  1  0
 18 19  2  0
 18 23  1  0
 19 20  1  0
 20 21  2  0
 21 22  1  0
 21 27  1  0
 22 23  2  0
 22 24  1  0
 24 25  2  0
 24 26  1  0
 29 30  2  0
 29 34  1  0
 30 31  1  0
 31 32  2  0
 32 33  1  0
 32 38  1  0
 33 34  2  0
 33 35  1  0
 35 36  2  0
 35 37  1  0
M  CHG  5   2   1  16  -1  26  -1  28   2  37  -1
M  END
>  <DRUGBANK_ID>  (1) 
DB01401

>  <COMMON_NAME>  (1) 
Choline magnesium trisalicylate

>  <CAS_NUMBER>  (1) 
64425-90-7

$$$$
