
     RDKit          3D

 28 32  0  0  0  0  0  0  0  0999 V2000
    1.6295    0.1735   -0.8715 F   0  0  0  0  0  0  0  0  0  0  0  0
    2.7950    0.3796   -0.1760 C   0  0  0  0  0  0  0  0  0  0  0  0
    2.6966    1.6871    0.2443 F   0  0  0  0  0  0  0  0  0  0  0  0
    2.7117   -0.5703    1.1595 C   0  0  0  0  0  0  0  0  0  0  0  0
    2.4410   -1.9697    1.3061 N   0  0  0  0  0  0  0  0  0  0  0  0
    2.7895   -2.2848    2.6337 C   0  0  0  0  0  0  0  0  0  0  0  0
    3.1152   -1.1863    3.2707 N   0  0  0  0  0  0  0  0  0  0  0  0
    3.0034   -0.1277    2.3891 N   0  0  0  0  0  0  0  0  0  0  0  0
    2.8059   -3.6441    3.0569 C   0  0  0  0  0  0  0  0  0  0  0  0
    2.3659   -4.5982    2.2293 C   0  0  0  0  0  0  0  0  0  0  0  0
    1.9555   -4.1468    0.8640 C   0  0  0  0  0  0  0  0  0  0  0  0
    2.0295   -2.9236    0.3915 N   0  0  0  0  0  0  0  0  0  0  0  0
    1.4661   -5.2376   -0.0264 C   0  0  0  0  0  0  0  0  0  0  0  0
    0.3750   -6.0457    0.3058 C   0  0  0  0  0  0  0  0  0  0  0  0
   -0.1160   -6.8927   -0.6775 C   0  0  0  0  0  0  0  0  0  0  0  0
    0.4258   -7.0058   -1.9097 N   0  0  0  0  0  0  0  0  0  0  0  0
    1.5060   -6.2427   -2.1797 C   0  0  0  0  0  0  0  0  0  0  0  0
    2.0615   -5.3557   -1.2782 C   0  0  0  0  0  0  0  0  0  0  0  0
    4.0571    0.2134   -1.1764 C   0  0  0  0  0  0  0  0  0  0  0  0
    5.0655    1.1103   -1.7538 C   0  0  0  0  0  0  0  0  0  0  0  0
    6.3300    0.5446   -2.0413 C   0  0  0  0  0  0  0  0  0  0  0  0
    6.7010   -0.0758   -0.8683 C   0  0  0  0  0  0  0  0  0  0  0  0
    5.7202   -0.9560   -0.4269 C   0  0  0  0  0  0  0  0  0  0  0  0
    4.5363   -1.0729   -1.1420 C   0  0  0  0  0  0  0  0  0  0  0  0
    5.5816   -1.0822    0.9623 C   0  0  0  0  0  0  0  0  0  0  0  0
    6.2458   -0.2497    1.8438 C   0  0  0  0  0  0  0  0  0  0  0  0
    7.2404    0.5140    1.3237 C   0  0  0  0  0  0  0  0  0  0  0  0
    7.5090    0.5948   -0.0133 N   0  0  0  0  0  0  0  0  0  0  0  0
  1  2  1  0
  2  3  1  0
  2  4  1  0
  2 19  1  0
  4  5  1  0
  4  8  2  0
  6  5  1  0
  6  9  1  0
  7  6  2  0
  8  7  1  0
  9 10  2  0
 10 11  1  0
 11 12  2  0
 11 13  1  0
 12  5  1  0
 13 14  2  0
 13 18  1  0
 15 14  1  0
 16 15  2  0
 17 16  1  0
 18 17  2  0
 19 20  2  0
 19 24  1  0
 21 20  1  0
 22 21  2  0
 22 28  1  0
 23 22  1  0
 23 25  1  0
 24 23  2  0
 26 25  2  0
 27 26  1  0
 28 27  2  0
M  END
>  <DRUGBANK_ID>  (1) 
DB16883

>  <COMMON_NAME>  (1) 
JNJ-38877618

>  <CAS_NUMBER>  (1) 
943540-74-7

>  <UNII>  (1) 
E0B2IZB5H5

$$$$
