OA3
     RDKit          3D

 14 15  0  0  0  0  0  0  0  0999 V2000
    1.1702   -0.0748   -0.0846 O   0  0  0  0  0  0  0  0  0  0  0  0
    2.4017   -0.0644   -0.0521 C   0  0  0  0  0  0  0  0  0  0  0  0
    3.2081   -1.3218   -0.1932 C   0  0  0  0  0  0  0  0  0  0  0  0
    4.2378   -1.3785    0.9444 C   0  0  0  0  0  0  0  0  0  0  0  0
    3.5487   -1.2852    2.3249 C   0  0  0  0  0  0  0  0  0  0  0  0
    4.9837   -2.7170    0.8745 C   0  0  0  0  0  0  0  0  0  0  0  0
    5.2179   -0.2001    0.7524 C   0  0  0  0  0  0  0  0  0  0  0  0
    4.5063    1.1201    0.5521 C   0  0  0  0  0  0  0  0  0  0  0  0
    5.2364    2.2351    0.7601 N   0  0  0  0  0  0  0  0  0  0  0  0
    4.5827    3.3993    0.6099 C   0  0  0  0  0  0  0  0  0  0  0  0
    3.2853    3.5513    0.2842 N   0  0  0  0  0  0  0  0  0  0  0  0
    2.5823    2.4271    0.0647 C   0  0  0  0  0  0  0  0  0  0  0  0
    3.1711    1.1772    0.1676 C   0  0  0  0  0  0  0  0  0  0  0  0
    1.2874    2.5704   -0.4199 N   0  0  0  0  0  0  0  0  0  0  0  0
  1  2  2  0
  2  3  1  0
  2 13  1  0
  3  4  1  0
  4  5  1  0
  4  6  1  0
  4  7  1  0
  7  8  1  0
  8  9  1  0
  8 13  2  0
  9 10  2  0
 10 11  1  0
 11 12  2  0
 12 13  1  0
 12 14  1  0
M  END
>  <DRUGBANK_ID>  (1) 
DB08316

>  <COMMON_NAME>  (1) 
4-amino-7,7-dimethyl-7,8-dihydroquinazolin-5(6H)-one

>  <UNII>  (1) 
QZ3DRM9797

$$$$
