
     RDKit          3D

 20 22  0  0  0  0  0  0  0  0999 V2000
    0.9981   -0.0059   -0.1400 C   0  0  0  0  0  0  0  0  0  0  0  0
    4.6593    5.6304    4.0633 C   0  0  0  0  0  0  0  0  0  0  0  0
    4.9235    4.6740    2.8981 C   0  0  0  0  0  0  0  0  0  0  0  0
    3.3164    6.3364    3.9027 C   0  0  0  0  0  0  0  0  0  0  0  0
    3.7298    3.8309    2.5535 C   0  0  0  0  0  0  0  0  0  0  0  0
    2.1665    5.3300    3.8273 C   0  0  0  0  0  0  0  0  0  0  0  0
    1.6272   -0.7972    3.9856 C   0  0  0  0  0  0  0  0  0  0  0  0
    1.1473   -0.5434    2.7006 C   0  0  0  0  0  0  0  0  0  0  0  0
    1.8994    1.5703    4.3311 C   0  0  0  0  0  0  0  0  0  0  0  0
   -0.7450    2.9737    1.5185 C   0  0  0  0  0  0  0  0  0  0  0  0
    2.4932    4.1236    2.9922 C   0  0  0  0  0  0  0  0  0  0  0  0
    2.0099    0.2623    4.7930 C   0  0  0  0  0  0  0  0  0  0  0  0
    1.3955    1.8344    3.0413 C   0  0  0  0  0  0  0  0  0  0  0  0
    1.0182    0.7690    2.2042 C   0  0  0  0  0  0  0  0  0  0  0  0
   -0.3131    1.9668    0.4665 C   0  0  0  0  0  0  0  0  0  0  0  0
    1.3452    3.2543    2.5918 C   0  0  0  0  0  0  0  0  0  0  0  0
    2.6206   -0.0455    6.3697 Cl  0  0  0  0  0  0  0  0  0  0  0  0
    0.3926    3.7977    1.9135 N   0  0  0  0  0  0  0  0  0  0  0  0
    0.5377    0.9393    0.8719 N   0  0  0  0  0  0  0  0  0  0  0  0
   -0.7668    2.0318   -0.6819 O   0  0  0  0  0  0  0  0  0  0  0  0
  3  2  1  0
  4  2  1  0
  5  3  1  0
  6  4  1  0
  8  7  2  0
 11  5  2  0
 11  6  1  0
 12  7  1  0
 12  9  2  0
 13  9  1  0
 14  8  1  0
 14 13  2  0
 15 10  1  0
 16 11  1  0
 16 13  1  0
 17 12  1  0
 18 10  1  0
 18 16  2  0
 19  1  1  0
 19 14  1  0
 19 15  1  0
 20 15  2  0
M  END
>  <DRUGBANK_ID>  (1) 
DB13324

>  <COMMON_NAME>  (1) 
Tetrazepam

>  <CAS_NUMBER>  (1) 
10379-14-3

>  <UNII>  (1) 
FO92091VP8

>  <SYNONYMS>  (1) 
Tetrazepam

$$$$
