1430
     RDKit          3D

 35 38  0  0  0  0  0  0  0  0999 V2000
    2.2254    0.0734   -0.1213 F   0  0  0  0  0  0  0  0  0  0  0  0
   -5.6209   -2.3105    4.7707 F   0  0  0  0  0  0  0  0  0  0  0  0
   -3.8287   -0.6940   -1.2032 N   0  0  0  0  0  0  0  0  0  0  0  0
   -1.6176   -1.4821   -2.8841 N   0  0  0  0  0  0  0  0  0  0  0  0
   -0.9912   -3.1849   -4.1499 N   0  0  0  0  0  0  0  0  0  0  0  0
    0.5143   -1.3952   -3.8842 N   0  0  0  0  0  0  0  0  0  0  0  0
    0.9267   -3.0953   -5.4306 N   0  0  0  0  0  0  0  0  0  0  0  0
   -0.6393   -4.8127   -5.6722 N   0  0  0  0  0  0  0  0  0  0  0  0
    2.4693   -1.3969   -5.1278 N   0  0  0  0  0  0  0  0  0  0  0  0
   -3.4671   -2.1280   -1.3862 C   0  0  0  0  0  0  0  0  0  0  0  0
   -3.4188    0.0343   -2.4422 C   0  0  0  0  0  0  0  0  0  0  0  0
   -3.3941   -0.0466    0.0934 C   0  0  0  0  0  0  0  0  0  0  0  0
   -2.0147   -2.3099   -1.7771 C   0  0  0  0  0  0  0  0  0  0  0  0
   -1.9104   -0.0696   -2.7985 C   0  0  0  0  0  0  0  0  0  0  0  0
   -1.8662    0.0774    0.3951 C   0  0  0  0  0  0  0  0  0  0  0  0
   -4.1026   -0.6259    1.3261 C   0  0  0  0  0  0  0  0  0  0  0  0
   -0.6211   -2.0277   -3.6406 C   0  0  0  0  0  0  0  0  0  0  0  0
   -1.1847    1.2899    0.2052 C   0  0  0  0  0  0  0  0  0  0  0  0
   -3.7103   -0.1536    2.5937 C   0  0  0  0  0  0  0  0  0  0  0  0
   -1.0978   -1.0463    0.7780 C   0  0  0  0  0  0  0  0  0  0  0  0
   -5.0775   -1.6355    1.2611 C   0  0  0  0  0  0  0  0  0  0  0  0
    0.2142    1.2962    0.1159 C   0  0  0  0  0  0  0  0  0  0  0  0
   -4.2145   -0.7254    3.7522 C   0  0  0  0  0  0  0  0  0  0  0  0
    0.2670   -1.0815    0.4715 C   0  0  0  0  0  0  0  0  0  0  0  0
   -5.5596   -2.2305    2.4211 C   0  0  0  0  0  0  0  0  0  0  0  0
    0.9161    0.0964    0.1575 C   0  0  0  0  0  0  0  0  0  0  0  0
   -5.1299   -1.7626    3.6540 C   0  0  0  0  0  0  0  0  0  0  0  0
   -0.2066   -3.6637   -5.0854 C   0  0  0  0  0  0  0  0  0  0  0  0
    1.2826   -1.9924   -4.7927 C   0  0  0  0  0  0  0  0  0  0  0  0
    0.0032   -5.3013   -6.8514 C   0  0  0  0  0  0  0  0  0  0  0  0
    3.3297   -1.9787   -6.1252 C   0  0  0  0  0  0  0  0  0  0  0  0
    0.3572   -6.7251   -6.5701 C   0  0  0  0  0  0  0  0  0  0  0  0
    3.6352   -0.9099   -7.1305 C   0  0  0  0  0  0  0  0  0  0  0  0
   -0.0220   -7.7544   -7.3358 C   0  0  0  0  0  0  0  0  0  0  0  0
    4.8724   -0.5315   -7.4770 C   0  0  0  0  0  0  0  0  0  0  0  0
  1 26  1  0
  2 27  1  0
  3 10  1  0
  3 11  1  0
  3 12  1  0
  4 13  1  0
  4 14  1  0
  4 17  1  0
  5 17  2  0
  5 28  1  0
  6 17  1  0
  6 29  2  0
  7 28  2  0
  7 29  1  0
  8 28  1  0
  8 30  1  0
  9 29  1  0
  9 31  1  0
 10 13  1  0
 11 14  1  0
 12 15  1  0
 12 16  1  0
 15 18  2  0
 15 20  1  0
 16 19  2  0
 16 21  1  0
 18 22  1  0
 19 23  1  0
 20 24  2  0
 21 25  2  0
 22 26  2  0
 23 27  2  0
 24 26  1  0
 25 27  1  0
 30 32  1  0
 31 33  1  0
 32 34  2  0
 33 35  2  0
M  END
>  <DRUGBANK_ID>  (1) 
DB01430

>  <COMMON_NAME>  (1) 
Almitrine

>  <CAS_NUMBER>  (1) 
27469-53-0

>  <UNII>  (1) 
9A1222NBG4

>  <SYNONYMS>  (1) 
2,4-Bis(allylamino)-6-(4-(bis(p-fluorophenyl)methyl)-1-piperazinyl)-s-triazine; Almitrina; Almitrine; Almitrinum

$$$$
