
     RDKit          3D

 10  9  0  0  0  0  0  0  0  0999 V2000
    0.9829    0.1284   -0.0578 C   0  0  0  0  0  0  0  0  0  0  0  0
    0.5549   -4.4001   -0.8430 C   0  0  0  0  0  0  0  0  0  0  0  0
    1.8797   -4.8307   -1.0853 O   0  0  0  0  0  0  0  0  0  0  0  0
    0.6241    0.6084    1.2339 O   0  0  0  0  0  0  0  0  0  0  0  0
    1.1367   -2.3253    0.5603 N   0  0  0  0  0  0  0  0  0  0  0  0
    0.4875   -3.6517    0.4968 C   0  0  0  0  0  0  0  0  0  0  0  0
    2.6044   -2.2571    0.7167 C   0  0  0  0  0  0  0  0  0  0  0  0
    3.5856   -2.3891   -0.4790 C   0  0  0  0  0  0  0  0  0  0  0  0
    3.1014   -1.8025   -1.6812 O   0  0  0  0  0  0  0  0  0  0  0  0
    0.4648   -1.3040   -0.2561 C   0  0  0  0  0  0  0  0  0  0  0  0
  3  2  1  0
  4  1  1  0
  5  6  1  0
  5  7  1  0
  5 10  1  0
  6  2  1  0
  7  8  1  0
  8  9  1  0
 10  1  1  0
M  END
>  <DRUGBANK_ID>  (1) 
DB13747

>  <COMMON_NAME>  (1) 
Trolamine

>  <CAS_NUMBER>  (1) 
102-71-6

>  <UNII>  (1) 
9O3K93S3TK

>  <SYNONYMS>  (1) 
2,2',2''-nitrilotris(ethanol); nitrilo-2,2',2''-triethanol; nitrilotriethanol; triethanolamine; tris(2-hydroxyethyl)amine; tris(Î²-hydroxyethyl)amine; Trolamine

$$$$
