
     RDKit          3D

 22 23  0  0  0  0  0  0  0  0999 V2000
    0.8906   -0.0543    0.0577 C   0  0  0  0  0  0  0  0  0  0  0  0
    4.8601   -2.8447    1.6044 C   0  0  0  0  0  0  0  0  0  0  0  0
   -1.9713   -4.5941    3.2332 C   0  0  0  0  0  0  0  0  0  0  0  0
    1.5453  -10.9820    2.9606 C   0  0  0  0  0  0  0  0  0  0  0  0
    2.9147  -11.6213    2.8257 C   0  0  0  0  0  0  0  0  0  0  0  0
    3.8430   -7.1647    3.1308 C   0  0  0  0  0  0  0  0  0  0  0  0
    3.2878   -6.4643    1.8955 C   0  0  0  0  0  0  0  0  0  0  0  0
    1.6597   -9.7935    2.0382 C   0  0  0  0  0  0  0  0  0  0  0  0
    3.8637  -10.4672    2.5295 C   0  0  0  0  0  0  0  0  0  0  0  0
    3.0299   -8.4056    3.4852 C   0  0  0  0  0  0  0  0  0  0  0  0
    2.1188   -2.2215    1.4554 C   0  0  0  0  0  0  0  0  0  0  0  0
   -0.1570   -2.7625    2.0501 C   0  0  0  0  0  0  0  0  0  0  0  0
    0.7770   -1.8677    1.5355 C   0  0  0  0  0  0  0  0  0  0  0  0
    1.8985   -5.9183    2.1739 C   0  0  0  0  0  0  0  0  0  0  0  0
    2.5414   -3.4877    1.8359 C   0  0  0  0  0  0  0  0  0  0  0  0
    0.2287   -4.0593    2.3847 C   0  0  0  0  0  0  0  0  0  0  0  0
    1.5782   -4.4570    2.1750 C   0  0  0  0  0  0  0  0  0  0  0  0
    3.0162   -9.2907    2.3093 N   0  0  0  0  0  0  0  0  0  0  0  0
    0.9680   -6.7227    2.3153 O   0  0  0  0  0  0  0  0  0  0  0  0
    0.3290   -0.6092    1.2450 O   0  0  0  0  0  0  0  0  0  0  0  0
    3.8648   -3.7887    1.9713 O   0  0  0  0  0  0  0  0  0  0  0  0
   -0.6327   -4.9668    2.9482 O   0  0  0  0  0  0  0  0  0  0  0  0
  5  4  1  0
  7  6  1  0
  8  4  1  0
  9  5  1  0
 10  6  1  0
 13 11  2  0
 13 12  1  0
 14  7  1  0
 15 11  1  0
 16 12  2  0
 17 14  1  0
 17 15  2  0
 17 16  1  0
 18  8  1  0
 18  9  1  0
 18 10  1  0
 19 14  2  0
 20  1  1  0
 20 13  1  0
 21  2  1  0
 21 15  1  0
 22  3  1  0
 22 16  1  0
M  END
>  <DRUGBANK_ID>  (1) 
DB13510

>  <COMMON_NAME>  (1) 
Buflomedil

>  <CAS_NUMBER>  (1) 
55837-25-7

>  <UNII>  (1) 
V7I71DQ432

>  <SYNONYMS>  (1) 
Buflomedil

$$$$
