822
     RDKit          3D

 16 15  0  0  0  0  0  0  0  0999 V2000
    0.9411   -0.0472    0.0792 S   0  0  0  0  0  0  0  0  0  0  0  0
    0.0438    0.1634    1.8903 S   0  0  0  0  0  0  0  0  0  0  0  0
    3.3659    0.5294   -1.3999 S   0  0  0  0  0  0  0  0  0  0  0  0
   -2.4854   -0.3785    0.3670 S   0  0  0  0  0  0  0  0  0  0  0  0
    3.5344   -0.0142    1.2909 N   0  0  0  0  0  0  0  0  0  0  0  0
   -2.2926   -0.1339    3.1190 N   0  0  0  0  0  0  0  0  0  0  0  0
    3.0977   -0.0968    2.6790 C   0  0  0  0  0  0  0  0  0  0  0  0
    5.0153   -0.0030    1.1948 C   0  0  0  0  0  0  0  0  0  0  0  0
   -1.5758   -0.2140    4.4278 C   0  0  0  0  0  0  0  0  0  0  0  0
   -3.7577   -0.1281    3.2186 C   0  0  0  0  0  0  0  0  0  0  0  0
    3.3019   -1.4530    3.3207 C   0  0  0  0  0  0  0  0  0  0  0  0
    5.5982   -1.2423    0.5294 C   0  0  0  0  0  0  0  0  0  0  0  0
   -1.8745    0.9447    5.3773 C   0  0  0  0  0  0  0  0  0  0  0  0
   -4.3509    1.2014    2.7664 C   0  0  0  0  0  0  0  0  0  0  0  0
    2.7195    0.1686    0.1387 C   0  0  0  0  0  0  0  0  0  0  0  0
   -1.6747   -0.1591    1.8323 C   0  0  0  0  0  0  0  0  0  0  0  0
  1  2  1  0
  1 15  1  0
  2 16  1  0
  3 15  2  0
  4 16  2  0
  5  7  1  0
  5  8  1  0
  5 15  1  0
  6  9  1  0
  6 10  1  0
  6 16  1  0
  7 11  1  0
  8 12  1  0
  9 13  1  0
 10 14  1  0
M  END
>  <DRUGBANK_ID>  (1) 
DB00822

>  <SECONDARY_ACCESSION_NUMBERS>  (1) 
APRD00767

>  <COMMON_NAME>  (1) 
Disulfiram

>  <CAS_NUMBER>  (1) 
97-77-8

>  <UNII>  (1) 
TR3MLJ1UAI

>  <SYNONYMS>  (1) 
1,1'-dithiobis(N,N-diethylthioformamide); bis(diethylthiocarbamoyl) disulfide; Disulfiram; N,N,N',N'-tetraethylthiuram disulfide; Tetraethylthioperoxydicarbonic diamide; Tetraethylthiuram disulfide; Tetraethylthiuram disulphide

$$$$
