
     RDKit          3D

 31 32  0  0  0  0  0  0  0  0999 V2000
    1.3256   -0.1706    0.3190 C   0  0  0  0  0  0  0  0  0  0  0  0
    0.5483   -1.3252    0.0637 C   0  0  0  0  0  0  0  0  0  0  0  0
    1.0719   -2.6480    0.0872 N   0  0  0  0  0  0  0  0  0  0  0  0
    2.2642   -3.0124   -0.2675 C   0  0  0  0  0  0  0  0  0  0  0  0
    3.1503   -2.1295   -0.8283 N   0  0  0  0  0  0  0  0  0  0  0  0
    4.4310   -1.9245   -0.5632 C   0  0  0  0  0  0  0  0  0  0  0  0
    4.5931   -0.5672   -0.5828 O   0  0  0  0  0  0  0  0  0  0  0  0
    4.6084    1.2690   -0.7135 C   0  0  0  0  0  0  0  0  0  0  0  0
    5.2454   -2.8053   -0.2152 O   0  0  0  0  0  0  0  0  0  0  0  0
    2.7190   -4.2958   -0.1253 N   0  0  0  0  0  0  0  0  0  0  0  0
    1.8674   -5.3787   -0.1358 C   0  0  0  0  0  0  0  0  0  0  0  0
    2.4465   -6.6122   -0.1845 O   0  0  0  0  0  0  0  0  0  0  0  0
    3.8575   -6.8414   -0.2108 C   0  0  0  0  0  0  0  0  0  0  0  0
    0.6451   -5.3086   -0.1428 O   0  0  0  0  0  0  0  0  0  0  0  0
   -0.8374   -1.1488   -0.0788 C   0  0  0  0  0  0  0  0  0  0  0  0
   -1.4127    0.1304   -0.0836 C   0  0  0  0  0  0  0  0  0  0  0  0
   -0.6045    1.2597   -0.0158 C   0  0  0  0  0  0  0  0  0  0  0  0
    0.7837    1.0876    0.0223 C   0  0  0  0  0  0  0  0  0  0  0  0
   -1.1913    2.9230    0.2436 S   0  0  0  0  0  0  0  0  0  0  0  0
   -2.9363    2.7882    0.5455 C   0  0  0  0  0  0  0  0  0  0  0  0
   -3.4947    2.0011    1.5614 C   0  0  0  0  0  0  0  0  0  0  0  0
   -4.8768    1.9891    1.7632 C   0  0  0  0  0  0  0  0  0  0  0  0
   -5.6971    2.8102    0.9923 C   0  0  0  0  0  0  0  0  0  0  0  0
   -5.1390    3.6382    0.0212 C   0  0  0  0  0  0  0  0  0  0  0  0
   -3.7725    3.5830   -0.2399 C   0  0  0  0  0  0  0  0  0  0  0  0
    2.6301   -0.3890    0.9367 N   0  0  0  0  0  0  0  0  0  0  0  0
    3.6130    0.5353    1.2914 C   0  0  0  0  0  0  0  0  0  0  0  0
    5.4742    0.0721    1.1385 C   0  0  0  0  0  0  0  0  0  0  0  0
    6.5569    0.0861   -0.2958 O   0  0  0  0  0  0  0  0  0  0  0  0
    6.1201   -0.0124   -1.9974 C   0  0  0  0  0  0  0  0  0  0  0  0
    3.2099    1.7141    1.3397 O   0  0  0  0  0  0  0  0  0  0  0  0
  1  2  2  0
  1 18  1  0
  1 26  1  0
  2  3  1  0
  2 15  1  0
  3  4  2  3
  4  5  1  0
  4 10  1  0
  5  6  1  0
  6  7  1  0
  6  9  2  0
  7  8  1  0
 10 11  1  0
 11 12  1  0
 11 14  2  0
 12 13  1  0
 15 16  2  0
 16 17  1  0
 17 18  2  0
 17 19  1  0
 19 20  1  0
 20 21  2  0
 20 25  1  0
 21 22  1  0
 22 23  2  0
 23 24  1  0
 24 25  2  0
 26 27  1  0
 27 28  1  0
 27 31  2  0
 28 29  1  0
 29 30  1  0
M  END
>  <DRUGBANK_ID>  (1) 
DB11409

>  <COMMON_NAME>  (1) 
Febantel

>  <CAS_NUMBER>  (1) 
58306-30-2

>  <UNII>  (1) 
S75C401OS1

>  <SYNONYMS>  (1) 
Febantel; Febantelum

$$$$
