
     RDKit          3D

 22 23  0  0  1  0  0  0  0  0999 V2000
    0.9745   -0.0771    0.0178 C   0  0  0  0  0  0  0  0  0  0  0  0
    0.5660   -0.7294    1.3386 C   0  0  1  0  0  0  0  0  0  0  0  0
    1.2466    0.1293    2.4196 C   0  0  0  0  0  0  0  0  0  0  0  0
    0.7869    1.1711    2.8833 O   0  0  0  0  0  0  0  0  0  0  0  0
    2.5299   -0.1778    2.7605 N   0  0  0  0  0  0  0  0  0  0  0  0
   -0.9128   -0.7510    1.3819 N   0  0  0  0  0  0  0  0  0  0  0  0
   -1.5080   -1.4190    2.5458 C   0  0  0  0  0  0  0  0  0  0  0  0
   -1.3558   -0.6808    3.8500 C   0  0  0  0  0  0  0  0  0  0  0  0
   -1.6320    0.6911    3.9010 C   0  0  0  0  0  0  0  0  0  0  0  0
   -1.3554    1.4323    5.0407 C   0  0  0  0  0  0  0  0  0  0  0  0
   -0.8978    0.8022    6.1924 C   0  0  0  0  0  0  0  0  0  0  0  0
   -0.7204   -0.5840    6.1902 C   0  0  0  0  0  0  0  0  0  0  0  0
   -0.8952   -1.3161    5.0097 C   0  0  0  0  0  0  0  0  0  0  0  0
   -0.4655    1.4577    7.3167 O   0  0  0  0  0  0  0  0  0  0  0  0
   -0.3223    2.8815    7.2201 C   0  0  0  0  0  0  0  0  0  0  0  0
    0.7396    3.4192    6.2750 C   0  0  0  0  0  0  0  0  0  0  0  0
    0.7454    4.7943    5.9770 C   0  0  0  0  0  0  0  0  0  0  0  0
    1.6807    5.3310    5.0851 C   0  0  0  0  0  0  0  0  0  0  0  0
    2.6244    4.5068    4.4776 C   0  0  0  0  0  0  0  0  0  0  0  0
    2.6484    3.1528    4.7838 C   0  0  0  0  0  0  0  0  0  0  0  0
    1.7152    2.6191    5.6678 C   0  0  0  0  0  0  0  0  0  0  0  0
    1.7820    1.3003    5.8917 F   0  0  0  0  0  0  0  0  0  0  0  0
  2  1  1  6
  2  3  1  0
  2  6  1  0
  3  4  2  0
  3  5  1  0
  6  7  1  0
  7  8  1  0
  8  9  2  0
  8 13  1  0
  9 10  1  0
 10 11  2  0
 11 12  1  0
 11 14  1  0
 12 13  2  0
 14 15  1  0
 15 16  1  0
 16 17  2  0
 16 21  1  0
 17 18  1  0
 18 19  2  0
 19 20  1  0
 20 21  2  0
 21 22  1  0
M  END
>  <DRUGBANK_ID>  (1) 
DB06649

>  <COMMON_NAME>  (1) 
Priralfinamide

>  <CAS_NUMBER>  (1) 
133865-88-0

>  <UNII>  (1) 
3LPF0S0GVV

>  <SYNONYMS>  (1) 
Priralfinamide; Ralfinamide

$$$$
