790
     RDKit          3D

 15 16  0  0  0  0  0  0  0  0999 V2000
   -2.5472   -0.8979   -0.2407 C   0  0  0  0  0  0  0  0  0  0  0  0
   -1.2575   -1.6630    0.0730 C   0  0  0  0  0  0  0  0  0  0  0  0
    0.0016   -0.8135    0.0587 C   0  0  0  0  0  0  0  0  0  0  0  0
   -0.0858    0.5774    0.0704 C   0  0  0  0  0  0  0  0  0  0  0  0
   -1.4014    1.1283   -0.1017 N   0  0  0  0  0  0  0  0  0  0  0  0
   -2.5117    0.4030    0.4835 C   0  0  0  0  0  0  0  0  0  0  0  0
    1.2656   -1.4368    0.0640 C   0  0  0  0  0  0  0  0  0  0  0  0
    2.4337   -0.6681    0.0389 C   0  0  0  0  0  0  0  0  0  0  0  0
    2.3732    0.7183    0.0076 C   0  0  0  0  0  0  0  0  0  0  0  0
    1.1232    1.3661    0.0063 C   0  0  0  0  0  0  0  0  0  0  0  0
    1.2171    2.7684   -0.0771 O   0  0  0  0  0  0  0  0  0  0  0  0
   -0.2894    3.6177   -0.1219 P   0  0  0  0  0  0  0  0  0  0  0  0
   -0.7364    2.9405   -1.5333 O   0  0  0  0  0  0  0  0  0  0  0  0
   -0.8180    3.0714    1.2006 O   0  0  0  0  0  0  0  0  0  0  0  0
   -1.7958    4.4671   -0.1666 O   0  0  0  0  0  0  0  0  0  0  0  0
  1  2  1  0
  1  6  1  0
  2  3  1  0
  3  4  2  0
  3  7  1  0
  4  5  1  0
  4 10  1  0
  5  6  1  0
  7  8  2  0
  8  9  1  0
  9 10  2  0
 10 11  1  0
 11 12  1  0
 12 13  1  0
 12 14  2  0
 12 15  1  0
M  END
>  <DRUGBANK_ID>  (1) 
DB03525

>  <SECONDARY_ACCESSION_NUMBERS>  (1) 
EXPT00304

>  <COMMON_NAME>  (1) 
RU79073

$$$$
