NN4
     RDKit          3D

 28 31  0  0  0  0  0  0  0  0999 V2000
    1.1505   -1.2480   -0.3113 C   0  0  0  0  0  0  0  0  0  0  0  0
    0.9785    0.0050   -1.2000 C   0  0  1  0  0  0  0  0  0  0  0  0
   -0.5352    0.0209   -1.8915 C   0  0  0  0  0  0  0  0  0  0  0  0
   -1.2662    1.3590   -0.0477 C   0  0  0  0  0  0  0  0  0  0  0  0
   -0.0056   -0.0179    1.5941 C   0  0  0  0  0  0  0  0  0  0  0  0
    0.0157    1.2667    0.7433 C   0  0  1  0  0  0  0  0  0  0  0  0
    3.3610    2.3172    0.3453 C   0  0  0  0  0  0  0  0  0  0  0  0
    5.7921    2.7043    0.7577 C   0  0  0  0  0  0  0  0  0  0  0  0
    4.2793    5.0925    1.7284 C   0  0  0  0  0  0  0  0  0  0  0  0
    5.0092    6.1606    2.2618 C   0  0  0  0  0  0  0  0  0  0  0  0
    4.0806    7.6868    0.5893 C   0  0  0  0  0  0  0  0  0  0  0  0
    3.4078    5.3774    0.6914 C   0  0  0  0  0  0  0  0  0  0  0  0
    3.3365    9.0972   -1.1637 C   0  0  0  0  0  0  0  0  0  0  0  0
    3.3443    2.9271   -0.7273 O   0  0  0  0  0  0  0  0  0  0  0  0
    2.4274    1.3211    0.5438 N   0  0  0  0  0  0  0  0  0  0  0  0
    1.1796    1.2440   -0.2538 C   0  0  1  0  0  0  0  0  0  0  0  0
    0.0186   -1.2823    0.7170 C   0  0  1  0  0  0  0  0  0  0  0  0
   -1.2720   -1.3541   -0.0628 C   0  0  0  0  0  0  0  0  0  0  0  0
   -1.5892    0.0088   -0.7379 C   0  0  2  0  0  0  0  0  0  0  0  0
   -3.1406    0.0084   -0.7447 C   0  0  0  0  0  0  0  0  0  0  0  0
   -3.8614    0.0057   -1.7137 O   0  0  0  0  0  0  0  0  0  0  0  0
   -3.6650    0.0053    0.5565 N   0  0  0  0  0  0  0  0  0  0  0  0
    4.4363    2.6610    1.4875 C   0  0  0  0  0  0  0  0  0  0  0  0
    4.5198    1.4906    2.4970 C   0  0  0  0  0  0  0  0  0  0  0  0
    4.3422    3.8528    2.3141 O   0  0  0  0  0  0  0  0  0  0  0  0
    3.3576    6.6245    0.0768 C   0  0  0  0  0  0  0  0  0  0  0  0
    4.0542    8.9527    0.0670 O   0  0  0  0  0  0  0  0  0  0  0  0
    4.8645    7.4626    1.7262 C   0  0  0  0  0  0  0  0  0  0  0  0
 17  1  1  6
  2  1  1  1
  2 16  1  0
  2  3  1  0
  3 19  1  0
  6  4  1  6
  4 19  1  0
  5 17  1  0
  5  6  1  0
  6 16  1  0
  7 23  1  0
  7 15  1  0
  7 14  2  0
  8 23  1  0
  9 12  1  0
  9 10  2  0
  9 25  1  0
 10 28  1  0
 11 27  1  0
 11 26  1  0
 11 28  2  0
 12 26  2  0
 13 27  1  0
 16 15  1  1
 17 18  1  0
 18 19  1  0
 19 20  1  6
 20 21  2  0
 20 22  1  0
 23 25  1  0
 23 24  1  0
M  END
>  <DRUGBANK_ID>  (1) 
DB08280

>  <COMMON_NAME>  (1) 
(1S,3R,4S,5S,7S)-4-{[2-(4-METHOXYPHENOXY)-2-METHYLPROPANOYL]AMINO}ADAMANTANE-1-CARBOXAMIDE

$$$$
