
     RDKit          3D

 17 19  0  0  0  0  0  0  0  0999 V2000
    2.4353    0.0016    0.0562 C   0  0  0  0  0  0  0  0  0  0  0  0
    1.0205   -0.0002   -0.2987 N   0  0  0  0  0  0  0  0  0  0  0  0
    0.3394   -1.1948    0.2557 C   0  0  0  0  0  0  0  0  0  0  0  0
   -1.1451   -1.2424   -0.1700 C   0  0  0  0  0  0  0  0  0  0  0  0
   -1.8291   -0.0010    0.2160 N   0  0  0  0  0  0  0  0  0  0  0  0
   -1.1659    1.2448   -0.1794 C   0  0  0  0  0  0  0  0  0  0  0  0
    0.3314    1.1987    0.2360 C   0  0  0  0  0  0  0  0  0  0  0  0
   -3.0757   -0.0291    0.7907 C   0  0  0  0  0  0  0  0  0  0  0  0
   -4.1978    0.5833    0.2074 C   0  0  0  0  0  0  0  0  0  0  0  0
   -5.4777    0.5479    0.8177 C   0  0  0  0  0  0  0  0  0  0  0  0
   -5.6718   -0.0868    2.0456 C   0  0  0  0  0  0  0  0  0  0  0  0
   -4.5643   -0.6752    2.6037 C   0  0  0  0  0  0  0  0  0  0  0  0
   -3.3177   -0.6612    2.0035 C   0  0  0  0  0  0  0  0  0  0  0  0
   -2.3615   -1.3102    2.7820 O   0  0  0  0  0  0  0  0  0  0  0  0
   -3.1038   -1.7357    3.8861 C   0  0  0  0  0  0  0  0  0  0  0  0
   -2.6350   -2.3696    4.8181 O   0  0  0  0  0  0  0  0  0  0  0  0
   -4.4202   -1.3526    3.7802 N   0  0  0  0  0  0  0  0  0  0  0  0
  1  2  1  0
  2  3  1  0
  2  7  1  0
  3  4  1  0
  4  5  1  0
  5  6  1  0
  5  8  1  0
  6  7  1  0
  8  9  2  0
  8 13  1  0
  9 10  1  0
 10 11  2  0
 11 12  1  0
 12 13  2  0
 12 17  1  0
 13 14  1  0
 14 15  1  0
 15 16  2  0
 15 17  1  0
M  END
>  <DRUGBANK_ID>  (1) 
DB12061

>  <SECONDARY_ACCESSION_NUMBERS>  (1) 
DB05280

>  <COMMON_NAME>  (1) 
Pardoprunox

>  <CAS_NUMBER>  (1) 
269718-84-5

>  <UNII>  (1) 
5R72CHP32S

>  <SYNONYMS>  (1) 
Pardoprunox

$$$$
