
     RDKit          3D

 26 29  0  0  1  0  0  0  0  0999 V2000
    0.9090    0.0191    0.0662 C   0  0  0  0  0  0  0  0  0  0  0  0
    0.3927    0.2971   -1.3179 C   0  0  0  0  0  0  0  0  0  0  0  0
   -0.0403   -0.7580   -2.1394 C   0  0  0  0  0  0  0  0  0  0  0  0
   -0.4824   -0.5342   -3.4391 C   0  0  0  0  0  0  0  0  0  0  0  0
   -0.4847    0.7599   -3.9378 C   0  0  0  0  0  0  0  0  0  0  0  0
   -0.0349    1.8315   -3.1472 C   0  0  0  0  0  0  0  0  0  0  0  0
    0.4092    1.6051   -1.8394 C   0  0  0  0  0  0  0  0  0  0  0  0
    0.8704    2.6068   -1.0211 O   0  0  0  0  0  0  0  0  0  0  0  0
    1.1414    3.8892   -1.6085 C   0  0  0  0  0  0  0  0  0  0  0  0
    0.1308    4.2989   -2.6847 C   0  0  2  0  0  0  0  0  0  0  0  0
    0.0771    3.1924   -3.7864 C   0  0  1  0  0  0  0  0  0  0  0  0
    1.2526    3.1889   -4.7722 C   0  0  0  0  0  0  0  0  0  0  0  0
    2.5642    2.8781   -4.3524 C   0  0  0  0  0  0  0  0  0  0  0  0
    3.6630    3.1999   -5.1444 C   0  0  0  0  0  0  0  0  0  0  0  0
    3.4503    3.8135   -6.3712 C   0  0  0  0  0  0  0  0  0  0  0  0
    2.1630    4.0665   -6.8338 C   0  0  0  0  0  0  0  0  0  0  0  0
    1.0593    3.6890   -6.0683 C   0  0  0  0  0  0  0  0  0  0  0  0
    4.5018    4.1905   -7.1506 O   0  0  0  0  0  0  0  0  0  0  0  0
    0.3663    5.7271   -3.1771 C   0  0  0  0  0  0  0  0  0  0  0  0
    1.4934    6.0577   -3.9474 C   0  0  0  0  0  0  0  0  0  0  0  0
    1.6902    7.3205   -4.4882 C   0  0  0  0  0  0  0  0  0  0  0  0
    0.8860    8.3451   -4.0601 C   0  0  0  0  0  0  0  0  0  0  0  0
   -0.1670    8.0948   -3.1817 C   0  0  0  0  0  0  0  0  0  0  0  0
   -0.4878    6.7741   -2.8303 C   0  0  0  0  0  0  0  0  0  0  0  0
    1.1124    9.6227   -4.4732 O   0  0  0  0  0  0  0  0  0  0  0  0
   -0.0166   -2.0365   -1.6526 O   0  0  0  0  0  0  0  0  0  0  0  0
  1  2  1  0
  2  3  2  0
  2  7  1  0
  3  4  1  0
  3 26  1  0
  4  5  2  0
  5  6  1  0
  6  7  2  0
  6 11  1  0
  7  8  1  0
  8  9  1  0
  9 10  1  0
 10 11  1  0
 10 19  1  6
 11 12  1  1
 12 13  2  0
 12 17  1  0
 13 14  1  0
 14 15  2  0
 15 16  1  0
 15 18  1  0
 16 17  2  0
 19 20  2  0
 19 24  1  0
 20 21  1  0
 21 22  2  0
 22 23  1  0
 22 25  1  0
 23 24  2  0
M  END
>  <DRUGBANK_ID>  (1) 
DB13062

>  <COMMON_NAME>  (1) 
ME-344

>  <CAS_NUMBER>  (1) 
1374524-68-1

>  <UNII>  (1) 
843G0TDV51

$$$$
