
     RDKit          3D

 19 22  0  0  0  0  0  0  0  0999 V2000
    1.7927    1.0483    0.0497 C   0  0  0  0  0  0  0  0  0  0  0  0
    2.1284   -0.3098    0.0036 C   0  0  0  0  0  0  0  0  0  0  0  0
    0.4237    1.4690    0.2231 C   0  0  0  0  0  0  0  0  0  0  0  0
    1.0988   -1.2397   -0.0324 C   0  0  0  0  0  0  0  0  0  0  0  0
   -5.5838    0.2855    3.4886 C   0  0  0  0  0  0  0  0  0  0  0  0
   -4.7840   -0.7909    3.1675 C   0  0  0  0  0  0  0  0  0  0  0  0
   -5.2940    0.8014    1.1505 C   0  0  0  0  0  0  0  0  0  0  0  0
   -3.9260   -1.0930   -0.1976 C   0  0  0  0  0  0  0  0  0  0  0  0
   -4.6688   -0.4455    0.9535 C   0  0  0  0  0  0  0  0  0  0  0  0
   -5.5851    1.2371    2.4990 C   0  0  0  0  0  0  0  0  0  0  0  0
   -0.5973    0.5005    0.3619 C   0  0  0  0  0  0  0  0  0  0  0  0
   -0.2205   -0.7932    0.0468 C   0  0  0  0  0  0  0  0  0  0  0  0
   -3.9245   -0.6375    2.0596 C   0  0  0  0  0  0  0  0  0  0  0  0
   -2.0707    0.2163    0.7447 C   0  0  0  0  0  0  0  0  0  0  0  0
   -1.4463   -1.5725   -0.1634 C   0  0  0  0  0  0  0  0  0  0  0  0
   -5.6955    2.5891    2.8690 N   0  0  0  0  0  0  0  0  0  0  0  0
   -2.6958    0.2875    1.9169 N   0  0  0  0  0  0  0  0  0  0  0  0
   -2.4983   -0.7046   -0.1693 N   0  0  0  0  0  0  0  0  0  0  0  0
   -1.4289   -2.8017   -0.1501 O   0  0  0  0  0  0  0  0  0  0  0  0
  2  1  2  0
  3  1  1  0
  4  2  1  0
  6  5  1  0
  9  7  2  0
  9  8  1  0
 10  5  2  0
 10  7  1  0
 11  3  2  0
 12  4  2  0
 12 11  1  0
 13  6  2  0
 13  9  1  0
 14 11  1  0
 15 12  1  0
 16 10  1  0
 17 13  1  0
 17 14  2  0
 18  8  1  0
 18 14  1  0
 18 15  1  0
 19 15  2  0
M  END
>  <DRUGBANK_ID>  (1) 
DB12804

>  <COMMON_NAME>  (1) 
Daniquidone

>  <CAS_NUMBER>  (1) 
67199-66-0

>  <UNII>  (1) 
E780TX33D2

>  <SYNONYMS>  (1) 
Batracylin; Daniquidone

$$$$
