
     RDKit          3D

 26 28  0  0  0  0  0  0  0  0999 V2000
   -3.6947   -2.1256   -1.4337 C   0  0  0  0  0  0  0  0  0  0  0  0
   -4.0644   -2.7774   -2.5988 C   0  0  0  0  0  0  0  0  0  0  0  0
   -4.6078   -2.0393   -3.6334 C   0  0  0  0  0  0  0  0  0  0  0  0
   -4.8111   -0.6669   -3.5079 C   0  0  0  0  0  0  0  0  0  0  0  0
   -4.4617   -0.0115   -2.3213 C   0  0  0  0  0  0  0  0  0  0  0  0
   -3.8938   -0.7416   -1.2655 C   0  0  0  0  0  0  0  0  0  0  0  0
   -4.9251   -2.6588   -4.7762 F   0  0  0  0  0  0  0  0  0  0  0  0
   -3.4623   -0.0875    0.0410 C   0  0  1  0  0  0  0  0  0  0  0  0
   -4.2036   -0.7186    1.2505 C   0  0  0  0  0  0  0  0  0  0  0  0
   -4.7481   -0.0973    2.1526 O   0  0  0  0  0  0  0  0  0  0  0  0
   -4.0685   -2.0669    1.3466 O   0  0  0  0  0  0  0  0  0  0  0  0
   -1.9775   -0.1576    0.1088 N   0  0  0  0  0  0  0  0  0  0  0  0
   -1.2337   -0.1158    1.2557 C   0  0  0  0  0  0  0  0  0  0  0  0
   -1.5612   -1.3161    2.4624 S   0  0  0  0  0  0  0  0  0  0  0  0
   -0.3508   -0.7090    3.4917 C   0  0  0  0  0  0  0  0  0  0  0  0
    0.3371    0.4020    2.7658 C   0  0  0  0  0  0  0  0  0  0  0  0
   -0.2221    0.6460    1.5130 N   0  0  0  0  0  0  0  0  0  0  0  0
    1.2941    1.0077    3.2411 O   0  0  0  0  0  0  0  0  0  0  0  0
   -0.1012   -1.1805    4.7253 C   0  0  0  0  0  0  0  0  0  0  0  0
   -0.8394   -2.2955    5.2543 C   0  0  0  0  0  0  0  0  0  0  0  0
   -0.9454   -3.5795    4.7202 C   0  0  0  0  0  0  0  0  0  0  0  0
   -1.8685   -4.3113    5.4876 C   0  0  0  0  0  0  0  0  0  0  0  0
   -2.2700   -3.4765    6.4998 C   0  0  0  0  0  0  0  0  0  0  0  0
   -1.6505   -2.2604    6.3811 O   0  0  0  0  0  0  0  0  0  0  0  0
   -3.2296   -3.7111    7.6134 C   0  0  0  0  0  0  0  0  0  0  0  0
   -2.5706   -3.6339    8.9766 C   0  0  0  0  0  0  0  0  0  0  0  0
  1  2  2  0
  1  6  1  0
  2  3  1  0
  3  4  2  0
  3  7  1  0
  4  5  1  0
  5  6  2  0
  8  9  1  0
  8 12  1  1
  8  6  1  0
  9 10  2  0
  9 11  1  0
 13 12  1  0
 13 14  1  0
 13 17  2  0
 15 14  1  0
 15 19  2  0
 15 16  1  0
 16 17  1  0
 16 18  2  0
 19 20  1  0
 20 21  2  0
 20 24  1  0
 21 22  1  0
 22 23  2  0
 23 25  1  0
 23 24  1  0
 25 26  1  0
M  END
>  <DRUGBANK_ID>  (1) 
DB08706

>  <COMMON_NAME>  (1) 
(2S)-({(5Z)-5-[(5-Ethyl-2-furyl)methylene]-4-oxo-4,5-dihydro-1,3-thiazol-2-yl}amino)(4-fluorophenyl)acetic acid

$$$$
