
     RDKit          3D

 10 11  0  0  0  0  0  0  0  0999 V2000
   -1.3432    1.3005   -0.0034 N   0  0  0  0  0  0  0  0  0  0  0  0
    0.1424   -1.8835    0.0032 N   0  0  0  0  0  0  0  0  0  0  0  0
    1.9631   -0.2877    0.0002 N   0  0  0  0  0  0  0  0  0  0  0  0
    1.6436    2.0263   -0.0039 N   0  0  0  0  0  0  0  0  0  0  0  0
   -0.2364    0.4892   -0.0018 C   0  0  0  0  0  0  0  0  0  0  0  0
   -0.6895   -0.8219    0.0024 C   0  0  0  0  0  0  0  0  0  0  0  0
    1.1219    0.7591   -0.0022 C   0  0  0  0  0  0  0  0  0  0  0  0
   -2.1048   -0.7862    0.0088 C   0  0  0  0  0  0  0  0  0  0  0  0
   -2.4847    0.5395    0.0048 C   0  0  0  0  0  0  0  0  0  0  0  0
    1.4370   -1.5297    0.0019 C   0  0  0  0  0  0  0  0  0  0  0  0
  1  5  1  0
  1  9  1  0
  2  6  1  0
  2 10  2  0
  3  7  2  0
  3 10  1  0
  4  7  1  0
  5  6  2  0
  5  7  1  0
  6  8  1  0
  8  9  2  0
M  END
>  <DRUGBANK_ID>  (1) 
DB03506

>  <SECONDARY_ACCESSION_NUMBERS>  (1) 
EXPT00355

>  <COMMON_NAME>  (1) 
5H-pyrrolo[3,2-d]pyrimidin-4-amine

>  <CAS_NUMBER>  (1) 
2227-98-7

>  <SYNONYMS>  (1) 
5H-Pyrrolo[3,2-d]pyrimidin-4-amine; 9-deazaadenine

$$$$
