I4A
     RDKit          3D

 27 30  0  0  0  0  0  0  0  0999 V2000
   -0.0765   -0.4976    1.0515 O   0  0  0  0  0  0  0  0  0  0  0  0
   -0.3659   -1.6344    0.4408 C   0  0  0  0  0  0  0  0  0  0  0  0
   -1.4299   -1.7342   -0.1646 O   0  0  0  0  0  0  0  0  0  0  0  0
    0.7334   -2.6686    0.4313 C   0  0  0  0  0  0  0  0  0  0  0  0
    1.9669   -2.6874    1.1815 C   0  0  0  0  0  0  0  0  0  0  0  0
    2.7094   -3.8896    1.1972 C   0  0  0  0  0  0  0  0  0  0  0  0
    3.7598   -3.7501    2.1310 C   0  0  0  0  0  0  0  0  0  0  0  0
    4.7762   -4.7746    2.5045 C   0  0  0  0  0  0  0  0  0  0  0  0
    6.1612   -4.3372    2.0292 C   0  0  0  0  0  0  0  0  0  0  0  0
    6.7914   -3.3082    2.9737 C   0  0  0  0  0  0  0  0  0  0  0  0
    6.1521   -1.9136    2.9261 C   0  0  0  0  0  0  0  0  0  0  0  0
    4.7544   -1.8837    3.5521 C   0  0  0  0  0  0  0  0  0  0  0  0
    3.7495   -2.4542    2.5957 C   0  0  0  0  0  0  0  0  0  0  0  0
    2.3180   -4.9922    0.4077 C   0  0  0  0  0  0  0  0  0  0  0  0
    1.2401   -4.8891   -0.4552 C   0  0  0  0  0  0  0  0  0  0  0  0
    0.4837   -3.7333   -0.4614 C   0  0  0  0  0  0  0  0  0  0  0  0
    2.7319   -1.7736    1.9494 N   0  0  0  0  0  0  0  0  0  0  0  0
    2.5769   -0.3113    2.0633 C   0  0  0  0  0  0  0  0  0  0  0  0
    2.7910    0.4331    0.7232 C   0  0  0  0  0  0  0  0  0  0  0  0
    2.2076    0.0492   -0.5269 C   0  0  0  0  0  0  0  0  0  0  0  0
    2.2954    0.6955   -1.7526 C   0  0  0  0  0  0  0  0  0  0  0  0
    1.5810    0.0991   -2.9645 C   0  0  0  0  0  0  0  0  0  0  0  0
    0.6486   -0.9175   -2.7910 N   0  0  0  0  0  0  0  0  0  0  0  0
    1.8267    0.4819   -4.1025 O   0  0  0  0  0  0  0  0  0  0  0  0
    3.1346    1.7953   -1.7600 C   0  0  0  0  0  0  0  0  0  0  0  0
    3.7264    2.2502   -0.5471 C   0  0  0  0  0  0  0  0  0  0  0  0
    3.5586    1.5833    0.6832 C   0  0  0  0  0  0  0  0  0  0  0  0
  2  1  1  0
  2  4  1  0
  3  2  2  0
  4 16  2  0
  5  4  1  0
  5  6  2  0
  6 14  1  0
  7  6  1  0
  7  8  1  0
  9  8  1  0
 10  9  1  0
 11 10  1  0
 11 12  1  0
 12 13  1  0
 13  7  2  0
 14 15  2  0
 16 15  1  0
 17  5  1  0
 17 13  1  0
 18 17  1  0
 19 18  1  0
 20 19  2  0
 21 20  1  0
 22 21  1  0
 22 24  2  0
 23 22  1  0
 25 21  2  0
 25 26  1  0
 26 27  2  0
 27 19  1  0
M  END
>  <DRUGBANK_ID>  (1) 
DB07945

>  <COMMON_NAME>  (1) 
5-(3-carbamoylbenzyl)-5,6,7,8,9,10-hexahydrocyclohepta[b]indole-4-carboxylic acid

$$$$
