ZYZ
     RDKit          3D

 24 24  0  0  0  0  0  0  0  0999 V2000
    6.4225  -11.1125    1.0799 Se  0  0  0  0  0  4  0  0  0  0  0  0
    5.3616  -10.4852   -0.4441 C   0  0  0  0  0  0  0  0  0  0  0  0
    4.2894   -4.8484    2.9121 N   0  0  0  0  0  0  0  0  0  0  0  0
    4.5502   -9.2684   -0.0300 C   0  0  0  0  0  0  0  0  0  0  0  0
    3.2495   -9.3652    0.2193 C   0  0  0  0  0  0  0  0  0  0  0  0
    4.2630   -7.7526    3.3248 O   0  0  0  0  0  0  0  0  0  0  0  0
    2.5853   -8.3546    0.8714 C   0  0  0  0  0  0  0  0  0  0  0  0
    2.8390   -7.2289    5.0952 O   0  0  0  0  0  0  0  0  0  0  0  0
    3.2230   -7.1899    1.1975 C   0  0  0  0  0  0  0  0  0  0  0  0
    5.8705   -3.0835    3.0842 O   0  0  0  0  0  0  0  0  0  0  0  0
    4.5287   -7.1604    1.0018 C   0  0  0  0  0  0  0  0  0  0  0  0
    3.6547   -2.5057    3.5233 O   0  0  0  0  0  0  0  0  0  0  0  0
    5.2435   -8.0947    0.2156 C   0  0  0  0  0  0  0  0  0  0  0  0
    2.4696   -5.9934    1.7554 C   0  0  0  0  0  0  0  0  0  0  0  0
    3.0759   -5.6548    3.1074 C   0  0  1  0  0  0  0  0  0  0  0  0
    3.4329   -6.9387    3.8384 C   0  0  0  0  0  0  0  0  0  0  0  0
    4.6565   -3.4491    3.1727 C   0  0  0  0  0  0  0  0  0  0  0  0
    1.9116   -6.3195    5.6691 C   0  0  0  0  0  0  0  0  0  0  0  0
    4.0094   -1.1539    3.7750 C   0  0  0  0  0  0  0  0  0  0  0  0
    4.9910   -1.0950    4.9340 C   0  0  0  0  0  0  0  0  0  0  0  0
    4.6549   -0.5599    2.5337 C   0  0  0  0  0  0  0  0  0  0  0  0
    2.7619   -0.3599    4.1267 C   0  0  0  0  0  0  0  0  0  0  0  0
    5.2864  -11.5719    2.4791 O   0  0  0  0  0  0  0  0  0  0  0  0
    7.3112  -12.4452    0.6264 O   0  0  0  0  0  0  0  0  0  0  0  0
  1 23  1  1
  1 24  2  0
  2  1  1  0
  4  2  1  0
  5  4  2  0
  7  5  1  0
  8 18  1  0
  8 16  1  0
  9  7  2  0
  9 11  1  0
 10 17  2  0
 11 13  2  0
 12 17  1  0
 13  4  1  0
 14  9  1  0
 15 16  1  0
 15 14  1  6
 15  3  1  0
 16  6  2  0
 17  3  1  0
 19 12  1  0
 19 20  1  0
 21 19  1  0
 22 19  1  0
M  END
>  <DRUGBANK_ID>  (1) 
DB08783

>  <COMMON_NAME>  (1) 
(4-{(2S)-2-[(tert-butoxycarbonyl)amino]-3-methoxy-3-oxopropyl}phenyl)methaneseleninic acid

$$$$
