
     RDKit          3D

  9  8  0  0  1  0  0  0  0  0999 V2000
   -0.5985   -3.6652   -0.7591 O   0  0  0  0  0  0  0  0  0  0  0  0
    0.9395    0.8298   -2.5500 C   0  0  0  0  0  0  0  0  0  0  0  0
    0.3958   -0.9875   -0.8462 C   0  0  0  0  0  0  0  0  0  0  0  0
    0.6963   -3.5102   -1.1165 C   0  0  0  0  0  0  0  0  0  0  0  0
    1.4816   -4.4530   -1.1178 O   0  0  0  0  0  0  0  0  0  0  0  0
    1.0568   -2.1188   -1.6485 C   0  0  1  0  0  0  0  0  0  0  0  0
    0.7068   -2.0385   -3.0745 N   0  0  0  0  0  0  0  0  0  0  0  0
    1.0406    0.3875   -1.0902 C   0  0  0  0  0  0  0  0  0  0  0  0
    0.3659    1.4337   -0.2062 C   0  0  0  0  0  0  0  0  0  0  0  0
  1  4  1  0
  2  8  1  0
  4  5  2  0
  6  7  1  6
  6  3  1  0
  6  4  1  0
  8  3  1  0
  8  9  1  0
M  END
>  <DRUGBANK_ID>  (1) 
DB00149

>  <SECONDARY_ACCESSION_NUMBERS>  (1) 
NUTR00033

>  <COMMON_NAME>  (1) 
Leucine

>  <CAS_NUMBER>  (1) 
61-90-5

>  <UNII>  (1) 
GMW67QNF9C

>  <SYNONYMS>  (1) 
(2S)-2-Amino-4-methylpentanoic acid; (2S)-alpha-2-Amino-4-methylvaleric acid; (2S)-alpha-Leucine; (S)-(+)-Leucine; (S)-Leucine; 2-Amino-4-methylvaleric acid; L; L-Leucin; L-Leucine; L-Leuzin; Leu; Leucine

$$$$
