
     RDKit          3D

 14 15  0  0  0  0  0  0  0  0999 V2000
    2.5078   -0.1193    0.0052 C   0  0  0  0  0  0  0  0  0  0  0  0
    1.0178   -0.0055    0.0063 C   0  0  0  0  0  0  0  0  0  0  0  0
    0.3801    1.2318    0.0121 C   0  0  0  0  0  0  0  0  0  0  0  0
   -1.0104    1.2840    0.0173 C   0  0  0  0  0  0  0  0  0  0  0  0
   -1.7394    0.0940    0.0089 C   0  0  0  0  0  0  0  0  0  0  0  0
   -1.1351   -1.1211    0.0004 N   0  0  0  0  0  0  0  0  0  0  0  0
    0.2170   -1.1424    0.0076 C   0  0  0  0  0  0  0  0  0  0  0  0
   -3.2084    0.1204   -0.0629 C   0  0  0  0  0  0  0  0  0  0  0  0
   -3.8532    0.7573   -1.1242 C   0  0  0  0  0  0  0  0  0  0  0  0
   -5.2425    0.8323   -1.1317 C   0  0  0  0  0  0  0  0  0  0  0  0
   -5.9635    0.2645   -0.0849 C   0  0  0  0  0  0  0  0  0  0  0  0
   -5.2439   -0.3592    0.9284 C   0  0  0  0  0  0  0  0  0  0  0  0
   -3.8944   -0.4362    0.9673 N   0  0  0  0  0  0  0  0  0  0  0  0
   -7.4566    0.3122   -0.0452 C   0  0  0  0  0  0  0  0  0  0  0  0
  1  2  1  0
  2  3  2  0
  2  7  1  0
  3  4  1  0
  4  5  2  0
  5  6  1  0
  5  8  1  0
  6  7  2  0
  8  9  2  0
  8 13  1  0
  9 10  1  0
 10 11  2  0
 11 12  1  0
 11 14  1  0
 12 13  2  0
M  END
>  <DRUGBANK_ID>  (1) 
DB11932

>  <COMMON_NAME>  (1) 
Abametapir

>  <CAS_NUMBER>  (1) 
1762-34-1

>  <UNII>  (1) 
6UO390AMFB

>  <SYNONYMS>  (1) 
5,5'-Dimethyl-2,2'-bipyridine; 5,5'-Dimethyl-2,2'-dipyridyl; Abametapir

$$$$
