
     RDKit          3D

 10  9  0  0  1  0  0  0  0  0999 V2000
    0.8316   -0.0277    0.0802 C   0  0  0  0  0  0  0  0  0  0  0  0
    0.4608    1.4456   -0.1508 C   0  0  1  0  0  0  0  0  0  0  0  0
    1.0213    2.0189   -1.3516 O   0  0  0  0  0  0  0  0  0  0  0  0
    2.7513    2.0189   -1.3516 P   0  0  0  0  0  0  0  0  0  0  0  0
    2.7109    0.4218   -1.6646 O   0  0  0  0  0  0  0  0  0  0  0  0
    2.6344    2.5322   -2.8971 O   0  0  0  0  0  0  0  0  0  0  0  0
    4.2996    2.0189   -1.3516 O   0  0  0  0  0  0  0  0  0  0  0  0
   -1.0673    1.4642   -0.2099 C   0  0  0  0  0  0  0  0  0  0  0  0
   -1.6605    2.0878    0.8386 O   0  0  0  0  0  0  0  0  0  0  0  0
   -1.7223    0.9202   -1.0788 O   0  0  0  0  0  0  0  0  0  0  0  0
  2  1  1  6
  2  3  1  0
  2  8  1  0
  3  4  1  0
  4  5  1  0
  4  6  1  0
  4  7  2  0
  8  9  1  0
  8 10  2  0
M  END
>  <DRUGBANK_ID>  (1) 
DB01733

>  <SECONDARY_ACCESSION_NUMBERS>  (1) 
EXPT02551

>  <COMMON_NAME>  (1) 
L-Phospholactate

$$$$
