
     RDKit          3D

 38 43  0  0  0  0  0  0  0  0999 V2000
    0.0422    1.7318   -0.0119 C   0  0  0  0  0  0  0  0  0  0  0  0
    0.0199    9.7603   -0.9951 C   0  0  0  0  0  0  0  0  0  0  0  0
    1.2150    0.7831    0.0521 C   0  0  0  0  0  0  0  0  0  0  0  0
   -1.1648    0.7972    0.0904 C   0  0  0  0  0  0  0  0  0  0  0  0
   -1.2083   10.6717   -1.0892 C   0  0  0  0  0  0  0  0  0  0  0  0
    1.1748   10.7331   -1.0552 C   0  0  0  0  0  0  0  0  0  0  0  0
   -0.7807   12.0097   -1.0580 C   0  0  0  0  0  0  0  0  0  0  0  0
    0.7450   -0.5409    0.0184 C   0  0  0  0  0  0  0  0  0  0  0  0
   -0.7129   -0.5322    0.0296 C   0  0  0  0  0  0  0  0  0  0  0  0
    0.6765   12.0470   -1.0487 C   0  0  0  0  0  0  0  0  0  0  0  0
    0.0297    8.8578    0.2779 N   0  0  0  0  0  0  0  0  0  0  0  0
    0.0277    2.6233   -1.2951 N   0  0  0  0  0  0  0  0  0  0  0  0
   -2.5744   10.3614   -1.1472 C   0  0  0  0  0  0  0  0  0  0  0  0
    2.5760    1.0821    0.1342 C   0  0  0  0  0  0  0  0  0  0  0  0
   -2.5332    1.0848    0.1780 C   0  0  0  0  0  0  0  0  0  0  0  0
    2.5441   10.4644   -1.1049 C   0  0  0  0  0  0  0  0  0  0  0  0
    1.6452   -1.5777    0.0010 C   0  0  0  0  0  0  0  0  0  0  0  0
   -1.6228   -1.5692   -0.0034 C   0  0  0  0  0  0  0  0  0  0  0  0
    1.5546   13.1036   -1.0434 C   0  0  0  0  0  0  0  0  0  0  0  0
   -1.7099   13.0310   -1.0384 C   0  0  0  0  0  0  0  0  0  0  0  0
   -1.2182    3.5051   -1.2311 C   0  0  0  0  0  0  0  0  0  0  0  0
   -1.2101    7.9688    0.2264 C   0  0  0  0  0  0  0  0  0  0  0  0
    1.3562    3.3611   -1.4769 C   0  0  0  0  0  0  0  0  0  0  0  0
   -0.0808    1.7777   -2.5700 C   0  0  0  0  0  0  0  0  0  0  0  0
   -0.0619    9.6986    1.5563 C   0  0  0  0  0  0  0  0  0  0  0  0
    1.3610    8.1197    0.4312 C   0  0  0  0  0  0  0  0  0  0  0  0
   -1.2913    7.1510   -1.0688 C   0  0  0  0  0  0  0  0  0  0  0  0
   -1.2840    4.3330    0.0566 C   0  0  0  0  0  0  0  0  0  0  0  0
   -3.5059   11.3864   -1.0536 C   0  0  0  0  0  0  0  0  0  0  0  0
    3.4787    0.0377    0.0750 C   0  0  0  0  0  0  0  0  0  0  0  0
    3.4234   11.5288   -1.0485 C   0  0  0  0  0  0  0  0  0  0  0  0
   -3.4469    0.0443    0.0802 C   0  0  0  0  0  0  0  0  0  0  0  0
   -0.1512    5.3266    0.1270 C   0  0  0  0  0  0  0  0  0  0  0  0
   -0.1610    6.1553   -1.1603 C   0  0  0  0  0  0  0  0  0  0  0  0
   -2.9959   -1.2745   -0.0028 C   0  0  0  0  0  0  0  0  0  0  0  0
   -3.0777   12.7136   -1.0139 C   0  0  0  0  0  0  0  0  0  0  0  0
    3.0195   -1.2835    0.0116 C   0  0  0  0  0  0  0  0  0  0  0  0
    2.9350   12.8400   -1.0285 C   0  0  0  0  0  0  0  0  0  0  0  0
  2 11  1  0
  3  1  1  0
  4  1  1  0
  5  2  1  0
  6  2  1  0
  7  5  1  0
  8  3  1  0
  8  9  1  0
  9  4  2  0
 10  6  2  0
 10  7  1  0
 11 22  1  0
 12  1  1  0
 13  5  2  0
 14  3  2  0
 15  4  1  0
 16  6  1  0
 17  8  2  0
 18  9  1  0
 18 35  2  0
 19 10  1  0
 20  7  2  0
 21 12  1  0
 22 27  1  0
 23 12  1  0
 24 12  1  0
 25 11  1  0
 26 11  1  0
 27 34  1  0
 28 21  1  0
 29 13  1  0
 30 14  1  0
 31 16  2  0
 32 15  2  0
 33 28  1  0
 34 33  1  0
 35 32  1  0
 36 29  2  0
 36 20  1  0
 37 30  2  0
 37 17  1  0
 38 31  1  0
 38 19  2  0
M  CHG  2  11   1  12   1
M  END
>  <DRUGBANK_ID>  (1) 
DB00941

>  <SECONDARY_ACCESSION_NUMBERS>  (1) 
APRD01013

>  <COMMON_NAME>  (1) 
Hexafluronium

>  <CAS_NUMBER>  (1) 
4844-10-4

>  <UNII>  (1) 
55W5L6G81R

>  <SYNONYMS>  (1) 
Hexafluorenium; Hexafluorenium cation; Hexafluorenium ion; Hexamethylenebis(fluoren-9-yldimethylammonium)

$$$$
