
     RDKit          3D

 35 38  0  0  0  0  0  0  0  0999 V2000
    0.9605   -0.0267    0.4164 C   0  0  0  0  0  0  0  0  0  0  0  0
    0.4598    1.3977    0.6337 C   0  0  0  0  0  0  0  0  0  0  0  0
    0.8349    2.4890   -0.3494 C   0  0  0  0  0  0  0  0  0  0  0  0
    0.6137    3.7833   -0.1667 N   0  0  0  0  0  0  0  0  0  0  0  0
    1.0919    4.4276   -1.3009 C   0  0  0  0  0  0  0  0  0  0  0  0
    1.0673    5.7707   -1.6919 C   0  0  0  0  0  0  0  0  0  0  0  0
    1.6024    6.1340   -2.9131 N   0  0  0  0  0  0  0  0  0  0  0  0
    2.1466    5.1999   -3.7336 C   0  0  0  0  0  0  0  0  0  0  0  0
    2.1995    3.8629   -3.4115 C   0  0  0  0  0  0  0  0  0  0  0  0
    1.6607    3.5289   -2.1689 C   0  0  0  0  0  0  0  0  0  0  0  0
    1.4719    2.3247   -1.5548 N   0  0  0  0  0  0  0  0  0  0  0  0
    1.8209    1.1620   -2.1887 C   0  0  0  0  0  0  0  0  0  0  0  0
    3.1332    1.0385   -2.5925 C   0  0  0  0  0  0  0  0  0  0  0  0
    3.4119   -0.0823   -3.3193 C   0  0  0  0  0  0  0  0  0  0  0  0
    2.4666   -1.1359   -3.3475 C   0  0  0  0  0  0  0  0  0  0  0  0
    1.1799   -0.9683   -2.9228 C   0  0  0  0  0  0  0  0  0  0  0  0
    0.8178    0.2452   -2.4686 C   0  0  0  0  0  0  0  0  0  0  0  0
    2.6548   -2.5709   -3.6680 C   0  0  0  0  0  0  0  0  0  0  0  0
    2.7000   -3.3536   -2.2403 C   0  0  0  0  0  0  0  0  0  0  0  0
    1.5077   -4.0124   -1.8826 N   0  0  0  0  0  0  0  0  0  0  0  0
    1.2572   -5.3261   -2.2239 C   0  0  0  0  0  0  0  0  0  0  0  0
    0.1120   -5.6858   -2.1567 O   0  0  0  0  0  0  0  0  0  0  0  0
    2.2668   -6.2406   -2.6682 N   0  0  0  0  0  0  0  0  0  0  0  0
    3.9577   -6.4865   -2.9130 S   0  0  0  0  0  0  0  0  0  0  0  0
    4.3866   -7.4503   -1.9543 O   0  0  0  0  0  0  0  0  0  0  0  0
    4.0388   -6.8175   -4.3464 O   0  0  0  0  0  0  0  0  0  0  0  0
    5.0826   -4.9976   -2.7121 C   0  0  0  0  0  0  0  0  0  0  0  0
    5.9042   -4.6585   -1.6311 C   0  0  0  0  0  0  0  0  0  0  0  0
    6.2454   -3.2660   -1.2951 C   0  0  0  0  0  0  0  0  0  0  0  0
    5.8038   -2.1755   -2.0176 C   0  0  0  0  0  0  0  0  0  0  0  0
    5.3249   -2.6008   -3.2500 C   0  0  0  0  0  0  0  0  0  0  0  0
    4.9398   -3.9763   -3.6081 C   0  0  0  0  0  0  0  0  0  0  0  0
    5.8217   -0.7058   -1.5502 C   0  0  0  0  0  0  0  0  0  0  0  0
    2.7202    5.6046   -5.0624 C   0  0  0  0  0  0  0  0  0  0  0  0
    0.4548    6.8115   -0.8225 C   0  0  0  0  0  0  0  0  0  0  0  0
  1  2  1  0
  2  3  1  0
  3  4  2  0
  3 11  1  0
  4  5  1  0
  5  6  2  0
  5 10  1  0
  6  7  1  0
  6 35  1  0
  7  8  2  0
  8  9  1  0
  8 34  1  0
  9 10  2  0
 10 11  1  0
 11 12  1  0
 12 13  2  0
 12 17  1  0
 13 14  1  0
 14 15  2  0
 15 16  1  0
 15 18  1  0
 16 17  2  0
 18 19  1  0
 19 20  1  0
 20 21  1  0
 21 22  2  0
 21 23  1  0
 23 24  1  0
 24 25  2  0
 24 26  2  0
 24 27  1  0
 27 28  2  0
 27 32  1  0
 28 29  1  0
 29 30  2  0
 30 31  1  0
 30 33  1  0
 31 32  2  0
M  END
>  <DRUGBANK_ID>  (1) 
DB12836

>  <COMMON_NAME>  (1) 
Grapiprant

>  <CAS_NUMBER>  (1) 
415903-37-6

>  <UNII>  (1) 
J9F5ZPH7NB

>  <SYNONYMS>  (1) 
Grapiprant

$$$$
