
     RDKit          3D

 19 19  0  0  0  0  0  0  0  0999 V2000
    0.2885   -0.5191    0.1845 C   0  0  0  0  0  0  0  0  0  0  0  0
   -0.4214   -1.5867   -0.0574 C   0  0  0  0  0  0  0  0  0  0  0  0
   -1.7394   -1.2254   -0.1286 C   0  0  0  0  0  0  0  0  0  0  0  0
   -2.1946    0.1898   -0.0099 C   0  0  0  0  0  0  0  0  0  0  0  0
   -1.3399    1.2634    0.0618 C   0  0  0  0  0  0  0  0  0  0  0  0
   -0.1287    0.7755   -0.2130 C   0  0  0  0  0  0  0  0  0  0  0  0
   -0.7851    4.8262    0.8188 O   0  0  0  0  0  0  0  0  0  0  0  0
   -0.3496    3.6958    0.5437 C   0  0  0  0  0  0  0  0  0  0  0  0
   -1.3458    2.6872    0.3285 N   0  0  0  0  0  0  0  0  0  0  0  0
    1.2589    3.6283    0.4374 C   0  0  0  0  0  0  0  0  0  0  0  0
    2.0972    2.8177    1.4448 C   0  0  0  0  0  0  0  0  0  0  0  0
    1.8943    1.3664    1.2084 C   0  0  0  0  0  0  0  0  0  0  0  0
    2.3731    0.9393   -0.4202 C   0  0  0  0  0  0  0  0  0  0  0  0
    3.6989    0.2982   -0.4495 C   0  0  0  0  0  0  0  0  0  0  0  0
    3.8924   -0.7531    0.6554 C   0  0  0  0  0  0  0  0  0  0  0  0
    3.1674   -2.1228    0.6799 C   0  0  0  0  0  0  0  0  0  0  0  0
    3.6737   -3.0852   -0.1565 N   0  0  0  0  0  0  0  0  0  0  0  0
    2.9740   -4.3287   -0.0835 O   0  0  0  0  0  0  0  0  0  0  0  0
    2.2332   -2.3965    1.4366 O   0  0  0  0  0  0  0  0  0  0  0  0
  1  2  2  0
  1  6  1  0
  2  3  1  0
  3  4  2  0
  4  5  1  0
  5  6  2  0
  5  9  1  0
  7  8  2  0
  8  9  1  0
  8 10  1  0
 10 11  1  0
 11 12  1  0
 12 13  1  0
 13 14  1  0
 14 15  1  0
 15 16  1  0
 16 17  1  0
 16 19  2  0
 17 18  1  0
M  END
>  <DRUGBANK_ID>  (1) 
DB02546

>  <SECONDARY_ACCESSION_NUMBERS>  (1) 
EXPT02902

>  <COMMON_NAME>  (1) 
Vorinostat

>  <CAS_NUMBER>  (1) 
149647-78-9

>  <UNII>  (1) 
58IFB293JI

>  <SYNONYMS>  (1) 
Octanedioic acid hydroxyamide phenylamide; SAHA; SHH; Suberanilohydroxamic acid; Suberoylanilide hydroxamic acid; Vorinostat; Vorinostatum

$$$$
