
     RDKit          3D

 13 12  0  0  0  0  0  0  0  0999 V2000
    2.4481   -3.1777   -2.0788 O   0  0  0  0  0  0  0  0  0  0  0  0
    2.3130   -2.1443   -1.1795 C   0  0  0  0  0  0  0  0  0  0  0  0
    0.8106   -2.0280   -1.1929 C   0  0  2  0  0  0  0  0  0  0  0  0
    0.3718   -1.2939   -0.0715 O   0  0  0  0  0  0  0  0  0  0  0  0
    0.1597   -3.4335   -1.2029 C   0  0  0  0  0  0  0  0  0  0  0  0
   -1.2476   -3.3470   -1.1635 O   0  0  0  0  0  0  0  0  0  0  0  0
    2.9620   -4.6204   -1.6732 P   0  0  1  0  0  0  0  0  0  0  0  0
    3.0102   -4.8138   -3.2759 O   0  0  0  0  0  0  0  0  0  0  0  0
    4.1616   -4.6710   -0.8464 O   0  0  0  0  0  0  0  0  0  0  0  0
    2.0257   -5.9382   -1.5765 O   0  0  0  0  0  0  0  0  0  0  0  0
    2.9114   -7.1102   -1.6736 C   0  0  0  0  0  0  0  0  0  0  0  0
    3.5693   -7.3372   -3.0960 C   0  0  0  0  0  0  0  0  0  0  0  0
    4.5804   -6.4040   -3.6569 N   0  0  0  0  0  0  0  0  0  0  0  0
  1  2  1  0
  1  7  1  0
  3  5  1  0
  3  4  1  1
  3  2  1  0
  5  6  1  0
  7  8  1  6
  7  9  2  0
  7 10  1  0
 10 11  1  0
 11 12  1  0
 12 13  1  0
M  END
>  <DRUGBANK_ID>  (1) 
DB15872

>  <COMMON_NAME>  (1) 
L-alpha-Glycerophosphorylethanolamine

>  <CAS_NUMBER>  (1) 
33049-08-0

>  <UNII>  (1) 
O35QN01X8F

>  <SYNONYMS>  (1) 
Ethanolamine glycerophosphate anhydrous; L-alpha-Glycerophosphorylethanolamine

$$$$
