
     RDKit          3D

 22 23  0  0  0  0  0  0  0  0999 V2000
    0.9687    0.0624    0.2966 C   0  0  0  0  0  0  0  0  0  0  0  0
    3.7922   -1.2838    2.5457 C   0  0  0  0  0  0  0  0  0  0  0  0
   -3.1075   -3.8990   -4.5126 C   0  0  0  0  0  0  0  0  0  0  0  0
    0.4739   -1.1316   -0.4709 C   0  0  0  0  0  0  0  0  0  0  0  0
    2.5844   -2.2267    2.5032 C   0  0  0  0  0  0  0  0  0  0  0  0
    0.5897   -3.0919   -2.6686 C   0  0  0  0  0  0  0  0  0  0  0  0
   -0.4968   -3.3650   -3.4786 C   0  0  0  0  0  0  0  0  0  0  0  0
    1.3003   -5.3039   -2.5462 C   0  0  0  0  0  0  0  0  0  0  0  0
   -2.1516   -5.0240   -4.1641 C   0  0  0  0  0  0  0  0  0  0  0  0
    1.5071   -4.0033   -2.1454 C   0  0  0  0  0  0  0  0  0  0  0  0
   -0.8315   -4.6702   -3.6494 C   0  0  0  0  0  0  0  0  0  0  0  0
    0.0922   -5.6221   -3.2062 C   0  0  0  0  0  0  0  0  0  0  0  0
   -2.4108   -6.3342   -4.2579 C   0  0  0  0  0  0  0  0  0  0  0  0
   -1.4425   -7.3953   -3.8390 C   0  0  0  0  0  0  0  0  0  0  0  0
   -3.9134   -6.9081   -4.9001 Cl  0  0  0  0  0  0  0  0  0  0  0  0
   -1.6917   -8.5806   -3.9394 O   0  0  0  0  0  0  0  0  0  0  0  0
    0.9172   -2.4799   -0.1124 O   0  0  0  0  0  0  0  0  0  0  0  0
    2.5539   -3.1485    1.3996 O   0  0  0  0  0  0  0  0  0  0  0  0
   -0.2187   -6.9809   -3.3187 O   0  0  0  0  0  0  0  0  0  0  0  0
    2.4735   -3.7922   -1.1618 O   0  0  0  0  0  0  0  0  0  0  0  0
    2.6472   -2.4799   -0.1124 P   0  0  0  0  0  0  0  0  0  0  0  0
    4.5446   -2.4799   -0.1124 S   0  0  0  0  0  0  0  0  0  0  0  0
  4  1  1  0
  5  2  1  0
  7  6  2  0
  9  3  1  0
 10  6  1  0
 10  8  2  0
 11  7  1  0
 11  9  1  0
 12  8  1  0
 12 11  2  0
 13  9  2  0
 14 13  1  0
 15 13  1  0
 16 14  2  0
 17  4  1  0
 18  5  1  0
 19 12  1  0
 19 14  1  0
 20 10  1  0
 21 17  1  0
 21 18  1  0
 21 20  1  0
 22 21  2  0
M  END
>  <DRUGBANK_ID>  (1) 
DB11390

>  <COMMON_NAME>  (1) 
Coumaphos

>  <CAS_NUMBER>  (1) 
56-72-4

>  <UNII>  (1) 
L08SZ5Z5JC

>  <SYNONYMS>  (1) 
3-Chloro-4-methyl-7-coumarinyl diethyl phosphorothioate; 3-Chloro-4-methyl-7-hydroxycoumarin diethyl thiophosphoric acid ester; 3-Chloro-7-diethoxyphosphinothioyloxy-4-methylcoumarin; 3-Chloro-7-hydroxy-4-methyl-coumarin O,O-diethyl phosphorothioate; Coumafos; Coumaphos; O-(3-chloro-4-methyl-2-oxo-2H-chromen-7-yl) O,O-diethyl thiophosphate; O,O-Diethyl 3-chloro-4-methyl-7-umbelliferone thiophosphate; O,O-Diethyl O-(3-chloro-4-methyl-2-oxo-2H-1-benzopyran-7-yl)phosphorothioate; Phosphorothioic acid, O-(3-chloro-4-methyl-2-oxo-2H-1-benzopyran-7-yl) O,O-diethyl ester

$$$$
