
     RDKit          3D

 23 26  0  0  1  0  0  0  0  0999 V2000
    1.1525   -0.0373   -0.0557 C   0  0  0  0  0  0  0  0  0  0  0  0
   -1.8718    2.2916   -4.3384 C   0  0  0  0  0  0  0  0  0  0  0  0
   -3.9932    4.8833    0.1656 C   0  0  0  0  0  0  0  0  0  0  0  0
   -6.6771    1.8746    1.8011 C   0  0  0  0  0  0  0  0  0  0  0  0
   -3.6529    4.9494   -1.3232 C   0  0  0  0  0  0  0  0  0  0  0  0
   -5.1059    1.5210    1.4032 C   0  0  0  0  0  0  0  0  0  0  0  0
   -0.5363    4.3837   -3.3698 C   0  0  0  0  0  0  0  0  0  0  0  0
    0.6019    3.1231   -3.8946 C   0  0  0  0  0  0  0  0  0  0  0  0
   -2.8758    1.1091   -1.2726 C   0  0  0  0  0  0  0  0  0  0  0  0
   -1.9317    1.0920   -2.2156 C   0  0  0  0  0  0  0  0  0  0  0  0
   -6.3185    3.8427    0.4740 C   0  0  0  0  0  0  0  0  0  0  0  0
    0.8218    0.3314   -1.4636 C   0  0  0  0  0  0  0  0  0  0  0  0
   -4.9853    3.7660    0.3093 C   0  0  0  0  0  0  0  0  0  0  0  0
   -6.9937    2.5030    0.5347 C   0  0  0  0  0  0  0  0  0  0  0  0
   -4.3879    2.4540    0.2192 C   0  0  0  0  0  0  0  0  0  0  0  0
   -3.4963    2.3438   -0.8312 C   0  0  0  0  0  0  0  0  0  0  0  0
   -3.0855    3.6216   -1.8463 C   0  0  2  0  0  0  0  0  0  0  0  0
   -1.5336    3.6344   -2.2170 C   0  0  1  0  0  0  0  0  0  0  0  0
    0.2798    2.3053   -2.6929 C   0  0  1  0  0  0  0  0  0  0  0  0
   -1.2751    2.2649   -2.8229 C   0  0  2  0  0  0  0  0  0  0  0  0
    0.4470   -0.4756   -2.3205 O   0  0  0  0  0  0  0  0  0  0  0  0
   -7.4269    1.8422   -0.4321 O   0  0  0  0  0  0  0  0  0  0  0  0
    1.0210    1.6259   -1.6916 O   0  0  0  0  0  0  0  0  0  0  0  0
  5  3  1  0
  6  4  1  0
  8  7  1  0
 10  9  2  0
 12  1  1  0
 13  3  1  0
 13 11  2  0
 14  4  1  0
 14 11  1  0
 15  6  1  0
 15 13  1  0
 16  9  1  0
 16 15  2  0
 17  5  1  1
 17 16  1  0
 18  7  1  6
 18 17  1  0
 19  8  1  0
 19 23  1  6
 20  2  1  6
 20 10  1  0
 20 18  1  0
 20 19  1  0
 21 12  2  0
 22 14  2  0
 23 12  1  0
M  END
>  <DRUGBANK_ID>  (1) 
DB14660

>  <SECONDARY_ACCESSION_NUMBERS>  (1) 
DBSALT001706

>  <COMMON_NAME>  (1) 
Trenbolone acetate

>  <CAS_NUMBER>  (1) 
10161-34-9

>  <UNII>  (1) 
RUD5Y4SV0S

>  <SYNONYMS>  (1) 
Trenbolone acetate

$$$$
