1587
     RDKit          3D

 26 29  0  0  1  0  0  0  0  0999 V2000
    7.4439  -10.0427   -7.8755 Cl  0  0  0  0  0  0  0  0  0  0  0  0
    8.2243   -4.5846   -5.6356 O   0  0  0  0  0  0  0  0  0  0  0  0
    5.2193   -4.6164   -5.6484 O   0  0  0  0  0  0  0  0  0  0  0  0
   10.7762   -3.7124   -6.1337 O   0  0  0  0  0  0  0  0  0  0  0  0
    7.0119   -3.4397   -6.7471 N   0  0  0  0  0  0  0  0  0  0  0  0
   10.1254   -4.7043   -8.0536 N   0  0  0  0  0  0  0  0  0  0  0  0
    7.1666   -4.7636   -7.1213 C   0  0  0  0  0  0  0  0  0  0  0  0
    8.0404   -5.9842   -7.5701 C   0  0  0  0  0  0  0  0  0  0  0  0
    6.9429   -4.0799   -8.8493 C   0  0  0  0  0  0  0  0  0  0  0  0
    8.4740   -2.7310   -6.8981 C   0  0  0  0  0  0  0  0  0  0  0  0
    9.3912   -5.9308   -7.9815 C   0  0  0  0  0  0  0  0  0  0  0  0
    6.0653   -3.7562   -5.6469 C   0  0  0  0  0  0  0  0  0  0  0  0
    9.9255   -3.7357   -7.0337 C   0  0  0  0  0  0  0  0  0  0  0  0
    7.4201   -7.2913   -7.6724 C   0  0  0  0  0  0  0  0  0  0  0  0
    7.8005   -3.5198   -4.3956 C   0  0  0  0  0  0  0  0  0  0  0  0
    6.5102   -3.2849   -4.3565 C   0  0  0  0  0  0  0  0  0  0  0  0
   10.1042   -7.1238   -8.2835 C   0  0  0  0  0  0  0  0  0  0  0  0
    8.0044   -3.4255   -9.4670 C   0  0  0  0  0  0  0  0  0  0  0  0
    5.8552   -3.8780   -9.7263 C   0  0  0  0  0  0  0  0  0  0  0  0
   10.7634   -4.3674   -9.3904 C   0  0  0  0  0  0  0  0  0  0  0  0
    8.1660   -8.4705   -7.9263 C   0  0  0  0  0  0  0  0  0  0  0  0
    9.5237   -8.3893   -8.1776 C   0  0  0  0  0  0  0  0  0  0  0  0
    8.5680   -2.4926   -3.3792 C   0  0  0  0  0  0  0  0  0  0  0  0
    8.1784   -2.5470  -10.5584 C   0  0  0  0  0  0  0  0  0  0  0  0
    5.9773   -3.0454  -10.9801 C   0  0  0  0  0  0  0  0  0  0  0  0
    7.1157   -2.3197  -11.3460 C   0  0  0  0  0  0  0  0  0  0  0  0
  1 21  1  0
  2  7  1  0
  2 15  1  0
  3 12  2  0
  4 13  2  0
  5  7  1  0
  5 10  1  0
  5 12  1  0
  6 11  1  0
  6 13  1  0
  6 20  1  0
  7  8  1  0
  7  9  1  0
  8 11  2  0
  8 14  1  0
  9 18  2  0
  9 19  1  0
 10 13  1  0
 11 17  1  0
 12 16  1  0
 14 21  2  0
 15 16  2  0
 15 23  1  0
 17 22  2  0
 18 24  1  0
 19 25  2  0
 21 22  1  0
 24 26  2  0
 25 26  1  0
M  END
>  <DRUGBANK_ID>  (1) 
DB01587

>  <COMMON_NAME>  (1) 
Ketazolam

>  <CAS_NUMBER>  (1) 
27223-35-4

>  <UNII>  (1) 
92A214MD7Y

>  <SYNONYMS>  (1) 
Ketazolam; Ketazolamum

$$$$
