ECG
     RDKit          3D

 14 15  0  0  0  0  0  0  0  0999 V2000
    1.3448    0.7406   -0.7348 C   0  0  0  0  0  0  0  0  0  0  0  0
    0.4038    1.1628    0.3873 C   0  0  1  0  0  0  0  0  0  0  0  0
   -1.0239    1.3389   -0.1529 C   0  0  0  0  0  0  0  0  0  0  0  0
   -1.8236    0.0467   -0.3991 C   0  0  2  0  0  0  0  0  0  0  0  0
   -3.1059    0.2014    0.2256 O   0  0  0  0  0  0  0  0  0  0  0  0
    1.2749   -0.7847   -0.7185 C   0  0  0  0  0  0  0  0  0  0  0  0
    0.3179   -1.1375    0.4512 C   0  0  1  0  0  0  0  0  0  0  0  0
    0.5402    0.0356    1.3137 N   0  0  0  0  0  0  0  0  0  0  0  0
   -1.1492   -1.2941   -0.0279 C   0  0  1  0  0  0  0  0  0  0  0  0
   -2.0092   -2.0720    0.9879 C   0  0  0  0  0  0  0  0  0  0  0  0
   -2.5813   -3.2386    0.6345 O   0  0  0  0  0  0  0  0  0  0  0  0
   -2.5366   -3.7291   -0.6933 C   0  0  0  0  0  0  0  0  0  0  0  0
   -2.2747   -1.6425    2.0992 O   0  0  0  0  0  0  0  0  0  0  0  0
   -0.3297    0.1431    2.4774 C   0  0  0  0  0  0  0  0  0  0  0  0
  2  1  1  6
  1  6  1  0
  2  3  1  0
  2  8  1  0
  3  4  1  0
  4  5  1  1
  4  9  1  0
  7  6  1  6
  7  8  1  0
  7  9  1  0
  8 14  1  0
  9 10  1  1
 10 11  1  0
 10 13  2  0
 11 12  1  0
M  END
>  <DRUGBANK_ID>  (1) 
DB04688

>  <COMMON_NAME>  (1) 
Methylecgonine

>  <CAS_NUMBER>  (1) 
7143-09-1

>  <UNII>  (1) 
Y35FJB3QBJ

>  <SYNONYMS>  (1) 
Ecgonine methyl ester

$$$$
