
     RDKit          3D

 27 27  0  0  0  0  0  0  0  0999 V2000
    4.2735    2.0417   -1.1142 S   0  0  0  0  0  0  0  0  0  0  0  0
    0.8658    6.3662    1.8765 O   0  0  0  0  0  0  0  0  0  0  0  0
    3.2394    4.0741   -3.2552 O   0  0  0  0  0  0  0  0  0  0  0  0
    4.6754    4.4206   -1.0733 O   0  0  0  0  0  0  0  0  0  0  0  0
    5.4118    4.1363    1.1502 O   0  0  0  0  0  0  0  0  0  0  0  0
   -2.1718    3.8756   -2.3588 O   0  0  0  0  0  0  0  0  0  0  0  0
   -0.6989    5.6067   -2.1769 O   0  0  0  0  0  0  0  0  0  0  0  0
    1.4906    5.5126   -0.0970 N   0  0  0  0  0  0  0  0  0  0  0  0
    1.1795    3.5073   -2.7611 N   0  0  0  0  0  0  0  0  0  0  0  0
    3.1492    0.6808    0.9256 N   0  0  0  0  0  0  0  0  0  0  0  0
    2.4010    4.8766   -1.0146 C   0  0  1  0  0  0  0  0  0  0  0  0
    2.1651    2.8022    2.0275 C   0  0  0  0  0  0  0  0  0  0  0  0
    2.3387    4.3690    2.2634 C   0  0  0  0  0  0  0  0  0  0  0  0
    2.4867    3.4451   -0.6978 C   0  0  0  0  0  0  0  0  0  0  0  0
    3.1400    2.2646    0.9187 C   0  0  1  0  0  0  0  0  0  0  0  0
    1.5296    5.4856    1.3193 C   0  0  0  0  0  0  0  0  0  0  0  0
    2.2940    4.2495   -2.4801 C   0  0  0  0  0  0  0  0  0  0  0  0
    4.1487    1.1817   -2.5403 C   0  0  0  0  0  0  0  0  0  0  0  0
    4.4662    3.6366    0.3913 C   0  0  0  0  0  0  0  0  0  0  0  0
    5.2909    0.2354   -2.3507 C   0  0  0  0  0  0  0  0  0  0  0  0
    0.0616    3.3901   -1.8624 C   0  0  0  0  0  0  0  0  0  0  0  0
    6.5378    0.6996   -2.7956 C   0  0  0  0  0  0  0  0  0  0  0  0
    5.2156   -0.9356   -1.5707 C   0  0  0  0  0  0  0  0  0  0  0  0
    7.6590   -0.0832   -2.6439 C   0  0  0  0  0  0  0  0  0  0  0  0
    6.3701   -1.6706   -1.3389 C   0  0  0  0  0  0  0  0  0  0  0  0
   -0.9610    4.4114   -2.1602 C   0  0  0  0  0  0  0  0  0  0  0  0
    7.5591   -1.2934   -1.9637 C   0  0  0  0  0  0  0  0  0  0  0  0
  1 14  1  0
  1 18  1  0
  2 16  2  0
  3 17  2  0
  4 19  1  0
  5 19  2  0
  6 26  1  0
  7 26  2  0
  8 16  1  0
  9 17  1  0
  9 21  1  0
 11 17  1  0
 11 14  1  1
 11  8  1  0
 12 13  1  0
 13 16  1  0
 15 19  1  0
 15 12  1  0
 15 10  1  1
 18 20  1  0
 20 22  2  0
 20 23  1  0
 21 26  1  0
 22 24  1  0
 23 25  2  0
 24 27  2  0
 25 27  1  0
M  END
>  <DRUGBANK_ID>  (1) 
DB03602

>  <SECONDARY_ACCESSION_NUMBERS>  (1) 
EXPT01647

>  <COMMON_NAME>  (1) 
S-benzylglutathione

>  <SYNONYMS>  (1) 
S-benzyl-glutathione

$$$$
