P83
     RDKit          3D

 18 20  0  0  0  0  0  0  0  0999 V2000
    2.4842   -1.2309    0.0027 C   0  0  0  0  0  0  0  0  0  0  0  0
    3.4387   -0.2124   -0.0004 C   0  0  0  0  0  0  0  0  0  0  0  0
    3.0623    1.1321   -0.0035 C   0  0  0  0  0  0  0  0  0  0  0  0
    1.6961    1.4704    0.0046 C   0  0  0  0  0  0  0  0  0  0  0  0
    0.7117    0.4585   -0.0005 C   0  0  0  0  0  0  0  0  0  0  0  0
   -0.7191    0.4717   -0.0077 C   0  0  0  0  0  0  0  0  0  0  0  0
   -1.6923    1.4949   -0.0032 C   0  0  0  0  0  0  0  0  0  0  0  0
   -3.0525    1.1645   -0.0033 C   0  0  0  0  0  0  0  0  0  0  0  0
   -3.4553   -0.1657   -0.0247 C   0  0  0  0  0  0  0  0  0  0  0  0
   -2.5130   -1.1931   -0.0560 C   0  0  0  0  0  0  0  0  0  0  0  0
   -1.1499   -0.8575   -0.0292 C   0  0  0  0  0  0  0  0  0  0  0  0
   -0.0173   -1.6500   -0.0014 N   0  0  0  0  0  0  0  0  0  0  0  0
    1.1259   -0.8754   -0.0006 C   0  0  0  0  0  0  0  0  0  0  0  0
   -0.0361   -3.1050    0.0211 C   0  0  0  0  0  0  0  0  0  0  0  0
   -0.6734   -3.6705    1.2802 C   0  0  0  0  0  0  0  0  0  0  0  0
    4.1132    2.2137   -0.0105 C   0  0  0  0  0  0  0  0  0  0  0  0
    3.9889    3.0540   -1.2003 N   0  0  0  0  0  0  0  0  0  0  0  0
    5.0213    4.0762   -1.2152 C   0  0  0  0  0  0  0  0  0  0  0  0
  1  2  2  0
  1 13  1  0
  2  3  1  0
  3  4  2  0
  3 16  1  0
  4  5  1  0
  5  6  1  0
  5 13  2  0
  6  7  2  0
  6 11  1  0
  7  8  1  0
  8  9  2  0
  9 10  1  0
 10 11  2  0
 11 12  1  0
 12 13  1  0
 12 14  1  0
 14 15  1  0
 16 17  1  0
 17 18  1  0
M  END
>  <DRUGBANK_ID>  (1) 
DB08363

>  <COMMON_NAME>  (1) 
1-(9-ethyl-9H-carbazol-3-yl)-N-methylmethanamine

$$$$
