988
     RDKit          3D

 12 12  0  0  0  0  0  0  0  0999 V2000
    1.6952   -1.3415   -0.0054 O   0  0  0  0  0  0  0  0  0  0  0  0
    1.6720    1.3947   -0.0034 O   0  0  0  0  0  0  0  0  0  0  0  0
   -5.2267   -0.5241    1.1832 O   0  0  0  0  0  0  0  0  0  0  0  0
   -3.2686   -1.3925    0.0220 C   0  0  0  0  0  0  0  0  0  0  0  0
   -1.9355   -0.6787    0.0089 C   0  0  0  0  0  0  0  0  0  0  0  0
   -4.1206   -1.0439    1.2176 C   0  0  0  0  0  0  0  0  0  0  0  0
   -0.7224   -1.3917   -0.0021 C   0  0  0  0  0  0  0  0  0  0  0  0
   -1.9043    0.7267    0.0044 C   0  0  0  0  0  0  0  0  0  0  0  0
    0.4881   -0.6962   -0.0033 C   0  0  0  0  0  0  0  0  0  0  0  0
   -0.6897    1.4116    0.0096 C   0  0  0  0  0  0  0  0  0  0  0  0
    0.4976    0.6969    0.0019 C   0  0  0  0  0  0  0  0  0  0  0  0
   -3.5538   -1.3759    2.3949 O   0  0  0  0  0  0  0  0  0  0  0  0
  1  9  1  0
  2 11  1  0
  3  6  2  0
  4  5  1  0
  4  6  1  0
  5  7  2  0
  5  8  1  0
  6 12  1  0
  7  9  1  0
  8 10  2  0
  9 11  2  0
 10 11  1  0
M  END
>  <DRUGBANK_ID>  (1) 
DB01702

>  <SECONDARY_ACCESSION_NUMBERS>  (1) 
EXPT01685; EXPT01200

>  <COMMON_NAME>  (1) 
2-(3,4-Dihydroxyphenyl)Acetic Acid

>  <CAS_NUMBER>  (1) 
102-32-9

>  <UNII>  (1) 
KEX5N0R4N5

$$$$
