
     RDKit          3D

 15 14  0  0  1  0  0  0  0  0999 V2000
   -4.1709   -0.4302   -9.2862 C   0  0  0  0  0  0  0  0  0  0  0  0
   -3.0204   -1.2193   -8.7551 C   0  0  0  0  0  0  0  0  0  0  0  0
   -2.9370   -2.4406   -8.8901 O   0  0  0  0  0  0  0  0  0  0  0  0
   -1.9911   -0.5421   -8.1734 N   0  0  0  0  0  0  0  0  0  0  0  0
   -2.0112    0.8099   -7.5589 C   0  0  2  0  0  0  0  0  0  0  0  0
   -2.2795    1.8915   -8.6066 C   0  0  0  0  0  0  0  0  0  0  0  0
   -1.6797    2.9630   -8.6859 O   0  0  0  0  0  0  0  0  0  0  0  0
   -0.6567    1.1613   -6.9165 C   0  0  1  0  0  0  0  0  0  0  0  0
   -0.6535    2.4815   -6.3582 O   0  0  0  0  0  0  0  0  0  0  0  0
   -0.3009    0.1018   -5.8439 C   0  0  2  0  0  0  0  0  0  0  0  0
   -0.4262    0.6296   -4.5220 O   0  0  0  0  0  0  0  0  0  0  0  0
    1.0169   -0.6696   -6.1155 C   0  0  2  0  0  0  0  0  0  0  0  0
    1.7206   -0.9459   -4.8996 O   0  0  0  0  0  0  0  0  0  0  0  0
    1.9747   -0.0464   -7.1389 C   0  0  0  0  0  0  0  0  0  0  0  0
    3.1402   -0.8538   -7.2701 O   0  0  0  0  0  0  0  0  0  0  0  0
  1  2  1  0
  2  3  2  0
  2  4  1  0
  5  8  1  0
  5  6  1  6
  5  4  1  0
  6  7  2  0
  8  9  1  1
 10 11  1  1
 10  8  1  0
 12 14  1  0
 12 13  1  1
 12 10  1  0
 14 15  1  0
M  END
>  <DRUGBANK_ID>  (1) 
DB12536

>  <COMMON_NAME>  (1) 
N-acetylmannosamine

>  <CAS_NUMBER>  (1) 
3615-17-6

>  <UNII>  (1) 
X80PR7P73R

>  <SYNONYMS>  (1) 
MANNAC

$$$$
