
     RDKit          3D

 31 33  0  0  1  0  0  0  0  0999 V2000
   -0.7224   -1.4745    0.6673 O   0  0  0  0  0  0  0  0  0  0  0  0
   -0.1846   -0.7774   -0.4582 C   0  0  2  0  0  0  0  0  0  0  0  0
    1.3435   -0.7063   -0.3761 C   0  0  1  0  0  0  0  0  0  0  0  0
    2.0334   -0.8261   -1.7394 C   0  0  0  0  0  0  0  0  0  0  0  0
    1.3373   -1.7441   -2.5724 O   0  0  0  0  0  0  0  0  0  0  0  0
    1.2796   -3.3125   -1.8445 P   0  0  0  0  0  0  0  0  0  0  0  0
   -0.3048   -3.2867   -2.2345 O   0  0  0  0  0  0  0  0  0  0  0  0
    1.8253   -3.8459   -3.2866 O   0  0  0  0  0  0  0  0  0  0  0  0
    1.2279   -4.7161   -1.1930 O   0  0  0  0  0  0  0  0  0  0  0  0
    1.6914    0.5468    0.2315 O   0  0  0  0  0  0  0  0  0  0  0  0
    0.4705    1.2918    0.4484 C   0  0  2  0  0  0  0  0  0  0  0  0
   -0.6076    0.6632   -0.4267 C   0  0  2  0  0  0  0  0  0  0  0  0
   -1.9289    0.8280    0.0582 O   0  0  0  0  0  0  0  0  0  0  0  0
    0.6806    2.6572    0.0263 N   0  0  0  0  0  0  0  0  0  0  0  0
    1.1810    3.0065   -1.1993 C   0  0  0  0  0  0  0  0  0  0  0  0
    0.9265    4.2537   -1.4884 N   0  0  0  0  0  0  0  0  0  0  0  0
    0.2445    4.7415   -0.3898 C   0  0  0  0  0  0  0  0  0  0  0  0
   -0.3220    6.0024   -0.1369 C   0  0  0  0  0  0  0  0  0  0  0  0
   -0.3018    7.0487   -1.0303 N   0  0  0  0  0  0  0  0  0  0  0  0
    0.2411    6.9833   -2.3870 C   0  0  1  0  0  0  0  0  0  0  0  0
   -0.8221    7.2112   -3.4563 C   0  0  0  0  0  0  0  0  0  0  0  0
   -1.4222    8.5839   -3.3551 C   0  0  0  0  0  0  0  0  0  0  0  0
   -1.2972    9.3439   -4.4604 O   0  0  0  0  0  0  0  0  0  0  0  0
   -2.0119    8.9833   -2.3542 O   0  0  0  0  0  0  0  0  0  0  0  0
    1.4045    7.9623   -2.5669 C   0  0  0  0  0  0  0  0  0  0  0  0
    2.6063    7.3837   -2.8101 O   0  0  0  0  0  0  0  0  0  0  0  0
    1.2817    9.1827   -2.5637 O   0  0  0  0  0  0  0  0  0  0  0  0
   -0.9084    6.1850    1.0755 N   0  0  0  0  0  0  0  0  0  0  0  0
   -0.9292    5.1553    1.9579 C   0  0  0  0  0  0  0  0  0  0  0  0
   -0.4533    3.9002    1.7955 N   0  0  0  0  0  0  0  0  0  0  0  0
    0.1246    3.7713    0.5910 C   0  0  0  0  0  0  0  0  0  0  0  0
  2  1  1  1
  2  3  1  0
  2 12  1  0
  3 10  1  0
  3  4  1  6
  4  5  1  0
  5  6  1  0
  6  7  1  0
  6  8  1  0
  6  9  2  0
 10 11  1  0
 11 12  1  0
 11 14  1  6
 12 13  1  1
 14 15  1  0
 14 31  1  0
 15 16  2  0
 16 17  1  0
 17 18  1  0
 17 31  2  0
 18 19  1  0
 18 28  2  0
 20 19  1  0
 20 21  1  6
 20 25  1  0
 21 22  1  0
 22 23  1  0
 22 24  2  0
 25 26  1  0
 25 27  2  0
 28 29  1  0
 29 30  2  0
 30 31  1  0
M  END
>  <DRUGBANK_ID>  (1) 
DB04418

>  <SECONDARY_ACCESSION_NUMBERS>  (1) 
EXPT00146

>  <COMMON_NAME>  (1) 
Adenylosuccinic acid

>  <CAS_NUMBER>  (1) 
19046-78-7

>  <UNII>  (1) 
X1B4ZJ0IIV

>  <SYNONYMS>  (1) 
Aspartyl adenylate; Succinyl AMP

$$$$
