VGH
     RDKit          3D

 30 33  0  0  0  0  0  0  0  0999 V2000
    3.1343    0.4092    0.1006 Cl  0  0  0  0  0  0  0  0  0  0  0  0
    1.5074   -0.1290   -0.1439 C   0  0  0  0  0  0  0  0  0  0  0  0
    1.3080   -1.5167   -0.0668 C   0  0  0  0  0  0  0  0  0  0  0  0
    0.0285   -2.0426   -0.1711 C   0  0  0  0  0  0  0  0  0  0  0  0
   -1.0085   -1.2046   -0.5350 C   0  0  0  0  0  0  0  0  0  0  0  0
   -2.2609   -1.6827   -0.4675 F   0  0  0  0  0  0  0  0  0  0  0  0
    0.4315    0.7561   -0.4034 C   0  0  0  0  0  0  0  0  0  0  0  0
   -0.7963    0.1568   -0.7829 C   0  0  0  0  0  0  0  0  0  0  0  0
   -2.1668    0.9998   -1.4264 Cl  0  0  0  0  0  0  0  0  0  0  0  0
    0.5680    2.2617   -0.1086 C   0  0  1  0  0  0  0  0  0  0  0  0
    0.1491    3.1239   -1.2958 C   0  0  0  0  0  0  0  0  0  0  0  0
    0.1129    2.7380    1.2077 O   0  0  0  0  0  0  0  0  0  0  0  0
   -1.2324    2.7668    1.4709 C   0  0  0  0  0  0  0  0  0  0  0  0
   -1.8838    3.9828    1.6467 C   0  0  0  0  0  0  0  0  0  0  0  0
   -1.9860    1.6057    1.6649 C   0  0  0  0  0  0  0  0  0  0  0  0
   -1.4279    0.3924    2.0169 N   0  0  0  0  0  0  0  0  0  0  0  0
   -3.3292    1.5765    1.6647 N   0  0  0  0  0  0  0  0  0  0  0  0
   -3.9466    2.7579    1.6667 C   0  0  0  0  0  0  0  0  0  0  0  0
   -3.2791    3.9801    1.7594 C   0  0  0  0  0  0  0  0  0  0  0  0
   -4.0287    5.1242    2.1727 C   0  0  0  0  0  0  0  0  0  0  0  0
   -4.2352    6.4409    1.7531 C   0  0  0  0  0  0  0  0  0  0  0  0
   -4.7981    5.0210    3.3112 C   0  0  0  0  0  0  0  0  0  0  0  0
   -5.4331    6.2059    3.4902 N   0  0  0  0  0  0  0  0  0  0  0  0
   -5.0977    7.1080    2.5401 N   0  0  0  0  0  0  0  0  0  0  0  0
   -6.3689    6.5288    4.5724 C   0  0  0  0  0  0  0  0  0  0  0  0
   -5.6980    6.4601    5.9529 C   0  0  0  0  0  0  0  0  0  0  0  0
   -5.4162    5.0226    6.3897 C   0  0  0  0  0  0  0  0  0  0  0  0
   -6.6040    4.1720    6.3023 N   0  0  0  0  0  0  0  0  0  0  0  0
   -7.3075    4.2027    5.0197 C   0  0  0  0  0  0  0  0  0  0  0  0
   -7.6147    5.6274    4.5589 C   0  0  0  0  0  0  0  0  0  0  0  0
  1  2  1  0
  2  3  2  0
  2  7  1  0
  3  4  1  0
  4  5  2  0
  5  6  1  0
  5  8  1  0
  7  8  2  0
  7 10  1  0
  8  9  1  0
 10 11  1  6
 10 12  1  0
 12 13  1  0
 13 14  2  0
 13 15  1  0
 14 19  1  0
 15 16  1  0
 15 17  2  0
 17 18  1  0
 18 19  2  0
 19 20  1  0
 20 21  1  0
 20 22  2  0
 21 24  2  0
 22 23  1  0
 23 24  1  0
 23 25  1  0
 25 26  1  0
 25 30  1  0
 26 27  1  0
 27 28  1  0
 28 29  1  0
 29 30  1  0
M  END
>  <DRUGBANK_ID>  (1) 
DB08865

>  <SECONDARY_ACCESSION_NUMBERS>  (1) 
DB08700

>  <COMMON_NAME>  (1) 
Crizotinib

>  <CAS_NUMBER>  (1) 
877399-52-5

>  <UNII>  (1) 
53AH36668S

>  <SYNONYMS>  (1) 
(R)-crizotinib; Crizotinib; Crizotinibum

$$$$
