
     RDKit          3D

 24 20  0  0  0  0  0  0  0  0999 V2000
    0.3775    0.7608    0.8727 C   0  0  0  0  0  0  0  0  0  0  0  0
   -0.2587   -0.8163    1.8293 C   0  0  0  0  0  0  0  0  0  0  0  0
   -1.1499   -0.9488    2.5324 O   0  0  0  0  0  0  0  0  0  0  0  0
    0.3794   -2.1406    1.4945 O   0  0  0  0  0  0  0  0  0  0  0  0
    0.0603    2.2766    0.5265 C   0  0  0  0  0  0  0  0  0  0  0  0
    0.8700    3.1451   -0.9295 C   0  0  0  0  0  0  0  0  0  0  0  0
    0.7871    2.6384   -2.6431 C   0  0  0  0  0  0  0  0  0  0  0  0
    0.1046    3.1945   -3.4989 O   0  0  0  0  0  0  0  0  0  0  0  0
    1.3461    1.3905   -2.9838 O   0  0  0  0  0  0  0  0  0  0  0  0
   -1.5553    2.0796    0.7446 C   0  0  0  0  0  0  0  0  0  0  0  0
   -2.1039    2.2969    1.8194 O   0  0  0  0  0  0  0  0  0  0  0  0
   -2.2353    1.1939   -0.0320 O   0  0  0  0  0  0  0  0  0  0  0  0
    0.9585    2.9202    1.5206 O   0  0  0  0  0  0  0  0  0  0  0  0
    2.6637   -0.0940    0.0380 C   0  0  0  0  0  0  0  0  0  0  0  0
    2.3906   -0.3405    1.9278 C   0  0  0  0  0  0  0  0  0  0  0  0
    1.6718    0.3286    2.7285 O   0  0  0  0  0  0  0  0  0  0  0  0
    2.5673   -1.6270    2.0289 O   0  0  0  0  0  0  0  0  0  0  0  0
    2.3696    1.1287   -0.7269 N   0  0  0  0  0  0  0  0  0  0  0  0
    2.0030   -2.5770    0.4911 Zn  0  0  0  0  0 15  0  0  0  0  0  0
   -0.6420   -0.8138   -0.7596 C   0  0  0  0  0  0  0  0  0  0  0  0
   -0.8360    0.2137   -1.9396 C   0  0  0  0  0  0  0  0  0  0  0  0
   -0.8341   -0.2635   -3.0919 O   0  0  0  0  0  0  0  0  0  0  0  0
   -0.8127    1.4361   -1.6587 O   0  0  0  0  0  0  0  0  0  0  0  0
   -0.3263   -2.2052   -0.9861 N   0  0  0  0  0  0  0  0  0  0  0  0
  1  2  1  0
  1  5  1  0
  2  3  2  0
  2  4  1  0
  5  6  1  0
  5 10  1  0
  5 13  1  0
  6  7  1  0
  7  8  2  0
  7  9  1  0
 10 11  2  0
 10 12  1  0
 14 15  1  0
 14 18  1  0
 15 16  2  0
 15 17  1  0
 20 21  1  0
 20 24  1  0
 21 22  2  0
 21 23  1  0
M  CHG  3  17  -1  19   2  23  -1
M  END
>  <DRUGBANK_ID>  (1) 
DB15556

>  <COMMON_NAME>  (1) 
Zinc glycinate citrate

>  <CAS_NUMBER>  (1) 
955009-96-8

>  <UNII>  (1) 
H3472PJ7YA

$$$$
