
     RDKit          3D

 23 23  0  0  1  0  0  0  0  0999 V2000
    1.0789   -0.1856    0.0169 C   0  0  0  0  0  0  0  0  0  0  0  0
    0.6433   -0.0768    1.4695 C   0  0  0  0  0  0  0  0  0  0  0  0
    1.1309    1.2340    2.0905 C   0  0  0  0  0  0  0  0  0  0  0  0
    0.5635    2.4615    1.3683 C   0  0  0  0  0  0  0  0  0  0  0  0
   -0.9692    2.4752    1.3957 C   0  0  0  0  0  0  0  0  0  0  0  0
   -1.5048    2.5393    2.8327 C   0  0  0  0  0  0  0  0  0  0  0  0
   -1.0517    3.8153    3.5605 C   0  0  0  0  0  0  0  0  0  0  0  0
   -1.4629    5.0850    2.8137 C   0  0  0  0  0  0  0  0  0  0  0  0
   -2.9100    5.1062    2.6624 N   0  0  0  0  0  0  0  0  0  0  0  0
   -3.4280    6.2464    1.8968 C   0  0  1  0  0  0  0  0  0  0  0  0
   -2.9464    6.1898    0.4457 C   0  0  0  0  0  0  0  0  0  0  0  0
   -4.9936    6.2709    1.9193 C   0  0  1  0  0  0  0  0  0  0  0  0
   -5.5099    6.3243    3.3394 C   0  0  0  0  0  0  0  0  0  0  0  0
   -5.7115    5.1242    4.0076 C   0  0  0  0  0  0  0  0  0  0  0  0
   -6.0295    5.1106    5.3578 C   0  0  0  0  0  0  0  0  0  0  0  0
   -6.1863    6.2961    6.0821 C   0  0  0  0  0  0  0  0  0  0  0  0
   -5.9643    7.4991    5.4162 C   0  0  0  0  0  0  0  0  0  0  0  0
   -5.6546    7.5243    4.0530 C   0  0  0  0  0  0  0  0  0  0  0  0
   -6.6856    6.4003    7.7917 S   0  0  0  0  0  0  0  0  0  0  0  0
   -7.0363    4.6760    8.3197 C   0  0  0  0  0  0  0  0  0  0  0  0
   -8.1681    4.0103    7.5335 C   0  0  0  0  0  0  0  0  0  0  0  0
   -5.7480    3.8603    8.4216 C   0  0  0  0  0  0  0  0  0  0  0  0
   -5.5029    7.3676    1.1643 O   0  0  0  0  0  0  0  0  0  0  0  0
  1  2  1  0
  2  3  1  0
  3  4  1  0
  4  5  1  0
  5  6  1  0
  6  7  1  0
  7  8  1  0
  8  9  1  0
  9 10  1  0
 10 11  1  6
 10 12  1  0
 12 13  1  0
 12 23  1  6
 13 14  2  0
 13 18  1  0
 14 15  1  0
 15 16  2  0
 16 17  1  0
 16 19  1  0
 17 18  2  0
 19 20  1  0
 20 21  1  0
 20 22  1  0
M  END
>  <DRUGBANK_ID>  (1) 
DB13340

>  <COMMON_NAME>  (1) 
Suloctidil

>  <CAS_NUMBER>  (1) 
54767-75-8

>  <UNII>  (1) 
XV1N1XY17K

>  <SYNONYMS>  (1) 
Suloctidil

$$$$
