
     RDKit          3D

 31 34  0  0  0  0  0  0  0  0999 V2000
   -3.7127   -1.3347   -0.0971 C   0  0  0  0  0  0  0  0  0  0  0  0
   -4.1495    0.0218    0.3903 C   0  0  0  0  0  0  0  0  0  0  0  0
   -3.1899    1.1412    0.2532 C   0  0  0  0  0  0  0  0  0  0  0  0
   -1.9396    0.9361   -0.1982 C   0  0  0  0  0  0  0  0  0  0  0  0
   -1.3247   -0.4531   -0.4197 C   0  0  2  0  0  0  0  0  0  0  0  0
   -2.2348   -1.5424    0.2129 C   0  0  0  0  0  0  0  0  0  0  0  0
   -1.0762    2.1218   -0.5500 C   0  0  0  0  0  0  0  0  0  0  0  0
    0.3367    2.0300    0.0096 C   0  0  0  0  0  0  0  0  0  0  0  0
    0.9945    0.6704   -0.2606 C   0  0  2  0  0  0  0  0  0  0  0  0
    0.0910   -0.4749    0.2764 C   0  0  2  0  0  0  0  0  0  0  0  0
    2.3764    0.5823    0.3936 C   0  0  1  0  0  0  0  0  0  0  0  0
    3.1045   -0.7564    0.1057 C   0  0  1  0  0  0  0  0  0  0  0  0
    2.2528   -1.8450    0.7788 C   0  0  0  0  0  0  0  0  0  0  0  0
    0.7995   -1.8574    0.2570 C   0  0  0  0  0  0  0  0  0  0  0  0
   -5.2896    0.2461    0.7880 O   0  0  0  0  0  0  0  0  0  0  0  0
   -1.2182   -0.7147   -1.9402 C   0  0  0  0  0  0  0  0  0  0  0  0
    3.1978   -1.0210   -1.4211 C   0  0  0  0  0  0  0  0  0  0  0  0
    3.3825    1.6360   -0.0169 C   0  0  0  0  0  0  0  0  0  0  0  0
    4.7328    1.0223    0.3580 C   0  0  0  0  0  0  0  0  0  0  0  0
    4.5475   -0.4986    0.7273 C   0  0  2  0  0  0  0  0  0  0  0  0
    5.6768   -1.5007    0.1122 C   0  0  0  0  0  0  0  0  0  0  0  0
    5.5919   -2.0947   -0.9617 O   0  0  0  0  0  0  0  0  0  0  0  0
    6.9872   -1.7090    0.8036 C   0  0  0  0  0  0  0  0  0  0  0  0
    4.4190   -0.6049    2.1830 O   0  0  0  0  0  0  0  0  0  0  0  0
    5.3833   -0.3414    3.1156 C   0  0  0  0  0  0  0  0  0  0  0  0
    6.6731    0.2536    2.5834 C   0  0  0  0  0  0  0  0  0  0  0  0
    5.2536   -0.6981    4.2665 O   0  0  0  0  0  0  0  0  0  0  0  0
    7.3304    1.4736    3.1131 C   0  0  0  0  0  0  0  0  0  0  0  0
    7.7533    1.1878    4.5337 C   0  0  0  0  0  0  0  0  0  0  0  0
    8.7682    0.0334    4.6677 C   0  0  0  0  0  0  0  0  0  0  0  0
   10.0609    0.3235    3.9203 C   0  0  0  0  0  0  0  0  0  0  0  0
  1  2  1  0
  1  6  1  0
  2  3  1  0
  2 15  2  0
  3  4  2  0
  4  5  1  0
  4  7  1  0
  5  6  1  0
  5 10  1  0
  5 16  1  6
  7  8  1  0
  9  8  1  1
  9 10  1  0
  9 11  1  0
 10 14  1  6
 11 12  1  0
 11 18  1  6
 12 13  1  0
 12 17  1  6
 12 20  1  0
 13 14  1  0
 18 19  1  0
 19 20  1  0
 20 24  1  1
 20 21  1  0
 21 22  2  0
 21 23  1  0
 24 25  1  0
 25 26  1  0
 25 27  2  0
 26 28  1  0
 28 29  1  0
 29 30  1  0
 30 31  1  0
M  END
>  <DRUGBANK_ID>  (1) 
DB06789

>  <COMMON_NAME>  (1) 
Hydroxyprogesterone caproate

>  <CAS_NUMBER>  (1) 
630-56-8

>  <UNII>  (1) 
276F2O42F5

>  <SYNONYMS>  (1) 
17-alpha-hydroxy-progesterone caproate; 17alpha-Caproyloxypregn-4-ene-3,20-dione; 17alpha-Hydroxyprogesterone hexanoate; Caproate d'hydroxyprogesterone; Caproato de hidroxiprogesterona; Hydroxyprogesterone caproate; Hydroxyprogesterone hexanoate

$$$$
