
     RDKit          3D

 33 34  0  0  0  0  0  0  0  0999 V2000
    0.9499    0.2631    0.2433 O   0  0  0  0  0  0  0  0  0  0  0  0
   -0.1490   -1.2350   -3.8448 O   0  0  0  0  0  0  0  0  0  0  0  0
    1.2838   -2.4372  -11.0832 O   0  0  0  0  0  0  0  0  0  0  0  0
   -2.9450    1.9397   -4.6984 O   0  0  0  0  0  0  0  0  0  0  0  0
   -3.4683   -0.7067   -5.4706 O   0  0  0  0  0  0  0  0  0  0  0  0
   -2.9164   -2.8183   -5.0163 O   0  0  0  0  0  0  0  0  0  0  0  0
   -1.1254    1.0272   -3.3641 C   0  0  0  0  0  0  0  0  0  0  0  0
   -0.1392    0.0150   -3.2234 C   0  0  0  0  0  0  0  0  0  0  0  0
    0.3137    0.4922   -0.9442 C   0  0  0  0  0  0  0  0  0  0  0  0
    0.6920   -0.1119   -2.1176 C   0  0  0  0  0  0  0  0  0  0  0  0
   -1.6153    1.4703   -2.1255 C   0  0  0  0  0  0  0  0  0  0  0  0
   -0.8783    1.2263   -0.9334 C   0  0  0  0  0  0  0  0  0  0  0  0
   -1.7673    1.5484   -4.7276 C   0  0  0  0  0  0  0  0  0  0  0  0
    0.1282   -0.4577   -7.5857 C   0  0  0  0  0  0  0  0  0  0  0  0
    2.3693    0.1148    0.1294 C   0  0  0  0  0  0  0  0  0  0  0  0
   -1.2077    1.2328   -6.2267 C   0  0  0  0  0  0  0  0  0  0  0  0
   -0.0470    0.5673   -6.5093 C   0  0  0  0  0  0  0  0  0  0  0  0
    0.9720   -1.8384   -9.8971 C   0  0  0  0  0  0  0  0  0  0  0  0
    0.0995    0.1783   -8.7671 C   0  0  0  0  0  0  0  0  0  0  0  0
    0.5239   -1.8576   -7.5736 C   0  0  0  0  0  0  0  0  0  0  0  0
    0.5975   -0.5106   -9.8229 C   0  0  0  0  0  0  0  0  0  0  0  0
    0.9550   -2.5434   -8.7281 C   0  0  0  0  0  0  0  0  0  0  0  0
    2.8998   -0.3750    1.4404 C   0  0  0  0  0  0  0  0  0  0  0  0
    3.6725   -1.4682    1.6021 C   0  0  0  0  0  0  0  0  0  0  0  0
    1.2442   -1.5742  -12.2488 C   0  0  0  0  0  0  0  0  0  0  0  0
   -1.1324   -1.3210   -4.7973 C   0  0  0  0  0  0  0  0  0  0  0  0
   -0.1288   -0.9635  -12.5247 C   0  0  0  0  0  0  0  0  0  0  0  0
   -0.3947    0.3695  -12.5770 C   0  0  0  0  0  0  0  0  0  0  0  0
    4.1764   -1.8777    2.9560 C   0  0  0  0  0  0  0  0  0  0  0  0
    4.0750   -2.3401    0.4425 C   0  0  0  0  0  0  0  0  0  0  0  0
   -1.8143    0.8705  -12.6418 C   0  0  0  0  0  0  0  0  0  0  0  0
    0.6779    1.4555  -12.4626 C   0  0  0  0  0  0  0  0  0  0  0  0
   -2.5918   -1.6610   -5.0439 C   0  0  0  0  0  0  0  0  0  0  0  0
  1  9  1  0
  1 15  1  0
  2  8  1  0
  2 26  1  0
  3 18  1  0
  3 25  1  0
  4 13  2  0
  5 33  1  0
  6 33  2  0
  7  8  2  0
  7 11  1  0
  7 13  1  0
  8 10  1  0
  9 10  2  0
  9 12  1  0
 11 12  2  0
 13 16  1  0
 14 17  1  0
 14 19  2  0
 14 20  1  0
 15 23  1  0
 16 17  2  0
 18 21  2  0
 18 22  1  0
 19 21  1  0
 20 22  2  0
 23 24  2  3
 24 29  1  0
 24 30  1  0
 25 27  1  0
 26 33  1  0
 27 28  2  3
 28 31  1  0
 28 32  1  0
M  END
>  <DRUGBANK_ID>  (1) 
DB05197

>  <COMMON_NAME>  (1) 
Sofalcone

>  <CAS_NUMBER>  (1) 
64506-49-6

>  <UNII>  (1) 
2B668TJX8E

>  <SYNONYMS>  (1) 
Sofalcone

$$$$
