
     RDKit          3D

 23 23  0  0  0  0  0  0  0  0999 V2000
    1.4247   -0.1190    0.1760 C   0  0  0  0  0  0  0  0  0  0  0  0
    0.6581   -1.2598    0.1018 C   0  0  0  0  0  0  0  0  0  0  0  0
    0.7308    1.1107    0.2641 C   0  0  0  0  0  0  0  0  0  0  0  0
    2.9052   -0.3947    0.2210 C   0  0  0  0  0  0  0  0  0  0  0  0
   -0.7074   -1.1371    0.2289 C   0  0  0  0  0  0  0  0  0  0  0  0
   -0.6404    1.2313    0.1333 C   0  0  0  0  0  0  0  0  0  0  0  0
    3.8112    0.6130    0.1656 O   0  0  0  0  0  0  0  0  0  0  0  0
    3.2939   -1.5439    0.2936 O   0  0  0  0  0  0  0  0  0  0  0  0
   -1.3661    0.0767    0.0912 C   0  0  0  0  0  0  0  0  0  0  0  0
    3.4646    1.9855    0.0053 C   0  0  0  0  0  0  0  0  0  0  0  0
   -2.7458    0.2755   -0.0267 O   0  0  0  0  0  0  0  0  0  0  0  0
    2.8470    2.2331   -1.3754 C   0  0  0  0  0  0  0  0  0  0  0  0
   -3.7277   -0.6137   -0.4085 C   0  0  0  0  0  0  0  0  0  0  0  0
   -3.3698   -2.0715   -0.4337 C   0  0  0  0  0  0  0  0  0  0  0  0
   -4.8677   -0.2164   -0.6343 O   0  0  0  0  0  0  0  0  0  0  0  0
   -3.8572   -2.7458    0.8461 C   0  0  0  0  0  0  0  0  0  0  0  0
   -5.3745   -2.8980    0.7583 C   0  0  0  0  0  0  0  0  0  0  0  0
   -5.7758   -3.6547   -0.5157 C   0  0  0  0  0  0  0  0  0  0  0  0
   -5.1852   -5.0603   -0.5457 C   0  0  0  0  0  0  0  0  0  0  0  0
   -5.7607   -5.8520    0.5204 N   0  0  0  0  0  0  0  0  0  0  0  0
   -6.5099   -6.9379    0.2684 C   0  0  0  0  0  0  0  0  0  0  0  0
   -7.0280   -7.5264    1.3535 N   0  0  0  0  0  0  0  0  0  0  0  0
   -6.6992   -7.3815   -0.9208 N   0  0  0  0  0  0  0  0  0  0  0  0
  1  2  2  0
  1  3  1  0
  1  4  1  0
  2  5  1  0
  3  6  2  0
  4  7  1  0
  4  8  2  0
  5  9  2  0
  6  9  1  0
  7 10  1  0
  9 11  1  0
 10 12  1  0
 11 13  1  0
 13 14  1  0
 13 15  2  0
 14 16  1  0
 16 17  1  0
 17 18  1  0
 18 19  1  0
 19 20  1  0
 20 21  1  0
 21 22  1  0
 21 23  2  0
M  END
>  <DRUGBANK_ID>  (1) 
DB12831

>  <COMMON_NAME>  (1) 
Gabexate

>  <CAS_NUMBER>  (1) 
39492-01-8

>  <UNII>  (1) 
4V7M9137X9

>  <SYNONYMS>  (1) 
Gabexate; Gabexato; Gabexatum

$$$$
