
     RDKit          3D

 16 17  0  0  1  0  0  0  0  0999 V2000
    2.1585    0.7122    0.0133 C   0  0  0  0  0  0  0  0  0  0  0  0
    2.1724   -0.6811    0.0127 C   0  0  0  0  0  0  0  0  0  0  0  0
    0.9575    1.4119    0.0092 C   0  0  0  0  0  0  0  0  0  0  0  0
   -2.2593   -2.4822   -0.0012 C   0  0  0  0  0  0  0  0  0  0  0  0
   -2.3518    0.0486   -0.2610 C   0  0  0  0  0  0  0  0  0  0  0  0
   -1.6380   -1.1198   -0.0695 C   0  0  0  0  0  0  0  0  0  0  0  0
    0.9901   -1.4437    0.0145 C   0  0  0  0  0  0  0  0  0  0  0  0
   -3.0702   -2.7485    1.2802 C   0  0  1  0  0  0  0  0  0  0  0  0
   -0.2190    0.6608   -0.0228 C   0  0  0  0  0  0  0  0  0  0  0  0
   -0.2472   -0.7420   -0.0178 C   0  0  0  0  0  0  0  0  0  0  0  0
   -4.3353   -1.8813    1.3647 C   0  0  0  0  0  0  0  0  0  0  0  0
    1.0997   -2.8272   -0.0110 N   0  0  0  0  0  0  0  0  0  0  0  0
   -3.4743   -4.1866    1.2775 N   0  0  0  0  0  0  0  0  0  0  0  0
   -1.5157    1.1038   -0.0715 N   0  0  0  0  0  0  0  0  0  0  0  0
   -5.4754   -2.2498    1.0994 O   0  0  0  0  0  0  0  0  0  0  0  0
   -4.1141   -0.6109    1.7469 O   0  0  0  0  0  0  0  0  0  0  0  0
  2  1  2  0
  3  1  1  0
  6  4  1  0
  6  5  2  0
  7  2  1  0
  8  4  1  0
  8 13  1  6
  9  3  2  0
 10  6  1  0
 10  7  2  0
 10  9  1  0
 11  8  1  0
 12  7  1  0
 14  5  1  0
 14  9  1  0
 15 11  2  0
 16 11  1  0
M  END
>  <DRUGBANK_ID>  (1) 
DB02286

>  <SECONDARY_ACCESSION_NUMBERS>  (1) 
EXPT00218

>  <COMMON_NAME>  (1) 
2-amino-3-(4-amino-1H-indol-3-yl)propanoic acid

$$$$
