
     RDKit          3D

 19 19  0  0  0  0  0  0  0  0999 V2000
    1.0290    5.2301   -0.7466 C   0  0  0  0  0  0  0  0  0  0  0  0
    2.0744    5.7254    0.3113 C   0  0  0  0  0  0  0  0  0  0  0  0
    3.4179    6.3515   -0.1539 C   0  0  0  0  0  0  0  0  0  0  0  0
    3.3457    7.5054   -1.0582 C   0  0  0  0  0  0  0  0  0  0  0  0
    4.1941    8.6481   -0.6622 C   0  0  0  0  0  0  0  0  0  0  0  0
    2.8087    7.4170   -2.1689 O   0  0  0  0  0  0  0  0  0  0  0  0
    0.4478    6.0072   -1.4544 O   0  0  0  0  0  0  0  0  0  0  0  0
    0.8054    3.8676   -0.9121 O   0  0  0  0  0  0  0  0  0  0  0  0
    1.1501    2.6370   -0.1226 C   0  0  1  0  0  0  0  0  0  0  0  0
    2.5589    1.9544   -0.4271 C   0  0  2  0  0  0  0  0  0  0  0  0
    2.9309    0.6874    0.3458 C   0  0  0  0  0  0  0  0  0  0  0  0
    3.7072    2.7451   -0.0659 N   0  0  0  0  0  0  0  0  0  0  0  0
    3.8092    3.8024   -0.9835 C   0  0  0  0  0  0  0  0  0  0  0  0
    0.7440    2.8826    1.3069 C   0  0  0  0  0  0  0  0  0  0  0  0
   -0.4821    3.5187    1.5457 C   0  0  0  0  0  0  0  0  0  0  0  0
   -0.9102    3.7410    2.8455 C   0  0  0  0  0  0  0  0  0  0  0  0
   -0.1586    3.2627    3.9160 C   0  0  0  0  0  0  0  0  0  0  0  0
    1.0435    2.6110    3.6936 C   0  0  0  0  0  0  0  0  0  0  0  0
    1.5220    2.4975    2.4032 C   0  0  0  0  0  0  0  0  0  0  0  0
  1  2  1  0
  1  7  2  0
  1  8  1  0
  2  3  1  0
  3  4  1  0
  4  5  1  0
  4  6  2  0
  9  8  1  6
  9 14  1  0
 10 12  1  0
 10 11  1  1
 10  9  1  0
 12 13  1  0
 14 15  2  0
 14 19  1  0
 15 16  1  0
 16 17  2  0
 17 18  1  0
 18 19  2  0
M  END
>  <DRUGBANK_ID>  (1) 
DB15988

>  <COMMON_NAME>  (1) 
Ephedrine levulinate

>  <CAS_NUMBER>  (1) 
1082659-36-6

>  <UNII>  (1) 
T9S008S8JL

>  <SYNONYMS>  (1) 
L-Ephedrine levulinate

$$$$
