
     RDKit          3D

 37 41  0  0  1  0  0  0  0  0999 V2000
   -1.0314    0.7672    1.5597 C   0  0  0  0  0  0  0  0  0  0  0  0
   -0.3296    1.1869    0.4997 C   0  0  0  0  0  0  0  0  0  0  0  0
    1.8416    0.0052    0.8397 C   0  0  0  0  0  0  0  0  0  0  0  0
    3.2323    0.0269    0.8081 C   0  0  0  0  0  0  0  0  0  0  0  0
    5.3152    2.6756    2.6333 C   0  0  0  0  0  0  0  0  0  0  0  0
    4.5554    3.9535    2.2312 C   0  0  0  0  0  0  0  0  0  0  0  0
   -2.4287   -3.2010    1.6886 C   0  0  0  0  0  0  0  0  0  0  0  0
   -4.4963   -2.3554    2.8348 C   0  0  0  0  0  0  0  0  0  0  0  0
   -2.5217    0.6117    1.5689 C   0  0  0  0  0  0  0  0  0  0  0  0
   -1.9066   -1.7783    1.7054 C   0  0  0  0  0  0  0  0  0  0  0  0
   -3.9030   -0.9487    2.8007 C   0  0  0  0  0  0  0  0  0  0  0  0
    1.8240    2.2843    0.0867 C   0  0  0  0  0  0  0  0  0  0  0  0
    5.4508    1.1036    0.5808 C   0  0  0  0  0  0  0  0  0  0  0  0
    3.8317    3.6994   -0.2241 C   0  0  0  0  0  0  0  0  0  0  0  0
    7.4220    4.3871    1.2103 C   0  0  0  0  0  0  0  0  0  0  0  0
    9.3581    2.9315    0.4571 C   0  0  0  0  0  0  0  0  0  0  0  0
    1.1289    1.1448    0.4847 C   0  0  0  0  0  0  0  0  0  0  0  0
    3.9507    1.1848    0.4345 C   0  0  0  0  0  0  0  0  0  0  0  0
    3.2334    2.3411    0.0763 C   0  0  0  0  0  0  0  0  0  0  0  0
   -3.4067   -3.4321    2.8368 C   0  0  0  0  0  0  0  0  0  0  0  0
    6.0993    2.2422    1.3869 C   0  0  1  0  0  0  0  0  0  0  0  0
    4.9110    4.2279    0.7461 C   0  0  2  0  0  0  0  0  0  0  0  0
    6.2857    3.5661    0.6154 C   0  0  1  0  0  0  0  0  0  0  0  0
   10.5156    3.2049    1.4125 C   0  0  0  0  0  0  0  0  0  0  0  0
   -4.0068   -4.8154    2.7187 C   0  0  0  0  0  0  0  0  0  0  0  0
   10.0809    3.8041    2.5499 F   0  0  0  0  0  0  0  0  0  0  0  0
   11.0954    2.0379    1.7919 F   0  0  0  0  0  0  0  0  0  0  0  0
   11.4771    3.9819    0.8773 F   0  0  0  0  0  0  0  0  0  0  0  0
   -3.0411   -5.7609    2.7507 F   0  0  0  0  0  0  0  0  0  0  0  0
   -4.8539   -5.0646    3.7400 F   0  0  0  0  0  0  0  0  0  0  0  0
   -4.6914   -4.9647    1.5651 F   0  0  0  0  0  0  0  0  0  0  0  0
    6.8037    3.2900   -0.7389 N   0  0  0  0  0  0  0  0  0  0  0  0
   -2.9880   -0.7861    1.6672 N   0  0  0  0  0  0  0  0  0  0  0  0
    8.4723    4.1548    0.2159 N   0  0  0  0  0  0  0  0  0  0  0  0
    9.3402    4.2827   -1.8308 O   0  0  0  0  0  0  0  0  0  0  0  0
    7.2229    3.9327   -2.5838 O   0  0  0  0  0  0  0  0  0  0  0  0
    7.9781    4.4648   -1.4389 S   0  0  0  0  0  0  0  0  0  0  0  0
  2  1  2  0
  4  3  2  0
  6  5  1  0
  9  1  1  0
 10  7  1  0
 11  8  1  0
 17  3  1  0
 17 12  2  0
 17  2  1  0
 18  4  1  0
 18 13  1  0
 19 12  1  0
 19 14  1  0
 19 18  2  0
 20  7  1  0
 20  8  1  0
 21  5  1  1
 21 13  1  0
 22  6  1  1
 22 14  1  0
 23 15  1  1
 23 21  1  0
 23 22  1  0
 23 32  1  0
 24 16  1  0
 25 20  1  0
 26 24  1  0
 27 24  1  0
 28 24  1  0
 29 25  1  0
 30 25  1  0
 31 25  1  0
 33  9  1  0
 33 10  1  0
 33 11  1  0
 34 15  1  0
 34 16  1  0
 37 32  1  0
 37 34  1  0
 37 35  2  0
 37 36  2  0
M  END
>  <DRUGBANK_ID>  (1) 
DB17015

>  <COMMON_NAME>  (1) 
MRK-003

>  <CAS_NUMBER>  (1) 
623165-93-5

>  <UNII>  (1) 
DJ2AZE88DE

>  <SYNONYMS>  (1) 
(1'R,4R)-2-(2,2,2-trifluoroethyl)-5'-[(E)-3-[4-(trifluoromethyl)piperidin-1-yl]prop-1-enyl]spiro[1,2,5-thiadiazolidine-4,13'-tricyclo[8.2.1.03,8]trideca-3(8),4,6-triene] 1,1-dioxide

$$$$
