
     RDKit          3D

 22 23  0  0  0  0  0  0  0  0999 V2000
    0.9125    0.0609    0.3103 C   0  0  0  0  0  0  0  0  0  0  0  0
    0.4614   -1.3312   -0.2255 C   0  0  0  0  0  0  0  0  0  0  0  0
    0.9818   -2.3346    0.8210 C   0  0  0  0  0  0  0  0  0  0  0  0
   -1.0758   -1.3288   -0.2607 C   0  0  0  0  0  0  0  0  0  0  0  0
    0.9552   -1.7316   -1.6396 C   0  0  0  0  0  0  0  0  0  0  0  0
    0.8796   -3.0708   -2.0712 C   0  0  0  0  0  0  0  0  0  0  0  0
    1.2971   -3.4454   -3.3498 C   0  0  0  0  0  0  0  0  0  0  0  0
    1.8174   -2.4686   -4.2108 C   0  0  0  0  0  0  0  0  0  0  0  0
    1.8997   -1.0989   -3.8436 C   0  0  0  0  0  0  0  0  0  0  0  0
    1.4249   -0.7695   -2.5602 C   0  0  0  0  0  0  0  0  0  0  0  0
    1.2515    0.4990   -2.1212 O   0  0  0  0  0  0  0  0  0  0  0  0
    2.4663   -0.0936   -4.8694 C   0  0  0  0  0  0  0  0  0  0  0  0
    3.9104   -0.5005   -5.2271 C   0  0  0  0  0  0  0  0  0  0  0  0
    1.5779   -0.0823   -6.1279 C   0  0  0  0  0  0  0  0  0  0  0  0
    2.5596    1.3768   -4.4178 C   0  0  0  0  0  0  0  0  0  0  0  0
    1.1892   -4.8292   -3.7854 C   0  0  0  0  0  0  0  0  0  0  0  0
   -0.0112   -5.5098   -3.8475 C   0  0  0  0  0  0  0  0  0  0  0  0
    0.2453   -7.0908   -4.4572 S   0  0  0  0  0  0  0  0  0  0  0  0
    1.9370   -6.7706   -4.5441 C   0  0  0  0  0  0  0  0  0  0  0  0
    2.8939   -7.8260   -5.0316 C   0  0  0  0  0  0  0  0  0  0  0  0
    2.8745   -9.0448   -4.2152 N   0  0  0  0  0  0  0  0  0  0  0  0
    2.2985   -5.5525   -4.1874 N   0  0  0  0  0  0  0  0  0  0  0  0
  1  2  1  0
  2  3  1  0
  2  4  1  0
  2  5  1  0
  5  6  2  0
  5 10  1  0
  6  7  1  0
  7  8  2  0
  7 16  1  0
  8  9  1  0
  9 10  2  0
  9 12  1  0
 10 11  1  0
 12 13  1  0
 12 14  1  0
 12 15  1  0
 16 17  2  0
 16 22  1  0
 17 18  1  0
 18 19  1  0
 19 20  1  0
 19 22  2  0
 20 21  1  0
M  END
>  <DRUGBANK_ID>  (1) 
DB16950

>  <COMMON_NAME>  (1) 
BN-82451

>  <CAS_NUMBER>  (1) 
335242-75-6

>  <UNII>  (1) 
531B661QBY

>  <SYNONYMS>  (1) 
4-(2-(aminomethyl)-1,3-thiazol-4-yl)-2,6-di(tert-butyl)phenol; Phenol, 4-(2-(aminomethyl)-4-thiazolyl)-2,6-bis(1,1-dimethylethyl)-

$$$$
