
     RDKit          3D

 26 29  0  0  1  0  0  0  0  0999 V2000
   -2.6762    1.8244   -2.8143 O   0  0  0  0  0  0  0  0  0  0  0  0
   -1.7298    0.9051   -2.5285 C   0  0  0  0  0  0  0  0  0  0  0  0
   -1.2698    0.2204   -3.4331 O   0  0  0  0  0  0  0  0  0  0  0  0
   -1.3849    0.7571   -1.0226 C   0  0  1  0  0  0  0  0  0  0  0  0
   -1.8747    1.9202   -0.1426 C   0  0  0  0  0  0  0  0  0  0  0  0
   -3.3947    2.0642   -0.2521 C   0  0  0  0  0  0  0  0  0  0  0  0
   -4.0024    3.2371   -0.5909 C   0  0  0  0  0  0  0  0  0  0  0  0
   -5.4578    3.5275   -0.8276 C   0  0  0  0  0  0  0  0  0  0  0  0
   -5.6156    5.0143   -0.6117 C   0  0  0  0  0  0  0  0  0  0  0  0
   -4.2952    5.5379   -0.4259 N   0  0  0  0  0  0  0  0  0  0  0  0
   -3.3309    4.5909   -0.7603 C   0  0  0  0  0  0  0  0  0  0  0  0
   -2.1854    4.7909   -1.1466 O   0  0  0  0  0  0  0  0  0  0  0  0
   -4.0422    6.6875    0.3657 C   0  0  0  0  0  0  0  0  0  0  0  0
   -4.6457    6.8341    1.6270 C   0  0  0  0  0  0  0  0  0  0  0  0
   -4.5201    8.0226    2.3586 C   0  0  0  0  0  0  0  0  0  0  0  0
   -3.7213    9.0517    1.8744 C   0  0  0  0  0  0  0  0  0  0  0  0
   -3.0301    8.8740    0.6760 C   0  0  0  0  0  0  0  0  0  0  0  0
   -3.2139    7.7119   -0.0920 C   0  0  0  0  0  0  0  0  0  0  0  0
   -4.0636    0.7061   -0.1113 C   0  0  0  0  0  0  0  0  0  0  0  0
   -5.4328    0.5731    0.1257 C   0  0  0  0  0  0  0  0  0  0  0  0
   -6.0739   -0.6544    0.2292 C   0  0  0  0  0  0  0  0  0  0  0  0
   -5.3329   -1.8143    0.1528 C   0  0  0  0  0  0  0  0  0  0  0  0
   -6.1417   -3.3211    0.3144 Cl  0  0  0  0  0  0  0  0  0  0  0  0
   -3.9551   -1.7473   -0.0433 C   0  0  0  0  0  0  0  0  0  0  0  0
   -3.3076   -0.5014   -0.1846 C   0  0  0  0  0  0  0  0  0  0  0  0
   -1.9464   -0.4874   -0.4810 N   0  0  0  0  0  0  0  0  0  0  0  0
  1  2  1  0
  2  3  2  0
  4  5  1  0
  4 26  1  0
  4  2  1  6
  5  6  1  0
  6  7  2  0
  6 19  1  0
  7  8  1  0
  7 11  1  0
  8  9  1  0
  9 10  1  0
 10 11  1  0
 10 13  1  0
 11 12  2  0
 13 14  2  0
 13 18  1  0
 14 15  1  0
 15 16  2  0
 16 17  1  0
 17 18  2  0
 19 20  1  0
 19 25  2  0
 20 21  2  0
 21 22  1  0
 22 23  1  0
 22 24  2  0
 24 25  1  0
 25 26  1  0
M  END
>  <DRUGBANK_ID>  (1) 
DB15099

>  <COMMON_NAME>  (1) 
GW-468816

>  <CAS_NUMBER>  (1) 
476689-77-7

>  <UNII>  (1) 
3WGI8FOO62

$$$$
