
     RDKit          3D

 21 22  0  0  0  0  0  0  0  0999 V2000
    0.9018   -0.0068    0.0179 P   0  0  0  0  0  0  0  0  0  0  0  0
    1.9444    7.1289   -1.7046 P   0  0  0  0  0  0  0  0  0  0  0  0
    0.8510    1.8262   -1.8892 C   0  0  0  0  0  0  0  0  0  0  0  0
    0.7598    4.6969   -2.3520 C   0  0  0  0  0  0  0  0  0  0  0  0
    0.0090    2.3964   -2.8912 C   0  0  0  0  0  0  0  0  0  0  0  0
   -0.0134    3.8254   -3.1478 C   0  0  0  0  0  0  0  0  0  0  0  0
    0.7780    0.4794   -1.5814 O   0  0  0  0  0  0  0  0  0  0  0  0
    0.8790    6.1080   -2.6077 O   0  0  0  0  0  0  0  0  0  0  0  0
    1.6566    2.6838   -1.1607 C   0  0  0  0  0  0  0  0  0  0  0  0
    1.3965    4.0322   -1.3005 C   0  0  0  0  0  0  0  0  0  0  0  0
    0.8037   -1.6272   -0.1394 O   0  0  0  0  0  0  0  0  0  0  0  0
   -0.8282   -0.0068    0.0179 O   0  0  0  0  0  0  0  0  0  0  0  0
    0.6340    7.5392   -0.8265 O   0  0  0  0  0  0  0  0  0  0  0  0
    2.6644    5.9591   -0.8935 O   0  0  0  0  0  0  0  0  0  0  0  0
    2.4502   -0.0068    0.0179 O   0  0  0  0  0  0  0  0  0  0  0  0
    2.8979    8.0427   -0.8963 O   0  0  0  0  0  0  0  0  0  0  0  0
   -0.8437    1.5639   -3.6525 C   0  0  0  0  0  0  0  0  0  0  0  0
    2.7512    2.3826   -0.1702 C   0  0  0  0  0  0  0  0  0  0  0  0
   -0.8727    4.3366   -4.1320 C   0  0  0  0  0  0  0  0  0  0  0  0
   -1.7004    2.1111   -4.6086 C   0  0  0  0  0  0  0  0  0  0  0  0
   -1.7196    3.4776   -4.8446 C   0  0  0  0  0  0  0  0  0  0  0  0
  2  8  1  0
  3  7  1  0
  4  6  2  0
  5  3  2  0
  6  5  1  0
  7  1  1  0
  8  4  1  0
  9  3  1  0
 10  9  2  0
 10  4  1  0
 11  1  1  0
 12  1  1  0
 13  2  1  0
 14  2  1  0
 15  1  2  0
 16  2  2  0
 17  5  1  0
 18  9  1  0
 19  6  1  0
 20 17  2  0
 21 19  2  0
 21 20  1  0
M  END
>  <DRUGBANK_ID>  (1) 
DB14650

>  <SECONDARY_ACCESSION_NUMBERS>  (1) 
DBSALT000878

>  <COMMON_NAME>  (1) 
Menadiol diphosphate

>  <CAS_NUMBER>  (1) 
84-98-0

>  <UNII>  (1) 
GRL65FEU3T

>  <SYNONYMS>  (1) 
2-methyl-1,4-naphthalenediol diphosphate; Menadiol bis(dihydrogen phosphate); Menadiol phosphate

$$$$
