
     RDKit          3D

 29 30  0  0  1  0  0  0  0  0999 V2000
   -1.7396   -5.1706    2.5685 O   0  0  0  0  0  0  0  0  0  0  0  0
   -0.4876   -4.5783    2.2368 C   0  0  0  0  0  0  0  0  0  0  0  0
   -0.2419   -3.4583    0.8472 C   0  0  1  0  0  0  0  0  0  0  0  0
   -0.5499   -2.0919    1.1210 O   0  0  0  0  0  0  0  0  0  0  0  0
    1.1564   -3.6001    0.4838 C   0  0  2  0  0  0  0  0  0  0  0  0
    1.5766   -2.5187   -0.3684 O   0  0  0  0  0  0  0  0  0  0  0  0
    1.2941   -4.8807   -0.3538 C   0  0  1  0  0  0  0  0  0  0  0  0
    2.7148   -4.9949   -0.4716 O   0  0  0  0  0  0  0  0  0  0  0  0
    0.5688   -6.1752    0.1288 C   0  0  0  0  0  0  0  0  0  0  0  0
   -1.0389   -6.2141   -0.0093 N   0  0  0  0  0  0  0  0  0  0  0  0
   -2.0495   -5.3481    0.3199 C   0  0  0  0  0  0  0  0  0  0  0  0
   -2.1572   -4.1366    0.5463 O   0  0  0  0  0  0  0  0  0  0  0  0
   -3.2697   -5.8356    0.6512 N   0  0  0  0  0  0  0  0  0  0  0  0
   -4.5392   -5.1948    1.5124 C   0  0  0  0  0  0  0  0  0  0  0  0
   -4.3253   -4.6662    3.0156 C   0  0  0  0  0  0  0  0  0  0  0  0
   -3.2969   -3.5115    3.4101 C   0  0  0  0  0  0  0  0  0  0  0  0
   -2.9136   -2.5910    2.3256 O   0  0  0  0  0  0  0  0  0  0  0  0
   -3.4063   -2.1233    0.8056 P   0  0  0  0  0  0  0  0  0  0  0  0
   -4.0750   -3.2889   -0.0300 O   0  0  0  0  0  0  0  0  0  0  0  0
   -4.7181   -1.3545    1.1985 O   0  0  0  0  0  0  0  0  0  0  0  0
   -2.4752   -1.4476   -0.1558 O   0  0  0  0  0  0  0  0  0  0  0  0
   -3.1164   -7.0271    0.0581 C   0  0  0  0  0  0  0  0  0  0  0  0
   -1.8307   -7.2873   -0.2887 C   0  0  0  0  0  0  0  0  0  0  0  0
   -1.4886   -8.3741   -0.9844 N   0  0  0  0  0  0  0  0  0  0  0  0
   -2.4828   -9.1676   -1.4969 C   0  0  0  0  0  0  0  0  0  0  0  0
   -2.2239  -10.1620   -2.1591 O   0  0  0  0  0  0  0  0  0  0  0  0
   -3.7902   -8.7835   -1.2446 N   0  0  0  0  0  0  0  0  0  0  0  0
   -4.2170   -7.7437   -0.4867 C   0  0  0  0  0  0  0  0  0  0  0  0
   -5.3723   -7.3730   -0.3517 O   0  0  0  0  0  0  0  0  0  0  0  0
  1  2  1  0
  2  3  1  0
  3  4  1  1
  5  7  1  0
  5  6  1  6
  5  3  1  0
  7  8  1  1
  7  9  1  0
  9 10  1  0
 10 11  1  0
 10 23  1  0
 11 12  2  0
 11 13  1  0
 13 14  1  0
 13 22  1  0
 14 15  1  0
 15 16  1  0
 16 17  1  0
 17 18  1  0
 18 19  1  0
 18 20  1  0
 18 21  2  0
 22 23  2  0
 22 28  1  0
 23 24  1  0
 24 25  1  0
 25 26  2  0
 25 27  1  0
 27 28  1  0
 28 29  2  0
M  END
>  <DRUGBANK_ID>  (1) 
DB03812

>  <SECONDARY_ACCESSION_NUMBERS>  (1) 
EXPT02992

>  <COMMON_NAME>  (1) 
3-{2,6,8-trioxo-9-[(2S,3R,4R)-2,3,4,5-tetrahydroxypentyl]-1,2,3,6,8,9-hexahydro-7H-purin-7-Yl}propyl dihydrogen phosphate

$$$$
