
     RDKit          3D

 17 16  0  0  0  0  0  0  0  0999 V2000
   -0.9344    3.4019   -1.4841 C   0  0  0  0  0  0  0  0  0  0  0  0
   -3.5704    7.2888   -1.7350 C   0  0  0  0  0  0  0  0  0  0  0  0
   -1.5241    4.3811   -2.4867 C   0  0  0  0  0  0  0  0  0  0  0  0
   -3.1110    6.2240   -0.7501 C   0  0  0  0  0  0  0  0  0  0  0  0
   -3.0580    4.3794   -2.4827 C   0  0  0  0  0  0  0  0  0  0  0  0
   -3.7170    4.8856   -1.1953 C   0  0  0  0  0  0  0  0  0  0  0  0
   -1.2860    3.7410   -0.0511 C   0  0  0  0  0  0  0  0  0  0  0  0
   -0.8530    2.7479    0.9552 C   0  0  0  0  0  0  0  0  0  0  0  0
   -5.1001    7.3626   -1.7371 C   0  0  0  0  0  0  0  0  0  0  0  0
   -5.6382    7.6732   -0.3386 C   0  0  0  0  0  0  0  0  0  0  0  0
    0.6416    2.7016    1.0934 C   0  0  2  0  0  0  0  0  0  0  0  0
    1.0456    1.6024    2.0581 C   0  0  0  0  0  0  0  0  0  0  0  0
   -5.1228    9.0273    0.1139 C   0  0  0  0  0  0  0  0  0  0  0  0
   -0.0987    1.2299    2.9857 C   0  0  0  0  0  0  0  0  0  0  0  0
   -0.6394    0.0120    2.7391 O   0  0  0  0  0  0  0  0  0  0  0  0
   -0.5728    1.9901    3.8034 O   0  0  0  0  0  0  0  0  0  0  0  0
    1.1316    3.9719    1.5180 O   0  0  0  0  0  0  0  0  0  0  0  0
  3  1  1  0
  4  2  1  0
  5  3  1  0
  6  4  1  0
  6  5  1  0
  7  1  1  0
  8  7  1  0
  9  2  1  0
 10  9  1  0
 11 17  1  1
 11 12  1  0
 11  8  1  0
 12 14  1  0
 13 10  1  0
 14 15  1  0
 14 16  2  0
M  END
>  <DRUGBANK_ID>  (1) 
DB02767

>  <SECONDARY_ACCESSION_NUMBERS>  (1) 
EXPT01506

>  <COMMON_NAME>  (1) 
(R)-3-hydroxytetradecanoic acid

>  <CAS_NUMBER>  (1) 
28715-21-1

>  <UNII>  (1) 
R7C245Y68X

>  <SYNONYMS>  (1) 
(−)-3-hydroxymyristic acid; (3R)-hydroxymyristic acid; (R)-(-)-3-Hydroxytetradecanoic acid; (R)-(−)-3-hydroxytetradecanoic acid; (R)-3-Hydroxymyristic acid; (R)-3-Hydroxytetradecanoic acid; D-(-)-beta-Hydroxymyristic acid; D-(−)-β-hydroxymyristic acid; β-hydroxymyristic acid; β-hydroxytetradecanoic acid

$$$$
