
     RDKit          3D

 34 39  0  0  1  0  0  0  0  0999 V2000
   -0.9393   -0.3590    1.2366 C   0  0  0  0  0  0  0  0  0  0  0  0
    0.6176   -0.4080    1.2717 C   0  0  1  0  0  0  0  0  0  0  0  0
    0.9655    0.6363    2.3773 C   0  0  0  0  0  0  0  0  0  0  0  0
    1.2612   -0.1820    3.6279 C   0  0  0  0  0  0  0  0  0  0  0  0
    0.9791   -1.6619    3.2626 C   0  0  0  0  0  0  0  0  0  0  0  0
    1.0717   -1.7364    1.7903 N   0  0  0  0  0  0  0  0  0  0  0  0
    1.5294   -2.8684    1.0217 C   0  0  0  0  0  0  0  0  0  0  0  0
    1.0532   -4.0589    1.3004 N   0  0  0  0  0  0  0  0  0  0  0  0
    1.5340   -5.0876    0.5504 N   0  0  0  0  0  0  0  0  0  0  0  0
    1.1268   -6.4066    0.5970 C   0  0  0  0  0  0  0  0  0  0  0  0
    1.8901   -7.1542   -0.2716 C   0  0  0  0  0  0  0  0  0  0  0  0
    2.8155   -6.2651   -0.8332 C   0  0  0  0  0  0  0  0  0  0  0  0
    2.5223   -4.9905   -0.3825 C   0  0  0  0  0  0  0  0  0  0  0  0
    3.0457   -3.6884   -0.6765 C   0  0  0  0  0  0  0  0  0  0  0  0
    4.0498   -3.4411   -1.6448 N   0  0  0  0  0  0  0  0  0  0  0  0
    4.6837   -4.4269   -2.3584 C   0  0  0  0  0  0  0  0  0  0  0  0
    5.9550   -4.8331   -2.2092 N   0  0  0  0  0  0  0  0  0  0  0  0
    6.0662   -5.9227   -3.0101 N   0  0  0  0  0  0  0  0  0  0  0  0
    4.9511   -6.1669   -3.7614 C   0  0  0  0  0  0  0  0  0  0  0  0
    4.0733   -5.1538   -3.4324 C   0  0  0  0  0  0  0  0  0  0  0  0
    4.7360   -7.3827   -4.6625 C   0  0  0  0  0  0  0  0  0  0  0  0
    4.3506   -7.1784   -6.1090 C   0  0  0  0  0  0  0  0  0  0  0  0
    3.3383   -7.7135   -5.1514 C   0  0  0  0  0  0  0  0  0  0  0  0
    2.5215   -2.6947    0.0257 N   0  0  0  0  0  0  0  0  0  0  0  0
    1.2024   -0.0861   -0.1211 C   0  0  0  0  0  0  0  0  0  0  0  0
    0.4926   -0.1942   -1.1447 O   0  0  0  0  0  0  0  0  0  0  0  0
    2.4862    0.3804   -0.2972 N   0  0  0  0  0  0  0  0  0  0  0  0
    3.4816    0.6142    0.6732 C   0  0  0  0  0  0  0  0  0  0  0  0
    4.1174    1.8475    0.7455 C   0  0  0  0  0  0  0  0  0  0  0  0
    4.8946    2.2406    1.7901 N   0  0  0  0  0  0  0  0  0  0  0  0
    5.0685    1.3528    2.7939 C   0  0  0  0  0  0  0  0  0  0  0  0
    5.7599    1.7391    3.8740 F   0  0  0  0  0  0  0  0  0  0  0  0
    4.5454    0.0835    2.7845 C   0  0  0  0  0  0  0  0  0  0  0  0
    3.7715   -0.2856    1.6923 C   0  0  0  0  0  0  0  0  0  0  0  0
  2  3  1  0
  2  6  1  0
  2 25  1  0
  2  1  1  6
  3  4  1  0
  4  5  1  0
  5  6  1  0
  6  7  1  0
  7  8  2  0
  7 24  1  0
  8  9  1  0
  9 10  1  0
  9 13  1  0
 10 11  2  0
 11 12  1  0
 12 13  2  0
 13 14  1  0
 14 15  1  0
 14 24  2  0
 15 16  1  0
 16 17  2  0
 16 20  1  0
 17 18  1  0
 18 19  1  0
 19 20  2  0
 19 21  1  0
 21 22  1  0
 21 23  1  0
 22 23  1  0
 25 26  2  0
 25 27  1  0
 27 28  1  0
 28 29  2  0
 28 34  1  0
 29 30  1  0
 30 31  2  0
 31 32  1  0
 31 33  1  0
 33 34  2  0
M  END
>  <DRUGBANK_ID>  (1) 
DB15399

>  <COMMON_NAME>  (1) 
BMS-754807

>  <CAS_NUMBER>  (1) 
1001350-96-4

>  <UNII>  (1) 
W9E3353E8J

$$$$
