
     RDKit          3D

 11 11  0  0  0  0  0  0  0  0999 V2000
    1.1392   -0.4855   -2.5489 C   0  0  0  0  0  0  0  0  0  0  0  0
    1.1307   -1.8870    1.3430 C   0  0  0  0  0  0  0  0  0  0  0  0
    1.8535    0.1627   -1.3575 C   0  0  2  0  0  0  0  0  0  0  0  0
    2.3456   -1.0527    1.6962 C   0  0  1  0  0  0  0  0  0  0  0  0
    1.8895    0.3296    1.2431 C   0  0  2  0  0  0  0  0  0  0  0  0
    1.0825    0.0077   -0.0299 C   0  0  2  0  0  0  0  0  0  0  0  0
    0.0468    0.3354   -2.9621 O   0  0  0  0  0  0  0  0  0  0  0  0
    2.0504    1.5530   -1.6589 O   0  0  0  0  0  0  0  0  0  0  0  0
    2.6790   -1.1376    3.0721 O   0  0  0  0  0  0  0  0  0  0  0  0
    2.9508    1.2591    1.1160 O   0  0  0  0  0  0  0  0  0  0  0  0
    0.6174   -1.3531    0.1194 O   0  0  0  0  0  0  0  0  0  0  0  0
  3  8  1  6
  3  1  1  0
  4  2  1  0
  4  9  1  1
  5  4  1  0
  5  6  1  0
  5 10  1  6
  6 11  1  1
  6  3  1  0
  7  1  1  0
 11  2  1  0
M  END
>  <DRUGBANK_ID>  (1) 
DB14474

>  <COMMON_NAME>  (1) 
Sorbitan

>  <CAS_NUMBER>  (1) 
12441-09-7

>  <UNII>  (1) 
AV0YTZ4E6J

>  <SYNONYMS>  (1) 
1,4-Sorbitan

$$$$
