MNP
     RDKit          3D

 13 13  0  0  0  0  0  0  0  0999 V2000
    1.0929    0.0901   -0.0903 C   0  0  0  0  0  0  0  0  0  0  0  0
    0.3212   -1.1112    0.4330 C   0  0  0  0  0  0  0  0  0  0  0  0
   -0.5361   -0.8371    1.6559 C   0  0  0  0  0  0  0  0  0  0  0  0
   -1.0890   -1.9063    2.3832 C   0  0  0  0  0  0  0  0  0  0  0  0
   -1.7753   -1.6544    3.5860 C   0  0  0  0  0  0  0  0  0  0  0  0
   -2.2760   -2.7734    4.3939 N   0  0  0  0  0  0  0  0  0  0  0  0
   -2.8381   -2.5055    5.4658 O   0  0  0  0  0  0  0  0  0  0  0  0
   -2.0882   -3.9214    3.9669 O   0  0  0  0  0  0  0  0  0  0  0  0
   -1.9273   -0.3486    4.0666 C   0  0  0  0  0  0  0  0  0  0  0  0
   -1.4011    0.7085    3.3365 C   0  0  0  0  0  0  0  0  0  0  0  0
   -0.7635    0.4677    2.1218 C   0  0  0  0  0  0  0  0  0  0  0  0
    0.5580    1.0952   -0.5509 O   0  0  0  0  0  0  0  0  0  0  0  0
    2.4374    0.0025    0.0013 O   0  0  0  0  0  0  0  0  0  0  0  0
  1  2  1  0
  1 12  2  0
  1 13  1  0
  2  3  1  0
  3  4  2  0
  3 11  1  0
  4  5  1  0
  5  6  1  0
  5  9  2  0
  6  7  1  0
  6  8  2  0
  9 10  1  0
 10 11  2  0
M  CHG  2   6   1   7  -1
M  END
>  <DRUGBANK_ID>  (1) 
DB08193

>  <COMMON_NAME>  (1) 
2-(3-NITROPHENYL)ACETIC ACID

$$$$
