
     RDKit          3D

 13 14  0  0  0  0  0  0  0  0999 V2000
    0.9737   -0.1643   -0.0799 Cl  0  0  0  0  0  0  0  0  0  0  0  0
    2.7078   -0.0561   -0.0424 C   0  0  0  0  0  0  0  0  0  0  0  0
    3.3488    1.1228   -0.0047 C   0  0  0  0  0  0  0  0  0  0  0  0
    2.5110    2.6399   -0.0258 Cl  0  0  0  0  0  0  0  0  0  0  0  0
    4.8164    1.1171   -0.0185 C   0  0  0  0  0  0  0  0  0  0  0  0
    5.5837    2.2917   -0.0443 C   0  0  0  0  0  0  0  0  0  0  0  0
    6.9535    2.2412   -0.3048 C   0  0  0  0  0  0  0  0  0  0  0  0
    7.5911    1.0147   -0.4453 C   0  0  0  0  0  0  0  0  0  0  0  0
    6.8855   -0.1566   -0.1952 C   0  0  0  0  0  0  0  0  0  0  0  0
    5.4910   -0.1094   -0.0588 C   0  0  0  0  0  0  0  0  0  0  0  0
    4.7409   -1.3828   -0.0474 C   0  0  0  0  0  0  0  0  0  0  0  0
    5.3243   -2.4662   -0.0669 O   0  0  0  0  0  0  0  0  0  0  0  0
    3.3854   -1.2947   -0.0573 O   0  0  0  0  0  0  0  0  0  0  0  0
  1  2  1  0
  2  3  2  0
  2 13  1  0
  3  4  1  0
  3  5  1  0
  5  6  2  0
  5 10  1  0
  6  7  1  0
  7  8  2  0
  8  9  1  0
  9 10  2  0
 10 11  1  0
 11 12  2  0
 11 13  1  0
M  END
>  <DRUGBANK_ID>  (1) 
DB04459

>  <SECONDARY_ACCESSION_NUMBERS>  (1) 
EXPT01202

>  <COMMON_NAME>  (1) 
3,4-Dichloroisocoumarin

>  <UNII>  (1) 
SD08W1HH6E

$$$$
