
     RDKit          3D

 26 28  0  0  0  0  0  0  0  0999 V2000
    1.3839    0.0440    0.4502 C   0  0  0  0  0  0  0  0  0  0  0  0
    0.7616    1.1745   -0.3221 C   0  0  0  0  0  0  0  0  0  0  0  0
    0.0892    1.1022   -1.5045 C   0  0  0  0  0  0  0  0  0  0  0  0
   -0.2423    2.4657   -2.0145 C   0  0  0  0  0  0  0  0  0  0  0  0
   -0.9312    3.1504   -3.1409 C   0  0  0  0  0  0  0  0  0  0  0  0
   -0.7947    4.5659   -3.2318 C   0  0  0  0  0  0  0  0  0  0  0  0
   -0.0529    5.3159   -2.3294 C   0  0  0  0  0  0  0  0  0  0  0  0
    0.5821    4.6968   -1.2603 C   0  0  0  0  0  0  0  0  0  0  0  0
    0.4663    3.2995   -1.0929 C   0  0  0  0  0  0  0  0  0  0  0  0
    1.0188    2.4959   -0.1011 N   0  0  0  0  0  0  0  0  0  0  0  0
    1.8566    2.8745    1.0214 C   0  0  0  0  0  0  0  0  0  0  0  0
    1.2078    2.3955    2.2974 C   0  0  0  0  0  0  0  0  0  0  0  0
    1.6607    1.5569    3.0629 O   0  0  0  0  0  0  0  0  0  0  0  0
   -0.0194    2.9170    2.5000 O   0  0  0  0  0  0  0  0  0  0  0  0
   -1.7868    2.6541   -4.2117 N   0  0  0  0  0  0  0  0  0  0  0  0
   -2.2503    1.4010   -4.5075 C   0  0  0  0  0  0  0  0  0  0  0  0
   -2.9294    1.0804   -5.4923 O   0  0  0  0  0  0  0  0  0  0  0  0
   -1.7744    0.4095   -3.6052 C   0  0  0  0  0  0  0  0  0  0  0  0
    0.4043   -0.4426   -2.2750 S   0  0  0  0  0  0  0  0  0  0  0  0
   -0.5796   -1.8265   -1.6043 C   0  0  0  0  0  0  0  0  0  0  0  0
   -0.9679   -2.0372   -0.2744 C   0  0  0  0  0  0  0  0  0  0  0  0
   -0.5147   -3.2127    0.3440 C   0  0  0  0  0  0  0  0  0  0  0  0
    0.0957   -4.2171   -0.4190 C   0  0  0  0  0  0  0  0  0  0  0  0
    0.1841   -4.1057   -1.8009 C   0  0  0  0  0  0  0  0  0  0  0  0
   -0.1672   -2.9080   -2.3919 C   0  0  0  0  0  0  0  0  0  0  0  0
    0.8251   -5.5695    0.3506 Cl  0  0  0  0  0  0  0  0  0  0  0  0
  1  2  1  0
  2  3  2  0
  2 10  1  0
  3  4  1  0
  3 19  1  0
  4  5  2  0
  4  9  1  0
  5  6  1  0
  5 15  1  0
  6  7  2  0
  7  8  1  0
  8  9  2  0
  9 10  1  0
 10 11  1  0
 11 12  1  0
 12 13  2  0
 12 14  1  0
 15 16  1  0
 16 17  2  0
 16 18  1  0
 19 20  1  0
 20 21  2  0
 20 25  1  0
 21 22  1  0
 22 23  2  0
 23 24  1  0
 23 26  1  0
 24 25  2  0
M  END
>  <DRUGBANK_ID>  (1) 
DB11946

>  <COMMON_NAME>  (1) 
AZD-1981

>  <CAS_NUMBER>  (1) 
802904-66-1

>  <UNII>  (1) 
2AD53WQ2CX

$$$$
