
     RDKit          3D

 30 32  0  0  0  0  0  0  0  0999 V2000
    1.4331   -0.3168    0.1432 S   0  0  0  0  0  0  0  0  0  0  0  0
    0.6067   -3.3311   -1.4552 S   0  0  0  0  0  0  0  0  0  0  0  0
    2.6171    7.3625   -0.1688 F   0  0  0  0  0  0  0  0  0  0  0  0
    4.1820    6.4308    1.0191 F   0  0  0  0  0  0  0  0  0  0  0  0
    4.3083    6.4067   -1.1494 F   0  0  0  0  0  0  0  0  0  0  0  0
   -2.0067   -0.9569   -6.2893 O   0  0  0  0  0  0  0  0  0  0  0  0
   -2.2487   -3.9961   -8.3408 O   0  0  0  0  0  0  0  0  0  0  0  0
   -0.5550   -2.5454   -8.5338 O   0  0  0  0  0  0  0  0  0  0  0  0
   -0.6594    1.1689    0.0545 N   0  0  0  0  0  0  0  0  0  0  0  0
   -0.1031   -1.0934    0.0397 C   0  0  0  0  0  0  0  0  0  0  0  0
   -0.2348   -2.5786   -0.0189 C   0  0  0  0  0  0  0  0  0  0  0  0
   -1.1064   -0.1391    0.0308 C   0  0  0  0  0  0  0  0  0  0  0  0
    0.6564    1.2091    0.0633 C   0  0  0  0  0  0  0  0  0  0  0  0
    1.4241    2.4528    0.0321 C   0  0  0  0  0  0  0  0  0  0  0  0
   -0.2512   -2.5685   -2.8157 C   0  0  0  0  0  0  0  0  0  0  0  0
   -1.7823   -2.8384   -4.6750 C   0  0  0  0  0  0  0  0  0  0  0  0
   -1.0806   -3.3633   -3.5805 C   0  0  0  0  0  0  0  0  0  0  0  0
    2.2811    2.7560   -1.0347 C   0  0  0  0  0  0  0  0  0  0  0  0
    1.2036    3.4175    1.0235 C   0  0  0  0  0  0  0  0  0  0  0  0
   -1.5719   -1.5273   -5.1182 C   0  0  0  0  0  0  0  0  0  0  0  0
    2.6864    4.9689   -0.1121 C   0  0  0  0  0  0  0  0  0  0  0  0
   -2.5744   -0.3721   -0.0114 C   0  0  0  0  0  0  0  0  0  0  0  0
   -0.1070   -1.2333   -3.1907 C   0  0  0  0  0  0  0  0  0  0  0  0
    2.9094    4.0033   -1.1045 C   0  0  0  0  0  0  0  0  0  0  0  0
    1.7945    4.6787    0.9303 C   0  0  0  0  0  0  0  0  0  0  0  0
   -0.7888   -0.7044   -4.3032 C   0  0  0  0  0  0  0  0  0  0  0  0
   -2.6406   -3.8138   -5.3707 C   0  0  0  0  0  0  0  0  0  0  0  0
    3.4360    6.2776   -0.1114 C   0  0  0  0  0  0  0  0  0  0  0  0
   -2.5503   -1.7334   -7.3610 C   0  0  0  0  0  0  0  0  0  0  0  0
   -1.6742   -2.7707   -8.1284 C   0  0  0  0  0  0  0  0  0  0  0  0
  1 10  1  0
  1 13  1  0
  2 11  1  0
  2 15  1  0
  3 28  1  0
  4 28  1  0
  5 28  1  0
  6 20  1  0
  6 29  1  0
  7 30  1  0
  8 30  2  0
  9 12  1  0
  9 13  2  0
 10 11  1  0
 10 12  2  0
 12 22  1  0
 13 14  1  0
 14 18  2  0
 14 19  1  0
 15 17  1  0
 15 23  2  0
 16 17  2  0
 16 20  1  0
 16 27  1  0
 18 24  1  0
 19 25  2  0
 20 26  2  0
 21 24  2  0
 21 25  1  0
 21 28  1  0
 23 26  1  0
 29 30  1  0
M  END
>  <DRUGBANK_ID>  (1) 
DB05416

>  <SECONDARY_ACCESSION_NUMBERS>  (1) 
DB13015

>  <COMMON_NAME>  (1) 
Cardarine

>  <CAS_NUMBER>  (1) 
317318-70-0

>  <UNII>  (1) 
7I2HA1NU22

$$$$
