MOB
     RDKit          3D

 22 23  0  0  0  0  0  0  0  0999 V2000
    1.4985   -0.3000   -0.0170 C   0  0  0  0  0  0  0  0  0  0  0  0
    0.5775   -1.3876   -0.0546 C   0  0  0  0  0  0  0  0  0  0  0  0
   -0.8162   -1.1157   -0.0288 C   0  0  0  0  0  0  0  0  0  0  0  0
   -1.3227    0.1830    0.0011 C   0  0  0  0  0  0  0  0  0  0  0  0
   -0.4413    1.2501    0.0323 C   0  0  0  0  0  0  0  0  0  0  0  0
    0.9419    1.0092   -0.0057 C   0  0  0  0  0  0  0  0  0  0  0  0
    4.7112   -1.7299    0.4094 C   0  0  0  0  0  0  0  0  0  0  0  0
    5.4226   -1.0394    1.3705 C   0  0  0  0  0  0  0  0  0  0  0  0
    6.7383   -1.3712    1.6670 C   0  0  0  0  0  0  0  0  0  0  0  0
    7.3543   -2.4428    1.0088 C   0  0  0  0  0  0  0  0  0  0  0  0
    6.6320   -3.2436    0.1197 C   0  0  0  0  0  0  0  0  0  0  0  0
    5.3216   -2.8413   -0.2158 C   0  0  0  0  0  0  0  0  0  0  0  0
    0.8799   -2.8601   -0.1285 C   0  0  0  0  0  0  0  0  0  0  0  0
    6.7710    0.2959    3.3197 C   0  0  0  0  0  0  0  0  0  0  0  0
    8.3197   -4.9352    0.0319 C   0  0  0  0  0  0  0  0  0  0  0  0
    2.9359   -0.3507    0.0199 N   0  0  0  0  0  0  0  0  0  0  0  0
    3.3356   -1.4877    0.3209 N   0  0  0  0  0  0  0  0  0  0  0  0
    0.0550   -3.7424    0.0954 O   0  0  0  0  0  0  0  0  0  0  0  0
    2.1125   -3.2105   -0.4969 O   0  0  0  0  0  0  0  0  0  0  0  0
    7.4862   -0.7214    2.6180 O   0  0  0  0  0  0  0  0  0  0  0  0
    8.6845   -2.6682    1.2532 O   0  0  0  0  0  0  0  0  0  0  0  0
    7.0631   -4.4283   -0.4364 O   0  0  0  0  0  0  0  0  0  0  0  0
  1  2  2  0
  1  6  1  0
  1 16  1  0
  2  3  1  0
  2 13  1  0
  3  4  2  0
  4  5  1  0
  5  6  2  0
  7  8  2  0
  7 12  1  0
  7 17  1  0
  8  9  1  0
  9 10  2  0
  9 20  1  0
 10 11  1  0
 10 21  1  0
 11 12  2  0
 11 22  1  0
 13 18  2  0
 13 19  1  0
 14 20  1  0
 15 22  1  0
 16 17  2  0
M  END
>  <DRUGBANK_ID>  (1) 
DB08196

>  <COMMON_NAME>  (1) 
2-((3',5'-DIMETHOXY-4'-HYDROXYPHENYL)AZO)BENZOIC ACID

$$$$
