173
     RDKit          3D

 10 11  0  0  0  0  0  0  0  0999 V2000
   -1.5820    1.0780    0.0000 N   0  0  0  0  0  0  0  0  0  0  0  0
   -1.5243   -1.1403    0.0011 N   0  0  0  0  0  0  0  0  0  0  0  0
    0.8824   -1.3682   -0.0009 N   0  0  0  0  0  0  0  0  0  0  0  0
    2.0606    0.7505   -0.0031 N   0  0  0  0  0  0  0  0  0  0  0  0
    0.9657    2.8255   -0.0015 N   0  0  0  0  0  0  0  0  0  0  0  0
   -0.2593    0.7417   -0.0012 C   0  0  0  0  0  0  0  0  0  0  0  0
   -0.2478   -0.6409   -0.0003 C   0  0  0  0  0  0  0  0  0  0  0  0
    0.9176    1.4554   -0.0023 C   0  0  0  0  0  0  0  0  0  0  0  0
   -2.3047   -0.0814    0.0011 C   0  0  0  0  0  0  0  0  0  0  0  0
    1.9814   -0.6001   -0.0024 C   0  0  0  0  0  0  0  0  0  0  0  0
  1  6  1  0
  1  9  1  0
  2  7  1  0
  2  9  2  0
  3  7  1  0
  3 10  2  0
  4  8  2  0
  4 10  1  0
  5  8  1  0
  6  7  2  0
  6  8  1  0
M  END
>  <DRUGBANK_ID>  (1) 
DB00173

>  <SECONDARY_ACCESSION_NUMBERS>  (1) 
NUTR00012; EXPT00520

>  <COMMON_NAME>  (1) 
Adenine

>  <CAS_NUMBER>  (1) 
73-24-5

>  <UNII>  (1) 
JAC85A2161

>  <SYNONYMS>  (1) 
6-Aminopurine; Adenin; Adenine; Vitamin B4

$$$$
