
     RDKit          3D

 18 19  0  0  0  0  0  0  0  0999 V2000
   -1.6229   -0.0027   -0.1005 C   0  0  0  0  0  0  0  0  0  0  0  0
   -0.8760    1.2244    0.4134 C   0  0  0  0  0  0  0  0  0  0  0  0
    0.5529    1.1338   -0.0622 C   0  0  0  0  0  0  0  0  0  0  0  0
    1.2456   -0.1181    0.2491 N   0  0  0  0  0  0  0  0  0  0  0  0
    0.5260   -1.2914   -0.2253 C   0  0  0  0  0  0  0  0  0  0  0  0
   -0.8959   -1.2885    0.2894 C   0  0  0  0  0  0  0  0  0  0  0  0
    2.6114   -0.1680   -0.2928 C   0  0  0  0  0  0  0  0  0  0  0  0
    2.7665   -0.0948   -1.8738 C   0  0  0  0  0  0  0  0  0  0  0  0
    2.4381    1.2624   -2.4578 C   0  0  0  0  0  0  0  0  0  0  0  0
    3.0485    2.4102   -1.7924 N   0  0  0  0  0  0  0  0  0  0  0  0
    2.4759    3.6615   -1.9895 C   0  0  0  0  0  0  0  0  0  0  0  0
    3.2432    4.5436   -1.2794 C   0  0  0  0  0  0  0  0  0  0  0  0
    4.2263    3.8958   -0.6093 N   0  0  0  0  0  0  0  0  0  0  0  0
    4.1207    2.6159   -0.9231 C   0  0  0  0  0  0  0  0  0  0  0  0
    5.1036    1.7206   -0.2986 N   0  0  0  0  0  0  0  0  0  0  0  0
    5.8208    2.1784    0.5831 O   0  0  0  0  0  0  0  0  0  0  0  0
    5.1901    0.5439   -0.6915 O   0  0  0  0  0  0  0  0  0  0  0  0
    4.0127   -0.4583   -2.4787 O   0  0  0  0  0  0  0  0  0  0  0  0
  1  2  1  0
  1  6  1  0
  2  3  1  0
  3  4  1  0
  4  5  1  0
  4  7  1  0
  5  6  1  0
  7  8  1  0
  8  9  1  0
  8 18  1  0
  9 10  1  0
 10 11  1  0
 10 14  1  0
 11 12  2  0
 12 13  1  0
 13 14  2  0
 14 15  1  0
 15 16  2  0
 15 17  1  0
M  CHG  2  15   1  17  -1
M  END
>  <DRUGBANK_ID>  (1) 
DB12485

>  <COMMON_NAME>  (1) 
Pimonidazole

>  <CAS_NUMBER>  (1) 
70132-50-2

>  <UNII>  (1) 
46JO4D76R2

>  <SYNONYMS>  (1) 
Pimonidazole

$$$$
