
     RDKit          3D

 20 23  0  0  1  0  0  0  0  0999 V2000
    1.7213   -1.3576   -0.2797 C   0  0  0  0  0  0  0  0  0  0  0  0
   -4.9365   -0.3997    2.5144 C   0  0  0  0  0  0  0  0  0  0  0  0
    2.2615   -4.0968    0.8367 C   0  0  0  0  0  0  0  0  0  0  0  0
    0.3891   -0.7602    3.0764 C   0  0  0  0  0  0  0  0  0  0  0  0
   -1.3669   -1.5406    3.9693 C   0  0  0  0  0  0  0  0  0  0  0  0
   -0.3357   -2.3619   -0.1227 C   0  0  0  0  0  0  0  0  0  0  0  0
    0.9913   -2.6834    1.2395 C   0  0  0  0  0  0  0  0  0  0  0  0
    0.5204   -0.6059    1.0765 C   0  0  2  0  0  0  0  0  0  0  0  0
   -3.6037   -0.5826    1.8877 C   0  0  2  0  0  0  0  0  0  0  0  0
   -1.1079   -1.3634    0.4546 C   0  0  2  0  0  0  0  0  0  0  0  0
   -2.7820   -1.8260    2.6013 C   0  0  1  0  0  0  0  0  0  0  0  0
   -2.7604    0.7061    1.8975 C   0  0  0  0  0  0  0  0  0  0  0  0
   -1.2598   -1.2954    1.9114 C   0  0  2  0  0  0  0  0  0  0  0  0
    0.5343   -3.9496    1.6361 C   0  0  2  0  0  0  0  0  0  0  0  0
   -2.0766   -2.2490    1.3254 C   0  0  1  0  0  0  0  0  0  0  0  0
   -3.0696    1.8119    2.3147 O   0  0  0  0  0  0  0  0  0  0  0  0
   -1.4793    0.3621    1.5333 O   0  0  0  0  0  0  0  0  0  0  0  0
   -0.2320   -2.6443    2.5088 O   0  0  0  0  0  0  0  0  0  0  0  0
   -0.5579   -4.3967    0.8995 O   0  0  0  0  0  0  0  0  0  0  0  0
   -1.7841   -3.7610    1.6055 O   0  0  0  0  0  0  0  0  0  0  0  0
  5  4  1  0
  7  6  1  0
  8  4  1  0
  8  1  1  6
  9  2  1  1
 10  6  1  6
 10  8  1  0
 11  5  1  1
 11  9  1  0
 12  9  1  0
 14  3  1  1
 14  7  1  0
 15 10  1  0
 15 11  1  0
 15 13  1  0
 15 20  1  1
 16 12  2  0
 17 12  1  0
 13 17  1  6
 18 13  1  0
 18 14  1  0
 19 14  1  0
 20 19  1  0
M  END
>  <DRUGBANK_ID>  (1) 
DB13132

>  <COMMON_NAME>  (1) 
Artemisinin

>  <CAS_NUMBER>  (1) 
63968-64-9

>  <UNII>  (1) 
9RMU91N5K2

>  <SYNONYMS>  (1) 
Artemisinin; artemisinina

$$$$
