
     RDKit          3D

 13 14  0  0  0  0  0  0  0  0999 V2000
    1.0726   -0.2100    0.0278 C   0  0  0  0  0  0  0  0  0  0  0  0
   -1.9605    1.8417    3.6024 C   0  0  0  0  0  0  0  0  0  0  0  0
   -2.2582    1.4861    2.2971 C   0  0  0  0  0  0  0  0  0  0  0  0
   -0.5409    0.0614    3.7592 C   0  0  0  0  0  0  0  0  0  0  0  0
    0.6069   -1.4475    0.7466 C   0  0  0  0  0  0  0  0  0  0  0  0
   -0.8191   -0.2943    2.4397 C   0  0  0  0  0  0  0  0  0  0  0  0
   -0.2124   -1.4751    1.8187 C   0  0  0  0  0  0  0  0  0  0  0  0
    1.0797   -2.7971    0.2985 C   0  0  0  0  0  0  0  0  0  0  0  0
   -1.0951    1.1384    4.3650 N   0  0  0  0  0  0  0  0  0  0  0  0
   -1.6870    0.4241    1.6825 N   0  0  0  0  0  0  0  0  0  0  0  0
    2.0795   -3.1490   -1.0013 S   0  0  0  0  0  0  0  0  0  0  0  0
   -0.6613   -2.9786    2.5510 S   0  0  0  0  0  0  0  0  0  0  0  0
    0.4938   -4.1040    1.3279 S   0  0  0  0  0  0  0  0  0  0  0  0
  3  2  2  0
  5  1  1  0
  6  4  1  0
  7  5  2  0
  7  6  1  0
  8  5  1  0
  9  2  1  0
  9  4  2  0
 10  3  1  0
 10  6  2  0
 11  8  2  0
 12  7  1  0
 13  8  1  0
 13 12  1  0
M  END
>  <DRUGBANK_ID>  (1) 
DB12539

>  <COMMON_NAME>  (1) 
Oltipraz

>  <CAS_NUMBER>  (1) 
64224-21-1

>  <UNII>  (1) 
6N510JUL1Y

>  <SYNONYMS>  (1) 
Oltipraz

$$$$
