
     RDKit          3D

 28 30  0  0  0  0  0  0  0  0999 V2000
    1.0290   -0.0478   -0.2565 C   0  0  0  0  0  0  0  0  0  0  0  0
    0.5511    0.8245    0.8047 N   0  0  0  0  0  0  0  0  0  0  0  0
   -0.9371    0.9372    0.7326 C   0  0  0  0  0  0  0  0  0  0  0  0
   -1.7569   -0.3371    0.9945 C   0  0  0  0  0  0  0  0  0  0  0  0
   -1.6408   -0.6342    2.4380 C   0  0  0  0  0  0  0  0  0  0  0  0
   -2.0741    0.4153    3.3818 C   0  0  0  0  0  0  0  0  0  0  0  0
   -3.4728    0.2682    3.8027 C   0  0  0  0  0  0  0  0  0  0  0  0
   -3.6543   -1.1570    4.3673 C   0  0  0  0  0  0  0  0  0  0  0  0
   -3.1031   -1.4124    5.7099 O   0  0  0  0  0  0  0  0  0  0  0  0
   -1.7424   -1.5101    5.9553 C   0  0  0  0  0  0  0  0  0  0  0  0
   -0.9074   -0.3861    5.9699 C   0  0  0  0  0  0  0  0  0  0  0  0
    0.4727   -0.5024    5.7633 C   0  0  0  0  0  0  0  0  0  0  0  0
    1.0620   -1.6857    6.1817 C   0  0  0  0  0  0  0  0  0  0  0  0
    0.2245   -2.7306    6.5549 C   0  0  0  0  0  0  0  0  0  0  0  0
    0.9879   -3.7342    7.0833 O   0  0  0  0  0  0  0  0  0  0  0  0
    2.2935   -3.3339    7.0047 C   0  0  0  0  0  0  0  0  0  0  0  0
    2.4031   -2.1152    6.3698 C   0  0  0  0  0  0  0  0  0  0  0  0
    3.6489   -1.3973    6.1404 C   0  0  0  0  0  0  0  0  0  0  0  0
    3.8136   -0.0914    6.6267 C   0  0  0  0  0  0  0  0  0  0  0  0
    4.9976    0.6155    6.3904 C   0  0  0  0  0  0  0  0  0  0  0  0
    6.0189    0.0229    5.6523 C   0  0  0  0  0  0  0  0  0  0  0  0
    7.6315    0.9641    5.3563 Br  0  0  0  0  0  0  0  0  0  0  0  0
    5.8613   -1.2621    5.1369 C   0  0  0  0  0  0  0  0  0  0  0  0
    4.6797   -1.9715    5.3834 C   0  0  0  0  0  0  0  0  0  0  0  0
   -1.1773   -2.7119    6.3885 C   0  0  0  0  0  0  0  0  0  0  0  0
    1.2324    0.4176    2.0718 C   0  0  0  0  0  0  0  0  0  0  0  0
    1.2330   -1.1111    2.3378 C   0  0  0  0  0  0  0  0  0  0  0  0
    2.0109   -1.9850    2.9158 C   0  0  0  0  0  0  0  0  0  0  0  0
  1  2  1  0
  2  3  1  0
  2 26  1  0
  3  4  1  0
  4  5  1  0
  5  6  1  0
  6  7  1  0
  7  8  1  0
  8  9  1  0
  9 10  1  0
 10 11  2  0
 10 25  1  0
 11 12  1  0
 12 13  2  0
 13 14  1  0
 13 17  1  0
 14 15  1  0
 14 25  2  0
 15 16  1  0
 16 17  2  0
 17 18  1  0
 18 19  2  0
 18 24  1  0
 19 20  1  0
 20 21  2  0
 21 22  1  0
 21 23  1  0
 23 24  2  0
 26 27  1  0
 27 28  2  0
M  END
>  <DRUGBANK_ID>  (1) 
DB02339

>  <SECONDARY_ACCESSION_NUMBERS>  (1) 
EXPT02742

>  <COMMON_NAME>  (1) 
Allyl-{6-[3-(4-Bromo-Phenyl)-Benzofuran-6-Yloxy]-Hexyl-}-Methyl-Amin

$$$$
