
     RDKit          3D

 26 28  0  0  0  0  0  0  0  0999 V2000
    1.3605   -0.2558    0.5980 C   0  0  0  0  0  0  0  0  0  0  0  0
    0.4685   -1.2921    0.2558 C   0  0  0  0  0  0  0  0  0  0  0  0
   -0.9097   -1.0396    0.0323 C   0  0  0  0  0  0  0  0  0  0  0  0
   -1.4222    0.2678    0.0428 C   0  0  0  0  0  0  0  0  0  0  0  0
   -0.5019    1.3032    0.2475 C   0  0  0  0  0  0  0  0  0  0  0  0
    0.8607    1.0489    0.4938 C   0  0  0  0  0  0  0  0  0  0  0  0
   -2.8667    0.5303   -0.1789 C   0  0  0  0  0  0  0  0  0  0  0  0
   -3.4226    1.7573   -0.2550 C   0  0  0  0  0  0  0  0  0  0  0  0
   -4.8713    1.9747   -0.4365 C   0  0  0  0  0  0  0  0  0  0  0  0
   -5.2561    3.2795   -0.4666 N   0  0  0  0  0  0  0  0  0  0  0  0
   -5.6973    1.0278   -0.5484 O   0  0  0  0  0  0  0  0  0  0  0  0
   -6.6326    3.5627   -0.6213 O   0  0  0  0  0  0  0  0  0  0  0  0
    2.8218   -0.5254    1.0938 C   0  0  0  0  0  0  0  0  0  0  0  0
    3.8046    0.3092    0.3904 N   0  0  0  0  0  0  0  0  0  0  0  0
    5.1299   -0.1393   -0.1145 C   0  0  0  0  0  0  0  0  0  0  0  0
    4.9192   -1.4530   -0.8581 C   0  0  0  0  0  0  0  0  0  0  0  0
    3.7997   -1.1080   -1.9482 C   0  0  0  0  0  0  0  0  0  0  0  0
    3.0872    0.3425   -2.1992 C   0  0  0  0  0  0  0  0  0  0  0  0
    3.4264    0.0681   -3.4988 N   0  0  0  0  0  0  0  0  0  0  0  0
    2.5305   -1.0404   -3.6103 C   0  0  0  0  0  0  0  0  0  0  0  0
    3.1145   -2.0056   -2.8036 C   0  0  0  0  0  0  0  0  0  0  0  0
    1.1281   -1.1422   -3.6778 C   0  0  0  0  0  0  0  0  0  0  0  0
    0.5369   -2.3658   -3.4414 C   0  0  0  0  0  0  0  0  0  0  0  0
    1.3476   -3.4824   -3.3198 C   0  0  0  0  0  0  0  0  0  0  0  0
    2.7066   -3.3436   -2.9524 C   0  0  0  0  0  0  0  0  0  0  0  0
    1.7320    1.2260   -2.3106 C   0  0  0  0  0  0  0  0  0  0  0  0
  1  2  2  0
  1  6  1  0
  1 13  1  0
  2  3  1  0
  3  4  2  0
  4  5  1  0
  4  7  1  0
  5  6  2  0
  7  8  2  0
  8  9  1  0
  9 10  1  0
  9 11  2  0
 10 12  1  0
 13 14  1  0
 14 15  1  0
 15 16  1  0
 16 17  1  0
 17 18  2  0
 17 21  1  0
 18 19  1  0
 18 26  1  0
 19 20  1  0
 20 21  2  0
 20 22  1  0
 21 25  1  0
 22 23  2  0
 23 24  1  0
 24 25  2  0
M  END
>  <DRUGBANK_ID>  (1) 
DB06603

>  <COMMON_NAME>  (1) 
Panobinostat

>  <CAS_NUMBER>  (1) 
404950-80-7

>  <UNII>  (1) 
9647FM7Y3Z

>  <SYNONYMS>  (1) 
(2E)-N-hydroxy-3-[4-({[2-(2-methyl-1H-indol-3-yl)ethyl]amino}methyl)phenyl]acrylamide; 2-PROPENAMIDE, N-HYDROXY-3-(4-(((2-(2-METHYL-1H-INDOL-3-YL)ETHYL)AMINO)METHYL)PHENYL)-, (2E)-; hydroxypropyl-B-cyclodextrin-panobinostat complex; Panobinostat; Panobinostatum

$$$$
