1107
     RDKit          3D

 13 13  0  0  1  0  0  0  0  0999 V2000
    1.1849    0.0865   -0.2461 O   0  0  0  0  0  0  0  0  0  0  0  0
    4.5576   -2.0147    1.8729 O   0  0  0  0  0  0  0  0  0  0  0  0
    4.8623    0.1091    1.1422 N   0  0  0  0  0  0  0  0  0  0  0  0
    3.2226   -1.2568   -0.0384 C   0  0  0  0  0  0  0  0  0  0  0  0
    3.1926    1.3631   -0.0971 C   0  0  0  0  0  0  0  0  0  0  0  0
    2.4121    0.0562   -0.1432 C   0  0  0  0  0  0  0  0  0  0  0  0
    4.0313   -1.4913   -1.3557 C   0  0  0  0  0  0  0  0  0  0  0  0
    2.2907   -2.4751    0.1048 C   0  0  0  0  0  0  0  0  0  0  0  0
    4.2200   -1.1191    1.1290 C   0  0  0  0  0  0  0  0  0  0  0  0
    4.0587    1.3181    1.1459 C   0  0  0  0  0  0  0  0  0  0  0  0
    4.0774    1.5307   -1.3213 C   0  0  0  0  0  0  0  0  0  0  0  0
    4.9534   -2.6960   -1.3631 C   0  0  0  0  0  0  0  0  0  0  0  0
    1.4364   -2.4824    1.3561 C   0  0  0  0  0  0  0  0  0  0  0  0
  1  6  2  0
  2  9  2  0
  3  9  1  0
  3 10  1  0
  4  6  1  0
  4  7  1  0
  4  8  1  0
  4  9  1  0
  5  6  1  0
  5 10  1  0
  5 11  1  0
  7 12  1  0
  8 13  1  0
M  END
>  <DRUGBANK_ID>  (1) 
DB01107

>  <SECONDARY_ACCESSION_NUMBERS>  (1) 
APRD00734

>  <COMMON_NAME>  (1) 
Methyprylon

>  <CAS_NUMBER>  (1) 
125-64-4

>  <UNII>  (1) 
CUT48I42ON

>  <SYNONYMS>  (1) 
Methyprylon; Methyprylone; Methyprylonum; Metiprilon; Metiprilona; Metiprilone

$$$$
