
     RDKit          3D

 23 25  0  0  1  0  0  0  0  0999 V2000
   -1.1804   -0.0041   -0.8305 C   0  0  0  0  0  0  0  0  0  0  0  0
    0.1337    0.8274   -0.7924 C   0  0  0  0  0  0  0  0  0  0  0  0
    0.6938    0.5912    0.6334 C   0  0  2  0  0  0  0  0  0  0  0  0
    0.3398   -0.8320    0.8615 N   0  0  0  0  0  0  0  0  0  0  0  0
   -1.3143   -1.3567    0.9365 C   0  0  0  0  0  0  0  0  0  0  0  0
   -1.2431   -1.5390   -0.5210 C   0  0  2  0  0  0  0  0  0  0  0  0
   -0.0784   -2.5412   -0.4432 N   0  0  0  0  0  0  0  0  0  0  0  0
    0.9386   -1.6024   -0.2985 C   0  0  0  0  0  0  0  0  0  0  0  0
    1.7202   -1.3241   -1.1850 O   0  0  0  0  0  0  0  0  0  0  0  0
    0.0387   -3.1279    1.0712 O   0  0  0  0  0  0  0  0  0  0  0  0
    1.5610   -3.1838    1.7890 S   0  0  0  0  0  0  0  0  0  0  0  0
    2.2766   -4.1835    0.9822 O   0  0  0  0  0  0  0  0  0  0  0  0
    2.1922   -1.9367    2.0960 O   0  0  0  0  0  0  0  0  0  0  0  0
    1.3233   -3.8660    3.2253 O   0  0  0  0  0  0  0  0  0  0  0  0
    0.2022    1.1013    2.0094 C   0  0  0  0  0  0  0  0  0  0  0  0
    0.9136    0.9544    3.0152 O   0  0  0  0  0  0  0  0  0  0  0  0
   -1.1242    1.4235    2.2126 N   0  0  0  0  0  0  0  0  0  0  0  0
   -2.2465    1.7518    1.2395 C   0  0  0  0  0  0  0  0  0  0  0  0
   -1.8899    2.4863   -0.1400 C   0  0  0  0  0  0  0  0  0  0  0  0
   -0.8955    3.5783    0.1746 C   0  0  0  0  0  0  0  0  0  0  0  0
   -1.8074    4.5565    0.7162 N   0  0  0  0  0  0  0  0  0  0  0  0
   -2.4380    4.0207    1.9496 C   0  0  0  0  0  0  0  0  0  0  0  0
   -3.2318    2.7270    1.7944 C   0  0  0  0  0  0  0  0  0  0  0  0
  1  2  1  0
  6  1  1  6
  2  3  1  0
  3  4  1  0
  3 15  1  1
  4  5  1  0
  4  8  1  0
  6  5  1  0
  6  7  1  0
  7  8  1  0
  7 10  1  0
  8  9  2  0
 10 11  1  0
 11 12  2  0
 11 13  2  0
 11 14  1  0
 15 16  2  0
 15 17  1  0
 17 18  1  0
 18 19  1  0
 18 23  1  0
 19 20  1  0
 20 21  1  0
 21 22  1  0
 22 23  1  0
M  END
>  <DRUGBANK_ID>  (1) 
DB12377

>  <COMMON_NAME>  (1) 
Relebactam

>  <CAS_NUMBER>  (1) 
1174018-99-5

>  <UNII>  (1) 
1OQF7TT3PF

>  <SYNONYMS>  (1) 
Relebactam; Relebactam anhydrous

$$$$
