RIV
     RDKit          3D

 29 32  0  0  0  0  0  0  0  0999 V2000
    1.0252    1.3713    0.0353 C   0  0  0  0  0  0  0  0  0  0  0  0
   -0.4399    1.2287    0.1019 N   0  0  0  0  0  0  0  0  0  0  0  0
    1.7356    0.1100   -0.4560 C   0  0  0  0  0  0  0  0  0  0  0  0
   -1.0539   -0.0229    0.0482 C   0  0  0  0  0  0  0  0  0  0  0  0
    1.2543   -1.0184    0.2693 O   0  0  0  0  0  0  0  0  0  0  0  0
   -0.1103   -1.2319   -0.0612 C   0  0  0  0  0  0  0  0  0  0  0  0
   -2.5987    4.6973    1.2674 C   0  0  0  0  0  0  0  0  0  0  0  0
   -2.6250    3.5535    2.0694 C   0  0  0  0  0  0  0  0  0  0  0  0
   -1.8542    4.6824    0.0852 C   0  0  0  0  0  0  0  0  0  0  0  0
   -1.9529    2.3886    1.6643 C   0  0  0  0  0  0  0  0  0  0  0  0
   -1.1609    3.5277   -0.3046 C   0  0  0  0  0  0  0  0  0  0  0  0
   -1.1928    2.3772    0.4865 C   0  0  0  0  0  0  0  0  0  0  0  0
   -2.2751   -0.1835   -0.0029 O   0  0  0  0  0  0  0  0  0  0  0  0
   -3.3756    5.8191    1.6034 N   0  0  0  0  0  0  0  0  0  0  0  0
   -3.3681    6.4749    2.8109 C   0  0  0  0  0  0  0  0  0  0  0  0
   -4.4095    6.3242    0.7567 C   0  0  0  0  0  0  0  0  0  0  0  0
   -4.3609    7.4194    2.8283 O   0  0  0  0  0  0  0  0  0  0  0  0
   -5.2173    7.2081    1.6922 C   0  0  1  0  0  0  0  0  0  0  0  0
   -2.5812    6.3200    3.7371 O   0  0  0  0  0  0  0  0  0  0  0  0
   -5.6256    8.5422    1.0604 C   0  0  0  0  0  0  0  0  0  0  0  0
   -6.5415    8.3641   -0.0660 N   0  0  0  0  0  0  0  0  0  0  0  0
   -7.7928    8.9639   -0.1048 C   0  0  0  0  0  0  0  0  0  0  0  0
   -9.5261    9.8910   -2.0342 S   0  0  0  0  0  0  0  0  0  0  0  0
  -10.1535    8.8055   -3.1720 C   0  0  0  0  0  0  0  0  0  0  0  0
   -8.5859    8.6573   -1.2881 C   0  0  0  0  0  0  0  0  0  0  0  0
   -9.7098    7.5209   -2.9993 C   0  0  0  0  0  0  0  0  0  0  0  0
   -8.7704    7.4408   -1.9251 C   0  0  0  0  0  0  0  0  0  0  0  0
   -8.1929    9.6743    0.8119 O   0  0  0  0  0  0  0  0  0  0  0  0
  -11.2467    9.3465   -4.3828 Cl  0  0  0  0  0  0  0  0  0  0  0  0
  1  2  1  0
  1  3  1  0
  2  4  1  0
  2 12  1  0
  3  5  1  0
  4  6  1  0
  4 13  2  0
  5  6  1  0
  7  8  2  0
  7  9  1  0
  7 14  1  0
  8 10  1  0
  9 11  2  0
 10 12  2  0
 11 12  1  0
 14 15  1  0
 14 16  1  0
 15 17  1  0
 15 19  2  0
 16 18  1  0
 17 18  1  0
 18 20  1  6
 20 21  1  0
 21 22  1  0
 22 25  1  0
 22 28  2  0
 23 24  1  0
 23 25  1  0
 24 26  2  0
 24 29  1  0
 25 27  2  0
 26 27  1  0
M  END
>  <DRUGBANK_ID>  (1) 
DB06228

>  <SECONDARY_ACCESSION_NUMBERS>  (1) 
DB08477

>  <COMMON_NAME>  (1) 
Rivaroxaban

>  <CAS_NUMBER>  (1) 
366789-02-8

>  <UNII>  (1) 
9NDF7JZ4M3

>  <SYNONYMS>  (1) 
Rivaroxaban

$$$$
