
     RDKit          3D

 27 29  0  0  1  0  0  0  0  0999 V2000
    0.8109   -0.0317    0.0577 C   0  0  0  0  0  0  0  0  0  0  0  0
   -0.2855   -4.5166   -3.1592 C   0  0  0  0  0  0  0  0  0  0  0  0
   -3.5538   -1.9684   -1.8059 C   0  0  0  0  0  0  0  0  0  0  0  0
    0.4032    0.4920   -1.3211 C   0  0  2  0  0  0  0  0  0  0  0  0
   -2.5936   -3.8673   -2.0445 C   0  0  0  0  0  0  0  0  0  0  0  0
   -0.5417    1.5986   -1.1436 C   0  0  2  0  0  0  0  0  0  0  0  0
   -1.8604    0.8261   -1.3620 C   0  0  2  0  0  0  0  0  0  0  0  0
   -1.9961   -5.1350   -1.7954 C   0  0  0  0  0  0  0  0  0  0  0  0
   -1.8896   -2.9553   -2.8410 C   0  0  0  0  0  0  0  0  0  0  0  0
   -1.6364   -0.3164   -2.4091 C   0  0  2  0  0  0  0  0  0  0  0  0
   -2.4773   -6.2366   -1.0957 N   0  0  0  0  0  0  0  0  0  0  0  0
   -0.7546   -5.3710   -2.2472 N   0  0  0  0  0  0  0  0  0  0  0  0
   -0.7695   -3.3001   -3.5500 N   0  0  0  0  0  0  0  0  0  0  0  0
   -3.7243   -3.2503   -1.5466 N   0  0  0  0  0  0  0  0  0  0  0  0
   -2.3318   -1.6681   -2.3905 N   0  0  0  0  0  0  0  0  0  0  0  0
   -0.0545    2.5149   -2.1213 O   0  0  0  0  0  0  0  0  0  0  0  0
   -0.4549   -2.5968   -1.0837 O   0  0  0  0  0  0  0  0  0  0  0  0
    1.9140   -1.2154   -1.7327 O   0  0  0  0  0  0  0  0  0  0  0  0
    1.6109   -3.3779   -2.2012 O   0  0  0  0  0  0  0  0  0  0  0  0
   -1.6537    2.6584   -3.4760 O   0  0  0  0  0  0  0  0  0  0  0  0
   -4.0241    2.5356   -3.5114 O   0  0  0  0  0  0  0  0  0  0  0  0
   -2.8431    4.5377   -3.2881 O   0  0  0  0  0  0  0  0  0  0  0  0
    0.5181   -1.3867    0.1628 O   0  0  0  0  0  0  0  0  0  0  0  0
   -0.2076   -0.4124   -2.3195 O   0  0  0  0  0  0  0  0  0  0  0  0
   -2.9054    1.6646   -1.7105 O   0  0  0  0  0  0  0  0  0  0  0  0
    1.0948   -2.4375   -1.0847 P   0  0  0  0  0  0  0  0  0  0  0  0
   -2.8725    3.1808   -2.5430 P   0  0  0  0  0  0  0  0  0  0  0  0
  4  1  1  1
  6  4  1  0
  6 16  1  6
  7  6  1  0
  7 25  1  6
  8  5  2  0
  9  5  1  0
 10  7  1  0
 10 15  1  1
 11  8  1  0
 12  2  2  0
 12  8  1  0
 13  2  1  0
 13  9  2  0
 14  3  2  0
 14  5  1  0
 15  3  1  0
 15  9  1  0
 23  1  1  0
 24  4  1  0
 24 10  1  0
 26 17  1  0
 26 18  1  0
 26 19  2  0
 26 23  1  0
 27 20  1  0
 27 21  1  0
 27 22  2  0
 27 25  1  0
M  END
>  <DRUGBANK_ID>  (1) 
DB02098

>  <SECONDARY_ACCESSION_NUMBERS>  (1) 
EXPT00366

>  <COMMON_NAME>  (1) 
Adenosine-2'-5'-Diphosphate

$$$$
