
     RDKit          3D

  9  9  0  0  1  0  0  0  0  0999 V2000
    0.9747   -0.0742   -0.0511 C   0  0  0  0  0  0  0  0  0  0  0  0
    0.4625   -0.0831   -1.4887 C   0  0  1  0  0  0  0  0  0  0  0  0
    0.9703   -1.2318   -2.1648 O   0  0  0  0  0  0  0  0  0  0  0  0
   -1.0499   -0.1031   -1.4872 C   0  0  0  0  0  0  0  0  0  0  0  0
   -1.7531   -1.3138   -1.4239 C   0  0  0  0  0  0  0  0  0  0  0  0
   -3.1414   -1.3284   -1.2951 C   0  0  0  0  0  0  0  0  0  0  0  0
   -3.8421   -0.1268   -1.2093 C   0  0  0  0  0  0  0  0  0  0  0  0
   -3.1585    1.0847   -1.2712 C   0  0  0  0  0  0  0  0  0  0  0  0
   -1.7713    1.1007   -1.4332 C   0  0  0  0  0  0  0  0  0  0  0  0
  2  1  1  1
  2  3  1  0
  2  4  1  0
  4  5  2  0
  4  9  1  0
  5  6  1  0
  6  7  2  0
  7  8  1  0
  8  9  2  0
M  END
>  <DRUGBANK_ID>  (1) 
DB04784

>  <COMMON_NAME>  (1) 
(R)-1-phenylethanol

>  <CAS_NUMBER>  (1) 
1517-69-7

>  <UNII>  (1) 
36N222W94B

>  <SYNONYMS>  (1) 
(1R)-1-phenylethanol; (R)-alpha-methylbenzenemethanol; (R)-alpha-methylbenzyl alcohol; (R)-α-methylbenzenemethanol; (R)-α-methylbenzyl alcohol

$$$$
