
     RDKit          3D

 41 45  0  0  0  0  0  0  0  0999 V2000
    0.2318   -0.8618    0.5900 C   0  0  0  0  0  0  0  0  0  0  0  0
    0.5168    1.0226    0.8468 C   0  0  0  0  0  0  0  0  0  0  0  0
    1.3618    2.1831   -0.9501 C   0  0  0  0  0  0  0  0  0  0  0  0
    2.0580    3.7172   -1.1286 C   0  0  0  0  0  0  0  0  0  0  0  0
    3.2874    3.7765   -1.0823 O   0  0  0  0  0  0  0  0  0  0  0  0
    1.3750    4.8842   -1.3346 N   0  0  0  0  0  0  0  0  0  0  0  0
    0.1089    5.0572   -1.7746 C   0  0  0  0  0  0  0  0  0  0  0  0
   -0.4925    6.1169   -1.6241 O   0  0  0  0  0  0  0  0  0  0  0  0
   -0.5081    3.9649   -2.2393 N   0  0  0  0  0  0  0  0  0  0  0  0
   -0.0724    2.6787   -2.1494 C   0  0  0  0  0  0  0  0  0  0  0  0
   -0.7707    1.8693   -2.7913 O   0  0  0  0  0  0  0  0  0  0  0  0
    2.3398    1.5995   -2.0009 C   0  0  0  0  0  0  0  0  0  0  0  0
    3.5217    1.0876   -1.4829 C   0  0  0  0  0  0  0  0  0  0  0  0
    4.3618    0.2831   -2.1071 C   0  0  0  0  0  0  0  0  0  0  0  0
    4.0623    0.1043   -3.3990 C   0  0  0  0  0  0  0  0  0  0  0  0
    2.8753    0.5817   -3.9640 C   0  0  0  0  0  0  0  0  0  0  0  0
    2.0418    1.4326   -3.3070 C   0  0  0  0  0  0  0  0  0  0  0  0
    1.4694    0.1863   -0.5691 C   0  0  0  0  0  0  0  0  0  0  0  0
   -0.1250    1.3651   -0.6676 O   0  0  0  0  0  0  0  0  0  0  0  0
    0.2794    2.8750    0.5275 C   0  0  0  0  0  0  0  0  0  0  0  0
    1.8489    2.9172    1.1768 C   0  0  0  0  0  0  0  0  0  0  0  0
    2.6278    4.0548    1.4659 C   0  0  0  0  0  0  0  0  0  0  0  0
    4.0565    4.1872    1.1661 C   0  0  0  0  0  0  0  0  0  0  0  0
    4.6257    5.4261    0.8469 C   0  0  0  0  0  0  0  0  0  0  0  0
    4.5209    5.9861    2.0168 C   0  0  0  0  0  0  0  0  0  0  0  0
    3.1188    6.1265    2.0458 N   0  0  0  0  0  0  0  0  0  0  0  0
    1.9669    5.1973    1.6028 C   0  0  0  0  0  0  0  0  0  0  0  0
    0.3211    4.9896    1.1188 C   0  0  0  0  0  0  0  0  0  0  0  0
   -0.5277    3.8716    0.6478 C   0  0  0  0  0  0  0  0  0  0  0  0
    5.0513    3.0414    1.1024 C   0  0  0  0  0  0  0  0  0  0  0  0
    4.6457    1.8906    2.0581 C   0  0  0  0  0  0  0  0  0  0  0  0
    5.6698    1.7901    3.1706 C   0  0  0  0  0  0  0  0  0  0  0  0
    6.1780    0.3523    3.2191 C   0  0  0  0  0  0  0  0  0  0  0  0
    6.7774    0.0142    1.8488 C   0  0  0  0  0  0  0  0  0  0  0  0
    5.6910    0.1094    0.8134 C   0  0  0  0  0  0  0  0  0  0  0  0
    4.4289    0.5772    1.4123 N   0  0  0  0  0  0  0  0  0  0  0  0
    3.9341   -0.4091    2.3749 C   0  0  0  0  0  0  0  0  0  0  0  0
    4.9736   -0.5826    3.4830 C   0  0  0  0  0  0  0  0  0  0  0  0
    5.4241   -2.0115    3.5373 C   0  0  0  0  0  0  0  0  0  0  0  0
    5.2963   -2.7483    4.6395 C   0  0  0  0  0  0  0  0  0  0  0  0
    5.2899    2.6725   -0.2335 O   0  0  0  0  0  0  0  0  0  0  0  0
  1  2  1  0
  2  3  1  0
  3  4  1  0
  3 10  1  0
  3 12  1  0
  4  5  2  0
  4  6  1  0
  6  7  1  0
  7  8  2  0
  7  9  1  0
  9 10  1  0
 10 11  2  0
 12 13  2  0
 12 17  1  0
 13 14  1  0
 14 15  2  0
 15 16  1  0
 16 17  2  0
 18 19  1  0
 19 20  1  0
 20 21  2  0
 20 29  1  0
 21 22  1  0
 22 23  2  0
 22 27  1  0
 23 24  1  0
 23 30  1  0
 24 25  2  0
 25 26  1  0
 26 27  2  0
 27 28  1  0
 28 29  2  0
 30 31  1  0
 30 41  1  0
 31 32  1  0
 31 36  1  0
 32 33  1  0
 33 34  1  0
 33 38  1  0
 34 35  1  0
 35 36  1  0
 36 37  1  0
 37 38  1  0
 38 39  1  0
 39 40  2  0
M  END
>  <DRUGBANK_ID>  (1) 
DB01346

>  <COMMON_NAME>  (1) 
Quinidine barbiturate

$$$$
