
     RDKit          3D

 27 29  0  0  0  0  0  0  0  0999 V2000
    1.0380   -0.0580    0.0318 C   0  0  0  0  0  0  0  0  0  0  0  0
    0.3707   -2.9836    3.5414 C   0  0  0  0  0  0  0  0  0  0  0  0
   -0.1579   -7.2089    3.3124 C   0  0  0  0  0  0  0  0  0  0  0  0
    1.1469   -6.0759    1.6079 C   0  0  0  0  0  0  0  0  0  0  0  0
   -0.9313   -7.8143    2.3155 C   0  0  0  0  0  0  0  0  0  0  0  0
    0.4183   -6.7439    0.6075 C   0  0  0  0  0  0  0  0  0  0  0  0
    0.0007   -1.8376    2.8321 C   0  0  0  0  0  0  0  0  0  0  0  0
    2.6711   -2.6507    2.8627 C   0  0  0  0  0  0  0  0  0  0  0  0
    3.0403   -4.6315    5.2879 C   0  0  0  0  0  0  0  0  0  0  0  0
    1.7050   -3.4008    3.5299 C   0  0  0  0  0  0  0  0  0  0  0  0
    0.9011   -6.3651    2.9605 C   0  0  0  0  0  0  0  0  0  0  0  0
   -0.6252   -7.6042    0.9656 C   0  0  0  0  0  0  0  0  0  0  0  0
    2.2969   -1.5217    2.1625 C   0  0  0  0  0  0  0  0  0  0  0  0
    3.2108   -5.9981    5.5780 C   0  0  0  0  0  0  0  0  0  0  0  0
    2.1494   -4.5783    4.2389 C   0  0  0  0  0  0  0  0  0  0  0  0
    0.9590   -1.1330    2.0959 C   0  0  0  0  0  0  0  0  0  0  0  0
    4.1768   -6.5402    6.5938 C   0  0  0  0  0  0  0  0  0  0  0  0
    3.2667   -0.8153    1.5680 F   0  0  0  0  0  0  0  0  0  0  0  0
    3.5634   -7.3020    7.5368 F   0  0  0  0  0  0  0  0  0  0  0  0
    5.1481   -7.3082    6.0288 F   0  0  0  0  0  0  0  0  0  0  0  0
   -2.2255   -7.2103   -1.2044 N   0  0  0  0  0  0  0  0  0  0  0  0
    2.3773   -6.7539    4.8361 N   0  0  0  0  0  0  0  0  0  0  0  0
    1.7623   -5.8810    3.9861 N   0  0  0  0  0  0  0  0  0  0  0  0
   -0.6569   -9.1864   -1.1349 O   0  0  0  0  0  0  0  0  0  0  0  0
   -2.7021   -9.0869    0.3496 O   0  0  0  0  0  0  0  0  0  0  0  0
    0.5255   -0.0580    1.3675 O   0  0  0  0  0  0  0  0  0  0  0  0
   -1.5669   -8.4575   -0.2776 S   0  0  0  0  0  0  0  0  0  0  0  0
  5  3  2  0
  6  4  1  0
  7  2  2  0
 10  2  1  0
 10  8  2  0
 11  3  1  0
 11  4  2  0
 12  5  1  0
 12  6  2  0
 13  8  1  0
 14  9  1  0
 15  9  2  0
 15 10  1  0
 16  7  1  0
 16 13  2  0
 17 14  1  0
 18 13  1  0
 19 17  1  0
 20 17  1  0
 22 14  2  0
 23 11  1  0
 23 15  1  0
 23 22  1  0
 26  1  1  0
 26 16  1  0
 27 12  1  0
 27 21  1  0
 27 24  2  0
 27 25  2  0
M  END
>  <DRUGBANK_ID>  (1) 
DB11395

>  <COMMON_NAME>  (1) 
Deracoxib

>  <CAS_NUMBER>  (1) 
169590-41-4

>  <UNII>  (1) 
VX29JB5XWV

>  <SYNONYMS>  (1) 
DÃ©racoxib; Deracoxib; Deracoxibum

$$$$
