
     RDKit          3D

 13 13  0  0  1  0  0  0  0  0999 V2000
    1.4640    0.2294   -0.4636 O   0  0  0  0  0  0  0  0  0  0  0  0
    0.4345    1.1940   -0.2635 C   0  0  2  0  0  0  0  0  0  0  0  0
    0.8273    2.5437    0.0439 O   0  0  0  0  0  0  0  0  0  0  0  0
    1.1850    2.8757    1.3951 C   0  0  1  0  0  0  0  0  0  0  0  0
    0.2255    2.2810    2.4422 C   0  0  2  0  0  0  0  0  0  0  0  0
    0.7069    2.5109    3.7665 O   0  0  0  0  0  0  0  0  0  0  0  0
   -0.0462    0.7968    2.1736 C   0  0  2  0  0  0  0  0  0  0  0  0
    1.1518    0.0623    2.4409 O   0  0  0  0  0  0  0  0  0  0  0  0
   -0.5813    0.6186    0.7398 C   0  0  1  0  0  0  0  0  0  0  0  0
   -1.8767    1.2222    0.5994 O   0  0  0  0  0  0  0  0  0  0  0  0
    2.6551    2.4770    1.5593 C   0  0  0  0  0  0  0  0  0  0  0  0
    3.4862    3.4152    2.0604 O   0  0  0  0  0  0  0  0  0  0  0  0
    3.0743    1.3843    1.2107 O   0  0  0  0  0  0  0  0  0  0  0  0
  2  1  1  1
  2  3  1  0
  2  9  1  0
  3  4  1  0
  4  5  1  0
  4 11  1  1
  5  6  1  1
  5  7  1  0
  7  8  1  6
  7  9  1  0
  9 10  1  1
 11 12  1  0
 11 13  2  0
M  END
>  <DRUGBANK_ID>  (1) 
DB03652

>  <SECONDARY_ACCESSION_NUMBERS>  (1) 
EXPT02024

>  <COMMON_NAME>  (1) 
beta-D-Galactopyranuronic acid

>  <CAS_NUMBER>  (1) 
18968-14-4

>  <UNII>  (1) 
55NG3O9NDD

>  <SYNONYMS>  (1) 
β-D-Galactopyranuronic acid; β-D-galacturonic acid

$$$$
