
     RDKit          3D

 37 41  0  0  1  0  0  0  0  0999 V2000
    1.0063    0.1205    0.0420 O   0  0  0  0  0  0  0  0  0  0  0  0
    2.2313    0.1141    0.0260 C   0  0  0  0  0  0  0  0  0  0  0  0
    2.9768    1.2640   -0.0530 N   0  0  0  0  0  0  0  0  0  0  0  0
    4.3515    1.3031   -0.0811 C   0  0  0  0  0  0  0  0  0  0  0  0
    5.0447    0.1492    0.0129 C   0  0  0  0  0  0  0  0  0  0  0  0
    4.3320   -1.1168    0.0856 C   0  0  0  0  0  0  0  0  0  0  0  0
    2.9939   -1.1551    0.0841 C   0  0  0  0  0  0  0  0  0  0  0  0
    6.5522    0.1055    0.0540 C   0  0  1  0  0  0  0  0  0  0  0  0
    7.1611    1.4384   -0.4473 C   0  0  0  0  0  0  0  0  0  0  0  0
    6.4712    2.6868    0.1351 C   0  0  0  0  0  0  0  0  0  0  0  0
    4.9850    2.6720   -0.1806 C   0  0  0  0  0  0  0  0  0  0  0  0
    6.9996   -0.2886    1.4042 N   0  0  0  0  0  0  0  0  0  0  0  0
    6.8823    0.8196    2.3450 C   0  0  0  0  0  0  0  0  0  0  0  0
    7.3644    0.5584    3.7422 C   0  0  0  0  0  0  0  0  0  0  0  0
    8.8383    0.1664    3.6908 C   0  0  0  0  0  0  0  0  0  0  0  0
    9.7207    1.2730    3.0710 C   0  0  0  0  0  0  0  0  0  0  0  0
    9.6150    2.5726    3.8772 C   0  0  0  0  0  0  0  0  0  0  0  0
   10.0508    2.3166    5.3216 C   0  0  0  0  0  0  0  0  0  0  0  0
   11.4973    1.8065    5.3556 C   0  0  0  0  0  0  0  0  0  0  0  0
   12.4546    2.8485    4.7691 C   0  0  0  0  0  0  0  0  0  0  0  0
   12.4103    4.1492    5.5757 C   0  0  0  0  0  0  0  0  0  0  0  0
   12.7423    3.9403    7.0574 C   0  0  0  0  0  0  0  0  0  0  0  0
   14.0772    3.4180    7.2554 N   0  0  0  0  0  0  0  0  0  0  0  0
   15.0292    4.2122    7.9237 C   0  0  0  0  0  0  0  0  0  0  0  0
   16.2818    4.4372    7.2457 C   0  0  0  0  0  0  0  0  0  0  0  0
   16.6193    3.9438    5.8371 C   0  0  0  0  0  0  0  0  0  0  0  0
   17.8125    4.6775    5.1860 C   0  0  0  0  0  0  0  0  0  0  0  0
   18.9802    4.7082    6.1596 C   0  0  0  0  0  0  0  0  0  0  0  0
   18.5785    5.5532    7.3595 C   0  0  0  0  0  0  0  0  0  0  0  0
   17.2352    5.1734    7.9409 C   0  0  0  0  0  0  0  0  0  0  0  0
   17.0122    5.6350    9.1879 N   0  0  0  0  0  0  0  0  0  0  0  0
   15.8359    5.4143    9.8081 C   0  0  0  0  0  0  0  0  0  0  0  0
   15.7483    5.7340   11.1412 C   0  0  0  0  0  0  0  0  0  0  0  0
   14.6483    5.3545   11.9438 C   0  0  0  0  0  0  0  0  0  0  0  0
   13.3796    5.6605   11.4702 C   0  0  0  0  0  0  0  0  0  0  0  0
   13.4995    4.9865   10.2552 C   0  0  0  0  0  0  0  0  0  0  0  0
   14.7087    4.8352    9.2675 C   0  0  0  0  0  0  0  0  0  0  0  0
  1  2  2  0
  2  3  1  0
  2  7  1  0
  3  4  1  0
  4  5  2  0
  4 11  1  0
  5  6  1  0
  5  8  1  0
  6  7  2  0
  8  9  1  0
  8 12  1  1
  9 10  1  0
 10 11  1  0
 12 13  1  0
 13 14  1  0
 14 15  1  0
 15 16  1  0
 16 17  1  0
 17 18  1  0
 18 19  1  0
 19 20  1  0
 20 21  1  0
 21 22  1  0
 22 23  1  0
 23 24  1  0
 24 25  1  0
 24 37  2  0
 25 26  1  0
 25 30  2  0
 26 27  1  0
 27 28  1  0
 28 29  1  0
 29 30  1  0
 30 31  1  0
 31 32  2  0
 32 33  1  0
 32 37  1  0
 33 34  2  0
 34 35  1  0
 35 36  2  0
 36 37  1  0
M  END
>  <DRUGBANK_ID>  (1) 
DB04614

>  <COMMON_NAME>  (1) 
(R)-tacrine(10)-hupyridone

$$$$
