1PU
     RDKit          3D

 23 26  0  0  0  0  0  0  0  0999 V2000
    0.3807    0.5324    0.2867 C   0  0  0  0  0  0  0  0  0  0  0  0
   -1.0808    0.3883    0.5478 C   0  0  1  0  0  0  0  0  0  0  0  0
    0.8559   -0.7488   -0.0832 C   0  0  0  0  0  0  0  0  0  0  0  0
   -0.2854   -1.7088   -0.0874 C   0  0  0  0  0  0  0  0  0  0  0  0
   -2.0891    1.1872   -0.2824 C   0  0  0  0  0  0  0  0  0  0  0  0
    1.2299    1.6461    0.3917 C   0  0  0  0  0  0  0  0  0  0  0  0
   -1.3853   -0.9584    0.2023 N   0  0  0  0  0  0  0  0  0  0  0  0
    2.1694   -0.9739   -0.4396 C   0  0  0  0  0  0  0  0  0  0  0  0
    2.5701    1.4140    0.0099 C   0  0  0  0  0  0  0  0  0  0  0  0
    0.8133    2.9743    0.8344 N   0  0  0  0  0  0  0  0  0  0  0  0
   -2.8094   -1.1203    0.0822 C   0  0  0  0  0  0  0  0  0  0  0  0
   -3.2198    0.1897   -0.5994 C   0  0  0  0  0  0  0  0  0  0  0  0
   -0.2206   -2.8951   -0.3442 O   0  0  0  0  0  0  0  0  0  0  0  0
    3.0287    0.1276   -0.4032 C   0  0  0  0  0  0  0  0  0  0  0  0
   -0.3152    3.1933    1.5995 C   0  0  0  0  0  0  0  0  0  0  0  0
   -0.8220    4.4596    1.7590 N   0  0  0  0  0  0  0  0  0  0  0  0
   -0.9014    2.2459    2.1138 O   0  0  0  0  0  0  0  0  0  0  0  0
   -2.1749    4.6546    2.2258 C   0  0  0  0  0  0  0  0  0  0  0  0
   -2.8576    3.6882    2.9813 C   0  0  0  0  0  0  0  0  0  0  0  0
   -2.8179    5.7789    1.8443 N   0  0  0  0  0  0  0  0  0  0  0  0
   -4.2337    3.7553    3.1889 C   0  0  0  0  0  0  0  0  0  0  0  0
   -4.1598    5.8548    2.1197 C   0  0  0  0  0  0  0  0  0  0  0  0
   -4.9126    4.8614    2.7320 C   0  0  0  0  0  0  0  0  0  0  0  0
  1  2  1  0
  1  3  2  0
  1  6  1  0
  2  5  1  6
  2  7  1  0
  3  4  1  0
  3  8  1  0
  4  7  1  0
  4 13  2  0
  5 12  1  0
  6  9  2  0
  6 10  1  0
  7 11  1  0
  8 14  2  0
  9 14  1  0
 10 15  1  0
 11 12  1  0
 15 16  1  0
 15 17  2  0
 16 18  1  0
 18 19  2  0
 18 20  1  0
 19 21  1  0
 20 22  2  0
 21 23  2  0
 22 23  1  0
M  END
>  <DRUGBANK_ID>  (1) 
DB04186

>  <SECONDARY_ACCESSION_NUMBERS>  (1) 
EXPT00083

>  <COMMON_NAME>  (1) 
N'-(Pyrrolidino[2,1-B]Isoindolin-4-On-8-Yl)-N-(Pyridin-2-Yl)Urea

$$$$
