
     RDKit          3D

 27 23  0  0  0  0  0  0  0  0999 V2000
   -1.1000    0.2930   -1.1081 Fe  0  0  0  0  0 15  0  0  0  0  0  0
    1.0828    2.1766    1.5345 O   0  0  0  0  0  0  0  0  0  0  0  0
    0.8737   -0.9994    0.4855 O   0  0  0  0  0  0  0  0  0  0  0  0
    2.9438   -1.5026   -1.6056 O   0  0  0  0  0  0  0  0  0  0  0  0
    1.8099   -2.2073   -4.0881 O   0  0  0  0  0  0  0  0  0  0  0  0
    0.4013   -2.3165   -4.0172 C   0  0  2  0  0  0  0  0  0  0  0  0
    0.2539   -3.7279   -5.9044 O   0  0  0  0  0  0  0  0  0  0  0  0
   -0.2387   -2.5216   -5.3543 C   0  0  1  0  0  0  0  0  0  0  0  0
   -2.4215   -2.6073   -6.4042 O   0  0  0  0  0  0  0  0  0  0  0  0
   -1.7726   -2.5237   -5.1529 C   0  0  2  0  0  0  0  0  0  0  0  0
   -4.1225   -0.1855   -3.3533 O   0  0  0  0  0  0  0  0  0  0  0  0
   -3.7846   -1.3792   -4.0758 C   0  0  0  0  0  0  0  0  0  0  0  0
   -2.3113   -1.2685   -4.4237 C   0  0  1  0  0  0  0  0  0  0  0  0
   -1.6012   -1.0085   -3.2011 O   0  0  0  0  0  0  0  0  0  0  0  0
   -0.2320   -1.0375   -3.5753 C   0  0  2  0  0  0  0  0  0  0  0  0
    0.1212    0.0965   -4.3303 O   0  0  0  0  0  0  0  0  0  0  0  0
    1.4893    0.4944   -4.0883 C   0  0  0  0  0  0  0  0  0  0  0  0
    0.3609    1.1072   -2.2088 O   0  0  0  0  0  0  0  0  0  0  0  0
    1.7248    0.5627   -2.5860 C   0  0  1  0  0  0  0  0  0  0  0  0
    1.9245   -0.5269   -1.4890 C   0  0  2  0  0  0  0  0  0  0  0  0
    1.7145    0.0888   -0.0326 C   0  0  1  0  0  0  0  0  0  0  0  0
    1.0189    1.6091    0.2483 C   0  0  2  0  0  0  0  0  0  0  0  0
    1.1916    2.7867   -0.7216 C   0  0  0  0  0  0  0  0  0  0  0  0
    0.1521    3.1856   -1.3697 O   0  0  0  0  0  0  0  0  0  0  0  0
   -1.6304   -0.4925    0.3601 O   0  0  0  0  0  0  0  0  0  0  0  0
    1.5418   -0.0987    2.8051 O   0  0  0  0  0  0  0  0  0  0  0  0
    3.9032    1.5417   -0.8986 O   0  0  0  0  0  0  0  0  0  0  0  0
  6  5  1  6
  6  8  1  0
  8  7  1  1
  8 10  1  0
 10  9  1  6
 10 13  1  0
 11 12  1  0
 13 12  1  1
 13 14  1  0
 14 15  1  0
 15  6  1  0
 15 16  1  6
 16 17  1  0
 19 17  1  0
 19 18  1  1
 20 19  1  0
 20  4  1  1
 21  3  1  1
 21 20  1  0
 22 21  1  0
 22  2  1  1
 23 22  1  0
 23 24  2  0
M  CHG  4   1   3  25  -1  26  -1  27  -1
M  END
>  <DRUGBANK_ID>  (1) 
DB15763

>  <COMMON_NAME>  (1) 
Iron polymaltose

>  <CAS_NUMBER>  (1) 
53858-86-9

>  <UNII>  (1) 
UM5219H89V

>  <SYNONYMS>  (1) 
Ferric hydroxide polymaltose complex; Ferromaltose; Iron polymaltose; Iron polymaltose complex; Iron(III)-hydroxide polymaltose complex

$$$$
