
     RDKit          3D

 28 32  0  0  1  0  0  0  0  0999 V2000
    2.2313   -0.0571   -0.0440 C   0  0  0  0  0  0  0  0  0  0  0  0
    0.7990    0.0177   -0.0129 N   0  0  0  0  0  0  0  0  0  0  0  0
   -0.0916   -1.0051   -0.0297 C   0  0  0  0  0  0  0  0  0  0  0  0
   -1.3127   -0.4982    0.0308 N   0  0  0  0  0  0  0  0  0  0  0  0
   -1.1123    0.8405    0.0119 C   0  0  0  0  0  0  0  0  0  0  0  0
    0.1699    1.2109    0.0243 N   0  0  0  0  0  0  0  0  0  0  0  0
    0.1842   -2.4631   -0.1794 C   0  0  1  0  0  0  0  0  0  0  0  0
    0.0336   -3.0404   -1.5457 C   0  0  0  0  0  0  0  0  0  0  0  0
    0.4622   -4.4211   -1.7352 C   0  0  0  0  0  0  0  0  0  0  0  0
    0.2062   -4.9923   -2.9776 C   0  0  0  0  0  0  0  0  0  0  0  0
    0.6727   -6.2675   -3.2650 C   0  0  0  0  0  0  0  0  0  0  0  0
    1.3592   -6.9584   -2.2779 C   0  0  0  0  0  0  0  0  0  0  0  0
    1.5780   -6.4016   -1.0133 C   0  0  0  0  0  0  0  0  0  0  0  0
    1.1175   -5.1136   -0.7101 C   0  0  0  0  0  0  0  0  0  0  0  0
    1.4665   -4.5152    0.4996 N   0  0  0  0  0  0  0  0  0  0  0  0
    0.7653   -3.2991    0.9711 C   0  0  2  0  0  0  0  0  0  0  0  0
   -0.3294   -3.6884    2.0042 C   0  0  0  0  0  0  0  0  0  0  0  0
    0.0114   -4.2884    3.2221 C   0  0  0  0  0  0  0  0  0  0  0  0
   -0.9962   -4.6008    4.1491 C   0  0  0  0  0  0  0  0  0  0  0  0
   -2.3325   -4.2947    3.8901 C   0  0  0  0  0  0  0  0  0  0  0  0
   -2.7012   -3.7034    2.7129 C   0  0  0  0  0  0  0  0  0  0  0  0
   -1.7165   -3.4374    1.7862 C   0  0  0  0  0  0  0  0  0  0  0  0
   -3.2831   -4.5826    4.7836 F   0  0  0  0  0  0  0  0  0  0  0  0
    1.8451   -8.1751   -2.5529 F   0  0  0  0  0  0  0  0  0  0  0  0
   -0.5349   -4.2181   -3.9900 C   0  0  0  0  0  0  0  0  0  0  0  0
   -0.7446   -4.6626   -5.1033 O   0  0  0  0  0  0  0  0  0  0  0  0
   -0.9612   -2.9738   -3.5937 N   0  0  0  0  0  0  0  0  0  0  0  0
   -0.6536   -2.3748   -2.4268 N   0  0  0  0  0  0  0  0  0  0  0  0
  1  2  1  0
  2  3  1  0
  2  6  1  0
  3  4  2  0
  4  5  1  0
  5  6  2  0
  7  3  1  6
  7  8  1  0
  7 16  1  0
  8  9  1  0
  8 28  2  0
  9 10  1  0
  9 14  2  0
 10 11  2  0
 10 25  1  0
 11 12  1  0
 12 13  2  0
 12 24  1  0
 13 14  1  0
 14 15  1  0
 15 16  1  0
 16 17  1  1
 17 18  2  0
 17 22  1  0
 18 19  1  0
 19 20  2  0
 20 21  1  0
 20 23  1  0
 21 22  2  0
 25 26  2  0
 25 27  1  0
 27 28  1  0
M  END
>  <DRUGBANK_ID>  (1) 
DB11760

>  <COMMON_NAME>  (1) 
Talazoparib

>  <CAS_NUMBER>  (1) 
1207456-01-6

>  <UNII>  (1) 
9QHX048FRV

>  <SYNONYMS>  (1) 
Talazoparib

$$$$
