
     RDKit          3D

 18 19  0  0  0  0  0  0  0  0999 V2000
    0.5702    2.2514    0.0238 C   0  0  0  0  0  0  0  0  0  0  0  0
   -6.5568    2.9093    0.0216 C   0  0  0  0  0  0  0  0  0  0  0  0
   -5.9692    2.1739    1.0435 C   0  0  0  0  0  0  0  0  0  0  0  0
   -1.8326   -1.3649   -0.0096 C   0  0  0  0  0  0  0  0  0  0  0  0
   -5.7706    3.4140   -1.0201 C   0  0  0  0  0  0  0  0  0  0  0  0
   -0.4499   -1.4348    0.0095 C   0  0  0  0  0  0  0  0  0  0  0  0
   -4.5915    1.9983    1.0529 C   0  0  0  0  0  0  0  0  0  0  0  0
   -2.4457   -0.1202   -0.0204 C   0  0  0  0  0  0  0  0  0  0  0  0
   -0.2956    1.0143    0.0181 C   0  0  0  0  0  0  0  0  0  0  0  0
   -4.3878    3.1564   -1.0674 C   0  0  0  0  0  0  0  0  0  0  0  0
    0.3113   -0.2607    0.0091 C   0  0  0  0  0  0  0  0  0  0  0  0
   -1.7071    1.0800    0.0094 C   0  0  0  0  0  0  0  0  0  0  0  0
   -3.7782    2.5224    0.0329 C   0  0  0  0  0  0  0  0  0  0  0  0
   -3.6803    3.4785   -2.3421 C   0  0  0  0  0  0  0  0  0  0  0  0
    2.0327   -0.4459    0.0038 Cl  0  0  0  0  0  0  0  0  0  0  0  0
   -2.3837    2.3195    0.1472 N   0  0  0  0  0  0  0  0  0  0  0  0
   -4.2029    3.9695   -3.3349 O   0  0  0  0  0  0  0  0  0  0  0  0
   -2.3861    3.1122   -2.3662 O   0  0  0  0  0  0  0  0  0  0  0  0
  3  2  2  0
  5  2  1  0
  6  4  2  0
  7  3  1  0
  8  4  1  0
  9  1  1  0
 10  5  2  0
 11  6  1  0
 11  9  2  0
 12  8  2  0
 12  9  1  0
 13  7  2  0
 13 10  1  0
 14 10  1  0
 15 11  1  0
 16 12  1  0
 16 13  1  0
 17 14  2  0
 18 14  1  0
M  END
>  <DRUGBANK_ID>  (1) 
DB09216

>  <COMMON_NAME>  (1) 
Tolfenamic acid

>  <CAS_NUMBER>  (1) 
13710-19-5

>  <UNII>  (1) 
3G943U18KM

>  <SYNONYMS>  (1) 
Acide tolfenamique; ácido tolfenámico; Acidum tolfenamicum; Tolfenamic acid

$$$$
