665
     RDKit          3D

 22 24  0  0  0  0  0  0  0  0999 V2000
   -1.4096    0.3328   -0.2211 C   0  0  0  0  0  0  0  0  0  0  0  0
   -0.9763   -1.0494    0.2590 C   0  0  0  0  0  0  0  0  0  0  0  0
    0.4579   -1.4043   -0.1878 C   0  0  0  0  0  0  0  0  0  0  0  0
    1.4350   -0.2998    0.2340 C   0  0  0  0  0  0  0  0  0  0  0  0
    0.9929    1.0794   -0.2395 C   0  0  0  0  0  0  0  0  0  0  0  0
   -0.4230    1.4040    0.2215 C   0  0  0  0  0  0  0  0  0  0  0  0
    0.1276   -3.8774    0.0196 C   0  0  0  0  0  0  0  0  0  0  0  0
    0.6029   -4.9648    0.9412 C   0  0  0  0  0  0  0  0  0  0  0  0
    2.0145   -4.5097    1.3146 C   0  0  1  0  0  0  0  0  0  0  0  0
    1.8801   -2.9860    1.3007 C   0  0  0  0  0  0  0  0  0  0  0  0
    0.8570   -2.7323    0.3008 N   0  0  0  0  0  0  0  0  0  0  0  0
    2.4212   -5.0240    2.6848 C   0  0  0  0  0  0  0  0  0  0  0  0
    3.5837   -5.7898    2.7121 N   0  0  0  0  0  0  0  0  0  0  0  0
    1.7598   -4.7353    3.6800 O   0  0  0  0  0  0  0  0  0  0  0  0
   -0.7831   -3.9883   -0.7893 O   0  0  0  0  0  0  0  0  0  0  0  0
    2.5444   -8.3933    7.2032 Br  0  0  0  0  0  0  0  0  0  0  0  0
    3.2229   -6.9493    4.8413 C   0  0  0  0  0  0  0  0  0  0  0  0
    3.7312   -7.5670    5.9844 C   0  0  0  0  0  0  0  0  0  0  0  0
    5.1015   -7.5978    6.2246 C   0  0  0  0  0  0  0  0  0  0  0  0
    5.9709   -7.0219    5.2979 C   0  0  0  0  0  0  0  0  0  0  0  0
    5.4686   -6.4433    4.1220 C   0  0  0  0  0  0  0  0  0  0  0  0
    4.0867   -6.3844    3.8983 C   0  0  0  0  0  0  0  0  0  0  0  0
  1  2  1  0
  1  6  1  0
  2  3  1  0
  3  4  1  0
  3 11  1  0
  4  5  1  0
  5  6  1  0
  7  8  1  0
  7 11  1  0
  7 15  2  0
  8  9  1  0
  9 10  1  0
  9 12  1  1
 10 11  1  0
 12 13  1  0
 12 14  2  0
 13 22  1  0
 16 18  1  0
 17 18  2  0
 17 22  1  0
 18 19  1  0
 19 20  2  0
 20 21  1  0
 21 22  2  0
M  END
>  <DRUGBANK_ID>  (1) 
DB07192

>  <COMMON_NAME>  (1) 
(3S)-N-(3-BROMOPHENYL)-1-CYCLOHEXYL-5-OXOPYRROLIDINE-3-CARBOXAMIDE

$$$$
