
     RDKit          3D

 16 12  0  0  0  0  0  0  0  0999 V2000
    1.3551    1.1854   -0.7845 C   0  0  0  0  0  0  0  0  0  0  0  0
    0.0553    2.4725   -0.3663 C   0  0  0  0  0  0  0  0  0  0  0  0
    1.5827   -0.2186   -1.9058 N   0  0  0  0  0  0  0  0  0  0  0  0
   -1.1134    2.4659   -0.8262 O   0  0  0  0  0  0  0  0  0  0  0  0
    0.3514    3.1343    0.7022 O   0  0  0  0  0  0  0  0  0  0  0  0
   -0.4430   -0.5652   -0.4803 C   0  0  0  0  0  0  0  0  0  0  0  0
   -0.7691    0.3330   -2.1018 C   0  0  0  0  0  0  0  0  0  0  0  0
   -0.2497   -1.9294    0.1016 N   0  0  0  0  0  0  0  0  0  0  0  0
   -1.4462   -0.4081   -2.8538 O   0  0  0  0  0  0  0  0  0  0  0  0
    0.0079    1.2767   -2.5508 O   0  0  0  0  0  0  0  0  0  0  0  0
    3.4481   -0.2880    2.9268 Fe  0  0  0  0  0 15  0  0  0  0  0  0
    2.1081   -0.3098    1.4685 O   0  0  0  0  0  0  0  0  0  0  0  0
    1.4153    0.5549    3.5139 O   0  0  0  0  0  0  0  0  0  0  0  0
    2.2118    2.0778    1.8616 O   0  0  0  0  0  0  0  0  0  0  0  0
   -0.2082    0.9311    1.9916 O   0  0  0  0  0  0  0  0  0  0  0  0
    1.2635    1.0564    2.0225 S   0  0  0  0  0  0  0  0  0  0  0  0
  2  1  1  0
  3  1  1  0
  4  2  2  0
  5  2  1  0
  7  6  1  0
  8  6  1  0
  9  7  2  0
 10  7  1  0
 16 12  1  0
 16 13  1  0
 16 14  2  0
 16 15  2  0
M  CHG  3   5  -1  10  -1  11   2
M  END
>  <DRUGBANK_ID>  (1) 
DB14501

>  <SECONDARY_ACCESSION_NUMBERS>  (1) 
DBSALT000081

>  <COMMON_NAME>  (1) 
Ferrous glycine sulfate

>  <CAS_NUMBER>  (1) 
14729-84-1

>  <UNII>  (1) 
56PS9HY5XI

>  <SYNONYMS>  (1) 
Ferrous (II) Glycine Sulphate Complex; Ferrous glycine sulphate; Iron(II) glycine sulfate

$$$$
