B32
     RDKit          3D

 32 34  0  0  0  0  0  0  0  0999 V2000
    1.2333    0.4830   -0.3259 C   0  0  0  0  0  0  0  0  0  0  0  0
    0.9055   -0.9721   -1.0753 C   0  0  0  0  0  0  0  0  0  0  0  0
    1.4009   -2.1991   -0.1078 C   0  0  0  0  0  0  0  0  0  0  0  0
    0.6012   -2.5194    1.6959 C   0  0  0  0  0  0  0  0  0  0  0  0
   -1.4377   -3.1318    1.7336 C   0  0  0  0  0  0  0  0  0  0  0  0
   -2.3846   -3.8166    0.7558 C   0  0  0  0  0  0  0  0  0  0  0  0
   -1.8225   -4.8985    1.4654 C   0  0  0  0  0  0  0  0  0  0  0  0
   -2.1505   -4.7965    3.4309 C   0  0  0  0  0  0  0  0  0  0  0  0
   -3.5274   -4.6244    3.6127 N   0  0  0  0  0  0  0  0  0  0  0  0
   -3.7991   -4.4177    4.9705 C   0  0  0  0  0  0  0  0  0  0  0  0
   -3.2016   -3.0859    5.4364 C   0  0  0  0  0  0  0  0  0  0  0  0
   -3.8041   -1.5328    4.6103 S   0  0  0  0  0  0  0  0  0  0  0  0
   -3.0568   -1.5121    2.9304 C   0  0  0  0  0  0  0  0  0  0  0  0
   -1.2147   -1.4658    2.6062 C   0  0  1  0  0  0  0  0  0  0  0  0
   -0.3499   -2.8646    3.5108 O   0  0  0  0  0  0  0  0  0  0  0  0
   -0.8134   -1.8885    0.6303 C   0  0  1  0  0  0  0  0  0  0  0  0
   -0.1241   -0.7764    0.7140 O   0  0  0  0  0  0  0  0  0  0  0  0
   -0.0416   -3.8159    0.5446 C   0  0  1  0  0  0  0  0  0  0  0  0
    1.0706   -4.5742   -0.0244 O   0  0  0  0  0  0  0  0  0  0  0  0
    0.1077   -4.3674    2.4865 C   0  0  2  0  0  0  0  0  0  0  0  0
   -0.4109   -6.0180    2.8452 N   0  0  0  0  0  0  0  0  0  0  0  0
    0.4280   -7.0734    2.9458 C   0  0  0  0  0  0  0  0  0  0  0  0
   -0.2360   -8.2296    2.9387 N   0  0  0  0  0  0  0  0  0  0  0  0
   -1.6211   -8.0370    2.6852 C   0  0  0  0  0  0  0  0  0  0  0  0
   -1.8404   -6.7741    2.4788 C   0  0  0  0  0  0  0  0  0  0  0  0
   -3.1077   -6.2967    2.0394 N   0  0  0  0  0  0  0  0  0  0  0  0
   -4.2010   -6.9082    1.9226 C   0  0  0  0  0  0  0  0  0  0  0  0
   -4.1020   -8.1561    2.2048 N   0  0  0  0  0  0  0  0  0  0  0  0
   -2.8520   -8.6882    2.5280 C   0  0  0  0  0  0  0  0  0  0  0  0
   -2.8161  -10.0119    2.7154 N   0  0  0  0  0  0  0  0  0  0  0  0
    1.1634    2.0168    2.0488 C   0  0  0  0  0  0  0  0  0  0  0  0
    0.6395    0.9118    1.3067 C   0  0  0  0  0  0  0  0  0  0  0  0
  1  2  1  0
  1 32  1  0
  2  3  1  0
  3  4  1  0
  4  5  1  0
  5  6  1  0
  6  7  1  0
  7  8  1  0
  8  9  1  0
  9 10  1  0
 10 11  1  0
 11 12  1  0
 13 12  1  0
 14 13  1  6
 14 16  1  0
 15 14  1  0
 15 20  1  0
 16 18  1  0
 16 17  1  1
 18 19  1  1
 20 18  1  0
 20 21  1  6
 21 25  1  0
 22 21  1  0
 23 22  2  0
 23 24  1  0
 24 29  1  0
 24 25  2  0
 25 26  1  0
 26 27  2  0
 28 27  1  0
 29 28  2  0
 30 29  1  0
 31 32  1  0
M  END
>  <DRUGBANK_ID>  (1) 
DB07413

>  <COMMON_NAME>  (1) 
5'-S-[2-(decylamino)ethyl]-5'-thioadenosine

$$$$
