
     RDKit          3D

 28 31  0  0  0  0  0  0  0  0999 V2000
   -0.3972    1.9039   -0.1614 N   0  0  0  0  0  0  0  0  0  0  0  0
    0.2324    2.8195   -0.9811 C   0  0  0  0  0  0  0  0  0  0  0  0
    1.4519    2.9853   -1.0258 O   0  0  0  0  0  0  0  0  0  0  0  0
   -0.5384    3.5851   -1.8047 N   0  0  0  0  0  0  0  0  0  0  0  0
   -1.9222    3.5546   -1.9666 C   0  0  0  0  0  0  0  0  0  0  0  0
   -2.7606    3.4924   -0.8545 C   0  0  0  0  0  0  0  0  0  0  0  0
   -4.1361    3.3935   -1.0151 C   0  0  0  0  0  0  0  0  0  0  0  0
   -4.6878    3.4077   -2.2961 C   0  0  0  0  0  0  0  0  0  0  0  0
   -3.8509    3.4861   -3.4161 C   0  0  0  0  0  0  0  0  0  0  0  0
   -2.4644    3.5822   -3.2526 C   0  0  0  0  0  0  0  0  0  0  0  0
   -6.1163    3.4025   -2.4431 C   0  0  0  0  0  0  0  0  0  0  0  0
   -7.2667    3.4327   -2.5340 N   0  0  0  0  0  0  0  0  0  0  0  0
    0.3446    1.1347    0.8346 C   0  0  1  0  0  0  0  0  0  0  0  0
    1.1017    2.1403    1.6978 C   0  0  0  0  0  0  0  0  0  0  0  0
    2.0077    1.4644    2.6984 C   0  0  1  0  0  0  0  0  0  0  0  0
    1.1727    0.6630    3.6190 N   0  0  0  0  0  0  0  0  0  0  0  0
    0.4140   -0.3724    2.8850 C   0  0  0  0  0  0  0  0  0  0  0  0
   -0.4881    0.2393    1.7848 C   0  0  0  0  0  0  0  0  0  0  0  0
    2.0340    0.0823    4.6585 C   0  0  0  0  0  0  0  0  0  0  0  0
    3.0607    0.6487    1.9875 C   0  0  0  0  0  0  0  0  0  0  0  0
    3.9370    1.1558    1.0630 N   0  0  0  0  0  0  0  0  0  0  0  0
    4.6862    0.1075    0.5902 C   0  0  0  0  0  0  0  0  0  0  0  0
    4.2151   -1.0034    1.2714 C   0  0  0  0  0  0  0  0  0  0  0  0
    3.2155   -0.6548    2.1013 N   0  0  0  0  0  0  0  0  0  0  0  0
    4.7614   -2.2697    1.0652 C   0  0  0  0  0  0  0  0  0  0  0  0
    5.8075   -2.3733    0.1542 C   0  0  0  0  0  0  0  0  0  0  0  0
    6.2626   -1.2457   -0.5401 C   0  0  0  0  0  0  0  0  0  0  0  0
    5.7073    0.0268   -0.3453 C   0  0  0  0  0  0  0  0  0  0  0  0
  1  2  1  0
  2  3  2  0
  2  4  1  0
  4  5  1  0
  5  6  2  0
  5 10  1  0
  6  7  1  0
  7  8  2  0
  8  9  1  0
  8 11  1  0
  9 10  2  0
 11 12  3  0
 13 18  1  0
 13  1  1  6
 14 13  1  0
 15 14  1  0
 15 20  1  6
 16 15  1  0
 16 17  1  0
 16 19  1  0
 18 17  1  0
 20 21  1  0
 20 24  2  0
 21 22  1  0
 22 23  2  0
 22 28  1  0
 23 24  1  0
 23 25  1  0
 25 26  2  0
 26 27  1  0
 27 28  2  0
M  END
>  <DRUGBANK_ID>  (1) 
DB11978

>  <COMMON_NAME>  (1) 
Glasdegib

>  <CAS_NUMBER>  (1) 
1095173-27-5

>  <UNII>  (1) 
K673DMO5H9

>  <SYNONYMS>  (1) 
Glasdegib

$$$$
