
     RDKit          3D

 20 22  0  0  0  0  0  0  0  0999 V2000
    1.9691    1.0990    0.0197 C   0  0  0  0  0  0  0  0  0  0  0  0
    2.2504   -0.2782    0.0211 C   0  0  0  0  0  0  0  0  0  0  0  0
    0.6393    1.6098    0.0058 C   0  0  0  0  0  0  0  0  0  0  0  0
    1.2052   -1.1761   -0.0138 C   0  0  0  0  0  0  0  0  0  0  0  0
   -3.8019   -1.9745    1.3400 C   0  0  0  0  0  0  0  0  0  0  0  0
   -3.1918   -3.3694    1.2294 C   0  0  0  0  0  0  0  0  0  0  0  0
   -0.4032    0.6831   -0.0303 C   0  0  0  0  0  0  0  0  0  0  0  0
   -0.0740   -0.6537   -0.0756 C   0  0  0  0  0  0  0  0  0  0  0  0
   -3.7121   -1.1699    0.0213 C   0  0  0  0  0  0  0  0  0  0  0  0
   -3.7813   -4.1489    0.0814 C   0  0  0  0  0  0  0  0  0  0  0  0
   -4.2904   -2.0389   -1.1295 C   0  0  0  0  0  0  0  0  0  0  0  0
   -1.9068    0.7104   -0.0573 C   0  0  0  0  0  0  0  0  0  0  0  0
   -1.2678   -1.4148   -0.3002 C   0  0  0  0  0  0  0  0  0  0  0  0
   -4.2782   -3.4114   -0.9659 N   0  0  0  0  0  0  0  0  0  0  0  0
   -2.3443   -0.6040   -0.1728 N   0  0  0  0  0  0  0  0  0  0  0  0
   -3.7932   -5.3771    0.0583 O   0  0  0  0  0  0  0  0  0  0  0  0
   -4.7384   -1.5590   -2.1709 O   0  0  0  0  0  0  0  0  0  0  0  0
   -2.5762    1.7220    0.0457 O   0  0  0  0  0  0  0  0  0  0  0  0
   -1.2058   -2.5929   -0.6160 O   0  0  0  0  0  0  0  0  0  0  0  0
    0.4690    2.9810    0.0053 N   0  0  0  0  0  0  0  0  0  0  0  0
  2  1  2  0
  3  1  1  0
  3 20  1  0
  4  2  1  0
  6  5  1  0
  7  3  2  0
  8  4  2  0
  8  7  1  0
  9  5  1  0
 10  6  1  0
 11  9  1  0
 12  7  1  0
 13  8  1  0
 14 10  1  0
 14 11  1  0
 15  9  1  0
 15 12  1  0
 15 13  1  0
 16 10  2  0
 17 11  2  0
 18 12  2  0
 19 13  2  0
M  END
>  <DRUGBANK_ID>  (1) 
DB08910

>  <COMMON_NAME>  (1) 
Pomalidomide

>  <CAS_NUMBER>  (1) 
19171-19-8

>  <UNII>  (1) 
D2UX06XLB5

>  <SYNONYMS>  (1) 
Pomalidomida; Pomalidomide

$$$$
