
     RDKit          3D

 27 31  0  0  1  0  0  0  0  0999 V2000
   -1.4148    0.7912   -0.8745 C   0  0  0  0  0  0  0  0  0  0  0  0
   -0.0812    1.5682   -0.6302 C   0  0  1  0  0  0  0  0  0  0  0  0
    0.5690    2.5421   -2.1953 C   0  0  0  0  0  0  0  0  0  0  0  0
    1.0456    4.3079   -1.7341 C   0  0  0  0  0  0  0  0  0  0  0  0
    2.1988    4.3282   -0.6317 C   0  0  2  0  0  0  0  0  0  0  0  0
    1.6107    3.0362   -0.2196 C   0  0  0  0  0  0  0  0  0  0  0  0
   -0.0545    2.9711   -0.1977 C   0  0  2  0  0  0  0  0  0  0  0  0
   -0.6657    3.7108    0.9435 C   0  0  0  0  0  0  0  0  0  0  0  0
   -0.0964    3.2366    2.2717 C   0  0  0  0  0  0  0  0  0  0  0  0
   -0.6428    1.8014    2.5167 C   0  0  1  0  0  0  0  0  0  0  0  0
    0.1637    1.0225    1.1390 C   0  0  1  0  0  0  0  0  0  0  0  0
   -0.0708   -0.4585    1.3532 C   0  0  0  0  0  0  0  0  0  0  0  0
    0.5606   -0.7693    2.6610 C   0  0  0  0  0  0  0  0  0  0  0  0
   -0.2687   -0.1919    3.7812 C   0  0  2  0  0  0  0  0  0  0  0  0
   -0.6113    1.1590    4.2794 C   0  0  2  0  0  0  0  0  0  0  0  0
   -1.1489   -0.4141    5.4659 C   0  0  0  0  0  0  0  0  0  0  0  0
   -0.0083   -1.5416    5.5814 C   0  0  0  0  0  0  0  0  0  0  0  0
    0.8004   -0.4016    5.2328 C   0  0  2  0  0  0  0  0  0  0  0  0
    1.0045    0.2016    6.6776 C   0  0  0  0  0  0  0  0  0  0  0  0
    2.0196   -0.4275    7.4738 C   0  0  0  0  0  0  0  0  0  0  0  0
    2.2039    0.3508    8.5768 C   0  0  0  0  0  0  0  0  0  0  0  0
    1.2710    1.3328    8.6115 O   0  0  0  0  0  0  0  0  0  0  0  0
    0.5176    1.2230    7.4735 C   0  0  0  0  0  0  0  0  0  0  0  0
    2.1293   -0.3880    4.7549 O   0  0  0  0  0  0  0  0  0  0  0  0
    0.4667    1.8777    4.8235 O   0  0  0  0  0  0  0  0  0  0  0  0
   -2.1150   -0.1944    3.4688 C   0  0  0  0  0  0  0  0  0  0  0  0
    2.5712    4.4383    0.7505 O   0  0  0  0  0  0  0  0  0  0  0  0
  2  3  1  0
  2  7  1  0
  2 11  1  0
  2  1  1  6
  3  4  1  0
  4  5  1  0
  5  6  1  0
  5 27  1  6
  7  6  1  1
  7  8  1  0
  8  9  1  0
 10  9  1  1
 10 11  1  0
 10 15  1  0
 11 12  1  6
 12 13  1  0
 13 14  1  0
 14 15  1  0
 14 18  1  0
 14 26  1  1
 15 16  1  0
 15 25  1  1
 16 17  1  0
 17 18  1  0
 18 19  1  0
 18 24  1  6
 19 20  1  0
 19 23  2  0
 20 21  2  0
 21 22  1  0
 22 23  1  0
M  END
>  <DRUGBANK_ID>  (1) 
DB12350

>  <COMMON_NAME>  (1) 
Rostafuroxin

>  <CAS_NUMBER>  (1) 
156722-18-8

>  <UNII>  (1) 
P848LCX62B

>  <SYNONYMS>  (1) 
Rostafuroxin

$$$$
