
     RDKit          3D

 24 23  0  0  0  0  0  0  0  0999 V2000
    1.0330   -0.1255   -0.0503 C   0  0  0  0  0  0  0  0  0  0  0  0
    0.6054    0.8402    1.0460 C   0  0  0  0  0  0  0  0  0  0  0  0
    1.0146    2.2575    0.7676 C   0  0  0  0  0  0  0  0  0  0  0  0
    0.1416    3.2416    0.5246 C   0  0  0  0  0  0  0  0  0  0  0  0
   -1.3308    3.0420    0.5271 C   0  0  0  0  0  0  0  0  0  0  0  0
   -1.9927    3.9519    1.5024 C   0  0  0  0  0  0  0  0  0  0  0  0
   -2.9802    4.7766    1.1504 C   0  0  0  0  0  0  0  0  0  0  0  0
   -3.4547    4.8753   -0.2537 C   0  0  0  0  0  0  0  0  0  0  0  0
   -4.9122    4.6022   -0.3550 C   0  0  0  0  0  0  0  0  0  0  0  0
   -5.7537    5.4806   -0.9003 C   0  0  0  0  0  0  0  0  0  0  0  0
   -5.2891    6.8046   -1.3861 C   0  0  0  0  0  0  0  0  0  0  0  0
   -5.6337    7.0096   -2.8156 C   0  0  0  0  0  0  0  0  0  0  0  0
   -6.3582    8.0544   -3.2147 C   0  0  0  0  0  0  0  0  0  0  0  0
   -6.9040    9.0424   -2.2484 C   0  0  0  0  0  0  0  0  0  0  0  0
   -6.4668   10.4138   -2.5962 C   0  0  0  0  0  0  0  0  0  0  0  0
   -7.3405   11.3867   -2.8530 C   0  0  0  0  0  0  0  0  0  0  0  0
   -8.8279   11.1940   -2.7832 C   0  0  0  0  0  0  0  0  0  0  0  0
   -9.4321   12.0812   -1.7059 C   0  0  0  0  0  0  0  0  0  0  0  0
    0.5234    0.2668   -1.4258 C   0  0  0  0  0  0  0  0  0  0  0  0
   -0.2850   -0.6409   -2.0121 O   0  0  0  0  0  0  0  0  0  0  0  0
    0.8242    1.3051   -2.0061 O   0  0  0  0  0  0  0  0  0  0  0  0
   -9.2801   13.5586   -2.0574 C   0  0  0  0  0  0  0  0  0  0  0  0
   -9.8816   13.8852   -3.4273 C   0  0  0  0  0  0  0  0  0  0  0  0
  -11.3696   13.5719   -3.4617 C   0  0  0  0  0  0  0  0  0  0  0  0
  1  2  1  0
  1 19  1  0
  2  3  1  0
  3  4  2  0
  4  5  1  0
  5  6  1  0
  6  7  2  0
  7  8  1  0
  8  9  1  0
  9 10  2  0
 10 11  1  0
 11 12  1  0
 12 13  2  0
 13 14  1  0
 14 15  1  0
 15 16  2  0
 16 17  1  0
 17 18  1  0
 18 22  1  0
 20 19  1  0
 21 19  2  0
 22 23  1  0
 23 24  1  0
M  END
>  <DRUGBANK_ID>  (1) 
DB14088

>  <COMMON_NAME>  (1) 
Osbond acid

>  <CAS_NUMBER>  (1) 
25182-74-5

>  <UNII>  (1) 
7S686LQT6T

>  <SYNONYMS>  (1) 
(All-Z)-4,7,10,13,16-docosapentaenoic acid; 4Z,7Z,10Z,13Z,16Z-docosapentaenoic acid; all-cis-docosa-4,7,10,13,16-pentaenoic acid; Docosapentaenoic acid (22n-6)

$$$$
