1158
     RDKit          3D

 13 13  0  0  0  0  0  0  0  0999 V2000
   -1.6101    0.2274   -0.0293 Br  0  0  0  0  0  0  0  0  0  0  0  0
    0.6036   -3.3236   -1.2381 N   0  0  0  0  0  0  0  0  0  0  0  0
    0.2593   -2.4592    0.0154 C   0  0  0  0  0  0  0  0  0  0  0  0
    2.0769   -3.7505   -1.3016 C   0  0  0  0  0  0  0  0  0  0  0  0
   -0.2672   -4.5800   -1.2477 C   0  0  0  0  0  0  0  0  0  0  0  0
    0.2557   -2.5119   -2.4947 C   0  0  0  0  0  0  0  0  0  0  0  0
    0.9678   -1.1201    0.1101 C   0  0  0  0  0  0  0  0  0  0  0  0
    2.5273   -4.4808   -0.0378 C   0  0  0  0  0  0  0  0  0  0  0  0
    0.2852    0.1034    0.0351 C   0  0  0  0  0  0  0  0  0  0  0  0
    2.3734   -1.0628    0.2349 C   0  0  0  0  0  0  0  0  0  0  0  0
    0.9906    1.3143   -0.0018 C   0  0  0  0  0  0  0  0  0  0  0  0
    3.0778    0.1357    0.1287 C   0  0  0  0  0  0  0  0  0  0  0  0
    2.3843    1.3246    0.0112 C   0  0  0  0  0  0  0  0  0  0  0  0
  1  9  1  0
  2  3  1  0
  2  4  1  0
  2  5  1  0
  2  6  1  0
  3  7  1  0
  4  8  1  0
  7  9  2  0
  7 10  1  0
  9 11  1  0
 10 12  2  0
 11 13  2  0
 12 13  1  0
M  CHG  1   2   1
M  END
>  <DRUGBANK_ID>  (1) 
DB01158

>  <SECONDARY_ACCESSION_NUMBERS>  (1) 
APRD00830

>  <COMMON_NAME>  (1) 
Bretylium

>  <CAS_NUMBER>  (1) 
59-41-6

>  <UNII>  (1) 
RZR75EQ2KJ

>  <SYNONYMS>  (1) 
(2-bromobenzyl)ethyldimethylaminium; 2-bromo-N-ethyl-N,N-dimethylbenzenemethanaminium; Bretylium; N-ethyl-N,N-dimethyl-2-bromobenzenemethanaminium

$$$$
