
     RDKit          3D

 15 15  0  0  0  0  0  0  0  0999 V2000
    1.3335   -0.1968    0.0784 C   0  0  0  0  0  0  0  0  0  0  0  0
    2.8295   -0.3895    0.1616 C   0  0  0  0  0  0  0  0  0  0  0  0
    0.4701   -1.2965    0.0097 C   0  0  0  0  0  0  0  0  0  0  0  0
    0.7827    1.0916    0.1234 C   0  0  0  0  0  0  0  0  0  0  0  0
    3.6015    0.1854   -1.0334 C   0  0  0  0  0  0  0  0  0  0  0  0
   -0.9119   -1.1016   -0.0297 C   0  0  0  0  0  0  0  0  0  0  0  0
   -0.5927    1.2867    0.0714 C   0  0  0  0  0  0  0  0  0  0  0  0
    3.5046    1.6520   -1.1094 N   0  0  0  0  0  0  0  0  0  0  0  0
   -1.4409    0.1889   -0.0125 C   0  0  0  0  0  0  0  0  0  0  0  0
    4.6083    2.4456   -1.0269 C   0  0  0  0  0  0  0  0  0  0  0  0
    4.4393    3.8103   -1.1124 N   0  0  0  0  0  0  0  0  0  0  0  0
    5.7677    1.9013   -0.8415 N   0  0  0  0  0  0  0  0  0  0  0  0
    5.4197    4.7680   -1.0320 C   0  0  0  0  0  0  0  0  0  0  0  0
    5.0710    6.0688   -1.1172 N   0  0  0  0  0  0  0  0  0  0  0  0
    6.6618    4.4490   -0.8836 N   0  0  0  0  0  0  0  0  0  0  0  0
  1  2  1  0
  1  3  2  0
  1  4  1  0
  2  5  1  0
  3  6  1  0
  4  7  2  0
  5  8  1  0
  6  9  2  0
  7  9  1  0
  8 10  1  0
 10 11  1  0
 10 12  2  0
 11 13  1  0
 13 14  1  0
 13 15  2  0
M  END
>  <DRUGBANK_ID>  (1) 
DB00914

>  <SECONDARY_ACCESSION_NUMBERS>  (1) 
APRD00511

>  <COMMON_NAME>  (1) 
Phenformin

>  <CAS_NUMBER>  (1) 
114-86-3

>  <UNII>  (1) 
DD5K7529CE

>  <SYNONYMS>  (1) 
Fenformin; Fenformina; Phenformin; Phenformine; Phenforminum; Î²-Phenethybiguanide

$$$$
