ChEBI
     RDKit          3D

 38 40  0  0  1  0  0  0  0  0999 V2000
   -1.5889    7.7870   -5.5930 C   0  0  2  0  0  0  0  0  0  0  0  0
   -1.4104    5.9303   -6.1665 C   0  0  0  0  0  0  0  0  0  0  0  0
   -3.1980    4.8342   -6.5455 C   0  0  0  0  0  0  0  0  0  0  0  0
   -4.1054    6.3070   -7.7327 C   0  0  2  0  0  0  0  0  0  0  0  0
   -4.1593    8.2463   -7.4545 C   0  0  2  0  0  0  0  0  0  0  0  0
   -2.4214    8.7977   -6.9340 O   0  0  0  0  0  0  0  0  0  0  0  0
   -5.2645    8.3294   -6.3296 O   0  0  0  0  0  0  0  0  0  0  0  0
   -5.0648    7.3436   -5.0843 C   0  0  1  0  0  0  0  0  0  0  0  0
   -5.1864    5.9460   -5.4575 C   0  0  1  0  0  0  0  0  0  0  0  0
   -3.4843    6.3547   -5.6430 C   0  0  2  0  0  0  0  0  0  0  0  0
   -2.2712    5.1868   -4.5919 C   0  0  1  0  0  0  0  0  0  0  0  0
   -1.7560    6.4183   -4.1567 C   0  0  0  0  0  0  0  0  0  0  0  0
   -3.6180    7.1861   -3.6912 C   0  0  2  0  0  0  0  0  0  0  0  0
   -3.4449    7.6215   -5.9829 O   0  0  0  0  0  0  0  0  0  0  0  0
   -0.4081    8.4412   -3.9119 C   0  0  0  0  0  0  0  0  0  0  0  0
   -5.3761    5.9067   -8.1858 N   0  0  0  0  0  0  0  0  0  0  0  0
   -3.3208    6.2406   -1.7576 N   0  0  0  0  0  0  0  0  0  0  0  0
   -5.4667    4.8199   -4.5274 O   0  0  0  0  0  0  0  0  0  0  0  0
   -0.5827    9.7795   -3.0901 N   0  0  0  0  0  0  0  0  0  0  0  0
   -3.6318    9.0656   -4.9999 C   0  0  1  0  0  0  0  0  0  0  0  0
   -4.8891    9.0577   -3.9293 O   0  0  0  0  0  0  0  0  0  0  0  0
   -5.4089    7.5463   -3.0925 C   0  0  1  0  0  0  0  0  0  0  0  0
   -4.5119    7.5615   -1.9379 C   0  0  2  0  0  0  0  0  0  0  0  0
   -2.3415    7.7113   -2.4207 C   0  0  2  0  0  0  0  0  0  0  0  0
   -2.3348    9.0784   -4.0295 C   0  0  1  0  0  0  0  0  0  0  0  0
   -6.8647    7.3530   -3.1443 C   0  0  0  0  0  0  0  0  0  0  0  0
   -7.1954    8.7105   -3.2889 O   0  0  0  0  0  0  0  0  0  0  0  0
   -5.2740    5.9283   -1.6805 O   0  0  0  0  0  0  0  0  0  0  0  0
   -1.0854    6.3218   -1.9256 N   0  0  0  0  0  0  0  0  0  0  0  0
   -0.9404    9.4923   -5.3355 O   0  0  0  0  0  0  0  0  0  0  0  0
   -2.6456    4.0324   -3.9707 N   0  0  0  0  0  0  0  0  0  0  0  0
   -2.1030    2.2768   -1.8830 C   0  0  0  0  0  0  0  0  0  0  0  0
   -1.5153    1.4544   -2.9946 C   0  0  0  0  0  0  0  0  0  0  0  0
   -1.2966    2.1623   -4.2696 N   0  0  0  0  0  0  0  0  0  0  0  0
   -3.2022    3.7267   -2.8346 C   0  0  0  0  0  0  0  0  0  0  0  0
   -3.7577    4.3957   -2.0140 O   0  0  0  0  0  0  0  0  0  0  0  0
   -3.5210    2.4864   -2.2951 C   0  0  1  0  0  0  0  0  0  0  0  0
   -4.2179    2.0110   -3.4204 O   0  0  0  0  0  0  0  0  0  0  0  0
  1 15  1  6
  1  2  1  0
  2  3  1  0
  3  4  1  0
  4 16  1  1
  4  5  1  0
  5  7  1  1
  5  6  1  0
  6  1  1  0
  8  7  1  6
  8  9  1  0
  9 18  1  1
  9 10  1  0
 10 14  1  1
 10 11  1  0
 11 12  1  0
 11 31  1  1
 12 13  1  0
 13  8  1  0
 13 17  1  1
 15 19  1  0
 20 14  1  1
 20 21  1  0
 21 22  1  0
 22 23  1  0
 22 26  1  1
 23 28  1  6
 23 24  1  0
 24 25  1  0
 24 29  1  1
 25 20  1  0
 25 30  1  6
 26 27  1  0
 31 35  1  0
 32 33  1  0
 33 34  1  0
 35 36  2  0
 37 38  1  6
 37 32  1  0
 37 35  1  0
M  END
>  <DRUGBANK_ID>  (1) 
DB06696

>  <COMMON_NAME>  (1) 
Arbekacin

>  <CAS_NUMBER>  (1) 
51025-85-5

>  <UNII>  (1) 
G7V6SLI20L

>  <SYNONYMS>  (1) 
ABK; Arbekacin; Arbekacina; Arbekacine; Arbekacinum; Haberacin

$$$$
