N22
     RDKit          3D

 23 24  0  0  0  0  0  0  0  0999 V2000
    1.1093   -0.2096    0.2083 C   0  0  0  0  0  0  0  0  0  0  0  0
    0.6303   -0.3261   -1.2171 C   0  0  0  0  0  0  0  0  0  0  0  0
    1.2683   -1.4110   -2.1012 C   0  0  0  0  0  0  0  0  0  0  0  0
    0.6967   -2.5895   -1.7107 N   0  0  0  0  0  0  0  0  0  0  0  0
    0.9744   -3.7043   -2.3770 C   0  0  0  0  0  0  0  0  0  0  0  0
    0.4282   -4.8678   -1.9106 N   0  0  0  0  0  0  0  0  0  0  0  0
    1.7439   -3.7529   -3.4645 N   0  0  0  0  0  0  0  0  0  0  0  0
    2.3180   -2.6036   -3.8802 C   0  0  0  0  0  0  0  0  0  0  0  0
    3.1457   -2.6991   -4.9974 N   0  0  0  0  0  0  0  0  0  0  0  0
    2.1914   -1.3744   -3.2171 C   0  0  0  0  0  0  0  0  0  0  0  0
    3.0014   -0.2395   -3.8641 C   0  0  0  0  0  0  0  0  0  0  0  0
    3.4359    0.7911   -4.3312 C   0  0  0  0  0  0  0  0  0  0  0  0
    3.6197    2.3263   -4.6873 C   0  0  0  0  0  0  0  0  0  0  0  0
    2.9006    3.5430   -3.8974 C   0  0  0  0  0  0  0  0  0  0  0  0
    3.3477    4.8451   -4.2237 C   0  0  0  0  0  0  0  0  0  0  0  0
    2.8513    6.0051   -3.5650 C   0  0  0  0  0  0  0  0  0  0  0  0
    3.2165    7.2996   -3.8037 O   0  0  0  0  0  0  0  0  0  0  0  0
    4.1880    7.4997   -4.8089 C   0  0  0  0  0  0  0  0  0  0  0  0
    1.9056    5.9158   -2.5522 C   0  0  0  0  0  0  0  0  0  0  0  0
    1.4056    4.6913   -2.2372 C   0  0  0  0  0  0  0  0  0  0  0  0
    1.8284    3.5697   -2.9474 C   0  0  0  0  0  0  0  0  0  0  0  0
    0.8958    2.6265   -2.6193 O   0  0  0  0  0  0  0  0  0  0  0  0
    1.2919    1.5060   -3.2696 C   0  0  0  0  0  0  0  0  0  0  0  0
  1  2  1  0
  2  3  1  0
  3  4  2  0
  3 10  1  0
  4  5  1  0
  5  6  1  0
  5  7  2  0
  7  8  1  0
  8  9  1  0
  8 10  2  0
 10 11  1  0
 11 12  3  0
 12 13  1  0
 13 14  1  0
 14 15  2  0
 14 21  1  0
 15 16  1  0
 16 17  1  0
 16 19  2  0
 17 18  1  0
 19 20  1  0
 20 21  2  0
 21 22  1  0
 22 23  1  0
M  END
>  <DRUGBANK_ID>  (1) 
DB08234

>  <COMMON_NAME>  (1) 
5-[3-(2,5-dimethoxyphenyl)prop-1-yn-1-yl]-6-ethylpyrimidine-2,4-diamine

>  <UNII>  (1) 
GEW9C9EK4M

$$$$
