
     RDKit          3D

 19 22  0  0  0  0  0  0  0  0999 V2000
    1.5293    1.7026    0.0416 C   0  0  0  0  0  0  0  0  0  0  0  0
    2.8759    1.6659   -0.0058 C   0  0  0  0  0  0  0  0  0  0  0  0
    3.5964    0.3855    0.1162 C   0  0  0  0  0  0  0  0  0  0  0  0
    2.8086   -0.7161    0.1989 N   0  0  0  0  0  0  0  0  0  0  0  0
    0.7098    0.4982    0.1200 C   0  0  0  0  0  0  0  0  0  0  0  0
    1.4319   -0.6554    0.1328 C   0  0  0  0  0  0  0  0  0  0  0  0
    0.7540   -1.8868   -0.2811 C   0  0  0  0  0  0  0  0  0  0  0  0
   -0.3140   -1.3561   -1.2789 C   0  0  1  0  0  0  0  0  0  0  0  0
   -0.9914    0.4963   -0.1896 C   0  0  1  0  0  0  0  0  0  0  0  0
   -1.4511   -0.9531   -0.2080 C   0  0  1  0  0  0  0  0  0  0  0  0
   -2.9330   -1.0009    0.3238 C   0  0  0  0  0  0  0  0  0  0  0  0
   -3.7536    0.3150    0.2148 C   0  0  0  0  0  0  0  0  0  0  0  0
   -2.9998    1.5964    0.5945 C   0  0  0  0  0  0  0  0  0  0  0  0
   -1.5803    1.4274    0.7408 N   0  0  0  0  0  0  0  0  0  0  0  0
   -1.6263    0.7664   -1.6802 C   0  0  0  0  0  0  0  0  0  0  0  0
    0.0635    0.0655   -2.4072 C   0  0  0  0  0  0  0  0  0  0  0  0
    4.8418    0.3248    0.1016 O   0  0  0  0  0  0  0  0  0  0  0  0
   -0.5280    1.3590   -2.4473 C   0  0  0  0  0  0  0  0  0  0  0  0
   -0.9884    2.8389   -1.8698 C   0  0  0  0  0  0  0  0  0  0  0  0
  1  2  2  0
  2  3  1  0
  3  4  1  0
  3 17  2  0
  4  6  1  0
  5  6  2  0
  5  1  1  0
  6  7  1  0
  8  7  1  1
  8 16  1  0
  8 10  1  0
  9 14  1  0
  9 15  1  6
  9  5  1  0
  9 10  1  0
 10 11  1  6
 11 12  1  0
 12 13  1  0
 13 14  1  0
 15 18  1  0
 16 18  2  0
 18 19  1  0
M  END
>  <DRUGBANK_ID>  (1) 
DB03348

>  <SECONDARY_ACCESSION_NUMBERS>  (1) 
EXPT01794

>  <COMMON_NAME>  (1) 
Huperzine B

>  <CAS_NUMBER>  (1) 
103548-82-9

>  <UNII>  (1) 
DC3Z5425Y5

>  <SYNONYMS>  (1) 
HupB

$$$$
