
     RDKit          3D

 27 29  0  0  0  0  0  0  0  0999 V2000
    0.9572   -0.0852   -0.0085 C   0  0  0  0  0  0  0  0  0  0  0  0
    0.3288   -0.0990    1.3018 N   0  0  0  0  0  0  0  0  0  0  0  0
   -0.3476    1.0520    1.6970 C   0  0  0  0  0  0  0  0  0  0  0  0
   -1.3733    1.5860    0.9256 C   0  0  0  0  0  0  0  0  0  0  0  0
   -2.1202    2.6708    1.4008 C   0  0  0  0  0  0  0  0  0  0  0  0
   -1.8233    3.2356    2.6409 C   0  0  0  0  0  0  0  0  0  0  0  0
   -2.6226    4.3702    3.1538 C   0  0  0  0  0  0  0  0  0  0  0  0
   -2.4133    4.9842    4.3332 C   0  0  0  0  0  0  0  0  0  0  0  0
   -3.2094    6.0834    4.8388 C   0  0  0  0  0  0  0  0  0  0  0  0
   -2.9443    6.6493    6.0316 C   0  0  0  0  0  0  0  0  0  0  0  0
   -3.6488    7.7687    6.5500 C   0  0  0  0  0  0  0  0  0  0  0  0
   -3.0456    8.7702    7.1533 N   0  0  0  0  0  0  0  0  0  0  0  0
   -3.9479    9.7549    7.4769 C   0  0  0  0  0  0  0  0  0  0  0  0
   -5.2912    9.4544    7.2552 C   0  0  0  0  0  0  0  0  0  0  0  0
   -5.3754    7.8970    6.5211 S   0  0  0  0  0  0  0  0  0  0  0  0
   -6.3166   10.3498    7.6221 C   0  0  0  0  0  0  0  0  0  0  0  0
   -5.9469   11.6007    8.1360 C   0  0  0  0  0  0  0  0  0  0  0  0
   -6.9637   12.3692    8.6440 O   0  0  0  0  0  0  0  0  0  0  0  0
   -6.6090   13.5883    9.3248 C   0  0  0  0  0  0  0  0  0  0  0  0
   -6.0141   13.3886   10.7454 C   0  0  0  0  0  0  0  0  0  0  0  0
   -4.8308   12.5882   10.8133 O   0  0  0  0  0  0  0  0  0  0  0  0
   -5.6341   14.7361   11.3425 C   0  0  0  0  0  0  0  0  0  0  0  0
   -6.7510   15.4683   11.5749 F   0  0  0  0  0  0  0  0  0  0  0  0
   -4.6028   11.9556    8.1963 C   0  0  0  0  0  0  0  0  0  0  0  0
   -3.6045   11.0118    7.9847 C   0  0  0  0  0  0  0  0  0  0  0  0
   -0.7651    2.6399    3.3280 C   0  0  0  0  0  0  0  0  0  0  0  0
   -0.0378    1.5698    2.8966 N   0  0  0  0  0  0  0  0  0  0  0  0
  1  2  1  0
  2  3  1  0
  3  4  2  0
  3 27  1  0
  4  5  1  0
  5  6  2  0
  6  7  1  0
  6 26  1  0
  7  8  2  0
  8  9  1  0
  9 10  2  0
 10 11  1  0
 11 12  2  0
 11 15  1  0
 12 13  1  0
 13 14  2  0
 13 25  1  0
 14 15  1  0
 14 16  1  0
 16 17  2  0
 17 18  1  0
 17 24  1  0
 18 19  1  0
 19 20  1  0
 20 21  1  0
 20 22  1  0
 22 23  1  0
 24 25  2  0
 26 27  2  0
M  ISO  1  23  18
M  END
>  <DRUGBANK_ID>  (1) 
DB16297

>  <COMMON_NAME>  (1) 
Florzolotau F-18

>  <CAS_NUMBER>  (1) 
1565797-57-0

>  <UNII>  (1) 
51M993JIQ4

$$$$
