709
     RDKit          3D

 15 16  0  0  1  0  0  0  0  0999 V2000
   -1.1981    0.1312    0.1208 S   0  0  0  0  0  0  0  0  0  0  0  0
    1.4133    0.4011   -0.2641 O   0  0  0  0  0  0  0  0  0  0  0  0
   -0.8134    3.2878   -0.7784 O   0  0  0  0  0  0  0  0  0  0  0  0
    3.8721   -0.5018    0.9325 O   0  0  0  0  0  0  0  0  0  0  0  0
    2.3181   -1.7872   -0.1790 N   0  0  0  0  0  0  0  0  0  0  0  0
    4.6659   -2.2400   -0.2923 N   0  0  0  0  0  0  0  0  0  0  0  0
    5.4609   -3.8884   -1.6800 N   0  0  0  0  0  0  0  0  0  0  0  0
    1.2239   -0.9168    0.2896 C   0  0  2  0  0  0  0  0  0  0  0  0
   -0.1865   -1.3273   -0.1652 C   0  0  0  0  0  0  0  0  0  0  0  0
    0.2594    1.2106    0.0056 C   0  0  1  0  0  0  0  0  0  0  0  0
    0.0868    2.2360   -1.1260 C   0  0  0  0  0  0  0  0  0  0  0  0
    2.0913   -2.8015   -1.0863 C   0  0  0  0  0  0  0  0  0  0  0  0
    3.6338   -1.4558    0.1837 C   0  0  0  0  0  0  0  0  0  0  0  0
    3.0887   -3.3697   -1.7537 C   0  0  0  0  0  0  0  0  0  0  0  0
    4.4325   -3.1220   -1.2144 C   0  0  0  0  0  0  0  0  0  0  0  0
  1  9  1  0
  1 10  1  0
  2  8  1  0
  2 10  1  0
  3 11  1  0
  4 13  2  0
  5 12  1  0
  5 13  1  0
  6 13  1  0
  6 15  2  0
  7 15  1  0
  8  5  1  6
  8  9  1  0
 10 11  1  6
 12 14  2  0
 14 15  1  0
M  END
>  <DRUGBANK_ID>  (1) 
DB00709

>  <SECONDARY_ACCESSION_NUMBERS>  (1) 
APRD00681

>  <COMMON_NAME>  (1) 
Lamivudine

>  <CAS_NUMBER>  (1) 
134678-17-4

>  <UNII>  (1) 
2T8Q726O95

>  <SYNONYMS>  (1) 
(-)-1-((2R,5S)-2-(Hydroxymethyl)-1,3-oxathiolan-5-yl)cytosine; (-)-2'-Deoxy-3'-thiacytidine; 2',3'-Dideoxy-3'-thiacytidine; 3'-Thia-2',3'-dideoxycytidine; 3TC; beta-L-2',3'-Dideoxy-3'-thiacytidine; beta-L-3'-Thia-2',3'-dideoxycytidine; Lamivudin; Lamivudina; Lamivudine; Lamivudinum

$$$$
