HDU
     RDKit          3D

 20 22  0  0  0  0  0  0  0  0999 V2000
    1.0792   -0.0579   -0.0382 O   0  0  0  0  0  0  0  0  0  0  0  0
    2.3077   -0.0369    0.0822 C   0  0  0  0  0  0  0  0  0  0  0  0
    3.1536   -0.7444   -0.9432 C   0  0  0  0  0  0  0  0  0  0  0  0
    2.9989    0.6507    1.0567 N   0  0  0  0  0  0  0  0  0  0  0  0
    2.2856    1.3704    2.0195 C   0  0  0  0  0  0  0  0  0  0  0  0
    1.2262    0.7846    2.5849 N   0  0  0  0  0  0  0  0  0  0  0  0
    2.7077    2.6085    2.3222 N   0  0  0  0  0  0  0  0  0  0  0  0
    1.9099    3.3194    3.1553 C   0  0  0  0  0  0  0  0  0  0  0  0
    0.7801    2.8165    3.7539 C   0  0  0  0  0  0  0  0  0  0  0  0
    0.4940    1.5142    3.4387 C   0  0  0  0  0  0  0  0  0  0  0  0
   -0.5420    0.7662    4.1208 C   0  0  0  0  0  0  0  0  0  0  0  0
   -1.8982    1.0221    4.0883 N   0  0  0  0  0  0  0  0  0  0  0  0
   -2.5011    0.0857    4.9298 C   0  0  0  0  0  0  0  0  0  0  0  0
   -1.6140   -0.7248    5.4698 N   0  0  0  0  0  0  0  0  0  0  0  0
   -0.3985   -0.3274    4.9601 C   0  0  0  0  0  0  0  0  0  0  0  0
    0.8626   -1.0055    5.3510 C   0  0  0  0  0  0  0  0  0  0  0  0
   -3.9187    0.1556    5.0737 C   0  0  0  0  0  0  0  0  0  0  0  0
   -4.6172    1.0993    4.4125 C   0  0  0  0  0  0  0  0  0  0  0  0
   -3.9579    2.0585    3.5420 C   0  0  0  0  0  0  0  0  0  0  0  0
   -2.6233    1.9989    3.3980 C   0  0  0  0  0  0  0  0  0  0  0  0
  1  2  2  0
  2  3  1  0
  2  4  1  0
  4  5  1  0
  5  6  2  0
  5  7  1  0
  6 10  1  0
  7  8  2  0
  8  9  1  0
  9 10  2  0
 10 11  1  0
 11 12  1  0
 11 15  2  0
 12 13  1  0
 12 20  1  0
 13 14  2  0
 13 17  1  0
 14 15  1  0
 15 16  1  0
 17 18  2  0
 18 19  1  0
 19 20  2  0
M  END
>  <DRUGBANK_ID>  (1) 
DB02538

>  <SECONDARY_ACCESSION_NUMBERS>  (1) 
EXPT01718

>  <COMMON_NAME>  (1) 
N-[4-(2-Methylimidazo[1,2-a]Pyridin-3-Yl)-2-Pyrimidinyl]Acetamide

$$$$
