
     RDKit          3D

 26 28  0  0  1  0  0  0  0  0999 V2000
    1.0703   -0.0710   -0.0045 Cl  0  0  0  0  0  0  0  0  0  0  0  0
    1.1220    1.4070    0.0500 O   0  0  0  0  0  0  0  0  0  0  0  0
    1.1040   -1.4270   -0.0500 O   0  0  0  0  0  0  0  0  0  0  0  0
    6.9786   -0.5569    2.0350 O   0  0  0  0  0  0  0  0  0  0  0  0
    8.5540   -3.4004   -1.5977 O   0  0  0  0  0  0  0  0  0  0  0  0
    8.3759   -1.6921   -3.1488 O   0  0  0  0  0  0  0  0  0  0  0  0
    4.7038    0.6555   -0.2201 N   0  0  0  0  0  0  0  0  0  0  0  0
    2.2640    0.6590   -0.3120 C   0  0  1  0  0  0  0  0  0  0  0  0
    3.4997    1.4106    0.1554 C   0  0  0  0  0  0  0  0  0  0  0  0
    2.2560   -0.6500    0.3180 C   0  0  0  0  0  0  0  0  0  0  0  0
    5.8988    1.3823    0.2320 C   0  0  0  0  0  0  0  0  0  0  0  0
    5.8525    1.5436    1.7427 C   0  0  0  0  0  0  0  0  0  0  0  0
   -0.0440    0.6900    0.0160 C   0  0  0  0  0  0  0  0  0  0  0  0
   -0.0560   -0.7010   -0.0280 C   0  0  0  0  0  0  0  0  0  0  0  0
    5.8155    0.1725    2.3977 C   0  0  0  0  0  0  0  0  0  0  0  0
   -1.2360    1.3820    0.0540 C   0  0  0  0  0  0  0  0  0  0  0  0
   -1.2560   -1.3740   -0.0570 C   0  0  0  0  0  0  0  0  0  0  0  0
    7.2437   -0.8367    0.6683 C   0  0  0  0  0  0  0  0  0  0  0  0
   -2.4530    0.7070    0.0320 C   0  0  0  0  0  0  0  0  0  0  0  0
   -2.4390   -0.6870   -0.0250 C   0  0  0  0  0  0  0  0  0  0  0  0
    8.0465   -2.2755   -1.0018 C   0  0  0  0  0  0  0  0  0  0  0  0
    7.7224   -2.0997    0.3140 C   0  0  0  0  0  0  0  0  0  0  0  0
    7.9236   -1.2605   -1.9288 C   0  0  0  0  0  0  0  0  0  0  0  0
    7.0861    0.1871   -0.2594 C   0  0  0  0  0  0  0  0  0  0  0  0
    7.4476   -0.0227   -1.6050 C   0  0  0  0  0  0  0  0  0  0  0  0
    8.6482   -3.0927   -2.9872 C   0  0  0  0  0  0  0  0  0  0  0  0
  2  8  1  0
  2 13  1  0
  3 10  1  0
  3 14  1  0
  4 15  1  0
  4 18  1  0
  5 21  1  0
  5 26  1  0
  6 23  1  0
  6 26  1  0
  7  9  1  0
  7 11  1  0
  8  9  1  1
  8 10  1  0
 11 12  1  0
 12 15  1  0
 13 14  2  0
 13 16  1  0
 14 17  1  0
 16 19  2  0
 17 20  2  0
 18 22  1  0
 18 24  2  0
 19 20  1  0
 21 22  2  0
 21 23  1  0
 23 25  2  0
 24 25  1  0
M  END
>  <DRUGBANK_ID>  (1) 
DB05339

>  <COMMON_NAME>  (1) 
MN-305

>  <UNII>  (1) 
F0WKFYPQL8

$$$$
