
     RDKit          3D

 26 26  0  0  0  0  0  0  0  0999 V2000
    1.0019    0.2179    0.0316 C   0  0  0  0  0  0  0  0  0  0  0  0
    0.5746   -0.5374   -1.2151 C   0  0  0  0  0  0  0  0  0  0  0  0
    1.0842   -1.9774   -1.1570 C   0  0  0  0  0  0  0  0  0  0  0  0
    0.5188   -2.7126    0.0645 C   0  0  0  0  0  0  0  0  0  0  0  0
   -1.0114   -2.7304    0.0042 C   0  0  0  0  0  0  0  0  0  0  0  0
   -1.4488   -3.4159   -1.2974 C   0  0  0  0  0  0  0  0  0  0  0  0
   -0.8225   -4.8208   -1.3790 C   0  0  0  0  0  0  0  0  0  0  0  0
   -1.2778   -5.6218   -0.1897 C   0  0  0  0  0  0  0  0  0  0  0  0
   -2.7718   -5.6540   -0.2774 C   0  0  0  0  0  0  0  0  0  0  0  0
   -3.3129   -6.3473   -1.5139 C   0  0  0  0  0  0  0  0  0  0  0  0
   -4.2536   -4.6688    3.5421 C   0  0  0  0  0  0  0  0  0  0  0  0
   -3.7960   -5.9339    3.3949 C   0  0  0  0  0  0  0  0  0  0  0  0
   -5.0651   -4.0999    2.5466 C   0  0  0  0  0  0  0  0  0  0  0  0
   -3.0388   -7.8474   -1.4243 C   0  0  0  0  0  0  0  0  0  0  0  0
   -4.1777   -6.6171    2.2525 C   0  0  0  0  0  0  0  0  0  0  0  0
   -5.5483   -4.8628    1.4568 C   0  0  0  0  0  0  0  0  0  0  0  0
   -3.5252   -8.5718   -0.1441 C   0  0  0  0  0  0  0  0  0  0  0  0
   -5.6730   -9.2598   -1.2044 C   0  0  0  0  0  0  0  0  0  0  0  0
   -5.6308   -9.3816    1.3275 C   0  0  0  0  0  0  0  0  0  0  0  0
   -5.1735  -10.7246   -1.3701 C   0  0  0  0  0  0  0  0  0  0  0  0
   -5.4744   -8.9877    2.8069 C   0  0  0  0  0  0  0  0  0  0  0  0
   -5.7003   -7.1096    0.2306 C   0  0  0  0  0  0  0  0  0  0  0  0
   -5.1346   -6.1738    1.3021 C   0  0  0  0  0  0  0  0  0  0  0  0
   -5.0686   -8.5374    0.1048 N   0  0  0  0  0  0  0  0  0  0  0  0
   -5.7034  -11.5640   -0.3512 O   0  0  0  0  0  0  0  0  0  0  0  0
   -6.3659   -7.9930    3.2820 O   0  0  0  0  0  0  0  0  0  0  0  0
  2  1  1  0
  3  2  1  0
  4  3  1  0
  5  4  1  0
  6  5  1  0
  7  6  1  0
  8  7  1  0
  9  8  1  0
 10  9  1  0
 12 11  2  0
 13 11  1  0
 14 10  1  0
 15 12  1  0
 16 13  2  0
 17 14  1  0
 20 18  1  0
 21 19  1  0
 23 15  2  0
 23 16  1  0
 23 22  1  0
 24 17  1  0
 24 18  1  0
 24 19  1  0
 24 22  1  0
 25 20  1  0
 26 21  1  0
M  CHG  1  24   1
M  END
>  <DRUGBANK_ID>  (1) 
DB13565

>  <COMMON_NAME>  (1) 
Benzoxonium

>  <CAS_NUMBER>  (1) 
23884-64-2

>  <UNII>  (1) 
D95EHT6Y2L

$$$$
