X98
     RDKit          3D

 33 37  0  0  0  0  0  0  0  0999 V2000
    1.3006    0.5584    0.3491 C   0  0  0  0  0  0  0  0  0  0  0  0
    0.7762    1.6988    0.3095 O   0  0  0  0  0  0  0  0  0  0  0  0
    0.6006   -0.5998   -0.0121 C   0  0  0  0  0  0  0  0  0  0  0  0
    1.2216   -1.0441   -1.3466 C   0  0  0  0  0  0  0  0  0  0  0  0
    2.5841   -1.9407   -1.7935 N   0  0  0  0  0  0  0  0  0  0  0  0
    3.1694   -3.3657   -1.5198 C   0  0  0  0  0  0  0  0  0  0  0  0
    4.5318   -3.6879   -1.9429 C   0  0  0  0  0  0  0  0  0  0  0  0
    5.3549   -2.7339   -2.2248 N   0  0  0  0  0  0  0  0  0  0  0  0
    4.8169   -1.4220   -2.3646 C   0  0  0  0  0  0  0  0  0  0  0  0
    5.6501   -0.3449   -2.2173 C   0  0  0  0  0  0  0  0  0  0  0  0
    5.2099    0.9880   -2.3925 C   0  0  0  0  0  0  0  0  0  0  0  0
    3.8864    1.3151   -2.5431 C   0  0  0  0  0  0  0  0  0  0  0  0
    3.0189    0.2852   -2.5231 C   0  0  0  0  0  0  0  0  0  0  0  0
    3.4714   -1.0540   -2.4019 C   0  0  0  0  0  0  0  0  0  0  0  0
    2.6998   -4.4170   -1.0576 O   0  0  0  0  0  0  0  0  0  0  0  0
    4.8152   -5.1697   -1.9711 C   0  0  0  0  0  0  0  0  0  0  0  0
    4.1600   -5.9752   -2.9335 C   0  0  0  0  0  0  0  0  0  0  0  0
    4.2137   -7.3705   -2.8541 C   0  0  0  0  0  0  0  0  0  0  0  0
    4.9766   -7.9625   -1.8511 C   0  0  0  0  0  0  0  0  0  0  0  0
    5.5848   -7.1711   -0.8706 C   0  0  0  0  0  0  0  0  0  0  0  0
    5.4104   -5.7845   -0.8689 C   0  0  0  0  0  0  0  0  0  0  0  0
    2.5602    0.1949    0.6414 N   0  0  0  0  0  0  0  0  0  0  0  0
    3.1059   -1.2366    0.6208 C   0  0  2  0  0  0  0  0  0  0  0  0
    2.0349   -2.8096    0.6440 C   0  0  0  0  0  0  0  0  0  0  0  0
    2.2884   -3.5628    1.6036 O   0  0  0  0  0  0  0  0  0  0  0  0
    4.5151   -0.9202    1.2612 C   0  0  0  0  0  0  0  0  0  0  0  0
    4.8360    0.5895    0.9262 C   0  0  0  0  0  0  0  0  0  0  0  0
    3.5140    1.2576    0.7151 C   0  0  0  0  0  0  0  0  0  0  0  0
    0.8630   -3.3116   -0.5300 N   0  0  0  0  0  0  0  0  0  0  0  0
    0.8738   -3.6477   -2.3197 C   0  0  0  0  0  0  0  0  0  0  0  0
   -0.5774   -3.0489   -0.3205 C   0  0  0  0  0  0  0  0  0  0  0  0
   -1.1915   -2.5879   -1.8795 C   0  0  0  0  0  0  0  0  0  0  0  0
   -0.1032   -2.7054   -3.0357 C   0  0  0  0  0  0  0  0  0  0  0  0
  1  2  2  0
  1  3  1  0
  1 22  1  0
  3  4  1  0
  4  5  1  0
  5  6  1  0
  5 14  1  0
  6  7  1  0
  6 15  2  0
  7  8  2  0
  7 16  1  0
  8  9  1  0
  9 10  1  0
  9 14  2  0
 10 11  2  0
 11 12  1  0
 12 13  2  0
 13 14  1  0
 16 17  2  0
 16 21  1  0
 17 18  1  0
 18 19  2  0
 19 20  1  0
 20 21  2  0
 22 23  1  0
 22 28  1  0
 23 26  1  0
 23 24  1  1
 24 25  2  0
 24 29  1  0
 26 27  1  0
 27 28  1  0
 29 30  1  0
 29 31  1  0
 30 33  1  0
 31 32  1  0
 32 33  1  0
M  END
>  <DRUGBANK_ID>  (1) 
DB08738

>  <COMMON_NAME>  (1) 
1-{3-oxo-3-[(2S)-2-(pyrrolidin-1-ylcarbonyl)pyrrolidin-1-yl]propyl}-3-phenylquinoxalin-2(1H)-one

$$$$
