
     RDKit          3D

 32 36  0  0  1  0  0  0  0  0999 V2000
    1.0943    0.0302    0.0099 O   0  0  0  0  0  0  0  0  0  0  0  0
    0.3418    0.7471    0.8975 C   0  0  0  0  0  0  0  0  0  0  0  0
   -0.8378    0.1888    1.3061 C   0  0  0  0  0  0  0  0  0  0  0  0
   -1.6512    0.8830    2.2040 C   0  0  0  0  0  0  0  0  0  0  0  0
   -1.2418    2.0953    2.8076 C   0  0  0  0  0  0  0  0  0  0  0  0
   -2.0601    2.7134    3.9776 C   0  0  2  0  0  0  0  0  0  0  0  0
   -1.4086    3.9406    4.5172 N   0  0  0  0  0  0  0  0  0  0  0  0
   -0.8091    4.8080    3.5168 C   0  0  0  0  0  0  0  0  0  0  0  0
    0.3401    4.0556    2.8251 C   0  0  0  0  0  0  0  0  0  0  0  0
   -0.0762    2.6917    2.3146 C   0  0  0  0  0  0  0  0  0  0  0  0
    0.7297    2.0098    1.3650 C   0  0  0  0  0  0  0  0  0  0  0  0
   -1.2120    4.2116    5.8689 C   0  0  0  0  0  0  0  0  0  0  0  0
   -1.7288    5.3754    6.4525 C   0  0  0  0  0  0  0  0  0  0  0  0
   -1.6054    5.6191    7.8311 C   0  0  0  0  0  0  0  0  0  0  0  0
   -1.0661    4.6560    8.6791 C   0  0  0  0  0  0  0  0  0  0  0  0
   -0.6318    3.4554    8.1434 C   0  0  0  0  0  0  0  0  0  0  0  0
   -0.6217    3.2891    6.7548 C   0  0  0  0  0  0  0  0  0  0  0  0
   -2.3889    1.7716    5.1337 C   0  0  0  0  0  0  0  0  0  0  0  0
   -3.3389    2.1600    6.1086 C   0  0  0  0  0  0  0  0  0  0  0  0
   -3.5164    1.4013    7.2706 C   0  0  0  0  0  0  0  0  0  0  0  0
   -2.8979    0.1431    7.3780 C   0  0  0  0  0  0  0  0  0  0  0  0
   -3.5050   -0.7292    8.2579 O   0  0  0  0  0  0  0  0  0  0  0  0
   -3.3859   -2.1404    7.9796 C   0  0  0  0  0  0  0  0  0  0  0  0
   -4.3054   -2.7863    6.8615 C   0  0  0  0  0  0  0  0  0  0  0  0
   -4.2247   -2.2365    5.4941 N   0  0  0  0  0  0  0  0  0  0  0  0
   -4.8187   -3.0433    4.4127 C   0  0  0  0  0  0  0  0  0  0  0  0
   -4.5242   -2.3927    3.0300 C   0  0  0  0  0  0  0  0  0  0  0  0
   -4.9586   -0.9272    2.9547 C   0  0  0  0  0  0  0  0  0  0  0  0
   -4.4251   -0.2515    4.1761 C   0  0  0  0  0  0  0  0  0  0  0  0
   -4.9149   -0.9456    5.4241 C   0  0  0  0  0  0  0  0  0  0  0  0
   -1.9806   -0.2559    6.4064 C   0  0  0  0  0  0  0  0  0  0  0  0
   -1.6822    0.5743    5.3330 C   0  0  0  0  0  0  0  0  0  0  0  0
  1  2  1  0
  2  3  2  0
  2 11  1  0
  3  4  1  0
  4  5  2  0
  5  6  1  0
  5 10  1  0
  6  7  1  0
  6 18  1  1
  7  8  1  0
  7 12  1  0
  8  9  1  0
  9 10  1  0
 10 11  2  0
 12 13  2  0
 12 17  1  0
 13 14  1  0
 14 15  2  0
 15 16  1  0
 16 17  2  0
 18 19  2  0
 18 32  1  0
 19 20  1  0
 20 21  2  0
 21 22  1  0
 21 31  1  0
 22 23  1  0
 23 24  1  0
 24 25  1  0
 25 26  1  0
 25 30  1  0
 26 27  1  0
 27 28  1  0
 28 29  1  0
 29 30  1  0
 31 32  2  0
M  END
>  <DRUGBANK_ID>  (1) 
DB04471

>  <SECONDARY_ACCESSION_NUMBERS>  (1) 
EXPT02683

>  <COMMON_NAME>  (1) 
2-Phenyl-1-[4-(2-Piperidin-1-Yl-Ethoxy)-Phenyl]-1,2,3,4-Tetrahydro-Isoquinolin-6-Ol

$$$$
