
     RDKit          3D

 17 18  0  0  0  0  0  0  0  0999 V2000
    1.4733   -0.1785   -0.0325 C   0  0  0  0  0  0  0  0  0  0  0  0
    0.7545   -1.3518    0.0382 C   0  0  0  0  0  0  0  0  0  0  0  0
   -0.6252   -1.2842    0.2200 C   0  0  0  0  0  0  0  0  0  0  0  0
   -1.2894   -0.0673    0.2746 C   0  0  0  0  0  0  0  0  0  0  0  0
   -0.5803    1.1369    0.1692 C   0  0  0  0  0  0  0  0  0  0  0  0
    0.8257    1.0593    0.0067 C   0  0  0  0  0  0  0  0  0  0  0  0
   -1.0360    2.4313    0.2242 O   0  0  0  0  0  0  0  0  0  0  0  0
   -2.4430    2.7112    0.3722 C   0  0  0  0  0  0  0  0  0  0  0  0
   -3.2016    2.5417   -0.9700 C   0  0  0  0  0  0  0  0  0  0  0  0
   -2.6260   -0.1106    0.5590 O   0  0  0  0  0  0  0  0  0  0  0  0
   -3.4494   -1.1660    0.0174 C   0  0  0  0  0  0  0  0  0  0  0  0
   -3.1205   -1.8169   -1.3519 C   0  0  0  0  0  0  0  0  0  0  0  0
   -3.5922    1.1836   -1.1186 O   0  0  0  0  0  0  0  0  0  0  0  0
   -4.2962    0.8661   -2.2987 C   0  0  0  0  0  0  0  0  0  0  0  0
   -5.5759    1.6503   -2.3581 C   0  0  0  0  0  0  0  0  0  0  0  0
   -5.2517    3.0825   -2.3148 N   0  0  0  0  0  0  0  0  0  0  0  0
   -4.4971    3.3657   -1.0568 C   0  0  0  0  0  0  0  0  0  0  0  0
  1  2  2  0
  1  6  1  0
  2  3  1  0
  3  4  2  0
  4  5  1  0
  4 10  1  0
  5  6  2  0
  5  7  1  0
  7  8  1  0
  8  9  1  0
  9 13  1  0
  9 17  1  0
 10 11  1  0
 11 12  1  0
 13 14  1  0
 14 15  1  0
 15 16  1  0
 16 17  1  0
M  END
>  <DRUGBANK_ID>  (1) 
DB09185

>  <COMMON_NAME>  (1) 
Viloxazine

>  <CAS_NUMBER>  (1) 
46817-91-8

>  <UNII>  (1) 
5I5Y2789ZF

>  <SYNONYMS>  (1) 
2-((2-Ethoxyphenoxy)methyl)morpholine; Viloxazina; Viloxazine; Viloxazinum

$$$$
