
     RDKit          3D

 11 10  0  0  1  0  0  0  0  0999 V2000
    1.0472   -0.1284   -0.8050 C   0  0  0  0  0  0  0  0  0  0  0  0
   -0.2449    0.6008   -0.5829 C   0  0  0  0  0  0  0  0  0  0  0  0
   -0.2249    1.7939   -0.2680 O   0  0  0  0  0  0  0  0  0  0  0  0
   -1.5499   -0.1590   -0.6959 C   0  0  0  0  0  0  0  0  0  0  0  0
   -1.8011   -0.9617   -2.3100 S   0  0  0  0  0  0  0  0  0  0  0  0
   -1.6435    0.4012   -3.5385 C   0  0  0  0  0  0  0  0  0  0  0  0
   -2.3521    1.7588   -3.3777 C   0  0  2  0  0  0  0  0  0  0  0  0
   -1.8077    2.6004   -2.3097 N   0  0  0  0  0  0  0  0  0  0  0  0
   -3.8738    1.6490   -3.2027 C   0  0  0  0  0  0  0  0  0  0  0  0
   -4.5929    2.3921   -4.0768 O   0  0  0  0  0  0  0  0  0  0  0  0
   -4.4180    1.0119   -2.3068 O   0  0  0  0  0  0  0  0  0  0  0  0
  1  2  1  0
  2  3  2  0
  2  4  1  0
  4  5  1  0
  5  6  1  0
  7  9  1  0
  7  8  1  1
  7  6  1  0
  9 10  1  0
  9 11  2  0
M  END
>  <DRUGBANK_ID>  (1) 
DB03858

>  <SECONDARY_ACCESSION_NUMBERS>  (1) 
EXPT01030

>  <COMMON_NAME>  (1) 
S-Acetonylcysteine

$$$$
