
     RDKit          3D

 18 20  0  0  0  0  0  0  0  0999 V2000
    1.2424   -1.4450   -0.0362 C   0  0  0  0  0  0  0  0  0  0  0  0
   -0.0612   -0.6528    0.0773 C   0  0  0  0  0  0  0  0  0  0  0  0
   -0.0851    0.7473   -0.0239 C   0  0  0  0  0  0  0  0  0  0  0  0
    2.4905   -0.5779   -0.2980 C   0  0  0  0  0  0  0  0  0  0  0  0
    1.1978    1.5364   -0.1390 C   0  0  0  0  0  0  0  0  0  0  0  0
    1.2029   -2.5575   -1.0794 C   0  0  0  0  0  0  0  0  0  0  0  0
    2.4162    0.7683    0.4211 C   0  0  0  0  0  0  0  0  0  0  0  0
    2.3779    0.5209    1.8764 N   0  0  0  0  0  0  0  0  0  0  0  0
   -1.2750   -1.3497    0.2547 C   0  0  0  0  0  0  0  0  0  0  0  0
   -1.3222    1.4068   -0.0532 C   0  0  0  0  0  0  0  0  0  0  0  0
    2.2173   -3.5175   -1.0903 C   0  0  0  0  0  0  0  0  0  0  0  0
    0.1599   -2.6632   -2.0156 C   0  0  0  0  0  0  0  0  0  0  0  0
    2.3568    1.7510    2.6488 C   0  0  0  0  0  0  0  0  0  0  0  0
   -2.4956   -0.6929    0.1726 C   0  0  0  0  0  0  0  0  0  0  0  0
   -2.5184    0.6878    0.0226 C   0  0  0  0  0  0  0  0  0  0  0  0
    2.1619   -4.5830   -1.9881 C   0  0  0  0  0  0  0  0  0  0  0  0
    0.0442   -3.7851   -2.8260 C   0  0  0  0  0  0  0  0  0  0  0  0
    1.0577   -4.7270   -2.8284 C   0  0  0  0  0  0  0  0  0  0  0  0
  1  2  1  0
  1  4  1  0
  1  6  1  0
  2  3  2  0
  2  9  1  0
  3 10  1  0
  3  5  1  0
  4  7  1  0
  5  7  1  0
  6 11  2  0
  6 12  1  0
  7  8  1  0
  8 13  1  0
  9 14  2  0
 10 15  2  0
 11 16  1  0
 12 17  2  0
 14 15  1  0
 16 18  2  0
 17 18  1  0
M  END
>  <DRUGBANK_ID>  (1) 
DB09193

>  <COMMON_NAME>  (1) 
CP-39,332

>  <CAS_NUMBER>  (1) 
61764-60-1

>  <UNII>  (1) 
R0YEK8P3H4

$$$$
