
     RDKit          3D

 30 30  0  0  0  0  0  0  0  0999 V2000
    0.9257   -0.0299    0.0564 O   0  0  0  0  0  0  0  0  0  0  0  0
    0.4318   -0.7799   -0.9281 C   0  0  0  0  0  0  0  0  0  0  0  0
    1.2213   -1.2751   -1.7350 O   0  0  0  0  0  0  0  0  0  0  0  0
   -1.1365   -0.8935   -0.9047 C   0  0  0  0  0  0  0  0  0  0  0  0
   -1.7905   -0.1794   -0.1510 O   0  0  0  0  0  0  0  0  0  0  0  0
   -1.7993   -1.7317   -1.7855 N   0  0  0  0  0  0  0  0  0  0  0  0
   -1.2082   -2.5751   -2.7131 C   0  0  0  0  0  0  0  0  0  0  0  0
   -0.1816   -3.4449   -2.3344 C   0  0  0  0  0  0  0  0  0  0  0  0
    0.5278   -4.1340   -3.2925 C   0  0  0  0  0  0  0  0  0  0  0  0
    0.1806   -3.9399   -4.6217 C   0  0  0  0  0  0  0  0  0  0  0  0
   -0.9474   -3.1919   -4.9783 C   0  0  0  0  0  0  0  0  0  0  0  0
   -1.6514   -2.5032   -4.0246 C   0  0  0  0  0  0  0  0  0  0  0  0
    0.9782   -4.5724   -5.6899 C   0  0  0  0  0  0  0  0  0  0  0  0
    0.0584   -5.5198   -6.3609 C   0  0  0  0  0  0  0  0  0  0  0  0
   -1.0429   -5.1582   -7.2561 N   0  0  0  0  0  0  0  0  0  0  0  0
   -1.2759   -5.3336   -8.6049 C   0  0  0  0  0  0  0  0  0  0  0  0
   -2.3510   -4.8904   -9.0236 O   0  0  0  0  0  0  0  0  0  0  0  0
   -0.3406   -6.1837   -9.5602 C   0  0  1  0  0  0  0  0  0  0  0  0
    1.0648   -5.8671   -9.3088 N   0  0  0  0  0  0  0  0  0  0  0  0
    2.0535   -6.5593   -8.6692 C   0  0  0  0  0  0  0  0  0  0  0  0
    3.1474   -5.9959   -8.5724 O   0  0  0  0  0  0  0  0  0  0  0  0
    1.8487   -7.9830   -8.0839 C   0  0  0  0  0  0  0  0  0  0  0  0
    0.8798   -8.2668   -6.8588 C   0  0  0  0  0  0  0  0  0  0  0  0
   -0.5762   -7.9144   -6.9641 N   0  0  0  0  0  0  0  0  0  0  0  0
   -1.7740   -8.5206   -7.0592 C   0  0  0  0  0  0  0  0  0  0  0  0
   -2.7449   -7.8087   -7.3378 O   0  0  0  0  0  0  0  0  0  0  0  0
   -1.8657   -9.9659   -6.8341 C   0  0  0  0  0  0  0  0  0  0  0  0
   -0.7821  -10.9388   -8.1106 Br  0  0  0  0  0  0  0  0  0  0  0  0
   -0.5861   -7.6908   -9.7503 C   0  0  0  0  0  0  0  0  0  0  0  0
   -1.9290   -8.0777   -9.9315 O   0  0  0  0  0  0  0  0  0  0  0  0
  2  1  1  0
  2  3  2  0
  4  2  1  0
  4  5  2  0
  4  6  1  0
  7  6  1  0
  7  8  2  0
  8  9  1  0
 10  9  2  0
 10 11  1  0
 11 12  2  0
 12  7  1  0
 13 10  1  0
 14 13  1  0
 14 15  1  0
 16 15  1  0
 16 17  2  0
 18 16  1  0
 18 19  1  0
 18 29  1  1
 20 19  1  0
 20 21  2  0
 22 20  1  0
 23 22  1  0
 23 24  1  0
 25 24  1  0
 25 26  2  0
 27 25  1  0
 28 27  1  0
 29 30  1  0
M  END
>  <DRUGBANK_ID>  (1) 
DB02784

>  <SECONDARY_ACCESSION_NUMBERS>  (1) 
EXPT01429

>  <COMMON_NAME>  (1) 
N-(Bromoacetyl)-beta-alanyl-N-(2-{4-[(carboxycarbonyl)amino]phenyl}ethyl)-L-serinamide

>  <SYNONYMS>  (1) 
2-[4-[2-[[(2S)-2-[3-[(2-bromoacetyl)amino]propanoylamino]-3-hydroxypropanoyl]amino]ethyl]anilino]-2-oxoacetic acid; N-(Bromoacetyl)-Î²-alanyl-N-(2-{4-[(carboxycarbonyl)amino]phenyl}ethyl)-L-serinamide

$$$$
