
     RDKit          3D

 14 15  0  0  0  0  0  0  0  0999 V2000
    0.0267    0.6905   -0.0007 C   0  0  0  0  0  0  0  0  0  0  0  0
    0.0310   -0.6997   -0.0004 C   0  0  0  0  0  0  0  0  0  0  0  0
   -1.2346    1.4363   -0.0010 C   0  0  0  0  0  0  0  0  0  0  0  0
    1.2307    1.4077   -0.0009 C   0  0  0  0  0  0  0  0  0  0  0  0
   -1.2455   -1.4452   -0.0017 C   0  0  0  0  0  0  0  0  0  0  0  0
    1.2575   -1.3808    0.0003 C   0  0  0  0  0  0  0  0  0  0  0  0
   -2.5136    0.6779   -0.0001 C   0  0  0  0  0  0  0  0  0  0  0  0
   -1.2258    2.6651   -0.0011 O   0  0  0  0  0  0  0  0  0  0  0  0
    2.4460    0.7304   -0.0008 C   0  0  0  0  0  0  0  0  0  0  0  0
   -2.5266   -0.6682    0.0013 C   0  0  0  0  0  0  0  0  0  0  0  0
   -1.2471   -2.6733   -0.0060 O   0  0  0  0  0  0  0  0  0  0  0  0
    2.4600   -0.6636    0.0001 C   0  0  0  0  0  0  0  0  0  0  0  0
   -3.7206    1.5705   -0.0010 C   0  0  0  0  0  0  0  0  0  0  0  0
   -3.7801   -1.4989    0.0058 C   0  0  0  0  0  0  0  0  0  0  0  0
  1  2  2  0
  1  3  1  0
  1  4  1  0
  2  5  1  0
  2  6  1  0
  3  7  1  0
  3  8  2  0
  4  9  2  0
  5 10  1  0
  5 11  2  0
  6 12  2  0
  7 13  1  0
  7 10  2  0
  9 12  1  0
 10 14  1  0
M  END
>  <DRUGBANK_ID>  (1) 
DB07669

>  <COMMON_NAME>  (1) 
2,3-Dimethyl-1,4-naphthoquinone

>  <CAS_NUMBER>  (1) 
2197-57-1

>  <UNII>  (1) 
SY9IO0B44O

>  <SYNONYMS>  (1) 
2,3-Dimethylnaphthoquinone

$$$$
