
     RDKit          3D

 34 38  0  0  1  0  0  0  0  0999 V2000
   -0.0724    0.1546    0.6054 C   0  0  0  0  0  0  0  0  0  0  0  0
   -1.2590    0.9545    0.1575 C   0  0  0  0  0  0  0  0  0  0  0  0
   -1.6628    1.3840   -1.1335 C   0  0  0  0  0  0  0  0  0  0  0  0
   -2.7793    2.1918   -1.3742 C   0  0  0  0  0  0  0  0  0  0  0  0
   -3.5486    2.5924   -0.3140 C   0  0  0  0  0  0  0  0  0  0  0  0
   -3.1477    2.1770    0.9507 C   0  0  0  0  0  0  0  0  0  0  0  0
   -2.0392    1.3995    1.1692 C   0  0  0  0  0  0  0  0  0  0  0  0
   -1.8133    1.1238    2.5860 C   0  0  0  0  0  0  0  0  0  0  0  0
   -2.9434    1.7515    3.1863 O   0  0  0  0  0  0  0  0  0  0  0  0
   -3.7258    2.3658    2.2528 C   0  0  0  0  0  0  0  0  0  0  0  0
   -4.7956    2.9561    2.4843 O   0  0  0  0  0  0  0  0  0  0  0  0
   -0.7444    1.4424   -2.2667 C   0  0  2  0  0  0  0  0  0  0  0  0
   -0.0866    0.1308   -2.5495 C   0  0  0  0  0  0  0  0  0  0  0  0
    1.2399    0.6039   -2.4031 N   0  0  0  0  0  0  0  0  0  0  0  0
    1.9214    1.6021   -3.1507 C   0  0  0  0  0  0  0  0  0  0  0  0
    2.7125    0.9328   -4.2361 C   0  0  0  0  0  0  0  0  0  0  0  0
    3.8689    0.0939   -3.8834 N   0  0  0  0  0  0  0  0  0  0  0  0
    3.2775   -0.9581   -3.1802 C   0  0  0  0  0  0  0  0  0  0  0  0
    2.1373   -0.2817   -1.8972 C   0  0  0  0  0  0  0  0  0  0  0  0
    4.8982    0.4036   -2.9094 C   0  0  0  0  0  0  0  0  0  0  0  0
    4.5635    0.4060   -1.3734 C   0  0  1  0  0  0  0  0  0  0  0  0
    3.9902   -1.0933   -0.5682 C   0  0  0  0  0  0  0  0  0  0  0  0
    4.0023   -0.8641    0.8453 C   0  0  0  0  0  0  0  0  0  0  0  0
    3.2278   -1.6934    1.7043 C   0  0  0  0  0  0  0  0  0  0  0  0
    2.3707   -2.6973    1.1915 C   0  0  0  0  0  0  0  0  0  0  0  0
    2.2371   -2.9520   -0.1387 C   0  0  0  0  0  0  0  0  0  0  0  0
    2.9759   -2.2941   -1.0855 C   0  0  0  0  0  0  0  0  0  0  0  0
    1.8581   -2.5858   -2.5090 C   0  0  0  0  0  0  0  0  0  0  0  0
    0.9699   -3.6592   -0.4244 C   0  0  0  0  0  0  0  0  0  0  0  0
    0.6518   -4.2286    0.8070 O   0  0  0  0  0  0  0  0  0  0  0  0
    1.4155   -3.6417    1.7687 C   0  0  0  0  0  0  0  0  0  0  0  0
    1.3344   -3.9674    2.9705 O   0  0  0  0  0  0  0  0  0  0  0  0
    5.6366    1.0754   -0.7080 O   0  0  0  0  0  0  0  0  0  0  0  0
    0.0834    2.4924   -1.6585 O   0  0  0  0  0  0  0  0  0  0  0  0
  1  2  1  0
  2  3  2  0
  2  7  1  0
  3  4  1  0
  4  5  2  0
  5  6  1  0
  6  7  2  0
  6 10  1  0
  7  8  1  0
  8  9  1  0
  9 10  1  0
 10 11  2  0
 12 34  1  1
 12 13  1  0
 12  3  1  0
 13 14  1  0
 14 15  1  0
 14 19  1  0
 15 16  1  0
 16 17  1  0
 17 18  1  0
 17 20  1  0
 18 19  1  0
 20 21  1  0
 21 22  1  0
 21 33  1  1
 22 23  2  0
 22 27  1  0
 23 24  1  0
 24 25  2  0
 25 26  1  0
 25 31  1  0
 26 27  2  0
 26 29  1  0
 27 28  1  0
 29 30  1  0
 30 31  1  0
 31 32  2  0
M  END
>  <DRUGBANK_ID>  (1) 
DB11968

>  <COMMON_NAME>  (1) 
MK-7145

>  <CAS_NUMBER>  (1) 
1255204-84-2

>  <UNII>  (1) 
M371870BYL

$$$$
