CZA
     RDKit          3D

 25 29  0  0  0  0  0  0  0  0999 V2000
    2.8394    0.4317    1.3570 O   0  0  0  0  0  0  0  0  0  0  0  0
    3.1299    0.3169    0.1570 C   0  0  0  0  0  0  0  0  0  0  0  0
    2.7386    1.4248   -0.8023 C   0  0  0  0  0  0  0  0  0  0  0  0
    1.2061    1.0763   -0.8182 C   0  0  0  0  0  0  0  0  0  0  0  0
    0.3601    1.9377   -0.8394 O   0  0  0  0  0  0  0  0  0  0  0  0
    0.8548   -0.4220   -0.6306 C   0  0  0  0  0  0  0  0  0  0  0  0
    3.6591   -0.9591   -0.5874 C   0  0  1  0  0  0  0  0  0  0  0  0
    3.1665   -1.9852   -1.6446 C   0  0  2  0  0  0  0  0  0  0  0  0
    2.4065   -3.2670   -1.3740 C   0  0  0  0  0  0  0  0  0  0  0  0
    1.2037   -3.6996   -0.8386 C   0  0  0  0  0  0  0  0  0  0  0  0
    1.2350   -5.0941   -0.8305 N   0  0  0  0  0  0  0  0  0  0  0  0
    2.3086   -5.5356   -1.5669 C   0  0  0  0  0  0  0  0  0  0  0  0
    2.8873   -4.3984   -2.0690 C   0  0  0  0  0  0  0  0  0  0  0  0
    2.8624   -6.7799   -1.8579 C   0  0  0  0  0  0  0  0  0  0  0  0
    4.0202   -6.7873   -2.6721 C   0  0  0  0  0  0  0  0  0  0  0  0
    4.5306   -5.6343   -3.2687 C   0  0  0  0  0  0  0  0  0  0  0  0
    3.9103   -4.4310   -3.0233 C   0  0  0  0  0  0  0  0  0  0  0  0
    4.3336   -3.1148   -3.5866 C   0  0  0  0  0  0  0  0  0  0  0  0
    4.6157   -2.2684   -2.3313 C   0  0  1  0  0  0  0  0  0  0  0  0
    5.1736   -0.8240   -2.4746 C   0  0  0  0  0  0  0  0  0  0  0  0
    5.0325   -0.4157   -3.9454 C   0  0  0  0  0  0  0  0  0  0  0  0
    6.4972   -0.5196   -1.7239 C   0  0  0  0  0  0  0  0  0  0  0  0
    4.2649   -0.1184   -1.6024 N   0  0  0  0  0  0  0  0  0  0  0  0
    3.7077    1.1269   -1.7198 C   0  0  0  0  0  0  0  0  0  0  0  0
    4.5893    1.9922   -2.3305 O   0  0  0  0  0  0  0  0  0  0  0  0
  1  2  2  0
  2  3  1  0
  7  2  1  6
  3 24  2  0
  3  4  1  0
  4  6  1  0
  4  5  2  0
  7 23  1  0
  7  8  1  0
  8 19  1  0
  8  9  1  1
  9 13  1  0
  9 10  2  0
 10 11  1  0
 11 12  1  0
 12 13  2  0
 12 14  1  0
 13 17  1  0
 14 15  2  0
 15 16  1  0
 16 17  2  0
 17 18  1  0
 19 18  1  6
 19 20  1  0
 20 21  1  0
 20 22  1  0
 20 23  1  0
 23 24  1  0
 24 25  1  0
M  END
>  <DRUGBANK_ID>  (1) 
DB07604

>  <COMMON_NAME>  (1) 
(6AR,11AS,11BR)-10-ACETYL-9-HYDROXY-7,7-DIMETHYL-2,6,6A,7,11A,11B-HEXAHYDRO-11H-PYRROLO[1',2':2,3]ISOINDOLO[4,5,6-CD]INDOL-11-ONE

$$$$
