505
     RDKit          3D

 23 24  0  0  1  0  0  0  0  0999 V2000
    1.1261   -0.1802    0.2573 O   0  0  0  0  0  0  0  0  0  0  0  0
   -0.6528    3.0545   -1.0270 N   0  0  0  0  0  0  0  0  0  0  0  0
    1.1139    0.4374    2.5318 C   0  0  0  0  0  0  0  0  0  0  0  0
    0.4522    0.7068    1.1708 C   0  0  0  0  0  0  0  0  0  0  0  0
    1.0590    2.2385    0.7082 C   0  0  0  0  0  0  0  0  0  0  0  0
    0.8303    2.8749   -0.7254 C   0  0  0  0  0  0  0  0  0  0  0  0
    0.7930   -1.0298    2.8436 C   0  0  0  0  0  0  0  0  0  0  0  0
    0.7610    1.5160    3.5759 C   0  0  0  0  0  0  0  0  0  0  0  0
    1.0793   -1.3975    4.2597 C   0  0  0  0  0  0  0  0  0  0  0  0
    0.8746    1.0148    4.9992 C   0  0  0  0  0  0  0  0  0  0  0  0
    0.3895   -0.4191    5.1968 C   0  0  0  0  0  0  0  0  0  0  0  0
   -1.3284    3.9333    0.1626 C   0  0  0  0  0  0  0  0  0  0  0  0
   -1.2168    3.4973   -2.3637 C   0  0  0  0  0  0  0  0  0  0  0  0
   -1.1683    1.6903   -0.9460 C   0  0  0  0  0  0  0  0  0  0  0  0
   -1.2693    0.2524    1.3483 C   0  0  0  0  0  0  0  0  0  0  0  0
   -0.8644    5.3629    0.0438 C   0  0  0  0  0  0  0  0  0  0  0  0
   -0.8529    2.5412   -3.4817 C   0  0  0  0  0  0  0  0  0  0  0  0
   -0.4316    0.4707   -1.7205 C   0  0  0  0  0  0  0  0  0  0  0  0
   -2.1598   -0.2377    0.3082 C   0  0  0  0  0  0  0  0  0  0  0  0
   -2.0015    0.5805    2.4706 C   0  0  0  0  0  0  0  0  0  0  0  0
   -3.5259    0.1403    0.2290 C   0  0  0  0  0  0  0  0  0  0  0  0
   -3.4182    0.6478    2.4947 C   0  0  0  0  0  0  0  0  0  0  0  0
   -4.1572    0.5752    1.3134 C   0  0  0  0  0  0  0  0  0  0  0  0
  1  4  1  0
  2  6  1  0
  2 12  1  0
  2 13  1  0
  2 14  1  0
  3  4  1  0
  3  7  1  0
  3  8  1  0
  4  5  1  0
  4 15  1  0
  5  6  1  0
  7  9  1  0
  8 10  1  0
  9 11  1  0
 10 11  1  0
 12 16  1  0
 13 17  1  0
 14 18  1  0
 15 19  2  0
 15 20  1  0
 19 21  1  0
 20 22  2  0
 21 23  2  0
 22 23  1  0
M  CHG  1   2   1
M  END
>  <DRUGBANK_ID>  (1) 
DB00505

>  <SECONDARY_ACCESSION_NUMBERS>  (1) 
APRD00286

>  <COMMON_NAME>  (1) 
Tridihexethyl

>  <CAS_NUMBER>  (1) 
60-49-1

>  <UNII>  (1) 
7HE50A367X

$$$$
