
     RDKit          3D

 16 17  0  0  0  0  0  0  0  0999 V2000
    1.0158   -0.0767   -0.0089 C   0  0  0  0  0  0  0  0  0  0  0  0
    1.8613   -2.6541    0.9982 C   0  0  0  0  0  0  0  0  0  0  0  0
   -1.4509   -2.3970   -3.8118 C   0  0  0  0  0  0  0  0  0  0  0  0
   -0.9515   -6.2804   -0.3181 C   0  0  0  0  0  0  0  0  0  0  0  0
    1.2478   -7.4076   -0.5143 C   0  0  0  0  0  0  0  0  0  0  0  0
   -0.4212   -4.9480   -2.9109 C   0  0  0  0  0  0  0  0  0  0  0  0
    0.4421   -6.1070   -2.4658 C   0  0  0  0  0  0  0  0  0  0  0  0
    0.5800   -1.3250   -0.7395 C   0  0  0  0  0  0  0  0  0  0  0  0
    1.0247   -2.5914   -0.2591 C   0  0  0  0  0  0  0  0  0  0  0  0
   -0.5735   -2.4533   -2.5858 C   0  0  0  0  0  0  0  0  0  0  0  0
   -0.0831   -3.6981   -2.1370 C   0  0  0  0  0  0  0  0  0  0  0  0
   -0.2370   -1.2832   -1.8839 C   0  0  0  0  0  0  0  0  0  0  0  0
    0.6735   -3.7719   -0.9519 C   0  0  0  0  0  0  0  0  0  0  0  0
    0.4525   -6.1613   -0.9384 C   0  0  0  0  0  0  0  0  0  0  0  0
   -0.7456   -0.1201   -2.3936 O   0  0  0  0  0  0  0  0  0  0  0  0
    1.1037   -4.9782   -0.4258 O   0  0  0  0  0  0  0  0  0  0  0  0
  7  6  1  0
  8  1  1  0
  9  2  1  0
  9  8  1  0
 10  3  1  0
 11  6  1  0
 11 10  2  0
 12  8  2  0
 12 10  1  0
 13  9  2  0
 13 11  1  0
 14  4  1  0
 14  5  1  0
 14  7  1  0
 15 12  1  0
 16 13  1  0
 16 14  1  0
M  END
>  <DRUGBANK_ID>  (1) 
DB13111

>  <COMMON_NAME>  (1) 
Chromanol

>  <CAS_NUMBER>  (1) 
950-99-2

>  <UNII>  (1) 
7G73627R36

$$$$
