
     RDKit          3D

 23 24  0  0  0  0  0  0  0  0999 V2000
   -1.2326   -1.4569    0.3353 O   0  0  0  0  0  0  0  0  0  0  0  0
    0.1541   -1.7752    0.0689 C   0  0  1  0  0  0  0  0  0  0  0  0
    1.0350   -0.5518    0.3613 C   0  0  2  0  0  0  0  0  0  0  0  0
    0.5808    0.6143   -0.5237 C   0  0  1  0  0  0  0  0  0  0  0  0
   -0.9147    0.8479   -0.3627 C   0  0  1  0  0  0  0  0  0  0  0  0
   -1.6953   -0.4737   -0.6061 C   0  0  2  0  0  0  0  0  0  0  0  0
   -3.1139   -0.3040   -0.4793 O   0  0  0  0  0  0  0  0  0  0  0  0
   -1.1744    1.3754    0.9569 O   0  0  0  0  0  0  0  0  0  0  0  0
    1.2848    1.8160   -0.1947 O   0  0  0  0  0  0  0  0  0  0  0  0
    2.4132   -0.8439    0.1681 O   0  0  0  0  0  0  0  0  0  0  0  0
    0.5551   -2.9656    0.9350 C   0  0  0  0  0  0  0  0  0  0  0  0
   -0.2349   -4.1008    0.5835 O   0  0  0  0  0  0  0  0  0  0  0  0
   -5.5852    2.0935   -1.8361 O   0  0  0  0  0  0  0  0  0  0  0  0
   -5.1321    0.9755   -1.0421 C   0  0  1  0  0  0  0  0  0  0  0  0
   -3.6366    0.7431   -1.3104 C   0  0  2  0  0  0  0  0  0  0  0  0
   -3.4167    0.4932   -2.8247 C   0  0  1  0  0  0  0  0  0  0  0  0
   -4.0282    1.6204   -3.6509 C   0  0  1  0  0  0  0  0  0  0  0  0
   -5.4880    1.8438   -3.2362 C   0  0  2  0  0  0  0  0  0  0  0  0
   -6.0204    2.9675   -3.9112 O   0  0  0  0  0  0  0  0  0  0  0  0
   -3.2290    2.8116   -3.4381 O   0  0  0  0  0  0  0  0  0  0  0  0
   -2.0181    0.4377   -3.1599 O   0  0  0  0  0  0  0  0  0  0  0  0
   -5.3722    1.3347    0.4315 C   0  0  0  0  0  0  0  0  0  0  0  0
   -6.7604    1.5768    0.6575 O   0  0  0  0  0  0  0  0  0  0  0  0
  1  2  1  0
  1  6  1  0
  2  3  1  0
  2 11  1  1
  3  4  1  0
  3 10  1  6
  4  5  1  0
  4  9  1  1
  5  6  1  0
  5  8  1  1
  6  7  1  1
 11 12  1  0
 13 14  1  0
 13 18  1  0
 14 15  1  0
 14 22  1  1
 15  7  1  1
 15 16  1  0
 16 17  1  0
 16 21  1  1
 17 18  1  0
 17 20  1  1
 18 19  1  6
 22 23  1  0
M  END
>  <DRUGBANK_ID>  (1) 
DB01687

>  <SECONDARY_ACCESSION_NUMBERS>  (1) 
EXPT02103

>  <COMMON_NAME>  (1) 
beta-Mannobiose

>  <SYNONYMS>  (1) 
4-O-β-D-mannopyranosyl-β-D-mannopyranose; β-mannobiose

$$$$
