
     RDKit          3D

 27 29  0  0  0  0  0  0  0  0999 V2000
    0.0532    1.3903    0.1180 C   0  0  0  0  0  0  0  0  0  0  0  0
   -0.6687    0.1889    0.1548 C   0  0  0  0  0  0  0  0  0  0  0  0
   -0.0734   -0.9856    0.5352 C   0  0  0  0  0  0  0  0  0  0  0  0
    1.2015   -0.9097    1.0463 C   0  0  0  0  0  0  0  0  0  0  0  0
    1.9893    0.2539    0.8575 C   0  0  0  0  0  0  0  0  0  0  0  0
    1.4060    1.4198    0.4017 C   0  0  0  0  0  0  0  0  0  0  0  0
    3.9173   -1.9866    2.0651 C   0  0  0  0  0  0  0  0  0  0  0  0
    4.1909   -0.6322    1.7427 C   0  0  0  0  0  0  0  0  0  0  0  0
    3.4632    0.1535    0.6110 C   0  0  1  0  0  0  0  0  0  0  0  0
    4.5508   -2.7324    3.0155 C   0  0  0  0  0  0  0  0  0  0  0  0
    5.2354   -2.0115    3.9447 C   0  0  0  0  0  0  0  0  0  0  0  0
    5.5545   -0.6653    3.7033 C   0  0  0  0  0  0  0  0  0  0  0  0
    5.1145    0.0038    2.5565 C   0  0  0  0  0  0  0  0  0  0  0  0
    3.6082   -0.4181   -0.7559 N   0  0  0  0  0  0  0  0  0  0  0  0
    3.3081    0.1368   -2.2845 C   0  0  0  0  0  0  0  0  0  0  0  0
    1.9564   -0.1308   -2.7949 C   0  0  0  0  0  0  0  0  0  0  0  0
    1.8234   -1.5879   -2.7753 N   0  0  0  0  0  0  0  0  0  0  0  0
    2.1735   -2.1769   -1.4678 C   0  0  0  0  0  0  0  0  0  0  0  0
    3.3972   -1.8385   -0.6034 C   0  0  0  0  0  0  0  0  0  0  0  0
   -2.3305    0.1368   -0.2259 Cl  0  0  0  0  0  0  0  0  0  0  0  0
    2.3645   -2.2972   -3.9441 C   0  0  0  0  0  0  0  0  0  0  0  0
    3.8961   -2.4168   -4.3999 C   0  0  0  0  0  0  0  0  0  0  0  0
    4.8787   -3.0867   -3.5926 O   0  0  0  0  0  0  0  0  0  0  0  0
    5.1125   -2.3314   -2.4287 C   0  0  0  0  0  0  0  0  0  0  0  0
    5.9374   -0.8226   -1.8691 C   0  0  0  0  0  0  0  0  0  0  0  0
    5.5372    0.4528   -1.5803 O   0  0  0  0  0  0  0  0  0  0  0  0
    7.2236   -0.8980   -1.6345 O   0  0  0  0  0  0  0  0  0  0  0  0
  1  2  2  0
  1  6  1  0
  2  3  1  0
  2 20  1  0
  3  4  2  0
  4  5  1  0
  5  6  2  0
  9  5  1  1
  7  8  2  0
  7 10  1  0
  8 13  1  0
  9  8  1  0
  9 14  1  0
 10 11  2  0
 11 12  1  0
 12 13  2  0
 14 15  1  0
 14 19  1  0
 15 16  1  0
 16 17  1  0
 17 18  1  0
 17 21  1  0
 18 19  1  0
 21 22  1  0
 22 23  1  0
 23 24  1  0
 24 25  1  0
 25 26  1  0
 25 27  2  0
M  END
>  <DRUGBANK_ID>  (1) 
DB06282

>  <COMMON_NAME>  (1) 
Levocetirizine

>  <CAS_NUMBER>  (1) 
130018-77-8

>  <UNII>  (1) 
6U5EA9RT2O

>  <SYNONYMS>  (1) 
2-(2-{4-[(R)-(4-chlorophenyl)(phenyl)methyl]piperazin-1-yl}ethoxy)acetic acid; Levocetirizina; Levocetirizine

$$$$
