
     RDKit          3D

 36 38  0  0  1  0  0  0  0  0999 V2000
    1.4352   -0.0963   -0.0437 C   0  0  0  0  0  0  0  0  0  0  0  0
    0.8040    0.2485    1.2756 C   0  0  0  0  0  0  0  0  0  0  0  0
    1.1796    1.6852    1.6865 C   0  0  0  0  0  0  0  0  0  0  0  0
   -0.6988    0.1474    1.2340 C   0  0  0  0  0  0  0  0  0  0  0  0
   -1.5018   -1.1177    0.9373 C   0  0  1  0  0  0  0  0  0  0  0  0
   -2.8199   -0.8520    1.5760 N   0  0  0  0  0  0  0  0  0  0  0  0
   -2.8132   -0.5923    2.9481 C   0  0  0  0  0  0  0  0  0  0  0  0
   -1.9880   -1.1049    3.7035 O   0  0  0  0  0  0  0  0  0  0  0  0
   -3.7411    0.5620    3.3859 C   0  0  1  0  0  0  0  0  0  0  0  0
   -3.8837    0.6101    4.9120 C   0  0  0  0  0  0  0  0  0  0  0  0
   -3.3913    1.9315    2.9213 N   0  0  0  0  0  0  0  0  0  0  0  0
   -2.0384    2.3666    2.6765 C   0  0  0  0  0  0  0  0  0  0  0  0
   -4.4150    2.8608    2.8836 C   0  0  0  0  0  0  0  0  0  0  0  0
   -5.5890    2.4994    2.9547 O   0  0  0  0  0  0  0  0  0  0  0  0
   -3.9722    4.3363    2.7108 C   0  0  1  0  0  0  0  0  0  0  0  0
   -4.0680    4.6083    1.2869 N   0  0  0  0  0  0  0  0  0  0  0  0
   -2.8661    5.1580    0.6540 C   0  0  0  0  0  0  0  0  0  0  0  0
   -3.1577    5.6658   -0.7840 C   0  0  2  0  0  0  0  0  0  0  0  0
   -4.4990    6.4008   -0.8159 C   0  0  0  0  0  0  0  0  0  0  0  0
   -3.1917    4.5401   -1.6808 O   0  0  0  0  0  0  0  0  0  0  0  0
   -2.5250    4.7419   -2.8639 C   0  0  0  0  0  0  0  0  0  0  0  0
   -1.5599    3.8068   -3.2643 C   0  0  0  0  0  0  0  0  0  0  0  0
   -1.1623    2.6614   -2.3809 C   0  0  0  0  0  0  0  0  0  0  0  0
   -1.2492    1.3072   -3.1096 C   0  0  0  0  0  0  0  0  0  0  0  0
   -2.0973    0.2487   -2.3821 C   0  0  2  0  0  0  0  0  0  0  0  0
   -3.3517    0.8268   -1.7130 C   0  0  0  0  0  0  0  0  0  0  0  0
   -1.2599   -0.3617   -1.3852 N   0  0  0  0  0  0  0  0  0  0  0  0
   -1.7133   -1.3876   -0.5744 C   0  0  0  0  0  0  0  0  0  0  0  0
   -2.3753   -2.3123   -1.0034 O   0  0  0  0  0  0  0  0  0  0  0  0
   -0.9120    3.9604   -4.4999 C   0  0  0  0  0  0  0  0  0  0  0  0
   -1.2253    5.0270   -5.3303 C   0  0  0  0  0  0  0  0  0  0  0  0
   -2.1827    5.9516   -4.9296 C   0  0  0  0  0  0  0  0  0  0  0  0
   -2.8380    5.8036   -3.7081 C   0  0  0  0  0  0  0  0  0  0  0  0
   -4.7347    5.3330    3.5325 C   0  0  0  0  0  0  0  0  0  0  0  0
   -4.6353    5.2312    5.0404 C   0  0  0  0  0  0  0  0  0  0  0  0
   -5.9516    4.9978    4.3557 C   0  0  0  0  0  0  0  0  0  0  0  0
  1  2  1  0
  2  3  1  0
  2  4  1  0
  5  4  1  6
  5  6  1  0
  5 28  1  0
  6  7  1  0
  7  8  2  0
  9  7  1  0
  9 11  1  0
  9 10  1  1
 11 12  1  0
 11 13  1  0
 13 14  2  0
 15 13  1  0
 15 16  1  0
 15 34  1  1
 16 17  1  0
 18 17  1  0
 18 19  1  1
 18 20  1  0
 20 21  1  0
 21 22  2  0
 21 33  1  0
 22 23  1  0
 22 30  1  0
 23 24  1  0
 25 24  1  0
 25 26  1  1
 25 27  1  0
 27 28  1  0
 28 29  2  0
 30 31  2  0
 31 32  1  0
 32 33  2  0
 34 35  1  0
 34 36  1  0
 35 36  1  0
M  END
>  <DRUGBANK_ID>  (1) 
DB16129

>  <COMMON_NAME>  (1) 
TZP-102

>  <CAS_NUMBER>  (1) 
1008993-65-4

>  <UNII>  (1) 
9NFY3MS3SL

$$$$
