
     RDKit          3D

  5  4  0  0  0  0  0  0  0  0999 V2000
    1.0454    0.0674    0.0717 O   0  0  0  0  0  0  0  0  0  0  0  0
    1.0815   -2.5694   -2.3209 O   0  0  0  0  0  0  0  0  0  0  0  0
    0.6692   -0.9314   -0.8346 N   0  0  0  0  0  0  0  0  0  0  0  0
    1.5169   -1.7172   -1.5477 C   0  0  0  0  0  0  0  0  0  0  0  0
    2.9948   -1.5101   -1.3598 C   0  0  0  0  0  0  0  0  0  0  0  0
  1  3  1  0
  2  4  2  0
  3  4  1  0
  4  5  1  0
M  END
>  <DRUGBANK_ID>  (1) 
DB00551

>  <SECONDARY_ACCESSION_NUMBERS>  (1) 
APRD00774; EXPT01688

>  <COMMON_NAME>  (1) 
Acetohydroxamic acid

>  <CAS_NUMBER>  (1) 
546-88-3

>  <UNII>  (1) 
4RZ82L2GY5

>  <SYNONYMS>  (1) 
Acethydroxamsaeure; Acetic acid, oxime; Acetohydroxamate; Acetohydroxamic acid; Acetohydroximic acid; Acetyl hydroxyamino; Acetylhydroxamic acid; Acide acetohydroxamique; Acido acetohidroxamico; Acidum acetohydroxamicum; AHA; Cetohyroxamic acid; Methylhydroxamic acid; N-Acetyl hydroxyacetamide; N-Acetylhydroxylamine; N-Hydroxyacetamide

$$$$
