
     RDKit          3D

 31 33  0  0  0  0  0  0  0  0999 V2000
    0.8592    0.9994    1.4449 C   0  0  1  0  0  0  0  0  0  0  0  0
   -1.0005    0.8388    1.9060 C   0  0  0  0  0  0  0  0  0  0  0  0
   -2.3095   -0.3590    1.0513 C   0  0  0  0  0  0  0  0  0  0  0  0
   -1.3422   -2.0146    0.8050 C   0  0  2  0  0  0  0  0  0  0  0  0
    0.4804   -2.0499    0.4817 C   0  0  2  0  0  0  0  0  0  0  0  0
    1.3360   -0.7653    1.4046 O   0  0  0  0  0  0  0  0  0  0  0  0
    0.5164   -2.1139   -1.1302 O   0  0  0  0  0  0  0  0  0  0  0  0
   -0.2945   -0.8975   -1.9738 C   0  0  1  0  0  0  0  0  0  0  0  0
   -1.6564   -0.8854   -1.6248 C   0  0  1  0  0  0  0  0  0  0  0  0
   -0.9102   -0.0708   -0.3850 C   0  0  2  0  0  0  0  0  0  0  0  0
   -1.7643    1.6401   -0.0484 C   0  0  1  0  0  0  0  0  0  0  0  0
   -0.5314    2.0900   -0.2214 C   0  0  0  0  0  0  0  0  0  0  0  0
   -0.2361    1.1883   -1.6977 C   0  0  2  0  0  0  0  0  0  0  0  0
    0.6850   -0.2493   -0.4595 O   0  0  0  0  0  0  0  0  0  0  0  0
    1.8439    2.6350    1.1088 C   0  0  0  0  0  0  0  0  0  0  0  0
   -2.0261   -3.0469    0.0211 N   0  0  0  0  0  0  0  0  0  0  0  0
   -1.3092    2.0820   -2.4477 N   0  0  0  0  0  0  0  0  0  0  0  0
   -2.7930    2.4329   -0.7184 N   0  0  0  0  0  0  0  0  0  0  0  0
   -2.5180   -0.1495   -2.4853 O   0  0  0  0  0  0  0  0  0  0  0  0
    3.3397    3.0055    0.3345 N   0  0  0  0  0  0  0  0  0  0  0  0
    1.8921   -0.0732   -1.2385 C   0  0  1  0  0  0  0  0  0  0  0  0
    1.8099   -0.2107   -2.7522 O   0  0  0  0  0  0  0  0  0  0  0  0
    0.6438    0.4991   -3.6541 C   0  0  1  0  0  0  0  0  0  0  0  0
    0.7618    2.0901   -3.6467 C   0  0  2  0  0  0  0  0  0  0  0  0
    1.3908    2.8975   -1.9356 C   0  0  2  0  0  0  0  0  0  0  0  0
    2.3210    1.3762   -0.8678 C   0  0  1  0  0  0  0  0  0  0  0  0
    0.1187   -0.4629   -4.7140 C   0  0  0  0  0  0  0  0  0  0  0  0
    1.2787   -1.2190   -4.9317 O   0  0  0  0  0  0  0  0  0  0  0  0
   -0.6614    2.3470   -4.4233 O   0  0  0  0  0  0  0  0  0  0  0  0
    0.4402    4.3415   -1.3485 N   0  0  0  0  0  0  0  0  0  0  0  0
    2.9816    0.9496    0.7700 O   0  0  0  0  0  0  0  0  0  0  0  0
  1 15  1  1
  1  2  1  0
  2  3  1  0
  3  4  1  0
  4 16  1  6
  4  5  1  0
  5  7  1  6
  5  6  1  0
  6  1  1  0
  8  7  1  1
  8  9  1  0
  9 19  1  6
  9 10  1  0
 10 14  1  6
 10 11  1  0
 11 12  1  0
 11 18  1  6
 12 13  1  0
 13  8  1  0
 13 17  1  6
 15 20  1  0
 21 14  1  1
 21 22  1  0
 22 23  1  0
 23 24  1  0
 23 27  1  6
 24 29  1  1
 24 25  1  0
 25 26  1  0
 25 30  1  6
 26 21  1  0
 26 31  1  1
 27 28  1  0
M  END
>  <DRUGBANK_ID>  (1) 
DB13270

>  <COMMON_NAME>  (1) 
Dibekacin

>  <CAS_NUMBER>  (1) 
34493-98-6

>  <UNII>  (1) 
45ZFO9E525

>  <SYNONYMS>  (1) 
Dibekacin; Dibekacina; Dibekacine; Dibekacinum

$$$$
