AIA
     RDKit          3D

 18 19  0  0  0  0  0  0  0  0999 V2000
   -5.9519    2.2555   -1.0792 C   0  0  2  0  0  0  0  0  0  0  0  0
   -4.4426    0.5158   -0.9746 C   0  0  1  0  0  0  0  0  0  0  0  0
   -4.0307    2.6757    0.4476 C   0  0  0  0  0  0  0  0  0  0  0  0
   -6.8261    1.0112   -1.0460 C   0  0  0  0  0  0  0  0  0  0  0  0
   -5.6479    2.6128   -2.5250 C   0  0  0  0  0  0  0  0  0  0  0  0
   -5.8380   -0.1300   -0.8658 C   0  0  0  0  0  0  0  0  0  0  0  0
   -3.6966    0.3164   -2.3078 C   0  0  0  0  0  0  0  0  0  0  0  0
   -2.7779    2.2072    1.3024 C   0  0  2  0  0  0  0  0  0  0  0  0
   -4.6746    1.8745   -0.4905 N   0  0  0  0  0  0  0  0  0  0  0  0
   -4.4474    3.8453    0.6518 O   0  0  0  0  0  0  0  0  0  0  0  0
   -5.3871    2.9192   -3.7652 C   0  0  0  0  0  0  0  0  0  0  0  0
   -2.2701    0.0178   -2.0829 N   0  0  0  0  0  0  0  0  0  0  0  0
   -2.4507    0.7267    1.2446 C   0  0  0  0  0  0  0  0  0  0  0  0
   -2.9077    2.5678    2.7367 N   0  0  0  0  0  0  0  0  0  0  0  0
   -3.5695   -0.2298    1.7343 C   0  0  0  0  0  0  0  0  0  0  0  0
   -1.2526    0.2028    2.0237 C   0  0  0  0  0  0  0  0  0  0  0  0
   -2.9096   -1.5701    1.9292 C   0  0  0  0  0  0  0  0  0  0  0  0
   -1.4168   -1.3062    1.8513 C   0  0  0  0  0  0  0  0  0  0  0  0
  1  4  1  0
  1  5  1  6
  1  9  1  0
  2  6  1  0
  2  9  1  0
  2  7  1  6
  3  9  1  0
  3 10  2  0
  4  6  1  0
  5 11  3  0
  7 12  1  0
  8 14  1  1
  8 13  1  0
  8  3  1  0
 13 15  1  0
 13 16  1  0
 15 17  1  0
 16 18  1  0
 17 18  1  0
M  END
>  <DRUGBANK_ID>  (1) 
DB07356

>  <COMMON_NAME>  (1) 
(1S)-2-[(2S,5R)-2-(AMINOMETHYL)-5-ETHYNYLPYRROLIDIN-1-YL]-1-CYCLOPENTYL-2-OXOETHANAMINE

$$$$
