
     RDKit          3D

  8  7  0  0  0  0  0  0  0  0999 V2000
    0.9992    0.0588    0.0912 C   0  0  0  0  0  0  0  0  0  0  0  0
    0.4690   -0.9992    1.0440 C   0  0  0  0  0  0  0  0  0  0  0  0
    1.0481   -0.9028    2.4443 C   0  0  0  0  0  0  0  0  0  0  0  0
   -0.9406   -1.0047    1.1159 O   0  0  0  0  0  0  0  0  0  0  0  0
   -1.8161    0.2930    1.4521 P   0  0  0  0  0  0  0  0  0  0  0  0
   -2.2972    0.7173   -0.0086 O   0  0  0  0  0  0  0  0  0  0  0  0
   -3.0825   -0.4545    2.0711 O   0  0  0  0  0  0  0  0  0  0  0  0
   -1.2074    1.3635    2.2735 O   0  0  0  0  0  0  0  0  0  0  0  0
  1  2  1  0
  2  3  1  0
  2  4  1  0
  4  5  1  0
  5  6  1  0
  5  7  1  0
  5  8  2  0
M  END
>  <DRUGBANK_ID>  (1) 
DB03976

>  <SECONDARY_ACCESSION_NUMBERS>  (1) 
EXPT01937; EXPT02177; DB04251

>  <COMMON_NAME>  (1) 
Phosphorylisopropane

>  <UNII>  (1) 
7H0HVR60ZW

$$$$
