
     RDKit          3D

 37 38  0  0  1  0  0  0  0  0999 V2000
    1.0035   -0.0200    0.1559 C   0  0  0  0  0  0  0  0  0  0  0  0
    0.5488    0.9347   -0.9361 C   0  0  0  0  0  0  0  0  0  0  0  0
    1.0452    0.4572   -2.3018 C   0  0  0  0  0  0  0  0  0  0  0  0
    0.4966   -0.9337   -2.6396 C   0  0  0  0  0  0  0  0  0  0  0  0
   -1.0362   -0.9282   -2.6524 C   0  0  0  0  0  0  0  0  0  0  0  0
   -1.5640    0.0380   -3.7191 C   0  0  0  0  0  0  0  0  0  0  0  0
   -1.0969   -0.3870   -5.1173 C   0  0  0  0  0  0  0  0  0  0  0  0
   -1.5509   -1.8084   -5.4480 C   0  0  0  0  0  0  0  0  0  0  0  0
   -3.0397   -1.8795   -5.3957 C   0  0  0  0  0  0  0  0  0  0  0  0
   -3.7666   -2.2154   -6.4562 C   0  0  0  0  0  0  0  0  0  0  0  0
   -5.2554   -2.1242   -6.4536 C   0  0  0  0  0  0  0  0  0  0  0  0
   -5.7047   -1.1472   -7.5399 C   0  0  0  0  0  0  0  0  0  0  0  0
   -5.2423   -1.6084   -8.9272 C   0  0  0  0  0  0  0  0  0  0  0  0
   -5.7724   -3.0145   -9.2250 C   0  0  0  0  0  0  0  0  0  0  0  0
   -7.3054   -3.0122   -9.2059 C   0  0  0  0  0  0  0  0  0  0  0  0
   -7.8462   -2.1636  -10.3546 C   0  0  0  0  0  0  0  0  0  0  0  0
   -7.2765   -2.5997  -11.7150 C   0  0  0  0  0  0  0  0  0  0  0  0
   -7.5288   -4.0463  -12.1436 C   0  0  0  0  0  0  0  0  0  0  0  0
   -7.7051   -4.4071  -13.3032 O   0  0  0  0  0  0  0  0  0  0  0  0
   -7.4360   -4.9426  -11.1190 O   0  0  0  0  0  0  0  0  0  0  0  0
   -7.9292   -6.2499  -11.4301 C   0  0  0  0  0  0  0  0  0  0  0  0
   -9.4716   -6.2781  -11.4380 C   0  0  2  0  0  0  0  0  0  0  0  0
   -9.9873   -7.2479  -12.4834 C   0  0  2  0  0  0  0  0  0  0  0  0
  -11.3535   -6.6800  -12.8098 C   0  0  0  0  0  0  0  0  0  0  0  0
  -11.2206   -5.1683  -12.5725 C   0  0  1  0  0  0  0  0  0  0  0  0
  -10.0460   -4.9969  -11.7543 O   0  0  0  0  0  0  0  0  0  0  0  0
  -11.2163   -4.3498  -13.8137 N   0  0  0  0  0  0  0  0  0  0  0  0
  -12.4162   -4.2906  -14.5205 C   0  0  0  0  0  0  0  0  0  0  0  0
  -12.6561   -3.3035  -15.3872 C   0  0  0  0  0  0  0  0  0  0  0  0
  -11.4569   -2.5837  -15.8550 C   0  0  0  0  0  0  0  0  0  0  0  0
  -10.3298   -2.6555  -15.2224 N   0  0  0  0  0  0  0  0  0  0  0  0
  -10.3592   -3.2618  -13.9906 C   0  0  0  0  0  0  0  0  0  0  0  0
   -9.7429   -2.7494  -13.0573 O   0  0  0  0  0  0  0  0  0  0  0  0
  -11.5087   -1.8357  -16.9888 N   0  0  0  0  0  0  0  0  0  0  0  0
  -12.2880   -7.2033  -11.9703 F   0  0  0  0  0  0  0  0  0  0  0  0
  -11.7291   -7.0052  -14.0652 F   0  0  0  0  0  0  0  0  0  0  0  0
   -9.9880   -8.5953  -12.0053 O   0  0  0  0  0  0  0  0  0  0  0  0
  1  2  1  0
  2  3  1  0
  3  4  1  0
  4  5  1  0
  5  6  1  0
  6  7  1  0
  7  8  1  0
  8  9  1  0
  9 10  2  0
 10 11  1  0
 11 12  1  0
 12 13  1  0
 13 14  1  0
 14 15  1  0
 15 16  1  0
 16 17  1  0
 17 18  1  0
 18 19  2  0
 18 20  1  0
 20 21  1  0
 22 21  1  6
 22 23  1  0
 22 26  1  0
 23 24  1  0
 23 37  1  1
 24 25  1  0
 24 35  1  0
 24 36  1  0
 25 26  1  0
 25 27  1  6
 27 28  1  0
 27 32  1  0
 28 29  2  0
 29 30  1  0
 30 31  2  0
 30 34  1  0
 31 32  1  0
 32 33  2  0
M  END
>  <DRUGBANK_ID>  (1) 
DB12564

>  <COMMON_NAME>  (1) 
Gemcitabine elaidate

>  <CAS_NUMBER>  (1) 
210829-30-4

>  <UNII>  (1) 
231C73W7LG

>  <SYNONYMS>  (1) 
2'-Deoxy-2',2'-difluorocytidine 5'-(9E)-octadec-9-enoate; 5'-O-(TRANS-9''-OCTADECENOYL)-1-.BETA.-D-2'DEOXY-2',2'-DIFLUOROCYTIDINE; 5'-O-(trans-9"-octadecenoyl)-1-beta-D-2'deoxy-2',2'-difluorocytidine; Gemcitabine elaidate

$$$$
