
     RDKit          3D

 21 24  0  0  0  0  0  0  0  0999 V2000
    0.9740    0.0742   -0.1147 C   0  0  0  0  0  0  0  0  0  0  0  0
    4.2003   -3.0010    7.1285 C   0  0  0  0  0  0  0  0  0  0  0  0
    4.4563   -2.2056    6.0142 C   0  0  0  0  0  0  0  0  0  0  0  0
    3.2869   -4.0481    7.0399 C   0  0  0  0  0  0  0  0  0  0  0  0
    3.7894   -2.4491    4.8101 C   0  0  0  0  0  0  0  0  0  0  0  0
    1.6181   -5.4438    5.7801 C   0  0  0  0  0  0  0  0  0  0  0  0
    2.0705   -6.5997    4.8895 C   0  0  0  0  0  0  0  0  0  0  0  0
    0.9680   -1.4279    3.3994 C   0  0  0  0  0  0  0  0  0  0  0  0
    0.3301   -3.1253    1.7420 C   0  0  0  0  0  0  0  0  0  0  0  0
    2.5413   -5.2133    1.3852 C   0  0  0  0  0  0  0  0  0  0  0  0
    1.2677   -0.4600    2.2277 C   0  0  0  0  0  0  0  0  0  0  0  0
    0.7533   -2.1984    0.6037 C   0  0  0  0  0  0  0  0  0  0  0  0
    2.4589   -6.5240    0.9868 C   0  0  0  0  0  0  0  0  0  0  0  0
    2.6037   -4.2986    5.8405 C   0  0  0  0  0  0  0  0  0  0  0  0
    1.2251   -2.8532    2.9424 C   0  0  0  0  0  0  0  0  0  0  0  0
    2.8400   -3.4786    4.7145 C   0  0  0  0  0  0  0  0  0  0  0  0
    2.2886   -5.0463    2.7863 C   0  0  0  0  0  0  0  0  0  0  0  0
    2.2141   -6.2680    3.4331 C   0  0  0  0  0  0  0  0  0  0  0  0
    2.1159   -3.7613    3.4410 C   0  0  0  0  0  0  0  0  0  0  0  0
    0.5390   -0.7919    0.9795 N   0  0  0  0  0  0  0  0  0  0  0  0
    2.2883   -7.5750    2.3150 S   0  0  0  0  0  0  0  0  0  0  0  0
  3  2  2  0
  4  2  1  0
  5  3  1  0
  7  6  1  0
 11  8  1  0
 12  9  1  0
 13 10  2  0
 14  4  2  0
 14  6  1  0
 15  8  1  0
 15  9  1  0
 16  5  2  0
 16 14  1  0
 17 10  1  0
 18  7  1  0
 18 17  2  0
 19 15  2  3
 19 16  1  0
 19 17  1  0
 20  1  1  0
 20 11  1  0
 20 12  1  0
 21 13  1  0
 21 18  1  0
M  END
>  <DRUGBANK_ID>  (1) 
DB06153

>  <COMMON_NAME>  (1) 
Pizotifen

>  <CAS_NUMBER>  (1) 
15574-96-6

>  <UNII>  (1) 
0BY8440V3N

>  <SYNONYMS>  (1) 
Pizotifen; pizotifeno; Pizotyline

$$$$
