342
     RDKit          3D

 28 32  0  0  0  0  0  0  0  0999 V2000
    0.9071   -1.3229   -0.3185 C   0  0  0  0  0  0  0  0  0  0  0  0
   -0.2404   -0.6089   -0.1598 C   0  0  0  0  0  0  0  0  0  0  0  0
   -1.4893   -1.1381   -0.0785 O   0  0  0  0  0  0  0  0  0  0  0  0
   -2.2701    0.0590    0.0818 C   0  0  0  0  0  0  0  0  0  0  0  0
   -1.4821    1.2712    0.0504 O   0  0  0  0  0  0  0  0  0  0  0  0
   -0.2290    0.7611   -0.0423 C   0  0  0  0  0  0  0  0  0  0  0  0
    0.9555    1.4698   -0.0264 C   0  0  0  0  0  0  0  0  0  0  0  0
    2.1504    0.7526   -0.0860 C   0  0  0  0  0  0  0  0  0  0  0  0
    2.1385   -0.6551   -0.2212 C   0  0  0  0  0  0  0  0  0  0  0  0
    3.4219   -1.4437   -0.0877 C   0  0  0  0  0  0  0  0  0  0  0  0
    3.5186   -2.1903    1.1769 N   0  0  0  0  0  0  0  0  0  0  0  0
    2.6051   -3.3399    1.2412 C   0  0  0  0  0  0  0  0  0  0  0  0
    3.3609   -1.3065    2.3403 C   0  0  0  0  0  0  0  0  0  0  0  0
    3.4891   -2.0383    3.6663 C   0  0  0  0  0  0  0  0  0  0  0  0
    2.7128   -3.3621    3.7283 C   0  0  0  0  0  0  0  0  0  0  0  0
    2.8508   -4.2271    2.4614 C   0  0  2  0  0  0  0  0  0  0  0  0
    3.9952   -5.1032    2.3393 O   0  0  0  0  0  0  0  0  0  0  0  0
    5.2297   -4.5224    2.3232 C   0  0  0  0  0  0  0  0  0  0  0  0
    5.7719   -3.9893    3.4880 C   0  0  0  0  0  0  0  0  0  0  0  0
    6.9268   -3.2118    3.4364 C   0  0  0  0  0  0  0  0  0  0  0  0
    5.9894   -4.5256    1.1570 C   0  0  0  0  0  0  0  0  0  0  0  0
    7.2363   -3.8868    1.1351 C   0  0  0  0  0  0  0  0  0  0  0  0
    7.6652   -3.1728    2.2610 C   0  0  0  0  0  0  0  0  0  0  0  0
    8.8603   -2.4330    2.2243 N   0  0  0  0  0  0  0  0  0  0  0  0
    9.8332   -2.4111    3.1965 C   0  0  0  0  0  0  0  0  0  0  0  0
   10.8301   -1.6044    2.6987 C   0  0  0  0  0  0  0  0  0  0  0  0
   10.4675   -1.0752    1.4874 N   0  0  0  0  0  0  0  0  0  0  0  0
    9.2865   -1.5879    1.2302 C   0  0  0  0  0  0  0  0  0  0  0  0
  1  9  2  0
  1  2  1  0
  2  3  1  0
  2  6  2  0
  3  4  1  0
  4  5  1  0
  5  6  1  0
  6  7  1  0
  7  8  2  0
  8  9  1  0
  9 10  1  0
 10 11  1  0
 11 13  1  0
 11 12  1  0
 12 16  1  0
 13 14  1  0
 14 15  1  0
 15 16  1  0
 16 17  1  6
 17 18  1  0
 18 19  2  0
 18 21  1  0
 19 20  1  0
 20 23  2  0
 21 22  2  0
 22 23  1  0
 23 24  1  0
 24 25  1  0
 24 28  1  0
 25 26  2  0
 26 27  1  0
 27 28  2  0
M  END
>  <DRUGBANK_ID>  (1) 
DB07011

>  <COMMON_NAME>  (1) 
(3S)-1-(1,3-BENZODIOXOL-5-YLMETHYL)-3-[4-(1H-IMIDAZOL-1-YL)PHENOXY]PIPERIDINE

$$$$
