
     RDKit          3D

 13 15  0  0  0  0  0  0  0  0999 V2000
   -0.0000    1.8070    0.0000 I   0  0  0  0  0  0  0  0  0  0  0  0
   -1.2060    0.8990   -0.0010 C   0  0  0  0  0  0  0  0  0  0  0  0
   -2.5600    1.1580   -0.0010 C   0  0  0  0  0  0  0  0  0  0  0  0
   -3.4650    0.1120   -0.0010 C   0  0  0  0  0  0  0  0  0  0  0  0
   -3.0140   -1.1950    0.0050 C   0  0  0  0  0  0  0  0  0  0  0  0
   -1.6620   -1.4640   -0.0030 C   0  0  0  0  0  0  0  0  0  0  0  0
   -0.7420   -0.4140   -0.0010 C   0  0  0  0  0  0  0  0  0  0  0  0
    0.7420   -0.4140    0.0000 C   0  0  0  0  0  0  0  0  0  0  0  0
    1.2050    0.8990    0.0000 C   0  0  0  0  0  0  0  0  0  0  0  0
    2.5600    1.1580    0.0010 C   0  0  0  0  0  0  0  0  0  0  0  0
    3.4650    0.1120    0.0010 C   0  0  0  0  0  0  0  0  0  0  0  0
    3.0150   -1.1950    0.0000 C   0  0  0  0  0  0  0  0  0  0  0  0
    1.6620   -1.4640   -0.0010 C   0  0  0  0  0  0  0  0  0  0  0  0
  1  2  1  0
  1  9  1  0
  2  3  2  0
  2  7  1  0
  3  4  1  0
  4  5  2  0
  5  6  1  0
  6  7  2  0
  7  8  1  0
  8  9  2  0
  8 13  1  0
  9 10  1  0
 10 11  2  0
 11 12  1  0
 12 13  2  0
M  CHG  1   1   1
M  END
>  <DRUGBANK_ID>  (1) 
DB17025

>  <COMMON_NAME>  (1) 
Diphenyleneiodonium

>  <CAS_NUMBER>  (1) 
244-54-2

>  <UNII>  (1) 
6HJ411TU98

>  <SYNONYMS>  (1) 
Dibenziodolium

$$$$
