
     RDKit          3D

 19 21  0  0  0  0  0  0  0  0999 V2000
   -0.2273    0.7221    0.1865 C   0  0  0  0  0  0  0  0  0  0  0  0
    2.1902    1.2116    0.0061 N   0  0  0  0  0  0  0  0  0  0  0  0
    1.0150    1.5030    0.4504 C   0  0  0  0  0  0  0  0  0  0  0  0
    0.8655   -1.4850    0.4573 N   0  0  0  0  0  0  0  0  0  0  0  0
   -0.2583   -0.6813    0.2237 C   0  0  0  0  0  0  0  0  0  0  0  0
    2.1401   -1.2377    0.0216 C   0  0  0  0  0  0  0  0  0  0  0  0
   -1.4146    1.4381   -0.0332 C   0  0  0  0  0  0  0  0  0  0  0  0
    2.3732    0.0127   -0.8098 C   0  0  0  0  0  0  0  0  0  0  0  0
    0.9036    2.7059    1.3237 C   0  0  0  0  0  0  0  0  0  0  0  0
   -1.4756   -1.3494    0.0357 C   0  0  0  0  0  0  0  0  0  0  0  0
    3.0173   -2.0864    0.2174 O   0  0  0  0  0  0  0  0  0  0  0  0
   -2.6109    0.7591   -0.2415 C   0  0  0  0  0  0  0  0  0  0  0  0
   -2.6453   -0.6312   -0.2206 C   0  0  0  0  0  0  0  0  0  0  0  0
   -4.0548    1.6489   -0.5217 Cl  0  0  0  0  0  0  0  0  0  0  0  0
    1.3446    3.9507    0.8661 C   0  0  0  0  0  0  0  0  0  0  0  0
    0.3963    2.5668    2.6196 C   0  0  0  0  0  0  0  0  0  0  0  0
    0.3377    3.6770    3.4609 C   0  0  0  0  0  0  0  0  0  0  0  0
    1.3657    5.0364    1.7437 C   0  0  0  0  0  0  0  0  0  0  0  0
    0.8694    4.8966    3.0412 C   0  0  0  0  0  0  0  0  0  0  0  0
  2  3  2  0
  3  1  1  0
  4  5  1  0
  5  1  2  0
  6  4  1  0
  7  1  1  0
  8  2  1  0
  8  6  1  0
  9  3  1  0
 10  5  1  0
 10 13  2  0
 11  6  2  0
 12  7  2  0
 13 12  1  0
 14 12  1  0
 15  9  2  0
 16  9  1  0
 17 16  2  0
 18 15  1  0
 18 19  2  0
 19 17  1  0
M  END
>  <DRUGBANK_ID>  (1) 
DB14028

>  <COMMON_NAME>  (1) 
Nordazepam

>  <CAS_NUMBER>  (1) 
1088-11-5

>  <UNII>  (1) 
67220MCM01

>  <SYNONYMS>  (1) 
Desmethyldiazepam; N-desmethyldiazepam; Nordazepam; Nordazepam CIV; Nordazepamum; Nordiazepam

$$$$
