
     RDKit          3D

 21 22  0  0  0  0  0  0  0  0999 V2000
    1.1269   -0.0741    0.2408 N   0  0  0  0  0  0  0  0  0  0  0  0
   -2.1679    0.2884   -2.8324 C   0  0  0  0  0  0  0  0  0  0  0  0
   -2.5463    1.5088   -3.3135 C   0  0  0  0  0  0  0  0  0  0  0  0
   -1.9093    2.6461   -2.7959 C   0  0  0  0  0  0  0  0  0  0  0  0
   -0.9017    2.5250   -1.8030 C   0  0  0  0  0  0  0  0  0  0  0  0
   -0.5366    1.2798   -1.2734 C   0  0  0  0  0  0  0  0  0  0  0  0
   -1.2208    0.1922   -1.8237 C   0  0  0  0  0  0  0  0  0  0  0  0
    0.3637    1.1761   -0.0254 C   0  0  0  0  0  0  0  0  0  0  0  0
    0.5069   -1.4068    0.0768 C   0  0  0  0  0  0  0  0  0  0  0  0
    0.8172   -2.1718   -1.3037 C   0  0  0  0  0  0  0  0  0  0  0  0
    2.4972    0.0157    0.5775 C   0  0  0  0  0  0  0  0  0  0  0  0
    4.6392   -1.1597    0.5184 C   0  0  0  0  0  0  0  0  0  0  0  0
    5.2770    0.0217    0.2011 C   0  0  0  0  0  0  0  0  0  0  0  0
    4.4992    1.1633    0.1776 C   0  0  0  0  0  0  0  0  0  0  0  0
    2.2272   -2.4084   -1.6564 N   0  0  0  0  0  0  0  0  0  0  0  0
    2.4232   -3.3861   -2.7214 C   0  0  0  0  0  0  0  0  0  0  0  0
    2.8358   -1.1669   -2.1617 C   0  0  0  0  0  0  0  0  0  0  0  0
   -3.5315    1.6770   -4.2512 O   0  0  0  0  0  0  0  0  0  0  0  0
   -4.0970    0.4576   -4.7498 C   0  0  0  0  0  0  0  0  0  0  0  0
    3.1498    1.1868    0.3702 N   0  0  0  0  0  0  0  0  0  0  0  0
    3.2639   -1.1470    0.7860 C   0  0  0  0  0  0  0  0  0  0  0  0
  1  9  1  0
  1 11  1  0
  2  3  2  0
  2  7  1  0
  3  4  1  0
  3 18  1  0
  4  5  2  0
  5  6  1  0
  6  7  2  0
  6  8  1  0
  8  1  1  0
  9 10  1  0
 10 15  1  0
 11 21  2  0
 11 20  1  0
 12 13  2  0
 13 14  1  0
 14 20  2  0
 15 16  1  0
 15 17  1  0
 18 19  1  0
 21 12  1  0
M  END
>  <DRUGBANK_ID>  (1) 
DB06691

>  <COMMON_NAME>  (1) 
Mepyramine

>  <CAS_NUMBER>  (1) 
91-84-9

>  <UNII>  (1) 
HPE317O9TL

>  <SYNONYMS>  (1) 
Mepiramina; Mepyramine; N-(p-methoxybenzyl)-N',N'-dimethyl-N-(Î±-pyridyl)ethylenediamine; N-[(4-methoxyphenyl)methyl]-N',N'-dimethyl-N-2-pyridinyl-1,2-ethanediamine; N',N'-dimethyl-N-(p-methoxybenzyl)-N-(2-pyridyl)ethylenediamine; Pyranisamine; Pyrilamine

$$$$
