C5D
     RDKit          3D

 33 34  0  0  0  0  0  0  0  0999 V2000
    1.8344   -1.4116    1.7484 C   0  0  0  0  0  0  0  0  0  0  0  0
    3.1182   -0.9658    1.0381 C   0  0  0  0  0  0  0  0  0  0  0  0
    3.3311    0.4994    1.1388 C   0  0  0  0  0  0  0  0  0  0  0  0
    3.3226    1.6988    1.1487 C   0  0  0  0  0  0  0  0  0  0  0  0
    3.1893    3.1818    1.1171 C   0  0  0  0  0  0  0  0  0  0  0  0
    3.0400    3.7162   -0.3105 C   0  0  0  0  0  0  0  0  0  0  0  0
    1.9480    3.6726    1.8707 C   0  0  0  0  0  0  0  0  0  0  0  0
    4.3963    3.7129    1.7342 O   0  0  0  0  0  0  0  0  0  0  0  0
    1.9032    3.3337   -0.9295 F   0  0  0  0  0  0  0  0  0  0  0  0
    3.0661    5.0741   -0.3211 F   0  0  0  0  0  0  0  0  0  0  0  0
    4.0720    3.3177   -1.0972 F   0  0  0  0  0  0  0  0  0  0  0  0
    1.9548    3.2472    3.1599 F   0  0  0  0  0  0  0  0  0  0  0  0
    1.9196    5.0288    1.9288 F   0  0  0  0  0  0  0  0  0  0  0  0
    0.7778    3.2761    1.3270 F   0  0  0  0  0  0  0  0  0  0  0  0
    0.8527   -1.5735    9.3248 O   0  0  0  0  0  0  0  0  0  0  0  0
   -2.0997   -1.8436    8.8635 C   0  0  1  0  0  0  0  0  0  0  0  0
   -1.3221   -2.3374   10.0852 C   0  0  0  0  0  0  0  0  0  0  0  0
    0.1114   -2.7334    9.7105 C   0  0  1  0  0  0  0  0  0  0  0  0
    0.1255   -3.7772    8.5807 C   0  0  0  0  0  0  0  0  0  0  0  0
   -0.6689   -3.2600    7.4004 C   0  0  0  0  0  0  0  0  0  0  0  0
   -0.1261   -3.0763    6.1855 C   0  0  0  0  0  0  0  0  0  0  0  0
   -0.8591   -2.5216    5.0766 C   0  0  0  0  0  0  0  0  0  0  0  0
   -0.3476   -2.3500    3.8572 C   0  0  0  0  0  0  0  0  0  0  0  0
   -2.0884   -2.9052    7.7645 C   0  0  0  0  0  0  0  0  0  0  0  0
   -1.7108    0.3565    1.4203 C   0  0  0  0  0  0  0  0  0  0  0  0
   -0.5762   -0.4410    2.1231 C   0  0  0  0  0  0  0  0  0  0  0  0
   -1.1589   -1.7481    2.7318 C   0  0  1  0  0  0  0  0  0  0  0  0
   -1.2133   -2.7417    1.5622 C   0  0  0  0  0  0  0  0  0  0  0  0
   -0.2484   -2.2263    0.4954 C   0  0  0  0  0  0  0  0  0  0  0  0
    0.4715   -0.9802    1.0789 C   0  0  2  0  0  0  0  0  0  0  0  0
    0.0046    0.5206    3.1764 C   0  0  0  0  0  0  0  0  0  0  0  0
   -3.4430   -1.5384    9.2181 O   0  0  0  0  0  0  0  0  0  0  0  0
    0.7078   -0.0012   -0.0799 C   0  0  0  0  0  0  0  0  0  0  0  0
  1  2  1  0
  2  3  1  0
  3  4  3  0
  4  5  1  0
  5  6  1  0
  5  7  1  0
  5  8  1  0
  6  9  1  0
  6 10  1  0
  6 11  1  0
  7 12  1  0
  7 13  1  0
  7 14  1  0
 16 17  1  0
 16 24  1  0
 16 32  1  1
 17 18  1  0
 18 15  1  6
 18 19  1  0
 19 20  1  0
 20 21  2  0
 20 24  1  0
 21 22  1  0
 22 23  2  0
 25 26  1  0
 26 27  1  0
 26 30  1  0
 26 31  1  0
 27 23  1  1
 27 28  1  0
 28 29  1  0
 29 30  1  0
 30 33  1  6
 30  1  1  0
M  END
>  <DRUGBANK_ID>  (1) 
DB07530

>  <COMMON_NAME>  (1) 
(1R,3R)-5-[(2E)-3-{(1S,3R)-2,2,3-trimethyl-3-[6,6,6-trifluoro-5-hydroxy-5-(trifluoromethyl)hex-3-yn-1-yl]cyclopentyl}prop-2-en-1-ylidene]cyclohexane-1,3-diol

$$$$
