D27
     RDKit          3D

 24 25  0  0  0  0  0  0  0  0999 V2000
    1.3968   -0.3107    0.0253 C   0  0  0  0  0  0  0  0  0  0  0  0
    0.4669   -1.3736   -0.0084 C   0  0  0  0  0  0  0  0  0  0  0  0
    2.8701   -0.4913    0.1546 C   0  0  0  0  0  0  0  0  0  0  0  0
    0.8749   -2.7448   -0.0424 N   0  0  0  0  0  0  0  0  0  0  0  0
    0.0163   -3.8279   -0.0941 C   0  0  0  0  0  0  0  0  0  0  0  0
    0.6535   -5.1676   -0.1335 C   0  0  0  0  0  0  0  0  0  0  0  0
    0.3663   -9.7434   -1.5208 C   0  0  0  0  0  0  0  0  0  0  0  0
   -0.1746   -6.2341   -0.1664 C   0  0  0  0  0  0  0  0  0  0  0  0
    1.4988  -10.1356   -0.7761 C   0  0  0  0  0  0  0  0  0  0  0  0
   -0.2459   -8.5026   -1.2012 C   0  0  0  0  0  0  0  0  0  0  0  0
    3.6993    0.4112    0.2188 O   0  0  0  0  0  0  0  0  0  0  0  0
   -1.2095   -3.7768   -0.1116 O   0  0  0  0  0  0  0  0  0  0  0  0
    0.3062   -7.6124   -0.2694 C   0  0  0  0  0  0  0  0  0  0  0  0
    1.9613   -9.2682    0.2408 C   0  0  0  0  0  0  0  0  0  0  0  0
    3.2599   -1.7783    0.2544 O   0  0  0  0  0  0  0  0  0  0  0  0
    1.3669   -8.0398    0.5105 C   0  0  0  0  0  0  0  0  0  0  0  0
   -0.3036  -10.3084   -2.5822 O   0  0  0  0  0  0  0  0  0  0  0  0
    0.9247    1.0254    0.0001 C   0  0  0  0  0  0  0  0  0  0  0  0
    2.3229  -11.2329   -0.7987 O   0  0  0  0  0  0  0  0  0  0  0  0
   -0.8976   -1.0396   -0.0185 C   0  0  0  0  0  0  0  0  0  0  0  0
    0.3414  -11.2650   -3.3894 C   0  0  0  0  0  0  0  0  0  0  0  0
    1.9134  -12.4215   -1.4245 C   0  0  0  0  0  0  0  0  0  0  0  0
   -0.4433    1.3117    0.0258 C   0  0  0  0  0  0  0  0  0  0  0  0
   -1.3539    0.2739   -0.0057 C   0  0  0  0  0  0  0  0  0  0  0  0
  1  2  2  0
  1  3  1  0
  1 18  1  0
  2  4  1  0
  2 20  1  0
  3 11  2  0
  3 15  1  0
  4  5  1  0
  5  6  1  0
  5 12  2  0
  6  8  2  0
  7  9  2  0
  7 10  1  0
  7 17  1  0
  8 13  1  0
  9 14  1  0
  9 19  1  0
 10 13  2  0
 13 16  1  0
 14 16  2  0
 17 21  1  0
 18 23  2  0
 19 22  1  0
 20 24  2  0
 23 24  1  0
M  END
>  <DRUGBANK_ID>  (1) 
DB07615

>  <COMMON_NAME>  (1) 
Tranilast

>  <CAS_NUMBER>  (1) 
53902-12-8

>  <UNII>  (1) 
HVF50SMY6E

>  <SYNONYMS>  (1) 
N-(3,4-Dimethoxycinnamoyl)anthranilic acid; Tranilast; Tranilastum

$$$$
