
     RDKit          3D

 34 36  0  0  1  0  0  0  0  0999 V2000
    1.0002   -0.3927    0.0200 O   0  0  0  0  0  0  0  0  0  0  0  0
    0.8959   -3.8742    1.8412 O   0  0  0  0  0  0  0  0  0  0  0  0
    0.8037    5.0341   -1.5205 O   0  0  0  0  0  0  0  0  0  0  0  0
    1.0059    4.7316    0.7069 O   0  0  0  0  0  0  0  0  0  0  0  0
   -2.1268    4.5727    6.4208 O   0  0  0  0  0  0  0  0  0  0  0  0
    2.9704   -0.9457    0.9875 N   0  0  0  0  0  0  0  0  0  0  0  0
    2.6096    2.2739   -0.4484 N   0  0  0  0  0  0  0  0  0  0  0  0
    1.4973   -2.4962    3.4627 N   0  0  0  0  0  0  0  0  0  0  0  0
    0.1624    4.6843    5.2660 N   0  0  0  0  0  0  0  0  0  0  0  0
   -1.5345    3.3294    6.1606 N   0  0  0  0  0  0  0  0  0  0  0  0
    2.6884    0.4360   -2.3480 C   0  0  0  0  0  0  0  0  0  0  0  0
    2.9073    0.8503   -0.8197 C   0  0  2  0  0  0  0  0  0  0  0  0
    3.9148    0.8229   -3.1923 C   0  0  0  0  0  0  0  0  0  0  0  0
    1.4548    1.0622   -2.9988 C   0  0  0  0  0  0  0  0  0  0  0  0
    3.6812    0.6054   -4.6937 C   0  0  0  0  0  0  0  0  0  0  0  0
    1.2139    1.0061   -4.4863 C   0  0  0  0  0  0  0  0  0  0  0  0
    2.7944   -2.4081    1.2121 C   0  0  1  0  0  0  0  0  0  0  0  0
    2.4853    1.3730   -5.2352 C   0  0  0  0  0  0  0  0  0  0  0  0
    4.2945   -0.8851    1.5901 C   0  0  0  0  0  0  0  0  0  0  0  0
    4.2944   -2.4276    1.5820 C   0  0  0  0  0  0  0  0  0  0  0  0
    2.2128   -0.1834    0.1218 C   0  0  0  0  0  0  0  0  0  0  0  0
    1.6648   -2.9560    2.1712 C   0  0  0  0  0  0  0  0  0  0  0  0
    1.2095    2.7423   -0.6407 C   0  0  0  0  0  0  0  0  0  0  0  0
    1.0084    4.2310   -0.4364 C   0  0  0  0  0  0  0  0  0  0  0  0
    2.2753   -1.4904    4.1141 C   0  0  0  0  0  0  0  0  0  0  0  0
    1.5679   -0.2024    4.3831 C   0  0  0  0  0  0  0  0  0  0  0  0
    0.4114   -0.2291    5.1558 C   0  0  0  0  0  0  0  0  0  0  0  0
    2.0978    1.0396    3.9904 C   0  0  0  0  0  0  0  0  0  0  0  0
    0.8326    4.6785   -2.9318 C   0  0  0  0  0  0  0  0  0  0  0  0
   -0.2024    0.9575    5.5423 C   0  0  0  0  0  0  0  0  0  0  0  0
    1.5155    2.2314    4.4262 C   0  0  0  0  0  0  0  0  0  0  0  0
    0.3379    2.1984    5.1759 C   0  0  0  0  0  0  0  0  0  0  0  0
    2.2466    4.4214   -3.4067 C   0  0  0  0  0  0  0  0  0  0  0  0
   -0.3840    3.4579    5.5579 C   0  0  0  0  0  0  0  0  0  0  0  0
  1 21  2  0
  2 22  2  0
  3 24  1  0
  3 29  1  0
  4 24  2  0
  5 10  1  0
  6 17  1  0
  6 19  1  0
  6 21  1  0
  7 23  1  0
  8 22  1  0
  8 25  1  0
  9 34  1  0
 10 34  2  0
 11 13  1  0
 11 14  1  0
 12 21  1  0
 12 11  1  0
 12  7  1  6
 13 15  1  0
 14 16  1  0
 15 18  1  0
 16 18  1  0
 17 20  1  0
 17 22  1  1
 19 20  1  0
 23 24  1  0
 25 26  1  0
 26 27  2  0
 26 28  1  0
 27 30  1  0
 28 31  2  0
 29 33  1  0
 30 32  2  0
 31 32  1  0
 32 34  1  0
M  END
>  <DRUGBANK_ID>  (1) 
DB04898

>  <COMMON_NAME>  (1) 
Ximelagatran

>  <CAS_NUMBER>  (1) 
192939-46-1

>  <UNII>  (1) 
49HFB70472

>  <SYNONYMS>  (1) 
ethyl 2-[[(1R)-1-cyclohexyl-2- [(2S)-2-[[4-(N'-hydroxycarbamimidoyl) phenyl]methylcarbamoyl]azetidin-1-yl]- 2-oxo-ethyl]amino]acetate; Ximelagatran; Ximélagatran; Ximelagatrán; Ximelagatranum

$$$$
