
     RDKit          3D

 29 31  0  0  0  0  0  0  0  0999 V2000
    2.2762   -0.3622   -2.7878 C   0  0  2  0  0  0  0  0  0  0  0  0
    0.5181   -1.8733   -1.9665 C   0  0  0  0  0  0  0  0  0  0  0  0
    2.1870   -2.4154   -1.6227 C   0  0  0  0  0  0  0  0  0  0  0  0
   -0.5360   -1.8100   -0.0157 C   0  0  1  0  0  0  0  0  0  0  0  0
    1.6353   -2.2705   -0.1743 C   0  0  2  0  0  0  0  0  0  0  0  0
    0.5819   -2.2765    0.8266 O   0  0  0  0  0  0  0  0  0  0  0  0
    3.6598    1.5736   -3.4507 O   0  0  0  0  0  0  0  0  0  0  0  0
    5.0402    3.2080   -4.1254 C   0  0  0  0  0  0  0  0  0  0  0  0
    5.8764    4.6726   -3.8610 O   0  0  0  0  0  0  0  0  0  0  0  0
    1.5386   -0.9326   -1.2014 C   0  0  0  0  0  0  0  0  0  0  0  0
    1.7101    0.2729   -0.8387 C   0  0  0  0  0  0  0  0  0  0  0  0
    5.5535    0.7867   -3.0234 C   0  0  0  0  0  0  0  0  0  0  0  0
    7.4120    1.2827   -4.5329 C   0  0  0  0  0  0  0  0  0  0  0  0
    6.4179    1.7066   -3.3894 C   0  0  0  0  0  0  0  0  0  0  0  0
    2.9457    0.1779   -0.3315 C   0  0  1  0  0  0  0  0  0  0  0  0
    4.7151    1.0111   -1.8519 C   0  0  0  0  0  0  0  0  0  0  0  0
    3.9475    0.0239   -1.4000 C   0  0  0  0  0  0  0  0  0  0  0  0
    6.7333    4.4928   -5.0549 C   0  0  0  0  0  0  0  0  0  0  0  0
    7.0476    1.8911   -6.1725 C   0  0  0  0  0  0  0  0  0  0  0  0
    7.1360    3.3520   -5.2765 C   0  0  0  0  0  0  0  0  0  0  0  0
   -0.7676   -0.4750    0.4465 C   0  0  2  0  0  0  0  0  0  0  0  0
   -1.5451    0.3764   -0.4250 C   0  0  0  0  0  0  0  0  0  0  0  0
    0.4044   -0.2299    0.1332 N   0  0  0  0  0  0  0  0  0  0  0  0
   -0.8528    1.9075   -1.1062 S   0  0  0  0  0  0  0  0  0  0  0  0
    0.6366    1.5878   -0.6942 C   0  0  0  0  0  0  0  0  0  0  0  0
    1.7571    1.9618   -1.4270 O   0  0  0  0  0  0  0  0  0  0  0  0
    6.4892    3.2643   -6.4384 C   0  0  0  0  0  0  0  0  0  0  0  0
    3.0136    1.8410    0.3419 C   0  0  0  0  0  0  0  0  0  0  0  0
   -1.7786   -1.9561    1.2249 O   0  0  0  0  0  0  0  0  0  0  0  0
  1  7  1  0
  1  2  1  1
  3  1  1  0
  4  2  1  0
  4 29  1  6
  5  3  1  0
  5 10  1  6
  6  4  1  0
  6  5  1  0
  8  7  1  0
  8  9  2  0
 11 10  1  0
 14 12  2  0
 14 13  1  0
 15 11  1  0
 15 28  1  6
 16 12  1  0
 17 15  1  0
 17 16  2  0
 18  8  1  0
 19 13  1  0
 20 18  2  0
 20 19  1  0
 20 27  1  0
 21  4  1  0
 21 22  1  6
 23 21  1  0
 24 22  1  0
 25 23  1  0
 25 24  1  0
 25 26  2  0
M  END
>  <DRUGBANK_ID>  (1) 
DB02621

>  <SECONDARY_ACCESSION_NUMBERS>  (1) 
EXPT02004

>  <COMMON_NAME>  (1) 
Latrunculin A

>  <CAS_NUMBER>  (1) 
76343-93-6

>  <UNII>  (1) 
SRQ9WWM084

>  <SYNONYMS>  (1) 
(+)-latrunculin A; (4R)-4-[(1R,4Z,8E,10Z,12S,15R,17R)-17-hydroxy-5,12-dimethyl-3-oxo-2,16-dioxabicyclo[13.3.1]nonadeca-4,8,10-trien-17-yl]-1,3-thiazolidin-2-one; LAT-A; LatA

$$$$
