NCW
     RDKit          3D

 22 23  0  0  0  0  0  0  0  0999 V2000
    0.7931    0.0894   -0.2049 S   0  0  0  0  0  0  0  0  0  0  0  0
    2.4702    0.0532   -0.1328 C   0  0  0  0  0  0  0  0  0  0  0  0
    3.2561    1.0569   -0.6541 N   0  0  0  0  0  0  0  0  0  0  0  0
    2.8625    2.4521   -0.6762 C   0  0  2  0  0  0  0  0  0  0  0  0
    2.0647    2.7943   -1.9542 C   0  0  1  0  0  0  0  0  0  0  0  0
    2.1482    4.2021   -2.2230 O   0  0  0  0  0  0  0  0  0  0  0  0
    2.4643    1.9648   -3.2087 C   0  0  2  0  0  0  0  0  0  0  0  0
    1.3750    1.0873   -3.5606 O   0  0  0  0  0  0  0  0  0  0  0  0
    3.7520    1.1011   -3.1032 C   0  0  1  0  0  0  0  0  0  0  0  0
    4.7348    1.6057   -4.0343 O   0  0  0  0  0  0  0  0  0  0  0  0
    4.2367    3.1006   -0.6654 C   0  0  0  0  0  0  0  0  0  0  0  0
    5.0805    2.2087   -1.4210 O   0  0  0  0  0  0  0  0  0  0  0  0
    4.3194    0.9938   -1.6488 C   0  0  1  0  0  0  0  0  0  0  0  0
    3.1705   -0.9250    0.5500 N   0  0  0  0  0  0  0  0  0  0  0  0
    2.5481   -1.9231    1.4487 C   0  0  0  0  0  0  0  0  0  0  0  0
    2.9617   -3.3370    1.0647 C   0  0  0  0  0  0  0  0  0  0  0  0
    4.4428   -3.5871    1.3408 C   0  0  0  0  0  0  0  0  0  0  0  0
    4.7845   -3.4765    2.8321 C   0  0  0  0  0  0  0  0  0  0  0  0
    4.0359   -4.5111    3.6820 C   0  0  0  0  0  0  0  0  0  0  0  0
    4.4042   -5.9491    3.2992 C   0  0  0  0  0  0  0  0  0  0  0  0
    5.9014   -6.2283    3.4501 C   0  0  0  0  0  0  0  0  0  0  0  0
    6.3557   -6.0374    4.8889 C   0  0  0  0  0  0  0  0  0  0  0  0
  1  2  2  0
  2  3  1  0
  2 14  1  0
  3  4  1  0
  3 13  1  0
  4  5  1  0
  4 11  1  6
  5  6  1  6
  5  7  1  0
  7  8  1  1
  7  9  1  0
  9 13  1  0
  9 10  1  6
 11 12  1  0
 13 12  1  1
 14 15  1  0
 15 16  1  0
 16 17  1  0
 17 18  1  0
 18 19  1  0
 19 20  1  0
 20 21  1  0
 21 22  1  0
M  END
>  <DRUGBANK_ID>  (1) 
DB08260

>  <COMMON_NAME>  (1) 
(1S,2R,3S,4R,5R)-2,3,4-trihydroxy-N-octyl-6-oxa-8-azabicyclo[3.2.1]octane-8-carbothioamide

$$$$
