
     RDKit          3D

 38 41  0  0  0  0  0  0  0  0999 V2000
    2.3090    0.1348    0.1396 C   0  0  0  0  0  0  0  0  0  0  0  0
    0.8647   -0.0510    0.1524 C   0  0  0  0  0  0  0  0  0  0  0  0
    0.1338    1.1231    0.0430 C   0  0  0  0  0  0  0  0  0  0  0  0
   -1.2313    1.1887    0.0475 C   0  0  0  0  0  0  0  0  0  0  0  0
   -1.9130    2.3742    0.1146 O   0  0  0  0  0  0  0  0  0  0  0  0
   -1.1454    3.6104    0.0204 C   0  0  0  0  0  0  0  0  0  0  0  0
   -0.1790    3.8369    1.1824 C   0  0  0  0  0  0  0  0  0  0  0  0
    1.1703    4.0539    1.1359 C   0  0  0  0  0  0  0  0  0  0  0  0
    1.9834    3.9897    2.4113 C   0  0  0  0  0  0  0  0  0  0  0  0
    1.4229    3.8234    3.6899 C   0  0  0  0  0  0  0  0  0  0  0  0
    2.2228    3.8119    4.8389 C   0  0  0  0  0  0  0  0  0  0  0  0
    3.5996    3.9279    4.7251 C   0  0  0  0  0  0  0  0  0  0  0  0
    4.3618    3.9296    5.8243 F   0  0  0  0  0  0  0  0  0  0  0  0
    4.1950    4.0538    3.4859 C   0  0  0  0  0  0  0  0  0  0  0  0
    3.3902    4.0999    2.3495 C   0  0  0  0  0  0  0  0  0  0  0  0
    1.8225    4.1680   -0.2246 C   0  0  0  0  0  0  0  0  0  0  0  0
    2.8369    3.2765   -0.6049 C   0  0  0  0  0  0  0  0  0  0  0  0
    3.3518    3.1733   -1.8922 C   0  0  0  0  0  0  0  0  0  0  0  0
    2.9836    4.1310   -2.8108 C   0  0  0  0  0  0  0  0  0  0  0  0
    2.0432    5.1056   -2.4446 C   0  0  0  0  0  0  0  0  0  0  0  0
    1.4487    5.1097   -1.1695 C   0  0  0  0  0  0  0  0  0  0  0  0
    3.6435    4.1552   -4.0773 C   0  0  0  0  0  0  0  0  0  0  0  0
    4.2351    4.2349   -5.2365 C   0  0  0  0  0  0  0  0  0  0  0  0
    4.9247    4.3279   -6.5878 C   0  0  0  0  0  0  0  0  0  0  0  0
    3.9418    4.6908   -7.6036 N   0  0  0  0  0  0  0  0  0  0  0  0
    4.4226    4.2902   -8.9402 C   0  0  0  0  0  0  0  0  0  0  0  0
    5.6800    5.0676   -9.3529 C   0  0  0  0  0  0  0  0  0  0  0  0
    5.4424    6.4834   -9.3335 O   0  0  0  0  0  0  0  0  0  0  0  0
    4.9920    6.9214   -8.0428 C   0  0  0  0  0  0  0  0  0  0  0  0
    3.7325    6.1542   -7.6008 C   0  0  0  0  0  0  0  0  0  0  0  0
   -1.8865   -0.0339    0.0254 C   0  0  0  0  0  0  0  0  0  0  0  0
   -1.1494   -1.2584    0.0207 C   0  0  0  0  0  0  0  0  0  0  0  0
    0.2539   -1.2815    0.0722 C   0  0  0  0  0  0  0  0  0  0  0  0
    0.9089   -2.4861   -0.0280 O   0  0  0  0  0  0  0  0  0  0  0  0
    2.3482   -2.5778   -0.1014 C   0  0  0  0  0  0  0  0  0  0  0  0
    3.1087   -2.1129   -1.3926 C   0  0  0  0  0  0  0  0  0  0  0  0
    4.2354   -1.3490   -1.2022 O   0  0  0  0  0  0  0  0  0  0  0  0
    2.7327   -2.3555   -2.5146 O   0  0  0  0  0  0  0  0  0  0  0  0
  1  2  1  0
  2  3  2  0
  2 33  1  0
  3  4  1  0
  4  5  1  0
  4 31  2  0
  5  6  1  0
  6  7  1  0
  7  8  2  0
  8  9  1  0
  8 16  1  0
  9 10  2  0
  9 15  1  0
 10 11  1  0
 11 12  2  0
 12 13  1  0
 12 14  1  0
 14 15  2  0
 16 17  2  0
 16 21  1  0
 17 18  1  0
 18 19  2  0
 19 20  1  0
 19 22  1  0
 20 21  2  0
 22 23  3  0
 23 24  1  0
 24 25  1  0
 25 26  1  0
 25 30  1  0
 26 27  1  0
 27 28  1  0
 28 29  1  0
 29 30  1  0
 31 32  1  0
 32 33  2  0
 33 34  1  0
 34 35  1  0
 35 36  1  0
 36 37  1  0
 36 38  2  0
M  END
>  <DRUGBANK_ID>  (1) 
DB17662

>  <COMMON_NAME>  (1) 
Mavodelpar

>  <CAS_NUMBER>  (1) 
942594-93-6

>  <UNII>  (1) 
I9KP509K31

>  <SYNONYMS>  (1) 
(4-{(E)-3-(4-fluorophenyl)-3-[4-(3-morpholin-4-yl-prop-1ynyl)phenyl]allyloxy}-2-methylphenoxy)acetate; Mavodelpar; REN-001 free acid

$$$$
