
     RDKit          3D

 27 29  0  0  0  0  0  0  0  0999 V2000
    1.7032    0.3146    0.7483 C   0  0  0  0  0  0  0  0  0  0  0  0
   -2.6006    1.3490   -5.4776 C   0  0  0  0  0  0  0  0  0  0  0  0
    0.8859    1.5985    0.6704 C   0  0  0  0  0  0  0  0  0  0  0  0
    5.4989    0.6013   -2.6409 C   0  0  0  0  0  0  0  0  0  0  0  0
   -0.4620   -2.4401    0.5683 C   0  0  0  0  0  0  0  0  0  0  0  0
    4.8566   -0.6231   -2.5819 C   0  0  0  0  0  0  0  0  0  0  0  0
    4.7413    1.7600   -2.6497 C   0  0  0  0  0  0  0  0  0  0  0  0
   -1.0990   -1.2070    0.4305 C   0  0  0  0  0  0  0  0  0  0  0  0
    0.3609   -2.9037   -0.4453 C   0  0  0  0  0  0  0  0  0  0  0  0
    3.4671   -0.6917   -2.4798 C   0  0  0  0  0  0  0  0  0  0  0  0
    3.3469    1.6778   -2.5496 C   0  0  0  0  0  0  0  0  0  0  0  0
   -0.8575   -0.4082   -0.6963 C   0  0  0  0  0  0  0  0  0  0  0  0
    0.6906   -2.0603   -1.4933 C   0  0  0  0  0  0  0  0  0  0  0  0
    0.5072   -0.5124   -6.6127 C   0  0  0  0  0  0  0  0  0  0  0  0
   -0.9969   -2.0439   -5.3194 C   0  0  0  0  0  0  0  0  0  0  0  0
   -0.4653    0.6422   -6.4059 C   0  0  0  0  0  0  0  0  0  0  0  0
   -1.9407   -0.9017   -5.0075 C   0  0  0  0  0  0  0  0  0  0  0  0
    1.1229    2.3340   -0.6324 C   0  0  0  0  0  0  0  0  0  0  0  0
    2.6589    0.4437   -2.3867 C   0  0  0  0  0  0  0  0  0  0  0  0
    0.2333   -0.7385   -1.5306 C   0  0  0  0  0  0  0  0  0  0  0  0
    0.4224   -1.5091   -5.4732 C   0  0  0  0  0  0  0  0  0  0  0  0
    0.5636    0.1974   -3.6265 C   0  0  0  0  0  0  0  0  0  0  0  0
    1.0997    0.3874   -2.2550 C   0  0  0  0  0  0  0  0  0  0  0  0
   -1.8295    0.2065   -5.9907 N   0  0  0  0  0  0  0  0  0  0  0  0
   -0.3342    0.9871   -3.9460 O   0  0  0  0  0  0  0  0  0  0  0  0
    0.6181    1.7091   -1.8103 O   0  0  0  0  0  0  0  0  0  0  0  0
    0.9829   -0.9445   -4.2517 O   0  0  0  0  0  0  0  0  0  0  0  0
  3  1  1  0
  6  4  2  0
  7  4  1  0
  8  5  2  0
  9  5  1  0
 10  6  1  0
 11  7  2  0
 12  8  1  0
 13  9  2  0
 16 14  1  0
 17 15  1  0
 18  3  1  0
 19 10  2  0
 19 11  1  0
 20 12  2  0
 20 13  1  0
 21 14  1  0
 21 15  1  0
 23 19  1  0
 23 20  1  0
 23 22  1  0
 24  2  1  0
 24 16  1  0
 24 17  1  0
 25 22  2  0
 26 18  1  0
 26 23  1  0
 27 21  1  0
 27 22  1  0
M  END
>  <DRUGBANK_ID>  (1) 
DB12278

>  <COMMON_NAME>  (1) 
Propiverine

>  <CAS_NUMBER>  (1) 
60569-19-9

>  <UNII>  (1) 
468GE2241L

>  <SYNONYMS>  (1) 
Propiverina; Propiverine

$$$$
