
     RDKit          3D

 27 30  0  0  1  0  0  0  0  0999 V2000
    2.1275   -0.1203   -0.0963 C   0  0  1  0  0  0  0  0  0  0  0  0
    2.8422   -1.4722   -0.3067 C   0  0  0  0  0  0  0  0  0  0  0  0
    4.0095   -1.2270   -1.2561 C   0  0  0  0  0  0  0  0  0  0  0  0
    4.1840    0.2842   -1.2436 C   0  0  1  0  0  0  0  0  0  0  0  0
    4.9794    0.9369   -2.3777 C   0  0  2  0  0  0  0  0  0  0  0  0
    6.4387    0.4487   -2.4373 C   0  0  1  0  0  0  0  0  0  0  0  0
    6.5296   -0.9575   -2.6334 O   0  0  0  0  0  0  0  0  0  0  0  0
    7.2050    1.1370   -3.5670 C   0  0  0  0  0  0  0  0  0  0  0  0
    7.1631    2.6717   -3.4888 C   0  0  2  0  0  0  0  0  0  0  0  0
    8.0893    3.1629   -2.3583 C   0  0  0  0  0  0  0  0  0  0  0  0
    8.0714    4.6802   -2.2100 C   0  0  2  0  0  0  0  0  0  0  0  0
    8.9015    5.0665   -1.1211 O   0  0  0  0  0  0  0  0  0  0  0  0
    6.6526    5.1867   -1.9869 C   0  0  0  0  0  0  0  0  0  0  0  0
    5.7546    4.7599   -3.1429 C   0  0  0  0  0  0  0  0  0  0  0  0
    5.7039    3.2207   -3.3604 C   0  0  1  0  0  0  0  0  0  0  0  0
    4.9592    2.9879   -4.7024 C   0  0  0  0  0  0  0  0  0  0  0  0
    4.9734    2.4891   -2.1781 C   0  0  1  0  0  0  0  0  0  0  0  0
    3.5860    3.0942   -1.8418 C   0  0  0  0  0  0  0  0  0  0  0  0
    2.8047    2.2973   -0.7901 C   0  0  0  0  0  0  0  0  0  0  0  0
    2.7318    0.8159   -1.1836 C   0  0  2  0  0  0  0  0  0  0  0  0
    1.9833    0.6915   -2.5282 C   0  0  0  0  0  0  0  0  0  0  0  0
    0.5751   -0.1823   -0.0522 C   0  0  2  0  0  0  0  0  0  0  0  0
    0.0969    0.1076    1.3888 C   0  0  0  0  0  0  0  0  0  0  0  0
   -0.1163   -1.4803   -0.5542 C   0  0  0  0  0  0  0  0  0  0  0  0
    0.2186   -2.0828   -1.9175 C   0  0  0  0  0  0  0  0  0  0  0  0
    0.5602   -3.3947   -1.8826 O   0  0  0  0  0  0  0  0  0  0  0  0
    0.1386   -1.4895   -2.9850 O   0  0  0  0  0  0  0  0  0  0  0  0
  1  2  1  6
  1 22  1  0
  2  3  1  0
  4  3  1  6
  4 20  1  0
  5  4  1  0
  5  6  1  1
  5 17  1  0
  6  7  1  6
  6  8  1  0
  9  8  1  1
  9 10  1  0
 11 10  1  0
 11 12  1  1
 11 13  1  0
 13 14  1  0
 15 14  1  0
 15  9  1  0
 15 16  1  6
 17 15  1  0
 17 18  1  6
 18 19  1  0
 20 19  1  0
 20  1  1  0
 20 21  1  6
 22 24  1  0
 22 23  1  1
 24 25  1  0
 25 26  1  0
 25 27  2  0
M  END
>  <DRUGBANK_ID>  (1) 
DB16260

>  <COMMON_NAME>  (1) 
norUrsodeoxycholic acid

>  <CAS_NUMBER>  (1) 
99697-24-2

>  <UNII>  (1) 
8A5G600D9V

>  <SYNONYMS>  (1) 
24-norursodeoxycholic acid; Nor-ursodeoxycholic acid; Norucholic acid; NorUrsodeoxycholic Acid

$$$$
