
     RDKit          3D

 29 32  0  0  0  0  0  0  0  0999 V2000
    2.1725   -9.7117    2.1372 C   0  0  0  0  0  0  0  0  0  0  0  0
    2.6125  -10.2403    3.3351 C   0  0  0  0  0  0  0  0  0  0  0  0
    3.9012  -10.5544    3.5855 N   0  0  0  0  0  0  0  0  0  0  0  0
    4.7862  -10.4500    2.5763 C   0  0  0  0  0  0  0  0  0  0  0  0
    4.4182   -9.9808    1.2977 C   0  0  0  0  0  0  0  0  0  0  0  0
    3.1001   -9.4824    1.1048 C   0  0  0  0  0  0  0  0  0  0  0  0
    6.1134  -10.8562    2.7691 C   0  0  0  0  0  0  0  0  0  0  0  0
    7.0643  -10.8644    1.7389 C   0  0  0  0  0  0  0  0  0  0  0  0
    6.7214  -10.3388    0.5298 C   0  0  0  0  0  0  0  0  0  0  0  0
    5.4108  -10.0161    0.2990 C   0  0  0  0  0  0  0  0  0  0  0  0
    7.6206  -10.1089   -0.4347 F   0  0  0  0  0  0  0  0  0  0  0  0
    2.6339   -8.5855   -0.0640 C   0  0  1  0  0  0  0  0  0  0  0  0
    2.1255   -7.2410    0.5134 C   0  0  0  0  0  0  0  0  0  0  0  0
    3.2758   -6.4362    1.1486 C   0  0  0  0  0  0  0  0  0  0  0  0
    4.3689   -6.0699    0.1143 C   0  0  2  0  0  0  0  0  0  0  0  0
    4.7636   -7.3183   -0.6530 C   0  0  0  0  0  0  0  0  0  0  0  0
    3.6062   -8.1665   -1.1850 C   0  0  0  0  0  0  0  0  0  0  0  0
    5.6348   -5.4387    0.8139 C   0  0  2  0  0  0  0  0  0  0  0  0
    5.4584   -3.9134    0.8059 C   0  0  0  0  0  0  0  0  0  0  0  0
    6.5994   -3.1741    0.5106 N   0  0  0  0  0  0  0  0  0  0  0  0
    4.3663   -3.4245    1.0449 O   0  0  0  0  0  0  0  0  0  0  0  0
    6.5852   -1.7738    0.4108 C   0  0  0  0  0  0  0  0  0  0  0  0
    5.8262   -0.9943    1.2827 C   0  0  0  0  0  0  0  0  0  0  0  0
    5.7311    0.3810    1.0908 C   0  0  0  0  0  0  0  0  0  0  0  0
    6.4642    0.9850    0.0740 C   0  0  0  0  0  0  0  0  0  0  0  0
    7.3110    0.2266   -0.7341 C   0  0  0  0  0  0  0  0  0  0  0  0
    7.3506   -1.1621   -0.5863 C   0  0  0  0  0  0  0  0  0  0  0  0
    6.3055    2.6751   -0.1985 Cl  0  0  0  0  0  0  0  0  0  0  0  0
    6.9786   -5.9117    0.2210 C   0  0  0  0  0  0  0  0  0  0  0  0
  1  2  2  0
  1  6  1  0
  2  3  1  0
  3  4  2  0
  4  5  1  0
  4  7  1  0
  5  6  2  0
  5 10  1  0
  7  8  2  0
  8  9  1  0
  9 10  2  0
  9 11  1  0
 12 13  1  0
 12 17  1  0
 12  6  1  1
 13 14  1  0
 15 14  1  1
 15 16  1  0
 15 18  1  0
 16 17  1  0
 18 29  1  6
 18 19  1  0
 19 20  1  0
 19 21  2  0
 20 22  1  0
 22 23  2  0
 22 27  1  0
 23 24  1  0
 24 25  2  0
 25 26  1  0
 25 28  1  0
 26 27  2  0
M  END
>  <DRUGBANK_ID>  (1) 
DB14986

>  <COMMON_NAME>  (1) 
Linrodostat

>  <CAS_NUMBER>  (1) 
1923833-60-6

>  <UNII>  (1) 
0A7729F42K

>  <SYNONYMS>  (1) 
Linrodostat

$$$$
