
     RDKit          3D

 22 22  0  0  0  0  0  0  0  0999 V2000
    3.0014    2.3955   -0.2313 O   0  0  0  0  0  0  0  0  0  0  0  0
    3.7239    2.3251   -3.5841 O   0  0  0  0  0  0  0  0  0  0  0  0
   -0.4551    5.3232   -1.3331 O   0  0  0  0  0  0  0  0  0  0  0  0
    0.1423    5.5526   -3.5073 O   0  0  0  0  0  0  0  0  0  0  0  0
    2.7034    4.1455   -2.7478 N   0  0  0  0  0  0  0  0  0  0  0  0
    0.5347    0.5728   -1.0758 N   0  0  0  0  0  0  0  0  0  0  0  0
    2.5759    6.0770   -1.2465 C   0  0  0  0  0  0  0  0  0  0  0  0
    2.9959    7.1078   -2.3007 C   0  0  0  0  0  0  0  0  0  0  0  0
    1.8331    4.9094   -1.8428 C   0  0  1  0  0  0  0  0  0  0  0  0
    0.9511    1.9027   -1.5582 C   0  0  1  0  0  0  0  0  0  0  0  0
    2.5158    1.9779   -1.5141 C   0  0  1  0  0  0  0  0  0  0  0  0
    0.3208    2.2391   -2.9686 C   0  0  0  0  0  0  0  0  0  0  0  0
    3.0587    2.8225   -2.6758 C   0  0  0  0  0  0  0  0  0  0  0  0
    1.8279    7.7495   -3.0388 C   0  0  0  0  0  0  0  0  0  0  0  0
    3.7813    8.2128   -1.6349 C   0  0  0  0  0  0  0  0  0  0  0  0
   -1.1891    2.2906   -2.9854 C   0  0  0  0  0  0  0  0  0  0  0  0
    0.4514    5.3194   -2.3365 C   0  0  0  0  0  0  0  0  0  0  0  0
   -1.8977    1.1069   -2.8971 C   0  0  0  0  0  0  0  0  0  0  0  0
   -1.9393    3.4722   -3.0452 C   0  0  0  0  0  0  0  0  0  0  0  0
   -3.2690    1.1217   -2.6838 C   0  0  0  0  0  0  0  0  0  0  0  0
   -3.2794    3.5174   -2.6961 C   0  0  0  0  0  0  0  0  0  0  0  0
   -3.9554    2.3254   -2.5485 C   0  0  0  0  0  0  0  0  0  0  0  0
  2 13  2  0
  3 17  1  0
  4 17  2  0
  5  9  1  0
  5 13  1  0
  7  8  1  0
  8 14  1  0
  8 15  1  0
  9  7  1  6
  9 17  1  0
 10 12  1  0
 10 11  1  0
 10  6  1  6
 11  1  1  1
 11 13  1  0
 12 16  1  0
 16 18  2  0
 16 19  1  0
 18 20  1  0
 19 21  2  0
 20 22  2  0
 21 22  1  0
M  END
>  <DRUGBANK_ID>  (1) 
DB03424

>  <SECONDARY_ACCESSION_NUMBERS>  (1) 
EXPT00673

>  <COMMON_NAME>  (1) 
Ubenimex

>  <CAS_NUMBER>  (1) 
58970-76-6

>  <UNII>  (1) 
I0J33N5627

>  <SYNONYMS>  (1) 
Ubenimex; Ubenimexum

$$$$
