
     RDKit          3D

 28 32  0  0  0  0  0  0  0  0999 V2000
   -2.0762   -0.0567   -0.0592 C   0  0  0  0  0  0  0  0  0  0  0  0
   -0.6337   -0.0921   -0.0042 N   0  0  0  0  0  0  0  0  0  0  0  0
    0.1689   -1.1989   -0.0123 C   0  0  0  0  0  0  0  0  0  0  0  0
    1.4713   -0.7353   -0.0342 C   0  0  0  0  0  0  0  0  0  0  0  0
    1.3316    0.6705   -0.0030 C   0  0  0  0  0  0  0  0  0  0  0  0
    0.0546    1.0624   -0.0051 N   0  0  0  0  0  0  0  0  0  0  0  0
    2.6890   -1.5091   -0.0634 C   0  0  0  0  0  0  0  0  0  0  0  0
    2.8072   -2.4316   -1.2230 C   0  0  0  0  0  0  0  0  0  0  0  0
    3.9379   -3.1488   -1.3065 C   0  0  0  0  0  0  0  0  0  0  0  0
    4.9197   -3.0013   -0.3071 C   0  0  0  0  0  0  0  0  0  0  0  0
    6.0938   -3.5660   -0.1428 N   0  0  0  0  0  0  0  0  0  0  0  0
    6.6450   -3.0411    0.9951 N   0  0  0  0  0  0  0  0  0  0  0  0
    5.7861   -2.1792    1.5241 C   0  0  0  0  0  0  0  0  0  0  0  0
    4.6777   -2.1042    0.7194 N   0  0  0  0  0  0  0  0  0  0  0  0
    3.5649   -1.3237    0.8719 N   0  0  0  0  0  0  0  0  0  0  0  0
    5.9520   -1.4222    2.8023 C   0  0  0  0  0  0  0  0  0  0  0  0
    6.1133   -2.3818    3.9774 C   0  0  0  0  0  0  0  0  0  0  0  0
    7.2014   -3.2649    4.0324 C   0  0  0  0  0  0  0  0  0  0  0  0
    7.2886   -4.2251    5.0423 C   0  0  0  0  0  0  0  0  0  0  0  0
    6.3300   -4.3180    6.0377 C   0  0  0  0  0  0  0  0  0  0  0  0
    5.2608   -3.3957    6.0247 C   0  0  0  0  0  0  0  0  0  0  0  0
    5.1593   -2.4359    5.0023 C   0  0  0  0  0  0  0  0  0  0  0  0
    4.3064   -3.4820    7.0451 C   0  0  0  0  0  0  0  0  0  0  0  0
    4.4245   -4.4683    8.0158 C   0  0  0  0  0  0  0  0  0  0  0  0
    5.4983   -5.3347    7.9341 C   0  0  0  0  0  0  0  0  0  0  0  0
    6.4453   -5.2744    6.9737 N   0  0  0  0  0  0  0  0  0  0  0  0
    7.0444   -0.6019    2.7005 F   0  0  0  0  0  0  0  0  0  0  0  0
    4.9133   -0.5577    3.0182 F   0  0  0  0  0  0  0  0  0  0  0  0
  1  2  1  0
  2  3  1  0
  2  6  1  0
  3  4  2  0
  4  5  1  0
  4  7  1  0
  5  6  2  0
  7  8  1  0
  7 15  2  0
  8  9  2  0
  9 10  1  0
 10 11  2  0
 10 14  1  0
 11 12  1  0
 12 13  2  0
 13 14  1  0
 13 16  1  0
 14 15  1  0
 16 17  1  0
 16 27  1  0
 16 28  1  0
 17 18  2  0
 17 22  1  0
 18 19  1  0
 19 20  2  0
 20 21  1  0
 20 26  1  0
 21 22  2  0
 21 23  1  0
 23 24  2  0
 24 25  1  0
 25 26  2  0
M  END
>  <DRUGBANK_ID>  (1) 
DB13113

>  <COMMON_NAME>  (1) 
JNJ-38877605

>  <CAS_NUMBER>  (1) 
943540-75-8

>  <UNII>  (1) 
15UDG410PN

$$$$
