
     RDKit          3D

 38 41  0  0  1  0  0  0  0  0999 V2000
   -2.2357  -12.0238   -0.6465 C   0  0  0  0  0  0  0  0  0  0  0  0
   -1.5435  -11.1550   -1.6626 C   0  0  2  0  0  0  0  0  0  0  0  0
   -1.4523   -9.6684   -1.3060 C   0  0  0  0  0  0  0  0  0  0  0  0
   -0.2705   -9.0354   -2.0189 C   0  0  0  0  0  0  0  0  0  0  0  0
   -0.5676   -8.5260   -3.4340 C   0  0  1  0  0  0  0  0  0  0  0  0
   -1.3976   -9.4347   -4.3445 C   0  0  0  0  0  0  0  0  0  0  0  0
   -2.0691   -8.9948   -5.2780 O   0  0  0  0  0  0  0  0  0  0  0  0
   -1.2990  -10.9255   -4.0788 C   0  0  0  0  0  0  0  0  0  0  0  0
   -2.2262  -11.3298   -2.9789 N   0  0  0  0  0  0  0  0  0  0  0  0
   -3.8932  -10.6972   -3.2800 S   0  0  0  0  0  0  0  0  0  0  0  0
   -3.8314   -9.2423   -3.1555 O   0  0  0  0  0  0  0  0  0  0  0  0
   -4.2944  -11.3133   -4.5169 O   0  0  0  0  0  0  0  0  0  0  0  0
   -5.0301  -11.1839   -1.9498 C   0  0  0  0  0  0  0  0  0  0  0  0
   -4.8350  -10.7330   -0.6391 C   0  0  0  0  0  0  0  0  0  0  0  0
   -5.5532  -11.3414    0.3819 C   0  0  0  0  0  0  0  0  0  0  0  0
   -6.6398  -12.1259    0.0376 C   0  0  0  0  0  0  0  0  0  0  0  0
   -6.8806  -12.3653   -1.3110 C   0  0  0  0  0  0  0  0  0  0  0  0
   -6.0593  -11.9811   -2.3151 N   0  0  0  0  0  0  0  0  0  0  0  0
   -1.1079   -7.1669   -3.3527 N   0  0  0  0  0  0  0  0  0  0  0  0
   -0.5992   -6.0165   -3.9012 C   0  0  0  0  0  0  0  0  0  0  0  0
   -1.2108   -4.9554   -3.7734 O   0  0  0  0  0  0  0  0  0  0  0  0
    0.7815   -6.0817   -4.5707 C   0  0  2  0  0  0  0  0  0  0  0  0
    1.9119   -5.7822   -3.5741 C   0  0  0  0  0  0  0  0  0  0  0  0
    2.5187   -7.0618   -2.9637 C   0  0  0  0  0  0  0  0  0  0  0  0
    3.1273   -7.9904   -4.0174 C   0  0  0  0  0  0  0  0  0  0  0  0
    3.5664   -6.7302   -1.9118 C   0  0  0  0  0  0  0  0  0  0  0  0
    0.8557   -5.2561   -5.7591 N   0  0  0  0  0  0  0  0  0  0  0  0
    1.0765   -5.6854   -7.0555 C   0  0  0  0  0  0  0  0  0  0  0  0
    1.1685   -4.8224   -7.9284 O   0  0  0  0  0  0  0  0  0  0  0  0
    1.3311   -7.0966   -7.3321 C   0  0  0  0  0  0  0  0  0  0  0  0
    2.3244   -7.6697   -8.1080 C   0  0  0  0  0  0  0  0  0  0  0  0
    2.2071   -9.0769   -7.9897 C   0  0  0  0  0  0  0  0  0  0  0  0
    2.9131  -10.1982   -8.4647 C   0  0  0  0  0  0  0  0  0  0  0  0
    2.4892  -11.4868   -8.1006 C   0  0  0  0  0  0  0  0  0  0  0  0
    1.3666  -11.6668   -7.3003 C   0  0  0  0  0  0  0  0  0  0  0  0
    0.6290  -10.5623   -6.8730 C   0  0  0  0  0  0  0  0  0  0  0  0
    1.0873   -9.2904   -7.2046 C   0  0  0  0  0  0  0  0  0  0  0  0
    0.5412   -8.1003   -6.8159 O   0  0  0  0  0  0  0  0  0  0  0  0
  2  1  1  1
  2  3  1  0
  2  9  1  0
  3  4  1  0
  4  5  1  0
  5  6  1  0
  5 19  1  1
  6  7  2  0
  6  8  1  0
  8  9  1  0
  9 10  1  0
 10 11  2  0
 10 12  2  0
 10 13  1  0
 13 14  2  0
 13 18  1  0
 14 15  1  0
 15 16  2  0
 16 17  1  0
 17 18  2  0
 19 20  1  0
 20 21  2  0
 22 27  1  0
 22 23  1  1
 22 20  1  0
 23 24  1  0
 24 25  1  0
 24 26  1  0
 27 28  1  0
 28 29  2  0
 28 30  1  0
 30 31  2  0
 30 38  1  0
 31 32  1  0
 32 33  2  0
 32 37  1  0
 33 34  1  0
 34 35  2  0
 35 36  1  0
 36 37  2  0
 37 38  1  0
M  END
>  <DRUGBANK_ID>  (1) 
DB06367

>  <COMMON_NAME>  (1) 
Relacatib

>  <CAS_NUMBER>  (1) 
362505-84-8

>  <UNII>  (1) 
BL51M8CB8R

>  <SYNONYMS>  (1) 
Relacatib

$$$$
