
     RDKit          3D

 30 33  0  0  0  0  0  0  0  0999 V2000
    0.9906    0.0829    0.1382 C   0  0  0  0  0  0  0  0  0  0  0  0
    0.5120    1.2295    0.9940 C   0  0  0  0  0  0  0  0  0  0  0  0
    0.9908    2.5145    0.4803 N   0  0  0  0  0  0  0  0  0  0  0  0
   -0.0128    3.4987    0.0671 C   0  0  0  0  0  0  0  0  0  0  0  0
    0.0344    4.7555    0.8902 C   0  0  0  0  0  0  0  0  0  0  0  0
    0.3471    5.9878    0.3025 C   0  0  0  0  0  0  0  0  0  0  0  0
    0.4304    7.1503    1.0574 C   0  0  0  0  0  0  0  0  0  0  0  0
    0.0747    7.1100    2.3975 C   0  0  0  0  0  0  0  0  0  0  0  0
   -0.2974    5.8998    2.9850 C   0  0  0  0  0  0  0  0  0  0  0  0
   -0.2471    4.7151    2.2544 C   0  0  0  0  0  0  0  0  0  0  0  0
    2.3725    2.6905    0.3569 C   0  0  0  0  0  0  0  0  0  0  0  0
    3.1821    1.8797    0.8203 O   0  0  0  0  0  0  0  0  0  0  0  0
    2.9072    3.9597   -0.2946 C   0  0  0  0  0  0  0  0  0  0  0  0
    2.4908    4.2135   -1.6504 N   0  0  0  0  0  0  0  0  0  0  0  0
    2.0442    3.2677   -2.6019 C   0  0  0  0  0  0  0  0  0  0  0  0
    1.6870    3.9825   -3.7239 C   0  0  0  0  0  0  0  0  0  0  0  0
    1.1937    3.2829   -4.7801 C   0  0  0  0  0  0  0  0  0  0  0  0
    1.0428    1.9426   -4.7328 N   0  0  0  0  0  0  0  0  0  0  0  0
    1.3843    1.3171   -3.5799 C   0  0  0  0  0  0  0  0  0  0  0  0
    1.8939    1.9396   -2.4809 N   0  0  0  0  0  0  0  0  0  0  0  0
    1.2215   -0.1546   -3.5712 C   0  0  0  0  0  0  0  0  0  0  0  0
    1.9968   -0.9747   -4.4018 C   0  0  0  0  0  0  0  0  0  0  0  0
    1.9145   -2.3739   -4.3268 C   0  0  0  0  0  0  0  0  0  0  0  0
    1.1019   -2.9846   -3.3749 C   0  0  0  0  0  0  0  0  0  0  0  0
    0.3148   -2.1963   -2.5526 C   0  0  0  0  0  0  0  0  0  0  0  0
    0.2909   -0.8110   -2.7483 C   0  0  0  0  0  0  0  0  0  0  0  0
    1.9145    5.3413   -3.5092 N   0  0  0  0  0  0  0  0  0  0  0  0
    2.4583    5.4945   -2.2284 C   0  0  0  0  0  0  0  0  0  0  0  0
    2.7838    6.5601   -1.7064 O   0  0  0  0  0  0  0  0  0  0  0  0
    1.6378    6.4122   -4.4169 C   0  0  0  0  0  0  0  0  0  0  0  0
  1  2  1  0
  2  3  1  0
  3  4  1  0
  3 11  1  0
  4  5  1  0
  5  6  2  0
  5 10  1  0
  6  7  1  0
  7  8  2  0
  8  9  1  0
  9 10  2  0
 11 12  2  0
 11 13  1  0
 13 14  1  0
 14 15  1  0
 14 28  1  0
 15 16  1  0
 15 20  2  0
 16 17  2  0
 16 27  1  0
 17 18  1  0
 18 19  2  0
 19 20  1  0
 19 21  1  0
 21 22  2  0
 21 26  1  0
 22 23  1  0
 23 24  2  0
 24 25  1  0
 25 26  2  0
 27 28  1  0
 27 30  1  0
 28 29  2  0
M  END
>  <DRUGBANK_ID>  (1) 
DB12666

>  <COMMON_NAME>  (1) 
Emapunil

>  <CAS_NUMBER>  (1) 
226954-04-7

>  <UNII>  (1) 
OG837L732J

>  <SYNONYMS>  (1) 
Emapunil

$$$$
