D1L
     RDKit          3D

 21 22  0  0  0  0  0  0  0  0999 V2000
    1.1307    0.5163    0.5489 O   0  0  0  0  0  0  0  0  0  0  0  0
    0.4478   -0.2920    1.3991 C   0  0  0  0  0  0  0  0  0  0  0  0
    1.0571   -0.9556    2.2146 O   0  0  0  0  0  0  0  0  0  0  0  0
   -1.0808   -0.3568    1.1177 C   0  0  1  0  0  0  0  0  0  0  0  0
   -1.6461    1.0526    0.9545 C   0  0  0  0  0  0  0  0  0  0  0  0
   -1.6624   -1.2387    0.1367 O   0  0  0  0  0  0  0  0  0  0  0  0
   -1.2989   -1.0530   -1.1669 C   0  0  0  0  0  0  0  0  0  0  0  0
    0.0249   -0.9225   -1.5322 C   0  0  0  0  0  0  0  0  0  0  0  0
    0.3993   -0.5552   -2.8092 C   0  0  0  0  0  0  0  0  0  0  0  0
   -2.2514   -1.0909   -2.1823 C   0  0  0  0  0  0  0  0  0  0  0  0
   -1.8494   -0.9292   -3.5261 C   0  0  0  0  0  0  0  0  0  0  0  0
   -0.5264   -0.5830   -3.8364 C   0  0  0  0  0  0  0  0  0  0  0  0
   -0.2150   -0.2965   -5.1490 O   0  0  0  0  0  0  0  0  0  0  0  0
    1.0857    0.0541   -5.4693 C   0  0  0  0  0  0  0  0  0  0  0  0
    2.1459   -0.8448   -5.2705 C   0  0  0  0  0  0  0  0  0  0  0  0
    3.4505   -0.4888   -5.6191 C   0  0  0  0  0  0  0  0  0  0  0  0
    3.6856    0.7290   -6.2523 C   0  0  0  0  0  0  0  0  0  0  0  0
    5.2949    1.1737   -6.6687 Cl  0  0  0  0  0  0  0  0  0  0  0  0
    2.6333    1.6030   -6.5183 C   0  0  0  0  0  0  0  0  0  0  0  0
    1.3436    1.2899   -6.0753 C   0  0  0  0  0  0  0  0  0  0  0  0
    0.1175    2.4962   -6.2167 Cl  0  0  0  0  0  0  0  0  0  0  0  0
  1  2  1  0
  2  3  2  0
  2  4  1  0
  4  5  1  6
  4  6  1  0
  6  7  1  0
  7  8  2  0
  7 10  1  0
  8  9  1  0
  9 12  2  0
 10 11  2  0
 11 12  1  0
 12 13  1  0
 13 14  1  0
 14 15  2  0
 14 20  1  0
 15 16  1  0
 16 17  2  0
 17 18  1  0
 17 19  1  0
 19 20  2  0
 20 21  1  0
M  END
>  <DRUGBANK_ID>  (1) 
DB03781

>  <SECONDARY_ACCESSION_NUMBERS>  (1) 
EXPT01094

>  <COMMON_NAME>  (1) 
2-[4-(2,4-Dichlorophenoxy)Phenoxy]Propanoic Acid

>  <UNII>  (1) 
AAN3U3U7X5

$$$$
