
     RDKit          3D

 41 44  0  0  0  0  0  0  0  0999 V2000
    0.5987    1.3617    0.0531 C   0  0  0  0  0  0  0  0  0  0  0  0
    3.3625   -1.4146   -0.9982 C   0  0  0  0  0  0  0  0  0  0  0  0
    4.7148   -2.7777   -2.8635 C   0  0  0  0  0  0  0  0  0  0  0  0
    4.6294   -8.2670    1.5389 C   0  0  0  0  0  0  0  0  0  0  0  0
    1.2696    0.1885    0.2885 C   0  0  0  0  0  0  0  0  0  0  0  0
    2.8527   -2.7742   -1.1508 C   0  0  0  0  0  0  0  0  0  0  0  0
    5.4460   -3.1331   -1.6947 C   0  0  0  0  0  0  0  0  0  0  0  0
    5.4901   -7.1964    1.3166 C   0  0  0  0  0  0  0  0  0  0  0  0
   -0.7823    1.2994   -0.0396 C   0  0  0  0  0  0  0  0  0  0  0  0
    2.8525   -0.6295   -1.9608 C   0  0  0  0  0  0  0  0  0  0  0  0
    4.5023   -3.5524   -3.9396 C   0  0  0  0  0  0  0  0  0  0  0  0
    4.8797   -8.9049    2.6982 C   0  0  0  0  0  0  0  0  0  0  0  0
   -0.8410   -0.9556    0.0796 C   0  0  0  0  0  0  0  0  0  0  0  0
    1.2881   -2.4806   -2.5738 C   0  0  0  0  0  0  0  0  0  0  0  0
    6.0481   -4.8795   -2.8850 C   0  0  0  0  0  0  0  0  0  0  0  0
    6.2582   -7.1721    3.5102 C   0  0  0  0  0  0  0  0  0  0  0  0
    3.0118   -3.4925    1.0497 C   0  0  0  0  0  0  0  0  0  0  0  0
    1.4299   -5.0290    1.6396 C   0  0  0  0  0  0  0  0  0  0  0  0
    3.7200   -5.6017    1.2520 C   0  0  0  0  0  0  0  0  0  0  0  0
    3.6147   -3.9286    3.1067 C   0  0  0  0  0  0  0  0  0  0  0  0
    0.5132   -0.9771    0.3537 C   0  0  0  0  0  0  0  0  0  0  0  0
    1.7629   -3.4095   -1.7122 C   0  0  0  0  0  0  0  0  0  0  0  0
    5.7966   -4.4238   -1.6240 C   0  0  0  0  0  0  0  0  0  0  0  0
    6.0018   -6.3975    2.4373 C   0  0  0  0  0  0  0  0  0  0  0  0
    0.9658   -2.2864    0.6609 C   0  0  0  0  0  0  0  0  0  0  0  0
    1.3740   -4.9224   -1.3134 C   0  0  0  0  0  0  0  0  0  0  0  0
    6.1710   -4.8572   -0.2874 C   0  0  0  0  0  0  0  0  0  0  0  0
    6.1640   -4.8122    2.7289 C   0  0  0  0  0  0  0  0  0  0  0  0
    2.8815   -4.5897    1.9376 C   0  0  0  0  0  0  0  0  0  0  0  0
   -1.5202    0.1715   -0.0680 N   0  0  0  0  0  0  0  0  0  0  0  0
    1.8286   -1.1376   -2.7412 N   0  0  0  0  0  0  0  0  0  0  0  0
    5.3522   -4.5342   -4.0422 N   0  0  0  0  0  0  0  0  0  0  0  0
    5.7559   -8.4359    3.6326 N   0  0  0  0  0  0  0  0  0  0  0  0
    0.2299   -3.2259    0.2388 O   0  0  0  0  0  0  0  0  0  0  0  0
    1.2639   -5.7210   -2.2462 O   0  0  0  0  0  0  0  0  0  0  0  0
    7.3565   -4.7608    0.0240 O   0  0  0  0  0  0  0  0  0  0  0  0
    7.3018   -4.3521    2.8180 O   0  0  0  0  0  0  0  0  0  0  0  0
    2.1575   -2.3691    1.2570 O   0  0  0  0  0  0  0  0  0  0  0  0
    1.2460   -5.4518    0.0292 O   0  0  0  0  0  0  0  0  0  0  0  0
    5.1085   -4.8656    0.6292 O   0  0  0  0  0  0  0  0  0  0  0  0
    5.1217   -3.8981    2.9246 O   0  0  0  0  0  0  0  0  0  0  0  0
  5  1  2  0
  6  2  2  0
  7  3  2  0
  8  4  2  0
  9  1  1  0
 10  2  1  0
 11  3  1  0
 12  4  1  0
 21  5  1  0
 21 13  2  0
 22  6  1  0
 22 14  2  0
 23  7  1  0
 23 15  2  0
 24  8  1  0
 24 16  2  0
 25 21  1  0
 26 22  1  0
 27 23  1  0
 28 24  1  0
 29 17  1  0
 29 18  1  0
 29 19  1  0
 29 20  1  0
 30  9  2  0
 30 13  1  0
 31 10  2  0
 31 14  1  0
 32 11  2  0
 32 15  1  0
 33 12  2  0
 33 16  1  0
 34 25  2  0
 35 26  2  0
 36 27  2  0
 37 28  2  0
 38 17  1  0
 38 25  1  0
 39 18  1  0
 39 26  1  0
 40 19  1  0
 40 27  1  0
 41 20  1  0
 41 28  1  0
M  END
>  <DRUGBANK_ID>  (1) 
DB13441

>  <COMMON_NAME>  (1) 
Niceritrol

>  <CAS_NUMBER>  (1) 
5868-05-3

>  <UNII>  (1) 
F54EHJ34MV

>  <SYNONYMS>  (1) 
Niceritrol

$$$$
