
     RDKit          3D

 28 31  0  0  1  0  0  0  0  0999 V2000
   -0.9637  -16.3997  -15.1124 C   0  0  0  0  0  0  0  0  0  0  0  0
    4.1366  -16.4488  -11.4055 C   0  0  0  0  0  0  0  0  0  0  0  0
    2.4665  -14.4175  -16.9008 C   0  0  0  0  0  0  0  0  0  0  0  0
    2.7331  -19.5935  -12.5048 C   0  0  0  0  0  0  0  0  0  0  0  0
    3.1683  -19.0247  -13.8422 C   0  0  0  0  0  0  0  0  0  0  0  0
    2.2134  -17.4512   -8.7788 C   0  0  0  0  0  0  0  0  0  0  0  0
    1.8826  -16.9868  -10.0259 C   0  0  0  0  0  0  0  0  0  0  0  0
    2.8519  -16.1390  -15.1524 C   0  0  0  0  0  0  0  0  0  0  0  0
    3.4907  -19.0637  -10.1569 C   0  0  0  0  0  0  0  0  0  0  0  0
    2.0039  -14.4970  -14.3467 C   0  0  0  0  0  0  0  0  0  0  0  0
    2.0011  -17.3231  -18.7574 C   0  0  0  0  0  0  0  0  0  0  0  0
    0.7837  -16.1121  -15.3197 C   0  0  1  0  0  0  0  0  0  0  0  0
    3.0479  -18.6806  -11.3680 C   0  0  0  0  0  0  0  0  0  0  0  0
    3.5747  -17.9204   -9.1827 C   0  0  0  0  0  0  0  0  0  0  0  0
    2.0930  -17.9625  -14.1445 C   0  0  2  0  0  0  0  0  0  0  0  0
    2.4911  -17.3627  -15.5342 C   0  0  1  0  0  0  0  0  0  0  0  0
    1.5231  -15.4485  -13.1068 C   0  0  0  0  0  0  0  0  0  0  0  0
    1.3569  -17.6488  -17.4641 C   0  0  0  0  0  0  0  0  0  0  0  0
    2.7134  -17.2090  -11.4486 C   0  0  2  0  0  0  0  0  0  0  0  0
    1.9898  -15.5934  -16.0468 C   0  0  2  0  0  0  0  0  0  0  0  0
    2.2668  -16.8419  -12.9249 C   0  0  1  0  0  0  0  0  0  0  0  0
    0.9018  -16.3775  -16.7394 C   0  0  2  0  0  0  0  0  0  0  0  0
    3.5575  -18.1039  -18.9119 Cl  0  0  0  0  0  0  0  0  0  0  0  0
    3.5569  -16.5476  -13.3547 F   0  0  0  0  0  0  0  0  0  0  0  0
    4.5423  -17.2360   -8.8696 O   0  0  0  0  0  0  0  0  0  0  0  0
    0.4621  -15.1910  -12.5399 O   0  0  0  0  0  0  0  0  0  0  0  0
    1.0699  -18.7842  -17.0692 O   0  0  0  0  0  0  0  0  0  0  0  0
   -0.3216  -16.5321  -17.3470 O   0  0  0  0  0  0  0  0  0  0  0  0
  5  4  1  0
  7  6  2  0
 12  8  1  0
 12  1  1  1
 13  4  1  0
 13  9  2  0
 14  6  1  0
 14  9  1  0
 15  5  1  1
 16  8  1  1
 16 15  1  0
 17 10  1  0
 18 11  1  0
 19  7  1  0
 19 13  1  0
 19  2  1  1
 20 10  1  0
 20 16  1  0
 20  3  1  6
 21 15  1  0
 21 17  1  0
 21 19  1  0
 21 24  1  6
 22 12  1  0
 22 20  1  0
 22 18  1  0
 22 28  1  6
 23 11  1  0
 25 14  2  0
 26 17  2  0
 27 18  2  0
M  END
>  <DRUGBANK_ID>  (1) 
DB13158

>  <COMMON_NAME>  (1) 
Clobetasone

>  <CAS_NUMBER>  (1) 
54063-32-0

>  <UNII>  (1) 
LT69WY1J6D

>  <SYNONYMS>  (1) 
Clobetasona; Clobetasone

$$$$
