
     RDKit          3D

 32 35  0  0  0  0  0  0  0  0999 V2000
   -1.2112   -1.4428    0.0013 C   0  0  0  0  0  0  0  0  0  0  0  0
    1.2220   -1.4615    0.0778 C   0  0  0  0  0  0  0  0  0  0  0  0
    0.6381   -8.9686    0.1578 C   0  0  0  0  0  0  0  0  0  0  0  0
    2.6613   -9.7739   -0.8227 C   0  0  0  0  0  0  0  0  0  0  0  0
    0.6371  -10.7411   -1.4109 C   0  0  0  0  0  0  0  0  0  0  0  0
   -0.5764   -4.2405   -1.0830 C   0  0  0  0  0  0  0  0  0  0  0  0
    0.0452   -8.3611   -4.8617 C   0  0  0  0  0  0  0  0  0  0  0  0
    0.0014   -2.1424    0.0468 C   0  0  0  0  0  0  0  0  0  0  0  0
    2.0262   -8.8613   -0.0078 C   0  0  0  0  0  0  0  0  0  0  0  0
   -0.1132   -9.8334   -0.6653 C   0  0  0  0  0  0  0  0  0  0  0  0
   -1.1967   -0.0667   -0.0040 C   0  0  0  0  0  0  0  0  0  0  0  0
    1.2102   -0.0804    0.0454 C   0  0  0  0  0  0  0  0  0  0  0  0
   -0.0264   -3.5554   -0.0206 C   0  0  0  0  0  0  0  0  0  0  0  0
   -0.5445   -8.2153   -3.4556 C   0  0  0  0  0  0  0  0  0  0  0  0
    0.0098    0.6284    0.0123 C   0  0  0  0  0  0  0  0  0  0  0  0
   -0.8116   -6.6888   -1.4404 C   0  0  0  0  0  0  0  0  0  0  0  0
   -0.0947   -6.9037   -2.7800 C   0  0  0  0  0  0  0  0  0  0  0  0
   -2.3042   -6.9422   -1.4740 C   0  0  0  0  0  0  0  0  0  0  0  0
   -2.4840   -8.3494   -2.0704 C   0  0  0  0  0  0  0  0  0  0  0  0
    3.0015   -7.3707    0.6306 Br  0  0  0  0  0  0  0  0  0  0  0  0
   -2.3613    0.5968   -0.0377 F   0  0  0  0  0  0  0  0  0  0  0  0
    2.3774    0.5816    0.0273 F   0  0  0  0  0  0  0  0  0  0  0  0
    0.0133    1.9616   -0.0104 F   0  0  0  0  0  0  0  0  0  0  0  0
    1.9950  -10.7315   -1.5028 N   0  0  0  0  0  0  0  0  0  0  0  0
    0.4216   -4.4152    0.9312 N   0  0  0  0  0  0  0  0  0  0  0  0
    0.1287   -5.6373    0.5174 N   0  0  0  0  0  0  0  0  0  0  0  0
   -0.4200   -5.5211   -0.7094 N   0  0  0  0  0  0  0  0  0  0  0  0
    1.4681   -8.4725   -4.7951 O   0  0  0  0  0  0  0  0  0  0  0  0
    1.3309   -6.9298   -2.6162 O   0  0  0  0  0  0  0  0  0  0  0  0
   -2.9071   -6.8758   -0.1763 O   0  0  0  0  0  0  0  0  0  0  0  0
   -1.9485   -8.4119   -3.4049 O   0  0  0  0  0  0  0  0  0  0  0  0
   -1.9260   -9.7972   -0.8646 S   0  0  0  0  0  0  0  0  0  0  0  0
  8  1  2  0
  8  2  1  0
  9  3  2  0
  9  4  1  0
 10  3  1  0
 10  5  2  0
 11  1  1  0
 12  2  2  0
 13  6  2  0
 13  8  1  0
 14  7  1  0
 15 11  2  0
 15 12  1  0
 17 14  1  0
 17 16  1  0
 18 16  1  0
 19 18  1  0
 20  9  1  0
 21 11  1  0
 22 12  1  0
 23 15  1  0
 24  4  2  0
 24  5  1  0
 25 13  1  0
 26 25  2  0
 27  6  1  0
 27 16  1  0
 27 26  1  0
 28  7  1  0
 29 17  1  0
 30 18  1  0
 31 14  1  0
 31 19  1  0
 32 10  1  0
 32 19  1  0
M  END
>  <DRUGBANK_ID>  (1) 
DB17499

>  <COMMON_NAME>  (1) 
GB1211

>  <CAS_NUMBER>  (1) 
1978336-95-6

>  <UNII>  (1) 
94EN2E6BLW

$$$$
