
     RDKit          3D

  7  6  0  0  1  0  0  0  0  0999 V2000
    0.9429   -0.0279    0.0558 C   0  0  0  0  0  0  0  0  0  0  0  0
    0.1604    1.2527   -0.2963 C   0  0  1  0  0  0  0  0  0  0  0  0
   -0.7236    1.0151   -1.5360 C   0  0  0  0  0  0  0  0  0  0  0  0
    2.2885    0.0779   -0.0135 O   0  0  0  0  0  0  0  0  0  0  0  0
    0.4089   -1.0912    0.3561 O   0  0  0  0  0  0  0  0  0  0  0  0
   -0.6313    1.6986    0.8716 N   0  0  0  0  0  0  0  0  0  0  0  0
   -2.0448   -0.2329   -1.3236 S   0  0  0  0  0  0  0  0  0  0  0  0
  2  1  1  0
  2  6  1  1
  3  2  1  0
  4  1  1  0
  5  1  2  0
  7  3  1  0
M  END
>  <DRUGBANK_ID>  (1) 
DB03201

>  <SECONDARY_ACCESSION_NUMBERS>  (1) 
EXPT01139

>  <COMMON_NAME>  (1) 
D-Cysteine

>  <CAS_NUMBER>  (1) 
921-01-7

>  <UNII>  (1) 
IU8WN3PPI2

>  <SYNONYMS>  (1) 
(2S)-2-amino-3-mercaptopropanoic acid; (2S)-2-amino-3-sulfanylpropanoic acid; (S)-2-amino-3-mercaptopropanoic acid; D-Amino-3-mercaptopropionic acid; D-Cystein; D-Zystein

$$$$
