MHB
     RDKit          3D

 19 20  0  0  0  0  0  0  0  0999 V2000
    1.4901   -0.2938   -0.0205 C   0  0  0  0  0  0  0  0  0  0  0  0
    0.5724   -1.3835   -0.0565 C   0  0  0  0  0  0  0  0  0  0  0  0
   -0.8201   -1.1146   -0.0287 C   0  0  0  0  0  0  0  0  0  0  0  0
   -1.3262    0.1842    0.0013 C   0  0  0  0  0  0  0  0  0  0  0  0
   -0.4461    1.2528    0.0324 C   0  0  0  0  0  0  0  0  0  0  0  0
    0.9362    1.0144   -0.0066 C   0  0  0  0  0  0  0  0  0  0  0  0
    4.6872   -1.7071    0.4275 C   0  0  0  0  0  0  0  0  0  0  0  0
    5.4450   -1.0437    1.3776 C   0  0  0  0  0  0  0  0  0  0  0  0
    6.7614   -1.4224    1.6524 C   0  0  0  0  0  0  0  0  0  0  0  0
    7.3194   -2.5034    0.9642 C   0  0  0  0  0  0  0  0  0  0  0  0
    6.5610   -3.2292    0.0544 C   0  0  0  0  0  0  0  0  0  0  0  0
    5.2576   -2.8093   -0.2395 C   0  0  0  0  0  0  0  0  0  0  0  0
    0.8805   -2.8541   -0.1312 C   0  0  0  0  0  0  0  0  0  0  0  0
    7.4834   -0.6706    2.7195 C   0  0  0  0  0  0  0  0  0  0  0  0
    2.9238   -0.3487   -0.0018 N   0  0  0  0  0  0  0  0  0  0  0  0
    3.3130   -1.4579    0.3962 N   0  0  0  0  0  0  0  0  0  0  0  0
    0.0612   -3.7399    0.0968 O   0  0  0  0  0  0  0  0  0  0  0  0
    2.1145   -3.1994   -0.5035 O   0  0  0  0  0  0  0  0  0  0  0  0
    8.6138   -2.8964    1.1425 O   0  0  0  0  0  0  0  0  0  0  0  0
  1  2  2  0
  1  6  1  0
  1 15  1  0
  2  3  1  0
  2 13  1  0
  3  4  2  0
  4  5  1  0
  5  6  2  0
  7  8  2  0
  7 12  1  0
  7 16  1  0
  8  9  1  0
  9 10  2  0
  9 14  1  0
 10 11  1  0
 10 19  1  0
 11 12  2  0
 13 17  2  0
 13 18  1  0
 15 16  2  0
M  END
>  <DRUGBANK_ID>  (1) 
DB08181

>  <COMMON_NAME>  (1) 
2-((3'-METHYL-4'-HYDROXYPHENYL)AZO)BENZOIC ACID

$$$$
