
     RDKit          3D

 43 47  0  0  0  0  0  0  0  0999 V2000
    3.0333   -0.2679    3.8592 C   0  0  0  0  0  0  0  0  0  0  0  0
    4.4650   -1.3374    3.7755 C   0  0  0  0  0  0  0  0  0  0  0  0
    5.0462   -2.9382    2.3702 C   0  0  0  0  0  0  0  0  0  0  0  0
    6.1696   -1.9427    2.7935 C   0  0  0  0  0  0  0  0  0  0  0  0
    7.2498   -1.6267    3.9510 C   0  0  0  0  0  0  0  0  0  0  0  0
    6.5123   -2.4152    1.5572 C   0  0  0  0  0  0  0  0  0  0  0  0
    7.6906   -2.8582    1.1759 C   0  0  0  0  0  0  0  0  0  0  0  0
    7.7338   -3.3567   -0.1909 C   0  0  0  0  0  0  0  0  0  0  0  0
    7.4209   -2.6444   -1.3221 C   0  0  0  0  0  0  0  0  0  0  0  0
    7.0860   -1.2012   -1.3211 C   0  0  0  0  0  0  0  0  0  0  0  0
    8.0796   -0.4301   -2.1531 C   0  0  0  0  0  0  0  0  0  0  0  0
    7.4337   -3.3698   -2.5359 C   0  0  0  0  0  0  0  0  0  0  0  0
    7.1361   -2.7592   -3.8334 C   0  0  0  0  0  0  0  0  0  0  0  0
    7.7554   -4.6685   -2.3537 C   0  0  0  0  0  0  0  0  0  0  0  0
    7.8306   -5.6513   -3.5699 C   0  0  0  0  0  0  0  0  0  0  0  0
    8.1093   -6.9266   -3.5605 C   0  0  0  0  0  0  0  0  0  0  0  0
    8.2398   -7.9507   -4.4284 N   0  0  0  0  0  0  0  0  0  0  0  0
    8.5751   -8.9829   -3.7471 C   0  0  0  0  0  0  0  0  0  0  0  0
    8.7316  -10.2980   -4.3370 C   0  0  0  0  0  0  0  0  0  0  0  0
    8.4876  -11.0899   -3.3421 C   0  0  0  0  0  0  0  0  0  0  0  0
    7.0160   -9.9969   -2.6222 N   0  0  0  0  0  0  0  0  0  0  0  0
    6.5526   -8.6298   -1.0664 C   0  0  0  0  0  0  0  0  0  0  0  0
    5.8693   -6.8460   -0.2303 C   0  0  0  0  0  0  0  0  0  0  0  0
    5.4098   -4.7234    0.9593 C   0  0  0  0  0  0  0  0  0  0  0  0
    5.3855   -3.0068    0.7470 N   0  0  0  0  0  0  0  0  0  0  0  0
    7.5848  -10.6718   -1.3294 C   0  0  0  0  0  0  0  0  0  0  0  0
    8.7654  -12.4822   -0.6706 C   0  0  0  0  0  0  0  0  0  0  0  0
    8.4941  -11.7083   -2.1279 C   0  0  0  0  0  0  0  0  0  0  0  0
    8.2180  -10.7831   -0.9795 C   0  0  0  0  0  0  0  0  0  0  0  0
    6.8094  -10.6365    0.2584 C   0  0  0  0  0  0  0  0  0  0  0  0
    7.2780  -11.8173    0.7821 C   0  0  0  0  0  0  0  0  0  0  0  0
    7.6153  -11.6520    2.0168 O   0  0  0  0  0  0  0  0  0  0  0  0
    7.0912  -12.8488    0.1729 O   0  0  0  0  0  0  0  0  0  0  0  0
    8.8166   -8.4939   -2.3488 C   0  0  0  0  0  0  0  0  0  0  0  0
    9.2381   -9.1918   -0.8654 C   0  0  0  0  0  0  0  0  0  0  0  0
   10.2892   -9.2217    0.0832 C   0  0  0  0  0  0  0  0  0  0  0  0
   10.0265   -7.9710    0.4842 C   0  0  0  0  0  0  0  0  0  0  0  0
    9.7101   -7.7067    1.7368 O   0  0  0  0  0  0  0  0  0  0  0  0
   10.1891   -7.3458   -0.5615 O   0  0  0  0  0  0  0  0  0  0  0  0
    8.2552   -7.3916   -2.3745 C   0  0  0  0  0  0  0  0  0  0  0  0
    8.1920   -6.7603   -1.2550 C   0  0  0  0  0  0  0  0  0  0  0  0
    7.9625   -4.6221   -0.6385 N   0  0  0  0  0  0  0  0  0  0  0  0
    8.2350   -5.7632    0.3894 C   0  0  0  0  0  0  0  0  0  0  0  0
  1  2  1  0
  2  3  1  0
  3  4  2  0
  3 24  1  0
  4  5  1  0
  4  6  1  0
  6  7  2  3
  6 25  1  0
  7  8  1  0
  8  9  2  0
  8 42  1  0
  9 10  1  0
  9 12  1  0
 10 11  1  0
 12 13  1  0
 12 14  2  0
 14 42  1  0
 15 14  1  0
 15 16  2  3
 16 17  1  0
 16 40  1  0
 17 18  2  0
 18 34  1  0
 19 18  1  0
 19 20  2  3
 20 21  1  0
 20 28  1  0
 21 22  1  0
 22 23  2  0
 22 26  1  0
 23 24  1  0
 24 25  2  0
 26 27  1  0
 26 28  2  0
 28 29  1  0
 29 30  1  0
 30 31  1  0
 31 32  1  0
 31 33  2  0
 34 35  1  0
 34 40  2  0
 35 36  1  0
 36 37  1  0
 37 38  1  0
 37 39  2  0
 40 41  1  0
 42 43  1  0
M  END
>  <DRUGBANK_ID>  (1) 
DB01911

>  <SECONDARY_ACCESSION_NUMBERS>  (1) 
EXPT02198

>  <COMMON_NAME>  (1) 
N-Methylmesoporphyrin

>  <CAS_NUMBER>  (1) 
142234-85-3

$$$$
