
     RDKit          3D

 23 24  0  0  0  0  0  0  0  0999 V2000
   -0.1099    1.9906    0.4470 O   0  0  0  0  0  0  0  0  0  0  0  0
    1.0827    1.3979   -0.1008 C   0  0  2  0  0  0  0  0  0  0  0  0
    1.1494   -0.0997    0.3358 C   0  0  1  0  0  0  0  0  0  0  0  0
   -0.0963   -0.8277   -0.1531 C   0  0  2  0  0  0  0  0  0  0  0  0
   -1.2838    1.3758   -0.1278 C   0  0  1  0  0  0  0  0  0  0  0  0
   -1.3622   -0.1003    0.2783 C   0  0  1  0  0  0  0  0  0  0  0  0
    6.0167    1.8458   -1.5066 C   0  0  1  0  0  0  0  0  0  0  0  0
    4.8877    1.0683   -2.1924 C   0  0  1  0  0  0  0  0  0  0  0  0
    5.8978    1.8027   -0.0909 O   0  0  0  0  0  0  0  0  0  0  0  0
    3.5298    1.5744   -1.7257 C   0  0  2  0  0  0  0  0  0  0  0  0
    4.6724    2.3964    0.3870 C   0  0  1  0  0  0  0  0  0  0  0  0
    3.4711    1.6284   -0.1822 C   0  0  1  0  0  0  0  0  0  0  0  0
    7.2727    1.2869   -1.8534 O   0  0  0  0  0  0  0  0  0  0  0  0
    4.9347    1.1308   -3.6237 O   0  0  0  0  0  0  0  0  0  0  0  0
    2.5262    0.6993   -2.2946 O   0  0  0  0  0  0  0  0  0  0  0  0
    2.2310    2.1520    0.3168 O   0  0  0  0  0  0  0  0  0  0  0  0
    4.6797    2.2796    1.9216 C   0  0  0  0  0  0  0  0  0  0  0  0
    5.8308    2.9264    2.4601 O   0  0  0  0  0  0  0  0  0  0  0  0
    2.2686   -0.8677   -0.1346 O   0  0  0  0  0  0  0  0  0  0  0  0
   -0.0889   -2.1785    0.3258 O   0  0  0  0  0  0  0  0  0  0  0  0
   -2.5133   -0.7272   -0.2838 O   0  0  0  0  0  0  0  0  0  0  0  0
   -2.5232    2.1200    0.3649 C   0  0  0  0  0  0  0  0  0  0  0  0
   -2.4681    3.4817   -0.0527 O   0  0  0  0  0  0  0  0  0  0  0  0
  1  5  1  0
  2  1  1  0
  2 16  1  1
  2  3  1  0
  3 19  1  6
  3  4  1  0
  4 20  1  1
  4  6  1  0
  5 22  1  1
  5  6  1  0
  6 21  1  6
  7  8  1  0
  7  9  1  0
  7 13  1  1
  8 10  1  0
  8 14  1  6
  9 11  1  0
 10 12  1  0
 10 15  1  1
 11 12  1  0
 11 17  1  1
 12 16  1  6
 18 17  1  0
 22 23  1  0
M  END
>  <DRUGBANK_ID>  (1) 
DB02061

>  <SECONDARY_ACCESSION_NUMBERS>  (1) 
EXPT00844

>  <COMMON_NAME>  (1) 
Cellobiose

>  <CAS_NUMBER>  (1) 
528-50-7

>  <UNII>  (1) 
BM3MOX055H

>  <SYNONYMS>  (1) 
1-beta-D-Glucopyranosyl-4-D-glucopyranose; 4-beta-d-glucopyranosyl-d-glucopyranose; 4-o-beta-d-glucopyranosyl-d-glucose; 4-O-β-D-glucopyranosyl-D-glucopyranose; 4-β-D-glucopyranosyl-D-glucopyranose; Cellose; D-(+)-cellobiose; D-cellobiose; D-glucosyl-β-(1-4)-D-glucose

$$$$
