
     RDKit          3D

 41 44  0  0  0  0  0  0  0  0999 V2000
    1.7089    0.1139   -0.3123 C   0  0  0  0  0  0  0  0  0  0  0  0
    0.4845   -1.4249   -0.4412 N   0  0  0  0  0  0  0  0  0  0  0  0
   -1.0771   -1.4910    0.0156 C   0  0  0  0  0  0  0  0  0  0  0  0
    0.6099   -2.3962   -1.4788 C   0  0  0  0  0  0  0  0  0  0  0  0
    0.0006   -1.6645   -2.6351 C   0  0  0  0  0  0  0  0  0  0  0  0
    0.2227   -0.1618   -2.7324 N   0  0  0  0  0  0  0  0  0  0  0  0
    1.3399    0.2140   -4.1584 C   0  0  0  0  0  0  0  0  0  0  0  0
   -0.2527    0.7472   -1.3131 C   0  0  0  0  0  0  0  0  0  0  0  0
   -0.2734    1.9794   -1.6886 N   0  0  0  0  0  0  0  0  0  0  0  0
   -0.3136    2.8590   -0.6890 C   0  0  0  0  0  0  0  0  0  0  0  0
   -0.7293    3.9304   -1.3692 O   0  0  0  0  0  0  0  0  0  0  0  0
   -1.4418    4.5175   -0.3787 C   0  0  0  0  0  0  0  0  0  0  0  0
   -2.7743    3.3832    0.5257 C   0  0  0  0  0  0  0  0  0  0  0  0
   -2.3923    2.2043    1.0838 F   0  0  0  0  0  0  0  0  0  0  0  0
   -3.4705    3.7758    1.7349 F   0  0  0  0  0  0  0  0  0  0  0  0
   -3.7616    3.1009   -0.3302 F   0  0  0  0  0  0  0  0  0  0  0  0
   -0.2685    2.7075    0.8559 C   0  0  0  0  0  0  0  0  0  0  0  0
   -0.6188    3.8474    1.9248 N   0  0  0  0  0  0  0  0  0  0  0  0
   -1.5351    5.1473    1.9613 C   0  0  0  0  0  0  0  0  0  0  0  0
   -1.0216    6.2639    2.3098 N   0  0  0  0  0  0  0  0  0  0  0  0
   -1.7028    7.3125    1.7029 C   0  0  0  0  0  0  0  0  0  0  0  0
   -2.8463    7.3897    0.7894 C   0  0  0  0  0  0  0  0  0  0  0  0
   -3.4415    6.2554    0.4782 C   0  0  0  0  0  0  0  0  0  0  0  0
   -2.7064    5.3322    1.1049 N   0  0  0  0  0  0  0  0  0  0  0  0
   -4.5020    5.8673   -0.5614 C   0  0  0  0  0  0  0  0  0  0  0  0
   -4.5358    6.2696   -1.9021 C   0  0  0  0  0  0  0  0  0  0  0  0
   -5.7434    5.8937   -2.4754 N   0  0  0  0  0  0  0  0  0  0  0  0
   -6.2275    6.3044   -3.7835 C   0  0  0  0  0  0  0  0  0  0  0  0
   -6.4606    5.1147   -1.5941 C   0  0  0  0  0  0  0  0  0  0  0  0
   -5.6647    4.9797   -0.4434 C   0  0  0  0  0  0  0  0  0  0  0  0
   -6.1481    4.1134    0.5691 C   0  0  0  0  0  0  0  0  0  0  0  0
   -7.3967    3.4954    0.4627 C   0  0  0  0  0  0  0  0  0  0  0  0
   -8.1976    3.7378   -0.6433 C   0  0  0  0  0  0  0  0  0  0  0  0
   -7.7457    4.5410   -1.6957 C   0  0  0  0  0  0  0  0  0  0  0  0
   -0.0918    1.4280    1.4296 C   0  0  0  0  0  0  0  0  0  0  0  0
    0.0433    0.3648    0.5205 C   0  0  0  0  0  0  0  0  0  0  0  0
    1.3534   -0.8468    1.1570 N   0  0  0  0  0  0  0  0  0  0  0  0
    2.5653   -1.6615   -0.0028 C   0  0  0  0  0  0  0  0  0  0  0  0
    3.0993   -2.7585    0.1665 O   0  0  0  0  0  0  0  0  0  0  0  0
    2.9379   -0.8723   -1.7782 C   0  0  0  0  0  0  0  0  0  0  0  0
    2.8000    0.5512   -2.1989 C   0  0  0  0  0  0  0  0  0  0  0  0
  1  2  1  0
  2  3  1  0
  2  4  1  0
  4  5  1  0
  5  6  1  0
  6  7  1  0
  6  8  1  0
  8  9  2  0
  8 36  1  0
  9 10  1  0
 10 11  1  0
 10 17  2  0
 11 12  1  0
 12 13  1  0
 13 14  1  0
 13 15  1  0
 13 16  1  0
 17 18  1  0
 17 35  1  0
 18 19  1  0
 19 20  2  0
 19 24  1  0
 20 21  1  0
 21 22  2  0
 22 23  1  0
 23 24  2  0
 23 25  1  0
 25 26  2  0
 25 30  1  0
 26 27  1  0
 27 28  1  0
 27 29  1  0
 29 30  2  0
 29 34  1  0
 30 31  1  0
 31 32  2  0
 32 33  1  0
 33 34  2  0
 35 36  2  0
 36 37  1  0
 37 38  1  0
 38 39  2  0
 38 40  1  0
 40 41  2  0
M  END
>  <DRUGBANK_ID>  (1) 
DB16087

>  <COMMON_NAME>  (1) 
Alflutinib

>  <CAS_NUMBER>  (1) 
1869057-83-9

>  <UNII>  (1) 
A49A7A5YN4

$$$$
