
     RDKit          3D

 31 34  0  0  0  0  0  0  0  0999 V2000
   -3.2650    0.3170   -1.6146 C   0  0  0  0  0  0  0  0  0  0  0  0
   -2.0668   -0.8706   -1.2336 C   0  0  0  0  0  0  0  0  0  0  0  0
   -2.2474   -1.9794   -0.0441 C   0  0  0  0  0  0  0  0  0  0  0  0
   -1.5921   -3.1882    0.5235 C   0  0  0  0  0  0  0  0  0  0  0  0
   -2.6866   -2.3861    2.4289 C   0  0  0  0  0  0  0  0  0  0  0  0
   -3.7563   -1.5251    1.8772 C   0  0  0  0  0  0  0  0  0  0  0  0
   -7.3457    0.0185   -0.2106 C   0  0  0  0  0  0  0  0  0  0  0  0
   -6.9044    3.0619   -1.2813 C   0  0  0  0  0  0  0  0  0  0  0  0
   -5.7380    2.1329   -1.0220 C   0  0  0  0  0  0  0  0  0  0  0  0
   -4.8779   -0.6457   -0.1283 C   0  0  1  0  0  0  0  0  0  0  0  0
   -5.8044    0.8551   -1.9176 C   0  0  1  0  0  0  0  0  0  0  0  0
   -4.7353   -0.1374   -1.5106 C   0  0  1  0  0  0  0  0  0  0  0  0
   -7.3085    0.6505   -1.9417 C   0  0  2  0  0  0  0  0  0  0  0  0
   -7.2008    2.4254   -2.6917 C   0  0  1  0  0  0  0  0  0  0  0  0
   -2.7573   -3.4970    1.4270 C   0  0  0  0  0  0  0  0  0  0  0  0
   -3.5963   -4.3533    1.1494 O   0  0  0  0  0  0  0  0  0  0  0  0
   -6.3439   -1.2346   -0.0136 C   0  0  1  0  0  0  0  0  0  0  0  0
   -7.1222   -2.3244    0.5409 O   0  0  0  0  0  0  0  0  0  0  0  0
   -7.7439    3.5879   -3.3690 C   0  0  0  0  0  0  0  0  0  0  0  0
   -7.3191    4.6361   -2.6537 O   0  0  0  0  0  0  0  0  0  0  0  0
   -8.5913    3.6543   -5.2435 C   0  0  0  0  0  0  0  0  0  0  0  0
   -6.5560    3.4143   -4.1175 O   0  0  0  0  0  0  0  0  0  0  0  0
   -8.0832   -0.7271   -2.4081 C   0  0  0  0  0  0  0  0  0  0  0  0
   -3.7583   -1.6808    0.2637 C   0  0  1  0  0  0  0  0  0  0  0  0
   -4.1094   -2.8044   -0.8079 C   0  0  0  0  0  0  0  0  0  0  0  0
   -7.0831    5.0848   -4.6379 C   0  0  0  0  0  0  0  0  0  0  0  0
   -6.6117    5.6364   -5.5588 O   0  0  0  0  0  0  0  0  0  0  0  0
   -8.9237    5.2998   -3.8303 C   0  0  0  0  0  0  0  0  0  0  0  0
  -10.1864    3.7707   -3.7536 C   0  0  0  0  0  0  0  0  0  0  0  0
   -9.6967    2.3466   -3.2841 C   0  0  0  0  0  0  0  0  0  0  0  0
   -9.8043    4.7773   -5.7767 O   0  0  0  0  0  0  0  0  0  0  0  0
  1  2  1  0
  2  3  1  0
  3  4  2  0
  3 24  1  0
  4 15  1  0
  5  6  1  0
  6 24  1  0
  7 13  1  0
  8  9  1  0
 11  9  1  1
 10 17  1  6
 12  1  1  1
 12 10  1  0
 12 11  1  0
 13 14  1  0
 13 11  1  0
 13 23  1  6
 14  8  1  0
 14 19  1  0
 14 22  1  6
 15  5  1  0
 15 16  2  0
 17  7  1  0
 17 18  1  1
 19 21  1  0
 19 20  2  0
 21 31  1  0
 22 26  1  0
 24 10  1  0
 24 25  1  1
 26 27  2  0
 26 28  1  0
 28 29  1  0
 29 30  1  0
M  END
>  <DRUGBANK_ID>  (1) 
DB14540

>  <SECONDARY_ACCESSION_NUMBERS>  (1) 
DBSALT001234

>  <COMMON_NAME>  (1) 
Hydrocortisone butyrate

>  <CAS_NUMBER>  (1) 
13609-67-1

>  <UNII>  (1) 
05RMF7YPWN

>  <SYNONYMS>  (1) 
11β,21-dihydroxy-17α-butyryloxy-4-pregnene-3,20-dione; 17-O-butyrylcortisol; Cortisol 17-butyrate; H-17-B; Hydrocortisone butyrate; Hydrocortisone-17alpha-butyrate

$$$$
