
     RDKit          3D

 21 23  0  0  1  0  0  0  0  0999 V2000
    1.0905    0.0374   -0.0203 O   0  0  0  0  0  0  0  0  0  0  0  0
    0.6172    0.8235    1.0633 C   0  0  0  0  0  0  0  0  0  0  0  0
    1.1238    0.2397    2.3721 C   0  0  2  0  0  0  0  0  0  0  0  0
    0.9175   -1.6005    2.4332 O   0  0  0  0  0  0  0  0  0  0  0  0
   -0.3881   -1.7036    3.7484 C   0  0  2  0  0  0  0  0  0  0  0  0
   -0.9708   -0.3002    3.6055 C   0  0  1  0  0  0  0  0  0  0  0  0
   -1.7058    0.3431    4.6707 O   0  0  0  0  0  0  0  0  0  0  0  0
   -1.4266    1.6754    4.5534 V   0  0  0  0  0  6  0  0  0  0  0  0
   -1.8593    1.5773    2.4088 O   0  0  0  0  0  0  0  0  0  0  0  0
   -3.0287    2.1362    5.9737 O   0  0  0  0  0  0  0  0  0  0  0  0
    0.3944    1.3509    5.2016 O   0  0  0  0  0  0  0  0  0  0  0  0
   -0.3636    1.9209    3.7270 O   0  0  0  0  0  0  0  0  0  0  0  0
    0.2678    0.6458    3.5472 C   0  0  2  0  0  0  0  0  0  0  0  0
    0.0893   -2.0603    5.0922 N   0  0  0  0  0  0  0  0  0  0  0  0
   -0.7889   -2.0625    6.2116 C   0  0  0  0  0  0  0  0  0  0  0  0
   -0.2566   -2.1941    7.5046 C   0  0  0  0  0  0  0  0  0  0  0  0
    0.9745   -2.5817    7.6651 C   0  0  0  0  0  0  0  0  0  0  0  0
    1.4579   -2.6911    8.8354 O   0  0  0  0  0  0  0  0  0  0  0  0
    1.7685   -2.8787    6.5495 N   0  0  0  0  0  0  0  0  0  0  0  0
    1.3495   -2.4639    5.2619 C   0  0  0  0  0  0  0  0  0  0  0  0
    2.1608   -2.4760    4.2838 O   0  0  0  0  0  0  0  0  0  0  0  0
  1  2  1  0
  3  2  1  6
  3  4  1  0
  3 13  1  0
  4  5  1  0
  5  6  1  0
  5 14  1  1
  6  7  1  1
  6 13  1  0
  7  8  1  0
  8  9  1  0
  8 10  1  0
  8 11  2  0
  8 12  1  0
 13 12  1  6
 14 15  1  0
 14 20  1  0
 15 16  2  0
 16 17  1  0
 17 18  2  0
 17 19  1  0
 19 20  1  0
 20 21  2  0
M  END
>  <DRUGBANK_ID>  (1) 
DB03512

>  <SECONDARY_ACCESSION_NUMBERS>  (1) 
EXPT03211

>  <COMMON_NAME>  (1) 
Uridine-2',3'-vanadate

$$$$
