CXZ
     RDKit          3D

 27 30  0  0  0  0  0  0  0  0999 V2000
    2.1259    0.7319    0.0091 C   0  0  0  0  0  0  0  0  0  0  0  0
    0.8961    1.4110   -0.0154 C   0  0  0  0  0  0  0  0  0  0  0  0
   -0.2388    0.6020   -0.0218 C   0  0  0  0  0  0  0  0  0  0  0  0
   -0.2009   -0.7692   -0.0227 C   0  0  0  0  0  0  0  0  0  0  0  0
    1.0378   -1.4191   -0.0082 C   0  0  0  0  0  0  0  0  0  0  0  0
    2.2128   -0.6688    0.0468 C   0  0  0  0  0  0  0  0  0  0  0  0
    3.4475   -1.2636    0.1296 N   0  0  0  0  0  0  0  0  0  0  0  0
    3.7037   -2.6910    0.1649 C   0  0  0  0  0  0  0  0  0  0  0  0
    4.4273   -3.1323   -1.1044 C   0  0  0  0  0  0  0  0  0  0  0  0
    5.8648   -2.8035   -1.2135 N   0  0  0  0  0  0  0  0  0  0  0  0
    6.2085   -1.3721   -1.3981 C   0  0  0  0  0  0  0  0  0  0  0  0
    5.7607   -0.7697   -2.7401 C   0  0  0  0  0  0  0  0  0  0  0  0
    6.2796   -1.5334   -3.8386 O   0  0  0  0  0  0  0  0  0  0  0  0
    5.8884   -2.9068   -3.7245 C   0  0  0  0  0  0  0  0  0  0  0  0
    6.3867   -3.5206   -2.4018 C   0  0  0  0  0  0  0  0  0  0  0  0
   -1.5531   -1.1870   -0.0184 C   0  0  0  0  0  0  0  0  0  0  0  0
   -2.3688   -0.1198   -0.0370 N   0  0  0  0  0  0  0  0  0  0  0  0
   -1.5400    1.0002   -0.0275 O   0  0  0  0  0  0  0  0  0  0  0  0
   -2.0405   -2.5633    0.0121 C   0  0  0  0  0  0  0  0  0  0  0  0
   -2.8371   -3.0264   -1.0478 C   0  0  0  0  0  0  0  0  0  0  0  0
   -3.2931   -4.3475   -1.0621 C   0  0  0  0  0  0  0  0  0  0  0  0
   -2.9652   -5.2160   -0.0199 C   0  0  0  0  0  0  0  0  0  0  0  0
   -2.1595   -4.7816    1.0240 C   0  0  0  0  0  0  0  0  0  0  0  0
   -1.6922   -3.4655    1.0367 C   0  0  0  0  0  0  0  0  0  0  0  0
   -0.8869   -3.1522    2.0991 O   0  0  0  0  0  0  0  0  0  0  0  0
   -3.4092   -6.5090    0.0223 O   0  0  0  0  0  0  0  0  0  0  0  0
   -4.2519   -4.9026   -2.3834 Cl  0  0  0  0  0  0  0  0  0  0  0  0
  1  2  2  0
  1  6  1  0
  2  3  1  0
  3  4  2  0
  3 18  1  0
  4  5  1  0
  4 16  1  0
  5  6  2  0
  6  7  1  0
  7  8  1  0
  8  9  1  0
  9 10  1  0
 10 11  1  0
 10 15  1  0
 11 12  1  0
 12 13  1  0
 13 14  1  0
 14 15  1  0
 16 17  2  0
 16 19  1  0
 17 18  1  0
 19 20  2  0
 19 24  1  0
 20 21  1  0
 21 22  2  0
 21 27  1  0
 22 23  1  0
 22 26  1  0
 23 24  2  0
 24 25  1  0
M  END
>  <DRUGBANK_ID>  (1) 
DB07601

>  <COMMON_NAME>  (1) 
4-chloro-6-{5-[(2-morpholin-4-ylethyl)amino]-1,2-benzisoxazol-3-yl}benzene-1,3-diol

$$$$
