
     RDKit          3D

 35 37  0  0  0  0  0  0  0  0999 V2000
    0.7220    1.2065   -0.0915 C   0  0  0  0  0  0  0  0  0  0  0  0
   -0.6739    1.2820   -0.0939 C   0  0  0  0  0  0  0  0  0  0  0  0
   -1.4544    0.1920   -0.1528 N   0  0  0  0  0  0  0  0  0  0  0  0
   -0.7716   -0.9620   -0.2437 C   0  0  0  0  0  0  0  0  0  0  0  0
    0.6383   -1.0740   -0.2361 C   0  0  0  0  0  0  0  0  0  0  0  0
    1.3679    0.0347   -0.1637 N   0  0  0  0  0  0  0  0  0  0  0  0
    1.6132    2.3543   -0.0077 C   0  0  0  0  0  0  0  0  0  0  0  0
   -1.3653    2.5499   -0.0396 C   0  0  0  0  0  0  0  0  0  0  0  0
    1.5266    3.2534    1.0644 C   0  0  0  0  0  0  0  0  0  0  0  0
    2.3370    4.3795    1.1044 C   0  0  0  0  0  0  0  0  0  0  0  0
    3.2808    4.5858    0.1014 C   0  0  0  0  0  0  0  0  0  0  0  0
    3.4120    3.6733   -0.9445 C   0  0  0  0  0  0  0  0  0  0  0  0
    2.5533    2.5835   -1.0220 C   0  0  0  0  0  0  0  0  0  0  0  0
   -2.1506    2.8755    1.0709 C   0  0  0  0  0  0  0  0  0  0  0  0
   -2.6270    4.1714    1.2131 C   0  0  0  0  0  0  0  0  0  0  0  0
   -2.3012    5.1400    0.2613 C   0  0  0  0  0  0  0  0  0  0  0  0
   -1.5056    4.8216   -0.8362 C   0  0  0  0  0  0  0  0  0  0  0  0
   -1.0915    3.5149   -1.0192 C   0  0  0  0  0  0  0  0  0  0  0  0
    1.3410   -2.2490   -0.1626 N   0  0  0  0  0  0  0  0  0  0  0  0
    0.6452   -3.4805   -0.2817 C   0  0  0  0  0  0  0  0  0  0  0  0
    2.8018   -2.3093    0.0052 C   0  0  0  0  0  0  0  0  0  0  0  0
    3.4450   -1.8017   -1.2707 C   0  0  0  0  0  0  0  0  0  0  0  0
    3.3606   -1.7458    1.3001 C   0  0  0  0  0  0  0  0  0  0  0  0
    0.9319   -4.2976   -1.5084 C   0  0  0  0  0  0  0  0  0  0  0  0
    2.2325   -5.0916   -1.3786 C   0  0  0  0  0  0  0  0  0  0  0  0
    2.4617   -5.8449   -0.0488 C   0  0  0  0  0  0  0  0  0  0  0  0
    1.6243   -6.9889    0.0786 O   0  0  0  0  0  0  0  0  0  0  0  0
    0.2447   -6.7346    0.3621 C   0  0  0  0  0  0  0  0  0  0  0  0
   -0.0869   -5.9378    1.6806 C   0  0  0  0  0  0  0  0  0  0  0  0
   -0.8370   -4.7086    1.5885 N   0  0  0  0  0  0  0  0  0  0  0  0
   -1.0702   -3.5869    2.8249 S   0  0  0  0  0  0  0  0  0  0  0  0
    0.3793   -6.3223    2.7314 O   0  0  0  0  0  0  0  0  0  0  0  0
    0.0356   -2.1542    2.7272 C   0  0  0  0  0  0  0  0  0  0  0  0
   -2.3967   -3.0468    2.5344 O   0  0  0  0  0  0  0  0  0  0  0  0
   -0.7760   -4.2082    4.0767 O   0  0  0  0  0  0  0  0  0  0  0  0
  1  2  1  0
  1  6  2  0
  1  7  1  0
  2  3  2  0
  2  8  1  0
  3  4  1  0
  4  5  2  0
  5  6  1  0
  5 19  1  0
  7  9  2  0
  7 13  1  0
  8 14  2  0
  8 18  1  0
  9 10  1  0
 10 11  2  0
 11 12  1  0
 12 13  2  0
 14 15  1  0
 15 16  2  0
 16 17  1  0
 17 18  2  0
 19 20  1  0
 19 21  1  0
 20 24  1  0
 21 22  1  0
 21 23  1  0
 24 25  1  0
 25 26  1  0
 26 27  1  0
 27 28  1  0
 28 29  1  0
 29 30  1  0
 29 32  2  0
 30 31  1  0
 31 33  1  0
 31 34  2  0
 31 35  2  0
M  END
>  <DRUGBANK_ID>  (1) 
DB11362

>  <COMMON_NAME>  (1) 
Selexipag

>  <CAS_NUMBER>  (1) 
475086-01-2

>  <UNII>  (1) 
5EXC0E384L

>  <SYNONYMS>  (1) 
Selexipag

$$$$
