
     RDKit          3D

 21 22  0  0  0  0  0  0  0  0999 V2000
   -0.1139    1.7195    0.1081 C   0  0  1  0  0  0  0  0  0  0  0  0
    0.8989    0.5645    0.2824 C   0  0  1  0  0  0  0  0  0  0  0  0
    0.5733   -0.6245   -0.6156 C   0  0  2  0  0  0  0  0  0  0  0  0
   -0.5019    2.2234    6.5543 N   0  0  0  0  0  0  0  0  0  0  0  0
   -1.4748    1.2661    0.1829 O   0  0  0  0  0  0  0  0  0  0  0  0
   -0.9037   -1.0012   -0.4585 C   0  0  2  0  0  0  0  0  0  0  0  0
   -1.7581    0.2294   -0.7826 C   0  0  1  0  0  0  0  0  0  0  0  0
    0.1245    2.8288    0.9996 O   0  0  0  0  0  0  0  0  0  0  0  0
   -0.3169    2.4003    5.1113 C   0  0  0  0  0  0  0  0  0  0  0  0
   -1.3315    2.9544    7.1207 O   0  0  0  0  0  0  0  0  0  0  0  0
    0.1592    1.3437    7.1168 O   0  0  0  0  0  0  0  0  0  0  0  0
    2.2478    1.0060    0.1124 O   0  0  0  0  0  0  0  0  0  0  0  0
   -1.0914    3.3250    4.3986 C   0  0  0  0  0  0  0  0  0  0  0  0
    0.6312    1.6181    4.4529 C   0  0  0  0  0  0  0  0  0  0  0  0
    1.4044   -1.7350   -0.2552 O   0  0  0  0  0  0  0  0  0  0  0  0
   -0.0437    2.6038    2.3377 C   0  0  0  0  0  0  0  0  0  0  0  0
   -1.1397   -1.4420    0.8928 O   0  0  0  0  0  0  0  0  0  0  0  0
   -0.9865    3.3859    3.0035 C   0  0  0  0  0  0  0  0  0  0  0  0
    0.8033    1.7778    3.0809 C   0  0  0  0  0  0  0  0  0  0  0  0
   -3.2509   -0.0920   -0.7118 C   0  0  0  0  0  0  0  0  0  0  0  0
   -4.0072    1.0710   -1.0452 O   0  0  0  0  0  0  0  0  0  0  0  0
  1  8  1  1
  2  1  1  0
  2 12  1  6
  3  2  1  0
  3 15  1  1
  4  9  1  0
  5  1  1  0
  6  7  1  0
  6 17  1  1
  6  3  1  0
  7  5  1  0
  7 20  1  1
  9 14  2  0
  9 13  1  0
 10  4  1  0
 11  4  2  0
 13 18  2  0
 14 19  1  0
 16  8  1  0
 18 16  1  0
 19 16  2  0
 21 20  1  0
M  CHG  2   4   1  10  -1
M  END
>  <DRUGBANK_ID>  (1) 
DB02632

>  <SECONDARY_ACCESSION_NUMBERS>  (1) 
EXPT00033

>  <COMMON_NAME>  (1) 
4-nitrophenyl-beta-D-galactoside

>  <CAS_NUMBER>  (1) 
3150-24-1

>  <SYNONYMS>  (1) 
1-O-(4-nitrophenyl)-β-D-galactopyranose; 1-O-(4-nitrophenyl)-β-D-galactose; 1-O-(p-nitrophenyl)-β-D-galactopyranose; 1-O-(p-nitrophenyl)-β-D-galactose; 1-O-[p-nitrophenyl]-beta-D-galactopyranose; 4-Nitrophenyl-beta-D-galactopyranoside; 4-nitrophenyl-β-D-galactopyranoside; 4-nitrophenyl-β-D-galactoside; 4-Nitrophenylgalactoside; p-Nitrophenyl beta-D-galactopyranoside; p-Nitrophenyl-beta-D-galactoside

$$$$
