
     RDKit          3D

 24 24  0  0  0  0  0  0  0  0999 V2000
   -4.0217   -1.0634   -4.8988 C   0  0  1  0  0  0  0  0  0  0  0  0
   -4.9249   -0.2468   -5.6833 O   0  0  0  0  0  0  0  0  0  0  0  0
   -2.9024   -1.4647   -5.8787 C   0  0  1  0  0  0  0  0  0  0  0  0
   -3.3255   -0.4550   -3.6517 C   0  0  1  0  0  0  0  0  0  0  0  0
   -6.0922    0.3084   -5.0434 C   0  0  2  0  0  0  0  0  0  0  0  0
   -2.0433   -0.2338   -6.3459 C   0  0  2  0  0  0  0  0  0  0  0  0
   -2.1762   -2.6108   -5.4154 O   0  0  0  0  0  0  0  0  0  0  0  0
   -3.9946    0.2733   -2.5510 C   0  0  0  0  0  0  0  0  0  0  0  0
   -2.3816   -1.3585   -3.1134 O   0  0  0  0  0  0  0  0  0  0  0  0
   -5.6907    1.6081   -4.6293 O   0  0  0  0  0  0  0  0  0  0  0  0
   -6.6323   -0.6272   -3.9482 C   0  0  1  0  0  0  0  0  0  0  0  0
   -1.7792    1.0333   -5.4672 C   0  0  0  0  0  0  0  0  0  0  0  0
   -2.7239    0.3153   -7.4949 O   0  0  0  0  0  0  0  0  0  0  0  0
   -4.5287   -0.5780   -1.5551 O   0  0  0  0  0  0  0  0  0  0  0  0
   -6.5071    2.2979   -3.6548 C   0  0  1  0  0  0  0  0  0  0  0  0
   -7.4462    0.0743   -2.8634 C   0  0  2  0  0  0  0  0  0  0  0  0
   -7.2558   -1.7986   -4.4894 O   0  0  0  0  0  0  0  0  0  0  0  0
   -2.7675    1.9946   -5.5218 O   0  0  0  0  0  0  0  0  0  0  0  0
   -0.9001    1.1235   -4.6415 O   0  0  0  0  0  0  0  0  0  0  0  0
   -6.9369    1.4621   -2.4107 C   0  0  1  0  0  0  0  0  0  0  0  0
   -5.7260    3.5532   -3.2150 C   0  0  0  0  0  0  0  0  0  0  0  0
   -7.6582   -0.8136   -1.7621 O   0  0  0  0  0  0  0  0  0  0  0  0
   -6.0034    1.5175   -1.3196 O   0  0  0  0  0  0  0  0  0  0  0  0
   -5.3293    4.3146   -4.3539 O   0  0  0  0  0  0  0  0  0  0  0  0
  1  4  1  0
  1  3  1  0
  1  2  1  6
  3  7  1  1
  4  8  1  0
  4  9  1  1
  5 10  1  0
  5 11  1  0
  5  2  1  1
  6 13  1  6
  6 12  1  0
  6  3  1  0
  8 14  1  0
 10 15  1  0
 11 16  1  0
 11 17  1  6
 12 18  1  0
 12 19  2  0
 15 20  1  0
 15 21  1  1
 16 22  1  1
 16 20  1  0
 20 23  1  1
 21 24  1  0
M  END
>  <DRUGBANK_ID>  (1) 
DB16621

>  <COMMON_NAME>  (1) 
Lactobionic acid

>  <CAS_NUMBER>  (1) 
96-82-2

>  <UNII>  (1) 
65R938S4DV

>  <SYNONYMS>  (1) 
Lactobionate

$$$$
