
     RDKit          3D

 25 27  0  0  1  0  0  0  0  0999 V2000
    0.7366   -1.3070    2.1519 C   0  0  0  0  0  0  0  0  0  0  0  0
    2.2727   -2.8872    5.0698 C   0  0  0  0  0  0  0  0  0  0  0  0
    2.2715   -2.3595    6.3554 C   0  0  0  0  0  0  0  0  0  0  0  0
    3.0963   -2.3383    4.0806 C   0  0  0  0  0  0  0  0  0  0  0  0
    3.0691   -1.2546    6.6767 C   0  0  0  0  0  0  0  0  0  0  0  0
    5.2176   -0.5839    2.2189 C   0  0  0  0  0  0  0  0  0  0  0  0
    5.3712    0.4973    4.4659 C   0  0  0  0  0  0  0  0  0  0  0  0
    3.2237   -0.5807   -2.2909 C   0  0  0  0  0  0  0  0  0  0  0  0
    0.4217   -1.1581    0.6672 C   0  0  2  0  0  0  0  0  0  0  0  0
    4.8333   -0.4286    3.5999 C   0  0  0  0  0  0  0  0  0  0  0  0
    3.9048   -1.2174    4.3609 C   0  0  0  0  0  0  0  0  0  0  0  0
    3.8728   -0.7052    5.6613 C   0  0  0  0  0  0  0  0  0  0  0  0
    4.4065   -0.3762    1.1676 C   0  0  0  0  0  0  0  0  0  0  0  0
    2.2453   -1.6561   -2.7166 C   0  0  0  0  0  0  0  0  0  0  0  0
    1.0646    0.1140    0.0280 C   0  0  1  0  0  0  0  0  0  0  0  0
    2.5866   -0.0676    0.1024 C   0  0  0  0  0  0  0  0  0  0  0  0
    4.6549   -0.7128   -0.2661 C   0  0  0  0  0  0  0  0  0  0  0  0
    0.5529    0.4045   -1.3100 N   0  0  0  0  0  0  0  0  0  0  0  0
    4.7572    0.3509    5.6881 N   0  0  0  0  0  0  0  0  0  0  0  0
    3.1373    0.1163    1.2631 N   0  0  0  0  0  0  0  0  0  0  0  0
    3.4194   -0.5407   -0.8476 N   0  0  0  0  0  0  0  0  0  0  0  0
   -1.0045   -1.1507    0.5615 O   0  0  0  0  0  0  0  0  0  0  0  0
    1.2298   -1.4591   -3.3688 O   0  0  0  0  0  0  0  0  0  0  0  0
    2.5391   -2.8933   -2.2886 O   0  0  0  0  0  0  0  0  0  0  0  0
    5.7161   -1.0223   -0.7845 O   0  0  0  0  0  0  0  0  0  0  0  0
  3  2  2  0
  4  2  1  0
  5  3  1  0
  9 22  1  0
  9 15  1  0
  9  1  1  1
 10  6  1  0
 10  7  2  0
 11  4  2  0
 11 10  1  0
 12  5  2  0
 12 11  1  0
 13  6  2  0
 14  8  1  0
 15 18  1  6
 16 15  1  0
 17 13  1  0
 19  7  1  0
 19 12  1  0
 20 13  1  0
 20 16  2  0
 21  8  1  0
 21 16  1  0
 21 17  1  0
 23 14  2  0
 24 14  1  0
 25 17  2  0
M  END
>  <DRUGBANK_ID>  (1) 
DB03914

>  <SECONDARY_ACCESSION_NUMBERS>  (1) 
EXPT01021

>  <COMMON_NAME>  (1) 
[2-(1-amino-2-hydroxy-propyl)-4-(1H-indol-3-ylmethylene)-5-oxo-4,5-dihydro-imidazol-1-yl]-acetaldehyde

$$$$
