535
     RDKit          3D

 26 28  0  0  1  0  0  0  0  0999 V2000
    1.4855    0.9131    0.5706 S   0  0  0  0  0  0  0  0  0  0  0  0
   -5.0362    6.5379   -3.3075 S   0  0  0  0  0  0  0  0  0  0  0  0
   -2.7047   -0.3991    0.6515 O   0  0  0  0  0  0  0  0  0  0  0  0
   -2.2410   -2.7149   -0.6059 O   0  0  0  0  0  0  0  0  0  0  0  0
   -0.9301   -3.8871    0.7515 O   0  0  0  0  0  0  0  0  0  0  0  0
   -2.1827    4.8230    0.4896 O   0  0  0  0  0  0  0  0  0  0  0  0
   -2.1187    1.5887   -2.5942 O   0  0  0  0  0  0  0  0  0  0  0  0
   -0.6077   -0.4869   -0.3528 N   0  0  0  0  0  0  0  0  0  0  0  0
   -1.3247    2.7581    0.4819 N   0  0  0  0  0  0  0  0  0  0  0  0
   -2.8421    2.7835   -2.5951 N   0  0  0  0  0  0  0  0  0  0  0  0
   -2.8534    6.2359   -1.9896 N   0  0  0  0  0  0  0  0  0  0  0  0
   -3.3095    8.4441   -2.6322 N   0  0  0  0  0  0  0  0  0  0  0  0
    0.1221    0.7691   -0.5708 C   0  0  1  0  0  0  0  0  0  0  0  0
   -1.1474    1.4566   -0.1007 C   0  0  1  0  0  0  0  0  0  0  0  0
   -1.6933    0.0947    0.2435 C   0  0  0  0  0  0  0  0  0  0  0  0
   -0.0679   -1.7284   -0.1020 C   0  0  0  0  0  0  0  0  0  0  0  0
    2.2326   -0.6265   -0.0068 C   0  0  0  0  0  0  0  0  0  0  0  0
    1.2913   -1.8458    0.0033 C   0  0  0  0  0  0  0  0  0  0  0  0
   -1.0875   -2.8741    0.0918 C   0  0  0  0  0  0  0  0  0  0  0  0
   -2.0346    3.7955   -0.1758 C   0  0  0  0  0  0  0  0  0  0  0  0
    2.0645   -3.0688    0.2758 C   0  0  0  0  0  0  0  0  0  0  0  0
   -2.7230    3.7150   -1.6542 C   0  0  0  0  0  0  0  0  0  0  0  0
    1.6720   -4.3353    0.1069 C   0  0  0  0  0  0  0  0  0  0  0  0
   -3.4171    4.9602   -2.1106 C   0  0  0  0  0  0  0  0  0  0  0  0
   -4.6197    4.9577   -2.8025 C   0  0  0  0  0  0  0  0  0  0  0  0
   -3.6069    7.1399   -2.5729 C   0  0  0  0  0  0  0  0  0  0  0  0
 13  1  1  1
  1 17  1  0
  2 25  1  0
  2 26  1  0
  3 15  2  0
  4 19  1  0
  5 19  2  0
  6 20  2  0
  7 10  1  0
  8 13  1  0
  8 15  1  0
  8 16  1  0
  9 20  1  0
 10 22  2  0
 11 24  1  0
 11 26  2  0
 12 26  1  0
 13 14  1  0
 14  9  1  1
 14 15  1  0
 16 18  2  0
 16 19  1  0
 17 18  1  0
 18 21  1  0
 20 22  1  0
 21 23  2  0
 22 24  1  0
 24 25  2  0
M  END
>  <DRUGBANK_ID>  (1) 
DB00535

>  <SECONDARY_ACCESSION_NUMBERS>  (1) 
APRD00644

>  <COMMON_NAME>  (1) 
Cefdinir

>  <CAS_NUMBER>  (1) 
91832-40-5

>  <UNII>  (1) 
CI0FAO63WC

>  <SYNONYMS>  (1) 
(6R,7R,Z)-7-(2-(2-aminothiazol-4-yl)-2-(hydroxyimino)acetamido)-8-oxo-3-vinyl-5-thia-1-aza-bicyclo[4.2.0]oct-2-ene-2-carboxylic acid; (6R,7R)-7-{2-(2-Amino-thiazol-4-yl)-2-[(Z)-hydroxyimino]-acetylamino}-8-oxo-3-vinyl-5-thia-1-aza-bicyclo[4.2.0]oct-2-ene-2-carboxylic acid; Cefdinir; Cefdinirum; CFDN

$$$$
