
     RDKit          3D

 31 36  0  0  0  0  0  0  0  0999 V2000
    2.7363    0.2992    0.6826 C   0  0  1  0  0  0  0  0  0  0  0  0
    2.7327   -1.0925    0.0039 C   0  0  0  0  0  0  0  0  0  0  0  0
    1.3470   -1.6911    0.0613 C   0  0  2  0  0  0  0  0  0  0  0  0
    1.7099    1.3407    0.1388 C   0  0  0  0  0  0  0  0  0  0  0  0
    0.2835    0.7365   -0.0626 C   0  0  0  0  0  0  0  0  0  0  0  0
   -0.7872    1.3400   -0.5728 C   0  0  0  0  0  0  0  0  0  0  0  0
   -2.1926    0.8054   -0.3712 C   0  0  0  0  0  0  0  0  0  0  0  0
   -2.4710   -0.5993   -0.7391 C   0  0  2  0  0  0  0  0  0  0  0  0
   -3.8143   -1.1140   -0.0457 C   0  0  2  0  0  0  0  0  0  0  0  0
   -4.9893   -0.1042   -0.0994 C   0  0  0  0  0  0  0  0  0  0  0  0
   -4.9956    0.6681    1.2430 C   0  0  2  0  0  0  0  0  0  0  0  0
   -4.1977    1.8774    1.2679 O   0  0  0  0  0  0  0  0  0  0  0  0
   -4.4504   -0.2915    2.2891 C   0  0  2  0  0  0  0  0  0  0  0  0
   -3.6156    0.6367    3.2098 C   0  0  1  0  0  0  0  0  0  0  0  0
   -3.3135    1.9325    2.4198 C   0  0  1  0  0  0  0  0  0  0  0  0
   -1.9034    1.9036    2.1310 O   0  0  0  0  0  0  0  0  0  0  0  0
   -3.4211    3.2823    3.1593 C   0  0  0  0  0  0  0  0  0  0  0  0
   -2.8813    4.4634    2.3303 C   0  0  0  0  0  0  0  0  0  0  0  0
   -1.4138    4.2760    1.9660 C   0  0  2  0  0  0  0  0  0  0  0  0
   -1.4608    2.9722    1.2916 C   0  0  0  0  0  0  0  0  0  0  0  0
   -0.3277    4.0884    3.0291 C   0  0  0  0  0  0  0  0  0  0  0  0
   -4.3890    0.9821    4.4799 C   0  0  0  0  0  0  0  0  0  0  0  0
   -3.7981   -1.4933    1.4790 C   0  0  1  0  0  0  0  0  0  0  0  0
   -4.6436   -2.7875    1.7195 C   0  0  0  0  0  0  0  0  0  0  0  0
   -2.4752   -1.9880    1.9929 C   0  0  0  0  0  0  0  0  0  0  0  0
   -1.2663   -1.6240    1.2217 C   0  0  0  0  0  0  0  0  0  0  0  0
   -1.2134   -1.3750   -0.3023 C   0  0  2  0  0  0  0  0  0  0  0  0
    0.2553   -0.7153   -0.5306 C   0  0  2  0  0  0  0  0  0  0  0  0
    0.7622   -0.3139   -1.9728 C   0  0  0  0  0  0  0  0  0  0  0  0
    1.2013   -2.1047    1.4240 O   0  0  0  0  0  0  0  0  0  0  0  0
    2.4816    0.1413    2.0844 O   0  0  0  0  0  0  0  0  0  0  0  0
  1  2  1  0
  1  4  1  0
  1 31  1  1
  2  3  1  0
  3 28  1  0
  3 30  1  1
  4  5  1  0
  5  6  2  0
  5 28  1  0
  6  7  1  0
  8  7  1  1
  8  9  1  0
  8 27  1  0
  9 10  1  1
  9 23  1  0
 11 10  1  6
 11 12  1  0
 13 11  1  6
 13 14  1  0
 13 23  1  0
 14 15  1  0
 14 22  1  1
 15 12  1  0
 15 16  1  0
 15 17  1  1
 16 20  1  0
 17 18  1  0
 18 19  1  0
 19 20  1  0
 19 21  1  1
 23 24  1  6
 23 25  1  0
 25 26  1  0
 27 26  1  1
 27 28  1  0
 28 29  1  6
M  END
>  <DRUGBANK_ID>  (1) 
DB15830

>  <COMMON_NAME>  (1) 
Ruscogenin

>  <CAS_NUMBER>  (1) 
472-11-7

>  <UNII>  (1) 
BXI92R2VUJ

$$$$
