
     RDKit          3D

 32 34  0  0  0  0  0  0  0  0999 V2000
    3.0753    0.5349    0.0404 C   0  0  0  0  0  0  0  0  0  0  0  0
    4.3418   -0.0180   -0.0195 N   0  0  0  0  0  0  0  0  0  0  0  0
    4.7104   -1.3640    0.0101 C   0  0  0  0  0  0  0  0  0  0  0  0
    3.8513   -2.5485   -0.0824 N   0  0  0  0  0  0  0  0  0  0  0  0
    2.4554   -2.9903   -0.1824 C   0  0  0  0  0  0  0  0  0  0  0  0
    1.8847   -0.5049    0.7252 C   0  0  0  0  0  0  0  0  0  0  0  0
    0.1005   -0.4975   -0.0708 C   0  0  0  0  0  0  0  0  0  0  0  0
   -0.5241    0.4596   -1.0267 C   0  0  0  0  0  0  0  0  0  0  0  0
    0.5816    1.6211   -1.5371 C   0  0  0  0  0  0  0  0  0  0  0  0
    2.3891    1.6640   -1.1482 C   0  0  0  0  0  0  0  0  0  0  0  0
   -2.2512    0.3647   -0.6628 Cl  0  0  0  0  0  0  0  0  0  0  0  0
    6.0169   -1.4891    0.1065 N   0  0  0  0  0  0  0  0  0  0  0  0
    1.9435   -4.1786    0.0014 N   0  0  0  0  0  0  0  0  0  0  0  0
    1.3535   -2.1149   -0.3461 N   0  0  0  0  0  0  0  0  0  0  0  0
   -5.2532    3.9528    2.1714 C   0  0  0  0  0  0  0  0  0  0  0  0
   -4.2039    3.0139    2.2073 N   0  0  0  0  0  0  0  0  0  0  0  0
   -3.0167    3.1762    1.5508 C   0  0  0  0  0  0  0  0  0  0  0  0
   -2.0497    2.2253    1.7674 N   0  0  0  0  0  0  0  0  0  0  0  0
   -0.7658    2.2811    1.3561 C   0  0  0  0  0  0  0  0  0  0  0  0
   -5.6031    4.5910    0.9686 C   0  0  0  0  0  0  0  0  0  0  0  0
   -6.5113    5.6447    0.9329 C   0  0  0  0  0  0  0  0  0  0  0  0
   -7.1180    6.0576    2.1094 C   0  0  0  0  0  0  0  0  0  0  0  0
   -6.8161    5.4233    3.3144 C   0  0  0  0  0  0  0  0  0  0  0  0
   -5.8778    4.3797    3.3483 C   0  0  0  0  0  0  0  0  0  0  0  0
   -8.2543    7.3465    2.0641 Cl  0  0  0  0  0  0  0  0  0  0  0  0
   -2.7053    4.2168    0.8267 N   0  0  0  0  0  0  0  0  0  0  0  0
   -0.3556    3.3507    0.6991 N   0  0  0  0  0  0  0  0  0  0  0  0
    0.0195    1.1103    1.4321 N   0  0  0  0  0  0  0  0  0  0  0  0
    1.1723    1.1722    0.4287 C   0  0  0  0  0  0  0  0  0  0  0  0
    1.6245   -0.3295   -1.0961 C   0  0  0  0  0  0  0  0  0  0  0  0
    0.2838   -2.0018    1.2756 C   0  0  0  0  0  0  0  0  0  0  0  0
    0.0383   -0.3140    2.1925 C   0  0  0  0  0  0  0  0  0  0  0  0
  1  6  2  0
  1  2  1  0
  2  3  1  0
  3 12  2  0
  3  4  1  0
  4  5  1  0
  5 13  2  0
  5 14  1  0
  6  7  1  0
  7  8  2  0
  8  9  1  0
  8 11  1  0
  9 10  2  0
 10  1  1  0
 14 31  1  0
 15 20  2  0
 15 16  1  0
 16 17  1  0
 17 18  1  0
 17 26  2  0
 18 19  1  0
 19 27  2  0
 19 28  1  0
 20 21  1  0
 21 22  2  0
 22 23  1  0
 22 25  1  0
 23 24  2  0
 24 15  1  0
 28 29  1  0
 28 32  1  0
 29 30  1  0
 30 14  1  0
 31 32  1  0
M  END
>  <DRUGBANK_ID>  (1) 
DB13607

>  <COMMON_NAME>  (1) 
Picloxydine

>  <CAS_NUMBER>  (1) 
5636-92-0

>  <UNII>  (1) 
4YC2PY3AEU

>  <SYNONYMS>  (1) 
Picloxidina; Picloxydine; Picloxydinum

$$$$
