
     RDKit          3D

 14 13  0  0  1  0  0  0  0  0999 V2000
    5.1510   -0.8318    0.1022 O   0  0  0  0  0  0  0  0  0  0  0  0
    4.3783    1.7147   -1.0960 O   0  0  0  0  0  0  0  0  0  0  0  0
    2.7000    1.2254    1.9087 O   0  0  0  0  0  0  0  0  0  0  0  0
    7.1213    2.5721   -0.9887 O   0  0  0  0  0  0  0  0  0  0  0  0
    1.8698   -1.6928    0.2762 O   0  0  0  0  0  0  0  0  0  0  0  0
    8.1305   -0.0816    0.9417 O   0  0  0  0  0  0  0  0  0  0  0  0
    2.8524   -1.6497    2.3117 O   0  0  0  0  0  0  0  0  0  0  0  0
    7.6279    1.9096    1.8606 O   0  0  0  0  0  0  0  0  0  0  0  0
    4.6524    0.3085    0.8201 C   0  0  1  0  0  0  0  0  0  0  0  0
    5.1784    1.5735    0.1046 C   0  0  1  0  0  0  0  0  0  0  0  0
    3.1099    0.3014    0.9025 C   0  0  1  0  0  0  0  0  0  0  0  0
    6.6566    1.4011   -0.3123 C   0  0  2  0  0  0  0  0  0  0  0  0
    2.6124   -1.0993    1.2401 C   0  0  0  0  0  0  0  0  0  0  0  0
    7.5152    1.1232    0.9269 C   0  0  0  0  0  0  0  0  0  0  0  0
  5 13  1  0
  6 14  1  0
  7 13  2  0
  8 14  2  0
  9  1  1  6
 10 12  1  0
 10  9  1  0
 10  2  1  6
 11 13  1  0
 11  9  1  0
 11  3  1  1
 12  4  1  1
 12 14  1  0
M  END
>  <DRUGBANK_ID>  (1) 
DB03603

>  <SECONDARY_ACCESSION_NUMBERS>  (1) 
EXPT01594

>  <COMMON_NAME>  (1) 
Glucaric acid

>  <CAS_NUMBER>  (1) 
87-73-0

>  <UNII>  (1) 
QLZ991V4A2

$$$$
