
     RDKit          3D

 36 40  0  0  1  0  0  0  0  0999 V2000
    0.8701   -0.0749   -0.0304 C   0  0  0  0  0  0  0  0  0  0  0  0
    0.4232   -1.2823    0.7742 C   0  0  0  0  0  0  0  0  0  0  0  0
   -0.3538   -1.0222    1.8906 N   0  0  0  0  0  0  0  0  0  0  0  0
   -1.4745   -0.0833    1.9434 C   0  0  0  0  0  0  0  0  0  0  0  0
   -1.3323    0.8831    3.1342 C   0  0  0  0  0  0  0  0  0  0  0  0
   -1.0475    0.1693    4.3891 N   0  0  0  0  0  0  0  0  0  0  0  0
    0.0250   -0.8454    4.3237 C   0  0  0  0  0  0  0  0  0  0  0  0
   -0.1828   -1.8039    3.1193 C   0  0  0  0  0  0  0  0  0  0  0  0
   -1.8653    0.1964    5.4987 C   0  0  0  0  0  0  0  0  0  0  0  0
   -3.2110   -0.1620    5.4350 C   0  0  0  0  0  0  0  0  0  0  0  0
   -3.9890   -0.2775    6.5956 C   0  0  0  0  0  0  0  0  0  0  0  0
   -3.4782    0.1196    7.8335 C   0  0  0  0  0  0  0  0  0  0  0  0
   -2.1397    0.4867    7.9224 C   0  0  0  0  0  0  0  0  0  0  0  0
   -1.3500    0.5303    6.7630 C   0  0  0  0  0  0  0  0  0  0  0  0
   -4.2315    0.3477    8.9531 O   0  0  0  0  0  0  0  0  0  0  0  0
   -5.6544    0.3058    8.8152 C   0  0  0  0  0  0  0  0  0  0  0  0
   -6.3112    1.3920    7.9205 C   0  0  2  0  0  0  0  0  0  0  0  0
   -5.4773    2.3139    7.0499 C   0  0  0  0  0  0  0  0  0  0  0  0
   -5.1471    3.4343    7.8561 O   0  0  0  0  0  0  0  0  0  0  0  0
   -6.0579    3.4296    8.9752 C   0  0  1  0  0  0  0  0  0  0  0  0
   -5.1929    3.2324   10.2235 C   0  0  0  0  0  0  0  0  0  0  0  0
   -4.1287    4.2105   10.4055 N   0  0  0  0  0  0  0  0  0  0  0  0
   -4.1216    5.5656   10.2248 C   0  0  0  0  0  0  0  0  0  0  0  0
   -2.9554    6.0146   10.7802 C   0  0  0  0  0  0  0  0  0  0  0  0
   -2.1602    4.9619   11.1158 N   0  0  0  0  0  0  0  0  0  0  0  0
   -2.8712    3.8905   10.8388 C   0  0  0  0  0  0  0  0  0  0  0  0
   -6.8807    4.7176    8.9764 C   0  0  0  0  0  0  0  0  0  0  0  0
   -7.3096    5.1795    7.7121 C   0  0  0  0  0  0  0  0  0  0  0  0
   -7.9010    6.4295    7.5633 C   0  0  0  0  0  0  0  0  0  0  0  0
   -7.9895    7.2787    8.6559 C   0  0  0  0  0  0  0  0  0  0  0  0
   -7.6120    6.8465    9.9127 C   0  0  0  0  0  0  0  0  0  0  0  0
   -7.1626    5.5425   10.1002 C   0  0  0  0  0  0  0  0  0  0  0  0
   -6.9012    5.2016   11.7881 Cl  0  0  0  0  0  0  0  0  0  0  0  0
   -8.5929    8.8726    8.4769 Cl  0  0  0  0  0  0  0  0  0  0  0  0
   -6.9835    2.3358    8.7843 O   0  0  0  0  0  0  0  0  0  0  0  0
    0.8427   -2.3929    0.5048 O   0  0  0  0  0  0  0  0  0  0  0  0
  1  2  1  0
  2  3  1  0
  2 36  2  0
  3  4  1  0
  3  8  1  0
  4  5  1  0
  5  6  1  0
  6  7  1  0
  6  9  1  0
  7  8  1  0
  9 10  2  0
  9 14  1  0
 10 11  1  0
 11 12  2  0
 12 13  1  0
 12 15  1  0
 13 14  2  0
 15 16  1  0
 17 16  1  1
 17 18  1  0
 17 35  1  0
 18 19  1  0
 19 20  1  0
 20 21  1  1
 20 27  1  0
 20 35  1  0
 21 22  1  0
 22 23  1  0
 22 26  1  0
 23 24  2  0
 24 25  1  0
 25 26  2  0
 27 28  2  0
 27 32  1  0
 28 29  1  0
 29 30  2  0
 30 31  1  0
 30 34  1  0
 31 32  2  0
 32 33  1  0
M  END
>  <DRUGBANK_ID>  (1) 
DB05667

>  <COMMON_NAME>  (1) 
Levoketoconazole

>  <CAS_NUMBER>  (1) 
142128-57-2

>  <UNII>  (1) 
2DJ8R0NT7K

>  <SYNONYMS>  (1) 
Levoketoconazole

$$$$
