
     RDKit          3D

 10  9  0  0  1  0  0  0  0  0999 V2000
    0.9637    0.0215   -0.0684 O   0  0  0  0  0  0  0  0  0  0  0  0
    0.6206    1.1182   -0.9101 C   0  0  1  0  0  0  0  0  0  0  0  0
    1.1582    2.4362   -0.3626 C   0  0  0  0  0  0  0  0  0  0  0  0
    2.9397    2.5063   -0.1963 S   0  0  0  0  0  0  0  0  0  0  0  0
    3.3791    2.5288   -1.7460 O   0  0  0  0  0  0  0  0  0  0  0  0
    3.2959    3.7839    0.3727 O   0  0  0  0  0  0  0  0  0  0  0  0
    3.3920    1.2521    0.3692 O   0  0  0  0  0  0  0  0  0  0  0  0
    1.0575    0.8515   -2.3494 C   0  0  0  0  0  0  0  0  0  0  0  0
    0.0893    0.9011   -3.2850 O   0  0  0  0  0  0  0  0  0  0  0  0
    2.2235    0.6100   -2.6447 O   0  0  0  0  0  0  0  0  0  0  0  0
  2  1  1  1
  2  3  1  0
  2  8  1  0
  3  4  1  0
  4  5  1  0
  4  6  2  0
  4  7  2  0
  8  9  1  0
  8 10  2  0
M  END
>  <DRUGBANK_ID>  (1) 
DB02334

>  <SECONDARY_ACCESSION_NUMBERS>  (1) 
EXPT00192

>  <COMMON_NAME>  (1) 
(R)-2-Hydroxy-3-Sulfopropanoic Acid

$$$$
