4NH
     RDKit          3D

 27 28  0  0  0  0  0  0  0  0999 V2000
    1.3450    0.0420    0.1019 C   0  0  0  0  0  0  0  0  0  0  0  0
    0.6541   -0.0149    1.4770 C   0  0  0  0  0  0  0  0  0  0  0  0
   -0.6503   -0.8933    1.5179 C   0  0  1  0  0  0  0  0  0  0  0  0
   -1.8256   -0.3576    0.6752 N   0  0  0  0  0  0  0  0  0  0  0  0
   -2.1449    1.1052    1.0518 C   0  0  0  0  0  0  0  0  0  0  0  0
   -0.9786    2.0607    0.8608 C   0  0  0  0  0  0  0  0  0  0  0  0
    0.3415    1.7002    2.0278 S   0  0  0  0  0  0  0  0  0  0  0  0
   -3.3661   -1.2481    0.9105 S   0  0  0  0  0  0  0  0  0  0  0  0
   -3.6371   -1.2302    2.3335 O   0  0  0  0  0  0  0  0  0  0  0  0
   -4.3093   -0.6570   -0.0182 O   0  0  0  0  0  0  0  0  0  0  0  0
   -3.1607   -2.9497    0.4515 C   0  0  0  0  0  0  0  0  0  0  0  0
   -2.4462   -3.7814    1.3038 C   0  0  0  0  0  0  0  0  0  0  0  0
   -2.1158   -5.0824    0.9370 C   0  0  0  0  0  0  0  0  0  0  0  0
   -2.7436   -5.6698   -0.1460 C   0  0  0  0  0  0  0  0  0  0  0  0
   -3.6975   -4.9141   -0.8424 C   0  0  0  0  0  0  0  0  0  0  0  0
   -3.8370   -3.5298   -0.6155 C   0  0  0  0  0  0  0  0  0  0  0  0
   -2.5016   -6.9431   -0.5876 O   0  0  0  0  0  0  0  0  0  0  0  0
   -1.4188   -7.6779    0.0251 C   0  0  0  0  0  0  0  0  0  0  0  0
   -0.0820   -7.0755   -0.2322 C   0  0  0  0  0  0  0  0  0  0  0  0
    0.9746   -6.5354   -0.3900 C   0  0  0  0  0  0  0  0  0  0  0  0
    2.2696   -5.8487   -0.5706 C   0  0  0  0  0  0  0  0  0  0  0  0
    2.0930   -4.6414   -1.3720 N   0  0  0  0  0  0  0  0  0  0  0  0
   -0.1615   -2.2923    1.1230 C   0  0  0  0  0  0  0  0  0  0  0  0
    0.2114   -3.0782    2.0043 O   0  0  0  0  0  0  0  0  0  0  0  0
   -0.0716   -2.6621   -0.1849 N   0  0  0  0  0  0  0  0  0  0  0  0
   -0.3932   -1.8619   -1.2925 O   0  0  0  0  0  0  0  0  0  0  0  0
    1.6949   -0.5399    2.4770 C   0  0  0  0  0  0  0  0  0  0  0  0
  1  2  1  0
  2  3  1  0
  2  7  1  0
  2 27  1  0
  3  4  1  0
  3 23  1  6
  4  5  1  0
  4  8  1  0
  5  6  1  0
  6  7  1  0
  8  9  2  0
  8 10  2  0
  8 11  1  0
 11 12  2  0
 11 16  1  0
 12 13  1  0
 13 14  2  0
 14 15  1  0
 14 17  1  0
 15 16  2  0
 17 18  1  0
 18 19  1  0
 19 20  3  0
 20 21  1  0
 21 22  1  0
 23 24  2  0
 23 25  1  0
 25 26  1  0
M  END
>  <DRUGBANK_ID>  (1) 
DB07121

>  <COMMON_NAME>  (1) 
4-({4-[(4-AMINOBUT-2-YNYL)OXY]PHENYL}SULFONYL)-N-HYDROXY-2,2-DIMETHYLTHIOMORPHOLINE-3-CARBOXAMIDE

$$$$
