
     RDKit          3D

 20 23  0  0  0  0  0  0  0  0999 V2000
    1.5465    1.2984    0.5665 O   0  0  0  0  0  0  0  0  0  0  0  0
   -0.6052   -0.1811   -4.9585 O   0  0  0  0  0  0  0  0  0  0  0  0
   -0.9790    1.0375    2.8177 C   0  0  2  0  0  0  0  0  0  0  0  0
   -1.7428    0.6689    1.2562 C   0  0  1  0  0  0  0  0  0  0  0  0
   -0.4419    2.3283    2.4289 C   0  0  1  0  0  0  0  0  0  0  0  0
   -1.4330    1.6378    0.0259 C   0  0  0  0  0  0  0  0  0  0  0  0
    0.7190    1.0021    1.6540 C   0  0  2  0  0  0  0  0  0  0  0  0
    0.7661    1.1100    3.4732 C   0  0  0  0  0  0  0  0  0  0  0  0
   -1.2285    1.1777   -1.2193 C   0  0  0  0  0  0  0  0  0  0  0  0
   -1.0757    3.3549    1.5754 C   0  0  0  0  0  0  0  0  0  0  0  0
   -1.6468   -0.8332    0.7821 C   0  0  0  0  0  0  0  0  0  0  0  0
   -1.3548    3.0484    0.3135 C   0  0  0  0  0  0  0  0  0  0  0  0
    1.3686    0.0887    2.6988 C   0  0  0  0  0  0  0  0  0  0  0  0
   -0.7441   -0.1857   -1.4521 C   0  0  0  0  0  0  0  0  0  0  0  0
   -0.5495    3.0385    3.9277 C   0  0  0  0  0  0  0  0  0  0  0  0
   -0.5487   -1.1142   -0.2798 C   0  0  0  0  0  0  0  0  0  0  0  0
   -1.6329    1.9752   -2.4429 C   0  0  0  0  0  0  0  0  0  0  0  0
   -0.4527   -0.6211   -2.6781 C   0  0  0  0  0  0  0  0  0  0  0  0
   -0.5768    0.2832   -3.8535 C   0  0  0  0  0  0  0  0  0  0  0  0
   -0.6480    1.7758   -3.5661 C   0  0  0  0  0  0  0  0  0  0  0  0
  2 19  2  0
  3  4  1  0
  3  5  1  0
  3  8  1  6
  4  6  1  0
  4 11  1  6
  5  7  1  0
  5 10  1  0
  5 15  1  1
  6  9  2  0
  6 12  1  0
  7  1  1  1
  7 13  1  0
  8 13  1  0
  9 14  1  0
  9 17  1  0
 10 12  2  0
 11 16  1  0
 14 16  1  0
 14 18  2  0
 17 20  1  0
 18 19  1  0
 19 20  1  0
M  END
>  <DRUGBANK_ID>  (1) 
DB11551

>  <COMMON_NAME>  (1) 
Trenbolone

>  <CAS_NUMBER>  (1) 
10161-33-8

>  <UNII>  (1) 
P53R4420TR

>  <SYNONYMS>  (1) 
17-b-Hydroxyestra-4,9,11-trien-3-one; 17-beta-Hydroxyestra-4,9,11-trien-3-one; 17-Î²-hydroxyestra-4,9,11-trien-3-one; Trenbolone

$$$$
