
     RDKit          3D

 35 39  0  0  1  0  0  0  0  0999 V2000
    0.9964    0.0095   -0.1050 C   0  0  0  0  0  0  0  0  0  0  0  0
    0.5175    0.3039   -1.4235 N   0  0  0  0  0  0  0  0  0  0  0  0
    0.0913   -0.6326   -2.3533 C   0  0  0  0  0  0  0  0  0  0  0  0
    0.0193   -1.8300   -2.1864 O   0  0  0  0  0  0  0  0  0  0  0  0
   -0.2510    0.0006   -3.5625 O   0  0  0  0  0  0  0  0  0  0  0  0
    0.0123    1.3330   -3.2943 C   0  0  0  0  0  0  0  0  0  0  0  0
   -0.1483    2.3737   -4.1816 C   0  0  0  0  0  0  0  0  0  0  0  0
    0.2189    3.6653   -3.7632 C   0  0  0  0  0  0  0  0  0  0  0  0
    0.6982    3.8716   -2.4493 C   0  0  0  0  0  0  0  0  0  0  0  0
    0.8236    2.7963   -1.5550 C   0  0  0  0  0  0  0  0  0  0  0  0
    0.4866    1.5413   -2.0173 C   0  0  0  0  0  0  0  0  0  0  0  0
    0.1199    4.7346   -4.7097 N   0  0  0  0  0  0  0  0  0  0  0  0
    1.1961    5.5711   -4.9844 C   0  0  0  0  0  0  0  0  0  0  0  0
    1.1913    6.4611   -5.9882 C   0  0  0  0  0  0  0  0  0  0  0  0
    2.3006    7.4347   -6.1545 C   0  0  0  0  0  0  0  0  0  0  0  0
    2.0440    8.4982   -6.9546 O   0  0  0  0  0  0  0  0  0  0  0  0
    3.3615    7.3278   -5.5586 O   0  0  0  0  0  0  0  0  0  0  0  0
   -0.0132    6.5226   -6.8296 C   0  0  0  0  0  0  0  0  0  0  0  0
   -0.0568    7.3919   -7.7108 O   0  0  0  0  0  0  0  0  0  0  0  0
   -1.1602    5.9011   -6.3153 N   0  0  0  0  0  0  0  0  0  0  0  0
   -2.1794    6.9156   -6.2584 C   0  0  2  0  0  0  0  0  0  0  0  0
   -1.4995    8.0128   -5.3266 C   0  0  0  0  0  0  0  0  0  0  0  0
   -2.5762    9.0039   -5.1879 C   0  0  0  0  0  0  0  0  0  0  0  0
   -3.5867    7.9996   -4.7591 C   0  0  0  0  0  0  0  0  0  0  0  0
   -4.3771    8.0519   -3.6412 C   0  0  0  0  0  0  0  0  0  0  0  0
   -5.3405    7.0507   -3.5189 C   0  0  0  0  0  0  0  0  0  0  0  0
   -5.5664    6.1488   -4.5714 C   0  0  0  0  0  0  0  0  0  0  0  0
   -4.5983    5.9773   -5.5697 C   0  0  0  0  0  0  0  0  0  0  0  0
   -3.5125    6.8368   -5.5511 C   0  0  0  0  0  0  0  0  0  0  0  0
   -4.2045    9.1319   -2.6164 C   0  0  0  0  0  0  0  0  0  0  0  0
   -5.3247    9.8881   -2.5117 F   0  0  0  0  0  0  0  0  0  0  0  0
   -3.9284    8.6403   -1.3803 F   0  0  0  0  0  0  0  0  0  0  0  0
   -3.2019   10.0221   -2.8562 F   0  0  0  0  0  0  0  0  0  0  0  0
   -1.1375    4.9298   -5.3184 C   0  0  0  0  0  0  0  0  0  0  0  0
   -2.1540    4.3297   -4.9688 O   0  0  0  0  0  0  0  0  0  0  0  0
  1  2  1  0
  2  3  1  0
  2 11  1  0
  3  4  2  0
  3  5  1  0
  5  6  1  0
  6  7  1  0
  6 11  2  0
  7  8  2  0
  8  9  1  0
  8 12  1  0
  9 10  2  0
 10 11  1  0
 12 13  1  0
 12 34  1  0
 13 14  2  0
 14 15  1  0
 14 18  1  0
 15 16  1  0
 15 17  2  0
 18 19  2  0
 18 20  1  0
 20 34  1  0
 21 20  1  1
 21 22  1  0
 21 29  1  0
 22 23  1  0
 23 24  1  0
 24 25  1  0
 24 29  2  0
 25 26  2  0
 25 30  1  0
 26 27  1  0
 27 28  2  0
 28 29  1  0
 30 31  1  0
 30 32  1  0
 30 33  1  0
 34 35  2  0
M  END
>  <DRUGBANK_ID>  (1) 
DB15085

>  <COMMON_NAME>  (1) 
Fulacimstat

>  <CAS_NUMBER>  (1) 
1488354-15-9

>  <UNII>  (1) 
VIR72PP4ZU

>  <SYNONYMS>  (1) 
BAY1142524; Fulacimstat

$$$$
