PBB
     RDKit          3D

 15 15  0  0  0  0  0  0  0  0999 V2000
    1.0337    0.1560   -0.0056 C   0  0  1  0  0  0  0  0  0  0  0  0
    0.7067    0.0108   -1.5073 C   0  0  0  0  0  0  0  0  0  0  0  0
    1.3965   -0.5459   -2.3529 O   0  0  0  0  0  0  0  0  0  0  0  0
   -0.4941    0.5239   -1.8675 O   0  0  0  0  0  0  0  0  0  0  0  0
    0.5154    1.4728    0.4598 N   0  0  0  0  0  0  0  0  0  0  0  0
    0.5351   -0.9481    0.9572 C   0  0  0  0  0  0  0  0  0  0  0  0
    1.1545   -2.6549    0.6895 S   0  0  0  0  0  0  0  0  0  0  0  0
   -5.7784   -3.1396   -0.9226 Br  0  0  0  0  0  0  0  0  0  0  0  0
   -1.0802   -3.1290   -0.9512 C   0  0  0  0  0  0  0  0  0  0  0  0
   -1.7765   -4.3315   -1.0122 C   0  0  0  0  0  0  0  0  0  0  0  0
   -3.1767   -4.3364   -1.0089 C   0  0  0  0  0  0  0  0  0  0  0  0
   -3.8953   -3.1404   -0.9884 C   0  0  0  0  0  0  0  0  0  0  0  0
   -3.2286   -1.9354   -0.9651 C   0  0  0  0  0  0  0  0  0  0  0  0
   -1.8434   -1.9560   -0.9182 C   0  0  0  0  0  0  0  0  0  0  0  0
    0.4267   -3.1254   -0.9111 C   0  0  0  0  0  0  0  0  0  0  0  0
  1  6  1  0
  1  5  1  1
  1  2  1  0
  2  3  2  0
  2  4  1  0
  6  7  1  0
  7 15  1  0
  8 12  1  0
  9 10  2  0
  9 14  1  0
  9 15  1  0
 10 11  1  0
 11 12  2  0
 12 13  1  0
 13 14  2  0
M  END
>  <DRUGBANK_ID>  (1) 
DB08370

>  <COMMON_NAME>  (1) 
S-(4-BROMOBENZYL)CYSTEINE

$$$$
