
     RDKit          3D

 28 30  0  0  1  0  0  0  0  0999 V2000
    1.3243    0.4914    0.0509 C   0  0  0  0  0  0  0  0  0  0  0  0
    1.9459    0.6434   -1.2085 O   0  0  0  0  0  0  0  0  0  0  0  0
    1.1217    0.7002   -2.4295 C   0  0  0  0  0  0  0  0  0  0  0  0
    0.4628   -0.8241   -2.8054 C   0  0  2  0  0  0  0  0  0  0  0  0
    0.8028   -1.8951   -1.8770 O   0  0  0  0  0  0  0  0  0  0  0  0
   -0.1290   -2.1491   -0.8745 C   0  0  0  0  0  0  0  0  0  0  0  0
   -1.2039   -1.3416   -0.7738 N   0  0  0  0  0  0  0  0  0  0  0  0
   -1.8005   -1.2212    0.4386 C   0  0  0  0  0  0  0  0  0  0  0  0
   -2.8420   -0.1465    0.6159 C   0  0  0  0  0  0  0  0  0  0  0  0
   -1.4202   -1.9897    1.5135 C   0  0  0  0  0  0  0  0  0  0  0  0
   -0.3731   -2.8673    1.2975 C   0  0  0  0  0  0  0  0  0  0  0  0
   -0.0091   -3.8521    2.3686 C   0  0  0  0  0  0  0  0  0  0  0  0
    0.3141   -2.9239    0.1291 N   0  0  0  0  0  0  0  0  0  0  0  0
    0.7402   -1.4140   -4.2384 C   0  0  0  0  0  0  0  0  0  0  0  0
    0.0372   -1.2207   -5.2365 O   0  0  0  0  0  0  0  0  0  0  0  0
    1.8610   -2.1614   -4.4048 O   0  0  0  0  0  0  0  0  0  0  0  0
    0.0632    1.9031   -2.2720 C   0  0  0  0  0  0  0  0  0  0  0  0
   -0.9601    1.8516   -1.3378 C   0  0  0  0  0  0  0  0  0  0  0  0
   -1.6757    2.9805   -0.8894 C   0  0  0  0  0  0  0  0  0  0  0  0
   -1.3303    4.2449   -1.3318 C   0  0  0  0  0  0  0  0  0  0  0  0
   -0.3482    4.3465   -2.2867 C   0  0  0  0  0  0  0  0  0  0  0  0
    0.1751    3.1780   -2.8524 C   0  0  0  0  0  0  0  0  0  0  0  0
    2.2556    1.0823   -3.4231 C   0  0  0  0  0  0  0  0  0  0  0  0
    2.6914    2.3671   -3.7339 C   0  0  0  0  0  0  0  0  0  0  0  0
    3.3845    2.6511   -4.9073 C   0  0  0  0  0  0  0  0  0  0  0  0
    3.8955    1.6064   -5.6512 C   0  0  0  0  0  0  0  0  0  0  0  0
    3.8113    0.3306   -5.1217 C   0  0  0  0  0  0  0  0  0  0  0  0
    3.0802    0.1177   -3.9559 C   0  0  0  0  0  0  0  0  0  0  0  0
  1  2  1  0
  2  3  1  0
  3 17  1  0
  3 23  1  0
  4 14  1  0
  4  5  1  1
  4  3  1  0
  5  6  1  0
  6  7  2  0
  6 13  1  0
  7  8  1  0
  8  9  1  0
  8 10  2  0
 10 11  1  0
 11 12  1  0
 11 13  2  0
 14 15  2  0
 14 16  1  0
 17 18  2  0
 17 22  1  0
 18 19  1  0
 19 20  2  0
 20 21  1  0
 21 22  2  0
 23 24  2  0
 23 28  1  0
 24 25  1  0
 25 26  2  0
 26 27  1  0
 27 28  2  0
M  END
>  <DRUGBANK_ID>  (1) 
DB06403

>  <COMMON_NAME>  (1) 
Ambrisentan

>  <CAS_NUMBER>  (1) 
177036-94-1

>  <UNII>  (1) 
HW6NV07QEC

>  <SYNONYMS>  (1) 
(2S)-2-[(4,6-dimethylpyrimidin-2-yl)oxy]-3-methoxy- 3,3-diphenylpropanoic acid; Ambrisentan

$$$$
