
     RDKit          3D

 35 40  0  0  1  0  0  0  0  0999 V2000
    0.6454   -1.2495    0.2835 C   0  0  0  0  0  0  0  0  0  0  0  0
   -0.8272   -1.2225   -0.1782 C   0  0  0  0  0  0  0  0  0  0  0  0
   -1.4311    0.0296    0.2536 N   0  0  0  0  0  0  0  0  0  0  0  0
   -0.7618    1.2376   -0.2034 C   0  0  0  0  0  0  0  0  0  0  0  0
    0.7357    1.1888    0.2485 C   0  0  2  0  0  0  0  0  0  0  0  0
    1.4956    2.3620   -0.3868 C   0  0  0  0  0  0  0  0  0  0  0  0
    1.0463    3.7309    0.0576 C   0  0  0  0  0  0  0  0  0  0  0  0
    1.4757    4.2870    1.2689 C   0  0  0  0  0  0  0  0  0  0  0  0
    1.1334    5.6018    1.5945 C   0  0  0  0  0  0  0  0  0  0  0  0
    0.3698    6.3665    0.7124 C   0  0  0  0  0  0  0  0  0  0  0  0
   -0.0692    5.8145   -0.4875 C   0  0  0  0  0  0  0  0  0  0  0  0
    0.2326    4.4910   -0.7934 C   0  0  0  0  0  0  0  0  0  0  0  0
    1.4245   -0.0759   -0.1686 N   0  0  0  0  0  0  0  0  0  0  0  0
   -2.5892    0.0967    0.9858 C   0  0  0  0  0  0  0  0  0  0  0  0
   -3.6585    0.7753    0.5272 N   0  0  0  0  0  0  0  0  0  0  0  0
   -4.8607    0.8172    1.2428 N   0  0  0  0  0  0  0  0  0  0  0  0
   -4.9694    0.2045    2.4420 C   0  0  0  0  0  0  0  0  0  0  0  0
   -6.2109    0.4590    3.2121 C   0  0  0  0  0  0  0  0  0  0  0  0
   -6.1164    1.1550    4.4211 C   0  0  0  0  0  0  0  0  0  0  0  0
   -7.2106    1.5117    5.2145 C   0  0  0  0  0  0  0  0  0  0  0  0
   -7.0526    2.4555    6.2274 C   0  0  0  0  0  0  0  0  0  0  0  0
   -8.1526    3.0265    6.8378 C   0  0  0  0  0  0  0  0  0  0  0  0
   -8.9545    2.0296    7.2876 C   0  0  0  0  0  0  0  0  0  0  0  0
   -9.3320    1.1643    6.2230 C   0  0  0  0  0  0  0  0  0  0  0  0
   -8.4854    0.9721    5.0127 C   0  0  0  0  0  0  0  0  0  0  0  0
   -8.6143    0.3426    3.6948 C   0  0  0  0  0  0  0  0  0  0  0  0
   -7.5040    0.0937    2.8197 C   0  0  0  0  0  0  0  0  0  0  0  0
   -3.8681   -0.4856    2.9799 C   0  0  0  0  0  0  0  0  0  0  0  0
   -2.6802   -0.5274    2.2234 C   0  0  0  0  0  0  0  0  0  0  0  0
   -3.9377   -1.1793    4.2801 C   0  0  0  0  0  0  0  0  0  0  0  0
   -3.1397   -0.8086    5.3696 C   0  0  0  0  0  0  0  0  0  0  0  0
   -3.2846   -1.4967    6.5665 C   0  0  0  0  0  0  0  0  0  0  0  0
   -4.1519   -2.5140    6.7503 N   0  0  0  0  0  0  0  0  0  0  0  0
   -4.9242   -2.8478    5.6977 C   0  0  0  0  0  0  0  0  0  0  0  0
   -4.8568   -2.2186    4.4675 C   0  0  0  0  0  0  0  0  0  0  0  0
  1  2  1  0
  1 13  1  0
  2  3  1  0
  3  4  1  0
  3 14  1  0
  4  5  1  0
  5 13  1  0
  5  6  1  6
  6  7  1  0
  7  8  2  0
  7 12  1  0
  8  9  1  0
  9 10  2  0
 10 11  1  0
 11 12  2  0
 14 15  2  0
 14 29  1  0
 15 16  1  0
 16 17  2  0
 17 18  1  0
 17 28  1  0
 18 19  2  0
 18 27  1  0
 19 20  1  0
 20 21  2  0
 20 25  1  0
 21 22  1  0
 22 23  2  0
 23 24  1  0
 24 25  2  0
 25 26  1  0
 26 27  2  0
 28 29  2  0
 28 30  1  0
 30 31  2  0
 30 35  1  0
 31 32  1  0
 32 33  2  0
 33 34  1  0
 34 35  2  0
M  END
>  <DRUGBANK_ID>  (1) 
DB01988

>  <SECONDARY_ACCESSION_NUMBERS>  (1) 
EXPT00289

>  <COMMON_NAME>  (1) 
6((S)-3-Benzylpiperazin-1-Yl)-3-(Naphthalen-2-Yl)-4-(Pyridin-4-Yl)Pyrazine

$$$$
