
     RDKit          3D

 23 26  0  0  0  0  0  0  0  0999 V2000
   -0.8408    1.6679    0.0017 C   0  0  0  0  0  0  0  0  0  0  0  0
   -1.9283    0.8658    0.0133 N   0  0  0  0  0  0  0  0  0  0  0  0
   -1.4440   -0.3763    0.0014 N   0  0  0  0  0  0  0  0  0  0  0  0
    0.3541    0.8950   -0.0065 C   0  0  0  0  0  0  0  0  0  0  0  0
   -1.0367    3.1247    0.0006 C   0  0  0  0  0  0  0  0  0  0  0  0
   -0.0769   -0.4318    0.0133 C   0  0  0  0  0  0  0  0  0  0  0  0
    0.0924    3.9464    0.0207 N   0  0  0  0  0  0  0  0  0  0  0  0
   -2.1884    3.5592   -0.0204 O   0  0  0  0  0  0  0  0  0  0  0  0
   -2.3542   -1.4968   -0.0542 C   0  0  0  0  0  0  0  0  0  0  0  0
    1.7384    1.1484   -0.0289 C   0  0  0  0  0  0  0  0  0  0  0  0
    0.8087   -1.5132    0.0308 C   0  0  0  0  0  0  0  0  0  0  0  0
    2.6348    0.0844   -0.0141 C   0  0  0  0  0  0  0  0  0  0  0  0
    2.1746   -1.2250    0.0219 C   0  0  0  0  0  0  0  0  0  0  0  0
    0.0982    5.4178    0.0272 C   0  0  2  0  0  0  0  0  0  0  0  0
    0.7740    5.9817    1.2943 C   0  0  0  0  0  0  0  0  0  0  0  0
   -1.2988    5.9943   -0.1467 C   0  0  0  0  0  0  0  0  0  0  0  0
   -1.4288    7.4882    0.0834 C   0  0  1  0  0  0  0  0  0  0  0  0
    0.5410    7.5100    1.4676 C   0  0  2  0  0  0  0  0  0  0  0  0
   -2.3547    7.7419    1.2956 C   0  0  0  0  0  0  0  0  0  0  0  0
   -0.2891    7.8063    2.7348 C   0  0  0  0  0  0  0  0  0  0  0  0
   -1.7231    7.2981    2.6180 C   0  0  0  0  0  0  0  0  0  0  0  0
   -0.0859    8.0505    0.2483 N   0  0  0  0  0  0  0  0  0  0  0  0
   -0.1011    9.5041    0.1783 C   0  0  0  0  0  0  0  0  0  0  0  0
  2  1  2  0
  3  2  1  0
  4  1  1  0
  5  1  1  0
  6  3  1  0
  6  4  2  0
  7  5  1  0
  8  5  2  0
  9  3  1  0
 10  4  1  0
 11  6  1  0
 12 10  2  0
 13 11  2  0
 13 12  1  0
 14  7  1  1
 15 14  1  0
 16 14  1  0
 17 16  1  1
 17 22  1  0
 18 15  1  6
 18 22  1  0
 19 17  1  0
 20 18  1  0
 21 19  1  0
 21 20  1  0
 22 23  1  0
M  END
>  <DRUGBANK_ID>  (1) 
DB00889

>  <SECONDARY_ACCESSION_NUMBERS>  (1) 
APRD01002

>  <COMMON_NAME>  (1) 
Granisetron

>  <CAS_NUMBER>  (1) 
109889-09-0

>  <UNII>  (1) 
WZG3J2MCOL

>  <SYNONYMS>  (1) 
Granisétron; Granisetrón; Granisetron; Granisetronum

$$$$
