SDN
     RDKit          3D

 21 23  0  0  0  0  0  0  0  0999 V2000
    0.9418   -0.0673    0.2002 O   0  0  0  0  0  0  0  0  0  0  0  0
    0.3348   -1.2675    0.4250 C   0  0  0  0  0  0  0  0  0  0  0  0
   -0.7388   -1.6851   -0.3523 C   0  0  0  0  0  0  0  0  0  0  0  0
   -1.1146   -0.9191   -1.5452 C   0  0  0  0  0  0  0  0  0  0  0  0
   -0.3033   -0.2477   -2.1781 O   0  0  0  0  0  0  0  0  0  0  0  0
   -2.5235   -1.0969   -1.9581 C   0  0  0  0  0  0  0  0  0  0  0  0
   -3.1765   -0.0717   -2.5194 C   0  0  0  0  0  0  0  0  0  0  0  0
   -4.4948   -0.1510   -2.8800 O   0  0  0  0  0  0  0  0  0  0  0  0
   -2.5479    1.2760   -2.7473 C   0  0  0  0  0  0  0  0  0  0  0  0
    0.7353   -2.0367    1.5031 C   0  0  0  0  0  0  0  0  0  0  0  0
    0.0396   -3.2093    1.8153 C   0  0  0  0  0  0  0  0  0  0  0  0
   -1.0655   -3.6126    1.0603 C   0  0  0  0  0  0  0  0  0  0  0  0
   -1.4701   -2.8450   -0.0290 C   0  0  0  0  0  0  0  0  0  0  0  0
   -2.6452   -3.2331   -0.8147 C   0  0  0  0  0  0  0  0  0  0  0  0
   -3.1500   -2.3711   -1.7106 C   0  0  0  0  0  0  0  0  0  0  0  0
   -4.3601   -2.6711   -2.5154 C   0  0  0  0  0  0  0  0  0  0  0  0
   -5.0703   -1.4432   -3.1188 C   0  0  1  0  0  0  0  0  0  0  0  0
   -6.4935   -1.4560   -2.5740 C   0  0  0  0  0  0  0  0  0  0  0  0
   -7.3556   -0.4045   -3.1866 C   0  0  0  0  0  0  0  0  0  0  0  0
   -8.3550   -0.6176   -3.8572 O   0  0  0  0  0  0  0  0  0  0  0  0
   -6.9643    0.8454   -2.8933 O   0  0  0  0  0  0  0  0  0  0  0  0
  2  1  1  0
  2  3  2  0
  3  4  1  0
  4  5  2  0
  4  6  1  0
  6  7  2  0
  7  9  1  0
  7  8  1  0
 10  2  1  0
 11 10  2  0
 11 12  1  0
 12 13  2  0
 13  3  1  0
 13 14  1  0
 14 15  2  0
 15  6  1  0
 15 16  1  0
 16 17  1  0
 17  8  1  0
 17 18  1  1
 18 19  1  0
 19 20  2  0
 19 21  1  0
M  END
>  <DRUGBANK_ID>  (1) 
DB08541

>  <COMMON_NAME>  (1) 
[(3S)-9-hydroxy-1-methyl-10-oxo-4,10-dihydro-3H-benzo[g]isochromen-3-yl]acetic acid

$$$$
