
     RDKit          3D

 32 35  0  0  0  0  0  0  0  0999 V2000
    0.4000   -0.3109   -0.0033 C   0  0  0  0  0  0  0  0  0  0  0  0
    0.1494    0.0253   -1.4590 C   0  0  0  0  0  0  0  0  0  0  0  0
    0.8620   -1.1019   -2.6842 S   0  0  0  0  0  0  0  0  0  0  0  0
    0.5609   -2.4437   -2.1893 O   0  0  0  0  0  0  0  0  0  0  0  0
    0.3464   -0.6817   -3.9669 O   0  0  0  0  0  0  0  0  0  0  0  0
    2.6542   -1.0510   -2.8665 C   0  0  0  0  0  0  0  0  0  0  0  0
    3.3053    0.3144   -3.1353 C   0  0  0  0  0  0  0  0  0  0  0  0
    3.0030    1.4690   -2.1723 C   0  0  0  0  0  0  0  0  0  0  0  0
    3.4336    1.2660   -0.7037 C   0  0  0  0  0  0  0  0  0  0  0  0
    3.7311   -0.2184   -0.3721 C   0  0  0  0  0  0  0  0  0  0  0  0
    4.0764   -0.4988    1.0524 C   0  0  0  0  0  0  0  0  0  0  0  0
    4.1985    0.8304    1.7790 C   0  0  0  0  0  0  0  0  0  0  0  0
    2.8032    1.5232    1.7368 C   0  0  0  0  0  0  0  0  0  0  0  0
    2.4674    1.9566    0.2995 C   0  0  0  0  0  0  0  0  0  0  0  0
    5.1824    1.7496    1.0143 C   0  0  0  0  0  0  0  0  0  0  0  0
    4.7551    1.9970   -0.4373 C   0  0  0  0  0  0  0  0  0  0  0  0
    4.6416    0.5680    3.1716 C   0  0  0  0  0  0  0  0  0  0  0  0
    3.9503    0.8514    4.2548 N   0  0  0  0  0  0  0  0  0  0  0  0
    4.6822    0.4650    5.3360 N   0  0  0  0  0  0  0  0  0  0  0  0
    5.8008   -0.0762    4.9028 C   0  0  0  0  0  0  0  0  0  0  0  0
    5.8177   -0.0463    3.5358 N   0  0  0  0  0  0  0  0  0  0  0  0
    6.8827   -0.5345    2.6974 C   0  0  0  0  0  0  0  0  0  0  0  0
    6.8298   -0.6406    5.7477 C   0  0  0  0  0  0  0  0  0  0  0  0
    8.1351   -0.1245    5.6701 C   0  0  0  0  0  0  0  0  0  0  0  0
    9.1203   -0.5639    6.5440 C   0  0  0  0  0  0  0  0  0  0  0  0
    8.7922   -1.4769    7.5393 C   0  0  0  0  0  0  0  0  0  0  0  0
    7.4964   -1.9918    7.6218 C   0  0  0  0  0  0  0  0  0  0  0  0
    6.5189   -1.6425    6.6751 C   0  0  0  0  0  0  0  0  0  0  0  0
    5.2216   -2.4238    6.6413 C   0  0  0  0  0  0  0  0  0  0  0  0
    5.4808   -3.7655    6.5419 F   0  0  0  0  0  0  0  0  0  0  0  0
    4.4800   -2.2814    7.7713 F   0  0  0  0  0  0  0  0  0  0  0  0
    4.3901   -2.1785    5.5935 F   0  0  0  0  0  0  0  0  0  0  0  0
  1  2  1  0
  2  3  1  0
  3  4  2  0
  3  5  2  0
  3  6  1  0
  6  7  1  0
  7  8  1  0
  8  9  1  0
  9 10  1  0
  9 14  1  0
  9 16  1  0
 10 11  1  0
 11 12  1  0
 12 13  1  0
 12 15  1  0
 12 17  1  0
 13 14  1  0
 15 16  1  0
 17 18  2  0
 17 21  1  0
 18 19  1  0
 19 20  2  0
 20 21  1  0
 20 23  1  0
 21 22  1  0
 23 24  2  0
 23 28  1  0
 24 25  1  0
 25 26  2  0
 26 27  1  0
 27 28  2  0
 28 29  1  0
 29 30  1  0
 29 31  1  0
 29 32  1  0
M  END
>  <DRUGBANK_ID>  (1) 
DB15209

>  <COMMON_NAME>  (1) 
MK-0736

>  <CAS_NUMBER>  (1) 
719272-79-4

>  <UNII>  (1) 
9RT16RBU2Y

$$$$
