
     RDKit          3D

  1  0  0  0  0  0  0  0  0  0999 V2000
    0.9389   -0.0373    0.0698 Lu  0  0  0  0  0 15  0  0  0  0  0  0
M  ISO  1   1 177
M  END
>  <DRUGBANK_ID>  (1) 
DB13982

>  <COMMON_NAME>  (1) 
Lutetium Lu-177

>  <CAS_NUMBER>  (1) 
14265-75-9

>  <UNII>  (1) 
BRH40Y9V1Q

>  <SYNONYMS>  (1) 
177Lu; Lu 177; Lu-177; Lutetium-177

$$$$
