
     RDKit          3D

 29 24  0  0  0  0  0  0  0  0999 V2000
    1.0555    2.7935   -0.0098 Mg  0  0  0  0  0 15  0  0  0  0  0  0
   -1.3640    0.9417    0.1783 Mg  0  0  0  0  0 15  0  0  0  0  0  0
    0.8550   -1.2673   -2.5606 Mg  0  0  0  0  0 15  0  0  0  0  0  0
    1.4708    0.0912    1.3626 C   0  0  0  0  0  0  0  0  0  0  0  0
    0.6235    1.0043    0.3852 O   0  0  0  0  0  0  0  0  0  0  0  0
    0.8074   -0.8915    1.8383 O   0  0  0  0  0  0  0  0  0  0  0  0
    2.8550   -0.2163    3.3886 C   0  0  0  0  0  0  0  0  0  0  0  0
    3.5496   -0.9560    4.1113 O   0  0  0  0  0  0  0  0  0  0  0  0
    1.7008    0.2994    3.5883 O   0  0  0  0  0  0  0  0  0  0  0  0
    3.3921    3.6256   -1.5888 O   0  0  0  0  0  0  0  0  0  0  0  0
    2.7392    2.5817   -1.8265 C   0  0  0  0  0  0  0  0  0  0  0  0
    1.4011    2.5606   -1.6780 O   0  0  0  0  0  0  0  0  0  0  0  0
    3.5576    1.0587   -1.1237 C   0  0  0  0  0  0  0  0  0  0  0  0
    3.6946    0.1477    2.0863 C   0  0  0  0  0  0  0  0  0  0  0  0
    3.5021   -0.0885    0.5774 C   0  0  0  0  0  0  0  0  0  0  0  0
    3.9537   -1.4915   -0.0885 O   0  0  0  0  0  0  0  0  0  0  0  0
    0.0778   -1.0667   -0.2734 C   0  0  0  0  0  0  0  0  0  0  0  0
   -0.3106   -1.3680   -1.4517 O   0  0  0  0  0  0  0  0  0  0  0  0
   -0.9084   -0.5892    0.4114 O   0  0  0  0  0  0  0  0  0  0  0  0
    2.2538    2.5506    1.9350 C   0  0  0  0  0  0  0  0  0  0  0  0
    3.1555    2.9494    2.6802 O   0  0  0  0  0  0  0  0  0  0  0  0
    1.0049    2.7854    1.7328 O   0  0  0  0  0  0  0  0  0  0  0  0
    3.4257    0.8689   -3.7845 O   0  0  0  0  0  0  0  0  0  0  0  0
    2.5684    0.1043   -3.3371 C   0  0  0  0  0  0  0  0  0  0  0  0
    1.2749    0.1900   -3.2865 O   0  0  0  0  0  0  0  0  0  0  0  0
    2.9033   -0.9698   -1.9795 C   0  0  0  0  0  0  0  0  0  0  0  0
    2.6136    1.5480    0.4856 C   0  0  0  0  0  0  0  0  0  0  0  0
    1.9353   -0.3988   -0.4052 C   0  0  0  0  0  0  0  0  0  0  0  0
    2.3938   -1.7443    0.8674 O   0  0  0  0  0  0  0  0  0  0  0  0
  4 15  1  0
  5  4  2  0
  6  4  1  0
  7 14  1  0
  8  7  2  0
  9  7  1  0
 11 10  2  0
 11 12  1  0
 13 11  1  0
 14 15  1  0
 15 13  1  0
 15 16  1  0
 17 28  1  0
 18 17  2  0
 19 17  1  0
 20 27  1  0
 21 20  2  0
 22 20  1  0
 24 23  2  0
 24 25  1  0
 26 24  1  0
 27 28  1  0
 28 26  1  0
 28 29  1  0
M  CHG  8   1   2   2   2   3   2   6  -1   9  -1  12  -1  19  -1  22  -1
M  CHG  1  25  -1
M  END
>  <DRUGBANK_ID>  (1) 
DB11110

>  <COMMON_NAME>  (1) 
Magnesium citrate

>  <CAS_NUMBER>  (1) 
3344-18-1

>  <UNII>  (1) 
RHO26O1T9V

>  <SYNONYMS>  (1) 
Magnesium citrate; Magnesium dicitrate; Trimagnesium citrate; Trimagnesium dicitrate

$$$$
