
     RDKit          3D

 35 35  0  0  0  0  0  0  0  0999 V2000
    1.1046    0.0079   -0.2985 Fe  0  0  0  0  0 15  0  0  0  0  0  0
    2.0463   -7.7876    3.0454 O   0  0  0  0  0  0  0  0  0  0  0  0
    0.0284   -7.5850    5.2481 O   0  0  0  0  0  0  0  0  0  0  0  0
    0.8741   -9.4357    3.7881 O   0  0  0  0  0  0  0  0  0  0  0  0
    3.4735   -5.3864    1.5884 O   0  0  0  0  0  0  0  0  0  0  0  0
   -1.6322   -5.3660    1.8192 O   0  0  0  0  0  0  0  0  0  0  0  0
   -0.5304   -5.6695   -0.4177 O   0  0  0  0  0  0  0  0  0  0  0  0
    3.5015   -6.3536   -0.5395 O   0  0  0  0  0  0  0  0  0  0  0  0
    2.5231   -6.3311    5.8234 O   0  0  0  0  0  0  0  0  0  0  0  0
    3.1990   -5.4452    3.5417 O   0  0  0  0  0  0  0  0  0  0  0  0
    0.5430   -7.9546    0.4560 O   0  0  0  0  0  0  0  0  0  0  0  0
   -0.7239  -10.9408    1.9034 O   0  0  0  0  0  0  0  0  0  0  0  0
    2.1636   -4.7462   -0.8006 O   0  0  0  0  0  0  0  0  0  0  0  0
    1.2881   -1.7571    0.3736 O   0  0  0  0  0  0  0  0  0  0  0  0
    0.4292   -1.8566   -2.0613 O   0  0  0  0  0  0  0  0  0  0  0  0
    0.3383   -4.2880   -3.9730 O   0  0  0  0  0  0  0  0  0  0  0  0
    0.9970   -6.5392   -1.4612 O   0  0  0  0  0  0  0  0  0  0  0  0
    0.1877   -6.8655    3.0855 C   0  0  1  0  0  0  0  0  0  0  0  0
   -0.6141   -6.3984    1.6973 C   0  0  2  0  0  0  0  0  0  0  0  0
    0.5030   -5.8354    0.6858 C   0  0  1  0  0  0  0  0  0  0  0  0
    2.2930   -6.7285    0.3323 C   0  0  2  0  0  0  0  0  0  0  0  0
    3.0511   -6.9142    1.6429 C   0  0  2  0  0  0  0  0  0  0  0  0
    2.4119   -7.2575    4.7579 C   0  0  1  0  0  0  0  0  0  0  0  0
    1.1820   -8.3930    4.8910 C   0  0  1  0  0  0  0  0  0  0  0  0
    1.9425   -6.1854    3.2085 C   0  0  2  0  0  0  0  0  0  0  0  0
    1.1599   -7.7351    1.7196 C   0  0  1  0  0  0  0  0  0  0  0  0
   -0.7511   -7.3254    4.1268 C   0  0  0  0  0  0  0  0  0  0  0  0
    0.4226   -9.0184    2.4505 C   0  0  1  0  0  0  0  0  0  0  0  0
    0.1871  -10.0415    1.3642 C   0  0  0  0  0  0  0  0  0  0  0  0
    2.4610   -4.3084    1.5997 C   0  0  0  0  0  0  0  0  0  0  0  0
    2.3806   -3.8307    0.1704 C   0  0  2  0  0  0  0  0  0  0  0  0
    1.1483   -3.0664   -0.2761 C   0  0  2  0  0  0  0  0  0  0  0  0
    1.0587   -3.1628   -1.8638 C   0  0  1  0  0  0  0  0  0  0  0  0
    0.3458   -4.4895   -2.5892 C   0  0  2  0  0  0  0  0  0  0  0  0
    1.0384   -5.9173   -2.6590 C   0  0  0  0  0  0  0  0  0  0  0  0
  2 18  1  0
  2 22  1  0
  3 27  1  0
  4 24  1  0
  4 28  1  0
  5 30  1  0
 12 29  1  0
 17 35  1  0
 18 19  1  0
 18 27  1  6
 19  6  1  1
 19 20  1  0
 20  7  1  6
 20 21  1  0
 21  8  1  6
 21 22  1  0
 22  5  1  1
 23  9  1  1
 23 24  1  0
 23 25  1  0
 24  3  1  6
 25 10  1  6
 25 26  1  0
 26 11  1  6
 26 28  1  0
 28 29  1  6
 30 31  1  0
 31 13  1  6
 31 32  1  0
 32 14  1  6
 33 34  1  0
 33 32  1  0
 33 15  1  1
 34 16  1  6
 34 35  1  0
M  CHG  1   1   3
M  END
>  <DRUGBANK_ID>  (1) 
DB15617

>  <COMMON_NAME>  (1) 
Ferric derisomaltose

>  <CAS_NUMBER>  (1) 
1345510-43-1

>  <UNII>  (1) 
AHU547PI9H

>  <SYNONYMS>  (1) 
Ferric derisomaltose

$$$$
