
     RDKit          3D

 27 30  0  0  0  0  0  0  0  0999 V2000
    1.2514   -0.0158   -0.0115 C   0  0  0  0  0  0  0  0  0  0  0  0
    0.3730    1.2375   -0.0009 C   0  0  0  0  0  0  0  0  0  0  0  0
    0.4089    1.9517   -1.3004 N   0  0  0  0  0  0  0  0  0  0  0  0
    1.0506    3.2745   -1.3276 C   0  0  0  0  0  0  0  0  0  0  0  0
    0.4671    4.2205   -0.2642 C   0  0  0  0  0  0  0  0  0  0  0  0
    0.3833    3.5727    1.0974 C   0  0  0  0  0  0  0  0  0  0  0  0
    0.4227    2.1661    1.2230 C   0  0  0  0  0  0  0  0  0  0  0  0
    0.2510    1.6184    2.5089 C   0  0  0  0  0  0  0  0  0  0  0  0
    0.0218    2.4287    3.6261 C   0  0  0  0  0  0  0  0  0  0  0  0
   -0.0292    3.8106    3.4884 C   0  0  0  0  0  0  0  0  0  0  0  0
    0.1544    4.3824    2.2307 C   0  0  0  0  0  0  0  0  0  0  0  0
   -0.5364    1.6522   -2.2984 C   0  0  0  0  0  0  0  0  0  0  0  0
   -0.0969    1.4880   -3.5877 N   0  0  0  0  0  0  0  0  0  0  0  0
   -0.9732    1.0695   -4.5400 C   0  0  0  0  0  0  0  0  0  0  0  0
   -0.5689    0.8634   -5.8799 N   0  0  0  0  0  0  0  0  0  0  0  0
   -1.3979    0.3813   -6.9258 C   0  0  0  0  0  0  0  0  0  0  0  0
   -2.6031    1.0468   -7.2153 C   0  0  0  0  0  0  0  0  0  0  0  0
   -3.5840    0.4725   -8.0349 C   0  0  0  0  0  0  0  0  0  0  0  0
   -3.3377   -0.7515   -8.6269 C   0  0  0  0  0  0  0  0  0  0  0  0
   -4.2990   -1.3348   -9.3642 F   0  0  0  0  0  0  0  0  0  0  0  0
   -2.1180   -1.3918   -8.4517 C   0  0  0  0  0  0  0  0  0  0  0  0
   -1.1549   -0.8370   -7.5817 C   0  0  0  0  0  0  0  0  0  0  0  0
   -2.2532    0.7924   -4.2593 N   0  0  0  0  0  0  0  0  0  0  0  0
   -2.6954    0.9794   -3.0154 C   0  0  0  0  0  0  0  0  0  0  0  0
   -4.1398    0.6367   -2.7803 C   0  0  0  0  0  0  0  0  0  0  0  0
   -1.8885    1.4549   -1.9899 C   0  0  0  0  0  0  0  0  0  0  0  0
   -2.5445    1.7103   -0.6648 C   0  0  0  0  0  0  0  0  0  0  0  0
  1  2  1  0
  2  3  1  0
  2  7  1  0
  3  4  1  0
  3 12  1  0
  4  5  1  0
  5  6  1  0
  6  7  2  0
  6 11  1  0
  7  8  1  0
  8  9  2  0
  9 10  1  0
 10 11  2  0
 12 13  2  0
 12 26  1  0
 13 14  1  0
 14 15  1  0
 14 23  2  0
 15 16  1  0
 16 17  2  0
 16 22  1  0
 17 18  1  0
 18 19  2  0
 19 20  1  0
 19 21  1  0
 21 22  2  0
 23 24  1  0
 24 25  1  0
 24 26  2  0
 26 27  1  0
M  END
>  <DRUGBANK_ID>  (1) 
DB16308

>  <COMMON_NAME>  (1) 
Revaprazan

>  <CAS_NUMBER>  (1) 
199463-33-7

>  <UNII>  (1) 
5P184180P5

>  <SYNONYMS>  (1) 
Revaprazan; Yh-1885 free base

$$$$
