
     RDKit          3D

 23 25  0  0  0  0  0  0  0  0999 V2000
    1.4023   -0.7283   -0.8362 C   0  0  0  0  0  0  0  0  0  0  0  0
    1.4199    0.7984   -0.9512 C   0  0  0  0  0  0  0  0  0  0  0  0
   -0.8760    1.4477   -0.3089 C   0  0  0  0  0  0  0  0  0  0  0  0
    0.7304    0.2656    1.1804 N   0  0  0  0  0  0  0  0  0  0  0  0
   -1.4978   -0.0369   -0.7192 C   0  0  1  0  0  0  0  0  0  0  0  0
   -0.7112   -1.4181    0.4246 C   0  0  2  0  0  0  0  0  0  0  0  0
   -1.8271   -3.2324    2.3982 O   0  0  0  0  0  0  0  0  0  0  0  0
   -1.2208   -2.2165    2.1946 C   0  0  0  0  0  0  0  0  0  0  0  0
   -1.3125   -1.3729    3.3335 O   0  0  0  0  0  0  0  0  0  0  0  0
   -2.5612   -1.0517    4.0963 C   0  0  0  0  0  0  0  0  0  0  0  0
    0.7410   -1.0326    0.5136 C   0  0  1  0  0  0  0  0  0  0  0  0
    0.5628    1.2963    0.1788 C   0  0  1  0  0  0  0  0  0  0  0  0
   -0.3239    0.3556    2.1849 C   0  0  0  0  0  0  0  0  0  0  0  0
   -2.0435    0.1500    1.7519 C   0  0  0  0  0  0  0  0  0  0  0  0
   -2.9374   -1.2421    1.1417 C   0  0  0  0  0  0  0  0  0  0  0  0
   -2.6498   -2.5228    0.7375 F   0  0  0  0  0  0  0  0  0  0  0  0
   -6.0268    0.3944   -0.4138 C   0  0  0  0  0  0  0  0  0  0  0  0
   -5.4997   -0.8663   -0.3736 C   0  0  0  0  0  0  0  0  0  0  0  0
   -4.2419   -1.0634   -0.9889 C   0  0  0  0  0  0  0  0  0  0  0  0
   -3.2712    0.0482   -1.2058 C   0  0  0  0  0  0  0  0  0  0  0  0
   -3.8891    1.2817   -1.3553 C   0  0  0  0  0  0  0  0  0  0  0  0
   -5.2676    1.4244   -0.9990 C   0  0  0  0  0  0  0  0  0  0  0  0
   -7.9819    0.6526    0.2339 I   0  0  0  0  0  0  0  0  0  0  0  0
  1  2  1  0
 12  2  1  6
  3  5  1  0
  4 13  1  0
  5  6  1  0
  5 20  1  1
  6 11  1  0
  6  8  1  1
  8  7  2  0
  8  9  1  0
  9 10  1  0
 11  1  1  6
 11  4  1  0
 12  3  1  0
 12  4  1  0
 13 14  1  0
 14 15  1  0
 15 16  1  0
 17 18  2  0
 17 22  1  0
 17 23  1  0
 18 19  1  0
 19 20  2  0
 20 21  1  0
 21 22  2  0
M  ISO  1  23 123
M  END
>  <DRUGBANK_ID>  (1) 
DB08824

>  <SECONDARY_ACCESSION_NUMBERS>  (1) 
DB09548

>  <COMMON_NAME>  (1) 
Ioflupane I-123

>  <CAS_NUMBER>  (1) 
155798-07-5

>  <UNII>  (1) 
3MM99T8R5Q

>  <SYNONYMS>  (1) 
123I-FP-CIT; 123I-Ioflupane; Iodine ioflupane (123I); Ioflupane ((123)I); Ioflupane (123I); Ioflupane I 123; Ioflupane I(123); Ioflupano (123I); Ioflupanum (123I)

$$$$
