881
     RDKit          3D

 32 34  0  0  1  0  0  0  0  0999 V2000
    1.1039    0.2049   -0.2871 O   0  0  0  0  0  0  0  0  0  0  0  0
    0.4919   -0.9407   -3.1208 O   0  0  0  0  0  0  0  0  0  0  0  0
    0.5415   -2.5298   -1.5159 O   0  0  0  0  0  0  0  0  0  0  0  0
    2.6865    5.8619    1.4185 O   0  0  0  0  0  0  0  0  0  0  0  0
    2.2456    5.0607   -0.6085 O   0  0  0  0  0  0  0  0  0  0  0  0
    3.0629   -0.9046   -0.7148 N   0  0  0  0  0  0  0  0  0  0  0  0
    2.7471    2.4576    0.2801 N   0  0  0  0  0  0  0  0  0  0  0  0
    2.6296   -1.3893   -2.0511 C   0  0  1  0  0  0  0  0  0  0  0  0
    3.3361   -2.7030   -2.4796 C   0  0  0  0  0  0  0  0  0  0  0  0
    4.2100   -1.5541   -0.0795 C   0  0  0  0  0  0  0  0  0  0  0  0
    4.8221   -2.6072   -2.2577 C   0  0  0  0  0  0  0  0  0  0  0  0
    5.2531   -1.9845   -1.0754 C   0  0  0  0  0  0  0  0  0  0  0  0
    3.0791    1.1124    0.7720 C   0  0  2  0  0  0  0  0  0  0  0  0
    2.3113    0.0812   -0.0829 C   0  0  0  0  0  0  0  0  0  0  0  0
    3.5098    3.5664    0.8913 C   0  0  1  0  0  0  0  0  0  0  0  0
    1.1261   -1.6789   -2.1736 C   0  0  0  0  0  0  0  0  0  0  0  0
    5.0192    3.4338    0.6442 C   0  0  0  0  0  0  0  0  0  0  0  0
    5.7557   -3.1265   -3.1580 C   0  0  0  0  0  0  0  0  0  0  0  0
    6.6213   -1.8331   -0.8318 C   0  0  0  0  0  0  0  0  0  0  0  0
    2.7039    0.9731    2.2398 C   0  0  0  0  0  0  0  0  0  0  0  0
    5.4456    3.3727   -0.8298 C   0  0  0  0  0  0  0  0  0  0  0  0
    7.1195   -2.9725   -2.9064 C   0  0  0  0  0  0  0  0  0  0  0  0
    7.5509   -2.3136   -1.7546 C   0  0  0  0  0  0  0  0  0  0  0  0
    2.7896    4.8909    0.4837 C   0  0  0  0  0  0  0  0  0  0  0  0
    5.2275    4.6991   -1.5047 C   0  0  0  0  0  0  0  0  0  0  0  0
    4.1766    4.8896   -2.4116 C   0  0  0  0  0  0  0  0  0  0  0  0
    5.9401    5.8117   -1.0433 C   0  0  0  0  0  0  0  0  0  0  0  0
    2.2539    5.5177    2.7411 C   0  0  0  0  0  0  0  0  0  0  0  0
    3.7741    6.1852   -2.7534 C   0  0  0  0  0  0  0  0  0  0  0  0
    5.5337    7.0987   -1.3843 C   0  0  0  0  0  0  0  0  0  0  0  0
    4.4503    7.2876   -2.2378 C   0  0  0  0  0  0  0  0  0  0  0  0
    1.1690    4.4461    2.8028 C   0  0  0  0  0  0  0  0  0  0  0  0
  1 14  2  0
  2 16  1  0
  3 16  2  0
  4 24  1  0
  4 28  1  0
  5 24  2  0
  6  8  1  0
  6 10  1  0
  6 14  1  0
  8  9  1  0
  8 16  1  1
  9 11  1  0
 10 12  1  0
 11 12  2  0
 11 18  1  0
 12 19  1  0
 13  7  1  0
 13 14  1  0
 13 20  1  1
 15  7  1  0
 15 17  1  6
 15 24  1  0
 17 21  1  0
 18 22  2  0
 19 23  2  0
 21 25  1  0
 22 23  1  0
 25 26  2  0
 25 27  1  0
 26 29  1  0
 27 30  2  0
 28 32  1  0
 29 31  2  0
 30 31  1  0
M  END
>  <DRUGBANK_ID>  (1) 
DB00881

>  <SECONDARY_ACCESSION_NUMBERS>  (1) 
APRD00523

>  <COMMON_NAME>  (1) 
Quinapril

>  <CAS_NUMBER>  (1) 
85441-61-8

>  <UNII>  (1) 
RJ84Y44811

>  <SYNONYMS>  (1) 
Quinapril; Quinaprilum

$$$$
