
     RDKit          3D

 33 34  0  0  1  0  0  0  0  0999 V2000
   -0.8584    0.5880    5.1115 N   0  0  0  0  0  0  0  0  0  0  0  0
   -1.3348    1.7903    5.3887 C   0  0  0  0  0  0  0  0  0  0  0  0
   -1.1166    0.0596    3.8944 C   0  0  0  0  0  0  0  0  0  0  0  0
   -1.8629    0.7401    2.9045 C   0  0  0  0  0  0  0  0  0  0  0  0
   -2.2940    2.0070    3.3016 C   0  0  0  0  0  0  0  0  0  0  0  0
   -2.0290    2.5330    4.5213 N   0  0  0  0  0  0  0  0  0  0  0  0
   -0.9297    2.4604    6.5680 N   0  0  0  0  0  0  0  0  0  0  0  0
   -3.0740    2.9172    2.3974 C   0  0  0  0  0  0  0  0  0  0  0  0
   -4.5233    3.0899    2.8099 C   0  0  0  0  0  0  0  0  0  0  0  0
   -2.3243    4.1377    1.9236 C   0  0  0  0  0  0  0  0  0  0  0  0
   -0.5096   -1.2891    3.7370 C   0  0  0  0  0  0  0  0  0  0  0  0
    0.4089   -1.5569    2.7016 C   0  0  0  0  0  0  0  0  0  0  0  0
    0.8611   -2.8558    2.4515 C   0  0  0  0  0  0  0  0  0  0  0  0
    0.4284   -3.9021    3.2560 C   0  0  0  0  0  0  0  0  0  0  0  0
   -0.4313   -3.6703    4.3222 C   0  0  0  0  0  0  0  0  0  0  0  0
   -0.8897   -2.3670    4.5706 C   0  0  0  0  0  0  0  0  0  0  0  0
    0.8069   -5.1534    2.9635 F   0  0  0  0  0  0  0  0  0  0  0  0
   -2.1122    0.1580    1.5528 C   0  0  0  0  0  0  0  0  0  0  0  0
   -2.9174    0.4901    0.5255 C   0  0  0  0  0  0  0  0  0  0  0  0
   -3.1977   -0.1785   -0.7714 C   0  0  2  0  0  0  0  0  0  0  0  0
   -3.0804   -1.6735   -0.7050 C   0  0  0  0  0  0  0  0  0  0  0  0
   -1.7351   -2.3661   -0.9223 C   0  0  2  0  0  0  0  0  0  0  0  0
   -1.4954   -3.5549    0.0327 C   0  0  0  0  0  0  0  0  0  0  0  0
   -2.4689   -3.6581    1.1986 C   0  0  0  0  0  0  0  0  0  0  0  0
   -3.3824   -4.4364    1.3117 O   0  0  0  0  0  0  0  0  0  0  0  0
   -2.3344   -2.6369    2.0596 O   0  0  0  0  0  0  0  0  0  0  0  0
   -0.6255   -1.4593   -0.9627 O   0  0  0  0  0  0  0  0  0  0  0  0
   -2.4977    0.4813   -1.7963 O   0  0  0  0  0  0  0  0  0  0  0  0
    1.2331    2.6428    8.1435 C   0  0  0  0  0  0  0  0  0  0  0  0
   -1.0388    1.6798    8.9818 O   0  0  0  0  0  0  0  0  0  0  0  0
   -0.1848    1.6130    7.8112 S   0  0  0  0  0  0  0  0  0  0  0  0
    0.3682    0.3449    7.3882 O   0  0  0  0  0  0  0  0  0  0  0  0
   -1.5815    3.7507    6.8583 C   0  0  0  0  0  0  0  0  0  0  0  0
  1  2  2  0
  2  7  1  0
  2  6  1  0
  3  1  1  0
  3 11  1  0
  3  4  2  0
  4 18  1  0
  4  5  1  0
  5  8  1  0
  5  6  2  0
  7 31  1  0
  7 33  1  0
  8  9  1  0
  8 10  1  0
 11 12  2  0
 11 16  1  0
 12 13  1  0
 13 14  2  0
 14 17  1  0
 15 14  1  0
 16 15  2  0
 18 19  2  0
 20 28  1  6
 20 21  1  0
 20 19  1  0
 22 27  1  1
 22 23  1  0
 22 21  1  0
 23 24  1  0
 24 25  2  0
 24 26  1  0
 31 29  1  0
 31 30  2  0
 31 32  2  0
M  END
>  <DRUGBANK_ID>  (1) 
DB01098

>  <SECONDARY_ACCESSION_NUMBERS>  (1) 
APRD00546

>  <COMMON_NAME>  (1) 
Rosuvastatin

>  <CAS_NUMBER>  (1) 
287714-41-4

>  <UNII>  (1) 
413KH5ZJ73

>  <SYNONYMS>  (1) 
(3R,5S,6E)-7-(4-(4-fluorophenyl)-6-(1-methylethyl)-2-(ethyl(methylsulfonyl)amino)-5-pyrimidinyl)-3,5-dihydroxy-6-heptenoic acid; (3R,5S,6E)-7-{4-(4-fluorophenyl)-6-isopropyl-2-[methyl(methylsulfonyl)amino]pyrimidin-5-yl}-3,5-dihydroxyhept-6-enoic acid; Rosuvastatin; Rosuvastatina

$$$$
