
     RDKit          3D

 26 29  0  0  1  0  0  0  0  0999 V2000
   -1.2600   -0.7045    0.3190 N   0  0  2  0  0  0  0  0  0  0  0  0
    0.8999    0.4106   -1.1494 C   0  0  1  0  0  0  0  0  0  0  0  0
   -0.5040   -0.2046   -1.2303 C   0  0  0  0  0  0  0  0  0  0  0  0
    1.5164   -0.3800    0.0616 C   0  0  1  0  0  0  0  0  0  0  0  0
   -0.4908   -0.0038    1.7107 C   0  0  0  0  0  0  0  0  0  0  0  0
   -0.6355   -2.0641    0.0954 C   0  0  0  0  0  0  0  0  0  0  0  0
    1.0113    0.3086    1.4032 C   0  0  0  0  0  0  0  0  0  0  0  0
    0.9514   -1.8525   -0.0048 C   0  0  0  0  0  0  0  0  0  0  0  0
   -3.1036   -0.8957    0.6748 C   0  0  0  0  0  0  0  0  0  0  0  0
    1.3351    0.7177   -2.5495 O   0  0  0  0  0  0  0  0  0  0  0  0
    0.8927    1.8349   -3.3211 C   0  0  0  0  0  0  0  0  0  0  0  0
   -0.6677    2.3768   -3.5115 C   0  0  0  0  0  0  0  0  0  0  0  0
    1.7523    2.3832   -4.0914 O   0  0  0  0  0  0  0  0  0  0  0  0
   -0.7538    3.7817   -3.7694 O   0  0  0  0  0  0  0  0  0  0  0  0
   -1.3677    1.6085   -4.6688 C   0  0  0  0  0  0  0  0  0  0  0  0
   -1.4936    2.4152   -2.2395 C   0  0  0  0  0  0  0  0  0  0  0  0
   -0.6407    0.7928   -5.5299 C   0  0  0  0  0  0  0  0  0  0  0  0
   -1.2954    0.0142   -6.4836 C   0  0  0  0  0  0  0  0  0  0  0  0
   -2.6822   -0.1014   -6.4882 C   0  0  0  0  0  0  0  0  0  0  0  0
   -2.7767    1.6188   -4.8660 C   0  0  0  0  0  0  0  0  0  0  0  0
   -3.4267    0.6225   -5.5868 C   0  0  0  0  0  0  0  0  0  0  0  0
   -2.6641    1.6603   -2.2194 C   0  0  0  0  0  0  0  0  0  0  0  0
   -3.0033    1.0922   -1.0074 C   0  0  0  0  0  0  0  0  0  0  0  0
   -0.8515    2.9204   -1.1168 C   0  0  0  0  0  0  0  0  0  0  0  0
   -2.4718    1.6706    0.1114 C   0  0  0  0  0  0  0  0  0  0  0  0
   -1.3006    2.3686    0.0649 C   0  0  0  0  0  0  0  0  0  0  0  0
  1  3  1  0
  1  6  1  0
  1  9  1  6
  2 10  1  6
  3  2  1  0
  4  2  1  0
  4  8  1  1
  5  7  1  0
  5  1  1  0
  6  8  1  0
  7  4  1  0
 10 11  1  0
 11 12  1  0
 11 13  2  0
 12 14  1  0
 12 15  1  0
 12 16  1  0
 15 17  2  0
 16 22  2  0
 18 17  1  0
 19 18  2  0
 20 15  1  0
 21 19  1  0
 21 20  2  0
 23 22  1  0
 24 16  1  0
 25 23  2  0
 26 24  2  0
 26 25  1  0
M  CHG  1   1   1
M  END
>  <DRUGBANK_ID>  (1) 
DB00771

>  <SECONDARY_ACCESSION_NUMBERS>  (1) 
APRD00737

>  <COMMON_NAME>  (1) 
Clidinium

>  <CAS_NUMBER>  (1) 
7020-55-5

>  <UNII>  (1) 
BO76JF850N

>  <SYNONYMS>  (1) 
3-(2-Hydroxy-2,2-diphenyl-acetoxy)-1-methyl-1-azonia-bicyclo[2.2.2]octane; 3-hydroxy-1-methylquinuclidinium benzilate ester; Bromure de Clidinium; Bromuro de clidinio; Clidinii Bromidum; Clidinium bromid; N-methyl quinuclidinyl benzilate

$$$$
