
     RDKit          3D

  9  9  0  0  0  0  0  0  0  0999 V2000
    0.9251   -0.0085   -0.0386 N   0  0  0  0  0  0  0  0  0  0  0  0
    0.3104    0.7739    0.9291 C   0  0  0  0  0  0  0  0  0  0  0  0
    0.7366    2.0890    1.1089 C   0  0  0  0  0  0  0  0  0  0  0  0
    0.1298    2.9072    2.0581 C   0  0  0  0  0  0  0  0  0  0  0  0
    0.5344    4.1750    2.1876 F   0  0  0  0  0  0  0  0  0  0  0  0
   -0.8905    2.4263    2.8670 C   0  0  0  0  0  0  0  0  0  0  0  0
   -1.3015    1.1147    2.6994 C   0  0  0  0  0  0  0  0  0  0  0  0
   -2.2791    0.6307    3.4818 F   0  0  0  0  0  0  0  0  0  0  0  0
   -0.7190    0.2841    1.7392 C   0  0  0  0  0  0  0  0  0  0  0  0
  1  2  1  0
  2  3  2  0
  2  9  1  0
  3  4  1  0
  4  5  1  0
  4  6  2  0
  6  7  1  0
  7  8  1  0
  7  9  2  0
M  END
>  <DRUGBANK_ID>  (1) 
DB03238

>  <SECONDARY_ACCESSION_NUMBERS>  (1) 
EXPT00238

>  <COMMON_NAME>  (1) 
3,5-Difluoroaniline

>  <UNII>  (1) 
93F28C8C0X

$$$$
