
     RDKit          3D

 31 34  0  0  0  0  0  0  0  0999 V2000
  -12.0552    2.7919    2.6800 C   0  0  0  0  0  0  0  0  0  0  0  0
  -12.2685    3.0540    4.0202 C   0  0  0  0  0  0  0  0  0  0  0  0
  -10.7953    2.3930    2.2741 C   0  0  0  0  0  0  0  0  0  0  0  0
  -11.2137    2.9316    4.9351 C   0  0  0  0  0  0  0  0  0  0  0  0
   -6.9223    1.0423    7.3061 C   0  0  0  0  0  0  0  0  0  0  0  0
   -6.6237    2.4757    7.6148 C   0  0  0  0  0  0  0  0  0  0  0  0
   -8.2536    2.5433    0.3503 C   0  0  0  0  0  0  0  0  0  0  0  0
   -7.8993    0.2393    0.9951 C   0  0  0  0  0  0  0  0  0  0  0  0
   -7.9385    2.2375   -0.9743 C   0  0  0  0  0  0  0  0  0  0  0  0
   -7.5312   -0.0384   -0.3129 C   0  0  0  0  0  0  0  0  0  0  0  0
   -5.3895    1.2487    2.1975 C   0  0  0  0  0  0  0  0  0  0  0  0
   -5.9641    1.4093    3.4007 C   0  0  0  0  0  0  0  0  0  0  0  0
   -4.2318   -0.8595    1.5265 C   0  0  0  0  0  0  0  0  0  0  0  0
   -3.8828   -2.7600   -0.0782 C   0  0  0  0  0  0  0  0  0  0  0  0
   -8.2172    1.5522    1.3564 C   0  0  0  0  0  0  0  0  0  0  0  0
   -6.6189    2.0240    6.1851 C   0  0  0  0  0  0  0  0  0  0  0  0
   -7.5407    0.9492   -1.2883 C   0  0  0  0  0  0  0  0  0  0  0  0
   -4.0728    0.6378    1.8390 C   0  0  2  0  0  0  0  0  0  0  0  0
   -3.6041   -1.2703    0.1894 C   0  0  2  0  0  0  0  0  0  0  0  0
   -9.7155    2.2853    3.1862 C   0  0  0  0  0  0  0  0  0  0  0  0
   -7.3647    1.8428    3.7355 C   0  0  0  0  0  0  0  0  0  0  0  0
   -9.9292    2.5640    4.5460 C   0  0  0  0  0  0  0  0  0  0  0  0
   -4.6439   -2.9051   -1.3631 C   0  0  0  0  0  0  0  0  0  0  0  0
   -8.4176    1.9005    2.7773 C   0  0  0  0  0  0  0  0  0  0  0  0
   -7.6849    2.1435    5.0927 C   0  0  0  0  0  0  0  0  0  0  0  0
   -7.1404    0.6563   -2.5326 F   0  0  0  0  0  0  0  0  0  0  0  0
   -8.9507    2.4874    5.4684 N   0  0  0  0  0  0  0  0  0  0  0  0
   -3.1762    0.7902    2.9251 O   0  0  0  0  0  0  0  0  0  0  0  0
   -2.2038   -1.0149    0.1609 O   0  0  0  0  0  0  0  0  0  0  0  0
   -4.4796   -3.7594   -2.2271 O   0  0  0  0  0  0  0  0  0  0  0  0
   -5.6246   -2.0023   -1.4709 O   0  0  0  0  0  0  0  0  0  0  0  0
  2  1  2  0
  3  1  1  0
  4  2  1  0
  6  5  1  0
  9  7  2  0
 10  8  1  0
 12 11  2  0
 15  7  1  0
 15  8  2  0
 16  5  1  0
 16  6  1  0
 17  9  1  0
 17 10  2  0
 18 28  1  1
 18 13  1  0
 18 11  1  0
 19 29  1  1
 19 14  1  0
 19 13  1  0
 20  3  2  0
 21 12  1  0
 22  4  2  0
 22 20  1  0
 23 14  1  0
 24 15  1  0
 24 20  1  0
 24 21  2  0
 25 16  1  0
 25 21  1  0
 26 17  1  0
 27 22  1  0
 27 25  2  0
 30 23  2  0
 31 23  1  0
M  END
>  <DRUGBANK_ID>  (1) 
DB08860

>  <SECONDARY_ACCESSION_NUMBERS>  (1) 
DB06514

>  <COMMON_NAME>  (1) 
Pitavastatin

>  <CAS_NUMBER>  (1) 
147511-69-1

>  <UNII>  (1) 
M5681Q5F9P

>  <SYNONYMS>  (1) 
Pitavastatia; Pitavastatin; Pitavastatina; Pitavastatine; Pitavastatinum

$$$$
