A75
     RDKit          3D

 23 25  0  0  0  0  0  0  0  0999 V2000
    2.5378   -0.6932   -0.3191 C   0  0  0  0  0  0  0  0  0  0  0  0
    1.2865   -1.4996    0.0440 C   0  0  0  0  0  0  0  0  0  0  0  0
   -0.0041   -0.7109    0.0343 C   0  0  0  0  0  0  0  0  0  0  0  0
    0.0197    0.6860    0.0491 C   0  0  0  0  0  0  0  0  0  0  0  0
    1.3233    1.4485   -0.0596 C   0  0  0  0  0  0  0  0  0  0  0  0
    2.5236    0.6481    0.3823 C   0  0  0  0  0  0  0  0  0  0  0  0
   -1.2481   -1.3626    0.0784 C   0  0  0  0  0  0  0  0  0  0  0  0
   -2.4689   -0.6263    0.1492 C   0  0  0  0  0  0  0  0  0  0  0  0
   -2.4786    0.8011    0.2077 C   0  0  0  0  0  0  0  0  0  0  0  0
   -1.1991    1.4109    0.0805 C   0  0  0  0  0  0  0  0  0  0  0  0
   -1.0826    2.7983   -0.4088 C   0  0  0  0  0  0  0  0  0  0  0  0
   -1.9774    2.9032   -1.3948 O   0  0  0  0  0  0  0  0  0  0  0  0
   -0.2186    3.6475   -0.1892 O   0  0  0  0  0  0  0  0  0  0  0  0
   -3.7995    1.5592    0.0818 N   0  0  0  0  0  0  0  0  0  0  0  0
   -4.2504    3.3270    0.2989 S   0  0  0  0  0  0  0  0  0  0  0  0
   -4.9057    3.7029   -1.3756 C   0  0  0  0  0  0  0  0  0  0  0  0
   -5.3544    3.4261    1.2244 O   0  0  0  0  0  0  0  0  0  0  0  0
   -3.0913    4.1681    0.4650 O   0  0  0  0  0  0  0  0  0  0  0  0
   -5.5228    2.7143   -2.1541 C   0  0  0  0  0  0  0  0  0  0  0  0
   -6.1961    3.0722   -3.3325 C   0  0  0  0  0  0  0  0  0  0  0  0
   -6.2407    4.4051   -3.7411 C   0  0  0  0  0  0  0  0  0  0  0  0
   -5.5461    5.3707   -3.0151 C   0  0  0  0  0  0  0  0  0  0  0  0
   -4.8055    5.0057   -1.8831 C   0  0  0  0  0  0  0  0  0  0  0  0
  1  2  1  0
  1  6  1  0
  2  3  1  0
  3  4  2  0
  3  7  1  0
  4  5  1  0
  4 10  1  0
  5  6  1  0
  7  8  2  0
  8  9  1  0
  9 10  2  0
  9 14  1  0
 10 11  1  0
 11 12  1  0
 11 13  2  0
 14 15  1  0
 15 16  1  0
 15 17  2  0
 15 18  2  0
 16 19  2  0
 16 23  1  0
 19 20  1  0
 20 21  2  0
 21 22  1  0
 22 23  2  0
M  END
>  <DRUGBANK_ID>  (1) 
DB07322

>  <COMMON_NAME>  (1) 
2-[(PHENYLSULFONYL)AMINO]-5,6,7,8-TETRAHYDRONAPHTHALENE-1-CARBOXYLIC ACID

$$$$
