4OX
     RDKit          3D

 15 14  0  0  0  0  0  0  0  0999 V2000
    1.0557    0.0579    0.0564 C   0  0  0  0  0  0  0  0  0  0  0  0
    0.5328    0.6128    1.3755 C   0  0  0  0  0  0  0  0  0  0  0  0
    1.0245    2.0250    1.7219 C   0  0  0  0  0  0  0  0  0  0  0  0
    0.5909    3.2275    0.8713 C   0  0  0  0  0  0  0  0  0  0  0  0
   -0.4213    3.9560    1.3736 O   0  0  0  0  0  0  0  0  0  0  0  0
    1.1338    3.6049   -0.1606 O   0  0  0  0  0  0  0  0  0  0  0  0
   -0.0667   -4.3287   -4.6172 O   0  0  0  0  0  0  0  0  0  0  0  0
    0.6043   -3.3571   -4.3556 C   0  0  0  0  0  0  0  0  0  0  0  0
    1.6220   -3.4256   -3.4725 O   0  0  0  0  0  0  0  0  0  0  0  0
    0.4086   -1.9703   -4.9398 C   0  0  0  0  0  0  0  0  0  0  0  0
   -0.3117   -1.0005   -4.0237 C   0  0  0  0  0  0  0  0  0  0  0  0
    0.4971   -0.8097   -2.7867 C   0  0  0  0  0  0  0  0  0  0  0  0
    1.0524    0.5355   -2.4945 C   0  0  0  0  0  0  0  0  0  0  0  0
    0.5765    0.9017   -1.1167 C   0  0  0  0  0  0  0  0  0  0  0  0
    0.6507   -1.7430   -1.9997 O   0  0  0  0  0  0  0  0  0  0  0  0
  1  2  1  0
  1 14  1  0
  2  3  1  0
  3  4  1  0
  4  5  1  0
  4  6  2  0
  7  8  2  0
  8  9  1  0
  8 10  1  0
 10 11  1  0
 11 12  1  0
 12 13  1  0
 12 15  2  0
 13 14  1  0
M  END
>  <DRUGBANK_ID>  (1) 
DB02260

>  <SECONDARY_ACCESSION_NUMBERS>  (1) 
EXPT00224

>  <COMMON_NAME>  (1) 
4-Oxosebacic Acid

$$$$
