
     RDKit          3D

 21 24  0  0  1  0  0  0  0  0999 V2000
   -3.3404   -3.1037    9.1946 O   0  0  0  0  0  0  0  0  0  0  0  0
   -5.8354   -4.2712    2.8974 O   0  0  0  0  0  0  0  0  0  0  0  0
   -4.0164   -1.3262    7.4804 C   0  0  1  0  0  0  0  0  0  0  0  0
   -4.0492   -0.7771    6.0474 C   0  0  2  0  0  0  0  0  0  0  0  0
   -4.5349   -0.2960    8.9821 C   0  0  2  0  0  0  0  0  0  0  0  0
   -3.2301    0.2351    8.6015 C   0  0  2  0  0  0  0  0  0  0  0  0
   -3.1894   -1.8728    4.9091 C   0  0  2  0  0  0  0  0  0  0  0  0
   -4.1699   -3.1363    5.2820 C   0  0  2  0  0  0  0  0  0  0  0  0
   -3.5320    0.6767    6.1619 C   0  0  0  0  0  0  0  0  0  0  0  0
   -4.1290    1.1500    7.3900 C   0  0  0  0  0  0  0  0  0  0  0  0
   -4.8287   -2.5629    7.4688 C   0  0  0  0  0  0  0  0  0  0  0  0
   -3.7203   -0.3909   10.6784 C   0  0  0  0  0  0  0  0  0  0  0  0
   -3.4549   -1.6177    9.5154 C   0  0  2  0  0  0  0  0  0  0  0  0
   -3.9850   -3.5770    6.7095 C   0  0  0  0  0  0  0  0  0  0  0  0
   -2.5942   -1.4482   10.6252 C   0  0  0  0  0  0  0  0  0  0  0  0
   -2.7992   -2.3519    3.3184 C   0  0  0  0  0  0  0  0  0  0  0  0
   -2.7808    1.7197    9.1269 C   0  0  0  0  0  0  0  0  0  0  0  0
   -3.1244   -0.5396    4.1646 C   0  0  0  0  0  0  0  0  0  0  0  0
   -4.0078   -4.3785    4.4387 C   0  0  0  0  0  0  0  0  0  0  0  0
   -4.1329   -2.6295    2.6349 C   0  0  0  0  0  0  0  0  0  0  0  0
   -4.7115   -3.8888    3.2055 C   0  0  0  0  0  0  0  0  0  0  0  0
  2 21  2  0
  3  4  1  0
  3  5  1  0
  3 11  1  6
  4  7  1  0
  4  9  1  1
  5  6  1  0
  5 12  1  1
  6 10  1  0
  6 13  1  0
  6 17  1  1
  7  8  1  0
  7 16  1  0
  7 18  1  1
  8 14  1  1
  8 19  1  0
  9 10  1  0
 11 14  1  0
 12 15  1  0
 13 15  1  0
 13  1  1  6
 16 20  1  0
 19 21  1  0
 20 21  1  0
M  END
>  <DRUGBANK_ID>  (1) 
DB07447

>  <COMMON_NAME>  (1) 
5beta-dihydrotestosterone

>  <CAS_NUMBER>  (1) 
571-22-2

>  <UNII>  (1) 
SVX1G0C5VD

>  <SYNONYMS>  (1) 
(5β,17β)-17-hydroxyandrostan-3-one; (5β,8α,17β)-17-hydroxyandrostan-3-one; 17β-hydroxyetiocholan-3-one; 5-beta-DHT; 5β-androstan-17β-ol-3-one; 5β-dihydrotestosterone; 5β,17β-hydroxyandrostan-3-one; etiocholan-17-beta-ol-3-one

$$$$
