
     RDKit          3D

 26 29  0  0  1  0  0  0  0  0999 V2000
    1.0290    0.0405   -0.0703 C   0  0  0  0  0  0  0  0  0  0  0  0
    0.6327   -0.6245    1.1253 O   0  0  0  0  0  0  0  0  0  0  0  0
    0.8860   -1.9721    1.1339 C   0  0  0  0  0  0  0  0  0  0  0  0
    2.1976   -2.4172    0.9261 C   0  0  0  0  0  0  0  0  0  0  0  0
    2.5192   -3.7653    1.0506 C   0  0  0  0  0  0  0  0  0  0  0  0
    1.5316   -4.6922    1.3760 C   0  0  0  0  0  0  0  0  0  0  0  0
    0.2086   -4.2636    1.5994 C   0  0  0  0  0  0  0  0  0  0  0  0
   -0.1194   -2.8890    1.4889 C   0  0  0  0  0  0  0  0  0  0  0  0
   -1.4375   -2.5999    1.7611 O   0  0  0  0  0  0  0  0  0  0  0  0
   -1.8683   -1.2495    1.6594 C   0  0  0  0  0  0  0  0  0  0  0  0
   -0.8466   -5.2690    2.0106 C   0  0  0  0  0  0  0  0  0  0  0  0
   -0.4142   -6.6601    2.0510 N   0  0  0  0  0  0  0  0  0  0  0  0
   -1.4860   -7.6211    2.2214 C   0  0  0  0  0  0  0  0  0  0  0  0
   -0.9044   -8.8301    2.9420 C   0  0  0  0  0  0  0  0  0  0  0  0
    0.3207   -9.3605    2.2445 C   0  0  0  0  0  0  0  0  0  0  0  0
    0.7037  -10.6832    2.4965 C   0  0  0  0  0  0  0  0  0  0  0  0
    1.8496  -11.2293    1.9103 C   0  0  0  0  0  0  0  0  0  0  0  0
    2.6285  -10.4295    1.0632 C   0  0  0  0  0  0  0  0  0  0  0  0
    2.2447   -9.0954    0.8191 C   0  0  0  0  0  0  0  0  0  0  0  0
    1.1002   -8.5363    1.4241 C   0  0  0  0  0  0  0  0  0  0  0  0
    0.7066   -7.0709    1.1956 C   0  0  2  0  0  0  0  0  0  0  0  0
    1.8876   -6.1459    1.5621 C   0  0  0  0  0  0  0  0  0  0  0  0
    3.7859  -10.7835    0.4053 O   0  0  0  0  0  0  0  0  0  0  0  0
    4.2566  -12.1154    0.5757 C   0  0  0  0  0  0  0  0  0  0  0  0
    2.2348  -12.5214    2.1380 O   0  0  0  0  0  0  0  0  0  0  0  0
    1.4355  -13.3356    2.9782 C   0  0  0  0  0  0  0  0  0  0  0  0
  1  2  1  0
  2  3  1  0
  3  4  2  0
  3  8  1  0
  4  5  1  0
  5  6  2  0
  6  7  1  0
  6 22  1  0
  7  8  2  0
  7 11  1  0
  8  9  1  0
  9 10  1  0
 11 12  1  0
 12 13  1  0
 13 14  1  0
 14 15  1  0
 15 16  2  0
 15 20  1  0
 16 17  1  0
 17 18  2  0
 17 25  1  0
 18 19  1  0
 18 23  1  0
 19 20  2  0
 20 21  1  0
 21 12  1  0
 21 22  1  1
 23 24  1  0
 25 26  1  0
M  END
>  <DRUGBANK_ID>  (1) 
DB12093

>  <COMMON_NAME>  (1) 
Tetrahydropalmatine

>  <CAS_NUMBER>  (1) 
483-14-7

>  <UNII>  (1) 
3X69CO5I79

$$$$
