
     RDKit          3D

 34 36  0  0  0  0  0  0  0  0999 V2000
    1.0622    0.0738   -0.0228 C   0  0  0  0  0  0  0  0  0  0  0  0
    9.6838    3.5021    5.0568 C   0  0  0  0  0  0  0  0  0  0  0  0
    0.5157   -0.1794    2.9496 C   0  0  0  0  0  0  0  0  0  0  0  0
   11.6124    0.1765    6.0532 C   0  0  0  0  0  0  0  0  0  0  0  0
    0.5653   -1.1996    0.6481 C   0  0  0  0  0  0  0  0  0  0  0  0
   10.3097    2.1249    4.8731 C   0  0  0  0  0  0  0  0  0  0  0  0
    5.9333   -3.3470    9.4557 C   0  0  0  0  0  0  0  0  0  0  0  0
    6.7673   -3.5159    8.1897 C   0  0  0  0  0  0  0  0  0  0  0  0
    5.2914   -1.9717    9.5468 C   0  0  0  0  0  0  0  0  0  0  0  0
    3.4231   -2.3443    5.5160 C   0  0  0  0  0  0  0  0  0  0  0  0
    4.7656   -0.5179    4.7487 C   0  0  0  0  0  0  0  0  0  0  0  0
    7.4722   -0.8383    5.9955 C   0  0  0  0  0  0  0  0  0  0  0  0
    6.7065    0.2449    7.9906 C   0  0  0  0  0  0  0  0  0  0  0  0
    2.7478   -2.3074    4.3142 C   0  0  0  0  0  0  0  0  0  0  0  0
    4.1427   -0.5414    3.5036 C   0  0  0  0  0  0  0  0  0  0  0  0
    8.5971   -0.0664    6.0482 C   0  0  0  0  0  0  0  0  0  0  0  0
    7.9127    0.9132    8.1192 C   0  0  0  0  0  0  0  0  0  0  0  0
    5.9466   -3.1799    6.9420 C   0  0  0  0  0  0  0  0  0  0  0  0
    4.5048   -1.6062    8.2766 C   0  0  0  0  0  0  0  0  0  0  0  0
    4.4854   -1.4850    5.7407 C   0  0  0  0  0  0  0  0  0  0  0  0
    6.5249   -0.7334    7.0042 C   0  0  0  0  0  0  0  0  0  0  0  0
    3.1005   -1.4276    3.2943 C   0  0  0  0  0  0  0  0  0  0  0  0
    8.8625    0.7777    7.1232 C   0  0  0  0  0  0  0  0  0  0  0  0
    0.3977   -2.7284    2.5251 C   0  0  0  0  0  0  0  0  0  0  0  0
   12.0537    2.5308    6.5961 C   0  0  0  0  0  0  0  0  0  0  0  0
    1.0289   -1.3749    2.1158 C   0  0  0  0  0  0  0  0  0  0  0  0
   10.9312    1.5565    6.1842 C   0  0  0  0  0  0  0  0  0  0  0  0
    5.3568   -1.7135    6.9850 C   0  0  0  0  0  0  0  0  0  0  0  0
    0.9374   -3.8350    2.5205 O   0  0  0  0  0  0  0  0  0  0  0  0
   -0.8950   -2.6618    2.8905 O   0  0  0  0  0  0  0  0  0  0  0  0
   12.1303    3.2098    7.6082 O   0  0  0  0  0  0  0  0  0  0  0  0
   13.0321    2.6183    5.6610 O   0  0  0  0  0  0  0  0  0  0  0  0
    2.4701   -1.3709    2.0836 O   0  0  0  0  0  0  0  0  0  0  0  0
    9.9856    1.5364    7.2664 O   0  0  0  0  0  0  0  0  0  0  0  0
  5  1  1  0
  6  2  1  0
  8  7  1  0
  9  7  1  0
 14 10  2  0
 15 11  1  0
 16 12  2  0
 17 13  1  0
 18  8  1  0
 19  9  1  0
 20 10  1  0
 20 11  2  0
 21 12  1  0
 21 13  2  0
 22 14  1  0
 22 15  2  0
 23 16  1  0
 23 17  2  0
 26  3  1  0
 26  5  1  0
 26 24  1  0
 27  4  1  0
 27  6  1  0
 27 25  1  0
 28 18  1  0
 28 19  1  0
 28 20  1  0
 28 21  1  0
 29 24  2  0
 30 24  1  0
 31 25  2  0
 32 25  1  0
 33 22  1  0
 33 26  1  0
 34 23  1  0
 34 27  1  0
M  END
>  <DRUGBANK_ID>  (1) 
DB09006

>  <COMMON_NAME>  (1) 
Clinofibrate

>  <CAS_NUMBER>  (1) 
30299-08-2

>  <UNII>  (1) 
0374EZJ8CU

>  <SYNONYMS>  (1) 
Clinofibrate

$$$$
