DRX
     RDKit          3D

 28 31  0  0  0  0  0  0  0  0999 V2000
    0.1042   -0.6667    0.0105 C   0  0  0  0  0  0  0  0  0  0  0  0
   -1.0964   -1.3628    0.3501 C   0  0  0  0  0  0  0  0  0  0  0  0
   -2.3183   -0.6982    0.2368 C   0  0  0  0  0  0  0  0  0  0  0  0
   -3.7734   -1.6057    0.0818 Cl  0  0  0  0  0  0  0  0  0  0  0  0
   -2.3602    0.6827    0.1306 C   0  0  0  0  0  0  0  0  0  0  0  0
   -1.1860    1.4198    0.0082 C   0  0  0  0  0  0  0  0  0  0  0  0
   -0.0281    0.6894   -0.2805 C   0  0  0  0  0  0  0  0  0  0  0  0
    1.2876    1.2197   -1.2492 S   0  0  0  0  0  0  0  0  0  0  0  0
    2.2606   -0.0822   -0.7480 C   0  0  0  0  0  0  0  0  0  0  0  0
    1.5020   -1.1057   -0.2252 C   0  0  0  0  0  0  0  0  0  0  0  0
    2.1093   -2.4893   -0.0030 C   0  0  2  0  0  0  0  0  0  0  0  0
    1.5099   -3.3581   -1.4979 P   0  0  0  0  0  0  0  0  0  0  0  0
   -0.0146   -2.8180   -1.4822 O   0  0  0  0  0  0  0  0  0  0  0  0
    1.6085   -4.7425   -0.8708 O   0  0  0  0  0  0  0  0  0  0  0  0
    0.9433   -4.1793   -2.9112 O   0  0  0  0  0  0  0  0  0  0  0  0
    1.6117   -3.0592    1.3685 C   0  0  0  0  0  0  0  0  0  0  0  0
    0.8202   -4.0009    1.4802 O   0  0  0  0  0  0  0  0  0  0  0  0
    2.0897   -2.5563    2.5750 N   0  0  0  0  0  0  0  0  0  0  0  0
    2.8675   -1.4036    2.7964 C   0  0  0  0  0  0  0  0  0  0  0  0
    2.5428   -0.1770    2.2362 C   0  0  0  0  0  0  0  0  0  0  0  0
    3.4411    0.9198    2.0758 C   0  0  0  0  0  0  0  0  0  0  0  0
    3.1739    2.1737    1.4334 C   0  0  0  0  0  0  0  0  0  0  0  0
    4.0810    3.2334    1.3153 C   0  0  0  0  0  0  0  0  0  0  0  0
    5.2860    2.7525    0.9430 C   0  0  0  0  0  0  0  0  0  0  0  0
    5.6575    1.7508    1.8886 C   0  0  0  0  0  0  0  0  0  0  0  0
    4.7273    0.7785    2.5424 C   0  0  0  0  0  0  0  0  0  0  0  0
    4.8236   -0.2523    3.5765 C   0  0  0  0  0  0  0  0  0  0  0  0
    3.9337   -1.3653    3.6673 C   0  0  0  0  0  0  0  0  0  0  0  0
  1 10  1  0
  1  7  1  0
  1  2  2  0
  2  3  1  0
  3  5  2  0
  3  4  1  0
  5  6  1  0
  6  7  2  0
  7  8  1  0
  8  9  1  0
  9 10  2  0
 10 11  1  0
 11 16  1  1
 11 12  1  0
 12 14  2  0
 12 13  1  0
 12 15  1  0
 16 17  2  0
 16 18  1  0
 18 19  1  0
 19 28  1  0
 19 20  2  0
 20 21  1  0
 21 26  2  0
 21 22  1  0
 22 23  2  0
 23 24  1  0
 24 25  2  0
 25 26  1  0
 26 27  1  0
 27 28  2  0
M  END
>  <DRUGBANK_ID>  (1) 
DB07680

>  <COMMON_NAME>  (1) 
[(1S)-1-(5-CHLORO-1-BENZOTHIEN-3-YL)-2-(2-NAPHTHYLAMINO)-2-OXOETHYL]PHOSPHONIC ACID

$$$$
