
     RDKit          3D

 27 30  0  0  0  0  0  0  0  0999 V2000
   -2.4922    1.5211   -0.0040 C   0  0  0  0  0  0  0  0  0  0  0  0
   -1.5250    0.3952   -0.0015 C   0  0  0  0  0  0  0  0  0  0  0  0
   -0.1023    0.4581   -0.0078 C   0  0  0  0  0  0  0  0  0  0  0  0
    0.3091   -0.8701   -0.0060 C   0  0  0  0  0  0  0  0  0  0  0  0
   -0.8449   -1.6019    0.0027 N   0  0  0  0  0  0  0  0  0  0  0  0
   -1.9697   -0.8708    0.0036 N   0  0  0  0  0  0  0  0  0  0  0  0
    1.6502   -1.2517   -0.0133 C   0  0  0  0  0  0  0  0  0  0  0  0
    2.6092   -0.2360   -0.0206 C   0  0  0  0  0  0  0  0  0  0  0  0
    2.2564    1.1167   -0.0212 C   0  0  0  0  0  0  0  0  0  0  0  0
    0.8840    1.4672   -0.0175 C   0  0  0  0  0  0  0  0  0  0  0  0
    3.3217    2.1251   -0.0062 C   0  0  0  0  0  0  0  0  0  0  0  0
    3.5547    2.9058    1.1259 C   0  0  0  0  0  0  0  0  0  0  0  0
    4.3740    4.0286    1.0511 C   0  0  0  0  0  0  0  0  0  0  0  0
    5.1451    4.1774   -0.0907 C   0  0  0  0  0  0  0  0  0  0  0  0
    5.0700    3.3561   -1.1640 N   0  0  0  0  0  0  0  0  0  0  0  0
    4.1366    2.3744   -1.1056 C   0  0  0  0  0  0  0  0  0  0  0  0
    4.3923    5.0582    1.9458 O   0  0  0  0  0  0  0  0  0  0  0  0
    3.4110    5.0455    2.9921 C   0  0  0  0  0  0  0  0  0  0  0  0
    1.9438    5.3578    2.5451 C   0  0  1  0  0  0  0  0  0  0  0  0
    1.3345    4.4599    1.5545 N   0  0  0  0  0  0  0  0  0  0  0  0
    1.0200    5.3255    3.7716 C   0  0  0  0  0  0  0  0  0  0  0  0
    1.2495    6.4648    4.7233 C   0  0  0  0  0  0  0  0  0  0  0  0
    1.3481    7.7776    4.2405 C   0  0  0  0  0  0  0  0  0  0  0  0
    1.4233    8.8489    5.1183 C   0  0  0  0  0  0  0  0  0  0  0  0
    1.3657    8.6187    6.4883 C   0  0  0  0  0  0  0  0  0  0  0  0
    1.2831    7.3156    6.9802 C   0  0  0  0  0  0  0  0  0  0  0  0
    1.2593    6.2356    6.1017 C   0  0  0  0  0  0  0  0  0  0  0  0
  1  2  1  0
  2  3  1  0
  2  6  2  0
  4  3  2  0
  4  7  1  0
  5  4  1  0
  6  5  1  0
  7  8  2  0
  8  9  1  0
  9 10  2  0
  9 11  1  0
 10  3  1  0
 11 12  2  0
 11 16  1  0
 13 12  1  0
 13 17  1  0
 14 13  2  0
 15 14  1  0
 16 15  2  0
 17 18  1  0
 18 19  1  0
 19 20  1  6
 19 21  1  0
 21 22  1  0
 22 23  2  0
 22 27  1  0
 24 23  1  0
 25 24  2  0
 26 25  1  0
 27 26  2  0
M  END
>  <DRUGBANK_ID>  (1) 
DB08568

>  <COMMON_NAME>  (1) 
A-674563

>  <CAS_NUMBER>  (1) 
552325-73-2

>  <UNII>  (1) 
3W2X0WGW6C

>  <SYNONYMS>  (1) 
(alphaS)-alpha-(((5-(3-Methyl-1H-indazol-5-yl)-3-pyridinyl)oxy)methyl)benzeneethanamine

$$$$
