7PY
     RDKit          3D

 28 31  0  0  0  0  0  0  0  0999 V2000
    1.0081    0.0292   -0.0267 C   0  0  0  0  0  0  0  0  0  0  0  0
    0.5568   -0.5367    1.1956 O   0  0  0  0  0  0  0  0  0  0  0  0
    0.8512   -1.8623    1.4118 C   0  0  0  0  0  0  0  0  0  0  0  0
    2.1831   -2.3218    1.2966 C   0  0  0  0  0  0  0  0  0  0  0  0
   -0.1491   -2.6887    1.9745 C   0  0  0  0  0  0  0  0  0  0  0  0
   -1.4885   -2.3862    2.0835 O   0  0  0  0  0  0  0  0  0  0  0  0
   -1.9860   -1.2527    1.3806 C   0  0  0  0  0  0  0  0  0  0  0  0
    0.2318   -3.9405    2.4942 C   0  0  0  0  0  0  0  0  0  0  0  0
   -0.6896   -4.6787    3.2100 O   0  0  0  0  0  0  0  0  0  0  0  0
   -0.1768   -5.8180    3.9118 C   0  0  0  0  0  0  0  0  0  0  0  0
    1.5453   -4.3827    2.3188 C   0  0  0  0  0  0  0  0  0  0  0  0
    2.5519   -3.5869    1.7627 C   0  0  0  0  0  0  0  0  0  0  0  0
    3.8829   -4.0573    1.7298 N   0  0  0  0  0  0  0  0  0  0  0  0
    4.3279   -5.3114    2.1739 C   0  0  0  0  0  0  0  0  0  0  0  0
    5.2075   -5.4016    3.2056 N   0  0  0  0  0  0  0  0  0  0  0  0
    5.4175   -6.6748    3.6329 C   0  0  0  0  0  0  0  0  0  0  0  0
    3.7451   -6.3681    1.5643 N   0  0  0  0  0  0  0  0  0  0  0  0
    3.9965   -7.6131    1.9865 C   0  0  0  0  0  0  0  0  0  0  0  0
    4.8515   -7.8147    3.0578 C   0  0  0  0  0  0  0  0  0  0  0  0
    5.3322   -8.9578    3.7309 C   0  0  0  0  0  0  0  0  0  0  0  0
    6.2238   -8.5160    4.6814 C   0  0  0  0  0  0  0  0  0  0  0  0
    6.2634   -7.1299    4.6516 N   0  0  0  0  0  0  0  0  0  0  0  0
    7.1134   -6.3701    5.4991 C   0  0  0  0  0  0  0  0  0  0  0  0
    6.5624   -5.4311    6.3634 C   0  0  0  0  0  0  0  0  0  0  0  0
    7.4268   -4.7145    7.1953 C   0  0  0  0  0  0  0  0  0  0  0  0
    8.7989   -4.9330    7.1167 C   0  0  0  0  0  0  0  0  0  0  0  0
    9.2526   -5.9175    6.2564 C   0  0  0  0  0  0  0  0  0  0  0  0
    8.4401   -6.6724    5.4823 N   0  0  0  0  0  0  0  0  0  0  0  0
  1  2  1  0
  2  3  1  0
  3  4  2  0
  3  5  1  0
  4 12  1  0
  5  6  1  0
  5  8  2  0
  6  7  1  0
  8  9  1  0
  8 11  1  0
  9 10  1  0
 11 12  2  0
 12 13  1  0
 13 14  1  0
 14 15  2  0
 14 17  1  0
 15 16  1  0
 16 19  2  0
 16 22  1  0
 17 18  2  0
 18 19  1  0
 19 20  1  0
 20 21  2  0
 21 22  1  0
 22 23  1  0
 23 24  2  0
 23 28  1  0
 24 25  1  0
 25 26  2  0
 26 27  1  0
 27 28  2  0
M  END
>  <DRUGBANK_ID>  (1) 
DB07248

>  <COMMON_NAME>  (1) 
7-PYRIDIN-2-YL-N-(3,4,5-TRIMETHOXYPHENYL)-7H-PYRROLO[2,3-D]PYRIMIDIN-2-AMINE

$$$$
