
     RDKit          3D

 16 16  0  0  0  0  0  0  0  0999 V2000
    1.0124    0.1129   -0.0038 O   0  0  0  0  0  0  0  0  0  0  0  0
    1.1702   -0.0793    2.2062 O   0  0  0  0  0  0  0  0  0  0  0  0
   -2.8470    2.2916   -0.9920 O   0  0  0  0  0  0  0  0  0  0  0  0
   -3.0056   -1.1913   -1.5309 O   0  0  0  0  0  0  0  0  0  0  0  0
   -1.7829    0.9446    0.3648 N   0  0  0  0  0  0  0  0  0  0  0  0
   -3.0517    0.1893   -1.5540 N   0  0  0  0  0  0  0  0  0  0  0  0
   -1.0615   -0.0818    1.2031 C   0  0  1  0  0  0  0  0  0  0  0  0
   -1.3545   -1.4699    0.7298 C   0  0  0  0  0  0  0  0  0  0  0  0
   -0.9721   -2.7691    1.2917 C   0  0  0  0  0  0  0  0  0  0  0  0
    0.4691    0.0513    1.2343 C   0  0  0  0  0  0  0  0  0  0  0  0
   -0.4871   -2.8285    2.5792 C   0  0  0  0  0  0  0  0  0  0  0  0
   -1.3266   -3.9205    0.5585 C   0  0  0  0  0  0  0  0  0  0  0  0
   -0.3213   -4.0613    3.1574 C   0  0  0  0  0  0  0  0  0  0  0  0
   -1.2233   -5.1511    1.1709 C   0  0  0  0  0  0  0  0  0  0  0  0
   -2.5531    1.1184   -0.7300 C   0  0  0  0  0  0  0  0  0  0  0  0
   -0.6880   -5.2151    2.4584 C   0  0  0  0  0  0  0  0  0  0  0  0
  1 10  1  0
  2 10  2  0
  3 15  2  0
  4  6  1  0
  5 15  1  0
  6 15  1  0
  7  5  1  0
  7  8  1  6
  7 10  1  0
  8  9  1  0
  9 11  2  0
  9 12  1  0
 11 13  1  0
 12 14  2  0
 13 16  2  0
 14 16  1  0
M  END
>  <DRUGBANK_ID>  (1) 
DB02652

>  <SECONDARY_ACCESSION_NUMBERS>  (1) 
EXPT02026

>  <COMMON_NAME>  (1) 
L-[(N-Hydroxyamino)Carbonyl]Phenylalanine

$$$$
