
     RDKit          3D

 29 32  0  0  0  0  0  0  0  0999 V2000
    2.5396   -0.0233    0.0032 C   0  0  0  0  0  0  0  0  0  0  0  0
    1.0462   -0.0654    0.0602 C   0  0  0  0  0  0  0  0  0  0  0  0
    0.3834    1.1381    0.0316 C   0  0  0  0  0  0  0  0  0  0  0  0
   -0.9971    1.1556   -0.0080 C   0  0  0  0  0  0  0  0  0  0  0  0
   -1.8190    0.0264   -0.0465 C   0  0  0  0  0  0  0  0  0  0  0  0
   -1.1481   -1.2027   -0.0127 C   0  0  0  0  0  0  0  0  0  0  0  0
    0.2723   -1.2401    0.0458 C   0  0  0  0  0  0  0  0  0  0  0  0
    0.9316   -2.4885   -0.0105 N   0  0  0  0  0  0  0  0  0  0  0  0
    1.8498   -2.8467    0.9267 N   0  0  0  0  0  0  0  0  0  0  0  0
    2.2732   -4.0446    0.5239 C   0  0  0  0  0  0  0  0  0  0  0  0
    1.6678   -4.4670   -0.6778 C   0  0  0  0  0  0  0  0  0  0  0  0
    1.8524   -5.6878   -1.4337 C   0  0  0  0  0  0  0  0  0  0  0  0
    2.2248   -5.6710   -2.6033 O   0  0  0  0  0  0  0  0  0  0  0  0
    1.4940   -6.9883   -0.7905 C   0  0  0  0  0  0  0  0  0  0  0  0
    1.0712   -7.0589    0.5435 C   0  0  0  0  0  0  0  0  0  0  0  0
    0.7234   -8.2789    1.1158 C   0  0  0  0  0  0  0  0  0  0  0  0
    0.7712   -9.4434    0.3540 C   0  0  0  0  0  0  0  0  0  0  0  0
    1.1795   -9.3937   -0.9842 C   0  0  0  0  0  0  0  0  0  0  0  0
    1.5409   -8.1657   -1.5557 C   0  0  0  0  0  0  0  0  0  0  0  0
    1.2299  -10.5961   -1.7581 C   0  0  0  0  0  0  0  0  0  0  0  0
    1.2732  -11.5836   -2.3786 N   0  0  0  0  0  0  0  0  0  0  0  0
    0.7995   -3.4477   -1.0078 C   0  0  0  0  0  0  0  0  0  0  0  0
   -0.0248   -3.3278   -2.0757 N   0  0  0  0  0  0  0  0  0  0  0  0
   -3.3447    0.0899   -0.1268 C   0  0  0  0  0  0  0  0  0  0  0  0
   -3.9867   -0.9601   -0.0785 O   0  0  0  0  0  0  0  0  0  0  0  0
   -4.0332    1.3195   -0.2431 N   0  0  0  0  0  0  0  0  0  0  0  0
   -3.4187    2.5660    0.0548 C   0  0  0  0  0  0  0  0  0  0  0  0
   -3.4196    4.0485   -0.1097 C   0  0  0  0  0  0  0  0  0  0  0  0
   -2.9810    3.2782   -1.2753 C   0  0  0  0  0  0  0  0  0  0  0  0
  1  2  1  0
  2  3  2  0
  2  7  1  0
  3  4  1  0
  4  5  2  0
  5  6  1  0
  5 24  1  0
  6  7  2  0
  7  8  1  0
  8  9  1  0
  8 22  1  0
  9 10  2  0
 10 11  1  0
 11 12  1  0
 11 22  2  0
 12 13  2  0
 12 14  1  0
 14 15  2  0
 14 19  1  0
 15 16  1  0
 16 17  2  0
 17 18  1  0
 18 19  2  0
 18 20  1  0
 20 21  3  0
 22 23  1  0
 24 25  2  0
 24 26  1  0
 26 27  1  0
 27 28  1  0
 27 29  1  0
 28 29  1  0
M  END
>  <DRUGBANK_ID>  (1) 
DB15448

>  <COMMON_NAME>  (1) 
Acumapimod

>  <CAS_NUMBER>  (1) 
836683-15-9

>  <UNII>  (1) 
2F16KW647L

>  <SYNONYMS>  (1) 
Acumapimod

$$$$
