
     RDKit          3D

 12 12  0  0  0  0  0  0  0  0999 V2000
    1.4008   -0.2457    0.0084 C   0  0  0  0  0  0  0  0  0  0  0  0
    0.4449   -1.2883    0.0427 C   0  0  0  0  0  0  0  0  0  0  0  0
   -0.9343   -1.0087   -0.0128 C   0  0  0  0  0  0  0  0  0  0  0  0
   -1.2775    0.3387   -0.0932 C   0  0  0  0  0  0  0  0  0  0  0  0
   -0.3611    1.3698    0.0069 C   0  0  0  0  0  0  0  0  0  0  0  0
    0.9930    1.0927   -0.0408 C   0  0  0  0  0  0  0  0  0  0  0  0
    1.9168    2.2525   -0.2701 C   0  0  0  0  0  0  0  0  0  0  0  0
    1.5581    2.9053   -1.4901 O   0  0  0  0  0  0  0  0  0  0  0  0
   -1.9045   -2.0387    0.0066 N   0  0  0  0  0  0  0  0  0  0  0  0
   -3.2705   -1.9919    0.0163 C   0  0  0  0  0  0  0  0  0  0  0  0
   -4.0322   -3.0405    0.1096 N   0  0  0  0  0  0  0  0  0  0  0  0
   -3.9448   -0.8304   -0.1071 N   0  0  0  0  0  0  0  0  0  0  0  0
  1  2  2  0
  1  6  1  0
  2  3  1  0
  3  4  2  0
  3  9  1  0
  4  5  1  0
  5  6  2  0
  6  7  1  0
  7  8  1  0
  9 10  1  0
 10 11  2  0
 10 12  1  0
M  END
>  <DRUGBANK_ID>  (1) 
DB06900

>  <COMMON_NAME>  (1) 
1-[4-(hydroxymethyl)phenyl]guanidine

$$$$
