
     RDKit          3D

 38 42  0  0  1  0  0  0  0  0999 V2000
    0.9316   -0.1672    0.0540 C   0  0  0  0  0  0  0  0  0  0  0  0
    0.3600   -1.3125    0.6812 O   0  0  0  0  0  0  0  0  0  0  0  0
    0.8422   -2.5169    0.2039 C   0  0  0  0  0  0  0  0  0  0  0  0
   -0.0068   -3.5564    0.2796 N   0  0  0  0  0  0  0  0  0  0  0  0
    0.4582   -4.7914   -0.0598 C   0  0  0  0  0  0  0  0  0  0  0  0
   -0.5113   -5.7522    0.1176 O   0  0  0  0  0  0  0  0  0  0  0  0
   -0.2366   -7.1348   -0.0737 C   0  0  0  0  0  0  0  0  0  0  0  0
    1.7415   -4.9842   -0.5556 C   0  0  0  0  0  0  0  0  0  0  0  0
    2.5405   -3.8502   -0.5160 C   0  0  0  0  0  0  0  0  0  0  0  0
    2.1240   -2.6093   -0.1641 N   0  0  0  0  0  0  0  0  0  0  0  0
    2.2809   -6.2414   -1.0877 C   0  0  0  0  0  0  0  0  0  0  0  0
    3.1634   -6.9947   -0.4362 N   0  0  0  0  0  0  0  0  0  0  0  0
    3.1871   -8.1855   -1.0936 C   0  0  0  0  0  0  0  0  0  0  0  0
    2.3947   -8.1641   -2.2107 C   0  0  0  0  0  0  0  0  0  0  0  0
    2.3932   -9.5232   -2.8978 C   0  0  1  0  0  0  0  0  0  0  0  0
    3.1491  -10.3382   -1.8673 N   0  0  0  0  0  0  0  0  0  0  0  0
    3.7464   -9.5097   -0.8825 C   0  0  0  0  0  0  0  0  0  0  0  0
    4.6207   -9.8284   -0.0727 O   0  0  0  0  0  0  0  0  0  0  0  0
    3.1798  -11.7443   -1.7809 C   0  0  0  0  0  0  0  0  0  0  0  0
    3.4593  -12.5636   -2.8140 C   0  0  0  0  0  0  0  0  0  0  0  0
    3.3063  -14.0033   -2.7230 C   0  0  0  0  0  0  0  0  0  0  0  0
    3.7740  -14.9815   -4.0629 Cl  0  0  0  0  0  0  0  0  0  0  0  0
    2.7847  -14.5694   -1.6286 C   0  0  0  0  0  0  0  0  0  0  0  0
    2.4133  -13.8017   -0.5425 N   0  0  0  0  0  0  0  0  0  0  0  0
    1.7952  -14.4519    0.6096 C   0  0  0  0  0  0  0  0  0  0  0  0
    2.5776  -12.4034   -0.5152 C   0  0  0  0  0  0  0  0  0  0  0  0
    2.1183  -11.7095    0.3910 O   0  0  0  0  0  0  0  0  0  0  0  0
    1.0080  -10.0050   -3.2941 C   0  0  0  0  0  0  0  0  0  0  0  0
    0.2834   -9.2865   -4.2462 C   0  0  0  0  0  0  0  0  0  0  0  0
   -1.1042   -9.3919   -4.3289 C   0  0  0  0  0  0  0  0  0  0  0  0
   -1.7266  -10.4817   -3.7497 C   0  0  0  0  0  0  0  0  0  0  0  0
   -3.4209  -10.6901   -3.8813 Cl  0  0  0  0  0  0  0  0  0  0  0  0
   -0.9656  -11.4176   -3.0781 C   0  0  0  0  0  0  0  0  0  0  0  0
    0.3579  -11.1197   -2.7697 C   0  0  0  0  0  0  0  0  0  0  0  0
    1.8189   -6.8958   -2.2609 N   0  0  0  0  0  0  0  0  0  0  0  0
    0.8318   -6.3408   -3.2109 C   0  0  0  0  0  0  0  0  0  0  0  0
   -0.6585   -6.0766   -2.8406 C   0  0  0  0  0  0  0  0  0  0  0  0
    1.3546   -5.1203   -3.9371 C   0  0  0  0  0  0  0  0  0  0  0  0
  1  2  1  0
  2  3  1  0
  3  4  2  0
  3 10  1  0
  4  5  1  0
  5  6  1  0
  5  8  2  0
  6  7  1  0
  8  9  1  0
  8 11  1  0
  9 10  2  0
 11 12  2  0
 11 35  1  0
 12 13  1  0
 13 14  2  0
 13 17  1  0
 14 35  1  0
 15 14  1  0
 15 16  1  0
 15 28  1  1
 16 17  1  0
 16 19  1  0
 17 18  2  0
 19 20  2  0
 19 26  1  0
 20 21  1  0
 21 22  1  0
 21 23  2  0
 23 24  1  0
 24 25  1  0
 24 26  1  0
 26 27  2  0
 28 29  2  0
 28 34  1  0
 29 30  1  0
 30 31  2  0
 31 32  1  0
 31 33  1  0
 33 34  2  0
 35 36  1  0
 36 37  1  0
 36 38  1  0
M  END
>  <DRUGBANK_ID>  (1) 
DB16331

>  <COMMON_NAME>  (1) 
Siremadlin

>  <CAS_NUMBER>  (1) 
1448867-41-1

>  <UNII>  (1) 
0282IF4JC8

>  <SYNONYMS>  (1) 
Siremadlin

$$$$
