
     RDKit          3D

 24 27  0  0  0  0  0  0  0  0999 V2000
    1.0576    0.2421    0.0205 C   0  0  0  0  0  0  0  0  0  0  0  0
    0.5539    0.6408    1.3274 N   0  0  0  0  0  0  0  0  0  0  0  0
   -0.9115    0.6110    1.3164 C   0  0  0  0  0  0  0  0  0  0  0  0
    1.0426   -0.2586    2.3752 C   0  0  0  0  0  0  0  0  0  0  0  0
    0.4933   -1.6814    2.3286 C   0  0  0  0  0  0  0  0  0  0  0  0
    1.0355   -2.5565    1.2586 C   0  0  0  0  0  0  0  0  0  0  0  0
    1.8993   -3.5877    1.2917 C   0  0  0  0  0  0  0  0  0  0  0  0
    2.3607   -3.9059   -0.1423 C   0  0  0  0  0  0  0  0  0  0  0  0
    2.0463   -3.0270   -1.3156 C   0  0  0  0  0  0  0  0  0  0  0  0
    2.3975   -3.2076   -2.6582 C   0  0  0  0  0  0  0  0  0  0  0  0
    3.1377   -4.3242   -2.9240 C   0  0  0  0  0  0  0  0  0  0  0  0
    3.4521   -5.2346   -1.8370 C   0  0  0  0  0  0  0  0  0  0  0  0
    3.0960   -5.0396   -0.4143 C   0  0  0  0  0  0  0  0  0  0  0  0
    3.2680   -6.0111    0.5912 O   0  0  0  0  0  0  0  0  0  0  0  0
    3.8451   -5.7931    2.1185 C   0  0  0  0  0  0  0  0  0  0  0  0
    2.9278   -4.9904    3.3924 C   0  0  0  0  0  0  0  0  0  0  0  0
    2.1259   -4.0846    2.6681 C   0  0  0  0  0  0  0  0  0  0  0  0
    1.3068   -3.7175    3.6261 O   0  0  0  0  0  0  0  0  0  0  0  0
    1.5191   -4.1358    4.8634 C   0  0  0  0  0  0  0  0  0  0  0  0
    2.7522   -4.8352    5.1942 C   0  0  0  0  0  0  0  0  0  0  0  0
    2.3978   -4.5053    6.9183 C   0  0  0  0  0  0  0  0  0  0  0  0
    1.1474   -4.2242    7.5767 C   0  0  0  0  0  0  0  0  0  0  0  0
    0.4869   -4.8354    6.6728 C   0  0  0  0  0  0  0  0  0  0  0  0
    0.4363   -3.8932    5.6803 C   0  0  0  0  0  0  0  0  0  0  0  0
  1  2  1  0
  2  3  1  0
  2  4  1  0
  4  5  1  0
  6  5  1  0
  6  7  2  3
  7  8  1  0
  7 17  1  0
  8  9  2  0
  8 13  1  0
  9 10  1  0
 10 11  2  0
 11 12  1  0
 12 13  2  0
 13 14  1  0
 14 15  1  0
 15 16  1  0
 16 17  2  0
 16 20  1  0
 17 18  1  0
 18 19  1  0
 19 20  2  0
 19 24  1  0
 20 21  1  0
 21 22  2  0
 22 23  1  0
 23 24  2  0
M  END
>  <DRUGBANK_ID>  (1) 
DB13463

>  <COMMON_NAME>  (1) 
Oxetorone

>  <CAS_NUMBER>  (1) 
26020-55-3

>  <UNII>  (1) 
T3XOS33TIQ

>  <SYNONYMS>  (1) 
Oxetorone

$$$$
