
     RDKit          3D

 29 32  0  0  0  0  0  0  0  0999 V2000
    1.1340    0.0226    0.0543 C   0  0  0  0  0  0  0  0  0  0  0  0
    1.1118    0.1498    2.5442 C   0  0  0  0  0  0  0  0  0  0  0  0
   -1.5028   -1.4476    0.1126 C   0  0  0  0  0  0  0  0  0  0  0  0
   -1.8181   -0.3846    5.8110 C   0  0  0  0  0  0  0  0  0  0  0  0
   -6.6407    2.4515    5.0029 C   0  0  0  0  0  0  0  0  0  0  0  0
   -3.8890   -3.5033    6.2189 C   0  0  0  0  0  0  0  0  0  0  0  0
   -1.4725   -1.2729    2.5456 C   0  0  0  0  0  0  0  0  0  0  0  0
   -2.1929   -0.5581    3.4129 C   0  0  0  0  0  0  0  0  0  0  0  0
   -4.6276    2.9603    7.5635 C   0  0  0  0  0  0  0  0  0  0  0  0
   -4.0998    1.6097    7.5119 C   0  0  0  0  0  0  0  0  0  0  0  0
   -4.9169   -2.1080    4.9463 C   0  0  0  0  0  0  0  0  0  0  0  0
   -5.0510   -1.9758    7.1043 C   0  0  0  0  0  0  0  0  0  0  0  0
   -7.0124    2.8034    9.1220 C   0  0  0  0  0  0  0  0  0  0  0  0
   -7.1073   -0.3978    5.8065 C   0  0  0  0  0  0  0  0  0  0  0  0
   -7.7658    2.1625    7.6354 C   0  0  0  0  0  0  0  0  0  0  0  0
   -6.7106   -1.8455    5.9257 C   0  0  0  0  0  0  0  0  0  0  0  0
   -6.8034    4.4615    7.4280 C   0  0  0  0  0  0  0  0  0  0  0  0
    0.5912   -0.6262    1.3255 C   0  0  0  0  0  0  0  0  0  0  0  0
   -0.9509   -0.6569    1.2906 C   0  0  1  0  0  0  0  0  0  0  0  0
   -2.5806   -1.1190    4.7260 C   0  0  2  0  0  0  0  0  0  0  0  0
   -5.8413    3.2473    7.0406 C   0  0  0  0  0  0  0  0  0  0  0  0
   -7.4174    4.2187    8.8510 C   0  0  1  0  0  0  0  0  0  0  0  0
   -4.8098    0.5543    7.0636 C   0  0  0  0  0  0  0  0  0  0  0  0
   -4.0779   -0.9497    4.8630 C   0  0  2  0  0  0  0  0  0  0  0  0
   -4.2629   -0.7881    7.1612 C   0  0  2  0  0  0  0  0  0  0  0  0
   -6.2537    0.6164    6.6948 C   0  0  1  0  0  0  0  0  0  0  0  0
   -6.6637    2.0835    6.5116 C   0  0  2  0  0  0  0  0  0  0  0  0
   -4.6655   -1.6840    6.0341 C   0  0  2  0  0  0  0  0  0  0  0  0
   -8.8197    3.9796    9.1856 O   0  0  0  0  0  0  0  0  0  0  0  0
  8  7  2  0
 10  9  1  0
 12 11  1  0
 15 13  1  0
 16 14  1  0
 18  1  1  0
 18  2  1  0
 19  3  1  6
 19  7  1  0
 19 18  1  0
 20  4  1  1
 20  8  1  0
 21  9  2  0
 21 17  1  0
 22 13  1  0
 22 17  1  0
 22 29  1  6
 23 10  2  0
 24 11  1  6
 24 20  1  0
 24 28  1  0
 25 12  1  1
 25 23  1  0
 26 14  1  6
 26 23  1  0
 26 27  1  0
 27  5  1  6
 27 15  1  0
 27 21  1  0
 28  6  1  1
 28 16  1  0
 28 25  1  0
M  END
>  <DRUGBANK_ID>  (1) 
DB04038

>  <SECONDARY_ACCESSION_NUMBERS>  (1) 
EXPT01357

>  <COMMON_NAME>  (1) 
Ergosterol

>  <CAS_NUMBER>  (1) 
57-87-4

>  <UNII>  (1) 
Z30RAY509F

>  <SYNONYMS>  (1) 
(22E,24S)-24-methylcholesta-5,7,22-trien-3Î²-ol; Provitamin D2

$$$$
