451
     RDKit          3D

 30 32  0  0  0  0  0  0  0  0999 V2000
    6.2071   -0.5661   -0.3185 C   0  0  0  0  0  0  0  0  0  0  0  0
    6.1519    0.6850    0.3067 C   0  0  0  0  0  0  0  0  0  0  0  0
    4.8904    1.1984    0.5795 C   0  0  0  0  0  0  0  0  0  0  0  0
    3.7129    0.5632    0.2329 C   0  0  0  0  0  0  0  0  0  0  0  0
    3.7687   -0.6865   -0.3457 C   0  0  0  0  0  0  0  0  0  0  0  0
    5.0159   -1.2470   -0.6444 C   0  0  0  0  0  0  0  0  0  0  0  0
    2.5886   -1.2827   -0.6738 O   0  0  0  0  0  0  0  0  0  0  0  0
    2.4353   -2.5825   -0.0952 C   0  0  0  0  0  0  0  0  0  0  0  0
    1.2302   -2.5906    0.8437 C   0  0  0  0  0  0  0  0  0  0  0  0
    0.0288   -2.5559    0.0697 O   0  0  0  0  0  0  0  0  0  0  0  0
   -1.1295   -2.3673    0.8889 C   0  0  0  0  0  0  0  0  0  0  0  0
   -2.3829   -2.4901    0.0219 C   0  0  0  0  0  0  0  0  0  0  0  0
   -2.6149   -1.2513   -0.6683 O   0  0  0  0  0  0  0  0  0  0  0  0
   -3.8010   -0.6634   -0.3133 C   0  0  0  0  0  0  0  0  0  0  0  0
   -3.7875    0.6041    0.2786 C   0  0  0  0  0  0  0  0  0  0  0  0
   -2.5801    1.1713    0.5852 O   0  0  0  0  0  0  0  0  0  0  0  0
   -2.4365    2.5199    0.1127 C   0  0  0  0  0  0  0  0  0  0  0  0
   -1.2346    2.5898   -0.8242 C   0  0  0  0  0  0  0  0  0  0  0  0
   -0.0334    2.5619   -0.0526 O   0  0  0  0  0  0  0  0  0  0  0  0
    1.1190    2.4227   -0.8852 C   0  0  0  0  0  0  0  0  0  0  0  0
    2.3598    2.4598   -0.0073 C   0  0  0  0  0  0  0  0  0  0  0  0
    2.5243    1.1486    0.5720 O   0  0  0  0  0  0  0  0  0  0  0  0
   -5.0169   -1.2735   -0.6315 C   0  0  0  0  0  0  0  0  0  0  0  0
   -6.2186   -0.6384   -0.3133 C   0  0  0  0  0  0  0  0  0  0  0  0
   -6.2063    0.6070    0.3150 C   0  0  0  0  0  0  0  0  0  0  0  0
   -4.9926    1.2240    0.6197 C   0  0  0  0  0  0  0  0  0  0  0  0
    7.3437    1.3740    0.6333 N   0  0  0  0  0  0  0  0  0  0  0  0
    7.5407    2.6001    1.2261 C   0  0  0  0  0  0  0  0  0  0  0  0
    8.6959    3.0080    1.4064 O   0  0  0  0  0  0  0  0  0  0  0  0
    6.3777    3.4510    1.6554 C   0  0  0  0  0  0  0  0  0  0  0  0
  1  6  2  0
  2  1  1  0
  2  3  2  0
  3  4  1  0
  4  5  2  0
  4 22  1  0
  5  7  1  0
  6  5  1  0
  8  7  1  0
  8  9  1  0
  9 10  1  0
 10 11  1  0
 11 12  1  0
 13 12  1  0
 13 14  1  0
 14 23  2  0
 15 14  1  0
 15 26  2  0
 16 15  1  0
 16 17  1  0
 17 18  1  0
 19 18  1  0
 20 19  1  0
 21 20  1  0
 22 21  1  0
 23 24  1  0
 25 24  2  0
 26 25  1  0
 27  2  1  0
 27 28  1  0
 28 29  2  0
 30 28  1  0
M  END
>  <DRUGBANK_ID>  (1) 
DB07084

>  <COMMON_NAME>  (1) 
N-(6,7,9,10,17,18,20,21-octahydrodibenzo[b,k][1,4,7,10,13,16]hexaoxacyclooctadecin-2-yl)acetamide

$$$$
