MSI
     RDKit          3D

 28 31  0  0  0  0  0  0  0  0999 V2000
    1.2410   -0.1924   -0.0911 S   0  0  0  0  0  0  0  0  0  0  0  0
    7.0914    0.5064   -0.0306 N   0  0  0  0  0  0  0  0  0  0  0  0
    0.8231    0.7504    1.2734 N   0  0  0  0  0  0  0  0  0  0  0  0
   -0.7308    2.9858   -0.3967 O   0  0  0  0  0  0  0  0  0  0  0  0
    8.1475    2.6403   -0.0327 O   0  0  0  0  0  0  0  0  0  0  0  0
    5.2948    3.5333   -0.0256 O   0  0  0  0  0  0  0  0  0  0  0  0
    0.8692    0.3999   -1.3510 O   0  0  0  0  0  0  0  0  0  0  0  0
    0.8863   -1.5654    0.2135 O   0  0  0  0  0  0  0  0  0  0  0  0
    7.1755    1.8991   -0.0479 C   0  0  0  0  0  0  0  0  0  0  0  0
    5.7326    2.3977   -0.1082 C   0  0  0  0  0  0  0  0  0  0  0  0
    3.5856    1.1437   -0.3199 C   0  0  0  0  0  0  0  0  0  0  0  0
    2.9895   -0.0918   -0.1334 C   0  0  0  0  0  0  0  0  0  0  0  0
    3.7529   -1.2536   -0.0369 C   0  0  0  0  0  0  0  0  0  0  0  0
    5.1561   -1.1723   -0.0405 C   0  0  0  0  0  0  0  0  0  0  0  0
    5.7484    0.0845   -0.0815 C   0  0  0  0  0  0  0  0  0  0  0  0
    4.9386    1.1972   -0.1991 C   0  0  0  0  0  0  0  0  0  0  0  0
    0.9502    2.2340    1.3485 C   0  0  1  0  0  0  0  0  0  0  0  0
    2.2269    2.3239    2.2001 C   0  0  0  0  0  0  0  0  0  0  0  0
    1.9947    1.2496    3.2785 C   0  0  0  0  0  0  0  0  0  0  0  0
    1.0392    0.2378    2.6400 C   0  0  0  0  0  0  0  0  0  0  0  0
    0.6924    2.9221   -0.0078 C   0  0  0  0  0  0  0  0  0  0  0  0
   -1.4282    1.8050   -0.5626 C   0  0  0  0  0  0  0  0  0  0  0  0
   -1.6759    0.9234    0.4889 C   0  0  0  0  0  0  0  0  0  0  0  0
   -2.0129   -0.4149    0.2445 C   0  0  0  0  0  0  0  0  0  0  0  0
   -2.4605   -0.7875   -1.0078 C   0  0  0  0  0  0  0  0  0  0  0  0
   -2.5440    0.1887   -1.9973 C   0  0  0  0  0  0  0  0  0  0  0  0
   -1.9489    1.4538   -1.8066 C   0  0  0  0  0  0  0  0  0  0  0  0
    8.2331   -0.3666   -0.0389 C   0  0  0  0  0  0  0  0  0  0  0  0
  1  3  1  0
  1  7  2  0
  1  8  2  0
  1 12  1  0
  2  9  1  0
  2 15  1  0
  2 28  1  0
  3 17  1  0
  3 20  1  0
  4 21  1  0
  4 22  1  0
  5  9  2  0
  6 10  2  0
  9 10  1  0
 10 16  1  0
 11 12  1  0
 11 16  2  0
 12 13  2  0
 13 14  1  0
 14 15  2  0
 15 16  1  0
 17 18  1  0
 17 21  1  6
 18 19  1  0
 19 20  1  0
 22 23  2  0
 22 27  1  0
 23 24  1  0
 24 25  2  0
 25 26  1  0
 26 27  2  0
M  END
>  <DRUGBANK_ID>  (1) 
DB08213

>  <COMMON_NAME>  (1) 
1-METHYL-5-(2-PHENOXYMETHYL-PYRROLIDINE-1-SULFONYL)-1H-INDOLE-2,3-DIONE

$$$$
