B98
     RDKit          3D

 19 21  0  0  0  0  0  0  0  0999 V2000
   -3.6729   -0.1142    0.3277 C   0  0  0  0  0  0  0  0  0  0  0  0
   -2.7839   -1.1839    0.2840 C   0  0  0  0  0  0  0  0  0  0  0  0
   -1.8886    1.4358   -0.1651 C   0  0  0  0  0  0  0  0  0  0  0  0
   -0.9619    0.3595   -0.2385 C   0  0  0  0  0  0  0  0  0  0  0  0
    0.4556    0.3196   -0.4389 C   0  0  0  0  0  0  0  0  0  0  0  0
   -3.2425    1.1895    0.1064 C   0  0  0  0  0  0  0  0  0  0  0  0
   -1.4383   -0.9330   -0.0056 C   0  0  0  0  0  0  0  0  0  0  0  0
    0.9855   -0.9459   -0.3864 C   0  0  0  0  0  0  0  0  0  0  0  0
    2.3668   -1.3506   -0.4766 C   0  0  0  0  0  0  0  0  0  0  0  0
    2.2324    1.6262    0.5046 C   0  0  0  0  0  0  0  0  0  0  0  0
    3.4673    0.7020    0.3526 C   0  0  1  0  0  0  0  0  0  0  0  0
   -5.4389    2.0289    0.3862 C   0  0  0  0  0  0  0  0  0  0  0  0
    4.5500    1.1095    1.3695 C   0  0  0  0  0  0  0  0  0  0  0  0
    1.2414    1.4105   -0.5395 N   0  0  0  0  0  0  0  0  0  0  0  0
    3.2041   -0.7337    0.4325 N   0  0  0  0  0  0  0  0  0  0  0  0
    4.8518    2.5364    1.2886 N   0  0  0  0  0  0  0  0  0  0  0  0
    2.8000   -2.2136   -1.2247 O   0  0  0  0  0  0  0  0  0  0  0  0
   -4.0590    2.2911    0.1360 O   0  0  0  0  0  0  0  0  0  0  0  0
   -0.2011   -2.1209   -0.1080 S   0  0  0  0  0  0  0  0  0  0  0  0
  1  2  2  0
  1  6  1  0
  2  7  1  0
  3  4  1  0
  3  6  2  0
  4  5  1  0
  4  7  2  0
  5  8  2  0
  5 14  1  0
  6 18  1  0
  7 19  1  0
  8  9  1  0
  8 19  1  0
  9 15  1  0
  9 17  2  0
 10 11  1  0
 10 14  1  0
 11 15  1  0
 11 13  1  1
 12 18  1  0
 13 16  1  0
M  END
>  <DRUGBANK_ID>  (1) 
DB07431

>  <COMMON_NAME>  (1) 
(3R)-3-(aminomethyl)-9-methoxy-1,2,3,4-tetrahydro-5H-[1]benzothieno[3,2-e][1,4]diazepin-5-one

$$$$
