1477
     RDKit          3D

 24 27  0  0  1  0  0  0  0  0999 V2000
    1.0426   -0.1151   -0.0223 Br  0  0  0  0  0  0  0  0  0  0  0  0
   -4.1413    4.7596    2.6536 O   0  0  0  0  0  0  0  0  0  0  0  0
   -0.9501    3.2630    0.8498 O   0  0  0  0  0  0  0  0  0  0  0  0
   -6.9906    5.2651    1.8797 O   0  0  0  0  0  0  0  0  0  0  0  0
   -2.2168    1.2048    6.4827 N   0  0  0  0  0  0  0  0  0  0  0  0
   -3.7484    2.9451    4.4010 C   0  0  1  0  0  0  0  0  0  0  0  0
   -2.0096    3.0348    4.5680 C   0  0  1  0  0  0  0  0  0  0  0  0
   -2.1533    1.6692    4.9303 C   0  0  2  0  0  0  0  0  0  0  0  0
   -4.3384    1.3179    5.1590 C   0  0  0  0  0  0  0  0  0  0  0  0
   -3.1262    3.8636    3.1226 C   0  0  1  0  0  0  0  0  0  0  0  0
   -4.7950    2.7445    3.3499 C   0  0  0  0  0  0  0  0  0  0  0  0
   -3.7905    1.1656    6.5577 C   0  0  0  0  0  0  0  0  0  0  0  0
   -3.0007    1.0267    3.2437 C   0  0  0  0  0  0  0  0  0  0  0  0
   -4.4021    1.8075    2.4301 C   0  0  0  0  0  0  0  0  0  0  0  0
   -0.6275    2.7942    3.9480 C   0  0  0  0  0  0  0  0  0  0  0  0
   -1.5955    3.2338    2.1194 C   0  0  2  0  0  0  0  0  0  0  0  0
   -5.3874    3.9698    2.9660 C   0  0  0  0  0  0  0  0  0  0  0  0
   -1.9597    0.5736    7.8586 C   0  0  0  0  0  0  0  0  0  0  0  0
   -0.7510    0.8234    6.0533 C   0  0  0  0  0  0  0  0  0  0  0  0
   -0.4226    3.5657    2.9628 C   0  0  0  0  0  0  0  0  0  0  0  0
   -4.7837    2.2602    1.0571 C   0  0  0  0  0  0  0  0  0  0  0  0
   -6.1581    4.1892    1.8476 C   0  0  0  0  0  0  0  0  0  0  0  0
   -5.7437    3.3845    0.8070 C   0  0  0  0  0  0  0  0  0  0  0  0
   -7.0930    6.0111    0.6724 C   0  0  0  0  0  0  0  0  0  0  0  0
 10  2  1  6
  2 17  1  0
  4 24  1  0
  4 22  1  0
  5  8  1  0
  5 12  1  0
  5 18  1  0
  5 19  1  0
  6  7  1  0
  6  9  1  6
  6 10  1  0
  6 11  1  0
  7  8  1  0
  7 15  1  6
  8 13  1  6
  9 12  1  0
 10 16  1  0
 11 14  2  0
 11 17  1  0
 13 14  1  0
 14 21  1  0
 15 20  2  0
 16 20  1  0
 16  3  1  6
 17 22  2  0
 21 23  2  0
 22 23  1  0
M  CHG  2   1  -1   5   1
M  END
>  <DRUGBANK_ID>  (1) 
DB01477

>  <COMMON_NAME>  (1) 
Codeine methylbromide

>  <CAS_NUMBER>  (1) 
125-27-9

>  <UNII>  (1) 
25007U9T7H

$$$$
