
     RDKit          3D

  9  9  0  0  0  0  0  0  0  0999 V2000
   -2.7423    0.2036   -0.0046 O   0  0  0  0  0  0  0  0  0  0  0  0
   -1.3787    0.1355   -0.0098 C   0  0  0  0  0  0  0  0  0  0  0  0
   -0.5894    1.2851   -0.0270 C   0  0  0  0  0  0  0  0  0  0  0  0
   -0.8012   -1.1298    0.0056 C   0  0  0  0  0  0  0  0  0  0  0  0
    0.5841   -1.2469    0.0022 C   0  0  0  0  0  0  0  0  0  0  0  0
    1.3933   -0.1154   -0.0072 C   0  0  0  0  0  0  0  0  0  0  0  0
    0.7981    1.1427   -0.0178 C   0  0  0  0  0  0  0  0  0  0  0  0
    1.6302    2.2254   -0.0152 O   0  0  0  0  0  0  0  0  0  0  0  0
    1.1195   -2.5012    0.0103 O   0  0  0  0  0  0  0  0  0  0  0  0
  1  2  1  0
  2  3  2  0
  2  4  1  0
  3  7  1  0
  4  5  2  0
  5  6  1  0
  5  9  1  0
  6  7  2  0
  7  8  1  0
M  END
>  <DRUGBANK_ID>  (1) 
DB12944

>  <COMMON_NAME>  (1) 
Phloroglucinol

>  <CAS_NUMBER>  (1) 
108-73-6

>  <UNII>  (1) 
DHD7FFG6YS

>  <SYNONYMS>  (1) 
Phloroglucin; Phloroglucinol

$$$$
