CDB
     RDKit          3D

 32 34  0  0  0  0  0  0  0  0999 V2000
    1.2490    0.0440   -0.1100 N   0  0  0  0  0  0  0  0  0  0  0  0
    0.5553    1.2041   -0.0160 C   0  0  0  0  0  0  0  0  0  0  0  0
   -0.8376    1.1417    0.0194 C   0  0  0  0  0  0  0  0  0  0  0  0
   -1.4655   -0.0994    0.0101 C   0  0  0  0  0  0  0  0  0  0  0  0
   -0.7068   -1.2645    0.0094 C   0  0  0  0  0  0  0  0  0  0  0  0
    0.6710   -1.1663   -0.0436 C   0  0  0  0  0  0  0  0  0  0  0  0
    1.2966    2.5188    0.0044 C   0  0  0  0  0  0  0  0  0  0  0  0
    2.2146    2.6332    1.2474 C   0  0  0  0  0  0  0  0  0  0  0  0
    2.1024    2.6206   -1.0950 F   0  0  0  0  0  0  0  0  0  0  0  0
    0.4726    3.5974   -0.0290 F   0  0  0  0  0  0  0  0  0  0  0  0
    3.3137    1.5863    1.1881 N   0  0  0  0  0  0  0  0  0  0  0  0
    4.6009    1.9484    1.1389 C   0  0  0  0  0  0  0  0  0  0  0  0
    5.1121    2.9606    2.0936 C   0  0  0  0  0  0  0  0  0  0  0  0
    6.4849    3.2076    2.0517 N   0  0  0  0  0  0  0  0  0  0  0  0
    7.2640    2.6945    1.0104 C   0  0  0  0  0  0  0  0  0  0  0  0
    6.7248    1.8244    0.1439 C   0  0  0  0  0  0  0  0  0  0  0  0
    5.4498    1.3295    0.3252 N   0  0  0  0  0  0  0  0  0  0  0  0
    4.3203    3.4881    2.8847 O   0  0  0  0  0  0  0  0  0  0  0  0
    8.7213    3.0375    0.8799 C   0  0  0  0  0  0  0  0  0  0  0  0
    7.0894    3.9981    3.1435 C   0  0  0  0  0  0  0  0  0  0  0  0
    8.1047    3.1453    3.9368 C   0  0  0  0  0  0  0  0  0  0  0  0
    9.3916    3.6445    4.0068 N   0  0  0  0  0  0  0  0  0  0  0  0
    7.7768    2.0482    4.3853 O   0  0  0  0  0  0  0  0  0  0  0  0
   10.5026    2.9000    4.6159 C   0  0  0  0  0  0  0  0  0  0  0  0
   11.6007    2.5533    3.6302 C   0  0  0  0  0  0  0  0  0  0  0  0
   12.3381    3.5673    3.0282 C   0  0  0  0  0  0  0  0  0  0  0  0
   13.1619    3.2723    1.9428 C   0  0  0  0  0  0  0  0  0  0  0  0
   13.2519    1.9457    1.5220 C   0  0  0  0  0  0  0  0  0  0  0  0
   11.8098    1.2446    3.3246 N   0  0  0  0  0  0  0  0  0  0  0  0
   12.2291    4.8283    3.4700 F   0  0  0  0  0  0  0  0  0  0  0  0
   12.6798    0.9732    2.3238 C   0  0  0  0  0  0  0  0  0  0  0  0
   13.9860    4.3317    1.2810 C   0  0  0  0  0  0  0  0  0  0  0  0
  1  2  2  0
  1  6  1  0
  2  3  1  0
  2  7  1  0
  3  4  2  0
  4  5  1  0
  5  6  2  0
  7  8  1  0
  7  9  1  0
  7 10  1  0
  8 11  1  0
 11 12  1  0
 12 13  1  0
 12 17  2  0
 13 14  1  0
 13 18  2  0
 14 15  1  0
 14 20  1  0
 15 16  2  0
 15 19  1  0
 16 17  1  0
 20 21  1  0
 21 22  1  0
 21 23  2  0
 22 24  1  0
 24 25  1  0
 25 26  2  0
 25 29  1  0
 26 27  1  0
 26 30  1  0
 27 28  2  0
 27 32  1  0
 28 31  1  0
 29 31  2  0
M  CHG  2   1   1  17   1
M  END
>  <DRUGBANK_ID>  (1) 
DB07549

>  <COMMON_NAME>  (1) 
2-(6-CHLORO-3-{[2,2-DIFLUORO-2-(2-PYRIDINYL)ETHYL]AMINO}-2-OXO-1(2H)-PYRAZINYL)-N-[(2-FLUORO-3-METHYL-6-PYRIDINYL)METHYL]ACETAMIDE

$$$$
