LGS
     RDKit          3D

 22 23  0  0  0  0  0  0  0  0999 V2000
    1.2076   -2.5157    0.4666 O   0  0  0  0  0  0  0  0  0  0  0  0
    0.5839   -1.2520    0.2863 C   0  0  2  0  0  0  0  0  0  0  0  0
   -0.1897   -0.8216    1.4999 C   0  0  1  0  0  0  0  0  0  0  0  0
    0.7508   -0.6911    2.6755 C   0  0  0  0  0  0  0  0  0  0  0  0
    0.4573    0.6072    3.2071 O   0  0  0  0  0  0  0  0  0  0  0  0
   -0.3731   -1.2593   -0.8836 C   0  0  2  0  0  0  0  0  0  0  0  0
    0.3753   -1.7172   -2.0254 O   0  0  0  0  0  0  0  0  0  0  0  0
   -0.9261    0.1457   -1.1562 C   0  0  1  0  0  0  0  0  0  0  0  0
   -2.2108   -0.0285   -1.7738 O   0  0  0  0  0  0  0  0  0  0  0  0
   -0.9976    1.1077    0.0611 C   0  0  2  0  0  0  0  0  0  0  0  0
   -0.0599    2.1488   -0.2174 O   0  0  0  0  0  0  0  0  0  0  0  0
   -0.6578    0.5323    1.3271 N   0  0  0  0  0  0  0  0  0  0  0  0
   -0.4044    1.2864    2.4141 C   0  0  0  0  0  0  0  0  0  0  0  0
   -0.9007    2.4447    2.6824 N   0  0  0  0  0  0  0  0  0  0  0  0
   -0.7016    3.1196    3.9579 C   0  0  0  0  0  0  0  0  0  0  0  0
   -1.5870    2.4732    5.0333 C   0  0  0  0  0  0  0  0  0  0  0  0
   -1.1747    1.0293    5.3013 C   0  0  0  0  0  0  0  0  0  0  0  0
    0.3166    0.9728    5.7112 C   0  0  0  0  0  0  0  0  0  0  0  0
    0.5341    1.6158    7.0617 C   0  0  0  0  0  0  0  0  0  0  0  0
   -0.2629    0.8537    8.1082 C   0  0  0  0  0  0  0  0  0  0  0  0
    0.1482   -0.6212    8.1548 C   0  0  0  0  0  0  0  0  0  0  0  0
    1.6208   -0.7456    8.5098 C   0  0  0  0  0  0  0  0  0  0  0  0
  2  3  1  0
  2  6  1  0
  2  1  1  1
  3  4  1  1
  3 12  1  0
  4  5  1  0
  5 13  1  0
  6  8  1  0
  6  7  1  6
  8 10  1  0
  8  9  1  1
 10 11  1  6
 10 12  1  0
 12 13  1  0
 13 14  2  0
 14 15  1  0
 15 16  1  0
 16 17  1  0
 17 18  1  0
 18 19  1  0
 19 20  1  0
 20 21  1  0
 21 22  1  0
M  END
>  <DRUGBANK_ID>  (1) 
DB08090

>  <COMMON_NAME>  (1) 
(3Z,5S,6R,7S,8R,8aR)-3-(octylimino)hexahydro[1,3]oxazolo[3,4-a]pyridine-5,6,7,8-tetrol

$$$$
