
     RDKit          3D

 15 15  0  0  0  0  0  0  0  0999 V2000
   -0.0585    2.0255    0.3394 O   0  0  0  0  0  0  0  0  0  0  0  0
    0.0682   -2.1416    0.3209 O   0  0  0  0  0  0  0  0  0  0  0  0
   -2.4150   -0.7550   -0.2755 O   0  0  0  0  0  0  0  0  0  0  0  0
    2.4630   -0.6083   -0.2985 O   0  0  0  0  0  0  0  0  0  0  0  0
   -2.4584    3.4618   -0.0645 O   0  0  0  0  0  0  0  0  0  0  0  0
    4.1368    3.4238   -0.0084 O   0  0  0  0  0  0  0  0  0  0  0  0
    2.2303    2.2568    0.2547 N   0  0  0  0  0  0  0  0  0  0  0  0
    0.0305   -0.8081   -0.1982 C   0  0  1  0  0  0  0  0  0  0  0  0
   -1.2591   -0.0983    0.2443 C   0  0  1  0  0  0  0  0  0  0  0  0
    1.2750   -0.0216    0.2460 C   0  0  2  0  0  0  0  0  0  0  0  0
   -1.2328    1.3751   -0.1819 C   0  0  1  0  0  0  0  0  0  0  0  0
    1.1267    1.4474   -0.1953 C   0  0  1  0  0  0  0  0  0  0  0  0
   -2.4770    2.0964    0.3431 C   0  0  0  0  0  0  0  0  0  0  0  0
    3.1800    2.8478   -0.5248 C   0  0  0  0  0  0  0  0  0  0  0  0
    3.0020    2.7820   -2.0178 C   0  0  0  0  0  0  0  0  0  0  0  0
  1 11  1  0
  1 12  1  0
  5 13  1  0
  6 14  2  0
  7 14  1  0
  8  2  1  1
  8  9  1  0
  8 10  1  0
  9  3  1  6
  9 11  1  0
 10  4  1  6
 10 12  1  0
 11 13  1  1
 12  7  1  1
 14 15  1  0
M  END
>  <DRUGBANK_ID>  (1) 
DB02320

>  <SECONDARY_ACCESSION_NUMBERS>  (1) 
EXPT02300

>  <COMMON_NAME>  (1) 
N-beta-D-glucopyranosylacetamide

>  <CAS_NUMBER>  (1) 
6983-36-4

>  <SYNONYMS>  (1) 
1-N-acetyl-beta-D-glucosamine

$$$$
