75V
     RDKit          3D

 24 24  0  0  0  0  0  0  0  0999 V2000
    5.4565    1.4996    3.7455 C   0  0  0  0  0  0  0  0  0  0  0  0
    4.7318    0.9077    4.5272 O   0  0  0  0  0  0  0  0  0  0  0  0
    5.8975    2.7807    3.9477 O   0  0  0  0  0  0  0  0  0  0  0  0
    5.3259    3.4933    5.0902 C   0  0  0  0  0  0  0  0  0  0  0  0
    3.8311    3.7480    4.9261 C   0  0  0  0  0  0  0  0  0  0  0  0
    8.2977   -0.1971    1.2774 C   0  0  0  0  0  0  0  0  0  0  0  0
    7.4767    0.9517    1.9421 C   0  0  2  0  0  0  0  0  0  0  0  0
    6.0034    0.7465    2.5298 C   0  0  2  0  0  0  0  0  0  0  0  0
    6.2746    1.4225    1.3098 O   0  0  0  0  0  0  0  0  0  0  0  0
    7.7052   -1.1442    0.7506 O   0  0  0  0  0  0  0  0  0  0  0  0
    9.7253   -0.3621    1.6179 N   0  0  0  0  0  0  0  0  0  0  0  0
   10.5559    0.2988    2.9089 C   0  0  2  0  0  0  0  0  0  0  0  0
    9.8027    0.9874    4.2382 C   0  0  0  0  0  0  0  0  0  0  0  0
   10.2793    1.9520    4.8488 O   0  0  0  0  0  0  0  0  0  0  0  0
   11.3567    1.4360    2.3402 C   0  0  2  0  0  0  0  0  0  0  0  0
   11.7622    1.1380    0.9041 C   0  0  0  0  0  0  0  0  0  0  0  0
   12.5748    1.8314    3.1941 C   0  0  0  0  0  0  0  0  0  0  0  0
   11.9488    2.4491    0.2081 C   0  0  0  0  0  0  0  0  0  0  0  0
    8.6144    0.5514    4.7598 N   0  0  0  0  0  0  0  0  0  0  0  0
    7.9322   -0.7228    4.5207 C   0  0  2  0  0  0  0  0  0  0  0  0
    7.6315   -1.7632    5.4958 C   0  0  0  0  0  0  0  0  0  0  0  0
    6.4511   -2.3623    5.2414 O   0  0  0  0  0  0  0  0  0  0  0  0
    8.7595   -1.5885    3.6564 C   0  0  0  0  0  0  0  0  0  0  0  0
    8.5016   -2.2005    6.2769 O   0  0  0  0  0  0  0  0  0  0  0  0
  1  2  2  0
  1  3  1  0
  3  4  1  0
  4  5  1  0
  6 10  2  0
  6 11  1  0
  7  8  1  0
  7  9  1  0
  7  6  1  6
  8  1  1  1
  8  9  1  0
 12 13  1  0
 12 11  1  6
 13 14  2  0
 13 19  1  0
 15 17  1  1
 15 16  1  0
 15 12  1  0
 16 18  1  0
 20 23  1  6
 20 21  1  0
 20 19  1  0
 21 22  1  0
 21 24  2  0
M  END
>  <DRUGBANK_ID>  (1) 
DB07224

>  <COMMON_NAME>  (1) 
N-{[(2S,3S)-3-(ETHOXYCARBONYL)OXIRAN-2-YL]CARBONYL}-L-ISOLEUCYL-L-ALANINE

$$$$
