
     RDKit          3D

 35 39  0  0  0  0  0  0  0  0999 V2000
    1.7057    0.9641   -0.1295 N   0  0  0  0  0  0  0  0  0  0  0  0
    2.4883   -0.1992   -0.0797 C   0  0  0  0  0  0  0  0  0  0  0  0
    1.6168   -1.2633   -0.0307 C   0  0  0  0  0  0  0  0  0  0  0  0
    0.2839   -0.7736   -0.0315 C   0  0  0  0  0  0  0  0  0  0  0  0
    0.3362    0.6271   -0.0664 C   0  0  0  0  0  0  0  0  0  0  0  0
    2.2735    2.3305   -0.1678 C   0  0  0  0  0  0  0  0  0  0  0  0
    3.9635   -0.3210   -0.0943 C   0  0  0  0  0  0  0  0  0  0  0  0
   -0.8775    1.3711   -0.0332 C   0  0  0  0  0  0  0  0  0  0  0  0
   -0.9629   -1.4368   -0.0016 C   0  0  0  0  0  0  0  0  0  0  0  0
    3.7398    5.8321    4.3269 N   0  0  0  0  0  0  0  0  0  0  0  0
    4.7341   -0.2029    1.0532 C   0  0  0  0  0  0  0  0  0  0  0  0
    4.6548   -0.6756   -1.2515 C   0  0  0  0  0  0  0  0  0  0  0  0
    3.1767    2.5527    1.0432 C   0  0  0  0  0  0  0  0  0  0  0  0
   -2.1441   -0.7082    0.0027 C   0  0  0  0  0  0  0  0  0  0  0  0
    2.0477   -2.6765    0.0098 C   0  0  0  0  0  0  0  0  0  0  0  0
   -2.1134    0.6781   -0.0037 C   0  0  0  0  0  0  0  0  0  0  0  0
    6.7556   -0.0431   -0.2915 C   0  0  0  0  0  0  0  0  0  0  0  0
    4.4972    2.5190    3.7681 C   0  0  0  0  0  0  0  0  0  0  0  0
    6.0602   -0.6100   -1.3245 C   0  0  0  0  0  0  0  0  0  0  0  0
    6.1139    0.0795    0.9052 C   0  0  0  0  0  0  0  0  0  0  0  0
    4.5423    2.4538    1.2217 C   0  0  0  0  0  0  0  0  0  0  0  0
    2.5495    2.5982    2.2549 C   0  0  0  0  0  0  0  0  0  0  0  0
    3.3561    2.9660    3.4205 C   0  0  0  0  0  0  0  0  0  0  0  0
    5.1636    2.2212    2.6009 C   0  0  0  0  0  0  0  0  0  0  0  0
    5.2496    2.8793    4.8830 O   0  0  0  0  0  0  0  0  0  0  0  0
    4.7660    5.3888    5.3084 C   0  0  0  0  0  0  0  0  0  0  0  0
   -3.3100   -1.4200    0.0130 O   0  0  0  0  0  0  0  0  0  0  0  0
    8.0224    0.4397   -0.3460 O   0  0  0  0  0  0  0  0  0  0  0  0
    4.7197    3.8846    5.7951 C   0  0  0  0  0  0  0  0  0  0  0  0
    3.7392    7.2377    3.9394 C   0  0  0  0  0  0  0  0  0  0  0  0
    2.3774    5.3316    4.4923 C   0  0  0  0  0  0  0  0  0  0  0  0
    1.7511    5.0580    3.1071 C   0  0  0  0  0  0  0  0  0  0  0  0
    2.5055    7.6938    3.0949 C   0  0  0  0  0  0  0  0  0  0  0  0
    2.2757    6.9990    1.7480 C   0  0  0  0  0  0  0  0  0  0  0  0
    1.2910    5.8640    1.9439 C   0  0  0  0  0  0  0  0  0  0  0  0
  2  1  1  0
  3  2  2  0
  3  4  1  0
  4  5  2  0
  5  1  1  0
  6  1  1  0
  7  2  1  0
  8  5  1  0
  9  4  1  0
  9 14  2  0
 10 26  1  0
 11  7  2  0
 12  7  1  0
 13  6  1  0
 14 16  1  0
 15  3  1  0
 16  8  2  0
 17 19  1  0
 18 24  2  0
 19 12  2  0
 20 11  1  0
 20 17  2  0
 21 13  2  0
 22 13  1  0
 23 22  2  0
 23 18  1  0
 24 21  1  0
 25 18  1  0
 26 29  1  0
 27 14  1  0
 28 17  1  0
 29 25  1  0
 30 10  1  0
 31 10  1  0
 32 31  1  0
 33 30  1  0
 34 33  1  0
 35 32  1  0
 35 34  1  0
M  END
>  <DRUGBANK_ID>  (1) 
DB06401

>  <COMMON_NAME>  (1) 
Bazedoxifene

>  <CAS_NUMBER>  (1) 
198481-32-2

>  <UNII>  (1) 
Q16TT9C5BK

>  <SYNONYMS>  (1) 
Bazedoxifene; Bazedoxifeno

$$$$
