799
     RDKit          3D

 25 27  0  0  0  0  0  0  0  0999 V2000
   -1.2833   -1.7836   -0.1579 S   0  0  0  0  0  0  0  0  0  0  0  0
    9.7218    6.4188   -0.5941 O   0  0  0  0  0  0  0  0  0  0  0  0
   10.7920    4.4648   -0.4800 O   0  0  0  0  0  0  0  0  0  0  0  0
    7.3321    2.1380    0.0378 N   0  0  0  0  0  0  0  0  0  0  0  0
   -1.2223    1.4904    0.0772 C   0  0  0  0  0  0  0  0  0  0  0  0
   -2.4489    0.6482   -0.3728 C   0  0  0  0  0  0  0  0  0  0  0  0
    0.0990    0.7027    0.0326 C   0  0  0  0  0  0  0  0  0  0  0  0
   -1.1459    2.7164   -0.8619 C   0  0  0  0  0  0  0  0  0  0  0  0
   -1.4698    1.9917    1.5173 C   0  0  0  0  0  0  0  0  0  0  0  0
   -2.5734   -0.6606    0.3900 C   0  0  0  0  0  0  0  0  0  0  0  0
    0.1318   -0.7017   -0.0486 C   0  0  0  0  0  0  0  0  0  0  0  0
    1.3472    1.3961    0.0913 C   0  0  0  0  0  0  0  0  0  0  0  0
    1.3642   -1.3626   -0.0732 C   0  0  0  0  0  0  0  0  0  0  0  0
    2.5826    0.7300    0.0442 C   0  0  0  0  0  0  0  0  0  0  0  0
    2.5716   -0.6595   -0.0314 C   0  0  0  0  0  0  0  0  0  0  0  0
    3.8432    1.4373    0.0770 C   0  0  0  0  0  0  0  0  0  0  0  0
    4.9183    2.0041    0.1126 C   0  0  0  0  0  0  0  0  0  0  0  0
    6.1379    2.7683    0.1728 C   0  0  0  0  0  0  0  0  0  0  0  0
    6.0687    4.1233    0.3753 C   0  0  0  0  0  0  0  0  0  0  0  0
    8.4855    4.3062    0.0269 C   0  0  0  0  0  0  0  0  0  0  0  0
    7.2483    4.8587    0.3466 C   0  0  0  0  0  0  0  0  0  0  0  0
    8.4748    2.9175   -0.0105 C   0  0  0  0  0  0  0  0  0  0  0  0
    9.7356    5.0766   -0.3381 C   0  0  0  0  0  0  0  0  0  0  0  0
    8.5770    7.2922   -0.5783 C   0  0  0  0  0  0  0  0  0  0  0  0
    7.5888    6.9240   -1.6870 C   0  0  0  0  0  0  0  0  0  0  0  0
  1 10  1  0
  1 11  1  0
  2 23  1  0
  2 24  1  0
  3 23  2  0
  4 18  2  0
  4 22  1  0
  5  6  1  0
  5  7  1  0
  5  8  1  0
  5  9  1  0
  6 10  1  0
  7 11  2  0
  7 12  1  0
 11 13  1  0
 12 14  2  0
 13 15  2  0
 14 15  1  0
 14 16  1  0
 16 17  3  0
 17 18  1  0
 18 19  1  0
 19 21  2  0
 20 21  1  0
 20 22  2  0
 20 23  1  0
 24 25  1  0
M  END
>  <DRUGBANK_ID>  (1) 
DB00799

>  <SECONDARY_ACCESSION_NUMBERS>  (1) 
APRD01246

>  <COMMON_NAME>  (1) 
Tazarotene

>  <CAS_NUMBER>  (1) 
118292-40-3

>  <UNII>  (1) 
81BDR9Y8PS

>  <SYNONYMS>  (1) 
Tazarotene; Tazarot√®ne; Tazaroteno; Tazarotenum

$$$$
