
     RDKit          3D

 41 45  0  0  0  0  0  0  0  0999 V2000
    2.6724   -0.2295   -0.0311 C   0  0  0  0  0  0  0  0  0  0  0  0
    1.2666   -0.4823   -0.4654 C   0  0  0  0  0  0  0  0  0  0  0  0
    0.6596    0.6029   -0.9668 C   0  0  0  0  0  0  0  0  0  0  0  0
   -0.6860    0.4139   -1.3648 C   0  0  0  0  0  0  0  0  0  0  0  0
   -1.6736   -0.6472   -1.1865 C   0  0  0  0  0  0  0  0  0  0  0  0
   -0.9796   -1.7551   -0.7444 C   0  0  0  0  0  0  0  0  0  0  0  0
    0.4641   -1.6653   -0.4148 C   0  0  0  0  0  0  0  0  0  0  0  0
   -3.2742   -0.3975   -0.6772 N   0  0  0  0  0  0  0  0  0  0  0  0
   -4.0655    0.6396   -1.1299 N   0  0  0  0  0  0  0  0  0  0  0  0
   -5.3062    0.3984   -0.6566 C   0  0  0  0  0  0  0  0  0  0  0  0
   -5.2958   -0.4185    0.4898 C   0  0  0  0  0  0  0  0  0  0  0  0
   -3.9754   -0.7802    0.6744 C   0  0  0  0  0  0  0  0  0  0  0  0
   -3.5729   -1.2774    1.9684 N   0  0  0  0  0  0  0  0  0  0  0  0
   -2.3057   -1.3726    2.6662 C   0  0  0  0  0  0  0  0  0  0  0  0
   -2.1583   -2.2004    3.5020 O   0  0  0  0  0  0  0  0  0  0  0  0
   -1.3436   -0.4290    2.3472 N   0  0  0  0  0  0  0  0  0  0  0  0
   -1.4850    0.3132    1.1390 C   0  0  0  0  0  0  0  0  0  0  0  0
   -1.8099    1.8013    0.7018 C   0  0  0  0  0  0  0  0  0  0  0  0
   -1.2041    2.3392    1.8706 C   0  0  0  0  0  0  0  0  0  0  0  0
   -0.6348    3.5561    1.8139 C   0  0  0  0  0  0  0  0  0  0  0  0
    0.1355    3.9086    2.8521 F   0  0  0  0  0  0  0  0  0  0  0  0
   -0.7355    4.3271    0.6517 C   0  0  0  0  0  0  0  0  0  0  0  0
   -1.3850    3.9546   -0.5770 C   0  0  0  0  0  0  0  0  0  0  0  0
   -1.9794    2.7053   -0.7116 C   0  0  0  0  0  0  0  0  0  0  0  0
   -2.1393    2.5645   -2.4602 O   0  0  0  0  0  0  0  0  0  0  0  0
   -1.4468    1.6097   -3.7796 C   0  0  0  0  0  0  0  0  0  0  0  0
   -1.6498    1.6540   -5.4304 C   0  0  0  0  0  0  0  0  0  0  0  0
   -2.7531    0.8306   -6.2489 C   0  0  0  0  0  0  0  0  0  0  0  0
   -3.7384    0.4850   -5.3616 C   0  0  0  0  0  0  0  0  0  0  0  0
   -3.5895    1.0560   -4.1151 C   0  0  0  0  0  0  0  0  0  0  0  0
   -2.3416    0.6560   -3.5812 C   0  0  0  0  0  0  0  0  0  0  0  0
   -4.5567   -0.4581   -5.8990 N   0  0  0  0  0  0  0  0  0  0  0  0
   -5.5489   -1.1631   -5.1092 C   0  0  0  0  0  0  0  0  0  0  0  0
   -4.9227   -2.0783   -4.0211 C   0  0  0  0  0  0  0  0  0  0  0  0
   -4.0553   -1.4386   -3.1263 O   0  0  0  0  0  0  0  0  0  0  0  0
   -4.4448   -0.5322   -7.2285 N   0  0  0  0  0  0  0  0  0  0  0  0
   -3.3417    0.2368   -7.4749 C   0  0  0  0  0  0  0  0  0  0  0  0
   -6.5344    0.9332   -1.3826 C   0  0  0  0  0  0  0  0  0  0  0  0
   -6.4619    2.4414   -1.6067 C   0  0  0  0  0  0  0  0  0  0  0  0
   -6.5487    0.3156   -2.7455 C   0  0  0  0  0  0  0  0  0  0  0  0
   -7.8637    0.4813   -0.7741 C   0  0  0  0  0  0  0  0  0  0  0  0
  1  2  1  0
  2  3  2  0
  2  7  1  0
  3  4  1  0
  4  5  2  0
  5  6  1  0
  5  8  1  0
  6  7  2  0
  8  9  1  0
  8 12  1  0
  9 10  2  0
 10 11  1  0
 10 38  1  0
 11 12  2  0
 12 13  1  0
 13 14  1  0
 14 15  2  0
 14 16  1  0
 16 17  1  0
 17 18  1  0
 18 19  2  0
 18 24  1  0
 19 20  1  0
 20 21  1  0
 20 22  2  0
 22 23  1  0
 23 24  2  0
 24 25  1  0
 25 26  1  0
 26 27  2  0
 26 31  1  0
 27 28  1  0
 28 29  2  0
 28 37  1  0
 29 30  1  0
 29 32  1  0
 30 31  2  0
 32 33  1  0
 32 36  1  0
 33 34  1  0
 34 35  1  0
 36 37  2  0
 38 39  1  0
 38 40  1  0
 38 41  1  0
M  END
>  <DRUGBANK_ID>  (1) 
DB16294

>  <COMMON_NAME>  (1) 
Pexmetinib

>  <CAS_NUMBER>  (1) 
945614-12-0

>  <UNII>  (1) 
3750D0U8B5

>  <SYNONYMS>  (1) 
Pexmetinib

$$$$
