
     RDKit          3D

 26 29  0  0  1  0  0  0  0  0999 V2000
    0.9429   -0.2648    0.0209 C   0  0  0  0  0  0  0  0  0  0  0  0
    0.4367   -0.0012   -1.4097 C   0  0  0  0  0  0  0  0  0  0  0  0
    0.9302   -1.1803   -2.2747 C   0  0  0  0  0  0  0  0  0  0  0  0
   -1.1068   -0.0235   -1.4098 C   0  0  0  0  0  0  0  0  0  0  0  0
    0.9063    1.3573   -2.0412 C   0  0  1  0  0  0  0  0  0  0  0  0
    0.4718    2.6251   -1.2770 C   0  0  0  0  0  0  0  0  0  0  0  0
    1.0276    2.6902    0.0322 O   0  0  0  0  0  0  0  0  0  0  0  0
    2.3474    1.4009   -2.2771 N   0  0  0  0  0  0  0  0  0  0  0  0
    3.0275    1.4748   -3.4825 C   0  0  0  0  0  0  0  0  0  0  0  0
    4.2492    1.3964   -3.4609 O   0  0  0  0  0  0  0  0  0  0  0  0
    2.2715    1.5402   -4.7649 C   0  0  0  0  0  0  0  0  0  0  0  0
    1.2579    2.4256   -5.0405 N   0  0  0  0  0  0  0  0  0  0  0  0
    0.8042    2.0757   -6.2975 N   0  0  0  0  0  0  0  0  0  0  0  0
    1.6003    1.1129   -6.8183 C   0  0  0  0  0  0  0  0  0  0  0  0
    2.5625    0.7732   -5.9146 C   0  0  0  0  0  0  0  0  0  0  0  0
    3.5602   -0.1881   -6.4539 C   0  0  0  0  0  0  0  0  0  0  0  0
    2.9383   -0.5625   -7.8301 C   0  0  2  0  0  0  0  0  0  0  0  0
    2.9753    0.3827   -8.9676 C   0  0  0  0  0  0  0  0  0  0  0  0
    1.7265    0.3926   -8.1280 C   0  0  2  0  0  0  0  0  0  0  0  0
   -0.2657    2.7065   -7.0060 C   0  0  0  0  0  0  0  0  0  0  0  0
   -0.2838    4.0801   -7.1635 C   0  0  0  0  0  0  0  0  0  0  0  0
   -1.2792    4.6534   -7.9384 N   0  0  0  0  0  0  0  0  0  0  0  0
   -1.3032    5.9084   -8.1440 O   0  0  0  0  0  0  0  0  0  0  0  0
   -2.2491    3.8558   -8.5000 C   0  0  0  0  0  0  0  0  0  0  0  0
   -2.1718    2.4963   -8.3200 C   0  0  0  0  0  0  0  0  0  0  0  0
   -1.1818    1.9063   -7.6194 N   0  0  0  0  0  0  0  0  0  0  0  0
  1  2  1  0
  2  3  1  0
  2  4  1  0
  5  2  1  0
  5  6  1  1
  5  8  1  0
  6  7  1  0
  8  9  1  0
  9 10  2  0
  9 11  1  0
 11 12  2  0
 11 15  1  0
 12 13  1  0
 13 14  1  0
 13 20  1  0
 14 15  2  0
 15 16  1  0
 17 16  1  1
 17 18  1  0
 17 19  1  0
 19 18  1  6
 19 14  1  0
 20 21  2  0
 20 26  1  0
 21 22  1  0
 22 23  1  0
 22 24  2  0
 24 25  1  0
 25 26  2  0
M  CHG  2  22   1  23  -1
M  END
>  <DRUGBANK_ID>  (1) 
DB14998

>  <COMMON_NAME>  (1) 
Olorinab

>  <CAS_NUMBER>  (1) 
1268881-20-4

>  <UNII>  (1) 
581F7DFA9B

>  <SYNONYMS>  (1) 
Olorinab

$$$$
