25295
     RDKit          3D

 20 21  0  0  1  0  0  0  0  0999 V2000
   -2.1363    0.0039    0.0163 Cl  0  0  0  0  0  0  0  0  0  0  0  0
    4.0536   -0.8564    1.4361 N   0  0  0  0  0  0  0  0  0  0  0  0
    6.7397   -1.0741    3.1906 N   0  0  0  0  0  0  0  0  0  0  0  0
    4.1011   -0.9674    3.8114 N   0  0  0  0  0  0  0  0  0  0  0  0
    5.1441   -1.8816    1.3230 C   0  0  0  0  0  0  0  0  0  0  0  0
    6.6175   -1.5818    1.8266 C   0  0  0  0  0  0  0  0  0  0  0  0
    3.8235   -0.0471    0.2126 C   0  0  0  0  0  0  0  0  0  0  0  0
    3.4567   -0.5845    2.6883 C   0  0  0  0  0  0  0  0  0  0  0  0
    2.3566    0.0002   -0.1327 C   0  0  0  0  0  0  0  0  0  0  0  0
    7.9907   -1.1912    3.9085 C   0  0  0  0  0  0  0  0  0  0  0  0
    6.3604    0.3341    3.2149 C   0  0  0  0  0  0  0  0  0  0  0  0
    1.6655    1.2219   -0.1777 C   0  0  0  0  0  0  0  0  0  0  0  0
    1.6486   -1.2133   -0.1625 C   0  0  0  0  0  0  0  0  0  0  0  0
    2.3242    0.1800    2.9111 C   0  0  0  0  0  0  0  0  0  0  0  0
    0.2704    1.2179   -0.1404 C   0  0  0  0  0  0  0  0  0  0  0  0
    0.2610   -1.2109   -0.1255 C   0  0  0  0  0  0  0  0  0  0  0  0
    1.9770    0.7004    4.1745 C   0  0  0  0  0  0  0  0  0  0  0  0
   -0.4213    0.0037   -0.1045 C   0  0  0  0  0  0  0  0  0  0  0  0
    3.9032   -0.2877    4.9804 C   0  0  0  0  0  0  0  0  0  0  0  0
    2.8674    0.5583    5.2213 C   0  0  0  0  0  0  0  0  0  0  0  0
  1 18  1  0
  2  5  1  0
  2  7  1  0
  2  8  1  0
  3  6  1  0
  3 10  1  0
  3 11  1  0
  4  8  2  0
  4 19  1  0
  5  6  1  0
  7  9  1  0
  8 14  1  0
  9 12  2  0
  9 13  1  0
 12 15  1  0
 13 16  2  0
 14 17  2  0
 15 18  2  0
 16 18  1  0
 17 20  1  0
 19 20  2  0
M  END
>  <DRUGBANK_ID>  (1) 
DB08800

>  <SECONDARY_ACCESSION_NUMBERS>  (1) 
DB07523

>  <COMMON_NAME>  (1) 
Chloropyramine

>  <CAS_NUMBER>  (1) 
59-32-5

>  <UNII>  (1) 
2K3L8O9SOV

>  <SYNONYMS>  (1) 
Chloropyramine; Chloropyraminum; Chlorpyramine; Cloropiramina; Halopyramine

$$$$
