
     RDKit          3D

 24 25  0  0  0  0  0  0  0  0999 V2000
    1.0074    0.0952   -0.0297 P   0  0  0  0  0  0  0  0  0  0  0  0
    3.3807    0.4480    1.6109 P   0  0  0  0  0  0  0  0  0  0  0  0
   -1.3469   -1.2920   -1.2873 O   0  0  0  0  0  0  0  0  0  0  0  0
   -1.2433   -3.0248   -3.4574 O   0  0  0  0  0  0  0  0  0  0  0  0
    1.0951   -1.4552    0.5869 O   0  0  0  0  0  0  0  0  0  0  0  0
    1.6879    1.7032   -2.2730 O   0  0  0  0  0  0  0  0  0  0  0  0
    1.3967   -0.4374   -1.5274 O   0  0  0  0  0  0  0  0  0  0  0  0
   -0.5409    0.0952   -0.0297 O   0  0  0  0  0  0  0  0  0  0  0  0
   -0.1403    4.9504    0.0718 O   0  0  0  0  0  0  0  0  0  0  0  0
    3.2521    2.0021    1.1094 O   0  0  0  0  0  0  0  0  0  0  0  0
    1.8793    0.2440    2.2157 O   0  0  0  0  0  0  0  0  0  0  0  0
    3.8969    0.7549    3.0381 O   0  0  0  0  0  0  0  0  0  0  0  0
   -0.6714    1.4340   -1.9555 N   0  0  0  0  0  0  0  0  0  0  0  0
    0.6867    3.0005   -0.7658 N   0  0  0  0  0  0  0  0  0  0  0  0
    2.7874    0.0952   -0.0297 N   0  0  0  0  0  0  0  0  0  0  0  0
   -0.1212   -2.3435   -2.8642 C   0  0  2  0  0  0  0  0  0  0  0  0
   -0.3760   -2.3807   -1.3597 C   0  0  1  0  0  0  0  0  0  0  0  0
   -0.2338   -0.8853   -3.3655 C   0  0  0  0  0  0  0  0  0  0  0  0
   -1.0947   -0.1792   -2.3459 C   0  0  1  0  0  0  0  0  0  0  0  0
    0.8884   -2.4887   -0.3857 C   0  0  0  0  0  0  0  0  0  0  0  0
    0.6144    2.0483   -1.7780 C   0  0  0  0  0  0  0  0  0  0  0  0
   -1.7484    2.2678   -1.6465 C   0  0  0  0  0  0  0  0  0  0  0  0
   -1.6154    3.4542   -1.0289 C   0  0  0  0  0  0  0  0  0  0  0  0
   -0.3126    3.8646   -0.5028 C   0  0  0  0  0  0  0  0  0  0  0  0
  1  8  2  0
  1 15  1  0
  1  7  1  0
  1  5  1  0
  2 10  1  0
  2 11  1  0
  2 12  2  0
  2 15  1  0
  3 17  1  0
  3 19  1  0
  5 20  1  0
  6 21  2  0
  9 24  2  0
 13 21  1  0
 13 22  1  0
 14 21  1  0
 14 24  1  0
 16  4  1  6
 16 17  1  0
 16 18  1  0
 17 20  1  1
 18 19  1  0
 19 13  1  1
 22 23  2  0
 23 24  1  0
M  END
>  <DRUGBANK_ID>  (1) 
DB03641

>  <SECONDARY_ACCESSION_NUMBERS>  (1) 
EXPT01298

>  <COMMON_NAME>  (1) 
2'-deoxyuridine 5'-alpha,beta-imido-diphosphate

>  <SYNONYMS>  (1) 
2'-Deoxy-5'-O-[(R)-hydroxy(phosphonoamino)phosphoryl]uridine

$$$$
