
     RDKit          3D

 23 26  0  0  1  0  0  0  0  0999 V2000
   -4.8068  -12.4457    2.4974 C   0  0  0  0  0  0  0  0  0  0  0  0
    1.0230  -11.9651    6.9175 C   0  0  0  0  0  0  0  0  0  0  0  0
   -2.3186  -15.0034    4.9027 C   0  0  0  0  0  0  0  0  0  0  0  0
   -4.3388  -12.5775    3.6162 C   0  0  0  0  0  0  0  0  0  0  0  0
    0.4909   -7.7012    2.0898 C   0  0  0  0  0  0  0  0  0  0  0  0
   -0.0358   -9.0875    2.3591 C   0  0  0  0  0  0  0  0  0  0  0  0
   -1.2384  -11.5964    3.0106 C   0  0  0  0  0  0  0  0  0  0  0  0
   -1.0656  -13.4013    5.7245 C   0  0  0  0  0  0  0  0  0  0  0  0
   -1.5731  -13.0814    3.2127 C   0  0  0  0  0  0  0  0  0  0  0  0
   -2.6948  -12.1882    5.5031 C   0  0  0  0  0  0  0  0  0  0  0  0
    0.5128   -9.1049    6.2708 C   0  0  0  0  0  0  0  0  0  0  0  0
    0.4654   -7.1950    4.6073 C   0  0  0  0  0  0  0  0  0  0  0  0
    0.7876  -10.6104    6.2846 C   0  0  2  0  0  0  0  0  0  0  0  0
    0.5025   -8.6864    4.7891 C   0  0  0  0  0  0  0  0  0  0  0  0
   -0.1596   -6.9458    3.2337 C   0  0  0  0  0  0  0  0  0  0  0  0
    0.2378   -9.5575    3.7605 C   0  0  0  0  0  0  0  0  0  0  0  0
   -0.1633  -11.0060    4.0098 C   0  0  1  0  0  0  0  0  0  0  0  0
   -1.3194  -12.1278    5.9922 C   0  0  1  0  0  0  0  0  0  0  0  0
   -0.5339  -10.9658    5.5059 C   0  0  1  0  0  0  0  0  0  0  0  0
   -2.2266  -13.3312    4.6567 C   0  0  2  0  0  0  0  0  0  0  0  0
   -3.6561  -12.9675    4.8123 C   0  0  2  0  0  0  0  0  0  0  0  0
   -1.2453   -6.3817    3.1065 O   0  0  0  0  0  0  0  0  0  0  0  0
   -4.4749  -13.4053    5.8495 O   0  0  0  0  0  0  0  0  0  0  0  0
  4  1  3  0
  6  5  1  0
  9  7  1  0
 10  8  1  0
 13 11  1  0
 13  2  1  1
 14 11  1  0
 14 12  1  0
 15  5  1  0
 15 12  1  0
 16  6  1  0
 16 14  2  0
 17  7  1  6
 17 16  1  0
 18  8  1  6
 19 13  1  1
 19 17  1  0
 19 18  1  0
 20  9  1  0
 20 18  1  0
 20  3  1  1
 21 10  1  0
 21 20  1  0
 21 23  1  1
 21  4  1  0
 22 15  2  0
M  END
>  <DRUGBANK_ID>  (1) 
DB09070

>  <COMMON_NAME>  (1) 
Tibolone

>  <CAS_NUMBER>  (1) 
5630-53-5

>  <UNII>  (1) 
FF9X0205V2

>  <SYNONYMS>  (1) 
17-hydroxy-7alpha-methyl-19-nor-17alpha-pregn-5(10)-en-20-yn-3-one; tibolona; Tibolone; tibolonum

$$$$
