924
     RDKit          3D

 21 23  0  0  0  0  0  0  0  0999 V2000
    1.0606    0.0592   -0.0063 N   0  0  0  0  0  0  0  0  0  0  0  0
   -0.4054   -3.9023    1.2573 C   0  0  0  0  0  0  0  0  0  0  0  0
   -1.0067   -4.4825    2.4670 C   0  0  0  0  0  0  0  0  0  0  0  0
   -0.5388   -4.6623    0.0237 C   0  0  0  0  0  0  0  0  0  0  0  0
    1.1637   -2.4711   -0.1488 C   0  0  0  0  0  0  0  0  0  0  0  0
    0.5110   -2.9342    1.1700 C   0  0  0  0  0  0  0  0  0  0  0  0
    0.6095   -1.1444   -0.7177 C   0  0  0  0  0  0  0  0  0  0  0  0
   -0.5680   -5.7591    2.8771 C   0  0  0  0  0  0  0  0  0  0  0  0
    0.2814   -5.7999   -0.1012 C   0  0  0  0  0  0  0  0  0  0  0  0
    0.6662   -6.3707    2.3389 C   0  0  0  0  0  0  0  0  0  0  0  0
    1.0501   -6.3654    1.0434 C   0  0  0  0  0  0  0  0  0  0  0  0
   -2.2105   -3.9515    2.9405 C   0  0  0  0  0  0  0  0  0  0  0  0
   -1.2050   -4.0450   -1.0420 C   0  0  0  0  0  0  0  0  0  0  0  0
   -1.3505   -6.4822    3.7831 C   0  0  0  0  0  0  0  0  0  0  0  0
    0.4563   -6.2857   -1.3897 C   0  0  0  0  0  0  0  0  0  0  0  0
   -2.9920   -4.6968    3.8221 C   0  0  0  0  0  0  0  0  0  0  0  0
   -0.9568   -4.5080   -2.3156 C   0  0  0  0  0  0  0  0  0  0  0  0
   -2.5638   -5.9581    4.2387 C   0  0  0  0  0  0  0  0  0  0  0  0
   -0.1503   -5.6373   -2.4824 C   0  0  0  0  0  0  0  0  0  0  0  0
    0.5408    0.0879    1.3591 C   0  0  0  0  0  0  0  0  0  0  0  0
    2.5240    0.0965    0.0057 C   0  0  0  0  0  0  0  0  0  0  0  0
  1  7  1  0
  1 20  1  0
  1 21  1  0
  2  3  1  0
  2  4  1  0
  2  6  2  3
  3  8  2  0
  3 12  1  0
  4  9  2  0
  4 13  1  0
  5  6  1  0
  5  7  1  0
  8 10  1  0
  8 14  1  0
  9 11  1  0
  9 15  1  0
 10 11  2  0
 12 16  2  0
 13 17  2  0
 14 18  2  0
 15 19  2  0
 16 18  1  0
 17 19  1  0
M  END
>  <DRUGBANK_ID>  (1) 
DB00924

>  <SECONDARY_ACCESSION_NUMBERS>  (1) 
APRD00213

>  <COMMON_NAME>  (1) 
Cyclobenzaprine

>  <CAS_NUMBER>  (1) 
303-53-7

>  <UNII>  (1) 
69O5WQQ5TI

>  <SYNONYMS>  (1) 
(3-Dibenzo[a,d]cyclohepten-5-ylidene-propyl)-dimethyl-amine; Ciclobenzaprina; Cyclobenzaprine; Cyclobenzaprinum; N,N-dimethyl-5H-dibenzo(a,d)cycloheptene-Δ5,γ-propylamine

$$$$
