5B3
     RDKit          3D

 24 26  0  0  0  0  0  0  0  0999 V2000
    1.0482    0.2333    0.2114 O   0  0  0  0  0  0  0  0  0  0  0  0
    3.2312   -3.3786    2.3558 C   0  0  0  0  0  0  0  0  0  0  0  0
    2.9745   -0.6139   -1.1389 O   0  0  0  0  0  0  0  0  0  0  0  0
    2.8943   -2.4999    1.2706 C   0  0  0  0  0  0  0  0  0  0  0  0
    5.2934    1.1749   -1.1088 C   0  0  0  0  0  0  0  0  0  0  0  0
    3.2676    1.4714    0.3059 N   0  0  0  0  0  0  0  0  0  0  0  0
    2.9119   -1.1113    1.4379 C   0  0  0  0  0  0  0  0  0  0  0  0
    5.1398    3.0967    0.4808 C   0  0  0  0  0  0  0  0  0  0  0  0
    5.4594    0.8418    1.3431 C   0  0  0  0  0  0  0  0  0  0  0  0
    4.7599    1.6225    0.2421 C   0  0  0  0  0  0  0  0  0  0  0  0
    2.4905   -0.0447    0.0637 S   0  0  0  0  0  0  0  0  0  0  0  0
    3.2968   -0.6088    2.6695 C   0  0  0  0  0  0  0  0  0  0  0  0
    3.7398   -1.4808    3.6849 C   0  0  0  0  0  0  0  0  0  0  0  0
    3.6928   -2.9043    3.6025 C   0  0  0  0  0  0  0  0  0  0  0  0
    4.0154   -3.7025    4.8717 C   0  0  0  0  0  0  0  0  0  0  0  0
    4.6034   -4.9366    5.1788 C   0  0  0  0  0  0  0  0  0  0  0  0
    4.9204   -5.4146    6.6225 C   0  0  0  0  0  0  0  0  0  0  0  0
    4.6372   -5.5047    8.2909 C   0  0  0  0  0  0  0  0  0  0  0  0
    4.1176   -4.7937    9.3835 N   0  0  0  0  0  0  0  0  0  0  0  0
    5.8192   -5.9491    8.7281 N   0  0  0  0  0  0  0  0  0  0  0  0
    6.5716   -5.3813    7.7579 N   0  0  0  0  0  0  0  0  0  0  0  0
    5.8115   -4.3934    6.9967 C   0  0  0  0  0  0  0  0  0  0  0  0
    4.9064   -3.2311    7.0854 C   0  0  0  0  0  0  0  0  0  0  0  0
    3.8892   -3.0701    6.0654 C   0  0  0  0  0  0  0  0  0  0  0  0
  1 11  2  0
  2  4  2  0
  2 14  1  0
  3 11  2  0
  4  7  1  0
  5 10  1  0
  6 10  1  0
  6 11  1  0
  7 11  1  0
  7 12  2  0
  8 10  1  0
  9 10  1  0
 12 13  1  0
 13 14  2  0
 14 15  1  0
 15 16  2  0
 15 24  1  0
 16 17  1  0
 17 18  1  0
 17 22  2  0
 18 19  1  0
 18 20  2  0
 20 21  1  0
 21 22  1  0
 22 23  1  0
 23 24  2  0
M  END
>  <DRUGBANK_ID>  (1) 
DB07162

>  <COMMON_NAME>  (1) 
4-(3-amino-1H-indazol-5-yl)-N-tert-butylbenzenesulfonamide

$$$$
