
     RDKit          3D

 33 36  0  0  0  0  0  0  0  0999 V2000
    2.5647    1.2582    0.0439 C   0  0  0  0  0  0  0  0  0  0  0  0
    1.3631    0.3515    0.0335 C   0  0  0  0  0  0  0  0  0  0  0  0
    0.0933    0.9657    0.0100 C   0  0  0  0  0  0  0  0  0  0  0  0
   -1.0674    0.2015    0.0310 C   0  0  0  0  0  0  0  0  0  0  0  0
   -1.0035   -1.1791    0.0881 C   0  0  0  0  0  0  0  0  0  0  0  0
    0.2454   -1.8014    0.1057 C   0  0  0  0  0  0  0  0  0  0  0  0
    1.4528   -1.0603    0.0571 C   0  0  0  0  0  0  0  0  0  0  0  0
    2.7339   -1.7960   -0.0858 C   0  0  0  0  0  0  0  0  0  0  0  0
    2.9800   -2.5998   -1.1941 C   0  0  0  0  0  0  0  0  0  0  0  0
    2.0824   -2.7115   -2.3442 C   0  0  0  0  0  0  0  0  0  0  0  0
    2.5357   -3.2159   -3.4934 C   0  0  0  0  0  0  0  0  0  0  0  0
    3.7620   -4.0287   -3.5071 C   0  0  0  0  0  0  0  0  0  0  0  0
    3.9543   -4.7395   -4.5028 O   0  0  0  0  0  0  0  0  0  0  0  0
    4.5304   -4.0162   -2.3620 N   0  0  0  0  0  0  0  0  0  0  0  0
    4.2174   -3.2123   -1.2234 C   0  0  0  0  0  0  0  0  0  0  0  0
    5.1508   -3.0029   -0.2644 N   0  0  0  0  0  0  0  0  0  0  0  0
    4.8503   -2.1902    0.7518 C   0  0  0  0  0  0  0  0  0  0  0  0
    3.6603   -1.5920    0.8868 N   0  0  0  0  0  0  0  0  0  0  0  0
    5.7863   -1.9233    1.7201 N   0  0  0  0  0  0  0  0  0  0  0  0
    7.1167   -2.5431    1.7310 C   0  0  0  0  0  0  0  0  0  0  0  0
    8.2064   -1.4563    1.7023 C   0  0  0  0  0  0  0  0  0  0  0  0
    8.1522   -0.6270    2.8639 O   0  0  0  0  0  0  0  0  0  0  0  0
    7.2910   -3.4150    2.9890 C   0  0  0  0  0  0  0  0  0  0  0  0
    6.2994   -4.4370    3.0549 O   0  0  0  0  0  0  0  0  0  0  0  0
    5.6745   -4.8399   -2.2832 C   0  0  0  0  0  0  0  0  0  0  0  0
    6.6591   -4.7775   -3.2691 C   0  0  0  0  0  0  0  0  0  0  0  0
    7.8261   -5.5203   -3.1550 C   0  0  0  0  0  0  0  0  0  0  0  0
    8.0566   -6.2593   -1.9962 C   0  0  0  0  0  0  0  0  0  0  0  0
    7.0247   -6.4482   -1.0781 C   0  0  0  0  0  0  0  0  0  0  0  0
    5.8270   -5.7649   -1.2476 C   0  0  0  0  0  0  0  0  0  0  0  0
    4.7983   -6.0450   -0.4305 F   0  0  0  0  0  0  0  0  0  0  0  0
    6.5442   -3.9234   -4.2974 F   0  0  0  0  0  0  0  0  0  0  0  0
   -2.2614    0.8072   -0.0001 F   0  0  0  0  0  0  0  0  0  0  0  0
  1  2  1  0
  2  3  2  0
  2  7  1  0
  3  4  1  0
  4  5  2  0
  4 33  1  0
  5  6  1  0
  6  7  2  0
  7  8  1  0
  8  9  2  0
  8 18  1  0
  9 10  1  0
  9 15  1  0
 10 11  2  0
 11 12  1  0
 12 13  2  0
 12 14  1  0
 14 15  1  0
 14 25  1  0
 15 16  2  0
 16 17  1  0
 17 18  2  0
 17 19  1  0
 19 20  1  0
 20 21  1  0
 20 23  1  0
 21 22  1  0
 23 24  1  0
 25 26  2  0
 25 30  1  0
 26 27  1  0
 26 32  1  0
 27 28  2  0
 28 29  1  0
 29 30  2  0
 30 31  1  0
M  END
>  <DRUGBANK_ID>  (1) 
DB12140

>  <SECONDARY_ACCESSION_NUMBERS>  (1) 
DB05250

>  <COMMON_NAME>  (1) 
Dilmapimod

>  <CAS_NUMBER>  (1) 
444606-18-2

>  <UNII>  (1) 
Q3238VQW0N

>  <SYNONYMS>  (1) 
Dilmapimod

$$$$
