813
     RDKit          3D

 25 27  0  0  0  0  0  0  0  0999 V2000
    0.8340    0.4267    0.0664 O   0  0  0  0  0  0  0  0  0  0  0  0
    5.6867   -1.2729    0.9848 N   0  0  0  0  0  0  0  0  0  0  0  0
    3.0225    1.3723   -0.0904 N   0  0  0  0  0  0  0  0  0  0  0  0
    4.6089    1.3217   -0.0684 C   0  0  0  0  0  0  0  0  0  0  0  0
    5.3388    0.3284   -1.0114 C   0  0  0  0  0  0  0  0  0  0  0  0
    5.2671    1.2207    1.3427 C   0  0  0  0  0  0  0  0  0  0  0  0
    5.4620   -1.0813   -0.4538 C   0  0  0  0  0  0  0  0  0  0  0  0
    5.3380   -0.2032    1.9726 C   0  0  0  0  0  0  0  0  0  0  0  0
    5.3564   -2.6830    1.3402 C   0  0  0  0  0  0  0  0  0  0  0  0
    3.8883   -3.2508    1.2046 C   0  0  0  0  0  0  0  0  0  0  0  0
    2.4144    2.6676   -0.1441 C   0  0  0  0  0  0  0  0  0  0  0  0
    2.0968    0.4049    0.3142 C   0  0  0  0  0  0  0  0  0  0  0  0
    2.9171   -3.2385   -0.2060 C   0  0  0  0  0  0  0  0  0  0  0  0
    2.5808   -0.6810    1.0956 C   0  0  0  0  0  0  0  0  0  0  0  0
    1.3228    2.9284    0.7245 C   0  0  0  0  0  0  0  0  0  0  0  0
    2.8175    3.6526   -1.0247 C   0  0  0  0  0  0  0  0  0  0  0  0
    1.6807   -1.4708    1.9847 C   0  0  0  0  0  0  0  0  0  0  0  0
    2.3949   -4.4076   -0.6758 C   0  0  0  0  0  0  0  0  0  0  0  0
    2.4363   -2.0925   -1.0596 C   0  0  0  0  0  0  0  0  0  0  0  0
    0.6389    4.1231    0.7103 C   0  0  0  0  0  0  0  0  0  0  0  0
    2.1814    4.8948   -0.9789 C   0  0  0  0  0  0  0  0  0  0  0  0
    1.0867    5.1196   -0.1325 C   0  0  0  0  0  0  0  0  0  0  0  0
    1.6470   -4.3511   -1.8993 C   0  0  0  0  0  0  0  0  0  0  0  0
    1.4870   -1.9713   -2.0522 C   0  0  0  0  0  0  0  0  0  0  0  0
    1.2305   -3.1697   -2.5905 C   0  0  0  0  0  0  0  0  0  0  0  0
  1 12  2  0
  2  7  1  0
  2  8  1  0
  2  9  1  0
  3  4  1  0
  3 11  1  0
  3 12  1  0
  4  5  1  0
  4  6  1  0
  5  7  1  0
  6  8  1  0
  9 10  1  0
 10 13  1  0
 11 15  2  0
 11 16  1  0
 12 14  1  0
 13 18  2  0
 13 19  1  0
 14 17  1  0
 15 20  1  0
 16 21  2  0
 18 23  1  0
 19 24  2  0
 20 22  2  0
 21 22  1  0
 23 25  2  0
 24 25  1  0
M  END
>  <DRUGBANK_ID>  (1) 
DB00813

>  <SECONDARY_ACCESSION_NUMBERS>  (1) 
APRD00347; DB05853; DB06055; DB06220; DB05564

>  <COMMON_NAME>  (1) 
Fentanyl

>  <CAS_NUMBER>  (1) 
437-38-7

>  <UNII>  (1) 
UF599785JZ

>  <SYNONYMS>  (1) 
1-Phenethyl-4-(N-phenylpropionamido)piperidine; 1-phenethyl-4-N-propionylanilinopiperidine; Fentanil; Fentanila; Fentanilo; Fentanyl; Fentanyl CII; Fentanylum; N-(1-phenethyl-4-piperidinyl)-N-phenylpropionamide; N-(1-phenethyl-4-piperidyl)propionanilide; N-(1-Phenethyl-piperidin-4-yl)-N-phenyl-propionamide; N-(1-phenethylpiperidin-4-yl)-N-phenylpropionamide; N-phenethyl-4-(N-propionylanilino)piperidine; N-phenyl-N-(1-(2-phenylethyl)-4-piperidinyl)propanamide; Phentanyl

$$$$
