
     RDKit          3D

  4  2  0  0  0  0  0  0  0  0999 V2000
    1.0648    0.0362    0.0670 I   0  0  0  0  0  0  0  0  0  0  0  0
   -1.7152    0.0362    0.0670 I   0  0  0  0  0  0  0  0  0  0  0  0
    3.8448    0.0362    0.0670 I   0  0  0  0  0  0  0  0  0  0  0  0
    1.0241    0.0765   -0.0597 K   0  0  0  0  0 15  0  0  0  0  0  0
  1  2  1  0
  1  3  1  0
M  CHG  2   1  -1   4   1
M  END
>  <DRUGBANK_ID>  (1) 
DB14492

>  <COMMON_NAME>  (1) 
Potassium triiodide

>  <CAS_NUMBER>  (1) 
12298-68-9

>  <UNII>  (1) 
T66M6Y3KSA

>  <SYNONYMS>  (1) 
Iodine aqueous; Lugol's iodine; Lugol's solution; Microiodide; Potassium triiodide

$$$$
