
     RDKit          3D

 25 26  0  0  1  0  0  0  0  0999 V2000
   -1.1501   -3.2335   -2.0677 C   0  0  0  0  0  0  0  0  0  0  0  0
   -0.3436   -4.4759   -2.4333 C   0  0  0  0  0  0  0  0  0  0  0  0
    1.0462   -4.1578   -2.8849 C   0  0  0  0  0  0  0  0  0  0  0  0
    1.8538   -3.5962   -1.7797 N   0  0  0  0  0  0  0  0  0  0  0  0
    3.1340   -3.0540   -2.2318 C   0  0  0  0  0  0  0  0  0  0  0  0
    2.7508   -2.1128   -3.3198 C   0  0  2  0  0  0  0  0  0  0  0  0
    1.6048   -1.3337   -2.8500 O   0  0  0  0  0  0  0  0  0  0  0  0
    2.6633   -3.0094   -4.7754 C   0  0  0  0  0  0  0  0  0  0  0  0
    1.8607   -2.7341   -6.0290 O   0  0  0  0  0  0  0  0  0  0  0  0
    0.8140   -1.8989   -6.3915 C   0  0  0  0  0  0  0  0  0  0  0  0
   -0.0030   -1.2350   -5.4667 C   0  0  0  0  0  0  0  0  0  0  0  0
   -1.2533   -0.7079   -5.7604 C   0  0  0  0  0  0  0  0  0  0  0  0
   -1.6764   -0.6970   -7.0647 C   0  0  0  0  0  0  0  0  0  0  0  0
   -0.7573   -1.0369   -8.0643 C   0  0  0  0  0  0  0  0  0  0  0  0
    0.5000   -1.6416   -7.7496 C   0  0  0  0  0  0  0  0  0  0  0  0
    1.3940   -1.9160   -8.9523 C   0  0  0  0  0  0  0  0  0  0  0  0
    0.9168   -1.9139  -10.0662 O   0  0  0  0  0  0  0  0  0  0  0  0
    2.8860   -2.2040   -8.7790 C   0  0  0  0  0  0  0  0  0  0  0  0
    3.8335   -0.9660   -8.5589 C   0  0  0  0  0  0  0  0  0  0  0  0
    3.6886   -0.1293   -7.3087 C   0  0  0  0  0  0  0  0  0  0  0  0
    3.7789   -0.8808   -6.2106 C   0  0  0  0  0  0  0  0  0  0  0  0
    3.0270   -0.3796   -5.1738 C   0  0  0  0  0  0  0  0  0  0  0  0
    2.8277    0.8719   -4.7443 C   0  0  0  0  0  0  0  0  0  0  0  0
    3.2223    1.7340   -5.6973 C   0  0  0  0  0  0  0  0  0  0  0  0
    3.4763    1.2292   -7.0270 C   0  0  0  0  0  0  0  0  0  0  0  0
  1  2  1  0
  2  3  1  0
  3  4  1  0
  4  5  1  0
  6  8  1  0
  6  7  1  1
  6  5  1  0
  8  9  1  0
  9 10  1  0
 10 11  2  0
 10 15  1  0
 11 12  1  0
 12 13  2  0
 13 14  1  0
 14 15  2  0
 15 16  1  0
 16 17  2  0
 16 18  1  0
 18 19  1  0
 19 20  1  0
 20 21  2  0
 20 25  1  0
 21 22  1  0
 22 23  2  0
 23 24  1  0
 24 25  2  0
M  END
>  <DRUGBANK_ID>  (1) 
DB15410

>  <COMMON_NAME>  (1) 
(S)-Propafenone

>  <CAS_NUMBER>  (1) 
107381-32-8

>  <UNII>  (1) 
N0BQN4E2YT

>  <SYNONYMS>  (1) 
(-)-(S)-Propafenone; (-)-Propafenone

$$$$
