
     RDKit          3D

 18 18  0  0  0  0  0  0  0  0999 V2000
    0.8543    0.0434    0.2248 C   0  0  0  0  0  0  0  0  0  0  0  0
    0.3560   -1.3608   -0.1422 C   0  0  0  0  0  0  0  0  0  0  0  0
    0.6849   -2.3947    0.9336 C   0  0  0  0  0  0  0  0  0  0  0  0
   -1.1560   -1.3692   -0.3690 C   0  0  0  0  0  0  0  0  0  0  0  0
    0.9677   -1.7151   -1.4045 N   0  0  0  0  0  0  0  0  0  0  0  0
    2.4223   -1.7225   -1.3819 C   0  0  0  0  0  0  0  0  0  0  0  0
    3.1904   -2.9415   -0.8310 C   0  0  0  0  0  0  0  0  0  0  0  0
    2.7538   -4.2289   -1.5396 C   0  0  0  0  0  0  0  0  0  0  0  0
    3.4207   -4.4168   -2.8286 O   0  0  0  0  0  0  0  0  0  0  0  0
    2.9458   -3.6728   -3.8826 C   0  0  0  0  0  0  0  0  0  0  0  0
    2.0600   -4.2791   -4.7828 C   0  0  0  0  0  0  0  0  0  0  0  0
    1.4766   -3.4926   -5.7874 C   0  0  0  0  0  0  0  0  0  0  0  0
    1.6041   -2.1163   -5.7909 C   0  0  0  0  0  0  0  0  0  0  0  0
    2.5511   -1.5347   -4.9480 C   0  0  0  0  0  0  0  0  0  0  0  0
    3.3683   -2.3772   -4.1896 C   0  0  0  0  0  0  0  0  0  0  0  0
    4.8223   -1.6574   -3.5699 Cl  0  0  0  0  0  0  0  0  0  0  0  0
    0.6148   -4.2495   -7.0713 Cl  0  0  0  0  0  0  0  0  0  0  0  0
    4.6097   -2.7950   -0.9144 O   0  0  0  0  0  0  0  0  0  0  0  0
  1  2  1  0
  2  3  1  0
  2  4  1  0
  2  5  1  0
  5  6  1  0
  6  7  1  0
  7  8  1  0
  7 18  1  0
  8  9  1  0
  9 10  1  0
 10 11  2  0
 10 15  1  0
 11 12  1  0
 12 13  2  0
 12 17  1  0
 13 14  1  0
 14 15  2  0
 15 16  1  0
M  END
>  <DRUGBANK_ID>  (1) 
DB13508

>  <COMMON_NAME>  (1) 
Cloranolol

>  <CAS_NUMBER>  (1) 
39563-28-5

>  <UNII>  (1) 
Q3U058H86V

>  <SYNONYMS>  (1) 
Cloranolol; Cloranololum; Tobanum

$$$$
