
     RDKit          3D

 12 13  0  0  0  0  0  0  0  0999 V2000
   -1.4042    2.1694    0.0137 C   0  0  0  0  0  0  0  0  0  0  0  0
   -0.9988    0.7746    0.0245 N   0  0  0  0  0  0  0  0  0  0  0  0
   -1.9845   -0.2025    0.0096 C   0  0  0  0  0  0  0  0  0  0  0  0
   -3.1936    0.0239   -0.0270 O   0  0  0  0  0  0  0  0  0  0  0  0
   -1.5367   -1.6156    0.0426 C   0  0  0  0  0  0  0  0  0  0  0  0
   -0.2429   -1.9498    0.0160 C   0  0  0  0  0  0  0  0  0  0  0  0
    0.7776   -0.9055   -0.0070 C   0  0  0  0  0  0  0  0  0  0  0  0
    2.1372   -1.2439   -0.0411 C   0  0  0  0  0  0  0  0  0  0  0  0
    3.1114   -0.2445   -0.0432 C   0  0  0  0  0  0  0  0  0  0  0  0
    2.7342    1.0936   -0.0016 C   0  0  0  0  0  0  0  0  0  0  0  0
    1.3826    1.4364    0.0311 C   0  0  0  0  0  0  0  0  0  0  0  0
    0.3903    0.4454    0.0195 C   0  0  0  0  0  0  0  0  0  0  0  0
  1  2  1  0
  2  3  1  0
  2 12  1  0
  3  4  2  0
  3  5  1  0
  5  6  2  0
  6  7  1  0
  7  8  1  0
  7 12  2  0
  8  9  2  0
  9 10  1  0
 10 11  2  0
 11 12  1  0
M  END
>  <DRUGBANK_ID>  (1) 
DB04580

>  <COMMON_NAME>  (1) 
1-Methyl-2-quinolone

>  <CAS_NUMBER>  (1) 
606-43-9

>  <UNII>  (1) 
UQ470VV48X

$$$$
