
     RDKit          3D

 38 42  0  0  0  0  0  0  0  0999 V2000
    1.0289    0.3859   -0.1081 C   0  0  0  0  0  0  0  0  0  0  0  0
    1.8476    0.2868    2.2519 C   0  0  0  0  0  0  0  0  0  0  0  0
    2.9895    8.3213    2.7504 C   0  0  0  0  0  0  0  0  0  0  0  0
    3.1909    8.4837    5.1668 C   0  0  0  0  0  0  0  0  0  0  0  0
   -2.0779    3.8312    2.5778 C   0  0  0  0  0  0  0  0  0  0  0  0
   -0.5658    4.0371    4.3991 C   0  0  0  0  0  0  0  0  0  0  0  0
   -1.8474    5.1686    2.1793 C   0  0  0  0  0  0  0  0  0  0  0  0
   -0.3687    5.3488    4.0005 C   0  0  0  0  0  0  0  0  0  0  0  0
   -1.6573    0.7828    0.7035 C   0  0  0  0  0  0  0  0  0  0  0  0
    0.3073    8.6157    5.5246 C   0  0  0  0  0  0  0  0  0  0  0  0
   -1.5702   -0.7613    0.7746 C   0  0  0  0  0  0  0  0  0  0  0  0
    0.6393   10.1041    5.3015 C   0  0  0  0  0  0  0  0  0  0  0  0
   -1.3778    1.8034    3.9503 C   0  0  0  0  0  0  0  0  0  0  0  0
   -0.7118    7.3917    2.4862 C   0  0  0  0  0  0  0  0  0  0  0  0
    0.3030   -2.4117    1.6081 C   0  0  0  0  0  0  0  0  0  0  0  0
    2.4416   11.2805    3.7885 C   0  0  0  0  0  0  0  0  0  0  0  0
   -1.3871    3.2391    3.6503 C   0  0  0  0  0  0  0  0  0  0  0  0
   -0.9542    5.9695    2.8845 C   0  0  0  0  0  0  0  0  0  0  0  0
   -0.9556    0.9391    3.0207 C   0  0  0  0  0  0  0  0  0  0  0  0
    0.1129    8.2366    3.1274 C   0  0  0  0  0  0  0  0  0  0  0  0
   -0.5040    1.2505    1.6220 C   0  0  1  0  0  0  0  0  0  0  0  0
    0.9780    7.9504    4.3124 C   0  0  1  0  0  0  0  0  0  0  0  0
   -0.8092   -0.5644    3.0630 C   0  0  0  0  0  0  0  0  0  0  0  0
    0.4743    9.7117    2.9045 C   0  0  0  0  0  0  0  0  0  0  0  0
    0.5978    0.2110    1.3499 C   0  0  0  0  0  0  0  0  0  0  0  0
    2.2295    8.7395    4.0350 C   0  0  0  0  0  0  0  0  0  0  0  0
   -0.3169   -1.0121    1.6583 C   0  0  2  0  0  0  0  0  0  0  0  0
    1.5152   10.0911    4.0120 C   0  0  2  0  0  0  0  0  0  0  0  0
   -1.0813   -1.2662    4.0187 O   0  0  0  0  0  0  0  0  0  0  0  0
    0.0062   10.4300    2.0419 O   0  0  0  0  0  0  0  0  0  0  0  0
    2.2057   -2.0729   -0.1789 O   0  0  0  0  0  0  0  0  0  0  0  0
    1.4184   -4.3678    0.1513 O   0  0  0  0  0  0  0  0  0  0  0  0
    0.0016   -2.6855   -1.0606 O   0  0  0  0  0  0  0  0  0  0  0  0
    4.7040   10.6365    5.2559 O   0  0  0  0  0  0  0  0  0  0  0  0
    4.3440   12.9569    4.6920 O   0  0  0  0  0  0  0  0  0  0  0  0
    2.9350   11.7953    6.4232 O   0  0  0  0  0  0  0  0  0  0  0  0
    0.9074   -3.0162    0.0051 S   0  0  0  0  0  0  0  0  0  0  0  0
    3.5982   11.8009    5.1451 S   0  0  0  0  0  0  0  0  0  0  0  0
  7  5  2  0
  8  6  1  0
 11  9  1  0
 12 10  1  0
 13 17  1  0
 14 18  1  0
 17  5  1  0
 17  6  2  0
 18  7  1  0
 18  8  2  0
 19 13  2  3
 20 14  2  3
 21  9  1  6
 21 19  1  0
 22 10  1  1
 22 20  1  0
 23 19  1  0
 24 20  1  0
 25  1  1  0
 25  2  1  0
 25 21  1  0
 26  3  1  0
 26  4  1  0
 26 22  1  0
 27 11  1  0
 27 15  1  1
 27 23  1  0
 27 25  1  0
 28 12  1  0
 28 16  1  6
 28 24  1  0
 28 26  1  0
 29 23  2  0
 30 24  2  0
 37 15  1  0
 37 31  1  0
 37 32  2  0
 37 33  2  0
 38 16  1  0
 38 34  1  0
 38 35  2  0
 38 36  2  0
M  END
>  <DRUGBANK_ID>  (1) 
DB09534

>  <COMMON_NAME>  (1) 
Ecamsule

>  <CAS_NUMBER>  (1) 
92761-26-7

>  <UNII>  (1) 
M94R1PM439

>  <SYNONYMS>  (1) 
Ecamsule; Terephthalylidene dicamphor sulfonic acid

$$$$
