
     RDKit          3D

 28 30  0  0  0  0  0  0  0  0999 V2000
    0.2284   -0.5977    0.0269 C   0  0  0  0  0  0  0  0  0  0  0  0
    1.6197   -1.0281    0.1184 C   0  0  0  0  0  0  0  0  0  0  0  0
    2.6834   -0.0622    0.2570 C   0  0  0  0  0  0  0  0  0  0  0  0
    2.2507    1.2457    0.1222 C   0  0  0  0  0  0  0  0  0  0  0  0
    0.9388    1.6590    0.0150 C   0  0  0  0  0  0  0  0  0  0  0  0
   -0.0978    0.7575    0.0071 C   0  0  0  0  0  0  0  0  0  0  0  0
   -1.4224    1.3381   -0.0057 C   0  0  0  0  0  0  0  0  0  0  0  0
   -2.3988    1.9347   -0.0080 N   0  0  0  0  0  0  0  0  0  0  0  0
    4.2413   -0.1023    0.3261 C   0  0  0  0  0  0  0  0  0  0  0  0
    5.0635    0.8459    0.9963 N   0  0  0  0  0  0  0  0  0  0  0  0
    6.0841    1.1427    0.0045 N   0  0  0  0  0  0  0  0  0  0  0  0
    5.2926    0.9201   -1.1658 C   0  0  0  0  0  0  0  0  0  0  0  0
    5.0458   -0.4327   -0.8230 C   0  0  0  0  0  0  0  0  0  0  0  0
    7.4969    0.6684    0.0822 C   0  0  0  0  0  0  0  0  0  0  0  0
    7.7303   -0.1709    1.3513 C   0  0  1  0  0  0  0  0  0  0  0  0
    6.7158   -1.2302    1.6011 N   0  0  0  0  0  0  0  0  0  0  0  0
    6.8498   -2.5944    1.3731 C   0  0  0  0  0  0  0  0  0  0  0  0
    5.6209   -3.4156    1.3350 C   0  0  0  0  0  0  0  0  0  0  0  0
    5.5259   -4.5386    2.0711 N   0  0  0  0  0  0  0  0  0  0  0  0
    4.3709   -5.1051    1.6994 N   0  0  0  0  0  0  0  0  0  0  0  0
    3.6994   -4.4115    0.7378 C   0  0  0  0  0  0  0  0  0  0  0  0
    4.5106   -3.3390    0.4553 C   0  0  0  0  0  0  0  0  0  0  0  0
    2.4151   -4.8198    0.1230 C   0  0  1  0  0  0  0  0  0  0  0  0
    2.4813   -6.1672   -0.5593 C   0  0  0  0  0  0  0  0  0  0  0  0
    1.4332   -4.7898    1.1425 O   0  0  0  0  0  0  0  0  0  0  0  0
    7.9358   -3.1271    1.1708 O   0  0  0  0  0  0  0  0  0  0  0  0
    9.1215   -0.7579    1.2981 C   0  0  0  0  0  0  0  0  0  0  0  0
   -1.0858   -1.7417   -0.0174 Cl  0  0  0  0  0  0  0  0  0  0  0  0
  1  6  2  0
  1 28  1  0
  2  1  1  0
  3  2  2  0
  3  9  1  0
  4  3  1  0
  5  4  2  0
  6  5  1  0
  6  7  1  0
  7  8  3  0
 10  9  2  0
 10 11  1  0
 11 12  1  0
 11 14  1  0
 12 13  2  0
 13  9  1  0
 14 15  1  0
 15 16  1  0
 15 27  1  6
 16 17  1  0
 17 18  1  0
 17 26  2  0
 19 18  2  0
 19 20  1  0
 20 21  1  0
 21 22  2  0
 21 23  1  0
 22 18  1  0
 23 24  1  1
 23 25  1  0
M  END
>  <DRUGBANK_ID>  (1) 
DB12941

>  <COMMON_NAME>  (1) 
Darolutamide

>  <CAS_NUMBER>  (1) 
1297538-32-9

>  <UNII>  (1) 
X05U0N2RCO

>  <SYNONYMS>  (1) 
Darolutamide

$$$$
