
     RDKit          3D

 32 35  0  0  0  0  0  0  0  0999 V2000
    7.1101    9.5888    3.1460 C   0  0  0  0  0  0  0  0  0  0  0  0
    9.0385    8.2858    1.9818 C   0  0  0  0  0  0  0  0  0  0  0  0
    8.9002   11.3259   -1.9401 C   0  0  0  0  0  0  0  0  0  0  0  0
    8.9195   10.5345   -4.3783 C   0  0  0  0  0  0  0  0  0  0  0  0
    8.4314    5.9499   -4.1080 C   0  0  0  0  0  0  0  0  0  0  0  0
    3.1968    9.4371   -1.3084 C   0  0  0  0  0  0  0  0  0  0  0  0
    6.1073    9.3172   -0.1016 C   0  0  0  0  0  0  0  0  0  0  0  0
    4.2237    4.2962    1.7477 C   0  0  0  0  0  0  0  0  0  0  0  0
    5.4695    7.0308    2.9337 C   0  0  0  0  0  0  0  0  0  0  0  0
    6.9397    7.2125    2.5162 C   0  0  0  0  0  0  0  0  0  0  0  0
    5.5407    5.0838   -1.5935 C   0  0  0  0  0  0  0  0  0  0  0  0
    6.4078    5.5832   -2.6080 C   0  0  0  0  0  0  0  0  0  0  0  0
    2.4764    6.4529   -1.0009 C   0  0  0  0  0  0  0  0  0  0  0  0
    6.5599    9.9270   -3.2788 C   0  0  0  0  0  0  0  0  0  0  0  0
   10.1978    8.1201   -3.2453 C   0  0  0  0  0  0  0  0  0  0  0  0
    4.5109    6.7998    1.7833 C   0  0  0  0  0  0  0  0  0  0  0  0
    9.5484    7.0155   -2.4910 C   0  0  0  0  0  0  0  0  0  0  0  0
    3.0393    7.6426   -0.3933 C   0  0  0  0  0  0  0  0  0  0  0  0
    5.4937    9.6863   -2.3299 C   0  0  0  0  0  0  0  0  0  0  0  0
    7.6412    8.2798    2.5766 C   0  0  0  0  0  0  0  0  0  0  0  0
    4.3894    6.0955   -1.5798 C   0  0  1  0  0  0  0  0  0  0  0  0
    3.5367    5.5130   -0.4949 C   0  0  1  0  0  0  0  0  0  0  0  0
    7.7767    9.0650   -2.9291 C   0  0  2  0  0  0  0  0  0  0  0  0
    6.8622    7.0012   -2.0005 C   0  0  1  0  0  0  0  0  0  0  0  0
   10.0766    9.2929   -2.3424 C   0  0  1  0  0  0  0  0  0  0  0  0
    8.9366   10.0881   -2.9070 C   0  0  0  0  0  0  0  0  0  0  0  0
    8.0412    7.2928   -2.9976 C   0  0  1  0  0  0  0  0  0  0  0  0
    4.1823    7.9229   -1.3759 C   0  0  1  0  0  0  0  0  0  0  0  0
    5.6714    8.3928   -1.4059 C   0  0  1  0  0  0  0  0  0  0  0  0
    4.4757    5.5383    0.9447 C   0  0  2  0  0  0  0  0  0  0  0  0
    9.7724    8.9560   -0.9601 O   0  0  0  0  0  0  0  0  0  0  0  0
    5.8910    5.4488    0.7716 O   0  0  0  0  0  0  0  0  0  0  0  0
 10  9  1  0
 12 11  1  0
 16  9  1  0
 17 15  1  0
 18 13  1  0
 19 14  1  0
 20  1  1  0
 20  2  1  0
 20 10  2  3
 21 11  1  1
 22 13  1  1
 22 21  1  0
 22 30  1  0
 23 14  1  6
 23 26  1  0
 24 12  1  6
 24 27  1  0
 24 29  1  0
 25 15  1  0
 25 26  1  0
 25 31  1  1
 26  3  1  0
 26  4  1  0
 27  5  1  6
 27 17  1  0
 27 23  1  0
 28  6  1  6
 28 18  1  0
 28 21  1  0
 29  7  1  1
 29 19  1  0
 29 28  1  0
 30  8  1  1
 30 16  1  0
 32 30  1  0
M  END
>  <DRUGBANK_ID>  (1) 
DB14152

>  <COMMON_NAME>  (1) 
Ginsenosides

>  <CAS_NUMBER>  (1) 
74749-74-9

>  <UNII>  (1) 
3K198YD54P

>  <SYNONYMS>  (1) 
Ginseng root-neutral saponins; Ginsenoside; Neutral saponins of panax ginseng root

$$$$
