
     RDKit          3D

 23 25  0  0  0  0  0  0  0  0999 V2000
    0.9490   -0.1195   -0.0033 C   0  0  0  0  0  0  0  0  0  0  0  0
    0.5006    1.1555    0.6427 C   0  0  0  0  0  0  0  0  0  0  0  0
   -0.2936    1.3149    1.6948 N   0  0  0  0  0  0  0  0  0  0  0  0
   -0.3909    2.6749    2.0153 C   0  0  0  0  0  0  0  0  0  0  0  0
    0.3283    3.5037    1.1790 C   0  0  0  0  0  0  0  0  0  0  0  0
    1.1233    2.6085   -0.0397 S   0  0  0  0  0  0  0  0  0  0  0  0
   -1.1661    3.1524    3.1542 C   0  0  0  0  0  0  0  0  0  0  0  0
   -1.7782    3.6338    4.0850 C   0  0  0  0  0  0  0  0  0  0  0  0
   -2.5208    4.2300    5.1939 C   0  0  0  0  0  0  0  0  0  0  0  0
   -3.3801    3.4766    5.9921 C   0  0  0  0  0  0  0  0  0  0  0  0
   -4.0719    4.0725    7.0660 C   0  0  0  0  0  0  0  0  0  0  0  0
   -4.0120    5.4520    7.2559 C   0  0  0  0  0  0  0  0  0  0  0  0
   -3.1733    6.2112    6.5118 N   0  0  0  0  0  0  0  0  0  0  0  0
   -2.4177    5.5755    5.5495 C   0  0  0  0  0  0  0  0  0  0  0  0
   -4.8944    6.1292    8.2394 C   0  0  0  0  0  0  0  0  0  0  0  0
   -4.8120    5.8394    9.6184 C   0  0  0  0  0  0  0  0  0  0  0  0
   -5.7178    6.3887   10.5479 C   0  0  0  0  0  0  0  0  0  0  0  0
   -6.7288    7.2424   10.1092 C   0  0  0  0  0  0  0  0  0  0  0  0
   -6.8128    7.5473    8.7574 C   0  0  0  0  0  0  0  0  0  0  0  0
   -7.7921    8.3605    8.3379 F   0  0  0  0  0  0  0  0  0  0  0  0
   -5.9141    7.0097    7.8299 C   0  0  0  0  0  0  0  0  0  0  0  0
   -5.6184    6.0657   11.9396 C   0  0  0  0  0  0  0  0  0  0  0  0
   -5.5491    5.8043   13.0733 N   0  0  0  0  0  0  0  0  0  0  0  0
  1  2  1  0
  2  3  2  0
  2  6  1  0
  3  4  1  0
  4  5  2  0
  4  7  1  0
  5  6  1  0
  7  8  3  0
  8  9  1  0
  9 10  2  0
  9 14  1  0
 10 11  1  0
 11 12  2  0
 12 13  1  0
 12 15  1  0
 13 14  2  0
 15 16  2  0
 15 21  1  0
 16 17  1  0
 17 18  2  0
 17 22  1  0
 18 19  1  0
 19 20  1  0
 19 21  2  0
 22 23  3  0
M  END
>  <DRUGBANK_ID>  (1) 
DB16943

>  <COMMON_NAME>  (1) 
STX-107

>  <CAS_NUMBER>  (1) 
935685-90-8

>  <UNII>  (1) 
O55CA1TU5D

>  <SYNONYMS>  (1) 
3-Fluoro-5-(5-((2-methylthiazol-4-yl)ethynyl)pyridin-2-yl)benzonitrile; 3-fluoro-5-[5-[2-(2-methyl-1,3-thiazol-4-yl)ethynyl]pyridin-2-yl]benzonitrile

$$$$
