
     RDKit          3D

 28 31  0  0  0  0  0  0  0  0999 V2000
    0.0493    1.2408   -0.0354 C   0  0  0  0  0  0  0  0  0  0  0  0
    1.2062    0.5687    0.0380 N   0  0  0  0  0  0  0  0  0  0  0  0
    1.1618   -0.7656    0.0525 C   0  0  0  0  0  0  0  0  0  0  0  0
   -0.0550   -1.4173    0.0421 C   0  0  0  0  0  0  0  0  0  0  0  0
   -1.2201   -0.6613   -0.0445 C   0  0  0  0  0  0  0  0  0  0  0  0
   -1.1768    0.6806   -0.1009 N   0  0  0  0  0  0  0  0  0  0  0  0
    2.3649   -1.5133    0.1545 N   0  0  0  0  0  0  0  0  0  0  0  0
    0.1458    2.7059   -0.0196 C   0  0  0  0  0  0  0  0  0  0  0  0
    1.3214    3.3779   -0.0290 C   0  0  0  0  0  0  0  0  0  0  0  0
    1.4269    4.8403    0.0041 C   0  0  0  0  0  0  0  0  0  0  0  0
    0.6708    5.6006    0.9037 C   0  0  0  0  0  0  0  0  0  0  0  0
    0.8079    6.9889    0.9532 C   0  0  0  0  0  0  0  0  0  0  0  0
    1.7284    7.6295    0.1265 C   0  0  0  0  0  0  0  0  0  0  0  0
    2.5169    6.8805   -0.7451 C   0  0  0  0  0  0  0  0  0  0  0  0
    2.3531    5.4937   -0.8218 C   0  0  0  0  0  0  0  0  0  0  0  0
    5.5487   -0.3756   -0.5029 N   0  0  0  0  0  0  0  0  0  0  0  0
    4.5404   -1.2161   -0.8206 N   0  0  0  0  0  0  0  0  0  0  0  0
    3.5945   -0.9406    0.0828 C   0  0  0  0  0  0  0  0  0  0  0  0
    4.0590   -0.0120    1.0399 C   0  0  0  0  0  0  0  0  0  0  0  0
    5.3297    0.3340    0.6455 C   0  0  0  0  0  0  0  0  0  0  0  0
    6.3214    1.2523    1.2432 C   0  0  0  0  0  0  0  0  0  0  0  0
   -2.4190   -1.3464   -0.1133 N   0  0  0  0  0  0  0  0  0  0  0  0
   -2.8725   -2.1435    1.0312 C   0  0  0  0  0  0  0  0  0  0  0  0
   -3.5198   -3.4457    0.5053 C   0  0  0  0  0  0  0  0  0  0  0  0
   -4.6431   -3.1559   -0.4160 N   0  0  0  0  0  0  0  0  0  0  0  0
   -4.1225   -2.3570   -1.5561 C   0  0  0  0  0  0  0  0  0  0  0  0
   -3.4588   -1.0208   -1.0914 C   0  0  0  0  0  0  0  0  0  0  0  0
   -5.2745   -4.3911   -0.8694 C   0  0  0  0  0  0  0  0  0  0  0  0
  1  2  2  0
  1  6  1  0
  1  8  1  0
  2  3  1  0
  3  4  2  0
  3  7  1  0
  4  5  1  0
  5  6  2  0
  5 22  1  0
  7 18  1  0
  8  9  2  0
  9 10  1  0
 10 11  2  0
 10 15  1  0
 11 12  1  0
 12 13  2  0
 13 14  1  0
 14 15  2  0
 16 17  1  0
 16 20  1  0
 17 18  2  0
 18 19  1  0
 19 20  2  0
 20 21  1  0
 22 23  1  0
 22 27  1  0
 23 24  1  0
 24 25  1  0
 25 26  1  0
 25 28  1  0
 26 27  1  0
M  END
>  <DRUGBANK_ID>  (1) 
DB16891

>  <COMMON_NAME>  (1) 
ENMD-981693

>  <CAS_NUMBER>  (1) 
934353-76-1

>  <UNII>  (1) 
J6U9WP10T7

>  <SYNONYMS>  (1) 
(E)-N-(5-Methyl-1H-pyrazol-3-yl)-6-(4-methylpiperazin-1-yl)-2-styrylpyrimidin-4-amine; ENMD-2076 free base

$$$$
