
     RDKit          3D

 22 25  0  0  1  0  0  0  0  0999 V2000
   -0.1182   -0.0016   -0.2568 O   0  0  0  0  0  0  0  0  0  0  0  0
    3.6015    4.0807    1.7731 O   0  0  0  0  0  0  0  0  0  0  0  0
    0.8160    3.1854    4.0642 N   0  0  0  0  0  0  0  0  0  0  0  0
    3.3206    1.8434    1.5629 N   0  0  0  0  0  0  0  0  0  0  0  0
    1.2253    0.3708    2.9532 N   0  0  0  0  0  0  0  0  0  0  0  0
    0.0886    1.8328    3.8644 C   0  0  2  0  0  0  0  0  0  0  0  0
   -0.0537    0.0313    1.2665 C   0  0  1  0  0  0  0  0  0  0  0  0
   -1.6874   -0.0612    3.0517 C   0  0  1  0  0  0  0  0  0  0  0  0
    0.5560   -1.2249    4.0511 C   0  0  2  0  0  0  0  0  0  0  0  0
   -0.0263    1.8164    2.0445 C   0  0  0  0  0  0  0  0  0  0  0  0
   -1.4120    1.4548    3.7266 C   0  0  0  0  0  0  0  0  0  0  0  0
    0.9733    0.4504    4.8599 C   0  0  0  0  0  0  0  0  0  0  0  0
   -1.4745   -0.1995    1.5071 C   0  0  0  0  0  0  0  0  0  0  0  0
    0.7944   -1.4524    2.2124 C   0  0  0  0  0  0  0  0  0  0  0  0
   -0.9666   -1.2647    3.8920 C   0  0  0  0  0  0  0  0  0  0  0  0
    2.3644    3.1768    3.8161 C   0  0  0  0  0  0  0  0  0  0  0  0
    3.1078    3.0641    2.2629 C   0  0  0  0  0  0  0  0  0  0  0  0
    2.2248    1.1298    1.2261 C   0  0  1  0  0  0  0  0  0  0  0  0
    4.1954    1.2401    0.5920 C   0  0  0  0  0  0  0  0  0  0  0  0
    2.3299    0.0491    0.2258 C   0  0  0  0  0  0  0  0  0  0  0  0
    3.7306   -0.2519    0.3300 C   0  0  0  0  0  0  0  0  0  0  0  0
    2.2360    0.5889    2.4491 C   0  0  0  0  0  0  0  0  0  0  0  0
  7  1  1  6
  2 17  2  0
  6  3  1  1
  3 16  1  0
  4 17  1  0
  4 18  1  0
  4 19  1  0
  5 22  3  0
  6 10  1  0
  6 11  1  0
  6 12  1  0
  7 10  1  0
  7 13  1  0
  7 14  1  0
  8 11  1  1
  8 13  1  0
  8 15  1  0
  9 12  1  6
  9 14  1  0
  9 15  1  0
 16 17  1  0
 18 20  1  0
 18 22  1  1
 19 21  1  0
 20 21  1  0
M  END
>  <DRUGBANK_ID>  (1) 
DB04876

>  <COMMON_NAME>  (1) 
Vildagliptin

>  <CAS_NUMBER>  (1) 
274901-16-5

>  <UNII>  (1) 
I6B4B2U96P

>  <SYNONYMS>  (1) 
Vildagliptin; Vildagliptina

$$$$
