
     RDKit          3D

 43 48  0  0  1  0  0  0  0  0999 V2000
    3.5588    6.1002   10.4847 C   0  0  0  0  0  0  0  0  0  0  0  0
    5.0123    6.4091   10.7452 C   0  0  0  0  0  0  0  0  0  0  0  0
    5.3391    5.9086   12.1500 C   0  0  0  0  0  0  0  0  0  0  0  0
    5.9268    5.8615    9.6806 N   0  0  0  0  0  0  0  0  0  0  0  0
    6.5221    6.8927    8.7934 C   0  0  0  0  0  0  0  0  0  0  0  0
    8.0287    6.9813    8.9786 C   0  0  0  0  0  0  0  0  0  0  0  0
    6.1539    6.7212    7.3230 C   0  0  0  0  0  0  0  0  0  0  0  0
    6.2042    4.4526    9.6400 C   0  0  0  0  0  0  0  0  0  0  0  0
    5.8184    3.6610   10.4757 O   0  0  0  0  0  0  0  0  0  0  0  0
    7.0233    3.8222    8.5608 C   0  0  0  0  0  0  0  0  0  0  0  0
    8.3947    4.0892    8.5750 C   0  0  0  0  0  0  0  0  0  0  0  0
    9.1929    3.7893    7.4786 C   0  0  0  0  0  0  0  0  0  0  0  0
   10.4008    4.3578    7.3703 F   0  0  0  0  0  0  0  0  0  0  0  0
    8.7294    2.9566    6.4838 C   0  0  0  0  0  0  0  0  0  0  0  0
    7.4330    2.4526    6.5951 C   0  0  0  0  0  0  0  0  0  0  0  0
    6.5504    2.8941    7.6153 C   0  0  0  0  0  0  0  0  0  0  0  0
    5.3310    2.2447    7.5510 O   0  0  0  0  0  0  0  0  0  0  0  0
    4.3140    2.5476    8.4054 C   0  0  0  0  0  0  0  0  0  0  0  0
    3.5996    3.7113    8.2316 C   0  0  0  0  0  0  0  0  0  0  0  0
    2.5217    4.0385    8.9651 N   0  0  0  0  0  0  0  0  0  0  0  0
    2.2782    3.2346   10.0116 C   0  0  0  0  0  0  0  0  0  0  0  0
    2.8355    2.0486   10.2284 N   0  0  0  0  0  0  0  0  0  0  0  0
    3.8351    1.6866    9.3948 C   0  0  0  0  0  0  0  0  0  0  0  0
    4.3622    0.4302    9.6788 N   0  0  0  0  0  0  0  0  0  0  0  0
    5.6789   -0.0810    9.5803 C   0  0  0  0  0  0  0  0  0  0  0  0
    5.0904   -1.2941    8.8395 C   0  0  0  0  0  0  0  0  0  0  0  0
    3.7323   -0.8270    9.4102 C   0  0  0  0  0  0  0  0  0  0  0  0
    5.5763   -2.6431    9.3509 C   0  0  0  0  0  0  0  0  0  0  0  0
    6.9982   -2.8676    8.8077 C   0  0  0  0  0  0  0  0  0  0  0  0
    7.0319   -2.7914    7.3273 N   0  0  0  0  0  0  0  0  0  0  0  0
    6.5566   -1.5500    6.7761 C   0  0  0  0  0  0  0  0  0  0  0  0
    5.1676   -1.1956    7.3048 C   0  0  0  0  0  0  0  0  0  0  0  0
    7.2803   -3.8449    6.4088 C   0  0  0  0  0  0  0  0  0  0  0  0
    7.3443   -3.6927    5.2054 O   0  0  0  0  0  0  0  0  0  0  0  0
    7.3356   -5.2200    7.0695 C   0  0  1  0  0  0  0  0  0  0  0  0
    6.0628   -5.2167    7.7662 N   0  0  0  0  0  0  0  0  0  0  0  0
    5.0510   -6.0639    7.1571 C   0  0  1  0  0  0  0  0  0  0  0  0
    5.0594   -6.7919    5.7490 C   0  0  0  0  0  0  0  0  0  0  0  0
    6.3680   -6.5384    5.0843 C   0  0  0  0  0  0  0  0  0  0  0  0
    7.3620   -6.5169    6.2396 C   0  0  2  0  0  0  0  0  0  0  0  0
    6.8960   -7.6523    7.3564 C   0  0  0  0  0  0  0  0  0  0  0  0
    8.0201   -8.1217    7.9402 C   0  0  0  0  0  0  0  0  0  0  0  0
    5.3454   -7.2854    7.9878 C   0  0  0  0  0  0  0  0  0  0  0  0
  1  2  1  0
  2  3  1  0
  2  4  1  0
  4  5  1  0
  4  8  1  0
  5  6  1  0
  5  7  1  0
  8  9  2  0
  8 10  1  0
 10 11  2  0
 10 16  1  0
 11 12  1  0
 12 13  1  0
 12 14  2  0
 14 15  1  0
 15 16  2  0
 16 17  1  0
 17 18  1  0
 18 19  2  0
 18 23  1  0
 19 20  1  0
 20 21  2  0
 21 22  1  0
 22 23  2  0
 23 24  1  0
 24 25  1  0
 24 27  1  0
 25 26  1  0
 26 27  1  0
 26 28  1  0
 26 32  1  0
 28 29  1  0
 29 30  1  0
 30 31  1  0
 30 33  1  0
 31 32  1  0
 33 34  2  0
 35 36  1  0
 35 40  1  0
 35 33  1  6
 37 36  1  0
 37 38  1  6
 37 43  1  0
 38 39  1  0
 40 39  1  6
 40 41  1  0
 41 43  1  0
 41 42  2  0
M  END
>  <DRUGBANK_ID>  (1) 
DB18514

>  <COMMON_NAME>  (1) 
DSP-5336

>  <CAS_NUMBER>  (1) 
2412555-70-3

>  <UNII>  (1) 
VW83Y2JLZ5

>  <SYNONYMS>  (1) 
BENZAMIDE, 5-FLUORO-2-((4-(7-(((1S,3S,4R)-5-METHYLENE-2-AZABICYCLO(2.2.2)OCT-3-YL)CARBONYL)-2,7-DIAZASPIRO(3.5)NON-2-YL)-5-PYRIMIDINYL)OXY)-N,N-BIS(1-METHYLETHYL)-

$$$$
