68867
     RDKit          3D

 29 31  0  0  1  0  0  0  0  0999 V2000
    0.1874    0.6662   -0.2451 O   0  0  0  0  0  0  0  0  0  0  0  0
    3.7944   -0.6085    2.0559 O   0  0  0  0  0  0  0  0  0  0  0  0
    3.5214   -5.5894   -3.3042 O   0  0  0  0  0  0  0  0  0  0  0  0
    1.8502   -4.2962   -4.0304 O   0  0  0  0  0  0  0  0  0  0  0  0
    6.1894   -1.6371    0.8277 N   0  0  0  0  0  0  0  0  0  0  0  0
    2.6671    1.5782   -0.8297 N   0  0  0  0  0  0  0  0  0  0  0  0
    2.7012   -4.6637   -3.2442 N   0  0  0  0  0  0  0  0  0  0  0  0
    5.0088   -5.1737   -1.0747 N   0  0  0  0  0  0  0  0  0  0  0  0
    3.3941   -3.5715    1.0317 C   0  0  0  0  0  0  0  0  0  0  0  0
    5.2869   -3.2992    1.3057 C   0  0  0  0  0  0  0  0  0  0  0  0
    4.6338    1.5383   -0.4828 C   0  0  0  0  0  0  0  0  0  0  0  0
    5.8292   -0.7108   -0.7538 C   0  0  0  0  0  0  0  0  0  0  0  0
    5.7540   -0.8439    1.8609 C   0  0  0  0  0  0  0  0  0  0  0  0
    5.4312    0.7176   -1.4038 C   0  0  0  0  0  0  0  0  0  0  0  0
    5.5594    0.7758    1.1634 C   0  0  0  0  0  0  0  0  0  0  0  0
    2.8081   -2.9330   -0.4497 C   0  0  0  0  0  0  0  0  0  0  0  0
    2.4145   -2.7175    2.0733 C   0  0  0  0  0  0  0  0  0  0  0  0
    3.1182   -0.8917   -1.1383 C   0  0  0  0  0  0  0  0  0  0  0  0
    1.8295   -1.0439    1.8488 C   0  0  0  0  0  0  0  0  0  0  0  0
    2.4309   -0.0986    0.6926 C   0  0  0  0  0  0  0  0  0  0  0  0
    1.2924    0.3993   -0.7732 C   0  0  0  0  0  0  0  0  0  0  0  0
    1.6401   -1.4776   -0.3551 C   0  0  0  0  0  0  0  0  0  0  0  0
    3.5511   -1.6110    0.5043 C   0  0  0  0  0  0  0  0  0  0  0  0
    1.5067   -2.5054   -1.8670 C   0  0  0  0  0  0  0  0  0  0  0  0
    2.7824   -3.8129   -2.2032 C   0  0  0  0  0  0  0  0  0  0  0  0
    4.8057   -2.6669   -0.4898 C   0  0  0  0  0  0  0  0  0  0  0  0
    4.4185   -3.9011   -1.5033 C   0  0  0  0  0  0  0  0  0  0  0  0
    3.2612    1.0847    2.4458 C   0  0  0  0  0  0  0  0  0  0  0  0
    3.6556    2.1767    1.4717 C   0  0  0  0  0  0  0  0  0  0  0  0
  1 21  2  0
  2 23  1  0
  2 28  1  0
  3  7  1  0
  4  7  2  0
  5 10  1  0
  5 12  1  0
  5 13  1  0
  6 11  1  0
  6 21  1  0
  7 25  1  0
  8 27  1  0
  9 10  1  0
  9 16  1  0
  9 17  1  0
 11 14  1  0
 11 15  1  0
 12 14  1  0
 13 15  1  0
 16 18  1  0
 17 19  1  0
 18 20  1  0
 19 20  2  0
 21 22  1  0
 22 23  2  0
 22 24  1  0
 23 26  1  0
 24 25  2  0
 25 27  1  0
 26 27  2  0
 28 29  1  0
M  CHG  2   3  -1   7   1
M  END
>  <DRUGBANK_ID>  (1) 
DB08810

>  <COMMON_NAME>  (1) 
Cinitapride

>  <CAS_NUMBER>  (1) 
66564-14-5

>  <UNII>  (1) 
R8I97I2L24

>  <SYNONYMS>  (1) 
4-Amino-N-(1-(3-cyclohexen-1-ylmethyl)-4-piperidyl)-2-ethoxy-5-nitrobenzamide; Cinitaprida; Cinitapride; Cinitapridum

$$$$
