
     RDKit          3D

 15 15  0  0  0  0  0  0  0  0999 V2000
    0.9212    0.0200   -0.0954 C   0  0  0  0  0  0  0  0  0  0  0  0
    0.5680   -1.4084   -0.5274 C   0  0  0  0  0  0  0  0  0  0  0  0
    1.3081   -2.3261    0.4637 C   0  0  0  0  0  0  0  0  0  0  0  0
   -0.8847   -1.4922   -0.7200 N   0  0  0  0  0  0  0  0  0  0  0  0
   -1.5040   -2.8027   -0.9181 C   0  0  0  0  0  0  0  0  0  0  0  0
   -1.2906   -3.9232    0.1374 C   0  0  0  0  0  0  0  0  0  0  0  0
   -1.7069   -3.5822    1.5695 C   0  0  0  0  0  0  0  0  0  0  0  0
   -1.5850   -2.2889    2.1284 C   0  0  0  0  0  0  0  0  0  0  0  0
   -1.9922   -1.9850    3.4256 C   0  0  0  0  0  0  0  0  0  0  0  0
   -2.4811   -2.9842    4.2343 C   0  0  0  0  0  0  0  0  0  0  0  0
   -2.5227   -4.3012    3.7516 C   0  0  0  0  0  0  0  0  0  0  0  0
   -2.1319   -4.5869    2.4329 C   0  0  0  0  0  0  0  0  0  0  0  0
   -3.0351   -5.6183    4.7358 Cl  0  0  0  0  0  0  0  0  0  0  0  0
   -2.9941   -2.5418    5.8195 Cl  0  0  0  0  0  0  0  0  0  0  0  0
   -1.9144   -5.1290   -0.3365 O   0  0  0  0  0  0  0  0  0  0  0  0
  1  2  1  0
  2  3  1  0
  2  4  1  0
  4  5  1  0
  5  6  1  0
  6  7  1  0
  6 15  1  0
  7  8  2  0
  7 12  1  0
  8  9  1  0
  9 10  2  0
 10 11  1  0
 10 14  1  0
 11 12  2  0
 11 13  1  0
M  END
>  <DRUGBANK_ID>  (1) 
DB12803

>  <COMMON_NAME>  (1) 
Dichloroisoproterenol

>  <CAS_NUMBER>  (1) 
59-61-0

>  <UNII>  (1) 
U7NOE2K4M2

>  <SYNONYMS>  (1) 
DCI

$$$$
