
     RDKit          3D

 34 38  0  0  1  0  0  0  0  0999 V2000
    1.2567   -0.3724    0.3397 C   0  0  0  0  0  0  0  0  0  0  0  0
    0.9118   -1.0877   -0.9361 C   0  0  0  0  0  0  0  0  0  0  0  0
    2.0034   -2.1722   -1.3297 C   0  0  2  0  0  0  0  0  0  0  0  0
    3.5093   -1.9095   -2.2682 C   0  0  0  0  0  0  0  0  0  0  0  0
    4.4896   -0.7510   -2.6189 C   0  0  0  0  0  0  0  0  0  0  0  0
    3.8951    0.3646   -3.0357 C   0  0  0  0  0  0  0  0  0  0  0  0
    2.6025    0.0810   -3.3317 N   0  0  0  0  0  0  0  0  0  0  0  0
    2.1234   -1.1944   -3.7254 C   0  0  0  0  0  0  0  0  0  0  0  0
    0.9218   -1.3944   -3.9851 O   0  0  0  0  0  0  0  0  0  0  0  0
    3.1092   -2.3907   -3.4487 C   0  0  0  0  0  0  0  0  0  0  0  0
    2.8019   -3.8564   -3.1920 C   0  0  0  0  0  0  0  0  0  0  0  0
    1.4429   -4.0955   -3.0143 O   0  0  0  0  0  0  0  0  0  0  0  0
    0.9216   -3.2904   -2.0549 C   0  0  0  0  0  0  0  0  0  0  0  0
   -0.2802   -3.4017   -1.7980 O   0  0  0  0  0  0  0  0  0  0  0  0
    1.8735    1.1674   -2.7541 C   0  0  0  0  0  0  0  0  0  0  0  0
    2.7343    2.3595   -2.9442 C   0  0  0  0  0  0  0  0  0  0  0  0
    4.0233    1.8560   -3.2085 C   0  0  0  0  0  0  0  0  0  0  0  0
    5.0672    2.6460   -3.4671 N   0  0  0  0  0  0  0  0  0  0  0  0
    4.8188    3.9964   -3.4424 C   0  0  0  0  0  0  0  0  0  0  0  0
    5.8256    4.8906   -3.7955 C   0  0  0  0  0  0  0  0  0  0  0  0
    5.6686    6.2908   -3.7598 C   0  0  0  0  0  0  0  0  0  0  0  0
    4.4764    6.8408   -3.3557 C   0  0  0  0  0  0  0  0  0  0  0  0
    3.4484    6.0003   -3.0087 C   0  0  0  0  0  0  0  0  0  0  0  0
    3.5723    4.5855   -3.0617 C   0  0  0  0  0  0  0  0  0  0  0  0
    2.4878    3.7294   -2.7678 C   0  0  0  0  0  0  0  0  0  0  0  0
    0.8035    4.4983   -2.1668 Si  0  0  0  0  0  4  0  0  0  0  0  0
    1.0850    5.4935   -0.5888 C   0  0  0  0  0  0  0  0  0  0  0  0
    0.0795    5.5114   -3.5468 C   0  0  0  0  0  0  0  0  0  0  0  0
   -0.5000    3.1670   -1.7562 C   0  0  0  0  0  0  0  0  0  0  0  0
   -0.8328    2.3513   -3.0292 C   0  0  0  0  0  0  0  0  0  0  0  0
    0.0166    2.4239   -0.5309 C   0  0  0  0  0  0  0  0  0  0  0  0
   -1.8435    3.6987   -1.2733 C   0  0  0  0  0  0  0  0  0  0  0  0
    4.3171    8.1912   -3.3125 O   0  0  0  0  0  0  0  0  0  0  0  0
    2.4832   -2.6996   -0.0910 O   0  0  0  0  0  0  0  0  0  0  0  0
  1  2  1  0
  3  2  1  0
  3  4  1  0
  3 13  1  0
  3 34  1  1
  4  5  1  0
  4 10  2  0
  5  6  2  0
  6  7  1  0
  6 17  1  0
  7  8  1  0
  7 15  1  0
  8  9  2  0
  8 10  1  0
 10 11  1  0
 11 12  1  0
 12 13  1  0
 13 14  2  0
 15 16  1  0
 16 17  2  0
 16 25  1  0
 17 18  1  0
 18 19  2  0
 19 20  1  0
 19 24  1  0
 20 21  2  0
 21 22  1  0
 22 23  2  0
 22 33  1  0
 23 24  1  0
 24 25  2  0
 25 26  1  0
 26 27  1  0
 26 28  1  0
 26 29  1  0
 29 30  1  0
 29 31  1  0
 29 32  1  0
M  END
>  <DRUGBANK_ID>  (1) 
DB12384

>  <COMMON_NAME>  (1) 
Silatecan

>  <CAS_NUMBER>  (1) 
220913-32-6

>  <UNII>  (1) 
3YEA04NV6H

$$$$
