
     RDKit          3D

 35 39  0  0  1  0  0  0  0  0999 V2000
    1.2649   -0.2066   -0.2199 C   0  0  0  0  0  0  0  0  0  0  0  0
    0.5840    0.2267   -1.3906 O   0  0  0  0  0  0  0  0  0  0  0  0
    1.0170    1.5188   -1.8447 C   0  0  0  0  0  0  0  0  0  0  0  0
    0.5217    2.7055   -0.9909 C   0  0  0  0  0  0  0  0  0  0  0  0
    1.0507    2.7165    0.3826 N   0  0  0  0  0  0  0  0  0  0  0  0
    0.3759    3.6446    1.2782 C   0  0  0  0  0  0  0  0  0  0  0  0
   -1.1678    3.4619    1.3153 C   0  0  0  0  0  0  0  0  0  0  0  0
   -1.6614    2.0706    1.7969 C   0  0  0  0  0  0  0  0  0  0  0  0
   -1.3871    0.8072    1.1350 C   0  0  0  0  0  0  0  0  0  0  0  0
   -1.4977   -0.4935    1.7834 C   0  0  0  0  0  0  0  0  0  0  0  0
   -0.6783   -1.7884    1.4905 N   0  0  0  0  0  0  0  0  0  0  0  0
   -0.9741   -3.2194    2.1339 C   0  0  0  0  0  0  0  0  0  0  0  0
   -2.2320   -3.4903    1.8617 N   0  0  0  0  0  0  0  0  0  0  0  0
   -2.6319   -4.5906    2.4812 C   0  0  0  0  0  0  0  0  0  0  0  0
   -1.8384   -5.5321    3.2520 C   0  0  0  0  0  0  0  0  0  0  0  0
   -2.2375   -6.8794    3.2555 C   0  0  0  0  0  0  0  0  0  0  0  0
   -1.0182   -7.3925    2.0298 C   0  0  1  0  0  0  0  0  0  0  0  0
    0.7028   -7.2629    1.7476 C   0  0  0  0  0  0  0  0  0  0  0  0
    1.2648   -5.9911    1.6348 C   0  0  0  0  0  0  0  0  0  0  0  0
    2.5452   -5.6272    2.1074 C   0  0  0  0  0  0  0  0  0  0  0  0
    3.4787   -6.6076    2.3518 C   0  0  0  0  0  0  0  0  0  0  0  0
    3.0493   -7.9338    2.3222 C   0  0  0  0  0  0  0  0  0  0  0  0
    1.6919   -8.2647    2.0320 C   0  0  0  0  0  0  0  0  0  0  0  0
    1.3723   -9.5678    2.0996 F   0  0  0  0  0  0  0  0  0  0  0  0
   -0.8907   -8.3179    3.1247 C   0  0  0  0  0  0  0  0  0  0  0  0
   -1.6760   -9.6771    2.6917 C   0  0  0  0  0  0  0  0  0  0  0  0
   -1.6213  -10.8323    3.3634 C   0  0  0  0  0  0  0  0  0  0  0  0
   -0.7876  -10.5494    4.4063 C   0  0  0  0  0  0  0  0  0  0  0  0
   -0.1231   -8.9800    4.7264 C   0  0  0  0  0  0  0  0  0  0  0  0
   -0.0261   -7.5216    4.1180 C   0  0  0  0  0  0  0  0  0  0  0  0
   -0.5553   -5.6283    3.6767 C   0  0  0  0  0  0  0  0  0  0  0  0
   -0.0717   -4.2965    3.0391 N   0  0  0  0  0  0  0  0  0  0  0  0
   -2.1362   -0.4579    2.9985 C   0  0  0  0  0  0  0  0  0  0  0  0
   -2.5082    0.7489    3.6126 C   0  0  0  0  0  0  0  0  0  0  0  0
   -2.3021    2.0008    3.0258 C   0  0  0  0  0  0  0  0  0  0  0  0
  1  2  1  0
  2  3  1  0
  3  4  1  0
  4  5  1  0
  5  6  1  0
  6  7  1  0
  7  8  1  0
  8  9  2  0
  8 35  1  0
  9 10  1  0
 10 11  1  0
 10 33  2  0
 11 12  1  0
 12 13  2  0
 12 32  1  0
 13 14  1  0
 14 15  2  0
 15 16  1  0
 15 31  1  0
 17 16  1  0
 17 18  1  1
 17 25  1  0
 18 19  2  0
 18 23  1  0
 19 20  1  0
 20 21  2  0
 21 22  1  0
 22 23  2  0
 23 24  1  0
 25 26  1  0
 25 30  2  0
 26 27  2  0
 27 28  1  0
 28 29  2  0
 29 30  1  0
 30 31  1  0
 31 32  2  0
 33 34  1  0
 34 35  2  0
M  END
>  <DRUGBANK_ID>  (1) 
DB14889

>  <COMMON_NAME>  (1) 
Derazantinib

>  <CAS_NUMBER>  (1) 
1234356-69-4

>  <UNII>  (1) 
N9B0H171MJ

>  <SYNONYMS>  (1) 
Derazantinib

$$$$
