
     RDKit          3D

 24 25  0  0  0  0  0  0  0  0999 V2000
    1.0909    0.0769    0.0720 C   0  0  0  0  0  0  0  0  0  0  0  0
    0.5324   -0.3255    1.3625 N   0  0  0  0  0  0  0  0  0  0  0  0
   -0.9176   -0.1915    1.5021 C   0  0  0  0  0  0  0  0  0  0  0  0
    0.9976   -1.6619    1.7443 C   0  0  0  0  0  0  0  0  0  0  0  0
    0.5726   -2.8062    0.8386 C   0  0  0  0  0  0  0  0  0  0  0  0
    1.1232   -4.0624    1.0764 C   0  0  0  0  0  0  0  0  0  0  0  0
    0.7731   -5.1391    0.2654 C   0  0  0  0  0  0  0  0  0  0  0  0
   -0.1733   -4.9786   -0.7528 C   0  0  0  0  0  0  0  0  0  0  0  0
   -0.7791   -3.7573   -0.9673 C   0  0  0  0  0  0  0  0  0  0  0  0
   -0.3531   -2.6840   -0.2180 C   0  0  0  0  0  0  0  0  0  0  0  0
   -0.5846   -6.2252   -1.9179 S   0  0  0  0  0  0  0  0  0  0  0  0
   -1.9698   -6.6098   -1.7023 O   0  0  0  0  0  0  0  0  0  0  0  0
   -0.0876   -5.7861   -3.2044 O   0  0  0  0  0  0  0  0  0  0  0  0
    0.3209   -7.5881   -1.5045 N   0  0  0  0  0  0  0  0  0  0  0  0
    0.2437   -8.2768   -0.3203 C   0  0  0  0  0  0  0  0  0  0  0  0
    1.1481   -9.3156   -0.3877 C   0  0  0  0  0  0  0  0  0  0  0  0
    1.7546   -9.2436   -1.6579 C   0  0  0  0  0  0  0  0  0  0  0  0
    1.2492   -8.1502   -2.3268 C   0  0  0  0  0  0  0  0  0  0  0  0
    2.7128  -10.0879   -2.2605 C   0  0  0  0  0  0  0  0  0  0  0  0
    3.2786  -11.1825   -1.7414 C   0  0  0  0  0  0  0  0  0  0  0  0
    4.2793  -12.1147   -2.3281 C   0  0  0  0  0  0  0  0  0  0  0  0
    4.6402  -13.0594   -1.6189 O   0  0  0  0  0  0  0  0  0  0  0  0
    4.8109  -11.9984   -3.5611 N   0  0  0  0  0  0  0  0  0  0  0  0
    4.6247  -11.0699   -4.5777 O   0  0  0  0  0  0  0  0  0  0  0  0
  1  2  1  0
  2  3  1  0
  2  4  1  0
  4  5  1  0
  5  6  2  0
  5 10  1  0
  6  7  1  0
  7  8  2  0
  8  9  1  0
  8 11  1  0
  9 10  2  0
 11 12  2  0
 11 13  2  0
 11 14  1  0
 14 15  1  0
 14 18  1  0
 15 16  2  0
 16 17  1  0
 17 18  2  0
 17 19  1  0
 19 20  2  0
 20 21  1  0
 21 22  2  0
 21 23  1  0
 23 24  1  0
M  END
>  <DRUGBANK_ID>  (1) 
DB12392

>  <COMMON_NAME>  (1) 
Resminostat

>  <CAS_NUMBER>  (1) 
864814-88-0

>  <UNII>  (1) 
1578EUB98L

>  <SYNONYMS>  (1) 
Resminostat

$$$$
