
     RDKit          3D

  9  9  0  0  0  0  0  0  0  0999 V2000
    1.3502   -0.2207    0.0125 C   0  0  0  0  0  0  0  0  0  0  0  0
    0.4770   -1.3085    0.0139 C   0  0  0  0  0  0  0  0  0  0  0  0
   -0.9055   -1.1008   -0.0175 C   0  0  0  0  0  0  0  0  0  0  0  0
   -1.4192    0.2020   -0.0320 C   0  0  0  0  0  0  0  0  0  0  0  0
   -0.5368    1.2893    0.0214 C   0  0  0  0  0  0  0  0  0  0  0  0
    0.8441    1.0779   -0.0001 C   0  0  0  0  0  0  0  0  0  0  0  0
   -2.8719    0.4782   -0.1662 C   0  0  0  0  0  0  0  0  0  0  0  0
   -3.3835    1.5850   -0.2176 O   0  0  0  0  0  0  0  0  0  0  0  0
   -3.6135   -0.6378   -0.2850 O   0  0  0  0  0  0  0  0  0  0  0  0
  1  2  2  0
  1  6  1  0
  2  3  1  0
  3  4  2  0
  4  5  1  0
  4  7  1  0
  5  6  2  0
  7  8  2  0
  7  9  1  0
M  END
>  <DRUGBANK_ID>  (1) 
DB03793

>  <SECONDARY_ACCESSION_NUMBERS>  (1) 
EXPT00675

>  <COMMON_NAME>  (1) 
Benzoic acid

>  <CAS_NUMBER>  (1) 
65-85-0

>  <UNII>  (1) 
8SKN0B0MIM

>  <SYNONYMS>  (1) 
Benzoic acid

$$$$
