
     RDKit          3D

 13 12  0  0  1  0  0  0  0  0999 V2000
   -0.5623    4.1619    0.6485 C   0  0  0  0  0  0  0  0  0  0  0  0
   -1.2654    2.3712    2.8672 C   0  0  0  0  0  0  0  0  0  0  0  0
    1.1033    1.2760   -1.9888 C   0  0  0  0  0  0  0  0  0  0  0  0
   -0.2149    1.3038    2.5295 C   0  0  2  0  0  0  0  0  0  0  0  0
    0.6142    2.4536   -1.1971 C   0  0  1  0  0  0  0  0  0  0  0  0
    0.2560    1.1371    1.0493 C   0  0  2  0  0  0  0  0  0  0  0  0
    0.9591    2.3455    0.3111 C   0  0  2  0  0  0  0  0  0  0  0  0
   -2.5023    2.2341    2.1582 O   0  0  0  0  0  0  0  0  0  0  0  0
    0.4842    0.8348   -2.9728 O   0  0  0  0  0  0  0  0  0  0  0  0
   -0.8047    0.0563    2.9396 O   0  0  0  0  0  0  0  0  0  0  0  0
    1.1179    3.6638   -1.7693 O   0  0  0  0  0  0  0  0  0  0  0  0
   -0.8085    0.5528    0.2774 O   0  0  0  0  0  0  0  0  0  0  0  0
    0.7330    3.6335    0.9273 O   0  0  0  0  0  0  0  0  0  0  0  0
  4  2  1  0
  4 10  1  6
  5 11  1  6
  5  7  1  0
  5  3  1  0
  6  4  1  0
  6 12  1  6
  7 13  1  1
  7  6  1  0
  8  2  1  0
  9  3  2  0
 13  1  1  0
M  END
>  <DRUGBANK_ID>  (1) 
DB16765

>  <COMMON_NAME>  (1) 
3-O-Methyl-d-glucose

>  <CAS_NUMBER>  (1) 
146-72-5

>  <UNII>  (1) 
48DU64I6O5

>  <SYNONYMS>  (1) 
3-Methyl-D-glucose; 3-Methylglucose; 3-O-Methylglucose; Methylglucose; O(3)-methyl-D-glucose

$$$$
