
     RDKit          3D

 42 47  0  0  0  0  0  0  0  0999 V2000
    0.2306   -0.7178   -0.2293 C   0  0  0  0  0  0  0  0  0  0  0  0
    1.5674   -1.0843   -0.0544 N   0  0  0  0  0  0  0  0  0  0  0  0
    0.2721    0.6657   -0.0424 C   0  0  0  0  0  0  0  0  0  0  0  0
    2.3218    0.0632    0.0156 C   0  0  0  0  0  0  0  0  0  0  0  0
    1.5614    1.1299    0.0743 N   0  0  0  0  0  0  0  0  0  0  0  0
   -0.9312    1.3881   -0.0084 C   0  0  0  0  0  0  0  0  0  0  0  0
   -2.1907   -0.6860   -0.1741 C   0  0  0  0  0  0  0  0  0  0  0  0
   -1.0615   -2.8844   -0.6432 C   0  0  0  0  0  0  0  0  0  0  0  0
    3.6567    0.0304   -0.0060 O   0  0  0  0  0  0  0  0  0  0  0  0
   -2.1506    0.6977   -0.0235 C   0  0  0  0  0  0  0  0  0  0  0  0
   -0.0453   -3.4810   -0.9478 O   0  0  0  0  0  0  0  0  0  0  0  0
    4.3397    1.2850   -0.0008 C   0  0  0  0  0  0  0  0  0  0  0  0
    4.0840    2.1010   -1.2590 C   0  0  0  0  0  0  0  0  0  0  0  0
    0.5055   -4.5228    6.0102 C   0  0  0  0  0  0  0  0  0  0  0  0
    1.5699   -3.4983    5.9923 C   0  0  0  0  0  0  0  0  0  0  0  0
    2.7604   -3.7565    6.5449 N   0  0  0  0  0  0  0  0  0  0  0  0
    1.5070   -2.3452    5.4107 N   0  0  0  0  0  0  0  0  0  0  0  0
    3.5545   -2.7009    6.2663 C   0  0  0  0  0  0  0  0  0  0  0  0
    2.8145   -1.7818    5.5606 O   0  0  0  0  0  0  0  0  0  0  0  0
    4.7178   -2.5848    6.5821 O   0  0  0  0  0  0  0  0  0  0  0  0
   -2.2274   -3.5097   -0.3363 O   0  0  0  0  0  0  0  0  0  0  0  0
   -2.1408   -4.9571   -0.2901 C   0  0  0  0  0  0  0  0  0  0  0  0
   -1.5628   -5.6506   -1.5048 C   0  0  0  0  0  0  0  0  0  0  0  0
   -1.5041   -6.9407   -1.7423 C   0  0  0  0  0  0  0  0  0  0  0  0
   -0.8375   -7.2313   -2.9161 O   0  0  0  0  0  0  0  0  0  0  0  0
   -0.4892   -5.9643   -3.3559 C   0  0  0  0  0  0  0  0  0  0  0  0
   -0.9833   -4.9522   -2.5573 O   0  0  0  0  0  0  0  0  0  0  0  0
   -2.0546   -8.0530   -0.9472 C   0  0  0  0  0  0  0  0  0  0  0  0
    0.1544   -5.7677   -4.3797 O   0  0  0  0  0  0  0  0  0  0  0  0
   -0.0433   -4.9538    7.2144 C   0  0  0  0  0  0  0  0  0  0  0  0
    0.0215   -5.0486    4.7976 C   0  0  0  0  0  0  0  0  0  0  0  0
   -1.0792   -5.9238    4.8092 C   0  0  0  0  0  0  0  0  0  0  0  0
   -1.5353   -6.4462    6.0104 C   0  0  0  0  0  0  0  0  0  0  0  0
   -1.0073   -5.9694    7.2095 C   0  0  0  0  0  0  0  0  0  0  0  0
    0.5743   -4.5903    3.5375 C   0  0  0  0  0  0  0  0  0  0  0  0
    1.9438   -4.6741    3.1969 C   0  0  0  0  0  0  0  0  0  0  0  0
    2.4923   -3.9403    2.1300 C   0  0  0  0  0  0  0  0  0  0  0  0
    1.6684   -3.1230    1.3751 C   0  0  0  0  0  0  0  0  0  0  0  0
    0.3389   -3.0525    1.8079 C   0  0  0  0  0  0  0  0  0  0  0  0
   -0.2509   -3.8179    2.7742 C   0  0  0  0  0  0  0  0  0  0  0  0
    2.1449   -2.4142    0.1146 C   0  0  0  0  0  0  0  0  0  0  0  0
   -1.0162   -1.4114   -0.4084 C   0  0  0  0  0  0  0  0  0  0  0  0
  1  2  1  0
  1  3  2  0
  1 42  1  0
  2  4  1  0
  2 41  1  0
  3  5  1  0
  3  6  1  0
  4  9  1  0
  4  5  2  0
  6 10  2  0
  7 10  1  0
  8 11  2  0
  8 21  1  0
  8 42  1  0
  9 12  1  0
 12 13  1  0
 14 15  1  0
 14 31  1  0
 15 16  1  0
 15 17  2  0
 16 18  1  0
 17 19  1  0
 18 19  1  0
 18 20  2  0
 21 22  1  0
 22 23  1  0
 23 24  2  0
 23 27  1  0
 24 25  1  0
 24 28  1  0
 25 26  1  0
 26 27  1  0
 26 29  2  0
 30 14  2  0
 30 34  1  0
 31 32  2  0
 31 35  1  0
 32 33  1  0
 33 34  2  0
 36 35  2  0
 36 37  1  0
 37 38  2  0
 38 39  1  0
 38 41  1  0
 39 40  2  0
 40 35  1  0
 42  7  2  0
M  END
>  <DRUGBANK_ID>  (1) 
DB08822

>  <SECONDARY_ACCESSION_NUMBERS>  (1) 
DB05358

>  <COMMON_NAME>  (1) 
Azilsartan medoxomil

>  <CAS_NUMBER>  (1) 
863031-21-4

>  <UNII>  (1) 
LL0G25K7I2

>  <SYNONYMS>  (1) 
Azilsartan; Azilsartan medoxomil; Azilsartan médoxomil; Azilsartán medoxomilo; Azilsartanum medoxomilum

$$$$
