
     RDKit          3D

 16 15  0  0  1  0  0  0  0  0999 V2000
    3.8540    2.2496    0.3254 C   0  0  0  0  0  0  0  0  0  0  0  0
    2.6633    1.5330    0.9781 C   0  0  2  0  0  0  0  0  0  0  0  0
    1.7448    2.0630    0.0381 O   0  0  0  0  0  0  0  0  0  0  0  0
    2.4560    2.0262    2.4305 C   0  0  0  0  0  0  0  0  0  0  0  0
    1.0201    1.3298    3.5686 Br  0  0  0  0  0  0  0  0  0  0  0  0
    2.9404    0.0059    0.8958 C   0  0  0  0  0  0  0  0  0  0  0  0
    1.8581   -0.9832    1.2782 C   0  0  0  0  0  0  0  0  0  0  0  0
    0.7091   -0.7552    0.5333 O   0  0  0  0  0  0  0  0  0  0  0  0
    0.7110   -0.7112   -1.0726 P   0  0  2  0  0  0  0  0  0  0  0  0
   -0.1632   -2.0536   -1.1457 O   0  0  0  0  0  0  0  0  0  0  0  0
    1.9889   -0.8754   -1.7931 O   0  0  0  0  0  0  0  0  0  0  0  0
   -0.1376    0.6512   -1.3498 O   0  0  0  0  0  0  0  0  0  0  0  0
   -1.3025    1.1758   -0.1834 P   0  0  0  0  0  0  0  0  0  0  0  0
   -0.1655    1.3295    0.9219 O   0  0  0  0  0  0  0  0  0  0  0  0
   -1.1440    2.6430   -0.8812 O   0  0  0  0  0  0  0  0  0  0  0  0
   -2.3451    1.6453    0.8606 O   0  0  0  0  0  0  0  0  0  0  0  0
  2  4  1  0
  2  6  1  0
  2  3  1  0
  2  1  1  6
  4  5  1  0
  6  7  1  0
  7  8  1  0
  9 11  2  0
  9 12  1  0
  9 10  1  0
  9  8  1  0
 12 13  1  0
 13 14  1  0
 13 15  1  0
 13 16  2  0
M  END
>  <DRUGBANK_ID>  (1) 
DB04170

>  <SECONDARY_ACCESSION_NUMBERS>  (1) 
EXPT00699

>  <COMMON_NAME>  (1) 
4-bromo-3-hydroxy-3-methyl butyl diphosphate

$$$$
