
     RDKit          3D

 21 24  0  0  0  0  0  0  0  0999 V2000
    2.0325    1.9507   -0.1175 C   0  0  2  0  0  0  0  0  0  0  0  0
    2.7017    0.6775    0.3440 C   0  0  0  0  0  0  0  0  0  0  0  0
    3.4704    3.1756    0.4435 C   0  0  0  0  0  0  0  0  0  0  0  0
    3.3831    0.8038    1.4926 C   0  0  0  0  0  0  0  0  0  0  0  0
    4.1858    3.0414    1.9337 C   0  0  0  0  0  0  0  0  0  0  0  0
    3.1126    2.1332    2.1921 C   0  0  0  0  0  0  0  0  0  0  0  0
    0.3186    1.1431    0.2115 C   0  0  2  0  0  0  0  0  0  0  0  0
   -0.1584   -0.5619   -0.4424 C   0  0  1  0  0  0  0  0  0  0  0  0
    2.4497   -0.6884   -0.2702 C   0  0  0  0  0  0  0  0  0  0  0  0
    1.0650   -1.3831    0.1387 C   0  0  0  0  0  0  0  0  0  0  0  0
   -0.9966    1.8431   -0.1324 C   0  0  0  0  0  0  0  0  0  0  0  0
   -2.2408    1.0559    0.3562 C   0  0  0  0  0  0  0  0  0  0  0  0
   -1.8872   -1.4257   -0.7456 C   0  0  1  0  0  0  0  0  0  0  0  0
   -2.5304   -0.1992   -0.3438 C   0  0  1  0  0  0  0  0  0  0  0  0
   -3.8645   -1.1424   -1.3299 C   0  0  0  0  0  0  0  0  0  0  0  0
   -4.8287   -0.8139   -0.1558 C   0  0  0  0  0  0  0  0  0  0  0  0
   -3.6610   -1.2685    0.5318 C   0  0  2  0  0  0  0  0  0  0  0  0
    2.0054    2.6467    2.4203 O   0  0  0  0  0  0  0  0  0  0  0  0
    4.6148    0.1600    1.5568 O   0  0  0  0  0  0  0  0  0  0  0  0
   -3.6518   -1.1796    1.9129 O   0  0  0  0  0  0  0  0  0  0  0  0
   -2.1363   -0.0511   -2.1751 C   0  0  0  0  0  0  0  0  0  0  0  0
  1  3  1  1
  1  7  1  0
  1  2  1  0
  2  4  2  0
  2  9  1  0
  3  5  1  0
  4  6  1  0
  4 19  1  0
  5  6  1  0
  6 18  2  0
  7 11  1  6
  7  8  1  0
  8 10  1  1
  8 13  1  0
  9 10  1  0
 11 12  1  0
 12 14  1  0
 13 15  1  6
 13 14  1  0
 14 17  1  0
 14 21  1  6
 15 16  1  0
 16 17  1  0
 17 20  1  1
M  END
>  <DRUGBANK_ID>  (1) 
DB01500

>  <COMMON_NAME>  (1) 
Oxabolone

>  <CAS_NUMBER>  (1) 
4721-69-1

>  <UNII>  (1) 
51RPF719WE

>  <SYNONYMS>  (1) 
4-hydroxy nandrolone; 4-hydroxy-19-nortestosterone

$$$$
