
     RDKit          3D

 26 30  0  0  0  0  0  0  0  0999 V2000
    1.1247    0.0428   -0.0191 C   0  0  0  0  0  0  0  0  0  0  0  0
    0.7318   -0.2371    1.3275 O   0  0  0  0  0  0  0  0  0  0  0  0
    0.9765   -1.5215    1.7301 C   0  0  0  0  0  0  0  0  0  0  0  0
    2.2821   -1.9892    1.6829 C   0  0  0  0  0  0  0  0  0  0  0  0
    2.5822   -3.2772    2.1111 C   0  0  0  0  0  0  0  0  0  0  0  0
    1.6076   -4.1645    2.6100 C   0  0  0  0  0  0  0  0  0  0  0  0
    0.2867   -3.6793    2.7115 C   0  0  0  0  0  0  0  0  0  0  0  0
   -0.6471   -4.5660    3.2562 C   0  0  0  0  0  0  0  0  0  0  0  0
   -0.3796   -5.8788    3.5264 N   0  0  0  0  0  0  0  0  0  0  0  0
   -1.3467   -6.5801    4.4064 C   0  0  0  0  0  0  0  0  0  0  0  0
    0.8492   -6.4490    3.2304 C   0  0  0  0  0  0  0  0  0  0  0  0
    1.8933   -5.5194    2.9599 C   0  0  0  0  0  0  0  0  0  0  0  0
    3.2177   -6.0092    3.0185 C   0  0  0  0  0  0  0  0  0  0  0  0
    3.4873   -7.3171    3.3851 C   0  0  0  0  0  0  0  0  0  0  0  0
    2.4629   -8.2133    3.6267 C   0  0  0  0  0  0  0  0  0  0  0  0
    2.7027   -9.4461    4.2530 C   0  0  0  0  0  0  0  0  0  0  0  0
    1.6982  -10.4056    4.4014 C   0  0  0  0  0  0  0  0  0  0  0  0
    0.9864  -10.4512    3.2589 C   0  0  0  0  0  0  0  0  0  0  0  0
    1.9746  -11.3054    2.5017 O   0  0  0  0  0  0  0  0  0  0  0  0
    2.6308  -12.0765    3.6167 C   0  0  0  0  0  0  0  0  0  0  0  0
    1.9670  -11.6995    4.8120 O   0  0  0  0  0  0  0  0  0  0  0  0
    0.4867   -9.1646    2.8833 C   0  0  0  0  0  0  0  0  0  0  0  0
    1.1576   -7.9068    3.2508 C   0  0  0  0  0  0  0  0  0  0  0  0
   -0.0270   -2.3371    2.2847 C   0  0  0  0  0  0  0  0  0  0  0  0
   -1.3541   -1.9742    2.4343 O   0  0  0  0  0  0  0  0  0  0  0  0
   -1.7433   -0.6631    2.0085 C   0  0  0  0  0  0  0  0  0  0  0  0
  1  2  1  0
  2  3  1  0
  3  4  2  0
  3 24  1  0
  4  5  1  0
  5  6  2  0
  6  7  1  0
  6 12  1  0
  7  8  1  0
  7 24  2  0
  8  9  2  0
  9 10  1  0
  9 11  1  0
 11 12  2  0
 11 23  1  0
 12 13  1  0
 13 14  2  0
 14 15  1  0
 15 16  1  0
 15 23  2  0
 16 17  2  0
 17 18  1  0
 17 21  1  0
 18 19  1  0
 18 22  2  0
 19 20  1  0
 20 21  1  0
 22 23  1  0
 24 25  1  0
 25 26  1  0
M  CHG  1   9   1
M  END
>  <DRUGBANK_ID>  (1) 
DB17024

>  <COMMON_NAME>  (1) 
Chelerythrine

>  <CAS_NUMBER>  (1) 
34316-15-9

>  <UNII>  (1) 
E3B045W6X0

>  <SYNONYMS>  (1) 
(1,3)benzodioxolo(5,6-c)phenanthridinium, 1,2-dimethoxy-12-methyl-; 1,2-dimethoxy-12-methyl(1,3)dioxolo)4',5':4,5)benzo(1,2-c)phenanthridinium; Broussonpapyrine; Cheleritrine; Toddalin; Toddaline

$$$$
