
     RDKit          3D

 17 18  0  0  1  0  0  0  0  0999 V2000
    0.8707   -0.2506    0.1126 N   0  0  0  0  0  0  0  0  0  0  0  0
    0.3102    0.5331    1.2596 C   0  0  1  0  0  0  0  0  0  0  0  0
    0.8376    1.9819    1.2349 C   0  0  0  0  0  0  0  0  0  0  0  0
    0.4866    2.7859   -0.0039 C   0  0  0  0  0  0  0  0  0  0  0  0
   -0.3663    2.3530   -0.9473 C   0  0  0  0  0  0  0  0  0  0  0  0
   -0.8401    3.0120   -2.1778 C   0  0  0  0  0  0  0  0  0  0  0  0
   -1.5301    4.3212   -1.8723 C   0  0  0  0  0  0  0  0  0  0  0  0
   -0.6592    5.4365   -1.2553 C   0  0  0  0  0  0  0  0  0  0  0  0
    0.7453    5.1404   -0.7870 C   0  0  0  0  0  0  0  0  0  0  0  0
    1.1870    4.0130   -0.2267 C   0  0  0  0  0  0  0  0  0  0  0  0
    2.6226    4.2428    0.0058 C   0  0  0  0  0  0  0  0  0  0  0  0
    3.4203    3.4659    0.4802 O   0  0  0  0  0  0  0  0  0  0  0  0
    2.8830    5.5053   -0.4432 N   0  0  0  0  0  0  0  0  0  0  0  0
    1.7218    6.1246   -0.9629 O   0  0  0  0  0  0  0  0  0  0  0  0
   -1.2604    0.4679    1.3986 C   0  0  0  0  0  0  0  0  0  0  0  0
   -1.6990   -0.1882    2.4953 O   0  0  0  0  0  0  0  0  0  0  0  0
   -2.1002    0.9667    0.6627 O   0  0  0  0  0  0  0  0  0  0  0  0
  2  1  1  6
  2  3  1  0
  2 15  1  0
  3  4  1  0
  4  5  2  0
  4 10  1  0
  5  6  1  0
  6  7  1  0
  7  8  1  0
  8  9  1  0
  9 10  2  0
  9 14  1  0
 10 11  1  0
 11 12  2  0
 11 13  1  0
 13 14  1  0
 15 16  1  0
 15 17  2  0
M  END
>  <DRUGBANK_ID>  (1) 
DB04152

>  <SECONDARY_ACCESSION_NUMBERS>  (1) 
EXPT01825

>  <COMMON_NAME>  (1) 
2-Amino-3-(3-Hydroxy-7,8-Dihydro-6h-Cyclohepta[D]-4-Isoxazolyl)Propionic Acid

$$$$
