YTT
     RDKit          3D

 24 26  0  0  0  0  0  0  0  0999 V2000
    2.6671    0.3054    0.8257 O   0  0  0  0  0  0  0  0  0  0  0  0
    1.5071    0.1778    0.5031 C   0  0  0  0  0  0  0  0  0  0  0  0
    0.8907   -1.1590    0.1650 C   0  0  2  0  0  0  0  0  0  0  0  0
    1.2687   -1.2273   -1.2828 C   0  0  0  0  0  0  0  0  0  0  0  0
    2.6283   -1.0789   -1.9136 C   0  0  0  0  0  0  0  0  0  0  0  0
    3.3356   -2.2613   -1.9879 C   0  0  0  0  0  0  0  0  0  0  0  0
    4.4686   -2.3415   -2.7788 C   0  0  0  0  0  0  0  0  0  0  0  0
    4.8663   -1.2561   -3.5578 C   0  0  0  0  0  0  0  0  0  0  0  0
    5.9294   -1.3408   -4.4017 O   0  0  0  0  0  0  0  0  0  0  0  0
    4.1566   -0.0745   -3.5525 C   0  0  0  0  0  0  0  0  0  0  0  0
    3.0660    0.0368   -2.6893 C   0  0  0  0  0  0  0  0  0  0  0  0
   -0.5830   -1.1265    0.4012 N   0  0  0  0  0  0  0  0  0  0  0  0
    0.7179    1.2557    0.1010 N   0  0  0  0  0  0  0  0  0  0  0  0
   -0.6447    1.1520   -0.5153 C   0  0  2  0  0  0  0  0  0  0  0  0
   -1.3848   -0.0353    0.1028 C   0  0  0  0  0  0  0  0  0  0  0  0
   -2.5957   -0.0793    0.2121 O   0  0  0  0  0  0  0  0  0  0  0  0
   -0.8675    1.1827   -2.1291 C   0  0  0  0  0  0  0  0  0  0  0  0
   -0.6105   -0.0012   -3.1702 C   0  0  0  0  0  0  0  0  0  0  0  0
   -1.0388   -1.3404   -2.9728 C   0  0  0  0  0  0  0  0  0  0  0  0
   -0.2999   -2.4604   -3.5037 C   0  0  0  0  0  0  0  0  0  0  0  0
    0.8151   -2.2567   -4.3069 C   0  0  0  0  0  0  0  0  0  0  0  0
    1.7548   -3.2278   -4.5520 O   0  0  0  0  0  0  0  0  0  0  0  0
    1.1210   -0.9532   -4.6781 C   0  0  0  0  0  0  0  0  0  0  0  0
    0.4157    0.1620   -4.1259 C   0  0  0  0  0  0  0  0  0  0  0  0
  1  2  2  0
  2  3  1  0
  2 13  1  0
  3  4  1  6
  3 12  1  0
  4  5  1  0
  5  6  2  0
  5 11  1  0
  6  7  1  0
  7  8  2  0
  8  9  1  0
  8 10  1  0
 10 11  2  0
 12 15  1  0
 13 14  1  0
 14 15  1  0
 14 17  1  6
 15 16  2  0
 17 18  1  0
 18 19  2  0
 18 24  1  0
 19 20  1  0
 20 21  2  0
 21 22  1  0
 21 23  1  0
 23 24  2  0
M  END
>  <DRUGBANK_ID>  (1) 
DB08761

>  <COMMON_NAME>  (1) 
(3S,6S)-3,6-bis(4-hydroxybenzyl)piperazine-2,5-dione

$$$$
