GZ2
     RDKit          3D

 13 14  0  0  0  0  0  0  0  0999 V2000
    2.2020    0.0515   -0.0623 O   0  0  0  0  0  0  0  0  0  0  0  0
    0.9812    0.0463    0.0373 C   0  0  0  0  0  0  0  0  0  0  0  0
    0.2541   -1.2327   -0.0525 C   0  0  0  0  0  0  0  0  0  0  0  0
   -1.0877   -1.3286    0.0096 C   0  0  0  0  0  0  0  0  0  0  0  0
   -1.9382   -0.0708    0.1267 C   0  0  0  0  0  0  0  0  0  0  0  0
   -1.1944    1.1949   -0.3226 C   0  0  0  0  0  0  0  0  0  0  0  0
    0.1859    1.2936    0.3100 C   0  0  0  0  0  0  0  0  0  0  0  0
   -1.7430   -2.5578   -0.1078 N   0  0  0  0  0  0  0  0  0  0  0  0
   -1.1168   -3.7623   -0.0304 C   0  0  0  0  0  0  0  0  0  0  0  0
   -0.1798   -4.1879    0.7915 N   0  0  0  0  0  0  0  0  0  0  0  0
    0.2786   -5.3781    0.2809 N   0  0  0  0  0  0  0  0  0  0  0  0
   -0.3461   -5.6811   -0.8477 N   0  0  0  0  0  0  0  0  0  0  0  0
   -1.2214   -4.6831   -1.0370 N   0  0  0  0  0  0  0  0  0  0  0  0
  1  2  2  0
  2  3  1  0
  2  7  1  0
  3  4  2  0
  4  5  1  0
  4  8  1  0
  5  6  1  0
  6  7  1  0
  8  9  1  0
  9 10  2  0
  9 13  1  0
 10 11  1  0
 11 12  2  0
 12 13  1  0
M  END
>  <DRUGBANK_ID>  (1) 
DB07865

>  <COMMON_NAME>  (1) 
3-(1H-tetrazol-5-ylamino)cyclohex-2-en-1-one

$$$$
