
     RDKit          3D

 26 28  0  0  1  0  0  0  0  0999 V2000
    1.2577    0.3308   -0.4762 C   0  0  0  0  0  0  0  0  0  0  0  0
    0.6031   -0.9032   -1.1331 C   0  0  0  0  0  0  0  0  0  0  0  0
    1.0529   -2.3042   -0.6490 C   0  0  0  0  0  0  0  0  0  0  0  0
    2.1340   -0.9555    4.1561 C   0  0  0  0  0  0  0  0  0  0  0  0
    0.6988    2.8624    5.9292 C   0  0  0  0  0  0  0  0  0  0  0  0
   -2.3429    0.8360    3.5704 C   0  0  0  0  0  0  0  0  0  0  0  0
    1.0905   -1.9178    4.9135 C   0  0  2  0  0  0  0  0  0  0  0  0
   -1.4093    2.5998    4.3329 C   0  0  0  0  0  0  0  0  0  0  0  0
    0.1587   -2.9071    4.1624 C   0  0  2  0  0  0  0  0  0  0  0  0
   -0.9827   -1.9709    3.8636 C   0  0  2  0  0  0  0  0  0  0  0  0
   -1.0080    3.8942    4.7389 C   0  0  0  0  0  0  0  0  0  0  0  0
   -0.7120    1.5399    4.8444 C   0  0  0  0  0  0  0  0  0  0  0  0
   -1.1401   -0.9733    4.9601 C   0  0  2  0  0  0  0  0  0  0  0  0
   -1.6322    5.0584    4.3759 N   0  0  0  0  0  0  0  0  0  0  0  0
    0.0724    3.9924    5.5603 N   0  0  0  0  0  0  0  0  0  0  0  0
    0.3876    1.6025    5.6368 N   0  0  0  0  0  0  0  0  0  0  0  0
   -2.4204    2.1502    3.4972 N   0  0  0  0  0  0  0  0  0  0  0  0
   -1.3765    0.4059    4.4651 N   0  0  0  0  0  0  0  0  0  0  0  0
   -0.2788   -4.0227    4.9246 O   0  0  0  0  0  0  0  0  0  0  0  0
   -2.1033   -2.4304    3.1546 O   0  0  0  0  0  0  0  0  0  0  0  0
   -0.3449   -0.9122    1.6435 O   0  0  0  0  0  0  0  0  0  0  0  0
    1.9892   -2.6140    2.3031 O   0  0  0  0  0  0  0  0  0  0  0  0
    0.5713   -2.6553    0.6578 O   0  0  0  0  0  0  0  0  0  0  0  0
    1.7247   -0.3020    2.9169 O   0  0  0  0  0  0  0  0  0  0  0  0
    0.1325   -1.0792    5.6653 O   0  0  0  0  0  0  0  0  0  0  0  0
    1.1480   -1.4786    1.7873 P   0  0  1  0  0  0  0  0  0  0  0  0
  2  1  1  0
  3  2  1  0
  7  4  1  6
  9  7  1  0
  9 19  1  1
 10  9  1  0
 10 20  1  1
 11  8  2  0
 12  8  1  0
 13 10  1  0
 13 18  1  6
 14 11  1  0
 15  5  2  0
 15 11  1  0
 16  5  1  0
 16 12  2  0
 17  6  2  0
 17  8  1  0
 18  6  1  0
 18 12  1  0
 23  3  1  0
 24  4  1  0
 25  7  1  0
 25 13  1  0
 26 21  1  1
 26 22  2  0
 26 23  1  0
 26 24  1  0
M  END
>  <DRUGBANK_ID>  (1) 
DB03230

>  <SECONDARY_ACCESSION_NUMBERS>  (1) 
EXPT02666

>  <COMMON_NAME>  (1) 
Adenosine-5'-Propylphosphate

$$$$
