
     RDKit          3D

 25 26  0  0  0  0  0  0  0  0999 V2000
    0.2766    0.1102    0.1300 C   0  0  2  0  0  0  0  0  0  0  0  0
    0.2911   -1.1022    1.1481 C   0  0  0  0  0  0  0  0  0  0  0  0
    0.4401   -2.4550    0.7618 C   0  0  0  0  0  0  0  0  0  0  0  0
    0.3786   -3.5020    1.6920 C   0  0  0  0  0  0  0  0  0  0  0  0
    0.1368   -3.2264    3.0286 C   0  0  0  0  0  0  0  0  0  0  0  0
    0.1648   -1.9085    3.4578 C   0  0  0  0  0  0  0  0  0  0  0  0
    0.3545   -0.8781    2.5346 C   0  0  0  0  0  0  0  0  0  0  0  0
   -0.3973    1.4981    0.4377 C   0  0  0  0  0  0  0  0  0  0  0  0
   -1.0716    1.7191    1.5991 C   0  0  0  0  0  0  0  0  0  0  0  0
   -1.8114    0.7565    2.2248 O   0  0  0  0  0  0  0  0  0  0  0  0
   -1.0091    2.9681    2.2363 C   0  0  0  0  0  0  0  0  0  0  0  0
   -0.3143    4.0448    1.6528 C   0  0  0  0  0  0  0  0  0  0  0  0
    0.2858    3.9170    0.4331 C   0  0  0  0  0  0  0  0  0  0  0  0
    1.1787    5.0143   -0.1519 C   0  0  0  0  0  0  0  0  0  0  0  0
    2.5843    4.8989    0.0807 O   0  0  0  0  0  0  0  0  0  0  0  0
    0.0874    2.6824   -0.2295 C   0  0  0  0  0  0  0  0  0  0  0  0
    0.2463   -0.3266   -1.3631 C   0  0  0  0  0  0  0  0  0  0  0  0
    1.0326    0.5335   -2.3744 C   0  0  0  0  0  0  0  0  0  0  0  0
    2.5101    0.7436   -2.3160 N   0  0  0  0  0  0  0  0  0  0  0  0
    2.9493    1.7094   -3.3641 C   0  0  0  0  0  0  0  0  0  0  0  0
    2.4084    3.1478   -3.2482 C   0  0  0  0  0  0  0  0  0  0  0  0
    4.4789    1.7429   -3.4704 C   0  0  0  0  0  0  0  0  0  0  0  0
    3.3329    0.7835   -1.0646 C   0  0  0  0  0  0  0  0  0  0  0  0
    3.1516    2.0617   -0.2685 C   0  0  0  0  0  0  0  0  0  0  0  0
    3.1997   -0.4409   -0.1732 C   0  0  0  0  0  0  0  0  0  0  0  0
  1  2  1  0
  1  8  1  0
  1 17  1  6
  2  3  2  0
  2  7  1  0
  3  4  1  0
  4  5  2  0
  6  5  1  0
  7  6  2  0
  8  9  2  0
  8 16  1  0
  9 10  1  0
  9 11  1  0
 11 12  2  0
 13 12  1  0
 13 14  1  0
 14 15  1  0
 16 13  2  0
 17 18  1  0
 18 19  1  0
 19 20  1  0
 19 23  1  0
 20 21  1  0
 20 22  1  0
 23 24  1  0
 23 25  1  0
M  END
>  <DRUGBANK_ID>  (1) 
DB15578

>  <COMMON_NAME>  (1) 
Desfesoterodine

>  <CAS_NUMBER>  (1) 
207679-81-0

>  <UNII>  (1) 
YU871O78GR

>  <SYNONYMS>  (1) 
5-Hydroxymethyltolterodine; Desfesoterodine

$$$$
