HAL
     RDKit          3D

 33 34  0  0  0  0  0  0  0  0999 V2000
    5.2430   -1.7568    1.5636 C   0  0  0  0  0  0  0  0  0  0  0  0
    5.5344   -2.6339    2.5873 C   0  0  0  0  0  0  0  0  0  0  0  0
    5.1556   -3.9222    2.3945 C   0  0  0  0  0  0  0  0  0  0  0  0
    4.4671   -4.2610    1.2189 C   0  0  0  0  0  0  0  0  0  0  0  0
    4.0559   -3.3130    0.2758 C   0  0  0  0  0  0  0  0  0  0  0  0
    4.4517   -2.0258    0.4496 C   0  0  0  0  0  0  0  0  0  0  0  0
    5.6125   -0.3845    1.8033 C   0  0  0  0  0  0  0  0  0  0  0  0
    6.6946    0.1419    0.7009 C   0  0  0  0  0  0  0  0  0  0  0  0
    6.2341    0.3864   -0.7859 N   0  0  0  0  0  0  0  0  0  0  0  0
    5.6888    1.5420   -1.4213 C   0  0  0  0  0  0  0  0  0  0  0  0
    4.9192    1.4063   -2.3837 O   0  0  0  0  0  0  0  0  0  0  0  0
    5.9900    2.9941   -0.8746 C   0  0  0  0  0  0  0  0  0  0  0  0
    5.4321    3.4718    0.3276 O   0  0  0  0  0  0  0  0  0  0  0  0
    5.3102    2.5340    1.5995 P   0  0  1  0  0  0  0  0  0  0  0  0
    4.8886    1.4704    0.7428 O   0  0  0  0  0  0  0  0  0  0  0  0
    3.8052    2.0548    1.9597 O   0  0  0  0  0  0  0  0  0  0  0  0
    4.9076    3.7251    2.9734 C   0  0  1  0  0  0  0  0  0  0  0  0
    5.6877    4.9902    2.8725 C   0  0  0  0  0  0  0  0  0  0  0  0
    5.1621    5.7385    1.6959 C   0  0  0  0  0  0  0  0  0  0  0  0
    4.1105    5.2600    0.8715 C   0  0  0  0  0  0  0  0  0  0  0  0
    4.0000    5.6295   -0.4443 C   0  0  0  0  0  0  0  0  0  0  0  0
    4.5806    6.8115   -0.7819 C   0  0  0  0  0  0  0  0  0  0  0  0
    5.3179    7.5128    0.1831 C   0  0  0  0  0  0  0  0  0  0  0  0
    5.7607    6.9131    1.3520 C   0  0  0  0  0  0  0  0  0  0  0  0
    3.4961    3.8139    3.3969 N   0  0  0  0  0  0  0  0  0  0  0  0
    2.8638    3.1433    4.4060 C   0  0  0  0  0  0  0  0  0  0  0  0
    1.6381    3.1711    4.3969 O   0  0  0  0  0  0  0  0  0  0  0  0
    3.6209    2.4939    5.5826 C   0  0  0  0  0  0  0  0  0  0  0  0
    4.3789    1.1779    5.3769 C   0  0  0  0  0  0  0  0  0  0  0  0
    5.6768    1.3488    4.6403 C   0  0  0  0  0  0  0  0  0  0  0  0
    6.7405    2.3741    5.0583 C   0  0  0  0  0  0  0  0  0  0  0  0
    7.9504    2.0710    4.5351 O   0  0  0  0  0  0  0  0  0  0  0  0
    6.5486    3.4604    5.5762 O   0  0  0  0  0  0  0  0  0  0  0  0
  1  2  2  0
  1  6  1  0
  1  7  1  0
  2  3  1  0
  3  4  2  0
  4  5  1  0
  5  6  2  0
  7  8  1  0
  8  9  1  0
  9 10  1  0
 10 11  2  0
 10 12  1  0
 12 13  1  0
 14 16  1  0
 14 17  1  0
 14 15  2  0
 14 13  1  0
 17 18  1  6
 17 25  1  0
 18 19  1  0
 19 20  2  0
 19 24  1  0
 20 21  1  0
 21 22  2  0
 22 23  1  0
 23 24  2  0
 25 26  1  0
 26 27  2  0
 26 28  1  0
 28 29  1  0
 29 30  1  0
 30 31  1  0
 31 32  1  0
 31 33  2  0
M  END
>  <DRUGBANK_ID>  (1) 
DB07881

>  <COMMON_NAME>  (1) 
N-{[2-({[1-(4-CARBOXYBUTANOYL)AMINO]-2-PHENYLETHYL}-HYDROXYPHOSPHINYL)OXY]ACETYL}-2-PHENYLETHYLAMINE

$$$$
