APQ
     RDKit          3D

 18 19  0  0  0  0  0  0  0  0999 V2000
    0.9321    0.0847   -0.2420 C   0  0  0  0  0  0  0  0  0  0  0  0
    0.3530   -1.0838    0.5500 C   0  0  0  0  0  0  0  0  0  0  0  0
    0.8509   -0.8660    1.8837 C   0  0  0  0  0  0  0  0  0  0  0  0
    0.1487    1.8142    0.1227 S   0  0  0  0  0  0  0  0  0  0  0  0
    0.9311    2.6452    1.7006 C   0  0  0  0  0  0  0  0  0  0  0  0
    0.5901    2.1093    3.1139 C   0  0  0  0  0  0  0  0  0  0  0  0
   -0.2300    2.6960    4.0575 C   0  0  0  0  0  0  0  0  0  0  0  0
   -0.5058    4.0630    3.9686 N   0  0  0  0  0  0  0  0  0  0  0  0
   -0.9395    4.6601    5.0393 C   0  0  0  0  0  0  0  0  0  0  0  0
   -1.2277    4.0040    6.1957 N   0  0  0  0  0  0  0  0  0  0  0  0
   -1.0901    2.6504    6.3754 C   0  0  0  0  0  0  0  0  0  0  0  0
   -1.3204    2.0894    7.4219 O   0  0  0  0  0  0  0  0  0  0  0  0
   -0.5551    1.9426    5.2151 C   0  0  0  0  0  0  0  0  0  0  0  0
   -0.2315    0.6017    5.4027 C   0  0  0  0  0  0  0  0  0  0  0  0
    0.6669    0.0553    4.5381 C   0  0  0  0  0  0  0  0  0  0  0  0
    1.0315   -1.2969    4.7430 N   0  0  0  0  0  0  0  0  0  0  0  0
    1.2699    0.9803    3.6300 C   0  0  0  0  0  0  0  0  0  0  0  0
   -1.1078    5.9910    5.0147 N   0  0  0  0  0  0  0  0  0  0  0  0
  1  2  1  0
  1  4  1  0
  2  3  1  0
  4  5  1  0
  5  6  1  0
  6  7  2  0
  6 17  1  0
  7  8  1  0
  7 13  1  0
  8  9  2  0
  9 10  1  0
  9 18  1  0
 10 11  1  0
 11 12  2  0
 11 13  1  0
 13 14  2  0
 14 15  1  0
 15 16  1  0
 15 17  2  0
M  END
>  <DRUGBANK_ID>  (1) 
DB02599

>  <SECONDARY_ACCESSION_NUMBERS>  (1) 
EXPT00543

>  <COMMON_NAME>  (1) 
2,6-Diamino-8-Propylsulfanylmethyl-3h-Quinazoline-4-One

$$$$
