
     RDKit          3D

 11 10  0  0  0  0  0  0  0  0999 V2000
    1.4917   -1.2993   -3.7354 C   0  0  0  0  0  0  0  0  0  0  0  0
    0.1829   -1.2000   -1.4300 C   0  0  0  0  0  0  0  0  0  0  0  0
    1.0927    0.2381   -3.8501 C   0  0  1  0  0  0  0  0  0  0  0  0
   -1.1120   -1.0734   -2.3653 C   0  0  1  0  0  0  0  0  0  0  0  0
   -0.1924    0.2994   -4.6190 C   0  0  1  0  0  0  0  0  0  0  0  0
   -1.3545   -0.2469   -3.7398 C   0  0  1  0  0  0  0  0  0  0  0  0
    0.9584   -0.2908   -1.0589 O   0  0  0  0  0  0  0  0  0  0  0  0
    0.8481    1.2168   -2.8158 O   0  0  0  0  0  0  0  0  0  0  0  0
   -1.4651   -2.4511   -2.6224 O   0  0  0  0  0  0  0  0  0  0  0  0
   -0.4817    1.6666   -4.9774 O   0  0  0  0  0  0  0  0  0  0  0  0
   -2.1953   -1.0469   -4.6215 O   0  0  0  0  0  0  0  0  0  0  0  0
  3  1  1  1
  3  8  1  0
  4  9  1  6
  4  6  1  0
  4  2  1  0
  5  3  1  0
  5 10  1  1
  6 11  1  6
  6  5  1  0
  7  2  2  0
M  END
>  <DRUGBANK_ID>  (1) 
DB02961

>  <SECONDARY_ACCESSION_NUMBERS>  (1) 
EXPT02795; DB01869

>  <COMMON_NAME>  (1) 
Rhamnose

>  <CAS_NUMBER>  (1) 
3615-41-6

>  <UNII>  (1) 
QN34XC755A

>  <SYNONYMS>  (1) 
L-rhamnose

$$$$
