7X4
     RDKit          3D

 28 31  0  0  0  0  0  0  0  0999 V2000
    0.1012    1.3024    0.0205 C   0  0  0  0  0  0  0  0  0  0  0  0
    1.2193    0.5571    0.0012 N   0  0  0  0  0  0  0  0  0  0  0  0
    1.0866   -0.7765    0.0093 C   0  0  0  0  0  0  0  0  0  0  0  0
   -0.1267   -1.4099    0.0122 C   0  0  0  0  0  0  0  0  0  0  0  0
   -1.2323   -0.5875    0.0325 C   0  0  0  0  0  0  0  0  0  0  0  0
   -2.5130   -1.1645   -0.0245 N   0  0  0  0  0  0  0  0  0  0  0  0
   -3.7187   -0.4508   -0.1038 C   0  0  0  0  0  0  0  0  0  0  0  0
   -4.6973   -0.5721    0.8790 C   0  0  0  0  0  0  0  0  0  0  0  0
   -4.6691   -1.4100    1.9599 O   0  0  0  0  0  0  0  0  0  0  0  0
   -5.9751   -1.1703    2.5290 C   0  0  0  0  0  0  0  0  0  0  0  0
   -6.6567   -0.0523    1.9292 O   0  0  0  0  0  0  0  0  0  0  0  0
   -5.8404    0.2014    0.8705 C   0  0  0  0  0  0  0  0  0  0  0  0
   -6.0928    1.1258   -0.1197 C   0  0  0  0  0  0  0  0  0  0  0  0
   -5.1581    1.2447   -1.1470 C   0  0  0  0  0  0  0  0  0  0  0  0
   -3.9864    0.4685   -1.1414 C   0  0  0  0  0  0  0  0  0  0  0  0
   -2.9479    0.6201   -2.5252 Cl  0  0  0  0  0  0  0  0  0  0  0  0
   -1.1192    0.7620    0.0654 N   0  0  0  0  0  0  0  0  0  0  0  0
    3.0389    6.7181    2.9016 N   0  0  0  0  0  0  0  0  0  0  0  0
    3.8015    5.2249    2.7555 S   0  0  0  0  0  0  0  0  0  0  0  0
    3.3452    4.4056    3.8611 O   0  0  0  0  0  0  0  0  0  0  0  0
    5.1946    5.5429    2.5739 O   0  0  0  0  0  0  0  0  0  0  0  0
    3.1610    4.5531    1.2411 C   0  0  0  0  0  0  0  0  0  0  0  0
    4.0824    4.2301    0.2349 C   0  0  0  0  0  0  0  0  0  0  0  0
    3.6606    3.5460   -0.8978 C   0  0  0  0  0  0  0  0  0  0  0  0
    2.3341    3.1504   -1.0000 C   0  0  0  0  0  0  0  0  0  0  0  0
    1.4081    3.4156    0.0225 C   0  0  0  0  0  0  0  0  0  0  0  0
    0.1992    2.7039    0.0059 N   0  0  0  0  0  0  0  0  0  0  0  0
    1.8083    4.1925    1.1210 C   0  0  0  0  0  0  0  0  0  0  0  0
  1  2  2  0
  1 17  1  0
  1 27  1  0
  2  3  1  0
  3  4  2  0
  4  5  1  0
  5  6  1  0
  5 17  2  0
  6  7  1  0
  7  8  2  0
  7 15  1  0
  8  9  1  0
  8 12  1  0
  9 10  1  0
 10 11  1  0
 11 12  1  0
 12 13  2  0
 13 14  1  0
 14 15  2  0
 15 16  1  0
 18 19  1  0
 19 20  2  0
 19 21  2  0
 19 22  1  0
 22 23  2  0
 22 28  1  0
 23 24  1  0
 24 25  2  0
 25 26  1  0
 26 27  1  0
 26 28  2  0
M  END
>  <DRUGBANK_ID>  (1) 
DB07252

>  <COMMON_NAME>  (1) 
3-({4-[(5-chloro-1,3-benzodioxol-4-yl)amino]pyrimidin-2-yl}amino)benzenesulfonamide

$$$$
