
     RDKit          3D

 19 20  0  0  0  0  0  0  0  0999 V2000
   -2.1302   -1.1967   -0.0389 S   0  0  0  0  0  0  0  0  0  0  0  0
    0.8100    2.3516    0.4980 O   0  0  0  0  0  0  0  0  0  0  0  0
    3.0557   -1.7962   -0.0463 O   0  0  0  0  0  0  0  0  0  0  0  0
    0.5514   -3.0018   -0.0217 O   0  0  0  0  0  0  0  0  0  0  0  0
   -1.4163    1.2788    0.0157 N   0  0  0  0  0  0  0  0  0  0  0  0
    2.8427    3.0609   -1.3418 C   0  0  0  0  0  0  0  0  0  0  0  0
    3.7587    1.8392   -1.2800 C   0  0  0  0  0  0  0  0  0  0  0  0
    3.0222    3.9669   -0.0852 C   0  0  0  0  0  0  0  0  0  0  0  0
    3.5339    0.9826   -0.0176 C   0  0  0  0  0  0  0  0  0  0  0  0
    4.3684    4.6308   -0.0476 C   0  0  0  0  0  0  0  0  0  0  0  0
    2.1365    0.3842    0.0478 C   0  0  0  0  0  0  0  0  0  0  0  0
    4.5188    5.4947   -1.2748 C   0  0  0  0  0  0  0  0  0  0  0  0
    0.9658    1.0427    0.1911 C   0  0  0  0  0  0  0  0  0  0  0  0
    2.0410   -1.1130   -0.0311 C   0  0  0  0  0  0  0  0  0  0  0  0
   -0.3051    0.4801    0.0637 C   0  0  0  0  0  0  0  0  0  0  0  0
    3.4082    6.5365   -1.3174 C   0  0  0  0  0  0  0  0  0  0  0  0
   -0.4628   -0.8617   -0.0136 C   0  0  0  0  0  0  0  0  0  0  0  0
    0.6366   -1.7927   -0.0240 C   0  0  0  0  0  0  0  0  0  0  0  0
   -2.4680    0.5010   -0.0132 C   0  0  0  0  0  0  0  0  0  0  0  0
  1 17  1  0
  1 19  1  0
  2 13  1  0
  3 14  2  0
  4 18  2  0
  5 15  1  0
  5 19  2  0
  6  7  1  0
  6  8  1  0
  7  9  1  0
  8 10  1  0
  9 11  1  0
 10 12  1  0
 11 13  2  0
 11 14  1  0
 12 16  1  0
 13 15  1  0
 14 18  1  0
 15 17  2  0
 17 18  1  0
M  END
>  <DRUGBANK_ID>  (1) 
DB07636

>  <COMMON_NAME>  (1) 
5-Heptyl-6-hydroxy-1,3-benzothiazole-4,7-dione

>  <CAS_NUMBER>  (1) 
611207-02-4

$$$$
