
     RDKit          3D

 32 35  0  0  0  0  0  0  0  0999 V2000
    7.0674   -4.6418    3.7880 C   0  0  1  0  0  0  0  0  0  0  0  0
    7.5102   -4.3591    1.8983 C   0  0  1  0  0  0  0  0  0  0  0  0
    6.6679   -9.4254    5.6973 C   0  0  1  0  0  0  0  0  0  0  0  0
    6.0131   -7.1181    4.3013 C   0  0  2  0  0  0  0  0  0  0  0  0
    6.5103   -5.9652    3.3933 C   0  0  2  0  0  0  0  0  0  0  0  0
    7.0995   -7.7610    5.1917 C   0  0  1  0  0  0  0  0  0  0  0  0
    5.2231   -9.7792    5.5472 C   0  0  0  0  0  0  0  0  0  0  0  0
    8.1295   -5.2251    5.1581 C   0  0  0  0  0  0  0  0  0  0  0  0
    7.4455   -6.3960    6.1407 C   0  0  2  0  0  0  0  0  0  0  0  0
    7.1551  -11.1263    4.9106 C   0  0  0  0  0  0  0  0  0  0  0  0
    6.6307   -3.7235    0.4751 C   0  0  0  0  0  0  0  0  0  0  0  0
    5.1333  -10.9329    6.3061 C   0  0  0  0  0  0  0  0  0  0  0  0
    7.4146   -5.5403    0.5407 O   0  0  0  0  0  0  0  0  0  0  0  0
    8.1566   -5.5487   -0.6992 C   0  0  0  0  0  0  0  0  0  0  0  0
    8.7173   -5.2341    2.0531 C   0  0  0  0  0  0  0  0  0  0  0  0
    7.8608   -6.3958    2.7119 C   0  0  0  0  0  0  0  0  0  0  0  0
    5.5160   -8.2524    3.4245 C   0  0  0  0  0  0  0  0  0  0  0  0
    6.5915  -12.3914    5.2012 C   0  0  0  0  0  0  0  0  0  0  0  0
    5.1086  -12.1032    5.3913 C   0  0  0  0  0  0  0  0  0  0  0  0
    4.6841   -9.3213    4.1969 C   0  0  0  0  0  0  0  0  0  0  0  0
    7.1169   -2.5646   -0.0603 O   0  0  0  0  0  0  0  0  0  0  0  0
    7.6700   -5.5325   -1.8259 O   0  0  0  0  0  0  0  0  0  0  0  0
    5.7857   -4.2623   -0.2526 O   0  0  0  0  0  0  0  0  0  0  0  0
    4.2250  -12.3833    4.6958 O   0  0  0  0  0  0  0  0  0  0  0  0
    6.3459   -3.5532    4.8474 C   0  0  0  0  0  0  0  0  0  0  0  0
    7.6071   -1.6364    0.8576 C   0  0  0  0  0  0  0  0  0  0  0  0
    8.3162   -6.7542    7.2269 O   0  0  0  0  0  0  0  0  0  0  0  0
    9.4869   -5.7719   -0.4949 O   0  0  0  0  0  0  0  0  0  0  0  0
    6.2848   -8.8234    7.2352 C   0  0  0  0  0  0  0  0  0  0  0  0
    6.5260   -1.5289    2.2537 Cl  0  0  0  0  0  0  0  0  0  0  0  0
   10.2627   -6.3022   -1.6090 C   0  0  0  0  0  0  0  0  0  0  0  0
    9.7067   -7.5959   -2.2051 C   0  0  0  0  0  0  0  0  0  0  0  0
  1 25  1  1
  2  1  1  0
  2 11  1  0
  2 13  1  6
  3  6  1  0
  3 29  1  1
  4  5  1  0
  5  1  1  0
  6  9  1  1
  6  4  1  0
  7  3  1  0
  7 20  1  0
  8  1  1  0
  9  8  1  0
  9 27  1  1
 10  3  1  0
 12  7  2  0
 14 13  1  0
 15  2  1  0
  5 16  1  1
 16 15  1  0
  4 17  1  6
 18 10  2  0
 19 18  1  0
 19 12  1  0
 20 17  1  0
 21 11  1  0
 22 14  2  0
 23 11  2  0
 24 19  2  0
 26 21  1  0
 28 14  1  0
 30 26  1  0
 31 28  1  0
 32 31  1  0
M  END
>  <DRUGBANK_ID>  (1) 
DB14596

>  <SECONDARY_ACCESSION_NUMBERS>  (1) 
DBSALT000930

>  <COMMON_NAME>  (1) 
Loteprednol etabonate

>  <CAS_NUMBER>  (1) 
82034-46-6

>  <UNII>  (1) 
YEH1EZ96K6

>  <SYNONYMS>  (1) 
Loteprednol etabonate

$$$$
