HEF
     RDKit          3D

 21 22  0  0  0  0  0  0  0  0999 V2000
   -0.6341    1.1569   -0.1536 N   0  0  0  0  0  0  0  0  0  0  0  0
   -1.3319   -0.0426   -0.1684 C   0  0  0  0  0  0  0  0  0  0  0  0
   -2.5496   -0.1443   -0.3446 O   0  0  0  0  0  0  0  0  0  0  0  0
   -0.6139   -1.1664    0.0171 N   0  0  0  0  0  0  0  0  0  0  0  0
    0.7416   -1.2194    0.0025 C   0  0  0  0  0  0  0  0  0  0  0  0
    1.3180   -2.2916   -0.0060 O   0  0  0  0  0  0  0  0  0  0  0  0
    1.4548    0.0978   -0.0039 C   0  0  0  0  0  0  0  0  0  0  0  0
    0.7508    1.2573   -0.0332 C   0  0  0  0  0  0  0  0  0  0  0  0
    2.9478   -0.0041    0.0053 C   0  0  0  0  0  0  0  0  0  0  0  0
   -1.4721    2.2906   -0.1827 C   0  0  0  0  0  0  0  0  0  0  0  0
   -1.5310    2.8730    1.0917 O   0  0  0  0  0  0  0  0  0  0  0  0
   -1.6513    2.1794    2.3150 C   0  0  0  0  0  0  0  0  0  0  0  0
   -3.1309    2.0916    2.5687 C   0  0  0  0  0  0  0  0  0  0  0  0
   -3.7834    1.2906    1.6052 O   0  0  0  0  0  0  0  0  0  0  0  0
    1.6955    2.8085    0.0505 S   0  0  0  0  0  0  0  0  0  0  0  0
    0.7066    4.3122    0.0905 C   0  0  0  0  0  0  0  0  0  0  0  0
   -0.0118    4.7153    1.2173 C   0  0  0  0  0  0  0  0  0  0  0  0
   -1.1765    5.4975    1.0570 C   0  0  0  0  0  0  0  0  0  0  0  0
   -1.3709    6.2169   -0.1058 C   0  0  0  0  0  0  0  0  0  0  0  0
   -0.3879    6.1464   -1.0845 C   0  0  0  0  0  0  0  0  0  0  0  0
    0.5918    5.1368   -1.0309 C   0  0  0  0  0  0  0  0  0  0  0  0
  1  2  1  0
  1  8  1  0
  1 10  1  0
  2  3  2  0
  2  4  1  0
  4  5  1  0
  5  6  2  0
  5  7  1  0
  7  8  2  0
  7  9  1  0
  8 15  1  0
 10 11  1  0
 11 12  1  0
 12 13  1  0
 13 14  1  0
 15 16  1  0
 16 17  2  0
 16 21  1  0
 17 18  1  0
 18 19  2  0
 19 20  1  0
 20 21  2  0
M  END
>  <DRUGBANK_ID>  (1) 
DB07892

>  <COMMON_NAME>  (1) 
1-(2-HYDROXYETHYLOXYMETHYL)-6-PHENYL THIOTHYMINE

$$$$
