
     RDKit          3D

 28 31  0  0  0  0  0  0  0  0999 V2000
    1.2335   -0.8841   -0.3839 C   0  0  2  0  0  0  0  0  0  0  0  0
    0.6805    0.4376    0.2106 C   0  0  2  0  0  0  0  0  0  0  0  0
   -0.7252    0.2549   -0.3282 C   0  0  0  0  0  0  0  0  0  0  0  0
   -1.0000   -1.1096   -0.4798 C   0  0  0  0  0  0  0  0  0  0  0  0
    0.1354   -1.8412   -0.1462 N   0  0  0  0  0  0  0  0  0  0  0  0
    0.2835   -3.2528    0.0468 C   0  0  0  0  0  0  0  0  0  0  0  0
   -2.3034   -1.5024   -0.7836 C   0  0  0  0  0  0  0  0  0  0  0  0
   -3.3387   -0.5491   -0.8602 C   0  0  0  0  0  0  0  0  0  0  0  0
   -3.0402    0.7898   -0.7038 C   0  0  0  0  0  0  0  0  0  0  0  0
   -1.6935    1.2150   -0.5520 C   0  0  0  0  0  0  0  0  0  0  0  0
   -4.2147    1.6499   -0.4066 O   0  0  0  0  0  0  0  0  0  0  0  0
   -5.2443    1.7761    0.6364 C   0  0  0  0  0  0  0  0  0  0  0  0
   -6.0566    2.7309    0.6072 O   0  0  0  0  0  0  0  0  0  0  0  0
   -5.3178    0.9111    1.6971 N   0  0  0  0  0  0  0  0  0  0  0  0
   -4.4144   -0.0912    1.9958 C   0  0  0  0  0  0  0  0  0  0  0  0
   -3.0650    0.2155    2.1913 C   0  0  0  0  0  0  0  0  0  0  0  0
   -2.5106    1.6871    2.2772 C   0  0  0  0  0  0  0  0  0  0  0  0
   -2.8304    2.9908    1.4318 C   0  0  0  0  0  0  0  0  0  0  0  0
   -2.2517   -0.9465    2.3085 C   0  0  0  0  0  0  0  0  0  0  0  0
   -2.7215   -2.2600    2.0468 C   0  0  0  0  0  0  0  0  0  0  0  0
   -4.0560   -2.4924    1.7966 C   0  0  0  0  0  0  0  0  0  0  0  0
   -4.9223   -1.4167    1.8999 C   0  0  0  0  0  0  0  0  0  0  0  0
    1.4828    1.5730   -0.3911 C   0  0  0  0  0  0  0  0  0  0  0  0
    2.9786    1.2142   -0.4055 C   0  0  0  0  0  0  0  0  0  0  0  0
    3.4272   -0.0309    0.2717 N   0  0  0  0  0  0  0  0  0  0  0  0
    2.5211   -1.1994    0.1462 O   0  0  0  0  0  0  0  0  0  0  0  0
    3.6978    0.1121    1.7084 C   0  0  0  0  0  0  0  0  0  0  0  0
    0.8241    0.4726    1.7598 C   0  0  0  0  0  0  0  0  0  0  0  0
  1  2  1  0
  1  5  1  0
  1 26  1  1
  2  3  1  0
  2 23  1  0
  2 28  1  1
  3  4  2  0
  3 10  1  0
  4  5  1  0
  4  7  1  0
  5  6  1  0
  7  8  2  0
  8  9  1  0
  9 10  2  0
  9 11  1  0
 11 12  1  0
 12 13  2  0
 12 14  1  0
 14 15  1  0
 15 16  2  0
 15 22  1  0
 16 17  1  0
 16 19  1  0
 17 18  1  0
 19 20  2  0
 20 21  1  0
 21 22  2  0
 23 24  1  0
 24 25  1  0
 25 26  1  0
 25 27  1  0
M  END
>  <DRUGBANK_ID>  (1) 
DB06525

>  <COMMON_NAME>  (1) 
Ganstigmine

>  <CAS_NUMBER>  (1) 
457075-21-7

>  <UNII>  (1) 
QRR9SV89XI

>  <SYNONYMS>  (1) 
Ganstigmine

$$$$
