
     RDKit          3D

 21 23  0  0  0  0  0  0  0  0999 V2000
   -9.0854    0.6736   -0.1363 Cl  0  0  0  0  0  0  0  0  0  0  0  0
   -8.5225   -2.5312    0.0142 Cl  0  0  0  0  0  0  0  0  0  0  0  0
   -2.8059    2.1656    3.4604 O   0  0  0  0  0  0  0  0  0  0  0  0
   -3.6075    4.3855   -0.3094 N   0  0  0  0  0  0  0  0  0  0  0  0
   -3.1492    3.6451    0.8672 C   0  0  1  0  0  0  0  0  0  0  0  0
   -3.2147    3.5494   -1.4425 C   0  0  2  0  0  0  0  0  0  0  0  0
   -3.9326    2.3397    1.1506 C   0  0  1  0  0  0  0  0  0  0  0  0
   -3.9482    1.4314   -0.1220 C   0  0  2  0  0  0  0  0  0  0  0  0
   -3.9905    2.2257   -1.4588 C   0  0  0  0  0  0  0  0  0  0  0  0
   -1.7166    3.3800    0.3788 C   0  0  0  0  0  0  0  0  0  0  0  0
   -1.7477    3.3161   -1.1289 C   0  0  0  0  0  0  0  0  0  0  0  0
   -3.4987    1.5049    2.4014 C   0  0  0  0  0  0  0  0  0  0  0  0
   -5.0962    0.4377   -0.0893 C   0  0  0  0  0  0  0  0  0  0  0  0
   -4.9792    4.8442   -0.2812 C   0  0  0  0  0  0  0  0  0  0  0  0
   -6.4235    0.8893   -0.1006 C   0  0  0  0  0  0  0  0  0  0  0  0
   -4.8561   -0.9456   -0.0577 C   0  0  0  0  0  0  0  0  0  0  0  0
   -1.4563    2.5595    3.2326 C   0  0  0  0  0  0  0  0  0  0  0  0
   -7.4955    0.0052   -0.0848 C   0  0  0  0  0  0  0  0  0  0  0  0
   -5.9298   -1.8357   -0.0257 C   0  0  0  0  0  0  0  0  0  0  0  0
   -7.2470   -1.3716   -0.0369 C   0  0  0  0  0  0  0  0  0  0  0  0
   -0.5435    1.4873    2.6391 C   0  0  0  0  0  0  0  0  0  0  0  0
  1 18  1  0
  2 20  1  0
  3 12  1  0
  3 17  1  0
  4  5  1  0
  4  6  1  0
  4 14  1  0
  5  7  1  0
  5 10  1  6
  6  9  1  1
  6 11  1  0
  7  8  1  0
  7 12  1  1
  8  9  1  0
  8 13  1  1
 10 11  1  0
 13 15  2  0
 13 16  1  0
 15 18  1  0
 16 19  2  0
 17 21  1  0
 18 20  2  0
 19 20  1  0
M  END
>  <DRUGBANK_ID>  (1) 
DB06156

>  <COMMON_NAME>  (1) 
Tesofensine

>  <CAS_NUMBER>  (1) 
195875-84-4

>  <UNII>  (1) 
BLH9UKX9V1

>  <SYNONYMS>  (1) 
Tesofensine

$$$$
