
     RDKit          3D

 27 31  0  0  1  0  0  0  0  0999 V2000
    1.7496   -6.1989   -6.0048 O   0  0  0  0  0  0  0  0  0  0  0  0
    2.3136   -5.6104   -4.8856 C   0  0  0  0  0  0  0  0  0  0  0  0
    3.4957   -6.4571   -4.2973 C   0  0  0  0  0  0  0  0  0  0  0  0
    4.2495   -5.9328   -3.2600 C   0  0  0  0  0  0  0  0  0  0  0  0
    3.8076   -4.7805   -2.7175 C   0  0  0  0  0  0  0  0  0  0  0  0
    2.8316   -4.0052   -3.3872 C   0  0  0  0  0  0  0  0  0  0  0  0
    3.0146   -2.6271   -3.0430 C   0  0  0  0  0  0  0  0  0  0  0  0
    3.3885   -1.6166   -4.2857 C   0  0  1  0  0  0  0  0  0  0  0  0
    3.8024   -1.8595   -5.6888 N   0  0  0  0  0  0  0  0  0  0  0  0
    5.2286   -1.6629   -5.9988 C   0  0  0  0  0  0  0  0  0  0  0  0
    6.2080   -2.6164   -5.3486 C   0  0  0  0  0  0  0  0  0  0  0  0
    6.0276   -4.1414   -5.3864 C   0  0  0  0  0  0  0  0  0  0  0  0
    5.7069   -3.3351   -4.1890 C   0  0  0  0  0  0  0  0  0  0  0  0
    3.0126   -2.8004   -6.4615 C   0  0  0  0  0  0  0  0  0  0  0  0
    1.4197   -2.6024   -6.2897 C   0  0  0  0  0  0  0  0  0  0  0  0
    1.1019   -2.5579   -4.7433 C   0  0  2  0  0  0  0  0  0  0  0  0
   -0.3891   -2.0471   -3.8361 C   0  0  0  0  0  0  0  0  0  0  0  0
   -0.0735   -0.7287   -3.1186 C   0  0  0  0  0  0  0  0  0  0  0  0
   -0.3040    0.3353   -3.7184 O   0  0  0  0  0  0  0  0  0  0  0  0
    0.8901   -0.7259   -1.9866 C   0  0  0  0  0  0  0  0  0  0  0  0
    2.0126   -0.0981   -2.8372 C   0  0  0  0  0  0  0  0  0  0  0  0
    2.0577   -0.9472   -4.3753 C   0  0  1  0  0  0  0  0  0  0  0  0
    2.1560    0.0929   -5.3860 O   0  0  0  0  0  0  0  0  0  0  0  0
    1.8966   -4.2411   -4.3648 C   0  0  0  0  0  0  0  0  0  0  0  0
    4.0912   -7.8794   -4.4829 C   0  0  0  0  0  0  0  0  0  0  0  0
    4.1959   -8.4779   -5.7313 N   0  0  0  0  0  0  0  0  0  0  0  0
    4.5742   -8.4874   -3.5655 O   0  0  0  0  0  0  0  0  0  0  0  0
  1  2  1  0
  2 24  2  0
  3  2  1  0
  3  4  2  0
  4  5  1  0
  5  6  2  0
  6 24  1  0
  7  6  1  0
  8  7  1  1
  8  9  1  0
  8 22  1  0
  9 14  1  0
 10 11  1  0
 10  9  1  0
 11 12  1  0
 11 13  1  0
 13 12  1  0
 14 15  1  0
 16 15  1  6
 16 24  1  0
 17 16  1  0
 18 17  1  0
 18 19  2  0
 20 18  1  0
 21 20  1  0
 21 22  1  0
 22 16  1  0
 22 23  1  6
 25 26  1  0
 25 27  2  0
 25  3  1  0
M  END
>  <DRUGBANK_ID>  (1) 
DB12543

>  <COMMON_NAME>  (1) 
Samidorphan

>  <CAS_NUMBER>  (1) 
852626-89-2

>  <UNII>  (1) 
7W2581Z5L8

>  <SYNONYMS>  (1) 
Samidorphan

$$$$
