
     RDKit          3D

 29 32  0  0  0  0  0  0  0  0999 V2000
    1.1072   -0.0213    0.0815 C   0  0  0  0  0  0  0  0  0  0  0  0
   -7.1232   -0.5409   -0.5549 C   0  0  0  0  0  0  0  0  0  0  0  0
   -7.0022    0.4277   -1.5245 C   0  0  0  0  0  0  0  0  0  0  0  0
    1.8217    1.3163   -4.8145 C   0  0  0  0  0  0  0  0  0  0  0  0
    2.7552    1.2696   -3.7723 C   0  0  0  0  0  0  0  0  0  0  0  0
   -5.9833   -3.9694   -3.8716 C   0  0  0  0  0  0  0  0  0  0  0  0
   -7.1619   -1.8660   -0.9836 C   0  0  0  0  0  0  0  0  0  0  0  0
   -6.6376   -3.6013   -2.6857 C   0  0  0  0  0  0  0  0  0  0  0  0
   -6.8992    0.0217   -2.8646 C   0  0  0  0  0  0  0  0  0  0  0  0
    0.5317    0.9329   -4.5551 C   0  0  0  0  0  0  0  0  0  0  0  0
    2.4383    0.7593   -2.5015 C   0  0  0  0  0  0  0  0  0  0  0  0
   -5.4435   -2.9875   -4.7174 C   0  0  0  0  0  0  0  0  0  0  0  0
   -2.3762    0.3286   -0.8050 C   0  0  0  0  0  0  0  0  0  0  0  0
   -2.5528   -1.4886   -2.4204 C   0  0  0  0  0  0  0  0  0  0  0  0
   -1.6334    1.2200   -1.7848 C   0  0  0  0  0  0  0  0  0  0  0  0
   -1.6458   -0.7708   -3.4095 C   0  0  0  0  0  0  0  0  0  0  0  0
   -4.2074    0.3254   -2.2952 C   0  0  0  0  0  0  0  0  0  0  0  0
   -4.0956   -0.0219   -4.8902 C   0  0  0  0  0  0  0  0  0  0  0  0
   -6.8134   -2.2730   -2.3062 C   0  0  0  0  0  0  0  0  0  0  0  0
   -4.1854    1.0172   -3.7531 C   0  0  0  0  0  0  0  0  0  0  0  0
   -6.5486   -1.2834   -3.2831 C   0  0  0  0  0  0  0  0  0  0  0  0
    0.2149    0.5692   -3.2463 C   0  0  0  0  0  0  0  0  0  0  0  0
   -5.7687   -1.6463   -4.4520 C   0  0  0  0  0  0  0  0  0  0  0  0
    1.1622    0.3401   -2.2616 C   0  0  0  0  0  0  0  0  0  0  0  0
   -3.2664   -0.5415   -1.5533 N   0  0  0  0  0  0  0  0  0  0  0  0
   -1.0884    0.4390   -2.8945 N   0  0  0  0  0  0  0  0  0  0  0  0
   -5.2343    1.9375   -4.1529 O   0  0  0  0  0  0  0  0  0  0  0  0
    0.7207   -0.4213   -1.2127 O   0  0  0  0  0  0  0  0  0  0  0  0
   -5.3294   -0.6332   -5.3196 O   0  0  0  0  0  0  0  0  0  0  0  0
  3  2  2  0
  5  4  2  0
  7  2  1  0
  8  6  2  0
  9  3  1  0
 10  4  1  0
 11  5  1  0
 12  6  1  0
 15 13  1  0
 16 14  1  0
 19  7  2  0
 19  8  1  0
 20 17  1  0
 20 18  1  0
 21  9  2  0
 21 19  1  0
 22 10  2  0
 23 12  2  0
 23 21  1  0
 24 11  2  0
 24 22  1  0
 25 13  1  0
 25 14  1  0
 25 17  1  0
 26 15  1  0
 26 16  1  0
 26 22  1  0
 27 20  1  0
 28  1  1  0
 28 24  1  0
 29 18  1  0
 29 23  1  0
M  END
>  <DRUGBANK_ID>  (1) 
DB12092

>  <COMMON_NAME>  (1) 
Naftopidil

>  <CAS_NUMBER>  (1) 
57149-07-2

>  <UNII>  (1) 
R9PHW59SFN

>  <SYNONYMS>  (1) 
Naftopidil

$$$$
