
     RDKit          3D

 22 25  0  0  0  0  0  0  0  0999 V2000
    1.2140    2.0042    0.3941 N   0  0  0  0  0  0  0  0  0  0  0  0
   -0.0674    2.1465    0.4457 C   0  0  0  0  0  0  0  0  0  0  0  0
   -1.0492    1.0894    0.2102 C   0  0  0  0  0  0  0  0  0  0  0  0
    1.5030   -0.4927    0.5280 C   0  0  0  0  0  0  0  0  0  0  0  0
    1.8841    0.7973    0.0941 C   0  0  0  0  0  0  0  0  0  0  0  0
    3.0781    0.9402   -0.6282 C   0  0  0  0  0  0  0  0  0  0  0  0
    3.8785   -0.1563   -0.9500 C   0  0  0  0  0  0  0  0  0  0  0  0
    2.3068   -1.5990    0.1735 C   0  0  0  0  0  0  0  0  0  0  0  0
    3.4912   -1.4292   -0.5507 C   0  0  0  0  0  0  0  0  0  0  0  0
    0.2621   -0.7293    1.1775 N   0  0  0  0  0  0  0  0  0  0  0  0
   -0.8609   -0.2183    0.6091 C   0  0  0  0  0  0  0  0  0  0  0  0
   -2.3232    1.2572   -0.4352 C   0  0  0  0  0  0  0  0  0  0  0  0
   -2.2408   -1.1864    0.2903 S   0  0  0  0  0  0  0  0  0  0  0  0
   -3.0704    0.1025   -0.4688 C   0  0  0  0  0  0  0  0  0  0  0  0
   -0.6850    3.3746    0.6281 N   0  0  0  0  0  0  0  0  0  0  0  0
   -4.4318   -0.0883   -1.0448 C   0  0  0  0  0  0  0  0  0  0  0  0
   -0.0592    4.5774    0.0655 C   0  0  0  0  0  0  0  0  0  0  0  0
   -1.4714    3.6584    1.8430 C   0  0  0  0  0  0  0  0  0  0  0  0
   -1.1556    5.6289   -0.2223 C   0  0  0  0  0  0  0  0  0  0  0  0
   -2.5428    4.7260    1.5180 C   0  0  0  0  0  0  0  0  0  0  0  0
   -1.9228    5.9667    0.9987 N   0  0  0  0  0  0  0  0  0  0  0  0
   -2.9292    6.9847    0.7226 C   0  0  0  0  0  0  0  0  0  0  0  0
  1  2  2  0
  1  5  1  0
  2  3  1  0
  2 15  1  0
  3 11  2  0
  4  5  2  0
  6  5  1  0
  6  7  2  0
  7  9  1  0
  8  4  1  0
  9  8  2  0
 10  4  1  0
 11 10  1  0
 11 13  1  0
 12  3  1  0
 12 14  2  0
 13 14  1  0
 14 16  1  0
 15 17  1  0
 15 18  1  0
 17 19  1  0
 18 20  1  0
 19 21  1  0
 20 21  1  0
 21 22  1  0
M  END
>  <DRUGBANK_ID>  (1) 
DB00334

>  <SECONDARY_ACCESSION_NUMBERS>  (1) 
APRD00138

>  <COMMON_NAME>  (1) 
Olanzapine

>  <CAS_NUMBER>  (1) 
132539-06-1

>  <UNII>  (1) 
N7U69T4SZR

>  <SYNONYMS>  (1) 
2-methyl-4-(4-methyl-1-piperazinyl)-10H-thieno[2,3-b][1,5]benzodiazepine; Olanzapin; Olanzapina; Olanzapine; Olanzapinum

$$$$
