
     RDKit          3D

 21 23  0  0  0  0  0  0  0  0999 V2000
    1.0783    0.0842    0.0350 C   0  0  0  0  0  0  0  0  0  0  0  0
    0.5341   -0.6648    1.2688 C   0  0  1  0  0  0  0  0  0  0  0  0
   -0.8606   -1.2057    0.8899 C   0  0  0  0  0  0  0  0  0  0  0  0
   -1.3959   -2.2117    1.7718 N   0  0  0  0  0  0  0  0  0  0  0  0
   -2.4175   -2.1023    2.7236 C   0  0  0  0  0  0  0  0  0  0  0  0
   -3.1692   -0.7316    3.2794 S   0  0  0  0  0  0  0  0  0  0  0  0
   -2.6318   -3.4002    3.2305 N   0  0  0  0  0  0  0  0  0  0  0  0
   -1.6690   -4.2678    2.6765 C   0  0  0  0  0  0  0  0  0  0  0  0
   -0.8528   -3.5114    1.8377 C   0  0  0  0  0  0  0  0  0  0  0  0
    0.4154   -3.9411    1.4419 C   0  0  0  0  0  0  0  0  0  0  0  0
    0.7571   -5.2663    1.7665 C   0  0  0  0  0  0  0  0  0  0  0  0
    2.2755   -5.9666    1.3061 Cl  0  0  0  0  0  0  0  0  0  0  0  0
   -0.0856   -6.0471    2.5851 C   0  0  0  0  0  0  0  0  0  0  0  0
   -1.3228   -5.5567    3.0370 C   0  0  0  0  0  0  0  0  0  0  0  0
    1.4359   -2.9494    0.9399 C   0  0  0  0  0  0  0  0  0  0  0  0
    1.5177   -1.6767    1.6818 N   0  0  0  0  0  0  0  0  0  0  0  0
    1.7941   -1.7391    3.1299 C   0  0  0  0  0  0  0  0  0  0  0  0
    0.7048   -2.2506    4.0620 C   0  0  0  0  0  0  0  0  0  0  0  0
    0.7113   -3.3807    4.7840 C   0  0  0  0  0  0  0  0  0  0  0  0
   -0.4847   -3.9021    5.5634 C   0  0  0  0  0  0  0  0  0  0  0  0
    1.9031   -4.2941    4.7712 C   0  0  0  0  0  0  0  0  0  0  0  0
  2  1  1  6
  2  3  1  0
  2 16  1  0
  3  4  1  0
  4  5  1  0
  4  9  1  0
  5  6  2  0
  5  7  1  0
  7  8  1  0
  8  9  2  0
  8 14  1  0
  9 10  1  0
 10 11  2  0
 10 15  1  0
 11 12  1  0
 11 13  1  0
 13 14  2  0
 15 16  1  0
 16 17  1  0
 17 18  1  0
 18 19  2  3
 19 20  1  0
 19 21  1  0
M  END
>  <DRUGBANK_ID>  (1) 
DB08600

>  <COMMON_NAME>  (1) 
Tivirapine

>  <CAS_NUMBER>  (1) 
137332-54-8

>  <UNII>  (1) 
7WP69N3Y3Y

>  <SYNONYMS>  (1) 
Tivirapine

$$$$
