
     RDKit          3D

 21 22  0  0  1  0  0  0  0  0999 V2000
    1.5449   -0.7719   -0.0954 C   0  0  0  0  0  0  0  0  0  0  0  0
    1.0199   -1.0650   -1.5851 C   0  0  0  0  0  0  0  0  0  0  0  0
    1.2306   -2.4793   -1.8441 C   0  0  0  0  0  0  0  0  0  0  0  0
    0.4232   -3.1197   -0.7339 C   0  0  0  0  0  0  0  0  0  0  0  0
   -1.1108   -2.6835   -0.6340 C   0  0  1  0  0  0  0  0  0  0  0  0
   -1.7266   -3.1941   -1.9652 C   0  0  0  0  0  0  0  0  0  0  0  0
   -1.6630   -3.6623    0.4799 C   0  0  0  0  0  0  0  0  0  0  0  0
   -1.2124   -3.3680    1.7981 O   0  0  0  0  0  0  0  0  0  0  0  0
   -1.6192   -1.1411   -0.3820 N   0  0  0  0  0  0  0  0  0  0  0  0
   -1.0532    0.2160   -0.2520 C   0  0  0  0  0  0  0  0  0  0  0  0
   -0.2899    0.8856   -1.2240 N   0  0  0  0  0  0  0  0  0  0  0  0
    0.7225    1.7649   -0.9142 C   0  0  0  0  0  0  0  0  0  0  0  0
    1.9468    1.7764   -1.6330 N   0  0  0  0  0  0  0  0  0  0  0  0
    0.7741    2.3158    0.2974 N   0  0  0  0  0  0  0  0  0  0  0  0
   -0.1818    1.9154    1.1511 C   0  0  0  0  0  0  0  0  0  0  0  0
   -1.1356    0.8612    0.9873 C   0  0  0  0  0  0  0  0  0  0  0  0
   -2.0559    0.5119    1.9102 N   0  0  0  0  0  0  0  0  0  0  0  0
   -2.1343    1.3161    2.9969 C   0  0  0  0  0  0  0  0  0  0  0  0
   -1.2530    2.3463    3.2345 C   0  0  0  0  0  0  0  0  0  0  0  0
   -1.4279    3.1547    4.2955 F   0  0  0  0  0  0  0  0  0  0  0  0
   -0.2239    2.6053    2.3574 C   0  0  0  0  0  0  0  0  0  0  0  0
  1  2  1  0
  2  3  1  0
  3  4  1  0
  5  4  1  0
  5  6  1  6
  5  7  1  0
  5  9  1  0
  7  8  1  0
  9 10  1  0
 10 11  2  0
 10 16  1  0
 11 12  1  0
 12 13  1  0
 12 14  2  0
 14 15  1  0
 15 16  2  0
 15 21  1  0
 16 17  1  0
 17 18  2  0
 18 19  1  0
 19 20  1  0
 19 21  2  0
M  END
>  <DRUGBANK_ID>  (1) 
DB16324

>  <COMMON_NAME>  (1) 
Selgantolimod

>  <CAS_NUMBER>  (1) 
2004677-13-6

>  <UNII>  (1) 
RM4GJT3SMQ

>  <SYNONYMS>  (1) 
Selgantolimod

$$$$
