PGX
     RDKit          3D

 26 27  0  0  0  0  0  0  0  0999 V2000
   -9.2272   -7.6797    8.0586 C   0  0  0  0  0  0  0  0  0  0  0  0
   -9.9617   -6.3761    8.2671 C   0  0  0  0  0  0  0  0  0  0  0  0
   -9.0036   -5.1999    8.4117 C   0  0  0  0  0  0  0  0  0  0  0  0
   -8.0822   -5.0439    7.2101 C   0  0  0  0  0  0  0  0  0  0  0  0
   -8.8693   -4.7160    5.9719 C   0  0  0  0  0  0  0  0  0  0  0  0
   -8.7380   -3.5783    5.2817 C   0  0  0  0  0  0  0  0  0  0  0  0
   -7.7298   -2.5316    5.6328 C   0  0  0  0  0  0  0  0  0  0  0  0
   -6.6546   -2.3613    4.5899 C   0  0  1  0  0  0  0  0  0  0  0  0
   -5.3430   -1.8137    5.1647 C   0  0  2  0  0  0  0  0  0  0  0  0
   -4.4066   -1.9255    4.0022 C   0  0  0  0  0  0  0  0  0  0  0  0
   -4.6685   -3.4235    3.8808 C   0  0  2  0  0  0  0  0  0  0  0  0
   -6.2354   -3.6490    3.8419 C   0  0  2  0  0  0  0  0  0  0  0  0
   -7.0116   -3.8368    2.5117 C   0  0  0  0  0  0  0  0  0  0  0  0
   -7.8249   -2.9040    1.9296 C   0  0  0  0  0  0  0  0  0  0  0  0
   -8.0292   -2.6020    0.4223 C   0  0  2  0  0  0  0  0  0  0  0  0
   -7.0118   -1.6268   -0.3223 C   0  0  0  0  0  0  0  0  0  0  0  0
   -5.7807   -1.2269    0.4910 C   0  0  0  0  0  0  0  0  0  0  0  0
   -5.0158   -2.4790    0.8431 C   0  0  0  0  0  0  0  0  0  0  0  0
   -4.5526   -3.4919   -0.1530 C   0  0  0  0  0  0  0  0  0  0  0  0
   -3.3737   -2.8481   -0.7853 C   0  0  0  0  0  0  0  0  0  0  0  0
   -8.4956   -7.9222    7.0877 O   0  0  0  0  0  0  0  0  0  0  0  0
   -9.4269   -8.6018    9.0111 O   0  0  0  0  0  0  0  0  0  0  0  0
   -4.7825   -2.7527    6.0873 O   0  0  0  0  0  0  0  0  0  0  0  0
   -4.2537   -3.8316    5.2142 O   0  0  0  0  0  0  0  0  0  0  0  0
   -9.3495   -2.0389    0.2587 O   0  0  0  0  0  0  0  0  0  0  0  0
   -9.3116   -0.7043    0.8716 O   0  0  0  0  0  0  0  0  0  0  0  0
  1  2  1  0
  1 21  2  0
  1 22  1  0
  2  3  1  0
  3  4  1  0
  4  5  1  0
  5  6  2  0
  6  7  1  0
  8  7  1  1
  8  9  1  0
  8 12  1  0
  9 10  1  0
  9 23  1  1
 10 11  1  0
 11 12  1  0
 11 24  1  1
 12 13  1  6
 13 14  2  0
 15 25  1  0
 15 16  1  1
 15 14  1  0
 16 17  1  0
 17 18  1  0
 18 19  1  0
 19 20  1  0
 23 24  1  0
 25 26  1  0
M  END
>  <DRUGBANK_ID>  (1) 
DB03866

>  <SECONDARY_ACCESSION_NUMBERS>  (1) 
EXPT02577

>  <COMMON_NAME>  (1) 
Prostaglandin G2

>  <UNII>  (1) 
AZ87DUD2Y8

$$$$
