1FR
     RDKit          3D

 29 32  0  0  0  0  0  0  0  0999 V2000
    1.3784   -0.1932   -0.0334 C   0  0  0  0  0  0  0  0  0  0  0  0
    0.5097   -1.2890    0.0058 C   0  0  0  0  0  0  0  0  0  0  0  0
   -0.8709   -1.0928   -0.0040 C   0  0  0  0  0  0  0  0  0  0  0  0
   -0.5226    1.2926   -0.0134 C   0  0  0  0  0  0  0  0  0  0  0  0
    0.8712    1.1134   -0.0880 C   0  0  0  0  0  0  0  0  0  0  0  0
    1.7969    2.3160   -0.2666 C   0  0  1  0  0  0  0  0  0  0  0  0
   -4.1032    7.1460   -7.0113 C   0  0  0  0  0  0  0  0  0  0  0  0
   -2.7293    6.8363   -4.9336 C   0  0  0  0  0  0  0  0  0  0  0  0
   -4.6455    5.1656   -3.7791 C   0  0  0  0  0  0  0  0  0  0  0  0
   -4.8879    5.7984   -4.9922 C   0  0  0  0  0  0  0  0  0  0  0  0
   -3.9024    6.5673   -5.6331 C   0  0  0  0  0  0  0  0  0  0  0  0
   -3.4602    5.3967   -3.1107 C   0  0  0  0  0  0  0  0  0  0  0  0
   -2.5525    6.3143   -3.6498 C   0  0  0  0  0  0  0  0  0  0  0  0
   -1.4554    6.7883   -2.8417 C   0  0  0  0  0  0  0  0  0  0  0  0
   -0.4153    6.0118   -2.3054 C   0  0  0  0  0  0  0  0  0  0  0  0
    0.3232    6.9173   -1.5673 C   0  0  0  0  0  0  0  0  0  0  0  0
    1.4406    6.5476   -0.8671 C   0  0  0  0  0  0  0  0  0  0  0  0
   -0.0279    4.6740   -2.3381 C   0  0  0  0  0  0  0  0  0  0  0  0
    1.0960    4.3268   -1.6055 C   0  0  0  0  0  0  0  0  0  0  0  0
   -5.8488    4.1456   -3.0966 Cl  0  0  0  0  0  0  0  0  0  0  0  0
   -4.2802    6.0890   -8.1116 C   0  0  0  0  0  0  0  0  0  0  0  0
   -5.4936    5.1774   -7.9506 C   0  0  0  0  0  0  0  0  0  0  0  0
   -6.6981    5.9220   -7.8239 O   0  0  0  0  0  0  0  0  0  0  0  0
   -0.2352    8.1488   -1.6638 O   0  0  0  0  0  0  0  0  0  0  0  0
   -1.3524    8.0781   -2.4834 N   0  0  0  0  0  0  0  0  0  0  0  0
    1.8164    5.2417   -0.9155 N   0  0  0  0  0  0  0  0  0  0  0  0
    1.3958    2.9889   -1.4983 N   0  0  0  0  0  0  0  0  0  0  0  0
    1.7473    3.1909    0.9848 C   0  0  0  0  0  0  0  0  0  0  0  0
   -1.3875    0.1991    0.0014 C   0  0  0  0  0  0  0  0  0  0  0  0
  1  2  2  0
  1  5  1  0
  2  3  1  0
  3 29  2  0
  4  5  2  0
  4 29  1  0
  5  6  1  0
  6 27  1  0
  6 28  1  1
  7 11  1  0
  7 21  1  0
  8 11  2  0
  8 13  1  0
  9 10  2  0
  9 12  1  0
  9 20  1  0
 10 11  1  0
 12 13  2  0
 13 14  1  0
 14 15  1  0
 14 25  2  0
 15 16  1  0
 15 18  2  0
 16 17  2  0
 16 24  1  0
 17 26  1  0
 18 19  1  0
 19 26  2  0
 19 27  1  0
 21 22  1  0
 22 23  1  0
 24 25  1  0
M  END
>  <DRUGBANK_ID>  (1) 
DB06897

>  <COMMON_NAME>  (1) 
3-[3-chloro-5-(5-{[(1S)-1-phenylethyl]amino}isoxazolo[5,4-c]pyridin-3-yl)phenyl]propan-1-ol

$$$$
