SB5
     RDKit          3D

 23 26  0  0  0  0  0  0  0  0999 V2000
    2.1903   -0.0323   -0.0283 F   0  0  0  0  0  0  0  0  0  0  0  0
    0.1835    1.1901    0.0416 C   0  0  0  0  0  0  0  0  0  0  0  0
    0.8524   -0.0258    0.0143 C   0  0  0  0  0  0  0  0  0  0  0  0
    0.1601   -1.2346    0.0295 C   0  0  0  0  0  0  0  0  0  0  0  0
   -1.2331   -1.2332    0.0706 C   0  0  0  0  0  0  0  0  0  0  0  0
   -1.9161   -0.0171    0.1109 C   0  0  0  0  0  0  0  0  0  0  0  0
   -1.2039    1.1934    0.1095 C   0  0  0  0  0  0  0  0  0  0  0  0
   -3.1597    3.2646   -3.3924 C   0  0  0  0  0  0  0  0  0  0  0  0
   -2.8863    2.5566   -4.4869 N   0  0  0  0  0  0  0  0  0  0  0  0
   -2.7855    1.2291   -4.3282 C   0  0  0  0  0  0  0  0  0  0  0  0
   -3.1239    0.5685   -3.2100 N   0  0  0  0  0  0  0  0  0  0  0  0
   -3.4563    1.3210   -2.1555 C   0  0  0  0  0  0  0  0  0  0  0  0
   -3.2919    2.6955   -2.1486 C   0  0  0  0  0  0  0  0  0  0  0  0
   -2.2930    0.5211   -5.3940 N   0  0  0  0  0  0  0  0  0  0  0  0
   -5.3809    0.4089   -0.6692 N   0  0  0  0  0  0  0  0  0  0  0  0
   -4.0410    0.6029   -1.0117 C   0  0  0  0  0  0  0  0  0  0  0  0
   -3.3564   -0.0003    0.0307 C   0  0  0  0  0  0  0  0  0  0  0  0
   -4.1943   -0.5678    0.9516 N   0  0  0  0  0  0  0  0  0  0  0  0
   -5.4011   -0.2974    0.5143 C   0  0  0  0  0  0  0  0  0  0  0  0
   -6.6232    0.7950   -1.3573 C   0  0  0  0  0  0  0  0  0  0  0  0
   -6.9165    2.2835   -1.4493 C   0  0  0  0  0  0  0  0  0  0  0  0
   -6.0430    3.0402   -2.3885 C   0  0  0  0  0  0  0  0  0  0  0  0
   -5.9670    3.2951   -0.8871 C   0  0  0  0  0  0  0  0  0  0  0  0
  1  3  1  0
  2  3  2  0
  2  7  1  0
  3  4  1  0
  4  5  2  0
  5  6  1  0
  6  7  2  0
  6 17  1  0
  8  9  2  0
  8 13  1  0
  9 10  1  0
 10 11  2  0
 10 14  1  0
 11 12  1  0
 12 13  2  0
 12 16  1  0
 15 16  1  0
 15 19  1  0
 15 20  1  0
 16 17  2  0
 17 18  1  0
 18 19  2  0
 20 21  1  0
 21 22  1  0
 21 23  1  0
 22 23  1  0
M  END
>  <DRUGBANK_ID>  (1) 
DB03980

>  <SECONDARY_ACCESSION_NUMBERS>  (1) 
EXPT02850

>  <COMMON_NAME>  (1) 
4-(Fluorophenyl)-1-Cyclopropylmethyl-5-(2-Amino-4-Pyrimidinyl)Imidazole

>  <UNII>  (1) 
R37TCQ1HFT

$$$$
