
     RDKit          3D

 21 22  0  0  0  0  0  0  0  0999 V2000
    1.2021    0.1280   -0.1092 C   0  0  0  0  0  0  0  0  0  0  0  0
    0.5435   -1.0526   -0.8300 C   0  0  0  0  0  0  0  0  0  0  0  0
    0.9734   -2.4463   -0.2968 C   0  0  0  0  0  0  0  0  0  0  0  0
    0.4211   -2.8253    1.0891 C   0  0  0  0  0  0  0  0  0  0  0  0
    0.4986   -4.1210    1.6251 C   0  0  0  0  0  0  0  0  0  0  0  0
    0.1858   -4.4003    2.9520 C   0  0  0  0  0  0  0  0  0  0  0  0
   -0.0843   -3.3644    3.8274 C   0  0  0  0  0  0  0  0  0  0  0  0
   -0.1524   -2.0708    3.3451 C   0  0  0  0  0  0  0  0  0  0  0  0
   -0.0349   -1.8410    1.9776 C   0  0  0  0  0  0  0  0  0  0  0  0
    0.7005   -3.5592   -1.2748 C   0  0  0  0  0  0  0  0  0  0  0  0
    0.9644   -4.8933   -1.0103 N   0  0  0  0  0  0  0  0  0  0  0  0
    0.7602   -5.4801   -2.1417 C   0  0  0  0  0  0  0  0  0  0  0  0
    0.6491   -4.5777   -3.1636 O   0  0  0  0  0  0  0  0  0  0  0  0
    0.4482   -3.3302   -2.5709 N   0  0  0  0  0  0  0  0  0  0  0  0
    0.6467   -6.9360   -2.4573 C   0  0  0  0  0  0  0  0  0  0  0  0
   -0.7904   -7.5297   -2.5507 C   0  0  0  0  0  0  0  0  0  0  0  0
   -1.6852   -7.0370   -3.6214 N   0  0  0  0  0  0  0  0  0  0  0  0
   -2.9422   -7.7797   -3.7782 C   0  0  0  0  0  0  0  0  0  0  0  0
   -3.9009   -7.6993   -2.5974 C   0  0  0  0  0  0  0  0  0  0  0  0
   -1.9572   -5.5980   -3.5896 C   0  0  0  0  0  0  0  0  0  0  0  0
   -2.4005   -5.0071   -2.2443 C   0  0  0  0  0  0  0  0  0  0  0  0
  1  2  1  0
  2  3  1  0
  3  4  1  0
  3 10  1  0
  4  5  2  0
  4  9  1  0
  5  6  1  0
  6  7  2  0
  7  8  1  0
  8  9  2  0
 10 11  1  0
 10 14  2  0
 11 12  2  0
 12 13  1  0
 12 15  1  0
 13 14  1  0
 15 16  1  0
 16 17  1  0
 17 18  1  0
 17 20  1  0
 18 19  1  0
 20 21  1  0
M  END
>  <DRUGBANK_ID>  (1) 
DB13819

>  <COMMON_NAME>  (1) 
Proxazole

>  <CAS_NUMBER>  (1) 
5696-09-3

>  <UNII>  (1) 
FD72T13M0K

>  <SYNONYMS>  (1) 
Proxazole

$$$$
