
     RDKit          3D

 15 15  0  0  0  0  0  0  0  0999 V2000
    0.8858   -0.0348    0.1925 N   0  0  0  0  0  0  0  0  0  0  0  0
    0.2065   -1.1472    0.5827 C   0  0  0  0  0  0  0  0  0  0  0  0
   -1.0825   -1.2025    0.5317 N   0  0  0  0  0  0  0  0  0  0  0  0
    0.9311   -2.3236    1.1325 C   0  0  0  0  0  0  0  0  0  0  0  0
    2.0313   -2.1417    1.9742 C   0  0  0  0  0  0  0  0  0  0  0  0
    2.6110   -3.2440    2.6047 C   0  0  0  0  0  0  0  0  0  0  0  0
    2.0743   -4.5283    2.4229 C   0  0  0  0  0  0  0  0  0  0  0  0
    2.6942   -5.7272    3.0908 C   0  0  0  0  0  0  0  0  0  0  0  0
    1.7414   -6.4946    3.9682 C   0  0  0  0  0  0  0  0  0  0  0  0
    1.4741   -7.6726    3.7372 O   0  0  0  0  0  0  0  0  0  0  0  0
    1.1241   -5.7958    5.2059 C   0  0  0  0  0  0  0  0  0  0  0  0
    1.5234   -4.5528    5.4927 O   0  0  0  0  0  0  0  0  0  0  0  0
    0.3350   -6.3949    5.9248 O   0  0  0  0  0  0  0  0  0  0  0  0
    0.9601   -4.6961    1.5895 C   0  0  0  0  0  0  0  0  0  0  0  0
    0.4204   -3.6051    0.9119 C   0  0  0  0  0  0  0  0  0  0  0  0
  1  2  1  0
  2  3  2  0
  2  4  1  0
  4  5  2  0
  4 15  1  0
  5  6  1  0
  6  7  2  0
  7  8  1  0
  7 14  1  0
  8  9  1  0
  9 10  2  0
  9 11  1  0
 11 12  1  0
 11 13  2  0
 14 15  2  0
M  END
>  <DRUGBANK_ID>  (1) 
DB02018

>  <SECONDARY_ACCESSION_NUMBERS>  (1) 
EXPT00537

>  <COMMON_NAME>  (1) 
Amido Phenyl Pyruvic Acid

$$$$
