
     RDKit          3D

 22 24  0  0  0  0  0  0  0  0999 V2000
    0.4713   -0.8837    0.2442 C   0  0  1  0  0  0  0  0  0  0  0  0
   -0.5555   -0.9471   -0.9699 C   0  0  2  0  0  0  0  0  0  0  0  0
    0.9975    0.6272    0.3019 C   0  0  0  0  0  0  0  0  0  0  0  0
   -1.0455    0.5548   -0.7791 C   0  0  0  0  0  0  0  0  0  0  0  0
   -0.4209    1.1617    0.4396 C   0  0  1  0  0  0  0  0  0  0  0  0
   -0.3535   -0.9178    1.5734 C   0  0  0  0  0  0  0  0  0  0  0  0
   -1.6272   -2.2228   -0.9567 C   0  0  0  0  0  0  0  0  0  0  0  0
   -1.1155    0.4200    1.5828 C   0  0  0  0  0  0  0  0  0  0  0  0
    0.1284   -1.1026   -2.2387 O   0  0  0  0  0  0  0  0  0  0  0  0
    1.5242   -1.9632    0.1720 C   0  0  0  0  0  0  0  0  0  0  0  0
   -2.5071    0.9093   -2.8878 N   0  0  0  0  0  0  0  0  0  0  0  0
    1.7719    1.2205   -0.9052 C   0  0  0  0  0  0  0  0  0  0  0  0
    1.7860    1.0559    1.5337 C   0  0  0  0  0  0  0  0  0  0  0  0
    0.0097   -0.1600   -3.3150 C   0  0  0  0  0  0  0  0  0  0  0  0
   -1.3204    0.6756   -3.7237 C   0  0  0  0  0  0  0  0  0  0  0  0
   -2.6609   -2.3540   -0.0148 C   0  0  0  0  0  0  0  0  0  0  0  0
   -1.8787   -2.9335   -2.1976 C   0  0  0  0  0  0  0  0  0  0  0  0
   -3.2326    2.1318   -2.7372 C   0  0  0  0  0  0  0  0  0  0  0  0
   -3.2391   -0.1977   -2.3678 C   0  0  0  0  0  0  0  0  0  0  0  0
   -3.1783   -3.4201   -2.5059 C   0  0  0  0  0  0  0  0  0  0  0  0
   -3.9034   -2.9623   -0.2797 C   0  0  0  0  0  0  0  0  0  0  0  0
   -4.1867   -3.4338   -1.5690 C   0  0  0  0  0  0  0  0  0  0  0  0
  1 10  1  1
  2  1  1  0
  2  9  1  6
  2  7  1  0
  3  1  1  0
  4  2  1  0
  5  4  1  6
  5  3  1  0
  5  8  1  0
  6  1  1  0
  8  6  1  0
 11 15  1  0
 12  3  1  0
 13  3  1  0
 14  9  1  0
 15 14  1  0
 16  7  2  0
 17  7  1  0
 18 11  1  0
 19 11  1  0
 20 17  2  0
 21 16  1  0
 21 22  2  0
 22 20  1  0
M  END
>  <DRUGBANK_ID>  (1) 
DB06512

>  <COMMON_NAME>  (1) 
Deramciclane

>  <CAS_NUMBER>  (1) 
120444-71-5

>  <UNII>  (1) 
O5KFK61E74

>  <SYNONYMS>  (1) 
Deramciclane

$$$$
