
     RDKit          3D

 24 25  0  0  0  0  0  0  0  0999 V2000
    1.1652   -0.6212    0.1006 C   0  0  0  0  0  0  0  0  0  0  0  0
    0.7688    2.4611   -3.8834 C   0  0  0  0  0  0  0  0  0  0  0  0
    0.7053   -0.3621   -1.3687 C   0  0  0  0  0  0  0  0  0  0  0  0
    0.5917    0.8695   -3.7635 C   0  0  0  0  0  0  0  0  0  0  0  0
    5.5296    7.2509   -0.2792 C   0  0  0  0  0  0  0  0  0  0  0  0
    5.1476    5.9492    0.0263 C   0  0  0  0  0  0  0  0  0  0  0  0
    4.7108    8.3210    0.0814 C   0  0  0  0  0  0  0  0  0  0  0  0
   -1.9579    2.8548    0.3024 C   0  0  0  0  0  0  0  0  0  0  0  0
   -1.6649    1.8729   -0.5674 C   0  0  0  0  0  0  0  0  0  0  0  0
    3.9520    5.7222    0.7044 C   0  0  0  0  0  0  0  0  0  0  0  0
    3.5084    8.0949    0.7476 C   0  0  0  0  0  0  0  0  0  0  0  0
   -0.9740    3.8236    0.5199 C   0  0  0  0  0  0  0  0  0  0  0  0
   -0.4428    1.9854   -1.1994 C   0  0  0  0  0  0  0  0  0  0  0  0
    1.6732    6.5494    1.4651 C   0  0  0  0  0  0  0  0  0  0  0  0
    0.7659    6.2314    0.2910 C   0  0  0  0  0  0  0  0  0  0  0  0
    2.6518    0.2675   -2.5407 C   0  0  0  0  0  0  0  0  0  0  0  0
    2.8840    1.7356   -2.0654 C   0  0  0  0  0  0  0  0  0  0  0  0
    3.0947    6.7907    1.0211 C   0  0  0  0  0  0  0  0  0  0  0  0
    0.3484    3.7418   -0.0440 C   0  0  0  0  0  0  0  0  0  0  0  0
    1.1510    4.9413   -0.3187 C   0  0  0  0  0  0  0  0  0  0  0  0
    0.7137    2.6643   -0.7961 C   0  0  0  0  0  0  0  0  0  0  0  0
    1.2676   -0.1290   -2.7546 N   0  0  0  0  0  0  0  0  0  0  0  0
    2.0792    4.9126   -1.1700 O   0  0  0  0  0  0  0  0  0  0  0  0
    2.0593    2.4102   -1.0418 O   0  0  0  0  0  0  0  0  0  0  0  0
  3  1  1  0
  4  2  1  0
  6  5  2  0
  7  5  1  0
  9  8  2  0
 10  6  1  0
 11  7  2  0
 12  8  1  0
 13  9  1  0
 15 14  1  0
 17 16  1  0
 18 10  2  0
 18 11  1  0
 18 14  1  0
 19 12  2  0
 20 15  1  0
 20 19  1  0
 21 13  2  0
 21 19  1  0
 22  3  1  0
 22  4  1  0
 22 16  1  0
 23 20  2  0
 24 17  1  0
 24 21  1  0
M  END
>  <DRUGBANK_ID>  (1) 
DB13845

>  <COMMON_NAME>  (1) 
Etafenone

>  <CAS_NUMBER>  (1) 
90-54-0

>  <UNII>  (1) 
0I14K589E7

>  <SYNONYMS>  (1) 
Etafenone

$$$$
