
     RDKit          3D

 32 33  0  0  1  0  0  0  0  0999 V2000
   -1.1995    4.2151   -0.4547 C   0  0  0  0  0  0  0  0  0  0  0  0
   -1.9661    2.2222   -0.9459 C   0  0  0  0  0  0  0  0  0  0  0  0
   -1.0815    1.2931   -2.3213 C   0  0  0  0  0  0  0  0  0  0  0  0
    0.7920    1.4935   -2.2110 C   0  0  2  0  0  0  0  0  0  0  0  0
    1.6353    2.1352   -0.5124 C   0  0  0  0  0  0  0  0  0  0  0  0
    1.7873    0.8012    0.1895 C   0  0  0  0  0  0  0  0  0  0  0  0
    2.7348    3.0744   -0.8743 C   0  0  0  0  0  0  0  0  0  0  0  0
    0.9754    3.5614    0.7080 C   0  0  0  0  0  0  0  0  0  0  0  0
    1.0593    2.4281   -3.4447 N   0  0  0  0  0  0  0  0  0  0  0  0
    1.9107    2.0068   -4.4291 C   0  0  0  0  0  0  0  0  0  0  0  0
    2.8590    2.6812   -4.8149 O   0  0  0  0  0  0  0  0  0  0  0  0
    1.5287    0.7016   -5.0358 C   0  0  0  0  0  0  0  0  0  0  0  0
    0.3146    0.0524   -4.7706 C   0  0  0  0  0  0  0  0  0  0  0  0
   -0.0467   -1.1641   -5.3109 C   0  0  0  0  0  0  0  0  0  0  0  0
    0.8178   -1.7139   -6.2284 C   0  0  0  0  0  0  0  0  0  0  0  0
    2.0181   -1.0714   -6.5641 C   0  0  0  0  0  0  0  0  0  0  0  0
    2.3801    0.1327   -5.9537 C   0  0  0  0  0  0  0  0  0  0  0  0
    2.9074   -1.7038   -7.5790 C   0  0  0  0  0  0  0  0  0  0  0  0
   -1.3263   -1.8367   -4.9311 C   0  0  0  0  0  0  0  0  0  0  0  0
    0.7643    3.8712   -3.4688 N   0  0  0  0  0  0  0  0  0  0  0  0
   -0.3776    4.5099   -2.9900 C   0  0  0  0  0  0  0  0  0  0  0  0
   -0.3191    5.7395   -2.8977 O   0  0  0  0  0  0  0  0  0  0  0  0
   -1.4211    3.5568   -2.1901 C   0  0  0  0  0  0  0  0  0  0  0  0
   -0.2670    2.7299   -1.0324 C   0  0  0  0  0  0  0  0  0  0  0  0
   -0.5298    1.9018    0.6064 C   0  0  0  0  0  0  0  0  0  0  0  0
   -1.7166    2.2354    1.4008 C   0  0  0  0  0  0  0  0  0  0  0  0
   -2.8023    3.2568    0.6854 C   0  0  0  0  0  0  0  0  0  0  0  0
   -2.8610    3.8518   -1.0681 C   0  0  0  0  0  0  0  0  0  0  0  0
   -3.7895    4.8223   -1.4969 C   0  0  0  0  0  0  0  0  0  0  0  0
   -4.7019    3.6549   -1.5854 C   0  0  0  0  0  0  0  0  0  0  0  0
   -3.5981    3.9049    1.6083 O   0  0  0  0  0  0  0  0  0  0  0  0
   -3.5745    3.2942    2.9055 C   0  0  0  0  0  0  0  0  0  0  0  0
  1  2  1  0
  2  3  1  0
  4  9  1  0
  4  5  1  0
  4  3  1  1
  5  6  1  0
  5  7  1  0
  5  8  1  0
  9 10  1  0
  9 20  1  0
 10 11  2  0
 10 12  1  0
 12 13  2  0
 12 17  1  0
 13 14  1  0
 14 15  2  0
 14 19  1  0
 15 16  1  0
 16 17  2  0
 16 18  1  0
 20 21  1  0
 21 22  2  0
 21 23  1  0
 23 24  2  0
 23 28  1  0
 24 25  1  0
 25 26  2  0
 26 27  1  0
 27 28  2  0
 27 31  1  0
 28 29  1  0
 29 30  1  0
 31 32  1  0
M  END
>  <DRUGBANK_ID>  (1) 
DB12170

>  <COMMON_NAME>  (1) 
Veledimex

>  <CAS_NUMBER>  (1) 
1093130-72-3

>  <UNII>  (1) 
ASU841TV0X

>  <SYNONYMS>  (1) 
Veledimex

$$$$
