
     RDKit          3D

 19 20  0  0  0  0  0  0  0  0999 V2000
    0.7998   -0.0888    0.2316 N   0  0  0  0  0  0  0  0  0  0  0  0
    0.1337   -1.2735    0.1204 C   0  0  0  0  0  0  0  0  0  0  0  0
   -0.9051   -1.4097   -0.6485 N   0  0  0  0  0  0  0  0  0  0  0  0
   -1.5052   -2.6757   -0.5909 C   0  0  0  0  0  0  0  0  0  0  0  0
   -1.0868   -3.6530    0.2764 C   0  0  0  0  0  0  0  0  0  0  0  0
   -1.9262   -4.7127    0.0776 N   0  0  0  0  0  0  0  0  0  0  0  0
   -1.9537   -5.9764    0.7993 C   0  0  0  0  0  0  0  0  0  0  0  0
   -3.2510   -6.1991    1.5869 C   0  0  0  0  0  0  0  0  0  0  0  0
   -4.4219   -6.2890    0.7026 N   0  0  0  0  0  0  0  0  0  0  0  0
   -5.6980   -6.4248    1.4375 C   0  0  0  0  0  0  0  0  0  0  0  0
   -5.9367   -5.2308    2.3824 C   0  0  0  0  0  0  0  0  0  0  0  0
   -5.9511   -3.9969    1.6633 O   0  0  0  0  0  0  0  0  0  0  0  0
   -6.8327   -6.4758    0.3872 C   0  0  0  0  0  0  0  0  0  0  0  0
   -6.6366   -7.5503   -0.5312 O   0  0  0  0  0  0  0  0  0  0  0  0
   -2.7449   -4.3549   -0.9668 C   0  0  0  0  0  0  0  0  0  0  0  0
   -2.5591   -3.1067   -1.3380 N   0  0  0  0  0  0  0  0  0  0  0  0
    0.0162   -3.4631    1.1396 C   0  0  0  0  0  0  0  0  0  0  0  0
    0.3958   -4.2527    2.0050 O   0  0  0  0  0  0  0  0  0  0  0  0
    0.6345   -2.2603    0.9323 N   0  0  0  0  0  0  0  0  0  0  0  0
  1  2  1  0
  2  3  2  0
  2 19  1  0
  3  4  1  0
  4  5  2  0
  4 16  1  0
  5  6  1  0
  5 17  1  0
  6  7  1  0
  6 15  1  0
  7  8  1  0
  8  9  1  0
  9 10  1  0
 10 11  1  0
 10 13  1  0
 11 12  1  0
 13 14  1  0
 15 16  2  0
 17 18  2  0
 17 19  1  0
M  END
>  <DRUGBANK_ID>  (1) 
DB02391

>  <SECONDARY_ACCESSION_NUMBERS>  (1) 
EXPT01667

>  <COMMON_NAME>  (1) 
2-Amino-7-[2-(2-Hydroxy-1-Hydroxymethyl-Ethylamino)-Ethyl]-1,7-Dihydro-Purin-6-One

$$$$
