
     RDKit          3D

 16 18  0  0  0  0  0  0  0  0999 V2000
    2.6067   -0.4649   -0.0149 C   0  0  0  0  0  0  0  0  0  0  0  0
    2.3827    0.9113   -0.0212 C   0  0  0  0  0  0  0  0  0  0  0  0
    1.5322   -1.3693   -0.0131 C   0  0  0  0  0  0  0  0  0  0  0  0
    1.0850    1.4108    0.0080 C   0  0  0  0  0  0  0  0  0  0  0  0
   -4.6841    0.6971   -1.2827 C   0  0  0  0  0  0  0  0  0  0  0  0
   -5.6584    0.2829    0.8800 C   0  0  0  0  0  0  0  0  0  0  0  0
   -4.4205    2.1528   -0.8518 C   0  0  0  0  0  0  0  0  0  0  0  0
   -5.3019    1.7164    1.2906 C   0  0  0  0  0  0  0  0  0  0  0  0
    0.2098   -0.8909    0.0131 C   0  0  0  0  0  0  0  0  0  0  0  0
    0.0290    0.4920    0.0632 C   0  0  0  0  0  0  0  0  0  0  0  0
   -2.0181   -0.8447    0.0932 C   0  0  0  0  0  0  0  0  0  0  0  0
   -0.9716   -1.6398    0.0046 N   0  0  0  0  0  0  0  0  0  0  0  0
   -4.6918   -0.2026   -0.1197 N   0  0  0  0  0  0  0  0  0  0  0  0
   -5.3476    2.5908    0.1488 O   0  0  0  0  0  0  0  0  0  0  0  0
   -1.6229    0.8044    0.2660 S   0  0  0  0  0  0  0  0  0  0  0  0
   -3.6752   -1.4953    0.1049 S   0  0  0  0  0  0  0  0  0  0  0  0
  2  1  2  0
  3  1  1  0
  4  2  1  0
  7  5  1  0
  8  6  1  0
  9  3  2  0
 10  4  2  0
 10  9  1  0
 12  9  1  0
 12 11  2  0
 13  5  1  0
 13  6  1  0
 14  7  1  0
 14  8  1  0
 15 10  1  0
 15 11  1  0
 16 11  1  0
 16 13  1  0
M  END
>  <DRUGBANK_ID>  (1) 
DB14202

>  <COMMON_NAME>  (1) 
Morpholinylmercaptobenzothiazole

>  <CAS_NUMBER>  (1) 
102-77-2

>  <UNII>  (1) 
VCD7623F3K

>  <SYNONYMS>  (1) 
2-(4-Morpholino)thiobenzothiazole; 2-Benzothiazolylsulfenylmorpholine; 4-(1,3-benzothiazol-2-ylsulfanyl)morpholine; MBS; Morpholinylmercapto-benzo-thiazole; N-(oxydiethylene)benzothiazole-2-sulfenamide; N-Oxydiethylene-2-benzothiazole sulfenamide

$$$$
