TF1
     RDKit          3D

 27 28  0  0  0  0  0  0  0  0999 V2000
    0.6666    1.2622   -0.1565 N   0  0  0  0  0  0  0  0  0  0  0  0
    1.2377    2.2479   -0.9787 C   0  0  0  0  0  0  0  0  0  0  0  0
    1.4279    0.0306    0.2599 C   0  0  2  0  0  0  0  0  0  0  0  0
   -0.7304    1.2047    0.2898 C   0  0  0  0  0  0  0  0  0  0  0  0
    0.3948    3.4837   -1.4742 C   0  0  1  0  0  0  0  0  0  0  0  0
    2.4120    2.1397   -1.3537 O   0  0  0  0  0  0  0  0  0  0  0  0
    0.6833   -1.2962   -0.1650 C   0  0  0  0  0  0  0  0  0  0  0  0
    1.5671    0.0166    1.7892 C   0  0  0  0  0  0  0  0  0  0  0  0
   -1.4219   -0.0301   -0.2858 C   0  0  2  0  0  0  0  0  0  0  0  0
    1.0792    4.7463   -0.9249 C   0  0  0  0  0  0  0  0  0  0  0  0
    0.3967    3.5500   -3.0058 C   0  0  0  0  0  0  0  0  0  0  0  0
   -1.0044    3.4970   -1.1615 O   0  0  0  0  0  0  0  0  0  0  0  0
   -0.7666   -1.2464    0.1932 N   0  0  0  0  0  0  0  0  0  0  0  0
   -1.3743    0.0083   -1.8144 C   0  0  0  0  0  0  0  0  0  0  0  0
    2.3150    4.9677   -1.4122 F   0  0  0  0  0  0  0  0  0  0  0  0
    0.3253    5.8315   -1.2732 F   0  0  0  0  0  0  0  0  0  0  0  0
    1.1422    4.7492    0.4246 F   0  0  0  0  0  0  0  0  0  0  0  0
   -1.3645   -2.1869    1.0473 C   0  0  0  0  0  0  0  0  0  0  0  0
   -2.8043   -2.0208    1.4789 C   0  0  0  0  0  0  0  0  0  0  0  0
   -0.7578   -3.1623    1.4848 O   0  0  0  0  0  0  0  0  0  0  0  0
   -3.8439   -1.9521    0.5397 C   0  0  0  0  0  0  0  0  0  0  0  0
   -3.1417   -2.0009    2.8441 C   0  0  0  0  0  0  0  0  0  0  0  0
   -5.1833   -1.8286    0.9496 C   0  0  0  0  0  0  0  0  0  0  0  0
   -4.4874   -1.8967    3.2555 C   0  0  0  0  0  0  0  0  0  0  0  0
   -5.5133   -1.8254    2.3078 C   0  0  0  0  0  0  0  0  0  0  0  0
   -6.8968   -1.8017    2.7136 C   0  0  0  0  0  0  0  0  0  0  0  0
   -8.0106   -1.8070    3.0209 N   0  0  0  0  0  0  0  0  0  0  0  0
  1  2  1  0
  1  3  1  0
  1  4  1  0
  2  6  2  0
  3  7  1  0
  3  8  1  1
  4  9  1  0
  5  2  1  0
  5 10  1  0
  5 11  1  6
  5 12  1  0
  7 13  1  0
  9 13  1  0
  9 14  1  6
 10 15  1  0
 10 16  1  0
 10 17  1  0
 13 18  1  0
 18 19  1  0
 18 20  2  0
 19 21  2  0
 19 22  1  0
 21 23  1  0
 22 24  2  0
 23 25  2  0
 24 25  1  0
 25 26  1  0
 26 27  3  0
M  END
>  <DRUGBANK_ID>  (1) 
DB08608

>  <COMMON_NAME>  (1) 
4-({(2R,5S)-2,5-DIMETHYL-4-[(2R)-3,3,3-TRIFLUORO-2-HYDROXY-2-METHYLPROPANOYL]PIPERAZIN-1-YL}CARBONYL)BENZONITRILE

$$$$
