
     RDKit          3D

 27 29  0  0  0  0  0  0  0  0999 V2000
    1.0370   -0.0486   -0.3108 C   0  0  0  0  0  0  0  0  0  0  0  0
    0.6285   -1.4130   -0.6359 N   0  0  0  0  0  0  0  0  0  0  0  0
    1.2240   -2.5854   -0.2041 C   0  0  0  0  0  0  0  0  0  0  0  0
    0.4643   -3.6183   -0.6621 C   0  0  0  0  0  0  0  0  0  0  0  0
   -0.6070   -3.0047   -1.3070 C   0  0  0  0  0  0  0  0  0  0  0  0
   -0.5368   -1.6626   -1.2775 N   0  0  0  0  0  0  0  0  0  0  0  0
    0.7453   -5.4437   -0.3695 Br  0  0  0  0  0  0  0  0  0  0  0  0
    2.3831   -2.5940    0.6281 C   0  0  0  0  0  0  0  0  0  0  0  0
    3.5758   -3.1454    0.0860 C   0  0  0  0  0  0  0  0  0  0  0  0
    4.7766   -2.7780    0.6491 C   0  0  0  0  0  0  0  0  0  0  0  0
    4.7338   -1.6276    1.4034 C   0  0  0  0  0  0  0  0  0  0  0  0
    3.5590   -1.1868    2.0173 C   0  0  0  0  0  0  0  0  0  0  0  0
    2.3651   -1.8120    1.7751 C   0  0  0  0  0  0  0  0  0  0  0  0
    1.3368   -1.4323    2.5895 O   0  0  0  0  0  0  0  0  0  0  0  0
   -0.0108   -1.8269    2.3332 C   0  0  0  0  0  0  0  0  0  0  0  0
    5.9871   -3.4706    0.4501 N   0  0  0  0  0  0  0  0  0  0  0  0
    7.1639   -3.4236    1.1477 C   0  0  0  0  0  0  0  0  0  0  0  0
    8.1883   -3.8493    0.5719 O   0  0  0  0  0  0  0  0  0  0  0  0
    7.3124   -2.8989    2.4031 N   0  0  0  0  0  0  0  0  0  0  0  0
    6.3868   -2.6032    3.4456 C   0  0  0  0  0  0  0  0  0  0  0  0
    5.2611   -3.4047    3.6566 C   0  0  0  0  0  0  0  0  0  0  0  0
    4.1648   -2.9036    4.3776 C   0  0  0  0  0  0  0  0  0  0  0  0
    4.2135   -1.6278    4.9429 C   0  0  0  0  0  0  0  0  0  0  0  0
    5.3523   -0.8404    4.8174 C   0  0  0  0  0  0  0  0  0  0  0  0
    6.4316   -1.3269    4.0667 C   0  0  0  0  0  0  0  0  0  0  0  0
    7.3361   -0.4234    3.6475 F   0  0  0  0  0  0  0  0  0  0  0  0
    3.0663   -1.0472    5.3309 F   0  0  0  0  0  0  0  0  0  0  0  0
  1  2  1  0
  2  3  1  0
  2  6  1  0
  3  4  2  0
  3  8  1  0
  4  5  1  0
  4  7  1  0
  5  6  2  0
  8  9  2  0
  8 13  1  0
  9 10  1  0
 10 11  2  0
 10 16  1  0
 11 12  1  0
 12 13  2  0
 13 14  1  0
 14 15  1  0
 16 17  1  0
 17 18  2  0
 17 19  1  0
 19 20  1  0
 20 21  2  0
 20 25  1  0
 21 22  1  0
 22 23  2  0
 23 24  1  0
 23 27  1  0
 24 25  2  0
 25 26  1  0
M  END
>  <DRUGBANK_ID>  (1) 
DB12555

>  <SECONDARY_ACCESSION_NUMBERS>  (1) 
DB05026

>  <COMMON_NAME>  (1) 
Nelotanserin

>  <CAS_NUMBER>  (1) 
839713-36-9

>  <UNII>  (1) 
4ZA73QEW2P

>  <SYNONYMS>  (1) 
Nelotanserin

$$$$
