
     RDKit          3D

 20 23  0  0  0  0  0  0  0  0999 V2000
    3.1031    0.5032   -0.8352 C   0  0  0  0  0  0  0  0  0  0  0  0
    3.1844   -0.6487   -0.0600 C   0  0  0  0  0  0  0  0  0  0  0  0
    2.1816   -1.5818   -0.1824 C   0  0  0  0  0  0  0  0  0  0  0  0
    0.9314   -1.1327   -0.6455 C   0  0  0  0  0  0  0  0  0  0  0  0
    0.6864   -0.1670   -1.6785 C   0  0  0  0  0  0  0  0  0  0  0  0
    1.9950    0.6759   -1.8782 C   0  0  0  0  0  0  0  0  0  0  0  0
   -0.0473   -0.9858    0.5493 C   0  0  0  0  0  0  0  0  0  0  0  0
    0.0653    0.7418    1.2846 C   0  0  0  0  0  0  0  0  0  0  0  0
   -1.4189    1.1210    0.3050 C   0  0  0  0  0  0  0  0  0  0  0  0
   -0.9729    0.4120   -1.3438 O   0  0  0  0  0  0  0  0  0  0  0  0
    1.2730    2.1922    1.2274 C   0  0  0  0  0  0  0  0  0  0  0  0
    0.6119    3.1074    0.2961 N   0  0  0  0  0  0  0  0  0  0  0  0
   -0.6627    3.4255    0.8574 C   0  0  0  0  0  0  0  0  0  0  0  0
   -1.7471    2.7149    0.0773 C   0  0  0  0  0  0  0  0  0  0  0  0
    0.5505    2.1979   -0.7413 C   0  0  0  0  0  0  0  0  0  0  0  0
    4.3433   -0.8213    1.2144 Cl  0  0  0  0  0  0  0  0  0  0  0  0
   -1.5686   -1.5457    0.6542 C   0  0  0  0  0  0  0  0  0  0  0  0
   -2.5115    0.4991    1.0957 N   0  0  0  0  0  0  0  0  0  0  0  0
   -2.0660   -0.6666    1.6521 C   0  0  0  0  0  0  0  0  0  0  0  0
   -1.6596   -0.7697    2.8930 O   0  0  0  0  0  0  0  0  0  0  0  0
  1  2  2  0
  1  6  1  0
  2  3  1  0
  2 16  1  0
  3  4  2  0
  4  5  1  0
  4  7  1  0
  5  6  2  0
  5 10  1  0
  7  8  1  0
  7 17  1  0
  8  9  1  0
  8 11  1  0
  9 10  1  0
  9 14  1  0
  9 18  1  0
 11 12  1  0
 12 13  1  0
 12 15  1  0
 13 14  1  0
 17 19  1  0
 19 18  1  0
 19 20  2  0
M  END
>  <DRUGBANK_ID>  (1) 
DB09187

>  <COMMON_NAME>  (1) 
Lortalamine

>  <CAS_NUMBER>  (1) 
70384-91-7

>  <UNII>  (1) 
9GIR4SV22T

>  <SYNONYMS>  (1) 
Lortalamine

$$$$
