
     RDKit          3D

 18 20  0  0  1  0  0  0  0  0999 V2000
   -1.1790   -7.9743   -2.5207 C   0  0  0  0  0  0  0  0  0  0  0  0
    0.0483   -7.6851   -1.7090 C   0  0  0  0  0  0  0  0  0  0  0  0
    0.1643   -6.7147   -0.7770 C   0  0  0  0  0  0  0  0  0  0  0  0
    1.3797   -6.3928   -0.1416 N   0  0  0  0  0  0  0  0  0  0  0  0
    1.4858   -5.0596    0.5674 C   0  0  1  0  0  0  0  0  0  0  0  0
    0.5200   -4.8114    1.7568 C   0  0  0  0  0  0  0  0  0  0  0  0
    1.0110   -3.4622    2.3325 C   0  0  2  0  0  0  0  0  0  0  0  0
    0.6534   -2.3587    1.5129 O   0  0  0  0  0  0  0  0  0  0  0  0
    2.5147   -3.6026    2.3744 C   0  0  2  0  0  0  0  0  0  0  0  0
    3.1018   -3.0817    3.6759 C   0  0  0  0  0  0  0  0  0  0  0  0
    2.9924   -4.0250    4.7284 O   0  0  0  0  0  0  0  0  0  0  0  0
    3.4254   -3.3452    1.2022 C   0  0  0  0  0  0  0  0  0  0  0  0
    2.8129   -4.6940    1.2779 C   0  0  2  0  0  0  0  0  0  0  0  0
    2.5151   -7.1428   -0.4818 C   0  0  0  0  0  0  0  0  0  0  0  0
    3.6864   -6.8946   -0.2343 O   0  0  0  0  0  0  0  0  0  0  0  0
    2.3018   -8.2826   -1.2022 N   0  0  0  0  0  0  0  0  0  0  0  0
    1.2351   -8.5128   -1.9936 C   0  0  0  0  0  0  0  0  0  0  0  0
    1.2681   -9.3603   -2.8951 O   0  0  0  0  0  0  0  0  0  0  0  0
  1  2  1  0
  2  3  2  0
  2 17  1  0
  3  4  1  0
  4 14  1  0
  5  6  1  0
  5  4  1  1
  7  6  1  0
  7  8  1  6
  9  7  1  0
  9 10  1  1
  9 12  1  0
  9 13  1  0
 10 11  1  0
 13 12  1  6
 13  5  1  0
 14 15  2  0
 14 16  1  0
 16 17  1  0
 17 18  2  0
M  END
>  <DRUGBANK_ID>  (1) 
DB17805

>  <COMMON_NAME>  (1) 
North-methanocarbathymidine

>  <CAS_NUMBER>  (1) 
156126-12-4

>  <UNII>  (1) 
LTM5S02010

>  <SYNONYMS>  (1) 
(north)-methanocarbathymidine; 1-((1s,2s,4s,5r)-4-hydroxy-5-(hydroxymethyl)bicyclo(3.1.0)hex-2-yl)-5-methyl-2,4(1h,3h)-pyrimidinedione; 2,4(1h,3h)-pyrimidinedione, 1-((1s,2s,4s,5r)-4-hydroxy-5-(hydroxymethyl)bicyclo(3.1.0)hex-2-yl)-5-methyl-; 2,4(1h,3h)-pyrimidinedione, 1-(4-hydroxy-5-(hydroxymethyl)bicyclo(3.1.0)hex-2-yl)-5-methyl-, (1s-(1.alpha.,2.alpha.,4.beta.,5.alpha.))-; N-methanocarbathymidine

$$$$
