Acetic acid.mol
     RDKit          3D

  4  3  0  0  0  0  0  0  0  0999 V2000
    0.9443    0.0008    0.0505 C   0  0  0  0  0  0  0  0  0  0  0  0
    0.2489    0.7419    1.1536 C   0  0  0  0  0  0  0  0  0  0  0  0
    0.3440   -0.5937   -0.8341 O   0  0  0  0  0  0  0  0  0  0  0  0
    2.2917    0.0364    0.1036 O   0  0  0  0  0  0  0  0  0  0  0  0
  1  2  1  0
  1  3  2  0
  1  4  1  0
M  END
>  <DRUGBANK_ID>  (1) 
DB03166

>  <SECONDARY_ACCESSION_NUMBERS>  (1) 
EXPT00423; DB04184

>  <COMMON_NAME>  (1) 
Acetic acid

>  <CAS_NUMBER>  (1) 
64-19-7

>  <UNII>  (1) 
Q40Q9N063P

>  <SYNONYMS>  (1) 
Acetic acid; Acetic acid, glacial; Aceticum acidum; acide acétique; ácido acético; Essigsäure; Ethanoat; Ethanoate; Ethanoic acid; Ethoic acid; Ethylic acid; Glacial acetic acid; HOAc; Methanecarboxylic acid; Vinegar

$$$$
