
     RDKit          3D

 31 33  0  0  1  0  0  0  0  0999 V2000
    0.0982    0.2909   -0.8924 C   0  0  0  0  0  0  0  0  0  0  0  0
    0.1297    1.6291   -0.1859 C   0  0  0  0  0  0  0  0  0  0  0  0
    1.0883    2.4361   -0.8476 O   0  0  0  0  0  0  0  0  0  0  0  0
    2.4953    2.1217   -0.6473 C   0  0  1  0  0  0  0  0  0  0  0  0
    3.0576    2.6541    0.7491 C   0  0  0  0  0  0  0  0  0  0  0  0
    3.0450    1.8320    2.0432 C   0  0  0  0  0  0  0  0  0  0  0  0
    3.6287    0.5662    2.0230 C   0  0  0  0  0  0  0  0  0  0  0  0
    3.4563   -0.4289    2.9991 C   0  0  0  0  0  0  0  0  0  0  0  0
    2.7805   -0.1273    4.1513 C   0  0  0  0  0  0  0  0  0  0  0  0
    2.4373    1.2380    4.3409 C   0  0  0  0  0  0  0  0  0  0  0  0
    2.4837    2.1902    3.2681 C   0  0  0  0  0  0  0  0  0  0  0  0
    2.1809   -1.0752    4.9684 O   0  0  0  0  0  0  0  0  0  0  0  0
    2.0266   -2.4784    4.5742 C   0  0  0  0  0  0  0  0  0  0  0  0
    0.8199   -2.9597    3.7197 C   0  0  0  0  0  0  0  0  0  0  0  0
    0.8219   -2.3784    2.4095 N   0  0  0  0  0  0  0  0  0  0  0  0
    0.5128   -1.0541    2.2399 C   0  0  0  0  0  0  0  0  0  0  0  0
    1.2892   -0.7782    1.1563 C   0  0  0  0  0  0  0  0  0  0  0  0
    1.4555   -1.8924    0.3589 C   0  0  0  0  0  0  0  0  0  0  0  0
    1.4087   -2.8921    1.2652 C   0  0  0  0  0  0  0  0  0  0  0  0
    1.8060   -4.2197    0.9254 C   0  0  0  0  0  0  0  0  0  0  0  0
    0.8140   -5.1732    0.9873 C   0  0  0  0  0  0  0  0  0  0  0  0
    1.0808   -6.4458    0.5404 C   0  0  0  0  0  0  0  0  0  0  0  0
    2.3237   -6.7609   -0.0216 C   0  0  0  0  0  0  0  0  0  0  0  0
    3.2790   -5.7507   -0.2038 C   0  0  0  0  0  0  0  0  0  0  0  0
    3.0381   -4.4791    0.3005 C   0  0  0  0  0  0  0  0  0  0  0  0
    2.7793   -8.4215   -0.4797 S   0  0  0  0  0  0  0  0  0  0  0  0
    1.3575   -9.3827    0.1070 C   0  0  0  0  0  0  0  0  0  0  0  0
   -0.1036   -0.0831    3.1960 C   0  0  0  0  0  0  0  0  0  0  0  0
    3.3190    0.9842   -1.4518 C   0  0  0  0  0  0  0  0  0  0  0  0
    3.5744    1.0756   -2.6756 O   0  0  0  0  0  0  0  0  0  0  0  0
    3.8405   -0.0674   -0.8141 O   0  0  0  0  0  0  0  0  0  0  0  0
  1  2  1  0
  2  3  1  0
  4  3  1  0
  4  5  1  1
  4 29  1  0
  5  6  1  0
  6  7  2  0
  6 11  1  0
  7  8  1  0
  8  9  2  0
  9 10  1  0
  9 12  1  0
 10 11  2  0
 12 13  1  0
 13 14  1  0
 14 15  1  0
 15 16  1  0
 15 19  1  0
 16 17  2  0
 16 28  1  0
 17 18  1  0
 18 19  2  0
 19 20  1  0
 20 21  2  0
 20 25  1  0
 21 22  1  0
 22 23  2  0
 23 24  1  0
 23 26  1  0
 24 25  2  0
 26 27  1  0
 29 30  2  0
 29 31  1  0
M  END
>  <DRUGBANK_ID>  (1) 
DB13115

>  <COMMON_NAME>  (1) 
Saroglitazar

>  <CAS_NUMBER>  (1) 
495399-09-2

>  <UNII>  (1) 
E0YMX3S4JD

>  <SYNONYMS>  (1) 
Saroglitazar; Saroglitazarum

$$$$
