
     RDKit          3D

 24 25  0  0  0  0  0  0  0  0999 V2000
    0.9960   -0.0113   -0.0380 C   0  0  0  0  0  0  0  0  0  0  0  0
    0.4113   -0.1419    1.2660 O   0  0  0  0  0  0  0  0  0  0  0  0
    0.7717   -1.2638    1.9575 C   0  0  0  0  0  0  0  0  0  0  0  0
    1.9688   -1.9194    1.8007 C   0  0  0  0  0  0  0  0  0  0  0  0
    2.9548   -1.4602    1.0217 F   0  0  0  0  0  0  0  0  0  0  0  0
    2.2049   -3.1154    2.4509 C   0  0  0  0  0  0  0  0  0  0  0  0
    1.4716   -3.5359    3.5339 C   0  0  0  0  0  0  0  0  0  0  0  0
    1.9276   -4.6188    4.3569 N   0  0  0  0  0  0  0  0  0  0  0  0
    3.5359   -5.1979    4.5426 S   0  0  0  0  0  0  0  0  0  0  0  0
    3.9182   -5.0053    5.9174 O   0  0  0  0  0  0  0  0  0  0  0  0
    3.4636   -6.5488    4.0037 O   0  0  0  0  0  0  0  0  0  0  0  0
    4.7162   -4.2980    3.5733 C   0  0  0  0  0  0  0  0  0  0  0  0
    4.7477   -2.9066    3.6520 C   0  0  0  0  0  0  0  0  0  0  0  0
    4.0064   -2.2630    4.5634 F   0  0  0  0  0  0  0  0  0  0  0  0
    5.3205   -2.1640    2.6118 C   0  0  0  0  0  0  0  0  0  0  0  0
    5.0754   -0.8479    2.5315 F   0  0  0  0  0  0  0  0  0  0  0  0
    5.9781   -2.7997    1.5684 C   0  0  0  0  0  0  0  0  0  0  0  0
    6.4521   -2.0896    0.5344 F   0  0  0  0  0  0  0  0  0  0  0  0
    6.0962   -4.1810    1.5815 C   0  0  0  0  0  0  0  0  0  0  0  0
    6.7812   -4.7951    0.6062 F   0  0  0  0  0  0  0  0  0  0  0  0
    5.4572   -4.9340    2.5720 C   0  0  0  0  0  0  0  0  0  0  0  0
    5.5431   -6.2679    2.4969 F   0  0  0  0  0  0  0  0  0  0  0  0
    0.2208   -2.9325    3.6800 C   0  0  0  0  0  0  0  0  0  0  0  0
   -0.1361   -1.8194    2.8676 C   0  0  0  0  0  0  0  0  0  0  0  0
  1  2  1  0
  2  3  1  0
  3  4  2  0
  3 24  1  0
  4  5  1  0
  4  6  1  0
  6  7  2  0
  7  8  1  0
  7 23  1  0
  8  9  1  0
  9 10  2  0
  9 11  2  0
  9 12  1  0
 12 13  2  0
 12 21  1  0
 13 14  1  0
 13 15  1  0
 15 16  1  0
 15 17  2  0
 17 18  1  0
 17 19  1  0
 19 20  1  0
 19 21  2  0
 21 22  1  0
 23 24  2  0
M  END
>  <DRUGBANK_ID>  (1) 
DB16103

>  <COMMON_NAME>  (1) 
Batabulin

>  <CAS_NUMBER>  (1) 
195533-53-0

>  <UNII>  (1) 
T4NP8G3K6Q

>  <SYNONYMS>  (1) 
Batabulin

$$$$
