
     RDKit          3D

 26 27  0  0  0  0  0  0  0  0999 V2000
   -2.4033   -0.7071    0.1308 C   0  0  0  0  0  0  0  0  0  0  0  0
   -2.4551    0.6790    0.2320 C   0  0  0  0  0  0  0  0  0  0  0  0
   -1.2436    1.3853    0.0711 C   0  0  0  0  0  0  0  0  0  0  0  0
   -1.2226   -1.4034   -0.0668 C   0  0  0  0  0  0  0  0  0  0  0  0
   -0.0338   -0.7121   -0.1707 C   0  0  0  0  0  0  0  0  0  0  0  0
   -0.0260    0.6887   -0.1311 C   0  0  0  0  0  0  0  0  0  0  0  0
    1.3136    1.3587   -0.3697 C   0  0  0  0  0  0  0  0  0  0  0  0
    2.4316    0.6778    0.3082 N   0  0  0  0  0  0  0  0  0  0  0  0
    2.3538   -0.7826    0.5289 C   0  0  1  0  0  0  0  0  0  0  0  0
    1.2634   -1.4412   -0.3400 C   0  0  0  0  0  0  0  0  0  0  0  0
    3.6625   -1.4709    0.1107 C   0  0  0  0  0  0  0  0  0  0  0  0
    4.3057   -2.1834    1.1059 N   0  0  0  0  0  0  0  0  0  0  0  0
    5.6048   -2.7648    0.8663 C   0  0  0  0  0  0  0  0  0  0  0  0
    4.1104   -1.3688   -1.0304 O   0  0  0  0  0  0  0  0  0  0  0  0
   -3.6786    1.3863    0.4675 N   0  0  0  0  0  0  0  0  0  0  0  0
   -5.2076    0.7421    0.7197 S   0  0  0  0  0  0  0  0  0  0  0  0
   -5.5943    1.0307    2.0809 O   0  0  0  0  0  0  0  0  0  0  0  0
   -6.0455    1.1688   -0.3766 O   0  0  0  0  0  0  0  0  0  0  0  0
   -5.1444   -0.8562    0.6193 O   0  0  0  0  0  0  0  0  0  0  0  0
    3.4919    1.4539    0.7490 C   0  0  0  0  0  0  0  0  0  0  0  0
    3.5404    2.6624    0.5185 O   0  0  0  0  0  0  0  0  0  0  0  0
    4.4631    0.7736    1.4393 O   0  0  0  0  0  0  0  0  0  0  0  0
    5.6569    1.4889    1.8886 C   0  0  0  0  0  0  0  0  0  0  0  0
    6.4378    2.0856    0.7094 C   0  0  0  0  0  0  0  0  0  0  0  0
    5.2706    2.5575    2.9142 C   0  0  0  0  0  0  0  0  0  0  0  0
    6.6036    0.4965    2.5985 C   0  0  0  0  0  0  0  0  0  0  0  0
  1  2  2  0
  2 15  1  0
  2  3  1  0
  3  6  2  0
  4  1  1  0
  5  6  1  0
  5 10  1  0
  5  4  2  0
  6  7  1  0
  7  8  1  0
  8  9  1  0
  8 20  1  0
  9 10  1  0
  9 11  1  6
 11 12  1  0
 11 14  2  0
 12 13  1  0
 15 16  1  0
 16 17  2  0
 16 18  2  0
 16 19  1  0
 20 21  2  0
 20 22  1  0
 22 23  1  0
 23 24  1  0
 23 25  1  0
 23 26  1  0
M  END
>  <DRUGBANK_ID>  (1) 
DB06887

>  <COMMON_NAME>  (1) 
[(3S)-3-(Methylcarbamoyl)-2-{[(2-methyl-2-propanyl)oxy]carbonyl}-1,2,3,4-tetrahydro-7-isoquinolinyl]sulfamic acid

$$$$
