SX5
     RDKit          3D

 25 26  0  0  0  0  0  0  0  0999 V2000
    2.6214    1.5170   -0.9196 O   0  0  0  0  0  0  0  0  0  0  0  0
    3.3629    0.5505   -0.7858 C   0  0  0  0  0  0  0  0  0  0  0  0
    4.1930    0.3320    0.2689 O   0  0  0  0  0  0  0  0  0  0  0  0
    3.3719   -0.6963   -1.6402 C   0  0  0  0  0  0  0  0  0  0  0  0
    2.7089   -2.0468   -1.2560 C   0  0  0  0  0  0  0  0  0  0  0  0
    1.1752   -2.2634   -1.4143 C   0  0  0  0  0  0  0  0  0  0  0  0
    0.7493   -2.7593   -2.4636 O   0  0  0  0  0  0  0  0  0  0  0  0
    0.2814   -2.0137   -0.3704 N   0  0  0  0  0  0  0  0  0  0  0  0
    0.5032   -1.3276    0.8565 C   0  0  0  0  0  0  0  0  0  0  0  0
    1.4013   -0.3187    0.8103 C   0  0  0  0  0  0  0  0  0  0  0  0
    1.7854    0.6233    1.7726 C   0  0  0  0  0  0  0  0  0  0  0  0
    1.2733    0.5006    3.0001 C   0  0  0  0  0  0  0  0  0  0  0  0
    1.8377    1.6445    4.3808 Br  0  0  0  0  0  0  0  0  0  0  0  0
    0.3232   -0.4864    3.1117 C   0  0  0  0  0  0  0  0  0  0  0  0
   -0.1516   -1.3357    2.0461 C   0  0  0  0  0  0  0  0  0  0  0  0
   -1.2262   -2.3289    2.2425 C   0  0  0  0  0  0  0  0  0  0  0  0
   -1.5011   -3.1410    1.4075 O   0  0  0  0  0  0  0  0  0  0  0  0
   -1.7310   -2.3210    3.5264 N   0  0  0  0  0  0  0  0  0  0  0  0
   -1.7178   -3.5451    4.2751 C   0  0  0  0  0  0  0  0  0  0  0  0
   -1.0860   -3.2526    5.6397 C   0  0  2  0  0  0  0  0  0  0  0  0
   -1.1307   -4.4989    6.5064 C   0  0  0  0  0  0  0  0  0  0  0  0
   -1.8067   -2.0818    6.3530 C   0  0  0  0  0  0  0  0  0  0  0  0
   -2.4453   -1.1935    4.0904 C   0  0  0  0  0  0  0  0  0  0  0  0
   -1.9034   -0.8317    5.4813 C   0  0  1  0  0  0  0  0  0  0  0  0
   -2.7067    0.3102    6.0611 C   0  0  0  0  0  0  0  0  0  0  0  0
  1  2  2  0
  2  3  1  0
  2  4  1  0
  5  4  1  0
  6  5  1  0
  7  6  2  0
  8  6  1  0
  9  8  1  0
 10  9  2  0
 11 10  1  0
 12 11  2  0
 12 14  1  0
 13 12  1  0
 14 15  2  0
 15  9  1  0
 15 16  1  0
 16 18  1  0
 16 17  2  0
 18 23  1  0
 19 18  1  0
 20 19  1  0
 20 22  1  0
 20 21  1  1
 22 24  1  0
 24 23  1  0
 24 25  1  1
M  END
>  <DRUGBANK_ID>  (1) 
DB08581

>  <COMMON_NAME>  (1) 
4-[(4-bromo-2-{[(3R,5S)-3,5-dimethylpiperidin-1-yl]carbonyl}phenyl)amino]-4-oxobutanoic acid

$$$$
