Terpinen-4-ol
     RDKit          3D

 11 11  0  0  0  0  0  0  0  0999 V2000
   -0.4767   -1.4681   -0.0720 C   0  0  0  0  0  0  0  0  0  0  0  0
   -1.4106   -0.5075   -0.0980 C   0  0  0  0  0  0  0  0  0  0  0  0
   -1.1079    0.9380   -0.0740 C   0  0  0  0  0  0  0  0  0  0  0  0
    0.3767    1.3703    0.0406 C   0  0  0  0  0  0  0  0  0  0  0  0
    1.4293    0.2507   -0.1335 C   0  0  0  0  0  0  0  0  0  0  0  0
    0.9818   -1.1961   -0.0866 C   0  0  0  0  0  0  0  0  0  0  0  0
    0.5873    2.0927    1.4075 C   0  0  0  0  0  0  0  0  0  0  0  0
    2.0161    2.6258    1.6002 C   0  0  0  0  0  0  0  0  0  0  0  0
   -0.3786    3.2760    1.5944 C   0  0  0  0  0  0  0  0  0  0  0  0
    0.5938    2.3296   -1.0187 O   0  0  0  0  0  0  0  0  0  0  0  0
   -0.8816   -2.8994   -0.0217 C   0  0  0  0  0  0  0  0  0  0  0  0
  1  2  2  0
  1  6  1  0
  1 11  1  0
  2  3  1  0
  3  4  1  0
  4  5  1  0
  4  7  1  0
  4 10  1  0
  5  6  1  0
  7  8  1  0
  7  9  1  0
M  END
>  <DRUGBANK_ID>  (1) 
DB12816

>  <COMMON_NAME>  (1) 
Terpinen-4-ol

>  <CAS_NUMBER>  (1) 
562-74-3

>  <UNII>  (1) 
L65MV77ZG6

$$$$
