
     RDKit          3D

 25 27  0  0  1  0  0  0  0  0999 V2000
    4.1444    0.6524    0.0173 C   0  0  0  0  0  0  0  0  0  0  0  0
    4.3084    0.5315   -1.3391 C   0  0  0  0  0  0  0  0  0  0  0  0
    4.1029    2.4966   -3.9887 C   0  0  0  0  0  0  0  0  0  0  0  0
   -0.5992   -2.3365    0.5709 C   0  0  0  0  0  0  0  0  0  0  0  0
    3.1099    1.5022   -3.3830 C   0  0  2  0  0  0  0  0  0  0  0  0
    0.1521   -1.1995   -0.0172 C   0  0  2  0  0  0  0  0  0  0  0  0
   -0.3234   -0.0242    0.8576 C   0  0  2  0  0  0  0  0  0  0  0  0
    0.3024    1.1701    0.3233 C   0  0  1  0  0  0  0  0  0  0  0  0
    1.1877    3.4757   -2.8698 C   0  0  2  0  0  0  0  0  0  0  0  0
    1.3296    3.4390   -1.1146 C   0  0  2  0  0  0  0  0  0  0  0  0
    0.1028    0.9384   -1.2584 C   0  0  2  0  0  0  0  0  0  0  0  0
    1.5323    1.8909   -3.7953 C   0  0  2  0  0  0  0  0  0  0  0  0
    2.8303    2.3271   -0.7743 C   0  0  0  0  0  0  0  0  0  0  0  0
    0.5670   -0.2087   -2.1025 C   0  0  1  0  0  0  0  0  0  0  0  0
    3.2799    1.7273    0.3498 N   0  0  0  0  0  0  0  0  0  0  0  0
    3.4562    1.4656   -1.8973 N   0  0  0  0  0  0  0  0  0  0  0  0
    4.9951    3.1099   -3.0506 O   0  0  0  0  0  0  0  0  0  0  0  0
   -0.2278   -3.4876   -0.1522 O   0  0  0  0  0  0  0  0  0  0  0  0
    0.0349   -0.1432    2.2419 O   0  0  0  0  0  0  0  0  0  0  0  0
   -0.2920    2.2458    1.1291 O   0  0  0  0  0  0  0  0  0  0  0  0
    2.1834    4.4322   -3.1617 O   0  0  0  0  0  0  0  0  0  0  0  0
   -0.1939    3.3589   -0.8605 O   0  0  0  0  0  0  0  0  0  0  0  0
    1.3072    1.2090   -1.6499 O   0  0  0  0  0  0  0  0  0  0  0  0
   -0.2309   -1.2038   -1.4970 O   0  0  0  0  0  0  0  0  0  0  0  0
    0.5452    0.5102   -3.5931 O   0  0  0  0  0  0  0  0  0  0  0  0
  2  1  2  0
  5  3  1  6
  6  4  1  1
  7  6  1  0
  7 19  1  1
  8  7  1  0
  8 20  1  1
  9 21  1  6
 10  9  1  0
 10 22  1  1
 11  8  1  0
 11 23  1  6
 12  5  1  0
 12  9  1  0
 12 25  1  1
 13 10  1  0
 14 11  1  0
 14 25  1  6
 15  1  1  0
 15 13  2  0
 16  2  1  0
 16  5  1  0
 16 13  1  0
 17  3  1  0
 18  4  1  0
 24  6  1  0
 24 14  1  0
M  END
>  <DRUGBANK_ID>  (1) 
DB02017

>  <SECONDARY_ACCESSION_NUMBERS>  (1) 
EXPT01837

>  <COMMON_NAME>  (1) 
Imidazole-Derived Cellobiose

$$$$
