
     RDKit          3D

 22 25  0  0  1  0  0  0  0  0999 V2000
    0.6671   -0.3641   -0.1693 C   0  0  0  0  0  0  0  0  0  0  0  0
    1.3297    0.8469    0.0531 C   0  0  0  0  0  0  0  0  0  0  0  0
    1.4631   -1.5361   -0.2337 C   0  0  0  0  0  0  0  0  0  0  0  0
    2.7422    0.8443    0.2890 C   0  0  0  0  0  0  0  0  0  0  0  0
    2.8355   -1.5394    0.0174 C   0  0  0  0  0  0  0  0  0  0  0  0
    3.4737   -0.3484    0.2861 C   0  0  0  0  0  0  0  0  0  0  0  0
   -0.8703   -0.4228   -0.3568 C   0  0  2  0  0  0  0  0  0  0  0  0
   -1.7572    0.7331    0.4552 C   0  0  1  0  0  0  0  0  0  0  0  0
    0.5367    2.1392    0.0919 C   0  0  0  0  0  0  0  0  0  0  0  0
   -1.0398    2.0379   -0.2647 C   0  0  0  0  0  0  0  0  0  0  0  0
   -1.3371   -1.7991    0.0137 C   0  0  0  0  0  0  0  0  0  0  0  0
   -2.7862   -1.8203   -0.2559 C   0  0  0  0  0  0  0  0  0  0  0  0
   -3.5565    0.4891    1.1310 C   0  0  1  0  0  0  0  0  0  0  0  0
   -3.4661   -0.8323    0.5770 C   0  0  1  0  0  0  0  0  0  0  0  0
   -5.1264   -0.7056    1.7918 C   0  0  0  0  0  0  0  0  0  0  0  0
   -5.6654   -1.4461    0.5060 C   0  0  2  0  0  0  0  0  0  0  0  0
   -4.9363   -0.4043   -0.1417 C   0  0  2  0  0  0  0  0  0  0  0  0
    4.8137   -0.4158    0.5372 O   0  0  0  0  0  0  0  0  0  0  0  0
   -7.0793   -1.5178    0.4578 O   0  0  0  0  0  0  0  0  0  0  0  0
   -5.6750   -1.8802    2.6389 O   0  0  0  0  0  0  0  0  0  0  0  0
   -4.9183   -0.3067   -1.5278 O   0  0  0  0  0  0  0  0  0  0  0  0
   -2.7034   -0.8969    2.2757 C   0  0  0  0  0  0  0  0  0  0  0  0
  2  1  1  0
  3  1  2  0
  4  2  2  0
  5  3  1  0
  6  4  1  0
  6  5  2  0
  6 18  1  0
  7  1  1  0
  8  7  1  0
  9  2  1  0
  8 10  1  6
 10  9  1  0
  7 11  1  1
 12 11  1  0
 13  8  1  0
 14 12  1  0
 14 13  1  0
 14 22  1  1
 13 15  1  1
 15 20  1  0
 16 15  1  0
 16 19  1  1
 17 14  1  0
 17 16  1  0
 17 21  1  6
M  END
>  <DRUGBANK_ID>  (1) 
DB12235

>  <COMMON_NAME>  (1) 
Estetrol

>  <CAS_NUMBER>  (1) 
15183-37-6

>  <UNII>  (1) 
ENB39R14VF

>  <SYNONYMS>  (1) 
15α-hydroxyestriol; Estétrol; Estetrol; Estetrolum; Oestetrol

$$$$
