662
     RDKit          3D

 28 29  0  0  0  0  0  0  0  0999 V2000
    1.1482    0.0152    0.4937 O   0  0  0  0  0  0  0  0  0  0  0  0
    9.5462    5.5691    1.4844 O   0  0  0  0  0  0  0  0  0  0  0  0
    9.9634    1.0149    3.1271 O   0  0  0  0  0  0  0  0  0  0  0  0
   10.1093    3.7940    3.6443 O   0  0  0  0  0  0  0  0  0  0  0  0
    8.3728    2.4365   -2.3234 O   0  0  0  0  0  0  0  0  0  0  0  0
    2.1439   -2.2010   -1.6057 N   0  0  0  0  0  0  0  0  0  0  0  0
    7.2275    0.7672   -1.3053 N   0  0  0  0  0  0  0  0  0  0  0  0
    0.7405   -1.9181   -1.2738 C   0  0  0  0  0  0  0  0  0  0  0  0
    5.2349    0.0477    0.0379 C   0  0  0  0  0  0  0  0  0  0  0  0
    6.7088    0.0156   -0.1828 C   0  0  0  0  0  0  0  0  0  0  0  0
    0.4871   -1.2267    0.1348 C   0  0  0  0  0  0  0  0  0  0  0  0
    2.5144    0.0160    0.7412 C   0  0  0  0  0  0  0  0  0  0  0  0
    8.5351    2.4097    0.0260 C   0  0  0  0  0  0  0  0  0  0  0  0
    4.6125   -1.1415    0.4347 C   0  0  0  0  0  0  0  0  0  0  0  0
    4.5076    1.2437    0.0557 C   0  0  0  0  0  0  0  0  0  0  0  0
    3.2743   -1.1538    0.8379 C   0  0  0  0  0  0  0  0  0  0  0  0
    3.1585    1.2359    0.4405 C   0  0  0  0  0  0  0  0  0  0  0  0
    8.0263    1.8852   -1.2673 C   0  0  0  0  0  0  0  0  0  0  0  0
    9.0416    1.5037    0.9584 C   0  0  0  0  0  0  0  0  0  0  0  0
    8.6541    3.7749    0.2789 C   0  0  0  0  0  0  0  0  0  0  0  0
    9.2927    4.2123    1.4567 C   0  0  0  0  0  0  0  0  0  0  0  0
    9.5372    1.9097    2.1893 C   0  0  0  0  0  0  0  0  0  0  0  0
    9.6564    3.2783    2.4597 C   0  0  0  0  0  0  0  0  0  0  0  0
    2.4127   -3.1592   -2.6624 C   0  0  0  0  0  0  0  0  0  0  0  0
    2.8021   -0.9724   -2.0437 C   0  0  0  0  0  0  0  0  0  0  0  0
   10.4367    6.0365    2.5001 C   0  0  0  0  0  0  0  0  0  0  0  0
    9.8255   -0.3707    2.8733 C   0  0  0  0  0  0  0  0  0  0  0  0
   10.4674    2.9437    4.7173 C   0  0  0  0  0  0  0  0  0  0  0  0
  1 11  1  0
  1 12  1  0
  2 21  1  0
  2 26  1  0
  3 22  1  0
  3 27  1  0
  4 23  1  0
  4 28  1  0
  5 18  2  0
  6  8  1  0
  6 24  1  0
  6 25  1  0
  7 10  1  0
  7 18  1  0
  8 11  1  0
  9 10  1  0
  9 14  2  0
  9 15  1  0
 12 16  2  0
 12 17  1  0
 13 18  1  0
 13 19  2  0
 13 20  1  0
 14 16  1  0
 15 17  2  0
 19 22  1  0
 20 21  2  0
 21 23  1  0
 22 23  2  0
M  END
>  <DRUGBANK_ID>  (1) 
DB00662

>  <SECONDARY_ACCESSION_NUMBERS>  (1) 
APRD01277

>  <COMMON_NAME>  (1) 
Trimethobenzamide

>  <CAS_NUMBER>  (1) 
138-56-7

>  <UNII>  (1) 
W2X096QY97

>  <SYNONYMS>  (1) 
N-[[4-(2-dimethylaminoethoxy)phenyl]methyl]-3,4,5-trimethoxybenzamide; Trimethobenzamide; Trimethobenzamidum; Trimetobenzamida

$$$$
