
     RDKit          3D

 27 30  0  0  0  0  0  0  0  0999 V2000
   -0.3792    2.0796    0.4488 C   0  0  0  0  0  0  0  0  0  0  0  0
   -1.6476    3.0764    0.4904 C   0  0  0  0  0  0  0  0  0  0  0  0
   -2.5286    2.9284    1.5212 C   0  0  0  0  0  0  0  0  0  0  0  0
   -0.4901    0.7748    1.1807 C   0  0  0  0  0  0  0  0  0  0  0  0
   -1.0539    1.3011    2.2820 C   0  0  0  0  0  0  0  0  0  0  0  0
   -0.2877    2.2288    3.2839 C   0  0  2  0  0  0  0  0  0  0  0  0
   -0.8939    1.9635    4.7051 C   0  0  0  0  0  0  0  0  0  0  0  0
   -2.5192    2.2438    4.7516 C   0  0  2  0  0  0  0  0  0  0  0  0
   -3.5435    2.5043    6.3296 C   0  0  1  0  0  0  0  0  0  0  0  0
   -5.4008    2.5971    7.0591 C   0  0  0  0  0  0  0  0  0  0  0  0
   -6.0281    1.1363    7.3162 C   0  0  0  0  0  0  0  0  0  0  0  0
   -4.6135    0.8792    7.2892 C   0  0  2  0  0  0  0  0  0  0  0  0
   -4.3406    1.1873    8.8754 C   0  0  0  0  0  0  0  0  0  0  0  0
   -3.0544    0.6976    9.4732 C   0  0  0  0  0  0  0  0  0  0  0  0
   -4.6114    1.7827    5.7435 C   0  0  1  0  0  0  0  0  0  0  0  0
   -4.8579    3.5522    5.1282 C   0  0  0  0  0  0  0  0  0  0  0  0
   -5.0037    0.7571    4.7014 C   0  0  0  0  0  0  0  0  0  0  0  0
   -4.5006    1.3698    3.5123 C   0  0  0  0  0  0  0  0  0  0  0  0
   -3.0435    1.3170    3.5479 C   0  0  1  0  0  0  0  0  0  0  0  0
   -2.5244    1.5529    2.1386 C   0  0  1  0  0  0  0  0  0  0  0  0
   -3.2523    0.6178    1.0680 C   0  0  0  0  0  0  0  0  0  0  0  0
    0.7647    2.4228    0.1737 O   0  0  0  0  0  0  0  0  0  0  0  0
   -5.1999    2.0224    2.7098 O   0  0  0  0  0  0  0  0  0  0  0  0
   -5.1700    1.7007    9.6429 O   0  0  0  0  0  0  0  0  0  0  0  0
   -2.5203    1.6477   10.3782 O   0  0  0  0  0  0  0  0  0  0  0  0
   -3.9049   -0.2789    6.9416 O   0  0  0  0  0  0  0  0  0  0  0  0
   -0.0456    3.9986    3.1228 Cl  0  0  0  0  0  0  0  0  0  0  0  0
  1  2  1  0
  1  4  1  0
  1 22  2  0
  2  3  2  0
  3 20  1  0
  4  5  2  0
  5  6  1  0
  5 20  1  0
  6  7  1  0
  6 27  1  6
  8  7  1  1
  8  9  1  0
  8 19  1  0
  9 10  1  6
  9 15  1  0
 10 11  1  0
 11 12  1  0
 12 15  1  0
 12 13  1  0
 12 26  1  6
 13 14  1  0
 13 24  2  0
 14 25  1  0
 15 17  1  0
 15 16  1  1
 17 18  1  0
 19 18  1  6
 18 23  2  0
 19 20  1  0
 20 21  1  6
M  END
>  <DRUGBANK_ID>  (1) 
DB15970

>  <COMMON_NAME>  (1) 
Chloroprednisone

>  <CAS_NUMBER>  (1) 
52080-57-6

>  <UNII>  (1) 
564IBO56IP

>  <SYNONYMS>  (1) 
Chloroprednisone; Chloroprednisonum; Cloroprednisona

$$$$
