
     RDKit          3D

 14 13  0  0  1  0  0  0  0  0999 V2000
   -1.3962   -5.7430    1.6378 C   0  0  0  0  0  0  0  0  0  0  0  0
   -0.0844   -5.1670    2.0703 C   0  0  0  0  0  0  0  0  0  0  0  0
    0.3881   -5.4706    3.1503 O   0  0  0  0  0  0  0  0  0  0  0  0
    0.4701   -4.2117    1.2964 O   0  0  0  0  0  0  0  0  0  0  0  0
    0.2649   -3.8480   -0.1238 C   0  0  2  0  0  0  0  0  0  0  0  0
    1.1255   -2.5917   -0.2992 C   0  0  0  0  0  0  0  0  0  0  0  0
    2.4045   -3.2482   -0.7995 C   0  0  0  0  0  0  0  0  0  0  0  0
    2.6065   -3.0521   -2.0320 O   0  0  0  0  0  0  0  0  0  0  0  0
    2.9934   -4.0035    0.0108 O   0  0  0  0  0  0  0  0  0  0  0  0
   -1.2286   -3.6798   -0.3657 C   0  0  0  0  0  0  0  0  0  0  0  0
   -1.7675   -3.3498   -1.7242 N   0  0  0  0  0  0  0  0  0  0  0  0
   -1.2570   -4.3779   -2.7315 C   0  0  0  0  0  0  0  0  0  0  0  0
   -3.2893   -3.4245   -1.6271 C   0  0  0  0  0  0  0  0  0  0  0  0
   -1.3585   -1.9650   -2.1248 C   0  0  0  0  0  0  0  0  0  0  0  0
  1  2  1  0
  2  3  2  0
  2  4  1  0
  5 10  1  1
  5  6  1  0
  5  4  1  0
  6  7  1  0
  7  8  2  0
  7  9  1  0
 10 11  1  0
 11 12  1  0
 11 13  1  0
 11 14  1  0
M  CHG  2   9  -1  11   1
M  END
>  <DRUGBANK_ID>  (1) 
DB08842

>  <COMMON_NAME>  (1) 
Acetylcarnitine

>  <CAS_NUMBER>  (1) 
3040-38-8

>  <UNII>  (1) 
6DH1W9VH8Q

>  <SYNONYMS>  (1) 
acetyl-L-carnitine; O-acetyl-L-carnitine ; O-Acetylcarnitine

$$$$
