NA4
     RDKit          3D

 25 26  0  0  0  0  0  0  0  0999 V2000
    1.2571    0.1811   -0.0161 C   0  0  0  0  0  0  0  0  0  0  0  0
    0.4884    1.3347   -0.0375 C   0  0  0  0  0  0  0  0  0  0  0  0
   -0.8699    1.1404   -0.0146 C   0  0  0  0  0  0  0  0  0  0  0  0
   -1.4470   -0.0886    0.0114 N   0  0  0  0  0  0  0  0  0  0  0  0
   -0.6225   -1.1824   -0.0006 C   0  0  0  0  0  0  0  0  0  0  0  0
    0.7621   -1.1171   -0.0217 C   0  0  0  0  0  0  0  0  0  0  0  0
    1.5603   -2.3876   -0.0405 C   0  0  0  0  0  0  0  0  0  0  0  0
    0.9625   -3.4652   -0.0112 O   0  0  0  0  0  0  0  0  0  0  0  0
    2.9391   -2.4439   -0.0863 N   0  0  0  0  0  0  0  0  0  0  0  0
    3.9579   -1.4066   -0.0669 C   0  0  1  0  0  0  0  0  0  0  0  0
    4.7348   -1.2720    1.2171 C   0  0  0  0  0  0  0  0  0  0  0  0
    4.7131   -1.1912   -1.3608 C   0  0  0  0  0  0  0  0  0  0  0  0
    4.4542   -0.2508   -2.1124 O   0  0  0  0  0  0  0  0  0  0  0  0
    5.7482   -2.3525    1.2541 C   0  0  0  0  0  0  0  0  0  0  0  0
    6.9466   -2.1939    1.2149 O   0  0  0  0  0  0  0  0  0  0  0  0
    5.1814   -3.5745    1.2318 O   0  0  0  0  0  0  0  0  0  0  0  0
    2.8508    4.1536   -0.9597 C   0  0  0  0  0  0  0  0  0  0  0  0
    2.1472    2.9453   -1.0112 C   0  0  0  0  0  0  0  0  0  0  0  0
    1.2012    2.6168   -0.0185 C   0  0  0  0  0  0  0  0  0  0  0  0
    1.0877    3.4632    1.0857 C   0  0  0  0  0  0  0  0  0  0  0  0
    1.8227    4.6496    1.1619 C   0  0  0  0  0  0  0  0  0  0  0  0
    2.6372    5.0499    0.0972 C   0  0  0  0  0  0  0  0  0  0  0  0
    3.2266    6.4181   -0.0182 C   0  0  0  0  0  0  0  0  0  0  0  0
    2.9293    7.2870    0.9712 O   0  0  0  0  0  0  0  0  0  0  0  0
    3.8898    6.7569   -0.9839 O   0  0  0  0  0  0  0  0  0  0  0  0
  1  2  2  0
  1  6  1  0
  2  3  1  0
  2 19  1  0
  3  4  2  0
  4  5  1  0
  5  6  2  0
  6  7  1  0
  7  8  2  0
  7  9  1  0
 10  9  1  0
 10 11  1  1
 10 12  1  0
 11 14  1  0
 12 13  2  0
 14 15  2  0
 14 16  1  0
 17 18  2  0
 17 22  1  0
 18 19  1  0
 19 20  2  0
 20 21  1  0
 21 22  2  0
 22 23  1  0
 23 24  1  0
 23 25  2  0
M  END
>  <DRUGBANK_ID>  (1) 
DB08251

>  <COMMON_NAME>  (1) 
4-[5-(2-CARBOXY-1-FORMYL-ETHYLCARBAMOYL)-PYRIDIN-3-YL]-BENZOIC ACID

$$$$
