1450
     RDKit          3D

 30 35  0  0  1  0  0  0  0  0999 V2000
    1.0254   -1.0667   -1.1088 O   0  0  0  0  0  0  0  0  0  0  0  0
    1.5206   -5.1509   -2.7271 O   0  0  0  0  0  0  0  0  0  0  0  0
    3.3385   -7.0594   -0.6605 O   0  0  0  0  0  0  0  0  0  0  0  0
    2.0128    1.9940   -0.4198 O   0  0  0  0  0  0  0  0  0  0  0  0
    4.3396   -2.5472    2.1915 N   0  0  0  0  0  0  0  0  0  0  0  0
    3.2823   -3.6635    0.0170 C   0  0  2  0  0  0  0  0  0  0  0  0
    2.3444   -2.5135    0.1811 C   0  0  1  0  0  0  0  0  0  0  0  0
    1.2315   -4.1239   -1.7827 C   0  0  1  0  0  0  0  0  0  0  0  0
    1.1176   -2.6024   -0.7457 C   0  0  2  0  0  0  0  0  0  0  0  0
    2.4368   -4.8141    0.5458 C   0  0  0  0  0  0  0  0  0  0  0  0
    1.4665   -5.3111   -0.5290 C   0  0  2  0  0  0  0  0  0  0  0  0
    4.5672   -3.2665    0.8671 C   0  0  1  0  0  0  0  0  0  0  0  0
    3.6138   -3.7954   -1.5514 C   0  0  0  0  0  0  0  0  0  0  0  0
    2.4443   -3.4137   -2.4079 C   0  0  0  0  0  0  0  0  0  0  0  0
    1.8995   -2.2968    1.6786 C   0  0  0  0  0  0  0  0  0  0  0  0
    3.1304   -1.3857   -0.4028 C   0  0  0  0  0  0  0  0  0  0  0  0
    5.4468   -2.4269   -0.0887 C   0  0  0  0  0  0  0  0  0  0  0  0
    1.8934   -6.8950   -0.6755 C   0  0  1  0  0  0  0  0  0  0  0  0
    2.9826   -2.7355    2.6870 C   0  0  0  0  0  0  0  0  0  0  0  0
    4.5436   -1.2468   -0.5388 C   0  0  0  0  0  0  0  0  0  0  0  0
    2.2315   -0.4083   -0.7698 C   0  0  0  0  0  0  0  0  0  0  0  0
    1.4894   -7.7741   -1.8696 C   0  0  0  0  0  0  0  0  0  0  0  0
    4.7336   -1.1296    2.2988 C   0  0  0  0  0  0  0  0  0  0  0  0
    1.4509   -7.6507    0.6178 C   0  0  0  0  0  0  0  0  0  0  0  0
    5.0826   -0.0010   -0.7051 C   0  0  0  0  0  0  0  0  0  0  0  0
    2.7697    0.8574   -0.6419 C   0  0  0  0  0  0  0  0  0  0  0  0
    1.3372   -5.2655   -4.1254 C   0  0  0  0  0  0  0  0  0  0  0  0
    4.1876    1.0771   -0.5693 C   0  0  0  0  0  0  0  0  0  0  0  0
    0.1070   -8.3980   -1.8886 C   0  0  0  0  0  0  0  0  0  0  0  0
   -1.0164   -7.3983   -1.7068 C   0  0  0  0  0  0  0  0  0  0  0  0
  9  1  1  6
  1 21  1  0
  2 27  1  0
  4 26  1  0
  5 12  1  0
  5 19  1  0
  5 23  1  0
  6  7  1  0
  6 10  1  1
  6 12  1  0
  6 13  1  0
  7  9  1  0
  7 15  1  1
  7 16  1  0
  8  2  1  1
  8  9  1  0
  8 11  1  0
  8 14  1  0
 11 10  1  1
 11 18  1  0
 12 17  1  6
 13 14  1  0
 15 19  1  0
 16 20  2  0
 16 21  1  0
 17 20  1  0
 18 24  1  1
 18 22  1  0
 18  3  1  0
 20 25  1  0
 21 26  2  0
 22 29  1  0
 25 28  2  0
 26 28  1  0
 29 30  1  0
M  END
>  <DRUGBANK_ID>  (1) 
DB01450

>  <COMMON_NAME>  (1) 
Dihydroetorphine

>  <CAS_NUMBER>  (1) 
14357-76-7

>  <UNII>  (1) 
QQX8S479YV

$$$$
