RTR
     RDKit          3D

 30 33  0  0  0  0  0  0  0  0999 V2000
    1.0404   -0.0733   -0.1587 N   0  0  0  0  0  0  0  0  0  0  0  0
    0.4141   -0.7748    0.7229 C   0  0  0  0  0  0  0  0  0  0  0  0
    1.0737   -1.4854    1.6842 N   0  0  0  0  0  0  0  0  0  0  0  0
   -1.0650   -0.8060    0.6902 C   0  0  0  0  0  0  0  0  0  0  0  0
   -1.7722   -0.8683   -0.5154 C   0  0  0  0  0  0  0  0  0  0  0  0
   -3.1720   -0.9824   -0.5132 C   0  0  0  0  0  0  0  0  0  0  0  0
   -3.8727   -1.0206    0.6990 C   0  0  0  0  0  0  0  0  0  0  0  0
   -3.1215   -0.9356    1.8856 C   0  0  0  0  0  0  0  0  0  0  0  0
   -1.7434   -0.8062    1.8946 C   0  0  0  0  0  0  0  0  0  0  0  0
   -5.3934   -1.0979    0.7491 C   0  0  0  0  0  0  0  0  0  0  0  0
   -5.8475   -2.2993    1.4541 N   0  0  0  0  0  0  0  0  0  0  0  0
   -5.7889   -2.3093    2.8533 C   0  0  0  0  0  0  0  0  0  0  0  0
   -5.4919   -1.3378    3.5467 O   0  0  0  0  0  0  0  0  0  0  0  0
   -5.9876   -3.6389    3.5495 C   0  0  0  0  0  0  0  0  0  0  0  0
   -7.0785   -4.4396    3.0043 N   0  0  0  0  0  0  0  0  0  0  0  0
   -6.8317   -4.5709    1.4774 C   0  0  0  0  0  0  0  0  0  0  0  0
   -6.8072   -3.1934    0.7879 C   0  0  0  0  0  0  0  0  0  0  0  0
   -8.6326   -3.8335    3.4606 S   0  0  0  0  0  0  0  0  0  0  0  0
   -8.7169   -2.4644    2.9472 O   0  0  0  0  0  0  0  0  0  0  0  0
   -9.5346   -4.8376    2.9776 O   0  0  0  0  0  0  0  0  0  0  0  0
   -9.0864   -3.5639    5.2804 C   0  0  0  0  0  0  0  0  0  0  0  0
   -8.6894   -2.9771    6.5173 C   0  0  0  0  0  0  0  0  0  0  0  0
   -9.7181   -3.1321    7.6306 C   0  0  0  0  0  0  0  0  0  0  0  0
  -10.8642   -3.6659    7.0563 C   0  0  0  0  0  0  0  0  0  0  0  0
  -10.7838   -3.8090    5.3745 S   0  0  0  0  0  0  0  0  0  0  0  0
  -12.0251   -4.0089    7.7655 C   0  0  0  0  0  0  0  0  0  0  0  0
  -12.0836   -3.8377    9.1314 C   0  0  0  0  0  0  0  0  0  0  0  0
  -13.5315   -4.2971    9.9415 Cl  0  0  0  0  0  0  0  0  0  0  0  0
  -11.0053   -3.2758    9.7916 C   0  0  0  0  0  0  0  0  0  0  0  0
   -9.8409   -2.8619    9.0587 C   0  0  0  0  0  0  0  0  0  0  0  0
  1  2  2  0
  2  3  1  0
  2  4  1  0
  4  5  2  0
  4  9  1  0
  5  6  1  0
  6  7  2  0
  7  8  1  0
  7 10  1  0
  8  9  2  0
 10 11  1  0
 11 12  1  0
 11 17  1  0
 12 13  2  0
 12 14  1  0
 14 15  1  0
 15 16  1  0
 15 18  1  0
 16 17  1  0
 18 19  2  0
 18 20  2  0
 18 21  1  0
 21 22  2  0
 21 25  1  0
 22 23  1  0
 23 24  2  0
 23 30  1  0
 24 25  1  0
 24 26  1  0
 26 27  2  0
 27 28  1  0
 27 29  1  0
 29 30  2  0
M  END
>  <DRUGBANK_ID>  (1) 
DB08495

>  <COMMON_NAME>  (1) 
4-({4-[(6-CHLORO-1-BENZOTHIEN-2-YL)SULFONYL]-2-OXOPIPERAZIN-1-YL}METHYL)BENZENECARBOXIMIDAMIDE

$$$$
