
     RDKit          3D

 16 16  0  0  1  0  0  0  0  0999 V2000
    6.6669    3.9231   -2.5806 O   0  0  0  0  0  0  0  0  0  0  0  0
    5.7506    2.7206   -2.2465 P   0  0  0  0  0  0  0  0  0  0  0  0
    4.6128    3.7964   -1.8345 O   0  0  0  0  0  0  0  0  0  0  0  0
    5.3086    2.5505   -3.8065 O   0  0  0  0  0  0  0  0  0  0  0  0
    4.7267    1.3770   -1.8731 O   0  0  0  0  0  0  0  0  0  0  0  0
    4.5091    1.1836   -0.4760 C   0  0  2  0  0  0  0  0  0  0  0  0
    3.6219    2.3068   -0.0245 C   0  0  0  0  0  0  0  0  0  0  0  0
    4.0480    3.3189    0.7533 C   0  0  0  0  0  0  0  0  0  0  0  0
    3.3760    4.6503    0.7622 C   0  0  0  0  0  0  0  0  0  0  0  0
    3.8504    5.6433    1.3153 O   0  0  0  0  0  0  0  0  0  0  0  0
    2.2913    4.7465   -0.0097 O   0  0  0  0  0  0  0  0  0  0  0  0
    5.4034    3.3267    1.3872 C   0  0  0  0  0  0  0  0  0  0  0  0
    6.2372    2.0464    1.2846 C   0  0  1  0  0  0  0  0  0  0  0  0
    6.1651    1.4120    2.5662 O   0  0  0  0  0  0  0  0  0  0  0  0
    5.8696    0.9898    0.2284 C   0  0  2  0  0  0  0  0  0  0  0  0
    6.9374    0.8011   -0.7263 O   0  0  0  0  0  0  0  0  0  0  0  0
  1  2  2  0
  2  3  1  0
  2  4  1  0
  2  5  1  0
  6  7  1  0
  6 15  1  0
  6  5  1  6
  7  8  2  0
  8  9  1  0
  8 12  1  0
  9 10  2  0
  9 11  1  0
 12 13  1  0
 13 14  1  1
 13 15  1  0
 15 16  1  6
M  END
>  <DRUGBANK_ID>  (1) 
DB04328

>  <SECONDARY_ACCESSION_NUMBERS>  (1) 
EXPT02832

>  <COMMON_NAME>  (1) 
Shikimate-3-Phosphate

$$$$
