
     RDKit          3D

  6  6  0  0  0  0  0  0  0  0999 V2000
   -0.7322    1.2101    0.2358 C   0  0  0  0  0  0  0  0  0  0  0  0
    0.7195    1.1637   -0.2657 C   0  0  0  0  0  0  0  0  0  0  0  0
    1.3833   -0.0288    0.1734 O   0  0  0  0  0  0  0  0  0  0  0  0
    0.6716   -1.1913   -0.2707 C   0  0  0  0  0  0  0  0  0  0  0  0
   -0.7782   -1.1818    0.2373 C   0  0  0  0  0  0  0  0  0  0  0  0
   -1.5070    0.0283   -0.1912 N   0  0  0  0  0  0  0  0  0  0  0  0
  1  2  1  0
  1  6  1  0
  2  3  1  0
  3  4  1  0
  4  5  1  0
  5  6  1  0
M  END
>  <DRUGBANK_ID>  (1) 
DB13669

>  <COMMON_NAME>  (1) 
Morpholine

>  <CAS_NUMBER>  (1) 
110-91-8

>  <UNII>  (1) 
8B2ZCK305O

$$$$
