
     RDKit          3D

 32 35  0  0  1  0  0  0  0  0999 V2000
    0.9095   -0.0511    0.0215 C   0  0  0  0  0  0  0  0  0  0  0  0
    0.3318    0.3910    1.2837 N   0  0  0  0  0  0  0  0  0  0  0  0
   -0.3717    1.6601    1.2553 C   0  0  0  0  0  0  0  0  0  0  0  0
    0.7507   -0.2310    2.4588 C   0  0  0  0  0  0  0  0  0  0  0  0
    1.5761   -1.1452    2.4569 O   0  0  0  0  0  0  0  0  0  0  0  0
    0.2977    0.3150    3.6362 N   0  0  0  0  0  0  0  0  0  0  0  0
   -1.0555    0.6690    4.0209 C   0  0  0  0  0  0  0  0  0  0  0  0
   -0.8209    1.8793    4.9099 C   0  0  0  0  0  0  0  0  0  0  0  0
    0.3342    1.3599    5.7613 C   0  0  1  0  0  0  0  0  0  0  0  0
    1.1608    0.4649    4.7906 C   0  0  0  0  0  0  0  0  0  0  0  0
    1.1231    2.3531    6.4475 N   0  0  0  0  0  0  0  0  0  0  0  0
    1.3069    2.4859    7.8020 C   0  0  0  0  0  0  0  0  0  0  0  0
    1.9259    3.4736    8.2004 O   0  0  0  0  0  0  0  0  0  0  0  0
    0.7062    1.5176    8.7290 C   0  0  0  0  0  0  0  0  0  0  0  0
    0.6501    0.1305    8.6977 C   0  0  0  0  0  0  0  0  0  0  0  0
    1.2237   -0.8331    7.7386 C   0  0  0  0  0  0  0  0  0  0  0  0
   -0.0889   -0.3043    9.7772 N   0  0  0  0  0  0  0  0  0  0  0  0
   -0.4684    0.7730   10.5511 C   0  0  0  0  0  0  0  0  0  0  0  0
   -1.1902    0.5719   11.7579 C   0  0  0  0  0  0  0  0  0  0  0  0
   -1.7394    1.5030   12.5762 C   0  0  0  0  0  0  0  0  0  0  0  0
   -2.0187    3.0293   12.5907 C   0  0  0  0  0  0  0  0  0  0  0  0
   -2.0625    3.8648   11.7259 O   0  0  0  0  0  0  0  0  0  0  0  0
   -2.3946    3.3400   13.8824 N   0  0  0  0  0  0  0  0  0  0  0  0
   -2.6378    2.1949   14.6075 C   0  0  0  0  0  0  0  0  0  0  0  0
   -2.2237    1.0624   13.8957 C   0  0  0  0  0  0  0  0  0  0  0  0
   -2.3494   -0.1958   14.4418 C   0  0  0  0  0  0  0  0  0  0  0  0
   -2.9925   -0.2970   15.6620 C   0  0  0  0  0  0  0  0  0  0  0  0
   -3.1827   -1.5152   16.1807 F   0  0  0  0  0  0  0  0  0  0  0  0
   -3.4730    0.8321   16.3401 C   0  0  0  0  0  0  0  0  0  0  0  0
   -3.2765    2.1130   15.8226 C   0  0  0  0  0  0  0  0  0  0  0  0
    0.1136    1.8755    9.9643 C   0  0  0  0  0  0  0  0  0  0  0  0
    0.1050    3.2281   10.5160 C   0  0  0  0  0  0  0  0  0  0  0  0
  1  2  1  0
  2  3  1  0
  2  4  1  0
  4  5  2  0
  4  6  1  0
  6  7  1  0
  6 10  1  0
  7  8  1  0
  9  8  1  0
  9 10  1  0
  9 11  1  6
 11 12  1  0
 12 13  2  0
 12 14  1  0
 14 15  2  0
 14 31  1  0
 15 16  1  0
 15 17  1  0
 17 18  1  0
 18 19  1  0
 18 31  2  0
 19 20  2  0
 20 21  1  0
 20 25  1  0
 21 22  2  0
 21 23  1  0
 23 24  1  0
 24 25  2  0
 24 30  1  0
 25 26  1  0
 26 27  2  0
 27 28  1  0
 27 29  1  0
 29 30  2  0
 31 32  1  0
M  END
>  <DRUGBANK_ID>  (1) 
DB15247

>  <COMMON_NAME>  (1) 
Vorolanib

>  <CAS_NUMBER>  (1) 
1013920-15-4

>  <UNII>  (1) 
YP8G3I74EL

>  <SYNONYMS>  (1) 
Vorolanib

$$$$
