N41
     RDKit          3D

 27 30  0  0  0  0  0  0  0  0999 V2000
   -1.9636   -0.7120    0.2098 C   0  0  0  0  0  0  0  0  0  0  0  0
   -2.2480    3.3845    0.1674 C   0  0  0  0  0  0  0  0  0  0  0  0
   -3.0962    3.1779   -1.1161 C   0  0  0  0  0  0  0  0  0  0  0  0
   -4.3220    4.0972   -1.1646 C   0  0  0  0  0  0  0  0  0  0  0  0
   -5.2264    3.7464   -2.3551 C   0  0  0  0  0  0  0  0  0  0  0  0
   -5.6931    2.2924   -2.3263 C   0  0  0  0  0  0  0  0  0  0  0  0
   -4.5073    1.3674   -2.3226 C   0  0  0  0  0  0  0  0  0  0  0  0
   -3.5724    1.7371   -1.2128 C   0  0  0  0  0  0  0  0  0  0  0  0
   -3.5789   -4.8850   -1.1951 C   0  0  0  0  0  0  0  0  0  0  0  0
   -2.8579   -5.5595   -0.1928 C   0  0  0  0  0  0  0  0  0  0  0  0
   -2.4188   -4.8449    0.9196 C   0  0  0  0  0  0  0  0  0  0  0  0
   -2.6662   -3.4870    1.0111 C   0  0  0  0  0  0  0  0  0  0  0  0
   -1.9189   -7.6432    0.6982 N   0  0  0  0  0  0  0  0  0  0  0  0
   -1.9961    0.6129    0.4759 N   0  0  0  0  0  0  0  0  0  0  0  0
   -0.8819    1.3774    0.2717 C   0  0  0  0  0  0  0  0  0  0  0  0
   -0.9585    2.7537    0.1471 O   0  0  0  0  0  0  0  0  0  0  0  0
    0.3376    0.7284    0.0974 C   0  0  0  0  0  0  0  0  0  0  0  0
    1.6486    1.1382   -0.0081 N   0  0  0  0  0  0  0  0  0  0  0  0
    1.5484   -1.0835   -0.0136 N   0  0  0  0  0  0  0  0  0  0  0  0
    0.2613   -0.6469    0.0287 C   0  0  0  0  0  0  0  0  0  0  0  0
   -0.8297   -1.4094    0.0235 N   0  0  0  0  0  0  0  0  0  0  0  0
   -3.1844   -1.3903    0.0152 N   0  0  0  0  0  0  0  0  0  0  0  0
   -3.3006   -2.7854   -0.0163 C   0  0  0  0  0  0  0  0  0  0  0  0
   -3.8369   -3.5037   -1.0899 C   0  0  0  0  0  0  0  0  0  0  0  0
   -2.5972   -7.0205   -0.3137 C   0  0  0  0  0  0  0  0  0  0  0  0
    2.3496    0.0232   -0.0070 C   0  0  0  0  0  0  0  0  0  0  0  0
   -2.9910   -7.6672   -1.2846 O   0  0  0  0  0  0  0  0  0  0  0  0
  1 14  2  0
  1 21  1  0
  1 22  1  0
  2  3  1  0
  2 16  1  0
  3  4  1  0
  3  8  1  0
  4  5  1  0
  5  6  1  0
  6  7  1  0
  7  8  1  0
  9 10  2  0
  9 24  1  0
 10 11  1  0
 10 25  1  0
 11 12  2  0
 12 23  1  0
 13 25  1  0
 14 15  1  0
 15 16  1  0
 15 17  2  0
 17 18  1  0
 17 20  1  0
 18 26  2  0
 19 20  1  0
 19 26  1  0
 20 21  2  0
 22 23  1  0
 23 24  2  0
 25 27  2  0
M  END
>  <DRUGBANK_ID>  (1) 
DB08241

>  <COMMON_NAME>  (1) 
4-(6-CYCLOHEXYLMETHOXY-9H-PURIN-2-YLAMINO)--BENZAMIDE

$$$$
