
     RDKit          3D

 25 27  0  0  1  0  0  0  0  0999 V2000
    1.0987    0.0121    0.0477 Cl  0  0  0  0  0  0  0  0  0  0  0  0
   12.7230    0.9883   -0.1594 O   0  0  0  0  0  0  0  0  0  0  0  0
    8.1506   -2.1084    0.1715 O   0  0  0  0  0  0  0  0  0  0  0  0
    5.8527   -2.0687    0.0838 O   0  0  0  0  0  0  0  0  0  0  0  0
   13.2890    2.0730   -3.4915 O   0  0  0  0  0  0  0  0  0  0  0  0
   12.0794    0.2778   -3.1723 O   0  0  0  0  0  0  0  0  0  0  0  0
    6.9374   -0.0696    0.0821 N   0  0  0  0  0  0  0  0  0  0  0  0
   13.5933    0.8494   -1.2958 C   0  0  0  0  0  0  0  0  0  0  0  0
   11.6752    0.1165   -0.0266 C   0  0  0  0  0  0  0  0  0  0  0  0
   14.4896   -0.3810   -1.1403 C   0  0  0  0  0  0  0  0  0  0  0  0
    9.3473   -1.4332    0.1933 C   0  0  0  0  0  0  0  0  0  0  0  0
    4.9133   -1.0674    0.0629 C   0  0  0  0  0  0  0  0  0  0  0  0
    5.5932    0.1427    0.0645 C   0  0  0  0  0  0  0  0  0  0  0  0
   11.4204   -0.9600   -0.8752 C   0  0  0  0  0  0  0  0  0  0  0  0
   10.7980    0.3273    1.0341 C   0  0  0  0  0  0  0  0  0  0  0  0
   12.9355    1.0372   -2.7064 C   0  0  0  0  0  0  0  0  0  0  0  0
   10.2420   -1.6869   -0.8240 C   0  0  0  0  0  0  0  0  0  0  0  0
    9.6739   -0.4994    1.1833 C   0  0  0  0  0  0  0  0  0  0  0  0
    7.0365   -1.3813    0.1061 C   0  0  0  0  0  0  0  0  0  0  0  0
    3.5256   -1.1809    0.0529 C   0  0  0  0  0  0  0  0  0  0  0  0
    4.8739    1.3417    0.0584 C   0  0  0  0  0  0  0  0  0  0  0  0
    2.8233    0.0338    0.0494 C   0  0  0  0  0  0  0  0  0  0  0  0
    3.4765    1.2722    0.0512 C   0  0  0  0  0  0  0  0  0  0  0  0
   14.3020    3.0341   -3.1980 C   0  0  0  0  0  0  0  0  0  0  0  0
   13.8867    3.9467   -2.0616 C   0  0  0  0  0  0  0  0  0  0  0  0
  1 22  1  0
  2  8  1  0
  2  9  1  0
  3 11  1  0
  3 19  1  0
  4 12  1  0
  4 19  1  0
  5 16  1  0
  5 24  1  0
  6 16  2  0
  7 13  1  0
  7 19  2  0
  8 10  1  0
  8 16  1  0
  9 14  2  0
  9 15  1  0
 11 17  2  0
 11 18  1  0
 12 13  2  0
 12 20  1  0
 13 21  1  0
 14 17  1  0
 15 18  2  0
 20 22  2  0
 21 23  2  0
 22 23  1  0
 24 25  1  0
M  END
>  <DRUGBANK_ID>  (1) 
DB05252

>  <COMMON_NAME>  (1) 
Fenoxaprop-ethyl

>  <CAS_NUMBER>  (1) 
66441-23-4

>  <UNII>  (1) 
7U20WEM458

>  <SYNONYMS>  (1) 
Fenoxaprop ethyl

$$$$
