
     RDKit          3D

 21 23  0  0  0  0  0  0  0  0999 V2000
   -3.7659    0.1574    0.4101 S   0  0  0  0  0  0  0  0  0  0  0  0
    0.1162   -1.6386    0.1568 N   0  0  0  0  0  0  0  0  0  0  0  0
   -2.4861   -4.4014   -1.5795 N   0  0  0  0  0  0  0  0  0  0  0  0
   -2.6100   -1.3633    0.0777 C   0  0  0  0  0  0  0  0  0  0  0  0
   -1.0977   -0.9009    0.1403 C   0  0  0  0  0  0  0  0  0  0  0  0
   -0.6835    0.4372    0.0644 C   0  0  0  0  0  0  0  0  0  0  0  0
   -3.0041   -1.8272   -1.4144 C   0  0  0  0  0  0  0  0  0  0  0  0
   -1.5602    1.6564    0.0339 C   0  0  0  0  0  0  0  0  0  0  0  0
    0.7365    0.5121    0.0541 C   0  0  0  0  0  0  0  0  0  0  0  0
    1.2216   -0.8047    0.0461 C   0  0  0  0  0  0  0  0  0  0  0  0
   -2.9479    1.4266   -0.5178 C   0  0  0  0  0  0  0  0  0  0  0  0
   -3.2328   -2.0536    1.3626 C   0  0  0  0  0  0  0  0  0  0  0  0
   -2.2487   -3.0387   -2.1312 C   0  0  0  0  0  0  0  0  0  0  0  0
    0.4146   -3.0654    0.2553 C   0  0  0  0  0  0  0  0  0  0  0  0
    1.6700    1.5519    0.0479 C   0  0  0  0  0  0  0  0  0  0  0  0
    2.5933   -1.0758   -0.0225 C   0  0  0  0  0  0  0  0  0  0  0  0
   -0.0007   -3.6962    1.5735 C   0  0  0  0  0  0  0  0  0  0  0  0
    3.0406    1.2840    0.0359 C   0  0  0  0  0  0  0  0  0  0  0  0
    3.5008   -0.0310   -0.0101 C   0  0  0  0  0  0  0  0  0  0  0  0
   -1.5192   -5.4426   -1.8785 C   0  0  0  0  0  0  0  0  0  0  0  0
   -2.5205   -4.2811   -0.1674 C   0  0  0  0  0  0  0  0  0  0  0  0
  1  4  1  0
  1 11  1  0
  2  5  1  0
  2 10  1  0
  2 14  1  0
  3 13  1  0
  3 20  1  0
  3 21  1  0
  4  5  1  0
  4  7  1  0
  4 12  1  0
  5  6  2  0
  6  8  1  0
  6  9  1  0
  7 13  1  0
  8 11  1  0
  9 10  2  0
  9 15  1  0
 10 16  1  0
 14 17  1  0
 15 18  2  0
 16 19  2  0
 18 19  1  0
M  END
>  <DRUGBANK_ID>  (1) 
DB09192

>  <COMMON_NAME>  (1) 
Tandamine

>  <CAS_NUMBER>  (1) 
42408-80-0

>  <UNII>  (1) 
6L5FH5A43E

>  <SYNONYMS>  (1) 
Tandamine

$$$$
