M25
     RDKit          3D

 16 16  0  0  0  0  0  0  0  0999 V2000
    1.4253   -0.2693    0.0441 C   0  0  0  0  0  0  0  0  0  0  0  0
    0.9600    1.0403   -0.0437 C   0  0  0  0  0  0  0  0  0  0  0  0
   -0.4099    1.2759   -0.0965 C   0  0  0  0  0  0  0  0  0  0  0  0
   -1.3334    0.2194   -0.0769 C   0  0  0  0  0  0  0  0  0  0  0  0
   -0.8488   -1.0942   -0.0217 C   0  0  0  0  0  0  0  0  0  0  0  0
    0.5279   -1.3401    0.0311 C   0  0  0  0  0  0  0  0  0  0  0  0
    3.1695   -0.5057    0.1994 S   0  0  0  0  0  0  0  0  0  0  0  0
    3.7939   -0.1102   -1.0365 O   0  0  0  0  0  0  0  0  0  0  0  0
    3.5754    0.0272    1.4827 O   0  0  0  0  0  0  0  0  0  0  0  0
    3.3691   -2.1770    0.2929 N   0  0  0  0  0  0  0  0  0  0  0  0
   -2.8175    0.4990   -0.1781 C   0  0  0  0  0  0  0  0  0  0  0  0
   -3.4082    1.2522    1.0236 C   0  0  0  0  0  0  0  0  0  0  0  0
   -2.8623    2.5891    1.2048 N   0  0  0  0  0  0  0  0  0  0  0  0
   -3.4742    3.7940    1.0442 C   0  0  0  0  0  0  0  0  0  0  0  0
   -4.9560    3.7877    0.8229 C   0  0  0  0  0  0  0  0  0  0  0  0
   -2.8185    4.8302    1.1118 O   0  0  0  0  0  0  0  0  0  0  0  0
  1  7  1  0
  1  6  2  0
  1  2  1  0
  2  3  2  0
  3  4  1  0
  4  5  2  0
  4 11  1  0
  5  6  1  0
  7  8  2  0
  7  9  2  0
  7 10  1  0
 11 12  1  0
 12 13  1  0
 13 14  1  0
 14 16  2  0
 14 15  1  0
M  END
>  <DRUGBANK_ID>  (1) 
DB08155

>  <COMMON_NAME>  (1) 
N-{2-[4-(AMINOSULFONYL)PHENYL]ETHYL}ACETAMIDE

>  <UNII>  (1) 
SL3TT94T4C

$$$$
