
     RDKit          3D

 27 30  0  0  1  0  0  0  0  0999 V2000
    0.8694   -0.1320   -0.1787 C   0  0  0  0  0  0  0  0  0  0  0  0
    0.4282   -1.4859   -0.6335 C   0  0  0  0  0  0  0  0  0  0  0  0
    0.2057   -2.6417    0.0950 C   0  0  0  0  0  0  0  0  0  0  0  0
    0.2520   -3.7431   -0.8106 C   0  0  0  0  0  0  0  0  0  0  0  0
    0.2527   -3.2000   -2.0964 C   0  0  0  0  0  0  0  0  0  0  0  0
    0.2141   -1.8242   -1.9537 N   0  0  0  0  0  0  0  0  0  0  0  0
    0.2962   -4.0037   -3.2448 C   0  0  0  0  0  0  0  0  0  0  0  0
    0.3901   -5.3905   -3.0803 C   0  0  0  0  0  0  0  0  0  0  0  0
    0.4223   -5.9611   -1.8122 C   0  0  0  0  0  0  0  0  0  0  0  0
    0.3250   -5.1486   -0.6698 C   0  0  0  0  0  0  0  0  0  0  0  0
    0.3259   -5.6973    0.5558 F   0  0  0  0  0  0  0  0  0  0  0  0
    0.4381   -7.3672   -1.6287 O   0  0  0  0  0  0  0  0  0  0  0  0
    0.6172   -8.2177   -2.7177 C   0  0  0  0  0  0  0  0  0  0  0  0
   -0.4323   -9.1685   -2.8732 C   0  0  0  0  0  0  0  0  0  0  0  0
   -1.6865   -9.3567   -2.3169 C   0  0  0  0  0  0  0  0  0  0  0  0
   -2.0775  -10.6610   -2.7557 C   0  0  0  0  0  0  0  0  0  0  0  0
   -1.2264  -11.0393   -3.7750 C   0  0  0  0  0  0  0  0  0  0  0  0
   -0.2219  -10.1108   -3.8359 N   0  0  0  0  0  0  0  0  0  0  0  0
    0.8129  -10.0902   -4.7021 N   0  0  0  0  0  0  0  0  0  0  0  0
    1.6589   -9.1237   -4.5110 C   0  0  0  0  0  0  0  0  0  0  0  0
    1.6288   -8.1872   -3.4987 N   0  0  0  0  0  0  0  0  0  0  0  0
   -3.0480  -11.4948   -2.3168 O   0  0  0  0  0  0  0  0  0  0  0  0
   -3.6888  -11.1127   -1.0991 C   0  0  0  0  0  0  0  0  0  0  0  0
   -2.8533  -11.2350    0.2357 C   0  0  1  0  0  0  0  0  0  0  0  0
   -1.4589  -10.5806    0.4153 C   0  0  0  0  0  0  0  0  0  0  0  0
   -3.6796  -10.7821    1.3219 O   0  0  0  0  0  0  0  0  0  0  0  0
   -2.3847   -8.4365   -1.3721 C   0  0  0  0  0  0  0  0  0  0  0  0
  1  2  1  0
  2  3  2  0
  2  6  1  0
  3  4  1  0
  4  5  2  0
  4 10  1  0
  5  6  1  0
  5  7  1  0
  7  8  2  0
  8  9  1  0
  9 10  2  0
  9 12  1  0
 10 11  1  0
 12 13  1  0
 13 14  1  0
 13 21  2  0
 14 15  2  0
 14 18  1  0
 15 16  1  0
 15 27  1  0
 16 17  2  0
 16 22  1  0
 17 18  1  0
 18 19  1  0
 19 20  2  0
 20 21  1  0
 22 23  1  0
 23 24  1  0
 24 25  1  6
 24 26  1  0
M  END
>  <DRUGBANK_ID>  (1) 
DB11958

>  <COMMON_NAME>  (1) 
Brivanib

>  <CAS_NUMBER>  (1) 
649735-46-6

>  <UNII>  (1) 
DDU33B674I

>  <SYNONYMS>  (1) 
Brivanib

$$$$
