
     RDKit          3D

 27 29  0  0  0  0  0  0  0  0999 V2000
    2.7151    0.7918   -0.4755 C   0  0  0  0  0  0  0  0  0  0  0  0
   -2.4845    1.0575   -0.0175 C   0  0  0  0  0  0  0  0  0  0  0  0
    1.7370   -9.5451    3.0849 C   0  0  0  0  0  0  0  0  0  0  0  0
   -0.6842   -9.5512   -1.1041 C   0  0  0  0  0  0  0  0  0  0  0  0
    1.8471    2.9921    1.5234 C   0  0  0  0  0  0  0  0  0  0  0  0
    1.1618    3.1353    0.1338 C   0  0  0  0  0  0  0  0  0  0  0  0
    1.2263   -1.1415   -0.1156 C   0  0  0  0  0  0  0  0  0  0  0  0
   -1.1887   -1.0777   -0.0400 C   0  0  0  0  0  0  0  0  0  0  0  0
    1.1515   -6.0922    2.0547 C   0  0  0  0  0  0  0  0  0  0  0  0
    0.5276   -8.1640    0.9930 C   0  0  0  0  0  0  0  0  0  0  0  0
    1.3062    0.2587   -0.2508 C   0  0  0  0  0  0  0  0  0  0  0  0
   -1.1599    0.3257   -0.0737 C   0  0  0  0  0  0  0  0  0  0  0  0
   -0.0002   -1.8014   -0.0326 C   0  0  0  0  0  0  0  0  0  0  0  0
    1.1389   -7.4905    2.0491 C   0  0  0  0  0  0  0  0  0  0  0  0
    0.5557   -5.3701    1.0094 C   0  0  0  0  0  0  0  0  0  0  0  0
   -0.0763   -7.4745   -0.0619 C   0  0  0  0  0  0  0  0  0  0  0  0
   -0.0614   -6.0658   -0.0485 C   0  0  0  0  0  0  0  0  0  0  0  0
    0.0933    1.0018   -0.1587 C   0  0  0  0  0  0  0  0  0  0  0  0
   -0.0322   -3.2909   -0.0337 C   0  0  0  0  0  0  0  0  0  0  0  0
   -0.6836   -5.2265   -1.1185 C   0  0  0  0  0  0  0  0  0  0  0  0
    0.5951   -3.9690    0.9794 N   0  0  0  0  0  0  0  0  0  0  0  0
   -0.6520   -3.8535   -1.0243 N   0  0  0  0  0  0  0  0  0  0  0  0
    2.0106    1.6946    2.1070 O   0  0  0  0  0  0  0  0  0  0  0  0
   -1.2283   -5.7662   -2.0861 O   0  0  0  0  0  0  0  0  0  0  0  0
    1.7478   -8.1150    3.1078 O   0  0  0  0  0  0  0  0  0  0  0  0
   -0.6785   -8.1269   -1.1053 O   0  0  0  0  0  0  0  0  0  0  0  0
   -0.0217    2.3656   -0.0259 O   0  0  0  0  0  0  0  0  0  0  0  0
  6  5  1  0
 11  1  1  0
 11  7  2  0
 12  2  1  0
 12  8  1  0
 13  7  1  0
 13  8  2  0
 14  9  2  0
 14 10  1  0
 15  9  1  0
 16 10  2  0
 17 15  2  0
 17 16  1  0
 18 11  1  0
 18 12  2  0
 19 13  1  0
 20 17  1  0
 21 15  1  0
 21 19  1  0
 22 19  2  0
 22 20  1  0
 23  5  1  0
 24 20  2  0
 25  3  1  0
 25 14  1  0
 26  4  1  0
 26 16  1  0
 27  6  1  0
 27 18  1  0
M  END
>  <DRUGBANK_ID>  (1) 
DB12000

>  <COMMON_NAME>  (1) 
Apabetalone

>  <CAS_NUMBER>  (1) 
1044870-39-4

>  <UNII>  (1) 
8R4A7GDZ1D

>  <SYNONYMS>  (1) 
Apabetalone

$$$$
