
     RDKit          3D

 17 19  0  0  1  0  0  0  0  0999 V2000
    4.4007   -2.2030    0.3827 C   0  0  0  0  0  0  0  0  0  0  0  0
    3.7860   -0.9694    0.6487 C   0  0  0  0  0  0  0  0  0  0  0  0
    4.0117    0.1377   -0.1923 C   0  0  0  0  0  0  0  0  0  0  0  0
    4.9431   -0.0347   -1.2266 C   0  0  0  0  0  0  0  0  0  0  0  0
    5.5742   -1.2353   -1.4796 C   0  0  0  0  0  0  0  0  0  0  0  0
    5.3214   -2.3210   -0.6628 C   0  0  0  0  0  0  0  0  0  0  0  0
    6.1168   -3.4976   -0.8377 C   0  0  0  0  0  0  0  0  0  0  0  0
    6.8281   -4.3987   -0.9677 N   0  0  0  0  0  0  0  0  0  0  0  0
    5.3377    0.9663   -2.0118 F   0  0  0  0  0  0  0  0  0  0  0  0
    3.2015    1.4084   -0.0077 C   0  0  1  0  0  0  0  0  0  0  0  0
    3.4087    2.1043    1.3753 C   0  0  0  0  0  0  0  0  0  0  0  0
    3.9265    3.5364    1.1072 C   0  0  0  0  0  0  0  0  0  0  0  0
    3.9812    3.6099   -0.3489 C   0  0  0  0  0  0  0  0  0  0  0  0
    3.5188    2.4835   -0.9491 N   0  0  0  0  0  0  0  0  0  0  0  0
    3.6126    2.6492   -2.2878 C   0  0  0  0  0  0  0  0  0  0  0  0
    4.1498    3.8240   -2.5696 N   0  0  0  0  0  0  0  0  0  0  0  0
    4.3820    4.4350   -1.3574 C   0  0  0  0  0  0  0  0  0  0  0  0
  1  2  2  0
  1  6  1  0
  2  3  1  0
  3  4  2  0
  4  5  1  0
  4  9  1  0
  5  6  2  0
  6  7  1  0
  7  8  3  0
 10 11  1  0
 10 14  1  0
 10  3  1  6
 11 12  1  0
 12 13  1  0
 13 14  1  0
 13 17  2  0
 14 15  1  0
 15 16  2  0
 16 17  1  0
M  END
>  <DRUGBANK_ID>  (1) 
DB11837

>  <COMMON_NAME>  (1) 
Osilodrostat

>  <CAS_NUMBER>  (1) 
928134-65-0

>  <UNII>  (1) 
5YL4IQ1078

>  <SYNONYMS>  (1) 
Osilodrostat

$$$$
