
     RDKit          3D

  9  8  0  0  0  0  0  0  0  0999 V2000
    0.9890    0.1869    0.0623 C   0  0  0  0  0  0  0  0  0  0  0  0
    0.1823   -1.0010   -0.4683 C   0  0  0  0  0  0  0  0  0  0  0  0
    0.2612    1.4823    0.4855 C   0  0  0  0  0  0  0  0  0  0  0  0
    2.2137    0.1764    0.1913 O   0  0  0  0  0  0  0  0  0  0  0  0
   -0.6587   -1.7169    0.6048 C   0  0  0  0  0  0  0  0  0  0  0  0
   -0.6362   -0.6247   -1.7007 C   0  0  0  0  0  0  0  0  0  0  0  0
    1.0809    2.3322    1.1308 O   0  0  0  0  0  0  0  0  0  0  0  0
   -0.9137    1.7099    0.2728 O   0  0  0  0  0  0  0  0  0  0  0  0
   -1.7480   -0.8612    1.2291 C   0  0  0  0  0  0  0  0  0  0  0  0
  1  2  1  0
  1  3  1  0
  1  4  2  0
  2  5  1  0
  2  6  1  0
  3  7  1  0
  3  8  2  0
  5  9  1  0
M  END
>  <DRUGBANK_ID>  (1) 
DB15831

>  <COMMON_NAME>  (1) 
alpha-Keto-beta-methylvaleric acid

>  <CAS_NUMBER>  (1) 
1460-34-0

>  <UNII>  (1) 
787T50HCIV

$$$$
