
     RDKit          3D

 22 24  0  0  1  0  0  0  0  0999 V2000
   -1.0722   -1.7192   -0.2669 C   0  0  0  0  0  0  0  0  0  0  0  0
    5.2729   -2.5490    1.1303 C   0  0  0  0  0  0  0  0  0  0  0  0
   -3.1013   -2.8039   -0.4830 C   0  0  0  0  0  0  0  0  0  0  0  0
    0.6116   -4.8252    0.3236 C   0  0  0  0  0  0  0  0  0  0  0  0
   -0.5265   -2.9782   -0.0784 C   0  0  0  0  0  0  0  0  0  0  0  0
    4.0320   -3.4407    0.8295 C   0  0  2  0  0  0  0  0  0  0  0  0
    3.9132   -3.9074   -0.6360 C   0  0  2  0  0  0  0  0  0  0  0  0
    2.6934   -3.1740   -1.1886 C   0  0  2  0  0  0  0  0  0  0  0  0
   -1.3169   -4.1042   -0.1899 C   0  0  0  0  0  0  0  0  0  0  0  0
    1.9249   -2.7234    0.0399 C   0  0  1  0  0  0  0  0  0  0  0  0
   -2.4018   -1.6484   -0.4437 N   0  0  0  0  0  0  0  0  0  0  0  0
   -2.6339   -4.0599   -0.4120 N   0  0  0  0  0  0  0  0  0  0  0  0
   -0.5709   -5.2456   -0.0178 N   0  0  0  0  0  0  0  0  0  0  0  0
    0.7139   -3.4692    0.2040 N   0  0  0  0  0  0  0  0  0  0  0  0
    3.7324   -5.3181   -0.6478 O   0  0  0  0  0  0  0  0  0  0  0  0
    2.0812   -3.7202   -2.3323 O   0  0  0  0  0  0  0  0  0  0  0  0
    3.6974    0.0576   -0.4727 O   0  0  0  0  0  0  0  0  0  0  0  0
    6.0318   -0.1521   -1.1471 O   0  0  0  0  0  0  0  0  0  0  0  0
    4.3143   -1.0474   -2.4545 O   0  0  0  0  0  0  0  0  0  0  0  0
    5.1851   -1.1835    0.7032 O   0  0  0  0  0  0  0  0  0  0  0  0
    2.7878   -2.8063    1.1855 O   0  0  0  0  0  0  0  0  0  0  0  0
    4.7256   -1.1117   -0.9631 P   0  0  0  0  0  0  0  0  0  0  0  0
  5  1  2  0
  6  2  1  6
  7  6  1  0
  7 15  1  1
  8  7  1  0
  8 16  1  6
  9  5  1  0
 10  8  1  0
 10 14  1  1
 11  1  1  0
 11  3  2  0
 12  3  1  0
 12  9  2  0
 13  4  2  0
 13  9  1  0
 14  4  1  0
 14  5  1  0
 20  2  1  0
 21  6  1  0
 21 10  1  0
 22 17  1  0
 22 18  1  0
 22 19  2  0
 22 20  1  0
M  END
>  <DRUGBANK_ID>  (1) 
DB03200

>  <SECONDARY_ACCESSION_NUMBERS>  (1) 
EXPT00316

>  <COMMON_NAME>  (1) 
7-Alpha-D-Ribofuranosyl-Purine-5'-Phosphate

$$$$
