
     RDKit          3D

 19 19  0  0  1  0  0  0  0  0999 V2000
   -1.2959   -1.9696    0.5097 O   0  0  0  0  0  0  0  0  0  0  0  0
   -0.3777   -1.0183    0.0180 C   0  0  1  0  0  0  0  0  0  0  0  0
   -0.2897    0.2713    0.8313 C   0  0  2  0  0  0  0  0  0  0  0  0
   -1.5585    0.8196    0.9565 O   0  0  0  0  0  0  0  0  0  0  0  0
    0.9899    1.0282    0.2548 C   0  0  2  0  0  0  0  0  0  0  0  0
    1.1262    2.0193   -0.9888 C   0  0  0  0  0  0  0  0  0  0  0  0
    0.0709    2.9892   -1.1722 O   0  0  0  0  0  0  0  0  0  0  0  0
   -1.4911    2.2797   -0.9498 P   0  0  0  0  0  0  0  0  0  0  0  0
   -0.9001    1.2969   -2.0303 O   0  0  0  0  0  0  0  0  0  0  0  0
   -1.3663    3.4395    0.1255 O   0  0  0  0  0  0  0  0  0  0  0  0
   -2.8891    1.6446   -0.7507 O   0  0  0  0  0  0  0  0  0  0  0  0
    1.8317   -0.1265   -0.0845 O   0  0  0  0  0  0  0  0  0  0  0  0
    1.0621   -1.3555    0.1095 C   0  0  2  0  0  0  0  0  0  0  0  0
    1.4916   -2.3879   -0.9115 C   0  0  0  0  0  0  0  0  0  0  0  0
    2.1377   -3.3830   -0.1550 O   0  0  0  0  0  0  0  0  0  0  0  0
    3.5202   -2.9601    0.5721 P   0  0  0  0  0  0  0  0  0  0  0  0
    4.4731   -3.9738   -0.2137 O   0  0  0  0  0  0  0  0  0  0  0  0
    3.9494   -1.5566   -0.0831 O   0  0  0  0  0  0  0  0  0  0  0  0
    3.5633   -3.0726    2.0293 O   0  0  0  0  0  0  0  0  0  0  0  0
  2  1  1  1
  2  3  1  0
  2 13  1  0
  3  4  1  6
  3  5  1  0
  5 12  1  0
  5  6  1  6
  6  7  1  0
  7  8  1  0
  8  9  1  0
  8 10  1  0
  8 11  2  0
 12 13  1  0
 13 14  1  6
 14 15  1  0
 15 16  1  0
 16 17  1  0
 16 18  1  0
 16 19  2  0
M  END
>  <DRUGBANK_ID>  (1) 
DB02778

>  <SECONDARY_ACCESSION_NUMBERS>  (1) 
EXPT00466

>  <COMMON_NAME>  (1) 
2,5-Anhydroglucitol-1,6-Biphosphate

$$$$
