HTF
     RDKit          3D

 16 16  0  0  0  0  0  0  0  0999 V2000
    1.2180    0.4361    0.1731 C   0  0  0  0  0  0  0  0  0  0  0  0
    0.7984    0.8311   -1.2393 C   0  0  0  0  0  0  0  0  0  0  0  0
    1.2887   -0.0837   -2.3446 C   0  0  0  0  0  0  0  0  0  0  0  0
    0.6180   -1.3622   -2.1211 C   0  0  0  0  0  0  0  0  0  0  0  0
   -1.0742   -1.0887   -2.2321 C   0  0  0  0  0  0  0  0  0  0  0  0
   -1.6033   -1.4492   -3.6144 C   0  0  0  0  0  0  0  0  0  0  0  0
   -1.0718   -2.7628   -4.3125 C   0  0  0  0  0  0  0  0  0  0  0  0
   -1.4958   -4.2739   -3.8961 C   0  0  0  0  0  0  0  0  0  0  0  0
   -2.3085   -4.8511   -4.6347 O   0  0  0  0  0  0  0  0  0  0  0  0
   -1.0338   -5.0393   -2.7970 N   0  0  0  0  0  0  0  0  0  0  0  0
   -0.3120   -4.6621   -1.5070 C   0  0  2  0  0  0  0  0  0  0  0  0
   -0.6484   -4.9569   -0.0319 C   0  0  0  0  0  0  0  0  0  0  0  0
   -0.7572   -6.1059    0.4554 O   0  0  0  0  0  0  0  0  0  0  0  0
   -0.8832   -3.8627    0.7710 O   0  0  0  0  0  0  0  0  0  0  0  0
   -0.6067   -2.7436   -0.0063 C   0  0  0  0  0  0  0  0  0  0  0  0
   -0.8762   -3.3565   -1.3468 C   0  0  0  0  0  0  0  0  0  0  0  0
  1  2  1  0
  2  3  1  0
  3  4  1  0
  4  5  1  0
  5  6  1  0
  6  7  1  0
  7  8  1  0
  8  9  2  0
  8 10  1  0
 11 10  1  6
 11 12  1  0
 11 16  1  0
 12 13  2  0
 12 14  1  0
 14 15  1  0
 15 16  1  0
M  END
>  <DRUGBANK_ID>  (1) 
DB07928

>  <COMMON_NAME>  (1) 
N-(2-OXOTETRAHYDROFURAN-3-YL)OCTANAMIDE

$$$$
