
     RDKit          3D

 11 10  0  0  0  0  0  0  0  0999 V2000
    1.1362    0.0860   -0.0369 C   0  0  0  0  0  0  0  0  0  0  0  0
    0.4973   -1.0514    0.2996 C   0  0  0  0  0  0  0  0  0  0  0  0
   -0.7819   -2.7932    2.5745 C   0  0  0  0  0  0  0  0  0  0  0  0
    0.6976   -2.5129    2.3864 C   0  0  0  0  0  0  0  0  0  0  0  0
   -1.7162   -1.8557    2.3216 C   0  0  0  0  0  0  0  0  0  0  0  0
    1.1159   -2.2798    0.9176 C   0  0  0  0  0  0  0  0  0  0  0  0
   -3.1911   -2.0607    2.2911 C   0  0  0  0  0  0  0  0  0  0  0  0
   -3.7770   -1.0951    3.1417 O   0  0  0  0  0  0  0  0  0  0  0  0
    2.6272    0.1739    0.0131 C   0  0  0  0  0  0  0  0  0  0  0  0
   -1.1769   -4.1621    3.0452 C   0  0  0  0  0  0  0  0  0  0  0  0
    0.3509    1.2859   -0.4863 C   0  0  0  0  0  0  0  0  0  0  0  0
  1 11  1  0
  1  9  1  0
  2  1  2  3
  3 10  1  0
  3  4  1  0
  3  5  2  0
  4  6  1  0
  5  7  1  0
  6  2  1  0
  7  8  1  0
M  END
>  <DRUGBANK_ID>  (1) 
DB14183

>  <COMMON_NAME>  (1) 
Geraniol

>  <CAS_NUMBER>  (1) 
106-24-1

>  <UNII>  (1) 
L837108USY

>  <SYNONYMS>  (1) 
(2E)-3,7-dimethylocta-2,6-dien-1-ol; (E)-3,7-Dimethyl-2,6-octadien-1-ol; (E)-Geraniol; (E)-Nerol; 2-trans-3,7-Dimethyl-2,6-octadien-1-ol; 2,6-Octadien-1-ol, 3,7-dimethyl-, (E)-; 2,6-Octadien-1-ol, 3,7-dimethyl-, trans-; 3,7-Dimethyl-2,6-octadien-1-ol, (E)-; 3,7-Dimethyl-trans-2,6-octadien-1-ol; geranyl alcohol; Lemonol; t-geraniol

$$$$
