BZN
     RDKit          3D

 29 31  0  0  0  0  0  0  0  0999 V2000
   -0.9624   -0.4598   -0.4104 C   0  0  0  0  0  0  0  0  0  0  0  0
    0.2936   -0.9999    0.2181 C   0  0  1  0  0  0  0  0  0  0  0  0
    1.1879    0.1902   -0.1176 C   0  0  2  0  0  0  0  0  0  0  0  0
    0.2830    1.4220    0.0386 C   0  0  0  0  0  0  0  0  0  0  0  0
    1.6160    0.1391   -1.5749 C   0  0  0  0  0  0  0  0  0  0  0  0
   -1.0726    0.9043    0.0599 N   0  0  0  0  0  0  0  0  0  0  0  0
    0.3489   -1.3425    1.6880 C   0  0  0  0  0  0  0  0  0  0  0  0
   -0.4768   -2.5511    2.0360 N   0  0  0  0  0  0  0  0  0  0  0  0
   -0.2763   -2.9047    3.4881 C   0  0  0  0  0  0  0  0  0  0  0  0
   -0.7262   -1.7809    4.4382 C   0  0  0  0  0  0  0  0  0  0  0  0
   -2.1600   -1.4215    4.1679 C   0  0  0  0  0  0  0  0  0  0  0  0
   -0.6122   -2.1220    5.9029 C   0  0  0  0  0  0  0  0  0  0  0  0
   -2.0430   -2.7137    1.2496 S   0  0  0  0  0  0  0  0  0  0  0  0
   -2.9171   -1.6130    1.5318 O   0  0  0  0  0  0  0  0  0  0  0  0
   -1.7989   -3.0875   -0.1497 O   0  0  0  0  0  0  0  0  0  0  0  0
   -2.8006   -4.1073    1.9103 C   0  0  0  0  0  0  0  0  0  0  0  0
   -2.2150   -5.3079    1.5550 C   0  0  0  0  0  0  0  0  0  0  0  0
   -2.8480   -6.4656    1.9200 C   0  0  0  0  0  0  0  0  0  0  0  0
   -4.0308   -6.3947    2.6622 C   0  0  0  0  0  0  0  0  0  0  0  0
   -4.5975   -5.1701    3.0330 C   0  0  0  0  0  0  0  0  0  0  0  0
   -4.0116   -4.0011    2.5968 C   0  0  0  0  0  0  0  0  0  0  0  0
    1.7067   -1.1565   -2.1478 O   0  0  0  0  0  0  0  0  0  0  0  0
    2.4418   -2.1487   -1.4483 C   0  0  0  0  0  0  0  0  0  0  0  0
    3.9115   -1.9635   -1.5154 C   0  0  0  0  0  0  0  0  0  0  0  0
    4.6966   -3.0248   -1.0801 C   0  0  0  0  0  0  0  0  0  0  0  0
    6.0742   -2.8998   -1.1260 C   0  0  0  0  0  0  0  0  0  0  0  0
    6.6633   -1.7100   -1.5628 C   0  0  0  0  0  0  0  0  0  0  0  0
    5.8853   -0.6387   -1.9495 C   0  0  0  0  0  0  0  0  0  0  0  0
    4.5217   -0.7718   -1.9098 C   0  0  0  0  0  0  0  0  0  0  0  0
  1  2  1  0
  1  6  1  0
  2  3  1  0
  2  7  1  1
  3  4  1  0
  3  5  1  6
  4  6  1  0
  5 22  1  0
  7  8  1  0
  8  9  1  0
  8 13  1  0
  9 10  1  0
 10 11  1  0
 10 12  1  0
 13 14  2  0
 13 15  2  0
 13 16  1  0
 16 17  2  0
 16 21  1  0
 17 18  1  0
 18 19  2  0
 19 20  1  0
 20 21  2  0
 22 23  1  0
 23 24  1  0
 24 25  2  0
 24 29  1  0
 25 26  1  0
 26 27  2  0
 27 28  1  0
 28 29  2  0
M  END
>  <DRUGBANK_ID>  (1) 
DB07505

>  <COMMON_NAME>  (1) 
N-({(3R,4R)-4-[(benzyloxy)methyl]pyrrolidin-3-yl}methyl)-N-(2-methylpropyl)benzenesulfonamide

$$$$
