NS6
     RDKit          3D

 27 30  0  0  0  0  0  0  0  0999 V2000
    1.1648    0.0342    0.4233 C   0  0  0  0  0  0  0  0  0  0  0  0
    0.4192    1.2963    0.0458 C   0  0  0  0  0  0  0  0  0  0  0  0
   -1.0399    0.9208    0.2582 C   0  0  0  0  0  0  0  0  0  0  0  0
   -1.1712   -0.6044    0.1796 C   0  0  0  0  0  0  0  0  0  0  0  0
    0.2383   -1.1149   -0.0240 C   0  0  0  0  0  0  0  0  0  0  0  0
    0.4291   -1.4416   -1.4868 C   0  0  1  0  0  0  0  0  0  0  0  0
    0.1644   -0.2539   -2.4387 C   0  0  0  0  0  0  0  0  0  0  0  0
    1.8208   -1.7646   -1.5606 N   0  0  0  0  0  0  0  0  0  0  0  0
    2.2308   -2.3823   -2.9874 S   0  0  0  0  0  0  0  0  0  0  0  0
    1.7373   -3.7232   -2.8880 O   0  0  0  0  0  0  0  0  0  0  0  0
    3.6380   -1.9858   -3.0195 O   0  0  0  0  0  0  0  0  0  0  0  0
    1.2895   -1.4347   -4.2071 C   0  0  0  0  0  0  0  0  0  0  0  0
    1.1629   -1.7836   -5.5312 C   0  0  0  0  0  0  0  0  0  0  0  0
    0.4643   -0.4181   -3.8705 C   0  0  0  0  0  0  0  0  0  0  0  0
   -0.0672    0.4420   -4.8694 C   0  0  0  0  0  0  0  0  0  0  0  0
    0.2389    0.2678   -6.2331 C   0  0  0  0  0  0  0  0  0  0  0  0
    0.8950   -0.8946   -6.5930 C   0  0  0  0  0  0  0  0  0  0  0  0
    1.4345   -1.1689   -8.3762 S   0  0  0  0  0  0  0  0  0  0  0  0
    0.3533   -1.8678   -9.0293 O   0  0  0  0  0  0  0  0  0  0  0  0
    1.8285    0.1585   -8.8300 O   0  0  0  0  0  0  0  0  0  0  0  0
    2.9190   -2.1177   -8.5250 N   0  0  0  0  0  0  0  0  0  0  0  0
    2.9675   -3.6557   -8.4981 C   0  0  0  0  0  0  0  0  0  0  0  0
    2.7586   -4.2572   -7.1243 C   0  0  0  0  0  0  0  0  0  0  0  0
    3.8195   -3.7294   -6.2220 N   0  0  0  0  0  0  0  0  0  0  0  0
    3.4733   -4.2277   -4.9068 C   0  0  0  0  0  0  0  0  0  0  0  0
    3.8879   -2.2450   -6.3237 C   0  0  0  0  0  0  0  0  0  0  0  0
    4.0421   -1.5541   -7.6746 C   0  0  0  0  0  0  0  0  0  0  0  0
  1  5  1  0
  2  1  1  0
  3  2  1  0
  3  4  1  0
  4  5  1  0
  6  5  1  1
  6  7  1  0
  7 14  1  0
  8  6  1  0
  8  9  1  0
  9 12  1  0
  9 11  2  0
 10  9  2  0
 12 13  1  0
 13 17  2  0
 14 12  2  0
 14 15  1  0
 15 16  2  0
 16 17  1  0
 17 18  1  0
 18 19  2  0
 18 20  2  0
 18 21  1  0
 21 22  1  0
 21 27  1  0
 22 23  1  0
 23 24  1  0
 24 25  1  0
 26 24  1  0
 27 26  1  0
M  END
>  <DRUGBANK_ID>  (1) 
DB08304

>  <COMMON_NAME>  (1) 
(3R)-3-cyclopentyl-7-[(4-methylpiperazin-1-yl)sulfonyl]-3,4-dihydro-2H-1,2-benzothiazine 1,1-dioxide

$$$$
