
     RDKit          3D

 33 40  0  0  1  0  0  0  0  0999 V2000
   -1.1031    0.3844   -0.4485 C   0  0  0  0  0  0  0  0  0  0  0  0
   -0.5115   -0.9750   -0.7964 C   0  0  1  0  0  0  0  0  0  0  0  0
   -0.1879   -2.0948    0.3523 C   0  0  1  0  0  0  0  0  0  0  0  0
   -0.5959   -2.9132   -1.0967 C   0  0  0  0  0  0  0  0  0  0  0  0
   -0.7681   -1.8459   -2.8371 C   0  0  1  0  0  0  0  0  0  0  0  0
   -1.5623   -1.3400   -1.8034 O   0  0  0  0  0  0  0  0  0  0  0  0
   -0.6364   -0.1884   -3.9790 N   0  0  0  0  0  0  0  0  0  0  0  0
   -0.3636    0.9867   -5.3558 C   0  0  0  0  0  0  0  0  0  0  0  0
   -0.7847    2.3114   -6.5109 C   0  0  0  0  0  0  0  0  0  0  0  0
    0.0087    3.5452   -7.4776 C   0  0  0  0  0  0  0  0  0  0  0  0
    1.3368    3.7891   -7.4963 C   0  0  0  0  0  0  0  0  0  0  0  0
    1.7808    2.8335   -6.5977 C   0  0  0  0  0  0  0  0  0  0  0  0
    1.1101    1.6306   -5.5947 C   0  0  0  0  0  0  0  0  0  0  0  0
    1.6742    0.8697   -4.6633 C   0  0  0  0  0  0  0  0  0  0  0  0
    0.6923    0.1198   -3.8205 C   0  0  0  0  0  0  0  0  0  0  0  0
    1.3077   -0.3865   -2.7012 C   0  0  0  0  0  0  0  0  0  0  0  0
    0.8919   -0.9185   -1.4856 N   0  0  0  0  0  0  0  0  0  0  0  0
    1.9290   -1.9879   -1.3770 C   0  0  0  0  0  0  0  0  0  0  0  0
    2.2065   -3.0786   -0.4924 C   0  0  0  0  0  0  0  0  0  0  0  0
    2.8701   -4.2142   -1.0077 C   0  0  0  0  0  0  0  0  0  0  0  0
    3.4884   -4.1839   -2.2400 C   0  0  0  0  0  0  0  0  0  0  0  0
    3.5281   -3.0112   -2.9379 C   0  0  0  0  0  0  0  0  0  0  0  0
    2.7210   -1.9607   -2.5506 C   0  0  0  0  0  0  0  0  0  0  0  0
    2.5115   -0.7887   -3.1852 C   0  0  0  0  0  0  0  0  0  0  0  0
    3.4924   -0.2047   -3.9698 C   0  0  0  0  0  0  0  0  0  0  0  0
    3.0784    0.9278   -4.6141 C   0  0  0  0  0  0  0  0  0  0  0  0
    4.1934    1.8292   -4.7445 C   0  0  0  0  0  0  0  0  0  0  0  0
    4.4065    2.9491   -5.1982 O   0  0  0  0  0  0  0  0  0  0  0  0
    5.1750    1.1849   -3.9831 N   0  0  0  0  0  0  0  0  0  0  0  0
    4.8386   -0.1205   -3.4745 C   0  0  0  0  0  0  0  0  0  0  0  0
   -0.4470   -1.0575    1.4693 C   0  0  0  0  0  0  0  0  0  0  0  0
   -1.8317   -0.9576    1.8970 O   0  0  0  0  0  0  0  0  0  0  0  0
   -0.5524   -3.0944    1.4241 O   0  0  0  0  0  0  0  0  0  0  0  0
  2  3  1  0
  2  6  1  0
  2 17  1  0
  2  1  1  1
  3  4  1  0
  3 33  1  1
  3 31  1  0
  5  4  1  1
  5  6  1  0
  5  7  1  0
  7  8  1  0
  7 15  1  0
  8  9  2  0
  8 13  1  0
  9 10  1  0
 10 11  2  0
 11 12  1  0
 12 13  2  0
 13 14  1  0
 14 15  1  0
 14 26  2  0
 15 16  2  0
 16 17  1  0
 16 24  1  0
 17 18  1  0
 18 19  2  0
 18 23  1  0
 19 20  1  0
 20 21  2  0
 21 22  1  0
 22 23  2  0
 23 24  1  0
 24 25  2  0
 25 26  1  0
 25 30  1  0
 26 27  1  0
 27 29  1  0
 27 28  2  0
 29 30  1  0
 31 32  1  0
M  END
>  <DRUGBANK_ID>  (1) 
DB06469

>  <COMMON_NAME>  (1) 
Lestaurtinib

>  <CAS_NUMBER>  (1) 
111358-88-4

>  <UNII>  (1) 
DO989GC5D1

>  <SYNONYMS>  (1) 
Lestaurtinib

$$$$
