lycopene
     RDKit          3D

 40 39  0  0  0  0  0  0  0  0999 V2000
    1.0367    0.1421   -0.1009 C   0  0  0  0  0  0  0  0  0  0  0  0
    0.5049   -0.3660    1.2010 C   0  0  0  0  0  0  0  0  0  0  0  0
   -0.3394    0.5448    2.0479 C   0  0  0  0  0  0  0  0  0  0  0  0
    0.7557   -1.6219    1.6056 C   0  0  0  0  0  0  0  0  0  0  0  0
    1.7076   -2.6003    0.9633 C   0  0  0  0  0  0  0  0  0  0  0  0
    2.9652   -2.8859    1.8115 C   0  0  0  0  0  0  0  0  0  0  0  0
    2.6775   -3.5540    3.1421 C   0  0  0  0  0  0  0  0  0  0  0  0
    3.1752   -4.9649    3.3158 C   0  0  0  0  0  0  0  0  0  0  0  0
    2.0017   -2.9087    4.1160 C   0  0  0  0  0  0  0  0  0  0  0  0
    1.5516   -3.5336    5.3298 C   0  0  0  0  0  0  0  0  0  0  0  0
    0.7479   -2.9717    6.2454 C   0  0  0  0  0  0  0  0  0  0  0  0
    0.3555   -3.6238    7.4944 C   0  0  0  0  0  0  0  0  0  0  0  0
   -0.5167   -2.8065    8.4203 C   0  0  0  0  0  0  0  0  0  0  0  0
    0.7686   -4.8665    7.8313 C   0  0  0  0  0  0  0  0  0  0  0  0
    0.4404   -5.5287    9.0690 C   0  0  0  0  0  0  0  0  0  0  0  0
    0.8499   -6.7590    9.4193 C   0  0  0  0  0  0  0  0  0  0  0  0
    0.5110   -7.4199   10.6775 C   0  0  0  0  0  0  0  0  0  0  0  0
    1.0618   -8.8056   10.8885 C   0  0  0  0  0  0  0  0  0  0  0  0
   -0.2584   -6.8415   11.6235 C   0  0  0  0  0  0  0  0  0  0  0  0
   -0.6231   -7.4487   12.8769 C   0  0  0  0  0  0  0  0  0  0  0  0
   -1.3959   -6.7951   13.7601 C   0  0  0  0  0  0  0  0  0  0  0  0
   -1.7819   -7.3666   15.0217 C   0  0  0  0  0  0  0  0  0  0  0  0
   -2.5546   -6.7742   15.9599 C   0  0  0  0  0  0  0  0  0  0  0  0
   -3.1273   -5.3896   15.7921 C   0  0  0  0  0  0  0  0  0  0  0  0
   -2.9050   -7.4306   17.2262 C   0  0  0  0  0  0  0  0  0  0  0  0
   -2.5041   -8.6634   17.5745 C   0  0  0  0  0  0  0  0  0  0  0  0
   -2.8165   -9.3526   18.8005 C   0  0  0  0  0  0  0  0  0  0  0  0
   -2.3925  -10.5955   19.1320 C   0  0  0  0  0  0  0  0  0  0  0  0
   -1.5191  -11.4515   18.2409 C   0  0  0  0  0  0  0  0  0  0  0  0
   -2.7154  -11.2249   20.4202 C   0  0  0  0  0  0  0  0  0  0  0  0
   -3.4428  -10.6295   21.3769 C   0  0  0  0  0  0  0  0  0  0  0  0
   -3.7576  -11.1608   22.6733 C   0  0  0  0  0  0  0  0  0  0  0  0
   -4.6168  -10.5975   23.5507 C   0  0  0  0  0  0  0  0  0  0  0  0
   -5.2526   -9.2414   23.3698 C   0  0  0  0  0  0  0  0  0  0  0  0
   -5.0207  -11.3241   24.8258 C   0  0  0  0  0  0  0  0  0  0  0  0
   -5.8514  -12.6058   24.5961 C   0  0  0  0  0  0  0  0  0  0  0  0
   -5.1021  -13.6789   23.8482 C   0  0  0  0  0  0  0  0  0  0  0  0
   -4.6695  -14.8498   24.3423 C   0  0  0  0  0  0  0  0  0  0  0  0
   -3.7809  -15.7501   23.5300 C   0  0  0  0  0  0  0  0  0  0  0  0
   -5.0712  -15.3059   25.7092 C   0  0  0  0  0  0  0  0  0  0  0  0
  1  2  1  0
  2  3  1  0
  2  4  2  3
  4  5  1  0
  5  6  1  0
  6  7  1  0
  7  8  1  0
  7  9  2  0
  9 10  1  0
 10 11  2  0
 11 12  1  0
 12 13  1  0
 12 14  2  0
 14 15  1  0
 15 16  2  0
 16 17  1  0
 17 18  1  0
 17 19  2  0
 19 20  1  0
 20 21  2  0
 21 22  1  0
 22 23  2  0
 23 24  1  0
 23 25  1  0
 25 26  2  0
 26 27  1  0
 27 28  2  0
 28 29  1  0
 28 30  1  0
 30 31  2  0
 31 32  1  0
 32 33  2  0
 33 34  1  0
 33 35  1  0
 35 36  1  0
 36 37  1  0
 37 38  2  3
 38 39  1  0
 38 40  1  0
M  END
>  <DRUGBANK_ID>  (1) 
DB11231

>  <COMMON_NAME>  (1) 
Lycopene

>  <CAS_NUMBER>  (1) 
502-65-8

>  <UNII>  (1) 
SB0N2N0WV6

$$$$
