
     RDKit          3D

 29 31  0  0  0  0  0  0  0  0999 V2000
    2.9471    0.0039    0.0825 C   0  0  0  0  0  0  0  0  0  0  0  0
    2.3032   -1.2254    0.0180 C   0  0  0  0  0  0  0  0  0  0  0  0
    0.9175   -1.2269   -0.0175 C   0  0  0  0  0  0  0  0  0  0  0  0
    0.2313   -0.0074   -0.0169 C   0  0  0  0  0  0  0  0  0  0  0  0
    0.9022    1.2166   -0.0135 C   0  0  0  0  0  0  0  0  0  0  0  0
    2.2801    1.2209    0.0211 C   0  0  0  0  0  0  0  0  0  0  0  0
   -1.6546   -0.0069   -0.0099 Br  0  0  0  0  0  0  0  0  0  0  0  0
    7.4456    1.2881    1.4153 C   0  0  0  0  0  0  0  0  0  0  0  0
    7.3122    1.5688    2.7759 C   0  0  0  0  0  0  0  0  0  0  0  0
    6.0194    1.6827    3.2445 C   0  0  0  0  0  0  0  0  0  0  0  0
    4.9248    1.2841    2.4427 C   0  0  0  0  0  0  0  0  0  0  0  0
    8.3466    1.7748    3.6611 O   0  0  0  0  0  0  0  0  0  0  0  0
    9.7287    1.4758    3.3445 C   0  0  0  0  0  0  0  0  0  0  0  0
   10.1094   -0.0184    3.2477 C   0  0  0  0  0  0  0  0  0  0  0  0
    9.4943   -0.6825    2.0413 C   0  0  0  0  0  0  0  0  0  0  0  0
    9.9935    0.0545    0.7724 C   0  0  0  0  0  0  0  0  0  0  0  0
   11.2836   -0.4267    0.1790 C   0  0  0  0  0  0  0  0  0  0  0  0
   11.4045   -1.9477    0.0752 C   0  0  0  0  0  0  0  0  0  0  0  0
   10.5094   -2.6209   -0.8767 N   0  0  0  0  0  0  0  0  0  0  0  0
   10.6779   -4.0603   -0.9794 C   0  0  0  0  0  0  0  0  0  0  0  0
    9.1126   -2.4517   -0.5858 C   0  0  0  0  0  0  0  0  0  0  0  0
   10.2326   -4.7460    0.2876 C   0  0  0  0  0  0  0  0  0  0  0  0
    9.1154   -5.4812    0.3875 C   0  0  0  0  0  0  0  0  0  0  0  0
    6.4092    0.7062    0.6394 C   0  0  0  0  0  0  0  0  0  0  0  0
    5.1447    0.6753    1.1860 C   0  0  0  0  0  0  0  0  0  0  0  0
    4.3688    0.0719    0.1655 C   0  0  0  0  0  0  0  0  0  0  0  0
    5.0663   -0.3446   -0.8569 N   0  0  0  0  0  0  0  0  0  0  0  0
    6.2806    0.1698   -0.6323 N   0  0  0  0  0  0  0  0  0  0  0  0
    7.2438   -0.3727   -1.5306 C   0  0  0  0  0  0  0  0  0  0  0  0
  1  2  2  0
  2  3  1  0
  3  4  2  0
  4  7  1  0
  4  5  1  0
  5  6  2  0
  6  1  1  0
  8  9  2  0
  9 10  1  0
  9 12  1  0
 10 11  2  0
 11 25  1  0
 12 13  1  0
 13 14  1  0
 14 15  1  0
 15 16  1  0
 16 17  1  0
 17 18  1  0
 18 19  1  0
 19 20  1  0
 19 21  1  0
 20 22  1  0
 22 23  2  0
 24 25  2  0
 24  8  1  0
 25 26  1  0
 26 27  2  0
 26  1  1  0
 27 28  1  0
 28 24  1  0
 28 29  1  0
M  END
>  <DRUGBANK_ID>  (1) 
DB03888

>  <SECONDARY_ACCESSION_NUMBERS>  (1) 
EXPT02737

>  <COMMON_NAME>  (1) 
N-Allyl-6-{[3-(4-bromophenyl)-1-methyl-1H-indazol-6-yl]oxy}-N-methyl-1-hexanamine

$$$$
