
     RDKit          3D

  9  9  0  0  0  0  0  0  0  0999 V2000
    1.0210    0.0965    0.1778 C   0  0  0  0  0  0  0  0  0  0  0  0
    0.4462    1.4281    0.2285 N   0  0  0  0  0  0  0  0  0  0  0  0
    1.0826    2.5585    0.7335 C   0  0  0  0  0  0  0  0  0  0  0  0
    2.1068    2.5978    1.3988 O   0  0  0  0  0  0  0  0  0  0  0  0
    0.2699    3.7660    0.3020 C   0  0  0  0  0  0  0  0  0  0  0  0
   -0.8102    3.1578   -0.5989 C   0  0  0  0  0  0  0  0  0  0  0  0
   -0.9421    1.7219   -0.0858 C   0  0  0  0  0  0  0  0  0  0  0  0
   -1.5648    0.7861   -1.1190 C   0  0  0  0  0  0  0  0  0  0  0  0
   -1.8147    1.6827    1.1828 C   0  0  0  0  0  0  0  0  0  0  0  0
  1  2  1  0
  2  3  1  0
  2  7  1  0
  3  4  2  0
  3  5  1  0
  5  6  1  0
  6  7  1  0
  7  8  1  0
  7  9  1  0
M  END
>  <DRUGBANK_ID>  (1) 
DB03968

>  <SECONDARY_ACCESSION_NUMBERS>  (1) 
EXPT01911

>  <COMMON_NAME>  (1) 
1-Methyl-2-Oxy-5,5-Dimethyl Pyrrolidine

>  <UNII>  (1) 
6BC49782CZ

$$$$
