
     RDKit          3D

 17 17  0  0  1  0  0  0  0  0999 V2000
    0.4624    1.1704   -0.3440 C   0  0  0  0  0  0  0  0  0  0  0  0
   -1.5518   -0.1758   -0.2829 C   0  0  0  0  0  0  0  0  0  0  0  0
    2.8635   -0.0016   -0.3158 C   0  0  0  0  0  0  0  0  0  0  0  0
    1.3639   -0.0088    0.1624 C   0  0  2  0  0  0  0  0  0  0  0  0
   -0.7612   -1.3609    0.2400 C   0  0  2  0  0  0  0  0  0  0  0  0
    0.6988   -1.3151   -0.2567 C   0  0  2  0  0  0  0  0  0  0  0  0
   -1.7452    2.3240   -0.4056 C   0  0  0  0  0  0  0  0  0  0  0  0
   -0.9600    1.1283    0.1483 C   0  0  2  0  0  0  0  0  0  0  0  0
   -1.4268   -2.5225   -0.2467 O   0  0  0  0  0  0  0  0  0  0  0  0
    1.4616   -2.4122    0.2403 O   0  0  0  0  0  0  0  0  0  0  0  0
   -1.6564    3.4895   -0.0043 O   0  0  0  0  0  0  0  0  0  0  0  0
   -2.6912    1.9715   -1.2886 O   0  0  0  0  0  0  0  0  0  0  0  0
   -0.9378    1.1827    1.5803 O   0  0  0  0  0  0  0  0  0  0  0  0
    2.4459    2.3879    0.1337 O   0  0  0  0  0  0  0  0  0  0  0  0
    3.5989    0.8529    1.7761 O   0  0  0  0  0  0  0  0  0  0  0  0
    4.4899    2.7560    0.7629 O   0  0  0  0  0  0  0  0  0  0  0  0
    3.7445    1.4921    0.2686 P   0  0  0  0  0  0  0  0  0  0  0  0
  4  1  1  0
  4  3  1  6
  5  2  1  0
  5  9  1  6
  6  4  1  0
  6  5  1  0
  6 10  1  1
  8  1  1  0
  8  2  1  0
  8 13  1  1
  8  7  1  0
 11  7  2  0
 12  7  1  0
 17  3  1  0
 17 14  1  0
 17 15  1  0
 17 16  2  0
M  END
>  <DRUGBANK_ID>  (1) 
DB02592

>  <SECONDARY_ACCESSION_NUMBERS>  (1) 
EXPT01018

>  <COMMON_NAME>  (1) 
Carbaphosphonate

$$$$
