
     RDKit          3D

 21 20  0  0  0  0  0  0  0  0999 V2000
    0.4269   -1.2376    0.7707 C   0  0  0  0  0  0  0  0  0  0  0  0
    2.8991   -0.5994    1.9637 N   0  0  0  0  0  0  0  0  0  0  0  0
    2.0966   -0.8435    0.6355 C   0  0  1  0  0  0  0  0  0  0  0  0
    2.9316   -1.4543   -0.6105 C   0  0  0  0  0  0  0  0  0  0  0  0
    2.7345   -1.2220   -2.2522 C   0  0  0  0  0  0  0  0  0  0  0  0
    3.0955    0.1091   -3.0058 C   0  0  0  0  0  0  0  0  0  0  0  0
    4.5183    0.2949   -3.0616 N   0  0  0  0  0  0  0  0  0  0  0  0
    5.2531    0.4303   -4.1820 C   0  0  0  0  0  0  0  0  0  0  0  0
    6.5372    0.4494   -4.1685 N   0  0  0  0  0  0  0  0  0  0  0  0
    4.5960    0.5267   -5.3426 N   0  0  0  0  0  0  0  0  0  0  0  0
   -0.1060   -1.5070    1.8510 O   0  0  0  0  0  0  0  0  0  0  0  0
   -0.4708   -1.0557   -0.2575 O   0  0  0  0  0  0  0  0  0  0  0  0
    1.1929    1.1844   -0.7907 C   0  0  0  0  0  0  0  0  0  0  0  0
    0.7412    2.8324    0.8538 N   0  0  0  0  0  0  0  0  0  0  0  0
    0.3556    1.5244    0.5302 C   0  0  1  0  0  0  0  0  0  0  0  0
   -1.1704    1.4495    0.5005 C   0  0  0  0  0  0  0  0  0  0  0  0
   -1.5877    2.7735    1.0796 C   0  0  0  0  0  0  0  0  0  0  0  0
   -0.3571    3.6031    0.8848 C   0  0  0  0  0  0  0  0  0  0  0  0
    0.8624    0.3311   -1.5724 O   0  0  0  0  0  0  0  0  0  0  0  0
    2.5354    1.6232   -0.6450 O   0  0  0  0  0  0  0  0  0  0  0  0
   -0.3049    4.8556    0.7601 O   0  0  0  0  0  0  0  0  0  0  0  0
  1 11  2  0
  1 12  1  0
  1  3  1  0
  3  2  1  1
  3  4  1  0
  4  5  1  0
  5  6  1  0
  6  7  1  0
  7  8  1  0
  8  9  2  0
  8 10  1  0
 13 19  2  0
 13 20  1  0
 14 15  1  0
 14 18  1  0
 15 13  1  6
 15 16  1  0
 16 17  1  0
 17 18  1  0
 18 21  2  0
M  END
>  <DRUGBANK_ID>  (1) 
DB16025

>  <COMMON_NAME>  (1) 
Arginine PCA

>  <CAS_NUMBER>  (1) 
56265-06-6

>  <UNII>  (1) 
808T94CEU6

>  <SYNONYMS>  (1) 
Arginine pidolate; Arginine pyroglutamate; L-arginine L-2-pyrrolidone-5-carboxylate

$$$$
