
     RDKit          3D

 17 17  0  0  0  0  0  0  0  0999 V2000
    0.8898   -0.1363    0.1655 C   0  0  0  0  0  0  0  0  0  0  0  0
    0.3893    0.9432    1.0878 C   0  0  0  0  0  0  0  0  0  0  0  0
    0.8658    2.3191    0.6356 C   0  0  0  0  0  0  0  0  0  0  0  0
    0.3888    2.8500   -0.6959 C   0  0  0  0  0  0  0  0  0  0  0  0
    0.4486    4.1388   -1.1909 C   0  0  0  0  0  0  0  0  0  0  0  0
   -0.0242    4.0976   -2.5491 C   0  0  0  0  0  0  0  0  0  0  0  0
   -0.3201    2.7617   -2.7956 C   0  0  0  0  0  0  0  0  0  0  0  0
   -0.1427    2.0303   -1.6481 O   0  0  0  0  0  0  0  0  0  0  0  0
   -0.7953    2.0185   -4.0118 C   0  0  0  0  0  0  0  0  0  0  0  0
    0.2153    1.0515   -4.6132 C   0  0  0  0  0  0  0  0  0  0  0  0
    0.3976   -0.1951   -3.8147 C   0  0  0  0  0  0  0  0  0  0  0  0
   -0.1210   -1.2785   -4.0231 O   0  0  0  0  0  0  0  0  0  0  0  0
    1.2440   -0.0341   -2.7935 O   0  0  0  0  0  0  0  0  0  0  0  0
   -0.1565    5.2083   -3.4744 C   0  0  0  0  0  0  0  0  0  0  0  0
    0.1013    6.3820   -3.2205 O   0  0  0  0  0  0  0  0  0  0  0  0
   -0.6160    4.8980   -4.7039 O   0  0  0  0  0  0  0  0  0  0  0  0
    0.9370    5.2967   -0.4073 C   0  0  0  0  0  0  0  0  0  0  0  0
  1  2  1  0
  2  3  1  0
  3  4  1  0
  4  5  2  0
  4  8  1  0
  5  6  1  0
  5 17  1  0
  6  7  2  0
  6 14  1  0
  7  8  1  0
  7  9  1  0
  9 10  1  0
 10 11  1  0
 11 12  2  0
 11 13  1  0
 14 15  2  0
 14 16  1  0
M  END
>  <DRUGBANK_ID>  (1) 
DB07517

>  <COMMON_NAME>  (1) 
3-CARBOXY-4-METHYL-5-PROPYL-2-FURANPROPIONIC

>  <UNII>  (1) 
JTU41879GF

$$$$
