
     RDKit          3D

 30 33  0  0  0  0  0  0  0  0999 V2000
   -1.7858   -1.2692    0.0195 C   0  0  2  0  0  0  0  0  0  0  0  0
   -1.9211    0.2594   -0.0153 C   0  0  0  0  0  0  0  0  0  0  0  0
   -0.3973   -1.0255    0.5705 C   0  0  2  0  0  0  0  0  0  0  0  0
   -0.7459    0.4147    0.6752 N   0  0  0  0  0  0  0  0  0  0  0  0
    0.2455    1.3787    0.1985 C   0  0  2  0  0  0  0  0  0  0  0  0
    1.5616    0.5710    0.0118 C   0  0  0  0  0  0  0  0  0  0  0  0
    1.0046   -1.1033   -0.5575 S   0  0  0  0  0  0  0  0  0  0  0  0
    2.4431    1.1124   -1.1026 C   0  0  0  0  0  0  0  0  0  0  0  0
    2.3680    0.3582    1.3011 C   0  0  0  0  0  0  0  0  0  0  0  0
    0.3659    2.5834    1.1580 C   0  0  0  0  0  0  0  0  0  0  0  0
   -0.4810    3.6109    0.9190 O   0  0  0  0  0  0  0  0  0  0  0  0
    1.1184    2.6412    2.1200 O   0  0  0  0  0  0  0  0  0  0  0  0
   -1.9777   -2.0520   -1.2172 N   0  0  0  0  0  0  0  0  0  0  0  0
   -2.2102   -3.4095   -1.3068 C   0  0  0  0  0  0  0  0  0  0  0  0
   -2.1741   -3.9477   -2.4108 O   0  0  0  0  0  0  0  0  0  0  0  0
   -2.6602    1.0755   -0.5028 O   0  0  0  0  0  0  0  0  0  0  0  0
   -3.2180   -4.8964    1.8776 O   0  0  0  0  0  0  0  0  0  0  0  0
   -2.3603   -5.8724    1.4269 N   0  0  0  0  0  0  0  0  0  0  0  0
   -1.9269   -5.4657    0.2248 C   0  0  0  0  0  0  0  0  0  0  0  0
   -2.4551   -4.1735   -0.0966 C   0  0  0  0  0  0  0  0  0  0  0  0
   -3.2984   -3.8945    0.9651 C   0  0  0  0  0  0  0  0  0  0  0  0
   -1.0128   -6.2813   -0.5631 C   0  0  0  0  0  0  0  0  0  0  0  0
   -1.3633   -7.5458   -1.0570 C   0  0  0  0  0  0  0  0  0  0  0  0
   -0.4769   -8.2537   -1.8809 C   0  0  0  0  0  0  0  0  0  0  0  0
    0.7637   -7.7109   -2.2182 C   0  0  0  0  0  0  0  0  0  0  0  0
    1.1299   -6.4664   -1.7148 C   0  0  0  0  0  0  0  0  0  0  0  0
    0.2480   -5.7685   -0.8910 C   0  0  0  0  0  0  0  0  0  0  0  0
    0.6338   -4.5727   -0.4183 F   0  0  0  0  0  0  0  0  0  0  0  0
   -2.8950   -8.2842   -0.7343 Cl  0  0  0  0  0  0  0  0  0  0  0  0
   -4.2172   -2.7922    1.3376 C   0  0  0  0  0  0  0  0  0  0  0  0
  1  2  1  0
  1 13  1  6
  2 16  2  0
  2  4  1  0
  3  1  1  0
  3  4  1  0
  3  7  1  6
  4  5  1  0
  5  6  1  0
  5 10  1  1
  6  7  1  0
  6  8  1  0
  6  9  1  0
 10 11  1  0
 10 12  2  0
 13 14  1  0
 14 15  2  0
 14 20  1  0
 17 18  1  0
 17 21  1  0
 18 19  2  0
 19 20  1  0
 19 22  1  0
 20 21  2  0
 21 30  1  0
 22 23  2  0
 22 27  1  0
 23 24  1  0
 23 29  1  0
 24 25  2  0
 25 26  1  0
 26 27  2  0
 27 28  1  0
M  END
>  <DRUGBANK_ID>  (1) 
DB00301

>  <SECONDARY_ACCESSION_NUMBERS>  (1) 
APRD00609

>  <COMMON_NAME>  (1) 
Flucloxacillin

>  <CAS_NUMBER>  (1) 
5250-39-5

>  <UNII>  (1) 
43B2M34G2V

>  <SYNONYMS>  (1) 
(2S,5R,6R)-6-({[3-(2-chloro-6-fluorophenyl)-5-methyl-1,2-oxazol-4-yl]carbonyl}amino)-3,3-dimethyl-7-oxo-4-thia-1-azabicyclo[3.2.0]heptane-2-carboxylic acid; 3-(2-Chloro-6-fluorophenyl)-5-methyl-4-isoxazolylpenicillin; Floxacillin; Flucloxacilina; Flucloxacillin; Flucloxacilline; Flucloxacillinum

$$$$
