
     RDKit          3D

 34 38  0  0  1  0  0  0  0  0999 V2000
    1.0002   -0.1128    0.0462 C   0  0  0  0  0  0  0  0  0  0  0  0
    0.4937   -1.5093    0.4791 C   0  0  0  0  0  0  0  0  0  0  0  0
    1.0126   -1.7882    1.8952 C   0  0  0  0  0  0  0  0  0  0  0  0
   -1.0420   -1.4775    0.4854 C   0  0  0  0  0  0  0  0  0  0  0  0
    0.9803   -2.5541   -0.4937 C   0  0  0  0  0  0  0  0  0  0  0  0
    1.6427   -2.3559   -1.6138 N   0  0  0  0  0  0  0  0  0  0  0  0
    1.7831   -3.5756   -2.2160 N   0  0  0  0  0  0  0  0  0  0  0  0
    1.1891   -4.4611   -1.4419 C   0  0  0  0  0  0  0  0  0  0  0  0
    0.6514   -3.8890   -0.3058 O   0  0  0  0  0  0  0  0  0  0  0  0
    0.9368   -5.8883   -1.7997 C   0  0  2  0  0  0  0  0  0  0  0  0
   -0.5156   -6.3525   -1.7359 C   0  0  2  0  0  0  0  0  0  0  0  0
   -0.5516   -7.2926   -0.5421 C   0  0  2  0  0  0  0  0  0  0  0  0
    0.8772   -7.8243   -0.5007 C   0  0  1  0  0  0  0  0  0  0  0  0
    1.7218   -6.7810   -1.0000 O   0  0  0  0  0  0  0  0  0  0  0  0
    1.2773   -8.2101    0.8357 N   0  0  0  0  0  0  0  0  0  0  0  0
    0.6190   -9.1510    1.5800 C   0  0  0  0  0  0  0  0  0  0  0  0
    1.1350   -9.2468    2.7820 N   0  0  0  0  0  0  0  0  0  0  0  0
    2.2038   -8.3762    2.7998 C   0  0  0  0  0  0  0  0  0  0  0  0
    2.3059   -7.7113    1.5879 C   0  0  0  0  0  0  0  0  0  0  0  0
    3.2140   -6.7894    1.2563 N   0  0  0  0  0  0  0  0  0  0  0  0
    4.0653   -6.5433    2.2667 C   0  0  0  0  0  0  0  0  0  0  0  0
    4.0850   -7.1090    3.4956 N   0  0  0  0  0  0  0  0  0  0  0  0
    3.1615   -8.0657    3.7887 C   0  0  0  0  0  0  0  0  0  0  0  0
    3.2061   -8.6882    5.0497 N   0  0  0  0  0  0  0  0  0  0  0  0
    2.2916   -9.6488    5.5176 C   0  0  0  0  0  0  0  0  0  0  0  0
    2.1513  -10.8634    4.8270 C   0  0  0  0  0  0  0  0  0  0  0  0
    1.1474  -11.7741    5.1554 C   0  0  0  0  0  0  0  0  0  0  0  0
    0.2774  -11.4860    6.2014 C   0  0  0  0  0  0  0  0  0  0  0  0
    0.3950  -10.2924    6.9095 C   0  0  0  0  0  0  0  0  0  0  0  0
    1.3930   -9.3820    6.5583 C   0  0  0  0  0  0  0  0  0  0  0  0
    1.4556   -8.2126    7.2145 F   0  0  0  0  0  0  0  0  0  0  0  0
   -0.9528  -12.6157    6.6132 Cl  0  0  0  0  0  0  0  0  0  0  0  0
   -1.5113   -8.3445   -0.6784 O   0  0  0  0  0  0  0  0  0  0  0  0
   -0.8756   -7.1002   -2.9169 O   0  0  0  0  0  0  0  0  0  0  0  0
  1  2  1  0
  2  3  1  0
  2  4  1  0
  2  5  1  0
  5  6  2  0
  5  9  1  0
  6  7  1  0
  7  8  2  0
  8  9  1  0
 10  8  1  1
 10 11  1  0
 10 14  1  0
 11 12  1  0
 11 34  1  6
 12 13  1  0
 12 33  1  6
 13 14  1  0
 13 15  1  1
 15 16  1  0
 15 19  1  0
 16 17  2  0
 17 18  1  0
 18 19  2  0
 18 23  1  0
 19 20  1  0
 20 21  2  0
 21 22  1  0
 22 23  2  0
 23 24  1  0
 24 25  1  0
 25 26  2  0
 25 30  1  0
 26 27  1  0
 27 28  2  0
 28 29  1  0
 28 32  1  0
 29 30  2  0
 30 31  1  0
M  END
>  <DRUGBANK_ID>  (1) 
DB12760

>  <COMMON_NAME>  (1) 
GW-493838

>  <CAS_NUMBER>  (1) 
253124-46-8

>  <UNII>  (1) 
93OG0JL22O

$$$$
