GLE
     RDKit          3D

 26 25  0  0  0  0  0  0  0  0999 V2000
    0.6941   -1.5007   -1.8160 C   0  0  0  0  0  0  0  0  0  0  0  0
    0.4400   -1.9049   -3.1504 O   0  0  0  0  0  0  0  0  0  0  0  0
    0.1873   -0.1633   -1.3334 C   0  0  2  0  0  0  0  0  0  0  0  0
    0.9390    0.0302   -0.0074 O   0  0  0  0  0  0  0  0  0  0  0  0
   -1.3758   -0.2473   -1.4863 C   0  0  0  0  0  0  0  0  0  0  0  0
   -2.2676    0.8002   -1.0687 O   0  0  0  0  0  0  0  0  0  0  0  0
   -2.1547    1.0750    0.3212 C   0  0  0  0  0  0  0  0  0  0  0  0
   -2.3998   -0.0117    1.3644 C   0  0  0  0  0  0  0  0  0  0  0  0
   -1.6497   -1.1168    1.1037 F   0  0  0  0  0  0  0  0  0  0  0  0
   -2.0413    0.3692    2.6160 F   0  0  0  0  0  0  0  0  0  0  0  0
   -3.6886   -0.3808    1.4198 F   0  0  0  0  0  0  0  0  0  0  0  0
    0.9672    1.6433    0.6172 P   0  0  2  0  0  0  0  0  0  0  0  0
    0.3219    2.1580   -0.6597 O   0  0  0  0  0  0  0  0  0  0  0  0
    0.0403    1.1937    1.8504 O   0  0  0  0  0  0  0  0  0  0  0  0
    0.5776    4.3160    0.3805 C   0  0  0  0  0  0  0  0  0  0  0  0
    0.9954    3.2563    1.2418 O   0  0  0  0  0  0  0  0  0  0  0  0
    1.4187   -2.8588   -3.6039 C   0  0  0  0  0  0  0  0  0  0  0  0
    2.8508   -2.2800   -3.7209 C   0  0  0  0  0  0  0  0  0  0  0  0
    3.5718   -1.8867   -2.4153 C   0  0  0  0  0  0  0  0  0  0  0  0
    3.4350   -3.0064   -1.3663 C   0  0  0  0  0  0  0  0  0  0  0  0
    4.3768   -4.1321   -1.7546 C   0  0  0  0  0  0  0  0  0  0  0  0
    5.8057   -3.5888   -1.8066 C   0  0  0  0  0  0  0  0  0  0  0  0
    6.1970   -2.9905   -0.4476 C   0  0  0  0  0  0  0  0  0  0  0  0
    6.2094   -4.0825    0.6244 C   0  0  0  0  0  0  0  0  0  0  0  0
    7.1567   -5.2181    0.2354 C   0  0  0  0  0  0  0  0  0  0  0  0
    8.5723   -4.6916    0.0584 C   0  0  0  0  0  0  0  0  0  0  0  0
  1  2  1  0
  2 17  1  0
  3  5  1  1
  3  4  1  0
  3  1  1  0
  5  6  1  0
  6  7  1  0
  7  8  1  0
  8  9  1  0
  8 10  1  0
  8 11  1  0
 12  4  1  0
 12 13  2  0
 12 14  1  0
 12 16  1  0
 15 16  1  0
 17 18  1  0
 18 19  1  0
 19 20  1  0
 20 21  1  0
 21 22  1  0
 22 23  1  0
 23 24  1  0
 24 25  1  0
 25 26  1  0
M  END
>  <DRUGBANK_ID>  (1) 
DB07836

>  <COMMON_NAME>  (1) 
1-DECYL-3-TRIFLUORO ETHYL-SN-GLYCERO-2-PHOSPHOMETHANOL

$$$$
