
     RDKit          3D

 21 22  0  0  1  0  0  0  0  0999 V2000
    1.0834    0.0652   -0.0254 C   0  0  0  0  0  0  0  0  0  0  0  0
    0.6476   -0.6198    1.2286 C   0  0  0  0  0  0  0  0  0  0  0  0
    0.9147   -1.9041    1.4935 C   0  0  0  0  0  0  0  0  0  0  0  0
    0.4012   -2.5468    2.6051 N   0  0  0  0  0  0  0  0  0  0  0  0
    0.5133   -3.9690    2.7876 C   0  0  1  0  0  0  0  0  0  0  0  0
   -0.1508   -4.7721    1.6992 C   0  0  0  0  0  0  0  0  0  0  0  0
    0.6236   -6.0371    1.8186 C   0  0  2  0  0  0  0  0  0  0  0  0
    0.1664   -6.9438    2.8012 O   0  0  0  0  0  0  0  0  0  0  0  0
    2.0623   -5.5523    2.0863 C   0  0  1  0  0  0  0  0  0  0  0  0
    2.9212   -5.1371    0.8828 C   0  0  0  0  0  0  0  0  0  0  0  0
    2.3447   -5.5309   -0.3477 O   0  0  0  0  0  0  0  0  0  0  0  0
    1.8222   -7.1787   -0.4156 P   0  0  0  0  0  0  0  0  0  0  0  0
    1.9595   -6.9817   -2.0339 O   0  0  0  0  0  0  0  0  0  0  0  0
    3.3940   -7.6261   -0.2574 O   0  0  0  0  0  0  0  0  0  0  0  0
    1.3546   -8.6535   -0.4764 O   0  0  0  0  0  0  0  0  0  0  0  0
    1.8961   -4.3506    2.8636 O   0  0  0  0  0  0  0  0  0  0  0  0
   -0.3234   -1.8701    3.5678 C   0  0  0  0  0  0  0  0  0  0  0  0
   -0.8881   -2.4121    4.5147 O   0  0  0  0  0  0  0  0  0  0  0  0
   -0.4102   -0.5227    3.3971 N   0  0  0  0  0  0  0  0  0  0  0  0
   -0.1472    0.1377    2.2291 C   0  0  0  0  0  0  0  0  0  0  0  0
   -0.5465    1.2700    2.0275 O   0  0  0  0  0  0  0  0  0  0  0  0
  1  2  1  0
  2  3  2  0
  2 20  1  0
  3  4  1  0
  4 17  1  0
  5  4  1  6
  5  6  1  0
  5 16  1  0
  6  7  1  0
  7  8  1  1
  7  9  1  0
  9 16  1  0
  9 10  1  6
 10 11  1  0
 11 12  1  0
 12 13  1  0
 12 14  1  0
 12 15  2  0
 17 18  2  0
 17 19  1  0
 19 20  1  0
 20 21  2  0
M  END
>  <DRUGBANK_ID>  (1) 
DB01643

>  <SECONDARY_ACCESSION_NUMBERS>  (1) 
EXPT03073; EXPT02988

>  <COMMON_NAME>  (1) 
Thymidine monophosphate

>  <CAS_NUMBER>  (1) 
365-07-1

>  <UNII>  (1) 
43W3021X6C

>  <SYNONYMS>  (1) 
2'-deoxy-5-methyluridine 5'-(dihydrogen phosphate); 5-Methyl-dUMP; 5'-Thymidylic acid; 5'-TMP; Deoxyribosylthymine monophosphate; Deoxythymidine monophosphate; dTMP; ribothymidine 5'-monophosphate; thymidine 5'-(dihydrogen phosphate); Thymidine 5'-phosphate; Thymidine 5'-phosphoric acid; Thymidine mononucleotide; Thymidine monophosphate; Thymidine-5'-Monophosphate; Thymidine-5'-monophosphoric acid; Thymidine-5'-phosphate; Thymidylate; Thymidylic acid; TMP

$$$$
