
     RDKit          3D

 30 33  0  0  1  0  0  0  0  0999 V2000
    0.2718   -0.1644    3.0985 C   0  0  0  0  0  0  0  0  0  0  0  0
   -1.1929   -4.3178   -0.9943 C   0  0  0  0  0  0  0  0  0  0  0  0
   -0.1657   -7.6778   -0.4977 C   0  0  0  0  0  0  0  0  0  0  0  0
    2.6798   -4.6439    2.2194 C   0  0  0  0  0  0  0  0  0  0  0  0
    1.6321   -3.1953    4.8375 C   0  0  0  0  0  0  0  0  0  0  0  0
    0.7355   -2.1729    5.7752 C   0  0  0  0  0  0  0  0  0  0  0  0
    2.7652   -5.2590    0.5652 C   0  0  0  0  0  0  0  0  0  0  0  0
   -0.9340   -1.8516    1.3694 C   0  0  0  0  0  0  0  0  0  0  0  0
    0.3604   -5.1216    1.6382 C   0  0  0  0  0  0  0  0  0  0  0  0
   -1.1928   -1.8879    3.0003 C   0  0  0  0  0  0  0  0  0  0  0  0
    0.9104   -4.1904    0.7315 C   0  0  0  0  0  0  0  0  0  0  0  0
    6.0022   -1.5451    5.3251 C   0  0  0  0  0  0  0  0  0  0  0  0
    1.5215   -3.1301    2.3054 C   0  0  2  0  0  0  0  0  0  0  0  0
    0.8435   -2.9998    3.6169 C   0  0  2  0  0  0  0  0  0  0  0  0
   -0.0808   -3.0621    1.1698 C   0  0  2  0  0  0  0  0  0  0  0  0
    1.2178   -1.0416    4.9206 C   0  0  2  0  0  0  0  0  0  0  0  0
    1.2085   -5.4934   -0.4272 C   0  0  2  0  0  0  0  0  0  0  0  0
   -0.3571   -6.2392    1.2728 C   0  0  0  0  0  0  0  0  0  0  0  0
    3.6801   -1.3599    5.0060 C   0  0  0  0  0  0  0  0  0  0  0  0
    0.2780   -1.5907    3.6744 C   0  0  1  0  0  0  0  0  0  0  0  0
    0.1418   -4.0556   -0.3835 C   0  0  2  0  0  0  0  0  0  0  0  0
    5.9631   -0.7581    6.6377 C   0  0  0  0  0  0  0  0  0  0  0  0
    4.9862   -1.0961    7.5050 F   0  0  0  0  0  0  0  0  0  0  0  0
    7.1235   -0.9268    7.3088 F   0  0  0  0  0  0  0  0  0  0  0  0
    5.8161    0.5623    6.3812 F   0  0  0  0  0  0  0  0  0  0  0  0
    2.6628   -0.8450    4.3854 N   0  0  0  0  0  0  0  0  0  0  0  0
    0.4119   -6.6328    0.2148 N   0  0  0  0  0  0  0  0  0  0  0  0
   -1.3385   -6.5794    1.8876 O   0  0  0  0  0  0  0  0  0  0  0  0
    3.7213   -2.2016    6.0881 O   0  0  0  0  0  0  0  0  0  0  0  0
    4.8974   -1.2485    4.4599 O   0  0  0  0  0  0  0  0  0  0  0  0
  6  5  1  0
  7  4  1  0
 10  8  1  0
 11  9  2  0
 13  4  1  1
 13 14  1  0
 13 15  1  0
 14  5  1  1
 14 20  1  0
 15  8  1  6
 15 21  1  0
 16  6  1  0
 16 26  1  6
 17  7  1  1
 17 27  1  0
 18  9  1  0
 19 29  1  0
 20 10  1  0
 20 16  1  0
 20  1  1  6
 21 11  1  0
 21 17  1  0
 21  2  1  6
 22 12  1  0
 23 22  1  0
 24 22  1  0
 25 22  1  0
 26 19  2  3
 27 18  1  0
 27  3  1  0
 28 18  2  0
 30 12  1  0
 30 19  1  0
M  END
>  <DRUGBANK_ID>  (1) 
DB17016

>  <COMMON_NAME>  (1) 
MK-4541

>  <CAS_NUMBER>  (1) 
796885-38-6

>  <SYNONYMS>  (1) 
2,2,2-trifluoroethyl N-[(1S,3aS,3bS,5aR,9aR,9bS,11aS)-6,9a,11a-trimethyl-7-oxo-2,3,3a,3b,4,5,5a,9b,10,11-decahydro-1H-indeno[5,4-f]quinolin-1-yl]carbamate

$$$$
