
     RDKit          3D

 27 30  0  0  1  0  0  0  0  0999 V2000
    1.3816   -0.3349    0.0861 C   0  0  0  0  0  0  0  0  0  0  0  0
    1.1837    0.9965   -0.5833 C   0  0  0  0  0  0  0  0  0  0  0  0
    1.2306    1.2707   -2.0865 C   0  0  2  0  0  0  0  0  0  0  0  0
    0.7198    2.6128   -2.6268 C   0  0  0  0  0  0  0  0  0  0  0  0
    0.7114    2.4821   -4.0431 N   0  0  0  0  0  0  0  0  0  0  0  0
    0.4189    1.0795   -4.3436 C   0  0  0  0  0  0  0  0  0  0  0  0
    0.3607    0.3736   -2.9467 C   0  0  2  0  0  0  0  0  0  0  0  0
   -1.0901    0.1760   -2.4615 C   0  0  0  0  0  0  0  0  0  0  0  0
   -1.9216   -0.8332   -2.9419 C   0  0  0  0  0  0  0  0  0  0  0  0
   -3.0518   -0.9778   -2.1840 N   0  0  0  0  0  0  0  0  0  0  0  0
   -2.9499   -0.0579   -1.2477 C   0  0  0  0  0  0  0  0  0  0  0  0
   -3.8274    0.1104   -0.0986 C   0  0  0  0  0  0  0  0  0  0  0  0
   -3.5893    0.9342    0.8980 N   0  0  0  0  0  0  0  0  0  0  0  0
   -2.4998    1.7234    0.7105 C   0  0  0  0  0  0  0  0  0  0  0  0
   -1.7152    1.8301   -0.4226 C   0  0  0  0  0  0  0  0  0  0  0  0
   -0.8215    2.8990   -0.1498 C   0  0  0  0  0  0  0  0  0  0  0  0
   -0.7792    3.0746    1.2102 C   0  0  0  0  0  0  0  0  0  0  0  0
   -1.9257    2.5161    1.6883 N   0  0  0  0  0  0  0  0  0  0  0  0
   -1.8571    0.7769   -1.4255 N   0  0  0  0  0  0  0  0  0  0  0  0
    0.9369    3.4503   -4.9582 C   0  0  0  0  0  0  0  0  0  0  0  0
    1.0736    3.1778   -6.1692 O   0  0  0  0  0  0  0  0  0  0  0  0
    1.0302    4.7563   -4.6099 N   0  0  0  0  0  0  0  0  0  0  0  0
    0.9019    5.4992   -3.3388 C   0  0  0  0  0  0  0  0  0  0  0  0
    2.2299    5.9897   -2.7483 C   0  0  0  0  0  0  0  0  0  0  0  0
    2.6882    7.0654   -3.4259 F   0  0  0  0  0  0  0  0  0  0  0  0
    2.0682    6.3571   -1.4554 F   0  0  0  0  0  0  0  0  0  0  0  0
    3.1901    5.0400   -2.7762 F   0  0  0  0  0  0  0  0  0  0  0  0
  1  2  1  0
  3  2  1  1
  3  4  1  0
  3  7  1  0
  4  5  1  0
  5  6  1  0
  5 20  1  0
  7  6  1  0
  7  8  1  1
  8  9  2  0
  8 19  1  0
  9 10  1  0
 10 11  2  0
 11 12  1  0
 11 19  1  0
 12 13  2  0
 13 14  1  0
 14 15  2  0
 14 18  1  0
 15 16  1  0
 15 19  1  0
 16 17  2  0
 17 18  1  0
 20 21  2  0
 20 22  1  0
 22 23  1  0
 23 24  1  0
 24 25  1  0
 24 26  1  0
 24 27  1  0
M  END
>  <DRUGBANK_ID>  (1) 
DB15091

>  <COMMON_NAME>  (1) 
Upadacitinib

>  <CAS_NUMBER>  (1) 
1310726-60-3

>  <UNII>  (1) 
4RA0KN46E0

>  <SYNONYMS>  (1) 
Upadacitinib

$$$$
