
     RDKit          3D

 30 33  0  0  1  0  0  0  0  0999 V2000
   -0.9241   -0.8039    0.2162 C   0  0  1  0  0  0  0  0  0  0  0  0
    0.1003   -1.5820   -0.5918 C   0  0  0  0  0  0  0  0  0  0  0  0
    1.4784   -0.9244   -0.5335 C   0  0  1  0  0  0  0  0  0  0  0  0
    1.4454    0.5644   -0.9211 C   0  0  0  0  0  0  0  0  0  0  0  0
    0.3670    1.3435   -0.1999 C   0  0  0  0  0  0  0  0  0  0  0  0
   -0.9538    0.6731   -0.1886 C   0  0  0  0  0  0  0  0  0  0  0  0
   -0.9390    1.2554    2.6552 C   0  0  0  0  0  0  0  0  0  0  0  0
    0.6847    2.4839    0.4596 C   0  0  0  0  0  0  0  0  0  0  0  0
   -0.1903    3.2598    1.3191 C   0  0  0  0  0  0  0  0  0  0  0  0
   -0.9570    2.7228    2.2856 C   0  0  0  0  0  0  0  0  0  0  0  0
   -1.8546    1.7349    4.9096 C   0  0  0  0  0  0  0  0  0  0  0  0
   -0.8399    0.9330    4.1218 C   0  0  0  0  0  0  0  0  0  0  0  0
   -2.0016    3.4432    3.0751 C   0  0  1  0  0  0  0  0  0  0  0  0
   -1.7521    3.2466    4.5890 C   0  0  1  0  0  0  0  0  0  0  0  0
   -2.9067    4.0990    5.1600 C   0  0  2  0  0  0  0  0  0  0  0  0
   -2.2441    4.9345    2.9105 C   0  0  0  0  0  0  0  0  0  0  0  0
   -3.0147    5.3032    4.1768 C   0  0  0  0  0  0  0  0  0  0  0  0
   -2.7510    4.5196    6.6359 C   0  0  1  0  0  0  0  0  0  0  0  0
   -3.8038    5.5335    6.9769 C   0  0  0  0  0  0  0  0  0  0  0  0
   -4.7575    5.3647    7.9081 C   0  0  0  0  0  0  0  0  0  0  0  0
   -5.7465    6.4096    8.2719 C   0  0  1  0  0  0  0  0  0  0  0  0
   -7.0299    5.8320    8.0791 O   0  0  0  0  0  0  0  0  0  0  0  0
   -5.5834    6.7905    9.7086 C   0  0  0  0  0  0  0  0  0  0  0  0
   -5.6483    8.2104   10.2019 C   0  0  0  0  0  0  0  0  0  0  0  0
   -4.3198    7.5124   10.1301 C   0  0  0  0  0  0  0  0  0  0  0  0
    2.0673   -1.1059    0.7576 O   0  0  0  0  0  0  0  0  0  0  0  0
   -0.3699    3.7981    5.0245 C   0  0  0  0  0  0  0  0  0  0  0  0
   -2.2029   -1.4213    0.0947 O   0  0  0  0  0  0  0  0  0  0  0  0
   -2.7738    3.3088    7.5794 C   0  0  0  0  0  0  0  0  0  0  0  0
   -2.1004    1.3501   -0.3941 C   0  0  0  0  0  0  0  0  0  0  0  0
  1  2  1  0
  1  6  1  0
  1 28  1  6
  2  3  1  0
  3  4  1  0
  3 26  1  1
  4  5  1  0
  5  8  2  0
  6  5  1  0
  6 30  2  0
  7 10  1  0
  8  9  1  0
  9 10  2  0
 10 13  1  0
 11 12  1  0
 11 14  1  0
 12  7  1  0
 13 16  1  1
 14 13  1  0
 14 27  1  1
 15 14  1  0
 15 17  1  6
 15 18  1  0
 16 17  1  0
 18 19  1  0
 18 29  1  1
 19 20  2  0
 20 21  1  0
 21 22  1  1
 21 23  1  0
 23 24  1  0
 23 25  1  0
 25 24  1  0
M  END
>  <DRUGBANK_ID>  (1) 
DB02300

>  <SECONDARY_ACCESSION_NUMBERS>  (1) 
EXPT02131

>  <COMMON_NAME>  (1) 
Calcipotriol

>  <CAS_NUMBER>  (1) 
112965-21-6

>  <UNII>  (1) 
143NQ3779B

>  <SYNONYMS>  (1) 
Calcipotriene; Calcipotriol

$$$$
