
     RDKit          3D

 30 30  0  0  0  0  0  0  0  0999 V2000
    1.1044   -0.4056   -0.7582 C   0  0  0  0  0  0  0  0  0  0  0  0
    0.7459    1.1030   -0.8546 C   0  0  0  0  0  0  0  0  0  0  0  0
    1.2973    2.4201   -1.3180 N   0  0  0  0  0  0  0  0  0  0  0  0
    0.6206    3.7925   -0.9365 C   0  0  0  0  0  0  0  0  0  0  0  0
    0.7356    4.7255    0.3833 C   0  0  0  0  0  0  0  0  0  0  0  0
    2.6661    2.4259   -0.8531 C   0  0  0  0  0  0  0  0  0  0  0  0
    2.8978    2.8535    0.6150 C   0  0  0  0  0  0  0  0  0  0  0  0
    1.9119    2.8834    1.7278 O   0  0  0  0  0  0  0  0  0  0  0  0
    0.7193    2.3001    2.0953 C   0  0  0  0  0  0  0  0  0  0  0  0
   -0.3335    2.0097    1.2489 C   0  0  0  0  0  0  0  0  0  0  0  0
   -1.2211    0.9507    1.2967 C   0  0  0  0  0  0  0  0  0  0  0  0
   -1.3399    0.3340    2.5261 C   0  0  0  0  0  0  0  0  0  0  0  0
   -0.6718    0.9680    3.6238 C   0  0  0  0  0  0  0  0  0  0  0  0
    0.4090    1.9603    3.4321 C   0  0  0  0  0  0  0  0  0  0  0  0
    1.2375    2.2730    4.5021 O   0  0  0  0  0  0  0  0  0  0  0  0
    2.6189    2.6315    4.1865 C   0  0  0  0  0  0  0  0  0  0  0  0
    3.6023    1.4552    3.6765 C   0  0  0  0  0  0  0  0  0  0  0  0
    3.2437    0.6154    2.4977 N   0  0  0  0  0  0  0  0  0  0  0  0
    4.2204   -0.1720    1.7962 C   0  0  0  0  0  0  0  0  0  0  0  0
    4.3596   -1.4710    2.5461 C   0  0  0  0  0  0  0  0  0  0  0  0
    2.0299   -0.1626    2.6644 C   0  0  0  0  0  0  0  0  0  0  0  0
    1.5587   -1.1537    3.7018 C   0  0  0  0  0  0  0  0  0  0  0  0
   -1.2606    0.8663    4.8747 O   0  0  0  0  0  0  0  0  0  0  0  0
   -2.6708    0.5427    4.8080 C   0  0  0  0  0  0  0  0  0  0  0  0
   -3.6622    1.6907    4.3084 C   0  0  0  0  0  0  0  0  0  0  0  0
   -3.5688    2.3012    2.9525 N   0  0  0  0  0  0  0  0  0  0  0  0
   -4.6879    3.0639    2.4293 C   0  0  0  0  0  0  0  0  0  0  0  0
   -4.7011    4.4264    3.1028 C   0  0  0  0  0  0  0  0  0  0  0  0
   -2.4184    3.1843    2.7468 C   0  0  0  0  0  0  0  0  0  0  0  0
   -1.7403    4.1723    3.6742 C   0  0  0  0  0  0  0  0  0  0  0  0
  1  2  1  0
  2  3  1  0
  3  4  1  0
  3  6  1  0
  4  5  1  0
  6  7  1  0
  7  8  1  0
  8  9  1  0
  9 10  2  0
  9 14  1  0
 10 11  1  0
 11 12  2  0
 12 13  1  0
 13 14  2  0
 13 23  1  0
 14 15  1  0
 15 16  1  0
 16 17  1  0
 17 18  1  0
 18 19  1  0
 18 21  1  0
 19 20  1  0
 21 22  1  0
 23 24  1  0
 24 25  1  0
 25 26  1  0
 26 27  1  0
 26 29  1  0
 27 28  1  0
 29 30  1  0
M  END
>  <DRUGBANK_ID>  (1) 
DB13584

>  <COMMON_NAME>  (1) 
Gallamine

>  <CAS_NUMBER>  (1) 
153-76-4

>  <UNII>  (1) 
1146X1WTNM

$$$$
