
     RDKit          3D

 32 35  0  0  0  0  0  0  0  0999 V2000
    1.0039   -0.0424   -0.0557 O   0  0  0  0  0  0  0  0  0  0  0  0
    0.4983    0.8418    0.9283 C   0  0  0  0  0  0  0  0  0  0  0  0
    1.0205    0.5266    2.3168 C   0  0  0  0  0  0  0  0  0  0  0  0
    1.5609    1.5634    3.0263 C   0  0  0  0  0  0  0  0  0  0  0  0
    1.9647    1.3875    4.3393 C   0  0  0  0  0  0  0  0  0  0  0  0
    2.5762    2.3891    5.1114 O   0  0  0  0  0  0  0  0  0  0  0  0
    2.6923    3.6671    4.6069 C   0  0  0  0  0  0  0  0  0  0  0  0
    3.7770    4.4938    4.8146 C   0  0  0  0  0  0  0  0  0  0  0  0
    3.7330    5.8546    4.3442 C   0  0  0  0  0  0  0  0  0  0  0  0
    4.8093    6.7257    4.3901 C   0  0  0  0  0  0  0  0  0  0  0  0
    4.6677    8.0457    3.9320 C   0  0  0  0  0  0  0  0  0  0  0  0
    3.4150    8.5605    3.5351 C   0  0  0  0  0  0  0  0  0  0  0  0
    2.2960    7.7301    3.4773 C   0  0  0  0  0  0  0  0  0  0  0  0
    0.9187    8.3278    3.1231 C   0  0  0  0  0  0  0  0  0  0  0  0
    0.9007    9.5014    2.6901 O   0  0  0  0  0  0  0  0  0  0  0  0
   -0.3250    7.6751    3.1637 N   0  0  0  0  0  0  0  0  0  0  0  0
   -0.7587    6.4987    3.8283 C   0  0  0  0  0  0  0  0  0  0  0  0
   -0.2819    6.1844    5.1031 C   0  0  0  0  0  0  0  0  0  0  0  0
   -0.4098    4.8844    5.6123 C   0  0  0  0  0  0  0  0  0  0  0  0
   -1.0859    3.9021    4.8843 C   0  0  0  0  0  0  0  0  0  0  0  0
   -1.6431    4.2093    3.6297 C   0  0  0  0  0  0  0  0  0  0  0  0
   -1.4577    5.5097    3.0926 C   0  0  0  0  0  0  0  0  0  0  0  0
   -2.3670    3.1243    2.8706 C   0  0  0  0  0  0  0  0  0  0  0  0
   -3.6842    3.4217    2.7436 F   0  0  0  0  0  0  0  0  0  0  0  0
   -1.8899    2.9180    1.6113 F   0  0  0  0  0  0  0  0  0  0  0  0
   -2.3073    1.9073    3.4822 F   0  0  0  0  0  0  0  0  0  0  0  0
    2.5733    6.3682    3.7079 C   0  0  0  0  0  0  0  0  0  0  0  0
    1.7545    5.4284    3.1984 C   0  0  0  0  0  0  0  0  0  0  0  0
    1.7178    4.1966    3.7994 C   0  0  0  0  0  0  0  0  0  0  0  0
    1.8650    0.1800    4.9129 N   0  0  0  0  0  0  0  0  0  0  0  0
    1.3976   -0.8090    4.1183 C   0  0  0  0  0  0  0  0  0  0  0  0
    0.9610   -0.6985    2.8456 N   0  0  0  0  0  0  0  0  0  0  0  0
  1  2  1  0
  2  3  1  0
  3  4  2  0
  3 32  1  0
  4  5  1  0
  5  6  1  0
  5 30  2  0
  6  7  1  0
  7  8  2  0
  7 29  1  0
  8  9  1  0
  9 10  2  0
  9 27  1  0
 10 11  1  0
 11 12  2  0
 12 13  1  0
 13 14  1  0
 13 27  2  0
 14 15  2  0
 14 16  1  0
 16 17  1  0
 17 18  2  0
 17 22  1  0
 18 19  1  0
 19 20  2  0
 20 21  1  0
 21 22  2  0
 21 23  1  0
 23 24  1  0
 23 25  1  0
 23 26  1  0
 27 28  1  0
 28 29  2  0
 30 31  1  0
 31 32  2  0
M  END
>  <DRUGBANK_ID>  (1) 
DB16035

>  <COMMON_NAME>  (1) 
BFH772

>  <CAS_NUMBER>  (1) 
890128-81-1

>  <UNII>  (1) 
T1IV236CVP

$$$$
