
     RDKit          3D

 32 35  0  0  1  0  0  0  0  0999 V2000
   -1.1386    0.0039   -1.5510 C   0  0  0  0  0  0  0  0  0  0  0  0
    0.4016    0.0330   -1.5658 C   0  0  2  0  0  0  0  0  0  0  0  0
    0.7500    1.4272   -2.1470 C   0  0  0  0  0  0  0  0  0  0  0  0
    0.9049    1.3712   -3.6107 C   0  0  0  0  0  0  0  0  0  0  0  0
    1.0036    0.1832   -4.2947 C   0  0  0  0  0  0  0  0  0  0  0  0
    0.8844    0.5043   -5.6242 N   0  0  0  0  0  0  0  0  0  0  0  0
    1.0756    1.8475   -5.8050 C   0  0  0  0  0  0  0  0  0  0  0  0
    0.9989    2.4258   -4.5442 C   0  0  0  0  0  0  0  0  0  0  0  0
    1.0518    3.8183   -4.4313 C   0  0  0  0  0  0  0  0  0  0  0  0
    1.2437    4.5716   -5.5908 C   0  0  0  0  0  0  0  0  0  0  0  0
    1.3781    3.9567   -6.8378 C   0  0  0  0  0  0  0  0  0  0  0  0
    1.2945    2.5716   -6.9749 C   0  0  0  0  0  0  0  0  0  0  0  0
    0.9728   -1.2094   -3.7078 C   0  0  2  0  0  0  0  0  0  0  0  0
    1.1330   -1.1094   -2.2231 N   0  0  0  0  0  0  0  0  0  0  0  0
    0.9241   -2.3649   -1.4684 C   0  0  0  0  0  0  0  0  0  0  0  0
   -0.5014   -3.0485   -1.5177 C   0  0  0  0  0  0  0  0  0  0  0  0
   -1.2743   -3.1135   -2.8577 C   0  0  0  0  0  0  0  0  0  0  0  0
   -0.5554   -4.3994   -0.8492 C   0  0  0  0  0  0  0  0  0  0  0  0
   -1.2958   -2.3663   -0.6365 F   0  0  0  0  0  0  0  0  0  0  0  0
    1.7735   -2.3017   -4.4408 C   0  0  0  0  0  0  0  0  0  0  0  0
    1.7587   -3.6794   -4.1143 C   0  0  0  0  0  0  0  0  0  0  0  0
    1.0952   -4.2054   -3.0900 F   0  0  0  0  0  0  0  0  0  0  0  0
    2.4037   -4.6743   -4.8314 C   0  0  0  0  0  0  0  0  0  0  0  0
    3.0514   -4.3463   -5.9947 C   0  0  0  0  0  0  0  0  0  0  0  0
    3.7465   -5.3669   -6.7517 C   0  0  0  0  0  0  0  0  0  0  0  0
    4.3996   -5.0802   -7.8866 C   0  0  0  0  0  0  0  0  0  0  0  0
    5.1009   -6.1436   -8.5895 C   0  0  0  0  0  0  0  0  0  0  0  0
    5.7005   -5.7096   -9.7075 O   0  0  0  0  0  0  0  0  0  0  0  0
    5.1350   -7.3112   -8.2012 O   0  0  0  0  0  0  0  0  0  0  0  0
    3.0370   -3.0239   -6.3925 C   0  0  0  0  0  0  0  0  0  0  0  0
    2.4639   -2.0403   -5.6185 C   0  0  0  0  0  0  0  0  0  0  0  0
    2.6265   -0.8285   -6.1466 F   0  0  0  0  0  0  0  0  0  0  0  0
  2  3  1  0
  2 14  1  0
  2  1  1  6
  3  4  1  0
  4  5  2  0
  4  8  1  0
  5  6  1  0
  6  7  1  0
  7  8  2  0
  7 12  1  0
  8  9  1  0
  9 10  2  0
 10 11  1  0
 11 12  2  0
 13  5  1  0
 13 14  1  0
 13 20  1  6
 14 15  1  0
 15 16  1  0
 16 17  1  0
 16 18  1  0
 16 19  1  0
 20 21  2  0
 20 31  1  0
 21 22  1  0
 21 23  1  0
 23 24  2  0
 24 25  1  0
 24 30  1  0
 25 26  2  0
 26 27  1  0
 27 28  1  0
 27 29  2  0
 30 31  2  0
 31 32  1  0
M  END
>  <DRUGBANK_ID>  (1) 
DB15138

>  <COMMON_NAME>  (1) 
AZD-9496

>  <CAS_NUMBER>  (1) 
1639042-08-2

>  <UNII>  (1) 
DA9P7LN909

$$$$
