
     RDKit          3D

 36 41  0  0  0  0  0  0  0  0999 V2000
   -1.2217    1.2546    0.1810 C   0  0  0  0  0  0  0  0  0  0  0  0
   -0.6002    0.0006   -0.4974 C   0  0  0  0  0  0  0  0  0  0  0  0
   -1.2659   -1.2142    0.2127 C   0  0  0  0  0  0  0  0  0  0  0  0
    0.8258   -0.0131   -0.1718 C   0  0  0  0  0  0  0  0  0  0  0  0
    2.0041   -0.0212    0.1518 N   0  0  0  0  0  0  0  0  0  0  0  0
   -0.8521   -0.0516   -2.0477 C   0  0  0  0  0  0  0  0  0  0  0  0
   -0.9715   -1.2630   -2.7627 C   0  0  0  0  0  0  0  0  0  0  0  0
   -1.2595   -1.3998   -4.2098 C   0  0  0  0  0  0  0  0  0  0  0  0
   -1.4295   -0.3318   -5.1033 C   0  0  0  0  0  0  0  0  0  0  0  0
   -1.3282    0.9291   -4.3146 C   0  0  0  0  0  0  0  0  0  0  0  0
   -1.0037    1.0637   -2.8682 C   0  0  0  0  0  0  0  0  0  0  0  0
   -1.1096   -0.4646   -6.7735 N   0  0  0  0  0  0  0  0  0  0  0  0
   -2.0705   -0.9266   -8.1196 C   0  0  0  0  0  0  0  0  0  0  0  0
   -1.9122   -0.5937   -9.8108 C   0  0  0  0  0  0  0  0  0  0  0  0
   -0.8488    0.1050  -10.4283 C   0  0  0  0  0  0  0  0  0  0  0  0
   -0.4529    1.2642  -11.2768 C   0  0  0  0  0  0  0  0  0  0  0  0
   -1.5146    1.5477  -12.1601 C   0  0  0  0  0  0  0  0  0  0  0  0
   -2.7146    0.6355  -11.9761 C   0  0  0  0  0  0  0  0  0  0  0  0
   -2.9303   -0.3614  -10.7572 C   0  0  0  0  0  0  0  0  0  0  0  0
   -4.0558   -0.8078  -10.2231 N   0  0  0  0  0  0  0  0  0  0  0  0
   -4.0848   -0.7159   -8.8120 C   0  0  0  0  0  0  0  0  0  0  0  0
   -3.1246   -0.1736   -7.9007 C   0  0  0  0  0  0  0  0  0  0  0  0
   -2.2867    1.2214   -7.7661 N   0  0  0  0  0  0  0  0  0  0  0  0
   -0.9871    0.8739   -7.0875 C   0  0  0  0  0  0  0  0  0  0  0  0
    0.0835    1.4707   -7.0398 O   0  0  0  0  0  0  0  0  0  0  0  0
   -1.8163    1.8566   -8.9579 C   0  0  0  0  0  0  0  0  0  0  0  0
    1.1771    1.6948  -10.6740 C   0  0  0  0  0  0  0  0  0  0  0  0
    1.7153    0.6526   -9.5784 C   0  0  0  0  0  0  0  0  0  0  0  0
    1.9890   -0.7168   -9.9600 C   0  0  0  0  0  0  0  0  0  0  0  0
    1.1683   -1.9407   -9.5496 C   0  0  0  0  0  0  0  0  0  0  0  0
    0.2069   -2.4978  -10.4273 C   0  0  0  0  0  0  0  0  0  0  0  0
    0.2507   -1.9992  -11.7110 C   0  0  0  0  0  0  0  0  0  0  0  0
    1.3118   -1.0561  -11.9976 C   0  0  0  0  0  0  0  0  0  0  0  0
    2.3768   -0.5408  -11.2590 C   0  0  0  0  0  0  0  0  0  0  0  0
    2.9360    0.6719  -11.7305 N   0  0  0  0  0  0  0  0  0  0  0  0
    2.2356    1.8361  -11.5356 C   0  0  0  0  0  0  0  0  0  0  0  0
  1  2  1  0
  2  3  1  0
  2  4  1  0
  2  6  1  0
  4  5  3  0
  6  7  2  0
  6 11  1  0
  7  8  1  0
  8  9  2  0
  9 10  1  0
  9 12  1  0
 10 11  2  0
 12 13  1  0
 12 24  1  0
 13 14  1  0
 13 22  2  0
 14 15  2  0
 14 19  1  0
 15 16  1  0
 16 17  2  0
 16 27  1  0
 17 18  1  0
 18 19  2  0
 19 20  1  0
 20 21  2  0
 21 22  1  0
 22 23  1  0
 23 24  1  0
 23 26  1  0
 24 25  2  0
 27 28  2  0
 27 36  1  0
 28 29  1  0
 29 30  2  0
 29 34  1  0
 30 31  1  0
 31 32  2  0
 32 33  1  0
 33 34  2  0
 34 35  1  0
 35 36  2  0
M  END
>  <DRUGBANK_ID>  (1) 
DB11651

>  <COMMON_NAME>  (1) 
Dactolisib

>  <CAS_NUMBER>  (1) 
915019-65-7

>  <UNII>  (1) 
RUJ6Z9Y0DT

>  <SYNONYMS>  (1) 
Dactolisib

$$$$
