PTU
     RDKit          3D

 12 12  0  0  0  0  0  0  0  0999 V2000
    0.9855    0.1118   -0.1489 N   0  0  0  0  0  0  0  0  0  0  0  0
    0.4122   -0.9051   -0.8512 C   0  0  0  0  0  0  0  0  0  0  0  0
   -1.3433   -1.0281   -0.8552 S   0  0  0  0  0  0  0  0  0  0  0  0
    1.0395   -1.8223   -1.5146 N   0  0  0  0  0  0  0  0  0  0  0  0
    2.4471   -1.8998   -1.4531 C   0  0  0  0  0  0  0  0  0  0  0  0
    3.1027   -1.9070   -0.2132 C   0  0  0  0  0  0  0  0  0  0  0  0
    4.4905   -1.8741   -0.1255 C   0  0  0  0  0  0  0  0  0  0  0  0
    5.2504   -1.9695   -1.2841 C   0  0  0  0  0  0  0  0  0  0  0  0
    4.6166   -2.0880   -2.5222 C   0  0  0  0  0  0  0  0  0  0  0  0
    3.2193   -2.0128   -2.6109 C   0  0  0  0  0  0  0  0  0  0  0  0
   -1.9558    0.2760    0.2422 C   0  0  0  0  0  0  0  0  0  0  0  0
   -1.5887    0.0724    1.7057 C   0  0  0  0  0  0  0  0  0  0  0  0
  1  2  1  0
  2  3  1  0
  2  4  2  0
  3 11  1  0
  4  5  1  0
  5  6  2  0
  5 10  1  0
  6  7  1  0
  7  8  2  0
  8  9  1  0
  9 10  2  0
 11 12  1  0
M  END
>  <DRUGBANK_ID>  (1) 
DB03707

>  <SECONDARY_ACCESSION_NUMBERS>  (1) 
EXPT02689

>  <COMMON_NAME>  (1) 
S-Ethyl-N-Phenyl-Isothiourea

$$$$
