680
     RDKit          3D

 30 33  0  0  0  0  0  0  0  0999 V2000
   -0.1916    1.8681    0.0293 S   0  0  0  0  0  0  0  0  0  0  0  0
    2.1627    0.1899    2.0549 O   0  0  0  0  0  0  0  0  0  0  0  0
   -1.6299   -2.6376    2.2197 O   0  0  0  0  0  0  0  0  0  0  0  0
    5.6281   -4.0544   -0.7307 O   0  0  0  0  0  0  0  0  0  0  0  0
    3.4508   -4.0457   -0.8264 O   0  0  0  0  0  0  0  0  0  0  0  0
    2.7772   -2.6935    1.1863 N   0  0  0  0  0  0  0  0  0  0  0  0
   -0.4011   -1.3646    0.2486 N   0  0  0  0  0  0  0  0  0  0  0  0
    4.5571   -1.9357   -1.1656 N   0  0  0  0  0  0  0  0  0  0  0  0
    2.1955   -3.7386    1.9896 C   0  0  0  0  0  0  0  0  0  0  0  0
    3.6555   -1.6416    1.6634 C   0  0  0  0  0  0  0  0  0  0  0  0
    1.5681   -2.1677    0.7742 C   0  0  0  0  0  0  0  0  0  0  0  0
    0.9127   -3.1328    2.6903 C   0  0  0  0  0  0  0  0  0  0  0  0
    3.2146   -0.5471    2.6102 C   0  0  0  0  0  0  0  0  0  0  0  0
    1.1185   -0.7087    1.8527 C   0  0  0  0  0  0  0  0  0  0  0  0
   -0.5274   -2.4128    1.6754 C   0  0  0  0  0  0  0  0  0  0  0  0
    0.8795   -0.5629   -0.7438 C   0  0  0  0  0  0  0  0  0  0  0  0
   -1.5709   -0.6517    0.0847 C   0  0  0  0  0  0  0  0  0  0  0  0
    1.1144    0.8129   -0.5997 C   0  0  0  0  0  0  0  0  0  0  0  0
   -1.5952    0.7378   -0.1053 C   0  0  0  0  0  0  0  0  0  0  0  0
    2.1123   -1.2888   -1.3865 C   0  0  0  0  0  0  0  0  0  0  0  0
   -2.6489   -1.5142   -0.0824 C   0  0  0  0  0  0  0  0  0  0  0  0
    2.4749    1.2981   -0.8200 C   0  0  0  0  0  0  0  0  0  0  0  0
    3.4658   -0.9111   -1.3441 C   0  0  0  0  0  0  0  0  0  0  0  0
   -2.7951    1.2477   -0.5366 C   0  0  0  0  0  0  0  0  0  0  0  0
    3.6311    0.4598   -1.1486 C   0  0  0  0  0  0  0  0  0  0  0  0
   -3.8063   -0.9980   -0.5669 C   0  0  0  0  0  0  0  0  0  0  0  0
   -3.8686    0.3767   -0.7984 C   0  0  0  0  0  0  0  0  0  0  0  0
    4.4309   -3.3710   -0.9056 C   0  0  0  0  0  0  0  0  0  0  0  0
    6.8272   -3.6803   -1.3921 C   0  0  0  0  0  0  0  0  0  0  0  0
    6.5711   -3.1806   -2.8028 C   0  0  0  0  0  0  0  0  0  0  0  0
  1 18  1  0
  1 19  1  0
  2 13  1  0
  2 14  1  0
  3 15  2  0
  4 28  1  0
  4 29  1  0
  5 28  2  0
  6  9  1  0
  6 10  1  0
  6 11  1  0
  7 15  1  0
  7 16  1  0
  7 17  1  0
  8 23  1  0
  8 28  1  0
  9 12  1  0
 10 13  1  0
 11 14  1  0
 12 15  1  0
 16 18  2  0
 16 20  1  0
 17 19  2  0
 17 21  1  0
 18 22  1  0
 19 24  1  0
 20 23  2  0
 21 26  2  0
 22 25  2  0
 23 25  1  0
 24 27  2  0
 26 27  1  0
 29 30  1  0
M  END
>  <DRUGBANK_ID>  (1) 
DB00680

>  <SECONDARY_ACCESSION_NUMBERS>  (1) 
APRD01124

>  <COMMON_NAME>  (1) 
Moricizine

>  <CAS_NUMBER>  (1) 
31883-05-3

>  <UNII>  (1) 
2GT1D0TMX1

>  <SYNONYMS>  (1) 
[10-(3-Morpholin-4-yl-propionyl)-10H-phenothiazin-2-yl]-carbamic acid ethyl ester; Ethmozin; ethyl 10-(3-morpholinopropionyl)phenothiazine-2-carbamate; ethyl 10-(Î²-N-morpholinylpropionyl)phenothiazine-2-carbamate; Etmozin; Moracizin; Moracizina; Moracizine; Moracizinum; Moricizine

$$$$
