541
     RDKit          3D

 32 35  0  0  0  0  0  0  0  0999 V2000
    1.2633   -1.4846   -0.0315 C   0  0  0  0  0  0  0  0  0  0  0  0
    2.5970   -1.0684   -0.0075 C   0  0  0  0  0  0  0  0  0  0  0  0
    2.8959    0.2858   -0.0023 C   0  0  0  0  0  0  0  0  0  0  0  0
    1.8612    1.2141   -0.0552 C   0  0  0  0  0  0  0  0  0  0  0  0
    0.5120    0.8009   -0.1286 C   0  0  0  0  0  0  0  0  0  0  0  0
    0.2120   -0.5792   -0.0826 C   0  0  0  0  0  0  0  0  0  0  0  0
   -1.0476   -1.0535   -0.0585 N   0  0  0  0  0  0  0  0  0  0  0  0
   -3.4611   -0.7496    0.0098 C   0  0  0  0  0  0  0  0  0  0  0  0
   -2.0786   -0.1787   -0.0903 C   0  0  0  0  0  0  0  0  0  0  0  0
   -1.8879    1.1916   -0.1754 C   0  0  0  0  0  0  0  0  0  0  0  0
   -0.5791    1.7023   -0.1767 C   0  0  0  0  0  0  0  0  0  0  0  0
   -0.4048    3.1988   -0.0176 C   0  0  0  0  0  0  0  0  0  0  0  0
   -0.1945    3.3149    2.3802 C   0  0  0  0  0  0  0  0  0  0  0  0
    0.2993    3.6488    1.1517 O   0  0  0  0  0  0  0  0  0  0  0  0
   -0.7164    2.0731    2.7263 C   0  0  0  0  0  0  0  0  0  0  0  0
   -1.1242    1.7636    4.0103 C   0  0  0  0  0  0  0  0  0  0  0  0
   -0.9640    2.6919    5.0289 C   0  0  0  0  0  0  0  0  0  0  0  0
   -0.3530    3.9185    4.7034 C   0  0  0  0  0  0  0  0  0  0  0  0
   -0.0210    4.2491    3.3876 C   0  0  0  0  0  0  0  0  0  0  0  0
   -0.8327    1.0766    6.9898 C   0  0  0  0  0  0  0  0  0  0  0  0
   -1.4980    2.3550    6.4172 C   0  0  1  0  0  0  0  0  0  0  0  0
   -1.3028    3.5334    7.3727 C   0  0  0  0  0  0  0  0  0  0  0  0
   -2.9920    1.9295    6.3387 C   0  0  0  0  0  0  0  0  0  0  0  0
   -3.9124    2.5863    5.8595 O   0  0  0  0  0  0  0  0  0  0  0  0
   -1.9633    0.3558    7.6975 C   0  0  0  0  0  0  0  0  0  0  0  0
   -4.2263   -0.2904    6.6575 C   0  0  1  0  0  0  0  0  0  0  0  0
   -3.7263   -1.5770    5.9218 C   0  0  0  0  0  0  0  0  0  0  0  0
   -3.9533   -2.7813    6.5516 N   0  0  0  0  0  0  0  0  0  0  0  0
   -3.4720   -3.9574    5.9378 O   0  0  0  0  0  0  0  0  0  0  0  0
   -3.1144   -1.5393    4.8514 O   0  0  0  0  0  0  0  0  0  0  0  0
   -4.9896   -0.5976    7.9411 C   0  0  0  0  0  0  0  0  0  0  0  0
   -3.1118    0.6544    6.8874 N   0  0  0  0  0  0  0  0  0  0  0  0
  1  2  2  0
  1  6  1  0
  2  3  1  0
  3  4  2  0
  4  5  1  0
  5  6  2  0
  5 11  1  0
  6  7  1  0
  7  9  2  0
  8  9  1  0
  9 10  1  0
 10 11  2  0
 11 12  1  0
 12 14  1  0
 13 14  1  0
 13 15  2  0
 13 19  1  0
 15 16  1  0
 16 17  2  0
 17 18  1  0
 18 19  2  0
 20 21  1  0
 20 25  1  0
 21 17  1  0
 21 22  1  1
 21 23  1  0
 23 24  2  0
 23 32  1  0
 25 32  1  0
 26 27  1  0
 26 31  1  1
 26 32  1  0
 27 28  1  0
 27 30  2  0
 28 29  1  0
M  END
>  <DRUGBANK_ID>  (1) 
DB07145

>  <COMMON_NAME>  (1) 
(2R)-N-HYDROXY-2-[(3S)-3-METHYL-3-{4-[(2-METHYLQUINOLIN-4-YL)METHOXY]PHENYL}-2-OXOPYRROLIDIN-1-YL]PROPANAMIDE

$$$$
