
     RDKit          3D

  8  7  0  0  0  0  0  0  0  0999 V2000
    1.0249    0.0521    0.0711 O   0  0  0  0  0  0  0  0  0  0  0  0
    0.5685   -0.8694   -0.9113 C   0  0  0  0  0  0  0  0  0  0  0  0
    1.1187   -0.4960   -2.2847 C   0  0  0  0  0  0  0  0  0  0  0  0
    2.6505   -0.5960   -2.3640 C   0  0  0  0  0  0  0  0  0  0  0  0
    3.1955   -1.9871   -2.0242 C   0  0  0  0  0  0  0  0  0  0  0  0
    2.6680   -3.0502   -2.9645 C   0  0  0  0  0  0  0  0  0  0  0  0
    3.6134   -3.7045   -3.6646 O   0  0  0  0  0  0  0  0  0  0  0  0
    1.4803   -3.3230   -3.0875 O   0  0  0  0  0  0  0  0  0  0  0  0
  1  2  1  0
  2  3  1  0
  3  4  1  0
  4  5  1  0
  5  6  1  0
  6  7  1  0
  6  8  2  0
M  END
>  <DRUGBANK_ID>  (1) 
DB04781

>  <COMMON_NAME>  (1) 
5-hydroxyvaleric acid

>  <CAS_NUMBER>  (1) 
13392-69-3

>  <UNII>  (1) 
H5EVV4LP59

>  <SYNONYMS>  (1) 
4-oxy-butan-carbonsäure; 5-hydroxy-pentansäure; 5-hydroxypentanoic acid; delta-hydroxypentanoic acid; delta-hydroxyvaleric acid

$$$$
