PU8
     RDKit          3D

 28 30  0  0  0  0  0  0  0  0999 V2000
    0.8155    0.1268   -0.3183 C   0  0  0  0  0  0  0  0  0  0  0  0
    0.4093    0.3102    1.0306 O   0  0  0  0  0  0  0  0  0  0  0  0
    0.7568   -0.7431    1.8603 C   0  0  0  0  0  0  0  0  0  0  0  0
    2.1606   -1.0055    2.0483 C   0  0  0  0  0  0  0  0  0  0  0  0
   -0.3691   -1.4246    2.5146 C   0  0  0  0  0  0  0  0  0  0  0  0
   -1.6900   -1.3633    2.3656 O   0  0  0  0  0  0  0  0  0  0  0  0
   -2.1002   -0.1068    1.9033 C   0  0  0  0  0  0  0  0  0  0  0  0
   -0.0596   -2.4286    3.4295 C   0  0  0  0  0  0  0  0  0  0  0  0
   -0.8106   -3.4254    3.9808 O   0  0  0  0  0  0  0  0  0  0  0  0
   -2.2367   -3.4951    3.9941 C   0  0  0  0  0  0  0  0  0  0  0  0
    1.3047   -2.5579    3.5119 C   0  0  0  0  0  0  0  0  0  0  0  0
    2.5208   -2.0356    2.9009 C   0  0  0  0  0  0  0  0  0  0  0  0
    4.0298   -2.6506    2.8308 C   0  0  0  0  0  0  0  0  0  0  0  0
    4.6720   -3.0957    4.1741 C   0  0  0  0  0  0  0  0  0  0  0  0
    5.7384   -2.4383    4.6147 N   0  0  0  0  0  0  0  0  0  0  0  0
    5.8972   -2.8197    5.9135 C   0  0  0  0  0  0  0  0  0  0  0  0
    6.7424   -2.3600    6.9208 C   0  0  0  0  0  0  0  0  0  0  0  0
    7.6607   -1.3639    6.6689 N   0  0  0  0  0  0  0  0  0  0  0  0
    5.0178   -3.8307    6.2535 C   0  0  0  0  0  0  0  0  0  0  0  0
    4.8673   -4.3998    7.4520 N   0  0  0  0  0  0  0  0  0  0  0  0
    5.7094   -3.8608    8.3521 C   0  0  0  0  0  0  0  0  0  0  0  0
    6.6351   -2.8927    8.1567 N   0  0  0  0  0  0  0  0  0  0  0  0
    4.3446   -4.1349    5.0935 N   0  0  0  0  0  0  0  0  0  0  0  0
    3.4747   -5.3417    5.0809 C   0  0  0  0  0  0  0  0  0  0  0  0
    2.1076   -5.1173    4.5143 C   0  0  0  0  0  0  0  0  0  0  0  0
    2.3238   -4.9353    2.9844 C   0  0  0  0  0  0  0  0  0  0  0  0
    2.6941   -5.6873    1.7779 C   0  0  0  0  0  0  0  0  0  0  0  0
    3.4515   -0.1190    1.2977 Cl  0  0  0  0  0  0  0  0  0  0  0  0
  1  2  1  0
  2  3  1  0
  3  4  2  0
  3  5  1  0
  4 12  1  0
  4 28  1  0
  5  6  1  0
  5  8  2  0
  6  7  1  0
  8  9  1  0
  8 11  1  0
  9 10  1  0
 11 12  2  0
 12 13  1  0
 13 14  1  0
 14 15  2  0
 14 23  1  0
 15 16  1  0
 16 17  2  0
 16 19  1  0
 17 18  1  0
 17 22  1  0
 19 20  2  0
 19 23  1  0
 20 21  1  0
 21 22  2  0
 23 24  1  0
 24 25  1  0
 25 26  1  0
 26 27  1  0
M  END
>  <DRUGBANK_ID>  (1) 
DB03504

>  <SECONDARY_ACCESSION_NUMBERS>  (1) 
EXPT02698

>  <COMMON_NAME>  (1) 
9-Butyl-8-(2-Chloro-3,4,5-Trimethoxy-Benzyl)-9h-Purin-6-Ylamine

$$$$
