
     RDKit          3D

 26 29  0  0  0  0  0  0  0  0999 V2000
   -3.6976   -0.6597   -0.2028 C   0  0  0  0  0  0  0  0  0  0  0  0
   -7.3108    1.9984    0.1192 C   0  0  0  0  0  0  0  0  0  0  0  0
   -3.9223   -1.4013    1.7218 C   0  0  2  0  0  0  0  0  0  0  0  0
   -3.1019    1.4906    0.8909 C   0  0  0  0  0  0  0  0  0  0  0  0
   -2.8966   -1.5135    0.6859 C   0  0  0  0  0  0  0  0  0  0  0  0
   -5.6177    2.0967   -2.2143 C   0  0  1  0  0  0  0  0  0  0  0  0
   -3.6266    1.8670   -0.6666 C   0  0  2  0  0  0  0  0  0  0  0  0
   -7.9369    2.3359   -1.4830 C   0  0  0  0  0  0  0  0  0  0  0  0
   -6.8866    2.7046   -2.6938 C   0  0  0  0  0  0  0  0  0  0  0  0
   -4.6326    3.1462   -2.6719 C   0  0  0  0  0  0  0  0  0  0  0  0
   -6.7670    3.1434   -4.0514 C   0  0  0  0  0  0  0  0  0  0  0  0
   -4.1508    2.9471   -3.8890 C   0  0  0  0  0  0  0  0  0  0  0  0
   -5.9660    1.1402   -0.0688 C   0  0  1  0  0  0  0  0  0  0  0  0
   -5.1406    2.1631   -0.7565 C   0  0  2  0  0  0  0  0  0  0  0  0
   -3.8551    0.2533    1.7628 C   0  0  2  0  0  0  0  0  0  0  0  0
   -3.6562    0.5057    3.2461 C   0  0  0  0  0  0  0  0  0  0  0  0
   -4.9925    0.2433    0.7654 C   0  0  2  0  0  0  0  0  0  0  0  0
   -4.9568    4.7623   -5.1504 O   0  0  0  0  0  0  0  0  0  0  0  0
   -5.2390    3.7140   -4.4805 C   0  0  0  0  0  0  0  0  0  0  0  0
   -5.9530    0.5794   -2.7468 C   0  0  0  0  0  0  0  0  0  0  0  0
   -3.3997   -2.3782    2.6050 O   0  0  0  0  0  0  0  0  0  0  0  0
   -5.4360   -2.0513    1.5693 C   0  0  0  0  0  0  0  0  0  0  0  0
   -3.5202    0.9042   -1.7460 O   0  0  0  0  0  0  0  0  0  0  0  0
   -5.5597   -3.2350    1.2211 O   0  0  0  0  0  0  0  0  0  0  0  0
   -6.7442   -1.2523    1.9536 C   0  0  0  0  0  0  0  0  0  0  0  0
   -6.7120   -0.3300    3.0182 O   0  0  0  0  0  0  0  0  0  0  0  0
  2  8  1  0
  3  5  1  0
  3 22  1  0
  3 21  1  1
  4  7  1  0
  5  1  1  0
  6  9  1  0
  6 10  1  0
  6 20  1  6
  7 23  1  6
  8  9  1  0
  9 11  2  0
 10 12  2  0
 11 19  1  0
 12 19  1  0
 13 14  1  0
 13  2  1  1
 14  6  1  0
 14  7  1  6
 15  3  1  0
 15  4  1  0
 15 16  1  1
 17 13  1  0
 17 15  1  0
 17  1  1  6
 19 18  2  0
 24 22  2  0
 25 22  1  0
 26 25  1  0
M  END
>  <DRUGBANK_ID>  (1) 
DB00860

>  <SECONDARY_ACCESSION_NUMBERS>  (1) 
APRD00197

>  <COMMON_NAME>  (1) 
Prednisolone

>  <CAS_NUMBER>  (1) 
50-24-8

>  <UNII>  (1) 
9PHQ9Y1OLM

>  <SYNONYMS>  (1) 
(11β)-11,17,21-trihydroxypregna-1,4-diene-3,20-dione; 1,4-pregnadiene-11β,17α,21-triol-3,20-dione; 1,4-pregnadiene-3,20-dione-11β,17α,21-triol; 3,20-dioxo-11β,17α,21-trihydroxy-1,4-pregnadiene; delta-dehydrocortisol; delta-dehydrohydrocortisone; delta-hydrocortisone; delta(1)-Dehydrocortisol; delta(1)-Dehydrohydrocortisone; delta(1)-Hydrocortisone; Hydroretrocortine; Metacortandralone; PRDL; Prednisolona; Prednisolone; Prednisolonum

$$$$
