
     RDKit          3D

 10 10  0  0  0  0  0  0  0  0999 V2000
    0.9674   -0.0837   -0.0988 O   0  0  0  0  0  0  0  0  0  0  0  0
    0.6520    0.5162    1.1279 N   0  0  0  0  0  0  0  0  0  0  0  0
    1.5342    0.8814    2.1032 C   0  0  0  0  0  0  0  0  0  0  0  0
    1.1310    1.2865    3.1968 O   0  0  0  0  0  0  0  0  0  0  0  0
    2.9949    0.8230    1.8569 C   0  0  0  0  0  0  0  0  0  0  0  0
    3.5322    1.2706    0.6442 C   0  0  0  0  0  0  0  0  0  0  0  0
    4.9100    1.2515    0.4376 C   0  0  0  0  0  0  0  0  0  0  0  0
    5.7615    0.8540    1.4664 C   0  0  0  0  0  0  0  0  0  0  0  0
    5.2361    0.4635    2.6990 C   0  0  0  0  0  0  0  0  0  0  0  0
    3.8523    0.4084    2.8846 C   0  0  0  0  0  0  0  0  0  0  0  0
  1  2  1  0
  2  3  1  0
  3  4  2  0
  3  5  1  0
  5  6  2  0
  5 10  1  0
  6  7  1  0
  7  8  2  0
  8  9  1  0
  9 10  2  0
M  END
>  <DRUGBANK_ID>  (1) 
DB01924

>  <SECONDARY_ACCESSION_NUMBERS>  (1) 
EXPT00700

>  <COMMON_NAME>  (1) 
Benzhydroxamic Acid

>  <CAS_NUMBER>  (1) 
495-18-1

>  <UNII>  (1) 
K8YW73872D

$$$$
