
     RDKit          3D

 16 12  0  0  0  0  0  0  0  0999 V2000
    1.0770    0.0345   -0.0537 C   0  0  0  0  0  0  0  0  0  0  0  0
    0.5703   -1.3916   -0.1944 C   0  0  0  0  0  0  0  0  0  0  0  0
   -0.1603   -1.8989    0.7134 O   0  0  0  0  0  0  0  0  0  0  0  0
    0.9134   -2.1572   -1.3401 O   0  0  0  0  0  0  0  0  0  0  0  0
    0.5703    0.6257    1.2518 C   0  0  0  0  0  0  0  0  0  0  0  0
    1.0770    2.0519    1.3925 C   0  0  0  0  0  0  0  0  0  0  0  0
    0.5703    2.8868    0.2278 C   0  0  0  0  0  0  0  0  0  0  0  0
   -0.1603    3.9037    0.4453 O   0  0  0  0  0  0  0  0  0  0  0  0
    0.9134    2.5307   -1.1033 O   0  0  0  0  0  0  0  0  0  0  0  0
   -0.9497    0.6257    1.2518 C   0  0  0  0  0  0  0  0  0  0  0  0
   -1.5851   -0.0155    2.1463 O   0  0  0  0  0  0  0  0  0  0  0  0
   -1.6597    1.3422    0.2523 O   0  0  0  0  0  0  0  0  0  0  0  0
    1.0437   -0.1543    2.3399 O   0  0  0  0  0  0  0  0  0  0  0  0
    0.9123   -0.0146    0.0458 Ag  0  0  0  0  0 15  0  0  0  0  0  0
    1.0575   -0.0462    0.0675 Ag  0  0  0  0  0 15  0  0  0  0  0  0
    0.9225   -0.0458   -0.0435 Ag  0  0  0  0  0 15  0  0  0  0  0  0
  1  2  1  0
  1  5  1  0
  2  3  2  0
  2  4  1  0
  5  6  1  0
  5 10  1  0
  5 13  1  0
  6  7  1  0
  7  8  2  0
  7  9  1  0
 10 11  2  0
 10 12  1  0
M  CHG  6   4  -1   9  -1  12  -1  14   1  15   1  16   1
M  END
>  <DRUGBANK_ID>  (1) 
DB11233

>  <COMMON_NAME>  (1) 
Silver citrate

>  <CAS_NUMBER>  (1) 
126-45-4

>  <UNII>  (1) 
CKA421A1J7

>  <SYNONYMS>  (1) 
2-hydroxy-1,2,3-propanetricarboxylic acid silver salt; Trisilver citrate

$$$$
