
     RDKit          3D

 15 15  0  0  0  0  0  0  0  0999 V2000
    0.9837    0.2089    0.1458 C   0  0  0  0  0  0  0  0  0  0  0  0
    0.7965   -1.9446    1.3956 C   0  0  0  0  0  0  0  0  0  0  0  0
   -1.0285   -1.2952   -0.0939 C   0  0  0  0  0  0  0  0  0  0  0  0
    0.8272   -5.9737   -0.5520 C   0  0  0  0  0  0  0  0  0  0  0  0
    1.6812   -7.0239   -0.3595 C   0  0  0  0  0  0  0  0  0  0  0  0
    1.3286   -4.6721   -0.4794 C   0  0  0  0  0  0  0  0  0  0  0  0
    3.0153   -6.7708   -0.0337 C   0  0  0  0  0  0  0  0  0  0  0  0
    2.5113   -1.9813   -1.2938 C   0  0  0  0  0  0  0  0  0  0  0  0
    2.7021   -4.3655   -0.2672 C   0  0  0  0  0  0  0  0  0  0  0  0
    3.5129   -5.4556    0.0366 C   0  0  0  0  0  0  0  0  0  0  0  0
    3.2077   -2.9131   -0.2702 C   0  0  0  0  0  0  0  0  0  0  0  0
    0.5034   -1.2402    0.0475 C   0  0  0  0  0  0  0  0  0  0  0  0
    5.1522   -5.2995    0.5599 Cl  0  0  0  0  0  0  0  0  0  0  0  0
    1.0734   -1.7477   -1.2084 N   0  0  0  0  0  0  0  0  0  0  0  0
    4.6066   -2.7206   -0.5349 O   0  0  0  0  0  0  0  0  0  0  0  0
  5  4  2  0
  6  4  1  0
  7  5  1  0
  9  6  2  0
 10  7  2  0
 10  9  1  0
 11  8  1  0
 11  9  1  0
 12  1  1  0
 12  2  1  0
 12  3  1  0
 13 10  1  0
 14  8  1  0
 14 12  1  0
 15 11  1  0
M  END
>  <DRUGBANK_ID>  (1) 
DB12248

>  <COMMON_NAME>  (1) 
Tulobuterol

>  <CAS_NUMBER>  (1) 
41570-61-0

>  <UNII>  (1) 
591I9SU0F7

>  <SYNONYMS>  (1) 
Tulobuterol

$$$$
