990
     RDKit          3D

 22 25  0  0  1  0  0  0  0  0999 V2000
    3.1482   -3.9330    8.6810 O   0  0  0  0  0  0  0  0  0  0  0  0
   -3.1340   -6.9802    2.1784 O   0  0  0  0  0  0  0  0  0  0  0  0
    1.8425   -2.8427    5.9637 C   0  0  1  0  0  0  0  0  0  0  0  0
    1.2689   -3.0569    4.6102 C   0  0  1  0  0  0  0  0  0  0  0  0
    3.3243   -2.9029    6.2327 C   0  0  2  0  0  0  0  0  0  0  0  0
    1.6518   -4.5126    4.2814 C   0  0  2  0  0  0  0  0  0  0  0  0
    3.9486   -4.0772    5.3949 C   0  0  0  0  0  0  0  0  0  0  0  0
    3.2070   -4.3495    4.0049 C   0  0  0  0  0  0  0  0  0  0  0  0
    0.4443   -5.2896    3.4704 C   0  0  1  0  0  0  0  0  0  0  0  0
    1.3942   -1.6386    6.7939 C   0  0  0  0  0  0  0  0  0  0  0  0
   -0.2093   -3.0058    4.7388 C   0  0  0  0  0  0  0  0  0  0  0  0
    2.7495   -3.0784    7.8615 C   0  0  0  0  0  0  0  0  0  0  0  0
    1.2991   -2.3810    8.0757 C   0  0  0  0  0  0  0  0  0  0  0  0
    3.8595   -1.6045    5.5103 C   0  0  0  0  0  0  0  0  0  0  0  0
   -0.4770   -4.4789    2.5675 C   0  0  0  0  0  0  0  0  0  0  0  0
   -0.8958   -3.2873    3.3937 C   0  0  0  0  0  0  0  0  0  0  0  0
    1.3225   -6.0632    2.4098 C   0  0  0  0  0  0  0  0  0  0  0  0
   -0.9629   -5.7452    4.5108 C   0  0  0  0  0  0  0  0  0  0  0  0
   -1.2968   -5.3715    1.8711 C   0  0  0  0  0  0  0  0  0  0  0  0
   -2.2558   -5.8633    4.0405 C   0  0  0  0  0  0  0  0  0  0  0  0
   -1.9686   -2.5744    3.1388 C   0  0  0  0  0  0  0  0  0  0  0  0
   -2.3586   -6.0678    2.6453 C   0  0  0  0  0  0  0  0  0  0  0  0
  1 12  2  0
  2 22  2  0
  3  4  1  0
  3  5  1  0
  3 10  1  6
  4  6  1  0
  4 11  1  1
  5  7  1  0
  5 12  1  0
  5 14  1  1
  6  8  1  6
  6  9  1  0
  7  8  1  0
  9 15  1  0
  9 17  1  6
  9 18  1  0
 10 13  1  0
 11 16  1  0
 12 13  1  0
 15 16  1  0
 15 19  2  0
 16 21  2  0
 18 20  2  0
 19 22  1  0
 20 22  1  0
M  END
>  <DRUGBANK_ID>  (1) 
DB00990

>  <SECONDARY_ACCESSION_NUMBERS>  (1) 
APRD00144

>  <COMMON_NAME>  (1) 
Exemestane

>  <CAS_NUMBER>  (1) 
107868-30-4

>  <UNII>  (1) 
NY22HMQ4BX

>  <SYNONYMS>  (1) 
6-methyleneandrosta-1,4-diene-3,17-dione; Exemestane; Exemestano; Exemestanum

$$$$
