4BE
     RDKit          3D

 22 23  0  0  0  0  0  0  0  0999 V2000
    1.9807   -0.9218   -0.0133 C   0  0  0  0  0  0  0  0  0  0  0  0
    0.5947   -0.8422    0.0746 C   0  0  0  0  0  0  0  0  0  0  0  0
    0.0367    0.3877    0.0551 C   0  0  0  0  0  0  0  0  0  0  0  0
   -1.8412    0.4606    0.0163 Br  0  0  0  0  0  0  0  0  0  0  0  0
    0.8982    1.4841    0.0123 C   0  0  0  0  0  0  0  0  0  0  0  0
    2.3318    1.3348    0.0037 C   0  0  0  0  0  0  0  0  0  0  0  0
    2.9450    0.0785   -0.0126 C   0  0  0  0  0  0  0  0  0  0  0  0
    4.4961   -0.0983    0.0198 C   0  0  0  0  0  0  0  0  0  0  0  0
    5.1563    0.9728    0.0855 O   0  0  0  0  0  0  0  0  0  0  0  0
    5.2900   -1.2877    0.0339 N   0  0  0  0  0  0  0  0  0  0  0  0
    4.9584   -2.5869   -0.3997 N   0  0  0  0  0  0  0  0  0  0  0  0
    3.8423   -2.9736    0.1131 C   0  0  0  0  0  0  0  0  0  0  0  0
    2.9161   -4.1063   -0.1648 C   0  0  0  0  0  0  0  0  0  0  0  0
    3.0423   -5.0524    0.8464 C   0  0  0  0  0  0  0  0  0  0  0  0
    2.1985   -6.1548    0.8873 C   0  0  0  0  0  0  0  0  0  0  0  0
    2.5815   -7.5040    2.1554 Br  0  0  0  0  0  0  0  0  0  0  0  0
    1.1419   -6.2849   -0.0146 C   0  0  0  0  0  0  0  0  0  0  0  0
    0.3652   -7.4117   -0.0211 O   0  0  0  0  0  0  0  0  0  0  0  0
    0.8905   -5.2696   -0.9359 C   0  0  0  0  0  0  0  0  0  0  0  0
   -0.6267   -5.4156   -2.0984 Br  0  0  0  0  0  0  0  0  0  0  0  0
    1.7660   -4.1625   -1.0162 C   0  0  0  0  0  0  0  0  0  0  0  0
    1.3422   -3.2056   -1.9103 O   0  0  0  0  0  0  0  0  0  0  0  0
  1  2  2  0
  1  7  1  0
  2  3  1  0
  3  4  1  0
  3  5  2  0
  5  6  1  0
  6  7  2  0
  7  8  1  0
  8  9  2  0
  8 10  1  0
 10 11  1  0
 11 12  2  0
 12 13  1  0
 13 14  2  0
 13 21  1  0
 14 15  1  0
 15 16  1  0
 15 17  2  0
 17 18  1  0
 17 19  1  0
 19 20  1  0
 19 21  2  0
 21 22  1  0
M  END
>  <DRUGBANK_ID>  (1) 
DB07098

>  <COMMON_NAME>  (1) 
4-bromo-N'-[(1E)-(3,5-dibromo-2,4-dihydroxyphenyl)methylidene]benzohydrazide

$$$$
