
     RDKit          3D

 22 25  0  0  1  0  0  0  0  0999 V2000
   -0.9002   -0.7596   -1.1617 C   0  0  0  0  0  0  0  0  0  0  0  0
   -0.7746   -3.1933   -1.3748 C   0  0  2  0  0  0  0  0  0  0  0  0
   -1.0043   -1.9800   -2.4149 C   0  0  2  0  0  0  0  0  0  0  0  0
   -0.2995   -2.8015   -3.7030 C   0  0  0  0  0  0  0  0  0  0  0  0
    0.6850   -3.8507   -3.5988 C   0  0  0  0  0  0  0  0  0  0  0  0
   -0.4876   -1.4339   -0.0298 C   0  0  0  0  0  0  0  0  0  0  0  0
    1.0885   -4.4081   -2.4121 O   0  0  0  0  0  0  0  0  0  0  0  0
    1.2215   -4.5548   -4.7074 C   0  0  0  0  0  0  0  0  0  0  0  0
   -0.5819    0.6229   -1.1163 C   0  0  0  0  0  0  0  0  0  0  0  0
   -1.1965   -2.7251    0.0031 C   0  0  0  0  0  0  0  0  0  0  0  0
    0.8154   -1.1682    0.3932 C   0  0  0  0  0  0  0  0  0  0  0  0
   -0.8005   -2.6459   -5.0154 C   0  0  0  0  0  0  0  0  0  0  0  0
    0.6475    1.0096   -0.5336 C   0  0  0  0  0  0  0  0  0  0  0  0
    0.7340   -3.5614   -1.3507 C   0  0  0  0  0  0  0  0  0  0  0  0
    1.4392    0.0046   -0.0000 C   0  0  0  0  0  0  0  0  0  0  0  0
    0.7591   -4.2963   -5.9754 C   0  0  0  0  0  0  0  0  0  0  0  0
   -0.2704   -3.3773   -6.1276 C   0  0  0  0  0  0  0  0  0  0  0  0
   -1.6092   -4.3322   -1.6483 O   0  0  0  0  0  0  0  0  0  0  0  0
    2.1769   -5.5367   -4.5704 O   0  0  0  0  0  0  0  0  0  0  0  0
    1.0725    2.2838   -0.2999 O   0  0  0  0  0  0  0  0  0  0  0  0
    2.7752    0.1830    0.1356 O   0  0  0  0  0  0  0  0  0  0  0  0
    1.2696   -4.9520   -7.0609 O   0  0  0  0  0  0  0  0  0  0  0  0
  2  3  1  0
  2 18  1  6
  3  1  1  6
  4  3  1  0
  5  4  2  0
  6  1  2  0
  7  5  1  0
  8  5  1  0
  9  1  1  0
 10  6  1  0
 10  2  1  0
 11  6  1  0
 12  4  1  0
 13  9  2  0
 14  2  1  0
 14  7  1  0
 15 13  1  0
 15 11  2  0
 16  8  2  0
 16 17  1  0
 17 12  2  0
 19  8  1  0
 20 13  1  0
 21 15  1  0
 22 16  1  0
M  END
>  <DRUGBANK_ID>  (1) 
DB16871

>  <COMMON_NAME>  (1) 
Hematoxylin

>  <CAS_NUMBER>  (1) 
517-28-2

>  <UNII>  (1) 
YKM8PY2Z55

>  <SYNONYMS>  (1) 
Haematoxylin; Hydroxybrasilin; Hydroxybrazilin

$$$$
