
     RDKit          3D

 17 17  0  0  1  0  0  0  0  0999 V2000
   -3.0273   -1.0719   -1.9749 O   0  0  0  0  0  0  0  0  0  0  0  0
   -1.5943   -1.0601   -1.7552 C   0  0  0  0  0  0  0  0  0  0  0  0
   -0.9679   -0.9183   -3.1253 C   0  0  1  0  0  0  0  0  0  0  0  0
   -1.3982    0.4343   -3.2937 O   0  0  0  0  0  0  0  0  0  0  0  0
    0.5338   -0.8613   -3.4345 C   0  0  2  0  0  0  0  0  0  0  0  0
    1.2282   -0.0404   -2.3399 C   0  0  0  0  0  0  0  0  0  0  0  0
    1.7969   -0.9033   -1.3570 O   0  0  0  0  0  0  0  0  0  0  0  0
    0.7679   -0.3858   -4.8066 O   0  0  0  0  0  0  0  0  0  0  0  0
    0.4091    0.9797   -5.1292 C   0  0  0  0  0  0  0  0  0  0  0  0
   -0.9893    1.1259   -5.5953 N   0  0  0  0  0  0  0  0  0  0  0  0
   -1.8646    0.0743   -5.8812 C   0  0  0  0  0  0  0  0  0  0  0  0
   -3.1268    0.5291   -5.5374 C   0  0  0  0  0  0  0  0  0  0  0  0
   -3.0759    1.8510   -5.1764 N   0  0  0  0  0  0  0  0  0  0  0  0
   -1.8099    2.2113   -5.3139 C   0  0  0  0  0  0  0  0  0  0  0  0
   -1.3268    3.5349   -5.0069 N   0  0  0  0  0  0  0  0  0  0  0  0
   -2.1907    4.4226   -4.8414 O   0  0  0  0  0  0  0  0  0  0  0  0
   -0.1136    3.7141   -4.9540 O   0  0  0  0  0  0  0  0  0  0  0  0
  1  2  1  0
  3  2  1  0
  3  4  1  1
  5  8  1  0
  5  6  1  1
  5  3  1  0
  6  7  1  0
  8  9  1  0
  9 10  1  0
 10 11  1  0
 10 14  1  0
 11 12  2  0
 12 13  1  0
 13 14  2  0
 14 15  1  0
 15 16  1  0
 15 17  2  0
M  CHG  2  15   1  16  -1
M  END
>  <DRUGBANK_ID>  (1) 
DB17304

>  <COMMON_NAME>  (1) 
Doranidazole

>  <CAS_NUMBER>  (1) 
149838-23-3

>  <UNII>  (1) 
911XR034RX

>  <SYNONYMS>  (1) 
(2rs,3sr)-3-((2-nitroimidazol-1-yl)methoxy)butane-1,2,4-triol; 1,2,4-butanetriol, 3-((2-nitro-1h-imidazol-1-yl)methoxy)-, (2r,3s)-rel-

$$$$
