742
     RDKit          3D

 25 24  0  0  0  0  0  0  0  0999 V2000
    1.0097   -0.0596   -0.1297 C   0  0  0  0  0  0  0  0  0  0  0  0
    0.5923   -0.2269    1.3223 C   0  0  0  0  0  0  0  0  0  0  0  0
    1.0858    0.9491    2.1660 C   0  0  0  0  0  0  0  0  0  0  0  0
    0.5123    2.2820    1.6719 C   0  0  0  0  0  0  0  0  0  0  0  0
   -1.0196    2.2750    1.7170 C   0  0  0  0  0  0  0  0  0  0  0  0
   -1.5065    2.0724    3.1537 C   0  0  0  0  0  0  0  0  0  0  0  0
   -0.9780    3.2008    4.0464 C   0  0  0  0  0  0  0  0  0  0  0  0
   -1.5081    4.5518    3.5557 C   0  0  0  0  0  0  0  0  0  0  0  0
   -3.0346    4.5476    3.6008 C   0  0  0  0  0  0  0  0  0  0  0  0
   -3.4812    4.3183    5.0464 C   0  0  0  0  0  0  0  0  0  0  0  0
   -3.1311    5.5113    5.9178 C   0  0  0  0  0  0  0  0  0  0  0  0
   -3.7268    6.7984    5.3439 C   0  0  0  0  0  0  0  0  0  0  0  0
   -5.5052    6.8034    5.2672 P   0  0  0  0  0  0  0  0  0  0  0  0
   -6.2469    5.5567    4.2431 C   0  0  0  0  0  0  0  0  0  0  0  0
   -6.1280    8.2277    4.4106 C   0  0  0  0  0  0  0  0  0  0  0  0
   -6.0507    6.5850    6.9525 C   0  0  0  0  0  0  0  0  0  0  0  0
   -5.5136    7.6372    7.9392 C   0  0  0  0  0  0  0  0  0  0  0  0
   -6.1236    9.2457    7.3152 P   0  0  0  0  0  0  0  0  0  0  0  0
   -5.6555   10.1948    8.5727 O   0  0  0  0  0  0  0  0  0  0  0  0
   -6.7003   10.7664    6.7254 O   0  0  0  0  0  0  0  0  0  0  0  0
   -4.8464    9.4455    6.4925 O   0  0  0  0  0  0  0  0  0  0  0  0
   -6.1236    7.3732    9.6442 P   0  0  0  0  0  0  0  0  0  0  0  0
   -4.7494    6.8992   10.1122 O   0  0  0  0  0  0  0  0  0  0  0  0
   -6.2462    8.9128   10.1037 O   0  0  0  0  0  0  0  0  0  0  0  0
   -6.7003    7.1237   11.2560 O   0  0  0  0  0  0  0  0  0  0  0  0
  1  2  1  0
  2  3  1  0
  3  4  1  0
  4  5  1  0
  5  6  1  0
  6  7  1  0
  7  8  1  0
  8  9  1  0
  9 10  1  0
 10 11  1  0
 11 12  1  0
 12 13  1  0
 13 16  1  0
 13 15  1  0
 13 14  1  0
 16 17  1  0
 17 18  1  0
 17 22  1  0
 18 19  1  0
 18 21  2  0
 18 20  1  0
 22 23  2  0
 22 24  1  0
 22 25  1  0
M  CHG  1  13   1
M  END
>  <DRUGBANK_ID>  (1) 
DB07221

>  <COMMON_NAME>  (1) 
(2,2-DIPHOSPHONOETHYL)(DODECYL)DIMETHYLPHOSPHONIUM

$$$$
