B82
     RDKit          3D

 27 28  0  0  0  0  0  0  0  0999 V2000
    0.9132   -0.0441    0.1021 S   0  0  0  0  0  0  0  0  0  0  0  0
    0.3074    1.2640    0.2847 O   0  0  0  0  0  0  0  0  0  0  0  0
    0.5777   -1.0893    1.0356 O   0  0  0  0  0  0  0  0  0  0  0  0
    2.6257    0.1439    0.0866 N   0  0  0  0  0  0  0  0  0  0  0  0
    3.2491    0.3279    1.4411 C   0  0  0  0  0  0  0  0  0  0  0  0
    2.8475    1.6359    2.1067 C   0  0  0  0  0  0  0  0  0  0  0  0
    3.2524    0.9705   -0.9844 C   0  0  0  0  0  0  0  0  0  0  0  0
    2.8618    2.4358   -0.9315 C   0  0  0  0  0  0  0  0  0  0  0  0
    0.4981   -0.5607   -1.5529 C   0  0  0  0  0  0  0  0  0  0  0  0
    0.5591   -1.8927   -1.9543 C   0  0  0  0  0  0  0  0  0  0  0  0
    1.1703   -3.3377   -0.8898 Br  0  0  0  0  0  0  0  0  0  0  0  0
    0.1672   -2.2287   -3.2575 C   0  0  0  0  0  0  0  0  0  0  0  0
   -0.3044   -1.2635   -4.1543 C   0  0  0  0  0  0  0  0  0  0  0  0
   -0.4283    0.0640   -3.7501 C   0  0  0  0  0  0  0  0  0  0  0  0
   -1.0233    1.1294   -4.6204 C   0  0  0  0  0  0  0  0  0  0  0  0
   -1.2053    2.2413   -4.1265 O   0  0  0  0  0  0  0  0  0  0  0  0
   -1.3577    0.8085   -5.9331 N   0  0  0  0  0  0  0  0  0  0  0  0
   -1.7800    1.7831   -6.8713 C   0  0  0  0  0  0  0  0  0  0  0  0
   -2.9249    1.4682   -7.6293 C   0  0  0  0  0  0  0  0  0  0  0  0
   -3.4423    2.3715   -8.5631 C   0  0  0  0  0  0  0  0  0  0  0  0
   -2.8410    3.6135   -8.7274 C   0  0  0  0  0  0  0  0  0  0  0  0
   -1.6833    3.9237   -8.0080 C   0  0  0  0  0  0  0  0  0  0  0  0
   -1.1270    3.0127   -7.0868 C   0  0  0  0  0  0  0  0  0  0  0  0
    0.1575    3.4382   -6.4500 C   0  0  0  0  0  0  0  0  0  0  0  0
    0.5881    4.5747   -6.4493 O   0  0  0  0  0  0  0  0  0  0  0  0
    0.8589    2.4495   -5.8581 O   0  0  0  0  0  0  0  0  0  0  0  0
   -0.0003    0.4126   -2.4525 C   0  0  0  0  0  0  0  0  0  0  0  0
  1  2  2  0
  1  9  1  0
  3  1  2  0
  4  1  1  0
  4  7  1  0
  5  4  1  0
  6  5  1  0
  8  7  1  0
  9 10  2  0
 10 12  1  0
 10 11  1  0
 13 12  2  0
 14 13  1  0
 15 14  1  0
 15 17  1  0
 16 15  2  0
 18 17  1  0
 18 23  1  0
 19 18  2  0
 20 19  1  0
 20 21  2  0
 21 22  1  0
 22 23  2  0
 23 24  1  0
 24 25  2  0
 24 26  1  0
 27  9  1  0
 27 14  2  0
M  END
>  <DRUGBANK_ID>  (1) 
DB07429

>  <COMMON_NAME>  (1) 
2-({[4-bromo-3-(diethylsulfamoyl)phenyl]carbonyl}amino)benzoic acid

$$$$
