
     RDKit          3D

 18 20  0  0  0  0  0  0  0  0999 V2000
   -3.0507   -0.5878    0.1656 N   0  0  0  0  0  0  0  0  0  0  0  0
   -1.7399   -0.1972   -0.0016 C   0  0  0  0  0  0  0  0  0  0  0  0
   -1.5186    1.1211   -0.1126 N   0  0  0  0  0  0  0  0  0  0  0  0
   -0.2534    1.5608   -0.3700 C   0  0  0  0  0  0  0  0  0  0  0  0
   -0.0669    2.9160   -0.1429 O   0  0  0  0  0  0  0  0  0  0  0  0
    1.2856    3.3727    0.0475 C   0  0  0  0  0  0  0  0  0  0  0  0
    1.8975    3.0485    1.4118 C   0  0  0  0  0  0  0  0  0  0  0  0
    2.4764    4.0214    2.2235 C   0  0  0  0  0  0  0  0  0  0  0  0
    2.9928    3.6719    3.4879 C   0  0  0  0  0  0  0  0  0  0  0  0
    2.9964    2.3495    3.9423 C   0  0  0  0  0  0  0  0  0  0  0  0
    2.4582    1.3729    3.1479 C   0  0  0  0  0  0  0  0  0  0  0  0
    1.9138    1.7482    1.9344 C   0  0  0  0  0  0  0  0  0  0  0  0
    0.7483    0.6007   -0.6094 C   0  0  0  0  0  0  0  0  0  0  0  0
    2.1212    0.6838   -0.8096 N   0  0  0  0  0  0  0  0  0  0  0  0
    2.5931   -0.4865   -0.4412 C   0  0  0  0  0  0  0  0  0  0  0  0
    1.5843   -1.3888   -0.2275 N   0  0  0  0  0  0  0  0  0  0  0  0
    0.4007   -0.7028   -0.3166 C   0  0  0  0  0  0  0  0  0  0  0  0
   -0.8236   -1.1749   -0.0221 N   0  0  0  0  0  0  0  0  0  0  0  0
  1  2  1  0
  2  3  2  0
  2 18  1  0
  3  4  1  0
  4  5  1  0
  4 13  2  0
  5  6  1  0
  6  7  1  0
  7  8  2  0
  7 12  1  0
  8  9  1  0
  9 10  2  0
 10 11  1  0
 11 12  2  0
 13 14  1  0
 13 17  1  0
 14 15  2  0
 15 16  1  0
 16 17  1  0
 17 18  2  0
M  END
>  <DRUGBANK_ID>  (1) 
DB11919

>  <COMMON_NAME>  (1) 
6-O-benzylguanine

>  <CAS_NUMBER>  (1) 
19916-73-5

>  <UNII>  (1) 
01KC87F8FE

>  <SYNONYMS>  (1) 
O(6)-Benzylguanine; O6-benzylguanine

$$$$
