155
     RDKit          3D

 29 32  0  0  0  0  0  0  0  0999 V2000
    0.9009   -0.1009    0.0569 N   0  0  0  0  0  0  0  0  0  0  0  0
    0.2755   -0.0609    1.1845 C   0  0  0  0  0  0  0  0  0  0  0  0
    0.9493    0.0236    2.3693 N   0  0  0  0  0  0  0  0  0  0  0  0
   -1.2100   -0.0854    1.1668 C   0  0  0  0  0  0  0  0  0  0  0  0
   -1.9097    0.7202    2.0528 C   0  0  0  0  0  0  0  0  0  0  0  0
   -3.3026    0.6651    2.0645 C   0  0  0  0  0  0  0  0  0  0  0  0
   -3.9682    1.3477    3.0504 C   0  0  0  0  0  0  0  0  0  0  0  0
   -5.3238    1.1200    3.2031 C   0  0  0  0  0  0  0  0  0  0  0  0
   -6.1287    0.5443    2.2288 C   0  0  0  0  0  0  0  0  0  0  0  0
   -5.4590   -0.1593    1.2234 C   0  0  0  0  0  0  0  0  0  0  0  0
   -4.0387   -0.1444    1.1623 C   0  0  0  0  0  0  0  0  0  0  0  0
   -3.3086   -0.9128    0.2488 C   0  0  0  0  0  0  0  0  0  0  0  0
   -1.9056   -0.8919    0.2597 C   0  0  0  0  0  0  0  0  0  0  0  0
   -7.6393    0.6279    2.2734 C   0  0  0  0  0  0  0  0  0  0  0  0
   -8.2901   -0.1153    1.5466 O   0  0  0  0  0  0  0  0  0  0  0  0
   -8.3401    1.4838    3.1404 N   0  0  0  0  0  0  0  0  0  0  0  0
   -7.8347    2.4161    4.0697 C   0  0  0  0  0  0  0  0  0  0  0  0
   -8.1280    2.2381    5.4251 C   0  0  0  0  0  0  0  0  0  0  0  0
   -7.3585    2.9091    6.3904 C   0  0  0  0  0  0  0  0  0  0  0  0
   -6.2724    3.7095    6.0080 C   0  0  0  0  0  0  0  0  0  0  0  0
   -6.0567    3.9643    4.6533 C   0  0  0  0  0  0  0  0  0  0  0  0
   -6.8850    3.3745    3.6890 C   0  0  0  0  0  0  0  0  0  0  0  0
   -5.3995    4.3103    7.0757 C   0  0  0  0  0  0  0  0  0  0  0  0
   -5.3649    3.3939    8.2962 C   0  0  0  0  0  0  0  0  0  0  0  0
   -6.7147    3.0539    8.7563 N   0  0  0  0  0  0  0  0  0  0  0  0
   -7.6117    2.8024    7.8557 C   0  0  0  0  0  0  0  0  0  0  0  0
   -9.0229    2.4608    8.3251 C   0  0  0  0  0  0  0  0  0  0  0  0
   -8.9924    1.2088    9.1908 C   0  0  0  0  0  0  0  0  0  0  0  0
   -9.6113    3.6460    9.0830 C   0  0  0  0  0  0  0  0  0  0  0  0
  1  2  2  0
  2  3  1  0
  2  4  1  0
  4  5  2  0
  4 13  1  0
  5  6  1  0
  6  7  2  0
  6 11  1  0
  7  8  1  0
  8  9  2  0
  9 10  1  0
  9 14  1  0
 10 11  2  0
 11 12  1  0
 12 13  2  0
 14 15  2  0
 14 16  1  0
 16 17  1  0
 17 18  2  0
 17 22  1  0
 18 19  1  0
 19 20  2  0
 19 26  1  0
 20 21  1  0
 20 23  1  0
 21 22  2  0
 23 24  1  0
 24 25  1  0
 25 26  2  0
 26 27  1  0
 27 28  1  0
 27 29  1  0
M  END
>  <DRUGBANK_ID>  (1) 
DB02473

>  <SECONDARY_ACCESSION_NUMBERS>  (1) 
EXPT00041

>  <COMMON_NAME>  (1) 
6-[N-(1-Isopropyl-3,4-Dihydro-7-Isoquinolinyl)Carbamyl]-2-Naphthalenecarboxamidine

$$$$
