
     RDKit          3D

 31 35  0  0  0  0  0  0  0  0999 V2000
    1.3430    0.0590    0.9485 C   0  0  0  0  0  0  0  0  0  0  0  0
    0.5378   -0.8445    1.7676 N   0  0  0  0  0  0  0  0  0  0  0  0
   -0.9284   -0.7088    1.6612 C   0  0  0  0  0  0  0  0  0  0  0  0
    0.9192   -2.2158    1.3647 C   0  0  0  0  0  0  0  0  0  0  0  0
    0.3690   -2.8268    0.0112 C   0  0  0  0  0  0  0  0  0  0  0  0
    0.6192   -2.1898   -1.2939 N   0  0  0  0  0  0  0  0  0  0  0  0
    1.3538   -2.8037   -2.3275 C   0  0  0  0  0  0  0  0  0  0  0  0
    1.5866   -1.8811   -3.3505 C   0  0  0  0  0  0  0  0  0  0  0  0
    1.0561   -0.6840   -2.8171 C   0  0  0  0  0  0  0  0  0  0  0  0
    0.2394   -0.9127   -1.7346 C   0  0  0  0  0  0  0  0  0  0  0  0
   -0.4997    0.2315   -1.2421 C   0  0  0  0  0  0  0  0  0  0  0  0
   -0.1424    1.5588   -1.5817 C   0  0  0  0  0  0  0  0  0  0  0  0
    0.6353    1.7792   -2.6565 C   0  0  0  0  0  0  0  0  0  0  0  0
    1.0746    0.6283   -3.2482 C   0  0  0  0  0  0  0  0  0  0  0  0
   -0.5661    2.9032   -0.5920 Cl  0  0  0  0  0  0  0  0  0  0  0  0
    2.1632   -2.0511   -4.7209 C   0  0  0  0  0  0  0  0  0  0  0  0
    2.4195   -3.2085   -5.1388 O   0  0  0  0  0  0  0  0  0  0  0  0
    2.1444   -0.9168   -5.5976 N   0  0  0  0  0  0  0  0  0  0  0  0
    3.0262    0.2639   -5.4723 C   0  0  0  0  0  0  0  0  0  0  0  0
    2.2578    1.6567   -5.8080 C   0  0  0  0  0  0  0  0  0  0  0  0
    1.5755    1.6938   -7.2360 C   0  0  0  0  0  0  0  0  0  0  0  0
    0.6767    0.3721   -7.1920 C   0  0  0  0  0  0  0  0  0  0  0  0
    1.5104   -0.9677   -6.9131 C   0  0  0  0  0  0  0  0  0  0  0  0
    1.3088    3.2149   -7.6914 C   0  0  0  0  0  0  0  0  0  0  0  0
    0.3615    4.1956   -8.0944 C   0  0  0  0  0  0  0  0  0  0  0  0
    0.7599    5.5878   -8.2973 C   0  0  0  0  0  0  0  0  0  0  0  0
    2.0518    6.0170   -7.9958 C   0  0  0  0  0  0  0  0  0  0  0  0
    2.9839    5.0475   -7.7051 C   0  0  0  0  0  0  0  0  0  0  0  0
    2.6158    3.7055   -7.7716 C   0  0  0  0  0  0  0  0  0  0  0  0
    3.5728    2.5822   -7.9516 C   0  0  0  0  0  0  0  0  0  0  0  0
    2.7095    1.4349   -8.1022 O   0  0  0  0  0  0  0  0  0  0  0  0
  1  2  1  0
  2  3  1  0
  2  4  1  0
  4  5  1  0
  5  6  1  0
  6  7  1  0
  6 10  1  0
  7  8  2  0
  8  9  1  0
  8 16  1  0
  9 10  2  0
  9 14  1  0
 10 11  1  0
 11 12  2  0
 12 13  1  0
 12 15  1  0
 13 14  2  0
 16 17  2  0
 16 18  1  0
 18 19  1  0
 18 23  1  0
 19 20  1  0
 20 21  1  0
 21 22  1  0
 21 24  1  0
 21 31  1  0
 22 23  1  0
 24 25  2  0
 24 29  1  0
 25 26  1  0
 26 27  2  0
 27 28  1  0
 28 29  2  0
 29 30  1  0
 30 31  1  0
M  END
>  <DRUGBANK_ID>  (1) 
DB12721

>  <COMMON_NAME>  (1) 
RO-5028442

>  <CAS_NUMBER>  (1) 
920022-47-5

>  <UNII>  (1) 
LZ0EU1YHCK

$$$$
