
     RDKit          3D

 27 26  0  0  0  0  0  0  0  0999 V2000
    0.6891   -0.1041    0.5721 C   0  0  1  0  0  0  0  0  0  0  0  0
    0.1439   -1.4584    0.5576 N   0  0  0  0  0  0  0  0  0  0  0  0
    0.1275    0.6758   -0.5724 C   0  0  0  0  0  0  0  0  0  0  0  0
    1.2401    1.7840   -0.8448 C   0  0  0  0  0  0  0  0  0  0  0  0
    2.8451    1.7084   -0.8022 C   0  0  0  0  0  0  0  0  0  0  0  0
    3.7064    0.8736   -1.7557 C   0  0  0  0  0  0  0  0  0  0  0  0
    1.2332    1.4914    2.3216 O   0  0  0  0  0  0  0  0  0  0  0  0
    0.2563   -2.4878   -0.3621 C   0  0  0  0  0  0  0  0  0  0  0  0
   -0.4487   -3.4779   -0.1025 O   0  0  0  0  0  0  0  0  0  0  0  0
    1.2272   -2.5814   -1.6589 C   0  0  1  0  0  0  0  0  0  0  0  0
    0.8170   -1.7265   -2.9480 N   0  0  0  0  0  0  0  0  0  0  0  0
    2.7594   -2.5799   -1.2064 C   0  0  0  0  0  0  0  0  0  0  0  0
    3.0892   -2.8324    0.2752 C   0  0  0  0  0  0  0  0  0  0  0  0
    2.7622   -4.2671    0.6033 C   0  0  0  0  0  0  0  0  0  0  0  0
    4.5494   -2.4857    0.6064 C   0  0  0  0  0  0  0  0  0  0  0  0
    1.1176   -0.3993   -2.9053 C   0  0  0  0  0  0  0  0  0  0  0  0
    1.7404   -0.2958   -1.8897 O   0  0  0  0  0  0  0  0  0  0  0  0
    0.6445    1.0228   -3.7616 C   0  0  1  0  0  0  0  0  0  0  0  0
   -0.4327    2.1304   -3.1354 N   0  0  0  0  0  0  0  0  0  0  0  0
    1.9810    1.8455   -4.1777 C   0  0  0  0  0  0  0  0  0  0  0  0
    3.2114    1.0260   -4.6984 C   0  0  0  0  0  0  0  0  0  0  0  0
    2.7169    0.3035   -5.9065 C   0  0  0  0  0  0  0  0  0  0  0  0
    4.5132    1.8662   -4.6936 C   0  0  0  0  0  0  0  0  0  0  0  0
   -0.1517    3.4752   -2.7406 C   0  0  0  0  0  0  0  0  0  0  0  0
   -1.1044    4.2107   -1.7940 C   0  0  0  0  0  0  0  0  0  0  0  0
    0.8880    4.0800   -3.0202 O   0  0  0  0  0  0  0  0  0  0  0  0
    0.3836    0.9475    1.6442 C   0  0  0  0  0  0  0  0  0  0  0  0
  1  3  1  6
  1  2  1  0
  1 27  1  0
  2  8  1  0
  3  4  1  0
  4  5  1  0
  5  6  1  0
  8  9  2  0
  8 10  1  0
 10 11  1  0
 10 12  1  1
 11 16  1  0
 12 13  1  0
 13 14  1  0
 13 15  1  0
 16 18  1  0
 16 17  2  0
 18 19  1  0
 18 20  1  1
 19 24  1  0
 20 21  1  0
 21 22  1  0
 21 23  1  0
 24 25  1  0
 24 26  2  0
 27  7  2  0
M  END
>  <DRUGBANK_ID>  (1) 
DB07558

>  <COMMON_NAME>  (1) 
acetylleucyl-leucyl-norleucinal

>  <CAS_NUMBER>  (1) 
110044-82-1

>  <SYNONYMS>  (1) 
Ac-Leu-leu-nle-al; Acetyl-leucyl-leucyl-norleucine-aldehyde; Acetylleucyl-leucyl-norleucinal; N-Ac-Leu-leu-norleucinal; N-acetylleucylleucylnorleucinal

$$$$
