
     RDKit          3D

 23 24  0  0  0  0  0  0  0  0999 V2000
    0.9598   -0.0555   -0.1176 C   0  0  0  0  0  0  0  0  0  0  0  0
    0.4441    0.5351    1.1849 C   0  0  0  0  0  0  0  0  0  0  0  0
    0.8891    1.9967    1.3555 C   0  0  0  0  0  0  0  0  0  0  0  0
    0.2968    2.8175    0.1832 C   0  0  0  0  0  0  0  0  0  0  0  0
    0.4878    2.5816    2.7444 C   0  0  0  0  0  0  0  0  0  0  0  0
    0.9749    1.7052    3.9141 C   0  0  0  0  0  0  0  0  0  0  0  0
    1.0216    4.0304    2.9746 C   0  0  0  0  0  0  0  0  0  0  0  0
   -0.0407    4.9753    2.7149 N   0  0  0  0  0  0  0  0  0  0  0  0
    0.2614    6.3300    2.8313 C   0  0  0  0  0  0  0  0  0  0  0  0
   -0.7640    7.2387    3.1006 C   0  0  0  0  0  0  0  0  0  0  0  0
   -0.5538    8.6280    3.0664 C   0  0  0  0  0  0  0  0  0  0  0  0
    0.6955    9.1274    2.6943 C   0  0  0  0  0  0  0  0  0  0  0  0
    1.7488    8.2295    2.4516 C   0  0  0  0  0  0  0  0  0  0  0  0
    1.5257    6.8551    2.5604 C   0  0  0  0  0  0  0  0  0  0  0  0
    2.8697    5.7619    2.2719 S   0  0  0  0  0  0  0  0  0  0  0  0
    3.6625    5.6701    3.4782 O   0  0  0  0  0  0  0  0  0  0  0  0
    3.4308    6.0709    0.9797 O   0  0  0  0  0  0  0  0  0  0  0  0
    2.1048    4.3182    2.0683 N   0  0  0  0  0  0  0  0  0  0  0  0
    1.0956   10.8379    2.4862 S   0  0  0  0  0  0  0  0  0  0  0  0
    2.0701   11.1703    3.4993 O   0  0  0  0  0  0  0  0  0  0  0  0
    1.3491   11.0528    1.0809 O   0  0  0  0  0  0  0  0  0  0  0  0
   -0.2592   11.7346    2.8604 N   0  0  0  0  0  0  0  0  0  0  0  0
   -1.9260    9.5593    3.5398 Cl  0  0  0  0  0  0  0  0  0  0  0  0
  1  2  1  0
  2  3  1  0
  3  4  1  0
  3  5  1  0
  5  6  1  0
  5  7  1  0
  7  8  1  0
  7 18  1  0
  8  9  1  0
  9 10  1  0
  9 14  2  0
 10 11  2  0
 11 12  1  0
 11 23  1  0
 12 13  2  0
 12 19  1  0
 13 14  1  0
 14 15  1  0
 15 16  2  0
 15 17  2  0
 15 18  1  0
 19 20  2  0
 19 21  2  0
 19 22  1  0
M  END
>  <DRUGBANK_ID>  (1) 
DB13430

>  <COMMON_NAME>  (1) 
Mebutizide

>  <CAS_NUMBER>  (1) 
3568-00-1

>  <UNII>  (1) 
7738AS8324

>  <SYNONYMS>  (1) 
Mebutizide

$$$$
