
     RDKit          3D

 23 25  0  0  0  0  0  0  0  0999 V2000
    1.0272   -0.7353    0.0041 C   0  0  0  0  0  0  0  0  0  0  0  0
    1.1295    0.6788    0.0016 C   0  0  0  0  0  0  0  0  0  0  0  0
   -0.1600    1.1824   -0.0194 C   0  0  0  0  0  0  0  0  0  0  0  0
   -1.0422    0.1257   -0.0111 O   0  0  0  0  0  0  0  0  0  0  0  0
   -0.3159   -1.0215   -0.0027 C   0  0  0  0  0  0  0  0  0  0  0  0
   -0.6969    2.5276   -0.0562 C   0  0  0  0  0  0  0  0  0  0  0  0
   -1.8942    2.8045   -0.0675 O   0  0  0  0  0  0  0  0  0  0  0  0
    0.3462    3.4731   -0.0984 O   0  0  0  0  0  0  0  0  0  0  0  0
    0.0093    4.8449   -0.0611 C   0  0  0  0  0  0  0  0  0  0  0  0
   -0.9481    5.3256    0.8211 C   0  0  0  0  0  0  0  0  0  0  0  0
   -1.2736    6.6798    0.8220 C   0  0  0  0  0  0  0  0  0  0  0  0
   -0.6149    7.5970   -0.0055 C   0  0  0  0  0  0  0  0  0  0  0  0
    0.3728    7.1119   -0.8929 C   0  0  0  0  0  0  0  0  0  0  0  0
    0.6869    5.7310   -0.9048 C   0  0  0  0  0  0  0  0  0  0  0  0
    1.1012    8.0316   -1.8479 C   0  0  0  0  0  0  0  0  0  0  0  0
    0.8530    9.5083   -1.5718 C   0  0  0  0  0  0  0  0  0  0  0  0
   -0.5975    9.7295   -1.1970 C   0  0  0  0  0  0  0  0  0  0  0  0
   -0.9319    9.0020    0.0362 N   0  0  0  0  0  0  0  0  0  0  0  0
   -1.4531    9.6015    1.2000 C   0  0  0  0  0  0  0  0  0  0  0  0
   -1.6371    8.9843    2.2601 O   0  0  0  0  0  0  0  0  0  0  0  0
   -1.7675   11.0936    1.2324 C   0  0  0  0  0  0  0  0  0  0  0  0
   -0.2882   12.0644    1.1037 Cl  0  0  0  0  0  0  0  0  0  0  0  0
   -3.0244   11.5209    0.0613 Cl  0  0  0  0  0  0  0  0  0  0  0  0
  1  2  1  0
  1  5  2  0
  2  3  2  0
  3  4  1  0
  3  6  1  0
  4  5  1  0
  6  7  2  0
  6  8  1  0
  8  9  1  0
  9 10  2  0
  9 14  1  0
 10 11  1  0
 11 12  2  0
 12 13  1  0
 12 18  1  0
 13 14  2  0
 13 15  1  0
 15 16  1  0
 16 17  1  0
 17 18  1  0
 18 19  1  0
 19 20  2  0
 19 21  1  0
 21 22  1  0
 21 23  1  0
M  END
>  <DRUGBANK_ID>  (1) 
DB12780

>  <COMMON_NAME>  (1) 
Quinfamide

>  <CAS_NUMBER>  (1) 
62265-68-3

>  <UNII>  (1) 
O1ZB1046R1

>  <SYNONYMS>  (1) 
Quinfamide

$$$$
