
     RDKit          3D

 20 22  0  0  0  0  0  0  0  0999 V2000
    0.9493   -0.0234   -0.0807 F   0  0  0  0  0  0  0  0  0  0  0  0
    6.4098   -0.0641   -0.1520 O   0  0  0  0  0  0  0  0  0  0  0  0
    5.3397    3.3657    2.1200 O   0  0  0  0  0  0  0  0  0  0  0  0
    3.3699    5.4992   -1.2446 O   0  0  0  0  0  0  0  0  0  0  0  0
    8.0586    1.7758    2.3831 O   0  0  0  0  0  0  0  0  0  0  0  0
    4.4979    3.4882   -1.2355 N   0  0  0  0  0  0  0  0  0  0  0  0
    4.2330    4.6054    0.6571 N   0  0  0  0  0  0  0  0  0  0  0  0
    5.9385    1.0440    2.4928 N   0  0  0  0  0  0  0  0  0  0  0  0
    5.1022    2.5807   -0.2739 C   0  0  2  0  0  0  0  0  0  0  0  0
    6.5738    2.3202   -0.5777 C   0  0  0  0  0  0  0  0  0  0  0  0
    4.3497    1.2588   -0.2225 C   0  0  0  0  0  0  0  0  0  0  0  0
    7.0806    1.1283    0.2490 C   0  0  1  0  0  0  0  0  0  0  0  0
    4.9375    3.5078    0.9758 C   0  0  0  0  0  0  0  0  0  0  0  0
    5.0448    0.0308   -0.1682 C   0  0  0  0  0  0  0  0  0  0  0  0
    3.9735    4.6261   -0.6617 C   0  0  0  0  0  0  0  0  0  0  0  0
    2.9503    1.2116   -0.1949 C   0  0  0  0  0  0  0  0  0  0  0  0
    7.0860    1.3161    1.7886 C   0  0  0  0  0  0  0  0  0  0  0  0
    4.3724   -1.1912   -0.0669 C   0  0  0  0  0  0  0  0  0  0  0  0
    2.2871   -0.0108   -0.1059 C   0  0  0  0  0  0  0  0  0  0  0  0
    2.9833   -1.2101   -0.0317 C   0  0  0  0  0  0  0  0  0  0  0  0
  1 19  1  0
  2 12  1  0
  2 14  1  0
  3 13  2  0
  4 15  2  0
  5 17  2  0
  6 15  1  0
  7 13  1  0
  7 15  1  0
  8 17  1  0
  9  6  1  0
  9 10  1  6
  9 11  1  0
  9 13  1  0
 10 12  1  0
 11 14  2  0
 11 16  1  0
 12 17  1  1
 14 18  1  0
 16 19  2  0
 18 20  2  0
 19 20  1  0
M  END
>  <DRUGBANK_ID>  (1) 
DB02101

>  <SECONDARY_ACCESSION_NUMBERS>  (1) 
EXPT01436; EXPT01435

>  <COMMON_NAME>  (1) 
(S,R)-fidarestat

>  <SYNONYMS>  (1) 
(2S,4R)-2-aminoformyl-6-fluoro-spiro[chroman-4,4'-imidazolidine]-2',5'-dione; Fidarestat(stereoisomer)

$$$$
