
     RDKit          3D

  5  4  0  0  0  0  0  0  0  0999 V2000
    1.0088   -0.0290   -0.0886 C   0  0  0  0  0  0  0  0  0  0  0  0
    0.2212   -1.2532    0.3188 C   0  0  0  0  0  0  0  0  0  0  0  0
    0.2774    1.0595   -0.4568 N   0  0  0  0  0  0  0  0  0  0  0  0
    2.2344    0.0009   -0.1153 O   0  0  0  0  0  0  0  0  0  0  0  0
   -0.6515   -0.9898    1.5318 C   0  0  0  0  0  0  0  0  0  0  0  0
  1  2  1  0
  1  3  1  0
  1  4  2  0
  2  5  1  0
M  END
>  <DRUGBANK_ID>  (1) 
DB04161

>  <SECONDARY_ACCESSION_NUMBERS>  (1) 
EXPT02807

>  <COMMON_NAME>  (1) 
Propionamide

>  <CAS_NUMBER>  (1) 
79-05-0

>  <UNII>  (1) 
QK07G0HP47

>  <SYNONYMS>  (1) 
Propanimidic acid; Propionic acid amide; Propionic amide

$$$$
