SX7
     RDKit          3D

 28 31  0  0  0  0  0  0  0  0999 V2000
    1.0260    0.1265   -0.1214 O   0  0  0  0  0  0  0  0  0  0  0  0
    9.8202   -5.0384    1.9603 C   0  0  0  0  0  0  0  0  0  0  0  0
    9.4137   -4.3960    0.8109 C   0  0  0  0  0  0  0  0  0  0  0  0
   10.1453   -7.2988   -2.1189 C   0  0  0  0  0  0  0  0  0  0  0  0
   10.9031   -5.1705   -1.1034 N   0  0  0  0  0  0  0  0  0  0  0  0
   10.2627   -4.2017   -0.3796 C   0  0  0  0  0  0  0  0  0  0  0  0
   10.5512   -3.0049   -0.9927 C   0  0  0  0  0  0  0  0  0  0  0  0
   11.3966   -3.3515   -2.0621 C   0  0  0  0  0  0  0  0  0  0  0  0
   10.7979   -6.6077   -0.9343 C   0  0  0  0  0  0  0  0  0  0  0  0
    2.2607    0.1112   -0.0577 C   0  0  0  0  0  0  0  0  0  0  0  0
    2.9930    1.1852    0.4619 N   0  0  0  0  0  0  0  0  0  0  0  0
    4.4436    1.3167    0.4452 C   0  0  0  0  0  0  0  0  0  0  0  0
    2.2527    2.3317    0.9711 C   0  0  0  0  0  0  0  0  0  0  0  0
    2.9593   -1.1156   -0.5412 C   0  0  0  0  0  0  0  0  0  0  0  0
    2.5958   -1.7372   -1.7542 C   0  0  0  0  0  0  0  0  0  0  0  0
    1.7513   -1.1194   -2.6965 N   0  0  0  0  0  0  0  0  0  0  0  0
    3.3041   -2.8822   -2.1502 C   0  0  0  0  0  0  0  0  0  0  0  0
    4.3241   -3.4153   -1.3558 C   0  0  0  0  0  0  0  0  0  0  0  0
    3.9448   -1.6939    0.2749 C   0  0  0  0  0  0  0  0  0  0  0  0
    4.6698   -2.8157   -0.1402 C   0  0  0  0  0  0  0  0  0  0  0  0
    5.7687   -3.3324    0.6750 C   0  0  0  0  0  0  0  0  0  0  0  0
    5.5683   -3.7175    2.0048 C   0  0  0  0  0  0  0  0  0  0  0  0
    6.4883   -4.2646    2.8366 N   0  0  0  0  0  0  0  0  0  0  0  0
    7.0610   -3.4673    0.1478 C   0  0  0  0  0  0  0  0  0  0  0  0
    8.0550   -4.0273    0.9654 C   0  0  0  0  0  0  0  0  0  0  0  0
    7.6878   -4.4117    2.2494 C   0  0  0  0  0  0  0  0  0  0  0  0
    8.7691   -5.0053    2.8409 N   0  0  0  0  0  0  0  0  0  0  0  0
   11.6094   -4.6680   -2.1421 N   0  0  0  0  0  0  0  0  0  0  0  0
  1 10  2  0
  2  3  2  0
  2 27  1  0
  3  6  1  0
  3 25  1  0
  4  9  1  0
  5  6  1  0
  5  9  1  0
  5 28  1  0
  6  7  2  0
  7  8  1  0
  8 28  2  0
 10 11  1  0
 10 14  1  0
 11 12  1  0
 11 13  1  0
 14 15  2  0
 14 19  1  0
 15 16  1  0
 15 17  1  0
 17 18  2  0
 18 20  1  0
 19 20  2  0
 20 21  1  0
 21 22  2  0
 21 24  1  0
 22 23  1  0
 23 26  2  0
 24 25  2  0
 25 26  1  0
 26 27  1  0
M  END
>  <DRUGBANK_ID>  (1) 
DB08583

>  <COMMON_NAME>  (1) 
2-amino-5-[3-(1-ethyl-1H-pyrazol-5-yl)-1H-pyrrolo[2,3-b]pyridin-5-yl]-N,N-dimethylbenzamide

>  <UNII>  (1) 
DH982UZX58

$$$$
