
     RDKit          3D

 12 11  0  0  0  0  0  0  0  0999 V2000
    1.0709    0.1180    0.0131 C   0  0  0  0  0  0  0  0  0  0  0  0
   -1.5697   -3.6892    1.0189 C   0  0  0  0  0  0  0  0  0  0  0  0
    0.6102   -1.2117   -0.5863 C   0  0  0  0  0  0  0  0  0  0  0  0
   -0.9665   -2.4316    1.6342 C   0  0  0  0  0  0  0  0  0  0  0  0
    1.1143   -2.4309    0.1882 C   0  0  0  0  0  0  0  0  0  0  0  0
    0.5641   -2.5588    1.6079 C   0  0  0  0  0  0  0  0  0  0  0  0
    0.5503    0.4292    1.4205 C   0  0  0  0  0  0  0  0  0  0  0  0
    1.0706    1.6856    2.0593 C   0  0  0  0  0  0  0  0  0  0  0  0
   -1.1022   -4.9308    1.7780 C   0  0  0  0  0  0  0  0  0  0  0  0
   -1.5158   -4.8430    3.2393 C   0  0  0  0  0  0  0  0  0  0  0  0
    0.5704    2.8773    1.3167 C   0  0  0  0  0  0  0  0  0  0  0  0
    0.8741    3.1273    0.1651 O   0  0  0  0  0  0  0  0  0  0  0  0
  3  1  1  0
  4  2  1  0
  5  3  1  0
  6  4  1  0
  6  5  1  0
  7  1  1  0
  8  7  1  0
  8 11  1  0
  9  2  1  0
 10  9  1  0
 11 12  2  0
M  END
>  <DRUGBANK_ID>  (1) 
DB04093

>  <SECONDARY_ACCESSION_NUMBERS>  (1) 
EXPT03190

>  <COMMON_NAME>  (1) 
Undecanal

>  <CAS_NUMBER>  (1) 
112-44-7

>  <UNII>  (1) 
B6P0A9PSHN

>  <SYNONYMS>  (1) 
n-Undecanal; Undecanal; Undecanaldehyde; Undecyl aldehyde; Undecylaldehyde; Undecylic aldehyde

$$$$
