499
     RDKit          3D

 19 19  0  0  0  0  0  0  0  0999 V2000
    0.9671    0.1199    0.2925 F   0  0  0  0  0  0  0  0  0  0  0  0
    2.8516    1.0321    0.9564 F   0  0  0  0  0  0  0  0  0  0  0  0
    2.6418   -1.1054    0.9384 F   0  0  0  0  0  0  0  0  0  0  0  0
    4.2951   -4.3702   -5.0906 O   0  0  0  0  0  0  0  0  0  0  0  0
    3.4223    3.3658   -2.2895 O   0  0  0  0  0  0  0  0  0  0  0  0
    2.2056    2.7353   -0.5892 O   0  0  0  0  0  0  0  0  0  0  0  0
    3.6110   -2.8041   -3.6130 N   0  0  0  0  0  0  0  0  0  0  0  0
    2.9322    2.4924   -1.5394 N   0  0  0  0  0  0  0  0  0  0  0  0
    4.5482   -2.1284   -5.8585 C   0  0  0  0  0  0  0  0  0  0  0  0
    3.4092   -1.5209   -3.0410 C   0  0  0  0  0  0  0  0  0  0  0  0
    4.1448   -3.1726   -4.8318 C   0  0  0  0  0  0  0  0  0  0  0  0
    2.8103   -0.0585   -1.1714 C   0  0  0  0  0  0  0  0  0  0  0  0
    2.9231   -1.3688   -1.7566 C   0  0  0  0  0  0  0  0  0  0  0  0
    3.2577   -1.3945   -6.3512 C   0  0  0  0  0  0  0  0  0  0  0  0
    5.8018   -1.3503   -5.3389 C   0  0  0  0  0  0  0  0  0  0  0  0
    3.1741    1.0917   -1.9093 C   0  0  0  0  0  0  0  0  0  0  0  0
    3.7241   -0.3301   -3.6834 C   0  0  0  0  0  0  0  0  0  0  0  0
    3.7062    0.9289   -3.1517 C   0  0  0  0  0  0  0  0  0  0  0  0
    2.3169    0.0183    0.2370 C   0  0  0  0  0  0  0  0  0  0  0  0
  1 19  1  0
  2 19  1  0
  3 19  1  0
  4 11  2  0
  5  8  1  0
  6  8  2  0
  7 10  1  0
  7 11  1  0
  8 16  1  0
  9 11  1  0
  9 14  1  0
  9 15  1  0
 10 13  2  0
 10 17  1  0
 12 13  1  0
 12 16  2  0
 12 19  1  0
 16 18  1  0
 17 18  2  0
M  CHG  2   5  -1   8   1
M  END
>  <DRUGBANK_ID>  (1) 
DB00499

>  <SECONDARY_ACCESSION_NUMBERS>  (1) 
APRD00984

>  <COMMON_NAME>  (1) 
Flutamide

>  <CAS_NUMBER>  (1) 
13311-84-7

>  <UNII>  (1) 
76W6J0943E

>  <SYNONYMS>  (1) 
4'-nitro-3'-trifluoromethylisobutyranilide; Flutamid; Flutamida; Flutamide; Flutamidum; FTA; NFBA; Niftolid; Niftolide; α,α,α-trifluoro-2-methyl-4'-nitro-m-propionotoluidide

$$$$
