1559
     RDKit          3D

 21 23  0  0  0  0  0  0  0  0999 V2000
   -2.0816   -0.1616   -0.2448 Cl  0  0  0  0  0  0  0  0  0  0  0  0
   -3.1143    3.7191    2.5809 S   0  0  0  0  0  0  0  0  0  0  0  0
   -0.7963    6.5150   -0.1699 O   0  0  0  0  0  0  0  0  0  0  0  0
   -2.3710    4.9348    0.3931 N   0  0  0  0  0  0  0  0  0  0  0  0
   -0.1352    3.2536   -1.0794 N   0  0  0  0  0  0  0  0  0  0  0  0
   -1.2636    2.7682    1.0473 C   0  0  0  0  0  0  0  0  0  0  0  0
   -2.1598    3.8129    1.1725 C   0  0  0  0  0  0  0  0  0  0  0  0
   -0.3696    2.4903   -0.0752 C   0  0  0  0  0  0  0  0  0  0  0  0
   -2.3288    2.3229    3.1022 C   0  0  0  0  0  0  0  0  0  0  0  0
   -1.3621    1.9254    2.2142 C   0  0  0  0  0  0  0  0  0  0  0  0
   -2.7489    1.6508    4.3565 C   0  0  0  0  0  0  0  0  0  0  0  0
   -0.8596    4.4619   -1.4262 C   0  0  0  0  0  0  0  0  0  0  0  0
   -1.2609    5.3921   -0.3019 C   0  0  0  0  0  0  0  0  0  0  0  0
    0.3339    1.1785   -0.0703 C   0  0  0  0  0  0  0  0  0  0  0  0
   -3.6008    5.7114    0.3786 C   0  0  0  0  0  0  0  0  0  0  0  0
   -3.3807    0.3073    4.0352 C   0  0  0  0  0  0  0  0  0  0  0  0
   -0.3588   -0.0444   -0.1151 C   0  0  0  0  0  0  0  0  0  0  0  0
    1.7331    1.1928   -0.0248 C   0  0  0  0  0  0  0  0  0  0  0  0
    0.3536   -1.2429   -0.0550 C   0  0  0  0  0  0  0  0  0  0  0  0
    2.4362   -0.0108    0.0105 C   0  0  0  0  0  0  0  0  0  0  0  0
    1.7476   -1.2249    0.0025 C   0  0  0  0  0  0  0  0  0  0  0  0
  1 17  1  0
  2  7  1  0
  2  9  1  0
  3 13  2  0
  4  7  1  0
  4 13  1  0
  4 15  1  0
  5  8  2  0
  5 12  1  0
  6  7  2  0
  6  8  1  0
  6 10  1  0
  8 14  1  0
  9 10  2  0
  9 11  1  0
 11 16  1  0
 12 13  1  0
 14 17  2  0
 14 18  1  0
 17 19  1  0
 18 20  2  0
 19 21  2  0
 20 21  1  0
M  END
>  <DRUGBANK_ID>  (1) 
DB01559

>  <COMMON_NAME>  (1) 
Clotiazepam

>  <CAS_NUMBER>  (1) 
33671-46-4

>  <UNII>  (1) 
ZCN055599V

>  <SYNONYMS>  (1) 
Clotiazepam; Clotiazepamum

$$$$
