
     RDKit          3D

 22 23  0  0  1  0  0  0  0  0999 V2000
    1.0562    0.0489   -0.0568 C   0  0  0  0  0  0  0  0  0  0  0  0
    3.9591   -1.7097   -4.2271 C   0  0  0  0  0  0  0  0  0  0  0  0
    0.5928   -0.9678   -1.1654 C   0  0  2  0  0  0  0  0  0  0  0  0
    4.5579    0.3346   -4.2911 C   0  0  0  0  0  0  0  0  0  0  0  0
    1.1015   -2.4203   -1.0901 C   0  0  2  0  0  0  0  0  0  0  0  0
    2.2439   -2.5427   -2.0246 C   0  0  2  0  0  0  0  0  0  0  0  0
    5.3416    1.5408   -4.5735 C   0  0  0  0  0  0  0  0  0  0  0  0
    3.3111    0.3679   -3.6323 C   0  0  0  0  0  0  0  0  0  0  0  0
    1.7791   -1.5955   -3.0950 C   0  0  2  0  0  0  0  0  0  0  0  0
    4.7531    2.7082   -4.1631 N   0  0  0  0  0  0  0  0  0  0  0  0
    4.9452   -0.9533   -4.6325 N   0  0  0  0  0  0  0  0  0  0  0  0
    2.9430   -0.9638   -3.6783 N   0  0  0  0  0  0  0  0  0  0  0  0
    0.0696   -3.3546   -1.4580 O   0  0  0  0  0  0  0  0  0  0  0  0
    2.3687   -3.9052   -2.4636 O   0  0  0  0  0  0  0  0  0  0  0  0
    6.4357    1.5541   -5.1479 O   0  0  0  0  0  0  0  0  0  0  0  0
    2.6143    1.2180   -3.1294 O   0  0  0  0  0  0  0  0  0  0  0  0
    0.7577   -1.4956    3.1058 O   0  0  0  0  0  0  0  0  0  0  0  0
   -0.3745   -2.4170    1.1643 O   0  0  0  0  0  0  0  0  0  0  0  0
    1.6250   -3.2977    1.9837 O   0  0  0  0  0  0  0  0  0  0  0  0
    0.5322   -0.2880    1.2801 O   0  0  0  0  0  0  0  0  0  0  0  0
    0.8472   -0.6420   -2.5270 O   0  0  0  0  0  0  0  0  0  0  0  0
    1.1089   -1.8763    1.6514 P   0  0  2  0  0  0  0  0  0  0  0  0
  3  1  1  1
  5  3  1  0
  5 13  1  6
  6  5  1  0
  6 14  1  6
  7  4  1  0
  8  4  2  0
  9  6  1  0
  9 12  1  1
 10  7  1  0
 11  2  2  0
 11  4  1  0
 12  2  1  0
 12  8  1  0
 15  7  2  0
 16  8  1  0
 20  1  1  0
 21  3  1  0
 21  9  1  0
 22 17  1  1
 22 18  1  0
 22 19  2  0
 22 20  1  0
M  CHG  2  16  -1  17  -1
M  END
>  <DRUGBANK_ID>  (1) 
DB01945

>  <SECONDARY_ACCESSION_NUMBERS>  (1) 
EXPT02272

>  <COMMON_NAME>  (1) 
4-Carbamoyl-1-Beta-D-Ribofuranosyl-Imidazolium-5-Olate-5'-Phosphate

$$$$
