
     RDKit          3D

 31 33  0  0  0  0  0  0  0  0999 V2000
    0.9983    0.0318   -0.0709 C   0  0  0  0  0  0  0  0  0  0  0  0
    0.5811   -0.4293    1.3071 C   0  0  0  0  0  0  0  0  0  0  0  0
   -0.1217    0.2859    2.0237 O   0  0  0  0  0  0  0  0  0  0  0  0
    0.9119   -1.7071    1.7115 N   0  0  0  0  0  0  0  0  0  0  0  0
    1.7810   -2.6218    1.0703 C   0  0  0  0  0  0  0  0  0  0  0  0
    2.9591   -2.1701    0.4732 C   0  0  0  0  0  0  0  0  0  0  0  0
    3.8006   -3.0173   -0.2308 C   0  0  0  0  0  0  0  0  0  0  0  0
    3.5276   -4.3530   -0.2725 C   0  0  0  0  0  0  0  0  0  0  0  0
    2.4380   -4.8784    0.3874 C   0  0  0  0  0  0  0  0  0  0  0  0
    1.5160   -4.0019    1.0434 C   0  0  0  0  0  0  0  0  0  0  0  0
    2.3589   -6.2528    0.1018 N   0  0  0  0  0  0  0  0  0  0  0  0
    3.1253   -7.1769    1.0061 C   0  0  0  0  0  0  0  0  0  0  0  0
    2.8494   -8.6297    0.5003 C   0  0  0  0  0  0  0  0  0  0  0  0
    1.4249   -9.0581    0.3979 N   0  0  0  0  0  0  0  0  0  0  0  0
    0.7173   -8.0816   -0.4551 C   0  0  0  0  0  0  0  0  0  0  0  0
    1.0013   -6.6536   -0.0182 C   0  0  0  0  0  0  0  0  0  0  0  0
    0.7849   -9.3513    1.6975 C   0  0  0  0  0  0  0  0  0  0  0  0
    0.5417   -8.2277    2.7384 C   0  0  0  0  0  0  0  0  0  0  0  0
   -0.4761   -7.1250    2.3741 C   0  0  0  0  0  0  0  0  0  0  0  0
   -1.7876   -7.6652    1.9795 C   0  0  0  0  0  0  0  0  0  0  0  0
   -2.4070   -7.9826    3.2178 N   0  0  0  0  0  0  0  0  0  0  0  0
   -3.9464   -8.5255    3.0047 S   0  0  0  0  0  0  0  0  0  0  0  0
   -3.8448   -9.6180    2.0821 O   0  0  0  0  0  0  0  0  0  0  0  0
   -4.4492   -8.7008    4.3598 O   0  0  0  0  0  0  0  0  0  0  0  0
   -4.7251   -7.1136    2.1984 C   0  0  0  0  0  0  0  0  0  0  0  0
   -4.6304   -5.7998    2.9940 C   0  0  0  0  0  0  0  0  0  0  0  0
   -5.9409   -5.0287    2.8068 C   0  0  0  0  0  0  0  0  0  0  0  0
   -5.9224   -3.6991    3.5501 C   0  0  0  0  0  0  0  0  0  0  0  0
   -4.7519   -2.8282    3.1099 C   0  0  0  0  0  0  0  0  0  0  0  0
   -3.4343   -3.5597    3.2913 C   0  0  0  0  0  0  0  0  0  0  0  0
   -3.4496   -4.8997    2.5701 C   0  0  0  0  0  0  0  0  0  0  0  0
  1  2  1  0
  2  3  2  0
  2  4  1  0
  4  5  1  0
  5  6  2  0
  5 10  1  0
  6  7  1  0
  7  8  2  0
  8  9  1  0
  9 10  2  0
  9 11  1  0
 11 12  1  0
 11 16  1  0
 12 13  1  0
 13 14  1  0
 14 15  1  0
 14 17  1  0
 15 16  1  0
 17 18  1  0
 18 19  1  0
 19 20  1  0
 20 21  1  0
 21 22  1  0
 22 23  2  0
 22 24  2  0
 22 25  1  0
 25 26  1  0
 26 27  1  0
 26 31  1  0
 27 28  1  0
 28 29  1  0
 29 30  1  0
 30 31  1  0
M  END
>  <DRUGBANK_ID>  (1) 
DB05562

>  <COMMON_NAME>  (1) 
Naluzotan

>  <CAS_NUMBER>  (1) 
740873-06-7

>  <UNII>  (1) 
LQ54E5B4EW

>  <SYNONYMS>  (1) 
Naluzotan

$$$$
