
     RDKit          3D

 30 32  0  0  1  0  0  0  0  0999 V2000
    0.3945    2.0610   -2.3492 O   0  0  0  0  0  0  0  0  0  0  0  0
   -3.9255    2.4685   -0.0070 O   0  0  0  0  0  0  0  0  0  0  0  0
   -0.7414    1.6273    1.7897 O   0  0  0  0  0  0  0  0  0  0  0  0
   -2.4819    4.4996   -0.9802 O   0  0  0  0  0  0  0  0  0  0  0  0
   -3.2668    6.3446   -2.2205 O   0  0  0  0  0  0  0  0  0  0  0  0
   -1.1897    6.0529    2.9594 O   0  0  0  0  0  0  0  0  0  0  0  0
   -3.5164    6.5760    0.0444 N   0  0  0  0  0  0  0  0  0  0  0  0
   -1.6977    8.0405    2.1934 N   0  0  0  0  0  0  0  0  0  0  0  0
   -1.3131    2.2300   -0.3165 C   0  0  2  0  0  0  0  0  0  0  0  0
   -2.7654    2.4847    0.8240 C   0  0  2  0  0  0  0  0  0  0  0  0
   -0.5882    1.4327   -1.5435 C   0  0  2  0  0  0  0  0  0  0  0  0
    1.2380    1.1687   -1.6500 C   0  0  1  0  0  0  0  0  0  0  0  0
   -0.3252    2.8115    0.5742 C   0  0  1  0  0  0  0  0  0  0  0  0
   -4.5911    2.4846    1.1780 C   0  0  0  0  0  0  0  0  0  0  0  0
   -2.2810    3.7584    1.7516 C   0  0  0  0  0  0  0  0  0  0  0  0
   -1.0958    4.1501   -0.3425 C   0  0  2  0  0  0  0  0  0  0  0  0
   -1.2382    4.8692    0.8613 C   0  0  0  0  0  0  0  0  0  0  0  0
   -1.3114    0.2497   -1.9910 C   0  0  0  0  0  0  0  0  0  0  0  0
    1.9782    0.0404   -2.4817 C   0  0  0  0  0  0  0  0  0  0  0  0
    3.3469    0.3157   -3.1821 C   0  0  0  0  0  0  0  0  0  0  0  0
   -0.8502    0.2244    1.2952 C   0  0  0  0  0  0  0  0  0  0  0  0
   -3.0567    5.8183   -1.0798 C   0  0  0  0  0  0  0  0  0  0  0  0
    4.5582   -0.2597   -2.9308 C   0  0  0  0  0  0  0  0  0  0  0  0
    5.8312    0.0843   -3.6981 C   0  0  0  0  0  0  0  0  0  0  0  0
    4.7649   -1.2846   -1.8437 C   0  0  0  0  0  0  0  0  0  0  0  0
   -3.3420    6.1994    1.4654 C   0  0  2  0  0  0  0  0  0  0  0  0
   -4.4269    6.0469    2.5431 C   0  0  0  0  0  0  0  0  0  0  0  0
   -1.9482    6.7155    2.2430 C   0  0  0  0  0  0  0  0  0  0  0  0
   -3.8696    6.3550    3.9447 C   0  0  0  0  0  0  0  0  0  0  0  0
   -5.5990    6.8164    2.0551 C   0  0  0  0  0  0  0  0  0  0  0  0
  1 11  1  0
  1 12  1  0
  2 14  1  0
  3 21  1  0
  4 22  1  0
  5 22  2  0
  6 28  2  0
  7 22  1  0
  8 28  1  0
  9 10  1  1
  9 13  1  0
  9 11  1  0
 10  2  1  0
 10 14  1  1
 10 15  1  0
 11 12  1  0
 11 18  1  6
 12 19  1  6
 13 16  1  0
 13  3  1  6
 15 17  1  0
 16 17  1  0
 16  4  1  1
 19 20  1  0
 20 23  2  3
 23 24  1  0
 23 25  1  0
 26 28  1  0
 26 27  1  0
 26  7  1  6
 27 29  1  0
 27 30  1  0
M  END
>  <DRUGBANK_ID>  (1) 
DB05864

>  <COMMON_NAME>  (1) 
PPI-2458

>  <UNII>  (1) 
NA0Y2SRR29

$$$$
