KIM
     RDKit          3D

 31 34  0  0  0  0  0  0  0  0999 V2000
    0.8727   -0.1729   -0.1241 N   0  0  0  0  0  0  0  0  0  0  0  0
    0.7674    0.1921   -2.4223 N   0  0  0  0  0  0  0  0  0  0  0  0
    0.2391   -0.6364    1.0335 C   0  0  0  0  0  0  0  0  0  0  0  0
    0.2499    0.4203   -1.2064 C   0  0  0  0  0  0  0  0  0  0  0  0
   -1.4801    1.6238   -2.0766 C   0  0  0  0  0  0  0  0  0  0  0  0
   -1.0656    1.3535   -3.3635 C   0  0  0  0  0  0  0  0  0  0  0  0
    0.1013    0.6038   -3.5149 C   0  0  0  0  0  0  0  0  0  0  0  0
    1.6650   -0.6966   -5.0160 C   0  0  0  0  0  0  0  0  0  0  0  0
    3.7210   -2.7949   -5.4050 C   0  0  0  0  0  0  0  0  0  0  0  0
    5.6127   -4.8891   -5.6670 C   0  0  0  0  0  0  0  0  0  0  0  0
    1.5881   -1.9412   -4.4025 C   0  0  0  0  0  0  0  0  0  0  0  0
   -3.9458   -2.1573    2.8498 C   0  0  0  0  0  0  0  0  0  0  0  0
   -1.2328   -1.2705    3.3607 C   0  0  0  0  0  0  0  0  0  0  0  0
   -1.5518   -1.4779    5.7551 C   0  0  0  0  0  0  0  0  0  0  0  0
    1.5853    0.5769    4.8190 C   0  0  0  0  0  0  0  0  0  0  0  0
    0.4025   -0.1875    4.6941 O   0  0  0  0  0  0  0  0  0  0  0  0
   -0.0026   -0.5842    3.4496 C   0  0  0  0  0  0  0  0  0  0  0  0
    0.7258   -0.2897    2.2887 C   0  0  0  0  0  0  0  0  0  0  0  0
   -0.8589    1.1556   -1.0017 N   0  0  0  0  0  0  0  0  0  0  0  0
    0.6516    0.2849   -4.7919 N   0  0  0  0  0  0  0  0  0  0  0  0
   -0.1824    0.5997   -5.9580 C   0  0  0  0  0  0  0  0  0  0  0  0
    2.7945   -0.4901   -5.8238 C   0  0  0  0  0  0  0  0  0  0  0  0
    3.8180   -1.5090   -6.0404 C   0  0  0  0  0  0  0  0  0  0  0  0
    4.3826   -4.1185   -5.2382 C   0  0  0  0  0  0  0  0  0  0  0  0
    3.6424   -4.9054   -4.4396 N   0  0  0  0  0  0  0  0  0  0  0  0
    2.6027   -4.1714   -4.0934 N   0  0  0  0  0  0  0  0  0  0  0  0
    2.5784   -2.9191   -4.6125 C   0  0  0  0  0  0  0  0  0  0  0  0
   -0.9896   -1.3045    0.9508 C   0  0  0  0  0  0  0  0  0  0  0  0
   -1.7524   -1.5820    2.0901 C   0  0  0  0  0  0  0  0  0  0  0  0
   -2.9854   -2.1233    1.7981 O   0  0  0  0  0  0  0  0  0  0  0  0
   -1.9856   -1.6852    4.4264 O   0  0  0  0  0  0  0  0  0  0  0  0
  1  3  1  0
  1  4  1  0
  2  4  2  0
  2  7  1  0
  3 18  2  0
  3 28  1  0
  4 19  1  0
  5  6  1  0
  5 19  2  0
  6  7  2  0
  7 20  1  0
  8 11  2  0
  8 20  1  0
  8 22  1  0
  9 23  1  0
  9 24  1  0
  9 27  2  0
 10 24  1  0
 11 27  1  0
 12 30  1  0
 13 17  2  0
 13 29  1  0
 13 31  1  0
 14 31  1  0
 15 16  1  0
 16 17  1  0
 17 18  1  0
 20 21  1  0
 22 23  2  0
 24 25  2  0
 25 26  1  0
 26 27  1  0
 28 29  2  0
 29 30  1  0
M  END
>  <DRUGBANK_ID>  (1) 
DB08042

>  <COMMON_NAME>  (1) 
N~4~-methyl-N~4~-(3-methyl-1H-indazol-6-yl)-N~2~-(3,4,5-trimethoxyphenyl)pyrimidine-2,4-diamine

$$$$
