
     RDKit          3D

  5  4  0  0  0  0  0  0  0  0999 V2000
    0.9756    0.1034    0.0544 C   0  0  0  0  0  0  0  0  0  0  0  0
    0.2303   -1.0019   -0.6237 C   0  0  0  0  0  0  0  0  0  0  0  0
   -0.6644   -1.7339    0.3263 C   0  0  0  0  0  0  0  0  0  0  0  0
    0.4277    1.0104    0.6740 O   0  0  0  0  0  0  0  0  0  0  0  0
   -1.8727   -1.8687    0.1514 O   0  0  0  0  0  0  0  0  0  0  0  0
  2  1  1  0
  3  2  1  0
  4  1  2  0
  5  3  2  0
M  END
>  <DRUGBANK_ID>  (1) 
DB03057

>  <SECONDARY_ACCESSION_NUMBERS>  (1) 
EXPT02141

>  <COMMON_NAME>  (1) 
Malonaldehyde

>  <CAS_NUMBER>  (1) 
542-78-9

>  <UNII>  (1) 
4Y8F71G49Q

>  <SYNONYMS>  (1) 
Malondialdehyde; Malonic aldehyde; Malonic dialdehyde; Malonodialdehyde

$$$$
