
     RDKit          3D

 13 10  0  0  0  0  0  0  0  0999 V2000
    0.2928   -0.6268    0.0613 Si  0  0  0  0  0  4  0  0  0  0  0  0
    0.6298   -2.5768   -2.0056 Si  0  0  0  0  0  4  0  0  0  0  0  0
    0.6491   -0.8588    2.9760 Si  0  0  0  0  0  4  0  0  0  0  0  0
    2.1090    1.8633    2.5582 Mg  0  0  0  0  0 15  0  0  0  0  0  0
    3.1257   -0.1189   -1.8912 Mg  0  0  0  0  0 15  0  0  0  0  0  0
    0.2241   -2.1336   -0.4762 O   0  0  0  0  0  0  0  0  0  0  0  0
   -0.1374   -0.3500    1.5968 O   0  0  0  0  0  0  0  0  0  0  0  0
    0.1517    0.5313   -1.0917 O   0  0  0  0  0  0  0  0  0  0  0  0
    1.9974   -0.1159   -0.0310 O   0  0  0  0  0  0  0  0  0  0  0  0
    2.1906   -1.7111   -2.0778 O   0  0  0  0  0  0  0  0  0  0  0  0
    2.1268    0.0185    2.5503 O   0  0  0  0  0  0  0  0  0  0  0  0
    0.8681   -4.0388   -1.9318 O   0  0  0  0  0  0  0  0  0  0  0  0
    0.4368    0.3468    3.8246 O   0  0  0  0  0  0  0  0  0  0  0  0
  1  6  1  0
  1  7  1  0
  1  8  1  0
  1  9  1  0
  2  6  1  0
  2 10  1  0
  2 12  2  0
  3  7  1  0
  3 11  1  0
  3 13  2  0
M  CHG  6   4   2   5   2   8  -1   9  -1  10  -1  11  -1
M  END
>  <DRUGBANK_ID>  (1) 
DB09281

>  <COMMON_NAME>  (1) 
Magnesium trisilicate

>  <CAS_NUMBER>  (1) 
14987-04-3

>  <UNII>  (1) 
FML8G1U0Y3

>  <SYNONYMS>  (1) 
Magnesio trisilicato

$$$$
