
     RDKit          3D

 13 15  0  0  0  0  0  0  0  0999 V2000
    0.9704    0.0827    0.0063 C   0  0  0  0  0  0  0  0  0  0  0  0
    0.6255   -3.6280    0.7064 C   0  0  0  0  0  0  0  0  0  0  0  0
    0.9877   -2.3909    0.1511 C   0  0  0  0  0  0  0  0  0  0  0  0
   -0.2804   -3.6903    1.7646 C   0  0  0  0  0  0  0  0  0  0  0  0
   -1.2827    1.1056    2.2683 C   0  0  0  0  0  0  0  0  0  0  0  0
    0.4708   -1.1743    0.6392 C   0  0  0  0  0  0  0  0  0  0  0  0
   -0.8223   -2.5036    2.2371 C   0  0  0  0  0  0  0  0  0  0  0  0
   -0.4560   -1.2615    1.6717 C   0  0  0  0  0  0  0  0  0  0  0  0
   -1.9822   -0.6370    3.3341 C   0  0  0  0  0  0  0  0  0  0  0  0
   -2.1266    1.5058    3.2051 N   0  0  0  0  0  0  0  0  0  0  0  0
   -2.5777    0.3852    3.8889 N   0  0  0  0  0  0  0  0  0  0  0  0
   -1.1540   -0.2444    2.3285 N   0  0  0  0  0  0  0  0  0  0  0  0
   -2.0075   -2.3441    3.5831 S   0  0  0  0  0  0  0  0  0  0  0  0
  3  2  2  0
  4  2  1  0
  6  1  1  0
  6  3  1  0
  7  4  2  0
  8  6  2  0
  8  7  1  0
 10  5  2  0
 11  9  2  0
 11 10  1  0
 12  5  1  0
 12  8  1  0
 12  9  1  0
 13  7  1  0
 13  9  1  0
M  END
>  <DRUGBANK_ID>  (1) 
DB02891

>  <SECONDARY_ACCESSION_NUMBERS>  (1) 
EXPT00658

>  <COMMON_NAME>  (1) 
Tricyclazole

>  <CAS_NUMBER>  (1) 
41814-78-2

>  <UNII>  (1) 
R7U3MEU7VR

>  <SYNONYMS>  (1) 
2,7,8,9-tricyclazole; 5-methyl-1,2,4-triazolo(3,4-b)(1,3)benzothiazole; 5-methyl-1,2,4-triazolo(3,4-b)benzothiazole; Beam; Tricyclazone

$$$$
