
     RDKit          3D

 32 36  0  0  1  0  0  0  0  0999 V2000
   16.2771    3.0209   12.9007 O   0  0  0  0  0  0  0  0  0  0  0  0
   15.1570    3.5368   12.1842 C   0  0  0  0  0  0  0  0  0  0  0  0
   14.4240    2.4226   11.4134 C   0  0  1  0  0  0  0  0  0  0  0  0
   13.4506    1.8373   12.2838 O   0  0  0  0  0  0  0  0  0  0  0  0
   12.6532    0.8029   11.6848 C   0  0  2  0  0  0  0  0  0  0  0  0
   11.8916    1.3370   10.4368 C   0  0  2  0  0  0  0  0  0  0  0  0
   11.2047    0.3005    9.7163 O   0  0  0  0  0  0  0  0  0  0  0  0
   12.8722    2.0147    9.4687 C   0  0  1  0  0  0  0  0  0  0  0  0
   12.1608    2.6375    8.3892 O   0  0  0  0  0  0  0  0  0  0  0  0
   13.7447    3.0413   10.1878 C   0  0  2  0  0  0  0  0  0  0  0  0
   14.7203    3.5783    9.2910 O   0  0  0  0  0  0  0  0  0  0  0  0
   11.7153    0.2504   12.7555 C   0  0  0  0  0  0  0  0  0  0  0  0
   10.8828   -0.8377   12.4629 C   0  0  0  0  0  0  0  0  0  0  0  0
    9.9137   -1.3482   13.3560 C   0  0  0  0  0  0  0  0  0  0  0  0
    8.9582   -2.4360   12.8906 C   0  0  0  0  0  0  0  0  0  0  0  0
    8.0295   -2.0208   11.7686 C   0  0  0  0  0  0  0  0  0  0  0  0
    8.5882   -1.7268   10.5127 C   0  0  0  0  0  0  0  0  0  0  0  0
    7.8178   -1.3154    9.4526 C   0  0  0  0  0  0  0  0  0  0  0  0
    6.4596   -1.3029    9.5685 C   0  0  0  0  0  0  0  0  0  0  0  0
    5.6872   -1.0816    8.4815 O   0  0  0  0  0  0  0  0  0  0  0  0
    6.0772   -0.0175    7.5704 C   0  0  1  0  0  0  0  0  0  0  0  0
    6.8138   -0.4869    6.2849 C   0  0  0  0  0  0  0  0  0  0  0  0
    5.7898   -1.3730    5.6192 C   0  0  2  0  0  0  0  0  0  0  0  0
    4.7714   -0.8607    4.6374 C   0  0  0  0  0  0  0  0  0  0  0  0
    4.4480   -0.8451    6.0922 C   0  0  2  0  0  0  0  0  0  0  0  0
    4.7095    0.3506    6.9881 C   0  0  0  0  0  0  0  0  0  0  0  0
    5.8459   -1.6667   10.7830 C   0  0  0  0  0  0  0  0  0  0  0  0
    6.6417   -1.9716   11.8980 C   0  0  0  0  0  0  0  0  0  0  0  0
    9.8979   -0.8152   14.6450 C   0  0  0  0  0  0  0  0  0  0  0  0
    8.8453   -1.4058   15.8787 Cl  0  0  0  0  0  0  0  0  0  0  0  0
   10.7781    0.2154   14.9912 C   0  0  0  0  0  0  0  0  0  0  0  0
   11.6564    0.7610   14.0502 C   0  0  0  0  0  0  0  0  0  0  0  0
  1  2  1  0
  3  4  1  0
  3  2  1  1
  5  4  1  0
  5 12  1  1
  6  5  1  0
  6  7  1  6
  6  8  1  0
  8  9  1  6
  8 10  1  0
 10  3  1  0
 10 11  1  6
 12 13  2  0
 12 32  1  0
 13 14  1  0
 14 15  1  0
 14 29  2  0
 15 16  1  0
 16 17  2  0
 16 28  1  0
 17 18  1  0
 18 19  2  0
 19 20  1  0
 19 27  1  0
 21 22  1  0
 21 26  1  0
 21 20  1  1
 23 22  1  1
 23 24  1  0
 23 25  1  0
 25 24  1  6
 25 26  1  0
 27 28  2  0
 29 30  1  0
 29 31  1  0
 31 32  2  0
M  END
>  <DRUGBANK_ID>  (1) 
DB16209

>  <COMMON_NAME>  (1) 
Janagliflozin

>  <CAS_NUMBER>  (1) 
1800115-22-3

>  <UNII>  (1) 
WK4RT85HCA

$$$$
