
     RDKit          3D

 24 27  0  0  1  0  0  0  0  0999 V2000
    3.1240   -0.7581    2.9403 C   0  0  0  0  0  0  0  0  0  0  0  0
    0.3720    1.9939   10.8235 C   0  0  0  0  0  0  0  0  0  0  0  0
    2.5120    0.5696    2.5684 C   0  0  0  0  0  0  0  0  0  0  0  0
    1.0095    0.5363    2.4442 C   0  0  0  0  0  0  0  0  0  0  0  0
    0.1467    1.3190    3.1282 C   0  0  0  0  0  0  0  0  0  0  0  0
    1.7573    5.4208    6.9001 C   0  0  0  0  0  0  0  0  0  0  0  0
    0.9071    5.5885    8.1514 C   0  0  0  0  0  0  0  0  0  0  0  0
    0.3681    5.0005   11.2106 C   0  0  0  0  0  0  0  0  0  0  0  0
   -0.4841    4.5302   12.4060 C   0  0  0  0  0  0  0  0  0  0  0  0
   -1.0942    2.2385    8.1442 C   0  0  0  0  0  0  0  0  0  0  0  0
   -1.7503    2.3889    9.5252 C   0  0  0  0  0  0  0  0  0  0  0  0
   -0.0853    2.4405    5.3306 C   0  0  0  0  0  0  0  0  0  0  0  0
    1.9386    4.2524    4.7329 C   0  0  0  0  0  0  0  0  0  0  0  0
    1.2965    4.3306    5.9695 C   0  0  0  0  0  0  0  0  0  0  0  0
    0.5482    2.3729    4.0780 C   0  0  0  0  0  0  0  0  0  0  0  0
   -0.4564    3.5481    7.6214 C   0  0  1  0  0  0  0  0  0  0  0  0
    0.4609    4.2263    8.6895 C   0  0  2  0  0  0  0  0  0  0  0  0
    0.2765    3.4125    6.2907 C   0  0  0  0  0  0  0  0  0  0  0  0
   -0.3113    4.3591   10.0022 C   0  0  1  0  0  0  0  0  0  0  0  0
    1.5276    3.3325    3.7866 C   0  0  0  0  0  0  0  0  0  0  0  0
   -1.4397    3.4525   11.8578 C   0  0  1  0  0  0  0  0  0  0  0  0
   -0.7787    2.9935   10.5438 C   0  0  2  0  0  0  0  0  0  0  0  0
    2.1498    3.4496    2.5716 O   0  0  0  0  0  0  0  0  0  0  0  0
   -1.6705    2.4098   12.7859 O   0  0  0  0  0  0  0  0  0  0  0  0
  3  1  1  0
  4  3  1  0
  5  4  2  0
  7  6  1  0
  9  8  1  0
 11 10  1  0
 14  6  1  0
 14 13  2  0
 15  5  1  0
 15 12  1  0
 16 10  1  1
 17  7  1  6
 17 16  1  0
 18 12  2  0
 18 14  1  0
 18 16  1  0
 19  8  1  1
 19 17  1  0
 20 13  1  0
 20 15  2  0
 21  9  1  0
 21 24  1  1
 22  2  1  1
 22 11  1  0
 22 19  1  0
 22 21  1  0
 23 20  1  0
M  END
>  <DRUGBANK_ID>  (1) 
DB07678

>  <COMMON_NAME>  (1) 
(9ALPHA,13BETA,17BETA)-2-[(1Z)-BUT-1-EN-1-YL]ESTRA-1,3,5(10)-TRIENE-3,17-DIOL

$$$$
