
     RDKit          3D

 18 13  0  0  0  0  0  0  0  0999 V2000
    1.0826   -0.0244    0.0508 C   0  0  0  0  0  0  0  0  0  0  0  0
    0.5759   -1.2369   -0.7131 C   0  0  0  0  0  0  0  0  0  0  0  0
   -0.1547   -2.0967   -0.1281 O   0  0  0  0  0  0  0  0  0  0  0  0
    0.9190   -1.4091   -2.0802 O   0  0  0  0  0  0  0  0  0  0  0  0
    0.4456   -2.5418   -2.7938 C   0  0  0  0  0  0  0  0  0  0  0  0
   -0.8382   -2.8195   -2.5993 C   0  0  0  0  0  0  0  0  0  0  0  0
   -1.4369   -3.8620   -3.2647 C   0  0  0  0  0  0  0  0  0  0  0  0
   -0.7087   -4.6929   -4.0702 C   0  0  0  0  0  0  0  0  0  0  0  0
    0.5440   -4.3417   -4.2970 C   0  0  0  0  0  0  0  0  0  0  0  0
    1.2557   -3.3773   -3.5450 C   0  0  0  0  0  0  0  0  0  0  0  0
    2.7717   -3.2680   -3.5602 C   0  0  0  0  0  0  0  0  0  0  0  0
    3.4592   -4.0658   -4.2716 O   0  0  0  0  0  0  0  0  0  0  0  0
    3.4198   -2.2745   -2.7797 O   0  0  0  0  0  0  0  0  0  0  0  0
    1.0104    0.0857   -0.0505 O   0  0  0  0  0  0  0  0  0  0  0  0
    0.9295   -0.0024    0.0709 O   0  0  0  0  0  0  0  0  0  0  0  0
    0.9406    0.0501    0.0630 O   0  0  0  0  0  0  0  0  0  0  0  0
    1.0904   -0.0387    0.0184 Al  0  0  0  0  0 15  0  0  0  0  0  0
    0.9228    0.0218   -0.0597 Al  0  0  0  0  0 15  0  0  0  0  0  0
  1  2  1  0
  2  3  2  0
  2  4  1  0
  4  5  1  0
  5  6  2  0
  5 10  1  0
  6  7  1  0
  7  8  2  0
  8  9  1  0
  9 10  2  0
 10 11  1  0
 11 12  2  0
 11 13  1  0
M  CHG  5  14  -2  15  -2  16  -2  17   3  18   3
M  END
>  <DRUGBANK_ID>  (1) 
DB13509

>  <COMMON_NAME>  (1) 
Aloxiprin

>  <CAS_NUMBER>  (1) 
9014-67-9

>  <UNII>  (1) 
6QT214X4XU

>  <SYNONYMS>  (1) 
Aloxiprin

$$$$
