
     RDKit          3D

 20 21  0  0  0  0  0  0  0  0999 V2000
    1.6281   -1.0657   -0.0498 N   0  0  0  0  0  0  0  0  0  0  0  0
    2.6193    0.0173    0.0500 C   0  0  0  0  0  0  0  0  0  0  0  0
    1.7634    1.3252    0.0076 C   0  0  0  0  0  0  0  0  0  0  0  0
    0.3242    0.8879    0.0507 C   0  0  0  0  0  0  0  0  0  0  0  0
   -0.8080    1.6370    0.0905 C   0  0  0  0  0  0  0  0  0  0  0  0
   -2.1086    0.8429    0.0897 C   0  0  0  0  0  0  0  0  0  0  0  0
   -1.8215   -0.5180   -0.3543 C   0  0  0  0  0  0  0  0  0  0  0  0
   -0.7371   -1.2999    0.1629 C   0  0  0  0  0  0  0  0  0  0  0  0
    0.3643   -0.5740    0.0873 C   0  0  0  0  0  0  0  0  0  0  0  0
    3.6650    0.0266    1.5533 S   0  0  0  0  0  0  0  0  0  0  0  0
    4.3802   -1.2251    1.6804 O   0  0  0  0  0  0  0  0  0  0  0  0
    4.3495    1.2945    1.6611 O   0  0  0  0  0  0  0  0  0  0  0  0
    2.5099    0.0145    2.6905 O   0  0  0  0  0  0  0  0  0  0  0  0
   -2.4825   -0.9851   -1.2823 O   0  0  0  0  0  0  0  0  0  0  0  0
    2.0535   -2.4615   -0.0286 C   0  0  0  0  0  0  0  0  0  0  0  0
   -3.3516    1.1745    0.2763 N   0  0  0  0  0  0  0  0  0  0  0  0
   -4.4808    0.2413    0.1661 N   0  0  0  0  0  0  0  0  0  0  0  0
   -4.7933   -1.1278    0.1534 C   0  0  0  0  0  0  0  0  0  0  0  0
   -5.9566   -1.4969   -0.0407 O   0  0  0  0  0  0  0  0  0  0  0  0
   -3.8803   -2.1046    0.4114 N   0  0  0  0  0  0  0  0  0  0  0  0
  1  2  1  0
  1  9  1  0
  1 15  1  0
  2  3  1  0
  2 10  1  0
  3  4  1  0
  4  5  2  0
  4  9  1  0
  5  6  1  0
  6  7  1  0
  6 16  2  0
  7  8  1  0
  7 14  2  0
  8  9  2  0
 10 11  2  0
 10 12  2  0
 10 13  1  0
 16 17  1  0
 17 18  1  0
 18 19  2  0
 18 20  1  0
M  END
>  <DRUGBANK_ID>  (1) 
DB15969

>  <COMMON_NAME>  (1) 
Carbazochrome sulfonic acid

>  <CAS_NUMBER>  (1) 
70063-04-6

>  <UNII>  (1) 
BMQ12812QR

$$$$
