
     RDKit          3D

  7  7  0  0  1  0  0  0  0  0999 V2000
    1.6919   -0.3074   -2.1911 N   0  0  0  0  0  0  0  0  0  0  0  0
    0.5833    0.1147   -1.3086 C   0  0  1  0  0  0  0  0  0  0  0  0
    0.0968    1.5152   -1.6522 C   0  0  0  0  0  0  0  0  0  0  0  0
   -0.9094    1.3746   -2.6658 O   0  0  0  0  0  0  0  0  0  0  0  0
   -1.3867    0.0502   -2.5394 N   0  0  0  0  0  0  0  0  0  0  0  0
   -0.6551   -0.6799   -1.6359 C   0  0  0  0  0  0  0  0  0  0  0  0
   -0.9179   -1.8107   -1.2430 O   0  0  0  0  0  0  0  0  0  0  0  0
  2  3  1  0
  2  6  1  0
  2  1  1  6
  3  4  1  0
  4  5  1  0
  5  6  1  0
  6  7  2  0
M  END
>  <DRUGBANK_ID>  (1) 
DB17627

>  <COMMON_NAME>  (1) 
L-Cycloserine

>  <CAS_NUMBER>  (1) 
339-72-0

>  <UNII>  (1) 
AK7DRB7FMO

>  <SYNONYMS>  (1) 
(s)-4-amino-3-isoxazolidinone; L-Cycloserine; Levcycloserine

$$$$
