J5Z
     RDKit          3D

 21 23  0  0  0  0  0  0  0  0999 V2000
    1.3677   -0.2636   -0.0265 C   0  0  0  0  0  0  0  0  0  0  0  0
    0.9778   -2.6728   -0.1256 N   0  0  0  0  0  0  0  0  0  0  0  0
    0.4867   -1.3502   -0.0129 C   0  0  0  0  0  0  0  0  0  0  0  0
    0.1617   -4.7676    0.8297 N   0  0  0  0  0  0  0  0  0  0  0  0
   -0.8918   -1.0749   -0.0108 C   0  0  0  0  0  0  0  0  0  0  0  0
    0.9408   -4.8589    1.9426 N   0  0  0  0  0  0  0  0  0  0  0  0
   -1.3844    0.2226    0.0024 C   0  0  0  0  0  0  0  0  0  0  0  0
   -0.5431   -6.5978    1.8666 N   0  0  0  0  0  0  0  0  0  0  0  0
   -1.6620   -6.0031   -0.1908 N   0  0  0  0  0  0  0  0  0  0  0  0
   -1.0391    2.6780    0.3345 C   0  0  0  0  0  0  0  0  0  0  0  0
   -0.5021    1.2982    0.0647 C   0  0  0  0  0  0  0  0  0  0  0  0
    0.8781    1.0511   -0.0059 C   0  0  0  0  0  0  0  0  0  0  0  0
    0.1419   -3.7875   -0.1882 C   0  0  0  0  0  0  0  0  0  0  0  0
   -0.7352   -3.9430   -1.1908 C   0  0  0  0  0  0  0  0  0  0  0  0
   -1.6514   -5.1069   -1.1372 C   0  0  0  0  0  0  0  0  0  0  0  0
   -2.6300   -5.2389   -2.2726 C   0  0  0  0  0  0  0  0  0  0  0  0
   -0.7463   -5.8417    0.8057 C   0  0  0  0  0  0  0  0  0  0  0  0
    0.4724   -5.9701    2.5147 C   0  0  0  0  0  0  0  0  0  0  0  0
   -0.7237    3.5794   -0.6309 F   0  0  0  0  0  0  0  0  0  0  0  0
   -2.3974    2.7104    0.4539 F   0  0  0  0  0  0  0  0  0  0  0  0
   -0.5573    3.1826    1.5041 F   0  0  0  0  0  0  0  0  0  0  0  0
  1  3  2  0
  2 13  1  0
  3  2  1  0
  4 17  1  0
  5  3  1  0
  6  4  1  0
  6 18  2  0
  7  5  2  0
  8 17  2  0
 10 11  1  0
 10 21  1  0
 11  7  1  0
 11 12  2  0
 12  1  1  0
 13  4  1  0
 13 14  2  0
 14 15  1  0
 15  9  2  0
 15 16  1  0
 17  9  1  0
 18  8  1  0
 19 10  1  0
 20 10  1  0
M  END
>  <DRUGBANK_ID>  (1) 
DB08008

>  <COMMON_NAME>  (1) 
5-methyl-N-[4-(trifluoromethyl)phenyl][1,2,4]triazolo[1,5-a]pyrimidin-7-amine

>  <UNII>  (1) 
A94AKH2DCP

$$$$
