
     RDKit          3D

 32 34  0  0  1  0  0  0  0  0999 V2000
   -7.4693  -11.3241  -11.4074 N   0  0  0  0  0  0  0  0  0  0  0  0
   -6.9746  -13.2674  -12.6427 N   0  0  0  0  0  0  0  0  0  0  0  0
   -6.2661  -13.1364  -10.3502 C   0  0  0  0  0  0  0  0  0  0  0  0
   -6.3711  -13.8011  -11.5738 C   0  0  0  0  0  0  0  0  0  0  0  0
   -6.8592  -11.8790  -10.3449 C   0  0  0  0  0  0  0  0  0  0  0  0
   -7.4991  -12.0476  -12.5248 C   0  0  0  0  0  0  0  0  0  0  0  0
   -5.6323  -13.6654   -9.2476 N   0  0  0  0  0  0  0  0  0  0  0  0
   -3.5280  -12.3354   -2.5219 C   0  0  0  0  0  0  0  0  0  0  0  0
   -5.8347  -15.0297  -11.6735 N   0  0  0  0  0  0  0  0  0  0  0  0
   -3.3614  -10.9622   -2.3912 N   0  0  0  0  0  0  0  0  0  0  0  0
   -2.8280   -8.7944   -1.2906 C   0  0  0  0  0  0  0  0  0  0  0  0
   -3.2516  -10.2767   -1.0844 C   0  0  2  0  0  0  0  0  0  0  0  0
   -3.1848  -10.5846    1.9802 C   0  0  0  0  0  0  0  0  0  0  0  0
   -3.4874  -12.9384   -3.8973 C   0  0  0  0  0  0  0  0  0  0  0  0
   -5.0798  -14.8930   -9.3767 C   0  0  0  0  0  0  0  0  0  0  0  0
   -3.7269   -7.8017   -1.1481 O   0  0  0  0  0  0  0  0  0  0  0  0
   -3.6579  -13.0818   -1.5545 O   0  0  0  0  0  0  0  0  0  0  0  0
   -2.9840  -11.3121    3.0904 O   0  0  0  0  0  0  0  0  0  0  0  0
   -1.6788   -8.5060   -1.6187 O   0  0  0  0  0  0  0  0  0  0  0  0
   -3.2167  -14.8073   -7.6950 N   0  0  0  0  0  0  0  0  0  0  0  0
   -4.2989  -10.1526    1.6767 O   0  0  0  0  0  0  0  0  0  0  0  0
   -6.8088  -11.1163   -9.1837 N   0  0  0  0  0  0  0  0  0  0  0  0
   -5.2054  -15.5587  -10.5849 C   0  0  0  0  0  0  0  0  0  0  0  0
   -8.1081  -11.4962  -13.6180 N   0  0  0  0  0  0  0  0  0  0  0  0
   -2.0971  -10.9068   -0.2475 C   0  0  0  0  0  0  0  0  0  0  0  0
   -3.6023  -14.3302   -4.0293 C   0  0  0  0  0  0  0  0  0  0  0  0
   -3.2849  -12.1890   -5.0569 C   0  0  0  0  0  0  0  0  0  0  0  0
   -4.4001  -15.5388   -8.1759 C   0  0  0  0  0  0  0  0  0  0  0  0
   -1.9554  -10.3165    1.1540 C   0  0  0  0  0  0  0  0  0  0  0  0
   -3.2573  -14.2029   -6.4403 C   0  0  0  0  0  0  0  0  0  0  0  0
   -3.0474  -12.8291   -6.2868 C   0  0  0  0  0  0  0  0  0  0  0  0
   -3.5784  -14.9353   -5.2951 C   0  0  0  0  0  0  0  0  0  0  0  0
  2  6  2  0
  3  5  1  0
  4  2  1  0
  4  3  2  0
  5  1  2  0
  6  1  1  0
  7  3  1  0
  8 14  1  0
  9  4  1  0
 10  8  1  0
 12 10  1  0
 12 11  1  0
 13 29  1  0
 14 26  2  0
 15  7  2  0
 16 11  1  0
 17  8  2  0
 18 13  1  0
 19 11  2  0
 20 28  1  0
 21 13  2  0
 22  5  1  0
 23  9  2  0
 23 15  1  0
 24  6  1  0
 12 25  1  1
 26 32  1  0
 27 31  2  0
 27 14  1  0
 28 15  1  0
 29 25  1  0
 30 20  1  0
 31 30  1  0
 32 30  2  0
M  END
>  <DRUGBANK_ID>  (1) 
DB08878

>  <COMMON_NAME>  (1) 
Aminopterin

>  <CAS_NUMBER>  (1) 
54-62-6

>  <UNII>  (1) 
JYB41CTM2Q

>  <SYNONYMS>  (1) 
4-amino-4-deoxypteroylglutamate; 4-amino-PGA; 4-aminofolic acid; 4-aminopteroylglutamic acid; Aminopteridine; Aminopterine; APGA; Minopterin ; N-(4-(((2,4-diamino-6-pteridinyl)methyl)amino)benzoyl)-L-glutamic acid; Pteramina

$$$$
