816
     RDKit          3D

 15 15  0  0  1  0  0  0  0  0999 V2000
    0.8911    0.0489   -0.1194 O   0  0  0  0  0  0  0  0  0  0  0  0
    0.0214    5.9420    1.0412 O   0  0  0  0  0  0  0  0  0  0  0  0
    3.5313    4.1514   -1.5564 O   0  0  0  0  0  0  0  0  0  0  0  0
    2.4615    0.6035    2.2973 N   0  0  0  0  0  0  0  0  0  0  0  0
    0.4849    1.0526    0.8168 C   0  0  0  0  0  0  0  0  0  0  0  0
    0.9893    0.6789    2.2271 C   0  0  0  0  0  0  0  0  0  0  0  0
    2.9434    0.2835    3.6439 C   0  0  0  0  0  0  0  0  0  0  0  0
    0.9389    2.4358    0.4057 C   0  0  0  0  0  0  0  0  0  0  0  0
    2.4788   -1.1063    4.0800 C   0  0  0  0  0  0  0  0  0  0  0  0
    4.4721    0.3306    3.6173 C   0  0  0  0  0  0  0  0  0  0  0  0
    2.0620    2.6428   -0.4126 C   0  0  0  0  0  0  0  0  0  0  0  0
    0.2522    3.5560    0.9081 C   0  0  0  0  0  0  0  0  0  0  0  0
    0.6670    4.8377    0.5664 C   0  0  0  0  0  0  0  0  0  0  0  0
    2.4536    3.9318   -0.7491 C   0  0  0  0  0  0  0  0  0  0  0  0
    1.7586    5.0355   -0.2709 C   0  0  0  0  0  0  0  0  0  0  0  0
  1  5  1  0
  2 13  1  0
  3 14  1  0
  4  6  1  0
  4  7  1  0
  5  6  1  0
  5  8  1  0
  7  9  1  0
  7 10  1  0
  8 11  2  0
  8 12  1  0
 11 14  1  0
 12 13  2  0
 13 15  1  0
 14 15  2  0
M  END
>  <DRUGBANK_ID>  (1) 
DB00816

>  <SECONDARY_ACCESSION_NUMBERS>  (1) 
APRD00210

>  <COMMON_NAME>  (1) 
Orciprenaline

>  <CAS_NUMBER>  (1) 
586-06-1

>  <UNII>  (1) 
53QOG569E0

>  <SYNONYMS>  (1) 
Metaproterenol; Orciprenalina; Orciprenaline; Orciprenalinum

$$$$
