TTT
     RDKit          3D

 23 25  0  0  0  0  0  0  0  0999 V2000
    3.9535   -1.7930    1.4403 C   0  0  0  0  0  0  0  0  0  0  0  0
    3.1681   -2.4279    0.3019 C   0  0  0  0  0  0  0  0  0  0  0  0
    5.3996    1.4664    0.0398 C   0  0  0  0  0  0  0  0  0  0  0  0
    4.3215    4.0930    0.0673 C   0  0  0  0  0  0  0  0  0  0  0  0
    3.0590   -1.9586   -1.0489 C   0  0  0  0  0  0  0  0  0  0  0  0
    6.0610    2.5220   -0.6289 C   0  0  0  0  0  0  0  0  0  0  0  0
    5.5369    3.8223   -0.5587 C   0  0  0  0  0  0  0  0  0  0  0  0
    2.3172   -3.4629    0.7243 C   0  0  0  0  0  0  0  0  0  0  0  0
    6.1021    0.2142   -0.0561 C   0  0  0  0  0  0  0  0  0  0  0  0
    3.7771   -0.7690   -1.6094 C   0  0  0  0  0  0  0  0  0  0  0  0
    1.3001   -3.9350   -0.1142 C   0  0  0  0  0  0  0  0  0  0  0  0
    7.1398   -0.0587   -0.9500 C   0  0  0  0  0  0  0  0  0  0  0  0
    1.0822   -3.3019   -1.3405 C   0  0  0  0  0  0  0  0  0  0  0  0
    7.7367    0.9902   -1.5987 C   0  0  0  0  0  0  0  0  0  0  0  0
    4.7263   -2.4867    2.0717 O   0  0  0  0  0  0  0  0  0  0  0  0
    1.9639   -2.3482   -1.8188 C   0  0  0  0  0  0  0  0  0  0  0  0
    0.3278   -4.8136    0.3783 N   0  0  0  0  0  0  0  0  0  0  0  0
    3.8060   -0.4629    1.8456 N   0  0  0  0  0  0  0  0  0  0  0  0
    3.1138    0.7148    1.3147 C   0  0  2  0  0  0  0  0  0  0  0  0
    1.8598    0.3897    0.5006 C   0  0  0  0  0  0  0  0  0  0  0  0
    4.0900    1.7406    0.6609 C   0  0  0  0  0  0  0  0  0  0  0  0
    7.2357    2.2757   -1.3885 C   0  0  0  0  0  0  0  0  0  0  0  0
    3.5890    3.0611    0.6369 C   0  0  0  0  0  0  0  0  0  0  0  0
  1  2  1  0
  1 15  2  0
  1 18  1  0
  2  5  2  0
  2  8  1  0
  3  6  2  0
  3  9  1  0
  3 21  1  0
  4  7  2  0
  4 23  1  0
  5 10  1  0
  5 16  1  0
  6  7  1  0
  6 22  1  0
  8 11  2  0
  9 12  2  0
 11 13  1  0
 11 17  1  0
 12 14  1  0
 13 16  2  0
 14 22  2  0
 19 21  1  0
 19 20  1  6
 19 18  1  0
 21 23  2  0
M  END
>  <DRUGBANK_ID>  (1) 
DB08656

>  <COMMON_NAME>  (1) 
5-amino-2-methyl-N-[(1R)-1-naphthalen-1-ylethyl]benzamide

>  <UNII>  (1) 
SQH4947NDN

$$$$
