
     RDKit          3D

 33 36  0  0  0  0  0  0  0  0999 V2000
    0.5223    0.1037    0.1193 C   0  0  0  0  0  0  0  0  0  0  0  0
    0.3027   -1.2519    0.7360 C   0  0  0  0  0  0  0  0  0  0  0  0
    0.7733   -1.1945    2.0202 F   0  0  0  0  0  0  0  0  0  0  0  0
   -1.0586   -1.3592    0.8708 F   0  0  0  0  0  0  0  0  0  0  0  0
    0.8658   -2.4672    0.0075 C   0  0  0  0  0  0  0  0  0  0  0  0
    1.7423   -2.4697   -1.1163 C   0  0  0  0  0  0  0  0  0  0  0  0
    2.0160   -3.7038   -1.7451 C   0  0  0  0  0  0  0  0  0  0  0  0
    1.5003   -4.9081   -1.2464 C   0  0  0  0  0  0  0  0  0  0  0  0
    0.7232   -4.9007   -0.1005 C   0  0  0  0  0  0  0  0  0  0  0  0
    0.2533   -6.0519    0.3977 F   0  0  0  0  0  0  0  0  0  0  0  0
    0.4100   -3.7055    0.5250 C   0  0  0  0  0  0  0  0  0  0  0  0
    2.4459   -1.2510   -1.6001 C   0  0  0  0  0  0  0  0  0  0  0  0
    3.3140   -0.4253   -0.8945 C   0  0  0  0  0  0  0  0  0  0  0  0
    3.6573   -0.7603    0.3846 O   0  0  0  0  0  0  0  0  0  0  0  0
    4.0776    0.1455    1.3345 C   0  0  0  0  0  0  0  0  0  0  0  0
    3.4551    1.3631    1.6610 C   0  0  0  0  0  0  0  0  0  0  0  0
    4.0625    2.2689    2.5480 C   0  0  0  0  0  0  0  0  0  0  0  0
    5.2440    1.9207    3.2098 C   0  0  0  0  0  0  0  0  0  0  0  0
    5.9332    2.8913    4.0860 C   0  0  0  0  0  0  0  0  0  0  0  0
    7.0727    2.6342    4.7572 C   0  0  0  0  0  0  0  0  0  0  0  0
    7.7063    3.6601    5.6024 C   0  0  0  0  0  0  0  0  0  0  0  0
    8.8220    3.2228    6.2168 O   0  0  0  0  0  0  0  0  0  0  0  0
    7.2735    4.7990    5.7413 O   0  0  0  0  0  0  0  0  0  0  0  0
    5.7677    0.6414    2.9715 C   0  0  0  0  0  0  0  0  0  0  0  0
    5.2289   -0.2124    2.0100 C   0  0  0  0  0  0  0  0  0  0  0  0
    3.5908    0.8175   -1.5710 C   0  0  0  0  0  0  0  0  0  0  0  0
    4.3143    1.9601   -1.1478 C   0  0  0  0  0  0  0  0  0  0  0  0
    4.4404    3.1012   -1.9112 C   0  0  0  0  0  0  0  0  0  0  0  0
    3.9025    3.0981   -3.1743 C   0  0  0  0  0  0  0  0  0  0  0  0
    4.1497    4.1582   -3.9958 O   0  0  0  0  0  0  0  0  0  0  0  0
    3.1480    2.0179   -3.6518 C   0  0  0  0  0  0  0  0  0  0  0  0
    2.9837    0.8744   -2.8288 C   0  0  0  0  0  0  0  0  0  0  0  0
    2.1030   -0.5836   -3.1509 S   0  0  0  0  0  0  0  0  0  0  0  0
  1  2  1  0
  2  3  1  0
  2  4  1  0
  2  5  1  0
  5  6  2  0
  5 11  1  0
  6  7  1  0
  6 12  1  0
  7  8  2  0
  8  9  1  0
  9 10  1  0
  9 11  2  0
 12 13  2  0
 12 33  1  0
 13 14  1  0
 13 26  1  0
 14 15  1  0
 15 16  2  0
 15 25  1  0
 16 17  1  0
 17 18  2  0
 18 19  1  0
 18 24  1  0
 19 20  2  0
 20 21  1  0
 21 22  1  0
 21 23  2  0
 24 25  2  0
 26 27  2  0
 26 32  1  0
 27 28  1  0
 28 29  2  0
 29 30  1  0
 29 31  1  0
 31 32  2  0
 32 33  1  0
M  END
>  <DRUGBANK_ID>  (1) 
DB15362

>  <COMMON_NAME>  (1) 
LSZ-102

>  <CAS_NUMBER>  (1) 
2135600-76-7

>  <UNII>  (1) 
0Y175XGX4P

$$$$
