1419
     RDKit          3D

 42 46  0  0  0  0  0  0  0  0999 V2000
    1.0188    0.1222   -0.0737 F   0  0  0  0  0  0  0  0  0  0  0  0
    2.7789   -0.6743   -1.0804 F   0  0  0  0  0  0  0  0  0  0  0  0
    2.7868    1.3721   -0.3388 F   0  0  0  0  0  0  0  0  0  0  0  0
    3.7684    0.9918   13.1121 F   0  0  0  0  0  0  0  0  0  0  0  0
    2.9407    2.6760   12.0015 F   0  0  0  0  0  0  0  0  0  0  0  0
    1.6711    0.9951   12.5416 F   0  0  0  0  0  0  0  0  0  0  0  0
    2.1448   -4.5810    6.2082 O   0  0  0  0  0  0  0  0  0  0  0  0
    0.0944   -3.9249    5.2500 O   0  0  0  0  0  0  0  0  0  0  0  0
    1.5280   -6.3275    3.2471 N   0  0  0  0  0  0  0  0  0  0  0  0
    3.2330   -3.7185    2.7335 N   0  0  0  0  0  0  0  0  0  0  0  0
    3.3580   -2.0208    6.6506 N   0  0  0  0  0  0  0  0  0  0  0  0
    6.1243    0.5147    8.4837 N   0  0  0  0  0  0  0  0  0  0  0  0
    2.3765   -6.0106    2.0901 C   0  0  0  0  0  0  0  0  0  0  0  0
    0.9773   -5.0318    3.4989 C   0  0  0  0  0  0  0  0  0  0  0  0
    3.6063   -5.0158    2.1757 C   0  0  0  0  0  0  0  0  0  0  0  0
    2.1779   -3.8718    3.6808 C   0  0  0  0  0  0  0  0  0  0  0  0
    1.9811   -6.8428    4.5764 C   0  0  0  0  0  0  0  0  0  0  0  0
    3.4886   -2.3675    2.5299 C   0  0  0  0  0  0  0  0  0  0  0  0
    2.8337   -5.9253    5.5002 C   0  0  0  0  0  0  0  0  0  0  0  0
    2.9558   -1.7851    1.4138 C   0  0  0  0  0  0  0  0  0  0  0  0
    3.8389   -1.4290    3.5502 C   0  0  0  0  0  0  0  0  0  0  0  0
    2.9116   -0.3850    1.2492 C   0  0  0  0  0  0  0  0  0  0  0  0
    3.6997   -0.0220    3.4594 C   0  0  0  0  0  0  0  0  0  0  0  0
    3.3139    0.5038    2.2533 C   0  0  0  0  0  0  0  0  0  0  0  0
    2.3770    0.1119   -0.0456 C   0  0  0  0  0  0  0  0  0  0  0  0
    1.0336   -3.7177    5.9137 C   0  0  0  0  0  0  0  0  0  0  0  0
    1.0223   -2.2363    5.9762 C   0  0  0  0  0  0  0  0  0  0  0  0
    2.1100   -1.4714    6.2694 C   0  0  0  0  0  0  0  0  0  0  0  0
    4.3730   -1.2928    7.2991 C   0  0  0  0  0  0  0  0  0  0  0  0
    4.0253   -0.6564    8.4984 C   0  0  0  0  0  0  0  0  0  0  0  0
   -0.1276   -1.6132    5.2947 C   0  0  0  0  0  0  0  0  0  0  0  0
    4.9337    0.2457    9.0524 C   0  0  0  0  0  0  0  0  0  0  0  0
    1.8450   -0.0868    6.2544 C   0  0  0  0  0  0  0  0  0  0  0  0
    2.7725   -0.8955    9.1092 C   0  0  0  0  0  0  0  0  0  0  0  0
    5.6123   -1.0369    6.7106 C   0  0  0  0  0  0  0  0  0  0  0  0
   -0.2576   -0.2686    5.0774 C   0  0  0  0  0  0  0  0  0  0  0  0
    4.5464    0.8725   10.2246 C   0  0  0  0  0  0  0  0  0  0  0  0
    3.2860    0.6491   10.8215 C   0  0  0  0  0  0  0  0  0  0  0  0
    0.6678    0.4940    5.7270 C   0  0  0  0  0  0  0  0  0  0  0  0
    2.3836   -0.2235   10.2360 C   0  0  0  0  0  0  0  0  0  0  0  0
    6.4406   -0.1238    7.3355 C   0  0  0  0  0  0  0  0  0  0  0  0
    2.9195    1.3227   12.1046 C   0  0  0  0  0  0  0  0  0  0  0  0
  1 25  1  0
  2 25  1  0
  3 25  1  0
  4 42  1  0
  5 42  1  0
  6 42  1  0
  7 19  1  0
  7 26  1  0
  8 26  2  0
  9 13  1  0
  9 14  1  0
  9 17  1  0
 10 15  1  0
 10 16  1  0
 10 18  1  0
 11 28  1  0
 11 29  1  0
 12 32  2  0
 12 41  1  0
 13 15  1  0
 14 16  1  0
 17 19  1  0
 18 20  2  0
 18 21  1  0
 20 22  1  0
 21 23  2  0
 22 24  2  0
 22 25  1  0
 23 24  1  0
 26 27  1  0
 27 28  1  0
 27 31  2  0
 28 33  2  0
 29 30  2  0
 29 35  1  0
 30 32  1  0
 30 34  1  0
 31 36  1  0
 32 37  1  0
 33 39  1  0
 34 40  2  0
 35 41  2  0
 36 39  2  0
 37 38  2  0
 38 40  1  0
 38 42  1  0
M  END
>  <DRUGBANK_ID>  (1) 
DB01419

>  <COMMON_NAME>  (1) 
Antrafenine

>  <CAS_NUMBER>  (1) 
55300-29-3

>  <UNII>  (1) 
21FS93Y6OE

>  <SYNONYMS>  (1) 
Antrafenine

$$$$
