2368
     RDKit          3D

 13 13  0  0  0  0  0  0  0  0999 V2000
    0.9748   -0.1523    0.2900 N   0  0  0  0  0  0  0  0  0  0  0  0
    1.0157   -2.3189    1.0125 N   0  0  0  0  0  0  0  0  0  0  0  0
   -1.0447   -1.0851    0.7928 N   0  0  0  0  0  0  0  0  0  0  0  0
    0.3528    1.0015   -0.3950 C   0  0  0  0  0  0  0  0  0  0  0  0
   -0.4527    0.6594   -1.6482 C   0  0  0  0  0  0  0  0  0  0  0  0
   -0.5168   -0.6559   -2.1323 C   0  0  0  0  0  0  0  0  0  0  0  0
   -1.2521    1.6241   -2.2891 C   0  0  0  0  0  0  0  0  0  0  0  0
    0.2374   -1.2211    0.7559 C   0  0  0  0  0  0  0  0  0  0  0  0
   -1.4291   -1.0404   -3.1078 C   0  0  0  0  0  0  0  0  0  0  0  0
   -2.1581    1.2427   -3.2921 C   0  0  0  0  0  0  0  0  0  0  0  0
   -2.2505   -0.0902   -3.6931 C   0  0  0  0  0  0  0  0  0  0  0  0
    0.6338   -3.6021    1.5724 C   0  0  0  0  0  0  0  0  0  0  0  0
   -1.9290   -2.1850    1.0574 C   0  0  0  0  0  0  0  0  0  0  0  0
  1  4  1  0
  1  8  1  0
  2  8  1  0
  2 12  1  0
  3  8  2  0
  3 13  1  0
  4  5  1  0
  5  6  2  0
  5  7  1  0
  6  9  1  0
  7 10  2  0
  9 11  2  0
 10 11  1  0
M  END
>  <DRUGBANK_ID>  (1) 
DB00217

>  <SECONDARY_ACCESSION_NUMBERS>  (1) 
APRD00825

>  <COMMON_NAME>  (1) 
Bethanidine

>  <CAS_NUMBER>  (1) 
55-73-2

>  <UNII>  (1) 
W8S3YM7AUU

>  <SYNONYMS>  (1) 
Betanidina; Betanidine; BÃ©tanidine; Betanidinum; Bethanidine; N,N'-dimethyl-N''-(phenylmethyl)-guanidine

$$$$
