
     RDKit          3D

 30 32  0  0  1  0  0  0  0  0999 V2000
    0.1311    0.7490   -0.6311 C   0  0  2  0  0  0  0  0  0  0  0  0
   -0.5902   -0.4986   -0.3881 N   0  0  0  0  0  0  0  0  0  0  0  0
   -0.0083   -1.7143   -0.1567 C   0  0  0  0  0  0  0  0  0  0  0  0
    1.3454   -1.7619   -0.0200 C   0  0  0  0  0  0  0  0  0  0  0  0
    2.2520   -0.5320   -0.1232 C   0  0  0  0  0  0  0  0  0  0  0  0
    1.4476    0.9603    0.5382 S   0  0  0  0  0  0  0  0  0  0  0  0
   -1.1774    1.4710   -0.4229 C   0  0  1  0  0  0  0  0  0  0  0  0
   -1.7237    0.0891    0.0704 C   0  0  0  0  0  0  0  0  0  0  0  0
   -1.4089    2.7011    0.3172 N   0  0  0  0  0  0  0  0  0  0  0  0
   -2.1576    3.7926   -0.1450 C   0  0  0  0  0  0  0  0  0  0  0  0
   -2.1682    4.7751    0.5935 O   0  0  0  0  0  0  0  0  0  0  0  0
   -2.6776   -0.4152    0.6006 O   0  0  0  0  0  0  0  0  0  0  0  0
   -2.8833    3.8016   -1.5764 C   0  0  0  0  0  0  0  0  0  0  0  0
    2.0946   -3.0346    0.3111 C   0  0  0  0  0  0  0  0  0  0  0  0
   -2.9667    2.6313   -2.4923 C   0  0  0  0  0  0  0  0  0  0  0  0
   -2.5303    2.6471   -3.8105 C   0  0  0  0  0  0  0  0  0  0  0  0
   -2.4684    1.0517   -4.4516 S   0  0  0  0  0  0  0  0  0  0  0  0
   -3.0074    0.4311   -2.9496 C   0  0  0  0  0  0  0  0  0  0  0  0
   -3.3373    1.3437   -2.0618 N   0  0  0  0  0  0  0  0  0  0  0  0
   -3.4226    4.8759   -2.0991 N   0  0  0  0  0  0  0  0  0  0  0  0
   -0.8494   -2.9930   -0.1039 C   0  0  0  0  0  0  0  0  0  0  0  0
   -2.1677   -2.8517   -0.3516 O   0  0  0  0  0  0  0  0  0  0  0  0
   -0.3821   -4.1169   -0.0024 O   0  0  0  0  0  0  0  0  0  0  0  0
   -2.9506   -0.8807   -2.6639 N   0  0  0  0  0  0  0  0  0  0  0  0
    1.6538   -3.6471    1.5476 O   0  0  0  0  0  0  0  0  0  0  0  0
    1.6126   -3.0789    2.7702 C   0  0  0  0  0  0  0  0  0  0  0  0
    2.2795   -1.7581    2.9569 C   0  0  0  0  0  0  0  0  0  0  0  0
    1.0627   -3.6352    3.7162 O   0  0  0  0  0  0  0  0  0  0  0  0
   -3.3825    5.9860   -1.2491 O   0  0  0  0  0  0  0  0  0  0  0  0
   -4.1095    7.0660   -1.8249 C   0  0  0  0  0  0  0  0  0  0  0  0
  1  2  1  0
  1  6  1  1
  1  7  1  0
  2  3  1  0
  2  8  1  0
  3  4  2  0
  3 21  1  0
  4  5  1  0
  4 14  1  0
  5  6  1  0
  7  8  1  0
  7  9  1  1
  8 12  2  0
  9 10  1  0
 10 11  2  0
 10 13  1  0
 13 15  1  0
 13 20  2  0
 14 25  1  0
 15 16  2  0
 15 19  1  0
 16 17  1  0
 17 18  1  0
 18 19  2  0
 18 24  1  0
 20 29  1  0
 21 22  1  0
 21 23  2  0
 25 26  1  0
 26 27  1  0
 26 28  2  0
 29 30  1  0
M  END
>  <DRUGBANK_ID>  (1) 
DB00493

>  <SECONDARY_ACCESSION_NUMBERS>  (1) 
APRD00854

>  <COMMON_NAME>  (1) 
Cefotaxime

>  <CAS_NUMBER>  (1) 
63527-52-6

>  <UNII>  (1) 
N2GI8B1GK7

>  <SYNONYMS>  (1) 
(6R,7R,Z)-3-(acetoxymethyl)-7-(2-(2-aminothiazol-4-yl)-2-(methoxyimino)acetamido)-8-oxo-5-thia-1-aza-bicyclo[4.2.0]oct-2-ene-2-carboxylic acid; (6R,7R)-3-(acetoxymethyl)-7-{[(2Z)-2-(2-amino-1,3-thiazol-4-yl)-2-(methoxyimino)acetyl]amino}-8-oxo-5-thia-1-azabicyclo[4.2.0]oct-2-ene-2-carboxylic acid; (6R,7R)-3-Acetoxymethyl-7-{2-(2-amino-thiazol-4-yl)-2-[(Z)-methoxyimino]-acetylamino}-8-oxo-5-thia-1-aza-bicyclo[4.2.0]oct-2-ene-2-carboxylic acid; Cefotaxim; Cefotaxima; Cefotaxime; CÃ©fotaxime; Cefotaximum; Cephotaxime

$$$$
