
     RDKit          3D

 23 23  0  0  1  0  0  0  0  0999 V2000
   -1.4721    1.2714    1.0351 C   0  0  0  0  0  0  0  0  0  0  0  0
   -0.0613    0.7821    1.3190 C   0  0  0  0  0  0  0  0  0  0  0  0
    0.1479   -0.0388    2.2664 O   0  0  0  0  0  0  0  0  0  0  0  0
    1.0610    1.2583    0.4978 N   0  0  0  0  0  0  0  0  0  0  0  0
    0.8092    2.1803   -0.6191 C   0  0  2  0  0  0  0  0  0  0  0  0
    2.0581    3.0043   -0.8873 C   0  0  0  0  0  0  0  0  0  0  0  0
    3.2494    2.1342   -0.5212 C   0  0  0  0  0  0  0  0  0  0  0  0
    4.0586    1.7027   -1.5662 C   0  0  0  0  0  0  0  0  0  0  0  0
    5.2424    1.0256   -1.2919 C   0  0  0  0  0  0  0  0  0  0  0  0
    5.5852    0.7867    0.0284 C   0  0  0  0  0  0  0  0  0  0  0  0
    7.0570   -0.0745    0.3593 Cl  0  0  0  0  0  0  0  0  0  0  0  0
    4.8130    1.2440    1.0859 C   0  0  0  0  0  0  0  0  0  0  0  0
    3.6251    1.9133    0.7941 C   0  0  0  0  0  0  0  0  0  0  0  0
   -0.4024    3.1552   -0.2431 B   0  0  0  0  0  0  0  0  0  0  0  0
   -0.6594    4.0960   -1.3828 O   0  0  0  0  0  0  0  0  0  0  0  0
   -1.6348    2.3421    0.0215 O   0  0  0  0  0  0  0  0  0  0  0  0
   -0.0491    3.9415    0.9844 O   0  0  0  0  0  0  0  0  0  0  0  0
   -1.1245    4.8067    1.3181 C   0  0  0  0  0  0  0  0  0  0  0  0
   -1.4917    5.7457    0.1807 C   0  0  2  0  0  0  0  0  0  0  0  0
   -0.2667    6.2108   -0.4857 N   0  0  0  0  0  0  0  0  0  0  0  0
   -2.2517    6.9398    0.7347 C   0  0  0  0  0  0  0  0  0  0  0  0
   -3.5740    7.2076    0.2917 O   0  0  0  0  0  0  0  0  0  0  0  0
   -1.7037    7.6986    1.5944 O   0  0  0  0  0  0  0  0  0  0  0  0
  1  2  1  0
  2  3  2  0
  2  4  1  0
  5 14  1  0
  5  6  1  1
  5  4  1  0
  6  7  1  0
  7  8  2  0
  7 13  1  0
  8  9  1  0
  9 10  2  0
 10 11  1  0
 10 12  1  0
 12 13  2  0
 14 15  1  0
 14 16  1  0
 14 17  1  0
 17 18  1  0
 19 21  1  0
 19 20  1  1
 19 18  1  0
 21 22  1  0
 21 23  2  0
M  CHG  1  14  -1
M  END
>  <DRUGBANK_ID>  (1) 
DB02560

>  <SECONDARY_ACCESSION_NUMBERS>  (1) 
EXPT00938

>  <COMMON_NAME>  (1) 
[(1S)-1-acetamido-2-(4-chlorophenyl)ethyl]-[(2S)-2-amino-3-hydroxy-3-oxo-propoxy]-dihydroxy-boron

$$$$
