D1G
     RDKit          3D

 15 16  0  0  0  0  0  0  0  0999 V2000
    0.7036    1.2656    0.0788 C   0  0  0  0  0  0  0  0  0  0  0  0
    1.4314    0.0703    0.0427 C   0  0  0  0  0  0  0  0  0  0  0  0
    0.7683   -1.1553    0.0197 C   0  0  0  0  0  0  0  0  0  0  0  0
   -0.6150   -1.1480    0.0232 C   0  0  0  0  0  0  0  0  0  0  0  0
   -1.3579   -0.0193    0.0446 N   0  0  0  0  0  0  0  0  0  0  0  0
   -0.6810    1.1613    0.0739 C   0  0  0  0  0  0  0  0  0  0  0  0
    1.3978    2.5367   -0.0336 C   0  0  0  0  0  0  0  0  0  0  0  0
    2.2668    3.0056   -0.9931 C   0  0  0  0  0  0  0  0  0  0  0  0
    2.6777    4.2850   -0.5789 C   0  0  0  0  0  0  0  0  0  0  0  0
    2.0365    4.5382    0.6173 C   0  0  0  0  0  0  0  0  0  0  0  0
    1.2434    3.4684    0.9602 O   0  0  0  0  0  0  0  0  0  0  0  0
    2.0772    5.7559    1.4913 C   0  0  0  0  0  0  0  0  0  0  0  0
    0.7927    6.4726    1.6009 N   0  0  0  0  0  0  0  0  0  0  0  0
    0.9700    7.6884    2.4028 C   0  0  0  0  0  0  0  0  0  0  0  0
    0.2631    6.8364    0.2846 C   0  0  0  0  0  0  0  0  0  0  0  0
  1  2  2  0
  1  6  1  0
  1  7  1  0
  2  3  1  0
  3  4  2  0
  4  5  1  0
  5  6  2  0
  7  8  2  0
  7 11  1  0
  8  9  1  0
  9 10  2  0
 10 11  1  0
 10 12  1  0
 12 13  1  0
 13 14  1  0
 13 15  1  0
M  END
>  <DRUGBANK_ID>  (1) 
DB07609

>  <COMMON_NAME>  (1) 
N,N-DIMETHYL(5-(PYRIDIN-3-YL)FURAN-2-YL)METHANAMINE

$$$$
