
     RDKit          3D

 21 22  0  0  0  0  0  0  0  0999 V2000
    0.9274    0.0826   -0.0174 C   0  0  0  0  0  0  0  0  0  0  0  0
    0.4031   -1.3043    0.3469 C   0  0  0  0  0  0  0  0  0  0  0  0
    0.8673   -1.7629    1.7582 C   0  0  1  0  0  0  0  0  0  0  0  0
    0.4208   -0.6951    2.7248 N   0  0  0  0  0  0  0  0  0  0  0  0
    0.9487   -0.8514    4.0730 C   0  0  0  0  0  0  0  0  0  0  0  0
    2.5164   -0.6708    4.1068 C   0  0  0  0  0  0  0  0  0  0  0  0
    0.3628   -0.0355    5.2054 C   0  0  0  0  0  0  0  0  0  0  0  0
    0.4431   -3.3100    2.0109 C   0  0  1  0  0  0  0  0  0  0  0  0
    0.9953   -4.0933    0.9411 O   0  0  0  0  0  0  0  0  0  0  0  0
    0.8607   -3.9930    3.3201 C   0  0  0  0  0  0  0  0  0  0  0  0
    1.8008   -3.4049    4.1233 C   0  0  0  0  0  0  0  0  0  0  0  0
    1.9155   -3.5236    5.5080 C   0  0  0  0  0  0  0  0  0  0  0  0
    1.5393   -4.7127    6.0211 C   0  0  0  0  0  0  0  0  0  0  0  0
    1.9005   -5.0361    7.2936 O   0  0  0  0  0  0  0  0  0  0  0  0
    0.9718   -5.6075    5.1163 C   0  0  0  0  0  0  0  0  0  0  0  0
    0.9395   -6.9530    5.4501 N   0  0  0  0  0  0  0  0  0  0  0  0
    0.7387   -7.9117    4.5141 C   0  0  0  0  0  0  0  0  0  0  0  0
    0.7186   -9.1231    4.8061 O   0  0  0  0  0  0  0  0  0  0  0  0
    0.4880   -7.4986    3.1150 C   0  0  0  0  0  0  0  0  0  0  0  0
    0.1374   -6.2389    2.8432 C   0  0  0  0  0  0  0  0  0  0  0  0
    0.5517   -5.2339    3.8006 C   0  0  0  0  0  0  0  0  0  0  0  0
  1  2  1  0
  3  2  1  6
  3  4  1  0
  3  8  1  0
  5  4  1  0
  6  5  1  0
  7  5  1  0
  8  9  1  6
  8 10  1  0
 10 21  2  0
 11 10  1  0
 12 11  2  0
 12 13  1  0
 13 15  2  0
 14 13  1  0
 15 21  1  0
 16 15  1  0
 17 16  1  0
 17 19  1  0
 18 17  2  0
 19 20  2  0
 20 21  1  0
M  END
>  <DRUGBANK_ID>  (1) 
DB01366

>  <COMMON_NAME>  (1) 
Procaterol

>  <CAS_NUMBER>  (1) 
72332-33-3

>  <UNII>  (1) 
X7I3EMM5K0

>  <SYNONYMS>  (1) 
Procaterol; Procaterolo; Procaterolum

$$$$
