
     RDKit          3D

 31 34  0  0  0  0  0  0  0  0999 V2000
    2.4984    0.0023   -0.0142 C   0  0  0  0  0  0  0  0  0  0  0  0
    0.9996   -0.0038   -0.0052 C   0  0  0  0  0  0  0  0  0  0  0  0
    0.2762    1.1961   -0.0013 C   0  0  0  0  0  0  0  0  0  0  0  0
   -1.1184    1.1789   -0.0030 C   0  0  0  0  0  0  0  0  0  0  0  0
   -1.7994   -0.0412   -0.0087 C   0  0  0  0  0  0  0  0  0  0  0  0
   -1.0803   -1.2467   -0.0139 C   0  0  0  0  0  0  0  0  0  0  0  0
    0.3130   -1.2268   -0.0083 C   0  0  0  0  0  0  0  0  0  0  0  0
   -1.8220   -2.5295    0.0054 C   0  0  0  0  0  0  0  0  0  0  0  0
   -1.2834   -3.6976   -0.1572 N   0  0  0  0  0  0  0  0  0  0  0  0
   -2.0563   -4.8373   -0.0617 N   0  0  0  0  0  0  0  0  0  0  0  0
   -3.4312   -5.0625   -0.3656 C   0  0  0  0  0  0  0  0  0  0  0  0
   -4.1401   -4.2580   -1.2844 C   0  0  0  0  0  0  0  0  0  0  0  0
   -5.5602   -4.2829   -1.4097 C   0  0  0  0  0  0  0  0  0  0  0  0
   -6.1762   -5.2821   -0.6942 N   0  0  0  0  0  0  0  0  0  0  0  0
   -5.4132   -6.0874    0.1623 C   0  0  0  0  0  0  0  0  0  0  0  0
   -4.0703   -6.0101    0.3379 N   0  0  0  0  0  0  0  0  0  0  0  0
   -6.0063   -6.7510    1.2619 O   0  0  0  0  0  0  0  0  0  0  0  0
   -7.4273   -6.6658    1.4418 C   0  0  0  0  0  0  0  0  0  0  0  0
   -8.0108   -5.4458    2.1637 C   0  0  0  0  0  0  0  0  0  0  0  0
   -7.5190   -4.1782    1.6501 C   0  0  0  0  0  0  0  0  0  0  0  0
   -6.1577   -3.8714    1.7774 C   0  0  0  0  0  0  0  0  0  0  0  0
   -5.6443   -2.8233    1.1532 C   0  0  0  0  0  0  0  0  0  0  0  0
   -6.5550   -1.9416    0.6169 C   0  0  0  0  0  0  0  0  0  0  0  0
   -7.9515   -2.2421    0.6855 C   0  0  0  0  0  0  0  0  0  0  0  0
   -8.4484   -3.3654    1.1042 N   0  0  0  0  0  0  0  0  0  0  0  0
   -6.1580   -3.1575   -2.1255 N   0  0  0  0  0  0  0  0  0  0  0  0
   -5.9036   -3.1708   -3.5675 C   0  0  0  0  0  0  0  0  0  0  0  0
   -5.4300   -1.7390   -3.9747 C   0  0  0  0  0  0  0  0  0  0  0  0
   -6.3598   -0.6599   -3.7619 O   0  0  0  0  0  0  0  0  0  0  0  0
   -6.6510   -0.6297   -2.3927 C   0  0  0  0  0  0  0  0  0  0  0  0
   -7.2346   -2.0393   -2.0285 C   0  0  0  0  0  0  0  0  0  0  0  0
  1  2  1  0
  2  3  2  0
  2  7  1  0
  3  4  1  0
  4  5  2  0
  5  6  1  0
  6  7  2  0
  6  8  1  0
  8  9  2  0
  9 10  1  0
 10 11  1  0
 11 12  2  0
 11 16  1  0
 12 13  1  0
 13 14  2  0
 13 26  1  0
 14 15  1  0
 15 16  2  0
 15 17  1  0
 17 18  1  0
 18 19  1  0
 19 20  1  0
 20 21  2  0
 20 25  1  0
 21 22  1  0
 22 23  2  0
 23 24  1  0
 24 25  2  0
 26 27  1  0
 26 31  1  0
 27 28  1  0
 28 29  1  0
 29 30  1  0
 30 31  1  0
M  END
>  <DRUGBANK_ID>  (1) 
DB05611

>  <COMMON_NAME>  (1) 
Apilimod

>  <CAS_NUMBER>  (1) 
541550-19-0

>  <UNII>  (1) 
GFW2K84S4L

>  <SYNONYMS>  (1) 
Apilimod

$$$$
