
     RDKit          3D

 19 13  0  0  0  0  0  0  0  0999 V2000
    1.0653    0.0250   -0.0715 Pt  0  0  0  0  0 15  0  0  0  0  0  0
    1.0353    0.0440    0.0826 Cl  0  0  0  0  0  0  0  0  0  0  0  0
    1.0194    0.0607    0.0770 Cl  0  0  0  0  0  0  0  0  0  0  0  0
    1.0257    0.0129    0.0958 O   0  0  0  0  0  0  0  0  0  0  0  0
    1.0759    0.0113    0.0642 O   0  0  0  0  0  0  0  0  0  0  0  0
    3.0812   -0.2247   -0.9789 O   0  0  0  0  0  0  0  0  0  0  0  0
    3.1313    0.1762   -1.0240 O   0  0  0  0  0  0  0  0  0  0  0  0
   -2.4000    0.0030    0.0920 N   0  0  0  0  0  0  0  0  0  0  0  0
    0.9886   -0.0457   -0.0882 N   0  0  0  0  0  0  0  0  0  0  0  0
   -0.9860   -0.0260   -0.3020 C   0  0  0  0  0  0  0  0  0  0  0  0
   -0.2910    1.2440    0.1630 C   0  0  0  0  0  0  0  0  0  0  0  0
   -0.2430   -1.2840    0.1680 C   0  0  0  0  0  0  0  0  0  0  0  0
    1.1830    1.2690   -0.2170 C   0  0  0  0  0  0  0  0  0  0  0  0
    1.2340   -1.2350   -0.2200 C   0  0  0  0  0  0  0  0  0  0  0  0
    1.9030    0.0290    0.3030 C   0  0  0  0  0  0  0  0  0  0  0  0
    3.2057    0.2970    1.3811 C   0  0  0  0  0  0  0  0  0  0  0  0
    3.2559   -0.1859    1.3657 C   0  0  0  0  0  0  0  0  0  0  0  0
    2.4457    0.0129    0.0958 C   0  0  0  0  0  0  0  0  0  0  0  0
    2.4959    0.0113    0.0642 C   0  0  0  0  0  0  0  0  0  0  0  0
  4 18  1  0
  5 19  1  0
  6 18  2  0
  7 19  2  0
  8 10  1  0
 10 11  1  0
 10 12  1  0
 11 13  1  0
 12 14  1  0
 13 15  1  0
 14 15  1  0
 16 18  1  0
 17 19  1  0
M  CHG  5   1   4   2  -1   3  -1   4  -1   5  -1
M  END
>  <DRUGBANK_ID>  (1) 
DB04996

>  <COMMON_NAME>  (1) 
Satraplatin

>  <CAS_NUMBER>  (1) 
129580-63-8

>  <UNII>  (1) 
8D7B37T28G

>  <SYNONYMS>  (1) 
Satraplatin

$$$$
