
     RDKit          3D

 35 39  0  0  0  0  0  0  0  0999 V2000
   -4.3273   10.6591    0.6722 N   0  0  0  0  0  0  0  0  0  0  0  0
   -3.1422   10.1164    0.2645 C   0  0  0  0  0  0  0  0  0  0  0  0
   -3.7997    8.7187    0.2782 C   0  0  2  0  0  0  0  0  0  0  0  0
   -4.8850    9.4081    1.1491 C   0  0  1  0  0  0  0  0  0  0  0  0
   -5.1964   12.0333    2.4059 C   0  0  0  0  0  0  0  0  0  0  0  0
   -4.6432   11.9002    1.1655 C   0  0  0  0  0  0  0  0  0  0  0  0
   -2.0550    3.9484   -0.1454 C   0  0  0  0  0  0  0  0  0  0  0  0
   -4.1427   14.0793    3.5167 N   0  0  0  0  0  0  0  0  0  0  0  0
   -2.1830    5.1730    0.6767 C   0  0  0  0  0  0  0  0  0  0  0  0
   -1.7444    3.9997   -1.5106 N   0  0  0  0  0  0  0  0  0  0  0  0
   -3.0609    7.5498    0.8202 N   0  0  0  0  0  0  0  0  0  0  0  0
   -2.9417    6.3823    0.0767 C   0  0  0  0  0  0  0  0  0  0  0  0
   -4.7306    9.3352    2.9620 S   0  0  0  0  0  0  0  0  0  0  0  0
   -1.6681    2.7981   -2.0294 C   0  0  0  0  0  0  0  0  0  0  0  0
   -5.4159   13.3846    3.0888 C   0  0  0  0  0  0  0  0  0  0  0  0
   -4.3459   13.1737    0.2087 C   0  0  0  0  0  0  0  0  0  0  0  0
   -2.2264    2.6571    0.3251 C   0  0  0  0  0  0  0  0  0  0  0  0
   -1.9744    1.5158   -0.9317 S   0  0  0  0  0  0  0  0  0  0  0  0
   -3.9758   14.6694    4.7239 C   0  0  0  0  0  0  0  0  0  0  0  0
   -5.7071   10.8508    3.2070 C   0  0  0  0  0  0  0  0  0  0  0  0
   -1.6662    5.1303    1.8842 N   0  0  0  0  0  0  0  0  0  0  0  0
   -2.0140   10.5358    0.0794 O   0  0  0  0  0  0  0  0  0  0  0  0
   -3.4932    6.2653   -1.0127 O   0  0  0  0  0  0  0  0  0  0  0  0
   -3.3483   13.0714   -0.5448 O   0  0  0  0  0  0  0  0  0  0  0  0
   -4.9989   14.2104    0.5355 O   0  0  0  0  0  0  0  0  0  0  0  0
   -2.8284   15.4479    4.9337 C   0  0  0  0  0  0  0  0  0  0  0  0
   -1.3643    2.5565   -3.3110 N   0  0  0  0  0  0  0  0  0  0  0  0
   -3.1308   14.2488    2.6211 C   0  0  0  0  0  0  0  0  0  0  0  0
   -1.8070    6.3414    2.5747 O   0  0  0  0  0  0  0  0  0  0  0  0
   -4.7924   14.5887    5.9922 C   0  0  0  0  0  0  0  0  0  0  0  0
   -2.0846   15.1298    2.7473 C   0  0  0  0  0  0  0  0  0  0  0  0
   -3.9364   15.3956    7.0112 C   0  0  0  0  0  0  0  0  0  0  0  0
   -1.9003   15.7277    3.9524 C   0  0  0  0  0  0  0  0  0  0  0  0
   -2.6753   15.9089    6.3259 C   0  0  0  0  0  0  0  0  0  0  0  0
   -1.1668    6.2982    3.8418 C   0  0  0  0  0  0  0  0  0  0  0  0
  2  1  1  0
  2  3  1  0
  3  4  1  0
  3 11  1  1
  4  1  1  0
  4 13  1  1
  5  6  2  0
  6  1  1  0
  7  9  1  0
  8 15  1  0
  9 12  1  0
 10  7  1  0
 12 11  1  0
 14 10  2  0
 15  5  1  0
 16  6  1  0
 17  7  2  0
 18 17  1  0
 18 14  1  0
 19  8  1  0
 20 13  1  0
 20  5  1  0
 21  9  2  0
 22  2  2  0
 23 12  2  0
 24 16  1  0
 25 16  2  0
 26 19  2  0
 26 33  1  0
 27 14  1  0
 28  8  2  0
 29 21  1  0
 30 19  1  0
 31 28  1  0
 32 30  1  0
 33 31  2  0
 34 26  1  0
 34 32  1  0
 35 29  1  0
M  CHG  2   8   1  24  -1
M  END
>  <DRUGBANK_ID>  (1) 
DB13682

>  <COMMON_NAME>  (1) 
Cefpirome

>  <CAS_NUMBER>  (1) 
84957-29-9

>  <UNII>  (1) 
S72Q2F09HY

>  <SYNONYMS>  (1) 
cefpiroma; Cefpirome; cefpiromum

$$$$
