
     RDKit          3D

 34 37  0  0  0  0  0  0  0  0999 V2000
   -3.0336   -0.2885   -0.0120 Cl  0  0  0  0  0  0  0  0  0  0  0  0
   -1.3608    0.1003    0.0254 C   0  0  0  0  0  0  0  0  0  0  0  0
   -0.4471   -0.9328    0.0454 C   0  0  0  0  0  0  0  0  0  0  0  0
    0.9036   -0.5894    0.0306 C   0  0  0  0  0  0  0  0  0  0  0  0
    1.3421    0.7228    0.0012 C   0  0  0  0  0  0  0  0  0  0  0  0
    2.7236    0.6846   -0.0462 N   0  0  0  0  0  0  0  0  0  0  0  0
    3.1637   -0.6341   -0.0318 C   0  0  0  0  0  0  0  0  0  0  0  0
    2.0302   -1.3953    0.0471 C   0  0  0  0  0  0  0  0  0  0  0  0
    4.5563   -1.0041   -0.0659 C   0  0  0  0  0  0  0  0  0  0  0  0
    5.4455   -0.1713   -0.1512 O   0  0  0  0  0  0  0  0  0  0  0  0
    4.9267   -2.3327    0.0610 N   0  0  0  0  0  0  0  0  0  0  0  0
    4.2416   -3.6726    0.1284 C   0  0  0  0  0  0  0  0  0  0  0  0
    4.4125   -4.7955   -0.9347 C   0  0  0  0  0  0  0  0  0  0  0  0
    5.6977   -5.0238   -1.4374 O   0  0  0  0  0  0  0  0  0  0  0  0
    6.6148   -3.9634   -1.5467 C   0  0  0  0  0  0  0  0  0  0  0  0
    6.3324   -2.9173   -2.6339 C   0  0  0  0  0  0  0  0  0  0  0  0
    5.0735   -2.2877   -2.6205 O   0  0  0  0  0  0  0  0  0  0  0  0
    3.8928   -2.9893   -2.9088 C   0  0  0  0  0  0  0  0  0  0  0  0
    3.9476   -4.1649   -3.9421 C   0  0  0  0  0  0  0  0  0  0  0  0
    5.1314   -5.0849   -4.0460 N   0  0  0  0  0  0  0  0  0  0  0  0
    5.3506   -6.4456   -3.8682 C   0  0  0  0  0  0  0  0  0  0  0  0
    6.4709   -6.8766   -3.8512 O   0  0  0  0  0  0  0  0  0  0  0  0
    4.1778   -7.2722   -3.7767 C   0  0  0  0  0  0  0  0  0  0  0  0
    3.0219   -7.1723   -4.5040 C   0  0  0  0  0  0  0  0  0  0  0  0
    2.1273   -8.1503   -4.0414 C   0  0  0  0  0  0  0  0  0  0  0  0
    2.8071   -8.9163   -3.0945 C   0  0  0  0  0  0  0  0  0  0  0  0
    4.0738   -8.3831   -2.9734 N   0  0  0  0  0  0  0  0  0  0  0  0
    2.2137  -10.0054   -2.4518 C   0  0  0  0  0  0  0  0  0  0  0  0
    0.8806  -10.2860   -2.7748 C   0  0  0  0  0  0  0  0  0  0  0  0
    0.1825   -9.5095   -3.6986 C   0  0  0  0  0  0  0  0  0  0  0  0
   -1.4678   -9.8594   -4.0372 Cl  0  0  0  0  0  0  0  0  0  0  0  0
    0.7936   -8.4437   -4.3529 C   0  0  0  0  0  0  0  0  0  0  0  0
    0.4322    1.7759    0.0175 C   0  0  0  0  0  0  0  0  0  0  0  0
   -0.9320    1.4289    0.0251 C   0  0  0  0  0  0  0  0  0  0  0  0
  1  2  1  0
  2  3  2  0
  2 34  1  0
  3  4  1  0
  4  5  2  0
  4  8  1  0
  5  6  1  0
  5 33  1  0
  6  7  1  0
  7  8  2  0
  7  9  1  0
  9 10  2  0
  9 11  1  0
 11 12  1  0
 12 13  1  0
 13 14  1  0
 14 15  1  0
 15 16  1  0
 16 17  1  0
 17 18  1  0
 18 19  1  0
 19 20  1  0
 20 21  1  0
 21 22  2  0
 21 23  1  0
 23 24  2  0
 23 27  1  0
 24 25  1  0
 25 26  2  0
 25 32  1  0
 26 27  1  0
 26 28  1  0
 28 29  2  0
 29 30  1  0
 30 31  1  0
 30 32  2  0
 33 34  2  0
M  END
>  <DRUGBANK_ID>  (1) 
DB02089

>  <SECONDARY_ACCESSION_NUMBERS>  (1) 
EXPT00994

>  <COMMON_NAME>  (1) 
CP-526423

>  <SYNONYMS>  (1) 
1,2-bis(2-(5-chloroindole-2-carbonylamino)ethoxy)ethane; bis[5-chloro-1h-indol-2-yl-carbonyl-aminoethyl]-ethylene glycol; N,N'-[1,2-Ethanediylbis(oxy-2,1-ethanediyl)]bis(5-chloro-1H-indole-2-carboxamide)

$$$$
