191
     RDKit          3D

 11 11  0  0  0  0  0  0  0  0999 V2000
    0.9393   -0.0246    0.0028 N   0  0  0  0  0  0  0  0  0  0  0  0
    0.4371    0.7520   -1.1455 C   0  0  0  0  0  0  0  0  0  0  0  0
    0.8986    0.1213   -2.5051 C   0  0  0  0  0  0  0  0  0  0  0  0
   -1.0924    0.8510   -1.0165 C   0  0  0  0  0  0  0  0  0  0  0  0
    0.9959    2.1773   -1.0290 C   0  0  0  0  0  0  0  0  0  0  0  0
    0.4549   -1.3157   -2.7083 C   0  0  0  0  0  0  0  0  0  0  0  0
    1.3850   -2.3564   -2.7182 C   0  0  0  0  0  0  0  0  0  0  0  0
   -0.9095   -1.6350   -2.7788 C   0  0  0  0  0  0  0  0  0  0  0  0
    0.9548   -3.6864   -2.6991 C   0  0  0  0  0  0  0  0  0  0  0  0
   -1.3377   -2.9520   -2.6363 C   0  0  0  0  0  0  0  0  0  0  0  0
   -0.4082   -3.9779   -2.6161 C   0  0  0  0  0  0  0  0  0  0  0  0
  1  2  1  0
  2  3  1  0
  2  4  1  0
  2  5  1  0
  3  6  1  0
  6  7  2  0
  6  8  1  0
  7  9  1  0
  8 10  2  0
  9 11  2  0
 10 11  1  0
M  END
>  <DRUGBANK_ID>  (1) 
DB00191

>  <SECONDARY_ACCESSION_NUMBERS>  (1) 
APRD00093

>  <COMMON_NAME>  (1) 
Phentermine

>  <CAS_NUMBER>  (1) 
122-09-8

>  <UNII>  (1) 
C045TQL4WP

>  <SYNONYMS>  (1) 
alpha,alpha-Dimethylphenethylamine; Fentermina; Phentermine; Phentermine resin; Phenterminum

$$$$
