
     RDKit          3D

 23 24  0  0  0  0  0  0  0  0999 V2000
   -4.0940    2.4167   -2.4844 N   0  0  0  0  0  0  0  0  0  0  0  0
   -3.5151    1.2416   -2.9985 O   0  0  0  0  0  0  0  0  0  0  0  0
   -4.4593    2.3890   -1.1874 C   0  0  0  0  0  0  0  0  0  0  0  0
   -5.2511    3.2224   -0.7046 O   0  0  0  0  0  0  0  0  0  0  0  0
   -4.0021    1.2267   -0.4094 C   0  0  0  0  0  0  0  0  0  0  0  0
   -2.7345    0.6405   -0.2294 C   0  0  0  0  0  0  0  0  0  0  0  0
   -2.5107   -0.4939    0.6456 C   0  0  0  0  0  0  0  0  0  0  0  0
   -3.5625   -1.0346    1.3449 C   0  0  0  0  0  0  0  0  0  0  0  0
   -3.5398   -2.0155    2.3909 N   0  0  0  0  0  0  0  0  0  0  0  0
   -4.5461   -2.3303    3.3338 C   0  0  0  0  0  0  0  0  0  0  0  0
   -4.4198   -3.3393    4.0406 O   0  0  0  0  0  0  0  0  0  0  0  0
   -5.7049   -1.2971    3.6488 C   0  0  2  0  0  0  0  0  0  0  0  0
   -6.8913   -1.3519    2.5245 C   0  0  0  0  0  0  0  0  0  0  0  0
   -7.1617   -2.5359    1.8173 C   0  0  0  0  0  0  0  0  0  0  0  0
   -7.8223   -2.5049    0.5595 C   0  0  0  0  0  0  0  0  0  0  0  0
   -8.1638   -1.3080   -0.0679 C   0  0  0  0  0  0  0  0  0  0  0  0
   -8.0212   -0.1434    0.6441 C   0  0  0  0  0  0  0  0  0  0  0  0
   -7.4690   -0.1827    1.9417 C   0  0  0  0  0  0  0  0  0  0  0  0
   -4.8123    0.0356    4.0325 C   0  0  0  0  0  0  0  0  0  0  0  0
   -5.5310    1.3674    4.1169 C   0  0  0  0  0  0  0  0  0  0  0  0
   -3.9263   -0.1530    5.2693 C   0  0  0  0  0  0  0  0  0  0  0  0
   -4.7128   -0.3463    1.0890 C   0  0  0  0  0  0  0  0  0  0  0  0
   -5.0256    0.6724    0.2364 C   0  0  0  0  0  0  0  0  0  0  0  0
  2  1  1  0
  3  1  1  0
  3  4  2  0
  5  3  1  0
  5  6  2  0
  5 23  1  0
  7  6  1  0
  8  7  2  0
  9  8  1  0
 10  9  1  0
 10 11  2  0
 12 19  1  6
 12 13  1  0
 12 10  1  0
 13 14  2  0
 13 18  1  0
 15 14  1  0
 16 15  2  0
 17 16  1  0
 18 17  2  0
 19 21  1  0
 20 19  1  0
 22  8  1  0
 23 22  2  0
M  END
>  <DRUGBANK_ID>  (1) 
DB12707

>  <COMMON_NAME>  (1) 
AR-42

>  <CAS_NUMBER>  (1) 
935881-37-1

>  <UNII>  (1) 
E0GG29V0AQ

>  <SYNONYMS>  (1) 
(S)-(+)-N-HYDROXY-4-(3-METHYL-2-PHENYL-BUTYRYLAMINO)-BENZAMIDE; (αS)-N-[4-[(Hydroxyamino)carbonyl]phenyl]-α-(1-methylethyl)benzeneacetamide; BENZENEACETAMIDE, N-(4-((HYDROXYAMINO)CARBONYL)PHENYL)-.ALPHA.-(1-METHYLETHYL)-, (.ALPHA.S)-; N-Hydroxy-4-(3-methyl-2-(S)phenyl-butyrylamino)benzamide; N-hydroxy-4-[[(2S)-3-methyl-2-phenylbutanoyl]amino]benzamide

$$$$
