FRQ
     RDKit          3D

 29 32  0  0  0  0  0  0  0  0999 V2000
   -2.3842    0.3318    0.0365 C   0  0  0  0  0  0  0  0  0  0  0  0
   -1.2190    0.8913    0.5494 C   0  0  0  0  0  0  0  0  0  0  0  0
    0.0346    0.3950    0.2785 C   0  0  0  0  0  0  0  0  0  0  0  0
    0.0493   -0.9622    0.1002 C   0  0  0  0  0  0  0  0  0  0  0  0
   -1.1625   -1.6792    0.0804 C   0  0  0  0  0  0  0  0  0  0  0  0
   -2.3848   -1.0250   -0.0638 C   0  0  0  0  0  0  0  0  0  0  0  0
    1.2156    1.2102    0.1865 N   0  0  0  0  0  0  0  0  0  0  0  0
    2.4481    0.6113   -0.0148 C   0  0  0  0  0  0  0  0  0  0  0  0
    2.4459   -0.7516   -0.0560 N   0  0  0  0  0  0  0  0  0  0  0  0
    1.3582   -1.6084   -0.0170 C   0  0  0  0  0  0  0  0  0  0  0  0
    1.4765   -2.7998   -0.0910 O   0  0  0  0  0  0  0  0  0  0  0  0
    3.5045    1.2274   -0.1580 O   0  0  0  0  0  0  0  0  0  0  0  0
    1.1720    2.6722    0.0294 C   0  0  0  0  0  0  0  0  0  0  0  0
    0.5089    3.0951   -1.2893 C   0  0  0  0  0  0  0  0  0  0  0  0
   -1.0427    2.9941   -1.2310 C   0  0  0  0  0  0  0  0  0  0  0  0
   -1.7418    3.6469    0.0555 C   0  0  0  0  0  0  0  0  0  0  0  0
   -1.6604    5.0761    0.1643 N   0  0  0  0  0  0  0  0  0  0  0  0
   -2.9270    5.7624    0.2846 C   0  0  0  0  0  0  0  0  0  0  0  0
   -2.6435    7.2706    0.3199 C   0  0  0  0  0  0  0  0  0  0  0  0
   -1.7014    7.6918   -0.7709 C   0  0  0  0  0  0  0  0  0  0  0  0
   -0.8008    6.8897   -1.3065 C   0  0  0  0  0  0  0  0  0  0  0  0
   -0.7556    5.5453   -0.8366 C   0  0  0  0  0  0  0  0  0  0  0  0
   -1.6606    9.0100   -1.3025 C   0  0  0  0  0  0  0  0  0  0  0  0
   -1.2087   10.0273   -0.4781 C   0  0  0  0  0  0  0  0  0  0  0  0
   -1.1531   11.3017   -0.9968 C   0  0  0  0  0  0  0  0  0  0  0  0
   -1.6868   11.5490   -2.2650 C   0  0  0  0  0  0  0  0  0  0  0  0
   -2.1587   10.5102   -3.0677 C   0  0  0  0  0  0  0  0  0  0  0  0
   -2.0065    9.2143   -2.6371 C   0  0  0  0  0  0  0  0  0  0  0  0
   -1.1912   -3.0054    0.2265 F   0  0  0  0  0  0  0  0  0  0  0  0
  1  2  2  0
  1  6  1  0
  2  3  1  0
  3  4  2  0
  3  7  1  0
  4  5  1  0
  4 10  1  0
  5  6  2  0
  5 29  1  0
  7  8  1  0
  7 13  1  0
  8  9  1  0
  8 12  2  0
  9 10  1  0
 10 11  2  0
 13 14  1  0
 14 15  1  0
 15 16  1  0
 16 17  1  0
 17 18  1  0
 17 22  1  0
 18 19  1  0
 19 20  1  0
 20 21  2  0
 20 23  1  0
 21 22  1  0
 23 24  2  0
 23 28  1  0
 24 25  1  0
 25 26  2  0
 26 27  1  0
 27 28  2  0
M  END
>  <DRUGBANK_ID>  (1) 
DB07787

>  <COMMON_NAME>  (1) 
5-FLUORO-1-[4-(4-PHENYL-3,6-DIHYDROPYRIDIN-1(2H)-YL)BUTYL]QUINAZOLINE-2,4(1H,3H)-DIONE

$$$$
