
     RDKit          3D

 35 38  0  0  1  0  0  0  0  0999 V2000
    1.1446    0.0050    0.0473 C   0  0  0  0  0  0  0  0  0  0  0  0
    0.7434   -1.3608    0.0992 O   0  0  0  0  0  0  0  0  0  0  0  0
    0.9297   -2.0453   -1.0729 C   0  0  0  0  0  0  0  0  0  0  0  0
    2.2235   -2.1919   -1.5769 C   0  0  0  0  0  0  0  0  0  0  0  0
    2.4644   -3.0062   -2.6871 C   0  0  0  0  0  0  0  0  0  0  0  0
    1.4225   -3.7162   -3.3069 C   0  0  0  0  0  0  0  0  0  0  0  0
    0.1356   -3.6027   -2.7493 C   0  0  0  0  0  0  0  0  0  0  0  0
   -0.1335   -2.7370   -1.6710 C   0  0  0  0  0  0  0  0  0  0  0  0
   -1.4634   -2.6586   -1.3326 O   0  0  0  0  0  0  0  0  0  0  0  0
   -1.8377   -1.6455   -0.4029 C   0  0  0  0  0  0  0  0  0  0  0  0
    1.6777   -4.5713   -4.4779 C   0  0  0  0  0  0  0  0  0  0  0  0
    2.6629   -5.5546   -4.4498 C   0  0  0  0  0  0  0  0  0  0  0  0
    2.9128   -6.3830   -5.4802 N   0  0  0  0  0  0  0  0  0  0  0  0
    2.1245   -6.1815   -6.5572 C   0  0  0  0  0  0  0  0  0  0  0  0
    1.1358   -5.1984   -6.6468 C   0  0  0  0  0  0  0  0  0  0  0  0
    0.3321   -5.0315   -7.7472 N   0  0  0  0  0  0  0  0  0  0  0  0
    0.4576   -5.7662   -8.9883 C   0  0  1  0  0  0  0  0  0  0  0  0
   -0.8514   -6.4804   -9.2995 C   0  0  0  0  0  0  0  0  0  0  0  0
    0.8826   -4.8620  -10.1233 C   0  0  0  0  0  0  0  0  0  0  0  0
    0.4450   -3.5457  -10.2499 C   0  0  0  0  0  0  0  0  0  0  0  0
    0.8235   -2.7743  -11.3471 C   0  0  0  0  0  0  0  0  0  0  0  0
    1.6282   -3.3150  -12.3519 C   0  0  0  0  0  0  0  0  0  0  0  0
    2.1057   -4.6182  -12.2307 C   0  0  0  0  0  0  0  0  0  0  0  0
    2.9741   -5.1220  -13.2295 N   0  0  0  0  0  0  0  0  0  0  0  0
    3.5453   -6.3807  -13.2594 C   0  0  0  0  0  0  0  0  0  0  0  0
    4.7538   -6.5129  -13.4655 O   0  0  0  0  0  0  0  0  0  0  0  0
    2.6734   -7.5813  -13.1289 C   0  0  0  0  0  0  0  0  0  0  0  0
    3.2314   -8.8396  -12.9741 C   0  0  0  0  0  0  0  0  0  0  0  0
    2.4954   -9.9642  -12.7707 N   0  0  0  0  0  0  0  0  0  0  0  0
    1.1510   -9.8178  -12.6808 C   0  0  0  0  0  0  0  0  0  0  0  0
    0.4958   -8.6039  -12.8063 C   0  0  0  0  0  0  0  0  0  0  0  0
   -0.9765   -8.4576  -12.5954 C   0  0  0  0  0  0  0  0  0  0  0  0
    1.2763   -7.4960  -13.1170 C   0  0  0  0  0  0  0  0  0  0  0  0
    1.7381   -5.3687  -11.1071 C   0  0  0  0  0  0  0  0  0  0  0  0
    0.9073   -4.3799   -5.5906 N   0  0  0  0  0  0  0  0  0  0  0  0
  1  2  1  0
  2  3  1  0
  3  4  2  0
  3  8  1  0
  4  5  1  0
  5  6  2  0
  6  7  1  0
  6 11  1  0
  7  8  2  0
  8  9  1  0
  9 10  1  0
 11 12  2  0
 11 35  1  0
 12 13  1  0
 13 14  2  0
 14 15  1  0
 15 16  1  0
 15 35  2  0
 17 16  1  0
 17 18  1  6
 17 19  1  0
 19 20  2  0
 19 34  1  0
 20 21  1  0
 21 22  2  0
 22 23  1  0
 23 24  1  0
 23 34  2  0
 24 25  1  0
 25 26  2  0
 25 27  1  0
 27 28  2  0
 27 33  1  0
 28 29  1  0
 29 30  2  0
 30 31  1  0
 31 32  1  0
 31 33  2  0
M  END
>  <DRUGBANK_ID>  (1) 
DB18072

>  <COMMON_NAME>  (1) 
Seralutinib

>  <CAS_NUMBER>  (1) 
1619931-27-9

>  <UNII>  (1) 
3P63ZTE3OY

>  <SYNONYMS>  (1) 
3-pyridinecarboxamide, n-(3-((1s)-1-((6-(3,4-dimethoxyphenyl)-2-pyrazinyl)amino)ethyl)phenyl)-5-methyl-; N-(3-((1s)-1-((6-(3,4-dimethoxyphenyl)-2-pyrazinyl)amino)ethyl)phenyl)-5-methyl-3-pyridinecarboxamide

$$$$
