
     RDKit          3D

 12 12  0  0  0  0  0  0  0  0999 V2000
    1.0090   -0.1310    0.1344 O   0  0  0  0  0  0  0  0  0  0  0  0
    0.3914    0.7765    0.9584 C   0  0  0  0  0  0  0  0  0  0  0  0
    0.8204    2.1106    1.0058 C   0  0  0  0  0  0  0  0  0  0  0  0
    2.2140    2.6335   -0.1949 Br  0  0  0  0  0  0  0  0  0  0  0  0
    0.2201    3.0078    1.9055 C   0  0  0  0  0  0  0  0  0  0  0  0
    0.8271    4.8267    1.9834 Br  0  0  0  0  0  0  0  0  0  0  0  0
   -0.8186    2.5560    2.7544 C   0  0  0  0  0  0  0  0  0  0  0  0
   -1.6131    3.7617    4.0238 Br  0  0  0  0  0  0  0  0  0  0  0  0
   -1.2666    1.2158    2.6777 C   0  0  0  0  0  0  0  0  0  0  0  0
   -2.6730    0.5875    3.8230 Br  0  0  0  0  0  0  0  0  0  0  0  0
   -0.6639    0.3305    1.7677 C   0  0  0  0  0  0  0  0  0  0  0  0
   -1.2121   -1.4957    1.6011 Br  0  0  0  0  0  0  0  0  0  0  0  0
  1  2  1  0
  2  3  2  0
  2 11  1  0
  3  4  1  0
  3  5  1  0
  5  6  1  0
  5  7  2  0
  7  8  1  0
  7  9  1  0
  9 10  1  0
  9 11  2  0
 11 12  1  0
M  END
>  <DRUGBANK_ID>  (1) 
DB03167

>  <SECONDARY_ACCESSION_NUMBERS>  (1) 
EXPT02511

>  <COMMON_NAME>  (1) 
Pentabromophenol

>  <CAS_NUMBER>  (1) 
608-71-9

>  <UNII>  (1) 
V89A88NMMX

$$$$
