
     RDKit          3D

 13 14  0  0  0  0  0  0  0  0999 V2000
    0.1426    2.8593    0.0030 C   0  0  0  0  0  0  0  0  0  0  0  0
    0.1966    1.4111   -0.0089 N   0  0  0  0  0  0  0  0  0  0  0  0
   -0.9571    0.6665   -0.0035 C   0  0  0  0  0  0  0  0  0  0  0  0
   -0.9276   -0.6939   -0.0086 C   0  0  0  0  0  0  0  0  0  0  0  0
    0.2749   -1.4488   -0.0091 C   0  0  0  0  0  0  0  0  0  0  0  0
    0.2877   -2.6774   -0.0179 O   0  0  0  0  0  0  0  0  0  0  0  0
    1.4205   -0.6441    0.0095 N   0  0  0  0  0  0  0  0  0  0  0  0
    1.4306    0.7628   -0.0055 C   0  0  0  0  0  0  0  0  0  0  0  0
    2.4891    1.3976   -0.0107 O   0  0  0  0  0  0  0  0  0  0  0  0
    2.7019   -1.3203    0.0627 C   0  0  0  0  0  0  0  0  0  0  0  0
   -2.2373   -1.0823   -0.0026 N   0  0  0  0  0  0  0  0  0  0  0  0
   -2.9883    0.0663    0.0179 C   0  0  0  0  0  0  0  0  0  0  0  0
   -2.2314    1.1454    0.0127 N   0  0  0  0  0  0  0  0  0  0  0  0
  1  2  1  0
  2  3  1  0
  2  8  1  0
  3  4  2  0
  3 13  1  0
  4  5  1  0
  4 11  1  0
  5  6  2  0
  5  7  1  0
  7  8  1  0
  7 10  1  0
  8  9  2  0
 11 12  1  0
 12 13  2  0
M  END
>  <DRUGBANK_ID>  (1) 
DB00277

>  <SECONDARY_ACCESSION_NUMBERS>  (1) 
APRD00082; DB09359

>  <COMMON_NAME>  (1) 
Theophylline

>  <CAS_NUMBER>  (1) 
58-55-9

>  <UNII>  (1) 
0I55128JYK

>  <SYNONYMS>  (1) 
1,3-dimethyl-7H-purine-2,6-dione; 1,3-dimethylxanthine; Teofilina; Theophyllin; Theophylline anhydrous; Theophylline, anhydrous

$$$$
