
     RDKit          3D

 22 24  0  0  0  0  0  0  0  0999 V2000
    2.1426   -0.3493   -0.9542 C   0  0  0  0  0  0  0  0  0  0  0  0
    0.9107   -0.3756   -1.5145 N   0  0  0  0  0  0  0  0  0  0  0  0
    0.8776   -0.5151    0.8240 C   0  0  1  0  0  0  0  0  0  0  0  0
    2.2314   -0.3109    0.3294 N   0  0  0  0  0  0  0  0  0  0  0  0
   -0.1778    2.1243    0.1158 C   0  0  0  0  0  0  0  0  0  0  0  0
    0.8555    1.8876    1.1573 N   0  0  0  0  0  0  0  0  0  0  0  0
    1.0428    0.3303    2.0372 C   0  0  1  0  0  0  0  0  0  0  0  0
   -0.7525    0.9343   -0.3885 N   0  0  0  0  0  0  0  0  0  0  0  0
   -0.0266   -0.3145   -0.4240 C   0  0  1  0  0  0  0  0  0  0  0  0
   -1.1810   -1.3414   -0.3400 C   0  0  0  0  0  0  0  0  0  0  0  0
   -2.5131   -0.6025   -0.1904 C   0  0  0  0  0  0  0  0  0  0  0  0
   -2.2165    0.8531   -0.4650 C   0  0  0  0  0  0  0  0  0  0  0  0
   -1.1059   -2.0076    0.8861 O   0  0  0  0  0  0  0  0  0  0  0  0
   -1.1498   -2.4363   -1.1843 O   0  0  0  0  0  0  0  0  0  0  0  0
    3.2288   -0.2448   -1.7136 N   0  0  0  0  0  0  0  0  0  0  0  0
   -0.6012    3.0615   -0.5697 N   0  0  0  0  0  0  0  0  0  0  0  0
    2.0851    2.3021    0.3903 O   0  0  0  0  0  0  0  0  0  0  0  0
   -0.0516   -0.6697    3.1128 C   0  0  0  0  0  0  0  0  0  0  0  0
    0.2980   -2.2421    3.4065 O   0  0  0  0  0  0  0  0  0  0  0  0
    0.1810   -3.5538    2.9197 C   0  0  0  0  0  0  0  0  0  0  0  0
    0.4317   -3.7495    1.5906 N   0  0  0  0  0  0  0  0  0  0  0  0
   -0.0187   -4.5334    3.6087 O   0  0  0  0  0  0  0  0  0  0  0  0
  1 15  1  0
  1  2  1  0
  3  4  1  1
  4  1  2  0
  5  6  1  0
  5 16  2  0
  6  7  1  0
  6 17  1  0
  7  3  1  0
  7 18  1  1
  8  5  1  0
  8  9  1  0
  9 10  1  0
  9  3  1  0
  9  2  1  6
 10 11  1  0
 10 13  1  0
 10 14  1  0
 11 12  1  0
 12  8  1  0
 18 19  1  0
 19 20  1  0
 20 21  1  0
 20 22  2  0
M  END
>  <DRUGBANK_ID>  (1) 
DB12989

>  <COMMON_NAME>  (1) 
Neosaxitoxin

>  <CAS_NUMBER>  (1) 
64296-20-4

>  <UNII>  (1) 
6YRL8BWD9H

$$$$
