
     RDKit          3D

 23 24  0  0  0  0  0  0  0  0999 V2000
    0.9190   -0.0358   -0.0391 C   0  0  0  0  0  0  0  0  0  0  0  0
    0.5000   -1.4052    0.4570 C   0  0  0  0  0  0  0  0  0  0  0  0
   -0.1780   -1.5253    1.4786 O   0  0  0  0  0  0  0  0  0  0  0  0
    0.8010   -2.5158   -0.2994 N   0  0  0  0  0  0  0  0  0  0  0  0
    1.6776   -2.5933   -1.3914 C   0  0  0  0  0  0  0  0  0  0  0  0
    2.8615   -1.8734   -1.3739 C   0  0  0  0  0  0  0  0  0  0  0  0
    3.7181   -1.8823   -2.4581 C   0  0  0  0  0  0  0  0  0  0  0  0
    3.4237   -2.6295   -3.5898 C   0  0  0  0  0  0  0  0  0  0  0  0
    2.3140   -3.4819   -3.5669 C   0  0  0  0  0  0  0  0  0  0  0  0
    1.4228   -3.4436   -2.4726 C   0  0  0  0  0  0  0  0  0  0  0  0
    4.2346   -2.5784   -4.7529 O   0  0  0  0  0  0  0  0  0  0  0  0
    5.1844   -1.5621   -4.8880 C   0  0  0  0  0  0  0  0  0  0  0  0
    5.3497   -0.5534   -4.2125 O   0  0  0  0  0  0  0  0  0  0  0  0
    6.1093   -1.8092   -5.9959 C   0  0  0  0  0  0  0  0  0  0  0  0
    5.5593   -1.7497   -7.2811 C   0  0  0  0  0  0  0  0  0  0  0  0
    6.3905   -1.5872   -8.3857 C   0  0  0  0  0  0  0  0  0  0  0  0
    7.7698   -1.4637   -8.2048 C   0  0  0  0  0  0  0  0  0  0  0  0
    8.3298   -1.5330   -6.9165 C   0  0  0  0  0  0  0  0  0  0  0  0
    7.5032   -1.7580   -5.8013 C   0  0  0  0  0  0  0  0  0  0  0  0
    8.1478   -1.8786   -4.5223 O   0  0  0  0  0  0  0  0  0  0  0  0
    7.5638   -2.6090   -3.4807 C   0  0  0  0  0  0  0  0  0  0  0  0
    6.5188   -3.2554   -3.5556 O   0  0  0  0  0  0  0  0  0  0  0  0
    8.3686   -2.6776   -2.2272 C   0  0  0  0  0  0  0  0  0  0  0  0
  1  2  1  0
  2  3  2  0
  2  4  1  0
  4  5  1  0
  5  6  2  0
  5 10  1  0
  6  7  1  0
  7  8  2  0
  8  9  1  0
  8 11  1  0
  9 10  2  0
 11 12  1  0
 12 13  2  0
 12 14  1  0
 14 15  2  0
 14 19  1  0
 15 16  1  0
 16 17  2  0
 17 18  1  0
 18 19  2  0
 19 20  1  0
 20 21  1  0
 21 22  2  0
 21 23  1  0
M  END
>  <DRUGBANK_ID>  (1) 
DB13657

>  <COMMON_NAME>  (1) 
Benorilate

>  <CAS_NUMBER>  (1) 
5003-48-5

>  <UNII>  (1) 
W1QX9DV96G

>  <SYNONYMS>  (1) 
4-acetamidophenyl salicylate acetate; Benorilate; BÃ©norilate; Benorilato; Fenasprate

$$$$
