
     RDKit          3D

 24 27  0  0  1  0  0  0  0  0999 V2000
   -4.0027   -1.1355    0.5115 C   0  0  0  0  0  0  0  0  0  0  0  0
   -4.5598    0.0202   -0.0038 C   0  0  0  0  0  0  0  0  0  0  0  0
   -3.7209    1.1022   -0.2677 C   0  0  0  0  0  0  0  0  0  0  0  0
   -2.6401   -1.3566    0.4692 C   0  0  0  0  0  0  0  0  0  0  0  0
   -1.7794   -0.2913    0.2280 C   0  0  0  0  0  0  0  0  0  0  0  0
   -2.3376    0.9718   -0.0654 C   0  0  0  0  0  0  0  0  0  0  0  0
   -1.4820    2.2108   -0.1664 C   0  0  0  0  0  0  0  0  0  0  0  0
   -0.1235    2.0129    0.4926 C   0  0  0  0  0  0  0  0  0  0  0  0
   -0.3074   -0.4799    0.5194 C   0  0  2  0  0  0  0  0  0  0  0  0
    0.4934    0.7143   -0.0349 C   0  0  2  0  0  0  0  0  0  0  0  0
    1.8176   -1.9360    0.4521 C   0  0  0  0  0  0  0  0  0  0  0  0
    0.3090   -1.8535    0.1364 C   0  0  0  0  0  0  0  0  0  0  0  0
    2.5685   -0.7440   -0.1608 C   0  0  1  0  0  0  0  0  0  0  0  0
    1.9328    0.5502    0.3957 C   0  0  1  0  0  0  0  0  0  0  0  0
    2.8797    1.6584   -0.0149 C   0  0  0  0  0  0  0  0  0  0  0  0
    4.2404    0.9915    0.0259 C   0  0  0  0  0  0  0  0  0  0  0  0
    4.0150   -0.5125    0.3203 C   0  0  2  0  0  0  0  0  0  0  0  0
    2.5400   -0.8850   -1.7030 C   0  0  0  0  0  0  0  0  0  0  0  0
    4.9696   -1.3390   -0.3368 O   0  0  0  0  0  0  0  0  0  0  0  0
   -5.8763    0.1555   -0.3420 O   0  0  0  0  0  0  0  0  0  0  0  0
   -6.6951   -1.0226   -0.2832 C   0  0  0  0  0  0  0  0  0  0  0  0
   -6.5079   -2.0294   -1.4417 C   0  0  0  0  0  0  0  0  0  0  0  0
   -5.1615   -2.7359   -1.5597 C   0  0  0  0  0  0  0  0  0  0  0  0
    6.2962   -0.8394   -0.1861 C   0  0  0  0  0  0  0  0  0  0  0  0
  1  2  2  0
  1  4  1  0
  2  3  1  0
  2 20  1  0
  3  6  2  0
  5  9  1  0
  5  4  2  0
  5  6  1  0
  6  7  1  0
  7  8  1  0
 10  8  1  1
  9 10  1  0
  9 12  1  6
 10 14  1  0
 11 12  1  0
 13 14  1  0
 13 18  1  6
 13 11  1  0
 14 15  1  6
 15 16  1  0
 16 17  1  0
 17 13  1  0
 17 19  1  6
 19 24  1  0
 20 21  1  0
 21 22  1  0
 22 23  1  0
M  END
>  <DRUGBANK_ID>  (1) 
DB12487

>  <COMMON_NAME>  (1) 
Promestriene

>  <CAS_NUMBER>  (1) 
39219-28-8

>  <UNII>  (1) 
GXM4PER6WZ

>  <SYNONYMS>  (1) 
Promestriano; Promestriene; Promestrieno; Promestrienum

$$$$
