
     RDKit          3D

 31 33  0  0  0  0  0  0  0  0999 V2000
    1.4978    0.0801    0.1714 C   0  0  0  0  0  0  0  0  0  0  0  0
    0.6441    0.9055    1.1852 C   0  0  0  0  0  0  0  0  0  0  0  0
    0.9961    2.3538    0.8711 C   0  0  0  0  0  0  0  0  0  0  0  0
   -0.9200    0.8406    1.3515 C   0  0  0  0  0  0  0  0  0  0  0  0
   -1.4943   -0.4991    1.4430 N   0  0  0  0  0  0  0  0  0  0  0  0
   -2.9941   -0.4788    1.4393 C   0  0  0  0  0  0  0  0  0  0  0  0
   -3.6813   -0.0044    0.1774 C   0  0  0  0  0  0  0  0  0  0  0  0
   -3.4047   -0.8959   -0.9829 C   0  0  0  0  0  0  0  0  0  0  0  0
   -3.8771   -2.2345   -0.9994 N   0  0  0  0  0  0  0  0  0  0  0  0
   -3.1643   -3.5778   -0.8286 C   0  0  0  0  0  0  0  0  0  0  0  0
   -2.7791   -4.4203   -2.1368 C   0  0  0  0  0  0  0  0  0  0  0  0
   -3.5793   -4.1777   -3.3690 N   0  0  0  0  0  0  0  0  0  0  0  0
   -4.9961   -4.7029   -3.2665 C   0  0  0  0  0  0  0  0  0  0  0  0
   -6.0718   -4.3155   -2.1427 C   0  0  0  0  0  0  0  0  0  0  0  0
   -6.6746   -2.8793   -2.0849 C   0  0  0  0  0  0  0  0  0  0  0  0
   -7.1416   -2.4448   -3.3530 N   0  0  0  0  0  0  0  0  0  0  0  0
   -8.0447   -1.5135   -3.3049 C   0  0  0  0  0  0  0  0  0  0  0  0
   -9.1970   -1.7025   -3.9116 N   0  0  0  0  0  0  0  0  0  0  0  0
  -10.0063   -0.8477   -3.2885 C   0  0  0  0  0  0  0  0  0  0  0  0
  -11.3592   -0.7406   -3.5379 C   0  0  0  0  0  0  0  0  0  0  0  0
  -12.0301    0.2814   -2.8951 C   0  0  0  0  0  0  0  0  0  0  0  0
  -11.3758    1.1198   -1.9784 C   0  0  0  0  0  0  0  0  0  0  0  0
  -10.0189    0.9731   -1.6590 C   0  0  0  0  0  0  0  0  0  0  0  0
   -9.3654   -0.0255   -2.3633 C   0  0  0  0  0  0  0  0  0  0  0  0
   -8.0815   -0.4759   -2.4046 N   0  0  0  0  0  0  0  0  0  0  0  0
   -3.5670   -2.7387   -3.6282 C   0  0  0  0  0  0  0  0  0  0  0  0
   -4.1382   -2.1166   -2.4213 C   0  0  0  0  0  0  0  0  0  0  0  0
   -0.9095   -1.3461    0.3832 C   0  0  0  0  0  0  0  0  0  0  0  0
   -0.6494   -0.6135   -1.0664 C   0  0  0  0  0  0  0  0  0  0  0  0
   -0.8121    0.7725   -1.8156 C   0  0  0  0  0  0  0  0  0  0  0  0
   -0.5316   -1.6639   -2.1735 C   0  0  0  0  0  0  0  0  0  0  0  0
  1  2  1  0
  2  3  1  0
  2  4  1  0
  4  5  1  0
  5  6  1  0
  5 28  1  0
  6  7  1  0
  7  8  1  0
  8  9  1  0
  9 10  1  0
  9 27  1  0
 10 11  1  0
 11 12  1  0
 12 13  1  0
 12 26  1  0
 13 14  1  0
 14 15  1  0
 15 16  1  0
 16 17  1  0
 17 18  2  0
 17 25  1  0
 18 19  1  0
 19 20  2  0
 19 24  1  0
 20 21  1  0
 21 22  2  0
 22 23  1  0
 23 24  2  0
 24 25  1  0
 26 27  1  0
 28 29  1  0
 29 30  1  0
 29 31  1  0
M  END
>  <DRUGBANK_ID>  (1) 
DB16954

>  <COMMON_NAME>  (1) 
Ezeprogind

>  <CAS_NUMBER>  (1) 
615539-20-3

>  <UNII>  (1) 
TR9YQ07ELN

>  <SYNONYMS>  (1) 
1,4-piperazinedipropanamine, n'-1h-benzimidazol-2-yl-n,n-bis(2-methylpropyl)-; 1,4-piperazinedipropanamine, n4-1h-benzimidazol-2-yl-n1,n1-bis(2-methylpropyl)-; Azp-2006 free base; Azp2006 free base; N-(3-(4-(3-(diisobutylamino)propyl)piperazin-1-yl)propyl)-1h-benzo(d)imidazol-2-amine; N4-1h-benzimidazol-2-yl-n1,n1-bis(2-methylpropyl)-1,4-piperazinedipropanamine

$$$$
