
     RDKit          3D

 21 23  0  0  0  0  0  0  0  0999 V2000
   -2.8679    1.0982    0.2504 C   0  0  0  0  0  0  0  0  0  0  0  0
   -3.6993    0.1275    0.8061 C   0  0  0  0  0  0  0  0  0  0  0  0
   -3.3415   -1.2234    0.7561 C   0  0  0  0  0  0  0  0  0  0  0  0
   -2.1689   -1.6155    0.1148 C   0  0  0  0  0  0  0  0  0  0  0  0
   -1.3648   -0.6554   -0.4943 C   0  0  0  0  0  0  0  0  0  0  0  0
   -1.7012    0.6925   -0.3888 C   0  0  0  0  0  0  0  0  0  0  0  0
    2.7026    1.1216    0.6375 C   0  0  0  0  0  0  0  0  0  0  0  0
    1.4934    0.7874   -0.0049 C   0  0  0  0  0  0  0  0  0  0  0  0
    1.3458   -0.5223   -0.5074 C   0  0  0  0  0  0  0  0  0  0  0  0
    2.3540   -1.4677   -0.3103 C   0  0  0  0  0  0  0  0  0  0  0  0
    3.5335   -1.1168    0.3139 C   0  0  0  0  0  0  0  0  0  0  0  0
    3.7354    0.1892    0.7682 C   0  0  0  0  0  0  0  0  0  0  0  0
    0.0046   -1.1647   -1.4781 S   0  0  0  0  0  0  0  0  0  0  0  0
   -0.7588    1.6985   -0.8935 C   0  0  0  0  0  0  0  0  0  0  0  0
    0.4739    1.9050   -0.0603 C   0  0  0  0  0  0  0  0  0  0  0  0
    5.0590    0.5753    1.3914 C   0  0  0  0  0  0  0  0  0  0  0  0
    5.2768   -0.2609    2.6525 C   0  0  0  0  0  0  0  0  0  0  0  0
    6.2112    0.3587    0.4077 C   0  0  0  0  0  0  0  0  0  0  0  0
    6.9063    1.4742    0.0894 O   0  0  0  0  0  0  0  0  0  0  0  0
    6.5161   -0.7285   -0.0670 O   0  0  0  0  0  0  0  0  0  0  0  0
   -1.0280    2.3560   -1.8958 O   0  0  0  0  0  0  0  0  0  0  0  0
  1  2  2  0
  2  3  1  0
  3  4  2  0
  4  5  1  0
  5  6  2  0
  5 13  1  0
  6  1  1  0
  6 14  1  0
  7  8  2  0
  8  9  1  0
  9 10  2  0
  9 13  1  0
 10 11  1  0
 11 12  2  0
 12  7  1  0
 12 16  1  0
 14 15  1  0
 14 21  2  0
 15  8  1  0
 16 17  1  0
 16 18  1  0
 18 19  1  0
 18 20  2  0
M  END
>  <DRUGBANK_ID>  (1) 
DB06737

>  <COMMON_NAME>  (1) 
Zaltoprofen

>  <CAS_NUMBER>  (1) 
74711-43-6

>  <UNII>  (1) 
H8635NG3PY

>  <SYNONYMS>  (1) 
Zaltoprofen; Zaltoprofene; Zaltoprofeno; Zaltoprofenum

$$$$
