
     RDKit          3D

 33 37  0  0  0  0  0  0  0  0999 V2000
    2.4423   -0.0372    0.0556 C   0  0  0  0  0  0  0  0  0  0  0  0
   -3.4110    7.0810    6.4240 C   0  0  0  0  0  0  0  0  0  0  0  0
   -2.6258    8.2275    6.3038 C   0  0  0  0  0  0  0  0  0  0  0  0
   -3.7227    6.3222    5.2931 C   0  0  0  0  0  0  0  0  0  0  0  0
   -2.1459    8.6190    5.0536 C   0  0  0  0  0  0  0  0  0  0  0  0
   -7.8966    5.6189    2.1385 C   0  0  0  0  0  0  0  0  0  0  0  0
   -7.0789    4.5087    1.8692 C   0  0  0  0  0  0  0  0  0  0  0  0
    0.2930   -1.2045    0.2672 C   0  0  0  0  0  0  0  0  0  0  0  0
    0.3851    1.1515    0.2249 C   0  0  0  0  0  0  0  0  0  0  0  0
   -1.2388   -1.1982   -0.1122 C   0  0  0  0  0  0  0  0  0  0  0  0
   -1.0772    1.2274   -0.2075 C   0  0  0  0  0  0  0  0  0  0  0  0
   -5.9599    6.8883    2.8434 C   0  0  0  0  0  0  0  0  0  0  0  0
   -3.0623    4.8981    0.8020 C   0  0  0  0  0  0  0  0  0  0  0  0
   -3.2397    0.2496    0.8671 C   0  0  0  0  0  0  0  0  0  0  0  0
   -7.3373    6.7982    2.6407 C   0  0  0  0  0  0  0  0  0  0  0  0
   -3.2555    6.7248    4.0329 C   0  0  0  0  0  0  0  0  0  0  0  0
   -5.1355    5.7810    2.5544 C   0  0  0  0  0  0  0  0  0  0  0  0
   -2.4571    7.8731    3.9147 C   0  0  0  0  0  0  0  0  0  0  0  0
   -3.8546    1.4448    1.1333 C   0  0  0  0  0  0  0  0  0  0  0  0
   -5.6934    4.5600    2.0751 C   0  0  0  0  0  0  0  0  0  0  0  0
   -3.7152    3.5983    1.1086 C   0  0  0  0  0  0  0  0  0  0  0  0
   -3.6692    5.9582    2.8223 C   0  0  0  0  0  0  0  0  0  0  0  0
   -5.1401    2.0667    1.7786 C   0  0  0  0  0  0  0  0  0  0  0  0
   -1.9009    8.4859    2.3960 Cl  0  0  0  0  0  0  0  0  0  0  0  0
   -2.7232    5.5330    2.0601 N   0  0  0  0  0  0  0  0  0  0  0  0
   -3.1378    2.5249    0.7331 N   0  0  0  0  0  0  0  0  0  0  0  0
    1.0287   -0.0507   -0.3034 N   0  0  0  0  0  0  0  0  0  0  0  0
   -1.9002    0.0817    0.3030 N   0  0  0  0  0  0  0  0  0  0  0  0
   -4.8891    3.4476    1.7112 N   0  0  0  0  0  0  0  0  0  0  0  0
   -8.1995    7.9435    2.9688 N   0  0  0  0  0  0  0  0  0  0  0  0
   -6.0877    1.5037    2.2808 O   0  0  0  0  0  0  0  0  0  0  0  0
   -9.4149    7.8236    2.7661 O   0  0  0  0  0  0  0  0  0  0  0  0
   -7.6585    8.9548    3.4377 O   0  0  0  0  0  0  0  0  0  0  0  0
  3  2  2  0
  4  2  1  0
  5  3  1  0
  7  6  2  0
 10  8  1  0
 11  9  1  0
 15  6  1  0
 15 12  2  0
 16  4  2  0
 17 12  1  0
 18  5  2  0
 18 16  1  0
 19 14  2  0
 20  7  1  0
 20 17  2  0
 21 13  1  0
 22 16  1  0
 22 17  1  0
 23 19  1  0
 24 18  1  0
 25 13  1  0
 25 22  2  0
 26 19  1  0
 26 21  2  0
 27  1  1  0
 27  8  1  0
 27  9  1  0
 28 10  1  0
 28 11  1  0
 28 14  1  0
 29 20  1  0
 29 21  1  0
 29 23  1  0
 30 15  1  0
 31 23  2  0
 32 30  1  0
 33 30  2  0
M  CHG  2  30   1  32  -1
M  END
>  <DRUGBANK_ID>  (1) 
DB13643

>  <COMMON_NAME>  (1) 
Loprazolam

>  <CAS_NUMBER>  (1) 
61197-73-7

>  <UNII>  (1) 
759N8462G8

>  <SYNONYMS>  (1) 
Loprazolam; Triazulenone

$$$$
