
     RDKit          3D

  7  6  0  0  0  0  0  0  0  0999 V2000
    1.0280   -0.0468   -0.0342 C   0  0  0  0  0  0  0  0  0  0  0  0
    0.4535    0.2088   -1.4244 C   0  0  0  0  0  0  0  0  0  0  0  0
    1.0280   -0.6941   -2.5118 C   0  0  0  0  0  0  0  0  0  0  0  0
   -1.3578    0.2115   -1.4251 S   0  0  0  0  0  0  0  0  0  0  0  0
   -1.9194   -1.3814   -1.0089 C   0  0  0  0  0  0  0  0  0  0  0  0
   -1.0904   -2.4094   -0.7403 N   0  0  0  0  0  0  0  0  0  0  0  0
   -3.1939   -1.5315   -0.9697 N   0  0  0  0  0  0  0  0  0  0  0  0
  1  2  1  0
  2  3  1  0
  2  4  1  0
  4  5  1  0
  5  6  1  0
  5  7  2  0
M  END
>  <DRUGBANK_ID>  (1) 
DB04018

>  <SECONDARY_ACCESSION_NUMBERS>  (1) 
EXPT01925

>  <COMMON_NAME>  (1) 
S-Isopropyl-Isothiourea

$$$$
