PSG
     RDKit          3D

 21 22  0  0  0  0  0  0  0  0999 V2000
    3.0397    3.2735   -3.3706 C   0  0  0  0  0  0  0  0  0  0  0  0
    2.9625    3.2169   -4.7695 C   0  0  0  0  0  0  0  0  0  0  0  0
    3.8646    3.9534   -5.5360 C   0  0  0  0  0  0  0  0  0  0  0  0
    4.8736    4.6886   -4.9051 C   0  0  0  0  0  0  0  0  0  0  0  0
    5.0143    4.6277   -3.5037 C   0  0  0  0  0  0  0  0  0  0  0  0
    4.1379    3.8570   -2.7228 C   0  0  0  0  0  0  0  0  0  0  0  0
    3.6689    4.0243   -6.9912 N   0  0  0  0  0  0  0  0  0  0  0  0
    4.3940    4.8075   -7.6307 O   0  0  0  0  0  0  0  0  0  0  0  0
    2.7746    3.3331   -7.4896 O   0  0  0  0  0  0  0  0  0  0  0  0
    4.5353    3.5346   -0.9735 S   0  0  0  0  0  0  0  0  0  0  0  0
    3.6990    1.9027   -0.6289 C   0  0  1  0  0  0  0  0  0  0  0  0
    4.2433    0.7779   -1.5432 C   0  0  1  0  0  0  0  0  0  0  0  0
    3.3999   -0.4782   -1.3499 C   0  0  2  0  0  0  0  0  0  0  0  0
    3.4331   -0.9172    0.0977 C   0  0  1  0  0  0  0  0  0  0  0  0
    3.0297    0.2567    1.0022 C   0  0  1  0  0  0  0  0  0  0  0  0
    3.1513   -0.2244    2.4565 C   0  0  0  0  0  0  0  0  0  0  0  0
    4.2453    1.0151   -2.9446 O   0  0  0  0  0  0  0  0  0  0  0  0
    3.8813   -1.5167   -2.2085 O   0  0  0  0  0  0  0  0  0  0  0  0
    2.5824   -2.0479    0.2943 O   0  0  0  0  0  0  0  0  0  0  0  0
    3.8429    1.4424    0.7517 O   0  0  0  0  0  0  0  0  0  0  0  0
    2.7396    0.7951    3.3553 O   0  0  0  0  0  0  0  0  0  0  0  0
  1  2  2  0
  1  6  1  0
  2  3  1  0
  3  4  2  0
  3  7  1  0
  4  5  1  0
  5  6  2  0
  6 10  1  0
  7  8  2  0
  7  9  1  0
 11 12  1  0
 11 20  1  0
 11 10  1  1
 12 13  1  0
 12 17  1  6
 13 14  1  0
 13 18  1  6
 14 15  1  0
 14 19  1  6
 15 16  1  1
 15 20  1  0
 16 21  1  0
M  CHG  2   7   1   9  -1
M  END
>  <DRUGBANK_ID>  (1) 
DB08430

>  <COMMON_NAME>  (1) 
PARA-NITROPHENYL 1-THIO-BETA-D-GLUCOPYRANOSIDE

$$$$
