
     RDKit          3D

 31 34  0  0  0  0  0  0  0  0999 V2000
    2.5490    1.2706    0.0143 C   0  0  0  0  0  0  0  0  0  0  0  0
    1.3570    0.3494   -0.0295 C   0  0  0  0  0  0  0  0  0  0  0  0
    0.0861    0.9594   -0.0142 C   0  0  0  0  0  0  0  0  0  0  0  0
   -1.0671    0.1876    0.0120 C   0  0  0  0  0  0  0  0  0  0  0  0
   -2.2642    0.7893    0.0243 F   0  0  0  0  0  0  0  0  0  0  0  0
   -0.9904   -1.1955    0.0335 C   0  0  0  0  0  0  0  0  0  0  0  0
    0.2636   -1.8165   -0.0230 C   0  0  0  0  0  0  0  0  0  0  0  0
    1.4609   -1.0666   -0.0651 C   0  0  0  0  0  0  0  0  0  0  0  0
    2.7621   -1.7704   -0.1137 C   0  0  0  0  0  0  0  0  0  0  0  0
    3.7235   -1.5908    0.8777 C   0  0  0  0  0  0  0  0  0  0  0  0
    4.9783   -2.1989    0.7557 C   0  0  0  0  0  0  0  0  0  0  0  0
    5.2665   -3.0294   -0.3282 C   0  0  0  0  0  0  0  0  0  0  0  0
    4.2298   -3.1670   -1.2572 C   0  0  0  0  0  0  0  0  0  0  0  0
    3.0002   -2.5682   -1.1828 N   0  0  0  0  0  0  0  0  0  0  0  0
    6.4944   -3.7220   -0.5245 N   0  0  0  0  0  0  0  0  0  0  0  0
    7.3572   -3.4923    0.3597 N   0  0  0  0  0  0  0  0  0  0  0  0
    8.5956   -4.1715    0.1443 C   0  0  0  0  0  0  0  0  0  0  0  0
    9.2026   -4.7927    1.2466 C   0  0  0  0  0  0  0  0  0  0  0  0
   10.4503   -5.4299    1.1270 C   0  0  0  0  0  0  0  0  0  0  0  0
   11.1486   -5.4597   -0.1030 C   0  0  0  0  0  0  0  0  0  0  0  0
   12.4068   -6.0960   -0.2621 C   0  0  0  0  0  0  0  0  0  0  0  0
   13.0923   -6.1062   -1.4696 C   0  0  0  0  0  0  0  0  0  0  0  0
   12.5457   -5.4621   -2.5607 C   0  0  0  0  0  0  0  0  0  0  0  0
   11.3092   -4.8196   -2.4400 C   0  0  0  0  0  0  0  0  0  0  0  0
   10.5674   -4.8062   -1.2289 C   0  0  0  0  0  0  0  0  0  0  0  0
    9.2801   -4.1750   -1.1057 C   0  0  0  0  0  0  0  0  0  0  0  0
    8.7711   -3.3567   -2.1429 N   0  0  0  0  0  0  0  0  0  0  0  0
   11.1523   -6.2097    2.5831 S   0  0  0  0  0  0  0  0  0  0  0  0
   11.3447   -7.7566    2.1444 O   0  0  0  0  0  0  0  0  0  0  0  0
   12.4570   -5.6412    2.8165 O   0  0  0  0  0  0  0  0  0  0  0  0
   10.1343   -6.2219    3.6168 O   0  0  0  0  0  0  0  0  0  0  0  0
  1  2  1  0
  2  3  2  0
  2  8  1  0
  3  4  1  0
  4  5  1  0
  4  6  2  0
  6  7  1  0
  7  8  2  0
  8  9  1  0
  9 10  2  0
  9 14  1  0
 10 11  1  0
 11 12  2  0
 12 13  1  0
 12 15  1  0
 13 14  2  0
 15 16  2  0
 16 17  1  0
 17 18  2  0
 17 26  1  0
 18 19  1  0
 19 20  2  0
 19 28  1  0
 20 21  1  0
 20 25  1  0
 21 22  2  0
 22 23  1  0
 23 24  2  0
 24 25  1  0
 25 26  2  0
 26 27  1  0
 28 29  1  0
 28 30  2  0
 28 31  2  0
M  END
>  <DRUGBANK_ID>  (1) 
DB18510

>  <COMMON_NAME>  (1) 
KUS-121 free acid

>  <CAS_NUMBER>  (1) 
1357245-09-0

>  <UNII>  (1) 
KWL59W4L66

>  <SYNONYMS>  (1) 
1-Naphthalenesulfonic acid, 4-amino-3-[2-[6-(4-fluoro-2-methylphenyl)-3-pyridinyl]diazenyl]-; 4-Amino-3-[[6-(4-fluoro-2-methylphenyl)pyridin-3-yl]azo]naphthalene-1-sulfonic acid; KUS 121 free acid; KUS121 free acid

$$$$
