
     RDKit          3D

 27 30  0  0  1  0  0  0  0  0999 V2000
    1.0781    0.0831   -0.0215 C   0  0  0  0  0  0  0  0  0  0  0  0
    0.5785    1.3893    0.5620 C   0  0  0  0  0  0  0  0  0  0  0  0
    0.9194    2.5136   -0.2926 N   0  0  0  0  0  0  0  0  0  0  0  0
    0.0841    3.3629   -0.9586 C   0  0  0  0  0  0  0  0  0  0  0  0
    0.5730    4.2828   -1.6303 O   0  0  0  0  0  0  0  0  0  0  0  0
   -1.4344    3.1895   -0.8405 C   0  0  1  0  0  0  0  0  0  0  0  0
   -2.0080    4.2479   -0.0585 O   0  0  0  0  0  0  0  0  0  0  0  0
   -2.9025    4.9949   -0.8998 C   0  0  2  0  0  0  0  0  0  0  0  0
   -2.5896    4.6302   -2.3521 C   0  0  2  0  0  0  0  0  0  0  0  0
   -3.7174    4.7733   -3.2075 O   0  0  0  0  0  0  0  0  0  0  0  0
   -2.1086    3.2013   -2.2108 C   0  0  2  0  0  0  0  0  0  0  0  0
   -3.2328    2.3031   -2.2257 O   0  0  0  0  0  0  0  0  0  0  0  0
   -2.7132    6.3906   -0.6366 N   0  0  0  0  0  0  0  0  0  0  0  0
   -1.5560    7.0476   -0.9150 C   0  0  0  0  0  0  0  0  0  0  0  0
   -1.7057    8.3192   -0.7121 N   0  0  0  0  0  0  0  0  0  0  0  0
   -2.9568    8.4903   -0.1639 C   0  0  0  0  0  0  0  0  0  0  0  0
   -3.6302    7.2878   -0.1516 C   0  0  0  0  0  0  0  0  0  0  0  0
   -4.8903    7.0860    0.2664 N   0  0  0  0  0  0  0  0  0  0  0  0
   -5.4286    8.2491    0.7157 C   0  0  0  0  0  0  0  0  0  0  0  0
   -4.8656    9.4802    0.8079 N   0  0  0  0  0  0  0  0  0  0  0  0
   -3.5896    9.6338    0.3752 C   0  0  0  0  0  0  0  0  0  0  0  0
   -2.9848   10.8717    0.5129 N   0  0  0  0  0  0  0  0  0  0  0  0
   -1.6053   11.1337    0.1311 C   0  0  0  0  0  0  0  0  0  0  0  0
   -1.3709   10.9602   -1.3748 C   0  0  0  0  0  0  0  0  0  0  0  0
    0.0657   10.4662   -1.5114 C   0  0  0  0  0  0  0  0  0  0  0  0
    0.5749   10.1064   -0.1103 C   0  0  0  0  0  0  0  0  0  0  0  0
   -0.5921   10.2408    0.8601 C   0  0  0  0  0  0  0  0  0  0  0  0
  1  2  1  0
  2  3  1  0
  3  4  1  0
  4  5  2  0
  6  4  1  6
  6  7  1  0
  8  7  1  0
  8 13  1  6
  9  8  1  0
  9 10  1  6
  9 11  1  0
 11  6  1  0
 11 12  1  1
 13 14  1  0
 13 17  1  0
 14 15  2  0
 15 16  1  0
 16 17  2  0
 16 21  1  0
 17 18  1  0
 18 19  2  0
 19 20  1  0
 20 21  2  0
 21 22  1  0
 22 23  1  0
 23 24  1  0
 23 27  1  0
 24 25  1  0
 25 26  1  0
 26 27  1  0
M  END
>  <DRUGBANK_ID>  (1) 
DB16325

>  <COMMON_NAME>  (1) 
Selodenoson

>  <CAS_NUMBER>  (1) 
110299-05-3

>  <UNII>  (1) 
103G5E953K

>  <SYNONYMS>  (1) 
Selodenoson

$$$$
