699
     RDKit          3D

 32 34  0  0  0  0  0  0  0  0999 V2000
    1.0483    0.0262   -0.2144 F   0  0  0  0  0  0  0  0  0  0  0  0
    2.4060   -0.0284   -0.1343 C   0  0  0  0  0  0  0  0  0  0  0  0
    2.8278   -0.7082   -1.2329 F   0  0  0  0  0  0  0  0  0  0  0  0
    2.8356    1.2564   -0.3014 F   0  0  0  0  0  0  0  0  0  0  0  0
    2.8629   -0.6441    1.1595 C   0  0  0  0  0  0  0  0  0  0  0  0
    3.2722    0.1833    2.1934 C   0  0  0  0  0  0  0  0  0  0  0  0
    3.6377   -0.3851    3.4036 C   0  0  0  0  0  0  0  0  0  0  0  0
    2.8106   -2.0327    1.3843 C   0  0  0  0  0  0  0  0  0  0  0  0
    3.0062   -2.5736    2.6695 C   0  0  0  0  0  0  0  0  0  0  0  0
    3.4186   -1.7473    3.7105 C   0  0  0  0  0  0  0  0  0  0  0  0
    3.7232   -2.3105    5.1202 C   0  0  0  0  0  0  0  0  0  0  0  0
    3.7624   -3.5145    5.3275 O   0  0  0  0  0  0  0  0  0  0  0  0
    4.1670   -1.3547    6.0496 N   0  0  0  0  0  0  0  0  0  0  0  0
    3.2679   -0.3428    6.6610 C   0  0  1  0  0  0  0  0  0  0  0  0
    2.1587   -0.0033    5.6507 C   0  0  0  0  0  0  0  0  0  0  0  0
    2.0597    1.2757    5.2336 O   0  0  0  0  0  0  0  0  0  0  0  0
    1.3857   -0.8567    5.2185 O   0  0  0  0  0  0  0  0  0  0  0  0
    2.5698   -0.7887    7.9929 C   0  0  0  0  0  0  0  0  0  0  0  0
    1.2835    0.0250    8.3723 C   0  0  0  0  0  0  0  0  0  0  0  0
    0.0870   -0.1371    7.4234 C   0  0  0  0  0  0  0  0  0  0  0  0
    0.7517   -0.4055    9.7344 C   0  0  0  0  0  0  0  0  0  0  0  0
    4.3015    0.7548    6.9544 C   0  0  0  0  0  0  0  0  0  0  0  0
    5.5682    0.0039    7.4353 C   0  0  2  0  0  0  0  0  0  0  0  0
    6.7816    0.8831    7.1433 C   0  0  0  0  0  0  0  0  0  0  0  0
    7.5517    1.1697    8.2204 O   0  0  0  0  0  0  0  0  0  0  0  0
    7.0387    1.3455    6.0519 O   0  0  0  0  0  0  0  0  0  0  0  0
    5.5058   -1.3703    6.6798 C   0  0  2  0  0  0  0  0  0  0  0  0
    6.6658   -1.5844    5.7129 C   0  0  0  0  0  0  0  0  0  0  0  0
    6.4930   -1.8488    4.0288 S   0  0  0  0  0  0  0  0  0  0  0  0
    8.0188   -1.5703    6.0224 C   0  0  0  0  0  0  0  0  0  0  0  0
    8.8592   -1.6580    4.8722 C   0  0  0  0  0  0  0  0  0  0  0  0
    8.1417   -1.8334    3.7189 C   0  0  0  0  0  0  0  0  0  0  0  0
  1  2  1  0
  2  3  1  0
  2  4  1  0
  2  5  1  0
  5  6  2  0
  5  8  1  0
  6  7  1  0
  7 10  2  0
  8  9  2  0
  9 10  1  0
 10 11  1  0
 11 12  2  0
 11 13  1  0
 13 14  1  0
 13 27  1  0
 14 22  1  0
 14 18  1  1
 14 15  1  0
 15 16  1  0
 15 17  2  0
 18 19  1  0
 19 20  1  0
 19 21  1  0
 22 23  1  0
 23 24  1  6
 23 27  1  0
 24 25  1  0
 24 26  2  0
 27 28  1  6
 28 29  1  0
 28 30  2  0
 29 32  1  0
 30 31  1  0
 31 32  2  0
M  END
>  <DRUGBANK_ID>  (1) 
DB07200

>  <COMMON_NAME>  (1) 
(2S,4S,5R)-2-ISOBUTYL-5-(2-THIENYL)-1-[4-(TRIFLUOROMETHYL)BENZOYL]PYRROLIDINE-2,4-DICARBOXYLIC ACID

$$$$
