
     RDKit          3D

 24 27  0  0  0  0  0  0  0  0999 V2000
    2.3678    0.6677    0.3227 C   0  0  0  0  0  0  0  0  0  0  0  0
    0.9284    0.2419    0.0620 C   0  0  0  0  0  0  0  0  0  0  0  0
    0.1055    1.3829   -0.0104 C   0  0  0  0  0  0  0  0  0  0  0  0
   -1.2745    1.2983   -0.0404 C   0  0  0  0  0  0  0  0  0  0  0  0
   -1.8776    0.0562   -0.0373 C   0  0  0  0  0  0  0  0  0  0  0  0
   -1.0993   -1.1054   -0.0420 C   0  0  0  0  0  0  0  0  0  0  0  0
    0.3264   -1.0768   -0.0204 C   0  0  0  0  0  0  0  0  0  0  0  0
    1.0667   -2.5164   -0.0012 C   0  0  0  0  0  0  0  0  0  0  0  0
    1.6742   -2.8609    1.4169 C   0  0  0  0  0  0  0  0  0  0  0  0
    1.6569   -1.8356    2.4031 C   0  0  0  0  0  0  0  0  0  0  0  0
    2.5145   -1.8041    3.5013 C   0  0  0  0  0  0  0  0  0  0  0  0
    3.3700   -2.8731    3.7168 C   0  0  0  0  0  0  0  0  0  0  0  0
    3.2705   -3.9790    2.8929 C   0  0  0  0  0  0  0  0  0  0  0  0
    2.3876   -4.0443    1.7869 C   0  0  0  0  0  0  0  0  0  0  0  0
    2.4406   -5.3900    1.0997 C   0  0  0  0  0  0  0  0  0  0  0  0
    1.9938   -2.6176   -1.3341 C   0  0  0  0  0  0  0  0  0  0  0  0
    2.8246   -3.8817   -1.5800 C   0  0  0  0  0  0  0  0  0  0  0  0
    4.3069   -3.7143   -1.5782 N   0  0  0  0  0  0  0  0  0  0  0  0
    4.7391   -2.9722   -0.3757 C   0  0  0  0  0  0  0  0  0  0  0  0
    4.0199   -1.6299   -0.3030 C   0  0  0  0  0  0  0  0  0  0  0  0
    3.0214   -1.5104   -1.4821 C   0  0  0  0  0  0  0  0  0  0  0  0
    3.8747   -1.5967   -2.7447 C   0  0  0  0  0  0  0  0  0  0  0  0
    4.6683   -2.8944   -2.7429 C   0  0  0  0  0  0  0  0  0  0  0  0
    0.0318   -3.5063   -0.2520 O   0  0  0  0  0  0  0  0  0  0  0  0
  1  2  1  0
  2  3  2  0
  2  7  1  0
  3  4  1  0
  4  5  2  0
  5  6  1  0
  6  7  2  0
  7  8  1  0
  8  9  1  0
  8 16  1  0
  8 24  1  0
  9 10  2  0
  9 14  1  0
 10 11  1  0
 11 12  2  0
 12 13  1  0
 13 14  2  0
 14 15  1  0
 16 17  1  0
 16 21  1  0
 17 18  1  0
 18 19  1  0
 18 23  1  0
 19 20  1  0
 20 21  1  0
 21 22  1  0
 22 23  1  0
M  END
>  <DRUGBANK_ID>  (1) 
DB13566

>  <COMMON_NAME>  (1) 
Sequifenadine

>  <CAS_NUMBER>  (1) 
57734-69-7

>  <UNII>  (1) 
C7Q3TBR3FP

>  <SYNONYMS>  (1) 
Sequifenadine

$$$$
