
     RDKit          3D

 31 34  0  0  0  0  0  0  0  0999 V2000
    2.1123   -0.5975   -0.0021 C   0  0  0  0  0  0  0  0  0  0  0  0
    2.1130    0.7604   -0.0039 N   0  0  0  0  0  0  0  0  0  0  0  0
    0.9262    1.4038   -0.0021 C   0  0  0  0  0  0  0  0  0  0  0  0
    0.9815   -1.4166    0.0040 C   0  0  0  0  0  0  0  0  0  0  0  0
   -0.2691   -0.7513    0.0068 C   0  0  0  0  0  0  0  0  0  0  0  0
   -0.2517    0.6496    0.0042 C   0  0  0  0  0  0  0  0  0  0  0  0
   -1.5608    1.0679    0.0061 N   0  0  0  0  0  0  0  0  0  0  0  0
   -2.4091   -0.0070    0.0139 C   0  0  0  0  0  0  0  0  0  0  0  0
   -1.6668   -1.1755    0.0069 C   0  0  0  0  0  0  0  0  0  0  0  0
   -2.2082   -2.5537   -0.0276 C   0  0  0  0  0  0  0  0  0  0  0  0
   -3.7456   -2.8904   -0.0159 C   0  0  0  0  0  0  0  0  0  0  0  0
   -1.4540   -3.5208   -0.1372 O   0  0  0  0  0  0  0  0  0  0  0  0
   -4.0900   -4.2478    0.0825 N   0  0  0  0  0  0  0  0  0  0  0  0
   -4.5879   -2.0093   -0.1799 O   0  0  0  0  0  0  0  0  0  0  0  0
   -5.3836   -4.7865   -0.3879 C   0  0  0  0  0  0  0  0  0  0  0  0
   -5.2029   -6.2171   -0.9749 C   0  0  0  0  0  0  0  0  0  0  0  0
   -4.4499   -7.0829   -0.0386 N   0  0  0  0  0  0  0  0  0  0  0  0
   -3.1580   -6.5093    0.3542 C   0  0  0  0  0  0  0  0  0  0  0  0
   -3.3877   -5.1438    1.0020 C   0  0  0  0  0  0  0  0  0  0  0  0
   -4.9548   -8.3191    0.3711 C   0  0  0  0  0  0  0  0  0  0  0  0
   -6.0132   -8.7794   -0.0545 O   0  0  0  0  0  0  0  0  0  0  0  0
   -4.1842   -9.1551    1.3436 C   0  0  0  0  0  0  0  0  0  0  0  0
   -3.7934   -8.6703    2.5991 C   0  0  0  0  0  0  0  0  0  0  0  0
   -2.9550   -9.4364    3.4182 C   0  0  0  0  0  0  0  0  0  0  0  0
   -2.6241  -10.7410    3.0547 C   0  0  0  0  0  0  0  0  0  0  0  0
   -3.1412  -11.2830    1.8792 C   0  0  0  0  0  0  0  0  0  0  0  0
   -3.8806  -10.4797    1.0032 C   0  0  0  0  0  0  0  0  0  0  0  0
    0.9892   -2.7778    0.0153 O   0  0  0  0  0  0  0  0  0  0  0  0
    2.2295   -3.4620    0.0032 C   0  0  0  0  0  0  0  0  0  0  0  0
    0.8632    2.7839   -0.0056 O   0  0  0  0  0  0  0  0  0  0  0  0
    2.1347    3.4322   -0.0085 C   0  0  0  0  0  0  0  0  0  0  0  0
  1  2  2  0
  2  3  1  0
  3  6  2  0
  3 30  1  0
  4  1  1  0
  4 28  1  0
  5  4  2  0
  5  6  1  0
  6  7  1  0
  7  8  1  0
  8  9  2  0
  9  5  1  0
  9 10  1  0
 10 11  1  0
 10 12  2  0
 11 13  1  0
 11 14  2  0
 13 19  1  0
 13 15  1  0
 15 16  1  0
 16 17  1  0
 17 18  1  0
 17 20  1  0
 18 19  1  0
 20 21  2  0
 20 22  1  0
 22 23  2  0
 23 24  1  0
 24 25  2  0
 25 26  1  0
 26 27  2  0
 27 22  1  0
 28 29  1  0
 30 31  1  0
M  END
>  <DRUGBANK_ID>  (1) 
DB05532

>  <COMMON_NAME>  (1) 
BMS-488043

>  <CAS_NUMBER>  (1) 
452296-83-2

>  <UNII>  (1) 
MKS21EJ435

$$$$
