238
     RDKit          3D

 20 23  0  0  0  0  0  0  0  0999 V2000
   -1.2304    2.7563    0.6427 O   0  0  0  0  0  0  0  0  0  0  0  0
   -0.1896   -1.0709    1.1718 N   0  0  0  0  0  0  0  0  0  0  0  0
    0.6481    1.5297    0.5162 N   0  0  0  0  0  0  0  0  0  0  0  0
    1.8438   -1.9698    0.2847 N   0  0  0  0  0  0  0  0  0  0  0  0
   -2.2628   -1.7529    0.2109 N   0  0  0  0  0  0  0  0  0  0  0  0
   -0.2570   -1.6792    2.5099 C   0  0  0  0  0  0  0  0  0  0  0  0
    0.2682   -0.9265    3.7193 C   0  0  0  0  0  0  0  0  0  0  0  0
    0.9524   -2.1776    3.2605 C   0  0  0  0  0  0  0  0  0  0  0  0
    1.0509   -0.8918    0.5168 C   0  0  0  0  0  0  0  0  0  0  0  0
   -1.3759   -0.7560    0.4776 C   0  0  0  0  0  0  0  0  0  0  0  0
    1.4408    0.4150    0.1773 C   0  0  0  0  0  0  0  0  0  0  0  0
   -1.5752    0.5382   -0.0006 C   0  0  0  0  0  0  0  0  0  0  0  0
    2.6851    0.6108   -0.4353 C   0  0  0  0  0  0  0  0  0  0  0  0
   -0.7158    1.6546    0.4302 C   0  0  0  0  0  0  0  0  0  0  0  0
   -2.6885    0.8092   -0.8042 C   0  0  0  0  0  0  0  0  0  0  0  0
    3.4815   -0.5110   -0.6971 C   0  0  0  0  0  0  0  0  0  0  0  0
    3.0299   -1.7609   -0.3133 C   0  0  0  0  0  0  0  0  0  0  0  0
   -3.3193   -1.4700   -0.5826 C   0  0  0  0  0  0  0  0  0  0  0  0
    3.1709    1.9591   -0.8824 C   0  0  0  0  0  0  0  0  0  0  0  0
   -3.5671   -0.2193   -1.1186 C   0  0  0  0  0  0  0  0  0  0  0  0
  1 14  2  0
  2  6  1  0
  2  9  1  0
  2 10  1  0
  3 11  1  0
  3 14  1  0
  4  9  1  0
  4 17  2  0
  5 10  2  0
  5 18  1  0
  6  7  1  0
  6  8  1  0
  7  8  1  0
  9 11  2  0
 10 12  1  0
 11 13  1  0
 12 14  1  0
 12 15  2  0
 13 16  2  0
 13 19  1  0
 15 20  1  0
 16 17  1  0
 18 20  2  0
M  END
>  <DRUGBANK_ID>  (1) 
DB00238

>  <SECONDARY_ACCESSION_NUMBERS>  (1) 
APRD00705; DB08311

>  <COMMON_NAME>  (1) 
Nevirapine

>  <CAS_NUMBER>  (1) 
129618-40-2

>  <UNII>  (1) 
99DK7FVK1H

>  <SYNONYMS>  (1) 
11-cyclopropyl-5,11-dihydro-4-methyl-6H-dipyrido(3,2-b:2',3'-e)(1,4)diazepin-6-one; NEV; Nevirapina; Nevirapine; Nevirapine anhydrous; Nevirapine, anhydrous; NVP

$$$$
