
     RDKit          3D

 18 20  0  0  0  0  0  0  0  0999 V2000
    0.9239   -0.0892    0.0237 C   0  0  0  0  0  0  0  0  0  0  0  0
    0.3645    1.3090   -0.2249 C   0  0  0  0  0  0  0  0  0  0  0  0
    0.9090    1.8649   -1.5394 C   0  0  0  0  0  0  0  0  0  0  0  0
   -1.1403    1.2882   -0.2362 C   0  0  0  0  0  0  0  0  0  0  0  0
   -1.9417    0.3991   -0.8094 N   0  0  0  0  0  0  0  0  0  0  0  0
   -3.2179    0.8180   -0.5344 C   0  0  0  0  0  0  0  0  0  0  0  0
   -3.1947    1.9724    0.2046 C   0  0  0  0  0  0  0  0  0  0  0  0
   -1.8753    2.2661    0.3925 N   0  0  0  0  0  0  0  0  0  0  0  0
   -4.3182    2.7090    0.6751 C   0  0  0  0  0  0  0  0  0  0  0  0
   -4.2388    3.7381    1.3316 O   0  0  0  0  0  0  0  0  0  0  0  0
   -5.6667    2.0980    0.2844 C   0  0  0  0  0  0  0  0  0  0  0  0
   -6.7089    2.6396    0.6315 O   0  0  0  0  0  0  0  0  0  0  0  0
   -5.6818    0.8424   -0.5187 C   0  0  0  0  0  0  0  0  0  0  0  0
   -6.9253    0.2975   -0.8684 C   0  0  0  0  0  0  0  0  0  0  0  0
   -6.9835   -0.8732   -1.6182 C   0  0  0  0  0  0  0  0  0  0  0  0
   -5.8017   -1.5001   -2.0168 C   0  0  0  0  0  0  0  0  0  0  0  0
   -4.5535   -0.9615   -1.6685 C   0  0  0  0  0  0  0  0  0  0  0  0
   -4.4812    0.2169   -0.9174 C   0  0  0  0  0  0  0  0  0  0  0  0
  1  2  1  0
  2  3  1  0
  2  4  1  0
  4  5  2  0
  4  8  1  0
  5  6  1  0
  6  7  2  0
  6 18  1  0
  7  8  1  0
  7  9  1  0
  9 10  2  0
  9 11  1  0
 11 12  2  0
 11 13  1  0
 13 14  1  0
 13 18  2  0
 14 15  2  0
 15 16  1  0
 16 17  2  0
 17 18  1  0
M  END
>  <DRUGBANK_ID>  (1) 
DB17622

>  <COMMON_NAME>  (1) 
KL1333

>  <CAS_NUMBER>  (1) 
1800405-30-4

>  <UNII>  (1) 
NA2ZOL5UGM

>  <SYNONYMS>  (1) 
2-(1-methylethyl)-3h-naphth(1,2-d)imidazole-4,5-dione; 2-isopropyl-3h-naphtho(1,2-d)imidazole-4,5-dione; 2-isopropyl-3H-naphtho[1,2-d]imidazole-4,5-dione; 3h-naphth(1,2-d)imidazole-4,5-dione, 2-(1-methylethyl)-

$$$$
