
     RDKit          3D

 10 10  0  0  0  0  0  0  0  0999 V2000
    0.9008    0.0005    0.0663 O   0  0  0  0  0  0  0  0  0  0  0  0
    0.4583   -1.3298    0.3117 C   0  0  0  0  0  0  0  0  0  0  0  0
    0.9039   -2.2759   -0.7694 C   0  0  0  0  0  0  0  0  0  0  0  0
    1.4794   -1.8748   -1.9152 C   0  0  0  0  0  0  0  0  0  0  0  0
    1.7514   -2.8616   -2.9709 C   0  0  0  0  0  0  0  0  0  0  0  0
    2.2135   -2.5401   -4.0622 O   0  0  0  0  0  0  0  0  0  0  0  0
    1.4185   -4.2742   -2.6711 C   0  0  0  0  0  0  0  0  0  0  0  0
    1.6367   -5.2449   -3.6251 O   0  0  0  0  0  0  0  0  0  0  0  0
    0.9015   -4.5491   -1.4710 C   0  0  0  0  0  0  0  0  0  0  0  0
    0.6280   -3.6136   -0.5002 O   0  0  0  0  0  0  0  0  0  0  0  0
  1  2  1  0
  2  3  1  0
  3  4  2  0
  3 10  1  0
  4  5  1  0
  5  6  2  0
  5  7  1  0
  7  8  1  0
  7  9  2  0
  9 10  1  0
M  END
>  <DRUGBANK_ID>  (1) 
DB01759

>  <SECONDARY_ACCESSION_NUMBERS>  (1) 
EXPT01978

>  <COMMON_NAME>  (1) 
Kojic acid

>  <CAS_NUMBER>  (1) 
501-30-4

>  <UNII>  (1) 
6K23F1TT52

>  <SYNONYMS>  (1) 
5-hydroxy-2-(hydroxymethyl)-4-pyrone; 5-hydroxy-2-(hydroxymethyl)-4H-pyran-4-one; ácido kójico

$$$$
