
     RDKit          3D

 25 26  0  0  0  0  0  0  0  0999 V2000
    1.0429    0.1006    0.1326 C   0  0  0  0  0  0  0  0  0  0  0  0
    1.0694   -1.8179    1.7348 C   0  0  0  0  0  0  0  0  0  0  0  0
   -1.0030   -1.3331    0.3564 C   0  0  0  0  0  0  0  0  0  0  0  0
    1.0798   -4.5808   -1.4625 C   0  0  0  0  0  0  0  0  0  0  0  0
    2.3083   -2.8090   -2.5912 C   0  0  0  0  0  0  0  0  0  0  0  0
    1.8621   -4.9395   -3.7318 C   0  0  0  0  0  0  0  0  0  0  0  0
    0.9890   -7.0154   -6.6923 C   0  0  0  0  0  0  0  0  0  0  0  0
    3.1743   -7.7627   -7.2648 C   0  0  0  0  0  0  0  0  0  0  0  0
    0.6903   -3.6675   -0.5246 C   0  0  0  0  0  0  0  0  0  0  0  0
    1.7954   -1.8758   -1.7392 C   0  0  0  0  0  0  0  0  0  0  0  0
    1.0201   -4.1946   -4.7571 C   0  0  0  0  0  0  0  0  0  0  0  0
    1.3453   -5.7504   -7.1675 C   0  0  0  0  0  0  0  0  0  0  0  0
    3.5906   -6.4210   -7.4174 C   0  0  0  0  0  0  0  0  0  0  0  0
    3.0315   -3.2919   -6.0354 C   0  0  0  0  0  0  0  0  0  0  0  0
    1.8340   -4.1171   -2.5206 C   0  0  0  0  0  0  0  0  0  0  0  0
    1.8650   -8.0664   -6.8696 C   0  0  0  0  0  0  0  0  0  0  0  0
    1.0139   -2.3019   -0.6682 C   0  0  0  0  0  0  0  0  0  0  0  0
    1.6026   -2.9958   -5.5210 C   0  0  0  0  0  0  0  0  0  0  0  0
    2.6843   -5.3885   -7.2477 C   0  0  0  0  0  0  0  0  0  0  0  0
    1.2329   -9.4207   -6.8022 C   0  0  0  0  0  0  0  0  0  0  0  0
    0.5306   -1.3291    0.3803 C   0  0  0  0  0  0  0  0  0  0  0  0
    0.7551   -2.5975   -6.6043 O   0  0  0  0  0  0  0  0  0  0  0  0
    1.9737  -10.4146   -7.3421 O   0  0  0  0  0  0  0  0  0  0  0  0
    0.1090   -9.5992   -6.4016 O   0  0  0  0  0  0  0  0  0  0  0  0
    3.0985   -4.0813   -7.2673 O   0  0  0  0  0  0  0  0  0  0  0  0
  9  4  2  0
 10  5  1  0
 11  6  1  0
 12  7  2  0
 13  8  1  0
 15  4  1  0
 15  5  2  0
 15  6  1  0
 16  7  1  0
 16  8  2  0
 17  9  1  0
 17 10  2  0
 18 11  1  0
 18 14  1  0
 19 12  1  0
 19 13  2  0
 20 16  1  0
 21  1  1  0
 21  2  1  0
 21  3  1  0
 21 17  1  0
 22 18  1  0
 23 20  1  0
 24 20  2  0
 25 14  1  0
 25 19  1  0
M  END
>  <DRUGBANK_ID>  (1) 
DB12448

>  <COMMON_NAME>  (1) 
Lifibrol

>  <CAS_NUMBER>  (1) 
96609-16-4

>  <UNII>  (1) 
6KWX9X0Q5K

>  <SYNONYMS>  (1) 
Lifibrol

$$$$
