
     RDKit          3D

 33 35  0  0  0  0  0  0  0  0999 V2000
    0.9212   -0.0718   -0.0745 C   0  0  0  0  0  0  0  0  0  0  0  0
    2.4360    0.6048   -4.1276 C   0  0  0  0  0  0  0  0  0  0  0  0
    0.1966    0.2448   -4.8596 C   0  0  0  0  0  0  0  0  0  0  0  0
    2.0923    0.1921   -2.8223 C   0  0  0  0  0  0  0  0  0  0  0  0
   -0.0843   -0.2689   -3.6008 C   0  0  0  0  0  0  0  0  0  0  0  0
    0.8389   -0.3081   -9.8283 C   0  0  0  0  0  0  0  0  0  0  0  0
   -0.6444   -0.7031   -9.7708 C   0  0  0  0  0  0  0  0  0  0  0  0
   -2.7338   -2.6606   -2.1525 C   0  0  0  0  0  0  0  0  0  0  0  0
   -0.5095   -1.8774   -1.0980 C   0  0  0  0  0  0  0  0  0  0  0  0
    1.4930    0.5913   -5.1664 C   0  0  0  0  0  0  0  0  0  0  0  0
   -1.9009   -1.5292   -1.6136 C   0  0  0  0  0  0  0  0  0  0  0  0
    0.8185   -0.2993   -2.5285 C   0  0  0  0  0  0  0  0  0  0  0  0
    1.2942    0.8966   -8.9753 C   0  0  1  0  0  0  0  0  0  0  0  0
   -1.5931    0.2190  -10.4949 C   0  0  0  0  0  0  0  0  0  0  0  0
   -3.4518   -0.0807   -2.4184 C   0  0  0  0  0  0  0  0  0  0  0  0
   -3.8251    1.1587   -2.8250 C   0  0  0  0  0  0  0  0  0  0  0  0
   -4.3077   -1.1895   -2.9777 C   0  0  0  0  0  0  0  0  0  0  0  0
    1.9130    0.8129   -6.5775 C   0  0  0  0  0  0  0  0  0  0  0  0
    0.8273    2.2603   -9.5015 C   0  0  0  0  0  0  0  0  0  0  0  0
   -5.7908    0.2495   -3.8738 C   0  0  0  0  0  0  0  0  0  0  0  0
   -3.0550    2.2534   -2.5367 N   0  0  0  0  0  0  0  0  0  0  0  0
   -6.9383    0.4002   -4.4389 N   0  0  0  0  0  0  0  0  0  0  0  0
   -3.8507   -2.4773   -2.7776 N   0  0  0  0  0  0  0  0  0  0  0  0
   -2.3240   -0.3010   -1.6612 N   0  0  0  0  0  0  0  0  0  0  0  0
    0.9562    0.6788   -7.5712 N   0  0  0  0  0  0  0  0  0  0  0  0
   -4.9900    1.2987   -3.5333 N   0  0  0  0  0  0  0  0  0  0  0  0
   -5.4044   -1.0415   -3.6451 N   0  0  0  0  0  0  0  0  0  0  0  0
    0.4796   -0.7891   -1.2709 N   0  0  0  0  0  0  0  0  0  0  0  0
   -1.8827    0.1848  -11.6652 O   0  0  0  0  0  0  0  0  0  0  0  0
   -2.0814    1.1880   -9.7011 O   0  0  0  0  0  0  0  0  0  0  0  0
    3.0929    1.0384   -6.8224 O   0  0  0  0  0  0  0  0  0  0  0  0
    1.3016    2.8661  -10.4486 O   0  0  0  0  0  0  0  0  0  0  0  0
   -0.3219    2.7052   -8.9564 O   0  0  0  0  0  0  0  0  0  0  0  0
  4  2  2  0
  5  3  1  0
  7  6  1  0
 10  2  1  0
 10  3  2  0
 11  8  1  0
 11  9  1  0
 12  4  1  0
 12  5  2  0
 13  6  1  6
 13 19  1  0
 13 25  1  0
 14  7  1  0
 16 15  2  0
 17 15  1  0
 18 10  1  0
 21 16  1  0
 22 20  2  0
 23  8  2  0
 23 17  1  0
 24 11  2  0
 24 15  1  0
 25 18  1  0
 26 16  1  0
 26 20  1  0
 27 17  2  0
 27 20  1  0
 28  1  1  0
 28  9  1  0
 28 12  1  0
 29 14  2  0
 30 14  1  0
 31 18  2  0
 32 19  2  0
 33 19  1  0
M  END
>  <DRUGBANK_ID>  (1) 
DB00563

>  <SECONDARY_ACCESSION_NUMBERS>  (1) 
APRD00353

>  <COMMON_NAME>  (1) 
Methotrexate

>  <CAS_NUMBER>  (1) 
59-05-2

>  <UNII>  (1) 
YL5FZ2Y5U1

>  <SYNONYMS>  (1) 
4-amino-10-methylfolic acid; 4-amino-N(10)-methylpteroylglutamic acid; Amethopterin; Methotrexat; MÃ©thotrexate; Methotrexate; Methotrexatum; Metotrexato; MTX; N-[4-[[(2,4-diamino-6-pteridinyl)methyl]methylamino]benzoyl]-L-glutamic acid

$$$$
