
     RDKit          3D

 18 17  0  0  0  0  0  0  0  0999 V2000
   -1.4329   -0.9516   -1.7454 S   0  0  0  0  0  0  0  0  0  0  0  0
    5.4779    0.8809   -3.3107 O   0  0  0  0  0  0  0  0  0  0  0  0
    4.6931   -2.7362   -0.5853 O   0  0  0  0  0  0  0  0  0  0  0  0
    2.8900    0.5427   -1.2801 O   0  0  0  0  0  0  0  0  0  0  0  0
    1.2480   -3.4943   -5.3606 O   0  0  0  0  0  0  0  0  0  0  0  0
    2.9789   -0.2589   -3.3883 N   0  0  0  0  0  0  0  0  0  0  0  0
    0.7987   -2.4759   -3.3933 N   0  0  0  0  0  0  0  0  0  0  0  0
    6.0016   -1.1639   -1.9858 C   0  0  0  0  0  0  0  0  0  0  0  0
    5.0876    0.1005   -2.1509 C   0  0  2  0  0  0  0  0  0  0  0  0
    5.8245   -1.8667   -0.6162 C   0  0  0  0  0  0  0  0  0  0  0  0
    6.0451   -2.3061   -3.0260 C   0  0  0  0  0  0  0  0  0  0  0  0
    7.4012   -0.5212   -2.0720 C   0  0  0  0  0  0  0  0  0  0  0  0
    3.5741    0.0849   -2.2051 C   0  0  0  0  0  0  0  0  0  0  0  0
    3.4835   -1.1807   -4.3928 C   0  0  0  0  0  0  0  0  0  0  0  0
    3.1363   -2.6598   -4.1689 C   0  0  0  0  0  0  0  0  0  0  0  0
    1.6712   -2.9283   -4.3541 C   0  0  0  0  0  0  0  0  0  0  0  0
    1.0813   -1.9092   -2.1739 C   0  0  0  0  0  0  0  0  0  0  0  0
    0.2427   -1.1771   -1.4316 C   0  0  0  0  0  0  0  0  0  0  0  0
  1 18  1  0
  3 10  1  0
  4 13  2  0
  5 16  2  0
  6 13  1  0
  6 14  1  0
  7 16  1  0
  7 17  1  0
  8 10  1  0
  8 11  1  0
  8 12  1  0
  9 13  1  0
  9  8  1  0
  9  2  1  6
 14 15  1  0
 15 16  1  0
 17 18  2  0
M  END
>  <DRUGBANK_ID>  (1) 
DB03738

>  <SECONDARY_ACCESSION_NUMBERS>  (1) 
EXPT02522

>  <COMMON_NAME>  (1) 
Pantothenoylaminoethenethiol

>  <SYNONYMS>  (1) 
2,4-Dihydroxy-N-[2-(2-mercapto-vinylcarbamoyl)-ethyl]-3,3-dimethyl-butyramide

$$$$
