
     RDKit          3D

 26 28  0  0  0  0  0  0  0  0999 V2000
    1.1377    0.0576    0.0068 O   0  0  0  0  0  0  0  0  0  0  0  0
    6.4273   -5.1546    0.1324 O   0  0  0  0  0  0  0  0  0  0  0  0
    4.9427   -5.7790   -1.4290 O   0  0  0  0  0  0  0  0  0  0  0  0
    3.1117    1.1687    0.2471 N   0  0  0  0  0  0  0  0  0  0  0  0
    7.2738   -0.3865   -1.8630 C   0  0  0  0  0  0  0  0  0  0  0  0
    8.8617    1.4225    0.0279 C   0  0  0  0  0  0  0  0  0  0  0  0
    8.7920   -0.5050   -1.7477 C   0  0  0  0  0  0  0  0  0  0  0  0
    9.5329    0.6437   -1.1252 C   0  0  0  0  0  0  0  0  0  0  0  0
    6.6264    0.5163   -0.8218 C   0  0  0  0  0  0  0  0  0  0  0  0
    7.3402    1.3119    0.0841 C   0  0  0  0  0  0  0  0  0  0  0  0
    6.8682    0.0905   -3.2711 C   0  0  0  0  0  0  0  0  0  0  0  0
    6.8028   -1.8420   -1.7064 C   0  0  0  0  0  0  0  0  0  0  0  0
    9.2463    2.8973   -0.2338 C   0  0  0  0  0  0  0  0  0  0  0  0
    9.5067    0.9755    1.3576 C   0  0  0  0  0  0  0  0  0  0  0  0
    5.2207    0.5732   -0.7913 C   0  0  0  0  0  0  0  0  0  0  0  0
    6.6062    2.0822    1.0261 C   0  0  0  0  0  0  0  0  0  0  0  0
    4.5081    1.3032    0.1553 C   0  0  0  0  0  0  0  0  0  0  0  0
    5.2035    2.0980    1.0510 C   0  0  0  0  0  0  0  0  0  0  0  0
    2.3633    0.0081    0.0781 C   0  0  0  0  0  0  0  0  0  0  0  0
    3.0397   -1.3284    0.0285 C   0  0  0  0  0  0  0  0  0  0  0  0
    2.6646   -2.2494   -0.9545 C   0  0  0  0  0  0  0  0  0  0  0  0
    4.1231   -1.6281    0.8647 C   0  0  0  0  0  0  0  0  0  0  0  0
    3.4101   -3.4276   -1.1345 C   0  0  0  0  0  0  0  0  0  0  0  0
    4.9004   -2.7698    0.6437 C   0  0  0  0  0  0  0  0  0  0  0  0
    4.5346   -3.7053   -0.3320 C   0  0  0  0  0  0  0  0  0  0  0  0
    5.3101   -4.9562   -0.5937 C   0  0  0  0  0  0  0  0  0  0  0  0
  1 19  2  0
  2 26  1  0
  3 26  2  0
  4 17  1  0
  4 19  1  0
  5  7  1  0
  5  9  1  0
  5 11  1  0
  5 12  1  0
  6  8  1  0
  6 10  1  0
  6 13  1  0
  6 14  1  0
  7  8  1  0
  9 10  2  0
  9 15  1  0
 10 16  1  0
 15 17  2  0
 16 18  2  0
 17 18  1  0
 19 20  1  0
 20 21  2  0
 20 22  1  0
 21 23  1  0
 22 24  2  0
 23 25  2  0
 24 25  1  0
 25 26  1  0
M  END
>  <DRUGBANK_ID>  (1) 
DB04942

>  <SECONDARY_ACCESSION_NUMBERS>  (1) 
EXPT00376; DB03873

>  <COMMON_NAME>  (1) 
Tamibarotene

>  <CAS_NUMBER>  (1) 
94497-51-5

>  <UNII>  (1) 
08V52GZ3H9

>  <SYNONYMS>  (1) 
retinobenzoic acid; Tamibarotene

$$$$
