
     RDKit          3D

 11 12  0  0  0  0  0  0  0  0999 V2000
    1.3665   -0.2128    0.0037 C   0  0  0  0  0  0  0  0  0  0  0  0
    0.4871   -1.2941    0.0055 C   0  0  0  0  0  0  0  0  0  0  0  0
    0.8683    1.0889   -0.0118 C   0  0  0  0  0  0  0  0  0  0  0  0
   -0.8920   -1.0737   -0.0313 C   0  0  0  0  0  0  0  0  0  0  0  0
   -0.5110    1.3100   -0.0216 C   0  0  0  0  0  0  0  0  0  0  0  0
   -3.8838    0.0421    0.6394 C   0  0  0  0  0  0  0  0  0  0  0  0
   -4.7870    1.1441   -0.9455 C   0  0  0  0  0  0  0  0  0  0  0  0
   -1.4004    0.2303   -0.0637 C   0  0  0  0  0  0  0  0  0  0  0  0
   -2.8335    0.4559   -0.1530 C   0  0  0  0  0  0  0  0  0  0  0  0
   -5.0867    0.4802    0.1445 N   0  0  0  0  0  0  0  0  0  0  0  0
   -3.4394    1.1559   -1.1726 N   0  0  0  0  0  0  0  0  0  0  0  0
  2  1  2  0
  3  1  1  0
  4  2  1  0
  5  3  2  0
  8  4  2  0
  8  5  1  0
  9  6  2  0
  9  8  1  0
 10  6  1  0
 10  7  2  0
 11  7  1  0
 11  9  1  0
M  END
>  <DRUGBANK_ID>  (1) 
DB03254

>  <SECONDARY_ACCESSION_NUMBERS>  (1) 
EXPT02601

>  <COMMON_NAME>  (1) 
4-Phenyl-1h-Imidazole

>  <UNII>  (1) 
8VQ67XR7XY

$$$$
