
     RDKit          3D

 21 23  0  0  0  0  0  0  0  0999 V2000
   -5.8484   -1.0983   -1.5857 N   0  0  0  0  0  0  0  0  0  0  0  0
   -4.9806   -0.0979   -0.9800 C   0  0  2  0  0  0  0  0  0  0  0  0
   -6.4672   -0.6802   -2.7501 C   0  0  0  0  0  0  0  0  0  0  0  0
   -4.8597   -2.0385   -1.7269 C   0  0  0  0  0  0  0  0  0  0  0  0
   -6.1573    0.5683   -3.1884 C   0  0  0  0  0  0  0  0  0  0  0  0
   -5.0323    1.3584   -2.0567 S   0  0  0  0  0  0  0  0  0  0  0  0
   -3.7997   -1.0505   -1.2501 C   0  0  2  0  0  0  0  0  0  0  0  0
  -10.0012   -0.5305   -6.0535 S   0  0  0  0  0  0  0  0  0  0  0  0
   -7.3168   -1.7604   -3.2754 C   0  0  0  0  0  0  0  0  0  0  0  0
   -6.5024    1.5690   -4.5711 S   0  0  0  0  0  0  0  0  0  0  0  0
   -4.8290   -3.1083   -2.2849 O   0  0  0  0  0  0  0  0  0  0  0  0
   -9.0911    0.6668   -4.9739 C   0  0  0  0  0  0  0  0  0  0  0  0
   -7.7554    0.8811   -5.6810 C   0  0  2  0  0  0  0  0  0  0  0  0
  -10.5653   -1.6267   -5.0677 O   0  0  0  0  0  0  0  0  0  0  0  0
   -2.9688   -1.4588   -0.0599 C   0  0  2  0  0  0  0  0  0  0  0  0
   -7.6534   -2.8212   -2.7735 O   0  0  0  0  0  0  0  0  0  0  0  0
   -8.4353   -1.2742   -6.8056 C   0  0  0  0  0  0  0  0  0  0  0  0
   -7.2591   -0.3258   -6.5187 C   0  0  0  0  0  0  0  0  0  0  0  0
   -7.8547   -1.4150   -4.3911 O   0  0  0  0  0  0  0  0  0  0  0  0
   -1.7381   -0.7436   -0.1298 O   0  0  0  0  0  0  0  0  0  0  0  0
   -2.6643   -2.9487   -0.0740 C   0  0  0  0  0  0  0  0  0  0  0  0
  2  1  1  0
  2  7  1  0
  3  1  1  0
  4  1  1  0
  5  3  2  0
  2  6  1  6
  6  5  1  0
  7  4  1  1
  8 12  1  0
  8 17  1  0
  8 14  1  1
  9  3  1  0
 10  5  1  0
 11  4  2  0
 12 13  1  0
 13 10  1  1
 15 20  1  0
 15  7  1  0
 16  9  2  0
 17 18  1  0
 18 13  1  0
 19  9  1  0
 15 21  1  6
M  CHG  2   8   1  14  -1
M  END
>  <DRUGBANK_ID>  (1) 
DB15284

>  <COMMON_NAME>  (1) 
Sulopenem

>  <CAS_NUMBER>  (1) 
120788-07-0

>  <UNII>  (1) 
XX514BJ1XW

>  <SYNONYMS>  (1) 
Sulopenem

$$$$
