
     RDKit          3D

 14 14  0  0  0  0  0  0  0  0999 V2000
    0.9400    0.0926    0.0178 C   0  0  0  0  0  0  0  0  0  0  0  0
    0.1725    0.9525    0.8238 N   0  0  0  0  0  0  0  0  0  0  0  0
    0.2408   -0.8451   -0.9799 C   0  0  0  0  0  0  0  0  0  0  0  0
   -1.2484    0.9731    0.8895 C   0  0  0  0  0  0  0  0  0  0  0  0
    2.1802    0.1278    0.0849 O   0  0  0  0  0  0  0  0  0  0  0  0
   -1.9367    2.1930    0.8656 C   0  0  0  0  0  0  0  0  0  0  0  0
   -1.9919   -0.2118    0.9770 C   0  0  0  0  0  0  0  0  0  0  0  0
    0.7616   -0.4806   -2.6389 Cl  0  0  0  0  0  0  0  0  0  0  0  0
    0.6307   -2.5296   -0.5473 Cl  0  0  0  0  0  0  0  0  0  0  0  0
   -4.0492    1.0275    0.9051 C   0  0  0  0  0  0  0  0  0  0  0  0
   -3.3889   -0.1920    0.9505 C   0  0  0  0  0  0  0  0  0  0  0  0
   -3.3343    2.2176    0.8706 C   0  0  0  0  0  0  0  0  0  0  0  0
    0.9074    1.8841    1.6823 C   0  0  0  0  0  0  0  0  0  0  0  0
   -5.4088    1.1057    0.9045 O   0  0  0  0  0  0  0  0  0  0  0  0
  2  1  1  0
  3  1  1  0
  4  2  1  0
  5  1  2  0
  6  4  2  0
  7  4  1  0
  8  3  1  0
  9  3  1  0
 10 11  1  0
 11  7  2  0
 12  6  1  0
 12 10  2  0
 13  2  1  0
 14 10  1  0
M  END
>  <DRUGBANK_ID>  (1) 
DB08792

>  <COMMON_NAME>  (1) 
Diloxanide

>  <CAS_NUMBER>  (1) 
579-38-4

>  <UNII>  (1) 
89134SCM7M

>  <SYNONYMS>  (1) 
Diloxanide

$$$$
