H23
     RDKit          3D

 21 20  0  0  0  0  0  0  0  0999 V2000
    1.1055   -0.1750   -0.0583 C   0  0  0  0  0  0  0  0  0  0  0  0
    0.6734    0.0964    1.3731 C   0  0  0  0  0  0  0  0  0  0  0  0
    1.1768    1.4669    1.8270 C   0  0  0  0  0  0  0  0  0  0  0  0
    0.6153    2.5839    0.9398 C   0  0  0  0  0  0  0  0  0  0  0  0
   -0.9155    2.5781    0.9821 C   0  0  0  0  0  0  0  0  0  0  0  0
   -1.3797    2.7943    2.4249 C   0  0  0  0  0  0  0  0  0  0  0  0
   -0.8375    4.1379    2.9290 C   0  0  0  0  0  0  0  0  0  0  0  0
   -1.3903    5.2521    2.0480 C   0  0  0  0  0  0  0  0  0  0  0  0
   -2.9089    5.1703    2.1229 C   0  0  0  0  0  0  0  0  0  0  0  0
   -3.3241    5.4668    3.5764 C   0  0  0  0  0  0  0  0  0  0  0  0
   -2.9593    6.9089    4.0018 C   0  0  0  0  0  0  0  0  0  0  0  0
   -3.4778    7.9841    3.0410 C   0  0  0  0  0  0  0  0  0  0  0  0
   -5.3078    7.9841    3.0410 P   0  0  0  0  0  0  0  0  0  0  0  0
   -5.5221    6.4284    2.6273 O   0  0  0  0  0  0  0  0  0  0  0  0
   -5.3257    8.7551    1.7097 O   0  0  0  0  0  0  0  0  0  0  0  0
   -7.0378    7.9841    3.0410 O   0  0  0  0  0  0  0  0  0  0  0  0
   -2.7658    9.7154    3.2412 P   0  0  0  0  0  0  0  0  0  0  0  0
   -1.3453    9.8844    2.7646 O   0  0  0  0  0  0  0  0  0  0  0  0
   -3.7659   10.6380    2.3888 O   0  0  0  0  0  0  0  0  0  0  0  0
   -3.0563   10.3614    4.6664 O   0  0  0  0  0  0  0  0  0  0  0  0
   -3.0495    7.7524    1.6703 O   0  0  0  0  0  0  0  0  0  0  0  0
  1  2  1  0
  2  3  1  0
  3  4  1  0
  4  5  1  0
  5  6  1  0
  6  7  1  0
  7  8  1  0
  8  9  1  0
  9 10  1  0
 10 11  1  0
 11 12  1  0
 12 13  1  0
 12 17  1  0
 12 21  1  0
 13 15  2  0
 13 14  1  0
 13 16  1  0
 17 18  2  0
 17 19  1  0
 17 20  1  0
M  END
>  <DRUGBANK_ID>  (1) 
DB07873

>  <COMMON_NAME>  (1) 
Lauryl alcohol diphosphonic acid

>  <CAS_NUMBER>  (1) 
16610-63-2

>  <UNII>  (1) 
S888WM4024

$$$$
