
     RDKit          3D

 33 33  0  0  0  0  0  0  0  0999 V2000
    0.7445    0.3295   -0.1873 C   0  0  0  0  0  0  0  0  0  0  0  0
    0.4206   -0.1571    1.2174 C   0  0  0  0  0  0  0  0  0  0  0  0
    1.0023    0.4787    2.3947 O   0  0  0  0  0  0  0  0  0  0  0  0
    2.7323    0.4787    2.3947 P   0  0  0  0  0  0  0  0  0  0  0  0
    2.6650    1.6953    3.3406 O   0  0  0  0  0  0  0  0  0  0  0  0
    2.6117   -0.9032    3.3585 O   0  0  0  0  0  0  0  0  0  0  0  0
    1.4225   -1.7086    3.5405 C   0  0  0  0  0  0  0  0  0  0  0  0
    0.5081   -1.0759    4.5591 C   0  0  0  0  0  0  0  0  0  0  0  0
    4.5623    0.4787    2.3947 C   0  0  0  0  0  0  0  0  0  0  0  0
    5.2460    0.5910    3.5854 C   0  0  0  0  0  0  0  0  0  0  0  0
    6.7300    0.6755    3.7449 C   0  0  0  0  0  0  0  0  0  0  0  0
    7.4948    1.5751    2.9692 C   0  0  0  0  0  0  0  0  0  0  0  0
    8.9072    1.4735    2.8307 C   0  0  0  0  0  0  0  0  0  0  0  0
    9.5257    0.5242    3.6413 C   0  0  0  0  0  0  0  0  0  0  0  0
   10.8817    0.3253    3.6475 O   0  0  0  0  0  0  0  0  0  0  0  0
    8.8281   -0.3530    4.4933 C   0  0  0  0  0  0  0  0  0  0  0  0
    7.4108   -0.2799    4.5066 C   0  0  0  0  0  0  0  0  0  0  0  0
    9.5727   -1.3779    5.3927 C   0  0  0  0  0  0  0  0  0  0  0  0
    9.1792   -1.0862    6.8488 C   0  0  0  0  0  0  0  0  0  0  0  0
    9.1859   -2.8095    4.9894 C   0  0  0  0  0  0  0  0  0  0  0  0
   11.1311   -1.3457    5.3701 C   0  0  0  0  0  0  0  0  0  0  0  0
    9.6135    2.3573    1.7787 C   0  0  0  0  0  0  0  0  0  0  0  0
    9.2160    1.9630    0.3404 C   0  0  0  0  0  0  0  0  0  0  0  0
    9.2251    3.8169    2.0580 C   0  0  0  0  0  0  0  0  0  0  0  0
   11.1518    2.3204    1.7856 C   0  0  0  0  0  0  0  0  0  0  0  0
    5.4773    0.4904    0.8099 P   0  0  0  0  0  0  0  0  0  0  0  0
    6.6315   -0.2992    1.4056 O   0  0  0  0  0  0  0  0  0  0  0  0
    4.4924   -0.6020    0.0382 O   0  0  0  0  0  0  0  0  0  0  0  0
    3.6040   -1.5044    0.6153 C   0  0  0  0  0  0  0  0  0  0  0  0
    4.1810   -2.3363    1.7400 C   0  0  0  0  0  0  0  0  0  0  0  0
    6.3423    0.5014   -0.6882 O   0  0  0  0  0  0  0  0  0  0  0  0
    6.7118   -0.8238   -1.2231 C   0  0  0  0  0  0  0  0  0  0  0  0
    7.5503   -1.7562   -0.3263 C   0  0  0  0  0  0  0  0  0  0  0  0
  1  2  1  0
  2  3  1  0
  3  4  1  0
  4  5  2  0
  4  6  1  0
  4  9  1  0
  6  7  1  0
  7  8  1  0
  9 10  2  3
  9 26  1  0
 10 11  1  0
 11 12  2  0
 11 17  1  0
 12 13  1  0
 13 14  2  0
 13 22  1  0
 14 15  1  0
 14 16  1  0
 16 17  2  0
 16 18  1  0
 18 19  1  0
 18 20  1  0
 18 21  1  0
 22 23  1  0
 22 24  1  0
 22 25  1  0
 26 27  2  0
 26 28  1  0
 26 31  1  0
 28 29  1  0
 29 30  1  0
 31 32  1  0
 32 33  1  0
M  END
>  <DRUGBANK_ID>  (1) 
DB04466

>  <SECONDARY_ACCESSION_NUMBERS>  (1) 
EXPT02953

>  <COMMON_NAME>  (1) 
SR12813

>  <CAS_NUMBER>  (1) 
126411-39-0

>  <UNII>  (1) 
6Q7MN2PVB9

$$$$
