
     RDKit          3D

 21 22  0  0  0  0  0  0  0  0999 V2000
    1.1630   -0.2541   -0.0321 C   0  0  0  0  0  0  0  0  0  0  0  0
    1.4637    2.1957   -0.2883 C   0  0  0  0  0  0  0  0  0  0  0  0
   -8.4744    0.1156   -3.2212 C   0  0  0  0  0  0  0  0  0  0  0  0
   -4.2721    1.4749    1.8281 C   0  0  0  0  0  0  0  0  0  0  0  0
   -5.1666    0.6180    1.2398 C   0  0  0  0  0  0  0  0  0  0  0  0
   -3.8659    2.6204    1.1390 C   0  0  0  0  0  0  0  0  0  0  0  0
   -6.5920    0.4818   -0.8829 C   0  0  0  0  0  0  0  0  0  0  0  0
   -1.0168    2.3964    1.2615 C   0  0  0  0  0  0  0  0  0  0  0  0
   -1.7180    3.5672   -0.9287 C   0  0  0  0  0  0  0  0  0  0  0  0
    0.8561    1.0982    0.5638 C   0  0  0  0  0  0  0  0  0  0  0  0
   -7.2863    1.0597   -3.2877 C   0  0  0  0  0  0  0  0  0  0  0  0
   -5.5494    0.9301   -0.0654 C   0  0  0  0  0  0  0  0  0  0  0  0
   -1.0812    3.7346    0.4668 C   0  0  0  0  0  0  0  0  0  0  0  0
   -3.8738    2.7025   -0.2584 C   0  0  0  0  0  0  0  0  0  0  0  0
   -6.4689    1.1251   -2.0924 C   0  0  0  0  0  0  0  0  0  0  0  0
   -4.8633    1.8957   -0.8050 C   0  0  0  0  0  0  0  0  0  0  0  0
   -0.5714    1.1870    0.6120 N   0  0  0  0  0  0  0  0  0  0  0  0
   -7.0730    1.6957   -4.3051 O   0  0  0  0  0  0  0  0  0  0  0  0
   -1.6835    4.7958    1.2202 O   0  0  0  0  0  0  0  0  0  0  0  0
   -3.1662    3.6459   -0.9648 O   0  0  0  0  0  0  0  0  0  0  0  0
   -5.3757    1.9558   -2.0691 O   0  0  0  0  0  0  0  0  0  0  0  0
  5  4  2  0
  6  4  1  0
 10  1  1  0
 10  2  1  0
 11  3  1  0
 12  5  1  0
 12  7  1  0
 13  8  1  0
 13  9  1  0
 14  6  2  0
 15  7  2  0
 15 11  1  0
 16 12  2  0
 16 14  1  0
 17  8  1  0
 17 10  1  0
 18 11  2  0
 19 13  1  0
 20  9  1  0
 20 14  1  0
 21 15  1  0
 21 16  1  0
M  END
>  <DRUGBANK_ID>  (1) 
DB09013

>  <COMMON_NAME>  (1) 
Befunolol

>  <CAS_NUMBER>  (1) 
39552-01-7

>  <UNII>  (1) 
418546MT3A

>  <SYNONYMS>  (1) 
Befunolol; Befunololum

$$$$
