LIG
     RDKit          3D

 18 21  0  0  0  0  0  0  0  0999 V2000
   -3.1084   -0.5253    0.0032 N   0  0  0  0  0  0  0  0  0  0  0  0
   -2.0116   -1.3421    0.0086 N   0  0  0  0  0  0  0  0  0  0  0  0
   -1.0127   -0.4751   -0.0030 C   0  0  0  0  0  0  0  0  0  0  0  0
   -1.4423    0.8604   -0.0183 C   0  0  0  0  0  0  0  0  0  0  0  0
   -2.8161    0.8284   -0.0193 C   0  0  0  0  0  0  0  0  0  0  0  0
   -3.7918    1.9136   -0.0390 C   0  0  0  0  0  0  0  0  0  0  0  0
   -3.7262    2.8842   -1.0416 C   0  0  0  0  0  0  0  0  0  0  0  0
   -4.5327    4.0066   -0.9379 C   0  0  0  0  0  0  0  0  0  0  0  0
   -5.4489    4.1813    0.0355 N   0  0  0  0  0  0  0  0  0  0  0  0
   -5.5504    3.1964    0.9529 C   0  0  0  0  0  0  0  0  0  0  0  0
   -4.7372    2.0703    0.9751 C   0  0  0  0  0  0  0  0  0  0  0  0
   -0.3365    1.8526   -0.0104 C   0  0  0  0  0  0  0  0  0  0  0  0
    0.8292    0.8584   -0.0024 C   0  0  0  0  0  0  0  0  0  0  0  0
    0.4209   -0.5023    0.0013 C   0  0  0  0  0  0  0  0  0  0  0  0
    1.3358   -1.5349    0.0030 C   0  0  0  0  0  0  0  0  0  0  0  0
    2.6980   -1.1953    0.0011 C   0  0  0  0  0  0  0  0  0  0  0  0
    3.1131    0.1503   -0.0010 C   0  0  0  0  0  0  0  0  0  0  0  0
    2.1779    1.1878   -0.0012 C   0  0  0  0  0  0  0  0  0  0  0  0
  1  2  1  0
  1  5  1  0
  2  3  2  0
  3  4  1  0
  3 14  1  0
  4  5  2  0
  4 12  1  0
  5  6  1  0
  6  7  2  0
  6 11  1  0
  7  8  1  0
  8  9  2  0
  9 10  1  0
 10 11  2  0
 12 13  1  0
 13 14  2  0
 13 18  1  0
 14 15  1  0
 15 16  2  0
 16 17  1  0
 17 18  2  0
M  END
>  <DRUGBANK_ID>  (1) 
DB03490

>  <SECONDARY_ACCESSION_NUMBERS>  (1) 
EXPT02030

>  <COMMON_NAME>  (1) 
3-Pyridin-4-Yl-2,4-Dihydro-Indeno[1,2-.C.]Pyrazole

>  <UNII>  (1) 
0EMS99B8D6

$$$$
