
     RDKit          3D

 25 27  0  0  0  0  0  0  0  0999 V2000
   -2.0815   -0.0051   -0.0050 Cl  0  0  0  0  0  0  0  0  0  0  0  0
   -1.1120    2.4604    8.9564 S   0  0  0  0  0  0  0  0  0  0  0  0
    3.5923    2.5651    0.8807 N   0  0  0  0  0  0  0  0  0  0  0  0
   -0.0644    4.6464    5.9989 N   0  0  0  0  0  0  0  0  0  0  0  0
   -0.1044    2.2219    6.0607 N   0  0  0  0  0  0  0  0  0  0  0  0
    3.0395    5.1264    1.1558 C   0  0  0  0  0  0  0  0  0  0  0  0
    4.0696    3.9452    1.0827 C   0  0  0  0  0  0  0  0  0  0  0  0
    2.1408    5.0974    2.3712 C   0  0  0  0  0  0  0  0  0  0  0  0
    2.5304    2.4672   -0.1200 C   0  0  0  0  0  0  0  0  0  0  0  0
    1.7521    1.1770   -0.0275 C   0  0  0  0  0  0  0  0  0  0  0  0
    1.7519    3.8796    2.8844 C   0  0  0  0  0  0  0  0  0  0  0  0
    1.7221    6.2259    3.0781 C   0  0  0  0  0  0  0  0  0  0  0  0
    1.2835    3.7523    4.1637 C   0  0  0  0  0  0  0  0  0  0  0  0
    1.0169    6.0803    4.3045 C   0  0  0  0  0  0  0  0  0  0  0  0
    0.7537    4.8129    4.8594 C   0  0  0  0  0  0  0  0  0  0  0  0
    0.3448    1.1844   -0.0211 C   0  0  0  0  0  0  0  0  0  0  0  0
    2.4260   -0.0482   -0.0035 C   0  0  0  0  0  0  0  0  0  0  0  0
   -0.3601   -0.0187   -0.0105 C   0  0  0  0  0  0  0  0  0  0  0  0
    1.7161   -1.2465    0.0029 C   0  0  0  0  0  0  0  0  0  0  0  0
    0.3215   -1.2333   -0.0092 C   0  0  0  0  0  0  0  0  0  0  0  0
   -0.4327    3.4910    6.5080 C   0  0  0  0  0  0  0  0  0  0  0  0
   -1.3330    3.5621    7.6574 C   0  0  0  0  0  0  0  0  0  0  0  0
   -2.4513    4.3484    7.8453 C   0  0  0  0  0  0  0  0  0  0  0  0
   -3.1212    4.0480    9.0693 C   0  0  0  0  0  0  0  0  0  0  0  0
   -2.4839    3.0550    9.7792 C   0  0  0  0  0  0  0  0  0  0  0  0
  1 18  1  0
  2 22  1  0
  2 25  1  0
  3  7  1  0
  3  9  1  0
  4 15  1  0
  4 21  2  0
  5 21  1  0
  6  7  1  0
  6  8  1  0
  8 11  2  0
  8 12  1  0
  9 10  1  0
 10 16  2  0
 10 17  1  0
 11 13  1  0
 12 14  2  0
 13 15  2  0
 14 15  1  0
 16 18  1  0
 17 19  2  0
 18 20  2  0
 19 20  1  0
 21 22  1  0
 22 23  2  0
 23 24  1  0
 24 25  2  0
M  END
>  <DRUGBANK_ID>  (1) 
DB03449

>  <SECONDARY_ACCESSION_NUMBERS>  (1) 
EXPT00560

>  <COMMON_NAME>  (1) 
N-(4-{2-[(3-chlorobenzyl)amino]ethyl}phenyl)thiophene-2-carboximidamide

$$$$
