582
     RDKit          3D

 25 27  0  0  1  0  0  0  0  0999 V2000
    2.1041    1.0692    0.4741 F   0  0  0  0  0  0  0  0  0  0  0  0
    2.4922   -5.6502    1.2219 F   0  0  0  0  0  0  0  0  0  0  0  0
   -2.5059    0.9420   -0.0029 F   0  0  0  0  0  0  0  0  0  0  0  0
    2.5797   -2.7994   -1.0296 O   0  0  0  0  0  0  0  0  0  0  0  0
    3.8179   -0.1215   -1.3035 N   0  0  0  0  0  0  0  0  0  0  0  0
    0.2091   -2.9807    2.0571 N   0  0  0  0  0  0  0  0  0  0  0  0
    4.0903    1.2021   -1.2419 N   0  0  0  0  0  0  0  0  0  0  0  0
    3.4606    0.5868   -3.3431 N   0  0  0  0  0  0  0  0  0  0  0  0
   -1.0083   -5.0229    1.8772 N   0  0  0  0  0  0  0  0  0  0  0  0
    2.4695   -1.8358    0.0515 C   0  0  1  0  0  0  0  0  0  0  0  0
    2.5679   -2.7195    1.3868 C   0  0  1  0  0  0  0  0  0  0  0  0
    3.7527   -0.9291   -0.0913 C   0  0  0  0  0  0  0  0  0  0  0  0
    1.1468   -1.0499   -0.0898 C   0  0  0  0  0  0  0  0  0  0  0  0
    2.8541   -1.8801    2.6324 C   0  0  0  0  0  0  0  0  0  0  0  0
    1.3527   -3.6070    1.6845 C   0  0  0  0  0  0  0  0  0  0  0  0
    1.0432    0.3369    0.1163 C   0  0  0  0  0  0  0  0  0  0  0  0
   -0.0676   -1.7155   -0.3597 C   0  0  0  0  0  0  0  0  0  0  0  0
    1.3744   -4.9801    1.5165 C   0  0  0  0  0  0  0  0  0  0  0  0
   -0.1575    1.0282    0.0398 C   0  0  0  0  0  0  0  0  0  0  0  0
   -1.2962   -1.0595   -0.2583 C   0  0  0  0  0  0  0  0  0  0  0  0
    3.5289   -0.4826   -2.5832 C   0  0  0  0  0  0  0  0  0  0  0  0
   -1.3317    0.3114   -0.0856 C   0  0  0  0  0  0  0  0  0  0  0  0
    0.1680   -5.6422    1.6471 C   0  0  0  0  0  0  0  0  0  0  0  0
   -0.9259   -3.7046    2.0823 C   0  0  0  0  0  0  0  0  0  0  0  0
    3.7801    1.5933   -2.4805 C   0  0  0  0  0  0  0  0  0  0  0  0
  1 16  1  0
  2 18  1  0
  3 22  1  0
  5  7  1  0
  5 12  1  0
  5 21  1  0
  6 15  2  0
  6 24  1  0
  7 25  2  0
  8 21  2  0
  8 25  1  0
  9 23  1  0
  9 24  2  0
 10 12  1  0
 10 13  1  0
 10 11  1  0
 10  4  1  6
 11 14  1  1
 11 15  1  0
 13 16  2  0
 13 17  1  0
 15 18  1  0
 16 19  1  0
 17 20  2  0
 18 23  2  0
 19 22  2  0
 20 22  1  0
M  END
>  <DRUGBANK_ID>  (1) 
DB00582

>  <SECONDARY_ACCESSION_NUMBERS>  (1) 
APRD00543

>  <COMMON_NAME>  (1) 
Voriconazole

>  <CAS_NUMBER>  (1) 
137234-62-9

>  <UNII>  (1) 
JFU09I87TR

>  <SYNONYMS>  (1) 
(R-(R*,S*))-alpha-(2,4-difluorophenyl)-5-fluoro-beta-methyl-alpha-(1H-1,2,4-triazol-1-ylmethyl)-4-pyrimidineethanol; (αR,βS)-α-(2,4-difluorophenyl)-5-fluoro-β-methyl-α(1H-1,2,4-triazol-1-ylmethyl)-4-pyrimidineethanol; VCZ; Voriconazol; Voriconazole; Voriconazolum

$$$$
