
     RDKit          3D

 15 16  0  0  0  0  0  0  0  0999 V2000
    1.6005   -1.1756   -0.0022 N   0  0  0  0  0  0  0  0  0  0  0  0
    0.2963   -0.7638    0.0040 C   0  0  0  0  0  0  0  0  0  0  0  0
   -0.8891   -1.4160    0.0007 C   0  0  0  0  0  0  0  0  0  0  0  0
   -2.1041   -0.7389   -0.0055 N   0  0  0  0  0  0  0  0  0  0  0  0
   -2.0703    0.5604    0.0181 C   0  0  0  0  0  0  0  0  0  0  0  0
   -0.9391    1.3446    0.0507 N   0  0  0  0  0  0  0  0  0  0  0  0
    0.2723    0.7025    0.0104 C   0  0  0  0  0  0  0  0  0  0  0  0
    1.5043    1.1191   -0.0226 N   0  0  0  0  0  0  0  0  0  0  0  0
    2.2520   -0.0475   -0.0139 C   0  0  0  0  0  0  0  0  0  0  0  0
   -1.0278    2.7922    0.0164 C   0  0  0  0  0  0  0  0  0  0  0  0
   -0.3193    3.3843    1.2057 C   0  0  0  0  0  0  0  0  0  0  0  0
    0.7462    4.2069    1.1273 C   0  0  0  0  0  0  0  0  0  0  0  0
    1.4492    4.7167    2.3526 C   0  0  0  0  0  0  0  0  0  0  0  0
    1.3184    4.6287   -0.1988 C   0  0  0  0  0  0  0  0  0  0  0  0
   -0.9140   -2.7812   -0.0038 N   0  0  0  0  0  0  0  0  0  0  0  0
  1  2  1  0
  1  9  2  0
  2  3  2  0
  2  7  1  0
  3  4  1  0
  3 15  1  0
  4  5  2  0
  5  6  1  0
  6  7  1  0
  6 10  1  0
  7  8  2  0
  8  9  1  0
 10 11  1  0
 11 12  2  3
 12 13  1  0
 12 14  1  0
M  END
>  <DRUGBANK_ID>  (1) 
DB08074

>  <COMMON_NAME>  (1) 
3-(3-Methyl-2-buten-1-yl)-3H-purin-6-amine

$$$$
