
     RDKit          3D

 34 38  0  0  1  0  0  0  0  0999 V2000
    1.3321   -0.1892    0.0285 C   0  0  0  0  0  0  0  0  0  0  0  0
    0.3889   -1.2096    0.0395 C   0  0  0  0  0  0  0  0  0  0  0  0
    0.8934    1.1327    0.0344 C   0  0  0  0  0  0  0  0  0  0  0  0
   -0.9938   -0.8898    0.0478 C   0  0  0  0  0  0  0  0  0  0  0  0
   -0.4727    1.4504    0.1025 C   0  0  0  0  0  0  0  0  0  0  0  0
   -1.3878    7.8634    4.1542 C   0  0  0  0  0  0  0  0  0  0  0  0
   -0.2007    5.8373    3.6635 C   0  0  0  0  0  0  0  0  0  0  0  0
   -7.5256    1.6057    3.2942 C   0  0  0  0  0  0  0  0  0  0  0  0
   -6.2323   -0.3041    4.0470 C   0  0  0  0  0  0  0  0  0  0  0  0
   -0.4074    8.5773    3.4713 C   0  0  0  0  0  0  0  0  0  0  0  0
    0.6825    6.5165    2.8507 C   0  0  0  0  0  0  0  0  0  0  0  0
   -8.5779    1.2171    4.1248 C   0  0  0  0  0  0  0  0  0  0  0  0
   -7.2687   -0.6688    4.8980 C   0  0  0  0  0  0  0  0  0  0  0  0
   -2.9162    0.9258   -0.1578 C   0  0  0  0  0  0  0  0  0  0  0  0
   -2.6009    5.6674    4.4055 C   0  0  0  0  0  0  0  0  0  0  0  0
   -4.4221    2.2403    3.4120 C   0  0  0  0  0  0  0  0  0  0  0  0
   -1.4565    0.4666    0.0922 C   0  0  0  0  0  0  0  0  0  0  0  0
   -1.3679    6.4738    4.0967 C   0  0  0  0  0  0  0  0  0  0  0  0
   -6.3432    0.8542    3.2722 C   0  0  0  0  0  0  0  0  0  0  0  0
    0.5726    7.8881    2.7587 C   0  0  0  0  0  0  0  0  0  0  0  0
   -8.4333    0.0890    4.9289 C   0  0  0  0  0  0  0  0  0  0  0  0
   -3.8125    1.7416    0.8634 C   0  0  0  0  0  0  0  0  0  0  0  0
   -5.1321    1.3684    2.6562 C   0  0  0  0  0  0  0  0  0  0  0  0
   -3.6224    3.2090    1.6436 C   0  0  0  0  0  0  0  0  0  0  0  0
   -2.6417    3.9249    3.1205 C   0  0  0  0  0  0  0  0  0  0  0  0
   -3.6837    5.0322    3.3174 C   0  0  2  0  0  0  0  0  0  0  0  0
   -4.6705    0.9317    1.4564 N   0  0  0  0  0  0  0  0  0  0  0  0
   -3.9719    4.5323    1.6480 N   0  0  0  0  0  0  0  0  0  0  0  0
   -3.2848    2.7802    2.8617 N   0  0  0  0  0  0  0  0  0  0  0  0
    1.4689    8.5283    1.9615 O   0  0  0  0  0  0  0  0  0  0  0  0
   -9.4231   -0.3188    5.7724 O   0  0  0  0  0  0  0  0  0  0  0  0
   -1.5722    4.1013    2.5349 O   0  0  0  0  0  0  0  0  0  0  0  0
   -5.2969    5.7226    5.0289 O   0  0  0  0  0  0  0  0  0  0  0  0
   -4.8002    4.6476    4.1839 O   0  0  0  0  0  0  0  0  0  0  0  0
  2  1  2  0
  3  1  1  0
  4  2  1  0
  5  3  2  0
 10  6  2  0
 11  7  1  0
 12  8  2  0
 13  9  1  0
 17  4  2  0
 17  5  1  0
 17 14  1  0
 18  6  1  0
 18  7  2  0
 18 15  1  0
 19  8  1  0
 19  9  2  0
 20 10  1  0
 20 11  2  0
 21 12  1  0
 21 13  2  0
 22 14  1  0
 23 16  2  0
 23 19  1  0
 24 22  1  0
 26 15  1  6
 26 25  1  0
 26 34  1  0
 27 22  2  0
 27 23  1  0
 28 24  2  0
 28 26  1  0
 29 16  1  0
 29 24  1  0
 29 25  1  0
 30 20  1  0
 31 21  1  0
 32 25  2  0
 34 33  1  0
M  END
>  <DRUGBANK_ID>  (1) 
DB02241

>  <SECONDARY_ACCESSION_NUMBERS>  (1) 
EXPT01085

>  <COMMON_NAME>  (1) 
8-Benzyl-2-Hydroperoxy-2-(4-Hydroxy-Benzyl)-6-(4-Hydroxy-Phenyl)-2h-Imidazo[1,2-a]Pyrazin-3-One

$$$$
