460
     RDKit          3D

 22 25  0  0  0  0  0  0  0  0999 V2000
    2.4515   -0.0962   -0.0050 C   0  0  0  0  0  0  0  0  0  0  0  0
    0.9675   -0.0556    0.0319 C   0  0  0  0  0  0  0  0  0  0  0  0
    0.2652   -1.2639    0.0328 C   0  0  0  0  0  0  0  0  0  0  0  0
   -1.0321   -1.1010   -0.0318 C   0  0  0  0  0  0  0  0  0  0  0  0
   -1.2393    0.3567   -0.3216 C   0  0  0  0  0  0  0  0  0  0  0  0
   -0.9739    1.7569    0.1738 C   0  0  0  0  0  0  0  0  0  0  0  0
    0.3352    1.3742    0.0923 N   0  0  0  0  0  0  0  0  0  0  0  0
   -1.9791    3.4455    0.1215 C   0  0  0  0  0  0  0  0  0  0  0  0
   -2.6095    5.1516    0.6814 N   0  0  0  0  0  0  0  0  0  0  0  0
   -3.4004    4.4603    1.3742 N   0  0  0  0  0  0  0  0  0  0  0  0
   -3.7983    3.9291    0.0977 C   0  0  0  0  0  0  0  0  0  0  0  0
   -3.1111    2.6885    0.0804 C   0  0  0  0  0  0  0  0  0  0  0  0
   -3.9401    1.4690    0.0694 C   0  0  0  0  0  0  0  0  0  0  0  0
   -3.9077    0.0922    0.4016 C   0  0  0  0  0  0  0  0  0  0  0  0
   -5.1079   -0.7282   -0.0052 C   0  0  0  0  0  0  0  0  0  0  0  0
   -6.7354    0.1436   -0.0533 C   0  0  0  0  0  0  0  0  0  0  0  0
   -8.3171    1.4260    0.0160 N   0  0  0  0  0  0  0  0  0  0  0  0
   -9.2766    2.1604    0.0665 C   0  0  0  0  0  0  0  0  0  0  0  0
   -7.9525    2.1851    0.0655 C   0  0  0  0  0  0  0  0  0  0  0  0
   -6.9652    0.6445    0.0360 C   0  0  0  0  0  0  0  0  0  0  0  0
   -5.7958    0.8249   -0.0663 C   0  0  0  0  0  0  0  0  0  0  0  0
   -5.1366    1.9129   -0.0263 N   0  0  0  0  0  0  0  0  0  0  0  0
  1  2  1  0
  2  3  2  0
  2  7  1  0
  3  4  1  0
  4  5  2  0
  5  6  1  0
  6  7  2  0
  6  8  1  0
  8  9  1  0
  8 12  2  0
  9 10  1  0
 10 11  1  0
 11 12  1  0
 12 13  1  0
 13 14  2  0
 13 22  1  0
 14 15  1  0
 15 16  2  0
 16 17  1  0
 16 21  1  0
 17 18  2  0
 18 19  1  0
 19 20  2  0
 20 21  1  0
 21 22  2  0
M  END
>  <DRUGBANK_ID>  (1) 
DB04434

>  <SECONDARY_ACCESSION_NUMBERS>  (1) 
EXPT00199

>  <COMMON_NAME>  (1) 
Naphthyridine Inhibitor

$$$$
