
     RDKit          3D

 15 12  0  0  0  0  0  0  0  0999 V2000
    0.9061    0.0080    0.0334 Zr  0  0  0  0  0 15  0  0  0  0  0  0
    0.7030    1.2470   -0.2550 Si  0  0  0  0  0  4  0  0  0  0  0  0
    0.7020   -1.2480   -0.2550 Si  0  0  0  0  0  4  0  0  0  0  0  0
   -1.3670    0.0000   -0.2160 Si  0  0  0  0  0  4  0  0  0  0  0  0
    0.9325    0.0441   -0.0591 Na  0  0  0  0  0 15  0  0  0  0  0  0
    1.0439   -0.0105   -0.0892 Na  0  0  0  0  0 15  0  0  0  0  0  0
    1.4460   -0.0010    0.2330 O   0  0  0  0  0  0  0  0  0  0  0  0
   -0.7420    1.1990    0.2470 O   0  0  0  0  0  0  0  0  0  0  0  0
   -0.7430   -1.1990    0.2470 O   0  0  0  0  0  0  0  0  0  0  0  0
    1.5023    2.6980    0.3684 O   0  0  0  0  0  0  0  0  0  0  0  0
    0.7144    1.2892   -2.0245 O   0  0  0  0  0  0  0  0  0  0  0  0
    0.7165   -1.2958   -2.0243 O   0  0  0  0  0  0  0  0  0  0  0  0
    1.4990   -2.6976    0.3746 O   0  0  0  0  0  0  0  0  0  0  0  0
   -1.2273   -0.0002   -1.9805 O   0  0  0  0  0  0  0  0  0  0  0  0
   -3.0486    0.0006    0.3363 O   0  0  0  0  0  0  0  0  0  0  0  0
  2  7  1  0
  2  8  1  0
  2 10  1  0
  2 11  1  0
  3  7  1  0
  3  9  1  0
  3 12  1  0
  3 13  1  0
  4  8  1  0
  4  9  1  0
  4 14  1  0
  4 15  1  0
M  CHG  8   5   1   6   1  10  -1  11  -1  12  -1  13  -1  14  -1  15  -1
M  END
>  <DRUGBANK_ID>  (1) 
DB14048

>  <COMMON_NAME>  (1) 
Sodium zirconium cyclosilicate

>  <CAS_NUMBER>  (1) 
17141-74-1

>  <UNII>  (1) 
D652ZWF066

>  <SYNONYMS>  (1) 
Sodium zirconium cyclosilicate; Sodium zirconium silicate

$$$$
