
     RDKit          3D

 14 15  0  0  1  0  0  0  0  0999 V2000
    0.9733   -0.0406   -0.0910 C   0  0  0  0  0  0  0  0  0  0  0  0
    0.5366    0.3581    1.3256 C   0  0  2  0  0  0  0  0  0  0  0  0
    0.8442    1.8547    1.5613 C   0  0  2  0  0  0  0  0  0  0  0  0
    0.7330    2.2289    3.0443 C   0  0  1  0  0  0  0  0  0  0  0  0
    1.7644    1.4260    3.8605 C   0  0  2  0  0  0  0  0  0  0  0  0
    1.7290   -0.0084    3.5073 C   0  0  0  0  0  0  0  0  0  0  0  0
    2.1773   -1.0547    4.1725 N   0  0  0  0  0  0  0  0  0  0  0  0
    1.8403   -2.1516    3.4168 N   0  0  0  0  0  0  0  0  0  0  0  0
    1.2021   -1.7929    2.3084 N   0  0  0  0  0  0  0  0  0  0  0  0
    1.1735   -0.4560    2.3446 N   0  0  0  0  0  0  0  0  0  0  0  0
    0.4622    0.8263   -1.1011 O   0  0  0  0  0  0  0  0  0  0  0  0
   -0.0151    2.6736    0.7582 O   0  0  0  0  0  0  0  0  0  0  0  0
    0.9221    3.6374    3.2111 O   0  0  0  0  0  0  0  0  0  0  0  0
    1.4571    1.5522    5.2435 O   0  0  0  0  0  0  0  0  0  0  0  0
  2  1  1  6
  3  2  1  0
  3 12  1  6
  4  3  1  0
  4 13  1  6
  5  4  1  0
  5 14  1  1
  6  5  1  0
  7  6  2  0
  8  7  1  0
  9  8  2  0
 10  2  1  0
 10  6  1  0
 10  9  1  0
 11  1  1  0
M  END
>  <DRUGBANK_ID>  (1) 
DB02471

>  <SECONDARY_ACCESSION_NUMBERS>  (1) 
EXPT02395

>  <COMMON_NAME>  (1) 
Nojirimycine Tetrazole

$$$$
