LZ4
     RDKit          3D

 18 19  0  0  0  0  0  0  0  0999 V2000
    1.0597   -0.0142   -0.1047 N   0  0  0  0  0  0  0  0  0  0  0  0
    0.4284   -1.3609   -0.9013 S   0  0  0  0  0  0  0  0  0  0  0  0
    1.0745   -2.4895   -0.2804 O   0  0  0  0  0  0  0  0  0  0  0  0
   -1.0106   -1.2097   -0.9289 O   0  0  0  0  0  0  0  0  0  0  0  0
    1.0372   -1.2127   -2.5582 C   0  0  0  0  0  0  0  0  0  0  0  0
    1.2496    0.0309   -3.1586 C   0  0  0  0  0  0  0  0  0  0  0  0
    1.8222    0.1010   -4.4443 C   0  0  0  0  0  0  0  0  0  0  0  0
    2.2110   -1.0640   -5.1221 C   0  0  0  0  0  0  0  0  0  0  0  0
    2.7132   -1.0294   -6.4360 N   0  0  0  0  0  0  0  0  0  0  0  0
    2.9681   -2.1205   -7.2896 C   0  0  0  0  0  0  0  0  0  0  0  0
    2.0023   -3.1275   -7.4542 C   0  0  0  0  0  0  0  0  0  0  0  0
    2.1758   -4.2450   -8.2010 N   0  0  0  0  0  0  0  0  0  0  0  0
    3.3850   -4.3339   -8.7926 C   0  0  0  0  0  0  0  0  0  0  0  0
    4.3487   -3.3474   -8.6462 C   0  0  0  0  0  0  0  0  0  0  0  0
    5.8880   -3.5083   -9.3827 Cl  0  0  0  0  0  0  0  0  0  0  0  0
    4.1585   -2.2138   -7.9223 N   0  0  0  0  0  0  0  0  0  0  0  0
    2.0458   -2.2876   -4.4548 C   0  0  0  0  0  0  0  0  0  0  0  0
    1.4108   -2.3774   -3.2199 C   0  0  0  0  0  0  0  0  0  0  0  0
  1  2  1  0
  2  3  2  0
  2  4  2  0
  2  5  1  0
  5  6  2  0
  5 18  1  0
  6  7  1  0
  7  8  2  0
  8  9  1  0
  8 17  1  0
  9 10  1  0
 10 11  2  0
 10 16  1  0
 11 12  1  0
 12 13  2  0
 13 14  1  0
 14 15  1  0
 14 16  2  0
 17 18  2  0
M  END
>  <DRUGBANK_ID>  (1) 
DB08134

>  <COMMON_NAME>  (1) 
4-[(6-chloropyrazin-2-yl)amino]benzenesulfonamide

>  <UNII>  (1) 
RMT3PKK7NW

$$$$
