
     RDKit          3D

 22 25  0  0  0  0  0  0  0  0999 V2000
    1.2559    0.2899   -0.3589 O   0  0  0  0  0  0  0  0  0  0  0  0
   -4.0041   -9.3585    3.0996 O   0  0  0  0  0  0  0  0  0  0  0  0
   -0.4173   -1.6522    0.3389 C   0  0  1  0  0  0  0  0  0  0  0  0
   -0.4206   -3.0909   -0.2475 C   0  0  2  0  0  0  0  0  0  0  0  0
   -1.1009   -4.3140    0.4130 C   0  0  2  0  0  0  0  0  0  0  0  0
    0.6049   -0.6675   -1.1733 C   0  0  2  0  0  0  0  0  0  0  0  0
   -2.2193   -1.7511    0.9264 C   0  0  0  0  0  0  0  0  0  0  0  0
    1.0772   -3.1255   -0.3968 C   0  0  0  0  0  0  0  0  0  0  0  0
   -2.8203   -3.0282    1.6455 C   0  0  0  0  0  0  0  0  0  0  0  0
    1.3699   -2.0226   -1.4529 C   0  0  0  0  0  0  0  0  0  0  0  0
   -0.9802   -5.4701   -0.5878 C   0  0  0  0  0  0  0  0  0  0  0  0
    0.0134   -1.5501    1.8466 C   0  0  0  0  0  0  0  0  0  0  0  0
   -3.0666   -5.6380    1.3819 C   0  0  0  0  0  0  0  0  0  0  0  0
   -1.1179   -6.7721    0.1571 C   0  0  0  0  0  0  0  0  0  0  0  0
   -2.3098   -6.8078    1.0652 C   0  0  0  0  0  0  0  0  0  0  0  0
   -0.9151   -0.6675   -1.1733 C   0  0  0  0  0  0  0  0  0  0  0  0
   -4.1931   -5.8145    2.1915 C   0  0  0  0  0  0  0  0  0  0  0  0
   -2.6250   -8.0456    1.6579 C   0  0  0  0  0  0  0  0  0  0  0  0
   -4.5125   -7.0655    2.7658 C   0  0  0  0  0  0  0  0  0  0  0  0
   -3.6918   -8.1738    2.4978 C   0  0  0  0  0  0  0  0  0  0  0  0
   -2.2189   -0.6675   -1.1733 C   0  0  0  0  0  0  0  0  0  0  0  0
   -2.6207   -4.2732    0.7762 C   0  0  2  0  0  0  0  0  0  0  0  0
  2 20  1  0
  3  4  1  0
  3  6  1  0
  3  7  1  0
  3 12  1  1
  4  5  1  0
  4  8  1  1
  5 11  1  6
  5 22  1  0
  6  1  1  1
  6 10  1  0
  6 16  1  0
  7  9  1  0
  8 10  1  0
 11 14  1  0
 13 15  2  0
 13 17  1  0
 14 15  1  0
 15 18  1  0
 16 21  3  0
 17 19  2  0
 18 20  2  0
 19 20  1  0
 22  9  1  1
 22 13  1  0
M  END
>  <DRUGBANK_ID>  (1) 
DB00977

>  <SECONDARY_ACCESSION_NUMBERS>  (1) 
APRD00691

>  <COMMON_NAME>  (1) 
Ethinylestradiol

>  <CAS_NUMBER>  (1) 
57-63-6

>  <UNII>  (1) 
423D2T571U

>  <SYNONYMS>  (1) 
17-ethinyl-3,17-estradiol; 17-ethinyl-3,17-oestradiol; 17-ethinylestradiol; 17alpha-Ethinyl estradiol; 17Î±-ethynylestradiol; Ethinyl estradiol; Ethinylestradiol; Ethinylestradiolum; Ethinyloestradiol; Ethynyl estradiol; Etinilestradiol

$$$$
