
     RDKit          3D

 12 11  0  0  1  0  0  0  0  0999 V2000
    0.9993    0.3046   -0.1000 C   0  0  0  0  0  0  0  0  0  0  0  0
    0.5638   -0.5121   -1.3077 C   0  0  0  0  0  0  0  0  0  0  0  0
    1.0591   -1.9400   -1.1829 C   0  0  0  0  0  0  0  0  0  0  0  0
    0.5243   -2.5758    0.0865 C   0  0  0  0  0  0  0  0  0  0  0  0
   -1.0232   -2.7030    0.0769 C   0  0  0  0  0  0  0  0  0  0  0  0
   -1.5558   -3.5531   -1.1021 C   0  0  0  0  0  0  0  0  0  0  0  0
   -0.9458   -5.2762   -1.0153 P   0  0  2  0  0  0  0  0  0  0  0  0
   -0.2803   -5.0617   -2.4769 O   0  0  0  0  0  0  0  0  0  0  0  0
   -0.1805   -5.0364    0.2643 O   0  0  0  0  0  0  0  0  0  0  0  0
   -0.3691   -6.9052   -0.9332 O   0  0  0  0  0  0  0  0  0  0  0  0
    1.0725   -7.0368   -0.7851 C   0  0  0  0  0  0  0  0  0  0  0  0
    1.8980   -6.3497   -1.8742 C   0  0  0  0  0  0  0  0  0  0  0  0
  1  2  1  0
  2  3  1  0
  3  4  1  0
  4  5  1  0
  5  6  1  0
  6  7  1  0
  7  8  1  0
  7  9  2  0
  7 10  1  0
 10 11  1  0
 11 12  1  0
M  END
>  <DRUGBANK_ID>  (1) 
DB04321

>  <SECONDARY_ACCESSION_NUMBERS>  (1) 
EXPT01724

>  <COMMON_NAME>  (1) 
N-Hexylphosphonate Ethyl Ester

>  <UNII>  (1) 
94B7PG7ZRX

$$$$
