
     RDKit          3D

 24 26  0  0  0  0  0  0  0  0999 V2000
   -0.9805    1.4726   -0.0018 C   0  0  0  0  0  0  0  0  0  0  0  0
   -2.0813    0.6206   -0.0012 N   0  0  0  0  0  0  0  0  0  0  0  0
   -0.8929   -1.4287    0.0058 N   0  0  0  0  0  0  0  0  0  0  0  0
    0.2158   -0.6360    0.0183 C   0  0  0  0  0  0  0  0  0  0  0  0
    0.2654    0.7381    0.0023 C   0  0  0  0  0  0  0  0  0  0  0  0
    1.5482    1.2172   -0.0126 N   0  0  0  0  0  0  0  0  0  0  0  0
    2.2901    0.1355    0.0416 C   0  0  0  0  0  0  0  0  0  0  0  0
    1.5355   -1.0069    0.0628 N   0  0  0  0  0  0  0  0  0  0  0  0
    2.0847   -2.3411    0.1237 C   0  0  2  0  0  0  0  0  0  0  0  0
    2.9969   -2.4265    1.2543 O   0  0  0  0  0  0  0  0  0  0  0  0
    4.1202   -3.2539    0.9057 C   0  0  2  0  0  0  0  0  0  0  0  0
    5.4477   -2.5466    1.0080 C   0  0  0  0  0  0  0  0  0  0  0  0
    5.4135   -1.2682    0.3981 O   0  0  0  0  0  0  0  0  0  0  0  0
    3.8770   -3.7816   -0.4770 C   0  0  1  0  0  0  0  0  0  0  0  0
    3.4364   -5.1028   -0.0879 O   0  0  0  0  0  0  0  0  0  0  0  0
    2.9043   -2.7242   -1.1228 C   0  0  1  0  0  0  0  0  0  0  0  0
    2.1782   -3.0586   -2.3548 O   0  0  0  0  0  0  0  0  0  0  0  0
   -2.0174   -0.7576   -0.0039 C   0  0  0  0  0  0  0  0  0  0  0  0
   -3.2165   -1.3900   -0.0283 N   0  0  0  0  0  0  0  0  0  0  0  0
   -1.0961    2.6778   -0.0075 O   0  0  0  0  0  0  0  0  0  0  0  0
    1.6178   -4.6852   -2.1736 P   0  0  0  0  0  0  0  0  0  0  0  0
    3.0955   -5.2901   -2.2588 O   0  0  0  0  0  0  0  0  0  0  0  0
    0.9481   -4.4732   -0.8433 O   0  0  0  0  0  0  0  0  0  0  0  0
    1.0573   -6.3119   -1.9925 O   0  0  0  0  0  0  0  0  0  0  0  0
  1  2  1  0
  1  5  1  0
  2 18  1  0
  3  4  1  0
  4  5  2  0
  4  8  1  0
  5  6  1  0
  6  7  2  0
  7  8  1  0
  9  8  1  6
  9 10  1  0
  9 16  1  0
 10 11  1  0
 11 14  1  0
 11 12  1  6
 12 13  1  0
 14 15  1  1
 14 16  1  0
 16 17  1  6
 17 21  1  0
 18  3  2  0
 18 19  1  0
 20  1  2  0
 21 22  1  0
 21 23  2  0
 21 24  1  0
M  END
>  <DRUGBANK_ID>  (1) 
DB01937

>  <SECONDARY_ACCESSION_NUMBERS>  (1) 
EXPT00121

>  <COMMON_NAME>  (1) 
Guanosine-2'-monophosphate

>  <CAS_NUMBER>  (1) 
130-50-7

>  <SYNONYMS>  (1) 
2'-GMP; 2'-guanylic acid; 2'-O-phosphoguanosine; Guanosine 2'-phosphate

$$$$
