HPK
     RDKit          3D

 16 16  0  0  0  0  0  0  0  0999 V2000
    1.3879   -0.1506    0.0257 C   0  0  0  0  0  0  0  0  0  0  0  0
    0.8661    1.1328   -0.0106 C   0  0  0  0  0  0  0  0  0  0  0  0
   -0.5164    1.3210    0.0228 C   0  0  0  0  0  0  0  0  0  0  0  0
   -1.3819    0.2219   -0.0047 C   0  0  0  0  0  0  0  0  0  0  0  0
   -0.8630   -1.0767    0.0149 C   0  0  0  0  0  0  0  0  0  0  0  0
    0.5246   -1.2391    0.0666 C   0  0  0  0  0  0  0  0  0  0  0  0
   -1.7984   -2.2473    0.0226 C   0  0  0  0  0  0  0  0  0  0  0  0
   -3.0147   -2.0485    0.0518 O   0  0  0  0  0  0  0  0  0  0  0  0
   -1.2299   -3.6655    0.0703 C   0  0  0  0  0  0  0  0  0  0  0  0
   -0.3962   -3.9961   -1.1342 C   0  0  0  0  0  0  0  0  0  0  0  0
    0.8995   -4.3472   -1.0528 C   0  0  0  0  0  0  0  0  0  0  0  0
    1.7438   -4.5211   -2.2669 C   0  0  0  0  0  0  0  0  0  0  0  0
    1.2890   -4.4011   -3.4072 O   0  0  0  0  0  0  0  0  0  0  0  0
    3.2493   -4.8259   -2.0982 C   0  0  0  0  0  0  0  0  0  0  0  0
    3.6680   -4.8483   -0.8909 O   0  0  0  0  0  0  0  0  0  0  0  0
    3.9448   -5.0228   -3.1417 O   0  0  0  0  0  0  0  0  0  0  0  0
  1  6  2  0
  1  2  1  0
  2  3  2  0
  3  4  1  0
  4  5  2  0
  5  7  1  0
  5  6  1  0
  7  8  2  0
  7  9  1  0
  9 10  1  0
 10 11  2  0
 11 12  1  0
 12 14  1  0
 12 13  2  0
 14 16  2  0
 14 15  1  0
M  CHG  1  15  -1
M  END
>  <DRUGBANK_ID>  (1) 
DB07911

>  <COMMON_NAME>  (1) 
(3E)-2,6-DIOXO-6-PHENYLHEX-3-ENOATE

$$$$
