
     RDKit          3D

 11 10  0  0  1  0  0  0  0  0999 V2000
    0.8243    0.1439    0.0583 C   0  0  0  0  0  0  0  0  0  0  0  0
    0.8765    1.8273    0.6259 P   0  0  1  0  0  0  0  0  0  0  0  0
    1.9122    1.5791    1.8519 O   0  0  0  0  0  0  0  0  0  0  0  0
    1.4981    2.6232   -0.4847 O   0  0  0  0  0  0  0  0  0  0  0  0
   -0.2361    2.9149    1.4818 C   0  0  0  0  0  0  0  0  0  0  0  0
   -1.3281    2.5789    2.4752 C   0  0  0  0  0  0  0  0  0  0  0  0
   -0.8975    1.6397    3.5986 C   0  0  1  0  0  0  0  0  0  0  0  0
    0.2055    2.1984    4.3812 N   0  0  0  0  0  0  0  0  0  0  0  0
   -2.1041    1.3620    4.5146 C   0  0  0  0  0  0  0  0  0  0  0  0
   -2.4837    0.0669    4.5465 O   0  0  0  0  0  0  0  0  0  0  0  0
   -2.7029    2.2202    5.1751 O   0  0  0  0  0  0  0  0  0  0  0  0
  2  1  1  0
  2  3  1  0
  2  4  2  0
  2  5  1  0
  5  6  1  0
  6  7  1  0
  7  8  1  1
  7  9  1  0
  9 10  1  0
  9 11  2  0
M  END
>  <DRUGBANK_ID>  (1) 
DB02663

>  <SECONDARY_ACCESSION_NUMBERS>  (1) 
EXPT02645

>  <COMMON_NAME>  (1) 
2-Amino-4-(Hydroxymethyl-Phosphinyl)Butanoic Acid

>  <CAS_NUMBER>  (1) 
51276-47-2

>  <UNII>  (1) 
M758GI0FEX

$$$$
