
     RDKit          3D

 30 34  0  0  0  0  0  0  0  0999 V2000
   -1.5511    2.3203    0.0746 C   0  0  0  0  0  0  0  0  0  0  0  0
   -0.9992    0.9239    0.3091 C   0  0  0  0  0  0  0  0  0  0  0  0
   -1.7774   -0.0934    0.9030 C   0  0  0  0  0  0  0  0  0  0  0  0
   -1.5437   -1.5137    0.6825 C   0  0  0  0  0  0  0  0  0  0  0  0
   -0.2258   -1.9035    0.3121 C   0  0  0  0  0  0  0  0  0  0  0  0
    0.6894   -0.8308    0.1580 C   0  0  0  0  0  0  0  0  0  0  0  0
    0.3116    0.5198    0.0999 C   0  0  0  0  0  0  0  0  0  0  0  0
    1.3663    1.3415   -0.1104 N   0  0  0  0  0  0  0  0  0  0  0  0
    2.4238    0.5665   -0.0305 C   0  0  0  0  0  0  0  0  0  0  0  0
    2.0571   -0.7635    0.0068 N   0  0  0  0  0  0  0  0  0  0  0  0
    3.7740    0.9543   -0.0426 C   0  0  0  0  0  0  0  0  0  0  0  0
    4.5762    0.6219   -1.0917 C   0  0  0  0  0  0  0  0  0  0  0  0
    5.9393    1.1331   -1.0785 C   0  0  0  0  0  0  0  0  0  0  0  0
    6.3951    1.9200   -0.1102 C   0  0  0  0  0  0  0  0  0  0  0  0
    5.5789    2.2815    0.9231 N   0  0  0  0  0  0  0  0  0  0  0  0
    4.2833    1.8660    1.0285 C   0  0  0  0  0  0  0  0  0  0  0  0
    3.5969    2.2294    2.0135 O   0  0  0  0  0  0  0  0  0  0  0  0
    4.1620   -0.1393   -2.1687 N   0  0  0  0  0  0  0  0  0  0  0  0
    4.9226   -0.6115   -3.3010 C   0  0  0  0  0  0  0  0  0  0  0  0
    5.0441   -2.1183   -3.2915 C   0  0  0  0  0  0  0  0  0  0  0  0
    6.2205   -2.6888   -3.7773 C   0  0  0  0  0  0  0  0  0  0  0  0
    6.3265   -4.0711   -3.8220 C   0  0  0  0  0  0  0  0  0  0  0  0
    5.2621   -4.8444   -3.3783 C   0  0  0  0  0  0  0  0  0  0  0  0
    4.1309   -4.2018   -2.9003 C   0  0  0  0  0  0  0  0  0  0  0  0
    3.9902   -2.8599   -2.8515 N   0  0  0  0  0  0  0  0  0  0  0  0
   -2.6375   -2.1626   -0.1294 N   0  0  0  0  0  0  0  0  0  0  0  0
   -2.8904   -1.2496   -1.1955 C   0  0  0  0  0  0  0  0  0  0  0  0
   -4.0212   -0.5980   -0.6894 C   0  0  0  0  0  0  0  0  0  0  0  0
   -4.7902   -1.4768   -0.0034 N   0  0  0  0  0  0  0  0  0  0  0  0
   -3.9874   -2.5193    0.0997 C   0  0  0  0  0  0  0  0  0  0  0  0
  1  2  1  0
  2  3  2  0
  2  7  1  0
  3  4  1  0
  4  5  2  0
  4 26  1  0
  5  6  1  0
  6  7  2  0
  6 10  1  0
  7  8  1  0
  8  9  2  0
  9 10  1  0
  9 11  1  0
 11 12  2  0
 11 16  1  0
 12 13  1  0
 12 18  1  0
 13 14  2  0
 14 15  1  0
 15 16  1  0
 16 17  2  0
 18 19  1  0
 19 20  1  0
 20 21  2  0
 20 25  1  0
 21 22  1  0
 22 23  2  0
 23 24  1  0
 24 25  2  0
 26 27  1  0
 26 30  1  0
 27 28  2  0
 28 29  1  0
 29 30  2  0
M  END
>  <DRUGBANK_ID>  (1) 
DB07474

>  <COMMON_NAME>  (1) 
3-[5-(1H-IMIDAZOL-1-YL)-7-METHYL-1H-BENZIMIDAZOL-2-YL]-4-[(PYRIDIN-2-YLMETHYL)AMINO]PYRIDIN-2(1H)-ONE

$$$$
