
     RDKit          3D

 30 32  0  0  0  0  0  0  0  0999 V2000
    1.0623   -0.0559    0.0705 C   0  0  0  0  0  0  0  0  0  0  0  0
    0.5296   -1.2983   -0.6694 C   0  0  0  0  0  0  0  0  0  0  0  0
    1.0674   -2.5492    0.0356 C   0  0  0  0  0  0  0  0  0  0  0  0
   -1.0058   -1.2885   -0.6879 C   0  0  0  0  0  0  0  0  0  0  0  0
    0.8809   -1.2857   -2.1376 C   0  0  0  0  0  0  0  0  0  0  0  0
    1.0062   -0.0737   -2.7956 C   0  0  0  0  0  0  0  0  0  0  0  0
    1.0469   -0.0124   -4.1719 C   0  0  0  0  0  0  0  0  0  0  0  0
    1.1070   -1.1335   -4.9622 C   0  0  0  0  0  0  0  0  0  0  0  0
    1.0922   -2.3717   -4.2851 C   0  0  0  0  0  0  0  0  0  0  0  0
    0.9190   -2.4491   -2.8988 C   0  0  0  0  0  0  0  0  0  0  0  0
    1.6081   -0.9370   -6.6713 S   0  0  0  0  0  0  0  0  0  0  0  0
    2.7881   -1.7632   -6.7018 O   0  0  0  0  0  0  0  0  0  0  0  0
    0.6475   -1.3300   -7.6372 O   0  0  0  0  0  0  0  0  0  0  0  0
    2.3620    0.5326   -7.0671 N   0  0  0  0  0  0  0  0  0  0  0  0
    2.6957    1.5843   -6.1649 C   0  0  0  0  0  0  0  0  0  0  0  0
    3.4200    1.5518   -4.9413 C   0  0  0  0  0  0  0  0  0  0  0  0
    3.1942    2.7068   -4.1032 C   0  0  0  0  0  0  0  0  0  0  0  0
    2.5031    3.8596   -4.5495 C   0  0  0  0  0  0  0  0  0  0  0  0
    2.1951    5.1945   -3.4992 Cl  0  0  0  0  0  0  0  0  0  0  0  0
    2.0112    3.9225   -5.8400 C   0  0  0  0  0  0  0  0  0  0  0  0
    2.0549    2.7706   -6.6097 C   0  0  0  0  0  0  0  0  0  0  0  0
    4.1032    0.3178   -4.2606 C   0  0  0  0  0  0  0  0  0  0  0  0
    4.1731    0.3650   -3.0281 O   0  0  0  0  0  0  0  0  0  0  0  0
    4.5696   -1.0076   -4.9335 C   0  0  0  0  0  0  0  0  0  0  0  0
    5.1535   -1.0475   -6.2109 C   0  0  0  0  0  0  0  0  0  0  0  0
    5.1155   -2.2608   -7.0057 C   0  0  0  0  0  0  0  0  0  0  0  0
    4.4279   -3.4261   -6.5772 N   0  0  0  0  0  0  0  0  0  0  0  0
    4.0649   -4.3346   -7.4088 O   0  0  0  0  0  0  0  0  0  0  0  0
    3.9524   -3.4324   -5.2641 C   0  0  0  0  0  0  0  0  0  0  0  0
    4.0826   -2.2541   -4.4234 C   0  0  0  0  0  0  0  0  0  0  0  0
  1  2  1  0
  2  3  1  0
  2  4  1  0
  2  5  1  0
  5  6  2  0
  5 10  1  0
  6  7  1  0
  7  8  2  0
  8  9  1  0
  8 11  1  0
  9 10  2  0
 11 12  2  0
 11 13  2  0
 11 14  1  0
 14 15  1  0
 15 16  1  0
 15 21  2  0
 16 17  2  0
 16 22  1  0
 17 18  1  0
 18 19  1  0
 18 20  2  0
 20 21  1  0
 22 23  2  0
 22 24  1  0
 24 25  2  0
 24 30  1  0
 25 26  1  0
 26 27  2  0
 27 28  1  0
 27 29  1  0
 29 30  2  0
M  CHG  2  27   1  28  -1
M  END
>  <DRUGBANK_ID>  (1) 
DB15250

>  <SECONDARY_ACCESSION_NUMBERS>  (1) 
DB05005

>  <COMMON_NAME>  (1) 
Vercirnon

>  <CAS_NUMBER>  (1) 
698394-73-9

>  <UNII>  (1) 
MWI54OUA12

>  <SYNONYMS>  (1) 
Vercirnon

$$$$
