
     RDKit          3D

  7  6  0  0  1  0  0  0  0  0999 V2000
    0.9514    0.0700   -0.0220 N   0  0  0  0  0  0  0  0  0  0  0  0
    0.4050   -1.1983   -0.5281 C   0  0  1  0  0  0  0  0  0  0  0  0
    0.9026   -2.3459    0.3184 C   0  0  0  0  0  0  0  0  0  0  0  0
    0.1336   -3.2355    0.9657 C   0  0  0  0  0  0  0  0  0  0  0  0
   -1.1513   -1.0919   -0.5365 C   0  0  0  0  0  0  0  0  0  0  0  0
   -1.7326   -1.2980   -1.7421 O   0  0  0  0  0  0  0  0  0  0  0  0
   -1.8287   -0.8738    0.4664 O   0  0  0  0  0  0  0  0  0  0  0  0
  2  1  1  1
  2  3  1  0
  2  5  1  0
  3  4  2  0
  5  6  1  0
  5  7  2  0
M  END
>  <DRUGBANK_ID>  (1) 
DB03214

>  <SECONDARY_ACCESSION_NUMBERS>  (1) 
EXPT02068

>  <COMMON_NAME>  (1) 
Vinylglycine

>  <CAS_NUMBER>  (1) 
70982-53-5

>  <UNII>  (1) 
LGD04MMJ5E

>  <SYNONYMS>  (1) 
(2S)-2-amino-3-butenoic acid; L-vinylglycine

$$$$
