
     RDKit          3D

  4  3  0  0  0  0  0  0  0  0999 V2000
    0.9376   -0.1062    0.0595 N   0  0  0  0  0  0  0  0  0  0  0  0
    0.3556   -0.9278    0.9588 C   0  0  0  0  0  0  0  0  0  0  0  0
   -0.9815   -0.8910    0.9185 O   0  0  0  0  0  0  0  0  0  0  0  0
    0.9928   -1.6288    1.7261 O   0  0  0  0  0  0  0  0  0  0  0  0
  1  2  1  0
  2  3  1  0
  2  4  2  0
M  END
>  <DRUGBANK_ID>  (1) 
DB04261

>  <SECONDARY_ACCESSION_NUMBERS>  (1) 
EXPT02453

>  <COMMON_NAME>  (1) 
Carbamic Acid

>  <CAS_NUMBER>  (1) 
463-77-4

>  <UNII>  (1) 
O0UC6XOS4H

$$$$
