
     RDKit          3D

 17 18  0  0  1  0  0  0  0  0999 V2000
    2.8441    0.3255    1.1851 F   0  0  0  0  0  0  0  0  0  0  0  0
    2.8198   -1.4165   -1.8683 O   0  0  0  0  0  0  0  0  0  0  0  0
    2.7374   -3.8195   -0.1591 O   0  0  0  0  0  0  0  0  0  0  0  0
    4.3118    0.6553   -4.7575 O   0  0  0  0  0  0  0  0  0  0  0  0
    0.4465    2.0320   -6.5412 O   0  0  0  0  0  0  0  0  0  0  0  0
    2.3927    0.2899   -3.4991 N   0  0  0  0  0  0  0  0  0  0  0  0
    2.3107    1.0279   -5.7189 N   0  0  0  0  0  0  0  0  0  0  0  0
    3.1666   -0.0787   -2.3065 C   0  0  1  0  0  0  0  0  0  0  0  0
    2.9426    0.8560   -1.1097 C   0  0  0  0  0  0  0  0  0  0  0  0
    2.4062   -0.0568   -0.0327 C   0  0  1  0  0  0  0  0  0  0  0  0
    2.9518   -1.4091   -0.4279 C   0  0  1  0  0  0  0  0  0  0  0  0
    2.1930   -2.5606    0.2303 C   0  0  0  0  0  0  0  0  0  0  0  0
    1.0198    0.4501   -3.4211 C   0  0  0  0  0  0  0  0  0  0  0  0
    3.0882    0.6415   -4.6555 C   0  0  0  0  0  0  0  0  0  0  0  0
    0.3129    1.0625   -4.3811 C   0  0  0  0  0  0  0  0  0  0  0  0
    1.0089    1.4198   -5.6366 C   0  0  0  0  0  0  0  0  0  0  0  0
   -1.1227    1.4547   -4.2610 C   0  0  0  0  0  0  0  0  0  0  0  0
  2  8  1  0
  2 11  1  0
  3 12  1  0
  4 14  2  0
  5 16  2  0
  6 13  1  0
  6 14  1  0
  7 14  1  0
  7 16  1  0
  8  9  1  0
  8  6  1  6
  9 10  1  0
 10 11  1  0
 10  1  1  1
 11 12  1  1
 13 15  2  0
 15 16  1  0
 15 17  1  0
M  END
>  <DRUGBANK_ID>  (1) 
DB06198

>  <COMMON_NAME>  (1) 
Alovudine

>  <CAS_NUMBER>  (1) 
25526-93-6

>  <UNII>  (1) 
PG53R0DWDQ

>  <SYNONYMS>  (1) 
Alovudine

$$$$
