OLO
     RDKit          3D

 22 24  0  0  0  0  0  0  0  0999 V2000
    1.5251   -0.3410    0.0048 N   0  0  0  0  0  0  0  0  0  0  0  0
    1.8912    0.9772    0.0003 C   0  0  0  0  0  0  0  0  0  0  0  0
    0.8453    1.7774    0.0045 N   0  0  0  0  0  0  0  0  0  0  0  0
   -0.2471    0.9288    0.0088 C   0  0  0  0  0  0  0  0  0  0  0  0
    0.1594   -0.3935   -0.0051 C   0  0  0  0  0  0  0  0  0  0  0  0
   -1.6331    1.1595    0.0262 C   0  0  0  0  0  0  0  0  0  0  0  0
   -2.4404    0.0706   -0.0048 N   0  0  0  0  0  0  0  0  0  0  0  0
   -1.9267   -1.1721   -0.0305 C   0  0  0  0  0  0  0  0  0  0  0  0
   -0.6222   -1.4865   -0.0189 N   0  0  0  0  0  0  0  0  0  0  0  0
    2.4133   -1.4726    0.0430 C   0  0  0  0  0  0  0  0  0  0  0  0
   -2.7942   -2.2321   -0.1101 N   0  0  0  0  0  0  0  0  0  0  0  0
   -4.2312   -2.0445   -0.0734 C   0  0  0  0  0  0  0  0  0  0  0  0
   -4.8510   -2.6187   -1.3490 C   0  0  0  0  0  0  0  0  0  0  0  0
   -4.6344   -4.0276   -1.4241 O   0  0  0  0  0  0  0  0  0  0  0  0
   -2.1735    2.4264    0.0518 N   0  0  0  0  0  0  0  0  0  0  0  0
   -3.5928    2.6563    0.1682 C   0  0  0  0  0  0  0  0  0  0  0  0
   -4.7580    2.9307    2.4092 C   0  0  0  0  0  0  0  0  0  0  0  0
   -5.1507    3.7216    3.4933 C   0  0  0  0  0  0  0  0  0  0  0  0
   -4.7175    5.0430    3.5881 C   0  0  0  0  0  0  0  0  0  0  0  0
   -3.8726    5.5682    2.6133 C   0  0  0  0  0  0  0  0  0  0  0  0
   -3.4636    4.7741    1.5414 C   0  0  0  0  0  0  0  0  0  0  0  0
   -3.9261    3.4564    1.4079 C   0  0  0  0  0  0  0  0  0  0  0  0
  1  2  1  0
  1  5  1  0
  1 10  1  0
  2  3  2  0
  3  4  1  0
  4  5  2  0
  4  6  1  0
  5  9  1  0
  6  7  2  0
  6 15  1  0
  7  8  1  0
  8  9  2  0
  8 11  1  0
 11 12  1  0
 12 13  1  0
 13 14  1  0
 15 16  1  0
 16 22  1  0
 17 18  2  0
 17 22  1  0
 18 19  1  0
 19 20  2  0
 20 21  1  0
 21 22  2  0
M  END
>  <DRUGBANK_ID>  (1) 
DB02116

>  <SECONDARY_ACCESSION_NUMBERS>  (1) 
EXPT02433

>  <COMMON_NAME>  (1) 
Olomoucine

>  <CAS_NUMBER>  (1) 
101622-51-9

>  <UNII>  (1) 
6A839B2HYS

$$$$
