
     RDKit          3D

 14 14  0  0  0  0  0  0  0  0999 V2000
   -0.5072   -0.9871   -0.0670 C   0  0  2  0  0  0  0  0  0  0  0  0
    1.0077   -1.1512   -0.0374 C   0  0  2  0  0  0  0  0  0  0  0  0
   -0.7270    0.3150    0.5274 O   0  0  0  0  0  0  0  0  0  0  0  0
    1.5173    0.3077    0.0060 C   0  0  2  0  0  0  0  0  0  0  0  0
    1.3898   -1.8699   -1.2053 O   0  0  0  0  0  0  0  0  0  0  0  0
    0.2373    1.1348   -0.1200 C   0  0  2  0  0  0  0  0  0  0  0  0
    2.5006    0.6302   -0.9671 O   0  0  0  0  0  0  0  0  0  0  0  0
    0.3518    2.3839    0.5269 O   0  0  0  0  0  0  0  0  0  0  0  0
   -1.3615   -2.1175    0.5795 C   0  0  0  0  0  0  0  0  0  0  0  0
   -2.2833   -2.7633   -0.3635 O   0  0  0  0  0  0  0  0  0  0  0  0
   -3.1378   -1.6265   -1.3486 P   0  0  0  0  0  0  0  0  0  0  0  0
   -4.5455   -2.3666   -0.9937 O   0  0  0  0  0  0  0  0  0  0  0  0
   -3.0625   -0.4894   -0.3380 O   0  0  0  0  0  0  0  0  0  0  0  0
   -3.9924   -0.4898   -2.3337 O   0  0  0  0  0  0  0  0  0  0  0  0
  1  2  1  0
  1  3  1  0
  1  9  1  1
  2  4  1  0
  2  5  1  6
  3  6  1  0
  4  6  1  0
  4  7  1  6
  6  8  1  1
  9 10  1  0
 10 11  1  0
 11 12  1  0
 11 13  2  0
 11 14  1  0
M  END
>  <DRUGBANK_ID>  (1) 
DB04352

>  <SECONDARY_ACCESSION_NUMBERS>  (1) 
EXPT02809

>  <COMMON_NAME>  (1) 
beta-D-Ribose-5-phosphate

>  <CAS_NUMBER>  (1) 
34980-66-0

>  <UNII>  (1) 
BVJ0IQF3T8

>  <SYNONYMS>  (1) 
5-O-phosphono-beta-D-ribofuranose; 5-O-phosphono-β-D-ribofuranose; β-D-ribofuranose 5-phosphate

$$$$
