
     RDKit          3D

 21 22  0  0  0  0  0  0  0  0999 V2000
   -1.7159   -0.0862    0.0231 Br  0  0  0  0  0  0  0  0  0  0  0  0
    7.8656   -0.0103    1.3134 Cl  0  0  0  0  0  0  0  0  0  0  0  0
    6.5428    1.8474    3.2425 Cl  0  0  0  0  0  0  0  0  0  0  0  0
    5.4685    3.9697    0.2031 S   0  0  0  0  0  0  0  0  0  0  0  0
    6.6900    2.0450   -1.9445 O   0  0  0  0  0  0  0  0  0  0  0  0
    4.1287    3.6204   -0.3706 O   0  0  0  0  0  0  0  0  0  0  0  0
    5.1662    0.6726   -1.0216 N   0  0  0  0  0  0  0  0  0  0  0  0
    6.4037    2.3672    0.3757 C   0  0  1  0  0  0  0  0  0  0  0  0
    7.8597    2.6680    0.8552 C   0  0  2  0  0  0  0  0  0  0  0  0
    7.0670    1.6377    1.5425 C   0  0  0  0  0  0  0  0  0  0  0  0
    8.3696    3.6993    1.7961 C   0  0  0  0  0  0  0  0  0  0  0  0
    6.1503    1.6484   -0.9330 C   0  0  0  0  0  0  0  0  0  0  0  0
    5.1295    4.7139    1.7689 C   0  0  0  0  0  0  0  0  0  0  0  0
    4.4255   -0.0693   -0.0064 C   0  0  2  0  0  0  0  0  0  0  0  0
    2.9405   -0.0897   -0.1993 C   0  0  0  0  0  0  0  0  0  0  0  0
    4.5440    0.4201    1.4083 C   0  0  0  0  0  0  0  0  0  0  0  0
    2.2589   -1.3028   -0.1247 C   0  0  0  0  0  0  0  0  0  0  0  0
    2.2159    1.1099   -0.1490 C   0  0  0  0  0  0  0  0  0  0  0  0
    0.8695   -1.3003   -0.0571 C   0  0  0  0  0  0  0  0  0  0  0  0
    0.8375    1.1210   -0.0674 C   0  0  0  0  0  0  0  0  0  0  0  0
    0.1677   -0.0910   -0.0418 C   0  0  0  0  0  0  0  0  0  0  0  0
  1 21  1  0
  2 10  1  0
  3 10  1  0
  4  6  2  0
  4  8  1  0
  4 13  1  0
  5 12  2  0
  7 12  1  0
  8  9  1  0
  8 10  1  0
  8 12  1  6
  9 10  1  0
  9 11  1  1
 14  7  1  0
 14 15  1  0
 14 16  1  1
 15 17  2  0
 15 18  1  0
 17 19  1  0
 18 20  2  0
 19 21  2  0
 20 21  1  0
M  END
>  <DRUGBANK_ID>  (1) 
DB04458

>  <SECONDARY_ACCESSION_NUMBERS>  (1) 
EXPT02234

>  <COMMON_NAME>  (1) 
2,2-Dichloro-1-methanesulfinyl-3-methyl-cyclopropanecarboxylic acid [1-(4-bromo-phenyl)-ethyl]-amide

$$$$
