CM4
     RDKit          3D

 33 37  0  0  0  0  0  0  0  0999 V2000
   -2.4612    0.7368   -0.3445 C   0  0  2  0  0  0  0  0  0  0  0  0
   -2.3827   -0.6475    0.4029 C   0  0  1  0  0  0  0  0  0  0  0  0
   -1.2001   -1.3659   -0.1059 O   0  0  0  0  0  0  0  0  0  0  0  0
   -0.0141   -0.6536   -0.1264 C   0  0  0  0  0  0  0  0  0  0  0  0
    1.1839   -1.3864   -0.1426 C   0  0  0  0  0  0  0  0  0  0  0  0
    2.4272   -0.7345   -0.0698 C   0  0  0  0  0  0  0  0  0  0  0  0
    2.4657    0.6476    0.0302 C   0  0  0  0  0  0  0  0  0  0  0  0
    3.6251    1.3598    0.0956 O   0  0  0  0  0  0  0  0  0  0  0  0
    1.2891    1.3729    0.0694 C   0  0  0  0  0  0  0  0  0  0  0  0
    0.0394    0.7393   -0.0403 C   0  0  0  0  0  0  0  0  0  0  0  0
   -1.2132    1.5739    0.0165 C   0  0  1  0  0  0  0  0  0  0  0  0
   -1.1027    2.7961   -0.9045 C   0  0  0  0  0  0  0  0  0  0  0  0
   -3.7070    1.6119   -0.1833 C   0  0  0  0  0  0  0  0  0  0  0  0
   -4.0592    2.1638    1.0501 C   0  0  0  0  0  0  0  0  0  0  0  0
   -5.2496    2.8309    1.2711 C   0  0  0  0  0  0  0  0  0  0  0  0
   -5.9130    3.3157    0.1720 C   0  0  0  0  0  0  0  0  0  0  0  0
   -6.9730    4.1303    0.4122 O   0  0  0  0  0  0  0  0  0  0  0  0
   -5.4378    3.0385   -1.1061 C   0  0  0  0  0  0  0  0  0  0  0  0
   -4.4043    2.1059   -1.2882 C   0  0  0  0  0  0  0  0  0  0  0  0
   -2.3601   -0.5666    1.9361 C   0  0  0  0  0  0  0  0  0  0  0  0
   -3.4222   -0.0272    2.6818 C   0  0  0  0  0  0  0  0  0  0  0  0
   -3.1650    0.6055    3.9114 C   0  0  0  0  0  0  0  0  0  0  0  0
   -1.9318    0.4768    4.5157 C   0  0  0  0  0  0  0  0  0  0  0  0
   -0.9268   -0.2255    3.8433 C   0  0  0  0  0  0  0  0  0  0  0  0
   -1.1850   -0.8134    2.6145 C   0  0  0  0  0  0  0  0  0  0  0  0
   -1.8551    0.8835    5.8220 O   0  0  0  0  0  0  0  0  0  0  0  0
   -0.8405    0.2539    6.6213 C   0  0  0  0  0  0  0  0  0  0  0  0
   -1.0830   -1.2474    6.9550 C   0  0  0  0  0  0  0  0  0  0  0  0
   -1.1700   -2.0826    5.7617 N   0  0  0  0  0  0  0  0  0  0  0  0
   -2.5318   -2.4290    5.3513 C   0  0  0  0  0  0  0  0  0  0  0  0
   -2.6925   -3.8009    5.9345 C   0  0  0  0  0  0  0  0  0  0  0  0
   -1.3371   -4.4285    5.6437 C   0  0  0  0  0  0  0  0  0  0  0  0
   -0.3471   -3.2719    5.6696 C   0  0  0  0  0  0  0  0  0  0  0  0
  1  2  1  0
  1 11  1  0
  1 13  1  1
  2  3  1  0
  2 20  1  1
  3  4  1  0
  4  5  2  0
  4 10  1  0
  5  6  1  0
  6  7  2  0
  7  8  1  0
  7  9  1  0
  9 10  2  0
 10 11  1  0
 11 12  1  6
 13 14  2  0
 13 19  1  0
 14 15  1  0
 15 16  2  0
 16 17  1  0
 16 18  1  0
 18 19  2  0
 20 21  2  0
 20 25  1  0
 21 22  1  0
 22 23  2  0
 23 24  1  0
 23 26  1  0
 24 25  2  0
 26 27  1  0
 27 28  1  0
 28 29  1  0
 29 30  1  0
 29 33  1  0
 30 31  1  0
 31 32  1  0
 32 33  1  0
M  END
>  <DRUGBANK_ID>  (1) 
DB07567

>  <COMMON_NAME>  (1) 
(2R,3R,4S)-3-(4-HYDROXYPHENYL)-4-METHYL-2-[4-(2-PYRROLIDIN-1-YLETHOXY)PHENYL]CHROMAN-6-OL

$$$$
