
     RDKit          3D

 22 25  0  0  0  0  0  0  0  0999 V2000
   -2.9414   -1.8366   -0.2021 C   0  0  0  0  0  0  0  0  0  0  0  0
    0.1386   -2.1388    0.4700 C   0  0  0  0  0  0  0  0  0  0  0  0
   -4.0999    0.2794    0.3082 C   0  0  2  0  0  0  0  0  0  0  0  0
   -1.9636    1.6987    0.6310 C   0  0  0  0  0  0  0  0  0  0  0  0
   -4.3377   -1.1970   -0.0644 C   0  0  0  0  0  0  0  0  0  0  0  0
    1.7355    0.3199    0.3402 C   0  0  0  0  0  0  0  0  0  0  0  0
   -0.4455    1.7171    0.3838 C   0  0  0  0  0  0  0  0  0  0  0  0
    1.5940   -2.2193    0.0251 C   0  0  0  0  0  0  0  0  0  0  0  0
   -5.0499    1.1457   -0.2827 O   0  0  0  0  0  0  0  0  0  0  0  0
    2.3450   -0.9131    0.0654 C   0  0  0  0  0  0  0  0  0  0  0  0
    2.5541    1.4716    0.3482 C   0  0  0  0  0  0  0  0  0  0  0  0
    3.7088   -0.9526   -0.2449 C   0  0  0  0  0  0  0  0  0  0  0  0
    4.4990    0.1969   -0.2683 C   0  0  0  0  0  0  0  0  0  0  0  0
    5.7873   -0.0880   -0.6103 O   0  0  0  0  0  0  0  0  0  0  0  0
   -0.5032   -0.8329   -0.0069 C   0  0  2  0  0  0  0  0  0  0  0  0
    0.2453    0.3619    0.6737 C   0  0  1  0  0  0  0  0  0  0  0  0
   -2.6436    0.5491   -0.1207 C   0  0  2  0  0  0  0  0  0  0  0  0
   -2.5564    0.7997   -1.6477 C   0  0  0  0  0  0  0  0  0  0  0  0
   -1.9921   -0.7691    0.3425 C   0  0  1  0  0  0  0  0  0  0  0  0
    3.9330    1.4345    0.0379 C   0  0  0  0  0  0  0  0  0  0  0  0
    4.5098    2.6752    0.0882 O   0  0  0  0  0  0  0  0  0  0  0  0
    5.8863    2.8237   -0.2042 C   0  0  0  0  0  0  0  0  0  0  0  0
  2  8  1  0
  3  9  1  6
  3  5  1  0
  4  7  1  0
  5  1  1  0
  6 10  2  0
  6 11  1  0
  8 10  1  0
 10 12  1  0
 11 20  2  0
 12 13  2  0
 13 14  1  0
 15 16  1  0
 15  2  1  1
 16  6  1  0
 16  7  1  6
 17  3  1  0
 17  4  1  0
 17 18  1  6
 19 15  1  0
 19 17  1  0
 19  1  1  6
 20 13  1  0
 20 21  1  0
 21 22  1  0
M  END
>  <DRUGBANK_ID>  (1) 
DB02342

>  <SECONDARY_ACCESSION_NUMBERS>  (1) 
EXPT01362

>  <COMMON_NAME>  (1) 
2-Methoxyestradiol

>  <CAS_NUMBER>  (1) 
362-07-2

>  <UNII>  (1) 
6I2QW73SR5

>  <SYNONYMS>  (1) 
2-Hydroxyestradiol 2-methyl ether; 2-Hydroxyestradol 2-methyl ether; 2-ME2; 2-methoxy-17Î²-estradiol; 2-Methoxyestradiol-17beta; 2ME2

$$$$
