
     RDKit          3D

  7  7  0  0  1  0  0  0  0  0999 V2000
    1.0393    0.0726   -0.0345 N   0  0  0  0  0  0  0  0  0  0  0  0
    0.5748   -0.9975    0.8551 C   0  0  0  0  0  0  0  0  0  0  0  0
    1.0460   -0.7718    2.3045 C   0  0  2  0  0  0  0  0  0  0  0  0
    0.4223   -1.7498    3.2846 C   0  0  0  0  0  0  0  0  0  0  0  0
    0.6491   -1.0676    4.6183 C   0  0  0  0  0  0  0  0  0  0  0  0
    0.6220    0.4203    4.2971 C   0  0  0  0  0  0  0  0  0  0  0  0
    0.6574    0.5549    2.8323 N   0  0  0  0  0  0  0  0  0  0  0  0
  1  2  1  0
  3  2  1  6
  3  4  1  0
  3  7  1  0
  4  5  1  0
  5  6  1  0
  6  7  1  0
M  END
>  <DRUGBANK_ID>  (1) 
DB03253

>  <SECONDARY_ACCESSION_NUMBERS>  (1) 
EXPT02476

>  <COMMON_NAME>  (1) 
(2s)-Pyrrolidin-2-Ylmethylamine

$$$$
