
     RDKit          3D

 25 28  0  0  0  0  0  0  0  0999 V2000
    1.0032    0.0338   -0.1194 C   0  0  0  0  0  0  0  0  0  0  0  0
    0.6116   -1.2078   -0.8795 C   0  0  0  0  0  0  0  0  0  0  0  0
    1.0217   -2.4302   -0.5060 C   0  0  0  0  0  0  0  0  0  0  0  0
    0.7440   -3.5741   -1.2203 N   0  0  0  0  0  0  0  0  0  0  0  0
    0.0229   -3.5551   -2.3887 C   0  0  0  0  0  0  0  0  0  0  0  0
   -0.1276   -4.5856   -3.0374 O   0  0  0  0  0  0  0  0  0  0  0  0
   -0.5751   -2.1814   -2.8226 C   0  0  0  0  0  0  0  0  0  0  0  0
   -1.4180   -2.0808   -3.9422 N   0  0  0  0  0  0  0  0  0  0  0  0
   -1.7484   -3.1244   -4.8355 C   0  0  0  0  0  0  0  0  0  0  0  0
   -2.4308   -4.2264   -4.3536 C   0  0  0  0  0  0  0  0  0  0  0  0
   -2.7465   -5.2412   -5.2256 C   0  0  0  0  0  0  0  0  0  0  0  0
   -3.5494   -6.2860   -4.7940 N   0  0  0  0  0  0  0  0  0  0  0  0
   -2.4266   -5.1772   -6.5203 N   0  0  0  0  0  0  0  0  0  0  0  0
   -1.7863   -4.0592   -6.9095 C   0  0  0  0  0  0  0  0  0  0  0  0
   -1.4539   -3.0029   -6.1393 N   0  0  0  0  0  0  0  0  0  0  0  0
   -0.2230   -1.1059   -2.0740 C   0  0  0  0  0  0  0  0  0  0  0  0
    1.3845   -4.7670   -0.5835 C   0  0  0  0  0  0  0  0  0  0  0  0
    0.3559   -5.8397   -0.0967 C   0  0  0  0  0  0  0  0  0  0  0  0
    1.0355   -7.0763    0.5304 C   0  0  0  0  0  0  0  0  0  0  0  0
    2.0104   -7.7126   -0.4515 C   0  0  0  0  0  0  0  0  0  0  0  0
    3.0940   -6.6983   -0.7940 C   0  0  0  0  0  0  0  0  0  0  0  0
    2.4826   -5.4487   -1.4656 C   0  0  0  0  0  0  0  0  0  0  0  0
    2.0213   -4.1539    0.5793 N   0  0  0  0  0  0  0  0  0  0  0  0
    1.8423   -2.7961    0.6651 C   0  0  0  0  0  0  0  0  0  0  0  0
    2.2713   -2.0593    1.5405 O   0  0  0  0  0  0  0  0  0  0  0  0
  1  2  1  0
  2  3  2  0
  2 16  1  0
  3  4  1  0
  3 24  1  0
  4  5  1  0
  4 17  1  0
  5  6  2  0
  5  7  1  0
  7  8  1  0
  7 16  2  0
  8  9  1  0
  9 10  2  0
  9 15  1  0
 10 11  1  0
 11 12  1  0
 11 13  2  0
 13 14  1  0
 14 15  2  0
 17 18  1  0
 17 22  1  0
 17 23  1  0
 18 19  1  0
 19 20  1  0
 20 21  1  0
 21 22  1  0
 23 24  1  0
 24 25  2  0
M  END
>  <DRUGBANK_ID>  (1) 
DB15219

>  <COMMON_NAME>  (1) 
Tomivosertib

>  <CAS_NUMBER>  (1) 
1849590-01-7

>  <UNII>  (1) 
U2H19X4WBV

>  <SYNONYMS>  (1) 
6'-((6-Amino-4-pyrimidinyl)amino)-8'-methyl-2'H-spiro(cyclohexane-1,3'-imidazo(1,5-a)pyridine)-1',5'-dione; Tomivosertib

$$$$
