FR7
     RDKit          3D

 22 23  0  0  0  0  0  0  0  0999 V2000
   -1.1757    0.0250   -0.1558 C   0  0  0  0  0  0  0  0  0  0  0  0
   -0.3214   -1.0432   -0.0641 N   0  0  0  0  0  0  0  0  0  0  0  0
    0.9427   -0.5405    0.0517 C   0  0  0  0  0  0  0  0  0  0  0  0
    0.9494    0.7666    0.0093 N   0  0  0  0  0  0  0  0  0  0  0  0
   -0.3755    1.1569   -0.0691 C   0  0  0  0  0  0  0  0  0  0  0  0
   -0.7765    2.5661   -0.0305 C   0  0  0  0  0  0  0  0  0  0  0  0
    0.0197    3.5062    0.0061 O   0  0  0  0  0  0  0  0  0  0  0  0
   -2.1189    2.8272   -0.0345 N   0  0  0  0  0  0  0  0  0  0  0  0
   -0.6898   -2.4606   -0.0093 C   0  0  1  0  0  0  0  0  0  0  0  0
   -0.1927   -3.2104   -1.2652 C   0  0  1  0  0  0  0  0  0  0  0  0
    1.2336   -3.2452   -1.3163 O   0  0  0  0  0  0  0  0  0  0  0  0
   -0.1955   -3.1322    1.2954 C   0  0  0  0  0  0  0  0  0  0  0  0
   -0.7539   -2.4797    2.5623 C   0  0  0  0  0  0  0  0  0  0  0  0
   -2.2682   -2.5133    2.5965 C   0  0  0  0  0  0  0  0  0  0  0  0
   -2.9147   -3.7665    2.5524 C   0  0  0  0  0  0  0  0  0  0  0  0
   -4.3040   -3.8558    2.5039 C   0  0  0  0  0  0  0  0  0  0  0  0
   -5.0715   -2.6950    2.4946 C   0  0  0  0  0  0  0  0  0  0  0  0
   -4.4546   -1.4440    2.5554 C   0  0  0  0  0  0  0  0  0  0  0  0
   -3.0576   -1.3453    2.6335 C   0  0  0  0  0  0  0  0  0  0  0  0
   -5.4788   -0.0491    2.5390 Cl  0  0  0  0  0  0  0  0  0  0  0  0
   -2.3265    0.2167    2.8271 Cl  0  0  0  0  0  0  0  0  0  0  0  0
   -0.6594   -4.6626   -1.2840 C   0  0  0  0  0  0  0  0  0  0  0  0
  1  2  1  0
  1  5  2  0
  2  3  1  0
  3  4  2  0
  4  5  1  0
  5  6  1  0
  6  7  2  0
  6  8  1  0
  9  2  1  0
  9 10  1  0
  9 12  1  1
 10 11  1  0
 10 22  1  1
 12 13  1  0
 13 14  1  0
 14 15  2  0
 14 19  1  0
 15 16  1  0
 16 17  2  0
 17 18  1  0
 18 19  2  0
 18 20  1  0
 19 21  1  0
M  END
>  <DRUGBANK_ID>  (1) 
DB03370

>  <SECONDARY_ACCESSION_NUMBERS>  (1) 
EXPT01486

>  <COMMON_NAME>  (1) 
FR239087

$$$$
