
     RDKit          3D

 25 25  0  0  0  0  0  0  0  0999 V2000
    0.9594   -0.0543   -0.0735 C   0  0  0  0  0  0  0  0  0  0  0  0
    0.4527   -0.2991    1.3385 C   0  0  0  0  0  0  0  0  0  0  0  0
    0.3844   -1.4681    1.9145 N   0  0  0  0  0  0  0  0  0  0  0  0
   -0.0811   -1.2727    3.1722 C   0  0  0  0  0  0  0  0  0  0  0  0
   -0.2671    0.0639    3.2971 C   0  0  0  0  0  0  0  0  0  0  0  0
    0.0695    0.6118    2.1614 N   0  0  0  0  0  0  0  0  0  0  0  0
    0.0184    2.0512    1.8677 C   0  0  0  0  0  0  0  0  0  0  0  0
   -1.4092    2.5496    2.0227 C   0  0  0  0  0  0  0  0  0  0  0  0
   -2.0407    2.4179    3.2795 C   0  0  0  0  0  0  0  0  0  0  0  0
   -3.3553    2.8197    3.3937 C   0  0  0  0  0  0  0  0  0  0  0  0
   -3.9447    3.3948    2.2477 C   0  0  0  0  0  0  0  0  0  0  0  0
   -3.2839    3.5309    1.0897 N   0  0  0  0  0  0  0  0  0  0  0  0
   -2.0184    3.0930    0.9702 N   0  0  0  0  0  0  0  0  0  0  0  0
   -4.1308    2.6513    4.6901 C   0  0  0  0  0  0  0  0  0  0  0  0
   -3.6956    3.2649    5.8550 C   0  0  0  0  0  0  0  0  0  0  0  0
   -4.3998    3.1160    7.0395 C   0  0  0  0  0  0  0  0  0  0  0  0
   -5.5274    2.3838    7.0158 C   0  0  0  0  0  0  0  0  0  0  0  0
   -5.9926    1.7721    5.9022 C   0  0  0  0  0  0  0  0  0  0  0  0
   -5.2732    1.9059    4.7250 C   0  0  0  0  0  0  0  0  0  0  0  0
   -7.2748    0.9567    5.9413 C   0  0  0  0  0  0  0  0  0  0  0  0
   -8.1575    1.4777    5.0937 F   0  0  0  0  0  0  0  0  0  0  0  0
   -7.0123   -0.2993    5.5915 F   0  0  0  0  0  0  0  0  0  0  0  0
   -6.2231    2.2376    8.1718 F   0  0  0  0  0  0  0  0  0  0  0  0
    0.9742   -0.0961   -0.0103 Cl  0  0  0  0  0  0  0  0  0  0  0  0
    1.0366   -0.0840    0.0402 Cl  0  0  0  0  0  0  0  0  0  0  0  0
  1  2  1  0
  2  3  2  0
  2  6  1  0
  3  4  1  0
  4  5  2  0
  5  6  1  0
  6  7  1  0
  7  8  1  0
  8  9  2  0
  8 13  1  0
  9 10  1  0
 10 11  2  0
 10 14  1  0
 11 12  1  0
 12 13  2  0
 14 15  2  0
 14 19  1  0
 15 16  1  0
 16 17  2  0
 17 18  1  0
 17 23  1  0
 18 19  2  0
 18 20  1  0
 20 21  1  0
 20 22  1  0
M  END
>  <DRUGBANK_ID>  (1) 
DB05956

>  <COMMON_NAME>  (1) 
EVT-101

>  <CAS_NUMBER>  (1) 
1189088-41-2

>  <UNII>  (1) 
B55T45AA8F

$$$$
