1429
     RDKit          3D

 24 26  0  0  1  0  0  0  0  0999 V2000
    1.1375   -0.3019    0.3480 N   0  0  0  0  0  0  0  0  0  0  0  0
    2.3971    3.3291    0.0331 N   0  0  0  0  0  0  0  0  0  0  0  0
    0.2589   -1.4600    0.1926 C   0  0  0  0  0  0  0  0  0  0  0  0
    0.4392   -2.2964    1.4568 C   0  0  0  0  0  0  0  0  0  0  0  0
    0.4264   -2.3247   -1.0807 C   0  0  0  0  0  0  0  0  0  0  0  0
    0.1683   -3.6394    0.9181 C   0  0  0  0  0  0  0  0  0  0  0  0
    0.1439   -3.6745   -0.4858 C   0  0  0  0  0  0  0  0  0  0  0  0
    0.2923    0.9836    0.3478 C   0  0  0  0  0  0  0  0  0  0  0  0
    0.5177    2.0795    1.3772 C   0  0  0  0  0  0  0  0  0  0  0  0
    2.5226   -0.5666    0.4840 C   0  0  0  0  0  0  0  0  0  0  0  0
    0.0088   -4.7561    1.7022 C   0  0  0  0  0  0  0  0  0  0  0  0
   -0.1106   -4.8628   -1.1339 C   0  0  0  0  0  0  0  0  0  0  0  0
    1.8724    2.7777    1.3394 C   0  0  0  0  0  0  0  0  0  0  0  0
   -0.2683   -5.9459    1.0569 C   0  0  0  0  0  0  0  0  0  0  0  0
   -0.3404   -5.9971   -0.3469 C   0  0  0  0  0  0  0  0  0  0  0  0
    3.4607    0.3467    0.8370 C   0  0  0  0  0  0  0  0  0  0  0  0
    3.2189   -1.7640    0.2245 C   0  0  0  0  0  0  0  0  0  0  0  0
    3.7309    3.9687    0.1082 C   0  0  0  0  0  0  0  0  0  0  0  0
    2.1527    2.7571   -1.3382 C   0  0  0  0  0  0  0  0  0  0  0  0
    4.8509    0.2414    1.0426 C   0  0  0  0  0  0  0  0  0  0  0  0
    4.6507   -1.8821    0.2411 C   0  0  0  0  0  0  0  0  0  0  0  0
    4.8771    2.9995    0.0758 C   0  0  0  0  0  0  0  0  0  0  0  0
    2.6202    1.3745   -1.8758 C   0  0  0  0  0  0  0  0  0  0  0  0
    5.4814   -0.8459    0.5168 C   0  0  0  0  0  0  0  0  0  0  0  0
  1  3  1  0
  1  8  1  0
  1 10  1  0
  2 13  1  0
  2 18  1  0
  2 19  1  0
  3  4  1  0
  3  5  1  0
  4  6  1  0
  5  7  1  0
  6  7  2  0
  6 11  1  0
  7 12  1  0
  8  9  1  0
  9 13  1  0
 10 16  2  0
 10 17  1  0
 11 14  2  0
 12 15  2  0
 14 15  1  0
 16 20  1  0
 17 21  2  0
 18 22  1  0
 19 23  1  0
 20 24  2  0
 21 24  1  0
M  END
>  <DRUGBANK_ID>  (1) 
DB01429

>  <COMMON_NAME>  (1) 
Aprindine

>  <CAS_NUMBER>  (1) 
37640-71-4

>  <UNII>  (1) 
5Y48085P9Q

>  <SYNONYMS>  (1) 
Aprindina; Aprindine; Aprindinum

$$$$
