1148
     RDKit          3D

 29 32  0  0  0  0  0  0  0  0999 V2000
    1.1223    0.0403    0.2243 O   0  0  0  0  0  0  0  0  0  0  0  0
    2.8756   -0.9793   -3.3344 O   0  0  0  0  0  0  0  0  0  0  0  0
    3.1163    0.9546    0.6990 O   0  0  0  0  0  0  0  0  0  0  0  0
    3.3913   -4.8474   -4.6807 O   0  0  0  0  0  0  0  0  0  0  0  0
    1.5030   -0.7247   -2.1552 N   0  0  0  0  0  0  0  0  0  0  0  0
    1.9060   -2.4317   -2.8530 C   0  0  0  0  0  0  0  0  0  0  0  0
    2.7219    0.6484   -2.5455 C   0  0  0  0  0  0  0  0  0  0  0  0
    4.0146   -2.3455   -3.5422 C   0  0  0  0  0  0  0  0  0  0  0  0
    4.4846    0.2330   -3.1367 C   0  0  0  0  0  0  0  0  0  0  0  0
    4.7676   -1.1189   -4.1329 C   0  0  0  0  0  0  0  0  0  0  0  0
    0.1398   -0.6634   -1.9150 C   0  0  0  0  0  0  0  0  0  0  0  0
    0.1811   -0.8881   -0.4222 C   0  0  0  0  0  0  0  0  0  0  0  0
    3.3766   -1.1091   -0.4943 C   0  0  0  0  0  0  0  0  0  0  0  0
    2.5134    0.0347    0.1387 C   0  0  0  0  0  0  0  0  0  0  0  0
    3.2510   -1.8685   -1.6721 C   0  0  0  0  0  0  0  0  0  0  0  0
    3.4315   -3.5832   -2.0905 C   0  0  0  0  0  0  0  0  0  0  0  0
    2.1721   -2.5744   -5.0276 C   0  0  0  0  0  0  0  0  0  0  0  0
    1.9616   -1.2823   -4.5987 C   0  0  0  0  0  0  0  0  0  0  0  0
    2.8990   -3.9796   -3.9619 C   0  0  0  0  0  0  0  0  0  0  0  0
    4.2975   -1.7931    0.2529 C   0  0  0  0  0  0  0  0  0  0  0  0
    4.4947   -3.9690   -1.3314 C   0  0  0  0  0  0  0  0  0  0  0  0
    0.7777   -0.2467   -4.9764 C   0  0  0  0  0  0  0  0  0  0  0  0
    4.9091   -3.0640   -0.2227 C   0  0  0  0  0  0  0  0  0  0  0  0
    1.7776   -2.7043   -6.4150 C   0  0  0  0  0  0  0  0  0  0  0  0
   -0.5468   -0.6992   -5.2329 C   0  0  0  0  0  0  0  0  0  0  0  0
    0.8952    1.1670   -5.0079 C   0  0  0  0  0  0  0  0  0  0  0  0
   -1.5583    0.1569   -5.7316 C   0  0  0  0  0  0  0  0  0  0  0  0
   -0.1360    2.0422   -5.3819 C   0  0  0  0  0  0  0  0  0  0  0  0
   -1.3205    1.5209   -5.8616 C   0  0  0  0  0  0  0  0  0  0  0  0
  1 12  1  0
  1 14  1  0
  2 15  1  0
  2 18  1  0
  3 14  2  0
  4 19  2  0
  5  6  1  0
  5  7  1  0
  5 11  1  0
  6  8  1  0
  7  9  1  0
  8 10  1  0
  9 10  1  0
 11 12  1  0
 13 14  1  0
 13 15  2  0
 13 20  1  0
 15 16  1  0
 16 19  1  0
 16 21  2  0
 17 18  2  0
 17 19  1  0
 17 24  1  0
 18 22  1  0
 20 23  2  0
 21 23  1  0
 22 25  2  0
 22 26  1  0
 25 27  1  0
 26 28  2  0
 27 29  2  0
 28 29  1  0
M  END
>  <DRUGBANK_ID>  (1) 
DB01148

>  <SECONDARY_ACCESSION_NUMBERS>  (1) 
APRD00972

>  <COMMON_NAME>  (1) 
Flavoxate

>  <CAS_NUMBER>  (1) 
15301-69-6

>  <UNII>  (1) 
3E74Y80MEY

>  <SYNONYMS>  (1) 
2-(1-piperidinyl)ethyl 3-methyl-4-oxo-2-phenyl-4H-chromene-8-carboxylate; 2-piperidinoethyl 3-methyl-4-oxo-2-phenyl-4H-1-benzopyran-8-carboxylate; 2-piperidinoethyl 3-methylflavone-8-carboxylate; Flavoxate; Flavoxato; Flavoxatum; Î²-piperidinoethyl 3-methylflavone-8-carboxylate

$$$$
