
     RDKit          3D

 23 26  0  0  1  0  0  0  0  0999 V2000
    3.6823   -1.3524   -0.2936 C   0  0  0  0  0  0  0  0  0  0  0  0
    4.1707    0.0577   -0.6128 C   0  0  1  0  0  0  0  0  0  0  0  0
    3.3790    1.1150    0.1566 C   0  0  0  0  0  0  0  0  0  0  0  0
    1.8791    0.9704   -0.1262 C   0  0  1  0  0  0  0  0  0  0  0  0
    1.3283   -0.4415    0.2508 C   0  0  2  0  0  0  0  0  0  0  0  0
    2.1758   -1.4900   -0.5272 C   0  0  0  0  0  0  0  0  0  0  0  0
    1.0713    2.0986    0.5173 C   0  0  0  0  0  0  0  0  0  0  0  0
   -0.3810    2.0371    0.0591 C   0  0  0  0  0  0  0  0  0  0  0  0
   -1.0295    0.6754    0.3340 C   0  0  2  0  0  0  0  0  0  0  0  0
   -0.1685   -0.5075   -0.2103 C   0  0  2  0  0  0  0  0  0  0  0  0
   -2.4006    0.5761   -0.3447 C   0  0  1  0  0  0  0  0  0  0  0  0
   -3.1620   -0.7291   -0.0113 C   0  0  2  0  0  0  0  0  0  0  0  0
   -2.3057   -1.9144   -0.4897 C   0  0  0  0  0  0  0  0  0  0  0  0
   -0.8736   -1.8570    0.0784 C   0  0  0  0  0  0  0  0  0  0  0  0
   -3.4342    1.6709   -0.1200 C   0  0  0  0  0  0  0  0  0  0  0  0
   -4.7419    1.0328   -0.6132 C   0  0  0  0  0  0  0  0  0  0  0  0
   -4.4486   -0.4700   -0.8341 C   0  0  2  0  0  0  0  0  0  0  0  0
   -5.6974   -1.2830   -0.5124 C   0  0  0  0  0  0  0  0  0  0  0  0
   -6.1380   -1.4219    0.6304 O   0  0  0  0  0  0  0  0  0  0  0  0
   -6.4522   -1.8510   -1.6809 C   0  0  0  0  0  0  0  0  0  0  0  0
   -3.4710   -0.8904    1.4953 C   0  0  0  0  0  0  0  0  0  0  0  0
    1.4416   -0.7281    1.7670 C   0  0  0  0  0  0  0  0  0  0  0  0
    5.5580    0.1760   -0.3226 O   0  0  0  0  0  0  0  0  0  0  0  0
  1  2  1  0
  2  3  1  0
  2 23  1  1
  4  3  1  1
  4  5  1  0
  4  7  1  0
  5  6  1  0
  5 22  1  1
  6  1  1  0
  7  8  1  0
  9  8  1  6
  9 10  1  0
  9 11  1  0
 10  5  1  0
 11 12  1  0
 11 15  1  1
 12 13  1  0
 12 21  1  1
 13 14  1  0
 10 14  1  1
 15 16  1  0
 16 17  1  0
 17 12  1  0
 17 18  1  1
 18 19  2  0
 18 20  1  0
M  END
>  <DRUGBANK_ID>  (1) 
DB12972

>  <COMMON_NAME>  (1) 
Sepranolone

>  <CAS_NUMBER>  (1) 
516-55-2

>  <UNII>  (1) 
3P8Z6V53MU

>  <SYNONYMS>  (1) 
Sepranolone

$$$$
