
     RDKit          3D

 18 19  0  0  0  0  0  0  0  0999 V2000
   -1.8538    0.7674    0.0325 S   0  0  0  0  0  0  0  0  0  0  0  0
    3.3190    1.8335   -0.0485 O   0  0  0  0  0  0  0  0  0  0  0  0
   -4.7929   -3.2832   -0.1137 O   0  0  0  0  0  0  0  0  0  0  0  0
   -2.6183   -3.6619   -0.0629 O   0  0  0  0  0  0  0  0  0  0  0  0
   -0.9643   -1.6319    0.0537 N   0  0  0  0  0  0  0  0  0  0  0  0
   -3.3364   -1.4464   -0.0343 N   0  0  0  0  0  0  0  0  0  0  0  0
   -0.1215    0.5616   -0.0245 C   0  0  0  0  0  0  0  0  0  0  0  0
    0.1221   -0.8137   -0.0521 C   0  0  0  0  0  0  0  0  0  0  0  0
   -2.0596   -0.9348    0.0169 C   0  0  0  0  0  0  0  0  0  0  0  0
    0.9558    1.4851   -0.0431 C   0  0  0  0  0  0  0  0  0  0  0  0
    2.2562    0.9801   -0.2340 C   0  0  0  0  0  0  0  0  0  0  0  0
    1.4189   -1.2835   -0.2368 C   0  0  0  0  0  0  0  0  0  0  0  0
    2.4230   -0.3673   -0.5141 C   0  0  0  0  0  0  0  0  0  0  0  0
   -3.5046   -2.8245   -0.0682 C   0  0  0  0  0  0  0  0  0  0  0  0
    4.6559    1.2792    0.0089 C   0  0  0  0  0  0  0  0  0  0  0  0
    5.0336    0.5111    1.3029 C   0  0  0  0  0  0  0  0  0  0  0  0
   -5.9560   -2.4587   -0.1300 C   0  0  0  0  0  0  0  0  0  0  0  0
    4.2503   -0.7584    1.6018 C   0  0  0  0  0  0  0  0  0  0  0  0
  1  7  1  0
  1  9  1  0
  2 11  1  0
  2 15  1  0
  3 14  1  0
  3 17  1  0
  4 14  2  0
  5  8  1  0
  5  9  2  0
  6  9  1  0
  6 14  1  0
  7  8  2  0
  7 10  1  0
  8 12  1  0
 10 11  2  0
 11 13  1  0
 12 13  2  0
 15 16  1  0
 16 18  1  0
M  END
>  <DRUGBANK_ID>  (1) 
DB11472

>  <COMMON_NAME>  (1) 
Tioxidazole

>  <CAS_NUMBER>  (1) 
61570-90-9

>  <UNII>  (1) 
NZW046NI85

>  <SYNONYMS>  (1) 
Tioxidazol; Tioxidazole; Tioxidazolum

$$$$
