
     RDKit          3D

 33 35  0  0  1  0  0  0  0  0999 V2000
    1.0757   -0.4273    0.0862 N   0  0  0  0  0  0  0  0  0  0  0  0
    0.3741   -0.1068    1.2508 C   0  0  0  0  0  0  0  0  0  0  0  0
    0.7694    1.0090    1.9611 C   0  0  0  0  0  0  0  0  0  0  0  0
   -0.0827    1.5484    2.9142 C   0  0  0  0  0  0  0  0  0  0  0  0
   -1.2186    0.9001    3.4034 C   0  0  0  0  0  0  0  0  0  0  0  0
   -1.6426   -0.2004    2.6590 C   0  0  0  0  0  0  0  0  0  0  0  0
   -0.8497   -0.6965    1.6030 C   0  0  0  0  0  0  0  0  0  0  0  0
   -1.9800    1.2691    4.6554 C   0  0  0  0  0  0  0  0  0  0  0  0
   -3.0125    0.6585    4.9349 O   0  0  0  0  0  0  0  0  0  0  0  0
   -1.5385    2.2158    5.5561 N   0  0  0  0  0  0  0  0  0  0  0  0
   -0.3196    3.0171    5.5901 C   0  0  1  0  0  0  0  0  0  0  0  0
   -0.6429    4.5063    5.4169 C   0  0  0  0  0  0  0  0  0  0  0  0
   -1.3056    5.1401    6.6278 C   0  0  0  0  0  0  0  0  0  0  0  0
   -0.4741    5.0920    7.8872 C   0  0  0  0  0  0  0  0  0  0  0  0
    0.2131    6.2150    8.1700 O   0  0  0  0  0  0  0  0  0  0  0  0
   -0.4361    4.1326    8.6162 O   0  0  0  0  0  0  0  0  0  0  0  0
    0.7902    2.4880    6.5292 C   0  0  0  0  0  0  0  0  0  0  0  0
    2.0157    2.3829    5.9385 O   0  0  0  0  0  0  0  0  0  0  0  0
    0.6260    2.0721    7.6555 O   0  0  0  0  0  0  0  0  0  0  0  0
    0.3266   -0.4512   -1.1834 C   0  0  0  0  0  0  0  0  0  0  0  0
    0.6176    0.6915   -2.1918 C   0  0  1  0  0  0  0  0  0  0  0  0
    0.1839    2.0724   -1.8123 N   0  0  0  0  0  0  0  0  0  0  0  0
    0.5634    3.1359   -2.6845 C   0  0  0  0  0  0  0  0  0  0  0  0
    1.5100    2.9826   -3.6568 C   0  0  0  0  0  0  0  0  0  0  0  0
    2.2034    1.7751   -3.7417 N   0  0  0  0  0  0  0  0  0  0  0  0
    2.0964    0.7751   -2.6612 C   0  0  0  0  0  0  0  0  0  0  0  0
   -0.0911    4.5209   -2.5724 C   0  0  0  0  0  0  0  0  0  0  0  0
    0.2819    5.5075   -3.4524 N   0  0  0  0  0  0  0  0  0  0  0  0
    1.1652    5.2350   -4.3496 C   0  0  0  0  0  0  0  0  0  0  0  0
    1.7676    4.0309   -4.5040 N   0  0  0  0  0  0  0  0  0  0  0  0
    1.5308    6.2074   -5.2077 N   0  0  0  0  0  0  0  0  0  0  0  0
   -0.9262    4.7530   -1.7018 O   0  0  0  0  0  0  0  0  0  0  0  0
   -0.5755    2.3191   -0.6007 C   0  0  0  0  0  0  0  0  0  0  0  0
  1  2  1  0
  1 20  1  0
  2  3  2  0
  2  7  1  0
  3  4  1  0
  4  5  2  0
  5  6  1  0
  5  8  1  0
  6  7  2  0
  8  9  2  0
  8 10  1  0
 11 10  1  0
 11 12  1  1
 11 17  1  0
 12 13  1  0
 13 14  1  0
 14 15  1  0
 14 16  2  0
 17 18  1  0
 17 19  2  0
 21 20  1  1
 21 26  1  0
 21 22  1  0
 22 23  1  0
 22 33  1  0
 23 24  2  0
 23 27  1  0
 24 25  1  0
 24 30  1  0
 25 26  1  0
 27 32  2  0
 27 28  1  0
 28 29  2  0
 29 30  1  0
 29 31  1  0
M  END
>  <DRUGBANK_ID>  (1) 
DB04789

>  <COMMON_NAME>  (1) 
5-methyltetrahydrofolic acid

>  <CAS_NUMBER>  (1) 
134-35-0

>  <UNII>  (1) 
TYK22LML8F

>  <SYNONYMS>  (1) 
5-Methyl-5,6,7,8-tetrahydrofolic acid; 5-Methyl-5,6,7,8-tetrahydropteroyl-L-glutamic acid; 5-Methyltetrahydropteroyl monoglutamate; 5-Methyltetrahydropteroylglutamic acid; N-Methyltetrahydrofolate; N-Methyltetrahydrofolic acid; N5-Methyltetrahydrofolate; N5-Methyltetrahydrofolic acid; N5-Methyltetrahydropteroylglutamate

$$$$
