
     RDKit          3D

  1  0  0  0  0  0  0  0  0  0999 V2000
    0.9839   -0.0265    0.0845 F   0  0  0  0  0  0  0  0  0  0  0  0
M  END
>  <DRUGBANK_ID>  (1) 
DB11072

>  <COMMON_NAME>  (1) 
Hydrogen fluoride

>  <CAS_NUMBER>  (1) 
7664-39-3

>  <UNII>  (1) 
RGL5YE86CZ

>  <SYNONYMS>  (1) 
fluorure d'hydrog√®ne; Fluorwasserstoff; Hydrofluoric acid; Hydrogen fluoride, anhydrous; Hydrogenfluorid

$$$$
