
     RDKit          3D

 27 30  0  0  0  0  0  0  0  0999 V2000
   -1.6977   -0.7577   -0.8819 C   0  0  0  0  0  0  0  0  0  0  0  0
   -0.8143   -2.0648   -0.7971 C   0  0  2  0  0  0  0  0  0  0  0  0
   -1.3461   -3.8526   -1.1159 C   0  0  1  0  0  0  0  0  0  0  0  0
   -0.0586   -2.6040    0.4225 C   0  0  2  0  0  0  0  0  0  0  0  0
    0.5854   -1.1516   -1.5452 C   0  0  0  0  0  0  0  0  0  0  0  0
   -1.4157   -4.8032    0.3755 O   0  0  0  0  0  0  0  0  0  0  0  0
   -2.4643   -5.0651   -1.3654 C   0  0  0  0  0  0  0  0  0  0  0  0
    0.0731   -4.1339   -1.5738 C   0  0  0  0  0  0  0  0  0  0  0  0
    0.6644   -1.6872    1.3523 C   0  0  2  0  0  0  0  0  0  0  0  0
    0.8740   -3.6178   -0.3577 C   0  0  0  0  0  0  0  0  0  0  0  0
    1.4463   -0.3144   -0.5261 C   0  0  0  0  0  0  0  0  0  0  0  0
   -1.3071   -6.1883    0.6649 C   0  0  0  0  0  0  0  0  0  0  0  0
   -3.7904   -5.3053   -0.4632 C   0  0  0  0  0  0  0  0  0  0  0  0
   -2.0927   -6.0498   -2.0454 O   0  0  0  0  0  0  0  0  0  0  0  0
    1.8458   -1.1035    0.7049 C   0  0  1  0  0  0  0  0  0  0  0  0
    1.2480   -2.2549    2.6291 C   0  0  0  0  0  0  0  0  0  0  0  0
   -0.0303   -6.5148    1.2805 C   0  0  0  0  0  0  0  0  0  0  0  0
   -2.1825   -7.0458    0.7953 O   0  0  0  0  0  0  0  0  0  0  0  0
    2.4505   -0.2745    1.7769 C   0  0  2  0  0  0  0  0  0  0  0  0
    2.3568   -1.8241    3.3679 C   0  0  0  0  0  0  0  0  0  0  0  0
    3.2947   -0.4932    2.9377 C   0  0  0  0  0  0  0  0  0  0  0  0
    1.3453    0.6245    2.6535 C   0  0  0  0  0  0  0  0  0  0  0  0
    2.6563   -3.0266    4.2626 C   0  0  0  0  0  0  0  0  0  0  0  0
    3.6942    0.9331    2.9537 C   0  0  0  0  0  0  0  0  0  0  0  0
    1.3660    1.8996    1.9215 C   0  0  0  0  0  0  0  0  0  0  0  0
    2.8884    1.9277    1.7273 C   0  0  0  0  0  0  0  0  0  0  0  0
    3.4692    2.2876    0.6667 O   0  0  0  0  0  0  0  0  0  0  0  0
  2  3  1  0
  2  5  1  0
  2  1  1  1
  3  8  1  0
  3  7  1  0
  3  6  1  1
  4  2  1  0
  4 10  1  6
  5 11  1  0
  6 12  1  0
  7 13  1  0
  7 14  2  0
  8 10  1  0
  9  4  1  0
  9 16  1  1
 12 17  1  0
 12 18  2  0
 15  9  1  0
 15 11  1  6
 15 19  1  0
 16 20  2  0
 19 21  1  0
 19 22  1  1
 20 21  1  0
 20 23  1  0
 21 24  2  0
 22 25  1  0
 24 26  1  0
 25 26  1  0
 26 27  2  0
M  END
>  <DRUGBANK_ID>  (1) 
DB13981

>  <COMMON_NAME>  (1) 
Nomegestrol acetate

>  <CAS_NUMBER>  (1) 
58652-20-3

>  <UNII>  (1) 
83J78V5W05

>  <SYNONYMS>  (1) 
17-alpha-Acetoxy-6-methyl-19-nor-4,6-pregnadiene-3,20-dione; 17-alpha-Hydroxy-6-methyl-19-norpregna-4,6-diene-3,20-dione acetate; Nomegestrol acetate

$$$$
