
     RDKit          3D

 11 10  0  0  0  0  0  0  0  0999 V2000
    0.9799    0.0467    0.0659 O   0  0  0  0  0  0  0  0  0  0  0  0
    0.4640    1.0793   -0.7966 C   0  0  0  0  0  0  0  0  0  0  0  0
    0.9632    2.3240   -0.2481 O   0  0  0  0  0  0  0  0  0  0  0  0
    0.9174    0.9038   -2.2560 C   0  0  0  0  0  0  0  0  0  0  0  0
    0.4816   -0.2394   -2.8207 F   0  0  0  0  0  0  0  0  0  0  0  0
    0.5168    1.9364   -3.0322 F   0  0  0  0  0  0  0  0  0  0  0  0
    2.2757    0.8771   -2.3142 F   0  0  0  0  0  0  0  0  0  0  0  0
   -1.0755    1.0635   -0.8464 C   0  0  0  0  0  0  0  0  0  0  0  0
   -1.5791   -0.0725   -1.3726 F   0  0  0  0  0  0  0  0  0  0  0  0
   -1.6134    1.2059    0.3903 F   0  0  0  0  0  0  0  0  0  0  0  0
   -1.5446    2.1000   -1.5853 F   0  0  0  0  0  0  0  0  0  0  0  0
  1  2  1  0
  2  3  1  0
  2  4  1  0
  2  8  1  0
  4  5  1  0
  4  6  1  0
  4  7  1  0
  8  9  1  0
  8 10  1  0
  8 11  1  0
M  END
>  <DRUGBANK_ID>  (1) 
DB02922

>  <SECONDARY_ACCESSION_NUMBERS>  (1) 
EXPT01390

>  <COMMON_NAME>  (1) 
Hexafluoroacetone Hydrate

$$$$
