
     RDKit          3D

 22 25  0  0  1  0  0  0  0  0999 V2000
    2.8129   -0.5785   -0.2431 C   0  0  2  0  0  0  0  0  0  0  0  0
    2.0197   -1.8514    0.0764 C   0  0  2  0  0  0  0  0  0  0  0  0
    3.3683   -2.8772   -0.6494 C   0  0  0  0  0  0  0  0  0  0  0  0
    4.6204   -1.9229   -0.9176 C   0  0  0  0  0  0  0  0  0  0  0  0
    4.1800   -0.9916    0.1134 C   0  0  0  0  0  0  0  0  0  0  0  0
    2.6242    0.6971    0.5207 C   0  0  0  0  0  0  0  0  0  0  0  0
    1.4517    1.3443   -0.0461 C   0  0  0  0  0  0  0  0  0  0  0  0
    0.2803    0.4251    0.2681 C   0  0  2  0  0  0  0  0  0  0  0  0
    0.3949   -1.1608   -0.2968 C   0  0  2  0  0  0  0  0  0  0  0  0
   -0.8981    1.2262   -0.2389 C   0  0  2  0  0  0  0  0  0  0  0  0
   -2.2202    0.7334    0.0064 C   0  0  0  0  0  0  0  0  0  0  0  0
   -2.2904   -0.7936   -0.2051 C   0  0  0  0  0  0  0  0  0  0  0  0
   -1.0056   -1.7079    0.2614 C   0  0  0  0  0  0  0  0  0  0  0  0
   -1.1497    1.0437   -1.9420 C   0  0  0  0  0  0  0  0  0  0  0  0
   -0.6175    2.3107   -2.3480 C   0  0  0  0  0  0  0  0  0  0  0  0
   -1.9173    2.9679   -1.5386 C   0  0  0  0  0  0  0  0  0  0  0  0
   -2.9368    1.7827   -0.5088 C   0  0  0  0  0  0  0  0  0  0  0  0
   -2.0527    4.1761   -1.5265 O   0  0  0  0  0  0  0  0  0  0  0  0
    4.7086   -0.8208    1.2589 O   0  0  0  0  0  0  0  0  0  0  0  0
   -3.9310    2.2363    0.3633 O   0  0  0  0  0  0  0  0  0  0  0  0
   -0.8709    2.7609    0.6764 C   0  0  0  0  0  0  0  0  0  0  0  0
    2.6223   -0.4520   -1.8462 C   0  0  0  0  0  0  0  0  0  0  0  0
  1  2  1  0
  1  5  1  0
  1  6  1  0
  1 22  1  6
  2  3  1  6
  3  4  1  0
  4  5  1  0
  5 19  2  0
  6  7  1  0
  8  7  1  6
  8  9  1  0
  8 10  1  0
  9  2  1  0
 10 11  1  0
 10 14  1  0
 10 21  1  6
 11 12  1  0
 12 13  1  0
  9 13  1  1
 14 15  1  0
 15 16  1  0
 16 17  1  0
 16 18  2  0
 17 11  2  0
 17 20  1  0
M  END
>  <DRUGBANK_ID>  (1) 
DB08905

>  <COMMON_NAME>  (1) 
Formestane

>  <CAS_NUMBER>  (1) 
566-48-3

>  <UNII>  (1) 
PUB9T8T355

>  <SYNONYMS>  (1) 
4-hydroxy-4-androstene-3,17-dione; 4-Hydroxy-delta(4)-androstenedione; 4-hydroxy-Î”4-androstenedione; 4-hydroxyandrostenedione; 4-OH-A; 4-OHAD; Formestane; Formestano; Formestanum

$$$$
