
     RDKit          3D

  8  7  0  0  0  0  0  0  0  0999 V2000
    1.1608    0.0750    0.0630 C   0  0  0  0  0  0  0  0  0  0  0  0
    0.1655   -0.3268    1.0881 C   0  0  0  0  0  0  0  0  0  0  0  0
    0.7361    0.5371   -1.1158 O   0  0  0  0  0  0  0  0  0  0  0  0
    2.3554   -0.0223    0.3114 O   0  0  0  0  0  0  0  0  0  0  0  0
   -1.1804   -0.3468    1.1392 C   0  0  0  0  0  0  0  0  0  0  0  0
   -2.0705    0.0805    0.0491 C   0  0  0  0  0  0  0  0  0  0  0  0
   -3.3835   -0.0146    0.2917 O   0  0  0  0  0  0  0  0  0  0  0  0
   -1.6543    0.5001   -1.0215 O   0  0  0  0  0  0  0  0  0  0  0  0
  1  2  1  0
  1  3  1  0
  1  4  2  0
  2  5  2  0
  5  6  1  0
  6  7  1  0
  6  8  2  0
M  END
>  <DRUGBANK_ID>  (1) 
DB04299

>  <SECONDARY_ACCESSION_NUMBERS>  (1) 
EXPT02106

>  <COMMON_NAME>  (1) 
Maleic acid

>  <CAS_NUMBER>  (1) 
110-16-7

>  <UNII>  (1) 
91XW058U2C

>  <SYNONYMS>  (1) 
(Z)-2-butenedioic acid; (Z)-butenedioic acid; cis-1,2-ethylenedicarboxylic acid; cis-but-2-enedioic acid; cis-Butenedioic acid; Maleic acid; Toxilic acid

$$$$
