
     RDKit          3D

 25 27  0  0  1  0  0  0  0  0999 V2000
    3.0697    2.4779   -7.7851 C   0  0  0  0  0  0  0  0  0  0  0  0
    3.0669    3.0362   -6.3924 C   0  0  0  0  0  0  0  0  0  0  0  0
    3.0995    1.9960   -5.3850 N   0  0  0  0  0  0  0  0  0  0  0  0
    4.2282    1.9426   -4.6500 C   0  0  0  0  0  0  0  0  0  0  0  0
    3.8459    1.9826   -2.8446 C   0  0  0  0  0  0  0  0  0  0  0  0
    2.3153    0.9108   -5.1190 C   0  0  0  0  0  0  0  0  0  0  0  0
    1.1971    0.8404   -5.5865 O   0  0  0  0  0  0  0  0  0  0  0  0
    2.8972   -0.1490   -4.0644 C   0  0  1  0  0  0  0  0  0  0  0  0
    2.2009   -1.4547   -4.4008 C   0  0  0  0  0  0  0  0  0  0  0  0
    2.6642   -2.5470   -3.4703 C   0  0  0  0  0  0  0  0  0  0  0  0
    4.1380   -2.8926   -3.7551 C   0  0  0  0  0  0  0  0  0  0  0  0
    5.0489   -1.6594   -3.6655 C   0  0  0  0  0  0  0  0  0  0  0  0
    4.5756   -0.3633   -3.7302 C   0  0  0  0  0  0  0  0  0  0  0  0
    5.9023    0.6325   -3.5220 C   0  0  0  0  0  0  0  0  0  0  0  0
    6.3066    2.2338   -3.5443 C   0  0  0  0  0  0  0  0  0  0  0  0
    5.5162    3.4348   -3.1629 O   0  0  0  0  0  0  0  0  0  0  0  0
    4.8382    4.5386   -3.8483 C   0  0  0  0  0  0  0  0  0  0  0  0
    7.5587    2.7142   -3.7019 C   0  0  0  0  0  0  0  0  0  0  0  0
    8.5184    1.7475   -3.6916 C   0  0  0  0  0  0  0  0  0  0  0  0
    8.2632    0.3229   -3.6123 C   0  0  0  0  0  0  0  0  0  0  0  0
    6.9600   -0.2613   -3.5757 C   0  0  0  0  0  0  0  0  0  0  0  0
    6.4465   -1.5894   -3.5668 N   0  0  0  0  0  0  0  0  0  0  0  0
    7.2920   -2.7794   -3.5006 C   0  0  0  0  0  0  0  0  0  0  0  0
    7.1331   -3.5503   -2.1972 C   0  0  0  0  0  0  0  0  0  0  0  0
    5.9762   -4.2510   -2.1498 F   0  0  0  0  0  0  0  0  0  0  0  0
  1  2  1  0
  2  3  1  0
  3  4  1  0
  3  6  1  0
  4  5  1  0
  6  7  2  0
  8  9  1  0
  8 13  1  0
  8  6  1  6
  9 10  1  0
 10 11  1  0
 11 12  1  0
 12 13  2  0
 12 22  1  0
 13 14  1  0
 14 15  2  0
 14 21  1  0
 15 16  1  0
 15 18  1  0
 16 17  1  0
 18 19  2  0
 19 20  1  0
 20 21  2  0
 21 22  1  0
 22 23  1  0
 23 24  1  0
 24 25  1  0
M  ISO  1  25  18
M  END
>  <DRUGBANK_ID>  (1) 
DB15380

>  <COMMON_NAME>  (1) 
Flutriciclamide F-18

>  <CAS_NUMBER>  (1) 
1274863-98-7

>  <UNII>  (1) 
M96ARL6373

>  <SYNONYMS>  (1) 
18F-GE-180

$$$$
