
     RDKit          3D

 33 36  0  0  0  0  0  0  0  0999 V2000
   -0.7293   -1.6926   -4.2195 C   0  0  0  0  0  0  0  0  0  0  0  0
   -2.0237   -2.1377   -4.1946 C   0  0  0  0  0  0  0  0  0  0  0  0
   -2.9023   -1.1382   -3.4731 C   0  0  1  0  0  0  0  0  0  0  0  0
   -0.5929   -0.5944   -3.3541 N   0  0  0  0  0  0  0  0  0  0  0  0
   -1.8814   -0.3490   -2.6701 C   0  0  1  0  0  0  0  0  0  0  0  0
   -1.6551    1.1662   -2.8831 C   0  0  2  0  0  0  0  0  0  0  0  0
   -0.4034    0.7310   -3.6726 C   0  0  0  0  0  0  0  0  0  0  0  0
    0.3374    1.3096   -4.4227 O   0  0  0  0  0  0  0  0  0  0  0  0
   -2.5888   -3.6920   -4.6802 S   0  0  0  0  0  0  0  0  0  0  0  0
    0.5518   -2.2378   -4.8808 C   0  0  0  0  0  0  0  0  0  0  0  0
    1.5939   -1.6020   -4.9463 O   0  0  0  0  0  0  0  0  0  0  0  0
    0.4229   -3.4820   -5.4080 O   0  0  0  0  0  0  0  0  0  0  0  0
    1.4145   -3.9495   -6.3566 C   0  0  0  0  0  0  0  0  0  0  0  0
    1.6748   -3.0877   -7.4844 O   0  0  0  0  0  0  0  0  0  0  0  0
   -1.5608    2.0983   -1.6872 C   0  0  1  0  0  0  0  0  0  0  0  0
   -2.9646    2.4202   -1.1620 C   0  0  0  0  0  0  0  0  0  0  0  0
   -0.8116    1.5059   -0.6377 O   0  0  0  0  0  0  0  0  0  0  0  0
   -3.7158   -0.2035   -4.3644 C   0  0  0  0  0  0  0  0  0  0  0  0
   -4.3738   -3.9952   -4.5784 C   0  0  0  0  0  0  0  0  0  0  0  0
   -5.3327   -3.0921   -5.3498 C   0  0  0  0  0  0  0  0  0  0  0  0
   -6.0586   -2.9119   -4.1410 N   0  0  0  0  0  0  0  0  0  0  0  0
   -5.1369   -3.6118   -3.3057 C   0  0  0  0  0  0  0  0  0  0  0  0
   -7.3931   -2.7314   -3.8965 C   0  0  0  0  0  0  0  0  0  0  0  0
   -7.8500   -2.0199   -2.9133 N   0  0  0  0  0  0  0  0  0  0  0  0
   -9.3270   -1.9284   -2.9061 C   0  0  0  0  0  0  0  0  0  0  0  0
   -9.9149   -2.3583   -4.2376 C   0  0  0  0  0  0  0  0  0  0  0  0
   -8.6239   -3.4066   -4.9533 S   0  0  0  0  0  0  0  0  0  0  0  0
    0.8688   -2.6858   -8.4859 C   0  0  0  0  0  0  0  0  0  0  0  0
   -0.6018   -3.1275   -8.6205 C   0  0  0  0  0  0  0  0  0  0  0  0
    1.3321   -1.9051   -9.3236 O   0  0  0  0  0  0  0  0  0  0  0  0
   -1.4777   -1.8744   -8.4295 C   0  0  0  0  0  0  0  0  0  0  0  0
   -0.8321   -3.7267  -10.0110 C   0  0  0  0  0  0  0  0  0  0  0  0
   -1.1204   -4.1911   -7.6831 C   0  0  0  0  0  0  0  0  0  0  0  0
  1 10  1  0
  1  2  2  0
  2  9  1  0
  2  3  1  0
  3 18  1  6
  3  5  1  0
  5  4  1  6
  4  1  1  0
  5  6  1  0
  6  7  1  1
  7  8  2  0
  7  4  1  0
  9 19  1  0
 10 11  2  0
 10 12  1  0
 12 13  1  0
 13 14  1  0
 14 28  1  0
 15 16  1  1
 15  6  1  0
 15 17  1  0
 19 20  1  0
 20 21  1  0
 21 22  1  0
 21 23  1  0
 22 19  1  0
 23 24  2  0
 24 25  1  0
 25 26  1  0
 26 27  1  0
 27 23  1  0
 28 29  1  0
 28 30  2  0
 29 31  1  0
 29 32  1  0
 29 33  1  0
M  END
>  <DRUGBANK_ID>  (1) 
DB16840

>  <COMMON_NAME>  (1) 
Tebipenem pivoxil

>  <CAS_NUMBER>  (1) 
161715-24-8

>  <UNII>  (1) 
95AK1A52I8

>  <SYNONYMS>  (1) 
Tebipenem pivoxil

$$$$
