
     RDKit          3D

 17 19  0  0  0  0  0  0  0  0999 V2000
    1.0559    0.1104   -0.1942 O   0  0  0  0  0  0  0  0  0  0  0  0
    2.2782   -0.0032   -0.1166 C   0  0  0  0  0  0  0  0  0  0  0  0
    2.9926   -0.9941   -0.7735 N   0  0  0  0  0  0  0  0  0  0  0  0
    4.1549   -1.6930   -0.2352 C   0  0  0  0  0  0  0  0  0  0  0  0
    5.3410   -1.5390   -1.1791 C   0  0  0  0  0  0  0  0  0  0  0  0
    4.9715   -1.9422   -2.6111 C   0  0  0  0  0  0  0  0  0  0  0  0
    3.6692   -1.2786   -3.0779 C   0  0  0  0  0  0  0  0  0  0  0  0
    2.5386   -1.4875   -2.0664 C   0  0  0  0  0  0  0  0  0  0  0  0
    3.0343    1.0437    0.6329 C   0  0  0  0  0  0  0  0  0  0  0  0
    4.1563    1.6546    0.0271 C   0  0  0  0  0  0  0  0  0  0  0  0
    4.7922    2.6368    0.8123 C   0  0  0  0  0  0  0  0  0  0  0  0
    5.8868    3.3606    0.5458 N   0  0  0  0  0  0  0  0  0  0  0  0
    6.0946    4.1563    1.6619 O   0  0  0  0  0  0  0  0  0  0  0  0
    5.1220    3.9544    2.6277 N   0  0  0  0  0  0  0  0  0  0  0  0
    4.3006    3.0239    2.1275 C   0  0  0  0  0  0  0  0  0  0  0  0
    3.1426    2.4562    2.6902 C   0  0  0  0  0  0  0  0  0  0  0  0
    2.5232    1.4681    1.8932 C   0  0  0  0  0  0  0  0  0  0  0  0
  1  2  2  0
  2  3  1  0
  2  9  1  0
  3  4  1  0
  3  8  1  0
  4  5  1  0
  5  6  1  0
  6  7  1  0
  7  8  1  0
  9 10  2  0
  9 17  1  0
 10 11  1  0
 11 12  2  0
 11 15  1  0
 12 13  1  0
 13 14  1  0
 14 15  2  0
 15 16  1  0
 16 17  2  0
M  END
>  <DRUGBANK_ID>  (1) 
DB15012

>  <COMMON_NAME>  (1) 
Farampator

>  <CAS_NUMBER>  (1) 
211735-76-1

>  <UNII>  (1) 
7X6P5N8K2L

>  <SYNONYMS>  (1) 
Farampator

$$$$
