
     RDKit          3D

 27 30  0  0  1  0  0  0  0  0999 V2000
   -5.7721    3.9729   -5.4595 S   0  0  0  0  0  0  0  0  0  0  0  0
   -6.1691    0.9279   -5.6325 O   0  0  0  0  0  0  0  0  0  0  0  0
   -3.0606    7.4642   -5.5784 O   0  0  0  0  0  0  0  0  0  0  0  0
   -4.3363    6.2789   -1.6190 O   0  0  0  0  0  0  0  0  0  0  0  0
   -5.4471    2.7571   -0.4501 O   0  0  0  0  0  0  0  0  0  0  0  0
   -5.5145    1.1473   -1.8761 O   0  0  0  0  0  0  0  0  0  0  0  0
   -3.1595    3.7959   -2.0891 O   0  0  0  0  0  0  0  0  0  0  0  0
   -1.3638    4.8158   -1.0679 O   0  0  0  0  0  0  0  0  0  0  0  0
   -1.5488    4.8004   -3.3658 O   0  0  0  0  0  0  0  0  0  0  0  0
   -5.6076    4.7944   -2.9480 N   0  0  0  0  0  0  0  0  0  0  0  0
   -5.6830    5.3706   -4.3367 C   0  0  1  0  0  0  0  0  0  0  0  0
   -4.2434    5.9431   -4.1341 C   0  0  2  0  0  0  0  0  0  0  0  0
   -4.6380    5.7118   -2.6673 C   0  0  0  0  0  0  0  0  0  0  0  0
   -5.8645    2.8173   -4.1352 C   0  0  0  0  0  0  0  0  0  0  0  0
   -5.6008    3.3625   -2.9295 C   0  0  0  0  0  0  0  0  0  0  0  0
   -3.7723    7.3891   -4.3449 C   0  0  1  0  0  0  0  0  0  0  0  0
   -6.5216    1.4766   -4.3618 C   0  0  1  0  0  0  0  0  0  0  0  0
   -8.0293    1.7243   -4.3440 C   0  0  0  0  0  0  0  0  0  0  0  0
   -8.3572    1.8263   -5.8099 C   0  0  0  0  0  0  0  0  0  0  0  0
   -2.7981    7.9087   -3.2651 C   0  0  0  0  0  0  0  0  0  0  0  0
   -7.3393    0.9054   -6.4483 C   0  0  0  0  0  0  0  0  0  0  0  0
   -5.5260    2.3675   -1.7343 C   0  0  0  0  0  0  0  0  0  0  0  0
   -4.8689    3.9982   -0.1845 C   0  0  0  0  0  0  0  0  0  0  0  0
   -3.4566    4.0591   -0.7531 C   0  0  0  0  0  0  0  0  0  0  0  0
   -2.3698    4.4949   -0.1799 C   0  0  0  0  0  0  0  0  0  0  0  0
   -2.1340    4.4461    1.2549 C   0  0  0  0  0  0  0  0  0  0  0  0
   -1.9732    4.4904   -2.2604 C   0  0  0  0  0  0  0  0  0  0  0  0
 11  1  1  6
  1 14  1  0
  2 17  1  0
  2 21  1  0
  4 13  2  0
  5 22  1  0
  5 23  1  0
  6 22  2  0
  7 24  1  0
  7 27  1  0
  8 25  1  0
  8 27  1  0
  9 27  2  0
 10 11  1  0
 10 13  1  0
 10 15  1  0
 11 12  1  0
 12 13  1  1
 14 15  2  0
 15 22  1  0
 16 20  1  1
 16 12  1  0
 16  3  1  0
 17 18  1  0
 17 14  1  6
 18 19  1  0
 19 21  1  0
 23 24  1  0
 24 25  2  0
 25 26  1  0
M  END
>  <DRUGBANK_ID>  (1) 
DB05659

>  <COMMON_NAME>  (1) 
Faropenem medoxomil

>  <CAS_NUMBER>  (1) 
141702-36-5

>  <UNII>  (1) 
5OK523O4FU

>  <SYNONYMS>  (1) 
Faropenem daloxate; Faropenem medoxil; Faropenem medoxomil

$$$$
