LK5
     RDKit          3D

 22 23  0  0  0  0  0  0  0  0999 V2000
    2.7032   -1.3686   -6.9629 C   0  0  0  0  0  0  0  0  0  0  0  0
    4.1427   -1.0619   -6.6927 C   0  0  0  0  0  0  0  0  0  0  0  0
    4.8091   -0.0037   -7.5409 C   0  0  0  0  0  0  0  0  0  0  0  0
    4.2308    1.3864   -7.2921 C   0  0  0  0  0  0  0  0  0  0  0  0
    4.6040    1.9586   -6.0303 O   0  0  0  0  0  0  0  0  0  0  0  0
    4.1167    1.3962   -4.7899 C   0  0  2  0  0  0  0  0  0  0  0  0
    5.1654    0.3262   -4.2453 C   0  0  0  0  0  0  0  0  0  0  0  0
    4.5987   -0.5968   -3.1615 C   0  0  0  0  0  0  0  0  0  0  0  0
    3.1956   -1.1754   -3.3642 C   0  0  0  0  0  0  0  0  0  0  0  0
    2.1759   -0.3259   -4.1561 C   0  0  0  0  0  0  0  0  0  0  0  0
    2.6106    1.0088   -4.7872 C   0  0  0  0  0  0  0  0  0  0  0  0
    1.5096    1.5908   -5.3544 C   0  0  0  0  0  0  0  0  0  0  0  0
    1.4005    2.8119   -6.2273 C   0  0  0  0  0  0  0  0  0  0  0  0
    0.4115    3.0903   -6.9318 O   0  0  0  0  0  0  0  0  0  0  0  0
    2.4804    3.5876   -6.2146 O   0  0  0  0  0  0  0  0  0  0  0  0
    0.3356    0.8368   -5.1193 N   0  0  0  0  0  0  0  0  0  0  0  0
    0.6483   -0.4658   -4.5243 C   0  0  2  0  0  0  0  0  0  0  0  0
   -0.2168   -0.8363   -3.3549 C   0  0  1  0  0  0  0  0  0  0  0  0
   -0.2496   -2.3702   -3.1994 C   0  0  0  0  0  0  0  0  0  0  0  0
   -1.1082   -2.7559   -2.0115 C   0  0  0  0  0  0  0  0  0  0  0  0
    0.4178   -0.1116   -2.1830 C   0  0  0  0  0  0  0  0  0  0  0  0
    0.6825   -0.6115   -1.0961 O   0  0  0  0  0  0  0  0  0  0  0  0
  1  2  1  0
  2  3  1  0
  3  4  1  0
  4  5  1  0
  6  5  1  6
  6  7  1  0
  6 11  1  0
  7  8  1  0
  8  9  1  0
  9 10  1  0
 10 17  1  0
 10 11  1  0
 11 12  2  0
 12 16  1  0
 12 13  1  0
 13 14  2  0
 13 15  1  0
 17 16  1  1
 18 19  1  1
 18 21  1  0
 18 17  1  0
 19 20  1  0
 21 22  2  0
M  END
>  <DRUGBANK_ID>  (1) 
DB08109

>  <COMMON_NAME>  (1) 
(1S,4R,7AR)-4-BUTOXY-1-[(1R)-1-FORMYLPROPYL]-2,4,5,6,7,7A-HEXAHYDRO-1H-ISOINDOLE-3-CARBOXYLIC ACID

$$$$
