
     RDKit          3D

 26 28  0  0  0  0  0  0  0  0999 V2000
   -1.2460   -1.4220    0.0010 B   0  0  0  0  0  0  0  0  0  0  0  0
   -0.1370   -0.6650   -0.0000 C   0  0  0  0  0  0  0  0  0  0  0  0
    1.1910   -1.1820   -0.0010 C   0  0  0  0  0  0  0  0  0  0  0  0
    2.2430   -0.3630   -0.0020 C   0  0  0  0  0  0  0  0  0  0  0  0
    2.0560    1.0290    0.0040 C   0  0  0  0  0  0  0  0  0  0  0  0
    0.7470    1.5310   -0.0020 C   0  0  0  0  0  0  0  0  0  0  0  0
   -0.2630    0.7310   -0.0010 C   0  0  0  0  0  0  0  0  0  0  0  0
   -2.0160    1.0430   -0.0000 C   0  0  0  0  0  0  0  0  0  0  0  0
   -2.5770   -0.7040    0.0010 O   0  0  0  0  0  0  0  0  0  0  0  0
   -2.5427    1.9161   -1.1272 C   0  0  0  0  0  0  0  0  0  0  0  0
   -2.4679    1.7953    1.2411 C   0  0  0  0  0  0  0  0  0  0  0  0
    3.6038   -0.9190   -0.0094 N   0  0  0  0  0  0  0  0  0  0  0  0
    3.8027   -2.3754   -0.0157 C   0  0  0  0  0  0  0  0  0  0  0  0
    4.9792   -2.8561   -0.0221 O   0  0  0  0  0  0  0  0  0  0  0  0
    2.6013   -3.3066   -0.0145 C   0  0  0  0  0  0  0  0  0  0  0  0
    1.4923   -3.0673   -0.8731 C   0  0  0  0  0  0  0  0  0  0  0  0
    0.2866   -3.7516   -0.6482 C   0  0  0  0  0  0  0  0  0  0  0  0
    0.2608   -4.7801    0.1474 C   0  0  0  0  0  0  0  0  0  0  0  0
    1.4371   -5.2138    0.7732 C   0  0  0  0  0  0  0  0  0  0  0  0
    2.5713   -4.3661    0.7956 C   0  0  0  0  0  0  0  0  0  0  0  0
    3.7358   -4.6587    1.7276 C   0  0  0  0  0  0  0  0  0  0  0  0
    3.3091   -4.6471    2.9873 F   0  0  0  0  0  0  0  0  0  0  0  0
    4.2424   -5.8549    1.4422 F   0  0  0  0  0  0  0  0  0  0  0  0
    4.6747   -3.7302    1.5690 F   0  0  0  0  0  0  0  0  0  0  0  0
   -0.8837   -5.4211    0.3674 F   0  0  0  0  0  0  0  0  0  0  0  0
   -1.1678   -2.9200    0.0021 O   0  0  0  0  0  0  0  0  0  0  0  0
  1  2  1  0
  1  9  1  0
  1 26  1  0
  2  3  2  0
  2  7  1  0
  3  4  1  0
  4  5  2  0
  4 12  1  0
  5  6  1  0
  6  7  2  0
  7  8  1  0
  8  9  1  0
  8 10  1  0
  8 11  1  0
 12 13  1  0
 13 14  2  0
 13 15  1  0
 15 16  2  0
 15 20  1  0
 16 17  1  0
 17 18  2  0
 18 19  1  0
 18 25  1  0
 19 20  2  0
 20 21  1  0
 21 22  1  0
 21 23  1  0
 21 24  1  0
M  END
>  <DRUGBANK_ID>  (1) 
DB13086

>  <COMMON_NAME>  (1) 
Acoziborole

>  <CAS_NUMBER>  (1) 
1266084-51-8

>  <UNII>  (1) 
2IOR2OO3GW

$$$$
