
     RDKit          3D

 12 13  0  0  1  0  0  0  0  0999 V2000
   -2.3715   -0.0040    0.0053 C   0  0  0  0  0  0  0  0  0  0  0  0
   -1.6143    1.1448   -0.0696 C   0  0  0  0  0  0  0  0  0  0  0  0
    0.8747    1.5378   -0.0494 C   0  0  0  0  0  0  0  0  0  0  0  0
    2.1096    0.7361    0.3718 C   0  0  2  0  0  0  0  0  0  0  0  0
    2.1290   -0.6216   -0.3713 C   0  0  1  0  0  0  0  0  0  0  0  0
    0.9180   -1.4740    0.0643 C   0  0  2  0  0  0  0  0  0  0  0  0
   -0.3345   -0.6611    0.0007 C   0  0  0  0  0  0  0  0  0  0  0  0
   -1.5749   -1.1163    0.0689 N   0  0  0  0  0  0  0  0  0  0  0  0
   -0.3243    0.7092   -0.0367 N   0  0  0  0  0  0  0  0  0  0  0  0
    2.1212    0.6097    1.7989 O   0  0  0  0  0  0  0  0  0  0  0  0
    2.1466   -0.4035   -1.7934 O   0  0  0  0  0  0  0  0  0  0  0  0
    1.0654   -1.8483    1.4385 O   0  0  0  0  0  0  0  0  0  0  0  0
  2  1  2  0
  4  3  1  0
  4 10  1  1
  5  4  1  0
  5 11  1  6
  6  5  1  0
  6 12  1  1
  7  6  1  0
  8  1  1  0
  8  7  2  0
  9  2  1  0
  9  3  1  0
  9  7  1  0
M  END
>  <DRUGBANK_ID>  (1) 
DB02374

>  <SECONDARY_ACCESSION_NUMBERS>  (1) 
EXPT03259

>  <COMMON_NAME>  (1) 
Xylose-Derived Imidazole

$$$$
