
     RDKit          3D

 41 45  0  0  0  0  0  0  0  0999 V2000
    0.7896    0.0091    0.0753 C   0  0  0  0  0  0  0  0  0  0  0  0
    0.3741   -0.8649   -0.9864 O   0  0  0  0  0  0  0  0  0  0  0  0
    0.8602   -0.7239   -2.2762 C   0  0  0  0  0  0  0  0  0  0  0  0
    2.1816   -0.3710   -2.5782 C   0  0  0  0  0  0  0  0  0  0  0  0
    3.1289   -0.0506   -1.5724 N   0  0  0  0  0  0  0  0  0  0  0  0
    4.4587    0.2947   -1.7958 C   0  0  0  0  0  0  0  0  0  0  0  0
    5.3999   -0.5908   -1.4295 N   0  0  0  0  0  0  0  0  0  0  0  0
    6.6668   -0.3088   -1.7829 C   0  0  0  0  0  0  0  0  0  0  0  0
    7.0222    0.8269   -2.4664 C   0  0  0  0  0  0  0  0  0  0  0  0
    5.9904    1.7037   -2.7280 C   0  0  0  0  0  0  0  0  0  0  0  0
    4.7107    1.4524   -2.4111 N   0  0  0  0  0  0  0  0  0  0  0  0
    6.2804    2.9063   -3.4140 N   0  0  0  0  0  0  0  0  0  0  0  0
    6.9199    2.9827   -4.6214 C   0  0  0  0  0  0  0  0  0  0  0  0
    7.1220    4.3199   -4.8763 C   0  0  0  0  0  0  0  0  0  0  0  0
    7.7723    4.9044   -6.0832 C   0  0  0  0  0  0  0  0  0  0  0  0
    6.8386    5.7783   -6.7937 N   0  0  0  0  0  0  0  0  0  0  0  0
    7.4882    6.4362   -7.9157 C   0  0  0  0  0  0  0  0  0  0  0  0
    5.6118    5.1020   -7.2078 C   0  0  0  0  0  0  0  0  0  0  0  0
    6.5517    4.9984   -3.7527 C   0  0  0  0  0  0  0  0  0  0  0  0
    6.0250    4.1249   -2.8784 N   0  0  0  0  0  0  0  0  0  0  0  0
    6.5720    6.4452   -3.5257 C   0  0  0  0  0  0  0  0  0  0  0  0
    7.3124    6.9759   -2.4688 C   0  0  0  0  0  0  0  0  0  0  0  0
    7.5014    8.3587   -2.3701 C   0  0  0  0  0  0  0  0  0  0  0  0
    6.9897    9.2154   -3.3464 C   0  0  0  0  0  0  0  0  0  0  0  0
    6.2751    8.6939   -4.4156 C   0  0  0  0  0  0  0  0  0  0  0  0
    6.0037    7.3276   -4.4548 C   0  0  0  0  0  0  0  0  0  0  0  0
    2.5140   -0.2930   -3.9388 C   0  0  0  0  0  0  0  0  0  0  0  0
    1.6106   -0.6319   -5.0004 C   0  0  0  0  0  0  0  0  0  0  0  0
    2.1342   -0.1102   -6.2303 N   0  0  0  0  0  0  0  0  0  0  0  0
    1.4327    0.6820   -7.0954 C   0  0  0  0  0  0  0  0  0  0  0  0
    1.7334    0.8454   -8.2445 O   0  0  0  0  0  0  0  0  0  0  0  0
    0.1013    1.0354   -6.5895 C   0  0  0  0  0  0  0  0  0  0  0  0
   -0.4670    1.3260   -5.4063 C   0  0  0  0  0  0  0  0  0  0  0  0
    0.2308   -1.1409   -4.7468 C   0  0  0  0  0  0  0  0  0  0  0  0
   -0.0785   -1.0787   -3.3416 C   0  0  0  0  0  0  0  0  0  0  0  0
   -0.8099   -1.4827   -5.7510 N   0  0  0  0  0  0  0  0  0  0  0  0
   -0.3766   -2.4104   -6.8335 C   0  0  0  0  0  0  0  0  0  0  0  0
   -0.5498   -1.8455   -8.2812 C   0  0  0  0  0  0  0  0  0  0  0  0
   -1.8017   -1.1971   -8.6219 O   0  0  0  0  0  0  0  0  0  0  0  0
   -2.2851   -0.2138   -7.7029 C   0  0  0  0  0  0  0  0  0  0  0  0
   -2.2714   -0.8049   -6.2206 C   0  0  0  0  0  0  0  0  0  0  0  0
  1  2  1  0
  2  3  1  0
  3  4  2  0
  3 35  1  0
  4  5  1  0
  4 27  1  0
  5  6  1  0
  6  7  2  0
  6 11  1  0
  7  8  1  0
  8  9  2  0
  9 10  1  0
 10 11  2  0
 10 12  1  0
 12 13  1  0
 12 20  1  0
 13 14  2  0
 14 15  1  0
 14 19  1  0
 15 16  1  0
 16 17  1  0
 16 18  1  0
 19 20  2  0
 19 21  1  0
 21 22  2  0
 21 26  1  0
 22 23  1  0
 23 24  2  0
 24 25  1  0
 25 26  2  0
 27 28  2  0
 28 29  1  0
 28 34  1  0
 29 30  1  0
 30 31  2  0
 30 32  1  0
 32 33  2  0
 34 35  2  0
 34 36  1  0
 36 37  1  0
 36 41  1  0
 37 38  1  0
 38 39  1  0
 39 40  1  0
 40 41  1  0
M  END
>  <DRUGBANK_ID>  (1) 
DB16216

>  <COMMON_NAME>  (1) 
Lazertinib

>  <CAS_NUMBER>  (1) 
1903008-80-9

>  <UNII>  (1) 
4A2Y23XK11

>  <SYNONYMS>  (1) 
Lazertinib

$$$$
