
     RDKit          3D

 22 24  0  0  0  0  0  0  0  0999 V2000
    1.0395    0.0902    0.0452 C   0  0  0  0  0  0  0  0  0  0  0  0
    0.6066    1.4887    0.4007 C   0  0  0  0  0  0  0  0  0  0  0  0
   -0.5411    1.6838    1.1893 C   0  0  0  0  0  0  0  0  0  0  0  0
   -0.9793    2.9758    1.5129 C   0  0  0  0  0  0  0  0  0  0  0  0
   -0.2936    4.1030    1.0294 C   0  0  0  0  0  0  0  0  0  0  0  0
    0.8793    3.9142    0.2179 C   0  0  0  0  0  0  0  0  0  0  0  0
    1.3052    2.6095   -0.1002 C   0  0  0  0  0  0  0  0  0  0  0  0
    1.5911    5.0029   -0.5148 O   0  0  0  0  0  0  0  0  0  0  0  0
    2.2563    6.1468    0.0463 C   0  0  0  0  0  0  0  0  0  0  0  0
    2.5198    6.2855    1.1968 O   0  0  0  0  0  0  0  0  0  0  0  0
    2.5070    7.3085   -0.9214 C   0  0  0  0  0  0  0  0  0  0  0  0
   -0.8907    5.3872    1.4128 C   0  0  0  0  0  0  0  0  0  0  0  0
   -1.9200    5.5471    2.2417 C   0  0  0  0  0  0  0  0  0  0  0  0
   -2.3869    6.9550    2.6782 C   0  0  0  0  0  0  0  0  0  0  0  0
   -1.3662    8.0732    2.4370 C   0  0  0  0  0  0  0  0  0  0  0  0
   -0.8101    7.9424    1.0364 C   0  0  0  0  0  0  0  0  0  0  0  0
   -0.2016    6.5799    0.9792 C   0  0  0  0  0  0  0  0  0  0  0  0
   -1.8006    8.0512   -0.1148 C   0  0  0  0  0  0  0  0  0  0  0  0
   -2.6018    4.3265    2.7686 C   0  0  0  0  0  0  0  0  0  0  0  0
   -2.1172    3.0432    2.2826 O   0  0  0  0  0  0  0  0  0  0  0  0
   -2.3589    4.3282    4.2803 C   0  0  0  0  0  0  0  0  0  0  0  0
   -4.0437    4.4509    2.2725 C   0  0  0  0  0  0  0  0  0  0  0  0
  1  2  1  0
  2  3  2  0
  2  7  1  0
  3  4  1  0
  4  5  2  0
  4 20  1  0
  5  6  1  0
  5 12  1  0
  6  7  2  0
  6  8  1  0
  8  9  1  0
  9 10  2  0
  9 11  1  0
 12 13  2  0
 12 17  1  0
 13 14  1  0
 13 19  1  0
 14 15  1  0
 15 16  1  0
 16 17  1  0
 16 18  1  0
 19 20  1  0
 19 21  1  0
 19 22  1  0
M  END
>  <DRUGBANK_ID>  (1) 
DB12840

>  <COMMON_NAME>  (1) 
Pirnabine

>  <CAS_NUMBER>  (1) 
19825-63-9

>  <UNII>  (1) 
S3FHL03F60

>  <SYNONYMS>  (1) 
Pirnabin; Pirnabine

$$$$
