
     RDKit          3D

 22 23  0  0  1  0  0  0  0  0999 V2000
    1.0659    1.4423   -1.9588 C   0  0  0  0  0  0  0  0  0  0  0  0
    0.5736    1.2798   -0.5243 C   0  0  2  0  0  0  0  0  0  0  0  0
    1.0716    0.0434    0.0895 C   0  0  0  0  0  0  0  0  0  0  0  0
    1.6653   -0.8838    0.5543 C   0  0  0  0  0  0  0  0  0  0  0  0
    2.5883   -1.8804    0.9653 C   0  0  0  0  0  0  0  0  0  0  0  0
    2.4066   -2.8425    1.9281 C   0  0  0  0  0  0  0  0  0  0  0  0
    3.5448   -3.6896    2.0348 C   0  0  0  0  0  0  0  0  0  0  0  0
    4.5729   -3.3032    1.1939 C   0  0  0  0  0  0  0  0  0  0  0  0
    4.1311   -1.9577    0.2463 S   0  0  0  0  0  0  0  0  0  0  0  0
    5.9511   -3.8691    1.0389 C   0  0  0  0  0  0  0  0  0  0  0  0
    6.7480   -3.7551    2.3163 C   0  0  0  0  0  0  0  0  0  0  0  0
    6.3218   -4.4144    3.4820 C   0  0  0  0  0  0  0  0  0  0  0  0
    6.9967   -4.2512    4.6829 C   0  0  0  0  0  0  0  0  0  0  0  0
    8.1447   -3.4775    4.7063 C   0  0  0  0  0  0  0  0  0  0  0  0
    8.6078   -2.8396    3.5595 C   0  0  0  0  0  0  0  0  0  0  0  0
    7.9004   -2.9616    2.3647 C   0  0  0  0  0  0  0  0  0  0  0  0
    8.8234   -3.3535    5.8528 F   0  0  0  0  0  0  0  0  0  0  0  0
   -0.8752    1.4034   -0.4197 N   0  0  0  0  0  0  0  0  0  0  0  0
   -1.6234    2.3507    0.2150 C   0  0  0  0  0  0  0  0  0  0  0  0
   -2.8529    2.3481    0.1887 O   0  0  0  0  0  0  0  0  0  0  0  0
   -0.9593    3.3255    0.8857 N   0  0  0  0  0  0  0  0  0  0  0  0
   -1.5778    0.4120   -1.1547 O   0  0  0  0  0  0  0  0  0  0  0  0
  2 18  1  0
  2  3  1  0
  2  1  1  6
  3  4  3  0
  4  5  1  0
  5  6  2  0
  5  9  1  0
  6  7  1  0
  7  8  2  0
  8  9  1  0
  8 10  1  0
 10 11  1  0
 11 12  2  0
 11 16  1  0
 12 13  1  0
 13 14  2  0
 14 15  1  0
 14 17  1  0
 15 16  2  0
 18 19  1  0
 18 22  1  0
 19 20  2  0
 19 21  1  0
M  END
>  <DRUGBANK_ID>  (1) 
DB12758

>  <COMMON_NAME>  (1) 
Atreleuton

>  <CAS_NUMBER>  (1) 
154355-76-7

>  <UNII>  (1) 
U301T88E1M

>  <SYNONYMS>  (1) 
Atreleuton

$$$$
