
     RDKit          3D

 17 18  0  0  1  0  0  0  0  0999 V2000
    1.5448    0.0394   -0.0822 C   0  0  0  0  0  0  0  0  0  0  0  0
    0.9266   -1.1142    0.5218 C   0  0  0  0  0  0  0  0  0  0  0  0
    0.9179    1.1487   -0.4863 C   0  0  0  0  0  0  0  0  0  0  0  0
   -0.3176   -1.5386    0.2435 C   0  0  0  0  0  0  0  0  0  0  0  0
   -4.5022    0.6770   -2.9168 C   0  0  0  0  0  0  0  0  0  0  0  0
   -3.9125   -0.7474   -2.8452 C   0  0  2  0  0  0  0  0  0  0  0  0
   -4.6912   -1.5977   -1.8435 C   0  0  2  0  0  0  0  0  0  0  0  0
   -3.8150   -1.6028   -0.5857 C   0  0  2  0  0  0  0  0  0  0  0  0
   -2.3892   -1.4406   -1.1391 C   0  0  2  0  0  0  0  0  0  0  0  0
   -1.4660    0.5701   -0.0077 C   0  0  0  0  0  0  0  0  0  0  0  0
   -0.4080    1.4093   -0.2964 N   0  0  0  0  0  0  0  0  0  0  0  0
   -1.3217   -0.7749   -0.3480 N   0  0  0  0  0  0  0  0  0  0  0  0
   -4.6231    1.1065   -4.2770 O   0  0  0  0  0  0  0  0  0  0  0  0
   -4.9217   -2.9355   -2.3248 O   0  0  0  0  0  0  0  0  0  0  0  0
   -3.9977   -2.8236    0.1408 O   0  0  0  0  0  0  0  0  0  0  0  0
   -2.5066    1.0516    0.4045 O   0  0  0  0  0  0  0  0  0  0  0  0
   -2.5273   -0.7361   -2.4074 O   0  0  0  0  0  0  0  0  0  0  0  0
  2  1  1  0
  3  1  2  0
  4  2  2  0
  6  5  1  1
  7  6  1  0
  7 14  1  6
  8  7  1  0
  8 15  1  6
  9  8  1  0
  9 12  1  1
 11  3  1  0
 11 10  1  0
 12  4  1  0
 12 10  1  0
 13  5  1  0
 16 10  2  0
 17  6  1  0
 17  9  1  0
M  END
>  <DRUGBANK_ID>  (1) 
DB03185

>  <SECONDARY_ACCESSION_NUMBERS>  (1) 
EXPT00750

>  <COMMON_NAME>  (1) 
1-Beta-Ribofuranosyl-1,3-Diazepinone

$$$$
