BJI
     RDKit          3D

 18 18  0  0  0  0  0  0  0  0999 V2000
    1.0073   -2.0558    1.2044 C   0  0  0  0  0  0  0  0  0  0  0  0
    0.5007   -1.3439   -0.0393 C   0  0  2  0  0  0  0  0  0  0  0  0
    0.9907    0.0420   -0.0445 N   0  0  0  0  0  0  0  0  0  0  0  0
    2.1556   -0.4108   -0.8182 C   0  0  0  0  0  0  0  0  0  0  0  0
    3.4329    0.4131   -0.8213 C   0  0  0  0  0  0  0  0  0  0  0  0
    2.0948   -1.4913   -1.4847 O   0  0  0  0  0  0  0  0  0  0  0  0
   -2.6713    0.9256    2.9742 C   0  0  0  0  0  0  0  0  0  0  0  0
   -3.4422    1.3720    4.0801 O   0  0  0  0  0  0  0  0  0  0  0  0
   -2.8558    1.4344    1.8243 O   0  0  0  0  0  0  0  0  0  0  0  0
   -1.0993   -1.3439   -0.0393 B   0  0  0  0  0  0  0  0  0  0  0  0
   -1.8493   -1.9976   -1.1619 O   0  0  0  0  0  0  0  0  0  0  0  0
    0.4258   -1.9565    3.5607 C   0  0  0  0  0  0  0  0  0  0  0  0
    0.1852   -1.4789    2.3453 C   0  0  0  0  0  0  0  0  0  0  0  0
   -0.2653   -1.4888    4.6663 C   0  0  0  0  0  0  0  0  0  0  0  0
   -0.8630   -0.6177    2.1270 C   0  0  0  0  0  0  0  0  0  0  0  0
   -1.4045   -0.7136    4.3445 C   0  0  0  0  0  0  0  0  0  0  0  0
   -1.6255   -0.1606    3.1658 C   0  0  0  0  0  0  0  0  0  0  0  0
   -1.8493   -0.6902    1.0833 O   0  0  0  0  0  0  0  0  0  0  0  0
  1 13  1  0
  2 10  1  0
  2  3  1  0
  2  1  1  1
  3  4  1  0
  4  5  1  0
  4  6  2  0
  7  8  1  0
  7  9  2  0
  7 17  1  0
 10 11  1  0
 10 18  1  0
 12 13  2  0
 12 14  1  0
 13 15  1  0
 14 16  2  0
 15 17  2  0
 16 17  1  0
M  END
>  <DRUGBANK_ID>  (1) 
DB02614

>  <SECONDARY_ACCESSION_NUMBERS>  (1) 
EXPT00712

>  <COMMON_NAME>  (1) 
1(R)-1-Acetamido-2-(3-Carboxyphenyl)Ethyl Boronic Acid

$$$$
