65781
     RDKit          3D

 26 28  0  0  1  0  0  0  0  0999 V2000
    0.8903   -0.3258   -0.1174 S   0  0  0  0  0  0  0  0  0  0  0  0
    7.1907   -1.7317   -3.3815 O   0  0  0  0  0  0  0  0  0  0  0  0
    9.2801   -1.5928   -2.7485 O   0  0  0  0  0  0  0  0  0  0  0  0
    0.7945   -1.0229   -1.5702 O   0  0  0  0  0  0  0  0  0  0  0  0
    0.6450   -1.2928    0.9031 O   0  0  0  0  0  0  0  0  0  0  0  0
   -0.0386    0.7875   -0.3191 O   0  0  0  0  0  0  0  0  0  0  0  0
    7.2525   -2.2466   -0.4010 C   0  0  1  0  0  0  0  0  0  0  0  0
    5.6740   -2.4275   -0.4354 C   0  0  2  0  0  0  0  0  0  0  0  0
    7.9188   -3.1907   -1.4809 C   0  0  2  0  0  0  0  0  0  0  0  0
    5.0427   -3.1641   -1.7117 C   0  0  0  0  0  0  0  0  0  0  0  0
    7.7813   -0.7937   -0.4494 C   0  0  0  0  0  0  0  0  0  0  0  0
    7.1236   -4.5727   -1.6118 C   0  0  0  0  0  0  0  0  0  0  0  0
    5.6410   -4.5305   -1.9706 C   0  0  0  0  0  0  0  0  0  0  0  0
    4.9021   -1.1202   -0.1514 C   0  0  0  0  0  0  0  0  0  0  0  0
    7.0229    0.3106    0.2094 C   0  0  0  0  0  0  0  0  0  0  0  0
    5.5071   -3.4567    0.7325 C   0  0  0  0  0  0  0  0  0  0  0  0
    5.5430    0.0742    0.2113 C   0  0  0  0  0  0  0  0  0  0  0  0
    9.3950   -3.6495   -1.2561 C   0  0  0  0  0  0  0  0  0  0  0  0
    8.2076   -2.1933   -2.6507 C   0  0  0  0  0  0  0  0  0  0  0  0
    3.4828   -1.0759   -0.2702 C   0  0  0  0  0  0  0  0  0  0  0  0
    4.7694    1.2325    0.3737 C   0  0  0  0  0  0  0  0  0  0  0  0
    2.6884    0.0839   -0.0429 C   0  0  0  0  0  0  0  0  0  0  0  0
    3.3567    1.2762    0.2870 C   0  0  0  0  0  0  0  0  0  0  0  0
    2.8128    2.6442    0.6516 C   0  0  0  0  0  0  0  0  0  0  0  0
    1.3360    2.7115    0.4911 C   0  0  0  0  0  0  0  0  0  0  0  0
    3.1227    2.9725    2.1123 C   0  0  0  0  0  0  0  0  0  0  0  0
  1  4  1  0
  1  5  2  0
  1  6  2  0
  1 22  1  0
  2 19  1  0
  3 19  2  0
  7  8  1  0
  7  9  1  0
  7 11  1  6
  8 10  1  0
  8 14  1  0
  8 16  1  1
  9 12  1  0
  9 18  1  1
  9 19  1  0
 10 13  1  0
 11 15  1  0
 12 13  1  0
 14 17  2  0
 14 20  1  0
 15 17  1  0
 17 21  1  0
 20 22  2  0
 21 23  2  0
 22 23  1  0
 23 24  1  0
 24 25  1  0
 24 26  1  0
M  END
>  <DRUGBANK_ID>  (1) 
DB05265

>  <COMMON_NAME>  (1) 
Ecabet

>  <CAS_NUMBER>  (1) 
33159-27-2

>  <UNII>  (1) 
2K02669KWP

>  <SYNONYMS>  (1) 
Ecabet; Ecabetum

$$$$
