
     RDKit          3D

 25 28  0  0  0  0  0  0  0  0999 V2000
    0.0901   -1.1003   -0.0923 N   0  0  0  0  0  0  0  0  0  0  0  0
    1.4754   -0.7634    0.1566 C   0  0  0  0  0  0  0  0  0  0  0  0
    1.4875    0.7287   -0.1447 C   0  0  0  0  0  0  0  0  0  0  0  0
    0.1336    1.1187    0.1495 N   0  0  0  0  0  0  0  0  0  0  0  0
   -0.7203    0.0301   -0.0196 C   0  0  0  0  0  0  0  0  0  0  0  0
   -1.7348  -10.2069    1.6030 N   0  0  0  0  0  0  0  0  0  0  0  0
   -0.7092  -10.0921    0.8028 N   0  0  0  0  0  0  0  0  0  0  0  0
   -0.8417   -8.9396    0.0119 C   0  0  0  0  0  0  0  0  0  0  0  0
   -2.0573   -8.3977    0.4662 C   0  0  0  0  0  0  0  0  0  0  0  0
   -2.5698   -9.1597    1.4060 C   0  0  0  0  0  0  0  0  0  0  0  0
   -3.9017   -8.6822    1.8386 C   0  0  0  0  0  0  0  0  0  0  0  0
   -4.0872   -8.0639    3.1943 C   0  0  0  0  0  0  0  0  0  0  0  0
   -4.7455   -9.3765    2.8086 C   0  0  0  0  0  0  0  0  0  0  0  0
   -0.0086   -8.5423   -0.8992 N   0  0  0  0  0  0  0  0  0  0  0  0
   -0.0002   -7.4323   -1.7650 C   0  0  0  0  0  0  0  0  0  0  0  0
   -1.0745   -6.3157   -1.9245 C   0  0  2  0  0  0  0  0  0  0  0  0
    0.9692   -7.2899   -2.5275 O   0  0  0  0  0  0  0  0  0  0  0  0
   -0.6431   -4.9415   -1.4560 C   0  0  0  0  0  0  0  0  0  0  0  0
   -1.1193   -3.8517   -2.1901 C   0  0  0  0  0  0  0  0  0  0  0  0
   -0.9467   -2.5670   -1.7036 C   0  0  0  0  0  0  0  0  0  0  0  0
   -0.3106   -2.3745   -0.4745 C   0  0  0  0  0  0  0  0  0  0  0  0
    0.0503   -3.4557    0.3235 C   0  0  0  0  0  0  0  0  0  0  0  0
   -0.0820   -4.7400   -0.1768 C   0  0  0  0  0  0  0  0  0  0  0  0
   -1.9358    0.0957   -0.0521 O   0  0  0  0  0  0  0  0  0  0  0  0
   -2.3201   -6.4664   -1.1626 C   0  0  0  0  0  0  0  0  0  0  0  0
  1  2  1  0
  1  5  1  0
  1 21  1  0
  2  3  1  0
  3  4  1  0
  4  5  1  0
  5 24  2  0
  6  7  2  0
  6 10  1  0
  7  8  1  0
  8  9  1  0
  8 14  2  0
  9 10  2  0
 10 11  1  0
 11 12  1  0
 11 13  1  0
 12 13  1  0
 14 15  1  0
 15 16  1  0
 15 17  2  0
 16 18  1  0
 16 25  1  1
 18 19  2  0
 18 23  1  0
 19 20  1  0
 20 21  2  0
 21 22  1  0
 22 23  2  0
M  END
>  <DRUGBANK_ID>  (1) 
DB07137

>  <COMMON_NAME>  (1) 
(2S)-N-[(3E)-5-Cyclopropyl-3H-pyrazol-3-ylidene]-2-[4-(2-oxo-1-imidazolidinyl)phenyl]propanamide

$$$$
