
     RDKit          3D

 25 26  0  0  1  0  0  0  0  0999 V2000
    1.1296    0.1439    0.0433 O   0  0  0  0  0  0  0  0  0  0  0  0
    0.0528    2.6877   -3.1567 O   0  0  0  0  0  0  0  0  0  0  0  0
   -1.1753   -1.1237   -1.3432 O   0  0  0  0  0  0  0  0  0  0  0  0
   -1.2416    0.6400   -3.4047 O   0  0  0  0  0  0  0  0  0  0  0  0
   -0.9990    5.0443   -0.5210 O   0  0  0  0  0  0  0  0  0  0  0  0
    6.1243    1.8081   -5.7392 O   0  0  0  0  0  0  0  0  0  0  0  0
    5.0158    4.1971   -6.5291 O   0  0  0  0  0  0  0  0  0  0  0  0
    0.4089    5.3267   -2.2490 O   0  0  0  0  0  0  0  0  0  0  0  0
    3.1275   -0.5085    0.8328 O   0  0  0  0  0  0  0  0  0  0  0  0
   -0.4213    3.0612   -1.8553 C   0  0  2  0  0  0  0  0  0  0  0  0
   -1.1573    0.2716   -1.0247 C   0  0  1  0  0  0  0  0  0  0  0  0
    0.3017    0.7608   -0.9583 C   0  0  1  0  0  0  0  0  0  0  0  0
   -1.8781    1.0295   -2.1675 C   0  0  1  0  0  0  0  0  0  0  0  0
    0.3196    2.2929   -0.7445 C   0  0  0  0  0  0  0  0  0  0  0  0
   -1.8556    2.5556   -1.9232 C   0  0  0  0  0  0  0  0  0  0  0  0
   -0.3134    4.5808   -1.5834 C   0  0  0  0  0  0  0  0  0  0  0  0
    2.4937    0.0892   -0.0362 C   0  0  0  0  0  0  0  0  0  0  0  0
    3.2938    0.7894   -1.0942 C   0  0  0  0  0  0  0  0  0  0  0  0
    2.8908    1.5016   -2.1541 C   0  0  0  0  0  0  0  0  0  0  0  0
    5.0923    2.3327   -5.0161 C   0  0  0  0  0  0  0  0  0  0  0  0
    4.5429    3.5506   -5.4276 C   0  0  0  0  0  0  0  0  0  0  0  0
    3.5994    2.2637   -3.1690 C   0  0  0  0  0  0  0  0  0  0  0  0
    4.5999    1.6603   -3.9073 C   0  0  0  0  0  0  0  0  0  0  0  0
    3.5236    4.1464   -4.7166 C   0  0  0  0  0  0  0  0  0  0  0  0
    3.0995    3.5268   -3.5520 C   0  0  0  0  0  0  0  0  0  0  0  0
  1 17  1  0
  5 16  1  0
  6 20  1  0
  7 21  1  0
  8 16  2  0
  9 17  2  0
 10 14  1  0
 10 15  1  0
 10 16  1  0
 10  2  1  6
 11  3  1  6
 11 12  1  0
 11 13  1  0
 12  1  1  1
 12 14  1  0
 13  4  1  6
 13 15  1  0
 17 18  1  0
 18 19  2  0
 19 22  1  0
 20 21  2  0
 20 23  1  0
 21 24  1  0
 22 23  2  0
 22 25  1  0
 24 25  2  0
M  END
>  <DRUGBANK_ID>  (1) 
DB12029

>  <COMMON_NAME>  (1) 
Chlorogenic Acid

>  <CAS_NUMBER>  (1) 
202650-88-2

>  <UNII>  (1) 
318ADP12RI

$$$$
