CK8
     RDKit          3D

 23 25  0  0  0  0  0  0  0  0999 V2000
    1.0995   -0.8337    0.0235 C   0  0  0  0  0  0  0  0  0  0  0  0
    1.2157    0.4985    0.0129 N   0  0  0  0  0  0  0  0  0  0  0  0
    0.0943    1.2350    0.0244 C   0  0  0  0  0  0  0  0  0  0  0  0
   -1.1388    0.7064    0.0243 N   0  0  0  0  0  0  0  0  0  0  0  0
   -1.2127   -0.6476    0.0376 C   0  0  0  0  0  0  0  0  0  0  0  0
   -0.1070   -1.4689    0.0398 C   0  0  0  0  0  0  0  0  0  0  0  0
   -2.5552   -1.2167   -0.0595 C   0  0  0  0  0  0  0  0  0  0  0  0
   -3.5068   -1.0649   -1.0548 C   0  0  0  0  0  0  0  0  0  0  0  0
   -4.6592   -1.8225   -0.8888 N   0  0  0  0  0  0  0  0  0  0  0  0
   -4.5886   -2.5220    0.2224 C   0  0  0  0  0  0  0  0  0  0  0  0
   -3.1424   -2.3171    1.1253 S   0  0  0  0  0  0  0  0  0  0  0  0
   -3.3921   -0.2348   -2.2816 C   0  0  0  0  0  0  0  0  0  0  0  0
   -5.6626   -3.4453    0.6876 C   0  0  0  0  0  0  0  0  0  0  0  0
    0.2256    2.6204    0.0887 N   0  0  0  0  0  0  0  0  0  0  0  0
    1.4112    3.3525    0.0005 C   0  0  0  0  0  0  0  0  0  0  0  0
    2.3165    3.1599   -1.0417 C   0  0  0  0  0  0  0  0  0  0  0  0
    3.5240    3.8714   -1.0968 C   0  0  0  0  0  0  0  0  0  0  0  0
    3.8911    4.8019   -0.1106 C   0  0  0  0  0  0  0  0  0  0  0  0
    2.9414    5.0045    0.9045 C   0  0  0  0  0  0  0  0  0  0  0  0
    1.7433    4.2776    0.9818 C   0  0  0  0  0  0  0  0  0  0  0  0
    5.1078    5.4703   -0.1467 N   0  0  0  0  0  0  0  0  0  0  0  0
    5.5667    6.3546    0.9186 C   0  0  0  0  0  0  0  0  0  0  0  0
    6.1052    5.1402   -1.1636 C   0  0  0  0  0  0  0  0  0  0  0  0
  1  2  2  0
  1  6  1  0
  2  3  1  0
  3  4  2  0
  3 14  1  0
  4  5  1  0
  5  6  2  0
  5  7  1  0
  7  8  2  0
  7 11  1  0
  8  9  1  0
  8 12  1  0
  9 10  2  0
 10 11  1  0
 10 13  1  0
 14 15  1  0
 15 16  2  0
 15 20  1  0
 16 17  1  0
 17 18  2  0
 18 19  1  0
 18 21  1  0
 19 20  2  0
 21 22  1  0
 21 23  1  0
M  END
>  <DRUGBANK_ID>  (1) 
DB07562

>  <COMMON_NAME>  (1) 
N-[4-(2,4-DIMETHYL-THIAZOL-5-YL)-PYRIMIDIN-2-YL]-N',N'-DIMETHYL-BENZENE-1,4-DIAMINE

$$$$
