
     RDKit          3D

 28 30  0  0  0  0  0  0  0  0999 V2000
   -2.8097    0.5681   -0.0574 C   0  0  0  0  0  0  0  0  0  0  0  0
    1.2611   -2.0550    0.0069 C   0  0  0  0  0  0  0  0  0  0  0  0
   -4.0890   11.1102    1.8527 C   0  0  0  0  0  0  0  0  0  0  0  0
   -0.1258   12.2551   -1.0318 C   0  0  0  0  0  0  0  0  0  0  0  0
   -1.0749   13.0351   -0.3808 C   0  0  0  0  0  0  0  0  0  0  0  0
   -0.8410    4.9510   -1.2067 C   0  0  0  0  0  0  0  0  0  0  0  0
   -0.2662   10.8761   -1.0352 C   0  0  0  0  0  0  0  0  0  0  0  0
   -2.1349   12.4382    0.3063 C   0  0  0  0  0  0  0  0  0  0  0  0
   -0.4881    4.1668    0.0291 C   0  0  0  0  0  0  0  0  0  0  0  0
   -2.2668    5.4796   -1.1493 C   0  0  0  0  0  0  0  0  0  0  0  0
   -3.5422    7.3895   -0.3866 C   0  0  0  0  0  0  0  0  0  0  0  0
   -1.4482    7.0088    0.6744 C   0  0  0  0  0  0  0  0  0  0  0  0
   -2.8792    8.4595   -1.2954 C   0  0  0  0  0  0  0  0  0  0  0  0
   -0.6875    7.9829   -0.2320 C   0  0  0  0  0  0  0  0  0  0  0  0
    0.7400    1.6023    0.0230 C   0  0  0  0  0  0  0  0  0  0  0  0
   -1.3985   10.2774   -0.4647 C   0  0  0  0  0  0  0  0  0  0  0  0
   -2.2894   11.0555    0.2924 C   0  0  0  0  0  0  0  0  0  0  0  0
   -0.5930    1.6891   -0.0048 C   0  0  0  0  0  0  0  0  0  0  0  0
    1.4355    0.3351    0.0094 C   0  0  0  0  0  0  0  0  0  0  0  0
   -0.7663   -0.7267    0.0106 C   0  0  0  0  0  0  0  0  0  0  0  0
   -1.1705    2.9189   -0.0550 N   0  0  0  0  0  0  0  0  0  0  0  0
   -1.3499    0.5383   -0.0042 N   0  0  0  0  0  0  0  0  0  0  0  0
    0.6225   -0.7679    0.0182 N   0  0  0  0  0  0  0  0  0  0  0  0
   -2.5972    6.3119    0.0269 N   0  0  0  0  0  0  0  0  0  0  0  0
   -1.6253    8.9510   -0.7220 N   0  0  0  0  0  0  0  0  0  0  0  0
    2.6573    0.3445   -0.0187 O   0  0  0  0  0  0  0  0  0  0  0  0
   -1.4483   -1.7556    0.0080 O   0  0  0  0  0  0  0  0  0  0  0  0
   -3.2458   10.3619    0.9932 O   0  0  0  0  0  0  0  0  0  0  0  0
  5  4  2  0
  7  4  1  0
  8  5  1  0
  9  6  1  0
 10  6  1  0
 13 11  1  0
 14 12  1  0
 16  7  2  0
 17  8  2  0
 17 16  1  0
 18 15  2  0
 19 15  1  0
 21  9  1  0
 21 18  1  0
 22  1  1  0
 22 18  1  0
 22 20  1  0
 23  2  1  0
 23 19  1  0
 23 20  1  0
 24 10  1  0
 24 11  1  0
 24 12  1  0
 25 13  1  0
 25 14  1  0
 25 16  1  0
 26 19  2  0
 27 20  2  0
 28  3  1  0
 28 17  1  0
M  END
>  <DRUGBANK_ID>  (1) 
DB12661

>  <COMMON_NAME>  (1) 
Urapidil

>  <CAS_NUMBER>  (1) 
34661-75-1

>  <UNII>  (1) 
A78GF17HJS

>  <SYNONYMS>  (1) 
Urapidil

$$$$
