XND
     RDKit          3D

 30 33  0  0  0  0  0  0  0  0999 V2000
    8.0086    0.6771   -0.2660 Cl  0  0  0  0  0  0  0  0  0  0  0  0
    6.4110    0.0684   -0.1184 C   0  0  0  0  0  0  0  0  0  0  0  0
    5.4104    0.3391   -1.0492 C   0  0  0  0  0  0  0  0  0  0  0  0
    4.0952   -0.1616   -0.8587 C   0  0  0  0  0  0  0  0  0  0  0  0
    2.8998    0.3096   -2.0339 Cl  0  0  0  0  0  0  0  0  0  0  0  0
    6.1711   -0.8519    0.8618 C   0  0  0  0  0  0  0  0  0  0  0  0
    5.0790   -1.6699    0.6533 C   0  0  0  0  0  0  0  0  0  0  0  0
    3.8924   -1.2462    0.0294 C   0  0  0  0  0  0  0  0  0  0  0  0
    2.6478   -2.2087   -0.0062 C   0  0  1  0  0  0  0  0  0  0  0  0
    2.7830   -3.1958   -1.1904 C   0  0  0  0  0  0  0  0  0  0  0  0
    3.6999   -2.8277   -2.3373 C   0  0  0  0  0  0  0  0  0  0  0  0
    4.7577   -2.1749   -2.2020 O   0  0  0  0  0  0  0  0  0  0  0  0
    3.5568   -3.3665   -3.6996 C   0  0  0  0  0  0  0  0  0  0  0  0
    2.0913   -2.9272    1.3349 N   0  0  0  0  0  0  0  0  0  0  0  0
    2.6071   -3.1489    2.6374 C   0  0  0  0  0  0  0  0  0  0  0  0
    3.8947   -2.5201    2.9692 C   0  0  0  0  0  0  0  0  0  0  0  0
    2.0646   -3.8296    3.5192 O   0  0  0  0  0  0  0  0  0  0  0  0
    0.7372   -3.4146    1.2053 C   0  0  0  0  0  0  0  0  0  0  0  0
   -0.2635   -2.9278    2.0649 C   0  0  0  0  0  0  0  0  0  0  0  0
   -1.5534   -3.4650    2.0373 C   0  0  0  0  0  0  0  0  0  0  0  0
   -1.8559   -4.5063    1.1661 C   0  0  0  0  0  0  0  0  0  0  0  0
   -0.8602   -5.0104    0.3442 C   0  0  0  0  0  0  0  0  0  0  0  0
   -1.1941   -6.0403   -0.4998 O   0  0  0  0  0  0  0  0  0  0  0  0
    0.4395   -4.4718    0.3410 C   0  0  0  0  0  0  0  0  0  0  0  0
    1.3981   -5.0882   -0.4675 N   0  0  0  0  0  0  0  0  0  0  0  0
    2.2451   -4.4337   -1.3212 C   0  0  0  0  0  0  0  0  0  0  0  0
    2.4084   -5.2180   -2.6141 C   0  0  0  0  0  0  0  0  0  0  0  0
    2.3909   -4.2997   -3.8442 C   0  0  0  0  0  0  0  0  0  0  0  0
    1.0770   -3.5066   -3.9809 C   0  0  0  0  0  0  0  0  0  0  0  0
    2.6572   -5.0913   -5.1223 C   0  0  0  0  0  0  0  0  0  0  0  0
  1  2  1  0
  2  3  2  0
  2  6  1  0
  3  4  1  0
  4  5  1  0
  4  8  2  0
  6  7  2  0
  7  8  1  0
  9 10  1  0
  9 14  1  0
  9  8  1  1
 10 11  1  0
 10 26  2  0
 11 12  2  0
 11 13  1  0
 13 28  1  0
 14 15  1  0
 14 18  1  0
 15 16  1  0
 15 17  2  0
 18 19  1  0
 18 24  2  0
 19 20  2  0
 20 21  1  0
 21 22  2  0
 22 23  1  0
 22 24  1  0
 24 25  1  0
 25 26  1  0
 26 27  1  0
 27 28  1  0
 28 29  1  0
 28 30  1  0
M  END
>  <DRUGBANK_ID>  (1) 
DB08747

>  <COMMON_NAME>  (1) 
(11R)-10-acetyl-11-(2,4-dichlorophenyl)-6-hydroxy-3,3-dimethyl-2,3,4,5,10,11-hexahydro-1H-dibenzo[b,e][1,4]diazepin-1-one

$$$$
