
     RDKit          3D

  7  7  0  0  0  0  0  0  0  0999 V2000
   -0.3148   -1.1295    0.0019 C   0  0  0  0  0  0  0  0  0  0  0  0
    1.0016   -0.7174   -0.0014 N   0  0  0  0  0  0  0  0  0  0  0  0
   -1.1998    0.0572    0.0001 C   0  0  0  0  0  0  0  0  0  0  0  0
   -0.7482   -2.2725    0.0052 O   0  0  0  0  0  0  0  0  0  0  0  0
    1.2198    0.9656    0.0013 S   0  0  0  0  0  0  0  0  0  0  0  0
    2.1444   -1.5912   -0.0092 C   0  0  0  0  0  0  0  0  0  0  0  0
   -0.4903    1.1901    0.0009 C   0  0  0  0  0  0  0  0  0  0  0  0
  1  2  1  0
  1  3  1  0
  1  4  2  0
  2  5  1  0
  2  6  1  0
  3  7  2  0
  5  7  1  0
M  END
>  <DRUGBANK_ID>  (1) 
DB15884

>  <COMMON_NAME>  (1) 
Methylisothiazolinone

>  <CAS_NUMBER>  (1) 
2682-20-4

>  <UNII>  (1) 
229D0E1QFA

>  <SYNONYMS>  (1) 
2-Methyl-3-isothiazolone; 2-Methyl-3(2H)-isothiazolone; 2-Methyl-4-isothiazolin-3-one; 2-Methyl-4-isothiazoline-3-ketone; 2-Methyl-4-isothiazoline-3-one; N-Methylisothiazolin-3-one

$$$$
