
     RDKit          3D

 32 35  0  0  1  0  0  0  0  0999 V2000
    6.2178    4.1601    0.0975 C   0  0  0  0  0  0  0  0  0  0  0  0
    6.3921    3.4631   -1.2247 C   0  0  0  0  0  0  0  0  0  0  0  0
    7.4209    3.5604   -1.8864 O   0  0  0  0  0  0  0  0  0  0  0  0
    5.3431    2.7190   -1.6839 N   0  0  0  0  0  0  0  0  0  0  0  0
    4.0447    2.5372   -1.0539 C   0  0  0  0  0  0  0  0  0  0  0  0
    2.9005    3.0838   -1.9005 C   0  0  1  0  0  0  0  0  0  0  0  0
    2.9886    4.5734   -2.1772 C   0  0  0  0  0  0  0  0  0  0  0  0
    2.5867    4.6404   -3.5407 N   0  0  0  0  0  0  0  0  0  0  0  0
    2.6310    3.3993   -4.1349 C   0  0  0  0  0  0  0  0  0  0  0  0
    2.4936    3.1332   -5.3220 O   0  0  0  0  0  0  0  0  0  0  0  0
    2.8945    2.4476   -3.1895 O   0  0  0  0  0  0  0  0  0  0  0  0
    2.3804    5.8295   -4.2437 C   0  0  0  0  0  0  0  0  0  0  0  0
    1.1534    6.0256   -4.8824 C   0  0  0  0  0  0  0  0  0  0  0  0
    0.9366    7.1748   -5.6406 C   0  0  0  0  0  0  0  0  0  0  0  0
    1.9582    8.1241   -5.8036 C   0  0  0  0  0  0  0  0  0  0  0  0
    3.1768    7.9062   -5.1504 C   0  0  0  0  0  0  0  0  0  0  0  0
    3.3865    6.7868   -4.3502 C   0  0  0  0  0  0  0  0  0  0  0  0
    4.1816    8.7843   -5.2940 F   0  0  0  0  0  0  0  0  0  0  0  0
    1.7372    9.3053   -6.6344 C   0  0  0  0  0  0  0  0  0  0  0  0
    2.5063    9.5433   -7.7839 C   0  0  0  0  0  0  0  0  0  0  0  0
    2.2633   10.6618   -8.5785 C   0  0  0  0  0  0  0  0  0  0  0  0
    1.2391   11.5524   -8.2349 C   0  0  0  0  0  0  0  0  0  0  0  0
    0.4357   11.2894   -7.1232 C   0  0  0  0  0  0  0  0  0  0  0  0
    0.7177   10.2069   -6.3022 C   0  0  0  0  0  0  0  0  0  0  0  0
    1.0457   12.8327   -8.9906 C   0  0  0  0  0  0  0  0  0  0  0  0
   -0.2760   12.8868   -9.6072 N   0  0  0  0  0  0  0  0  0  0  0  0
   -0.4715   14.1158  -10.3596 C   0  0  0  0  0  0  0  0  0  0  0  0
    0.4829   14.2667  -11.4769 C   0  0  0  0  0  0  0  0  0  0  0  0
    1.0338   15.3817  -12.0624 C   0  0  0  0  0  0  0  0  0  0  0  0
    1.9272   15.0024  -13.0210 N   0  0  0  0  0  0  0  0  0  0  0  0
    1.9611   13.6774  -13.0517 N   0  0  0  0  0  0  0  0  0  0  0  0
    1.0861   13.2333  -12.1420 N   0  0  0  0  0  0  0  0  0  0  0  0
  1  2  1  0
  2  3  2  0
  2  4  1  0
  4  5  1  0
  6  7  1  0
  6 11  1  0
  6  5  1  1
  7  8  1  0
  8  9  1  0
  8 12  1  0
  9 10  2  0
  9 11  1  0
 12 13  2  0
 12 17  1  0
 13 14  1  0
 14 15  2  0
 15 16  1  0
 15 19  1  0
 16 17  2  0
 16 18  1  0
 19 20  2  0
 19 24  1  0
 20 21  1  0
 21 22  2  0
 22 23  1  0
 22 25  1  0
 23 24  2  0
 25 26  1  0
 26 27  1  0
 27 28  1  0
 28 29  2  0
 28 32  1  0
 29 30  1  0
 30 31  2  0
 31 32  1  0
M  END
>  <DRUGBANK_ID>  (1) 
DB12339

>  <SECONDARY_ACCESSION_NUMBERS>  (1) 
DB05963

>  <COMMON_NAME>  (1) 
Radezolid

>  <CAS_NUMBER>  (1) 
869884-78-6

>  <UNII>  (1) 
53PC6LO35W

>  <SYNONYMS>  (1) 
Radezolid

$$$$
