
     RDKit          3D

 27 26  0  0  0  0  0  0  0  0999 V2000
    1.0060   -0.1022   -0.0586 C   0  0  0  0  0  0  0  0  0  0  0  0
    0.5479    0.4874    1.2559 C   0  0  0  0  0  0  0  0  0  0  0  0
    0.9499    1.9288    1.3679 C   0  0  0  0  0  0  0  0  0  0  0  0
    0.0768    2.9378    1.4598 C   0  0  0  0  0  0  0  0  0  0  0  0
   -1.3951    2.7347    1.4353 C   0  0  0  0  0  0  0  0  0  0  0  0
   -2.0439    3.2849    2.6580 C   0  0  0  0  0  0  0  0  0  0  0  0
   -3.0332    4.1767    2.5952 C   0  0  0  0  0  0  0  0  0  0  0  0
   -3.5118    4.7129    1.2979 C   0  0  0  0  0  0  0  0  0  0  0  0
   -4.9662    4.4712    1.1162 C   0  0  0  0  0  0  0  0  0  0  0  0
   -5.8046    5.4746    0.8741 C   0  0  0  0  0  0  0  0  0  0  0  0
   -5.3096    6.8646    0.8196 C   0  0  0  0  0  0  0  0  0  0  0  0
   -5.6173    7.4796   -0.4943 C   0  0  0  0  0  0  0  0  0  0  0  0
   -6.3033    8.6099   -0.5384 C   0  0  0  0  0  0  0  0  0  0  0  0
   -6.7624    9.1951    0.7222 C   0  0  0  0  0  0  0  0  0  0  0  0
   -6.2191   10.5613    0.8415 C   0  0  0  0  0  0  0  0  0  0  0  0
   -7.1016   11.5388    0.9310 C   0  0  0  0  0  0  0  0  0  0  0  0
   -8.4929   11.1269    1.0956 C   0  0  0  0  0  0  0  0  0  0  0  0
   -8.9924   11.9934    2.1734 C   0  0  0  0  0  0  0  0  0  0  0  0
   -9.0648   13.5439    2.2571 C   0  0  0  0  0  0  0  0  0  0  0  0
   -9.9522   14.4086    1.3483 C   0  0  0  0  0  0  0  0  0  0  0  0
  -11.3303   14.0699    1.3155 O   0  0  0  0  0  0  0  0  0  0  0  0
  -11.6062   12.6929    1.1170 C   0  0  0  0  0  0  0  0  0  0  0  0
  -10.9529   12.2262   -0.3369 C   0  0  0  0  0  0  0  0  0  0  0  0
   -9.5429   12.6942   -0.9601 C   0  0  0  0  0  0  0  0  0  0  0  0
  -11.7648   11.7978    2.5878 C   0  0  0  0  0  0  0  0  0  0  0  0
  -12.2250   10.6964    2.7134 O   0  0  0  0  0  0  0  0  0  0  0  0
  -11.0534   12.3269    3.6569 O   0  0  0  0  0  0  0  0  0  0  0  0
  1  2  1  0
  2  3  1  0
  3  4  2  0
  4  5  1  0
  5  6  1  0
  6  7  2  0
  7  8  1  0
  8  9  1  0
  9 10  2  0
 10 11  1  0
 11 12  1  0
 12 13  2  0
 13 14  1  0
 14 15  1  0
 15 16  2  0
 16 17  1  0
 17 18  1  0
 18 19  1  0
 19 20  1  0
 20 21  1  0
 21 22  1  0
 22 23  1  0
 22 25  1  0
 23 24  1  0
 25 26  2  0
 25 27  1  0
M  END
>  <DRUGBANK_ID>  (1) 
DB12990

>  <COMMON_NAME>  (1) 
Icosabutate

>  <CAS_NUMBER>  (1) 
1253909-57-7

>  <UNII>  (1) 
562599X5JL

>  <SYNONYMS>  (1) 
Icosabutate

$$$$
