1103
     RDKit          3D

 28 30  0  0  1  0  0  0  0  0999 V2000
    1.0106    0.0243    0.0528 Cl  0  0  0  0  0  0  0  0  0  0  0  0
   11.0355   -2.5131    0.0594 O   0  0  0  0  0  0  0  0  0  0  0  0
   11.3623    4.3281    0.1156 N   0  0  0  0  0  0  0  0  0  0  0  0
    7.5045    1.2825   -0.2447 N   0  0  0  0  0  0  0  0  0  0  0  0
    5.4975   -2.3440    0.0650 N   0  0  0  0  0  0  0  0  0  0  0  0
    8.8794    1.5013   -0.0192 C   0  0  0  0  0  0  0  0  0  0  0  0
    9.4016    2.2033   -1.2661 C   0  0  0  0  0  0  0  0  0  0  0  0
    9.2332    3.6827   -1.2904 C   0  0  0  0  0  0  0  0  0  0  0  0
    9.8989    4.4003   -0.1209 C   0  0  0  0  0  0  0  0  0  0  0  0
    6.9142    0.0445    0.0157 C   0  0  0  0  0  0  0  0  0  0  0  0
    9.0263    1.6576    1.5006 C   0  0  0  0  0  0  0  0  0  0  0  0
   11.7135    5.0785    1.3395 C   0  0  0  0  0  0  0  0  0  0  0  0
   12.1493    3.0692    0.0435 C   0  0  0  0  0  0  0  0  0  0  0  0
    7.6203   -1.2245    0.0513 C   0  0  0  0  0  0  0  0  0  0  0  0
    5.4979    0.0650    0.0464 C   0  0  0  0  0  0  0  0  0  0  0  0
    6.8506   -2.3726    0.0563 C   0  0  0  0  0  0  0  0  0  0  0  0
    4.8476   -1.1568    0.0646 C   0  0  0  0  0  0  0  0  0  0  0  0
   11.1788    4.5826    2.6949 C   0  0  0  0  0  0  0  0  0  0  0  0
   11.9003    2.0910    1.1615 C   0  0  0  0  0  0  0  0  0  0  0  0
    9.0368   -1.4510    0.0989 C   0  0  0  0  0  0  0  0  0  0  0  0
    4.7502    1.2826    0.0458 C   0  0  0  0  0  0  0  0  0  0  0  0
    7.5033   -3.6224    0.0536 C   0  0  0  0  0  0  0  0  0  0  0  0
    3.4534   -1.1446    0.0624 C   0  0  0  0  0  0  0  0  0  0  0  0
    9.6817   -2.6645    0.0568 C   0  0  0  0  0  0  0  0  0  0  0  0
    8.9053   -3.7763    0.0440 C   0  0  0  0  0  0  0  0  0  0  0  0
    3.3689    1.2735    0.0540 C   0  0  0  0  0  0  0  0  0  0  0  0
    2.7280    0.0545    0.0568 C   0  0  0  0  0  0  0  0  0  0  0  0
   11.7922   -3.6978    0.0474 C   0  0  0  0  0  0  0  0  0  0  0  0
  1 27  1  0
  2 24  1  0
  2 28  1  0
  3  9  1  0
  3 12  1  0
  3 13  1  0
  4  6  1  0
  4 10  1  0
  5 16  2  0
  5 17  1  0
  6  7  1  0
  6 11  1  0
  7  8  1  0
  8  9  1  0
 10 14  2  0
 10 15  1  0
 12 18  1  0
 13 19  1  0
 14 16  1  0
 14 20  1  0
 15 17  2  0
 15 21  1  0
 16 22  1  0
 17 23  1  0
 20 24  2  0
 21 26  2  0
 22 25  2  0
 23 27  2  0
 24 25  1  0
 26 27  1  0
M  END
>  <DRUGBANK_ID>  (1) 
DB01103

>  <SECONDARY_ACCESSION_NUMBERS>  (1) 
APRD00317

>  <COMMON_NAME>  (1) 
Quinacrine

>  <CAS_NUMBER>  (1) 
83-89-6

>  <UNII>  (1) 
H0C805XYDE

>  <SYNONYMS>  (1) 
2-methoxy-6-chloro-9-diethylaminopentylaminoacridine; 3-chloro-7-methoxy-9-(1-methyl-4-diethylaminobutylamino)acridine; 6-chloro-9-((4-(diethylamino)-1-methylbutyl)amino)-2-methoxyacridine; Mepacrine; N4-(6-chloro-2-methoxy-9-acridinyl)-N1,N1-diethyl-1,4-pentanediamine

$$$$
