
     RDKit          3D

 24 24  0  0  0  0  0  0  0  0999 V2000
    0.9551    0.0378    0.1735 C   0  0  2  0  0  0  0  0  0  0  0  0
    0.4596    1.4781    0.2592 C   0  0  0  0  0  0  0  0  0  0  0  0
   -0.2992    1.9073   -0.7802 O   0  0  0  0  0  0  0  0  0  0  0  0
    0.7424    2.2140    1.1928 O   0  0  0  0  0  0  0  0  0  0  0  0
    0.4728   -0.6040   -1.0226 N   0  0  0  0  0  0  0  0  0  0  0  0
    0.5705   -0.7166    1.4419 C   0  0  0  0  0  0  0  0  0  0  0  0
   -0.2307   -1.7726   -0.9096 C   0  0  0  0  0  0  0  0  0  0  0  0
   -0.4705   -2.3439   -2.2061 C   0  0  0  0  0  0  0  0  0  0  0  0
   -0.8010   -2.2662    0.0323 O   0  0  0  0  0  0  0  0  0  0  0  0
   -0.0585   -3.8310   -2.3250 C   0  0  0  0  0  0  0  0  0  0  0  0
   -0.8848   -4.7093   -1.4064 C   0  0  0  0  0  0  0  0  0  0  0  0
   -2.7148   -4.7093   -1.4064 P   0  0  0  0  0  0  0  0  0  0  0  0
   -2.8803   -5.0584   -3.1242 O   0  0  0  0  0  0  0  0  0  0  0  0
   -3.0821   -4.1242   -4.1556 C   0  0  0  0  0  0  0  0  0  0  0  0
   -3.7750   -4.1976   -5.3331 C   0  0  0  0  0  0  0  0  0  0  0  0
   -3.5829   -3.1771   -6.3594 C   0  0  0  0  0  0  0  0  0  0  0  0
   -2.7287   -2.0593   -6.1835 C   0  0  0  0  0  0  0  0  0  0  0  0
   -1.9997   -2.0059   -5.0497 C   0  0  0  0  0  0  0  0  0  0  0  0
   -2.2582   -3.0477   -4.1790 C   0  0  0  0  0  0  0  0  0  0  0  0
   -2.7028   -6.0114   -0.6026 O   0  0  0  0  0  0  0  0  0  0  0  0
   -4.4448   -4.7093   -1.4064 O   0  0  0  0  0  0  0  0  0  0  0  0
   -2.5971   -0.9390   -7.1154 N   0  0  0  0  0  0  0  0  0  0  0  0
   -3.2838   -0.9690   -8.1390 O   0  0  0  0  0  0  0  0  0  0  0  0
   -1.8321   -0.0085   -6.7988 O   0  0  0  0  0  0  0  0  0  0  0  0
  1  2  1  0
  1  5  1  0
  1  6  1  1
  2  3  1  0
  2  4  2  0
  5  7  1  0
  7  8  1  0
  7  9  2  0
  8 10  1  0
 10 11  1  0
 11 12  1  0
 12 13  1  0
 12 20  2  0
 12 21  1  1
 13 14  1  0
 15 14  2  0
 15 16  1  0
 16 17  2  0
 17 18  1  0
 17 22  1  0
 18 19  2  0
 19 14  1  0
 22 23  2  0
 22 24  1  0
M  CHG  2  22   1  24  -1
M  END
>  <DRUGBANK_ID>  (1) 
DB08377

>  <COMMON_NAME>  (1) 
N-[4-(4-nitrophenylphospho)butanoyl]-D-alanine

>  <SYNONYMS>  (1) 
N-[4-(4-nitrophenylphospho)butyryl]-D-alanine; p-nitrophenyl phosphonobutanoyl D-alanine

$$$$
