
     RDKit          3D

 16 16  0  0  1  0  0  0  0  0999 V2000
    1.0700    0.0660   -0.0273 P   0  0  0  0  0  0  0  0  0  0  0  0
    1.0113    1.7182   -0.1612 O   0  0  0  0  0  0  0  0  0  0  0  0
    0.9421   -0.4469   -1.5591 O   0  0  0  0  0  0  0  0  0  0  0  0
   -0.6600    0.0660   -0.0273 O   0  0  0  0  0  0  0  0  0  0  0  0
    2.6184    0.0660   -0.0273 O   0  0  0  0  0  0  0  0  0  0  0  0
    1.0595    2.5290    1.0420 C   0  0  0  0  0  0  0  0  0  0  0  0
   -0.2903    2.6068    1.8622 C   0  0  2  0  0  0  0  0  0  0  0  0
   -1.2726    1.5871    1.3619 C   0  0  2  0  0  0  0  0  0  0  0  0
   -0.9226    3.8744    1.8552 O   0  0  0  0  0  0  0  0  0  0  0  0
   -1.7981    1.9847   -0.1644 C   0  0  1  0  0  0  0  0  0  0  0  0
   -2.3939    1.1161    2.1108 O   0  0  0  0  0  0  0  0  0  0  0  0
   -1.4668    4.2632    0.6003 C   0  0  1  0  0  0  0  0  0  0  0  0
   -2.5015    3.3016   -0.0597 C   0  0  2  0  0  0  0  0  0  0  0  0
   -0.9481    2.0869   -1.3363 O   0  0  0  0  0  0  0  0  0  0  0  0
   -2.0702    5.5201    0.8423 O   0  0  0  0  0  0  0  0  0  0  0  0
   -3.8027    3.0374    0.5939 N   0  0  0  0  0  0  0  0  0  0  0  0
  1  2  1  0
  1  3  1  0
  1  4  1  0
  1  5  2  0
  2  6  1  0
  7  6  1  6
  7  8  1  0
  7  9  1  0
  8 10  1  0
  8 11  1  1
  9 12  1  0
 10 13  1  0
 10 14  1  6
 12 13  1  0
 12 15  1  1
 13 16  1  1
M  END
>  <DRUGBANK_ID>  (1) 
DB02657

>  <SECONDARY_ACCESSION_NUMBERS>  (1) 
EXPT01610

>  <COMMON_NAME>  (1) 
Glucosamine 6-Phosphate

>  <CAS_NUMBER>  (1) 
3616-42-0

>  <UNII>  (1) 
Y5ANY8MJ8J

$$$$
