
     RDKit          3D

 26 27  0  0  0  0  0  0  0  0999 V2000
    1.3611   -0.2224    0.0761 C   0  0  0  0  0  0  0  0  0  0  0  0
    0.4804   -1.3106    0.0343 C   0  0  0  0  0  0  0  0  0  0  0  0
   -0.8985   -1.1117   -0.0188 C   0  0  0  0  0  0  0  0  0  0  0  0
   -1.4220    0.1802   -0.0319 C   0  0  0  0  0  0  0  0  0  0  0  0
   -0.5522    1.2709    0.0213 C   0  0  0  0  0  0  0  0  0  0  0  0
    0.8295    1.0721    0.0262 C   0  0  0  0  0  0  0  0  0  0  0  0
   -2.7526    0.4904   -0.1103 O   0  0  0  0  0  0  0  0  0  0  0  0
   -3.6369   -0.6105   -0.2978 C   0  0  0  0  0  0  0  0  0  0  0  0
    2.8020   -0.4356    0.1911 C   0  0  0  0  0  0  0  0  0  0  0  0
    3.4698   -1.2353   -0.7365 C   0  0  0  0  0  0  0  0  0  0  0  0
    4.8285   -1.4884   -0.5925 C   0  0  0  0  0  0  0  0  0  0  0  0
    5.5629   -0.8641    0.4200 C   0  0  0  0  0  0  0  0  0  0  0  0
    4.9234   -0.0140    1.3188 C   0  0  0  0  0  0  0  0  0  0  0  0
    3.5381    0.1335    1.2454 C   0  0  0  0  0  0  0  0  0  0  0  0
    7.2989   -1.1475    0.6565 S   0  0  0  0  0  0  0  0  0  0  0  0
    7.9695    0.1258    0.6250 O   0  0  0  0  0  0  0  0  0  0  0  0
    7.4401   -2.0042    1.8208 O   0  0  0  0  0  0  0  0  0  0  0  0
    7.7792   -2.0578   -0.6646 N   0  0  0  0  0  0  0  0  0  0  0  0
    7.6345   -1.5500   -2.0461 C   0  0  1  0  0  0  0  0  0  0  0  0
    8.4368   -0.2115   -2.2028 C   0  0  0  0  0  0  0  0  0  0  0  0
    9.9401   -0.3979   -1.9862 C   0  0  0  0  0  0  0  0  0  0  0  0
    8.1641    0.4512   -3.5485 C   0  0  0  0  0  0  0  0  0  0  0  0
    8.1977   -2.6596   -3.3879 P   0  0  0  0  0  0  0  0  0  0  0  0
    9.3687   -3.2930   -2.4228 O   0  0  0  0  0  0  0  0  0  0  0  0
    6.9166   -3.4807   -3.2509 O   0  0  0  0  0  0  0  0  0  0  0  0
    8.7302   -3.7086   -4.6564 O   0  0  0  0  0  0  0  0  0  0  0  0
  1  2  2  0
  1  6  1  0
  1  9  1  0
  2  3  1  0
  3  4  2  0
  4  7  1  0
  5  4  1  0
  5  6  2  0
  8  7  1  0
  9 10  2  0
  9 14  1  0
 10 11  1  0
 11 12  2  0
 12 13  1  0
 12 15  1  0
 13 14  2  0
 16 15  2  0
 17 15  2  0
 18 15  1  0
 19 18  1  1
 19 20  1  0
 19 23  1  0
 20 21  1  0
 20 22  1  0
 24 23  1  0
 25 23  2  0
 26 23  1  0
M  END
>  <DRUGBANK_ID>  (1) 
DB07772

>  <COMMON_NAME>  (1) 
(1R)-1-{[(4'-methoxy-1,1'-biphenyl-4-yl)sulfonyl]amino}-2-methylpropylphosphonic acid

$$$$
