SP0
     RDKit          3D

 28 31  0  0  0  0  0  0  0  0999 V2000
    0.0843    1.0207    0.3223 C   0  0  0  0  0  0  0  0  0  0  0  0
    0.7324   -0.1842    0.1289 C   0  0  0  0  0  0  0  0  0  0  0  0
    2.0657   -0.2146    0.1350 F   0  0  0  0  0  0  0  0  0  0  0  0
    0.0165   -1.3430   -0.0255 C   0  0  0  0  0  0  0  0  0  0  0  0
   -1.3743   -1.2631   -0.0437 C   0  0  0  0  0  0  0  0  0  0  0  0
   -2.0261   -0.0127   -0.0315 C   0  0  0  0  0  0  0  0  0  0  0  0
   -1.2756    1.1609    0.1045 C   0  0  0  0  0  0  0  0  0  0  0  0
   -2.0752    2.7702    0.0136 S   0  0  0  0  0  0  0  0  0  0  0  0
   -2.8123    2.7859   -1.2253 O   0  0  0  0  0  0  0  0  0  0  0  0
   -2.7928    2.8823    1.2767 O   0  0  0  0  0  0  0  0  0  0  0  0
   -0.9892    4.0019   -0.0242 N   0  0  0  0  0  0  0  0  0  0  0  0
    0.3882    3.9575   -0.1540 C   0  0  0  0  0  0  0  0  0  0  0  0
    1.1191    3.2900   -1.1210 C   0  0  0  0  0  0  0  0  0  0  0  0
    2.4470    3.2883   -0.6198 C   0  0  0  0  0  0  0  0  0  0  0  0
    3.5536    2.3910   -1.0699 C   0  0  0  0  0  0  0  0  0  0  0  0
    3.9019    2.1555   -2.3806 C   0  0  0  0  0  0  0  0  0  0  0  0
    4.9837    1.2270   -2.4817 C   0  0  0  0  0  0  0  0  0  0  0  0
    5.3457    0.7162   -1.2542 C   0  0  0  0  0  0  0  0  0  0  0  0
    4.5237    1.4993    0.0235 S   0  0  0  0  0  0  0  0  0  0  0  0
    2.5651    4.0658    0.4565 N   0  0  0  0  0  0  0  0  0  0  0  0
    1.3266    4.5467    0.6805 N   0  0  0  0  0  0  0  0  0  0  0  0
    1.1312    5.4444    1.7455 C   0  0  0  0  0  0  0  0  0  0  0  0
    0.2425    5.1875    2.7973 C   0  0  0  0  0  0  0  0  0  0  0  0
    0.1416    6.1265    3.8309 C   0  0  0  0  0  0  0  0  0  0  0  0
    0.8950    7.3000    3.7843 C   0  0  0  0  0  0  0  0  0  0  0  0
    0.7825    8.1975    4.7710 F   0  0  0  0  0  0  0  0  0  0  0  0
    1.7655    7.5549    2.7322 C   0  0  0  0  0  0  0  0  0  0  0  0
    1.9031    6.6140    1.7186 C   0  0  0  0  0  0  0  0  0  0  0  0
  1  2  2  0
  1  7  1  0
  2  3  1  0
  2  4  1  0
  4  5  2  0
  5  6  1  0
  6  7  2  0
  7  8  1  0
  8  9  2  0
  8 10  2  0
  8 11  1  0
 11 12  1  0
 12 13  2  0
 12 21  1  0
 13 14  1  0
 14 15  1  0
 14 20  2  0
 15 16  2  0
 15 19  1  0
 16 17  1  0
 17 18  2  0
 18 19  1  0
 20 21  1  0
 21 22  1  0
 22 23  2  0
 22 28  1  0
 23 24  1  0
 24 25  2  0
 25 26  1  0
 25 27  1  0
 27 28  2  0
M  END
>  <DRUGBANK_ID>  (1) 
DB08560

>  <COMMON_NAME>  (1) 
3-FLUORO-N-[1-(4-FLUOROPHENYL)-3-(2-THIENYL)-1H-PYRAZOL-5-YL]BENZENESULFONAMIDE

$$$$
