Myristic acid.mol
     RDKit          3D

 16 15  0  0  0  0  0  0  0  0999 V2000
    1.1274    0.0433   -0.1381 C   0  0  0  0  0  0  0  0  0  0  0  0
    0.3966   -0.6776    0.9745 C   0  0  0  0  0  0  0  0  0  0  0  0
   -0.5031    0.2780    1.7586 C   0  0  0  0  0  0  0  0  0  0  0  0
   -1.5644    0.9321    0.8670 C   0  0  0  0  0  0  0  0  0  0  0  0
   -2.4462   -0.1261    0.1951 C   0  0  0  0  0  0  0  0  0  0  0  0
   -3.2174   -0.9181    1.2541 C   0  0  0  0  0  0  0  0  0  0  0  0
   -4.1071    0.0285    2.0660 C   0  0  0  0  0  0  0  0  0  0  0  0
   -5.1026    0.7316    1.1369 C   0  0  0  0  0  0  0  0  0  0  0  0
   -5.9888   -0.3085    0.4452 C   0  0  0  0  0  0  0  0  0  0  0  0
   -6.7592   -1.1141    1.4956 C   0  0  0  0  0  0  0  0  0  0  0  0
   -7.6458   -0.1819    2.3291 C   0  0  0  0  0  0  0  0  0  0  0  0
   -8.6743    0.5264    1.4402 C   0  0  0  0  0  0  0  0  0  0  0  0
   -9.5679   -0.4807    0.7150 C   0  0  0  0  0  0  0  0  0  0  0  0
  -10.3268   -1.3334    1.7187 C   0  0  0  0  0  0  0  0  0  0  0  0
    0.5784    0.6067   -1.0793 O   0  0  0  0  0  0  0  0  0  0  0  0
    2.4677    0.0208   -0.0271 O   0  0  0  0  0  0  0  0  0  0  0  0
  1  2  1  0
  1 15  2  0
  1 16  1  0
  2  3  1  0
  3  4  1  0
  4  5  1  0
  5  6  1  0
  6  7  1  0
  7  8  1  0
  8  9  1  0
  9 10  1  0
 10 11  1  0
 11 12  1  0
 12 13  1  0
 13 14  1  0
M  END
>  <DRUGBANK_ID>  (1) 
DB08231

>  <COMMON_NAME>  (1) 
Myristic acid

>  <CAS_NUMBER>  (1) 
544-63-8

>  <UNII>  (1) 
0I3V7S25AW

>  <SYNONYMS>  (1) 
1-tridecanecarboxylic acid; N-tetradecan-1-oic acid; N-tetradecanoic acid; Tetradecanoic acid

$$$$
