PR2
     RDKit          3D

 29 33  0  0  0  0  0  0  0  0999 V2000
   -0.1421   -0.7395    0.0036 C   0  0  0  0  0  0  0  0  0  0  0  0
    1.0686   -1.4258    0.0023 C   0  0  0  0  0  0  0  0  0  0  0  0
    2.2154   -0.6567    0.0004 C   0  0  0  0  0  0  0  0  0  0  0  0
    2.0912    0.7236    0.0047 C   0  0  0  0  0  0  0  0  0  0  0  0
    0.9282    1.4176    0.0097 N   0  0  0  0  0  0  0  0  0  0  0  0
   -0.1972    0.6520    0.0053 C   0  0  0  0  0  0  0  0  0  0  0  0
   -1.5462    1.1214   -0.0017 C   0  0  0  0  0  0  0  0  0  0  0  0
   -2.4456    0.0744   -0.0297 C   0  0  0  0  0  0  0  0  0  0  0  0
   -1.6786   -1.4418    0.0029 S   0  0  0  0  0  0  0  0  0  0  0  0
   -7.9947   -0.1172    0.1595 N   0  0  0  0  0  0  0  0  0  0  0  0
   -6.9742   -0.4685    1.0179 C   0  0  0  0  0  0  0  0  0  0  0  0
   -6.2524    0.8053    1.4175 C   0  0  2  0  0  0  0  0  0  0  0  0
   -6.8283    1.8804    0.4964 C   0  0  0  0  0  0  0  0  0  0  0  0
   -8.1577    1.3102    0.0519 C   0  0  0  0  0  0  0  0  0  0  0  0
   -4.7732    0.7300    1.3174 N   0  0  0  0  0  0  0  0  0  0  0  0
   -4.1979   -0.0164   -0.1071 S   0  0  0  0  0  0  0  0  0  0  0  0
   -4.5546    0.7901   -1.2449 O   0  0  0  0  0  0  0  0  0  0  0  0
   -4.5196   -1.4250   -0.0504 O   0  0  0  0  0  0  0  0  0  0  0  0
   -6.6990   -1.5913    1.4099 O   0  0  0  0  0  0  0  0  0  0  0  0
   -8.8761   -1.0971   -0.4301 C   0  0  0  0  0  0  0  0  0  0  0  0
  -12.2197   -0.2083    0.8341 C   0  0  0  0  0  0  0  0  0  0  0  0
  -12.1282   -1.5102    1.3200 C   0  0  0  0  0  0  0  0  0  0  0  0
  -13.1951   -2.0390    2.0495 C   0  0  0  0  0  0  0  0  0  0  0  0
  -14.2792   -1.2013    2.2443 C   0  0  0  0  0  0  0  0  0  0  0  0
  -14.3672    0.0673    1.7834 N   0  0  0  0  0  0  0  0  0  0  0  0
  -13.3378    0.5826    1.0695 C   0  0  0  0  0  0  0  0  0  0  0  0
  -10.8710   -2.0226    0.9233 C   0  0  0  0  0  0  0  0  0  0  0  0
  -10.2158   -1.0431    0.2076 C   0  0  0  0  0  0  0  0  0  0  0  0
  -11.0583    0.0430    0.1403 N   0  0  0  0  0  0  0  0  0  0  0  0
  1  2  2  0
  1  6  1  0
  1  9  1  0
  2  3  1  0
  3  4  2  0
  4  5  1  0
  5  6  2  0
  6  7  1  0
  7  8  2  0
  8  9  1  0
  8 16  1  0
 10 11  1  0
 10 14  1  0
 10 20  1  0
 11 12  1  0
 11 19  2  0
 12 13  1  0
 12 15  1  6
 13 14  1  0
 15 16  1  0
 16 17  2  0
 16 18  2  0
 20 28  1  0
 21 22  1  0
 21 26  2  0
 21 29  1  0
 22 23  2  0
 22 27  1  0
 23 24  1  0
 24 25  2  0
 25 26  1  0
 27 28  2  0
 28 29  1  0
M  END
>  <DRUGBANK_ID>  (1) 
DB08426

>  <COMMON_NAME>  (1) 
THIENO[3,2-B]PYRIDINE-2-SULFONIC ACID [2-OXO-1-(1H-PYRROLO[2,3-C]PYRIDIN-2-YLMETHYL)-PYRROLIDIN-3-YL]-AMIDE

$$$$
