
     RDKit          3D

 23 25  0  0  0  0  0  0  0  0999 V2000
    0.8139    1.2524    0.0294 C   0  0  0  0  0  0  0  0  0  0  0  0
    1.3010    2.0545   -1.1749 C   0  0  0  0  0  0  0  0  0  0  0  0
    0.8069    3.4755   -1.1458 C   0  0  0  0  0  0  0  0  0  0  0  0
    1.1231    4.2692   -0.0433 C   0  0  0  0  0  0  0  0  0  0  0  0
    0.0578    4.0243   -2.1909 C   0  0  0  0  0  0  0  0  0  0  0  0
    0.7259    5.5938    0.0081 C   0  0  0  0  0  0  0  0  0  0  0  0
   -0.2914    5.3790   -2.1596 C   0  0  0  0  0  0  0  0  0  0  0  0
    0.0205    6.1653   -1.0451 C   0  0  0  0  0  0  0  0  0  0  0  0
   -0.4256    7.4572   -1.0685 O   0  0  0  0  0  0  0  0  0  0  0  0
   -0.3874    8.2130    0.1527 C   0  0  0  0  0  0  0  0  0  0  0  0
   -1.7359    8.1656    0.9207 C   0  0  0  0  0  0  0  0  0  0  0  0
   -2.1026    6.7171    1.3235 C   0  0  0  0  0  0  0  0  0  0  0  0
   -3.3569    6.6323    2.1876 C   0  0  0  0  0  0  0  0  0  0  0  0
   -3.2381    7.5029    3.4320 C   0  0  0  0  0  0  0  0  0  0  0  0
   -2.8967    8.9447    3.0675 C   0  0  0  0  0  0  0  0  0  0  0  0
   -1.6291    9.0177    2.2106 C   0  0  0  0  0  0  0  0  0  0  0  0
   -2.8179    8.7454   -0.0112 C   0  0  0  0  0  0  0  0  0  0  0  0
    1.3557   -0.1527   -0.0149 C   0  0  0  0  0  0  0  0  0  0  0  0
    0.3611   -1.0800   -0.0439 N   0  0  0  0  0  0  0  0  0  0  0  0
   -0.9280   -0.6636    0.0014 C   0  0  0  0  0  0  0  0  0  0  0  0
   -1.0029    1.0717    0.0533 S   0  0  0  0  0  0  0  0  0  0  0  0
   -1.9049   -1.3832    0.0128 O   0  0  0  0  0  0  0  0  0  0  0  0
    2.5458   -0.4404   -0.0109 O   0  0  0  0  0  0  0  0  0  0  0  0
  1  2  1  0
  1 18  1  0
  1 21  1  0
  2  3  1  0
  3  4  2  0
  3  5  1  0
  4  6  1  0
  5  7  2  0
  6  8  2  0
  7  8  1  0
  8  9  1  0
  9 10  1  0
 10 11  1  0
 11 12  1  0
 11 16  1  0
 11 17  1  0
 12 13  1  0
 13 14  1  0
 14 15  1  0
 15 16  1  0
 18 19  1  0
 18 23  2  0
 19 20  1  0
 20 21  1  0
 20 22  2  0
M  END
>  <DRUGBANK_ID>  (1) 
DB09201

>  <COMMON_NAME>  (1) 
Ciglitazone

>  <CAS_NUMBER>  (1) 
74772-77-3

>  <UNII>  (1) 
U8QXS1WU8G

>  <SYNONYMS>  (1) 
ciglitazona; Ciglitazone

$$$$
