
     RDKit          3D

 22 24  0  0  0  0  0  0  0  0999 V2000
    0.9173    0.0439    0.1467 C   0  0  0  0  0  0  0  0  0  0  0  0
    0.4543    1.4419   -0.2754 C   0  0  0  0  0  0  0  0  0  0  0  0
   -0.8702    8.7931   -0.6405 C   0  0  0  0  0  0  0  0  0  0  0  0
    0.9248    8.1843    0.8283 C   0  0  0  0  0  0  0  0  0  0  0  0
   -1.2717    7.3028   -0.7962 C   0  0  0  0  0  0  0  0  0  0  0  0
    0.5520    6.6739    0.7328 C   0  0  0  0  0  0  0  0  0  0  0  0
    1.0754    4.9371   -3.5224 C   0  0  0  0  0  0  0  0  0  0  0  0
    1.3904    0.9322   -2.5789 C   0  0  0  0  0  0  0  0  0  0  0  0
    1.2071    3.6047   -3.2134 C   0  0  0  0  0  0  0  0  0  0  0  0
    1.7728    1.2074   -3.8350 C   0  0  0  0  0  0  0  0  0  0  0  0
    1.6962    2.6368   -4.2159 C   0  0  0  0  0  0  0  0  0  0  0  0
    0.8504    3.2290   -1.9289 C   0  0  0  0  0  0  0  0  0  0  0  0
    2.2352    0.1544   -4.7664 C   0  0  0  0  0  0  0  0  0  0  0  0
    0.3005    5.4657   -1.4140 C   0  0  0  0  0  0  0  0  0  0  0  0
   -0.2248    9.1021    0.6563 N   0  0  0  0  0  0  0  0  0  0  0  0
    0.5992    5.8683   -2.6602 N   0  0  0  0  0  0  0  0  0  0  0  0
    0.4291    4.1674   -1.0242 N   0  0  0  0  0  0  0  0  0  0  0  0
    0.9630    1.8336   -1.6048 N   0  0  0  0  0  0  0  0  0  0  0  0
   -0.1497    6.4058   -0.5172 N   0  0  0  0  0  0  0  0  0  0  0  0
    2.0171    3.0361   -5.3294 O   0  0  0  0  0  0  0  0  0  0  0  0
    2.5995    0.3054   -5.9234 O   0  0  0  0  0  0  0  0  0  0  0  0
    2.2402   -1.0870   -4.2377 O   0  0  0  0  0  0  0  0  0  0  0  0
  2  1  1  0
  5  3  1  0
  6  4  1  0
  9  7  2  0
 10  8  2  0
 11  9  1  0
 11 10  1  0
 12  9  1  0
 13 10  1  0
 15  3  1  0
 15  4  1  0
 16  7  1  0
 16 14  2  0
 17 12  2  0
 17 14  1  0
 18  2  1  0
 18  8  1  0
 18 12  1  0
 19  5  1  0
 19  6  1  0
 19 14  1  0
 20 11  2  0
 21 13  2  0
 22 13  1  0
M  END
>  <DRUGBANK_ID>  (1) 
DB13823

>  <COMMON_NAME>  (1) 
Pipemidic acid

>  <CAS_NUMBER>  (1) 
51940-44-4

>  <UNII>  (1) 
LT12J5HVR8

>  <SYNONYMS>  (1) 
acido pipemidico; Pipemidic acid

$$$$
