
     RDKit          3D

 43 44  0  0  0  0  0  0  0  0999 V2000
    1.0382   -0.1475   -0.1340 C   0  0  0  0  0  0  0  0  0  0  0  0
    0.4561    1.0816    0.4679 C   0  0  0  0  0  0  0  0  0  0  0  0
   -0.4160    1.9325   -0.4007 C   0  0  0  0  0  0  0  0  0  0  0  0
    0.7270    1.4378    1.7340 C   0  0  0  0  0  0  0  0  0  0  0  0
    1.6898    0.7561    2.6823 C   0  0  0  0  0  0  0  0  0  0  0  0
    2.9222    1.5558    3.1646 C   0  0  0  0  0  0  0  0  0  0  0  0
    2.6445    2.8091    3.9539 C   0  0  0  0  0  0  0  0  0  0  0  0
    3.2372    2.9651    5.2977 C   0  0  0  0  0  0  0  0  0  0  0  0
    1.8913    3.7867    3.4434 C   0  0  0  0  0  0  0  0  0  0  0  0
    1.4629    5.1043    4.0029 C   0  0  0  0  0  0  0  0  0  0  0  0
    1.8586    6.3388    3.1638 C   0  0  0  0  0  0  0  0  0  0  0  0
    1.1765    6.4478    1.8261 C   0  0  0  0  0  0  0  0  0  0  0  0
    0.4358    7.6635    1.4393 C   0  0  0  0  0  0  0  0  0  0  0  0
    1.2225    5.4475    0.9522 C   0  0  0  0  0  0  0  0  0  0  0  0
    0.5830    5.2835   -0.3614 C   0  0  0  0  0  0  0  0  0  0  0  0
    1.6328    4.7564   -1.3186 C   0  0  0  0  0  0  0  0  0  0  0  0
    2.4452    3.4416   -1.1762 C   0  0  0  0  0  0  0  0  0  0  0  0
    2.4739    2.4654   -2.3126 C   0  0  0  0  0  0  0  0  0  0  0  0
    3.2904    3.1805   -0.1617 C   0  0  0  0  0  0  0  0  0  0  0  0
    4.3447    2.1173   -0.0578 C   0  0  0  0  0  0  0  0  0  0  0  0
    5.7599    2.5831    0.3838 C   0  0  0  0  0  0  0  0  0  0  0  0
    5.9272    3.4227    1.6561 C   0  0  0  0  0  0  0  0  0  0  0  0
    6.7718    2.8499    2.7395 C   0  0  0  0  0  0  0  0  0  0  0  0
    5.3713    4.6244    1.8954 C   0  0  0  0  0  0  0  0  0  0  0  0
    5.4954    5.5718    3.0466 C   0  0  0  0  0  0  0  0  0  0  0  0
    5.9534    6.9938    2.6085 C   0  0  0  0  0  0  0  0  0  0  0  0
    5.0581    7.7951    1.6321 C   0  0  0  0  0  0  0  0  0  0  0  0
    4.4449    9.0844    2.0521 C   0  0  0  0  0  0  0  0  0  0  0  0
    4.9914    7.4845    0.3234 C   0  0  0  0  0  0  0  0  0  0  0  0
    4.1207    8.0482   -0.8157 C   0  0  0  0  0  0  0  0  0  0  0  0
    3.8292    7.1732   -2.0768 C   0  0  0  0  0  0  0  0  0  0  0  0
    4.3416    5.9633   -2.3649 C   0  0  0  0  0  0  0  0  0  0  0  0
    5.0737    5.2096   -1.3482 C   0  0  0  0  0  0  0  0  0  0  0  0
    3.9139    5.0431   -3.4646 C   0  0  0  0  0  0  0  0  0  0  0  0
    4.5114    4.0333   -3.7189 O   0  0  0  0  0  0  0  0  0  0  0  0
    2.6822    5.3976   -4.1787 C   0  0  0  0  0  0  0  0  0  0  0  0
    2.1986    6.6888   -4.0403 C   0  0  0  0  0  0  0  0  0  0  0  0
    1.1658    7.0779   -4.8929 C   0  0  0  0  0  0  0  0  0  0  0  0
    0.6009    6.1699   -5.8046 C   0  0  0  0  0  0  0  0  0  0  0  0
    0.9687    4.8306   -5.7956 C   0  0  0  0  0  0  0  0  0  0  0  0
    2.0187    4.4404   -4.9804 C   0  0  0  0  0  0  0  0  0  0  0  0
    2.7302    7.6364   -2.9998 C   0  0  0  0  0  0  0  0  0  0  0  0
    2.2167    8.7344   -2.8576 O   0  0  0  0  0  0  0  0  0  0  0  0
  1  2  1  0
  2  3  1  0
  2  4  2  3
  4  5  1  0
  5  6  1  0
  6  7  1  0
  7  8  1  0
  7  9  2  0
  9 10  1  0
 10 11  1  0
 11 12  1  0
 12 13  1  0
 12 14  2  0
 14 15  1  0
 15 16  1  0
 16 17  1  0
 17 18  1  0
 17 19  2  0
 19 20  1  0
 20 21  1  0
 21 22  1  0
 22 23  1  0
 22 24  2  0
 24 25  1  0
 25 26  1  0
 26 27  1  0
 27 28  1  0
 27 29  2  0
 29 30  1  0
 30 31  1  0
 31 32  2  0
 31 42  1  0
 32 33  1  0
 32 34  1  0
 34 35  2  0
 34 36  1  0
 36 37  2  0
 36 41  1  0
 37 38  1  0
 37 42  1  0
 38 39  2  0
 39 40  1  0
 40 41  2  0
 42 43  2  0
M  END
>  <DRUGBANK_ID>  (1) 
DB14936

>  <COMMON_NAME>  (1) 
Menaquinone 6

>  <CAS_NUMBER>  (1) 
84-81-1

>  <UNII>  (1) 
71ANL51TLA

>  <SYNONYMS>  (1) 
VITAMIN K2

$$$$
