
     RDKit          3D

 24 25  0  0  0  0  0  0  0  0999 V2000
    1.8947    0.4253    0.3546 C   0  0  0  0  0  0  0  0  0  0  0  0
    1.6077   -4.5452    1.0603 C   0  0  0  0  0  0  0  0  0  0  0  0
    1.3948   -0.9515    0.8322 C   0  0  0  0  0  0  0  0  0  0  0  0
    1.3277   -3.3253    2.0813 C   0  0  0  0  0  0  0  0  0  0  0  0
   -2.7576    0.7536    0.9949 C   0  0  0  0  0  0  0  0  0  0  0  0
   -2.2167   -6.0838   -2.5076 C   0  0  0  0  0  0  0  0  0  0  0  0
   -1.5890    0.9663    0.2948 C   0  0  0  0  0  0  0  0  0  0  0  0
   -3.2727   -0.5375    1.0617 C   0  0  0  0  0  0  0  0  0  0  0  0
   -2.6430   -4.7834   -2.8323 C   0  0  0  0  0  0  0  0  0  0  0  0
   -1.2988   -6.3199   -1.5216 C   0  0  0  0  0  0  0  0  0  0  0  0
   -1.1114   -0.0620   -0.5398 C   0  0  0  0  0  0  0  0  0  0  0  0
   -2.5535   -1.6218    0.5395 C   0  0  0  0  0  0  0  0  0  0  0  0
   -2.0554   -3.6788   -2.2448 C   0  0  0  0  0  0  0  0  0  0  0  0
   -0.8789   -5.2213   -0.8130 C   0  0  0  0  0  0  0  0  0  0  0  0
    3.2221   -2.0725    1.4393 C   0  0  0  0  0  0  0  0  0  0  0  0
    3.4002   -2.7268   -0.0166 C   0  0  0  0  0  0  0  0  0  0  0  0
   -1.4704   -1.4174   -0.3582 C   0  0  0  0  0  0  0  0  0  0  0  0
   -1.1352   -3.8919   -1.2658 C   0  0  0  0  0  0  0  0  0  0  0  0
    0.9792   -2.3751   -1.6245 C   0  0  0  0  0  0  0  0  0  0  0  0
   -0.4605   -2.6633   -0.6835 C   0  0  0  0  0  0  0  0  0  0  0  0
    1.8607   -1.8985    1.8650 N   0  0  0  0  0  0  0  0  0  0  0  0
    0.8362   -1.8796   -2.8156 O   0  0  0  0  0  0  0  0  0  0  0  0
   -0.4084   -3.0392    0.6395 O   0  0  0  0  0  0  0  0  0  0  0  0
    2.3174   -2.6365   -1.2513 O   0  0  0  0  0  0  0  0  0  0  0  0
  3  1  1  0
  4  2  1  0
  7  5  2  0
  8  5  1  0
  9  6  2  0
 10  6  1  0
 11  7  1  0
 12  8  2  0
 13  9  1  0
 14 10  2  0
 16 15  1  0
 17 11  2  0
 17 12  1  0
 18 13  2  0
 18 14  1  0
 20 17  1  0
 20 18  1  0
 20 19  1  0
 21  3  1  0
 21  4  1  0
 21 15  1  0
 22 19  2  0
 23 20  1  0
 24 16  1  0
 24 19  1  0
M  END
>  <DRUGBANK_ID>  (1) 
DB09023

>  <COMMON_NAME>  (1) 
Benactyzine

>  <CAS_NUMBER>  (1) 
302-40-9

>  <UNII>  (1) 
595EG71R3F

>  <SYNONYMS>  (1) 
Benactyzine

$$$$
