
     RDKit          3D

 28 32  0  0  1  0  0  0  0  0999 V2000
    0.9603    0.0930    0.1964 C   0  0  0  0  0  0  0  0  0  0  0  0
    0.1352    1.2308   -0.1935 N   0  0  0  0  0  0  0  0  0  0  0  0
    0.6323    2.6100   -0.0190 C   0  0  0  0  0  0  0  0  0  0  0  0
    0.2095    3.3848   -1.2932 C   0  0  1  0  0  0  0  0  0  0  0  0
    1.2372    4.3886   -1.8293 C   0  0  0  0  0  0  0  0  0  0  0  0
    2.1438    3.5876   -2.7705 C   0  0  0  0  0  0  0  0  0  0  0  0
    1.5701    2.2555   -2.7790 N   0  0  0  0  0  0  0  0  0  0  0  0
    0.1708    2.2885   -2.3507 C   0  0  1  0  0  0  0  0  0  0  0  0
   -0.3198    1.0835   -1.5781 C   0  0  0  0  0  0  0  0  0  0  0  0
    2.3139    1.1386   -3.0369 C   0  0  0  0  0  0  0  0  0  0  0  0
    1.9305    0.2386   -4.0328 C   0  0  0  0  0  0  0  0  0  0  0  0
    2.7109   -0.8815   -4.3470 C   0  0  0  0  0  0  0  0  0  0  0  0
    3.8924   -1.1480   -3.6474 C   0  0  0  0  0  0  0  0  0  0  0  0
    4.2827   -0.2448   -2.6493 C   0  0  0  0  0  0  0  0  0  0  0  0
    3.4872    0.8584   -2.3283 C   0  0  0  0  0  0  0  0  0  0  0  0
    4.7023   -2.3440   -3.9075 C   0  0  0  0  0  0  0  0  0  0  0  0
    5.2789   -2.5854   -5.1651 C   0  0  0  0  0  0  0  0  0  0  0  0
    6.1267   -3.6826   -5.3750 C   0  0  0  0  0  0  0  0  0  0  0  0
    6.3678   -4.5800   -4.3352 C   0  0  0  0  0  0  0  0  0  0  0  0
    5.8120   -4.3380   -3.0729 C   0  0  0  0  0  0  0  0  0  0  0  0
    4.9632   -3.2520   -2.8703 C   0  0  0  0  0  0  0  0  0  0  0  0
    7.0587   -5.7962   -4.5470 N   0  0  0  0  0  0  0  0  0  0  0  0
    8.2792   -5.7171   -5.1872 N   0  0  0  0  0  0  0  0  0  0  0  0
    8.9659   -6.8134   -5.2006 C   0  0  0  0  0  0  0  0  0  0  0  0
    8.5742   -8.0813   -4.5637 C   0  0  0  0  0  0  0  0  0  0  0  0
    7.2804   -8.1967   -4.2615 C   0  0  0  0  0  0  0  0  0  0  0  0
    6.4133   -7.0048   -4.2896 C   0  0  0  0  0  0  0  0  0  0  0  0
    5.2108   -7.1564   -4.0325 O   0  0  0  0  0  0  0  0  0  0  0  0
  1  2  1  0
  2  3  1  0
  2  9  1  0
  4  3  1  1
  4  5  1  0
  4  8  1  0
  5  6  1  0
  6  7  1  0
  7 10  1  0
  8  7  1  0
  8  9  1  1
 10 11  2  0
 10 15  1  0
 11 12  1  0
 12 13  2  0
 13 14  1  0
 13 16  1  0
 14 15  2  0
 16 17  2  0
 16 21  1  0
 17 18  1  0
 18 19  2  0
 19 20  1  0
 19 22  1  0
 20 21  2  0
 22 23  1  0
 22 27  1  0
 23 24  2  0
 24 25  1  0
 25 26  2  0
 26 27  1  0
 27 28  2  0
M  END
>  <DRUGBANK_ID>  (1) 
DB15192

>  <COMMON_NAME>  (1) 
ABT-288

>  <CAS_NUMBER>  (1) 
948845-91-8

>  <UNII>  (1) 
5MEI1M3NHH

$$$$
