
     RDKit          3D

 15 15  0  0  1  0  0  0  0  0999 V2000
   -0.9815   -0.9878    3.6598 C   0  0  0  0  0  0  0  0  0  0  0  0
   -1.4833    0.1247    2.7608 N   0  0  2  0  0  0  0  0  0  0  0  0
   -2.9539    0.3755    3.1431 C   0  0  0  0  0  0  0  0  0  0  0  0
   -3.8207   -0.5798    2.3903 C   0  0  0  0  0  0  0  0  0  0  0  0
   -3.6454   -2.0629    2.3807 C   0  0  0  0  0  0  0  0  0  0  0  0
   -4.5829   -2.9540    2.1625 C   0  0  0  0  0  0  0  0  0  0  0  0
   -4.1972   -4.4058    2.1406 C   0  0  0  0  0  0  0  0  0  0  0  0
   -5.9920   -2.5265    1.9199 C   0  0  0  0  0  0  0  0  0  0  0  0
   -1.0265    0.0923    1.1945 C   0  0  2  0  0  0  0  0  0  0  0  0
   -1.4572    1.3535    0.4119 C   0  0  0  0  0  0  0  0  0  0  0  0
   -2.9376    1.4183   -0.0031 C   0  0  0  0  0  0  0  0  0  0  0  0
   -3.5228    0.0972   -0.4795 C   0  0  0  0  0  0  0  0  0  0  0  0
   -5.0554    0.1278   -0.5581 C   0  0  0  0  0  0  0  0  0  0  0  0
   -2.7920   -1.0542   -0.4099 C   0  0  0  0  0  0  0  0  0  0  0  0
   -1.4148   -1.1450    0.3095 C   0  0  0  0  0  0  0  0  0  0  0  0
  2  3  1  0
  2  1  1  6
  3  4  1  0
  4  5  1  0
  5  6  2  3
  6  7  1  0
  6  8  1  0
  9 10  1  6
  9 15  1  0
  9  2  1  0
 10 11  1  0
 11 12  1  0
 12 13  1  0
 12 14  2  0
 14 15  1  0
M  CHG  1   2   1
M  END
>  <DRUGBANK_ID>  (1) 
DB02099

>  <SECONDARY_ACCESSION_NUMBERS>  (1) 
EXPT02848

>  <COMMON_NAME>  (1) 
S-azabisabolene

$$$$
