73V
     RDKit          3D

 34 36  0  0  0  0  0  0  0  0999 V2000
    8.0221   -6.3895   -7.2095 C   0  0  0  0  0  0  0  0  0  0  0  0
    6.8408   -7.0792   -6.6355 C   0  0  0  0  0  0  0  0  0  0  0  0
    6.5705   -6.2091   -5.4612 C   0  0  0  0  0  0  0  0  0  0  0  0
    6.0392   -4.8146   -5.9136 N   0  0  0  0  0  0  0  0  0  0  0  0
    2.6540   -4.2643   -4.3554 C   0  0  0  0  0  0  0  0  0  0  0  0
    1.8138   -5.3584   -4.5692 C   0  0  0  0  0  0  0  0  0  0  0  0
    2.1264   -6.6769   -4.4481 C   0  0  0  0  0  0  0  0  0  0  0  0
    3.4237   -6.9811   -4.2982 C   0  0  0  0  0  0  0  0  0  0  0  0
    4.2619   -5.8864   -3.9906 C   0  0  0  0  0  0  0  0  0  0  0  0
    3.9746   -4.5029   -3.8491 C   0  0  0  0  0  0  0  0  0  0  0  0
    1.6887   -2.9728   -4.6445 C   0  0  0  0  0  0  0  0  0  0  0  0
    3.5554   -2.8334   -6.9609 O   0  0  0  0  0  0  0  0  0  0  0  0
    2.3367   -2.7092   -6.4537 C   0  0  2  0  0  0  0  0  0  0  0  0
    1.2978   -1.1666   -6.1867 C   0  0  0  0  0  0  0  0  0  0  0  0
    0.0276   -1.0770   -6.1732 O   0  0  0  0  0  0  0  0  0  0  0  0
    4.1722   -3.1195   -5.8792 C   0  0  1  0  0  0  0  0  0  0  0  0
    4.7242   -4.5166   -6.2556 C   0  0  0  0  0  0  0  0  0  0  0  0
    3.9583   -5.3808   -6.6941 O   0  0  0  0  0  0  0  0  0  0  0  0
    1.5307   -0.1359   -5.3983 N   0  0  0  0  0  0  0  0  0  0  0  0
    2.7928   -0.0973   -4.9101 C   0  0  2  0  0  0  0  0  0  0  0  0
    3.7190   -0.2060   -6.5075 C   0  0  0  0  0  0  0  0  0  0  0  0
    4.8064    0.4007   -6.4033 O   0  0  0  0  0  0  0  0  0  0  0  0
    3.0747   -1.0211   -3.3426 C   0  0  2  0  0  0  0  0  0  0  0  0
    2.0264   -2.1710   -2.2973 C   0  0  0  0  0  0  0  0  0  0  0  0
    3.0493    0.0445   -2.2673 C   0  0  0  0  0  0  0  0  0  0  0  0
    1.7214   -3.7164   -2.2473 C   0  0  0  0  0  0  0  0  0  0  0  0
    3.4815   -1.1488   -7.8991 N   0  0  0  0  0  0  0  0  0  0  0  0
    2.0548   -2.2566   -8.4741 C   0  0  2  0  0  0  0  0  0  0  0  0
    0.4204   -2.7409   -7.5967 C   0  0  0  0  0  0  0  0  0  0  0  0
    0.4214   -3.1961   -5.9419 O   0  0  0  0  0  0  0  0  0  0  0  0
   -0.6756   -2.4550   -8.1083 O   0  0  0  0  0  0  0  0  0  0  0  0
    2.7351   -3.9236   -8.7105 C   0  0  0  0  0  0  0  0  0  0  0  0
    4.4030   -3.7412   -8.8086 C   0  0  0  0  0  0  0  0  0  0  0  0
    4.9477   -2.1098   -8.1978 C   0  0  0  0  0  0  0  0  0  0  0  0
  1  2  1  0
  2  3  1  0
  3  4  1  0
  4 17  1  0
  5  6  2  0
  5 10  1  0
  5 11  1  0
  6  7  1  0
  7  8  2  0
  8  9  1  0
  9 10  2  0
 11 30  1  0
 12 13  1  0
 12 16  1  0
 13 14  1  1
 13 16  1  0
 14 15  2  0
 14 19  1  0
 16 17  1  6
 17 18  2  0
 20 21  1  0
 20 19  1  6
 21 22  2  0
 21 27  1  0
 23 25  1  1
 23 24  1  0
 23 20  1  0
 24 26  1  0
 27 28  1  0
 27 34  1  0
 28 32  1  0
 28 29  1  1
 29 30  1  0
 29 31  2  0
 32 33  1  0
 33 34  1  0
M  END
>  <DRUGBANK_ID>  (1) 
DB07219

>  <COMMON_NAME>  (1) 
BENZYL N-({(2S,3S)-3-[(PROPYLAMINO)CARBONYL]OXIRAN-2-YL}CARBONYL)-L-ISOLEUCYL-L-PROLINATE

$$$$
