
     RDKit          3D

 20 22  0  0  1  0  0  0  0  0999 V2000
   -2.3489   -0.0669    0.0832 C   0  0  0  0  0  0  0  0  0  0  0  0
   -3.1247   -4.4277   -3.6195 C   0  0  0  0  0  0  0  0  0  0  0  0
   -3.1198   -3.0864   -3.2732 C   0  0  0  0  0  0  0  0  0  0  0  0
   -2.6201   -5.3790   -2.7344 C   0  0  0  0  0  0  0  0  0  0  0  0
   -2.5553   -2.7072   -2.0593 C   0  0  0  0  0  0  0  0  0  0  0  0
   -2.1314   -5.0045   -1.4913 C   0  0  0  0  0  0  0  0  0  0  0  0
    0.9115    1.4346    0.7388 C   0  0  0  0  0  0  0  0  0  0  0  0
    0.8969    1.3991   -0.7981 C   0  0  0  0  0  0  0  0  0  0  0  0
    0.4894   -0.9752    1.3303 C   0  0  0  0  0  0  0  0  0  0  0  0
    0.4738   -1.0135   -1.2857 C   0  0  0  0  0  0  0  0  0  0  0  0
   -2.0102   -3.6612   -1.1677 C   0  0  0  0  0  0  0  0  0  0  0  0
   -0.1453    0.4127    1.1686 C   0  0  2  0  0  0  0  0  0  0  0  0
   -0.1788    0.3672   -1.1527 C   0  0  1  0  0  0  0  0  0  0  0  0
    1.1198   -1.5054    0.0231 C   0  0  2  0  0  0  0  0  0  0  0  0
   -1.2163   -3.3105    0.0755 C   0  0  2  0  0  0  0  0  0  0  0  0
    0.2298   -3.8597    0.0952 C   0  0  0  0  0  0  0  0  0  0  0  0
   -1.0347    0.5225    0.0199 N   0  0  0  0  0  0  0  0  0  0  0  0
   -1.9786   -3.5515    1.2474 O   0  0  0  0  0  0  0  0  0  0  0  0
    0.4649   -5.0560    0.1935 O   0  0  0  0  0  0  0  0  0  0  0  0
    1.2563   -2.9561    0.0357 O   0  0  0  0  0  0  0  0  0  0  0  0
  3  2  2  0
  4  2  1  0
  5  3  1  0
  6  4  2  0
  8  7  1  0
 11  5  2  0
 11  6  1  0
 12  7  1  6
 12  9  1  0
 13  8  1  1
 13 10  1  0
 14  9  1  0
 14 10  1  0
 14 20  1  1
 15 11  1  0
 15 18  1  1
 16 15  1  0
 17  1  1  0
 17 12  1  0
 17 13  1  0
 19 16  2  0
 20 16  1  0
M  END
>  <DRUGBANK_ID>  (1) 
DB02161

>  <SECONDARY_ACCESSION_NUMBERS>  (1) 
EXPT01792

>  <COMMON_NAME>  (1) 
Hydroxy-Phenyl-Acetic Acid 8-Methyl-8-Aza-Bicyclo[3.2.1]Oct-3-Yl Ester

$$$$
