
     RDKit          3D

 13 12  0  0  0  0  0  0  0  0999 V2000
    1.0458    0.0659    0.0596 N   0  0  0  0  0  0  0  0  0  0  0  0
    4.3867    1.8834    1.0711 C   0  0  0  0  0  0  0  0  0  0  0  0
    2.3067    0.0659    0.0596 C   0  0  0  0  0  0  0  0  0  0  0  0
    4.3867   -0.9456    1.8771 C   0  0  0  0  0  0  0  0  0  0  0  0
    4.3867    2.9852    1.6843 N   0  0  0  0  0  0  0  0  0  0  0  0
    4.3867   -1.5588    2.9789 N   0  0  0  0  0  0  0  0  0  0  0  0
    4.3867    0.0659    0.0596 Fe  0  0  0  0  0  6  0  0  0  0  0  0
    4.3867   -1.7515   -0.9519 C   0  0  0  0  0  0  0  0  0  0  0  0
    4.3867   -2.8534   -1.5651 N   0  0  0  0  0  0  0  0  0  0  0  0
    4.3867    1.0775   -1.7579 C   0  0  0  0  0  0  0  0  0  0  0  0
    4.3867    1.6907   -2.8597 N   0  0  0  0  0  0  0  0  0  0  0  0
    6.4167    0.0659    0.0596 N   0  0  0  0  0  0  0  0  0  0  0  0
    7.0298    0.9938    0.5760 O   0  0  0  0  0  0  0  0  0  0  0  0
  1  3  3  0
  2  7  1  0
  2  5  3  0
  3  7  1  0
  4  7  1  0
  4  6  3  0
  7 12  1  0
  7  8  1  0
  7 10  1  0
  8  9  3  0
 10 11  3  0
 12 13  2  0
M  CHG  1   7  -2
M  END
>  <DRUGBANK_ID>  (1) 
DB00325

>  <SECONDARY_ACCESSION_NUMBERS>  (1) 
APRD01143

>  <COMMON_NAME>  (1) 
Nitroprusside

>  <CAS_NUMBER>  (1) 
15078-28-1

>  <UNII>  (1) 
169D1260KM

>  <SYNONYMS>  (1) 
Nitroferricyanide

$$$$
