4BQ
     RDKit          3D

 24 25  0  0  0  0  0  0  0  0999 V2000
   -4.6938   -0.1541   -8.5448 C   0  0  0  0  0  0  0  0  0  0  0  0
   -4.2064   -0.5592   -9.7890 C   0  0  0  0  0  0  0  0  0  0  0  0
   -3.8691    0.3925  -10.7595 C   0  0  0  0  0  0  0  0  0  0  0  0
   -4.0192    1.7565  -10.4985 C   0  0  0  0  0  0  0  0  0  0  0  0
   -4.5459    2.1711   -9.2767 C   0  0  0  0  0  0  0  0  0  0  0  0
   -4.8464    1.2163   -8.2752 C   0  0  0  0  0  0  0  0  0  0  0  0
   -4.8927    1.6859   -6.8427 C   0  0  0  0  0  0  0  0  0  0  0  0
   -3.7880    2.5798   -6.6843 O   0  0  0  0  0  0  0  0  0  0  0  0
   -2.6322    1.8571   -6.6104 C   0  0  0  0  0  0  0  0  0  0  0  0
   -1.9899    1.0976   -7.6683 C   0  0  0  0  0  0  0  0  0  0  0  0
   -0.7634    0.3689   -7.6474 C   0  0  0  0  0  0  0  0  0  0  0  0
   -2.0939    1.9237   -5.4040 C   0  0  0  0  0  0  0  0  0  0  0  0
   -0.9614    1.1519   -5.3416 C   0  0  0  0  0  0  0  0  0  0  0  0
   -0.1231    0.3699   -6.4380 C   0  0  0  0  0  0  0  0  0  0  0  0
    1.5565   -0.0518   -6.3974 N   0  0  0  0  0  0  0  0  0  0  0  0
    2.8659    0.1946   -5.4598 C   0  0  0  0  0  0  0  0  0  0  0  0
    3.9296   -0.3343   -5.7609 O   0  0  0  0  0  0  0  0  0  0  0  0
    2.8957    1.3376   -4.1222 C   0  0  0  0  0  0  0  0  0  0  0  0
    2.4861    2.9849   -4.5664 C   0  0  0  0  0  0  0  0  0  0  0  0
    1.3544    3.1802   -5.5623 C   0  0  1  0  0  0  0  0  0  0  0  0
    1.5149    3.2502   -7.1438 C   0  0  0  0  0  0  0  0  0  0  0  0
    0.7070    2.9586   -7.9773 O   0  0  0  0  0  0  0  0  0  0  0  0
    2.7225    3.7507   -7.5035 O   0  0  0  0  0  0  0  0  0  0  0  0
    1.1267    1.8914   -5.2239 N   0  0  0  0  0  0  0  0  0  0  0  0
  1  2  2  0
  2  3  1  0
  4  3  2  0
  5  4  1  0
  6  1  1  0
  6  5  2  0
  7  6  1  0
  8  7  1  0
  9  8  1  0
 10  9  2  0
 11 10  1  0
 12  9  1  0
 13 12  2  0
 14 11  2  0
 14 13  1  0
 15 14  1  0
 16 15  1  0
 16 17  2  0
 18 16  1  0
 18 19  1  0
 20 24  1  6
 20 21  1  0
 20 19  1  0
 21 23  1  0
 22 21  2  0
M  END
>  <DRUGBANK_ID>  (1) 
DB07102

>  <COMMON_NAME>  (1) 
(2S)-2-amino-5-oxo-5-[(4-phenylmethoxyphenyl)amino]pentanoic acid

$$$$
