
     RDKit          3D

  3  2  0  0  0  0  0  0  0  0999 V2000
    1.0127   -0.0992    0.0002 O   0  0  0  0  0  0  0  0  0  0  0  0
    5.0581   -0.0992    0.0002 O   0  0  0  0  0  0  0  0  0  0  0  0
    3.0354   -0.0992    0.0002 Ti  0  0  0  0  0  4  0  0  0  0  0  0
  1  3  2  0
  3  2  2  0
M  END
>  <DRUGBANK_ID>  (1) 
DB09536

>  <COMMON_NAME>  (1) 
Titanium dioxide

>  <CAS_NUMBER>  (1) 
13463-67-7

>  <UNII>  (1) 
15FIX9V2JP

>  <SYNONYMS>  (1) 
dióxido de titanio; óxido de titanio(4); Titanium dioxide

$$$$
