
     RDKit          3D

 35 39  0  0  0  0  0  0  0  0999 V2000
    0.1097    1.5694    0.6838 C   0  0  2  0  0  0  0  0  0  0  0  0
   -0.7554    3.2388    0.1560 C   0  0  2  0  0  0  0  0  0  0  0  0
   -1.1701    0.8855    0.0819 C   0  0  1  0  0  0  0  0  0  0  0  0
    0.7353    0.1331   -0.1625 O   0  0  0  0  0  0  0  0  0  0  0  0
    1.7846    1.2367    1.1410 C   0  0  0  0  0  0  0  0  0  0  0  0
   -0.6070    2.9317   -1.3277 C   0  0  2  0  0  0  0  0  0  0  0  0
   -0.5731    4.9011    0.0216 C   0  0  0  0  0  0  0  0  0  0  0  0
   -2.3134    3.4875    0.6264 C   0  0  0  0  0  0  0  0  0  0  0  0
   -1.1394    1.4782   -1.3883 C   0  0  0  0  0  0  0  0  0  0  0  0
   -1.3563   -0.5428    0.0704 O   0  0  0  0  0  0  0  0  0  0  0  0
   -0.0715   -1.1077    0.2098 C   0  0  0  0  0  0  0  0  0  0  0  0
    0.8777    3.3591   -1.4945 C   0  0  2  0  0  0  0  0  0  0  0  0
    0.8240    5.3778   -0.0346 C   0  0  1  0  0  0  0  0  0  0  0  0
   -0.0182   -1.7976    1.6031 C   0  0  0  0  0  0  0  0  0  0  0  0
    0.0820   -2.5990   -0.5729 C   0  0  0  0  0  0  0  0  0  0  0  0
    1.2393    4.8912   -1.4625 C   0  0  1  0  0  0  0  0  0  0  0  0
    1.5020    2.7659   -2.6890 C   0  0  0  0  0  0  0  0  0  0  0  0
    0.8512    6.7705    0.2974 O   0  0  0  0  0  0  0  0  0  0  0  0
    2.6570    5.2737   -1.9613 C   0  0  2  0  0  0  0  0  0  0  0  0
    0.4161    5.4818   -2.3924 F   0  0  0  0  0  0  0  0  0  0  0  0
    2.9763    2.8275   -2.3000 C   0  0  1  0  0  0  0  0  0  0  0  0
    3.7019    4.2712   -1.6158 C   0  0  0  0  0  0  0  0  0  0  0  0
    2.9310    6.7205   -1.5663 C   0  0  0  0  0  0  0  0  0  0  0  0
    3.0043    5.0403   -3.5439 C   0  0  0  0  0  0  0  0  0  0  0  0
    2.7582    1.7540   -1.4880 F   0  0  0  0  0  0  0  0  0  0  0  0
    4.9644    4.8643   -1.8160 C   0  0  0  0  0  0  0  0  0  0  0  0
    4.0938    7.3376   -1.7483 C   0  0  0  0  0  0  0  0  0  0  0  0
    5.0523    6.3999   -2.3167 C   0  0  0  0  0  0  0  0  0  0  0  0
    5.6441    6.7382   -3.3496 O   0  0  0  0  0  0  0  0  0  0  0  0
    1.9774    0.3337    1.9885 O   0  0  0  0  0  0  0  0  0  0  0  0
    3.2643    1.9600    0.6453 C   0  0  0  0  0  0  0  0  0  0  0  0
    4.3646    1.6918   -0.3857 O   0  0  0  0  0  0  0  0  0  0  0  0
    4.4804    0.5053   -1.0827 C   0  0  0  0  0  0  0  0  0  0  0  0
    4.3593   -0.6080   -0.4774 O   0  0  0  0  0  0  0  0  0  0  0  0
    4.5949    0.5250   -2.6576 C   0  0  0  0  0  0  0  0  0  0  0  0
  1  2  1  0
  1  3  1  0
  1  4  1  0
  1  5  1  1
  2  6  1  0
  2  7  1  0
  2  8  1  1
  3  9  1  6
  3 10  1  0
  4 11  1  0
  5 30  2  0
  5 31  1  0
  6 12  1  0
  6  9  1  1
  7 13  1  0
 10 11  1  0
 11 14  1  0
 11 15  1  0
 12 16  1  0
 12 17  1  6
 13 16  1  0
 13 18  1  6
 16 19  1  0
 16 20  1  6
 17 21  1  0
 19 22  1  0
 19 23  1  0
 19 24  1  6
 21 22  1  0
 21 25  1  1
 22 26  2  0
 23 27  2  0
 26 28  1  0
 27 28  1  0
 28 29  2  0
 31 32  1  0
 32 33  1  0
 33 34  2  0
 33 35  1  0
M  END
>  <DRUGBANK_ID>  (1) 
DB01047

>  <SECONDARY_ACCESSION_NUMBERS>  (1) 
APRD00978

>  <COMMON_NAME>  (1) 
Fluocinonide

>  <CAS_NUMBER>  (1) 
356-12-7

>  <UNII>  (1) 
2W4A77YPAN

>  <SYNONYMS>  (1) 
Fluocinonida; Fluocinonide; Fluocinonido; Fluocinonidum

$$$$
