
     RDKit          3D

  6  5  0  0  0  0  0  0  0  0999 V2000
    1.0603   -0.0001   -0.0685 C   0  0  0  0  0  0  0  0  0  0  0  0
    0.5392   -0.5025   -1.4118 C   0  0  0  0  0  0  0  0  0  0  0  0
    1.0602   -1.9126   -1.6733 C   0  0  0  0  0  0  0  0  0  0  0  0
   -0.9817   -0.5150   -1.3968 C   0  0  0  0  0  0  0  0  0  0  0  0
   -1.5971    0.2663   -2.3279 N   0  0  0  0  0  0  0  0  0  0  0  0
   -1.6484   -1.1774   -0.6075 O   0  0  0  0  0  0  0  0  0  0  0  0
  1  2  1  0
  2  3  1  0
  2  4  1  0
  4  5  1  0
  4  6  2  0
M  END
>  <DRUGBANK_ID>  (1) 
DB17705

>  <COMMON_NAME>  (1) 
Isobutyramide

>  <CAS_NUMBER>  (1) 
563-83-7

>  <UNII>  (1) 
82UOE7B38Z

>  <SYNONYMS>  (1) 
2-methylpropionamide

$$$$
