
     RDKit          3D

 35 38  0  0  1  0  0  0  0  0999 V2000
    0.9535    0.0403   -0.0343 C   0  0  0  0  0  0  0  0  0  0  0  0
    0.4877    0.4712    1.2882 N   0  0  0  0  0  0  0  0  0  0  0  0
   -0.9702    0.5409    1.3422 C   0  0  0  0  0  0  0  0  0  0  0  0
    1.0496   -0.3794    2.3423 C   0  0  0  0  0  0  0  0  0  0  0  0
    0.6601   -1.7870    2.2310 C   0  0  0  0  0  0  0  0  0  0  0  0
    1.4171   -2.8204    1.8911 C   0  0  0  0  0  0  0  0  0  0  0  0
    0.8841   -4.1935    1.8481 C   0  0  0  0  0  0  0  0  0  0  0  0
    1.7414   -5.0196    1.5237 O   0  0  0  0  0  0  0  0  0  0  0  0
   -0.5162   -4.4495    2.2151 N   0  0  0  0  0  0  0  0  0  0  0  0
   -0.8498   -6.1310    2.8247 C   0  0  0  0  0  0  0  0  0  0  0  0
   -1.5464   -7.6647    1.7073 C   0  0  0  0  0  0  0  0  0  0  0  0
   -2.8700   -7.3519    0.2665 C   0  0  0  0  0  0  0  0  0  0  0  0
   -3.2073   -5.7254   -0.5227 C   0  0  0  0  0  0  0  0  0  0  0  0
   -3.1175   -4.1089    0.3303 C   0  0  2  0  0  0  0  0  0  0  0  0
   -1.7987   -3.3865    1.5739 C   0  0  0  0  0  0  0  0  0  0  0  0
   -4.0866   -4.3406    1.2614 N   0  0  0  0  0  0  0  0  0  0  0  0
   -3.7328   -5.2719    2.0228 C   0  0  0  0  0  0  0  0  0  0  0  0
   -2.4661   -5.8640    1.6948 N   0  0  0  0  0  0  0  0  0  0  0  0
   -1.0394   -5.9505    0.5893 C   0  0  0  0  0  0  0  0  0  0  0  0
    0.0667   -6.5764    0.8232 O   0  0  0  0  0  0  0  0  0  0  0  0
   -0.5493   -5.2538   -0.7026 C   0  0  0  0  0  0  0  0  0  0  0  0
   -0.4182   -5.7420   -1.9268 C   0  0  0  0  0  0  0  0  0  0  0  0
   -1.0991   -4.9009   -2.8441 C   0  0  0  0  0  0  0  0  0  0  0  0
   -1.6009   -3.5781   -2.6828 N   0  0  0  0  0  0  0  0  0  0  0  0
   -1.4169   -3.0266   -1.5148 C   0  0  0  0  0  0  0  0  0  0  0  0
   -2.0238   -1.7042   -0.9869 C   0  0  0  0  0  0  0  0  0  0  0  0
   -0.8452   -3.9406   -0.6745 C   0  0  0  0  0  0  0  0  0  0  0  0
   -4.6300   -5.4642    2.9622 N   0  0  0  0  0  0  0  0  0  0  0  0
   -5.6050   -4.4955    2.6161 C   0  0  0  0  0  0  0  0  0  0  0  0
   -5.2664   -3.8020    1.4653 C   0  0  0  0  0  0  0  0  0  0  0  0
   -5.9219   -2.8456    0.7524 C   0  0  0  0  0  0  0  0  0  0  0  0
   -5.4523   -2.1176   -0.7278 Cl  0  0  0  0  0  0  0  0  0  0  0  0
   -7.1004   -2.4842    1.3076 C   0  0  0  0  0  0  0  0  0  0  0  0
   -7.5348   -3.0979    2.4859 C   0  0  0  0  0  0  0  0  0  0  0  0
   -6.8168   -4.1093    3.1717 C   0  0  0  0  0  0  0  0  0  0  0  0
  1  2  1  0
  2  3  1  0
  2  4  1  0
  4  5  1  0
  5  6  2  0
  6  7  1  0
  7  8  2  0
  7  9  1  0
  9 10  1  0
  9 15  1  0
 10 11  1  0
 11 12  1  0
 12 13  1  0
 14 13  1  0
 14 15  1  0
 14 16  1  1
 16 17  1  0
 16 30  1  0
 17 18  1  0
 17 28  2  0
 18 19  1  0
 19 20  2  0
 19 21  1  0
 21 22  2  0
 21 27  1  0
 22 23  1  0
 23 24  2  0
 24 25  1  0
 25 26  1  0
 25 27  2  0
 28 29  1  0
 29 30  2  0
 29 35  1  0
 30 31  1  0
 31 32  1  0
 31 33  2  0
 33 34  1  0
 34 35  2  0
M  END
>  <DRUGBANK_ID>  (1) 
DB16250

>  <COMMON_NAME>  (1) 
Nazartinib

>  <CAS_NUMBER>  (1) 
1508250-71-2

>  <UNII>  (1) 
KE7K32EME8

>  <SYNONYMS>  (1) 
Nazartinib

$$$$
