
     RDKit          3D

 26 28  0  0  1  0  0  0  0  0999 V2000
   11.0395   -3.2837    5.8844 C   0  0  0  0  0  0  0  0  0  0  0  0
    9.5308   -2.2354    4.1980 C   0  0  0  0  0  0  0  0  0  0  0  0
   11.4859   -2.0598    6.2370 C   0  0  0  0  0  0  0  0  0  0  0  0
    9.9497   -1.0117    4.5366 C   0  0  0  0  0  0  0  0  0  0  0  0
    9.1725   -4.5822    4.8132 C   0  0  0  0  0  0  0  0  0  0  0  0
    4.0495   -4.2752    1.5181 C   0  0  0  0  0  0  0  0  0  0  0  0
    1.6669   -4.3981    0.3888 C   0  0  0  0  0  0  0  0  0  0  0  0
    7.0897   -4.8008    0.3814 C   0  0  0  0  0  0  0  0  0  0  0  0
    2.1506   -5.3297   -1.4636 C   0  0  0  0  0  0  0  0  0  0  0  0
    9.8770   -3.4223    4.9807 C   0  0  0  0  0  0  0  0  0  0  0  0
    3.0241   -4.6395    0.4641 C   0  0  0  0  0  0  0  0  0  0  0  0
   10.8295   -0.8385    5.7042 C   0  0  0  0  0  0  0  0  0  0  0  0
    4.7392   -5.4598    2.2816 C   0  0  1  0  0  0  0  0  0  0  0  0
    8.1436   -4.8117    3.8011 C   0  0  0  0  0  0  0  0  0  0  0  0
    6.7177   -6.1272   -0.2326 C   0  0  0  0  0  0  0  0  0  0  0  0
    6.2170   -5.1442    2.7590 C   0  0  0  0  0  0  0  0  0  0  0  0
    8.3975   -4.6472    2.4595 C   0  0  0  0  0  0  0  0  0  0  0  0
    3.8368   -5.8624    3.3831 N   0  0  0  0  0  0  0  0  0  0  0  0
    1.1355   -4.8150   -0.8078 N   0  0  0  0  0  0  0  0  0  0  0  0
    3.3112   -5.2451   -0.7422 N   0  0  0  0  0  0  0  0  0  0  0  0
    6.7858   -5.1326    3.9892 N   0  0  0  0  0  0  0  0  0  0  0  0
    7.2115   -4.8871    1.8196 N   0  0  0  0  0  0  0  0  0  0  0  0
   11.0421    0.2765    6.1837 O   0  0  0  0  0  0  0  0  0  0  0  0
    5.6921   -6.0828   -0.9770 O   0  0  0  0  0  0  0  0  0  0  0  0
    7.4410   -7.1183    0.0454 O   0  0  0  0  0  0  0  0  0  0  0  0
    9.4828   -4.2799    1.7794 O   0  0  0  0  0  0  0  0  0  0  0  0
  3  1  2  0
  4  2  2  0
 10  1  1  0
 10  2  1  0
 10  5  2  3
 11  6  1  0
 11  7  2  0
 12  3  1  0
 12  4  1  0
 13 18  1  1
 13 16  1  0
 13  6  1  0
 14  5  1  0
 15  8  1  0
 17 14  2  0
 19  7  1  0
 19  9  2  0
 20  9  1  0
 20 11  1  0
 21 14  1  0
 21 16  2  0
 22  8  1  0
 22 16  1  0
 22 17  1  0
 23 12  2  0
 24 15  2  0
 25 15  1  0
 26 17  1  0
M  CHG  1  25  -1
M  END
>  <DRUGBANK_ID>  (1) 
DB04667

>  <COMMON_NAME>  (1) 
CHROMOPHORE (HIS-TYR-GLY)

$$$$
