
     RDKit          3D

 44 48  0  0  0  0  0  0  0  0999 V2000
    1.0142   -0.1332   -0.0497 C   0  0  0  0  0  0  0  0  0  0  0  0
    0.4175   -1.0606    1.0040 C   0  0  0  0  0  0  0  0  0  0  0  0
    0.8946   -0.6937    2.2940 O   0  0  0  0  0  0  0  0  0  0  0  0
   -1.0685   -1.0818    1.0346 C   0  0  0  0  0  0  0  0  0  0  0  0
   -1.9051   -2.1343    0.9977 C   0  0  0  0  0  0  0  0  0  0  0  0
   -1.4843   -3.5736    0.9584 C   0  0  0  0  0  0  0  0  0  0  0  0
   -3.2819   -1.6577    1.0043 C   0  0  0  0  0  0  0  0  0  0  0  0
   -4.3647   -2.4313    1.0098 C   0  0  0  0  0  0  0  0  0  0  0  0
   -5.7330   -2.0589    1.0013 C   0  0  0  0  0  0  0  0  0  0  0  0
   -6.8542   -2.8816    1.0026 C   0  0  0  0  0  0  0  0  0  0  0  0
   -6.8658   -4.3795    1.0006 C   0  0  0  0  0  0  0  0  0  0  0  0
   -6.2002   -4.9488   -0.2466 C   0  0  0  0  0  0  0  0  0  0  0  0
   -6.2539   -4.9285    2.1679 O   0  0  0  0  0  0  0  0  0  0  0  0
   -7.9981   -2.0390    0.9512 C   0  0  0  0  0  0  0  0  0  0  0  0
   -9.4302   -2.4416    0.9237 C   0  0  0  0  0  0  0  0  0  0  0  0
   -7.5452   -0.7342    0.9177 C   0  0  0  0  0  0  0  0  0  0  0  0
   -6.1695   -0.7519    0.9541 N   0  0  0  0  0  0  0  0  0  0  0  0
   -8.3236    0.4429    0.8515 C   0  0  0  0  0  0  0  0  0  0  0  0
   -7.9047    1.7061    0.8930 C   0  0  0  0  0  0  0  0  0  0  0  0
   -6.6034    2.1027    1.0131 N   0  0  0  0  0  0  0  0  0  0  0  0
   -6.6484    3.4016    1.0216 C   0  0  0  0  0  0  0  0  0  0  0  0
   -5.4678    4.2479    1.2875 C   0  0  0  0  0  0  0  0  0  0  0  0
   -4.2022    3.8196    1.1546 C   0  0  0  0  0  0  0  0  0  0  0  0
   -3.7115    2.5570    0.9702 N   0  0  0  0  0  0  0  0  0  0  0  0
   -2.3511    2.4914    1.1018 C   0  0  0  0  0  0  0  0  0  0  0  0
   -1.5505    1.4256    1.1816 C   0  0  0  0  0  0  0  0  0  0  0  0
   -2.0296    0.0426    1.0749 C   0  0  0  0  0  0  0  0  0  0  0  0
   -3.2839   -0.2949    1.0305 N   0  0  0  0  0  0  0  0  0  0  0  0
   -1.9048    3.8831    1.1805 C   0  0  0  0  0  0  0  0  0  0  0  0
   -0.4732    4.3089    1.2148 C   0  0  0  0  0  0  0  0  0  0  0  0
   -3.0062    4.6761    1.1693 C   0  0  0  0  0  0  0  0  0  0  0  0
   -3.0527    6.1716    1.1084 C   0  0  0  0  0  0  0  0  0  0  0  0
   -3.5922    6.7793   -0.2011 C   0  0  0  0  0  0  0  0  0  0  0  0
   -4.9919    6.4165   -0.6521 C   0  0  0  0  0  0  0  0  0  0  0  0
   -5.9443    7.3374   -0.3759 O   0  0  0  0  0  0  0  0  0  0  0  0
   -5.2829    5.3842   -1.2287 O   0  0  0  0  0  0  0  0  0  0  0  0
   -8.0138    3.9860    0.8393 C   0  0  0  0  0  0  0  0  0  0  0  0
   -8.4417    5.4129    0.7314 C   0  0  0  0  0  0  0  0  0  0  0  0
   -9.0718    5.8307   -0.6137 C   0  0  0  0  0  0  0  0  0  0  0  0
  -10.2187    5.0033   -1.1261 C   0  0  0  0  0  0  0  0  0  0  0  0
  -11.4568    5.4687   -0.8621 O   0  0  0  0  0  0  0  0  0  0  0  0
  -10.0594    3.9537   -1.7503 O   0  0  0  0  0  0  0  0  0  0  0  0
   -8.7704    2.8738    0.8756 C   0  0  0  0  0  0  0  0  0  0  0  0
  -10.2717    2.7773    0.9862 C   0  0  0  0  0  0  0  0  0  0  0  0
  1  2  1  0
  2  3  1  0
  2  4  1  0
  4  5  2  0
  4 27  1  0
  5  6  1  0
  5  7  1  0
  7  8  2  0
  7 28  1  0
  8  9  1  0
  9 10  2  0
  9 17  1  0
 10 11  1  0
 10 14  1  0
 11 12  1  0
 11 13  1  0
 14 15  1  0
 14 16  2  0
 16 17  1  0
 16 18  1  0
 18 19  2  0
 19 20  1  0
 19 43  1  0
 20 21  2  0
 21 22  1  0
 21 37  1  0
 22 23  2  0
 23 24  1  0
 23 31  1  0
 24 25  1  0
 25 26  2  0
 25 29  1  0
 26 27  1  0
 27 28  2  0
 29 30  1  0
 29 31  2  0
 31 32  1  0
 32 33  1  0
 33 34  1  0
 34 35  1  0
 34 36  2  0
 37 38  1  0
 37 43  2  0
 38 39  1  0
 39 40  1  0
 40 41  1  0
 40 42  2  0
 43 44  1  0
M  END
>  <DRUGBANK_ID>  (1) 
DB16183

>  <COMMON_NAME>  (1) 
Hemoporfin

>  <CAS_NUMBER>  (1) 
14459-29-1

>  <UNII>  (1) 
HBT6M5H379

>  <SYNONYMS>  (1) 
Haematoporphyrin; Hematoporphyrin; Hematoporphyrin ix; Hemoporfin; Photodyn

$$$$
