
     RDKit          3D

 33 34  0  0  0  0  0  0  0  0999 V2000
   -0.0051   -1.8196    0.3287 C   0  0  0  0  0  0  0  0  0  0  0  0
   -0.0188   -2.8086    1.6357 C   0  0  0  0  0  0  0  0  0  0  0  0
   -1.4000   -1.1205    0.1514 C   0  0  0  0  0  0  0  0  0  0  0  0
    1.2770   -0.8543    0.1161 C   0  0  0  0  0  0  0  0  0  0  0  0
   -1.0807   -3.7139    1.9678 C   0  0  0  0  0  0  0  0  0  0  0  0
    1.1254   -3.0634    2.3481 C   0  0  0  0  0  0  0  0  0  0  0  0
   -1.4414    0.2204   -0.0108 C   0  0  0  0  0  0  0  0  0  0  0  0
   -2.7247   -1.8027    0.2000 C   0  0  0  0  0  0  0  0  0  0  0  0
    0.9488    0.4680    0.0754 C   0  0  0  0  0  0  0  0  0  0  0  0
    2.6356   -1.6559    0.0098 C   0  0  0  0  0  0  0  0  0  0  0  0
   -0.8781   -5.0398    2.3622 C   0  0  0  0  0  0  0  0  0  0  0  0
    1.3113   -4.3571    2.9238 C   0  0  0  0  0  0  0  0  0  0  0  0
   -0.2942    0.8895   -0.2318 N   0  0  0  0  0  0  0  0  0  0  0  0
   -2.5525    1.2286    0.0702 C   0  0  0  0  0  0  0  0  0  0  0  0
   -2.9286   -3.0110   -0.4109 O   0  0  0  0  0  0  0  0  0  0  0  0
   -3.6876   -1.2620    0.7398 O   0  0  0  0  0  0  0  0  0  0  0  0
    1.7148    1.7148    0.2520 C   0  0  0  0  0  0  0  0  0  0  0  0
    3.8939   -1.1538    0.2133 O   0  0  0  0  0  0  0  0  0  0  0  0
    2.5934   -2.8742   -0.1943 O   0  0  0  0  0  0  0  0  0  0  0  0
    0.3301   -5.3502    2.9058 C   0  0  0  0  0  0  0  0  0  0  0  0
   -1.9064   -3.9802   -0.6363 C   0  0  0  0  0  0  0  0  0  0  0  0
    4.2608    0.2154    0.1220 C   0  0  0  0  0  0  0  0  0  0  0  0
   -1.1340   -3.8630   -1.8929 C   0  0  0  0  0  0  0  0  0  0  0  0
    3.8814    0.6926   -1.2943 C   0  0  0  0  0  0  0  0  0  0  0  0
    1.9597   -1.8912    2.6259 C   0  0  0  0  0  0  0  0  0  0  0  0
    3.1431   -2.0042    3.1731 C   0  0  0  0  0  0  0  0  0  0  0  0
    4.0661   -0.8897    3.4410 C   0  0  0  0  0  0  0  0  0  0  0  0
    5.1484   -1.2221    4.1856 O   0  0  0  0  0  0  0  0  0  0  0  0
    3.8772    0.2342    3.0696 O   0  0  0  0  0  0  0  0  0  0  0  0
    5.2201   -2.4377    4.9543 C   0  0  0  0  0  0  0  0  0  0  0  0
    3.9850   -2.5794    5.8800 C   0  0  0  0  0  0  0  0  0  0  0  0
    5.5344   -3.6264    4.0204 C   0  0  0  0  0  0  0  0  0  0  0  0
    6.4313   -2.2442    5.8641 C   0  0  0  0  0  0  0  0  0  0  0  0
  1  2  1  0
  1  3  1  0
  1  4  1  0
  2  5  2  0
  2  6  1  0
  3  7  2  0
  3  8  1  0
  4  9  2  0
  4 10  1  0
  5 11  1  0
  6 12  2  0
  6 25  1  0
  7 13  1  0
  7 14  1  0
  8 15  1  0
  8 16  2  0
  9 17  1  0
  9 13  1  0
 10 18  1  0
 10 19  2  0
 11 20  2  0
 12 20  1  0
 15 21  1  0
 18 22  1  0
 21 23  1  0
 22 24  1  0
 25 26  2  0
 26 27  1  0
 27 28  1  0
 27 29  2  0
 28 30  1  0
 30 31  1  0
 30 32  1  0
 30 33  1  0
M  END
>  <DRUGBANK_ID>  (1) 
DB09236

>  <COMMON_NAME>  (1) 
Lacidipine

>  <CAS_NUMBER>  (1) 
103890-78-4

>  <UNII>  (1) 
260080034N

>  <SYNONYMS>  (1) 
Lacidipine; Lacidipino

$$$$
