3516
     RDKit          3D

 10 10  0  0  0  0  0  0  0  0999 V2000
    1.0015    1.9603   -0.0329 O   0  0  0  0  0  0  0  0  0  0  0  0
   -3.0813   -0.0035    0.0338 O   0  0  0  0  0  0  0  0  0  0  0  0
   -1.0334    0.9735    0.0050 N   0  0  0  0  0  0  0  0  0  0  0  0
   -1.2347   -1.3293   -0.0494 N   0  0  0  0  0  0  0  0  0  0  0  0
    0.9529   -0.4261   -0.0147 C   0  0  0  0  0  0  0  0  0  0  0  0
    0.3329    0.9308   -0.0134 C   0  0  0  0  0  0  0  0  0  0  0  0
    0.1290   -1.4826   -0.0507 C   0  0  0  0  0  0  0  0  0  0  0  0
   -1.8609   -0.1115   -0.0005 C   0  0  0  0  0  0  0  0  0  0  0  0
    2.3694   -0.5509    0.0151 C   0  0  0  0  0  0  0  0  0  0  0  0
    3.5685   -0.5583    0.0485 C   0  0  0  0  0  0  0  0  0  0  0  0
  1  6  2  0
  2  8  2  0
  3  6  1  0
  3  8  1  0
  4  7  1  0
  4  8  1  0
  5  6  1  0
  5  7  2  0
  5  9  1  0
  9 10  3  0
M  END
>  <DRUGBANK_ID>  (1) 
DB03516

>  <SECONDARY_ACCESSION_NUMBERS>  (1) 
EXPT03299

>  <COMMON_NAME>  (1) 
Eniluracil

>  <CAS_NUMBER>  (1) 
59989-18-3

>  <UNII>  (1) 
2E2W0W5XIU

>  <SYNONYMS>  (1) 
5-Ethynyluracil; Eniluracil

$$$$
