
     RDKit          3D

 24 27  0  0  0  0  0  0  0  0999 V2000
    0.9476   -0.1371    0.0313 S   0  0  0  0  0  0  0  0  0  0  0  0
    6.9101    0.1374    0.1444 O   0  0  0  0  0  0  0  0  0  0  0  0
    5.1075   -3.5197   -0.1888 O   0  0  0  0  0  0  0  0  0  0  0  0
    0.5624    0.4968    1.2755 O   0  0  0  0  0  0  0  0  0  0  0  0
    0.4820    0.4105   -1.2288 O   0  0  0  0  0  0  0  0  0  0  0  0
    0.3469   -1.7030    0.1150 N   0  0  0  0  0  0  0  0  0  0  0  0
    1.0568   -3.8147   -0.7255 N   0  0  0  0  0  0  0  0  0  0  0  0
    1.9545   -3.1388    1.2322 N   0  0  0  0  0  0  0  0  0  0  0  0
    2.0529   -4.6133   -0.2760 N   0  0  0  0  0  0  0  0  0  0  0  0
    2.5602   -4.2754    0.9159 N   0  0  0  0  0  0  0  0  0  0  0  0
    4.8865   -1.1622   -0.0404 C   0  0  0  0  0  0  0  0  0  0  0  0
    2.7319   -0.0504   -0.0607 C   0  0  0  0  0  0  0  0  0  0  0  0
    5.5450    0.0456    0.0713 C   0  0  0  0  0  0  0  0  0  0  0  0
    3.5114   -1.1839   -0.2052 C   0  0  0  0  0  0  0  0  0  0  0  0
    7.0837   -2.3115    0.1528 C   0  0  0  0  0  0  0  0  0  0  0  0
    5.6429   -2.4222   -0.0297 C   0  0  0  0  0  0  0  0  0  0  0  0
    7.6339   -1.0322    0.2119 C   0  0  0  0  0  0  0  0  0  0  0  0
    3.3872    1.1865    0.0249 C   0  0  0  0  0  0  0  0  0  0  0  0
    4.7968    1.2291    0.0529 C   0  0  0  0  0  0  0  0  0  0  0  0
    7.8844   -3.4566    0.2364 C   0  0  0  0  0  0  0  0  0  0  0  0
    9.0106   -0.8975    0.3453 C   0  0  0  0  0  0  0  0  0  0  0  0
    9.2607   -3.3111    0.3798 C   0  0  0  0  0  0  0  0  0  0  0  0
    9.8206   -2.0327    0.4349 C   0  0  0  0  0  0  0  0  0  0  0  0
    1.0803   -2.8601    0.2164 C   0  0  0  0  0  0  0  0  0  0  0  0
  1  4  2  0
  1  5  2  0
  1  6  1  0
  1 12  1  0
  2 13  1  0
  2 17  1  0
  3 16  2  0
  6 24  1  0
  7  9  1  0
  7 24  2  0
  8 10  2  0
  8 24  1  0
  9 10  1  0
 11 13  2  0
 11 14  1  0
 11 16  1  0
 12 14  2  0
 12 18  1  0
 13 19  1  0
 15 16  1  0
 15 17  2  0
 15 20  1  0
 17 21  1  0
 18 19  2  0
 20 22  2  0
 21 23  2  0
 22 23  1  0
M  END
>  <DRUGBANK_ID>  (1) 
DB04698

>  <COMMON_NAME>  (1) 
N-(1,4-dihydro-5H-tetrazol-5-ylidene)-9-oxo-9H-xanthene-2-sulfonamide

>  <CAS_NUMBER>  (1) 
353522-10-8

>  <SYNONYMS>  (1) 
9-Oxo-N-(2H-tetrazol-5-yl)-9H-xanthene-2-sulfonamide

$$$$
