
     RDKit          3D

 33 33  0  0  0  0  0  0  0  0999 V2000
    1.1659   -0.1559   -0.1117 C   0  0  0  0  0  0  0  0  0  0  0  0
    0.6265   -0.8467   -0.9606 O   0  0  0  0  0  0  0  0  0  0  0  0
    0.4007    0.7235    0.8263 C   0  0  0  0  0  0  0  0  0  0  0  0
    2.5060   -0.0993    0.0484 O   0  0  0  0  0  0  0  0  0  0  0  0
   -0.5036    1.5556    0.0579 N   0  0  0  0  0  0  0  0  0  0  0  0
   -1.8719    1.3026    0.0083 C   0  0  0  0  0  0  0  0  0  0  0  0
   -2.6696    2.3964   -0.7284 C   0  0  1  0  0  0  0  0  0  0  0  0
   -2.4078    0.3540    0.5781 O   0  0  0  0  0  0  0  0  0  0  0  0
   -4.0045    1.9335   -1.1930 N   0  0  0  0  0  0  0  0  0  0  0  0
   -1.2573    4.2860    1.0225 S   0  0  0  0  0  0  0  0  0  0  0  0
   -2.7634    3.6779    0.0121 C   0  0  0  0  0  0  0  0  0  0  0  0
   -1.5071    1.9855    2.6108 N   0  0  0  0  0  0  0  0  0  0  0  0
   -0.9915    3.2138    2.5455 C   0  0  0  0  0  0  0  0  0  0  0  0
   -0.0637    3.6321    3.3920 N   0  0  0  0  0  0  0  0  0  0  0  0
    0.3900    2.7007    4.2310 C   0  0  0  0  0  0  0  0  0  0  0  0
   -0.0009    1.4322    4.2643 N   0  0  0  0  0  0  0  0  0  0  0  0
   -0.9850    1.1047    3.4748 C   0  0  0  0  0  0  0  0  0  0  0  0
    1.4300    3.0512    5.0428 N   0  0  0  0  0  0  0  0  0  0  0  0
    2.2082    2.0432    5.7218 C   0  0  0  0  0  0  0  0  0  0  0  0
    3.6455    2.1044    5.2435 C   0  0  0  0  0  0  0  0  0  0  0  0
   -1.4616   -0.1922    3.4444 N   0  0  0  0  0  0  0  0  0  0  0  0
   -0.7188   -1.3293    3.9887 C   0  0  0  0  0  0  0  0  0  0  0  0
   -1.6086   -2.0632    4.9867 C   0  0  0  0  0  0  0  0  0  0  0  0
   -0.2597   -2.3258    2.9144 C   0  0  0  0  0  0  0  0  0  0  0  0
   -5.3199    2.0562   -0.8272 C   0  0  0  0  0  0  0  0  0  0  0  0
   -3.8983    4.5684    2.4649 C   0  0  0  0  0  0  0  0  0  0  0  0
   -6.1134    1.4905   -1.5971 O   0  0  0  0  0  0  0  0  0  0  0  0
   -5.9285    2.9238    0.3278 C   0  0  0  0  0  0  0  0  0  0  0  0
   -3.1853    5.0447    3.3792 O   0  0  0  0  0  0  0  0  0  0  0  0
   -5.6691    2.5990    1.8188 C   0  0  0  0  0  0  0  0  0  0  0  0
   -4.2977    2.9338    2.3580 C   0  0  2  0  0  0  0  0  0  0  0  0
   -4.1442    5.3477    1.3652 O   0  0  0  0  0  0  0  0  0  0  0  0
   -4.0041    2.2878    3.6481 N   0  0  0  0  0  0  0  0  0  0  0  0
  2  1  2  0
  3  1  1  0
  4  1  1  0
  5  3  1  0
  6  5  1  0
  7  6  1  0
  7  9  1  0
  8  6  2  0
  7 11  1  1
 11 10  1  0
 13 10  1  0
 13 12  2  0
 14 13  1  0
 15 14  2  0
 16 15  1  0
 17 12  1  0
 17 16  2  0
 18 15  1  0
 19 18  1  0
 20 19  1  0
 21 17  1  0
 22 21  1  0
 23 22  1  0
 24 22  1  0
 25  9  1  0
 27 25  2  0
 28 25  1  0
 29 26  2  0
 30 28  1  0
 31 26  1  0
 31 30  1  0
 31 33  1  1
 32 26  1  0
M  END
>  <DRUGBANK_ID>  (1) 
DB02146

>  <SECONDARY_ACCESSION_NUMBERS>  (1) 
EXPT00579

>  <COMMON_NAME>  (1) 
Glutathione S-atrazine

>  <CAS_NUMBER>  (1) 
24429-05-8

>  <SYNONYMS>  (1) 
Atrazine glutathione conjugate

$$$$
