HPO
     RDKit          3D

 12 11  0  0  0  0  0  0  0  0999 V2000
    1.0954   -0.0805   -0.0094 C   0  0  0  0  0  0  0  0  0  0  0  0
    0.6490   -0.5856    1.3516 C   0  0  0  0  0  0  0  0  0  0  0  0
    1.1636    0.3335    2.4609 C   0  0  0  0  0  0  0  0  0  0  0  0
    0.5830    1.7521    2.3749 C   0  0  0  0  0  0  0  0  0  0  0  0
   -0.9400    1.7707    2.4021 C   0  0  0  0  0  0  0  0  0  0  0  0
   -1.4230    1.2324    3.7306 C   0  0  0  0  0  0  0  0  0  0  0  0
   -2.3269    2.0818    4.5347 C   0  0  0  0  0  0  0  0  0  0  0  0
   -1.1116    0.1200    4.1828 O   0  0  0  0  0  0  0  0  0  0  0  0
   -3.9433    1.2628    4.7905 P   0  0  0  0  0  0  0  0  0  0  0  0
   -3.8514    0.5220    3.4627 O   0  0  0  0  0  0  0  0  0  0  0  0
   -3.3703    0.4396    6.0760 O   0  0  0  0  0  0  0  0  0  0  0  0
   -5.4713    0.4886    5.0323 O   0  0  0  0  0  0  0  0  0  0  0  0
  1  2  1  0
  2  3  1  0
  3  4  1  0
  4  5  1  0
  5  6  1  0
  6  7  1  0
  6  8  2  0
  7  9  1  0
  9 10  2  0
  9 11  1  0
  9 12  1  0
M  END
>  <DRUGBANK_ID>  (1) 
DB07912

>  <COMMON_NAME>  (1) 
2-OXOHEPTYLPHOSPHONIC ACID

>  <UNII>  (1) 
E9NR6YG6JA

$$$$
