
     RDKit          3D

  6  5  0  0  0  0  0  0  0  0999 V2000
    0.9596   -0.0522   -0.0751 O   0  0  0  0  0  0  0  0  0  0  0  0
    2.6896   -0.0522   -0.0751 P   0  0  0  0  0  0  0  0  0  0  0  0
    2.8114   -0.2268    1.4627 O   0  0  0  0  0  0  0  0  0  0  0  0
    2.8388   -1.2602   -1.0362 O   0  0  0  0  0  0  0  0  0  0  0  0
    4.5196   -0.0522   -0.0751 C   0  0  0  0  0  0  0  0  0  0  0  0
    5.2575    1.2727    0.9388 S   0  0  0  0  0  0  0  0  0  0  0  0
  1  2  1  0
  2  3  1  0
  2  4  2  0
  2  5  1  0
  5  6  1  0
M  CHG  2   1  -1   3  -1
M  END
>  <DRUGBANK_ID>  (1) 
DB03498

>  <SECONDARY_ACCESSION_NUMBERS>  (1) 
EXPT02199

>  <COMMON_NAME>  (1) 
Mercaptomethyl Phosphonate

$$$$
