
     RDKit          3D

 30 33  0  0  0  0  0  0  0  0999 V2000
    2.3745    0.6745   -0.0117 C   0  0  0  0  0  0  0  0  0  0  0  0
    1.0264    0.1714    0.0866 N   0  0  0  0  0  0  0  0  0  0  0  0
    0.6876   -1.1274    0.2743 C   0  0  0  0  0  0  0  0  0  0  0  0
   -0.6880   -1.2095    0.1447 C   0  0  0  0  0  0  0  0  0  0  0  0
   -1.5513   -2.4369    0.0560 C   0  0  0  0  0  0  0  0  0  0  0  0
   -1.2574   -3.2250   -1.1556 N   0  0  0  0  0  0  0  0  0  0  0  0
   -1.5292   -2.4667   -2.3845 C   0  0  0  0  0  0  0  0  0  0  0  0
   -1.1823   -3.2751   -3.6276 C   0  0  0  0  0  0  0  0  0  0  0  0
    0.2652   -3.8003   -3.5572 C   0  0  0  0  0  0  0  0  0  0  0  0
    0.5014   -4.5460   -2.2557 C   0  0  0  0  0  0  0  0  0  0  0  0
    0.1220   -3.6976   -1.1000 C   0  0  0  0  0  0  0  0  0  0  0  0
    0.5781   -4.7252   -4.6949 C   0  0  0  0  0  0  0  0  0  0  0  0
    0.3520   -4.2570   -5.9649 C   0  0  0  0  0  0  0  0  0  0  0  0
    0.3723   -5.1744   -6.9864 C   0  0  0  0  0  0  0  0  0  0  0  0
    0.9554   -6.4384   -6.8788 C   0  0  0  0  0  0  0  0  0  0  0  0
    1.2689   -6.8845   -5.6037 C   0  0  0  0  0  0  0  0  0  0  0  0
    0.9945   -6.0604   -4.5218 C   0  0  0  0  0  0  0  0  0  0  0  0
    1.1701   -7.3617   -8.0398 C   0  0  0  0  0  0  0  0  0  0  0  0
    1.4682   -8.5277   -7.8152 O   0  0  0  0  0  0  0  0  0  0  0  0
    0.9596   -6.9637   -9.3547 N   0  0  0  0  0  0  0  0  0  0  0  0
    0.7240   -5.6786   -9.8793 C   0  0  0  0  0  0  0  0  0  0  0  0
    1.5096   -4.5887   -9.4598 C   0  0  0  0  0  0  0  0  0  0  0  0
    1.0879   -3.2839   -9.7089 C   0  0  0  0  0  0  0  0  0  0  0  0
    0.0001   -3.0685  -10.5457 C   0  0  0  0  0  0  0  0  0  0  0  0
   -0.6817   -4.1567  -11.1063 C   0  0  0  0  0  0  0  0  0  0  0  0
   -0.4032   -5.4681  -10.6990 C   0  0  0  0  0  0  0  0  0  0  0  0
   -1.1772   -6.5345  -11.1938 N   0  0  0  0  0  0  0  0  0  0  0  0
   -1.0881    0.1494    0.0492 C   0  0  0  0  0  0  0  0  0  0  0  0
   -2.4689    0.6821   -0.0239 C   0  0  0  0  0  0  0  0  0  0  0  0
   -0.0372    0.9850    0.0055 N   0  0  0  0  0  0  0  0  0  0  0  0
  1  2  1  0
  2  3  1  0
  2 30  1  0
  3  4  2  0
  4  5  1  0
  4 28  1  0
  5  6  1  0
  6  7  1  0
  6 11  1  0
  7  8  1  0
  8  9  1  0
  9 10  1  0
  9 12  1  0
 10 11  1  0
 12 13  2  0
 12 17  1  0
 13 14  1  0
 14 15  2  0
 15 16  1  0
 15 18  1  0
 16 17  2  0
 18 19  2  0
 18 20  1  0
 20 21  1  0
 21 22  2  0
 21 26  1  0
 22 23  1  0
 23 24  2  0
 24 25  1  0
 25 26  2  0
 26 27  1  0
 28 29  1  0
 28 30  2  0
M  END
>  <DRUGBANK_ID>  (1) 
DB16182

>  <COMMON_NAME>  (1) 
CXD101

>  <CAS_NUMBER>  (1) 
934828-12-3

>  <UNII>  (1) 
5TNV87ICD2

>  <SYNONYMS>  (1) 
Hdac inhibitor cxd101; Hdac-in-4

$$$$
