1478
     RDKit          3D

 18 19  0  0  0  0  0  0  0  0999 V2000
    1.2019    0.0602   -0.0854 O   0  0  0  0  0  0  0  0  0  0  0  0
    3.0217   -0.9422    0.7163 O   0  0  0  0  0  0  0  0  0  0  0  0
   -1.3515   -1.1280   -2.0249 N   0  0  0  0  0  0  0  0  0  0  0  0
    0.2520    0.9948   -0.7451 C   0  0  0  0  0  0  0  0  0  0  0  0
   -1.1050    0.5353   -0.1469 C   0  0  0  0  0  0  0  0  0  0  0  0
    0.0574    0.7442   -2.2693 C   0  0  0  0  0  0  0  0  0  0  0  0
   -1.3976   -0.9333   -0.5640 C   0  0  0  0  0  0  0  0  0  0  0  0
   -0.0664   -0.7190   -2.5653 C   0  0  0  0  0  0  0  0  0  0  0  0
    0.6282    2.4422   -0.4238 C   0  0  0  0  0  0  0  0  0  0  0  0
   -1.5726   -2.5158   -2.4043 C   0  0  0  0  0  0  0  0  0  0  0  0
    0.7955    2.8816    0.8978 C   0  0  0  0  0  0  0  0  0  0  0  0
    1.0210    3.3211   -1.4568 C   0  0  0  0  0  0  0  0  0  0  0  0
    2.5412   -0.0392    0.0517 C   0  0  0  0  0  0  0  0  0  0  0  0
    1.3826    4.1267    1.1579 C   0  0  0  0  0  0  0  0  0  0  0  0
    1.6889    4.5103   -1.1973 C   0  0  0  0  0  0  0  0  0  0  0  0
    3.4313    0.9716   -0.6178 C   0  0  0  0  0  0  0  0  0  0  0  0
    1.8423    4.9295    0.1126 C   0  0  0  0  0  0  0  0  0  0  0  0
    3.2797    0.9287   -2.1095 C   0  0  0  0  0  0  0  0  0  0  0  0
  1  4  1  0
  1 13  1  0
  2 13  2  0
  3  7  1  0
  3  8  1  0
  3 10  1  0
  4  5  1  0
  4  6  1  0
  4  9  1  0
  5  7  1  0
  6  8  1  0
  9 11  2  0
  9 12  1  0
 11 14  1  0
 12 15  2  0
 13 16  1  0
 14 17  2  0
 15 17  1  0
 16 18  1  0
M  END
>  <DRUGBANK_ID>  (1) 
DB01478

>  <COMMON_NAME>  (1) 
Desmethylprodine

>  <CAS_NUMBER>  (1) 
13147-09-6

>  <UNII>  (1) 
07SGC963IR

>  <SYNONYMS>  (1) 
1-Methyl-4-phenyl-4-piperidinol propionate; 1-Methyl-4-phenyl-4-propionoxypiperidine; 3-Demethylprodine; MPPP

$$$$
