405
     RDKit          3D

 19 20  0  0  1  0  0  0  0  0999 V2000
    7.1692    3.1580   -4.7264 Br  0  0  0  0  0  0  0  0  0  0  0  0
    3.1130   -1.8979    1.8447 N   0  0  0  0  0  0  0  0  0  0  0  0
    6.0568    1.8281    1.3121 N   0  0  0  0  0  0  0  0  0  0  0  0
    4.5419    0.2618    0.0773 C   0  0  1  0  0  0  0  0  0  0  0  0
    3.0264   -0.0337    0.0665 C   0  0  0  0  0  0  0  0  0  0  0  0
    2.6379   -1.4617    0.5254 C   0  0  0  0  0  0  0  0  0  0  0  0
    5.1309    0.8786   -1.1900 C   0  0  0  0  0  0  0  0  0  0  0  0
    5.0034    0.9878    1.3829 C   0  0  0  0  0  0  0  0  0  0  0  0
    6.5316    0.8155   -1.3717 C   0  0  0  0  0  0  0  0  0  0  0  0
    4.3569    1.5241   -2.1538 C   0  0  0  0  0  0  0  0  0  0  0  0
    4.4736    0.6673    2.6423 C   0  0  0  0  0  0  0  0  0  0  0  0
    2.3662   -3.0494    2.3392 C   0  0  0  0  0  0  0  0  0  0  0  0
    4.5356   -2.2539    1.9356 C   0  0  0  0  0  0  0  0  0  0  0  0
    7.1471    1.4925   -2.4180 C   0  0  0  0  0  0  0  0  0  0  0  0
    4.9681    2.1651   -3.2264 C   0  0  0  0  0  0  0  0  0  0  0  0
    5.1515    1.0142    3.8093 C   0  0  0  0  0  0  0  0  0  0  0  0
    6.3568    2.1748   -3.3353 C   0  0  0  0  0  0  0  0  0  0  0  0
    6.6047    2.2897    2.4630 C   0  0  0  0  0  0  0  0  0  0  0  0
    6.2212    1.8676    3.7227 C   0  0  0  0  0  0  0  0  0  0  0  0
  1 17  1  0
  2  6  1  0
  2 12  1  0
  2 13  1  0
  3  8  2  0
  3 18  1  0
  4  8  1  0
  4  7  1  0
  4  5  1  6
  5  6  1  0
  7  9  2  0
  7 10  1  0
  8 11  1  0
  9 14  1  0
 10 15  2  0
 11 16  2  0
 14 17  2  0
 15 17  1  0
 16 19  1  0
 18 19  2  0
M  END
>  <DRUGBANK_ID>  (1) 
DB00405

>  <SECONDARY_ACCESSION_NUMBERS>  (1) 
APRD00770

>  <COMMON_NAME>  (1) 
Dexbrompheniramine

>  <CAS_NUMBER>  (1) 
132-21-8

>  <UNII>  (1) 
75T64B71RP

>  <SYNONYMS>  (1) 
(+)-brompheniraminum; (R)-3-(4-Bromophenyl)-3-(2-pyridyl)propyldimethylamine; (S)-(+)-brompheniramine; (S)-brompheniramine; 3-(4-bromophenyl)- N,N-dimethyl- 3-pyridin-2-yl-propan-1-amine; d-brompheniramine; Desbrofeniramina; Dexbromfeniramina; Dexbrompheniramin; Dexbromph√©niramine; Dexbrompheniramine; Dexbrompheniraminum

$$$$
