
     RDKit          3D

 18 19  0  0  0  0  0  0  0  0999 V2000
    1.0723    0.0199    0.0476 C   0  0  0  0  0  0  0  0  0  0  0  0
    0.5742   -0.6478   -1.1062 O   0  0  0  0  0  0  0  0  0  0  0  0
    0.8032   -2.0005   -1.1658 C   0  0  0  0  0  0  0  0  0  0  0  0
    1.3046   -2.7826   -0.1236 C   0  0  0  0  0  0  0  0  0  0  0  0
    1.4888   -4.1555   -0.2981 C   0  0  0  0  0  0  0  0  0  0  0  0
    1.1789   -4.7570   -1.5200 C   0  0  0  0  0  0  0  0  0  0  0  0
    0.6703   -3.9840   -2.5738 C   0  0  0  0  0  0  0  0  0  0  0  0
    0.3609   -4.6676   -3.8519 C   0  0  0  0  0  0  0  0  0  0  0  0
   -0.1186   -4.0277   -4.8699 N   0  0  0  0  0  0  0  0  0  0  0  0
   -0.4003   -4.6879   -6.0636 C   0  0  0  0  0  0  0  0  0  0  0  0
   -1.1140   -5.8851   -6.1159 C   0  0  0  0  0  0  0  0  0  0  0  0
   -1.4026   -6.4829   -7.3429 C   0  0  0  0  0  0  0  0  0  0  0  0
   -1.0001   -5.8784   -8.5392 C   0  0  0  0  0  0  0  0  0  0  0  0
   -1.2909   -6.5284   -9.8574 C   0  0  0  0  0  0  0  0  0  0  0  0
   -0.3197   -4.6569   -8.4908 C   0  0  0  0  0  0  0  0  0  0  0  0
   -0.0293   -4.0670   -7.2594 C   0  0  0  0  0  0  0  0  0  0  0  0
    0.4794   -2.6090   -2.3866 C   0  0  0  0  0  0  0  0  0  0  0  0
   -0.0220   -1.8220   -3.3911 O   0  0  0  0  0  0  0  0  0  0  0  0
  1  2  1  0
  2  3  1  0
  3  4  2  0
  3 17  1  0
  4  5  1  0
  5  6  2  0
  6  7  1  0
  7  8  1  0
  7 17  2  0
  8  9  2  0
  9 10  1  0
 10 11  2  0
 10 16  1  0
 11 12  1  0
 12 13  2  0
 13 14  1  0
 13 15  1  0
 15 16  2  0
 17 18  1  0
M  END
>  <DRUGBANK_ID>  (1) 
DB13869

>  <COMMON_NAME>  (1) 
2-Methoxy-6-{(E)-[(4-methylphenyl)imino]methyl}phenol

>  <CAS_NUMBER>  (1) 
20772-64-9

>  <SYNONYMS>  (1) 
2-Methoxy-6-[[(4-methylphenyl)imino]methyl]phenol; TIMBD

$$$$
