PVB
     RDKit          3D

 30 32  0  0  0  0  0  0  0  0999 V2000
   -5.2279   -3.0210    3.3298 N   0  0  0  0  0  0  0  0  0  0  0  0
   -5.2029    1.9182    1.5742 C   0  0  0  0  0  0  0  0  0  0  0  0
   -5.5996    0.9611    2.6082 N   0  0  0  0  0  0  0  0  0  0  0  0
   -5.4366   -0.4055    2.7080 C   0  0  0  0  0  0  0  0  0  0  0  0
   -4.9057   -1.2530    1.8541 N   0  0  0  0  0  0  0  0  0  0  0  0
   -4.7288   -2.5243    2.1833 C   0  0  0  0  0  0  0  0  0  0  0  0
   -5.8912   -2.1767    4.2115 C   0  0  0  0  0  0  0  0  0  0  0  0
   -5.9392   -0.7882    3.9180 C   0  0  0  0  0  0  0  0  0  0  0  0
   -6.4191    0.3265    4.5778 N   0  0  0  0  0  0  0  0  0  0  0  0
   -6.2216    1.3397    3.7687 C   0  0  0  0  0  0  0  0  0  0  0  0
   -6.4773   -2.7093    5.3743 N   0  0  0  0  0  0  0  0  0  0  0  0
   -7.1607   -1.9796    6.3589 C   0  0  0  0  0  0  0  0  0  0  0  0
   -8.2786   -1.2047    6.0305 C   0  0  0  0  0  0  0  0  0  0  0  0
   -8.8630   -0.3404    6.9627 C   0  0  0  0  0  0  0  0  0  0  0  0
   -8.3568   -0.2425    8.2704 C   0  0  0  0  0  0  0  0  0  0  0  0
   -7.2459   -1.0317    8.6038 C   0  0  0  0  0  0  0  0  0  0  0  0
   -6.4895   -1.0264   10.1614 Cl  0  0  0  0  0  0  0  0  0  0  0  0
   -6.6577   -1.8880    7.6555 C   0  0  0  0  0  0  0  0  0  0  0  0
   -9.0808    0.7146    9.1748 C   0  0  0  0  0  0  0  0  0  0  0  0
   -8.6255    0.8174   10.4458 O   0  0  0  0  0  0  0  0  0  0  0  0
  -10.0308    1.3552    8.8013 O   0  0  0  0  0  0  0  0  0  0  0  0
   -3.9977   -3.3238    1.2991 N   0  0  0  0  0  0  0  0  0  0  0  0
   -3.2936   -2.8753    0.0268 C   0  0  2  0  0  0  0  0  0  0  0  0
   -3.4385   -1.3432   -0.1983 C   0  0  0  0  0  0  0  0  0  0  0  0
   -2.6803   -0.4068    0.7636 C   0  0  0  0  0  0  0  0  0  0  0  0
   -3.6434   -0.6621   -1.5369 C   0  0  0  0  0  0  0  0  0  0  0  0
   -3.9001   -3.6052   -1.2171 C   0  0  0  0  0  0  0  0  0  0  0  0
   -3.1361   -3.4615   -2.4250 O   0  0  0  0  0  0  0  0  0  0  0  0
   -6.3836    2.6302    0.9229 C   0  0  0  0  0  0  0  0  0  0  0  0
   -4.1715    2.9413    2.0883 C   0  0  0  0  0  0  0  0  0  0  0  0
  1  6  2  0
  1  7  1  0
  2  3  1  0
  2 29  1  0
  2 30  1  0
  3  4  1  0
  3 10  1  0
  4  5  2  0
  4  8  1  0
  5  6  1  0
  6 22  1  0
  7  8  2  0
  7 11  1  0
  8  9  1  0
  9 10  2  0
 11 12  1  0
 12 13  2  0
 12 18  1  0
 13 14  1  0
 14 15  2  0
 15 16  1  0
 15 19  1  0
 16 17  1  0
 16 18  2  0
 19 20  1  0
 19 21  2  0
 23 27  1  6
 23 24  1  0
 23 22  1  0
 24 25  1  0
 24 26  1  0
 27 28  1  0
M  END
>  <DRUGBANK_ID>  (1) 
DB02733

>  <SECONDARY_ACCESSION_NUMBERS>  (1) 
EXPT02705

>  <COMMON_NAME>  (1) 
Purvalanol

$$$$
