
     RDKit          3D

 23 22  0  0  0  0  0  0  0  0999 V2000
    0.4692    0.5672   -1.2048 S   0  0  0  0  0  0  0  0  0  0  0  0
   -0.3993    0.2089    0.7079 C   0  0  0  0  0  0  0  0  0  0  0  0
   -0.3370    1.7086   -1.5465 O   0  0  0  0  0  0  0  0  0  0  0  0
   -0.1305   -0.6252   -1.8381 O   0  0  0  0  0  0  0  0  0  0  0  0
    1.9155    0.6323   -1.4039 O   0  0  0  0  0  0  0  0  0  0  0  0
   -0.8398    1.2995    1.4761 C   0  0  0  0  0  0  0  0  0  0  0  0
   -0.7479   -1.1076    1.1944 C   0  0  0  0  0  0  0  0  0  0  0  0
   -1.5020    1.0774    2.7333 C   0  0  0  0  0  0  0  0  0  0  0  0
   -1.4087   -1.3000    2.4423 C   0  0  0  0  0  0  0  0  0  0  0  0
   -1.8007   -0.2076    3.1999 C   0  0  0  0  0  0  0  0  0  0  0  0
   -2.3027   -0.4449    4.4516 O   0  0  0  0  0  0  0  0  0  0  0  0
    2.5213   -0.3931    1.1284 S   0  0  0  0  0  0  0  0  0  0  0  0
    1.8893   -0.4961    2.8184 C   0  0  0  0  0  0  0  0  0  0  0  0
    2.1539    1.0026    0.9163 O   0  0  0  0  0  0  0  0  0  0  0  0
    1.7259   -1.4123    0.4239 O   0  0  0  0  0  0  0  0  0  0  0  0
    3.9376   -0.6946    1.2248 O   0  0  0  0  0  0  0  0  0  0  0  0
    1.4815    0.7100    3.4407 C   0  0  0  0  0  0  0  0  0  0  0  0
    1.4633   -1.7151    3.3261 C   0  0  0  0  0  0  0  0  0  0  0  0
    0.8236    0.7017    4.6630 C   0  0  0  0  0  0  0  0  0  0  0  0
    0.8141   -1.7237    4.5617 C   0  0  0  0  0  0  0  0  0  0  0  0
    0.5459   -0.5279    5.2413 C   0  0  0  0  0  0  0  0  0  0  0  0
   -0.2548   -0.6107    6.3477 O   0  0  0  0  0  0  0  0  0  0  0  0
   -1.7799   -0.9199   -1.1842 Zn  0  0  0  0  0 15  0  0  0  0  0  0
  1  2  1  0
  1  3  2  0
  1  4  2  0
  1  5  1  0
  2  6  2  0
  2  7  1  0
  6  8  1  0
  7  9  2  0
  8 10  2  0
  9 10  1  0
 10 11  1  0
 12 13  1  0
 12 14  2  0
 12 15  2  0
 12 16  1  0
 13 17  2  0
 13 18  1  0
 17 19  1  0
 18 20  2  0
 19 21  2  0
 20 21  1  0
 21 22  1  0
M  CHG  3   5  -1  16  -1  23   2
M  END
>  <DRUGBANK_ID>  (1) 
DB15793

>  <COMMON_NAME>  (1) 
Zinc phenolsulfonate

>  <CAS_NUMBER>  (1) 
127-82-2

>  <UNII>  (1) 
4O71YT5YB5

>  <SYNONYMS>  (1) 
p-hydroxybenzenesulfonic acid zinc salt; Phenozin; Zinc p-phenolsulfonate; Zinc p-phenolsulphonate; Zinc paraphenolsulfonate; Zinc paraphenolsulphonate; Zinc phenolsulfonate; Zinc phenolsulphonate; Zinc sulfocarbolate

$$$$
