256
     RDKit          3D

 14 14  0  0  0  0  0  0  0  0999 V2000
   -4.2966    2.7744    3.1613 C   0  0  0  0  0  0  0  0  0  0  0  0
   -3.4876    3.3876    2.2156 C   0  0  0  0  0  0  0  0  0  0  0  0
   -3.0137    2.6547    1.1367 C   0  0  0  0  0  0  0  0  0  0  0  0
   -3.3530    1.3014    0.9638 C   0  0  0  0  0  0  0  0  0  0  0  0
   -4.1298    0.6790    1.9537 C   0  0  0  0  0  0  0  0  0  0  0  0
   -4.6285    1.4264    3.0260 C   0  0  0  0  0  0  0  0  0  0  0  0
   -2.7844    0.5156   -0.2115 C   0  0  2  0  0  0  0  0  0  0  0  0
   -1.3070    0.2567   -0.0202 C   0  0  0  0  0  0  0  0  0  0  0  0
   -0.5547   -0.0493   -1.0989 O   0  0  0  0  0  0  0  0  0  0  0  0
   -3.1267    1.4448   -1.7182 S   0  0  0  0  0  0  0  0  0  0  0  0
   -2.5170    0.3877   -2.7892 O   0  0  0  0  0  0  0  0  0  0  0  0
   -0.7820    0.2060    1.0891 O   0  0  0  0  0  0  0  0  0  0  0  0
   -4.5539    1.5225   -1.9597 O   0  0  0  0  0  0  0  0  0  0  0  0
   -2.2706    2.5968   -1.8638 O   0  0  0  0  0  0  0  0  0  0  0  0
  1  2  2  0
  1  6  1  0
  2  3  1  0
  3  4  2  0
  4  5  1  0
  5  6  2  0
  7 10  1  0
  7  8  1  1
  7  4  1  0
  8  9  1  0
  8 12  2  0
 10 11  1  0
 10 13  2  0
 10 14  2  0
M  END
>  <DRUGBANK_ID>  (1) 
DB01866

>  <SECONDARY_ACCESSION_NUMBERS>  (1) 
EXPT00095

>  <COMMON_NAME>  (1) 
RU79256

$$$$
