VX3
     RDKit          3D

 24 27  0  0  0  0  0  0  0  0999 V2000
    0.9917    0.0393    0.0779 O   0  0  0  0  0  0  0  0  0  0  0  0
    5.6139    1.8622   -2.8964 C   0  0  0  0  0  0  0  0  0  0  0  0
    8.1817    4.4004   -3.9549 C   0  0  0  0  0  0  0  0  0  0  0  0
    2.2155    0.0399    0.0131 C   0  0  0  0  0  0  0  0  0  0  0  0
    2.9706   -0.9922    0.4355 O   0  0  0  0  0  0  0  0  0  0  0  0
    2.9671    1.1992   -0.5072 C   0  0  0  0  0  0  0  0  0  0  0  0
    4.0261    1.1128   -1.4347 C   0  0  0  0  0  0  0  0  0  0  0  0
    4.6323    0.0416   -2.0661 N   0  0  0  0  0  0  0  0  0  0  0  0
    5.5924    0.4762   -2.9572 C   0  0  0  0  0  0  0  0  0  0  0  0
    6.4084   -0.4136   -3.7799 C   0  0  0  0  0  0  0  0  0  0  0  0
    5.8357   -1.2338   -4.7571 C   0  0  0  0  0  0  0  0  0  0  0  0
    6.6559   -1.9542   -5.6311 C   0  0  0  0  0  0  0  0  0  0  0  0
    8.0443   -1.8359   -5.5503 C   0  0  0  0  0  0  0  0  0  0  0  0
    8.6175   -0.9902   -4.6052 C   0  0  0  0  0  0  0  0  0  0  0  0
    7.8041   -0.3144   -3.6993 C   0  0  0  0  0  0  0  0  0  0  0  0
    6.4609    2.7061   -3.7321 C   0  0  0  0  0  0  0  0  0  0  0  0
    7.3538    3.6136   -3.1495 C   0  0  0  0  0  0  0  0  0  0  0  0
    8.1160    4.2904   -5.3435 C   0  0  0  0  0  0  0  0  0  0  0  0
    7.1878    3.4332   -5.9304 C   0  0  0  0  0  0  0  0  0  0  0  0
    6.3781    2.6287   -5.1283 C   0  0  0  0  0  0  0  0  0  0  0  0
    4.6253    2.2671   -1.9578 C   0  0  0  0  0  0  0  0  0  0  0  0
    4.1674    3.5367   -1.5523 C   0  0  0  0  0  0  0  0  0  0  0  0
    3.1138    3.6355   -0.6492 C   0  0  0  0  0  0  0  0  0  0  0  0
    2.5210    2.4841   -0.1408 C   0  0  0  0  0  0  0  0  0  0  0  0
  1  4  2  0
  2 21  1  0
  3 17  2  0
  4  5  1  0
  6  4  1  0
  6 24  2  0
  7  6  1  0
  8  7  1  0
  9  2  2  0
  9  8  1  0
 10  9  1  0
 11 10  2  0
 12 11  1  0
 13 12  2  0
 13 14  1  0
 14 15  2  0
 15 10  1  0
 16  2  1  0
 16 17  1  0
 18  3  1  0
 19 18  2  0
 19 20  1  0
 20 16  2  0
 21  7  2  0
 21 22  1  0
 22 23  2  0
 23 24  1  0
M  END
>  <DRUGBANK_ID>  (1) 
DB08709

>  <COMMON_NAME>  (1) 
2,3-diphenyl-1H-indole-7-carboxylic acid

>  <UNII>  (1) 
5BFF2LV9EF

$$$$
