BPS
     RDKit          3D

 15 16  0  0  0  0  0  0  0  0999 V2000
    1.3453   -0.2079   -0.0480 C   0  0  0  0  0  0  0  0  0  0  0  0
    0.4846   -1.3284   -0.0630 C   0  0  0  0  0  0  0  0  0  0  0  0
   -0.9131   -1.1096   -0.0269 C   0  0  0  0  0  0  0  0  0  0  0  0
   -1.3955    0.2152   -0.0191 C   0  0  0  0  0  0  0  0  0  0  0  0
   -0.5239    1.3042   -0.0006 C   0  0  0  0  0  0  0  0  0  0  0  0
    0.8472    1.0942   -0.0239 C   0  0  0  0  0  0  0  0  0  0  0  0
    1.0904   -2.6636   -0.0924 C   0  0  0  0  0  0  0  0  0  0  0  0
    1.8778   -3.1151    0.9779 C   0  0  0  0  0  0  0  0  0  0  0  0
    2.3051   -4.4413    1.0307 C   0  0  0  0  0  0  0  0  0  0  0  0
    1.9337   -5.3309    0.0244 C   0  0  0  0  0  0  0  0  0  0  0  0
    1.1829   -4.8854   -1.0605 C   0  0  0  0  0  0  0  0  0  0  0  0
    0.8167   -3.5444   -1.1491 C   0  0  0  0  0  0  0  0  0  0  0  0
   -2.2062   -2.3944    0.1803 S   0  0  0  0  0  0  0  0  0  0  0  0
   -2.7332   -2.2531   -1.3277 O   0  0  0  0  0  0  0  0  0  0  0  0
   -1.5732   -3.7466    0.2932 O   0  0  0  0  0  0  0  0  0  0  0  0
  1  2  2  0
  1  6  1  0
  2  3  1  0
  2  7  1  0
  3  4  2  0
  3 13  1  0
  4  5  1  0
  5  6  2  0
  7  8  2  0
  7 12  1  0
  8  9  1  0
  9 10  2  0
 10 11  1  0
 11 12  2  0
 13 14  1  0
 13 15  2  0
M  END
>  <DRUGBANK_ID>  (1) 
DB07483

>  <COMMON_NAME>  (1) 
1,1'-BIPHENYL-2-SULFINIC ACID

$$$$
