1462
     RDKit          3D

 29 31  0  0  0  0  0  0  0  0999 V2000
    0.8662    0.6274    0.2418 O   0  0  0  0  0  0  0  0  0  0  0  0
    2.2907  -10.6062   -3.2470 O   0  0  0  0  0  0  0  0  0  0  0  0
    4.1299  -10.6670   -2.0555 O   0  0  0  0  0  0  0  0  0  0  0  0
    0.6388   -6.5683    1.2006 N   0  0  0  0  0  0  0  0  0  0  0  0
    0.5133   -3.8644    0.5845 N   0  0  0  0  0  0  0  0  0  0  0  0
   -0.7160   -7.2198   -0.4107 N   0  0  0  0  0  0  0  0  0  0  0  0
    3.0088  -10.2082   -2.3169 N   0  0  0  0  0  0  0  0  0  0  0  0
    1.2543   -5.6132    2.0796 C   0  0  0  0  0  0  0  0  0  0  0  0
    1.5939   -4.2966    1.3896 C   0  0  0  0  0  0  0  0  0  0  0  0
   -0.7075   -6.4681    0.7515 C   0  0  0  0  0  0  0  0  0  0  0  0
    1.4326   -7.3783    0.3871 C   0  0  0  0  0  0  0  0  0  0  0  0
    0.5945   -7.7805   -0.6403 C   0  0  0  0  0  0  0  0  0  0  0  0
   -1.8755   -5.1068    1.2099 C   0  0  0  0  0  0  0  0  0  0  0  0
    0.4852   -2.4811    0.4016 C   0  0  0  0  0  0  0  0  0  0  0  0
   -0.0034   -4.3449   -0.6601 C   0  0  0  0  0  0  0  0  0  0  0  0
    2.7957   -7.7410    0.4880 C   0  0  0  0  0  0  0  0  0  0  0  0
   -1.8079   -3.2303    1.5092 C   0  0  0  0  0  0  0  0  0  0  0  0
    1.1596   -8.6281   -1.6455 C   0  0  0  0  0  0  0  0  0  0  0  0
    2.4811   -9.1328   -1.4536 C   0  0  0  0  0  0  0  0  0  0  0  0
    3.2869   -8.6949   -0.3981 C   0  0  0  0  0  0  0  0  0  0  0  0
    1.2381   -1.9545   -0.7391 C   0  0  0  0  0  0  0  0  0  0  0  0
    0.8356   -4.4222   -1.8544 C   0  0  0  0  0  0  0  0  0  0  0  0
   -2.2765   -2.2046    0.2282 C   0  0  0  0  0  0  0  0  0  0  0  0
   -0.6959   -2.5364    2.6345 C   0  0  0  0  0  0  0  0  0  0  0  0
   -1.4330   -0.7169   -0.0449 C   0  0  0  0  0  0  0  0  0  0  0  0
    0.1736   -1.0179    2.3940 C   0  0  0  0  0  0  0  0  0  0  0  0
   -0.1853   -0.1391    0.9836 C   0  0  0  0  0  0  0  0  0  0  0  0
    2.3545    0.3697    0.1558 C   0  0  0  0  0  0  0  0  0  0  0  0
    2.9920    1.6649   -0.2839 C   0  0  0  0  0  0  0  0  0  0  0  0
  1 27  1  0
  1 28  1  0
  2  7  1  0
  3  7  2  0
  4  8  1  0
  4 10  1  0
  4 11  1  0
  5  9  1  0
  5 14  1  0
  5 15  1  0
  6 10  2  0
  6 12  1  0
  7 19  1  0
  8  9  1  0
 10 13  1  0
 11 12  2  0
 11 16  1  0
 12 18  1  0
 13 17  1  0
 14 21  1  0
 15 22  1  0
 16 20  2  0
 17 23  2  0
 17 24  1  0
 18 19  2  0
 19 20  1  0
 23 25  1  0
 24 26  2  0
 25 27  2  0
 26 27  1  0
 28 29  1  0
M  CHG  2   2  -1   7   1
M  END
>  <DRUGBANK_ID>  (1) 
DB01462

>  <COMMON_NAME>  (1) 
Etonitazene

>  <CAS_NUMBER>  (1) 
911-65-9

>  <UNII>  (1) 
9U3GT3353T

>  <SYNONYMS>  (1) 
Etonitazene

$$$$
