
     RDKit          3D

 14 14  0  0  0  0  0  0  0  0999 V2000
    1.0959   -0.0461   -0.1546 C   0  0  0  0  0  0  0  0  0  0  0  0
    2.5452   -0.0818    0.0725 C   0  0  0  0  0  0  0  0  0  0  0  0
    3.2556   -1.2782    0.1063 C   0  0  0  0  0  0  0  0  0  0  0  0
    4.6517   -1.2376    0.1073 C   0  0  0  0  0  0  0  0  0  0  0  0
    5.3135   -0.0070    0.0923 C   0  0  0  0  0  0  0  0  0  0  0  0
    4.6106    1.1886    0.1114 C   0  0  0  0  0  0  0  0  0  0  0  0
    3.2230    1.1522    0.1080 C   0  0  0  0  0  0  0  0  0  0  0  0
    0.6210    0.9868   -0.6115 O   0  0  0  0  0  0  0  0  0  0  0  0
    0.4361   -1.1792    0.1925 O   0  0  0  0  0  0  0  0  0  0  0  0
    6.6724    0.0792    0.0460 O   0  0  0  0  0  0  0  0  0  0  0  0
   -1.0146   -1.1924    0.1233 C   0  0  0  0  0  0  0  0  0  0  0  0
   -1.6497   -0.5105    1.3442 C   0  0  0  0  0  0  0  0  0  0  0  0
   -1.3222    0.9780    1.4459 C   0  0  0  0  0  0  0  0  0  0  0  0
   -1.7977    1.7400    0.2073 C   0  0  0  0  0  0  0  0  0  0  0  0
  1  8  2  0
  1  9  1  0
  1  2  1  0
  2  7  2  0
  2  3  1  0
  3  4  2  0
  4  5  1  0
  5  6  2  0
  5 10  1  0
  6  7  1  0
  9 11  1  0
 11 12  1  0
 12 13  1  0
 13 14  1  0
M  END
>  <DRUGBANK_ID>  (1) 
DB14084

>  <COMMON_NAME>  (1) 
Butylparaben

>  <CAS_NUMBER>  (1) 
94-26-8

>  <UNII>  (1) 
3QPI1U3FV8

>  <SYNONYMS>  (1) 
Butyl 4-hydroxybenzoate; Butyl hydroxybenzoate; Butyl p-hydroxy benzoate; Butyl parahydroxybenzoate

$$$$
