
     RDKit          3D

 16 18  0  0  0  0  0  0  0  0999 V2000
    0.6365    0.1581    0.2626 O   0  0  0  0  0  0  0  0  0  0  0  0
    2.8757   -2.2200    1.1765 N   0  0  0  0  0  0  0  0  0  0  0  0
    3.1947   -0.3721    2.4799 N   0  0  0  0  0  0  0  0  0  0  0  0
    2.1871    0.0148   -2.8292 C   0  0  0  0  0  0  0  0  0  0  0  0
    2.6455   -1.3981   -2.5406 C   0  0  0  0  0  0  0  0  0  0  0  0
    3.5125   -0.2190   -2.1412 C   0  0  0  0  0  0  0  0  0  0  0  0
    0.8239    0.5794   -2.2687 C   0  0  0  0  0  0  0  0  0  0  0  0
    0.2456    0.6847   -0.9599 C   0  0  0  0  0  0  0  0  0  0  0  0
   -0.0047    1.1223   -3.2987 C   0  0  0  0  0  0  0  0  0  0  0  0
   -0.9618    1.3866   -0.7428 C   0  0  0  0  0  0  0  0  0  0  0  0
   -1.1955    1.8272   -3.0679 C   0  0  0  0  0  0  0  0  0  0  0  0
    2.0046   -0.0224    0.3466 C   0  0  0  0  0  0  0  0  0  0  0  0
   -1.6682    1.9729   -1.7793 C   0  0  0  0  0  0  0  0  0  0  0  0
    2.7010   -0.8715    1.3659 C   0  0  0  0  0  0  0  0  0  0  0  0
    3.0107   -2.7865    2.4821 C   0  0  0  0  0  0  0  0  0  0  0  0
    3.6801   -1.5957    3.1840 C   0  0  0  0  0  0  0  0  0  0  0  0
  1  8  1  0
  1 12  1  0
  2 14  1  0
  2 15  1  0
  3 14  2  0
  3 16  1  0
  4  5  1  0
  4  6  1  0
  4  7  1  0
  5  6  1  0
  7  8  1  0
  7  9  2  0
  8 10  2  0
  9 11  1  0
 10 13  1  0
 11 13  2  0
 12 14  1  0
 15 16  1  0
M  END
>  <DRUGBANK_ID>  (1) 
DB09202

>  <COMMON_NAME>  (1) 
Cirazoline

>  <CAS_NUMBER>  (1) 
59939-16-1

>  <UNII>  (1) 
QK318GVY3Y

>  <SYNONYMS>  (1) 
Cirazoline

$$$$
