34C
     RDKit          3D

 15 15  0  0  0  0  0  0  0  0999 V2000
   -1.7482    0.2759   -1.5043 Cl  0  0  0  0  0  0  0  0  0  0  0  0
   -0.2701    0.0491   -0.6268 C   0  0  0  0  0  0  0  0  0  0  0  0
    0.3921    1.2275   -0.2897 C   0  0  0  0  0  0  0  0  0  0  0  0
    1.7563    1.2102   -0.0169 C   0  0  0  0  0  0  0  0  0  0  0  0
    2.4174   -0.0216    0.0206 C   0  0  0  0  0  0  0  0  0  0  0  0
    1.6865   -1.2125   -0.0537 C   0  0  0  0  0  0  0  0  0  0  0  0
    0.3096   -1.1858   -0.3172 C   0  0  0  0  0  0  0  0  0  0  0  0
    2.5004    2.5149    0.0718 C   0  0  0  0  0  0  0  0  0  0  0  0
    3.3708    2.6374    1.2856 C   0  0  0  0  0  0  0  0  0  0  0  0
   -1.7461   -2.4156   -0.0030 C   0  0  0  0  0  0  0  0  0  0  0  0
   -2.3463   -1.7875    1.2810 C   0  0  0  0  0  0  0  0  0  0  0  0
   -1.9697   -0.3691    1.7045 C   0  0  0  0  0  0  0  0  0  0  0  0
   -0.3219   -2.3887   -0.1471 O   0  0  0  0  0  0  0  0  0  0  0  0
    4.5916    2.7619    1.2796 O   0  0  0  0  0  0  0  0  0  0  0  0
    2.6861    2.6084    2.4440 O   0  0  0  0  0  0  0  0  0  0  0  0
  1  2  1  0
  2  3  2  0
  2  7  1  0
  3  4  1  0
  4  5  2  0
  4  8  1  0
  5  6  1  0
  6  7  2  0
  7 13  1  0
  8  9  1  0
  9 14  2  0
  9 15  1  0
 10 11  1  0
 10 13  1  0
 11 12  1  0
M  END
>  <DRUGBANK_ID>  (1) 
DB02773

>  <SECONDARY_ACCESSION_NUMBERS>  (1) 
EXPT00156

>  <COMMON_NAME>  (1) 
(3-Chloro-4-Propoxy-Phenyl)-Acetic Acid

$$$$
