
     RDKit          3D

 28 27  0  0  0  0  0  0  0  0999 V2000
   -2.1968   -3.3909   -0.1437 S   0  0  0  0  0  0  0  0  0  0  0  0
   -5.5230   -1.0687   -1.4911 O   0  0  0  0  0  0  0  0  0  0  0  0
   -2.0376    2.3960   -2.8397 O   0  0  0  0  0  0  0  0  0  0  0  0
   -0.1814    0.0433    1.0503 O   0  0  0  0  0  0  0  0  0  0  0  0
   -1.3472    1.2734   -0.3082 O   0  0  0  0  0  0  0  0  0  0  0  0
   -4.4007   -1.7508    4.0992 O   0  0  0  0  0  0  0  0  0  0  0  0
   -3.9679    0.1668    3.0398 O   0  0  0  0  0  0  0  0  0  0  0  0
   -2.9294    0.5506   -1.8904 N   0  0  0  0  0  0  0  0  0  0  0  0
   -4.6666   -1.4235    0.5909 N   0  0  0  0  0  0  0  0  0  0  0  0
   -0.9340   -1.9928   -2.2296 N   0  0  0  0  0  0  0  0  0  0  0  0
   -3.1631   -0.8591   -1.3966 C   0  0  2  0  0  0  0  0  0  0  0  0
   -4.5272   -1.0954   -0.7657 C   0  0  0  0  0  0  0  0  0  0  0  0
   -1.9839    1.1659   -2.7079 C   0  0  0  0  0  0  0  0  0  0  0  0
   -2.3829   -1.5099   -0.2551 C   0  0  0  0  0  0  0  0  0  0  0  0
   -0.8428    0.4259   -3.4136 C   0  0  0  0  0  0  0  0  0  0  0  0
   -0.1631   -0.8899   -1.4413 C   0  0  1  0  0  0  0  0  0  0  0  0
    0.3268   -0.0747   -2.5491 C   0  0  0  0  0  0  0  0  0  0  0  0
   -3.7152   -1.7194    1.8173 C   0  0  0  0  0  0  0  0  0  0  0  0
   -0.5061    0.2330   -0.1207 C   0  0  0  0  0  0  0  0  0  0  0  0
   -4.1473   -1.1662    3.1014 C   0  0  0  0  0  0  0  0  0  0  0  0
   -3.8102   -4.0702    0.2270 C   0  0  0  0  0  0  0  0  0  0  0  0
   -3.5429   -5.3586    0.9701 C   0  0  0  0  0  0  0  0  0  0  0  0
   -2.6441   -5.2853    2.2603 C   0  0  0  0  0  0  0  0  0  0  0  0
   -3.1584   -4.4929    3.4787 C   0  0  0  0  0  0  0  0  0  0  0  0
   -4.6250   -4.7911    3.7862 C   0  0  0  0  0  0  0  0  0  0  0  0
   -4.7157   -6.2553    4.2096 C   0  0  0  0  0  0  0  0  0  0  0  0
   -3.8434   -6.5159    5.4437 C   0  0  0  0  0  0  0  0  0  0  0  0
   -4.3241   -5.6828    6.6211 C   0  0  0  0  0  0  0  0  0  0  0  0
  1 14  1  0
  1 21  1  0
  2 12  2  0
  3 13  2  0
  4 19  2  0
  5 19  1  0
  6 20  2  0
  7 20  1  0
  8 13  1  0
  9 12  1  0
  9 18  1  0
 11 14  1  1
 11 12  1  0
 11  8  1  0
 13 15  1  0
 15 17  1  0
 16 19  1  0
 16 17  1  0
 16 10  1  6
 18 20  1  0
 21 22  1  0
 22 23  1  0
 23 24  1  0
 24 25  1  0
 25 26  1  0
 26 27  1  0
 27 28  1  0
M  END
>  <DRUGBANK_ID>  (1) 
DB03032

>  <SECONDARY_ACCESSION_NUMBERS>  (1) 
EXPT01665

>  <COMMON_NAME>  (1) 
S-octylglutathione

>  <SYNONYMS>  (1) 
L-Î³-Glutamyl-S-octyl-D-cysteinylglycine

$$$$
