
     RDKit          3D

 28 29  0  0  0  0  0  0  0  0999 V2000
   -4.0938   -2.6244   -0.7635 C   0  0  0  0  0  0  0  0  0  0  0  0
    0.6795   -1.6060    0.7037 C   0  0  0  0  0  0  0  0  0  0  0  0
   -0.6461   -1.8585    0.4800 N   0  0  0  0  0  0  0  0  0  0  0  0
   -1.8720   -1.1769    0.9222 C   0  0  1  0  0  0  0  0  0  0  0  0
   -0.3947    1.4415    1.1901 C   0  0  0  0  0  0  0  0  0  0  0  0
   -3.2585   -1.5233   -1.3306 C   0  0  1  0  0  0  0  0  0  0  0  0
   -0.1090   -3.8072    4.7900 C   0  0  0  0  0  0  0  0  0  0  0  0
   -2.7998   -0.6003   -0.2152 C   0  0  0  0  0  0  0  0  0  0  0  0
   -3.6227   -3.5894   -0.1637 O   0  0  0  0  0  0  0  0  0  0  0  0
    1.5109   -2.3298    0.1465 O   0  0  0  0  0  0  0  0  0  0  0  0
   -1.2005    1.7846    2.0210 O   0  0  0  0  0  0  0  0  0  0  0  0
    0.7145   -4.4618    5.7902 C   0  0  0  0  0  0  0  0  0  0  0  0
   -1.0372   -4.5235    4.0332 C   0  0  0  0  0  0  0  0  0  0  0  0
   -0.0120   -2.4182    4.6369 C   0  0  0  0  0  0  0  0  0  0  0  0
   -2.6900   -1.8017    2.0613 C   0  0  0  0  0  0  0  0  0  0  0  0
    1.1445   -0.5463    1.6859 C   0  0  0  0  0  0  0  0  0  0  0  0
    0.9843    0.9221    1.3690 C   0  0  0  0  0  0  0  0  0  0  0  0
   -5.4177   -2.4432   -0.9059 O   0  0  0  0  0  0  0  0  0  0  0  0
   -1.8386   -2.4656    3.0905 C   0  0  0  0  0  0  0  0  0  0  0  0
   -0.7885    1.3336   -0.0811 O   0  0  0  0  0  0  0  0  0  0  0  0
   -0.9542   -1.7400    3.8851 C   0  0  0  0  0  0  0  0  0  0  0  0
   -1.8741   -3.8568    3.1604 C   0  0  0  0  0  0  0  0  0  0  0  0
   -2.0621   -2.0488   -2.1159 C   0  0  0  0  0  0  0  0  0  0  0  0
    1.5120   -5.5624    5.4713 C   0  0  0  0  0  0  0  0  0  0  0  0
    0.7437   -3.9373    7.0923 C   0  0  0  0  0  0  0  0  0  0  0  0
    1.6557   -4.4153    8.0194 C   0  0  0  0  0  0  0  0  0  0  0  0
    2.3812   -6.0835    6.4225 C   0  0  0  0  0  0  0  0  0  0  0  0
    2.4612   -5.5011    7.6885 C   0  0  0  0  0  0  0  0  0  0  0  0
  2  3  1  0
  4 15  1  6
  4  8  1  0
  4  3  1  0
  5 17  1  0
  6  1  1  0
  6 23  1  1
  7 13  2  0
  7 14  1  0
  8  6  1  0
  9  1  2  0
 10  2  2  0
 11  5  2  0
 12  7  1  0
 13 22  1  0
 14 21  2  0
 16  2  1  0
 17 16  1  0
 18  1  1  0
 19 15  1  0
 20  5  1  0
 21 19  1  0
 22 19  2  0
 24 12  2  0
 25 12  1  0
 26 25  2  0
 27 24  1  0
 27 28  2  0
 28 26  1  0
M  END
>  <DRUGBANK_ID>  (1) 
DB14127

>  <COMMON_NAME>  (1) 
Sacubitrilat

>  <CAS_NUMBER>  (1) 
149709-44-4

>  <UNII>  (1) 
SPI5PBF81S

>  <SYNONYMS>  (1) 
Sacubitrilat

$$$$
