
     RDKit          3D

  8  8  0  0  0  0  0  0  0  0999 V2000
   -1.7728   -0.0525    0.0499 N   0  0  0  0  0  0  0  0  0  0  0  0
   -1.1308   -0.4498    1.3489 C   0  0  0  0  0  0  0  0  0  0  0  0
   -1.6484   -1.7878    1.8241 C   0  0  0  0  0  0  0  0  0  0  0  0
   -1.8832   -0.5970    2.6811 C   0  0  0  0  0  0  0  0  0  0  0  0
    0.5242    0.8053    1.9077 P   0  0  0  0  0  0  0  0  0  0  0  0
    0.4721    1.3017    0.2513 O   0  0  0  0  0  0  0  0  0  0  0  0
    1.5876   -0.1599    1.3447 O   0  0  0  0  0  0  0  0  0  0  0  0
    0.5709    0.3609    3.3902 O   0  0  0  0  0  0  0  0  0  0  0  0
  1  2  1  0
  2  3  1  0
  2  4  1  0
  3  4  1  0
  5  7  1  0
  5  8  2  0
  5  6  1  0
  5  2  1  0
M  CHG  1   7  -1
M  END
>  <DRUGBANK_ID>  (1) 
DB03053

>  <SECONDARY_ACCESSION_NUMBERS>  (1) 
EXPT02186

>  <COMMON_NAME>  (1) 
1-Aminocyclopropylphosphonate

$$$$
