
     RDKit          3D

 17 18  0  0  0  0  0  0  0  0999 V2000
    0.9994    0.1193    0.0196 O   0  0  0  0  0  0  0  0  0  0  0  0
    0.2258    1.2473   -0.1030 C   0  0  0  0  0  0  0  0  0  0  0  0
    2.3811    0.2196    0.0598 C   0  0  0  0  0  0  0  0  0  0  0  0
    0.2617    2.1068   -1.2126 C   0  0  0  0  0  0  0  0  0  0  0  0
    3.1779    1.3761    0.1167 C   0  0  0  0  0  0  0  0  0  0  0  0
   -0.3931    3.3392   -1.1506 C   0  0  0  0  0  0  0  0  0  0  0  0
    4.5702    1.2888    0.0490 C   0  0  0  0  0  0  0  0  0  0  0  0
   -0.5989    1.5514    0.9891 C   0  0  0  0  0  0  0  0  0  0  0  0
    3.0324   -1.0265    0.0240 C   0  0  0  0  0  0  0  0  0  0  0  0
   -1.1701    3.6586   -0.0380 C   0  0  0  0  0  0  0  0  0  0  0  0
    5.1929    0.0511    0.0046 C   0  0  0  0  0  0  0  0  0  0  0  0
    1.1762    1.7477   -2.6322 Cl  0  0  0  0  0  0  0  0  0  0  0  0
    2.7413    2.6634    0.2400 O   0  0  0  0  0  0  0  0  0  0  0  0
   -1.3004    2.7586    1.0189 C   0  0  0  0  0  0  0  0  0  0  0  0
    4.4318   -1.1133    0.0075 C   0  0  0  0  0  0  0  0  0  0  0  0
   -1.9649    5.1822    0.0372 Cl  0  0  0  0  0  0  0  0  0  0  0  0
    6.9100   -0.0315   -0.0281 Cl  0  0  0  0  0  0  0  0  0  0  0  0
  2  1  1  0
  3  1  1  0
  4  2  2  0
  5  3  2  0
  6  4  1  0
  6 10  2  0
  7  5  1  0
  7 11  2  0
  8  2  1  0
  9  3  1  0
 10 14  1  0
 11 15  1  0
 12  4  1  0
 13  5  1  0
 14  8  2  0
 15  9  2  0
 16 10  1  0
 17 11  1  0
M  END
>  <DRUGBANK_ID>  (1) 
DB08604

>  <COMMON_NAME>  (1) 
Triclosan

>  <CAS_NUMBER>  (1) 
3380-34-5

>  <UNII>  (1) 
4NM5039Y5X

>  <SYNONYMS>  (1) 
2,4,4'-Trichloro-2'-hydroxydiphenyl ether; 5-Chloro-2-(2,4-dichloro-phenoxy)-phenol; Triclos√°n; Triclosan; Triclosanum

$$$$
