
     RDKit          3D

 14 13  0  0  0  0  0  0  0  0999 V2000
    0.8903   -0.0986    0.1263 C   0  0  0  0  0  0  0  0  0  0  0  0
    0.3745    1.3004   -0.2471 C   0  0  0  0  0  0  0  0  0  0  0  0
    0.8803    1.5836   -1.7086 C   0  0  0  0  0  0  0  0  0  0  0  0
    0.4754    0.5660   -2.7984 C   0  0  0  0  0  0  0  0  0  0  0  0
   -1.0293    0.5079   -3.0365 C   0  0  0  0  0  0  0  0  0  0  0  0
   -1.6303    1.8902   -3.3037 C   0  0  0  0  0  0  0  0  0  0  0  0
   -1.1532    2.3499   -4.6672 C   0  0  0  0  0  0  0  0  0  0  0  0
   -1.5584    1.4359   -5.5896 F   0  0  0  0  0  0  0  0  0  0  0  0
   -1.1622    1.3195    0.0029 C   0  0  0  0  0  0  0  0  0  0  0  0
   -1.7113    2.4015    0.5884 O   0  0  0  0  0  0  0  0  0  0  0  0
   -1.9031    0.3588   -0.2211 O   0  0  0  0  0  0  0  0  0  0  0  0
    0.9864    2.3898    0.6245 C   0  0  0  0  0  0  0  0  0  0  0  0
    1.7940    2.0260    1.6339 O   0  0  0  0  0  0  0  0  0  0  0  0
    0.6610    3.5652    0.4916 O   0  0  0  0  0  0  0  0  0  0  0  0
  1  2  1  0
  2  3  1  0
  2  9  1  0
  2 12  1  0
  3  4  1  0
  4  5  1  0
  5  6  1  0
  6  7  1  0
  7  8  1  0
  9 10  1  0
  9 11  2  0
 12 13  1  0
 12 14  2  0
M  ISO  1   8  18
M  END
>  <DRUGBANK_ID>  (1) 
DB16029

>  <COMMON_NAME>  (1) 
2-(5-fluoro-pentyl)-2-methyl-malonic-acid

>  <CAS_NUMBER>  (1) 
1236354-10-1

>  <UNII>  (1) 
AK3K0K6CM5

$$$$
