SPB
     RDKit          3D

 23 24  0  0  0  0  0  0  0  0999 V2000
    1.3719   -0.2001    0.0052 C   0  0  0  0  0  0  0  0  0  0  0  0
    0.5080   -1.2999    0.0149 C   0  0  0  0  0  0  0  0  0  0  0  0
   -0.8725   -1.1086   -0.0078 C   0  0  0  0  0  0  0  0  0  0  0  0
   -1.3916    0.1794    0.0110 C   0  0  0  0  0  0  0  0  0  0  0  0
   -0.5299    1.2727    0.0442 C   0  0  0  0  0  0  0  0  0  0  0  0
    0.8604    1.1033   -0.0282 C   0  0  0  0  0  0  0  0  0  0  0  0
    1.7801    2.2366   -0.2223 C   0  0  0  0  0  0  0  0  0  0  0  0
    1.3753    3.5076   -0.3583 C   0  0  0  0  0  0  0  0  0  0  0  0
    2.2655    4.6242   -0.6528 C   0  0  0  0  0  0  0  0  0  0  0  0
    3.2383    4.5754   -1.6576 C   0  0  0  0  0  0  0  0  0  0  0  0
    4.0090    5.7078   -1.9699 C   0  0  0  0  0  0  0  0  0  0  0  0
    3.7851    6.9113   -1.2975 C   0  0  0  0  0  0  0  0  0  0  0  0
    2.7439    6.9543   -0.3622 C   0  0  0  0  0  0  0  0  0  0  0  0
    2.0345    5.8207    0.0065 C   0  0  0  0  0  0  0  0  0  0  0  0
    4.6174    8.0364   -1.5513 N   0  0  0  0  0  0  0  0  0  0  0  0
    4.5589    9.2006   -0.8087 C   0  0  0  0  0  0  0  0  0  0  0  0
    5.4917   10.3245   -1.2055 C   0  0  0  0  0  0  0  0  0  0  0  0
    4.6939   11.5850   -1.5807 C   0  0  0  0  0  0  0  0  0  0  0  0
    3.6926   12.0844   -0.5245 C   0  0  0  0  0  0  0  0  0  0  0  0
    4.3352   12.4994    0.7761 C   0  0  0  0  0  0  0  0  0  0  0  0
    4.2601   13.6168    1.2781 O   0  0  0  0  0  0  0  0  0  0  0  0
    3.8042    9.3772    0.1447 O   0  0  0  0  0  0  0  0  0  0  0  0
    5.0343   11.5322    1.3891 O   0  0  0  0  0  0  0  0  0  0  0  0
  1  2  2  0
  1  6  1  0
  2  3  1  0
  3  4  2  0
  4  5  1  0
  5  6  2  0
  6  7  1  0
  7  8  2  0
  8  9  1  0
  9 10  2  0
  9 14  1  0
 10 11  1  0
 11 12  2  0
 12 13  1  0
 12 15  1  0
 13 14  2  0
 15 16  1  0
 16 17  1  0
 16 22  2  0
 17 18  1  0
 18 19  1  0
 19 20  1  0
 20 21  2  0
 20 23  1  0
M  END
>  <DRUGBANK_ID>  (1) 
DB08562

>  <COMMON_NAME>  (1) 
4-(4-STYRYL-PHENYLCARBAMOYL)-BUTYRIC ACID

$$$$
