
     RDKit          3D

 15 16  0  0  0  0  0  0  0  0999 V2000
   -0.9350    1.0404   -0.1643 O   0  0  0  0  0  0  0  0  0  0  0  0
   -3.1724    0.6781   -0.0099 O   0  0  0  0  0  0  0  0  0  0  0  0
   -3.1628   -4.2752   -0.2341 O   0  0  0  0  0  0  0  0  0  0  0  0
   -1.7890   -1.1381    0.2097 N   0  0  0  0  0  0  0  0  0  0  0  0
   -3.5607   -2.6167   -1.7069 N   0  0  0  0  0  0  0  0  0  0  0  0
    0.6268   -0.8090   -0.0317 C   0  0  0  0  0  0  0  0  0  0  0  0
    0.3731    0.5539   -0.0550 C   0  0  0  0  0  0  0  0  0  0  0  0
   -2.0380    0.2030    0.0012 C   0  0  0  0  0  0  0  0  0  0  0  0
   -0.5140   -1.7615   -0.1003 C   0  0  0  0  0  0  0  0  0  0  0  0
   -2.8954   -2.0125    0.5811 C   0  0  0  0  0  0  0  0  0  0  0  0
    1.9560   -1.2445    0.0087 C   0  0  0  0  0  0  0  0  0  0  0  0
    1.3981    1.4931   -0.0002 C   0  0  0  0  0  0  0  0  0  0  0  0
   -3.2050   -3.0717   -0.4718 C   0  0  0  0  0  0  0  0  0  0  0  0
    2.9973   -0.3133    0.0548 C   0  0  0  0  0  0  0  0  0  0  0  0
    2.7181    1.0545    0.0536 C   0  0  0  0  0  0  0  0  0  0  0  0
  1  7  1  0
  1  8  1  0
  2  8  2  0
  3 13  2  0
  4  8  1  0
  4  9  1  0
  4 10  1  0
  5 13  1  0
  6  7  2  0
  6  9  1  0
  6 11  1  0
  7 12  1  0
 10 13  1  0
 11 14  2  0
 12 15  2  0
 14 15  1  0
M  END
>  <DRUGBANK_ID>  (1) 
DB09254

>  <COMMON_NAME>  (1) 
Caroxazone

>  <CAS_NUMBER>  (1) 
18464-39-6

>  <UNII>  (1) 
807N226MNL

>  <SYNONYMS>  (1) 
Caroxazone

$$$$
