
     RDKit          3D

 34 36  0  0  1  0  0  0  0  0999 V2000
    3.5417    0.2152    1.5920 C   0  0  0  0  0  0  0  0  0  0  0  0
    2.1715    0.2988    1.3634 C   0  0  0  0  0  0  0  0  0  0  0  0
    1.4966   -0.8784    1.2111 C   0  0  0  0  0  0  0  0  0  0  0  0
    2.2206   -2.0778    1.1878 C   0  0  0  0  0  0  0  0  0  0  0  0
    3.6373   -2.1087    1.2146 C   0  0  0  0  0  0  0  0  0  0  0  0
    4.3343   -0.9301    1.3848 C   0  0  0  0  0  0  0  0  0  0  0  0
    6.1920   -0.9266    1.2624 S   0  0  0  0  0  0  0  0  0  0  0  0
    6.8365   -1.6258    2.3362 O   0  0  0  0  0  0  0  0  0  0  0  0
    6.4662   -1.5152   -0.0388 O   0  0  0  0  0  0  0  0  0  0  0  0
    6.6190    0.7742    1.2784 N   0  0  0  0  0  0  0  0  0  0  0  0
    6.3494    1.5914    2.5572 C   0  0  0  0  0  0  0  0  0  0  0  0
    6.6568    1.0038    3.9021 C   0  0  0  0  0  0  0  0  0  0  0  0
    7.2683    1.7065    4.9277 C   0  0  0  0  0  0  0  0  0  0  0  0
    7.5282    1.0441    6.1331 C   0  0  0  0  0  0  0  0  0  0  0  0
    7.3151   -0.3391    6.2513 C   0  0  0  0  0  0  0  0  0  0  0  0
    6.6901   -1.0205    5.2458 C   0  0  0  0  0  0  0  0  0  0  0  0
    6.1639   -0.2456    4.2545 C   0  0  0  0  0  0  0  0  0  0  0  0
    5.0892   -0.7450    3.6509 F   0  0  0  0  0  0  0  0  0  0  0  0
    7.5851   -1.0487    7.4636 C   0  0  0  0  0  0  0  0  0  0  0  0
    8.4035   -2.1460    7.4995 N   0  0  0  0  0  0  0  0  0  0  0  0
    8.4056   -2.4218    8.7768 C   0  0  0  0  0  0  0  0  0  0  0  0
    7.5913   -1.6303    9.5193 O   0  0  0  0  0  0  0  0  0  0  0  0
    7.0265   -0.7150    8.6345 N   0  0  0  0  0  0  0  0  0  0  0  0
    6.3859    1.5960   -0.0141 C   0  0  2  0  0  0  0  0  0  0  0  0
    4.8999    1.9098   -0.1468 C   0  0  0  0  0  0  0  0  0  0  0  0
    4.3057    3.0009   -0.9902 C   0  0  0  0  0  0  0  0  0  0  0  0
    4.7242    2.8747   -2.4122 C   0  0  0  0  0  0  0  0  0  0  0  0
    4.3740    1.6698   -2.8997 F   0  0  0  0  0  0  0  0  0  0  0  0
    4.1477    3.8267   -3.1615 F   0  0  0  0  0  0  0  0  0  0  0  0
    6.0554    3.0279   -2.4943 F   0  0  0  0  0  0  0  0  0  0  0  0
    6.9783    0.9412   -1.2816 C   0  0  0  0  0  0  0  0  0  0  0  0
    8.0001    1.3520   -1.8234 O   0  0  0  0  0  0  0  0  0  0  0  0
    6.2979   -0.1007   -1.8495 N   0  0  0  0  0  0  0  0  0  0  0  0
   -0.2181   -0.8375    1.1806 Cl  0  0  0  0  0  0  0  0  0  0  0  0
  1  2  2  0
  1  6  1  0
  2  3  1  0
  3  4  2  0
  3 34  1  0
  4  5  1  0
  5  6  2  0
  6  7  1  0
  7  8  2  0
  7  9  2  0
  7 10  1  0
 10 11  1  0
 11 12  1  0
 12 13  2  0
 12 17  1  0
 13 14  1  0
 14 15  2  0
 15 16  1  0
 15 19  1  0
 16 17  2  0
 17 18  1  0
 19 20  1  0
 19 23  2  0
 20 21  2  0
 21 22  1  0
 22 23  1  0
 24 31  1  0
 24 25  1  6
 24 10  1  0
 25 26  1  0
 26 27  1  0
 27 28  1  0
 27 29  1  0
 27 30  1  0
 31 32  2  0
 31 33  1  0
M  END
>  <DRUGBANK_ID>  (1) 
DB11893

>  <COMMON_NAME>  (1) 
Avagacestat

>  <CAS_NUMBER>  (1) 
1146699-66-2

>  <UNII>  (1) 
TQ44WWY45Q

>  <SYNONYMS>  (1) 
Avagacestat

$$$$
