
     RDKit          3D

 15 15  0  0  0  0  0  0  0  0999 V2000
    0.9830    0.0615    0.0402 C   0  0  0  0  0  0  0  0  0  0  0  0
    0.5413   -1.2841   -0.1180 O   0  0  0  0  0  0  0  0  0  0  0  0
    1.4032   -2.3059    0.1865 C   0  0  0  0  0  0  0  0  0  0  0  0
    2.7288   -2.1619    0.6170 C   0  0  0  0  0  0  0  0  0  0  0  0
    3.5461   -3.2826    0.8565 C   0  0  0  0  0  0  0  0  0  0  0  0
    2.9963   -4.5602    0.6886 C   0  0  0  0  0  0  0  0  0  0  0  0
    1.6751   -4.7164    0.2819 C   0  0  0  0  0  0  0  0  0  0  0  0
    1.1507   -5.9699    0.1300 O   0  0  0  0  0  0  0  0  0  0  0  0
    0.8857   -3.5997    0.0239 C   0  0  0  0  0  0  0  0  0  0  0  0
   -0.4064   -3.7907   -0.3948 O   0  0  0  0  0  0  0  0  0  0  0  0
    4.9485   -3.0650    1.2638 C   0  0  0  0  0  0  0  0  0  0  0  0
    5.8369   -4.0449    1.5213 C   0  0  0  0  0  0  0  0  0  0  0  0
    7.2483   -3.8294    1.9379 C   0  0  0  0  0  0  0  0  0  0  0  0
    7.4387   -4.4701    3.1782 O   0  0  0  0  0  0  0  0  0  0  0  0
    8.1100   -4.4269    0.9997 O   0  0  0  0  0  0  0  0  0  0  0  0
  1  2  1  0
  2  3  1  0
  3  4  2  0
  3  9  1  0
  4  5  1  0
  5  6  2  0
  5 11  1  0
  6  7  1  0
  7  8  1  0
  7  9  2  0
  9 10  1  0
 11 12  2  0
 12 13  1  0
 13 14  1  0
 13 15  1  0
M  END
>  <DRUGBANK_ID>  (1) 
DB04449

>  <SECONDARY_ACCESSION_NUMBERS>  (1) 
EXPT01734

>  <COMMON_NAME>  (1) 
5-(3,3-Dihydroxypropeny)-3-Methoxy-Benzene-1,2-Diol

$$$$
