
     RDKit          3D

 34 36  0  0  1  0  0  0  0  0999 V2000
    3.5569   -2.0095    0.2288 O   0  0  0  0  0  0  0  0  0  0  0  0
    2.4700   -1.7289    1.1106 C   0  0  0  0  0  0  0  0  0  0  0  0
    1.2426   -2.6131    0.8158 C   0  0  1  0  0  0  0  0  0  0  0  0
    1.3140   -3.0997   -0.5371 O   0  0  0  0  0  0  0  0  0  0  0  0
    0.1199   -3.7392   -0.9452 C   0  0  2  0  0  0  0  0  0  0  0  0
   -0.9918   -2.8760   -0.8162 O   0  0  0  0  0  0  0  0  0  0  0  0
   -0.9433   -1.7332   -1.6747 C   0  0  1  0  0  0  0  0  0  0  0  0
    0.0024   -0.6137   -1.1988 C   0  0  2  0  0  0  0  0  0  0  0  0
   -0.3618   -0.1506    0.1240 O   0  0  0  0  0  0  0  0  0  0  0  0
    0.1913    0.5702   -2.1206 C   0  0  1  0  0  0  0  0  0  0  0  0
    1.4118    1.2764   -1.7927 O   0  0  0  0  0  0  0  0  0  0  0  0
    0.1358    0.1902   -3.6129 C   0  0  2  0  0  0  0  0  0  0  0  0
   -0.2276    1.3308   -4.4256 O   0  0  0  0  0  0  0  0  0  0  0  0
   -1.3824    2.1190   -4.1068 C   0  0  0  0  0  0  0  0  0  0  0  0
   -2.7172    1.4354   -4.3597 C   0  0  0  0  0  0  0  0  0  0  0  0
   -3.0557    0.3691   -3.3635 C   0  0  0  0  0  0  0  0  0  0  0  0
   -3.0106    0.7453   -1.8907 C   0  0  0  0  0  0  0  0  0  0  0  0
   -4.2676    1.3626   -1.4405 C   0  0  0  0  0  0  0  0  0  0  0  0
   -5.3346    0.3110   -1.6448 C   0  0  0  0  0  0  0  0  0  0  0  0
   -6.6168    1.0770   -1.7697 C   0  0  0  0  0  0  0  0  0  0  0  0
   -7.7414    0.0991   -1.9789 C   0  0  0  0  0  0  0  0  0  0  0  0
   -7.7554   -0.9401   -0.8606 C   0  0  0  0  0  0  0  0  0  0  0  0
   -6.4645   -1.7497   -0.7929 C   0  0  0  0  0  0  0  0  0  0  0  0
   -5.2785   -0.8223   -0.6090 C   0  0  0  0  0  0  0  0  0  0  0  0
   -0.6198   -0.9545   -4.0371 O   0  0  0  0  0  0  0  0  0  0  0  0
   -0.8422   -2.0783   -3.1669 C   0  0  2  0  0  0  0  0  0  0  0  0
   -2.1910   -2.8318   -3.5245 C   0  0  0  0  0  0  0  0  0  0  0  0
   -2.3505   -3.0235   -4.9204 O   0  0  0  0  0  0  0  0  0  0  0  0
   -0.1501   -4.9862   -0.1221 C   0  0  2  0  0  0  0  0  0  0  0  0
   -1.3800   -5.6024   -0.5310 O   0  0  0  0  0  0  0  0  0  0  0  0
   -0.1684   -4.6202    1.3656 C   0  0  1  0  0  0  0  0  0  0  0  0
   -0.1967   -5.8212    2.1413 O   0  0  0  0  0  0  0  0  0  0  0  0
    1.0689   -3.7845    1.7644 C   0  0  2  0  0  0  0  0  0  0  0  0
    0.9436   -3.3091    3.1046 O   0  0  0  0  0  0  0  0  0  0  0  0
  1  2  1  0
  3  4  1  0
  3 33  1  0
  3  2  1  1
  4  5  1  0
  5 29  1  0
  5  6  1  1
  7  6  1  1
  7  8  1  0
  7 26  1  0
  8  9  1  1
  8 10  1  0
 10 11  1  1
 10 12  1  0
 12 13  1  6
 12 25  1  0
 13 14  1  0
 14 15  1  0
 15 16  1  0
 16 17  1  0
 17 18  1  0
 18 19  1  0
 19 20  1  0
 19 24  1  0
 20 21  1  0
 21 22  1  0
 22 23  1  0
 23 24  1  0
 25 26  1  0
 26 27  1  6
 27 28  1  0
 29 30  1  6
 29 31  1  0
 31 32  1  1
 31 33  1  0
 33 34  1  1
M  END
>  <DRUGBANK_ID>  (1) 
DB04664

>  <COMMON_NAME>  (1) 
Cyclohexyl-pentyl-maltoside

>  <CAS_NUMBER>  (1) 
250692-65-0

>  <SYNONYMS>  (1) 
5-cyclohexyl-1-pentyl-beta-D-maltoside; CYMAL-5; CYMAL(R)-5

$$$$
