
     RDKit          3D

 20 21  0  0  1  0  0  0  0  0999 V2000
   -0.2097   -1.3661    0.0696 N   0  0  0  0  0  0  0  0  0  0  0  0
   -0.2193   -2.8497    0.2264 C   0  0  2  0  0  0  0  0  0  0  0  0
    0.8242   -0.6038    0.5855 C   0  0  0  0  0  0  0  0  0  0  0  0
   -1.3888   -0.6582   -0.1405 C   0  0  0  0  0  0  0  0  0  0  0  0
    0.3609   -3.2384    1.5014 O   0  0  0  0  0  0  0  0  0  0  0  0
    0.4569   -3.6750   -0.8689 C   0  0  0  0  0  0  0  0  0  0  0  0
    0.9740    0.7046    0.2084 N   0  0  0  0  0  0  0  0  0  0  0  0
    1.6543   -1.0241    1.4148 O   0  0  0  0  0  0  0  0  0  0  0  0
   -1.4219    0.6671    0.0719 C   0  0  0  0  0  0  0  0  0  0  0  0
    1.3763   -4.2582    1.3090 C   0  0  1  0  0  0  0  0  0  0  0  0
    1.0548   -4.8637   -0.0790 C   0  0  1  0  0  0  0  0  0  0  0  0
   -0.1213    1.3672    0.0276 C   0  0  0  0  0  0  0  0  0  0  0  0
    2.9192   -3.7935    1.6011 C   0  0  0  0  0  0  0  0  0  0  0  0
    0.0800   -5.9191   -0.0240 O   0  0  0  0  0  0  0  0  0  0  0  0
   -0.0381    2.7068   -0.2136 N   0  0  0  0  0  0  0  0  0  0  0  0
    3.5601   -2.6157    1.0035 O   0  0  0  0  0  0  0  0  0  0  0  0
    3.8915   -2.2534   -0.5448 P   0  0  0  0  0  0  0  0  0  0  0  0
    2.8595   -3.4501   -0.6559 O   0  0  0  0  0  0  0  0  0  0  0  0
    3.1148   -0.8641   -0.5612 O   0  0  0  0  0  0  0  0  0  0  0  0
    3.8714   -2.5697   -2.0144 O   0  0  0  0  0  0  0  0  0  0  0  0
  1  3  1  0
  1  4  1  0
  2  1  1  6
  2  5  1  0
  2  6  1  0
  3  7  1  0
  3  8  2  0
  4  9  2  0
  5 10  1  0
  6 11  1  0
  7 12  2  0
  9 12  1  0
 10 11  1  0
 10 13  1  6
 11 14  1  1
 12 15  1  0
 13 16  1  0
 16 17  1  0
 17 18  1  0
 17 19  1  0
 17 20  2  0
M  END
>  <DRUGBANK_ID>  (1) 
DB03798

>  <SECONDARY_ACCESSION_NUMBERS>  (1) 
EXPT01134

>  <COMMON_NAME>  (1) 
2'-Deoxycytidine-5'-Monophosphate

>  <CAS_NUMBER>  (1) 
1032-65-1

>  <UNII>  (1) 
W7A9174XQL

$$$$
