
     RDKit          3D

 33 34  0  0  1  0  0  0  0  0999 V2000
    0.8906    0.1005   -0.0275 C   0  0  0  0  0  0  0  0  0  0  0  0
    0.4233   -1.1643    0.4092 O   0  0  0  0  0  0  0  0  0  0  0  0
    0.8925   -2.2556   -0.3927 C   0  0  1  0  0  0  0  0  0  0  0  0
    0.2776   -2.1390   -1.7804 C   0  0  0  0  0  0  0  0  0  0  0  0
    0.9963   -2.1344   -2.9028 C   0  0  0  0  0  0  0  0  0  0  0  0
    0.6229   -1.9688   -4.2399 C   0  0  0  0  0  0  0  0  0  0  0  0
    1.2399   -2.6289   -5.2815 C   0  0  0  0  0  0  0  0  0  0  0  0
    0.4151   -2.2334   -6.7256 S   0  0  0  0  0  0  0  0  0  0  0  0
   -0.5289   -1.0960   -5.8428 C   0  0  0  0  0  0  0  0  0  0  0  0
   -0.2936   -1.0188   -4.5550 N   0  0  0  0  0  0  0  0  0  0  0  0
   -1.6138   -0.2937   -6.4616 C   0  0  0  0  0  0  0  0  0  0  0  0
   -2.6893   -0.8962   -7.0747 C   0  0  0  0  0  0  0  0  0  0  0  0
   -3.7986    0.2963   -7.5796 S   0  0  0  0  0  0  0  0  0  0  0  0
   -2.7534    1.5256   -6.9578 C   0  0  0  0  0  0  0  0  0  0  0  0
   -1.6630    1.0837   -6.3672 N   0  0  0  0  0  0  0  0  0  0  0  0
   -3.1112    2.9922   -7.0740 C   0  0  1  0  0  0  0  0  0  0  0  0
   -3.2367    3.4152   -8.5415 C   0  0  0  0  0  0  0  0  0  0  0  0
   -4.3616    3.3735   -6.3119 C   0  0  0  0  0  0  0  0  0  0  0  0
   -4.3789    4.2323   -5.2820 C   0  0  0  0  0  0  0  0  0  0  0  0
   -5.5872    4.5416   -4.5583 C   0  0  0  0  0  0  0  0  0  0  0  0
   -5.6195    5.3969   -3.5261 C   0  0  0  0  0  0  0  0  0  0  0  0
   -6.8779    5.7211   -2.7610 C   0  0  0  0  0  0  0  0  0  0  0  0
   -6.7233    5.3293   -1.2933 C   0  0  0  0  0  0  0  0  0  0  0  0
   -7.1969    7.2097   -2.8776 C   0  0  0  0  0  0  0  0  0  0  0  0
    2.4721   -2.4129   -0.2716 C   0  0  1  0  0  0  0  0  0  0  0  0
    3.0615   -2.4045    1.1549 C   0  0  0  0  0  0  0  0  0  0  0  0
    3.0261   -3.5974   -1.0481 C   0  0  0  0  0  0  0  0  0  0  0  0
    3.8708   -3.3514   -2.1543 O   0  0  0  0  0  0  0  0  0  0  0  0
    4.3355   -2.0211   -2.5064 C   0  0  0  0  0  0  0  0  0  0  0  0
    2.6535   -4.8714   -0.7619 C   0  0  0  0  0  0  0  0  0  0  0  0
    1.7661   -5.2859    0.3801 C   0  0  0  0  0  0  0  0  0  0  0  0
    1.5012   -6.5913    0.5519 N   0  0  0  0  0  0  0  0  0  0  0  0
    1.2449   -4.5483    1.2151 O   0  0  0  0  0  0  0  0  0  0  0  0
  1  2  1  0
  3  2  1  0
  3  4  1  6
  3 25  1  0
  4  5  2  0
  5  6  1  0
  6  7  2  0
  6 10  1  0
  7  8  1  0
  8  9  1  0
  9 10  2  0
  9 11  1  0
 11 12  2  0
 11 15  1  0
 12 13  1  0
 13 14  1  0
 14 15  2  0
 14 16  1  0
 16 17  1  6
 16 18  1  0
 18 19  2  0
 19 20  1  0
 20 21  2  0
 21 22  1  0
 22 23  1  0
 22 24  1  0
 25 26  1  1
 25 27  1  0
 27 28  1  0
 27 30  2  0
 28 29  1  0
 30 31  1  0
 31 32  1  0
 31 33  2  0
M  END
>  <DRUGBANK_ID>  (1) 
DB04741

>  <COMMON_NAME>  (1) 
Myxothiazol

>  <CAS_NUMBER>  (1) 
76706-55-3

>  <UNII>  (1) 
6VY98BQ7NB

>  <SYNONYMS>  (1) 
(+)-myxothiazol; Myxothiazol A

$$$$
