OAI
     RDKit          3D

 18 19  0  0  0  0  0  0  0  0999 V2000
   -0.2410    0.6150    0.0139 C   0  0  0  0  0  0  0  0  0  0  0  0
    0.9216    1.3916    0.0057 C   0  0  0  0  0  0  0  0  0  0  0  0
    2.1857    0.7707   -0.0323 C   0  0  0  0  0  0  0  0  0  0  0  0
    2.2434   -0.6420   -0.0196 C   0  0  0  0  0  0  0  0  0  0  0  0
    1.0476   -1.4085    0.0170 C   0  0  0  0  0  0  0  0  0  0  0  0
   -0.2098   -0.7710    0.0144 C   0  0  0  0  0  0  0  0  0  0  0  0
   -1.5630   -1.2097   -0.0052 C   0  0  0  0  0  0  0  0  0  0  0  0
   -2.3716   -0.0944   -0.0378 C   0  0  0  0  0  0  0  0  0  0  0  0
   -1.5613    1.0077    0.0103 N   0  0  0  0  0  0  0  0  0  0  0  0
    3.3723    1.5661   -0.0925 N   0  0  0  0  0  0  0  0  0  0  0  0
    3.4228    2.9553   -0.1190 C   0  0  0  0  0  0  0  0  0  0  0  0
    4.8156    3.6128   -0.1909 C   0  0  0  0  0  0  0  0  0  0  0  0
    4.9859    4.8202   -0.2128 O   0  0  0  0  0  0  0  0  0  0  0  0
    5.8548    2.7749   -0.2285 O   0  0  0  0  0  0  0  0  0  0  0  0
    2.4691    3.7258   -0.0906 O   0  0  0  0  0  0  0  0  0  0  0  0
    3.5093   -1.4323   -0.0557 C   0  0  0  0  0  0  0  0  0  0  0  0
    3.5907   -2.6505   -0.0478 O   0  0  0  0  0  0  0  0  0  0  0  0
    4.6271   -0.6784   -0.1047 O   0  0  0  0  0  0  0  0  0  0  0  0
  1  2  2  0
  1  6  1  0
  1  9  1  0
  2  3  1  0
  3  4  2  0
  3 10  1  0
  4  5  1  0
  4 16  1  0
  5  6  2  0
  6  7  1  0
  7  8  2  0
  8  9  1  0
 10 11  1  0
 11 12  1  0
 11 15  2  0
 12 13  2  0
 12 14  1  0
 16 17  2  0
 16 18  1  0
M  END
>  <DRUGBANK_ID>  (1) 
DB04001

>  <SECONDARY_ACCESSION_NUMBERS>  (1) 
EXPT02409

>  <COMMON_NAME>  (1) 
6-(Oxalyl-Amino)-1h-Indole-5-Carboxylic Acid

>  <UNII>  (1) 
WM8KMK01TA

$$$$
