
     RDKit          3D

 33 35  0  0  0  0  0  0  0  0999 V2000
    1.4710   -0.9178   -0.5125 C   0  0  1  0  0  0  0  0  0  0  0  0
    0.0900   -1.5698   -0.5535 C   0  0  0  0  0  0  0  0  0  0  0  0
   -0.9221   -0.7958    0.2671 C   0  0  1  0  0  0  0  0  0  0  0  0
   -0.9439    0.6854   -0.1477 C   0  0  0  0  0  0  0  0  0  0  0  0
    0.3862    1.3586   -0.1728 C   0  0  0  0  0  0  0  0  0  0  0  0
    1.4485    0.5706   -0.8944 C   0  0  0  0  0  0  0  0  0  0  0  0
    2.0717   -1.1011    0.7725 O   0  0  0  0  0  0  0  0  0  0  0  0
   -2.2098   -1.3967    0.1468 O   0  0  0  0  0  0  0  0  0  0  0  0
   -2.1010    1.3540   -0.3322 C   0  0  0  0  0  0  0  0  0  0  0  0
    0.7311    2.5044    0.4674 C   0  0  0  0  0  0  0  0  0  0  0  0
   -0.1427    3.2739    1.3201 C   0  0  0  0  0  0  0  0  0  0  0  0
   -0.9162    2.6825    2.2408 C   0  0  0  0  0  0  0  0  0  0  0  0
   -0.9404    1.2161    2.6101 C   0  0  0  0  0  0  0  0  0  0  0  0
   -0.8310    0.8088    4.0628 C   0  0  0  0  0  0  0  0  0  0  0  0
   -1.8910    1.4242    4.9359 C   0  0  0  0  0  0  0  0  0  0  0  0
   -2.0416    3.3219    2.9184 C   0  0  1  0  0  0  0  0  0  0  0  0
   -1.8543    2.8702    4.6796 C   0  0  1  0  0  0  0  0  0  0  0  0
   -3.1446    4.0721    5.7534 C   0  0  2  0  0  0  0  0  0  0  0  0
   -3.4859    5.5913    4.2849 C   0  0  0  0  0  0  0  0  0  0  0  0
   -2.4375    4.9873    2.6951 C   0  0  0  0  0  0  0  0  0  0  0  0
   -0.0943    3.4349    4.9842 C   0  0  0  0  0  0  0  0  0  0  0  0
   -2.5604    4.4388    7.1835 C   0  0  1  0  0  0  0  0  0  0  0  0
   -3.1252    5.7792    7.5551 C   0  0  0  0  0  0  0  0  0  0  0  0
   -2.9097    3.2793    7.9529 O   0  0  0  0  0  0  0  0  0  0  0  0
   -4.2254    2.6944    7.6740 C   0  0  0  0  0  0  0  0  0  0  0  0
   -5.3558    3.7541    7.6414 C   0  0  0  0  0  0  0  0  0  0  0  0
   -5.4764    4.9307    6.4854 C   0  0  0  0  0  0  0  0  0  0  0  0
   -5.4858    4.5778    4.9679 C   0  0  0  0  0  0  0  0  0  0  0  0
   -6.7794    3.8401    4.8995 C   0  0  0  0  0  0  0  0  0  0  0  0
   -7.8637    4.8739    5.3161 C   0  0  0  0  0  0  0  0  0  0  0  0
   -5.8279    5.8048    4.2270 O   0  0  0  0  0  0  0  0  0  0  0  0
   -3.9178    3.7943    4.1499 C   0  0  0  0  0  0  0  0  0  0  0  0
   -2.0059    4.7270    4.6328 C   0  0  0  0  0  0  0  0  0  0  0  0
  1  6  1  0
  1  7  1  1
  1  2  1  0
  2  3  1  0
  3  8  1  6
  3  4  1  0
  4  9  2  0
  4  5  1  0
  5 10  2  0
  5  6  1  0
 10 11  1  0
 11 12  2  0
 12 13  1  0
 12 16  1  0
 13 14  1  0
 14 15  1  0
 15 17  1  0
 16 17  1  0
 17 18  1  0
 17 21  1  1
 18 19  1  6
 18 22  1  0
 19 20  1  0
 16 20  1  1
 22 23  1  1
 22 24  1  0
 24 25  1  0
 25 26  1  0
 26 27  1  0
 27 28  1  0
 28 29  1  0
 28 31  1  0
 28 32  1  0
 29 30  1  0
 32 33  1  0
M  END
>  <DRUGBANK_ID>  (1) 
DB03451

>  <SECONDARY_ACCESSION_NUMBERS>  (1) 
EXPT01970

>  <COMMON_NAME>  (1) 
Lexacalcitol

>  <CAS_NUMBER>  (1) 
131875-08-6

>  <UNII>  (1) 
9G3DCA3958

>  <SYNONYMS>  (1) 
Lexacalcitol

$$$$
