
     RDKit          3D

 12 12  0  0  0  0  0  0  0  0999 V2000
   -0.2014    1.6682   -0.1322 C   0  0  2  0  0  0  0  0  0  0  0  0
   -1.2023    0.5629    0.2779 C   0  0  2  0  0  0  0  0  0  0  0  0
   -0.8134   -0.7690   -0.3792 C   0  0  1  0  0  0  0  0  0  0  0  0
    0.6923   -1.0763   -0.1776 C   0  0  1  0  0  0  0  0  0  0  0  0
    1.6139    0.1478   -0.4060 C   0  0  2  0  0  0  0  0  0  0  0  0
    3.0867   -0.0581   -0.0782 C   0  0  0  0  0  0  0  0  0  0  0  0
   -0.3131    2.1994   -1.4638 O   0  0  0  0  0  0  0  0  0  0  0  0
   -2.5559    0.9372    0.0038 O   0  0  0  0  0  0  0  0  0  0  0  0
   -1.6435   -1.8462    0.0906 O   0  0  0  0  0  0  0  0  0  0  0  0
    0.8605   -1.5843    1.1517 O   0  0  0  0  0  0  0  0  0  0  0  0
    1.1301    1.3086    0.2624 O   0  0  0  0  0  0  0  0  0  0  0  0
   -0.2588    1.3892   -2.6233 C   0  0  0  0  0  0  0  0  0  0  0  0
  1  2  1  0
  1  7  1  6
  1 11  1  0
  2  3  1  0
  2  8  1  6
  3  4  1  0
  3  9  1  1
  4  5  1  0
  4 10  1  1
  5  6  1  1
  5 11  1  0
 12  7  1  0
M  END
>  <DRUGBANK_ID>  (1) 
DB03879

>  <SECONDARY_ACCESSION_NUMBERS>  (1) 
EXPT02163; EXPT02160; DB04091

>  <COMMON_NAME>  (1) 
alpha-L-methyl-fucose

>  <CAS_NUMBER>  (1) 
14687-15-1

>  <UNII>  (1) 
EZI2C7VVU0

>  <SYNONYMS>  (1) 
alpha-L-1-Methyl-fucose; Methyl alpha-L-fucopyranoside; Î±-L-Methyl-Fucose

$$$$
