
     RDKit          3D

 29 31  0  0  1  0  0  0  0  0999 V2000
    1.9902    3.3680    0.7822 C   0  0  0  0  0  0  0  0  0  0  0  0
    1.7499    6.2014    0.0696 C   0  0  0  0  0  0  0  0  0  0  0  0
    1.3162    5.2580   -2.4004 C   0  0  0  0  0  0  0  0  0  0  0  0
    1.2751    3.8084   -2.9230 C   0  0  0  0  0  0  0  0  0  0  0  0
    1.9548    4.4257    1.8785 C   0  0  0  0  0  0  0  0  0  0  0  0
    1.0682    7.3452   -0.1262 C   0  0  0  0  0  0  0  0  0  0  0  0
    2.4175    5.7939    1.3747 C   0  0  0  0  0  0  0  0  0  0  0  0
    0.8887    8.3791    0.8644 C   0  0  0  0  0  0  0  0  0  0  0  0
    0.2394    9.5477    0.7101 C   0  0  0  0  0  0  0  0  0  0  0  0
   -0.4424    9.9851   -0.5713 C   0  0  0  0  0  0  0  0  0  0  0  0
    0.1654   10.6044    1.8153 C   0  0  2  0  0  0  0  0  0  0  0  0
    0.1480   11.3078   -1.0651 C   0  0  2  0  0  0  0  0  0  0  0  0
    0.7538   11.9198    1.2790 C   0  0  0  0  0  0  0  0  0  0  0  0
    0.0393   12.3781    0.0160 C   0  0  0  0  0  0  0  0  0  0  0  0
   -0.0263    1.0025   -0.4817 C   0  0  0  0  0  0  0  0  0  0  0  0
    0.5476    1.5852   -1.7755 C   0  0  2  0  0  0  0  0  0  0  0  0
    1.3947    0.4538   -2.3082 C   0  0  0  0  0  0  0  0  0  0  0  0
    1.1210   -0.2017   -3.4303 C   0  0  0  0  0  0  0  0  0  0  0  0
   -0.2349   -2.4660   -4.9055 C   0  0  0  0  0  0  0  0  0  0  0  0
    0.9334   -2.6609   -3.9314 C   0  0  0  0  0  0  0  0  0  0  0  0
    1.7113   -3.9265   -4.3031 C   0  0  0  0  0  0  0  0  0  0  0  0
    1.8746   -1.4291   -3.8767 C   0  0  1  0  0  0  0  0  0  0  0  0
    1.4137    2.8729   -1.6788 C   0  0  2  0  0  0  0  0  0  0  0  0
    1.8861    5.1206   -0.9864 C   0  0  2  0  0  0  0  0  0  0  0  0
    1.2063    3.8217   -0.4725 C   0  0  2  0  0  0  0  0  0  0  0  0
   -0.2907    4.1247   -0.1824 C   0  0  0  0  0  0  0  0  0  0  0  0
    2.5473   -1.1211   -5.2132 C   0  0  0  0  0  0  0  0  0  0  0  0
    0.8739   10.2989    3.1408 C   0  0  0  0  0  0  0  0  0  0  0  0
   -0.5533   11.7355   -2.2263 O   0  0  0  0  0  0  0  0  0  0  0  0
  1  5  1  0
  2  6  2  0
  2  7  1  0
  3  4  1  0
  5  7  1  0
  6  8  1  0
  8  9  2  0
  9 10  1  0
  9 11  1  0
 10 12  1  0
 11 13  1  0
 11 28  1  1
 12 14  1  0
 12 29  1  6
 13 14  1  0
 16 17  1  0
 16 15  1  1
 17 18  2  0
 18 22  1  0
 20 19  1  0
 20 21  1  0
 22 20  1  0
 22 27  1  6
 23  4  1  6
 23 16  1  0
 24 25  1  0
 24  2  1  0
 24  3  1  6
 25 23  1  0
 25  1  1  0
 25 26  1  1
M  END
>  <DRUGBANK_ID>  (1) 
DB01070

>  <SECONDARY_ACCESSION_NUMBERS>  (1) 
APRD00143

>  <COMMON_NAME>  (1) 
Dihydrotachysterol

>  <CAS_NUMBER>  (1) 
67-96-9

>  <UNII>  (1) 
R5LM3H112R

>  <SYNONYMS>  (1) 
Anti-tetany substance 10; Dihidrotaquisterol; Dihydrotachysterol; Dihydrotachysterolum

$$$$
