77A
     RDKit          3D

 26 27  0  0  0  0  0  0  0  0999 V2000
    0.9282   -0.1656   -0.1471 N   0  0  0  0  0  0  0  0  0  0  0  0
    0.2345    1.0581   -0.0483 C   0  0  0  0  0  0  0  0  0  0  0  0
    0.6758    2.1085   -0.8755 C   0  0  0  0  0  0  0  0  0  0  0  0
   -0.0223    3.3186   -0.9193 C   0  0  0  0  0  0  0  0  0  0  0  0
   -1.1310    3.5196   -0.1081 C   0  0  0  0  0  0  0  0  0  0  0  0
   -1.5187    2.5107    0.7771 C   0  0  0  0  0  0  0  0  0  0  0  0
   -0.8382    1.2788    0.8381 C   0  0  0  0  0  0  0  0  0  0  0  0
   -1.3125    0.4818    1.8507 O   0  0  0  0  0  0  0  0  0  0  0  0
   -0.5945   -0.6726    2.2590 C   0  0  0  0  0  0  0  0  0  0  0  0
    0.4660    4.5589   -2.0109 Cl  0  0  0  0  0  0  0  0  0  0  0  0
    0.3267   -1.3742   -0.3462 C   0  0  0  0  0  0  0  0  0  0  0  0
   -0.8447   -1.5221   -0.7194 O   0  0  0  0  0  0  0  0  0  0  0  0
    1.0500   -2.4953   -0.0527 N   0  0  0  0  0  0  0  0  0  0  0  0
    2.4344   -2.5625    0.0759 C   0  0  0  0  0  0  0  0  0  0  0  0
    3.0890   -1.6023    0.7541 N   0  0  0  0  0  0  0  0  0  0  0  0
    4.4339   -1.6763    0.7536 C   0  0  0  0  0  0  0  0  0  0  0  0
    5.1107   -2.6548    0.0417 C   0  0  0  0  0  0  0  0  0  0  0  0
    4.4682   -3.6263   -0.6510 N   0  0  0  0  0  0  0  0  0  0  0  0
    3.1168   -3.5647   -0.6031 C   0  0  0  0  0  0  0  0  0  0  0  0
    5.1788   -0.7649    1.4653 O   0  0  0  0  0  0  0  0  0  0  0  0
    4.5185    0.0186    2.4840 C   0  0  2  0  0  0  0  0  0  0  0  0
    3.7418   -0.7759    3.5758 C   0  0  0  0  0  0  0  0  0  0  0  0
    4.5739   -1.6711    4.4179 N   0  0  0  0  0  0  0  0  0  0  0  0
    5.2880   -2.6735    3.6284 C   0  0  0  0  0  0  0  0  0  0  0  0
    3.6666    1.0866    1.8119 C   0  0  0  0  0  0  0  0  0  0  0  0
    3.7189   -2.3698    5.3824 C   0  0  0  0  0  0  0  0  0  0  0  0
  1 11  1  0
  1  2  1  0
  2  3  2  0
  2  7  1  0
  3  4  1  0
  4 10  1  0
  4  5  2  0
  5  6  1  0
  6  7  2  0
  7  8  1  0
  8  9  1  0
 11 12  2  0
 11 13  1  0
 13 14  1  0
 14 15  2  0
 14 19  1  0
 15 16  1  0
 16 20  1  0
 16 17  2  0
 17 18  1  0
 18 19  2  0
 20 21  1  0
 21 25  1  6
 21 22  1  0
 22 23  1  0
 23 26  1  0
 23 24  1  0
M  END
>  <DRUGBANK_ID>  (1) 
DB07228

>  <COMMON_NAME>  (1) 
1-(5-CHLORO-2-METHOXYPHENYL)-3-{6-[2-(DIMETHYLAMINO)-1-METHYLETHOXY]PYRAZIN-2-YL}UREA

$$$$
