
     RDKit          3D

 20 21  0  0  1  0  0  0  0  0999 V2000
    1.2059   -0.2135    0.0070 C   0  0  0  0  0  0  0  0  0  0  0  0
    0.8010    0.5490    1.2601 C   0  0  1  0  0  0  0  0  0  0  0  0
    1.7374    2.0439    1.4145 C   0  0  0  0  0  0  0  0  0  0  0  0
    2.1070    3.1129    0.1696 N   0  0  0  0  0  0  0  0  0  0  0  0
    1.6795    3.0280   -1.2694 C   0  0  0  0  0  0  0  0  0  0  0  0
    1.3437    4.1951   -1.8230 N   0  0  0  0  0  0  0  0  0  0  0  0
    1.3926    5.0510   -0.7752 C   0  0  0  0  0  0  0  0  0  0  0  0
    2.0665    4.5394    0.3621 C   0  0  0  0  0  0  0  0  0  0  0  0
    2.3492    5.2558    1.4677 N   0  0  0  0  0  0  0  0  0  0  0  0
    1.7926    6.5201    1.3929 C   0  0  0  0  0  0  0  0  0  0  0  0
    1.9677    7.3128    2.5052 N   0  0  0  0  0  0  0  0  0  0  0  0
    1.2100    7.1461    0.3315 N   0  0  0  0  0  0  0  0  0  0  0  0
    0.8919    6.3909   -0.7251 C   0  0  0  0  0  0  0  0  0  0  0  0
    0.2007    6.8809   -1.8257 N   0  0  0  0  0  0  0  0  0  0  0  0
   -0.6846    0.5137    1.3765 O   0  0  0  0  0  0  0  0  0  0  0  0
   -1.3837    1.4190    0.3888 C   0  0  0  0  0  0  0  0  0  0  0  0
   -0.7737    3.0924    0.8089 P   0  0  0  0  0  0  0  0  0  0  0  0
    0.1346    2.3422   -0.0631 O   0  0  0  0  0  0  0  0  0  0  0  0
   -2.0643    3.5849    0.0944 O   0  0  0  0  0  0  0  0  0  0  0  0
   -0.2576    4.5083    1.1644 O   0  0  0  0  0  0  0  0  0  0  0  0
  2  1  1  6
  2  3  1  0
  2 15  1  0
  3  4  1  0
  4  5  1  0
  4  8  1  0
  5  6  2  0
  6  7  1  0
  7  8  2  0
  7 13  1  0
  8  9  1  0
  9 10  2  0
 10 11  1  0
 10 12  1  0
 12 13  2  0
 13 14  1  0
 15 16  1  0
 16 17  1  0
 17 18  1  0
 17 19  1  0
 17 20  2  0
M  CHG  2  18  -1  19  -1
M  END
>  <DRUGBANK_ID>  (1) 
DB02222

>  <SECONDARY_ACCESSION_NUMBERS>  (1) 
EXPT00361

>  <COMMON_NAME>  (1) 
2,6-Diamino-(S)-9-[2-(Phosphonomethoxy)Propyl]Purine

$$$$
