
     RDKit          3D

 15 15  0  0  0  0  0  0  0  0999 V2000
    0.2277    1.2085   -0.0196 C   0  0  0  0  0  0  0  0  0  0  0  0
   -1.1768    1.1812    0.0062 C   0  0  0  0  0  0  0  0  0  0  0  0
   -1.8648   -0.0319    0.0099 C   0  0  0  0  0  0  0  0  0  0  0  0
    0.2344   -1.2179    0.0026 C   0  0  0  0  0  0  0  0  0  0  0  0
   -1.1608   -1.2292   -0.0022 C   0  0  0  0  0  0  0  0  0  0  0  0
    0.9817    2.5023   -0.1456 C   0  0  0  0  0  0  0  0  0  0  0  0
    0.2811    3.8451   -0.0622 C   0  0  0  0  0  0  0  0  0  0  0  0
    2.1868    2.4682   -0.4131 O   0  0  0  0  0  0  0  0  0  0  0  0
    0.6775    4.6522    1.1717 C   0  0  1  0  0  0  0  0  0  0  0  0
    2.1657    5.0368    1.1931 C   0  0  0  0  0  0  0  0  0  0  0  0
   -0.1513    5.8936    1.1663 N   0  0  0  0  0  0  0  0  0  0  0  0
    2.6172    6.1596    0.9916 O   0  0  0  0  0  0  0  0  0  0  0  0
    2.9795    4.0087    1.4812 O   0  0  0  0  0  0  0  0  0  0  0  0
    0.9490   -0.0131   -0.0242 C   0  0  0  0  0  0  0  0  0  0  0  0
    2.3374   -0.0637    0.1775 N   0  0  0  0  0  0  0  0  0  0  0  0
  1  6  1  0
  1  2  2  0
  2  3  1  0
  3  5  2  0
  5  4  1  0
  6  7  1  0
  6  8  2  0
  7  9  1  0
  9 10  1  0
  9 11  1  6
 10 12  2  0
 10 13  1  0
 14  1  1  0
 14  4  2  0
 14 15  1  0
M  END
>  <DRUGBANK_ID>  (1) 
DB02070

>  <SECONDARY_ACCESSION_NUMBERS>  (1) 
EXPT01985

>  <COMMON_NAME>  (1) 
Kynurenine

>  <CAS_NUMBER>  (1) 
2922-83-0

>  <UNII>  (1) 
02JW4J5R44

>  <SYNONYMS>  (1) 
(2S)-2-amino-4-(2-aminophenyl)-4-oxobutanoic acid; 3-Anthraniloyl-L-alanine; L-kynurenine

$$$$
