
     RDKit          3D

 19 21  0  0  1  0  0  0  0  0999 V2000
    0.9191    0.0383    0.0115 C   0  0  0  0  0  0  0  0  0  0  0  0
    0.0541    7.0101   -2.1011 C   0  0  0  0  0  0  0  0  0  0  0  0
    0.4222    0.4866   -1.3675 C   0  0  2  0  0  0  0  0  0  0  0  0
   -0.6258    5.1173   -1.1178 C   0  0  0  0  0  0  0  0  0  0  0  0
   -0.7805    3.7793   -0.9075 C   0  0  0  0  0  0  0  0  0  0  0  0
   -1.1033    5.7778    0.0135 C   0  0  0  0  0  0  0  0  0  0  0  0
    1.4999    1.2193   -2.1688 C   0  0  2  0  0  0  0  0  0  0  0  0
    1.1963    2.6781   -1.9199 C   0  0  2  0  0  0  0  0  0  0  0  0
   -0.3305    2.6684   -1.7678 C   0  0  1  0  0  0  0  0  0  0  0  0
   -1.0008    7.2227    0.0865 C   0  0  0  0  0  0  0  0  0  0  0  0
   -0.0416    5.7269   -2.2241 N   0  0  0  0  0  0  0  0  0  0  0  0
   -0.3859    7.7595   -1.0330 N   0  0  0  0  0  0  0  0  0  0  0  0
   -1.4012    3.6943    0.3119 N   0  0  0  0  0  0  0  0  0  0  0  0
   -1.5931    4.9030    0.9088 N   0  0  0  0  0  0  0  0  0  0  0  0
    0.4149   -1.2619    0.3210 O   0  0  0  0  0  0  0  0  0  0  0  0
    1.3853    0.9132   -3.5680 O   0  0  0  0  0  0  0  0  0  0  0  0
    1.6925    3.4994   -2.9706 O   0  0  0  0  0  0  0  0  0  0  0  0
   -1.3943    7.9376    1.0069 O   0  0  0  0  0  0  0  0  0  0  0  0
   -0.6865    1.4109   -1.1782 O   0  0  0  0  0  0  0  0  0  0  0  0
  3  1  1  1
  5  4  2  0
  6  4  1  0
  7  3  1  0
  7 16  1  6
  8  7  1  0
  8 17  1  6
  9  8  1  0
  9  5  1  1
 10  6  1  0
 11  2  2  0
 11  4  1  0
 12  2  1  0
 12 10  1  0
 13  5  1  0
 14  6  2  0
 14 13  1  0
 15  1  1  0
 18 10  2  0
 19  3  1  0
 19  9  1  0
M  END
>  <DRUGBANK_ID>  (1) 
DB04198

>  <SECONDARY_ACCESSION_NUMBERS>  (1) 
EXPT01452

>  <COMMON_NAME>  (1) 
Formycin B

>  <UNII>  (1) 
796VMV3YML

$$$$
