4BR
     RDKit          3D

 13 13  0  0  0  0  0  0  0  0999 V2000
   -0.7973    0.8903   -0.7917 C   0  0  0  0  0  0  0  0  0  0  0  0
    0.5378    0.9328   -0.3822 C   0  0  0  0  0  0  0  0  0  0  0  0
    1.1767   -0.2483   -0.0461 C   0  0  0  0  0  0  0  0  0  0  0  0
    0.3923   -1.3988    0.0175 C   0  0  0  0  0  0  0  0  0  0  0  0
   -1.0172   -1.3306   -0.0769 C   0  0  0  0  0  0  0  0  0  0  0  0
   -1.6508   -0.1311   -0.4141 C   0  0  0  0  0  0  0  0  0  0  0  0
   -3.0223   -0.0980   -0.2480 O   0  0  0  0  0  0  0  0  0  0  0  0
   -3.7925    1.1355   -0.0795 C   0  0  0  0  0  0  0  0  0  0  0  0
   -3.5823    2.0408    1.1918 C   0  0  0  0  0  0  0  0  0  0  0  0
   -1.7827    2.3706    1.2297 P   0  0  1  0  0  0  0  0  0  0  0  0
   -1.5762    1.0944    2.0163 O   0  0  0  0  0  0  0  0  0  0  0  0
   -1.9580    3.1564   -0.0587 O   0  0  0  0  0  0  0  0  0  0  0  0
    2.6654   -0.1943    0.0332 C   0  0  0  0  0  0  0  0  0  0  0  0
  1  2  2  0
  1  6  1  0
  2  3  1  0
  3  4  2  0
  3 13  1  0
  4  5  1  0
  5  6  2  0
  6  7  1  0
  7  8  1  0
  8  9  1  0
  9 10  1  0
 10 11  1  6
 10 12  2  0
M  CHG  1  11  -1
M  END
>  <DRUGBANK_ID>  (1) 
DB07103

>  <COMMON_NAME>  (1) 
2-(4-METHYLPHENOXY)ETHYLPHOSPHINATE

$$$$
