
     RDKit          3D

 19  6  0  0  0  0  0  0  0  0999 V2000
    1.4101    0.5554   -1.5084 C   0  0  0  0  0  0  0  0  0  0  0  0
    0.7994    0.1187   -2.5070 O   0  0  0  0  0  0  0  0  0  0  0  0
    0.7736    1.0860   -0.6764 O   0  0  0  0  0  0  0  0  0  0  0  0
    2.5978    0.7581   -1.5526 O   0  0  0  0  0  0  0  0  0  0  0  0
   -0.0839   -1.4883    1.8434 C   0  0  0  0  0  0  0  0  0  0  0  0
   -0.7349   -1.4921    0.8302 O   0  0  0  0  0  0  0  0  0  0  0  0
   -0.4053   -0.8431    2.8281 O   0  0  0  0  0  0  0  0  0  0  0  0
    0.9022   -2.1850    2.1018 O   0  0  0  0  0  0  0  0  0  0  0  0
    1.1320    3.2377    0.4286 O   0  0  0  0  0  0  0  0  0  0  0  0
    0.6776   -1.8333   -0.9274 O   0  0  0  0  0  0  0  0  0  0  0  0
    3.0262   -2.3861   -1.7227 O   0  0  0  0  0  0  0  0  0  0  0  0
    2.4795   -0.1177    1.3732 O   0  0  0  0  0  0  0  0  0  0  0  0
   -1.6560    0.9431    0.5052 O   0  0  0  0  0  0  0  0  0  0  0  0
    3.9847    2.1330    0.9759 O   0  0  0  0  0  0  0  0  0  0  0  0
   -0.8659   -0.4018   -0.8402 Zn  0  0  0  0  0 15  0  0  0  0  0  0
    2.4204    2.6455   -0.9207 Zn  0  0  0  0  0 15  0  0  0  0  0  0
   -0.3119    2.1532    1.3073 Zn  0  0  0  0  0 15  0  0  0  0  0  0
    2.6244   -0.8860   -2.7928 Zn  0  0  0  0  0 15  0  0  0  0  0  0
    1.9302   -2.5845    0.5412 Zn  0  0  0  0  0 15  0  0  0  0  0  0
  2  1  2  0
  3  1  1  0
  4  1  1  0
  6  5  2  0
  7  5  1  0
  8  5  1  0
M  CHG  8   3  -1   4  -1   7  -1   8  -1   9  -1  10  -1  11  -1  12  -1
M  CHG  7  13  -1  14  -1  15   2  16   2  17   2  18   2  19   2
M  END
>  <DRUGBANK_ID>  (1) 
DB14494

>  <COMMON_NAME>  (1) 
Zinc carbonate

>  <CAS_NUMBER>  (1) 
5263-02-5

>  <UNII>  (1) 
EQR32Y7H0M

>  <SYNONYMS>  (1) 
Basic zinc carbonate; Zinc carbonate; Zinc carbonate, basic; Zinc subcarbonate

$$$$
