
     RDKit          3D

 11 11  0  0  1  0  0  0  0  0999 V2000
    0.7087    1.2241   -0.2221 C   0  0  0  0  0  0  0  0  0  0  0  0
   -2.8763    0.0469    0.2445 C   0  0  0  0  0  0  0  0  0  0  0  0
   -1.4166    0.0176   -0.2436 C   0  0  2  0  0  0  0  0  0  0  0  0
    1.4765   -0.0197    0.2507 C   0  0  2  0  0  0  0  0  0  0  0  0
   -0.7279   -1.2775    0.2311 C   0  0  2  0  0  0  0  0  0  0  0  0
    0.7452   -1.2893   -0.2136 C   0  0  2  0  0  0  0  0  0  0  0  0
   -0.6975    1.2243    0.2225 N   0  0  0  0  0  0  0  0  0  0  0  0
   -3.5343    1.2104   -0.2542 O   0  0  0  0  0  0  0  0  0  0  0  0
    1.6389    0.0210    1.6745 O   0  0  0  0  0  0  0  0  0  0  0  0
   -1.3824   -2.4467   -0.2757 O   0  0  0  0  0  0  0  0  0  0  0  0
    1.4181   -2.4543    0.2747 O   0  0  0  0  0  0  0  0  0  0  0  0
  3  2  1  1
  4  1  1  0
  4  9  1  1
  5  3  1  0
  5 10  1  6
  6  4  1  0
  6  5  1  0
  6 11  1  1
  7  1  1  0
  7  3  1  0
  8  2  1  0
M  END
>  <DRUGBANK_ID>  (1) 
DB03955

>  <SECONDARY_ACCESSION_NUMBERS>  (1) 
EXPT01145

>  <COMMON_NAME>  (1) 
1-deoxymannojirimycin

>  <CAS_NUMBER>  (1) 
84444-90-6

>  <SYNONYMS>  (1) 
D-manno-Deoxynojirimycin

$$$$
