
     RDKit          3D

 21 22  0  0  0  0  0  0  0  0999 V2000
    1.3126   -0.2478    0.1974 C   0  0  0  0  0  0  0  0  0  0  0  0
    0.4168   -1.3177    0.0481 C   0  0  0  0  0  0  0  0  0  0  0  0
    0.7322    1.0001    0.3206 C   0  0  0  0  0  0  0  0  0  0  0  0
    2.7983   -0.4825    0.2242 C   0  0  0  0  0  0  0  0  0  0  0  0
   -0.9889   -1.0968   -0.0289 C   0  0  0  0  0  0  0  0  0  0  0  0
   -0.6163    1.2238    0.2071 C   0  0  0  0  0  0  0  0  0  0  0  0
    3.7102    0.5273    0.1728 O   0  0  0  0  0  0  0  0  0  0  0  0
    3.2039   -1.6487    0.2793 O   0  0  0  0  0  0  0  0  0  0  0  0
   -1.5102    0.2044   -0.0045 C   0  0  0  0  0  0  0  0  0  0  0  0
    3.4397    1.9337    0.0078 C   0  0  0  0  0  0  0  0  0  0  0  0
   -2.8815    0.5209   -0.1740 N   0  0  0  0  0  0  0  0  0  0  0  0
    2.8295    2.2130   -1.3679 C   0  0  0  0  0  0  0  0  0  0  0  0
   -3.3578    1.8353   -0.3034 C   0  0  0  0  0  0  0  0  0  0  0  0
   -4.8691    2.0127   -0.4089 C   0  0  0  0  0  0  0  0  0  0  0  0
   -2.6589    2.8498   -0.3647 O   0  0  0  0  0  0  0  0  0  0  0  0
   -5.3345    2.8303    0.7321 N   0  0  0  0  0  0  0  0  0  0  0  0
   -5.1478    4.2745    0.4705 C   0  0  0  0  0  0  0  0  0  0  0  0
   -6.7342    2.5628    1.0638 C   0  0  0  0  0  0  0  0  0  0  0  0
   -5.4716    5.0972    1.7161 C   0  0  0  0  0  0  0  0  0  0  0  0
   -7.1267    3.3203    2.3357 C   0  0  0  0  0  0  0  0  0  0  0  0
   -6.8902    4.8211    2.1941 C   0  0  0  0  0  0  0  0  0  0  0  0
  1  2  2  0
  1  3  1  0
  1  4  1  0
  2  5  1  0
  3  6  2  0
  4  7  1  0
  4  8  2  0
  5  9  2  0
  6  9  1  0
  7 10  1  0
  9 11  1  0
 10 12  1  0
 11 13  1  0
 13 14  1  0
 13 15  2  0
 14 16  1  0
 16 17  1  0
 16 18  1  0
 17 19  1  0
 18 20  1  0
 19 21  1  0
 20 21  1  0
M  END
>  <DRUGBANK_ID>  (1) 
DB16527

>  <COMMON_NAME>  (1) 
Ethyl piperidinoacetylaminobenzoate

>  <CAS_NUMBER>  (1) 
41653-21-8

>  <UNII>  (1) 
6M452G7O1F

>  <SYNONYMS>  (1) 
EPAB; Ethyl p-(piperidinoacetylamino)benzoate; Ethyl piperidinoacetylaminobenzoate; Sulcain; Sulcaine

$$$$
