
     RDKit          3D

 24 24  0  0  1  0  0  0  0  0999 V2000
    1.0388   -0.2770    6.7276 C   0  0  0  0  0  0  0  0  0  0  0  0
    0.1314   -3.7741    4.8824 C   0  0  0  0  0  0  0  0  0  0  0  0
   -1.7262    3.1848    2.8714 C   0  0  0  0  0  0  0  0  0  0  0  0
    3.3939   -3.8727    3.9399 C   0  0  0  0  0  0  0  0  0  0  0  0
    5.5829   -0.3176    5.1610 C   0  0  0  0  0  0  0  0  0  0  0  0
    5.8448   -0.9471    3.9449 C   0  0  0  0  0  0  0  0  0  0  0  0
    4.3017    0.1257    5.4134 C   0  0  0  0  0  0  0  0  0  0  0  0
    4.8205   -1.1707    3.0023 C   0  0  0  0  0  0  0  0  0  0  0  0
    3.2992   -0.1187    4.4714 C   0  0  0  0  0  0  0  0  0  0  0  0
   -0.8580    0.8409    5.5362 C   0  0  0  0  0  0  0  0  0  0  0  0
   -1.9704    0.9395    4.7904 C   0  0  0  0  0  0  0  0  0  0  0  0
   -0.0497   -1.3047    4.6701 C   0  0  0  0  0  0  0  0  0  0  0  0
    2.2696   -1.3076    2.5551 C   0  0  0  0  0  0  0  0  0  0  0  0
    0.0365   -0.3091    5.5818 C   0  0  0  0  0  0  0  0  0  0  0  0
    0.8800   -2.4786    4.5274 C   0  0  2  0  0  0  0  0  0  0  0  0
   -3.0731    2.7920    3.4777 C   0  0  1  0  0  0  0  0  0  0  0  0
    3.5021   -0.8324    3.3055 C   0  0  0  0  0  0  0  0  0  0  0  0
   -2.9267    2.0945    4.8421 C   0  0  1  0  0  0  0  0  0  0  0  0
    1.5338   -2.5832    3.1068 C   0  0  2  0  0  0  0  0  0  0  0  0
   -3.9470    4.0086    3.6200 C   0  0  0  0  0  0  0  0  0  0  0  0
   -4.2061    1.5453    5.3041 N   0  0  0  0  0  0  0  0  0  0  0  0
   -5.0572    4.1523    3.0987 O   0  0  0  0  0  0  0  0  0  0  0  0
   -3.4503    4.9598    4.4246 O   0  0  0  0  0  0  0  0  0  0  0  0
    2.3408   -3.7748    2.9918 O   0  0  0  0  0  0  0  0  0  0  0  0
  6  5  2  0
  7  5  1  0
  8  6  1  0
  9  7  2  0
 11 10  2  0
 14  1  1  0
 14 10  1  0
 14 12  2  0
 15  2  1  6
 15 12  1  0
 16 18  1  0
 16  3  1  1
 17  8  2  0
 17  9  1  0
 17 13  1  0
 18 11  1  0
 18 21  1  6
 19 13  1  1
 19 15  1  0
 19 24  1  0
 20 16  1  0
 22 20  2  0
 23 20  1  0
 24  4  1  0
M  END
>  <DRUGBANK_ID>  (1) 
DB01850

>  <SECONDARY_ACCESSION_NUMBERS>  (1) 
EXPT02162

>  <COMMON_NAME>  (1) 
(2S,3S,8S,9S)-3-amino-9-methoxy-2,6,8-trimethyl-10-phenyldeca-4,6-dienoic acid

$$$$
