U16
     RDKit          3D

 30 30  0  0  0  0  0  0  0  0999 V2000
    7.3402    4.8094    3.9078 O   0  0  0  0  0  0  0  0  0  0  0  0
    7.6248    3.7498    3.3510 C   0  0  0  0  0  0  0  0  0  0  0  0
    8.0915    2.5010    4.1127 C   0  0  2  0  0  0  0  0  0  0  0  0
    9.5746    1.9941    3.8200 C   0  0  1  0  0  0  0  0  0  0  0  0
   10.4170    2.7357    2.7832 C   0  0  0  0  0  0  0  0  0  0  0  0
   10.3316    4.1309    2.6926 C   0  0  0  0  0  0  0  0  0  0  0  0
   10.9726    4.8554    1.7122 C   0  0  0  0  0  0  0  0  0  0  0  0
   11.8697    4.2269    0.8751 C   0  0  0  0  0  0  0  0  0  0  0  0
   12.5389    5.0617   -0.1863 C   0  0  0  0  0  0  0  0  0  0  0  0
   13.9929    5.2617    0.1584 C   0  0  0  0  0  0  0  0  0  0  0  0
   12.3776    4.4205   -1.5454 C   0  0  0  0  0  0  0  0  0  0  0  0
   12.1264    2.8610    1.0693 C   0  0  0  0  0  0  0  0  0  0  0  0
   11.3566    2.0998    1.9608 C   0  0  0  0  0  0  0  0  0  0  0  0
   10.3367    1.9957    5.0730 N   0  0  0  0  0  0  0  0  0  0  0  0
    7.1063    1.5532    3.6892 O   0  0  0  0  0  0  0  0  0  0  0  0
    7.6658    3.5788    1.9787 N   0  0  0  0  0  0  0  0  0  0  0  0
    7.1956    4.4874    0.9587 C   0  0  1  0  0  0  0  0  0  0  0  0
    8.2510    4.7888   -0.0794 C   0  0  0  0  0  0  0  0  0  0  0  0
    5.9807    3.8399    0.2669 C   0  0  0  0  0  0  0  0  0  0  0  0
    4.8905    4.4240    0.3287 O   0  0  0  0  0  0  0  0  0  0  0  0
    5.9846    2.6749   -0.4576 N   0  0  0  0  0  0  0  0  0  0  0  0
    6.8649    1.4805   -0.7482 C   0  0  2  0  0  0  0  0  0  0  0  0
    7.5798    0.9521    0.4952 C   0  0  0  0  0  0  0  0  0  0  0  0
    7.2724   -0.4731    0.9877 C   0  0  0  0  0  0  0  0  0  0  0  0
    7.6532   -1.4662   -0.0862 C   0  0  0  0  0  0  0  0  0  0  0  0
    8.0197   -0.9076    2.2664 C   0  0  0  0  0  0  0  0  0  0  0  0
    7.7960    1.5380   -1.9763 C   0  0  0  0  0  0  0  0  0  0  0  0
    7.6750    0.8531   -2.9673 O   0  0  0  0  0  0  0  0  0  0  0  0
    8.7957    2.4252   -1.7806 O   0  0  0  0  0  0  0  0  0  0  0  0
    9.5886    2.7432   -2.9133 C   0  0  0  0  0  0  0  0  0  0  0  0
  1  2  2  0
  2 16  1  0
  3 15  1  6
  3  4  1  0
  3  2  1  0
  4  5  1  0
  4 14  1  1
  5  6  2  0
  5 13  1  0
  6  7  1  0
  7  8  2  0
  8  9  1  0
  8 12  1  0
  9 10  1  0
  9 11  1  0
 12 13  2  0
 16 17  1  0
 17 18  1  6
 17 19  1  0
 19 20  2  0
 19 21  1  0
 22 27  1  0
 22 23  1  1
 22 21  1  0
 23 24  1  0
 24 25  1  0
 24 26  1  0
 27 28  2  0
 27 29  1  0
 29 30  1  0
M  END
>  <DRUGBANK_ID>  (1) 
DB08670

>  <COMMON_NAME>  (1) 
METHYL N-[(2S,3R)-3-AMINO-2-HYDROXY-3-(4-ISOPROPYLPHENYL)PROPANOYL]-D-ALANYL-D-LEUCINATE

$$$$
