7IP
     RDKit          3D

 23 25  0  0  0  0  0  0  0  0999 V2000
    1.0459    0.0545   -0.0025 C   0  0  0  0  0  0  0  0  0  0  0  0
    0.4548    1.3448   -0.0092 O   0  0  0  0  0  0  0  0  0  0  0  0
    0.9671    2.2556    0.8717 C   0  0  0  0  0  0  0  0  0  0  0  0
    2.2910    2.3055    1.3088 C   0  0  0  0  0  0  0  0  0  0  0  0
    2.7374    3.3671    2.0982 C   0  0  0  0  0  0  0  0  0  0  0  0
    1.8691    4.4008    2.4235 C   0  0  0  0  0  0  0  0  0  0  0  0
    0.5507    4.3842    1.9567 C   0  0  0  0  0  0  0  0  0  0  0  0
    0.0905    3.2774    1.2309 C   0  0  0  0  0  0  0  0  0  0  0  0
   -0.2721    5.5811    2.0738 C   0  0  0  0  0  0  0  0  0  0  0  0
   -1.5135    5.5513    2.7125 C   0  0  0  0  0  0  0  0  0  0  0  0
   -2.2838    6.7002    2.7595 C   0  0  0  0  0  0  0  0  0  0  0  0
   -1.7854    7.8861    2.2282 C   0  0  0  0  0  0  0  0  0  0  0  0
   -0.6157    7.9193    1.4693 C   0  0  0  0  0  0  0  0  0  0  0  0
   -0.2703    9.1372    0.6413 C   0  0  0  0  0  0  0  0  0  0  0  0
   -1.2481    9.4166   -0.5342 C   0  0  0  0  0  0  0  0  0  0  0  0
   -2.6724    9.7416   -0.1188 C   0  0  0  0  0  0  0  0  0  0  0  0
   -3.0242   11.0510    0.1980 C   0  0  0  0  0  0  0  0  0  0  0  0
   -4.2296   11.2673    0.8553 C   0  0  0  0  0  0  0  0  0  0  0  0
   -5.0174   10.1843    1.2264 C   0  0  0  0  0  0  0  0  0  0  0  0
   -4.6310    8.9077    0.8368 C   0  0  0  0  0  0  0  0  0  0  0  0
   -5.2410    7.7991    1.4051 N   0  0  0  0  0  0  0  0  0  0  0  0
   -3.5131    8.6975    0.1148 N   0  0  0  0  0  0  0  0  0  0  0  0
    0.1621    6.7656    1.4393 C   0  0  0  0  0  0  0  0  0  0  0  0
  1  2  1  0
  2  3  1  0
  3  4  2  0
  3  8  1  0
  4  5  1  0
  5  6  2  0
  6  7  1  0
  7  8  2  0
  7  9  1  0
  9 23  1  0
  9 10  2  0
 10 11  1  0
 11 12  2  0
 12 13  1  0
 13 23  2  0
 13 14  1  0
 14 15  1  0
 15 16  1  0
 16 22  1  0
 16 17  2  0
 17 18  1  0
 18 19  2  0
 19 20  1  0
 20 21  1  0
 20 22  2  0
M  END
>  <DRUGBANK_ID>  (1) 
DB07245

>  <COMMON_NAME>  (1) 
6-[2-(3'-METHOXYBIPHENYL-3-YL)ETHYL]PYRIDIN-2-AMINE

$$$$
