
     RDKit          3D

 22 21  0  0  0  0  0  0  0  0999 V2000
    0.8528    0.1603    0.1219 C   0  0  0  0  0  0  0  0  0  0  0  0
    0.8228    0.5007   -1.3646 C   0  0  0  0  0  0  0  0  0  0  0  0
    1.5319   -0.6330   -2.4742 C   0  0  0  0  0  0  0  0  0  0  0  0
    1.6022   -2.2641   -2.4009 N   0  0  0  0  0  0  0  0  0  0  0  0
    1.3867   -3.3857   -3.3315 C   0  0  0  0  0  0  0  0  0  0  0  0
    2.8420   -3.6575   -3.5886 C   0  0  0  0  0  0  0  0  0  0  0  0
    3.4906   -4.6276   -3.1134 O   0  0  0  0  0  0  0  0  0  0  0  0
    3.4563   -2.4722   -3.8755 O   0  0  0  0  0  0  0  0  0  0  0  0
    1.9576   -2.8734   -1.1649 C   0  0  0  0  0  0  0  0  0  0  0  0
    3.2413   -2.6708   -0.5023 C   0  0  0  0  0  0  0  0  0  0  0  0
    3.6230   -1.6280   -0.0527 O   0  0  0  0  0  0  0  0  0  0  0  0
    3.9845   -3.7599   -0.6730 O   0  0  0  0  0  0  0  0  0  0  0  0
   -0.5303    0.9308   -1.5116 O   0  0  0  0  0  0  0  0  0  0  0  0
   -0.1780   -0.8785    0.5252 N   0  0  0  0  0  0  0  0  0  0  0  0
   -1.6342   -0.9128    0.5761 C   0  0  0  0  0  0  0  0  0  0  0  0
   -2.5579   -1.0356   -0.7235 C   0  0  0  0  0  0  0  0  0  0  0  0
   -3.3524   -1.9764   -0.7871 O   0  0  0  0  0  0  0  0  0  0  0  0
   -2.4350   -0.2922   -1.8597 O   0  0  0  0  0  0  0  0  0  0  0  0
    0.0018   -2.1949   -0.0031 C   0  0  0  0  0  0  0  0  0  0  0  0
   -0.6063   -2.1943   -1.7336 C   0  0  0  0  0  0  0  0  0  0  0  0
   -0.5019   -1.3663   -2.6786 O   0  0  0  0  0  0  0  0  0  0  0  0
   -1.5421   -2.9720   -2.2303 O   0  0  0  0  0  0  0  0  0  0  0  0
  1  2  1  0
  1 14  1  0
  2  3  1  0
  2 13  1  0
  3  4  1  0
  4  5  1  0
  4  9  1  0
  5  6  1  0
  6  7  2  0
  6  8  1  0
  9 10  1  0
 10 11  2  0
 10 12  1  0
 14 15  1  0
 14 19  1  0
 15 16  1  0
 16 17  2  0
 16 18  1  0
 19 20  1  0
 20 21  2  0
 20 22  1  0
M  END
>  <DRUGBANK_ID>  (1) 
DB12362

>  <COMMON_NAME>  (1) 
Diaminopropanol tetraacetic acid

>  <CAS_NUMBER>  (1) 
3148-72-9

>  <UNII>  (1) 
949B9ZMO7M

>  <SYNONYMS>  (1) 
DAPT; Diaminohydroxypropanetetraacetic acid

$$$$
