
     RDKit          3D

 18 17  0  0  0  0  0  0  0  0999 V2000
    1.0804   -0.0116   -0.1630 C   0  0  0  0  0  0  0  0  0  0  0  0
    0.6216   -0.1770    1.2743 C   0  0  0  0  0  0  0  0  0  0  0  0
    0.9000    0.9846    2.2382 C   0  0  0  0  0  0  0  0  0  0  0  0
    0.3066    2.3095    1.6301 C   0  0  0  0  0  0  0  0  0  0  0  0
   -1.1187    2.4310    1.7517 O   0  0  0  0  0  0  0  0  0  0  0  0
   -1.9517    1.6864    0.8686 N   0  0  0  0  0  0  0  0  0  0  0  0
   -1.4315    1.1791   -0.1298 O   0  0  0  0  0  0  0  0  0  0  0  0
   -3.1172    1.6624    1.2251 O   0  0  0  0  0  0  0  0  0  0  0  0
    0.1808    0.7275    3.6176 C   0  0  0  0  0  0  0  0  0  0  0  0
    0.4879   -0.4566    4.3548 O   0  0  0  0  0  0  0  0  0  0  0  0
    0.1130   -1.7119    3.8222 N   0  0  0  0  0  0  0  0  0  0  0  0
   -0.8050   -1.7428    3.0166 O   0  0  0  0  0  0  0  0  0  0  0  0
    0.8057   -2.6315    4.2632 O   0  0  0  0  0  0  0  0  0  0  0  0
    2.4578    1.0739    2.3985 C   0  0  0  0  0  0  0  0  0  0  0  0
    3.0378   -0.1718    2.8099 O   0  0  0  0  0  0  0  0  0  0  0  0
    3.1495   -0.3498    4.2124 N   0  0  0  0  0  0  0  0  0  0  0  0
    2.8486    0.6085    4.9236 O   0  0  0  0  0  0  0  0  0  0  0  0
    3.4675   -1.4956    4.5215 O   0  0  0  0  0  0  0  0  0  0  0  0
  1  2  1  0
  2  3  1  0
  3  4  1  0
  3  9  1  0
  3 14  1  0
  4  5  1  0
  5  6  1  0
  6  7  2  0
  6  8  1  0
  9 10  1  0
 10 11  1  0
 11 12  2  0
 11 13  1  0
 14 15  1  0
 15 16  1  0
 16 17  2  0
 16 18  1  0
M  CHG  6   6   1   8  -1  11   1  13  -1  16   1  18  -1
M  END
>  <DRUGBANK_ID>  (1) 
DB13255

>  <COMMON_NAME>  (1) 
Propatyl nitrate

>  <CAS_NUMBER>  (1) 
2921-92-8

>  <UNII>  (1) 
AJT2YN495R

>  <SYNONYMS>  (1) 
Propatyl nitrate; Propatylnitrate

$$$$
