
     RDKit          3D

  9  9  0  0  0  0  0  0  0  0999 V2000
   -0.6920    1.1706   -0.0002 C   0  0  0  0  0  0  0  0  0  0  0  0
    0.6984    1.2498    0.0030 C   0  0  0  0  0  0  0  0  0  0  0  0
   -1.3611   -0.0135    0.0036 N   0  0  0  0  0  0  0  0  0  0  0  0
   -1.5399    2.4089   -0.0139 C   0  0  0  0  0  0  0  0  0  0  0  0
    1.4353    0.0672   -0.0016 C   0  0  0  0  0  0  0  0  0  0  0  0
   -0.6167   -1.1415    0.0055 C   0  0  0  0  0  0  0  0  0  0  0  0
   -2.7572    2.4713   -0.0256 O   0  0  0  0  0  0  0  0  0  0  0  0
   -0.8042    3.5446   -0.0159 O   0  0  0  0  0  0  0  0  0  0  0  0
    0.7685   -1.1523   -0.0020 C   0  0  0  0  0  0  0  0  0  0  0  0
  1  2  2  0
  1  3  1  0
  1  4  1  0
  2  5  1  0
  3  6  2  0
  4  7  2  0
  4  8  1  0
  5  9  2  0
  6  9  1  0
M  END
>  <DRUGBANK_ID>  (1) 
DB05483

>  <COMMON_NAME>  (1) 
Picolinic acid

>  <CAS_NUMBER>  (1) 
98-98-6

>  <UNII>  (1) 
QZV2W997JQ

>  <SYNONYMS>  (1) 
2-Carboxypyridine; Acide picolique

$$$$
