
     RDKit          3D

 20 22  0  0  0  0  0  0  0  0999 V2000
    0.9680    0.0559   -0.0928 C   0  0  0  0  0  0  0  0  0  0  0  0
   -2.3479    3.1315    1.5205 C   0  0  0  0  0  0  0  0  0  0  0  0
   -4.1629   -0.6205    0.1845 C   0  0  0  0  0  0  0  0  0  0  0  0
    0.4489   -0.9979    0.9083 C   0  0  2  0  0  0  0  0  0  0  0  0
   -4.2268    1.4973    0.5336 C   0  0  0  0  0  0  0  0  0  0  0  0
    0.0646   -2.3091    0.2215 C   0  0  2  0  0  0  0  0  0  0  0  0
   -1.4131   -2.1003   -0.1035 C   0  0  2  0  0  0  0  0  0  0  0  0
   -2.9637    1.0758    0.9394 C   0  0  0  0  0  0  0  0  0  0  0  0
   -4.4933    2.8688    0.6880 C   0  0  0  0  0  0  0  0  0  0  0  0
   -1.8943   -1.2250    1.0565 C   0  0  2  0  0  0  0  0  0  0  0  0
   -1.9954    1.8371    1.4560 N   0  0  0  0  0  0  0  0  0  0  0  0
   -3.5297    3.6871    1.1812 N   0  0  0  0  0  0  0  0  0  0  0  0
   -4.9587    0.4243    0.0664 N   0  0  0  0  0  0  0  0  0  0  0  0
   -2.9406   -0.2758    0.7077 N   0  0  0  0  0  0  0  0  0  0  0  0
    0.2028   -3.4290    1.1105 O   0  0  0  0  0  0  0  0  0  0  0  0
   -2.1399   -3.3288   -0.1749 O   0  0  0  0  0  0  0  0  0  0  0  0
    0.6959    1.4032    0.2606 O   0  0  0  0  0  0  0  0  0  0  0  0
   -0.7352   -0.5594    1.5966 O   0  0  0  0  0  0  0  0  0  0  0  0
   -6.0925    3.4844    0.2384 S   0  0  0  0  0  0  0  0  0  0  0  0
   -5.9528    5.2514    0.6184 C   0  0  0  0  0  0  0  0  0  0  0  0
  4  1  1  6
  6  4  1  0
  6 15  1  1
  7  6  1  0
  7 16  1  1
  8  5  2  0
  9  5  1  0
 10  7  1  0
 10 14  1  6
 11  2  2  0
 11  8  1  0
 12  2  1  0
 12  9  2  0
 13  3  2  0
 13  5  1  0
 14  3  1  0
 14  8  1  0
 17  1  1  0
 18  4  1  0
 18 10  1  0
 19  9  1  0
 19 20  1  0
M  END
>  <DRUGBANK_ID>  (1) 
DB02896

>  <SECONDARY_ACCESSION_NUMBERS>  (1) 
EXPT02248

>  <COMMON_NAME>  (1) 
Methylthioinosine

>  <CAS_NUMBER>  (1) 
342-69-8

>  <UNII>  (1) 
Y5G39SHR0V

>  <SYNONYMS>  (1) 
6-(Methylthio)purine ribonucleoside; 6-methyl MP riboside; 6-methyl MP-riboside; 6-methyl-9-ribofuranosylpurine-6-thiol; 6-methylmercaptopurine ribonucleoside; 6-methylmercaptopurine riboside; 6-Methylmercaptopurine-riboside; 6-methylthioinosine; 6-methylthiopurine riboside; 6-MMPR; 6-S-methyl-6-thioinosine; Me6MPR; methylmercaptopurine riboside; MMPR

$$$$
