PG6
     RDKit          3D

 18 17  0  0  0  0  0  0  0  0999 V2000
    1.9040    0.4533    0.5662 C   0  0  0  0  0  0  0  0  0  0  0  0
    1.1029   -0.3076    1.4506 O   0  0  0  0  0  0  0  0  0  0  0  0
    1.5400   -1.6628    1.5705 C   0  0  0  0  0  0  0  0  0  0  0  0
    1.4455   -2.5582    0.3247 C   0  0  0  0  0  0  0  0  0  0  0  0
    1.6693   -2.0509   -0.9814 O   0  0  0  0  0  0  0  0  0  0  0  0
    0.7216   -1.0294   -1.3602 C   0  0  0  0  0  0  0  0  0  0  0  0
   -0.6136   -0.7858   -0.6200 C   0  0  0  0  0  0  0  0  0  0  0  0
   -1.3881   -1.4263    0.4347 O   0  0  0  0  0  0  0  0  0  0  0  0
   -1.3342   -2.8592    0.7309 C   0  0  0  0  0  0  0  0  0  0  0  0
   -1.0683   -3.9680   -0.4857 C   0  0  0  0  0  0  0  0  0  0  0  0
   -1.0145   -3.5405   -1.8851 O   0  0  0  0  0  0  0  0  0  0  0  0
   -1.7888   -2.4310   -2.4252 C   0  0  0  0  0  0  0  0  0  0  0  0
   -3.1241   -1.7165   -2.1142 C   0  0  0  0  0  0  0  0  0  0  0  0
   -4.0717   -2.1883   -1.1321 O   0  0  0  0  0  0  0  0  0  0  0  0
   -3.8479   -3.5358   -0.7479 C   0  0  0  0  0  0  0  0  0  0  0  0
   -3.9426   -4.6933   -1.7548 C   0  0  0  0  0  0  0  0  0  0  0  0
   -3.5054   -4.4485   -3.0931 O   0  0  0  0  0  0  0  0  0  0  0  0
   -4.3065   -3.4974   -3.7688 C   0  0  0  0  0  0  0  0  0  0  0  0
  1  2  1  0
  2  3  1  0
  3  4  1  0
  4  5  1  0
  5  6  1  0
  6  7  1  0
  7  8  1  0
  8  9  1  0
  9 10  1  0
 10 11  1  0
 11 12  1  0
 12 13  1  0
 13 14  1  0
 14 15  1  0
 15 16  1  0
 16 17  1  0
 17 18  1  0
M  END
>  <DRUGBANK_ID>  (1) 
DB02580

>  <SECONDARY_ACCESSION_NUMBERS>  (1) 
EXPT02566

>  <COMMON_NAME>  (1) 
Pentaglyme

>  <CAS_NUMBER>  (1) 
1191-87-3

>  <SYNONYMS>  (1) 
pentaethyleneglycol dimethyl ether

$$$$
