3BM
     RDKit          3D

 26 27  0  0  0  0  0  0  0  0999 V2000
   -2.0346    1.4270    0.0523 C   0  0  0  0  0  0  0  0  0  0  0  0
   -0.9563    2.2423    0.2460 C   0  0  0  0  0  0  0  0  0  0  0  0
    0.2640    1.6707    0.1916 C   0  0  0  0  0  0  0  0  0  0  0  0
    0.3755    0.2793    0.0971 C   0  0  0  0  0  0  0  0  0  0  0  0
   -0.7339   -0.5744    0.0604 C   0  0  0  0  0  0  0  0  0  0  0  0
   -1.9747    0.0116    0.0337 C   0  0  0  0  0  0  0  0  0  0  0  0
   -3.0982    2.1378   -0.4719 N   0  0  0  0  0  0  0  0  0  0  0  0
   -3.4805    3.4955   -0.1366 C   0  0  0  0  0  0  0  0  0  0  0  0
   -4.1956    3.9410    1.0642 C   0  0  0  0  0  0  0  0  0  0  0  0
   -4.5976    5.3480    1.0004 C   0  0  0  0  0  0  0  0  0  0  0  0
   -4.4008    6.1869   -0.1408 C   0  0  0  0  0  0  0  0  0  0  0  0
   -3.7195    5.7042   -1.2394 C   0  0  0  0  0  0  0  0  0  0  0  0
   -3.2848    4.3895   -1.2422 C   0  0  0  0  0  0  0  0  0  0  0  0
   -4.9235    2.9743    2.3249 C   0  0  0  0  0  0  0  0  0  0  0  0
   -5.2456    1.5450    2.2661 N   0  0  0  0  0  0  0  0  0  0  0  0
   -5.3923    3.5220    3.2766 O   0  0  0  0  0  0  0  0  0  0  0  0
   -5.8692    0.8875    1.1455 O   0  0  0  0  0  0  0  0  0  0  0  0
   -5.6668    1.6345   -0.0073 C   0  0  0  0  0  0  0  0  0  0  0  0
   -6.5878    2.7075   -0.4769 C   0  0  1  0  0  0  0  0  0  0  0  0
   -7.4187    3.4045    0.5960 C   0  0  0  0  0  0  0  0  0  0  0  0
   -6.0319    3.5299   -1.5028 O   0  0  0  0  0  0  0  0  0  0  0  0
   -6.9894    4.5210    1.3508 O   0  0  0  0  0  0  0  0  0  0  0  0
    2.2803   -0.4741   -0.0213 I   0  0  0  0  0  0  0  0  0  0  0  0
   -3.3753   -1.0022   -0.1139 Cl  0  0  0  0  0  0  0  0  0  0  0  0
   -2.8213    3.8863   -2.4002 F   0  0  0  0  0  0  0  0  0  0  0  0
   -3.6127    6.4518   -2.3478 F   0  0  0  0  0  0  0  0  0  0  0  0
  1  7  1  0
  1  6  1  0
  2  1  2  0
  3  2  1  0
  3  4  2  0
  4  5  1  0
  5  6  2  0
  6 24  1  0
  8  7  1  0
  9  8  2  0
  9 14  1  0
 10  9  1  0
 11 10  2  0
 11 12  1  0
 12 13  2  0
 13  8  1  0
 13 25  1  0
 14 16  2  0
 15 14  1  0
 15 17  1  0
 17 18  1  0
 18 19  1  0
 19 20  1  0
 19 21  1  1
 20 22  1  0
 23  4  1  0
 26 12  1  0
M  END
>  <DRUGBANK_ID>  (1) 
DB07046

>  <COMMON_NAME>  (1) 
2-[(2-chloro-4-iodophenyl)amino]-N-{[(2R)-2,3-dihydroxypropyl]oxy}-3,4-difluorobenzamide

$$$$
