
     RDKit          3D

 25 27  0  0  0  0  0  0  0  0999 V2000
   -0.3872    0.2815    0.0185 C   0  0  0  0  0  0  0  0  0  0  0  0
   -1.8469    0.5216   -0.0131 C   0  0  0  0  0  0  0  0  0  0  0  0
    0.5688    1.3096    0.0055 C   0  0  0  0  0  0  0  0  0  0  0  0
    0.0437   -1.0437    0.0339 C   0  0  0  0  0  0  0  0  0  0  0  0
   -2.1473   -1.8850   -0.1000 C   0  0  0  0  0  0  0  0  0  0  0  0
   -2.7037   -0.6684   -0.1014 C   0  0  0  0  0  0  0  0  0  0  0  0
   -0.7986   -2.1278    0.0277 O   0  0  0  0  0  0  0  0  0  0  0  0
    1.9591    1.0301   -0.0158 C   0  0  0  0  0  0  0  0  0  0  0  0
    1.4003   -1.3354    0.0378 C   0  0  0  0  0  0  0  0  0  0  0  0
    2.3538   -0.3163    0.0010 C   0  0  0  0  0  0  0  0  0  0  0  0
   -3.0070   -3.0719   -0.1352 C   0  0  0  0  0  0  0  0  0  0  0  0
   -2.9937   -3.9581    0.9454 C   0  0  0  0  0  0  0  0  0  0  0  0
   -3.9106   -5.0133    1.0271 C   0  0  0  0  0  0  0  0  0  0  0  0
   -2.3809    1.6261    0.0154 O   0  0  0  0  0  0  0  0  0  0  0  0
   -4.8443   -5.2005   -0.0088 C   0  0  0  0  0  0  0  0  0  0  0  0
   -3.9246   -3.2690   -1.1690 C   0  0  0  0  0  0  0  0  0  0  0  0
   -4.8644   -4.2978   -1.0819 C   0  0  0  0  0  0  0  0  0  0  0  0
    0.1470    2.6176    0.0012 O   0  0  0  0  0  0  0  0  0  0  0  0
    2.7401    2.1607   -0.0568 O   0  0  0  0  0  0  0  0  0  0  0  0
    3.6150   -0.8359   -0.0201 O   0  0  0  0  0  0  0  0  0  0  0  0
   -3.9666   -5.8551    2.1021 O   0  0  0  0  0  0  0  0  0  0  0  0
   -5.7809   -6.2015   -0.1164 O   0  0  0  0  0  0  0  0  0  0  0  0
    4.1499    2.0178   -0.1113 C   0  0  0  0  0  0  0  0  0  0  0  0
   -3.0692   -5.6491    3.1770 C   0  0  0  0  0  0  0  0  0  0  0  0
   -5.7298   -7.2517    0.8450 C   0  0  0  0  0  0  0  0  0  0  0  0
  2  1  1  0
  3  1  2  0
  4  1  1  0
  5  6  2  0
  5  7  1  0
  6  2  1  0
  7  4  1  0
  8  3  1  0
  9  4  2  0
 10  9  1  0
 10  8  2  0
 11  5  1  0
 12 11  2  0
 13 12  1  0
 13 15  2  0
 14  2  2  0
 15 17  1  0
 16 11  1  0
 17 16  2  0
 18  3  1  0
 19  8  1  0
 20 10  1  0
 21 13  1  0
 22 15  1  0
 23 19  1  0
 24 21  1  0
 25 22  1  0
M  END
>  <DRUGBANK_ID>  (1) 
DB16885

>  <COMMON_NAME>  (1) 
Eupatilin

>  <CAS_NUMBER>  (1) 
22368-21-4

>  <UNII>  (1) 
4D58O05490

$$$$
