
     RDKit          3D

 28 29  0  0  0  0  0  0  0  0999 V2000
    1.3564   -0.1360   -0.0872 C   0  0  0  0  0  0  0  0  0  0  0  0
    0.6984    0.2009   -1.3548 N   0  0  0  0  0  0  0  0  0  0  0  0
   -0.4412   -0.5819   -1.7740 C   0  0  0  0  0  0  0  0  0  0  0  0
   -1.7954    0.2490   -1.8998 C   0  0  0  0  0  0  0  0  0  0  0  0
   -2.1928    0.8801   -2.8594 O   0  0  0  0  0  0  0  0  0  0  0  0
   -2.6956    0.2417   -0.9042 N   0  0  0  0  0  0  0  0  0  0  0  0
   -2.3520    0.3488    0.3815 C   0  0  0  0  0  0  0  0  0  0  0  0
   -3.0842   -0.1531    1.3233 N   0  0  0  0  0  0  0  0  0  0  0  0
   -2.3700   -0.0242    2.4760 C   0  0  0  0  0  0  0  0  0  0  0  0
   -1.1066    0.5641    2.3841 C   0  0  0  0  0  0  0  0  0  0  0  0
   -1.1209    1.4008    0.8837 S   0  0  0  0  0  0  0  0  0  0  0  0
   -0.1780    0.5306    3.4342 C   0  0  0  0  0  0  0  0  0  0  0  0
   -0.6750    0.1179    4.6787 C   0  0  0  0  0  0  0  0  0  0  0  0
    0.1943    0.2223    5.7347 O   0  0  0  0  0  0  0  0  0  0  0  0
   -0.3535   -0.0859    7.0137 C   0  0  0  0  0  0  0  0  0  0  0  0
   -1.3819    0.7405    7.3124 F   0  0  0  0  0  0  0  0  0  0  0  0
   -0.7822   -1.3677    7.0565 F   0  0  0  0  0  0  0  0  0  0  0  0
    0.5946    0.0692    7.9598 F   0  0  0  0  0  0  0  0  0  0  0  0
   -2.0040   -0.3018    4.8048 C   0  0  0  0  0  0  0  0  0  0  0  0
   -2.8426   -0.4218    3.7110 C   0  0  0  0  0  0  0  0  0  0  0  0
    1.0547    1.3378   -2.0726 C   0  0  0  0  0  0  0  0  0  0  0  0
    1.7143    2.2302   -1.5378 O   0  0  0  0  0  0  0  0  0  0  0  0
    0.5093    1.5128   -3.5276 C   0  0  0  0  0  0  0  0  0  0  0  0
    0.8237    0.3955   -4.4225 N   0  0  0  0  0  0  0  0  0  0  0  0
    0.0564   -0.5138   -5.1083 C   0  0  0  0  0  0  0  0  0  0  0  0
    0.6608   -1.3813   -5.7468 O   0  0  0  0  0  0  0  0  0  0  0  0
   -1.4837   -0.4917   -5.1142 C   0  0  0  0  0  0  0  0  0  0  0  0
   -2.1661   -1.3912   -4.1587 N   0  0  0  0  0  0  0  0  0  0  0  0
  1  2  1  0
  2  3  1  0
  2 21  1  0
  3  4  1  0
  4  5  2  0
  4  6  1  0
  6  7  1  0
  7  8  2  0
  7 11  1  0
  8  9  1  0
  9 10  2  0
  9 20  1  0
 10 11  1  0
 10 12  1  0
 12 13  2  0
 13 14  1  0
 13 19  1  0
 14 15  1  0
 15 16  1  0
 15 17  1  0
 15 18  1  0
 19 20  2  0
 21 22  2  0
 21 23  1  0
 23 24  1  0
 24 25  1  0
 25 26  2  0
 25 27  1  0
 27 28  1  0
M  END
>  <DRUGBANK_ID>  (1) 
DB15079

>  <COMMON_NAME>  (1) 
Troriluzole

>  <CAS_NUMBER>  (1) 
1926203-09-9

>  <UNII>  (1) 
S7H48S6K7H

>  <SYNONYMS>  (1) 
Troriluzole

$$$$
