
     RDKit          3D

 21 25  0  0  0  0  0  0  0  0999 V2000
   -2.0520   -1.4913    0.0228 N   0  0  0  0  0  0  0  0  0  0  0  0
   -1.5969    1.1290   -0.1843 N   0  0  0  0  0  0  0  0  0  0  0  0
    0.7555   -0.1807    0.1296 C   0  0  0  0  0  0  0  0  0  0  0  0
   -0.2485   -0.3210    1.3776 C   0  0  0  0  0  0  0  0  0  0  0  0
   -0.0524   -0.4043   -1.1725 C   0  0  0  0  0  0  0  0  0  0  0  0
    1.7415   -1.3428    0.1376 C   0  0  0  0  0  0  0  0  0  0  0  0
    1.7451    1.1391    0.1138 C   0  0  0  0  0  0  0  0  0  0  0  0
   -1.2934   -1.4106    1.2854 C   0  0  0  0  0  0  0  0  0  0  0  0
   -1.1685   -1.4553   -1.1629 C   0  0  0  0  0  0  0  0  0  0  0  0
   -1.2185    0.7134    1.5926 C   0  0  0  0  0  0  0  0  0  0  0  0
   -0.7981    0.7721   -1.3713 C   0  0  0  0  0  0  0  0  0  0  0  0
    3.0746   -0.7573   -0.3782 C   0  0  0  0  0  0  0  0  0  0  0  0
    3.1762    0.6412    0.1965 C   0  0  0  0  0  0  0  0  0  0  0  0
   -3.2169   -0.5205   -0.0567 C   0  0  0  0  0  0  0  0  0  0  0  0
   -2.9584    2.8990   -0.0792 C   0  0  0  0  0  0  0  0  0  0  0  0
   -3.2653    1.1645   -0.0996 C   0  0  0  0  0  0  0  0  0  0  0  0
   -1.5842    4.2454   -0.2163 C   0  0  0  0  0  0  0  0  0  0  0  0
   -2.1186    2.3388   -1.3806 C   0  0  0  0  0  0  0  0  0  0  0  0
   -1.6909    2.4306    0.7607 C   0  0  0  0  0  0  0  0  0  0  0  0
   -0.3004    4.4477   -1.1546 C   0  0  0  0  0  0  0  0  0  0  0  0
    0.0036    3.8200    0.1030 C   0  0  0  0  0  0  0  0  0  0  0  0
  1  8  1  0
  1  9  1  0
  1 14  1  0
  2 10  1  0
  2 11  1  0
  2 15  1  0
  3  4  1  0
  3  5  1  0
  3  6  1  0
  3  7  1  0
  4  8  1  0
  4 10  1  0
  5  9  1  0
  5 11  1  0
  6 12  1  0
  7 13  1  0
 12 13  1  0
 14 16  1  0
 15 17  1  0
 16 18  1  0
 16 19  1  0
 17 20  1  0
 17 21  1  0
 18 19  1  0
 20 21  1  0
M  END
>  <DRUGBANK_ID>  (1) 
DB06200

>  <COMMON_NAME>  (1) 
Tedisamil

>  <CAS_NUMBER>  (1) 
90961-53-8

>  <UNII>  (1) 
A5VAY2U3R8

>  <SYNONYMS>  (1) 
Tedisamil

$$$$
