
     RDKit          3D

 19 20  0  0  0  0  0  0  0  0999 V2000
    1.2178    1.1630   -0.0172 C   0  0  0  0  0  0  0  0  0  0  0  0
    2.5207    1.9056   -0.0463 C   0  0  0  0  0  0  0  0  0  0  0  0
    1.2179   -0.2451   -0.0099 C   0  0  0  0  0  0  0  0  0  0  0  0
   -0.0260    1.8184    0.0006 C   0  0  0  0  0  0  0  0  0  0  0  0
    2.5236    3.3959   -0.0580 C   0  0  0  0  0  0  0  0  0  0  0  0
    3.5748    1.2682   -0.0566 O   0  0  0  0  0  0  0  0  0  0  0  0
    0.0208   -0.9666   -0.0062 C   0  0  0  0  0  0  0  0  0  0  0  0
    2.3636   -0.9996   -0.0023 O   0  0  0  0  0  0  0  0  0  0  0  0
   -1.2257    1.0965    0.0156 C   0  0  0  0  0  0  0  0  0  0  0  0
    3.6666    4.1000   -0.0823 C   0  0  0  0  0  0  0  0  0  0  0  0
   -1.1922   -0.2907    0.0047 C   0  0  0  0  0  0  0  0  0  0  0  0
    3.6691    5.5722   -0.0861 C   0  0  0  0  0  0  0  0  0  0  0  0
   -2.3396   -1.0258    0.0054 O   0  0  0  0  0  0  0  0  0  0  0  0
    2.8500    6.3119    0.7833 C   0  0  0  0  0  0  0  0  0  0  0  0
    4.5235    6.2631   -0.9530 C   0  0  0  0  0  0  0  0  0  0  0  0
    2.8692    7.7118    0.7752 C   0  0  0  0  0  0  0  0  0  0  0  0
    4.5425    7.6619   -0.9635 C   0  0  0  0  0  0  0  0  0  0  0  0
    3.7210    8.3756   -0.0992 C   0  0  0  0  0  0  0  0  0  0  0  0
    3.7910    9.7365   -0.1438 O   0  0  0  0  0  0  0  0  0  0  0  0
  1  2  1  0
  1  3  2  0
  1  4  1  0
  2  5  1  0
  2  6  2  0
  3  7  1  0
  3  8  1  0
  4  9  2  0
  5 10  2  0
  7 11  2  0
  9 11  1  0
 10 12  1  0
 11 13  1  0
 12 14  2  0
 12 15  1  0
 14 16  1  0
 15 17  2  0
 16 18  2  0
 17 18  1  0
 18 19  1  0
M  END
>  <DRUGBANK_ID>  (1) 
DB03285

>  <SECONDARY_ACCESSION_NUMBERS>  (1) 
EXPT01707

>  <COMMON_NAME>  (1) 
Isoliquiritigenin

>  <CAS_NUMBER>  (1) 
961-29-5

>  <UNII>  (1) 
B9CTI9GB8F

>  <SYNONYMS>  (1) 
(E)-1-(2,4-Dihydroxy-phenyl)-3-(4-hydroxy-phenyl)-propenone; (E)-1-(2,4-dihydroxyphenyl)-3-(4-hydroxyphenyl)-2-propene-1-one; 2',4,4'-Trihydroxychalcone; 4,2',4'-Trihydroxychalcone; trans-2',4,4'-trihydroxychalcone

$$$$
