766
     RDKit          3D

 14 15  0  0  1  0  0  0  0  0999 V2000
   -1.3787   -0.5620    0.2716 O   0  0  0  0  0  0  0  0  0  0  0  0
    2.3279    0.8205    1.0159 O   0  0  0  0  0  0  0  0  0  0  0  0
   -0.8481    3.1992   -2.0323 O   0  0  0  0  0  0  0  0  0  0  0  0
   -1.5709    1.1062   -2.3801 O   0  0  0  0  0  0  0  0  0  0  0  0
   -2.6352    0.7918    3.7681 O   0  0  0  0  0  0  0  0  0  0  0  0
    0.6394    0.4344   -0.5660 N   0  0  0  0  0  0  0  0  0  0  0  0
   -0.1043   -0.8302   -0.3923 C   0  0  1  0  0  0  0  0  0  0  0  0
   -0.2867    1.5265   -0.3295 C   0  0  2  0  0  0  0  0  0  0  0  0
    1.0513   -1.3274    0.4942 C   0  0  0  0  0  0  0  0  0  0  0  0
    1.5502    0.1192    0.4038 C   0  0  0  0  0  0  0  0  0  0  0  0
   -1.3198    0.8173    0.5403 C   0  0  0  0  0  0  0  0  0  0  0  0
   -0.9729    1.9010   -1.6620 C   0  0  0  0  0  0  0  0  0  0  0  0
   -2.0019    1.3840    1.5536 C   0  0  0  0  0  0  0  0  0  0  0  0
   -3.0535    0.7540    2.4120 C   0  0  0  0  0  0  0  0  0  0  0  0
  1  7  1  0
  1 11  1  0
  2 10  2  0
  3 12  1  0
  4 12  2  0
  5 14  1  0
  6  7  1  0
  6  8  1  0
  6 10  1  0
  7  9  1  1
  8 11  1  0
  8 12  1  6
  9 10  1  0
 11 13  2  0
 13 14  1  0
M  END
>  <DRUGBANK_ID>  (1) 
DB00766

>  <SECONDARY_ACCESSION_NUMBERS>  (1) 
APRD00049

>  <COMMON_NAME>  (1) 
Clavulanic acid

>  <CAS_NUMBER>  (1) 
58001-44-8

>  <UNII>  (1) 
23521W1S24

>  <SYNONYMS>  (1) 
(Z)-(2R,5R)-3-(2-Hydroxyethylidene)-7-oxo-4-oxa-1-azabicyclo(3.2.0)heptane-2-carboxylic acid; Acide clavulanique; ácido clavulánico; Acidum clavulanicum; Clavulanate; Clavulanic acid; Clavulansäure

$$$$
