
     RDKit          3D

 14 15  0  0  1  0  0  0  0  0999 V2000
   -1.3310   -1.0860   -0.0010 C   0  0  0  0  0  0  0  0  0  0  0  0
   -2.0810    0.0460   -0.0010 C   0  0  0  0  0  0  0  0  0  0  0  0
    1.8196   -2.5470   -0.0066 C   0  0  0  0  0  0  0  0  0  0  0  0
    2.1000   -0.0470   -0.0010 C   0  0  0  0  0  0  0  0  0  0  0  0
    1.3360   -1.1060   -0.0010 C   0  0  0  0  0  0  0  0  0  0  0  0
   -0.0040   -0.6940    0.0050 C   0  0  0  0  0  0  0  0  0  0  0  0
    2.6555   -2.7961   -1.2514 C   0  0  1  0  0  0  0  0  0  0  0  0
   -0.0130    0.6960   -0.0000 C   0  0  0  0  0  0  0  0  0  0  0  0
    3.8529   -1.8599   -1.2533 C   0  0  0  0  0  0  0  0  0  0  0  0
    3.1232   -4.1897   -1.2568 N   0  0  0  0  0  0  0  0  0  0  0  0
    1.2950    1.1000   -0.0000 N   0  0  0  0  0  0  0  0  0  0  0  0
    5.0315   -2.3355   -1.2589 O   0  0  0  0  0  0  0  0  0  0  0  0
    3.6548   -0.4538   -1.2489 O   0  0  0  0  0  0  0  0  0  0  0  0
   -1.2990    1.0890   -0.0000 Se  0  0  0  0  0  2  0  0  0  0  0  0
  2  1  2  0
  5  3  1  0
  5  4  2  0
  6  1  1  0
  6  5  1  0
  7  3  1  0
  7 10  1  1
  8  6  2  0
  9  7  1  0
 11  4  1  0
 11  8  1  0
 12  9  2  0
 13  9  1  0
 14  2  1  0
 14  8  1  0
M  END
>  <DRUGBANK_ID>  (1) 
DB03043

>  <SECONDARY_ACCESSION_NUMBERS>  (1) 
EXPT00092

>  <COMMON_NAME>  (1) 
(S)-2-Amino-3-(6h-Selenolo[2,3-B]-Pyrrol-4-Yl)-Propionic Acid

$$$$
