
     RDKit          3D

 26 26  0  0  0  0  0  0  0  0999 V2000
   -1.5024   -1.7554   -0.0578 C   0  0  0  0  0  0  0  0  0  0  0  0
   -0.6240    2.2227    2.8013 C   0  0  0  0  0  0  0  0  0  0  0  0
   -3.5352    1.3947    1.9059 C   0  0  0  0  0  0  0  0  0  0  0  0
   -1.1702    1.7325    3.9147 C   0  0  0  0  0  0  0  0  0  0  0  0
   -2.7338    0.3245    2.7251 C   0  0  0  0  0  0  0  0  0  0  0  0
    1.9335   -0.4450   -0.2562 C   0  0  0  0  0  0  0  0  0  0  0  0
    0.2613    3.0022   -0.0330 C   0  0  0  0  0  0  0  0  0  0  0  0
    3.0797    1.8006   -0.0222 C   0  0  0  0  0  0  0  0  0  0  0  0
   -0.3589   -0.7837   -0.2295 C   0  0  0  0  0  0  0  0  0  0  0  0
    1.8296    0.9609   -0.3289 C   0  0  0  0  0  0  0  0  0  0  0  0
    0.5121    1.5124   -0.3343 C   0  0  0  0  0  0  0  0  0  0  0  0
    0.2627    3.3789    2.4676 C   0  0  0  0  0  0  0  0  0  0  0  0
   -0.5692    0.5955   -0.3854 C   0  0  0  0  0  0  0  0  0  0  0  0
    0.8651    4.2180    3.6621 C   0  0  0  0  0  0  0  0  0  0  0  0
   -2.8060    2.5784    1.3885 N   0  0  0  0  0  0  0  0  0  0  0  0
    0.8853   -1.3070   -0.1716 N   0  0  0  0  0  0  0  0  0  0  0  0
    0.7325    3.5841    1.2674 N   0  0  0  0  0  0  0  0  0  0  0  0
   -1.8574    1.0192   -0.5441 O   0  0  0  0  0  0  0  0  0  0  0  0
    1.9387    4.8234    3.5432 O   0  0  0  0  0  0  0  0  0  0  0  0
    0.3291    3.9803    4.8613 O   0  0  0  0  0  0  0  0  0  0  0  0
    1.6878    0.7591    2.1120 O   0  0  0  0  0  0  0  0  0  0  0  0
    3.7028    0.6804    3.3681 O   0  0  0  0  0  0  0  0  0  0  0  0
    1.8856    2.0631    3.8928 O   0  0  0  0  0  0  0  0  0  0  0  0
   -2.1650    0.7857    3.9632 O   0  0  0  0  0  0  0  0  0  0  0  0
    3.7437    1.5233    1.2464 O   0  0  0  0  0  0  0  0  0  0  0  0
    2.7632    1.8082    2.6429 P   0  0  0  0  0  0  0  0  0  0  0  0
  4  2  2  0
  5  3  1  0
  9  1  1  0
 10  6  2  0
 10  8  1  0
 11  7  1  0
 11 10  1  0
 12  2  1  0
 13  9  1  0
 13 11  2  0
 14 12  1  0
 15  3  1  0
 16  6  1  0
 16  9  2  0
 17  7  1  0
 17 12  2  0
 18 13  1  0
 19 14  2  0
 20 14  1  0
 24  4  1  0
 24  5  1  0
 25  8  1  0
 26 21  1  0
 26 22  1  0
 26 23  2  0
 26 25  1  0
M  END
>  <DRUGBANK_ID>  (1) 
DB03287

>  <SECONDARY_ACCESSION_NUMBERS>  (1) 
EXPT02640

>  <COMMON_NAME>  (1) 
4-(2-Amino-Ethoxy)-2-[(3-Hydroxy-2-Methyl-5-Phosphonooxymethyl-Pyridin-4-Ylmethyl)-Amino]-but-3-Enoic Acid

$$$$
