
     RDKit          3D

 27 29  0  0  0  0  0  0  0  0999 V2000
    0.9953   -0.1145   -0.0734 C   0  0  0  0  0  0  0  0  0  0  0  0
    0.5350    0.0890   -1.4272 N   0  0  0  0  0  0  0  0  0  0  0  0
    0.1612   -0.8995   -2.2921 C   0  0  0  0  0  0  0  0  0  0  0  0
   -0.2185   -0.4039   -3.4481 N   0  0  0  0  0  0  0  0  0  0  0  0
   -0.2987    0.9635   -3.2556 C   0  0  0  0  0  0  0  0  0  0  0  0
    0.2038    1.3005   -1.9993 C   0  0  0  0  0  0  0  0  0  0  0  0
    0.3127    2.6213   -1.5217 C   0  0  0  0  0  0  0  0  0  0  0  0
   -0.2893    3.6762   -2.2782 C   0  0  0  0  0  0  0  0  0  0  0  0
   -0.9307    3.3234   -3.6466 C   0  0  0  0  0  0  0  0  0  0  0  0
   -0.7875    1.9706   -4.1212 C   0  0  0  0  0  0  0  0  0  0  0  0
   -0.9067    1.6557   -5.4265 F   0  0  0  0  0  0  0  0  0  0  0  0
   -1.3318    4.4183   -4.7245 N   0  0  0  0  0  0  0  0  0  0  0  0
   -1.2813    4.2477   -6.1690 C   0  0  0  0  0  0  0  0  0  0  0  0
   -0.2732    4.6231   -7.1420 C   0  0  0  0  0  0  0  0  0  0  0  0
   -0.3998    4.1775   -8.4634 C   0  0  0  0  0  0  0  0  0  0  0  0
   -1.6451    3.6805   -8.8443 C   0  0  0  0  0  0  0  0  0  0  0  0
   -2.6449    3.4131   -7.9143 C   0  0  0  0  0  0  0  0  0  0  0  0
   -2.3977    3.5837   -6.5909 C   0  0  0  0  0  0  0  0  0  0  0  0
   -3.2793    3.1881   -5.6657 F   0  0  0  0  0  0  0  0  0  0  0  0
   -2.0931    3.4537  -10.6574 Br  0  0  0  0  0  0  0  0  0  0  0  0
    0.3625    5.1507   -1.7179 C   0  0  0  0  0  0  0  0  0  0  0  0
    0.8734    5.2214   -0.6404 O   0  0  0  0  0  0  0  0  0  0  0  0
    0.5028    6.3292   -2.5728 N   0  0  0  0  0  0  0  0  0  0  0  0
    1.1198    6.2540   -3.8910 O   0  0  0  0  0  0  0  0  0  0  0  0
    1.1104    4.9377   -4.3207 C   0  0  0  0  0  0  0  0  0  0  0  0
    2.1785    3.9418   -4.1841 C   0  0  0  0  0  0  0  0  0  0  0  0
    2.8469    4.1257   -2.9742 O   0  0  0  0  0  0  0  0  0  0  0  0
  1  2  1  0
  2  3  1  0
  2  6  1  0
  3  4  2  0
  4  5  1  0
  5  6  2  0
  5 10  1  0
  6  7  1  0
  7  8  2  0
  8  9  1  0
  8 21  1  0
  9 10  2  0
  9 12  1  0
 10 11  1  0
 12 13  1  0
 13 14  2  0
 13 18  1  0
 14 15  1  0
 15 16  2  0
 16 17  1  0
 16 20  1  0
 17 18  2  0
 18 19  1  0
 21 22  2  0
 21 23  1  0
 23 24  1  0
 24 25  1  0
 25 26  1  0
 26 27  1  0
M  END
>  <DRUGBANK_ID>  (1) 
DB11967

>  <SECONDARY_ACCESSION_NUMBERS>  (1) 
DB05985

>  <COMMON_NAME>  (1) 
Binimetinib

>  <CAS_NUMBER>  (1) 
606143-89-9

>  <UNII>  (1) 
181R97MR71

>  <SYNONYMS>  (1) 
Binimetinib

$$$$
