
     RDKit          3D

 11 10  0  0  0  0  0  0  0  0999 V2000
    0.9991    0.1653   -0.1159 C   0  0  0  0  0  0  0  0  0  0  0  0
    0.5071   -1.0179   -0.9595 C   0  0  0  0  0  0  0  0  0  0  0  0
    1.0110   -2.3851   -0.4678 C   0  0  2  0  0  0  0  0  0  0  0  0
    0.5823   -3.4196   -1.4184 N   0  0  0  0  0  0  0  0  0  0  0  0
    1.4104   -4.2764   -2.0778 C   0  0  0  0  0  0  0  0  0  0  0  0
    0.4860   -2.7203    0.9391 C   0  0  0  0  0  0  0  0  0  0  0  0
   -0.2912   -3.6150    1.2426 O   0  0  0  0  0  0  0  0  0  0  0  0
    0.9618   -1.8899    1.8914 O   0  0  0  0  0  0  0  0  0  0  0  0
    0.3690    1.7256   -0.8168 S   0  0  0  0  0  0  0  0  0  0  0  0
    1.0096    2.9093    0.4008 C   0  0  0  0  0  0  0  0  0  0  0  0
    1.0015   -5.1713   -2.8057 O   0  0  0  0  0  0  0  0  0  0  0  0
  1  9  1  0
  2  1  1  0
  3  2  1  6
  3  6  1  0
  3  4  1  0
  4  5  1  0
  5 11  2  0
  6  7  2  0
  6  8  1  0
  9 10  1  0
M  END
>  <DRUGBANK_ID>  (1) 
DB04464

>  <SECONDARY_ACCESSION_NUMBERS>  (1) 
EXPT01455

>  <COMMON_NAME>  (1) 
N-Formylmethionine

>  <CAS_NUMBER>  (1) 
4289-98-9

>  <UNII>  (1) 
PS9357B4XH

>  <SYNONYMS>  (1) 
(2S)-2-(formylamino)-4-(methylthio)butanoic acid; Formyl-methionine; L-N-Formylmethionine; N-formyl-L-methionine

$$$$
