
     RDKit          3D

 20 20  0  0  0  0  0  0  0  0999 V2000
    0.9376   -0.1381    1.7339 P   0  0  2  0  0  0  0  0  0  0  0  0
    1.7734    1.2943    1.7006 O   0  0  0  0  0  0  0  0  0  0  0  0
    1.9094   -1.0889    0.7925 O   0  0  0  0  0  0  0  0  0  0  0  0
    0.1856    0.4071    0.4951 O   0  0  0  0  0  0  0  0  0  0  0  0
   -0.5380    2.6358    1.6018 C   0  0  1  0  0  0  0  0  0  0  0  0
    1.0163    2.3835    1.0787 C   0  0  1  0  0  0  0  0  0  0  0  0
   -1.1010    3.6749    0.6144 C   0  0  0  0  0  0  0  0  0  0  0  0
    1.1954    4.6810    0.1516 C   0  0  1  0  0  0  0  0  0  0  0  0
    1.8486    3.6587    1.0898 C   0  0  0  0  0  0  0  0  0  0  0  0
   -0.2556    4.9414    0.5643 C   0  0  0  0  0  0  0  0  0  0  0  0
   -1.6532    1.4518    1.7678 C   0  0  0  0  0  0  0  0  0  0  0  0
    1.9962    5.9733    0.1404 C   0  0  0  0  0  0  0  0  0  0  0  0
   -1.4148    0.4777    2.9335 C   0  0  0  0  0  0  0  0  0  0  0  0
   -3.1141    1.8296    1.9746 C   0  0  0  0  0  0  0  0  0  0  0  0
    1.8264   -0.7826    3.1980 C   0  0  0  0  0  0  0  0  0  0  0  0
    2.7660    0.2713    3.8122 C   0  0  0  0  0  0  0  0  0  0  0  0
    2.0098    1.5122    4.3321 C   0  0  0  0  0  0  0  0  0  0  0  0
    1.0244    1.1938    5.4444 C   0  0  0  0  0  0  0  0  0  0  0  0
    1.7259    0.6526    6.6665 C   0  0  0  0  0  0  0  0  0  0  0  0
    2.7173    1.6719    7.1893 C   0  0  0  0  0  0  0  0  0  0  0  0
  1  2  1  0
  1  3  1  0
  1  4  2  0
  1 15  1  0
  5  6  1  0
  5  7  1  0
  5 11  1  6
  6  9  1  0
  6  2  1  1
  7 10  1  0
  8  9  1  0
  8 10  1  0
  8 12  1  1
 11 13  1  0
 11 14  1  0
 15 16  1  0
 16 17  1  0
 17 18  1  0
 18 19  1  0
 19 20  1  0
M  END
>  <DRUGBANK_ID>  (1) 
DB08200

>  <COMMON_NAME>  (1) 
(1R)-menthyl hexyl phosphonate group

$$$$
