
     RDKit          3D

 28 30  0  0  0  0  0  0  0  0999 V2000
   -6.0924    3.0620   -0.2181 C   0  0  0  0  0  0  0  0  0  0  0  0
   -5.1290    4.0568   -0.0898 C   0  0  0  0  0  0  0  0  0  0  0  0
   -5.5427    5.3788    0.0074 C   0  0  0  0  0  0  0  0  0  0  0  0
   -6.9055    5.7170    0.0035 C   0  0  0  0  0  0  0  0  0  0  0  0
   -7.8605    4.6848   -0.0646 C   0  0  0  0  0  0  0  0  0  0  0  0
   -7.4393    3.3665   -0.1671 C   0  0  0  0  0  0  0  0  0  0  0  0
   -7.3552    7.1174    0.0644 C   0  0  0  0  0  0  0  0  0  0  0  0
   -6.5291    8.1816    0.1166 C   0  0  0  0  0  0  0  0  0  0  0  0
   -6.9939    9.5665    0.1623 C   0  0  0  0  0  0  0  0  0  0  0  0
   -8.0222    9.9647    1.0240 C   0  0  0  0  0  0  0  0  0  0  0  0
   -8.4237   11.3004    1.0747 C   0  0  0  0  0  0  0  0  0  0  0  0
   -7.7823   12.2368    0.2696 C   0  0  0  0  0  0  0  0  0  0  0  0
   -6.7501   11.8596   -0.5804 C   0  0  0  0  0  0  0  0  0  0  0  0
   -6.3479   10.5255   -0.6284 C   0  0  0  0  0  0  0  0  0  0  0  0
   -8.2900    2.3021   -0.2205 O   0  0  0  0  0  0  0  0  0  0  0  0
   -8.1337   13.5535    0.2862 O   0  0  0  0  0  0  0  0  0  0  0  0
   -3.2930    2.5192   -0.0180 C   0  0  2  0  0  0  0  0  0  0  0  0
   -3.6588    1.8598   -1.2333 O   0  0  0  0  0  0  0  0  0  0  0  0
   -3.7235    1.7763    1.2788 C   0  0  1  0  0  0  0  0  0  0  0  0
   -3.2213    0.5054   -1.3159 C   0  0  1  0  0  0  0  0  0  0  0  0
   -3.3692    0.2900    1.1964 C   0  0  2  0  0  0  0  0  0  0  0  0
   -3.1756    2.3865    2.4569 O   0  0  0  0  0  0  0  0  0  0  0  0
   -3.7821   -0.3194   -0.1541 C   0  0  2  0  0  0  0  0  0  0  0  0
   -3.7129   -0.0625   -2.6555 C   0  0  0  0  0  0  0  0  0  0  0  0
   -4.0131   -0.4218    2.2641 O   0  0  0  0  0  0  0  0  0  0  0  0
   -3.3454   -1.6750   -0.2547 O   0  0  0  0  0  0  0  0  0  0  0  0
   -3.2055    0.7182   -3.7369 O   0  0  0  0  0  0  0  0  0  0  0  0
   -3.7746    3.8699   -0.0301 O   0  0  0  0  0  0  0  0  0  0  0  0
  1  2  2  0
  2  3  1  0
  2 28  1  0
  3  4  2  0
  4  7  1  0
  4  5  1  0
  5  6  2  0
  6 15  1  0
  6  1  1  0
  7  8  2  0
  8  9  1  0
  9 10  2  0
 10 11  1  0
 11 12  2  0
 12 16  1  0
 12 13  1  0
 13 14  2  0
 14  9  1  0
 17 18  1  0
 17 19  1  0
 17 28  1  6
 18 20  1  0
 19 21  1  0
 19 22  1  1
 20 23  1  0
 20 24  1  6
 21 25  1  1
 21 23  1  0
 23 26  1  1
 24 27  1  0
M  END
>  <DRUGBANK_ID>  (1) 
DB11263

>  <COMMON_NAME>  (1) 
Polydatin

>  <CAS_NUMBER>  (1) 
27208-80-6

>  <UNII>  (1) 
XM261C37CQ

>  <SYNONYMS>  (1) 
3,4,5-Trihydroxystilbene-3-beta-monoglucoside; 3,4',5-trihydroxystilbene-3-β-d-glucoside; Piceid; Polydatin (E)-isomer; Resveratrol 3-O-beta-glucopyranoside; resveratrol-3-O-b-mono-D-glucoside; trans-piceid; trans-resveratrol 3-O-β-D-glucoside; trans-resveratrol 3-β-D-glucoside; trans-resveratrol 3-β-glucoside

$$$$
