
     RDKit          3D

 15 15  0  0  0  0  0  0  0  0999 V2000
    1.4828   -0.1541    0.2013 C   0  0  0  0  0  0  0  0  0  0  0  0
    0.8290    2.8462   -5.1901 C   0  0  0  0  0  0  0  0  0  0  0  0
    0.9446    0.1721    1.5832 C   0  0  0  0  0  0  0  0  0  0  0  0
    1.1274    1.6432    1.9640 C   0  0  0  0  0  0  0  0  0  0  0  0
   -1.1191   -0.0282   -1.4974 C   0  0  0  0  0  0  0  0  0  0  0  0
   -0.5715   -0.3725   -2.7422 C   0  0  0  0  0  0  0  0  0  0  0  0
    0.5502    2.6996    1.0152 C   0  0  0  0  0  0  0  0  0  0  0  0
   -0.6419    2.2917   -1.9402 C   0  0  0  0  0  0  0  0  0  0  0  0
   -1.5782    1.6827    0.3280 C   0  0  0  0  0  0  0  0  0  0  0  0
   -1.1331    1.3056   -1.0693 C   0  0  0  0  0  0  0  0  0  0  0  0
   -0.0785    0.6274   -3.5870 C   0  0  0  0  0  0  0  0  0  0  0  0
   -0.0984    1.9622   -3.1895 C   0  0  0  0  0  0  0  0  0  0  0  0
    0.4408    0.2460   -4.7977 O   0  0  0  0  0  0  0  0  0  0  0  0
    0.3953    3.0551   -3.8561 O   0  0  0  0  0  0  0  0  0  0  0  0
   -0.8737    2.7709    0.9340 O   0  0  0  0  0  0  0  0  0  0  0  0
  3  1  1  0
  4  3  1  0
  6  5  2  0
  7  4  1  0
 10  5  1  0
 10  8  2  0
 10  9  1  0
 11  6  1  0
 12  8  1  0
 12 11  2  0
 13 11  1  0
 14  2  1  0
 14 12  1  0
 15  7  1  0
 15  9  1  0
M  END
>  <DRUGBANK_ID>  (1) 
DB11299

>  <COMMON_NAME>  (1) 
Vanillyl butyl ether

>  <CAS_NUMBER>  (1) 
82654-98-6

>  <UNII>  (1) 
S2ULN37C9R

>  <SYNONYMS>  (1) 
4-(Butoxymethyl)-2-methoxyphenol; Butyl vanillyl ether

$$$$
