
     RDKit          3D

 35 39  0  0  0  0  0  0  0  0999 V2000
    3.2358    0.4175    0.0016 Cl  0  0  0  0  0  0  0  0  0  0  0  0
    1.5848   -0.0661   -0.0060 C   0  0  0  0  0  0  0  0  0  0  0  0
    1.2641   -1.4116    0.0007 C   0  0  0  0  0  0  0  0  0  0  0  0
   -0.0775   -1.7939   -0.0030 C   0  0  0  0  0  0  0  0  0  0  0  0
   -1.1138   -0.8196    0.0008 C   0  0  0  0  0  0  0  0  0  0  0  0
   -2.5009   -1.1411    0.0176 C   0  0  0  0  0  0  0  0  0  0  0  0
   -2.9356   -2.4489   -0.0539 N   0  0  0  0  0  0  0  0  0  0  0  0
   -4.3230   -2.8579    0.0087 C   0  0  0  0  0  0  0  0  0  0  0  0
   -4.6659   -3.6199   -1.2640 C   0  0  0  0  0  0  0  0  0  0  0  0
   -3.9658   -4.9566   -1.3155 C   0  0  0  0  0  0  0  0  0  0  0  0
   -4.2735   -5.7996   -0.1651 N   0  0  0  0  0  0  0  0  0  0  0  0
   -5.6668   -5.8114    0.3164 C   0  0  0  0  0  0  0  0  0  0  0  0
   -5.8011   -6.5859    1.6348 C   0  0  0  0  0  0  0  0  0  0  0  0
   -5.3138   -8.0228    1.4410 C   0  0  0  0  0  0  0  0  0  0  0  0
   -3.9748   -7.9560    0.7230 C   0  0  0  0  0  0  0  0  0  0  0  0
   -3.8596   -7.1452   -0.5178 C   0  0  0  0  0  0  0  0  0  0  0  0
   -5.2773   -8.7120    2.7407 N   0  0  0  0  0  0  0  0  0  0  0  0
   -4.6651  -10.0763    2.7789 C   0  0  0  0  0  0  0  0  0  0  0  0
   -3.1554  -10.1718    2.4479 C   0  0  0  0  0  0  0  0  0  0  0  0
   -2.3188   -9.0714    2.6076 C   0  0  0  0  0  0  0  0  0  0  0  0
   -1.1805   -8.9972    1.8094 C   0  0  0  0  0  0  0  0  0  0  0  0
   -0.7029  -10.1488    1.2144 C   0  0  0  0  0  0  0  0  0  0  0  0
   -1.4461  -11.3020    1.3694 C   0  0  0  0  0  0  0  0  0  0  0  0
   -2.6984  -11.3174    1.8740 N   0  0  0  0  0  0  0  0  0  0  0  0
   -4.8545  -10.7619    4.1338 C   0  0  0  0  0  0  0  0  0  0  0  0
   -4.5490  -12.1243    4.2275 C   0  0  0  0  0  0  0  0  0  0  0  0
   -4.5259  -12.7286    5.4722 C   0  0  0  0  0  0  0  0  0  0  0  0
   -4.8527  -11.9733    6.5884 C   0  0  0  0  0  0  0  0  0  0  0  0
   -5.1687  -10.6343    6.4152 C   0  0  0  0  0  0  0  0  0  0  0  0
   -5.1590  -10.0054    5.2226 N   0  0  0  0  0  0  0  0  0  0  0  0
   -3.4094   -0.0796    0.0132 C   0  0  0  0  0  0  0  0  0  0  0  0
   -2.9522    1.2129    0.0125 C   0  0  0  0  0  0  0  0  0  0  0  0
   -1.6522    1.5452   -0.0000 N   0  0  0  0  0  0  0  0  0  0  0  0
   -0.7579    0.5420   -0.0054 C   0  0  0  0  0  0  0  0  0  0  0  0
    0.5827    0.9019   -0.0145 C   0  0  0  0  0  0  0  0  0  0  0  0
  1  2  1  0
  2  3  2  0
  2 35  1  0
  3  4  1  0
  4  5  2  0
  5  6  1  0
  5 34  1  0
  6  7  1  0
  6 31  2  0
  7  8  1  0
  8  9  1  0
  9 10  1  0
 10 11  1  0
 11 12  1  0
 11 16  1  0
 12 13  1  0
 13 14  1  0
 14 15  1  0
 14 17  1  0
 15 16  1  0
 17 18  1  0
 18 19  1  0
 18 25  1  0
 19 20  2  0
 19 24  1  0
 20 21  1  0
 21 22  2  0
 22 23  1  0
 23 24  2  0
 25 26  2  0
 25 30  1  0
 26 27  1  0
 27 28  2  0
 28 29  1  0
 29 30  2  0
 31 32  1  0
 32 33  2  0
 33 34  1  0
 34 35  2  0
M  END
>  <DRUGBANK_ID>  (1) 
DB18600

>  <COMMON_NAME>  (1) 
DM-1157

>  <CAS_NUMBER>  (1) 
1239953-66-2

>  <UNII>  (1) 
6X58GJ0RMS

>  <SYNONYMS>  (1) 
4-quinolinamine, 7-chloro-n-(3-(4-((di-2-pyridinylmethyl)amino)-1-piperidinyl)propyl)-

$$$$
