
     RDKit          3D

 28 30  0  0  0  0  0  0  0  0999 V2000
    0.0562    1.0900   -0.0842 C   0  0  2  0  0  0  0  0  0  0  0  0
    0.1101   -0.5198   -0.2472 C   0  0  1  0  0  0  0  0  0  0  0  0
    1.6516    1.2091   -0.0330 C   0  0  0  0  0  0  0  0  0  0  0  0
   -1.2751    1.2263    0.7237 C   0  0  0  0  0  0  0  0  0  0  0  0
   -0.1596    2.5227   -0.6403 C   0  0  0  0  0  0  0  0  0  0  0  0
   -1.0813   -1.4684   -0.3894 C   0  0  0  0  0  0  0  0  0  0  0  0
    1.4791   -1.1390   -0.5386 C   0  0  0  0  0  0  0  0  0  0  0  0
    2.4540   -0.0800   -0.2256 C   0  0  0  0  0  0  0  0  0  0  0  0
    2.6986    2.3643    0.1820 C   0  0  1  0  0  0  0  0  0  0  0  0
   -2.5144    0.4294    0.2309 C   0  0  0  0  0  0  0  0  0  0  0  0
   -0.8898   -2.9229   -0.1062 C   0  0  0  0  0  0  0  0  0  0  0  0
   -2.2984   -0.9750   -0.2492 C   0  0  0  0  0  0  0  0  0  0  0  0
    3.4625    2.4092   -1.2031 C   0  0  0  0  0  0  0  0  0  0  0  0
    2.3657    3.7660    0.7405 C   0  0  0  0  0  0  0  0  0  0  0  0
   -0.1612   -3.5121    0.8673 C   0  0  0  0  0  0  0  0  0  0  0  0
    2.5809    2.7910   -2.4402 C   0  0  0  0  0  0  0  0  0  0  0  0
    0.6974   -2.9005    1.9259 C   0  0  0  0  0  0  0  0  0  0  0  0
    2.2220    4.2655   -2.4705 C   0  0  0  0  0  0  0  0  0  0  0  0
    0.2862   -1.9105    2.7329 C   0  0  0  0  0  0  0  0  0  0  0  0
    2.1430   -3.4059    1.9594 C   0  0  0  0  0  0  0  0  0  0  0  0
    3.4816    5.0780   -2.2241 C   0  0  0  0  0  0  0  0  0  0  0  0
    1.2169   -1.0242    3.5144 C   0  0  0  0  0  0  0  0  0  0  0  0
   -1.1384   -1.4274    2.8370 C   0  0  0  0  0  0  0  0  0  0  0  0
    3.1684   -2.5842    2.7715 C   0  0  2  0  0  0  0  0  0  0  0  0
    4.3870    4.8694   -3.4267 C   0  0  0  0  0  0  0  0  0  0  0  0
    3.1518    6.5185   -1.9257 C   0  0  0  0  0  0  0  0  0  0  0  0
    2.6843   -1.3943    3.5922 C   0  0  0  0  0  0  0  0  0  0  0  0
    4.2288   -2.1348    1.9200 O   0  0  0  0  0  0  0  0  0  0  0  0
  1  2  1  0
  1  3  1  0
  1  4  1  0
  1  5  1  6
  2  6  1  0
  2  7  1  6
  3  8  1  0
  3  9  1  0
  4 10  1  0
  6 12  2  0
  6 11  1  0
  7  8  1  0
  9 13  1  0
  9 14  1  6
 10 12  1  0
 11 15  2  0
 13 16  1  0
 15 17  1  0
 16 18  1  0
 17 19  2  0
 17 20  1  0
 18 21  1  0
 19 22  1  0
 19 23  1  0
 20 24  1  0
 21 25  1  0
 21 26  1  0
 22 27  1  0
 24 28  1  6
 24 27  1  0
M  END
>  <DRUGBANK_ID>  (1) 
DB15614

>  <COMMON_NAME>  (1) 
Previtamin D(3)

>  <CAS_NUMBER>  (1) 
1173-13-3

>  <UNII>  (1) 
HDA46400N5

>  <SYNONYMS>  (1) 
Precalciferol; Precholecalciferol; Previtamin D; Previtamin D(3); Previtamin D3

$$$$
