
     RDKit          3D

 14 13  0  0  0  0  0  0  0  0999 V2000
    0.9324   -0.0356    0.0958 C   0  0  0  0  0  0  0  0  0  0  0  0
    0.4616    1.3793    0.3248 C   0  0  0  0  0  0  0  0  0  0  0  0
    0.9776    2.2930   -0.7661 C   0  0  0  0  0  0  0  0  0  0  0  0
    0.4074    2.0167   -2.1709 C   0  0  0  0  0  0  0  0  0  0  0  0
   -1.1501    1.8569   -2.2650 C   0  0  0  0  0  0  0  0  0  0  0  0
   -2.0222    3.1057   -2.1281 C   0  0  0  0  0  0  0  0  0  0  0  0
   -1.9252    3.9140   -3.4184 C   0  0  0  0  0  0  0  0  0  0  0  0
    1.0844    2.9398   -3.2048 C   0  0  0  0  0  0  0  0  0  0  0  0
    1.5939    2.4663   -4.2245 O   0  0  0  0  0  0  0  0  0  0  0  0
    1.1033    4.3105   -3.0403 N   0  0  0  0  0  0  0  0  0  0  0  0
    0.2854    5.1130   -2.1208 C   0  0  0  0  0  0  0  0  0  0  0  0
    0.9201    6.1992   -1.3206 C   0  0  0  0  0  0  0  0  0  0  0  0
    0.4102    7.2831   -1.1572 O   0  0  0  0  0  0  0  0  0  0  0  0
    2.0067    5.7434   -0.6369 N   0  0  0  0  0  0  0  0  0  0  0  0
  1  2  1  0
  2  3  1  0
  3  4  1  0
  4  5  1  0
  4  8  1  0
  5  6  1  0
  6  7  1  0
  8  9  2  0
  8 10  1  0
 10 11  1  0
 11 12  1  0
 12 13  2  0
 12 14  1  0
M  END
>  <DRUGBANK_ID>  (1) 
DB06657

>  <COMMON_NAME>  (1) 
Valrocemide

>  <CAS_NUMBER>  (1) 
92262-58-3

>  <UNII>  (1) 
1C7GO6OW7L

>  <SYNONYMS>  (1) 
N-Valproylglycinamide; Valrocemide

$$$$
