
     RDKit          3D

 29 32  0  0  1  0  0  0  0  0999 V2000
    4.8188   -2.7917   -0.4013 O   0  0  0  0  0  0  0  0  0  0  0  0
    3.8915   -3.6070   -0.4447 C   0  0  0  0  0  0  0  0  0  0  0  0
    4.1359   -4.8060   -1.2520 C   0  0  0  0  0  0  0  0  0  0  0  0
    3.1725   -5.3687   -2.0780 C   0  0  0  0  0  0  0  0  0  0  0  0
    3.5690   -6.4868   -2.8446 C   0  0  0  0  0  0  0  0  0  0  0  0
    2.7219   -7.1145   -3.6493 N   0  0  0  0  0  0  0  0  0  0  0  0
    1.4869   -6.6257   -3.7127 C   0  0  0  0  0  0  0  0  0  0  0  0
    0.6392   -7.3096   -4.5175 C   0  0  0  0  0  0  0  0  0  0  0  0
   -0.6680   -6.8921   -4.6356 C   0  0  0  0  0  0  0  0  0  0  0  0
   -1.2025   -5.7592   -3.9778 C   0  0  0  0  0  0  0  0  0  0  0  0
   -2.5510   -5.2913   -4.0725 C   0  0  0  0  0  0  0  0  0  0  0  0
   -3.6017   -5.8360   -4.7777 O   0  0  0  0  0  0  0  0  0  0  0  0
   -3.3929   -7.0216   -5.5232 C   0  0  0  0  0  0  0  0  0  0  0  0
   -2.9433   -4.1296   -3.3834 C   0  0  0  0  0  0  0  0  0  0  0  0
   -2.0424   -3.4191   -2.6005 C   0  0  0  0  0  0  0  0  0  0  0  0
   -0.7335   -3.8751   -2.4879 C   0  0  0  0  0  0  0  0  0  0  0  0
   -0.2919   -5.0417   -3.1550 C   0  0  0  0  0  0  0  0  0  0  0  0
    1.0410   -5.4907   -3.0010 C   0  0  0  0  0  0  0  0  0  0  0  0
    1.9119   -4.8795   -2.1715 N   0  0  0  0  0  0  0  0  0  0  0  0
    4.8612   -6.9804   -2.7925 C   0  0  0  0  0  0  0  0  0  0  0  0
    5.8153   -6.3855   -1.9846 C   0  0  0  0  0  0  0  0  0  0  0  0
    5.4511   -5.2944   -1.2187 C   0  0  0  0  0  0  0  0  0  0  0  0
    2.6949   -3.4678    0.2284 N   0  0  0  0  0  0  0  0  0  0  0  0
    2.3288   -2.2365    0.9508 C   0  0  2  0  0  0  0  0  0  0  0  0
    2.9665   -1.0228    0.2668 C   0  0  0  0  0  0  0  0  0  0  0  0
    2.6546   -2.3386    2.4809 C   0  0  0  0  0  0  0  0  0  0  0  0
    2.2835   -1.1794    3.3405 N   0  0  0  0  0  0  0  0  0  0  0  0
    2.6119   -1.4646    4.7432 C   0  0  0  0  0  0  0  0  0  0  0  0
    2.9997    0.0502    2.9929 C   0  0  0  0  0  0  0  0  0  0  0  0
  1  2  2  0
  2  3  1  0
  2 23  1  0
  3  4  2  0
  3 22  1  0
  4  5  1  0
  4 19  1  0
  5  6  1  0
  5 20  2  0
  6  7  2  0
  7  8  1  0
  7 18  1  0
  8  9  2  0
  9 10  1  0
 10 11  1  0
 10 17  2  0
 11 12  1  0
 11 14  2  0
 12 13  1  0
 14 15  1  0
 15 16  2  0
 16 17  1  0
 17 18  1  0
 18 19  2  0
 20 21  1  0
 21 22  2  0
 24 26  1  0
 24 25  1  6
 24 23  1  0
 26 27  1  0
 27 28  1  0
 27 29  1  0
M  END
>  <DRUGBANK_ID>  (1) 
DB06517

>  <COMMON_NAME>  (1) 
MLN576

>  <CAS_NUMBER>  (1) 
346689-77-8

>  <UNII>  (1) 
Q2L4XU3YX6

$$$$
