
     RDKit          3D

 12 11  0  0  1  0  0  0  0  0999 V2000
   -0.6103    1.7787   -0.6590 C   0  0  0  0  0  0  0  0  0  0  0  0
    1.5620   -0.0376    3.1142 C   0  0  0  0  0  0  0  0  0  0  0  0
    0.1718    1.2079    0.5059 C   0  0  2  0  0  0  0  0  0  0  0  0
    1.8739   -1.2052    2.1704 C   0  0  2  0  0  0  0  0  0  0  0  0
    1.0518    0.0091    0.0576 C   0  0  2  0  0  0  0  0  0  0  0  0
    0.9574   -1.2749    0.9197 C   0  0  2  0  0  0  0  0  0  0  0  0
   -0.3742    2.8639   -1.1647 O   0  0  0  0  0  0  0  0  0  0  0  0
    0.2594   -0.2214    3.6706 O   0  0  0  0  0  0  0  0  0  0  0  0
   -0.7733    0.9064    1.5410 O   0  0  0  0  0  0  0  0  0  0  0  0
    1.7872   -2.4298    2.9043 O   0  0  0  0  0  0  0  0  0  0  0  0
    2.4264    0.4273   -0.0478 O   0  0  0  0  0  0  0  0  0  0  0  0
   -0.4141   -1.5873    1.2161 O   0  0  0  0  0  0  0  0  0  0  0  0
  3  9  1  1
  3  5  1  0
  3  1  1  0
  4  2  1  0
  4 10  1  1
  5 11  1  1
  5  6  1  0
  6  4  1  0
  6 12  1  1
  7  1  2  0
  8  2  1  0
M  END
>  <DRUGBANK_ID>  (1) 
DB12907

>  <COMMON_NAME>  (1) 
Mannose

>  <CAS_NUMBER>  (1) 
3458-28-4

>  <UNII>  (1) 
PHA4727WTP

>  <SYNONYMS>  (1) 
D-mannose

$$$$
