
     RDKit          3D

 20 21  0  0  0  0  0  0  0  0999 V2000
   -1.2322    1.4939    0.0768 N   0  0  0  0  0  0  0  0  0  0  0  0
   -2.4148    0.7131   -0.3464 C   0  0  2  0  0  0  0  0  0  0  0  0
   -2.3586   -0.6505    0.3567 C   0  0  0  0  0  0  0  0  0  0  0  0
   -1.2098   -1.3523    0.0514 N   0  0  0  0  0  0  0  0  0  0  0  0
    0.0077   -0.6551   -0.0317 C   0  0  0  0  0  0  0  0  0  0  0  0
    1.1965   -1.3905   -0.0916 C   0  0  0  0  0  0  0  0  0  0  0  0
    2.4174   -0.7210   -0.0515 C   0  0  0  0  0  0  0  0  0  0  0  0
    2.4356    0.6633    0.0270 C   0  0  0  0  0  0  0  0  0  0  0  0
    1.2604    1.4000    0.0662 C   0  0  0  0  0  0  0  0  0  0  0  0
    0.0190    0.7618    0.0465 C   0  0  0  0  0  0  0  0  0  0  0  0
   -1.2954    2.8235    0.5118 C   0  0  0  0  0  0  0  0  0  0  0  0
   -0.3153    3.4452    0.9275 O   0  0  0  0  0  0  0  0  0  0  0  0
   -2.5280    3.4203    0.4703 O   0  0  0  0  0  0  0  0  0  0  0  0
   -3.2869   -1.1483    0.9842 O   0  0  0  0  0  0  0  0  0  0  0  0
    3.6070    1.3110    0.0516 F   0  0  0  0  0  0  0  0  0  0  0  0
   -2.3826    0.4469   -1.8813 C   0  0  0  0  0  0  0  0  0  0  0  0
   -3.5390   -0.4275   -2.3513 C   0  0  0  0  0  0  0  0  0  0  0  0
   -2.6134    4.8150    0.9175 C   0  0  0  0  0  0  0  0  0  0  0  0
   -2.2266    5.0056    2.3895 C   0  0  0  0  0  0  0  0  0  0  0  0
   -1.8246    5.7698    0.0146 C   0  0  0  0  0  0  0  0  0  0  0  0
  1  2  1  0
  1 10  1  0
  1 11  1  0
  2  3  1  0
  2 16  1  6
  3  4  1  0
  3 14  2  0
  4  5  1  0
  5  6  1  0
  5 10  2  0
  6  7  2  0
  7  8  1  0
  8  9  2  0
  8 15  1  0
  9 10  1  0
 11 12  2  0
 11 13  1  0
 13 18  1  0
 16 17  1  0
 18 19  1  0
 18 20  1  0
M  END
>  <DRUGBANK_ID>  (1) 
DB07884

>  <COMMON_NAME>  (1) 
Opaviraline

>  <CAS_NUMBER>  (1) 
178040-94-3

>  <UNII>  (1) 
Q3A8EU2NMU

>  <SYNONYMS>  (1) 
Opaviraline

$$$$
