
     RDKit          3D

  8  7  0  0  0  0  0  0  0  0999 V2000
    0.9852    0.0037    0.0166 O   0  0  0  0  0  0  0  0  0  0  0  0
    0.3681    1.0125   -0.6005 C   0  0  0  0  0  0  0  0  0  0  0  0
    1.0123    1.8847   -1.1797 O   0  0  0  0  0  0  0  0  0  0  0  0
   -1.1040    0.9565   -0.5714 C   0  0  0  0  0  0  0  0  0  0  0  0
   -1.8106   -0.1781   -1.7153 P   0  0  0  0  0  0  0  0  0  0  0  0
   -3.3054    0.4079   -1.7863 O   0  0  0  0  0  0  0  0  0  0  0  0
   -1.1713    0.2568   -3.1197 O   0  0  0  0  0  0  0  0  0  0  0  0
   -1.7991   -1.6447   -1.4538 O   0  0  0  0  0  0  0  0  0  0  0  0
  1  2  1  0
  2  3  2  0
  2  4  1  0
  4  5  1  0
  5  6  1  0
  5  7  1  0
  5  8  2  0
M  END
>  <DRUGBANK_ID>  (1) 
DB02823

>  <SECONDARY_ACCESSION_NUMBERS>  (1) 
EXPT02488

>  <COMMON_NAME>  (1) 
Phosphonoacetic Acid

>  <CAS_NUMBER>  (1) 
4408-78-0

>  <UNII>  (1) 
N919E46723

$$$$
