FXN
     RDKit          3D

 16 17  0  0  0  0  0  0  0  0999 V2000
    3.0772    0.4396    0.0016 F   0  0  0  0  0  0  0  0  0  0  0  0
    1.7944    0.0567    0.0067 C   0  0  0  0  0  0  0  0  0  0  0  0
    0.8171    1.0274    0.0044 C   0  0  0  0  0  0  0  0  0  0  0  0
    1.4628   -1.2949    0.0145 C   0  0  0  0  0  0  0  0  0  0  0  0
    0.1224   -1.7290    0.0106 C   0  0  0  0  0  0  0  0  0  0  0  0
   -0.8627   -0.7376   -0.0027 C   0  0  0  0  0  0  0  0  0  0  0  0
   -2.2470   -0.7858   -0.0194 N   0  0  0  0  0  0  0  0  0  0  0  0
   -0.5129    0.6010   -0.0020 C   0  0  0  0  0  0  0  0  0  0  0  0
   -1.6972    1.3337   -0.0099 C   0  0  0  0  0  0  0  0  0  0  0  0
   -2.7935    0.4983   -0.0054 C   0  0  0  0  0  0  0  0  0  0  0  0
   -4.2321    0.7361    0.0080 C   0  0  0  0  0  0  0  0  0  0  0  0
   -5.0382   -0.1886   -0.0096 O   0  0  0  0  0  0  0  0  0  0  0  0
   -4.7459    2.0178    0.0470 N   0  0  0  0  0  0  0  0  0  0  0  0
   -4.0873    3.3121    0.0840 C   0  0  0  0  0  0  0  0  0  0  0  0
   -4.2288    4.1275   -1.1907 C   0  0  0  0  0  0  0  0  0  0  0  0
   -5.8845    4.8505   -1.2811 S   0  0  0  0  0  0  0  0  0  0  0  0
  1  2  1  0
  2  3  2  0
  2  4  1  0
  3  8  1  0
  4  5  2  0
  5  6  1  0
  6  7  1  0
  6  8  2  0
  7 10  1  0
  8  9  1  0
  9 10  2  0
 10 11  1  0
 11 12  2  0
 11 13  1  0
 13 14  1  0
 14 15  1  0
 15 16  1  0
M  END
>  <DRUGBANK_ID>  (1) 
DB03384

>  <SECONDARY_ACCESSION_NUMBERS>  (1) 
EXPT01514

>  <COMMON_NAME>  (1) 
Fica

$$$$
