1151
     RDKit          3D

 20 22  0  0  0  0  0  0  0  0999 V2000
    0.0358   -0.8835   -0.9895 N   0  0  0  0  0  0  0  0  0  0  0  0
   -2.9179   -1.7741   -3.1741 N   0  0  0  0  0  0  0  0  0  0  0  0
    0.5050    1.9904   -0.0026 C   0  0  0  0  0  0  0  0  0  0  0  0
   -0.7614    1.8604   -0.8635 C   0  0  0  0  0  0  0  0  0  0  0  0
    1.2814   -0.4491   -0.5066 C   0  0  0  0  0  0  0  0  0  0  0  0
   -1.1525   -0.5360   -0.3291 C   0  0  0  0  0  0  0  0  0  0  0  0
    0.0016   -1.3390   -2.4027 C   0  0  0  0  0  0  0  0  0  0  0  0
    1.4922    0.8301    0.0509 C   0  0  0  0  0  0  0  0  0  0  0  0
   -1.6362    0.7705   -0.3086 C   0  0  0  0  0  0  0  0  0  0  0  0
   -0.6507   -2.7182   -2.5911 C   0  0  0  0  0  0  0  0  0  0  0  0
    2.2957   -1.4226   -0.4132 C   0  0  0  0  0  0  0  0  0  0  0  0
   -1.8079   -1.5075    0.4354 C   0  0  0  0  0  0  0  0  0  0  0  0
    2.6935    1.0623    0.7457 C   0  0  0  0  0  0  0  0  0  0  0  0
   -2.8527    1.0547    0.3408 C   0  0  0  0  0  0  0  0  0  0  0  0
   -2.1684   -2.7648   -2.3989 C   0  0  0  0  0  0  0  0  0  0  0  0
    3.4769   -1.1693    0.2694 C   0  0  0  0  0  0  0  0  0  0  0  0
   -3.0645   -1.2568    0.9882 C   0  0  0  0  0  0  0  0  0  0  0  0
    3.6703    0.0709    0.8616 C   0  0  0  0  0  0  0  0  0  0  0  0
   -3.5835    0.0261    0.9399 C   0  0  0  0  0  0  0  0  0  0  0  0
   -4.2594   -1.6305   -2.6055 C   0  0  0  0  0  0  0  0  0  0  0  0
  1  5  1  0
  1  6  1  0
  1  7  1  0
  2 15  1  0
  2 20  1  0
  3  4  1  0
  3  8  1  0
  4  9  1  0
  5  8  2  0
  5 11  1  0
  6  9  2  0
  6 12  1  0
  7 10  1  0
  8 13  1  0
  9 14  1  0
 10 15  1  0
 11 16  2  0
 12 17  2  0
 13 18  2  0
 14 19  2  0
 16 18  1  0
 17 19  1  0
M  END
>  <DRUGBANK_ID>  (1) 
DB01151

>  <SECONDARY_ACCESSION_NUMBERS>  (1) 
APRD00022; DB07682

>  <COMMON_NAME>  (1) 
Desipramine

>  <CAS_NUMBER>  (1) 
50-47-5

>  <UNII>  (1) 
TG537D343B

>  <SYNONYMS>  (1) 
5-(gamma-methylaminopropyl)iminodibenzyl; 5-(γ-methylaminopropyl)iminodibenzyl; Déméthylimipramine; Desipramin; Desipramina; Desipramine; Désipramine; Desipraminum; Desmethylimipramine; DMI; Monodemethylimipramine; N-(3-methylaminopropyl)iminobibenzyl; Norimipramine

$$$$
