
     RDKit          3D

 26 30  0  0  1  0  0  0  0  0999 V2000
    3.4098    0.9874    1.2916 C   0  0  0  0  0  0  0  0  0  0  0  0
    3.0211    0.7394   -0.1849 C   0  0  2  0  0  0  0  0  0  0  0  0
    2.1265    1.8835   -0.6840 C   0  0  0  0  0  0  0  0  0  0  0  0
    0.7501    1.8681    0.0155 C   0  0  0  0  0  0  0  0  0  0  0  0
    0.0176    0.5007   -0.0693 C   0  0  1  0  0  0  0  0  0  0  0  0
    0.9438   -0.6735    0.3588 C   0  0  2  0  0  0  0  0  0  0  0  0
    2.2442   -0.5760   -0.4234 C   0  0  2  0  0  0  0  0  0  0  0  0
    3.2609   -1.6648   -0.1585 C   0  0  0  0  0  0  0  0  0  0  0  0
    4.5557   -1.0565   -0.6624 C   0  0  0  0  0  0  0  0  0  0  0  0
    4.2964    0.4383   -1.0214 C   0  0  2  0  0  0  0  0  0  0  0  0
    5.4089    1.3075   -0.7352 O   0  0  0  0  0  0  0  0  0  0  0  0
    6.5958    0.9954   -1.3598 C   0  0  0  0  0  0  0  0  0  0  0  0
    6.8799   -0.0593   -2.1317 C   0  0  0  0  0  0  0  0  0  0  0  0
    8.3027   -0.1572   -2.5041 C   0  0  0  0  0  0  0  0  0  0  0  0
    8.8184    1.2318   -2.1679 C   0  0  0  0  0  0  0  0  0  0  0  0
    7.7974    1.8805   -1.2104 C   0  0  0  0  0  0  0  0  0  0  0  0
    0.2596   -2.0311    0.1205 C   0  0  0  0  0  0  0  0  0  0  0  0
   -1.0905   -2.1221    0.8210 C   0  0  0  0  0  0  0  0  0  0  0  0
   -1.9531   -0.9447    0.4425 C   0  0  0  0  0  0  0  0  0  0  0  0
   -3.1444   -1.1388   -0.1509 C   0  0  0  0  0  0  0  0  0  0  0  0
   -3.9667   -0.0091   -0.6249 C   0  0  0  0  0  0  0  0  0  0  0  0
   -5.0382   -0.1966   -1.1972 O   0  0  0  0  0  0  0  0  0  0  0  0
   -3.4515    1.3519   -0.3959 C   0  0  0  0  0  0  0  0  0  0  0  0
   -2.2706    1.5468    0.2052 C   0  0  0  0  0  0  0  0  0  0  0  0
   -1.3490    0.4423    0.6965 C   0  0  2  0  0  0  0  0  0  0  0  0
   -1.1793    0.6491    2.2176 C   0  0  0  0  0  0  0  0  0  0  0  0
  2  1  1  1
  2  3  1  0
  2  7  1  0
  2 10  1  0
  3  4  1  0
  5  4  1  1
  5  6  1  0
  5 25  1  0
  6  7  1  0
  6 17  1  6
  7  8  1  1
  8  9  1  0
  9 10  1  0
 10 11  1  1
 11 12  1  0
 12 13  2  0
 12 16  1  0
 13 14  1  0
 14 15  1  0
 15 16  1  0
 17 18  1  0
 18 19  1  0
 19 20  2  0
 19 25  1  0
 20 21  1  0
 21 22  2  0
 21 23  1  0
 23 24  2  0
 24 25  1  0
 25 26  1  1
M  END
>  <DRUGBANK_ID>  (1) 
DB13484

>  <COMMON_NAME>  (1) 
Quinbolone

>  <CAS_NUMBER>  (1) 
2487-63-0

>  <UNII>  (1) 
W59598KWLX

>  <SYNONYMS>  (1) 
Quinbolone

$$$$
