
     RDKit          3D

 22 24  0  0  0  0  0  0  0  0999 V2000
    0.0947    1.8157   -0.0140 O   0  0  0  0  0  0  0  0  0  0  0  0
    0.0305    0.4461    0.0038 C   0  0  0  0  0  0  0  0  0  0  0  0
   -1.1920   -0.2201    0.0362 C   0  0  0  0  0  0  0  0  0  0  0  0
   -2.6787    0.6550    0.0135 Cl  0  0  0  0  0  0  0  0  0  0  0  0
   -1.2364   -1.6155    0.0825 C   0  0  0  0  0  0  0  0  0  0  0  0
   -0.0577   -2.3796    0.0388 C   0  0  0  0  0  0  0  0  0  0  0  0
    1.1707   -1.7054    0.0006 C   0  0  0  0  0  0  0  0  0  0  0  0
    1.2110   -0.3025   -0.0045 C   0  0  0  0  0  0  0  0  0  0  0  0
    2.7503    0.4800   -0.0125 Cl  0  0  0  0  0  0  0  0  0  0  0  0
   -0.0743   -3.8931    0.0830 C   0  0  0  0  0  0  0  0  0  0  0  0
    0.9739   -4.5152    0.2214 O   0  0  0  0  0  0  0  0  0  0  0  0
   -1.3053   -4.5229    0.0536 N   0  0  0  0  0  0  0  0  0  0  0  0
   -1.7104   -5.5493    1.0368 C   0  0  0  0  0  0  0  0  0  0  0  0
   -3.3779   -6.1357    0.5761 S   0  0  0  0  0  0  0  0  0  0  0  0
   -3.3502   -7.5392    0.2070 O   0  0  0  0  0  0  0  0  0  0  0  0
   -4.3736   -5.5764    1.4620 O   0  0  0  0  0  0  0  0  0  0  0  0
   -3.3879   -5.1836   -0.8980 C   0  0  0  0  0  0  0  0  0  0  0  0
   -4.4082   -5.1306   -1.8349 C   0  0  0  0  0  0  0  0  0  0  0  0
   -4.2330   -4.2870   -2.9377 C   0  0  0  0  0  0  0  0  0  0  0  0
   -3.0501   -3.5557   -3.0988 C   0  0  0  0  0  0  0  0  0  0  0  0
   -2.0277   -3.6587   -2.1607 C   0  0  0  0  0  0  0  0  0  0  0  0
   -2.2171   -4.4399   -1.0270 C   0  0  0  0  0  0  0  0  0  0  0  0
  1  2  1  0
  2  3  2  0
  2  8  1  0
  3  4  1  0
  3  5  1  0
  5  6  2  0
  6  7  1  0
  6 10  1  0
  7  8  2  0
  8  9  1  0
 10 11  2  0
 10 12  1  0
 12 13  1  0
 12 22  1  0
 13 14  1  0
 14 15  2  0
 14 16  2  0
 14 17  1  0
 17 18  1  0
 17 22  2  0
 18 19  2  0
 19 20  1  0
 20 21  2  0
 21 22  1  0
M  END
>  <DRUGBANK_ID>  (1) 
DB16145

>  <COMMON_NAME>  (1) 
Dotinurad

>  <CAS_NUMBER>  (1) 
1285572-51-1

>  <UNII>  (1) 
305EB53128

>  <SYNONYMS>  (1) 
Dotinurad

$$$$
