
     RDKit          3D

 21 24  0  0  1  0  0  0  0  0999 V2000
   -2.2910    0.3457    0.6617 C   0  0  0  0  0  0  0  0  0  0  0  0
   -0.9066    0.9876    0.3345 C   0  0  1  0  0  0  0  0  0  0  0  0
    0.2807   -0.2447    0.5140 C   0  0  0  0  0  0  0  0  0  0  0  0
    0.0345   -1.0846   -0.6784 C   0  0  0  0  0  0  0  0  0  0  0  0
    0.1043   -0.2851   -1.9622 C   0  0  2  0  0  0  0  0  0  0  0  0
   -0.4279    1.1291   -1.8972 C   0  0  1  0  0  0  0  0  0  0  0  0
    0.0050    1.7504   -0.3197 C   0  0  1  0  0  0  0  0  0  0  0  0
   -0.4339    1.6850    1.6173 C   0  0  0  0  0  0  0  0  0  0  0  0
   -0.1784    3.0151    1.9841 C   0  0  0  0  0  0  0  0  0  0  0  0
   -1.0206    2.8829    0.6635 C   0  0  1  0  0  0  0  0  0  0  0  0
   -0.9825    4.3884    0.3706 C   0  0  0  0  0  0  0  0  0  0  0  0
   -2.3138    2.8640    0.0225 O   0  0  0  0  0  0  0  0  0  0  0  0
    0.0051    1.4534   -3.4558 C   0  0  0  0  0  0  0  0  0  0  0  0
   -0.6303    0.2220   -4.6859 C   0  0  0  0  0  0  0  0  0  0  0  0
   -0.7142   -1.4955   -4.3633 C   0  0  0  0  0  0  0  0  0  0  0  0
   -1.3986   -2.7927   -4.1401 C   0  0  0  0  0  0  0  0  0  0  0  0
   -1.7549   -3.0223   -2.5209 C   0  0  0  0  0  0  0  0  0  0  0  0
   -1.1081   -3.7719   -1.8133 O   0  0  0  0  0  0  0  0  0  0  0  0
   -2.6965   -1.9032   -2.0566 C   0  0  0  0  0  0  0  0  0  0  0  0
   -2.2562   -0.8558   -2.9878 C   0  0  0  0  0  0  0  0  0  0  0  0
   -0.6342   -1.0799   -2.9900 C   0  0  2  0  0  0  0  0  0  0  0  0
  2  3  1  0
  2  7  1  0
  2 10  1  0
  2  1  1  6
  3  4  1  0
  5  4  1  1
  5  6  1  0
  5 21  1  0
  6  7  1  0
  6 13  1  6
  7  8  1  6
  8  9  1  0
  9 10  1  0
 10 11  1  6
 10 12  1  0
 13 14  1  0
 14 15  1  0
 15 16  2  0
 15 21  1  0
 16 17  1  0
 17 19  1  0
 17 18  2  0
 19 20  1  0
 21 20  1  6
M  END
>  <DRUGBANK_ID>  (1) 
DB13533

>  <COMMON_NAME>  (1) 
Methylestrenolone

>  <CAS_NUMBER>  (1) 
514-61-4

>  <UNII>  (1) 
743F1Z557A

>  <SYNONYMS>  (1) 
Normethandrone

$$$$
