
     RDKit          3D

 34 35  0  0  0  0  0  0  0  0999 V2000
   -0.0098   -0.6595   -0.0447 C   0  0  0  0  0  0  0  0  0  0  0  0
    0.0585    0.7454   -0.0262 C   0  0  0  0  0  0  0  0  0  0  0  0
    1.3255    1.3954    0.0414 C   0  0  0  0  0  0  0  0  0  0  0  0
    1.3233    2.8996    0.1447 C   0  0  0  0  0  0  0  0  0  0  0  0
    2.5083    0.6035    0.0206 C   0  0  0  0  0  0  0  0  0  0  0  0
    2.4021   -0.8064   -0.0455 C   0  0  0  0  0  0  0  0  0  0  0  0
    1.1439   -1.4349   -0.0771 C   0  0  0  0  0  0  0  0  0  0  0  0
    1.0861   -2.9419   -0.1404 C   0  0  0  0  0  0  0  0  0  0  0  0
    3.5811   -1.7161   -0.0799 C   0  0  0  0  0  0  0  0  0  0  0  0
    3.8090    1.2896    0.0551 O   0  0  0  0  0  0  0  0  0  0  0  0
    5.1386    0.7851    0.0267 C   0  0  0  0  0  0  0  0  0  0  0  0
    5.5286   -0.3555   -0.0210 O   0  0  0  0  0  0  0  0  0  0  0  0
    6.2147    1.8040    0.0614 C   0  0  0  0  0  0  0  0  0  0  0  0
   -1.2328    1.5399   -0.0223 C   0  0  0  0  0  0  0  0  0  0  0  0
   -2.4068    0.6717   -0.4577 C   0  0  0  0  0  0  0  0  0  0  0  0
   -2.3626   -0.6407    0.3215 C   0  0  0  0  0  0  0  0  0  0  0  0
   -1.1801   -1.3662   -0.0262 O   0  0  0  0  0  0  0  0  0  0  0  0
   -2.3483   -0.3804    1.8551 C   0  0  0  0  0  0  0  0  0  0  0  0
   -3.5192    0.4823    2.3391 C   0  0  0  0  0  0  0  0  0  0  0  0
   -4.8682   -0.2074    2.1733 C   0  0  0  0  0  0  0  0  0  0  0  0
   -4.8407   -1.5999    2.8260 C   0  0  0  0  0  0  0  0  0  0  0  0
   -4.7326   -1.3579    4.3418 C   0  0  0  0  0  0  0  0  0  0  0  0
   -5.8834   -0.4881    4.8621 C   0  0  0  0  0  0  0  0  0  0  0  0
   -7.2325   -1.1653    4.6378 C   0  0  0  0  0  0  0  0  0  0  0  0
   -7.2196   -2.5662    5.2720 C   0  0  0  0  0  0  0  0  0  0  0  0
   -7.1148   -2.3401    6.7885 C   0  0  0  0  0  0  0  0  0  0  0  0
   -8.2516   -1.4582    7.3252 C   0  0  0  0  0  0  0  0  0  0  0  0
   -9.6214   -2.1146    7.1709 C   0  0  0  0  0  0  0  0  0  0  0  0
   -9.6122   -3.5238    7.7777 C   0  0  0  0  0  0  0  0  0  0  0  0
   -9.4431   -3.3613    9.2801 C   0  0  0  0  0  0  0  0  0  0  0  0
  -10.8592   -4.3047    7.4086 C   0  0  0  0  0  0  0  0  0  0  0  0
   -8.3373   -3.4590    4.7337 C   0  0  0  0  0  0  0  0  0  0  0  0
   -5.9514   -2.5058    2.2875 C   0  0  0  0  0  0  0  0  0  0  0  0
   -3.5055   -1.5523   -0.1597 C   0  0  0  0  0  0  0  0  0  0  0  0
  2  1  1  0
  3  2  2  0
  4  3  1  0
  5  3  1  0
  5  6  2  0
  6  7  1  0
  7  1  2  0
  8  7  1  0
  9  6  1  0
 10  5  1  0
 10 11  1  0
 11 12  2  0
 11 13  1  0
 14  2  1  0
 14 15  1  0
 15 16  1  0
 16 17  1  0
 16 18  1  0
 16 34  1  0
 17  1  1  0
 19 18  1  0
 20 19  1  0
 21 20  1  0
 21 33  1  0
 22 21  1  0
 23 22  1  0
 24 23  1  0
 25 24  1  0
 25 32  1  0
 26 25  1  0
 27 26  1  0
 28 27  1  0
 29 28  1  0
 30 29  1  0
 31 29  1  0
M  END
>  <DRUGBANK_ID>  (1) 
DB14477

>  <COMMON_NAME>  (1) 
DL-alpha tocopheryl acetate

>  <CAS_NUMBER>  (1) 
52225-20-4

>  <UNII>  (1) 
WR1WPI7EW8

>  <SYNONYMS>  (1) 
all-rac-alfa-tocopheryl acetate; all-rac-alpha-tocopheryl acetate; DL-alpha-tocopheryl acetate

$$$$
