
     RDKit          3D

 20 23  0  0  0  0  0  0  0  0999 V2000
   -2.0800    0.1474    0.0012 F   0  0  0  0  0  0  0  0  0  0  0  0
   -0.7402    0.0866   -0.0174 C   0  0  0  0  0  0  0  0  0  0  0  0
   -0.0255    1.2742   -0.0298 C   0  0  0  0  0  0  0  0  0  0  0  0
    1.3762    1.2303   -0.0369 C   0  0  0  0  0  0  0  0  0  0  0  0
    1.9756   -0.0351   -0.0393 C   0  0  0  0  0  0  0  0  0  0  0  0
    1.1713   -1.1683   -0.0214 C   0  0  0  0  0  0  0  0  0  0  0  0
   -0.1760   -1.1353   -0.0059 N   0  0  0  0  0  0  0  0  0  0  0  0
    2.1870    2.4643    0.0230 C   0  0  0  0  0  0  0  0  0  0  0  0
    2.0258    3.3464    1.0963 C   0  0  0  0  0  0  0  0  0  0  0  0
    2.7920    4.5103    1.1698 C   0  0  0  0  0  0  0  0  0  0  0  0
    3.7051    4.7558    0.1356 C   0  0  0  0  0  0  0  0  0  0  0  0
    3.7848    3.8087   -0.8800 C   0  0  0  0  0  0  0  0  0  0  0  0
    3.0780    2.6599   -0.9881 N   0  0  0  0  0  0  0  0  0  0  0  0
    4.7249    4.2501   -1.7764 N   0  0  0  0  0  0  0  0  0  0  0  0
    5.2641    5.4532   -1.3691 C   0  0  0  0  0  0  0  0  0  0  0  0
    6.2387    6.2700   -1.9463 C   0  0  0  0  0  0  0  0  0  0  0  0
    6.5358    7.4279   -1.2395 C   0  0  0  0  0  0  0  0  0  0  0  0
    5.9583    7.7927   -0.0744 N   0  0  0  0  0  0  0  0  0  0  0  0
    5.0134    6.9861    0.4679 C   0  0  0  0  0  0  0  0  0  0  0  0
    4.6402    5.7929   -0.1656 C   0  0  0  0  0  0  0  0  0  0  0  0
  1  2  1  0
  2  3  2  0
  2  7  1  0
  3  4  1  0
  4  5  2  0
  4  8  1  0
  5  6  1  0
  6  7  2  0
  8  9  2  0
  8 13  1  0
  9 10  1  0
 10 11  2  0
 11 12  1  0
 11 20  1  0
 12 13  2  0
 12 14  1  0
 14 15  1  0
 15 16  1  0
 15 20  2  0
 16 17  2  0
 17 18  1  0
 18 19  2  0
 19 20  1  0
M  END
>  <DRUGBANK_ID>  (1) 
DB18282

>  <COMMON_NAME>  (1) 
Izaflortaucipir

>  <CAS_NUMBER>  (1) 
2173361-80-1

>  <UNII>  (1) 
MWJ7I16SUJ

>  <SYNONYMS>  (1) 
2-(2-fluoropyridin-4-yl)-9h-pyrrolo(2,3-b:4,5-c')dipyridine; 9h-pyrido(3',4':4,5)pyrrolo(2,3-b)pyridine, 2-(2-fluoro-4-pyridinyl)-

$$$$
