
     RDKit          3D

 23 23  0  0  0  0  0  0  0  0999 V2000
    0.9731   -0.0556   -0.0786 C   0  0  0  0  0  0  0  0  0  0  0  0
    0.2381    1.2079    0.0769 N   0  0  0  0  0  0  0  0  0  0  0  0
    0.2131   -1.3621   -0.2395 C   0  0  0  0  0  0  0  0  0  0  0  0
    2.2440   -0.0556   -0.0786 O   0  0  0  0  0  0  0  0  0  0  0  0
   -1.2319    1.2079    0.0769 C   0  0  0  0  0  0  0  0  0  0  0  0
   -1.7385    1.7674    1.3963 C   0  0  0  0  0  0  0  0  0  0  0  0
   -2.5837    2.9701    1.4084 N   0  0  0  0  0  0  0  0  0  0  0  0
   -1.4315    1.1954    2.4888 O   0  0  0  0  0  0  0  0  0  0  0  0
   -3.0737    3.5112    2.6844 C   0  0  1  0  0  0  0  0  0  0  0  0
   -2.5670    4.9336    2.8595 C   0  0  0  0  0  0  0  0  0  0  0  0
   -4.6737    3.5112    2.6844 B   0  0  0  0  0  0  0  0  0  0  0  0
   -3.0737    5.7964    1.7153 C   0  0  0  0  0  0  0  0  0  0  0  0
   -4.5937    5.7964    1.7153 C   0  0  0  0  0  0  0  0  0  0  0  0
   -2.5670    7.2187    1.8904 C   0  0  0  0  0  0  0  0  0  0  0  0
   -0.8673   -1.4451   -1.1022 C   0  0  0  0  0  0  0  0  0  0  0  0
   -1.5111   -2.6545   -1.2326 C   0  0  0  0  0  0  0  0  0  0  0  0
   -1.1341   -3.7814   -0.5175 C   0  0  0  0  0  0  0  0  0  0  0  0
   -0.0653   -3.6893    0.3714 C   0  0  0  0  0  0  0  0  0  0  0  0
    0.6101   -2.4723    0.4810 C   0  0  0  0  0  0  0  0  0  0  0  0
    1.9848   -2.3451    1.5327 Cl  0  0  0  0  0  0  0  0  0  0  0  0
   -2.8499   -2.7608   -2.3441 Cl  0  0  0  0  0  0  0  0  0  0  0  0
   -5.4237    2.7291    3.7216 O   0  0  0  0  0  0  0  0  0  0  0  0
   -5.4237    4.2933    1.6472 O   0  0  0  0  0  0  0  0  0  0  0  0
  1  2  1  0
  1  3  1  0
  1  4  2  0
  2  5  1  0
  3 15  2  0
  3 19  1  0
  5  6  1  0
  6  7  1  0
  6  8  2  0
  7  9  1  0
  9 10  1  6
  9 11  1  0
 10 12  1  0
 11 22  1  0
 11 23  1  0
 12 13  1  0
 12 14  1  0
 15 16  1  0
 16 17  2  0
 16 21  1  0
 17 18  1  0
 18 19  2  0
 19 20  1  0
M  END
>  <DRUGBANK_ID>  (1) 
DB09570

>  <COMMON_NAME>  (1) 
Ixazomib

>  <CAS_NUMBER>  (1) 
1072833-77-2

>  <UNII>  (1) 
71050168A2

>  <SYNONYMS>  (1) 
Ixazomib

$$$$
