
     RDKit          3D

 21 22  0  0  1  0  0  0  0  0999 V2000
    1.4399   -0.2928    0.0122 C   0  0  0  0  0  0  0  0  0  0  0  0
   -8.1985    6.2932   -2.3782 C   0  0  0  0  0  0  0  0  0  0  0  0
    0.5312   -1.3518    0.0218 C   0  0  0  0  0  0  0  0  0  0  0  0
    0.9772    1.0071   -0.0796 C   0  0  0  0  0  0  0  0  0  0  0  0
   -7.3481    7.3803   -2.1752 C   0  0  0  0  0  0  0  0  0  0  0  0
   -7.7052    4.9915   -2.2755 C   0  0  0  0  0  0  0  0  0  0  0  0
   -0.8470   -1.1138   -0.0202 C   0  0  0  0  0  0  0  0  0  0  0  0
   -0.3896    1.2352   -0.1594 C   0  0  0  0  0  0  0  0  0  0  0  0
   -5.9968    7.1699   -1.8897 C   0  0  0  0  0  0  0  0  0  0  0  0
   -6.3652    4.7704   -1.9438 C   0  0  0  0  0  0  0  0  0  0  0  0
   -2.8197    0.4586   -0.1838 C   0  0  0  0  0  0  0  0  0  0  0  0
   -3.3991    1.2676    0.9944 C   0  0  0  0  0  0  0  0  0  0  0  0
   -2.9951    3.5146   -0.0939 C   0  0  0  0  0  0  0  0  0  0  0  0
   -3.5925    4.7167   -0.1507 C   0  0  0  0  0  0  0  0  0  0  0  0
   -1.3312    0.1931   -0.1019 C   0  0  0  0  0  0  0  0  0  0  0  0
   -2.7972    2.6758    1.1538 C   0  0  1  0  0  0  0  0  0  0  0  0
   -5.5050    5.8639   -1.7895 C   0  0  0  0  0  0  0  0  0  0  0  0
   -3.3053    3.3301    2.3508 N   0  0  0  0  0  0  0  0  0  0  0  0
   -3.1209    6.8850   -1.4411 O   0  0  0  0  0  0  0  0  0  0  0  0
   -3.3704    4.7547   -2.7660 O   0  0  0  0  0  0  0  0  0  0  0  0
   -3.7441    5.5856   -1.6412 S   0  0  0  0  0  0  0  0  0  0  0  0
  3  1  2  0
  4  1  1  0
  5  2  2  0
  6  2  1  0
  7  3  1  0
  8  4  2  0
  9  5  1  0
 10  6  2  0
 12 11  1  0
 14 13  2  3
 14 21  1  0
 15  7  2  0
 15  8  1  0
 15 11  1  0
 16 12  1  0
 16 13  1  0
 16 18  1  1
 17  9  2  0
 17 10  1  0
 21 17  1  0
 21 19  2  0
 21 20  2  0
M  END
>  <DRUGBANK_ID>  (1) 
DB02869

>  <SECONDARY_ACCESSION_NUMBERS>  (1) 
EXPT02332

>  <COMMON_NAME>  (1) 
3-amino-5-phenylpentane

$$$$
