
     RDKit          3D

 16 16  0  0  0  0  0  0  0  0999 V2000
   -1.5380   -1.7506    0.0157 C   0  0  0  0  0  0  0  0  0  0  0  0
   -0.4105   -0.7575   -0.0032 C   0  0  0  0  0  0  0  0  0  0  0  0
    0.8372   -1.2869   -0.0134 N   0  0  0  0  0  0  0  0  0  0  0  0
    1.8804   -0.4354   -0.0403 C   0  0  0  0  0  0  0  0  0  0  0  0
    1.7559    0.9525   -0.0259 C   0  0  0  0  0  0  0  0  0  0  0  0
    3.0203    1.7785    0.0435 C   0  0  0  0  0  0  0  0  0  0  0  0
    3.7437    1.5233    1.2464 O   0  0  0  0  0  0  0  0  0  0  0  0
    2.7632    1.8082    2.6429 P   0  0  0  0  0  0  0  0  0  0  0  0
    3.1574    0.2708    3.0470 O   0  0  0  0  0  0  0  0  0  0  0  0
    4.1090    2.5144    3.2501 O   0  0  0  0  0  0  0  0  0  0  0  0
    1.8856    2.0631    3.8928 O   0  0  0  0  0  0  0  0  0  0  0  0
    0.4506    1.5062   -0.0070 C   0  0  0  0  0  0  0  0  0  0  0  0
    0.2768    2.9999    0.0333 C   0  0  0  0  0  0  0  0  0  0  0  0
    0.8741    3.4829    1.2305 O   0  0  0  0  0  0  0  0  0  0  0  0
   -0.6430    0.6236   -0.0052 C   0  0  0  0  0  0  0  0  0  0  0  0
   -1.9458    1.0323    0.0122 O   0  0  0  0  0  0  0  0  0  0  0  0
  1  2  1  0
  2  3  2  0
  2 15  1  0
  3  4  1  0
  4  5  2  0
  5  6  1  0
  5 12  1  0
  6  7  1  0
  7  8  1  0
  8  9  1  0
  8 10  1  0
  8 11  2  0
 12 13  1  0
 12 15  2  0
 13 14  1  0
 15 16  1  0
M  END
>  <DRUGBANK_ID>  (1) 
DB02209

>  <SECONDARY_ACCESSION_NUMBERS>  (1) 
EXPT02710

>  <COMMON_NAME>  (1) 
Pyridoxine phosphate

>  <CAS_NUMBER>  (1) 
447-05-2

>  <UNII>  (1) 
RG20W8WYLS

>  <SYNONYMS>  (1) 
Pyridoxine 5-phosphate

$$$$
