
     RDKit          3D

 20 19  0  0  1  0  0  0  0  0999 V2000
    0.9682    0.1317    0.0002 C   0  0  0  0  0  0  0  0  0  0  0  0
   -3.2366   -7.2084   -1.5729 C   0  0  0  0  0  0  0  0  0  0  0  0
   -5.2225   -6.8241   -3.0203 C   0  0  0  0  0  0  0  0  0  0  0  0
   -3.0661   -8.2096   -3.7641 C   0  0  0  0  0  0  0  0  0  0  0  0
    0.5149    0.7072   -1.3321 C   0  0  0  0  0  0  0  0  0  0  0  0
    1.0046   -0.1694   -2.4854 C   0  0  0  0  0  0  0  0  0  0  0  0
    0.4530   -1.5937   -2.3688 C   0  0  0  0  0  0  0  0  0  0  0  0
   -1.0816   -1.5806   -2.3681 C   0  0  0  0  0  0  0  0  0  0  0  0
   -1.6281   -1.0527   -3.6998 C   0  0  0  0  0  0  0  0  0  0  0  0
   -1.1096   -1.8478   -4.8911 C   0  0  0  0  0  0  0  0  0  0  0  0
   -1.3977   -6.0948   -4.9104 C   0  0  0  0  0  0  0  0  0  0  0  0
   -3.2037   -5.3858   -3.3083 C   0  0  0  0  0  0  0  0  0  0  0  0
   -1.7255   -5.3085   -3.6440 C   0  0  2  0  0  0  0  0  0  0  0  0
   -2.5479   -6.3273   -5.9487 C   0  0  0  0  0  0  0  0  0  0  0  0
   -1.6516   -3.2394   -4.8555 C   0  0  0  0  0  0  0  0  0  0  0  0
   -3.6791   -6.9094   -2.9872 N   0  0  0  0  0  0  0  0  0  0  0  0
   -2.3375   -6.5916   -7.1398 O   0  0  0  0  0  0  0  0  0  0  0  0
   -3.8148   -6.3940   -5.4920 O   0  0  0  0  0  0  0  0  0  0  0  0
   -2.4344   -3.6694   -5.6828 O   0  0  0  0  0  0  0  0  0  0  0  0
   -1.2169   -3.9629   -3.7893 O   0  0  0  0  0  0  0  0  0  0  0  0
  5  1  1  0
  6  5  1  0
  7  6  1  0
  8  7  1  0
  9  8  1  0
 10  9  1  0
 13 20  1  0
 13 12  1  6
 13 11  1  0
 14 11  1  0
 15 10  1  0
 16  2  1  0
 16  3  1  0
 16  4  1  0
 16 12  1  0
 17 14  2  0
 18 14  1  0
 19 15  2  0
 20 15  1  0
M  CHG  1  16   1
M  END
>  <DRUGBANK_ID>  (1) 
DB03832

>  <SECONDARY_ACCESSION_NUMBERS>  (1) 
EXPT02414

>  <COMMON_NAME>  (1) 
3-Carboxy-N,N,N-Trimethyl-2-(Octanoyloxy)Propan-1-Aminium

$$$$
