
     RDKit          3D

 38 41  0  0  1  0  0  0  0  0999 V2000
   -2.1199   -0.9997   -0.1569 N   0  0  0  0  0  0  0  0  0  0  0  0
   -2.2775    0.0820    0.5365 C   0  0  0  0  0  0  0  0  0  0  0  0
   -1.1316    0.7624    1.1662 N   0  0  0  0  0  0  0  0  0  0  0  0
    0.2289    0.5321    0.8090 C   0  0  0  0  0  0  0  0  0  0  0  0
    0.3593   -0.6998    0.1512 C   0  0  0  0  0  0  0  0  0  0  0  0
   -0.8729   -1.6163   -0.0537 C   0  0  0  0  0  0  0  0  0  0  0  0
    1.7088    1.2915    0.8956 N   0  0  0  0  0  0  0  0  0  0  0  0
    2.3980    0.1347    0.2322 C   0  0  0  0  0  0  0  0  0  0  0  0
    1.6819   -0.9373   -0.1161 N   0  0  0  0  0  0  0  0  0  0  0  0
    2.5134    3.0307    1.0497 C   0  0  1  0  0  0  0  0  0  0  0  0
    2.5055    4.5467   -0.4749 C   0  0  1  0  0  0  0  0  0  0  0  0
    2.5337    5.8381   -0.1428 C   0  0  1  0  0  0  0  0  0  0  0  0
    1.4595    5.2405    1.2872 C   0  0  2  0  0  0  0  0  0  0  0  0
    1.8880    3.8729    2.0005 O   0  0  0  0  0  0  0  0  0  0  0  0
   -0.4671    5.3732    1.5117 C   0  0  0  0  0  0  0  0  0  0  0  0
   -1.8669    4.8318    0.4242 O   0  0  0  0  0  0  0  0  0  0  0  0
   -1.6544    3.9702   -1.3618 P   0  0  1  0  0  0  0  0  0  0  0  0
    0.0875    2.4097   -1.3413 O   0  0  0  0  0  0  0  0  0  0  0  0
    1.7650    2.6936   -1.0281 P   0  0  2  0  0  0  0  0  0  0  0  0
    1.5532    3.4135   -2.5522 O   0  0  0  0  0  0  0  0  0  0  0  0
    0.8618    3.1052    0.1461 O   0  0  0  0  0  0  0  0  0  0  0  0
   -0.4229    3.1478    0.2690 C   0  0  2  0  0  0  0  0  0  0  0  0
   -3.2617    3.5091   -1.4471 O   0  0  0  0  0  0  0  0  0  0  0  0
   -2.2685    4.4778   -2.7107 O   0  0  0  0  0  0  0  0  0  0  0  0
    3.2665    2.9478   -0.7479 O   0  0  0  0  0  0  0  0  0  0  0  0
   -1.5284    2.0604   -0.9901 C   0  0  2  0  0  0  0  0  0  0  0  0
   -0.8073    2.8676   -2.8205 C   0  0  2  0  0  0  0  0  0  0  0  0
   -0.2431    4.8551   -2.7398 C   0  0  1  0  0  0  0  0  0  0  0  0
   -0.1658    5.5408   -1.2097 C   0  0  1  0  0  0  0  0  0  0  0  0
   -0.0734    4.5105   -0.1893 O   0  0  0  0  0  0  0  0  0  0  0  0
    0.5816    5.4737   -3.6732 O   0  0  0  0  0  0  0  0  0  0  0  0
   -0.0704    7.0734   -1.0756 C   0  0  0  0  0  0  0  0  0  0  0  0
   -1.5779    2.2112   -3.7608 O   0  0  0  0  0  0  0  0  0  0  0  0
   -2.5741    2.5159    0.0162 O   0  0  0  0  0  0  0  0  0  0  0  0
   -0.8099   -2.8410   -0.0407 O   0  0  0  0  0  0  0  0  0  0  0  0
   -3.5463    0.7369    0.5425 N   0  0  0  0  0  0  0  0  0  0  0  0
    3.3847    4.3313   -2.0880 O   0  0  0  0  0  0  0  0  0  0  0  0
    3.9590    5.8195   -0.3810 O   0  0  0  0  0  0  0  0  0  0  0  0
  1  2  2  0
  2  3  1  0
  2 36  1  0
  3  4  1  0
  4  5  2  0
  4  7  1  0
  5  6  1  0
  6  1  1  0
  6 35  2  0
  7  8  1  0
  8  9  2  0
  9  5  1  0
 10  7  1  6
 10 11  1  0
 11 12  1  0
 11 37  1  6
 12 13  1  0
 12 38  1  1
 13 14  1  0
 13 15  1  6
 14 10  1  0
 15 16  1  0
 16 17  1  0
 17 18  1  0
 17 23  1  1
 17 24  2  0
 18 19  1  0
 19 20  1  6
 19 21  1  0
 19 25  2  0
 22 21  1  6
 22 26  1  0
 26 27  1  0
 26 34  1  1
 27 28  1  0
 27 33  1  6
 28 29  1  0
 28 31  1  1
 29 30  1  0
 29 32  1  1
 30 22  1  0
M  END
>  <DRUGBANK_ID>  (1) 
DB02547

>  <SECONDARY_ACCESSION_NUMBERS>  (1) 
EXPT01574

>  <COMMON_NAME>  (1) 
Guanosine-5'-Diphosphate-Rhamnose

$$$$
