
     RDKit          3D

 29 28  0  0  0  0  0  0  0  0999 V2000
    0.4551    0.3988   -0.0279 O   0  0  0  0  0  0  0  0  0  0  0  0
    0.6765    1.0336   -1.4717 P   0  0  0  0  0  0  0  0  0  0  0  0
   -0.0984    3.1764   -5.4783 C   0  0  0  0  0  0  0  0  0  0  0  0
   -0.7030    2.3952   -6.6145 C   0  0  0  0  0  0  0  0  0  0  0  0
   -7.0656    1.2303   -2.8001 C   0  0  0  0  0  0  0  0  0  0  0  0
   -8.4249    0.5954   -3.0895 C   0  0  0  0  0  0  0  0  0  0  0  0
   -8.8071   -0.3531   -3.9728 C   0  0  0  0  0  0  0  0  0  0  0  0
  -10.1542   -0.7772   -4.5029 C   0  0  0  0  0  0  0  0  0  0  0  0
   -9.5844   -0.6234   -7.1058 C   0  0  0  0  0  0  0  0  0  0  0  0
  -10.4848   -0.2492   -5.9320 C   0  0  0  0  0  0  0  0  0  0  0  0
   -8.3474   -0.1322   -7.3120 C   0  0  0  0  0  0  0  0  0  0  0  0
   -7.5030    0.6880   -6.3939 C   0  0  0  0  0  0  0  0  0  0  0  0
   -6.3801   -0.1479   -5.7319 C   0  0  0  0  0  0  0  0  0  0  0  0
   -5.3002   -0.6275   -6.5836 C   0  0  0  0  0  0  0  0  0  0  0  0
   -4.0357   -0.2567   -6.2203 C   0  0  0  0  0  0  0  0  0  0  0  0
   -2.8927   -0.3647   -7.1291 C   0  0  0  0  0  0  0  0  0  0  0  0
   -2.5094    1.0238   -7.6742 C   0  0  0  0  0  0  0  0  0  0  0  0
   -1.9933    2.0029   -6.6322 C   0  0  0  0  0  0  0  0  0  0  0  0
    0.9410    2.4950   -4.8097 O   0  0  0  0  0  0  0  0  0  0  0  0
   -0.1871    1.1044   -2.8246 O   0  0  0  0  0  0  0  0  0  0  0  0
    0.8229    1.0518   -4.1204 P   0  0  2  0  0  0  0  0  0  0  0  0
   -9.4852    1.1155   -2.1934 C   0  0  0  0  0  0  0  0  0  0  0  0
  -10.1496   -1.5508   -8.1567 C   0  0  0  0  0  0  0  0  0  0  0  0
   -5.6195   -1.5595   -7.6759 C   0  0  0  0  0  0  0  0  0  0  0  0
   -2.9337    2.4938   -5.5596 C   0  0  0  0  0  0  0  0  0  0  0  0
    2.1648    0.4119   -3.8899 O   0  0  0  0  0  0  0  0  0  0  0  0
    1.8144    1.9855   -1.4121 O   0  0  0  0  0  0  0  0  0  0  0  0
    1.0709   -0.4871   -1.8151 O   0  0  0  0  0  0  0  0  0  0  0  0
    0.0601    0.2127   -5.2468 O   0  0  0  0  0  0  0  0  0  0  0  0
  2  1  1  0
  2 27  2  0
  2 28  1  0
  3 19  1  0
  4  3  1  0
  5  6  1  0
  6  7  2  3
  7  8  1  0
  8 10  1  0
  9 23  1  0
  9 10  1  0
  9 11  2  3
 11 12  1  0
 12 13  1  0
 13 14  1  0
 14 24  1  0
 14 15  2  3
 15 16  1  0
 16 17  1  0
 17 18  1  0
 18  4  2  3
 18 25  1  0
 19 21  1  0
 20  2  1  0
 21 20  1  0
 21 26  2  0
 21 29  1  6
 22  6  1  0
M  END
>  <DRUGBANK_ID>  (1) 
DB07841

>  <COMMON_NAME>  (1) 
Geranylgeranyl diphosphate

$$$$
