1414
     RDKit          3D

 23 24  0  0  1  0  0  0  0  0999 V2000
    1.3255    0.9869    0.5027 S   0  0  0  0  0  0  0  0  0  0  0  0
   -2.7086   -0.4180    0.6188 O   0  0  0  0  0  0  0  0  0  0  0  0
    1.5996   -3.6770    1.5736 O   0  0  0  0  0  0  0  0  0  0  0  0
   -2.1934   -2.8704   -0.3698 O   0  0  0  0  0  0  0  0  0  0  0  0
   -0.4141   -4.1168    0.0453 O   0  0  0  0  0  0  0  0  0  0  0  0
   -2.1504    4.8096    0.5277 O   0  0  0  0  0  0  0  0  0  0  0  0
    2.1965   -1.8617    2.8263 O   0  0  0  0  0  0  0  0  0  0  0  0
   -0.6487   -0.5230   -0.4683 N   0  0  0  0  0  0  0  0  0  0  0  0
   -1.4583    2.6733    0.2464 N   0  0  0  0  0  0  0  0  0  0  0  0
   -0.7750    3.2899   -3.4765 N   0  0  0  0  0  0  0  0  0  0  0  0
    0.0468    0.7373   -0.7398 C   0  0  1  0  0  0  0  0  0  0  0  0
   -1.3328    1.4134   -0.5280 C   0  0  1  0  0  0  0  0  0  0  0  0
   -1.7536    0.0631    0.0642 C   0  0  0  0  0  0  0  0  0  0  0  0
   -0.0458   -1.7197   -0.1692 C   0  0  0  0  0  0  0  0  0  0  0  0
    1.2983   -1.7672    0.0289 C   0  0  0  0  0  0  0  0  0  0  0  0
    2.2004   -0.5408    0.0183 C   0  0  0  0  0  0  0  0  0  0  0  0
    2.0567   -3.0465    0.3597 C   0  0  0  0  0  0  0  0  0  0  0  0
   -0.8773   -2.9974   -0.1112 C   0  0  0  0  0  0  0  0  0  0  0  0
   -2.0918    3.8189   -0.1994 C   0  0  0  0  0  0  0  0  0  0  0  0
   -2.7427    3.8064   -1.5804 C   0  0  0  0  0  0  0  0  0  0  0  0
    1.6786   -2.9647    2.7214 C   0  0  0  0  0  0  0  0  0  0  0  0
   -1.6672    3.5241   -2.6168 C   0  0  0  0  0  0  0  0  0  0  0  0
    1.0201   -3.6836    3.8614 C   0  0  0  0  0  0  0  0  0  0  0  0
 11  1  1  1
  1 16  1  0
  2 13  2  0
  3 17  1  0
  3 21  1  0
  4 18  1  0
  5 18  2  0
  6 19  2  0
  7 21  2  0
  8 11  1  0
  8 13  1  0
  8 14  1  0
  9 19  1  0
 10 22  3  0
 11 12  1  0
 12  9  1  1
 12 13  1  0
 14 15  2  0
 14 18  1  0
 15 16  1  0
 15 17  1  0
 19 20  1  0
 20 22  1  0
 21 23  1  0
M  END
>  <DRUGBANK_ID>  (1) 
DB01414

>  <COMMON_NAME>  (1) 
Cefacetrile

>  <CAS_NUMBER>  (1) 
10206-21-0

>  <UNII>  (1) 
FDM21QQ344

>  <SYNONYMS>  (1) 
Cefacetrile; Cefacetrilo; Cefacetrilum; Cephacetrile

$$$$
