
     RDKit          3D

 10  9  0  0  0  0  0  0  0  0999 V2000
    0.7763    0.0189   -0.0014 O   0  0  0  0  0  0  0  0  0  0  0  0
    0.1948    0.4230   -1.1311 C   0  0  0  0  0  0  0  0  0  0  0  0
    0.8079    0.7921   -2.1217 O   0  0  0  0  0  0  0  0  0  0  0  0
   -1.3419    0.4098   -1.0814 C   0  0  0  0  0  0  0  0  0  0  0  0
   -1.9326    0.0698   -0.0639 O   0  0  0  0  0  0  0  0  0  0  0  0
   -2.0616    0.8214   -2.3381 C   0  0  0  0  0  0  0  0  0  0  0  0
   -1.6195    2.5466   -2.7591 P   0  0  0  0  0  0  0  0  0  0  0  0
   -2.2619    2.1556   -4.2189 O   0  0  0  0  0  0  0  0  0  0  0  0
   -2.9966    2.9889   -1.9688 O   0  0  0  0  0  0  0  0  0  0  0  0
   -1.2455    4.0063   -3.1153 O   0  0  0  0  0  0  0  0  0  0  0  0
  1  2  1  0
  2  3  2  0
  2  4  1  0
  4  5  2  0
  4  6  1  0
  6  7  1  0
  7  8  1  0
  7  9  1  0
  7 10  2  0
M  END
>  <DRUGBANK_ID>  (1) 
DB02522

>  <SECONDARY_ACCESSION_NUMBERS>  (1) 
EXPT02646

>  <COMMON_NAME>  (1) 
Phosphonopyruvate

>  <UNII>  (1) 
AQ57DYF7MV

$$$$
