
     RDKit          3D

 36 36  0  0  0  0  0  0  0  0999 V2000
    1.0578   -0.0348    0.1183 C   0  0  0  0  0  0  0  0  0  0  0  0
    0.6003    1.4010    0.2422 C   0  0  0  0  0  0  0  0  0  0  0  0
    1.0005    2.1991   -0.9639 C   0  0  0  0  0  0  0  0  0  0  0  0
    0.1270    2.7693   -1.8012 C   0  0  0  0  0  0  0  0  0  0  0  0
   -1.3456    2.6488   -1.6379 C   0  0  0  0  0  0  0  0  0  0  0  0
   -1.9966    3.9844   -1.5281 C   0  0  0  0  0  0  0  0  0  0  0  0
   -2.9859    4.3627   -2.3397 C   0  0  0  0  0  0  0  0  0  0  0  0
   -3.4656    3.4947   -3.4451 C   0  0  0  0  0  0  0  0  0  0  0  0
   -4.9227    3.2236   -3.3344 C   0  0  0  0  0  0  0  0  0  0  0  0
   -5.7642    3.5073   -4.3281 C   0  0  0  0  0  0  0  0  0  0  0  0
   -5.2967    4.1590   -5.5767 C   0  0  0  0  0  0  0  0  0  0  0  0
   -5.6371    3.3463   -6.7717 C   0  0  0  0  0  0  0  0  0  0  0  0
   -6.3538    3.8541   -7.7720 C   0  0  0  0  0  0  0  0  0  0  0  0
   -6.8797    5.2379   -7.7138 C   0  0  0  0  0  0  0  0  0  0  0  0
   -6.4108    6.0262   -8.8756 C   0  0  0  0  0  0  0  0  0  0  0  0
   -7.2828    6.5492   -9.7313 C   0  0  0  0  0  0  0  0  0  0  0  0
   -8.7510    6.3523   -9.5752 C   0  0  0  0  0  0  0  0  0  0  0  0
   -9.3555    7.6827   -9.6238 C   0  0  0  0  0  0  0  0  0  0  0  0
  -10.1480    8.0011  -10.6432 C   0  0  0  0  0  0  0  0  0  0  0  0
  -10.8747    7.1570  -11.6082 C   0  0  0  0  0  0  0  0  0  0  0  0
  -12.3508    7.0250  -11.2256 C   0  0  0  0  0  0  0  0  0  0  0  0
  -13.1728    8.3146  -11.2258 C   0  0  0  0  0  0  0  0  0  0  0  0
  -13.9776    8.5390  -12.1325 O   0  0  0  0  0  0  0  0  0  0  0  0
  -13.0656    9.2449  -10.2297 N   0  0  0  0  0  0  0  0  0  0  0  0
  -12.2347    9.2411   -9.0429 C   0  0  0  0  0  0  0  0  0  0  0  0
  -11.1434   10.3143   -9.1078 C   0  0  0  0  0  0  0  0  0  0  0  0
  -11.5851   11.6552   -8.8764 N   0  0  0  0  0  0  0  0  0  0  0  0
  -11.0958   12.4856   -7.9093 C   0  0  0  0  0  0  0  0  0  0  0  0
  -11.6195   13.5902   -7.7344 O   0  0  0  0  0  0  0  0  0  0  0  0
   -9.9696   12.0163   -7.0566 C   0  0  0  0  0  0  0  0  0  0  0  0
   -8.7750   11.4761   -7.5725 C   0  0  0  0  0  0  0  0  0  0  0  0
   -8.4546   11.4389   -8.9046 O   0  0  0  0  0  0  0  0  0  0  0  0
   -7.8537   10.8591   -6.7290 C   0  0  0  0  0  0  0  0  0  0  0  0
   -8.0680   10.8582   -5.3538 C   0  0  0  0  0  0  0  0  0  0  0  0
   -9.2121   11.4588   -4.8253 C   0  0  0  0  0  0  0  0  0  0  0  0
  -10.1708   12.0220   -5.6729 C   0  0  0  0  0  0  0  0  0  0  0  0
  1  2  1  0
  2  3  1  0
  3  4  2  0
  4  5  1  0
  5  6  1  0
  6  7  2  0
  7  8  1  0
  8  9  1  0
  9 10  2  0
 10 11  1  0
 11 12  1  0
 12 13  2  0
 13 14  1  0
 14 15  1  0
 15 16  2  0
 16 17  1  0
 17 18  1  0
 18 19  2  0
 19 20  1  0
 20 21  1  0
 21 22  1  0
 22 23  2  0
 22 24  1  0
 24 25  1  0
 25 26  1  0
 26 27  1  0
 27 28  1  0
 28 29  2  0
 28 30  1  0
 30 31  2  0
 30 36  1  0
 31 32  1  0
 31 33  1  0
 33 34  2  0
 34 35  1  0
 35 36  2  0
M  END
>  <DRUGBANK_ID>  (1) 
DB15010

>  <COMMON_NAME>  (1) 
Edasalonexent

>  <CAS_NUMBER>  (1) 
1204317-86-1

>  <UNII>  (1) 
AF3Z6434KS

>  <SYNONYMS>  (1) 
Edasalonexent

$$$$
