F83
     RDKit          3D

 23 25  0  0  0  0  0  0  0  0999 V2000
    0.7474   -0.1293   -0.1872 O   0  0  0  0  0  0  0  0  0  0  0  0
    0.4290    1.2474   -0.0219 C   0  0  0  0  0  0  0  0  0  0  0  0
    0.9927    1.8617    1.2943 C   0  0  2  0  0  0  0  0  0  0  0  0
    1.4057    3.2413    0.9763 N   0  0  0  0  0  0  0  0  0  0  0  0
    2.8416    3.3778    0.7976 C   0  0  0  0  0  0  0  0  0  0  0  0
    3.5322    2.1177    0.3405 C   0  0  0  0  0  0  0  0  0  0  0  0
    4.3430    2.0717   -0.7836 C   0  0  0  0  0  0  0  0  0  0  0  0
    5.1907    1.0072   -1.0489 C   0  0  0  0  0  0  0  0  0  0  0  0
    4.9888   -0.1781   -0.3362 C   0  0  0  0  0  0  0  0  0  0  0  0
    3.9973   -0.2260    0.6643 C   0  0  0  0  0  0  0  0  0  0  0  0
    3.3005    0.9364    1.0284 C   0  0  0  0  0  0  0  0  0  0  0  0
    2.1074    0.9874    1.9551 C   0  0  0  0  0  0  0  0  0  0  0  0
    6.5360    1.1483   -2.2248 S   0  0  0  0  0  0  0  0  0  0  0  0
    7.7564    0.8096   -1.5056 O   0  0  0  0  0  0  0  0  0  0  0  0
    6.1437    0.3808   -3.3812 O   0  0  0  0  0  0  0  0  0  0  0  0
    6.7654    2.7386   -2.7731 N   0  0  0  0  0  0  0  0  0  0  0  0
    6.2276    3.9310   -2.2191 C   0  0  0  0  0  0  0  0  0  0  0  0
    6.2357    4.1703   -0.8442 C   0  0  0  0  0  0  0  0  0  0  0  0
    5.3571    5.1227   -0.3056 C   0  0  0  0  0  0  0  0  0  0  0  0
    4.5610    5.9075   -1.1439 C   0  0  0  0  0  0  0  0  0  0  0  0
    4.6623    5.7719   -2.5251 C   0  0  0  0  0  0  0  0  0  0  0  0
    5.5033    4.7871   -3.0657 C   0  0  0  0  0  0  0  0  0  0  0  0
    3.3687    6.9529   -0.4672 Cl  0  0  0  0  0  0  0  0  0  0  0  0
  1  2  1  0
  3  2  1  6
  3  4  1  0
  3 12  1  0
  4  5  1  0
  5  6  1  0
  6  7  1  0
  6 11  2  0
  7  8  2  0
  8  9  1  0
  8 13  1  0
  9 10  2  0
 10 11  1  0
 11 12  1  0
 13 14  2  0
 13 15  2  0
 13 16  1  0
 16 17  1  0
 17 18  2  0
 17 22  1  0
 18 19  1  0
 19 20  2  0
 20 21  1  0
 20 23  1  0
 21 22  2  0
M  END
>  <DRUGBANK_ID>  (1) 
DB07747

>  <COMMON_NAME>  (1) 
(3R)-N-(4-CHLOROPHENYL)-3-(HYDROXYMETHYL)-1,2,3,4-TETRAHYDROISOQUINOLINE-7-SULFONAMIDE

$$$$
