
     RDKit          3D

  8  5  0  0  0  0  0  0  0  0999 V2000
    0.9660    0.0691    0.0638 Al  0  0  0  0  0  2  0  0  0  0  0  0
    0.0310   -1.5486    0.1381 O   0  0  0  0  0  0  0  0  0  0  0  0
    2.8360    0.0691    0.0638 O   0  0  0  0  0  0  0  0  0  0  0  0
    0.9787   -0.0882    0.0420 Na  0  0  0  0  0 15  0  0  0  0  0  0
    1.0547   -0.0200    0.0813 C   0  0  0  0  0  0  0  0  0  0  0  0
    0.3447   -1.0749    0.7134 O   0  0  0  0  0  0  0  0  0  0  0  0
    0.4192    0.9241   -0.4844 O   0  0  0  0  0  0  0  0  0  0  0  0
    2.4747   -0.0200    0.0813 O   0  0  0  0  0  0  0  0  0  0  0  0
  1  2  1  0
  1  3  1  0
  5  6  1  0
  5  7  2  0
  5  8  1  0
M  CHG  4   1   1   4   1   6  -1   8  -1
M  END
>  <DRUGBANK_ID>  (1) 
DB15825

>  <COMMON_NAME>  (1) 
Dihydroxyaluminum sodium carbonate

>  <CAS_NUMBER>  (1) 
16482-55-6

>  <UNII>  (1) 
84H8Z9550J

>  <SYNONYMS>  (1) 
Aluminium-natrium-carbonat-dihydroxid; Aluminum sodium dihydroxide monocarbonate; Dihydroxo-aluminium-natrium-carbonat; Dihydroxyaluminum sodium carbonate

$$$$
