
     RDKit          3D

 31 32  0  0  0  0  0  0  0  0999 V2000
   -1.1521    2.6434    0.0078 S   0  0  0  0  0  0  0  0  0  0  0  0
   -1.5844    0.0995    1.6365 P   0  0  0  0  0  0  0  0  0  0  0  0
   -1.0077   -1.1819    0.6274 O   0  0  0  0  0  0  0  0  0  0  0  0
   -0.4348    2.2364    2.4795 O   0  0  0  0  0  0  0  0  0  0  0  0
   -3.3343    3.4293    1.9089 O   0  0  0  0  0  0  0  0  0  0  0  0
   -0.0757    0.1228    2.1590 O   0  0  0  0  0  0  0  0  0  0  0  0
   -2.4270    0.4341    0.3241 O   0  0  0  0  0  0  0  0  0  0  0  0
   -2.1005    1.2464    2.5396 O   0  0  0  0  0  0  0  0  0  0  0  0
    1.5929    2.7662    2.8036 N   0  0  0  0  0  0  0  0  0  0  0  0
    2.1321    8.1710    3.1723 N   0  0  0  0  0  0  0  0  0  0  0  0
    1.3441    7.4733    1.0372 N   0  0  0  0  0  0  0  0  0  0  0  0
    3.1696    6.8575    4.8068 N   0  0  0  0  0  0  0  0  0  0  0  0
    1.6573    2.1623    1.4422 C   0  0  0  0  0  0  0  0  0  0  0  0
    2.7967    4.0503    3.1705 C   0  0  0  0  0  0  0  0  0  0  0  0
    0.6603    1.7589    0.5065 C   0  0  0  0  0  0  0  0  0  0  0  0
    0.9018    0.2656   -0.2015 C   0  0  0  0  0  0  0  0  0  0  0  0
    2.7797    5.8540    2.5322 C   0  0  0  0  0  0  0  0  0  0  0  0
    0.4164   -1.1409    0.4101 C   0  0  0  0  0  0  0  0  0  0  0  0
    3.0379    1.6791    1.2791 C   0  0  0  0  0  0  0  0  0  0  0  0
    2.7278    6.9500    3.4691 C   0  0  0  0  0  0  0  0  0  0  0  0
    0.3807    2.5176    3.3794 C   0  0  0  0  0  0  0  0  0  0  0  0
    2.0636    6.3338    1.2494 C   0  0  0  0  0  0  0  0  0  0  0  0
   -2.1339    3.5444    1.6675 C   0  0  0  0  0  0  0  0  0  0  0  0
    1.4633    8.3712    1.9889 C   0  0  0  0  0  0  0  0  0  0  0  0
   -1.4011    4.5578    2.4690 C   0  0  0  0  0  0  0  0  0  0  0  0
    1.2318    9.7490    1.4536 C   0  0  0  0  0  0  0  0  0  0  0  0
   -0.4072    4.8530    1.6453 C   0  0  0  0  0  0  0  0  0  0  0  0
   -1.3418    4.8364    4.0279 C   0  0  0  0  0  0  0  0  0  0  0  0
    0.6058    4.9211    2.4573 C   0  0  0  0  0  0  0  0  0  0  0  0
   -0.3289    5.5040    4.6715 C   0  0  0  0  0  0  0  0  0  0  0  0
    0.6807    5.2900    3.8625 C   0  0  0  0  0  0  0  0  0  0  0  0
  1 15  1  0
  1 23  1  0
  2  3  1  0
  2  6  1  0
  2  7  1  0
  2  8  2  0
  3 18  1  0
  4 21  2  0
  5 23  2  0
  9 13  1  0
  9 14  1  0
  9 21  1  0
 10 20  2  0
 10 24  1  0
 11 22  1  0
 11 24  2  0
 12 20  1  0
 13 15  2  0
 13 19  1  0
 14 17  1  0
 15 16  1  0
 16 18  1  0
 17 20  1  0
 17 22  2  0
 23 25  1  0
 24 26  1  0
 25 27  2  0
 25 28  1  0
 27 29  1  0
 28 30  2  0
 29 31  2  0
 30 31  1  0
M  END
>  <DRUGBANK_ID>  (1) 
DB11748

>  <COMMON_NAME>  (1) 
Benfotiamine

>  <CAS_NUMBER>  (1) 
22457-89-2

>  <UNII>  (1) 
Y92OUS2H9B

>  <SYNONYMS>  (1) 
Benfotiamina; Benfotiamine; Benphothiamine; Benzoylthiamine monophosphate; S-benzoylthiamine monophosphate

$$$$
