16P
     RDKit          3D

 20 19  0  0  0  0  0  0  0  0999 V2000
    0.8487    0.2558   -0.3504 C   0  0  0  0  0  0  0  0  0  0  0  0
    0.3166    0.6363    1.0135 C   0  0  0  0  0  0  0  0  0  0  0  0
    1.0438    1.4257    1.9236 O   0  0  0  0  0  0  0  0  0  0  0  0
    2.4452    1.0245    1.9165 C   0  0  0  0  0  0  0  0  0  0  0  0
    2.9120   -0.5280    1.9518 C   0  0  0  0  0  0  0  0  0  0  0  0
    2.2832   -1.6145    1.2203 O   0  0  0  0  0  0  0  0  0  0  0  0
    0.9063   -1.9718    1.6687 C   0  0  0  0  0  0  0  0  0  0  0  0
    0.3990   -1.2134    3.0305 C   0  0  0  0  0  0  0  0  0  0  0  0
    0.9578   -0.3846    4.1680 O   0  0  0  0  0  0  0  0  0  0  0  0
    2.3710   -0.4184    4.6382 C   0  0  0  0  0  0  0  0  0  0  0  0
    3.2222   -1.8635    4.5762 C   0  0  0  0  0  0  0  0  0  0  0  0
    2.5156   -3.1081    4.1625 O   0  0  0  0  0  0  0  0  0  0  0  0
    1.0659   -3.4264    4.4625 C   0  0  0  0  0  0  0  0  0  0  0  0
   -0.0997   -3.0439    5.5496 C   0  0  0  0  0  0  0  0  0  0  0  0
    0.3819   -2.3397    6.7730 O   0  0  0  0  0  0  0  0  0  0  0  0
    1.8255   -2.2427    6.9058 C   0  0  0  0  0  0  0  0  0  0  0  0
    2.8325   -3.4867    7.1663 C   0  0  0  0  0  0  0  0  0  0  0  0
    2.6747   -4.7783    6.5091 O   0  0  0  0  0  0  0  0  0  0  0  0
    1.3252   -5.1749    6.5534 C   0  0  0  0  0  0  0  0  0  0  0  0
    0.4546   -4.9877    7.7762 C   0  0  0  0  0  0  0  0  0  0  0  0
  1  2  1  0
  2  3  1  0
  3  4  1  0
  4  5  1  0
  5  6  1  0
  6  7  1  0
  7  8  1  0
  8  9  1  0
  9 10  1  0
 10 11  1  0
 11 12  1  0
 12 13  1  0
 13 14  1  0
 14 15  1  0
 15 16  1  0
 16 17  1  0
 17 18  1  0
 18 19  1  0
 19 20  1  0
M  END
>  <DRUGBANK_ID>  (1) 
DB06867

>  <COMMON_NAME>  (1) 
3,6,9,12,15,18-HEXAOXAICOSANE

>  <UNII>  (1) 
72DU7F2YXZ

$$$$
