
     RDKit          3D

 27 29  0  0  0  0  0  0  0  0999 V2000
    0.9062   -0.1367    0.0360 C   0  0  0  0  0  0  0  0  0  0  0  0
    0.3668    0.8923    1.0012 C   0  0  0  0  0  0  0  0  0  0  0  0
    0.8683    2.2701    0.6531 C   0  0  0  0  0  0  0  0  0  0  0  0
    0.4133    2.7800   -0.6311 N   0  0  0  0  0  0  0  0  0  0  0  0
   -0.3605    3.8917   -0.8922 C   0  0  0  0  0  0  0  0  0  0  0  0
   -0.7752    4.0667   -2.0435 O   0  0  0  0  0  0  0  0  0  0  0  0
   -0.6916    4.8590    0.1883 C   0  0  0  0  0  0  0  0  0  0  0  0
    0.2371    5.2905    1.1494 C   0  0  0  0  0  0  0  0  0  0  0  0
   -0.2320    6.1678    2.1492 C   0  0  0  0  0  0  0  0  0  0  0  0
    0.6152    6.6649    3.1662 C   0  0  0  0  0  0  0  0  0  0  0  0
    0.1608    7.5565    4.1224 C   0  0  0  0  0  0  0  0  0  0  0  0
   -1.1618    7.9553    4.0880 C   0  0  0  0  0  0  0  0  0  0  0  0
   -2.0152    7.5280    3.0498 C   0  0  0  0  0  0  0  0  0  0  0  0
   -1.5735    6.5923    2.0997 C   0  0  0  0  0  0  0  0  0  0  0  0
   -2.3984    6.1451    1.1316 N   0  0  0  0  0  0  0  0  0  0  0  0
   -1.9776    5.2624    0.1843 N   0  0  0  0  0  0  0  0  0  0  0  0
   -3.3517    8.1370    2.9470 C   0  0  0  0  0  0  0  0  0  0  0  0
   -4.4477    7.2720    3.1342 C   0  0  0  0  0  0  0  0  0  0  0  0
   -5.7582    7.7305    3.2039 C   0  0  0  0  0  0  0  0  0  0  0  0
   -5.9892    9.0969    3.0902 C   0  0  0  0  0  0  0  0  0  0  0  0
   -4.9166    9.9785    2.8866 C   0  0  0  0  0  0  0  0  0  0  0  0
   -3.5995    9.5074    2.7435 C   0  0  0  0  0  0  0  0  0  0  0  0
   -2.6983   10.4913    2.4072 O   0  0  0  0  0  0  0  0  0  0  0  0
   -1.4017   10.1191    1.9464 C   0  0  0  0  0  0  0  0  0  0  0  0
   -6.8471    6.9272    3.4156 O   0  0  0  0  0  0  0  0  0  0  0  0
   -6.5606    5.5387    3.5953 C   0  0  0  0  0  0  0  0  0  0  0  0
    1.6357    5.0660    1.0297 N   0  0  0  0  0  0  0  0  0  0  0  0
  1  2  1  0
  2  3  1  0
  3  4  1  0
  4  5  1  0
  5  6  2  0
  5  7  1  0
  7  8  2  0
  7 16  1  0
  8  9  1  0
  8 27  1  0
  9 10  2  0
  9 14  1  0
 10 11  1  0
 11 12  2  0
 12 13  1  0
 13 14  2  0
 13 17  1  0
 14 15  1  0
 15 16  2  0
 17 18  2  0
 17 22  1  0
 18 19  1  0
 19 20  2  0
 19 25  1  0
 20 21  1  0
 21 22  2  0
 22 23  1  0
 23 24  1  0
 25 26  1  0
M  END
>  <DRUGBANK_ID>  (1) 
DB12210

>  <COMMON_NAME>  (1) 
AZD-6280

>  <CAS_NUMBER>  (1) 
942436-93-3

>  <UNII>  (1) 
B9Z1OEH19D

$$$$
