
     RDKit          3D

 29 32  0  0  0  0  0  0  0  0999 V2000
   -0.8009    0.3813    0.6930 N   0  0  0  0  0  0  0  0  0  0  0  0
   -0.4783   -1.0660    0.6032 C   0  0  1  0  0  0  0  0  0  0  0  0
   -1.9766    0.2395   -0.0045 C   0  0  0  0  0  0  0  0  0  0  0  0
   -1.8829   -1.3124    0.0136 C   0  0  1  0  0  0  0  0  0  0  0  0
    0.2095    1.3417    0.2206 C   0  0  2  0  0  0  0  0  0  0  0  0
    0.9586   -1.1335   -0.5236 S   0  0  0  0  0  0  0  0  0  0  0  0
   -2.1286   -3.4219   -1.3019 C   0  0  0  0  0  0  0  0  0  0  0  0
    1.5298    0.5440    0.0252 C   0  0  0  0  0  0  0  0  0  0  0  0
   -1.9636   -2.0463   -1.2881 N   0  0  0  0  0  0  0  0  0  0  0  0
   -2.2472   -4.0875   -2.6387 C   0  0  0  0  0  0  0  0  0  0  0  0
    0.3404    2.5609    1.1629 C   0  0  0  0  0  0  0  0  0  0  0  0
   -3.3333   -4.9895   -2.8764 C   0  0  0  0  0  0  0  0  0  0  0  0
   -2.6637    1.0891   -0.5204 O   0  0  0  0  0  0  0  0  0  0  0  0
   -1.2980   -3.8326   -3.6485 C   0  0  0  0  0  0  0  0  0  0  0  0
   -2.2312   -4.0648   -0.2613 O   0  0  0  0  0  0  0  0  0  0  0  0
   -0.4980    3.5902    0.8958 O   0  0  0  0  0  0  0  0  0  0  0  0
    1.0981    2.6360    2.1197 O   0  0  0  0  0  0  0  0  0  0  0  0
   -3.4420   -5.6010   -4.1521 C   0  0  0  0  0  0  0  0  0  0  0  0
   -1.4885   -4.3987   -4.9113 C   0  0  0  0  0  0  0  0  0  0  0  0
   -2.5237   -5.2937   -5.1522 C   0  0  0  0  0  0  0  0  0  0  0  0
    2.4150    1.0993   -1.0911 C   0  0  0  0  0  0  0  0  0  0  0  0
    2.3579    0.3404    1.3020 C   0  0  0  0  0  0  0  0  0  0  0  0
   -0.2036   -3.0749   -3.3233 O   0  0  0  0  0  0  0  0  0  0  0  0
   -4.3334   -5.3201   -1.9310 C   0  0  0  0  0  0  0  0  0  0  0  0
   -4.4796   -6.5011   -4.4360 C   0  0  0  0  0  0  0  0  0  0  0  0
    0.8182   -2.8723   -4.3055 C   0  0  0  0  0  0  0  0  0  0  0  0
   -5.3659   -6.2139   -2.2242 C   0  0  0  0  0  0  0  0  0  0  0  0
    1.5999   -4.1349   -4.6617 C   0  0  0  0  0  0  0  0  0  0  0  0
   -5.4395   -6.8043   -3.4768 C   0  0  0  0  0  0  0  0  0  0  0  0
  2  1  1  0
  2  4  1  0
  3  1  1  0
  4  3  1  0
  4  9  1  6
  5  1  1  0
  5 11  1  1
  2  6  1  6
  6  8  1  0
  7  9  1  0
  8  5  1  0
 10  7  1  0
 12 10  1  0
 13  3  2  0
 14 10  2  0
 15  7  2  0
 16 11  1  0
 17 11  2  0
 18 12  2  0
 18 20  1  0
 19 14  1  0
 20 19  2  0
 21  8  1  0
 22  8  1  0
 23 14  1  0
 24 12  1  0
 25 18  1  0
 25 29  2  0
 26 23  1  0
 27 24  2  0
 28 26  1  0
 29 27  1  0
M  END
>  <DRUGBANK_ID>  (1) 
DB00607

>  <SECONDARY_ACCESSION_NUMBERS>  (1) 
APRD01130; DB08269

>  <COMMON_NAME>  (1) 
Nafcillin

>  <CAS_NUMBER>  (1) 
147-52-4

>  <UNII>  (1) 
4CNZ27M7RV

>  <SYNONYMS>  (1) 
(2-ethoxy-1-naphthalenyl)penicillin; (2-ethoxy-1-naphthyl)penicillin; (2S,5R,6R)-6-[(2-ethoxy-1-naphthoyl)amino]-3,3-dimethyl-7-oxo-4-thia-1-azabicyclo[3.2.0]heptane-2-carboxylic acid; 6-(2-ethoxy-1-naphthamido)penicillanic acid; Nafcilina; Nafcillin; Nafcilline; Nafcillinum; Naphcillin

$$$$
