
     RDKit          3D

 27 26  0  0  0  0  0  0  0  0999 V2000
    0.7597    0.3785    0.2521 N   0  0  0  0  0  0  0  0  0  0  0  0
    0.5856   -0.5786    1.5058 C   0  0  0  0  0  0  0  0  0  0  0  0
    1.2602   -2.0836    1.8000 C   0  0  0  0  0  0  0  0  0  0  0  0
    2.7112   -2.2668    1.1877 N   0  0  0  0  0  0  0  0  0  0  0  0
    3.1703   -3.7863    1.1090 C   0  0  0  0  0  0  0  0  0  0  0  0
    2.8315   -4.8900   -0.1693 C   0  0  0  0  0  0  0  0  0  0  0  0
    3.1294   -4.4184   -1.6975 N   0  0  0  0  0  0  0  0  0  0  0  0
    2.5949   -4.8384   -2.9791 C   0  0  0  0  0  0  0  0  0  0  0  0
    1.0753   -4.8558   -3.0777 C   0  0  0  0  0  0  0  0  0  0  0  0
    0.5781   -4.2878   -4.2104 O   0  0  0  0  0  0  0  0  0  0  0  0
    0.3752   -5.2364   -2.1472 O   0  0  0  0  0  0  0  0  0  0  0  0
    3.3294   -1.3089   -0.2360 C   0  0  0  0  0  0  0  0  0  0  0  0
    2.7279   -0.9931   -2.1550 C   0  0  0  0  0  0  0  0  0  0  0  0
    1.8681   -0.3012   -2.8787 O   0  0  0  0  0  0  0  0  0  0  0  0
    2.7336   -1.5945   -3.2726 O   0  0  0  0  0  0  0  0  0  0  0  0
    2.1097    1.0420    0.0981 C   0  0  0  0  0  0  0  0  0  0  0  0
    3.0707    1.5579   -1.1148 C   0  0  0  0  0  0  0  0  0  0  0  0
    4.1999    1.9837   -0.9533 O   0  0  0  0  0  0  0  0  0  0  0  0
    2.7216    1.3817   -2.3940 O   0  0  0  0  0  0  0  0  0  0  0  0
    0.5023   -0.4716   -0.8699 C   0  0  0  0  0  0  0  0  0  0  0  0
   -0.0593   -3.2842   -0.1282 O   0  0  0  0  0  0  0  0  0  0  0  0
    0.7743   -2.3626   -0.3124 C   0  0  0  0  0  0  0  0  0  0  0  0
    1.7585   -3.0178   -0.5148 O   0  0  0  0  0  0  0  0  0  0  0  0
    2.7566   -3.0429   -2.0899 C   0  0  0  0  0  0  0  0  0  0  0  0
   -0.6263   -2.0281   -1.5290 O   0  0  0  0  0  0  0  0  0  0  0  0
    0.8570   -2.5181   -2.3581 C   0  0  0  0  0  0  0  0  0  0  0  0
    0.2045   -2.2907   -3.5077 O   0  0  0  0  0  0  0  0  0  0  0  0
  1  2  1  0
  1 16  1  0
  2  3  1  0
  3  4  1  0
  4  5  1  0
  4 12  1  0
  5  6  1  0
  6  7  1  0
  7  8  1  0
  7 24  1  0
  8  9  1  0
  9 10  1  0
  9 11  2  0
 12 13  1  0
 13 14  1  0
 13 15  2  0
 16 17  1  0
 17 18  2  0
 17 19  1  0
 20  1  1  0
 20 22  1  0
 22 21  2  0
 22 23  1  0
 24 26  1  0
 26 25  1  0
 26 27  2  0
M  END
>  <DRUGBANK_ID>  (1) 
DB14007

>  <SECONDARY_ACCESSION_NUMBERS>  (1) 
DB11322; DBSALT001589

>  <COMMON_NAME>  (1) 
Pentetic acid

>  <CAS_NUMBER>  (1) 
67-43-6

>  <UNII>  (1) 
7A314HQM0I

>  <SYNONYMS>  (1) 
Diethylene triamine pentaacetic acid; Diethylenetriamine pentaacetic acid; Diethylenetriaminepentaacetate; Diethylenetriaminepentaacetic acid; DTP-A; DTPA; Pentetate; Pentetic acid

$$$$
