TN4
     RDKit          3D

 27 29  0  0  0  0  0  0  0  0999 V2000
    2.8186    4.0442   -0.7805 N   0  0  0  0  0  0  0  0  0  0  0  0
    3.2199    5.0312   -1.6765 C   0  0  0  0  0  0  0  0  0  0  0  0
    4.0576    5.8692   -1.4578 O   0  0  0  0  0  0  0  0  0  0  0  0
    2.4766    5.1271   -2.8185 O   0  0  0  0  0  0  0  0  0  0  0  0
    1.8539    4.0032   -3.4280 C   0  0  2  0  0  0  0  0  0  0  0  0
    0.3230    4.0548   -3.2908 C   0  0  0  0  0  0  0  0  0  0  0  0
   -0.3375    2.8464   -3.9421 C   0  0  0  0  0  0  0  0  0  0  0  0
    0.4030    1.6409   -3.4941 C   0  0  2  0  0  0  0  0  0  0  0  0
   -0.3829    0.4991   -3.4569 O   0  0  0  0  0  0  0  0  0  0  0  0
    0.0038    0.9229   -2.1313 C   0  0  0  0  0  0  0  0  0  0  0  0
    1.8776    1.6144   -3.8667 C   0  0  2  0  0  0  0  0  0  0  0  0
    2.6515    2.6797   -3.2174 C   0  0  2  0  0  0  0  0  0  0  0  0
    3.3324    2.1430   -2.0705 O   0  0  0  0  0  0  0  0  0  0  0  0
    2.9169    0.9348   -1.4158 C   0  0  0  0  0  0  0  0  0  0  0  0
    2.4354    1.2904   -5.1898 C   0  0  1  0  0  0  0  0  0  0  0  0
    2.5293    2.2500   -6.2303 O   0  0  0  0  0  0  0  0  0  0  0  0
    3.8131    1.9529   -5.6648 C   0  0  2  0  0  0  0  0  0  0  0  0
    4.8223    1.2983   -6.5073 C   0  0  0  0  0  0  0  0  0  0  0  0
    5.3912    0.1257   -5.7714 C   0  0  0  0  0  0  0  0  0  0  0  0
    5.1214   -1.1347   -6.1407 C   0  0  0  0  0  0  0  0  0  0  0  0
    5.5762   -2.3014   -5.3285 C   0  0  0  0  0  0  0  0  0  0  0  0
    4.3234   -1.4111   -7.3814 C   0  0  0  0  0  0  0  0  0  0  0  0
    2.0135   -0.1072   -5.4351 C   0  0  0  0  0  0  0  0  0  0  0  0
    3.5777    3.4870    0.2299 C   0  0  0  0  0  0  0  0  0  0  0  0
    3.2435    2.4209    0.7597 O   0  0  0  0  0  0  0  0  0  0  0  0
    4.7444    4.2463    0.7417 C   0  0  0  0  0  0  0  0  0  0  0  0
    6.1462    4.1230   -0.3256 Cl  0  0  0  0  0  0  0  0  0  0  0  0
  1  2  1  0
  1 24  1  0
  2  3  2  0
  2  4  1  0
  5  6  1  0
  5 12  1  0
  5  4  1  1
  6  7  1  0
  8  7  1  1
  8  9  1  0
  8 10  1  0
 11  8  1  6
  9 10  1  0
 11 12  1  0
 12 13  1  1
 13 14  1  0
 15 16  1  0
 15 17  1  0
 15 11  1  0
 15 23  1  6
 16 17  1  0
 17 18  1  6
 18 19  1  0
 19 20  2  3
 20 21  1  0
 20 22  1  0
 24 25  2  0
 24 26  1  0
 26 27  1  0
M  END
>  <DRUGBANK_ID>  (1) 
DB08633

>  <SECONDARY_ACCESSION_NUMBERS>  (1) 
DB12828

>  <COMMON_NAME>  (1) 
TNP-470

>  <CAS_NUMBER>  (1) 
129298-91-5

>  <UNII>  (1) 
X47GR46481

>  <SYNONYMS>  (1) 
O-(chloroacetylcarbamoyl)fumagillol; O-chloroacetylcarbamoylfumagillol

$$$$
