
     RDKit          3D

 33 35  0  0  1  0  0  0  0  0999 V2000
    1.0218    0.0353   -0.0996 C   0  0  0  0  0  0  0  0  0  0  0  0
    0.4370    1.3672   -0.1975 N   0  0  0  0  0  0  0  0  0  0  0  0
    1.1760    2.4320   -0.9132 C   0  0  1  0  0  0  0  0  0  0  0  0
    0.5098    2.7511   -2.2712 C   0  0  0  0  0  0  0  0  0  0  0  0
    1.2431    3.8568   -2.8859 N   0  0  0  0  0  0  0  0  0  0  0  0
    1.6848    3.7567   -4.1733 C   0  0  0  0  0  0  0  0  0  0  0  0
    0.9411    3.0748   -5.0885 C   0  0  0  0  0  0  0  0  0  0  0  0
    1.4235    2.8999   -6.3576 C   0  0  0  0  0  0  0  0  0  0  0  0
    2.6566    3.3729   -6.8095 C   0  0  0  0  0  0  0  0  0  0  0  0
    3.4074    4.0866   -5.8701 C   0  0  0  0  0  0  0  0  0  0  0  0
    2.9118    4.2857   -4.5699 C   0  0  0  0  0  0  0  0  0  0  0  0
    3.2288    3.1963   -8.1935 C   0  0  0  0  0  0  0  0  0  0  0  0
    4.3274    3.6885   -8.4559 O   0  0  0  0  0  0  0  0  0  0  0  0
    2.5815    2.5178   -9.2022 N   0  0  0  0  0  0  0  0  0  0  0  0
    1.3467    1.7484   -9.2011 C   0  0  1  0  0  0  0  0  0  0  0  0
    0.2666    2.3688  -10.0823 C   0  0  0  0  0  0  0  0  0  0  0  0
    0.5431    2.2241  -11.5582 C   0  0  0  0  0  0  0  0  0  0  0  0
    0.6377    0.7914  -12.0206 C   0  0  0  0  0  0  0  0  0  0  0  0
   -0.4817    0.2912  -12.5755 O   0  0  0  0  0  0  0  0  0  0  0  0
    1.6433    0.1325  -11.9245 O   0  0  0  0  0  0  0  0  0  0  0  0
    1.5516    0.2262   -9.0071 C   0  0  0  0  0  0  0  0  0  0  0  0
    0.8074   -0.3393   -8.0186 O   0  0  0  0  0  0  0  0  0  0  0  0
    2.3822   -0.4445   -9.5883 O   0  0  0  0  0  0  0  0  0  0  0  0
    1.1149    3.7064   -0.0296 C   0  0  0  0  0  0  0  0  0  0  0  0
   -0.2927    4.0473    0.2498 N   0  0  0  0  0  0  0  0  0  0  0  0
   -1.2128    3.0240    0.4928 C   0  0  0  0  0  0  0  0  0  0  0  0
   -0.8310    1.7198    0.3388 C   0  0  0  0  0  0  0  0  0  0  0  0
   -1.8564    0.6489    0.7087 C   0  0  0  0  0  0  0  0  0  0  0  0
   -1.5942   -0.5418    0.5537 O   0  0  0  0  0  0  0  0  0  0  0  0
   -3.0773    1.0475    1.2018 N   0  0  0  0  0  0  0  0  0  0  0  0
   -3.3385    2.3085    1.2664 C   0  0  0  0  0  0  0  0  0  0  0  0
   -4.5432    2.7016    1.7233 N   0  0  0  0  0  0  0  0  0  0  0  0
   -2.4919    3.2970    0.8919 N   0  0  0  0  0  0  0  0  0  0  0  0
  1  2  1  0
  2  3  1  0
  2 27  1  0
  3  4  1  6
  3 24  1  0
  4  5  1  0
  5  6  1  0
  6  7  2  0
  6 11  1  0
  7  8  1  0
  8  9  2  0
  9 10  1  0
  9 12  1  0
 10 11  2  0
 12 13  2  0
 12 14  1  0
 15 14  1  0
 15 16  1  6
 15 21  1  0
 16 17  1  0
 17 18  1  0
 18 19  1  0
 18 20  2  0
 21 22  1  0
 21 23  2  0
 24 25  1  0
 25 26  1  0
 26 27  2  0
 26 33  1  0
 27 28  1  0
 28 29  2  0
 28 30  1  0
 30 31  2  0
 31 32  1  0
 31 33  1  0
M  END
>  <DRUGBANK_ID>  (1) 
DB11256

>  <COMMON_NAME>  (1) 
Levomefolic acid

>  <CAS_NUMBER>  (1) 
31690-09-2

>  <UNII>  (1) 
8S95DH25XC

>  <SYNONYMS>  (1) 
(6S)-5-methyltetrahydrofolate; (6S)-5-Methyltetrahydrofolic acid; (6S)-5-MTHF; 5-methyl-(6S)-tetrahydrofolic acid; L-5-methyltetrahydrofolate; L-5-MTHF; L-methylfolate; Levomefolate; Levomefolic acid; LMSR; N-[4-[[[(6S)-2-Amino-3,4,5,6,7,8-hexahydro-5-methyl-4-oxo-6-pteridinyl]methyl]amino]benzoyl]-L-glutamic acid

$$$$
