
     RDKit          3D

  9  9  0  0  0  0  0  0  0  0999 V2000
   -0.2849   -1.2294    0.0031 C   0  0  0  0  0  0  0  0  0  0  0  0
    0.9871   -0.6996    0.0003 C   0  0  0  0  0  0  0  0  0  0  0  0
   -0.8197   -2.5632    0.0100 C   0  0  0  0  0  0  0  0  0  0  0  0
   -1.0858   -0.0992   -0.0007 N   0  0  0  0  0  0  0  0  0  0  0  0
    0.9876    0.6615   -0.0011 N   0  0  0  0  0  0  0  0  0  0  0  0
    2.1596   -1.3284    0.0033 N   0  0  0  0  0  0  0  0  0  0  0  0
    0.0612   -3.6043    0.0132 N   0  0  0  0  0  0  0  0  0  0  0  0
   -2.0272   -2.8029    0.0134 O   0  0  0  0  0  0  0  0  0  0  0  0
   -0.2794    1.0024   -0.0001 C   0  0  0  0  0  0  0  0  0  0  0  0
  1  2  2  0
  1  3  1  0
  1  4  1  0
  2  5  1  0
  2  6  1  0
  3  7  1  0
  3  8  2  0
  4  9  1  0
  5  9  2  0
M  END
>  <DRUGBANK_ID>  (1) 
DB06143

>  <COMMON_NAME>  (1) 
Aminoimidazole carboxamide

>  <CAS_NUMBER>  (1) 
360-97-4

>  <UNII>  (1) 
3V0Y2PDE6K

>  <SYNONYMS>  (1) 
5-Aminoimidazol-4-carboxamide; 5-Aminoimidazole-4-carboxamide; AIC; AICA; Aminoimidazole carboxamide

$$$$
