
     RDKit          3D

 12 12  0  0  0  0  0  0  0  0999 V2000
    1.1348    0.1593    0.0705 C   0  0  0  0  0  0  0  0  0  0  0  0
    0.5861    0.0917   -1.3555 C   0  0  0  0  0  0  0  0  0  0  0  0
    1.0068   -1.1904   -2.0897 C   0  0  0  0  0  0  0  0  0  0  0  0
    0.5713   -2.4258   -1.4162 N   0  0  0  0  0  0  0  0  0  0  0  0
    1.1233   -3.7100   -1.7726 C   0  0  0  0  0  0  0  0  0  0  0  0
    0.2290   -4.7030   -1.0518 C   0  0  0  0  0  0  0  0  0  0  0  0
   -0.2821   -3.9301    0.1463 C   0  0  0  0  0  0  0  0  0  0  0  0
   -0.3968   -2.5474   -0.4212 C   0  0  0  0  0  0  0  0  0  0  0  0
   -1.1530   -1.6984    0.0285 O   0  0  0  0  0  0  0  0  0  0  0  0
    0.4950   -1.1502   -3.5476 C   0  0  0  0  0  0  0  0  0  0  0  0
    1.4513   -1.1379   -4.5302 N   0  0  0  0  0  0  0  0  0  0  0  0
   -0.6897   -1.1793   -3.8670 O   0  0  0  0  0  0  0  0  0  0  0  0
  1  2  1  0
  2  3  1  0
  3  4  1  0
  3 10  1  0
  4  5  1  0
  4  8  1  0
  5  6  1  0
  6  7  1  0
  7  8  1  0
  8  9  2  0
 10 11  1  0
 10 12  2  0
M  END
>  <DRUGBANK_ID>  (1) 
DB11868

>  <COMMON_NAME>  (1) 
Etiracetam

>  <CAS_NUMBER>  (1) 
33996-58-6

>  <UNII>  (1) 
230447L0GL

>  <SYNONYMS>  (1) 
Etiracetam; étiracétam; Etiracetamum

$$$$
