
     RDKit          3D

 42 45  0  0  0  0  0  0  0  0999 V2000
    1.4357    0.0778   -0.0213 O   0  0  0  0  0  0  0  0  0  0  0  0
    0.9845    1.1510    0.6358 C   0  0  0  0  0  0  0  0  0  0  0  0
    1.6589    1.7448    1.5078 O   0  0  0  0  0  0  0  0  0  0  0  0
   -0.4435    1.3064    0.4697 C   0  0  0  0  0  0  0  0  0  0  0  0
   -1.1677    1.3921   -0.8481 C   0  0  0  0  0  0  0  0  0  0  0  0
   -0.9976    0.1256   -1.7560 C   0  0  0  0  0  0  0  0  0  0  0  0
   -1.4198   -1.3192   -1.3398 C   0  0  0  0  0  0  0  0  0  0  0  0
   -2.8516   -1.3517   -1.2843 N   0  0  0  0  0  0  0  0  0  0  0  0
   -3.5703   -2.5887   -1.0030 C   0  0  0  0  0  0  0  0  0  0  0  0
   -3.6010   -2.8142    0.5301 C   0  0  0  0  0  0  0  0  0  0  0  0
   -4.3377   -1.7823    1.9038 C   0  0  0  0  0  0  0  0  0  0  0  0
   -4.5642   -2.2729    3.1977 C   0  0  0  0  0  0  0  0  0  0  0  0
   -4.5754   -3.5775    3.5967 O   0  0  0  0  0  0  0  0  0  0  0  0
   -4.5210   -4.6003    2.5928 C   0  0  0  0  0  0  0  0  0  0  0  0
   -5.5865   -4.5518    1.4544 C   0  0  0  0  0  0  0  0  0  0  0  0
   -5.9778   -5.6381    0.7090 C   0  0  0  0  0  0  0  0  0  0  0  0
   -6.8594   -5.4563   -0.4100 C   0  0  0  0  0  0  0  0  0  0  0  0
   -7.1336   -4.1996   -0.9556 C   0  0  0  0  0  0  0  0  0  0  0  0
   -8.0533   -3.6873   -2.0051 C   0  0  0  0  0  0  0  0  0  0  0  0
   -9.1448   -2.7127   -1.4168 C   0  0  0  0  0  0  0  0  0  0  0  0
   -8.7885   -1.3216   -0.8580 C   0  0  0  0  0  0  0  0  0  0  0  0
   -9.0072   -0.1735   -1.6208 C   0  0  0  0  0  0  0  0  0  0  0  0
   -8.6805    1.0978   -1.1226 C   0  0  0  0  0  0  0  0  0  0  0  0
   -8.0427    1.2446    0.1062 C   0  0  0  0  0  0  0  0  0  0  0  0
   -7.8450    0.1254    0.8913 C   0  0  0  0  0  0  0  0  0  0  0  0
   -8.2710   -1.1250    0.4393 C   0  0  0  0  0  0  0  0  0  0  0  0
   -6.4895   -3.1842   -0.4028 C   0  0  0  0  0  0  0  0  0  0  0  0
   -6.0262   -3.3745    0.8554 C   0  0  0  0  0  0  0  0  0  0  0  0
   -4.7814   -1.3287    4.2673 C   0  0  0  0  0  0  0  0  0  0  0  0
   -4.8557    0.0708    4.1128 C   0  0  0  0  0  0  0  0  0  0  0  0
   -4.9583    0.5727    2.8606 C   0  0  0  0  0  0  0  0  0  0  0  0
   -4.8161   -0.3432    1.8089 C   0  0  0  0  0  0  0  0  0  0  0  0
   -3.1997   -0.4802   -0.1927 C   0  0  0  0  0  0  0  0  0  0  0  0
   -2.2788   -0.5906    1.3278 C   0  0  0  0  0  0  0  0  0  0  0  0
   -2.2762    0.5128    2.2091 C   0  0  0  0  0  0  0  0  0  0  0  0
   -1.9166    0.4076    3.5935 C   0  0  0  0  0  0  0  0  0  0  0  0
   -1.7020   -0.8378    4.2038 C   0  0  0  0  0  0  0  0  0  0  0  0
   -1.6232   -1.9066    3.3810 C   0  0  0  0  0  0  0  0  0  0  0  0
   -1.7438   -1.7541    2.0081 C   0  0  0  0  0  0  0  0  0  0  0  0
   -1.8225   -1.1013    5.6587 C   0  0  0  0  0  0  0  0  0  0  0  0
   -2.0294   -2.3850    6.0654 O   0  0  0  0  0  0  0  0  0  0  0  0
   -1.7722   -0.1849    6.4610 O   0  0  0  0  0  0  0  0  0  0  0  0
  1  2  1  0
  2  3  2  0
  2  4  1  0
  4  5  1  0
  5  6  1  0
  6  7  1  0
  7  8  1  0
  8  9  1  0
  8 33  1  0
  9 10  1  0
 10 11  1  0
 11 12  1  0
 11 32  2  0
 12 13  1  0
 12 29  2  0
 13 14  1  0
 14 15  1  0
 15 16  2  0
 15 28  1  0
 16 17  1  0
 17 18  2  0
 18 19  1  0
 18 27  1  0
 19 20  1  0
 20 21  1  0
 21 22  2  0
 21 26  1  0
 22 23  1  0
 23 24  2  0
 24 25  1  0
 25 26  2  0
 27 28  2  0
 29 30  1  0
 30 31  2  0
 31 32  1  0
 33 34  1  0
 34 35  2  0
 34 39  1  0
 35 36  1  0
 36 37  2  0
 37 38  1  0
 37 40  1  0
 38 39  2  0
 40 41  1  0
 40 42  2  0
M  END
>  <DRUGBANK_ID>  (1) 
DB16126

>  <COMMON_NAME>  (1) 
Cinaciguat

>  <CAS_NUMBER>  (1) 
329773-35-5

>  <UNII>  (1) 
59K0Y58UAD

>  <SYNONYMS>  (1) 
Cinaciguat

$$$$
