
     RDKit          3D

 31 33  0  0  0  0  0  0  0  0999 V2000
    1.2068    0.6182    0.0291 C   0  0  0  0  0  0  0  0  0  0  0  0
    0.6009    0.3511    1.4116 C   0  0  0  0  0  0  0  0  0  0  0  0
    1.0354    1.5860    2.2033 C   0  0  0  0  0  0  0  0  0  0  0  0
   -0.9318    0.1408    1.3524 C   0  0  0  0  0  0  0  0  0  0  0  0
   -1.4227   -1.1765    0.9666 O   0  0  0  0  0  0  0  0  0  0  0  0
   -1.1057   -1.6582   -0.2719 C   0  0  0  0  0  0  0  0  0  0  0  0
    0.2057   -1.9934   -0.5845 C   0  0  0  0  0  0  0  0  0  0  0  0
    0.5822   -2.1353   -1.9039 C   0  0  0  0  0  0  0  0  0  0  0  0
   -0.3765   -2.4462   -2.8407 C   0  0  0  0  0  0  0  0  0  0  0  0
    0.1365   -2.6531   -4.2204 C   0  0  0  0  0  0  0  0  0  0  0  0
   -0.3995   -3.8358   -4.8395 N   0  0  0  0  0  0  0  0  0  0  0  0
   -1.3042   -4.1534   -5.7935 C   0  0  0  0  0  0  0  0  0  0  0  0
   -1.4834   -5.3478   -5.9766 O   0  0  0  0  0  0  0  0  0  0  0  0
   -1.9858   -3.1844   -6.4948 N   0  0  0  0  0  0  0  0  0  0  0  0
   -1.7904   -1.7755   -6.3289 C   0  0  0  0  0  0  0  0  0  0  0  0
   -1.2994   -1.0468   -7.5331 C   0  0  0  0  0  0  0  0  0  0  0  0
   -1.5978    0.3132   -7.6447 C   0  0  0  0  0  0  0  0  0  0  0  0
   -1.1849    1.0023   -8.7693 C   0  0  0  0  0  0  0  0  0  0  0  0
   -0.4417    0.3395   -9.7429 C   0  0  0  0  0  0  0  0  0  0  0  0
   -0.0980    0.9969  -10.8553 F   0  0  0  0  0  0  0  0  0  0  0  0
   -0.0702   -0.9930   -9.6037 C   0  0  0  0  0  0  0  0  0  0  0  0
   -0.5076   -1.6972   -8.4966 C   0  0  0  0  0  0  0  0  0  0  0  0
   -3.0745   -3.5821   -7.4559 C   0  0  0  0  0  0  0  0  0  0  0  0
   -3.7722   -2.4164   -8.2215 C   0  0  0  0  0  0  0  0  0  0  0  0
   -4.5779   -1.4866   -7.3027 C   0  0  0  0  0  0  0  0  0  0  0  0
   -5.5196   -2.2215   -6.4582 N   0  0  0  0  0  0  0  0  0  0  0  0
   -6.0558   -1.3187   -5.4362 C   0  0  0  0  0  0  0  0  0  0  0  0
   -4.9282   -3.4016   -5.7970 C   0  0  0  0  0  0  0  0  0  0  0  0
   -4.2182   -4.3345   -6.7722 C   0  0  0  0  0  0  0  0  0  0  0  0
   -1.7329   -2.4109   -2.4759 C   0  0  0  0  0  0  0  0  0  0  0  0
   -2.0989   -1.9255   -1.2102 C   0  0  0  0  0  0  0  0  0  0  0  0
  1  2  1  0
  2  3  1  0
  2  4  1  0
  4  5  1  0
  5  6  1  0
  6  7  2  0
  6 31  1  0
  7  8  1  0
  8  9  2  0
  9 10  1  0
  9 30  1  0
 10 11  1  0
 11 12  1  0
 12 13  2  0
 12 14  1  0
 14 15  1  0
 14 23  1  0
 15 16  1  0
 16 17  2  0
 16 22  1  0
 17 18  1  0
 18 19  2  0
 19 20  1  0
 19 21  1  0
 21 22  2  0
 23 24  1  0
 23 29  1  0
 24 25  1  0
 25 26  1  0
 26 27  1  0
 26 28  1  0
 28 29  1  0
 30 31  2  0
M  END
>  <DRUGBANK_ID>  (1) 
DB05316

>  <COMMON_NAME>  (1) 
Pimavanserin

>  <CAS_NUMBER>  (1) 
706779-91-1

>  <UNII>  (1) 
JZ963P0DIK

>  <SYNONYMS>  (1) 
Pimavanserin

$$$$
