
     RDKit          3D

 12 11  0  0  0  0  0  0  0  0999 V2000
    0.7893    0.1077   -2.5466 C   0  0  0  0  0  0  0  0  0  0  0  0
    0.2832   -1.9707    1.4959 C   0  0  0  0  0  0  0  0  0  0  0  0
    1.8692    0.4307   -3.0432 O   0  0  0  0  0  0  0  0  0  0  0  0
    0.5861   -0.5193   -1.1853 C   0  0  2  0  0  0  0  0  0  0  0  0
    0.9508   -2.4889    2.3991 O   0  0  0  0  0  0  0  0  0  0  0  0
    1.0118    0.1586    0.0839 C   0  0  0  0  0  0  0  0  0  0  0  0
    0.2968   -0.4305    1.3286 C   0  0  0  0  0  0  0  0  0  0  0  0
   -0.4572   -2.8028    0.6585 N   0  0  0  0  0  0  0  0  0  0  0  0
   -0.3644    0.1989   -3.2562 O   0  0  0  0  0  0  0  0  0  0  0  0
    1.3348   -1.7628   -1.0987 N   0  0  0  0  0  0  0  0  0  0  0  0
   -1.0929   -2.8757   -1.9120 C   0  0  0  0  0  0  0  0  0  0  0  0
   -1.4303   -2.4695   -0.4109 C   0  0  0  0  0  0  0  0  0  0  0  0
  2  7  1  0
  3  1  2  0
  4 10  1  6
  4  6  1  0
  4  1  1  0
  5  2  2  0
  7  6  1  0
  8  2  1  0
  9  1  1  0
 12 11  1  0
 12  8  1  0
M  END
>  <DRUGBANK_ID>  (1) 
DB12444

>  <COMMON_NAME>  (1) 
Theanine

>  <CAS_NUMBER>  (1) 
3081-61-6

>  <UNII>  (1) 
8021PR16QO

>  <SYNONYMS>  (1) 
L-theanine; N-ethyl-L-glutamine; N(5)-ethyl-L-glutamine; N5-ethyl-L-glutamine; Suntheanine; Theanin

$$$$
