
     RDKit          3D

 20 20  0  0  1  0  0  0  0  0999 V2000
    2.8546   -1.5731    3.5568 P   0  0  0  0  0  0  0  0  0  0  0  0
    1.4153   -2.0839    2.9972 O   0  0  0  0  0  0  0  0  0  0  0  0
    2.5593   -0.0789    4.1186 O   0  0  0  0  0  0  0  0  0  0  0  0
    3.0976   -0.8261    2.0154 O   0  0  0  0  0  0  0  0  0  0  0  0
    2.6372   -2.2416    4.9364 O   0  0  0  0  0  0  0  0  0  0  0  0
    1.0769   -2.0233    1.6267 C   0  0  1  0  0  0  0  0  0  0  0  0
    2.1161   -2.6942    0.6118 C   0  0  1  0  0  0  0  0  0  0  0  0
   -0.3151   -2.6990    1.4682 C   0  0  1  0  0  0  0  0  0  0  0  0
    1.6438   -2.2924   -0.7524 C   0  0  2  0  0  0  0  0  0  0  0  0
    3.5061   -2.2443    0.5282 O   0  0  0  0  0  0  0  0  0  0  0  0
   -0.8241   -2.3623    0.0698 C   0  0  1  0  0  0  0  0  0  0  0  0
   -0.2619   -4.0916    1.7126 O   0  0  0  0  0  0  0  0  0  0  0  0
    0.2200   -2.7132   -1.0368 C   0  0  1  0  0  0  0  0  0  0  0  0
    2.5271   -2.7462   -1.7958 O   0  0  0  0  0  0  0  0  0  0  0  0
   -2.0871   -2.8748   -0.3376 O   0  0  0  0  0  0  0  0  0  0  0  0
   -0.1205   -2.1685   -2.3196 O   0  0  0  0  0  0  0  0  0  0  0  0
   -0.1159   -0.4423   -2.4339 P   0  0  0  0  0  0  0  0  0  0  0  0
   -0.0380   -0.2041   -0.8440 O   0  0  0  0  0  0  0  0  0  0  0  0
    1.4589   -0.5466   -2.8417 O   0  0  0  0  0  0  0  0  0  0  0  0
   -0.1118    1.1026   -2.5362 O   0  0  0  0  0  0  0  0  0  0  0  0
  1  2  1  0
  1  3  1  0
  1  4  1  0
  1  5  2  0
  6  7  1  0
  6  8  1  0
  6  2  1  1
  7  9  1  0
  7 10  1  1
  8 11  1  0
  8 12  1  6
  9 13  1  0
  9 14  1  6
 11 13  1  0
 11 15  1  6
 13 16  1  6
 16 17  1  0
 17 18  1  0
 17 19  1  0
 17 20  2  0
M  END
>  <DRUGBANK_ID>  (1) 
DB03158

>  <SECONDARY_ACCESSION_NUMBERS>  (1) 
EXPT00125

>  <COMMON_NAME>  (1) 
D-Myo-Inositol-1,4-Bisphosphate

>  <CAS_NUMBER>  (1) 
47055-78-7

$$$$
