
     RDKit          3D

 27 30  0  0  0  0  0  0  0  0999 V2000
   -1.1666    1.1713    0.3903 C   0  0  1  0  0  0  0  0  0  0  0  0
   -2.5261    1.8110   -0.1889 C   0  0  0  0  0  0  0  0  0  0  0  0
   -1.0537    1.3923    1.9228 C   0  0  0  0  0  0  0  0  0  0  0  0
   -0.9907   -0.3236    0.1077 C   0  0  0  0  0  0  0  0  0  0  0  0
    0.0375    1.8700   -0.3190 C   0  0  0  0  0  0  0  0  0  0  0  0
   -3.8857    1.3216    0.3888 C   0  0  0  0  0  0  0  0  0  0  0  0
   -2.6587    1.7927   -1.7223 C   0  0  0  0  0  0  0  0  0  0  0  0
   -0.0072    0.7958    2.6478 C   0  0  0  0  0  0  0  0  0  0  0  0
   -1.9160    2.2287    2.6471 C   0  0  0  0  0  0  0  0  0  0  0  0
    0.2085   -0.8427   -0.2627 N   0  0  0  0  0  0  0  0  0  0  0  0
   -1.8403   -1.1607    0.3926 O   0  0  0  0  0  0  0  0  0  0  0  0
    1.4069    1.2674   -0.0130 C   0  0  0  0  0  0  0  0  0  0  0  0
   -4.3805    0.0354   -0.2211 C   0  0  0  0  0  0  0  0  0  0  0  0
   -3.0454    0.4185   -2.2486 C   0  0  0  0  0  0  0  0  0  0  0  0
    0.2594    1.1279    3.9672 C   0  0  0  0  0  0  0  0  0  0  0  0
   -1.6918    2.5188    3.9889 C   0  0  0  0  0  0  0  0  0  0  0  0
    1.4234   -0.2400   -0.1209 C   0  0  0  0  0  0  0  0  0  0  0  0
   -4.3086   -0.0403   -1.6736 N   0  0  0  0  0  0  0  0  0  0  0  0
   -0.5949    1.9796    4.6438 C   0  0  0  0  0  0  0  0  0  0  0  0
    2.4492   -0.9032   -0.0029 O   0  0  0  0  0  0  0  0  0  0  0  0
   -4.6633   -1.3907   -2.1570 C   0  0  0  0  0  0  0  0  0  0  0  0
   -3.7030   -2.5253   -1.8326 C   0  0  0  0  0  0  0  0  0  0  0  0
   -3.5167   -2.9803   -0.5171 C   0  0  0  0  0  0  0  0  0  0  0  0
   -2.9662   -3.1521   -2.8402 C   0  0  0  0  0  0  0  0  0  0  0  0
   -2.5035   -3.8772   -0.1853 C   0  0  0  0  0  0  0  0  0  0  0  0
   -2.0892   -4.1958   -2.5240 C   0  0  0  0  0  0  0  0  0  0  0  0
   -1.8033   -4.5081   -1.1955 C   0  0  0  0  0  0  0  0  0  0  0  0
  1  2  1  6
  1  3  1  0
  1  4  1  0
  1  5  1  0
  2  6  1  0
  2  7  1  0
  3  8  2  0
  3  9  1  0
  4 10  1  0
  4 11  2  0
  5 12  1  0
  6 13  1  0
  7 14  1  0
  8 15  1  0
  9 16  2  0
 10 17  1  0
 12 17  1  0
 13 18  1  0
 14 18  1  0
 15 19  2  0
 16 19  1  0
 17 20  2  0
 18 21  1  0
 21 22  1  0
 22 23  2  0
 22 24  1  0
 23 25  1  0
 24 26  2  0
 25 27  2  0
 26 27  1  0
M  END
>  <DRUGBANK_ID>  (1) 
DB08997

>  <COMMON_NAME>  (1) 
Dexetimide

>  <CAS_NUMBER>  (1) 
21888-98-2

>  <UNII>  (1) 
43477QYX3D

>  <SYNONYMS>  (1) 
Dexetimida; Dexetimide; Dexetimidum

$$$$
