
     RDKit          3D

 39 43  0  0  1  0  0  0  0  0999 V2000
   -4.5466    2.4131   -1.8522 C   0  0  0  0  0  0  0  0  0  0  0  0
   -5.3404    4.7564   -2.3784 C   0  0  0  0  0  0  0  0  0  0  0  0
   -1.0291    5.0694   -7.8554 C   0  0  0  0  0  0  0  0  0  0  0  0
    1.1845    1.2808   -4.8359 C   0  0  0  0  0  0  0  0  0  0  0  0
   -2.0426    2.9301   -3.1715 C   0  0  0  0  0  0  0  0  0  0  0  0
    2.8499   -1.5314   -7.1524 C   0  0  0  0  0  0  0  0  0  0  0  0
    0.1859   -1.8566   -9.5119 C   0  0  0  0  0  0  0  0  0  0  0  0
   -2.9737    4.0706   -2.7684 C   0  0  0  0  0  0  0  0  0  0  0  0
    1.8415   -0.5315   -6.7088 C   0  0  0  0  0  0  0  0  0  0  0  0
   -2.3307    2.3834   -4.5731 C   0  0  0  0  0  0  0  0  0  0  0  0
    3.0395   -1.1658   -8.5857 C   0  0  0  0  0  0  0  0  0  0  0  0
    1.0869   -0.6693   -9.9962 C   0  0  0  0  0  0  0  0  0  0  0  0
   -0.9721   -2.5509   -7.3483 C   0  0  0  0  0  0  0  0  0  0  0  0
   -2.5137   -0.2964   -7.2004 C   0  0  0  0  0  0  0  0  0  0  0  0
    1.4731    2.0577   -7.9459 C   0  0  0  0  0  0  0  0  0  0  0  0
   -0.6229    4.2633   -5.2147 C   0  0  0  0  0  0  0  0  0  0  0  0
   -3.2701   -3.2697   -5.7349 C   0  0  0  0  0  0  0  0  0  0  0  0
   -0.8612   -1.6597   -8.4226 C   0  0  0  0  0  0  0  0  0  0  0  0
   -1.4158   -0.4266   -8.1404 C   0  0  0  0  0  0  0  0  0  0  0  0
   -1.6176   -2.1953   -6.1549 C   0  0  0  0  0  0  0  0  0  0  0  0
   -2.6264   -1.2916   -6.2765 C   0  0  0  0  0  0  0  0  0  0  0  0
    0.3248    2.8264   -7.9530 C   0  0  0  0  0  0  0  0  0  0  0  0
    0.6690    3.4684   -5.1645 C   0  0  0  0  0  0  0  0  0  0  0  0
   -0.2885    0.5557   -7.9225 C   0  0  1  0  0  0  0  0  0  0  0  0
   -0.7623    1.9414   -7.5602 C   0  0  2  0  0  0  0  0  0  0  0  0
   -2.7270    3.0689   -7.0965 C   0  0  0  0  0  0  0  0  0  0  0  0
   -4.4429    3.6129   -2.7868 C   0  0  0  0  0  0  0  0  0  0  0  0
    1.3242    0.4654   -7.9023 C   0  0  2  0  0  0  0  0  0  0  0  0
   -2.0978    3.5011   -5.6057 C   0  0  1  0  0  0  0  0  0  0  0  0
    2.0400   -0.1525   -9.0202 N   0  0  0  0  0  0  0  0  0  0  0  0
    1.7059    3.7710   -5.6743 O   0  0  0  0  0  0  0  0  0  0  0  0
   -3.8347    3.4716   -7.4746 O   0  0  0  0  0  0  0  0  0  0  0  0
   -4.9527    3.2056   -4.0578 O   0  0  0  0  0  0  0  0  0  0  0  0
   -3.1485    4.5275   -5.3306 O   0  0  0  0  0  0  0  0  0  0  0  0
    0.1700    4.2240   -7.9768 O   0  0  0  0  0  0  0  0  0  0  0  0
    0.4393    2.3614   -4.4088 O   0  0  0  0  0  0  0  0  0  0  0  0
   -1.9622   -3.1157   -5.1873 O   0  0  0  0  0  0  0  0  0  0  0  0
   -3.8191   -1.9583   -6.0236 O   0  0  0  0  0  0  0  0  0  0  0  0
   -2.0032    2.3717   -8.0058 O   0  0  0  0  0  0  0  0  0  0  0  0
  8  5  1  0
  9  6  1  0
 10  5  1  0
 11  6  1  0
 12  7  1  0
 18  7  1  0
 18 13  2  0
 19 14  2  0
 19 18  1  0
 20 13  1  0
 21 14  1  0
 21 20  2  0
 22 15  2  0
 23 16  1  0
 24 19  1  6
 25 22  1  0
 25 24  1  0
 25 39  1  6
 27  1  1  0
 27  2  1  0
 27  8  1  0
 28  9  1  1
 28 15  1  0
 28 24  1  0
 28 30  1  0
 29 10  1  0
 29 16  1  0
 29 26  1  0
 29 34  1  1
 30 11  1  0
 30 12  1  0
 31 23  2  0
 32 26  2  0
 33 27  1  0
 35  3  1  0
 35 22  1  0
 36  4  1  0
 36 23  1  0
 37 17  1  0
 37 20  1  0
 38 17  1  0
 38 21  1  0
 39 26  1  0
M  END
>  <DRUGBANK_ID>  (1) 
DB04865

>  <COMMON_NAME>  (1) 
Omacetaxine mepesuccinate

>  <CAS_NUMBER>  (1) 
26833-87-4

>  <UNII>  (1) 
6FG8041S5B

>  <SYNONYMS>  (1) 
(−)-homoharringtonine; (2'R,3S,4S,5R)-(−)-homoharringtonine; 1-[(1S,3aR,14bS)-2-Methoxy-1,5,6,8,9,14b-hexahydro-4H-cyclopenta[a][1,3]dioxolo[4,5-H]pyrrolo[2,1-b][3]benzazepin-1-yl] 4-methyl (2R)-2-hydroxy-2-(4-hydroxy-4-methylpentyl)butanedioate; CEPHALOTAXINE 4-METHYL (2R)-2-HYDROXY-2-(4-HYDROXY-4-METHYLPENTYL)BUTANEDIOATE (ESTER); CEPHALOTAXINE, 4-METHYL (2R)-2-HYDROXY-2-(4-HYDROXY-4-METHYLPENTYL)BUTANEDIOATE (ESTER); HHT; Homoharringtonin; Homoharringtonine; mepesuccinato de omacetaxina; Omacetaxine mepesuccinate

$$$$
