
     RDKit          3D

  9  9  0  0  0  0  0  0  0  0999 V2000
   -0.8592   -0.0754    1.2548 N   0  0  0  0  0  0  0  0  0  0  0  0
    0.6160    0.0770    1.2194 C   0  0  1  0  0  0  0  0  0  0  0  0
    0.9972    1.3188    2.0665 C   0  0  0  0  0  0  0  0  0  0  0  0
    1.1053    0.4100    3.3137 C   0  0  2  0  0  0  0  0  0  0  0  0
    2.1591    0.6468    4.1284 F   0  0  0  0  0  0  0  0  0  0  0  0
    1.2491   -0.7849    2.3491 C   0  0  0  0  0  0  0  0  0  0  0  0
    1.2134   -0.0791   -0.2326 C   0  0  0  0  0  0  0  0  0  0  0  0
    0.3078    0.1561   -1.2289 O   0  0  0  0  0  0  0  0  0  0  0  0
    2.3598   -0.4162   -0.5158 O   0  0  0  0  0  0  0  0  0  0  0  0
  2  3  1  0
  2  6  1  0
  2  7  1  0
  2  1  1  6
  4  3  1  0
  4  5  1  1
  4  6  1  0
  7  8  1  0
  7  9  2  0
M  END
>  <DRUGBANK_ID>  (1) 
DB15237

>  <COMMON_NAME>  (1) 
Fluciclovine

>  <CAS_NUMBER>  (1) 
222727-43-7

>  <UNII>  (1) 
YKG0YF688X

>  <SYNONYMS>  (1) 
Anti-1-amino-3-18F-fluorocyclobutane-1-carboxylic acid; Cyclobutanecarboxylic acid, 1-amino-3-fluoro-, trans-

$$$$
