
     RDKit          3D

 25 26  0  0  0  0  0  0  0  0999 V2000
    0.9046   -0.0043   -0.0802 C   0  0  0  0  0  0  0  0  0  0  0  0
    0.3091   -0.4046    1.1732 N   0  0  0  0  0  0  0  0  0  0  0  0
   -0.5142    0.3426    1.9771 C   0  0  0  0  0  0  0  0  0  0  0  0
   -0.9589   -0.1374    3.0129 O   0  0  0  0  0  0  0  0  0  0  0  0
   -0.7523    1.8029    1.5923 C   0  0  0  0  0  0  0  0  0  0  0  0
    0.4108    2.5892    1.3475 O   0  0  0  0  0  0  0  0  0  0  0  0
    1.2435    2.7794    2.4104 C   0  0  0  0  0  0  0  0  0  0  0  0
    1.6716    1.8037    3.3019 C   0  0  0  0  0  0  0  0  0  0  0  0
    2.5472    2.1023    4.3469 C   0  0  0  0  0  0  0  0  0  0  0  0
    2.9637    0.7660    5.3721 Cl  0  0  0  0  0  0  0  0  0  0  0  0
    2.9961    3.4138    4.5556 C   0  0  0  0  0  0  0  0  0  0  0  0
    4.0022    3.7124    5.6536 C   0  0  0  0  0  0  0  0  0  0  0  0
    5.3833    4.0963    5.1558 C   0  0  0  0  0  0  0  0  0  0  0  0
    5.5970    5.2765    4.4428 C   0  0  0  0  0  0  0  0  0  0  0  0
    6.8260    5.6397    3.9150 C   0  0  0  0  0  0  0  0  0  0  0  0
    7.9234    4.8552    4.1874 C   0  0  0  0  0  0  0  0  0  0  0  0
    9.1499    5.2432    3.7346 O   0  0  0  0  0  0  0  0  0  0  0  0
    7.7839    3.6893    4.9458 C   0  0  0  0  0  0  0  0  0  0  0  0
    6.5028    3.3065    5.4100 C   0  0  0  0  0  0  0  0  0  0  0  0
    8.9908    2.8417    5.2727 C   0  0  0  0  0  0  0  0  0  0  0  0
    9.1968    2.7787    6.7850 C   0  0  0  0  0  0  0  0  0  0  0  0
    8.8286    1.4546    4.6580 C   0  0  0  0  0  0  0  0  0  0  0  0
    2.4715    4.4001    3.6853 C   0  0  0  0  0  0  0  0  0  0  0  0
    2.4939    6.1046    3.9929 Cl  0  0  0  0  0  0  0  0  0  0  0  0
    1.7022    4.0687    2.5696 C   0  0  0  0  0  0  0  0  0  0  0  0
  1  2  1  0
  2  3  1  0
  3  4  2  0
  3  5  1  0
  5  6  1  0
  6  7  1  0
  7  8  2  0
  7 25  1  0
  8  9  1  0
  9 10  1  0
  9 11  2  0
 11 12  1  0
 11 23  1  0
 12 13  1  0
 13 14  2  0
 13 19  1  0
 14 15  1  0
 15 16  2  0
 16 17  1  0
 16 18  1  0
 18 19  2  0
 18 20  1  0
 20 21  1  0
 20 22  1  0
 23 24  1  0
 23 25  2  0
M  END
>  <DRUGBANK_ID>  (1) 
DB18157

>  <COMMON_NAME>  (1) 
ABX-002

>  <CAS_NUMBER>  (1) 
2156649-32-8

>  <UNII>  (1) 
QTW4WC4BRX

>  <SYNONYMS>  (1) 
2-(3,5-DICHLORO-4-((4-HYDROXY-3-(PROPAN-2-YL)PHENYL)METHYL)PHENOXY)-N-METHYLACETAMIDE

$$$$
