AO5
     RDKit          3D

 23 23  0  0  0  0  0  0  0  0999 V2000
   -0.5598    5.5258   -1.1134 C   0  0  0  0  0  0  0  0  0  0  0  0
   -1.9952    5.0230   -0.9102 C   0  0  0  0  0  0  0  0  0  0  0  0
   -0.3125    6.0935   -2.5002 C   0  0  0  0  0  0  0  0  0  0  0  0
    0.8821    4.5364   -0.6008 S   0  0  0  0  0  0  0  0  0  0  0  0
    1.0636    3.3842   -1.9432 C   0  0  0  0  0  0  0  0  0  0  0  0
   -0.0547    2.4193   -1.8905 C   0  0  0  0  0  0  0  0  0  0  0  0
   -1.4299    2.5458   -2.4474 C   0  0  1  0  0  0  0  0  0  0  0  0
   -1.4936    3.2208   -3.7459 N   0  0  0  0  0  0  0  0  0  0  0  0
   -2.0470    1.1358   -2.4336 C   0  0  2  0  0  0  0  0  0  0  0  0
   -1.9610    0.5636   -1.1265 O   0  0  0  0  0  0  0  0  0  0  0  0
   -1.4184    0.2961   -3.5918 C   0  0  0  0  0  0  0  0  0  0  0  0
   -2.1772   -0.0698   -4.5056 O   0  0  0  0  0  0  0  0  0  0  0  0
   -0.0505    0.0057   -3.7496 N   0  0  0  0  0  0  0  0  0  0  0  0
    1.0983    0.0435   -2.7874 N   0  0  0  0  0  0  0  0  0  0  0  0
    2.3693    0.5651   -3.1150 C   0  0  0  0  0  0  0  0  0  0  0  0
    3.1150    1.1299   -2.3491 O   0  0  0  0  0  0  0  0  0  0  0  0
    2.9339    0.1751   -4.3894 C   0  0  0  0  0  0  0  0  0  0  0  0
    2.3285    0.4934   -5.5949 C   0  0  0  0  0  0  0  0  0  0  0  0
    2.8184   -0.1131   -6.7367 C   0  0  0  0  0  0  0  0  0  0  0  0
    3.9308   -0.9633   -6.6490 C   0  0  0  0  0  0  0  0  0  0  0  0
    4.5584   -1.2121   -5.4261 C   0  0  0  0  0  0  0  0  0  0  0  0
    4.0655   -0.6342   -4.2792 C   0  0  0  0  0  0  0  0  0  0  0  0
    5.9127   -2.2601   -5.3203 Cl  0  0  0  0  0  0  0  0  0  0  0  0
  1  2  1  0
  1  3  1  0
  1  4  1  0
  4  5  1  0
  5  6  1  0
  6  7  1  0
  7  8  1  6
  9 11  1  0
  9 10  1  1
  9  7  1  0
 11 12  2  0
 11 13  1  0
 13 14  1  0
 14 15  1  0
 15 16  2  0
 15 17  1  0
 17 18  2  0
 17 22  1  0
 18 19  1  0
 19 20  2  0
 20 21  1  0
 21 22  2  0
 21 23  1  0
M  END
>  <DRUGBANK_ID>  (1) 
DB07377

>  <COMMON_NAME>  (1) 
N'-((2S,3R)-3-AMINO-2-HYDROXY-5-(ISOPROPYLSULFANYL)PENTANOYL)-N-3-CHLOROBENZOYL HYDRAZIDE

$$$$
