
     RDKit          3D

 25 27  0  0  0  0  0  0  0  0999 V2000
    1.0439   -0.0289   -0.0414 C   0  0  0  0  0  0  0  0  0  0  0  0
    0.5461    0.4290    1.3300 C   0  0  0  0  0  0  0  0  0  0  0  0
   -0.9305    0.1494    1.4617 C   0  0  0  0  0  0  0  0  0  0  0  0
   -1.4432   -0.9036    1.8128 O   0  0  0  0  0  0  0  0  0  0  0  0
   -1.6810    1.3421    1.0616 C   0  0  0  0  0  0  0  0  0  0  0  0
   -0.7461    2.2997    1.0879 C   0  0  0  0  0  0  0  0  0  0  0  0
    0.5709    1.8884    1.3927 O   0  0  0  0  0  0  0  0  0  0  0  0
   -1.0030    3.7398    0.7975 C   0  0  0  0  0  0  0  0  0  0  0  0
   -1.9789    4.4836    1.4988 C   0  0  0  0  0  0  0  0  0  0  0  0
   -2.2695    5.8286    1.1805 C   0  0  0  0  0  0  0  0  0  0  0  0
   -1.5736    6.4585    0.1509 C   0  0  0  0  0  0  0  0  0  0  0  0
   -0.5894    5.7465   -0.5449 C   0  0  0  0  0  0  0  0  0  0  0  0
   -0.3430    4.3893   -0.2536 C   0  0  0  0  0  0  0  0  0  0  0  0
   -1.9166    8.1305   -0.3581 S   0  0  0  0  0  0  0  0  0  0  0  0
   -0.7853    8.9509   -0.0186 O   0  0  0  0  0  0  0  0  0  0  0  0
   -2.4604    8.0835   -1.7021 O   0  0  0  0  0  0  0  0  0  0  0  0
   -3.1731    8.6727    0.6313 N   0  0  0  0  0  0  0  0  0  0  0  0
   -3.0874    1.4492    0.7344 C   0  0  0  0  0  0  0  0  0  0  0  0
   -4.0550    1.1335    1.6916 C   0  0  0  0  0  0  0  0  0  0  0  0
   -5.4021    1.3789    1.4282 C   0  0  0  0  0  0  0  0  0  0  0  0
   -5.7807    1.9551    0.2158 C   0  0  0  0  0  0  0  0  0  0  0  0
   -4.8119    2.2786   -0.7254 C   0  0  0  0  0  0  0  0  0  0  0  0
   -3.4760    1.9865   -0.4998 C   0  0  0  0  0  0  0  0  0  0  0  0
   -5.1630    2.9263   -1.8436 F   0  0  0  0  0  0  0  0  0  0  0  0
    1.3827   -0.2699    2.4019 C   0  0  0  0  0  0  0  0  0  0  0  0
  1  2  1  0
  2  3  1  0
  2  7  1  0
  2 25  1  0
  3  4  2  0
  3  5  1  0
  5  6  2  0
  5 18  1  0
  6  7  1  0
  6  8  1  0
  8  9  2  0
  8 13  1  0
  9 10  1  0
 10 11  2  0
 11 12  1  0
 11 14  1  0
 12 13  2  0
 14 15  2  0
 14 16  2  0
 14 17  1  0
 18 19  2  0
 18 23  1  0
 19 20  1  0
 20 21  2  0
 21 22  1  0
 22 23  2  0
 22 24  1  0
M  END
>  <DRUGBANK_ID>  (1) 
DB12399

>  <COMMON_NAME>  (1) 
Polmacoxib

>  <CAS_NUMBER>  (1) 
301692-76-2

>  <UNII>  (1) 
IJ34D6YPAO

>  <SYNONYMS>  (1) 
Polmacoxib

$$$$
