
     RDKit          3D

  7  6  0  0  0  0  0  0  0  0999 V2000
    0.9725    0.0137    0.0212 C   0  0  0  0  0  0  0  0  0  0  0  0
    2.3260    0.0382    0.0267 O   0  0  0  0  0  0  0  0  0  0  0  0
    0.3844   -1.0254   -0.2607 O   0  0  0  0  0  0  0  0  0  0  0  0
    0.2469    1.3481    0.3816 C   0  0  0  0  0  0  0  0  0  0  0  0
   -0.6150    1.7533   -0.7496 N   0  0  0  0  0  0  0  0  0  0  0  0
   -0.6545    1.0918    1.5964 C   0  0  0  0  0  0  0  0  0  0  0  0
    1.1961    2.5067    0.6977 C   0  0  0  0  0  0  0  0  0  0  0  0
  1  3  2  0
  1  2  1  0
  4  1  1  0
  4  5  1  0
  6  4  1  0
  7  4  1  0
M  END
>  <DRUGBANK_ID>  (1) 
DB02952

>  <SECONDARY_ACCESSION_NUMBERS>  (1) 
EXPT00471

>  <COMMON_NAME>  (1) 
2-aminoisobutyric acid

>  <CAS_NUMBER>  (1) 
62-57-7

>  <UNII>  (1) 
1E7ZW41IQU

>  <SYNONYMS>  (1) 
2-Amino-2-methylpropanoic acid; 2-aminoisobutyric acid; alpha-Aminoisobutyric acid; alpha-Methylalanine; α-aminoisobutanoic acid; α-aminoisobutyric acid; α-methylalanine; α,α-dimethylglycine

$$$$
