
     RDKit          3D

 24 25  0  0  0  0  0  0  0  0999 V2000
    1.1056   -0.2208   -0.0683 C   0  0  0  0  0  0  0  0  0  0  0  0
    0.7769   -1.0173    1.1953 C   0  0  0  0  0  0  0  0  0  0  0  0
    1.0431   -0.2175    2.4640 C   0  0  0  0  0  0  0  0  0  0  0  0
    0.2864    1.1166    2.5249 C   0  0  0  0  0  0  0  0  0  0  0  0
   -1.2006    0.9339    2.7286 N   0  0  0  0  0  0  0  0  0  0  0  0
   -1.8095    1.8586    3.6970 C   0  0  0  0  0  0  0  0  0  0  0  0
   -2.4030    3.2558    3.1943 C   0  0  0  0  0  0  0  0  0  0  0  0
   -3.1542    3.3141    1.9386 N   0  0  0  0  0  0  0  0  0  0  0  0
   -4.2934    4.1880    1.7472 C   0  0  0  0  0  0  0  0  0  0  0  0
   -3.7273    5.3246    0.9705 C   0  0  0  0  0  0  0  0  0  0  0  0
   -2.4766    2.8195    0.7455 C   0  0  0  0  0  0  0  0  0  0  0  0
   -1.4003    3.4185   -0.0651 C   0  0  0  0  0  0  0  0  0  0  0  0
   -2.0376    0.3110    1.7044 C   0  0  0  0  0  0  0  0  0  0  0  0
   -1.5926    0.0990    0.5803 O   0  0  0  0  0  0  0  0  0  0  0  0
   -3.5724    0.1419    1.8180 C   0  0  0  0  0  0  0  0  0  0  0  0
   -4.4635    1.2275    1.9085 C   0  0  0  0  0  0  0  0  0  0  0  0
   -5.8391    1.2687    2.0982 C   0  0  0  0  0  0  0  0  0  0  0  0
   -6.4477    0.1874    1.5989 C   0  0  0  0  0  0  0  0  0  0  0  0
   -5.6614   -0.8946    1.1472 C   0  0  0  0  0  0  0  0  0  0  0  0
   -4.2003   -0.9088    1.2340 C   0  0  0  0  0  0  0  0  0  0  0  0
   -3.4949   -1.9848    0.6768 C   0  0  0  0  0  0  0  0  0  0  0  0
   -4.1790   -3.0592    0.1845 C   0  0  0  0  0  0  0  0  0  0  0  0
   -5.5791   -3.0576    0.1790 C   0  0  0  0  0  0  0  0  0  0  0  0
   -6.3024   -1.9487    0.6096 C   0  0  0  0  0  0  0  0  0  0  0  0
  1  2  1  0
  2  3  1  0
  3  4  1  0
  4  5  1  0
  5  6  1  0
  5 13  1  0
  6  7  1  0
  7  8  1  0
  8  9  1  0
  8 11  1  0
  9 10  1  0
 11 12  1  0
 13 14  2  0
 13 15  1  0
 15 16  2  0
 15 20  1  0
 16 17  1  0
 17 18  2  0
 18 19  1  0
 19 20  2  0
 19 24  1  0
 20 21  1  0
 21 22  2  0
 22 23  1  0
 23 24  2  0
M  END
>  <DRUGBANK_ID>  (1) 
DB13652

>  <COMMON_NAME>  (1) 
Bunaftine

>  <CAS_NUMBER>  (1) 
32421-46-8

>  <UNII>  (1) 
GH09PRQ3FU

>  <SYNONYMS>  (1) 
Bunaftine

$$$$
