
     RDKit          3D

 19 19  0  0  0  0  0  0  0  0999 V2000
   -1.0893    1.0056   -0.0304 C   0  0  2  0  0  0  0  0  0  0  0  0
    0.4901    1.2880    0.1910 C   0  0  0  0  0  0  0  0  0  0  0  0
   -1.3910   -0.4856   -0.0585 C   0  0  0  0  0  0  0  0  0  0  0  0
   -1.8131    1.6969   -1.2392 C   0  0  0  0  0  0  0  0  0  0  0  0
   -1.8316    1.3746    1.1540 O   0  0  0  0  0  0  0  0  0  0  0  0
    1.4990    0.1410    0.0744 C   0  0  0  0  0  0  0  0  0  0  0  0
    0.7084    2.0170    1.5311 C   0  0  0  0  0  0  0  0  0  0  0  0
    1.0593    2.1852   -0.8813 C   0  0  0  0  0  0  0  0  0  0  0  0
   -0.4751   -1.4664   -0.0237 C   0  0  0  0  0  0  0  0  0  0  0  0
   -2.8654   -0.8412    0.0061 C   0  0  0  0  0  0  0  0  0  0  0  0
   -1.4004    2.7372   -1.9755 C   0  0  0  0  0  0  0  0  0  0  0  0
    0.9727   -1.2392    0.0476 C   0  0  0  0  0  0  0  0  0  0  0  0
   -1.7431    3.4005   -3.1979 C   0  0  0  0  0  0  0  0  0  0  0  0
    1.7491   -2.1930    0.0328 O   0  0  0  0  0  0  0  0  0  0  0  0
   -0.9725    4.4067   -3.7076 C   0  0  0  0  0  0  0  0  0  0  0  0
   -2.9746    2.8246   -3.8148 C   0  0  0  0  0  0  0  0  0  0  0  0
    0.3173    5.0589   -3.2592 C   0  0  0  0  0  0  0  0  0  0  0  0
    0.8763    5.9724   -3.8763 O   0  0  0  0  0  0  0  0  0  0  0  0
    0.8776    4.6002   -2.1443 O   0  0  0  0  0  0  0  0  0  0  0  0
  1  2  1  0
  1  3  1  0
  1  5  1  1
  1  4  1  0
  2  6  1  0
  2  7  1  0
  2  8  1  0
  3  9  2  0
  3 10  1  0
  4 11  2  0
  6 12  1  0
  9 12  1  0
 11 13  1  0
 12 14  2  0
 13 15  2  0
 13 16  1  0
 15 17  1  0
 17 18  2  0
 17 19  1  0
M  END
>  <DRUGBANK_ID>  (1) 
DB16829

>  <COMMON_NAME>  (1) 
Abscisic Acid

>  <CAS_NUMBER>  (1) 
21293-29-8

>  <UNII>  (1) 
72S9A8J5GW

>  <SYNONYMS>  (1) 
Abscisin II; Acide abscisique

$$$$
