906
     RDKit          3D

 25 27  0  0  1  0  0  0  0  0999 V2000
   -1.2777   -0.4379   -0.0075 S   0  0  0  0  0  0  0  0  0  0  0  0
    2.7306   -3.8770   -1.2837 S   0  0  0  0  0  0  0  0  0  0  0  0
   -3.7797   -3.8982    3.1530 O   0  0  0  0  0  0  0  0  0  0  0  0
   -5.8572   -3.3633    2.4696 O   0  0  0  0  0  0  0  0  0  0  0  0
   -2.3458   -5.4157    1.2472 N   0  0  0  0  0  0  0  0  0  0  0  0
   -4.2583   -3.8777    0.7573 C   0  0  1  0  0  0  0  0  0  0  0  0
   -2.7906   -4.1449    0.6650 C   0  0  0  0  0  0  0  0  0  0  0  0
   -4.9677   -4.9949    0.0034 C   0  0  0  0  0  0  0  0  0  0  0  0
   -4.5063   -6.3596    0.5198 C   0  0  0  0  0  0  0  0  0  0  0  0
   -2.9807   -6.5131    0.4918 C   0  0  0  0  0  0  0  0  0  0  0  0
   -0.8719   -5.5281    1.1785 C   0  0  0  0  0  0  0  0  0  0  0  0
   -0.1919   -4.9318   -0.0783 C   0  0  0  0  0  0  0  0  0  0  0  0
   -4.7031   -3.6962    2.1879 C   0  0  0  0  0  0  0  0  0  0  0  0
   -0.2681   -3.4130   -0.2274 C   0  0  0  0  0  0  0  0  0  0  0  0
    0.6931   -2.4895   -0.1050 C   0  0  0  0  0  0  0  0  0  0  0  0
    0.3613   -1.0574   -0.1003 C   0  0  0  0  0  0  0  0  0  0  0  0
    2.0042   -3.0316    0.0476 C   0  0  0  0  0  0  0  0  0  0  0  0
    1.2365    0.0327   -0.1064 C   0  0  0  0  0  0  0  0  0  0  0  0
    2.8820   -2.8805    1.1101 C   0  0  0  0  0  0  0  0  0  0  0  0
    0.5744    1.2989   -0.0248 C   0  0  0  0  0  0  0  0  0  0  0  0
    4.1594   -3.4417    0.7892 C   0  0  0  0  0  0  0  0  0  0  0  0
    2.7202   -0.0228   -0.1686 C   0  0  0  0  0  0  0  0  0  0  0  0
    2.5987   -2.0547    2.3273 C   0  0  0  0  0  0  0  0  0  0  0  0
   -0.7892    1.1912   -0.0067 C   0  0  0  0  0  0  0  0  0  0  0  0
    4.1846   -4.0753   -0.4317 C   0  0  0  0  0  0  0  0  0  0  0  0
  1 16  1  0
  1 24  1  0
  2 17  1  0
  2 25  1  0
  3 13  1  0
  4 13  2  0
  5  7  1  0
  5 10  1  0
  5 11  1  0
  6  7  1  0
  6  8  1  0
  6 13  1  1
  8  9  1  0
  9 10  1  0
 11 12  1  0
 12 14  1  0
 14 15  2  3
 15 16  1  0
 15 17  1  0
 16 18  2  0
 17 19  2  0
 18 20  1  0
 18 22  1  0
 19 21  1  0
 19 23  1  0
 20 24  2  0
 21 25  2  0
M  END
>  <DRUGBANK_ID>  (1) 
DB00906

>  <SECONDARY_ACCESSION_NUMBERS>  (1) 
APRD00344

>  <COMMON_NAME>  (1) 
Tiagabine

>  <CAS_NUMBER>  (1) 
115103-54-3

>  <UNII>  (1) 
Z80I64HMNP

>  <SYNONYMS>  (1) 
Tiagabina; Tiagabine; Tiagabinum

$$$$
