580
     RDKit          3D

 22 25  0  0  0  0  0  0  0  0999 V2000
    1.3429    1.1595   -0.0076 C   0  0  0  0  0  0  0  0  0  0  0  0
    2.1054   -0.0609   -0.0647 C   0  0  0  0  0  0  0  0  0  0  0  0
    1.2800   -1.1446   -0.0833 N   0  0  0  0  0  0  0  0  0  0  0  0
    0.0694   -0.5921    0.0415 N   0  0  0  0  0  0  0  0  0  0  0  0
    0.0423    0.7603    0.0603 C   0  0  0  0  0  0  0  0  0  0  0  0
   -1.2471   -1.2029    0.1086 C   0  0  0  0  0  0  0  0  0  0  0  0
   -2.1648    0.0016   -0.2055 C   0  0  0  0  0  0  0  0  0  0  0  0
   -1.3388    1.2664    0.1396 C   0  0  0  0  0  0  0  0  0  0  0  0
    3.5763   -0.1276   -0.1332 C   0  0  0  0  0  0  0  0  0  0  0  0
    1.7758    2.5336   -0.0433 C   0  0  0  0  0  0  0  0  0  0  0  0
    2.5193    3.0020   -1.1337 C   0  0  0  0  0  0  0  0  0  0  0  0
    2.9677    4.3209   -1.1500 C   0  0  0  0  0  0  0  0  0  0  0  0
    2.6638    5.1565   -0.0812 C   0  0  0  0  0  0  0  0  0  0  0  0
    1.9248    4.7018    1.0057 C   0  0  0  0  0  0  0  0  0  0  0  0
    1.4794    3.3822    1.0274 C   0  0  0  0  0  0  0  0  0  0  0  0
    4.2069   -0.6945   -1.2334 C   0  0  0  0  0  0  0  0  0  0  0  0
    5.5977   -0.6359   -1.3099 C   0  0  0  0  0  0  0  0  0  0  0  0
    6.3173   -0.0149   -0.2934 C   0  0  0  0  0  0  0  0  0  0  0  0
    5.6213    0.5538    0.7674 C   0  0  0  0  0  0  0  0  0  0  0  0
    4.2668    0.5127    0.8546 N   0  0  0  0  0  0  0  0  0  0  0  0
    3.0944    6.4248   -0.0972 F   0  0  0  0  0  0  0  0  0  0  0  0
    6.3634    1.2509    1.8722 C   0  0  0  0  0  0  0  0  0  0  0  0
  1  2  1  0
  1  5  2  0
  1 10  1  0
  2  3  2  0
  2  9  1  0
  3  4  1  0
  4  5  1  0
  4  6  1  0
  5  8  1  0
  6  7  1  0
  7  8  1  0
  9 16  2  0
  9 20  1  0
 10 11  2  0
 10 15  1  0
 11 12  1  0
 12 13  2  0
 13 14  1  0
 13 21  1  0
 14 15  2  0
 16 17  1  0
 17 18  2  0
 18 19  1  0
 19 20  2  0
 19 22  1  0
M  END
>  <DRUGBANK_ID>  (1) 
DB04480

>  <SECONDARY_ACCESSION_NUMBERS>  (1) 
EXPT00236

>  <COMMON_NAME>  (1) 
3-(4-Fluorophenyl)-2-(6-Methylpyridin-2-Yl)-5,6-Dihydro-4h-Pyrrolo[1,2-B]Pyrazole

$$$$
