
     RDKit          3D

 20 21  0  0  0  0  0  0  0  0999 V2000
    1.3219   -0.2134   -0.0090 C   0  0  0  0  0  0  0  0  0  0  0  0
    0.4480   -1.2959    0.0014 C   0  0  0  0  0  0  0  0  0  0  0  0
   -0.9591   -1.1360    0.0199 C   0  0  0  0  0  0  0  0  0  0  0  0
   -1.5048    0.1757    0.0207 C   0  0  0  0  0  0  0  0  0  0  0  0
   -0.5867    1.2592    0.0237 C   0  0  0  0  0  0  0  0  0  0  0  0
    0.8043    1.0702   -0.0197 C   0  0  0  0  0  0  0  0  0  0  0  0
   -2.8930    0.5233    0.0840 N   0  0  0  0  0  0  0  0  0  0  0  0
   -3.5918   -0.2811   -0.5594 N   0  0  0  0  0  0  0  0  0  0  0  0
   -4.9784   -0.0494   -0.5294 C   0  0  0  0  0  0  0  0  0  0  0  0
   -5.4957    0.8471   -1.4430 C   0  0  0  0  0  0  0  0  0  0  0  0
   -6.8698    0.9182   -1.6656 C   0  0  0  0  0  0  0  0  0  0  0  0
   -7.7973    0.1019   -0.9918 C   0  0  0  0  0  0  0  0  0  0  0  0
   -7.2471   -0.8465   -0.1189 C   0  0  0  0  0  0  0  0  0  0  0  0
   -5.8683   -0.8944    0.1515 C   0  0  0  0  0  0  0  0  0  0  0  0
   -9.1605    0.2357   -1.2101 N   0  0  0  0  0  0  0  0  0  0  0  0
   -1.6837   -2.4532    0.1046 C   0  0  0  0  0  0  0  0  0  0  0  0
   -2.9940   -2.4525    0.3740 O   0  0  0  0  0  0  0  0  0  0  0  0
   -1.0894   -3.5236    0.0092 O   0  0  0  0  0  0  0  0  0  0  0  0
  -10.1752   -0.4956   -0.4602 C   0  0  0  0  0  0  0  0  0  0  0  0
   -9.6493    1.3418   -2.0323 C   0  0  0  0  0  0  0  0  0  0  0  0
  1  2  2  0
  1  6  1  0
  2  3  1  0
  3  4  2  0
  3 16  1  0
  4  5  1  0
  4  7  1  0
  5  6  2  0
  7  8  2  0
  8  9  1  0
  9 10  2  0
  9 14  1  0
 10 11  1  0
 11 12  2  0
 12 13  1  0
 12 15  1  0
 13 14  2  0
 15 19  1  0
 15 20  1  0
 16 17  1  0
 16 18  2  0
M  END
>  <DRUGBANK_ID>  (1) 
DB08209

>  <COMMON_NAME>  (1) 
Methyl red

>  <CAS_NUMBER>  (1) 
493-52-7

>  <UNII>  (1) 
69083AX1ZX

>  <SYNONYMS>  (1) 
2-((4-Dimethylamino)phenylazo)benzoic acid; 2-[(p-Dimethylamino)phenyl]azobenzoic acid; 2-Carboxy-4'-(dimethylamino)azobenzene; 4-Dimethylamino-2'-carboxylazobenzene; 4'-(Dimethylamino)azobenzene-2-carboxylic acid; 4'-Dimethylaminoazobenzene-2-carboxylic acid; C.I. Acid Red 2; o-((p-(Dimethylamino)phenyl)azo)benzoic acid; o-Methyl red; p-(Dimethylamino)azobenzene-o-carboxylic acid

$$$$
