
     RDKit          3D

 43 48  0  0  1  0  0  0  0  0999 V2000
    0.8852   -0.1513   -0.4519 O   0  0  0  0  0  0  0  0  0  0  0  0
    0.4410   -0.9581    0.6777 C   0  0  2  0  0  0  0  0  0  0  0  0
    0.6672   -2.4458    0.7429 C   0  0  1  0  0  0  0  0  0  0  0  0
    1.9054   -2.6862    0.0577 O   0  0  0  0  0  0  0  0  0  0  0  0
    0.8453   -3.0030    2.2114 C   0  0  1  0  0  0  0  0  0  0  0  0
    1.6410   -1.9944    3.0483 C   0  0  0  0  0  0  0  0  0  0  0  0
    1.1002   -0.5354    2.9176 C   0  0  0  0  0  0  0  0  0  0  0  0
   -0.0707   -0.3061    3.4409 C   0  0  0  0  0  0  0  0  0  0  0  0
   -1.3108    0.9087    3.4212 C   0  0  0  0  0  0  0  0  0  0  0  0
   -1.1414    2.1896    3.3727 C   0  0  0  0  0  0  0  0  0  0  0  0
    0.1191    2.1337    2.9056 C   0  0  0  0  0  0  0  0  0  0  0  0
    1.0900    0.7977    2.4952 C   0  0  0  0  0  0  0  0  0  0  0  0
   -0.3190   -3.2632    3.0655 N   0  0  0  0  0  0  0  0  0  0  0  0
   -0.5837   -4.5858    3.6272 C   0  0  0  0  0  0  0  0  0  0  0  0
   -1.0982   -4.4116    5.0467 C   0  0  0  0  0  0  0  0  0  0  0  0
   -2.2778   -3.7013    5.3074 C   0  0  0  0  0  0  0  0  0  0  0  0
   -2.9639   -3.6330    6.5153 C   0  0  0  0  0  0  0  0  0  0  0  0
   -2.3207   -4.2120    7.5886 C   0  0  0  0  0  0  0  0  0  0  0  0
   -1.1189   -4.9141    7.3821 C   0  0  0  0  0  0  0  0  0  0  0  0
   -0.4853   -4.9743    6.1332 C   0  0  0  0  0  0  0  0  0  0  0  0
   -4.3072   -2.9647    6.6859 C   0  0  0  0  0  0  0  0  0  0  0  0
   -4.7657   -2.7947    7.8152 O   0  0  0  0  0  0  0  0  0  0  0  0
   -5.0167   -2.4553    5.6360 N   0  0  0  0  0  0  0  0  0  0  0  0
   -4.8739   -2.7901    4.3470 C   0  0  0  0  0  0  0  0  0  0  0  0
   -4.6579   -3.9567    3.7925 N   0  0  0  0  0  0  0  0  0  0  0  0
   -4.3652   -3.7481    2.4780 C   0  0  0  0  0  0  0  0  0  0  0  0
   -4.2173   -2.4181    2.1957 C   0  0  0  0  0  0  0  0  0  0  0  0
   -4.6987   -1.3939    3.4586 S   0  0  0  0  0  0  0  0  0  0  0  0
   -1.4582   -2.6543    2.7374 C   0  0  0  0  0  0  0  0  0  0  0  0
   -2.0842   -3.4028    2.0248 O   0  0  0  0  0  0  0  0  0  0  0  0
   -1.7060   -1.2979    3.0938 N   0  0  0  0  0  0  0  0  0  0  0  0
   -1.3720   -0.5938    4.9100 C   0  0  0  0  0  0  0  0  0  0  0  0
    0.4161    0.1996    5.4709 C   0  0  0  0  0  0  0  0  0  0  0  0
    1.7074    1.3795    4.8396 C   0  0  0  0  0  0  0  0  0  0  0  0
    2.1865    0.0014    4.9995 C   0  0  0  0  0  0  0  0  0  0  0  0
   -1.1191   -0.5405    1.4299 C   0  0  2  0  0  0  0  0  0  0  0  0
   -2.0266   -0.6588    0.2189 C   0  0  0  0  0  0  0  0  0  0  0  0
   -3.3255    0.0711    0.4193 C   0  0  0  0  0  0  0  0  0  0  0  0
   -3.3237    1.3887    0.8738 C   0  0  0  0  0  0  0  0  0  0  0  0
   -4.4841    1.9524    1.3904 C   0  0  0  0  0  0  0  0  0  0  0  0
   -5.6292    1.1833    1.5492 C   0  0  0  0  0  0  0  0  0  0  0  0
   -5.6742   -0.0777    0.9833 C   0  0  0  0  0  0  0  0  0  0  0  0
   -4.5600   -0.5737    0.3035 C   0  0  0  0  0  0  0  0  0  0  0  0
  2  1  1  6
  2  3  1  0
  2 36  1  0
  3  5  1  0
  3  4  1  6
  5 13  1  0
  5  6  1  1
  6  7  1  0
  7  8  2  0
  7 12  1  0
  8  9  1  0
  9 10  2  0
 10 11  1  0
 11 12  2  0
 13 14  1  0
 13 29  1  0
 14 15  1  0
 15 16  2  0
 15 20  1  0
 16 17  1  0
 17 18  2  0
 17 21  1  0
 18 19  1  0
 19 20  2  0
 21 22  2  0
 21 23  1  0
 23 24  1  0
 24 25  2  0
 24 28  1  0
 25 26  1  0
 26 27  2  0
 27 28  1  0
 29 30  2  0
 29 31  1  0
 31 32  1  0
 31 36  1  0
 32 33  1  0
 33 34  1  0
 33 35  1  0
 34 35  1  0
 36 37  1  6
 37 38  1  0
 38 39  2  0
 38 43  1  0
 39 40  1  0
 40 41  2  0
 41 42  1  0
 42 43  2  0
M  END
>  <DRUGBANK_ID>  (1) 
DB04609

>  <COMMON_NAME>  (1) 
INHIBITOR Q8467 OF DUPONT MERCK

$$$$
