
     RDKit          3D

 23 24  0  0  1  0  0  0  0  0999 V2000
    1.0795    0.0986   -0.0385 C   0  0  0  0  0  0  0  0  0  0  0  0
    0.4880    1.4899    0.2071 C   0  0  0  0  0  0  0  0  0  0  0  0
    1.0026    2.4172   -0.9054 C   0  0  0  0  0  0  0  0  0  0  0  0
   -1.0570    1.4632    0.2564 C   0  0  1  0  0  0  0  0  0  0  0  0
   -1.6097    0.6154    1.4347 C   0  0  0  0  0  0  0  0  0  0  0  0
   -2.3230    1.0790    2.3201 O   0  0  0  0  0  0  0  0  0  0  0  0
   -1.2438   -0.7000    1.3612 O   0  0  0  0  0  0  0  0  0  0  0  0
   -1.7008   -1.5630    2.4217 C   0  0  2  0  0  0  0  0  0  0  0  0
   -0.5949   -1.9890    3.3701 C   0  0  0  0  0  0  0  0  0  0  0  0
   -0.0564   -3.2841    2.7765 C   0  0  2  0  0  0  0  0  0  0  0  0
   -1.1279   -3.8560    1.9973 O   0  0  0  0  0  0  0  0  0  0  0  0
   -2.1855   -2.8883    1.8377 C   0  0  1  0  0  0  0  0  0  0  0  0
   -3.4239   -3.4035    2.5777 C   0  0  0  0  0  0  0  0  0  0  0  0
   -4.5288   -2.5159    2.4699 O   0  0  0  0  0  0  0  0  0  0  0  0
    0.4020   -4.2704    3.7715 N   0  0  0  0  0  0  0  0  0  0  0  0
   -0.5100   -4.9488    4.5572 C   0  0  0  0  0  0  0  0  0  0  0  0
   -0.1721   -6.0590    5.2090 C   0  0  0  0  0  0  0  0  0  0  0  0
    1.2719   -6.3301    5.3056 C   0  0  0  0  0  0  0  0  0  0  0  0
    2.1528   -5.6630    4.6254 N   0  0  0  0  0  0  0  0  0  0  0  0
    1.7386   -4.6924    3.7376 C   0  0  0  0  0  0  0  0  0  0  0  0
    2.5437   -4.1906    2.9451 O   0  0  0  0  0  0  0  0  0  0  0  0
    1.7003   -7.2965    6.1698 N   0  0  0  0  0  0  0  0  0  0  0  0
   -1.5545    2.8623    0.4012 N   0  0  0  0  0  0  0  0  0  0  0  0
  1  2  1  0
  2  3  1  0
  2  4  1  0
  4  5  1  0
  4 23  1  1
  5  6  2  0
  5  7  1  0
  8  7  1  6
  8  9  1  0
  8 12  1  0
  9 10  1  0
 10 11  1  0
 10 15  1  1
 11 12  1  0
 12 13  1  1
 13 14  1  0
 15 16  1  0
 15 20  1  0
 16 17  2  0
 17 18  1  0
 18 19  2  0
 18 22  1  0
 19 20  1  0
 20 21  2  0
M  END
>  <DRUGBANK_ID>  (1) 
DB06187

>  <COMMON_NAME>  (1) 
Valtorcitabine

>  <CAS_NUMBER>  (1) 
380886-95-3

>  <UNII>  (1) 
D5YQG6AQXP

>  <SYNONYMS>  (1) 
Valtorcitabine

$$$$
