
     RDKit          3D

 31 33  0  0  1  0  0  0  0  0999 V2000
   -9.0410    0.9887    4.5413 N   0  0  0  0  0  0  0  0  0  0  0  0
   -7.6417    1.5426    4.7176 C   0  0  0  0  0  0  0  0  0  0  0  0
   -8.1965    2.8464    5.2613 C   0  0  0  0  0  0  0  0  0  0  0  0
   -9.4500    2.0244    5.5841 C   0  0  0  0  0  0  0  0  0  0  0  0
   -9.5194   -0.6481    4.7750 S   0  0  0  0  0  0  0  0  0  0  0  0
   -8.6817   -1.1547    5.8635 O   0  0  0  0  0  0  0  0  0  0  0  0
  -10.9417   -0.6756    4.8912 O   0  0  0  0  0  0  0  0  0  0  0  0
   -9.1212   -1.5660    3.4475 N   0  0  0  0  0  0  0  0  0  0  0  0
   -8.5276   -1.0583    2.2987 C   0  0  0  0  0  0  0  0  0  0  0  0
   -9.0558   -1.4372    1.1119 N   0  0  0  0  0  0  0  0  0  0  0  0
   -8.5955   -0.7738    0.0447 C   0  0  0  0  0  0  0  0  0  0  0  0
   -7.7464    0.2304    0.2050 N   0  0  0  0  0  0  0  0  0  0  0  0
   -7.0833    0.4077    1.3763 C   0  0  0  0  0  0  0  0  0  0  0  0
   -7.4062   -0.3125    2.4527 C   0  0  0  0  0  0  0  0  0  0  0  0
   -5.9752    1.2827    1.5597 O   0  0  0  0  0  0  0  0  0  0  0  0
   -5.1305    1.6317    0.4303 C   0  0  2  0  0  0  0  0  0  0  0  0
   -5.7406    1.0275   -0.7375 C   0  0  0  0  0  0  0  0  0  0  0  0
   -3.6989    1.0608    0.3721 C   0  0  2  0  0  0  0  0  0  0  0  0
   -3.2261    0.5938   -1.0733 C   0  0  0  0  0  0  0  0  0  0  0  0
   -3.1016    1.6386   -2.0480 O   0  0  0  0  0  0  0  0  0  0  0  0
   -3.6668   -0.0756    1.2331 O   0  0  0  0  0  0  0  0  0  0  0  0
   -9.1205   -1.2607   -1.6182 S   0  0  0  0  0  0  0  0  0  0  0  0
   -8.1571   -0.3202   -2.9376 C   0  0  0  0  0  0  0  0  0  0  0  0
   -8.3939    1.1755   -3.0206 C   0  0  0  0  0  0  0  0  0  0  0  0
   -9.3534    1.9281   -3.6343 C   0  0  0  0  0  0  0  0  0  0  0  0
   -9.3667    3.3430   -3.4694 C   0  0  0  0  0  0  0  0  0  0  0  0
   -8.4922    4.0135   -2.6095 C   0  0  0  0  0  0  0  0  0  0  0  0
   -7.4508    3.2900   -2.1296 C   0  0  0  0  0  0  0  0  0  0  0  0
   -7.3687    1.9821   -2.6089 C   0  0  0  0  0  0  0  0  0  0  0  0
  -10.1920    4.0907   -4.2071 F   0  0  0  0  0  0  0  0  0  0  0  0
  -10.1539    1.3467   -4.5331 F   0  0  0  0  0  0  0  0  0  0  0  0
  1  2  1  0
  1  4  1  0
  1  5  1  0
  2  3  1  0
  3  4  1  0
  5  6  2  0
  5  7  2  0
  5  8  1  0
  8  9  1  0
  9 14  1  0
 10  9  2  0
 11 10  1  0
 11 12  2  0
 11 22  1  0
 13 12  1  0
 13 15  1  0
 14 13  2  0
 16 17  1  6
 16 15  1  0
 18 21  1  1
 18 19  1  0
 18 16  1  0
 19 20  1  0
 22 23  1  0
 23 24  1  0
 24 25  2  0
 24 29  1  0
 25 26  1  0
 25 31  1  0
 26 27  2  0
 26 30  1  0
 27 28  1  0
 28 29  2  0
M  END
>  <DRUGBANK_ID>  (1) 
DB16822

>  <COMMON_NAME>  (1) 
AZD-5069

>  <CAS_NUMBER>  (1) 
878385-84-3

>  <UNII>  (1) 
4ADT8JXB9S

$$$$
