
     RDKit          3D

 24 25  0  0  0  0  0  0  0  0999 V2000
    1.4001    0.1340    0.7782 C   0  0  0  0  0  0  0  0  0  0  0  0
    3.2043   -2.1408   -4.9728 C   0  0  0  0  0  0  0  0  0  0  0  0
    0.7634    1.5073    1.0665 C   0  0  0  0  0  0  0  0  0  0  0  0
    2.3176   -1.0031   -4.5842 C   0  0  0  0  0  0  0  0  0  0  0  0
    0.9798    2.7299    0.1120 C   0  0  0  0  0  0  0  0  0  0  0  0
    0.9074   -1.1909   -5.3425 C   0  0  0  0  0  0  0  0  0  0  0  0
    0.1645    2.7367   -1.1561 C   0  0  0  0  0  0  0  0  0  0  0  0
   -1.6221    1.1751   -0.8620 C   0  0  0  0  0  0  0  0  0  0  0  0
   -0.8440   -0.2084   -1.0016 C   0  0  0  0  0  0  0  0  0  0  0  0
    0.9938    0.6243   -2.5501 C   0  0  0  0  0  0  0  0  0  0  0  0
    0.2094    0.8020   -3.7791 C   0  0  0  0  0  0  0  0  0  0  0  0
    0.4184   -3.4519   -4.7894 C   0  0  0  0  0  0  0  0  0  0  0  0
   -1.7130   -2.9875   -3.0029 C   0  0  0  0  0  0  0  0  0  0  0  0
   -1.8235   -0.4711   -3.6252 C   0  0  0  0  0  0  0  0  0  0  0  0
   -0.9246   -6.3933   -3.5311 C   0  0  0  0  0  0  0  0  0  0  0  0
   -0.0176   -2.1796   -4.5997 C   0  0  0  0  0  0  0  0  0  0  0  0
   -1.1533   -1.8748   -3.7416 C   0  0  0  0  0  0  0  0  0  0  0  0
   -0.2303   -4.5067   -4.1240 C   0  0  0  0  0  0  0  0  0  0  0  0
   -1.2578   -4.2442   -3.2616 C   0  0  0  0  0  0  0  0  0  0  0  0
   -1.1591    2.3795   -1.4851 O   0  0  0  0  0  0  0  0  0  0  0  0
    0.3862   -0.3393   -1.7218 O   0  0  0  0  0  0  0  0  0  0  0  0
   -1.1750    0.7166   -4.0954 O   0  0  0  0  0  0  0  0  0  0  0  0
    0.0604   -5.7708   -4.3707 O   0  0  0  0  0  0  0  0  0  0  0  0
   -1.7839   -5.4510   -2.8457 O   0  0  0  0  0  0  0  0  0  0  0  0
  3  1  1  0
  4  2  1  0
  5  3  1  0
  6  4  1  0
  7  5  1  0
  9  8  1  0
 11 10  1  0
 16  6  1  0
 16 12  2  0
 17 13  2  0
 17 14  1  0
 17 16  1  0
 18 12  1  0
 19 13  1  0
 19 18  2  0
 20  7  1  0
 20  8  1  0
 21  9  1  0
 21 10  1  0
 22 11  1  0
 22 14  1  0
 23 15  1  0
 23 18  1  0
 24 15  1  0
 24 19  1  0
M  END
>  <DRUGBANK_ID>  (1) 
DB09350

>  <COMMON_NAME>  (1) 
Piperonyl butoxide

>  <CAS_NUMBER>  (1) 
51-03-6

>  <UNII>  (1) 
LWK91TU9AH

$$$$
