
     RDKit          3D

 35 36  0  0  1  0  0  0  0  0999 V2000
    0.9515    0.0320   -0.0987 C   0  0  0  0  0  0  0  0  0  0  0  0
    0.5439   -1.3707    0.3128 C   0  0  0  0  0  0  0  0  0  0  0  0
    1.0802   -1.6648    1.7143 C   0  0  0  0  0  0  0  0  0  0  0  0
    0.4982   -0.6725    2.7281 C   0  0  0  0  0  0  0  0  0  0  0  0
   -1.0247   -0.7768    2.6923 C   0  0  0  0  0  0  0  0  0  0  0  0
   -1.3713   -2.2543    2.9641 C   0  0  0  0  0  0  0  0  0  0  0  0
   -0.7862   -2.6543    4.3472 C   0  0  0  0  0  0  0  0  0  0  0  0
   -1.3269   -1.6810    5.3514 C   0  0  0  0  0  0  0  0  0  0  0  0
   -2.8000   -1.7763    5.0798 C   0  0  0  0  0  0  0  0  0  0  0  0
   -3.3140   -3.1381    5.5695 C   0  0  0  0  0  0  0  0  0  0  0  0
   -3.0183   -3.5937    6.9770 C   0  0  0  0  0  0  0  0  0  0  0  0
   -3.8045   -2.8471    8.0041 C   0  0  0  0  0  0  0  0  0  0  0  0
   -7.5829   -1.7630   10.8370 C   0  0  0  0  0  0  0  0  0  0  0  0
   -8.8713   -0.1851    7.7693 C   0  0  0  0  0  0  0  0  0  0  0  0
   -6.6148   -0.5778   10.5665 C   0  0  2  0  0  0  0  0  0  0  0  0
   -7.3821   -0.4316    7.5291 C   0  0  2  0  0  0  0  0  0  0  0  0
   -5.1503   -1.0532   10.5317 C   0  0  2  0  0  0  0  0  0  0  0  0
   -4.2835   -0.0773    9.6966 C   0  0  1  0  0  0  0  0  0  0  0  0
   -5.2899    0.8867    6.8921 C   0  0  2  0  0  0  0  0  0  0  0  0
   -4.5819    1.4003   10.0048 C   0  0  2  0  0  0  0  0  0  0  0  0
   -4.8672   -0.4401    6.3357 C   0  0  2  0  0  0  0  0  0  0  0  0
   -6.6785    0.9512    7.4490 C   0  0  2  0  0  0  0  0  0  0  0  0
   -5.6851   -1.7317    6.5879 C   0  0  1  0  0  0  0  0  0  0  0  0
   -6.1079    1.6465    9.9547 C   0  0  2  0  0  0  0  0  0  0  0  0
   -8.9314   -1.4092   11.0409 O   0  0  0  0  0  0  0  0  0  0  0  0
   -9.5830   -1.3578    8.1285 O   0  0  0  0  0  0  0  0  0  0  0  0
   -5.1691   -2.4169   10.1249 O   0  0  0  0  0  0  0  0  0  0  0  0
   -2.8641   -0.2140    9.5638 O   0  0  0  0  0  0  0  0  0  0  0  0
   -4.8099    2.0430    6.1943 O   0  0  0  0  0  0  0  0  0  0  0  0
   -3.8005    2.3696    9.2776 O   0  0  0  0  0  0  0  0  0  0  0  0
   -3.6025   -0.6273    6.9444 O   0  0  0  0  0  0  0  0  0  0  0  0
   -5.2439   -2.5598    7.7251 O   0  0  0  0  0  0  0  0  0  0  0  0
   -6.7671    0.7747   10.9615 O   0  0  0  0  0  0  0  0  0  0  0  0
   -7.0927   -1.3549    6.5038 O   0  0  0  0  0  0  0  0  0  0  0  0
   -6.7766    1.7784    8.6518 O   0  0  0  0  0  0  0  0  0  0  0  0
  2  1  1  0
  3  2  1  0
  4  3  1  0
  5  4  1  0
  6  5  1  0
  7  6  1  0
  8  7  1  0
  9  8  1  0
 10  9  1  0
 11 10  1  0
 12 11  1  0
 15 13  1  1
 16 14  1  6
 17 15  1  0
 17 27  1  6
 18 17  1  0
 18 28  1  1
 19 29  1  6
 20 18  1  0
 20 30  1  6
 21 19  1  0
 21 31  1  1
 22 16  1  0
 22 19  1  0
 22 35  1  1
 23 21  1  0
 23 32  1  1
 24 20  1  0
 24 35  1  6
 25 13  1  0
 26 14  1  0
 32 12  1  0
 33 15  1  0
 33 24  1  0
 34 16  1  0
 34 23  1  0
M  END
>  <DRUGBANK_ID>  (1) 
DB03279

>  <SECONDARY_ACCESSION_NUMBERS>  (1) 
EXPT02044

>  <COMMON_NAME>  (1) 
Dodecyl-Alpha-D-Maltoside

$$$$
