
     RDKit          3D

 28 30  0  0  0  0  0  0  0  0999 V2000
    3.2895   -0.7917   -4.5268 C   0  0  0  0  0  0  0  0  0  0  0  0
    3.6483   -2.1044   -4.6288 N   0  0  0  0  0  0  0  0  0  0  0  0
    3.1542   -3.0279   -3.6653 C   0  0  0  0  0  0  0  0  0  0  0  0
    2.3914   -2.5891   -2.5643 C   0  0  0  0  0  0  0  0  0  0  0  0
    1.9264   -1.3107   -2.6507 O   0  0  0  0  0  0  0  0  0  0  0  0
    2.9660   -0.4985   -3.1380 C   0  0  0  0  0  0  0  0  0  0  0  0
    3.2482   -4.3743   -3.8639 C   0  0  0  0  0  0  0  0  0  0  0  0
    2.6255   -5.2286   -2.9512 C   0  0  0  0  0  0  0  0  0  0  0  0
    2.0087   -4.7788   -1.7728 C   0  0  0  0  0  0  0  0  0  0  0  0
    1.9094   -3.4125   -1.5287 C   0  0  0  0  0  0  0  0  0  0  0  0
    3.3018    0.0725   -5.4116 O   0  0  0  0  0  0  0  0  0  0  0  0
    2.6052   -6.5493   -3.2873 O   0  0  0  0  0  0  0  0  0  0  0  0
    1.2828   -2.9192   -0.2252 C   0  0  2  0  0  0  0  0  0  0  0  0
    1.2338   -1.3832    0.0322 C   0  0  0  0  0  0  0  0  0  0  0  0
    1.9638   -3.5357    0.8843 O   0  0  0  0  0  0  0  0  0  0  0  0
    2.4499   -0.6797   -0.3924 N   0  0  0  0  0  0  0  0  0  0  0  0
    2.4931    0.7829   -0.5629 C   0  0  0  0  0  0  0  0  0  0  0  0
    2.6589    1.2367    0.8991 C   0  0  0  0  0  0  0  0  0  0  0  0
    3.9167    0.6360    1.5273 C   0  0  0  0  0  0  0  0  0  0  0  0
    3.7446    1.4121   -1.3586 C   0  0  0  0  0  0  0  0  0  0  0  0
    1.1717    1.3081   -1.1970 C   0  0  0  0  0  0  0  0  0  0  0  0
    3.8494   -0.3933    2.4667 C   0  0  0  0  0  0  0  0  0  0  0  0
    5.0289   -0.8576    3.0555 C   0  0  0  0  0  0  0  0  0  0  0  0
    6.2746   -0.4699    2.5549 C   0  0  0  0  0  0  0  0  0  0  0  0
    6.3292    0.3463    1.4437 C   0  0  0  0  0  0  0  0  0  0  0  0
    5.1837    1.0109    1.0639 C   0  0  0  0  0  0  0  0  0  0  0  0
    7.3824   -0.8873    3.2374 O   0  0  0  0  0  0  0  0  0  0  0  0
    8.6172   -0.3606    2.7489 C   0  0  0  0  0  0  0  0  0  0  0  0
  1  2  1  0
  1  6  1  0
  1 11  2  0
  2  3  1  0
  3  4  2  0
  3  7  1  0
  4  5  1  0
  4 10  1  0
  5  6  1  0
  7  8  2  0
  8  9  1  0
  8 12  1  0
  9 10  2  0
 13 15  1  1
 13 14  1  0
 13 10  1  0
 14 16  1  0
 16 17  1  0
 17 18  1  0
 17 20  1  0
 17 21  1  0
 18 19  1  0
 19 22  2  0
 19 26  1  0
 22 23  1  0
 23 24  2  0
 24 25  1  0
 24 27  1  0
 25 26  2  0
 27 28  1  0
M  END
>  <DRUGBANK_ID>  (1) 
DB09080

>  <COMMON_NAME>  (1) 
Olodaterol

>  <CAS_NUMBER>  (1) 
868049-49-4

>  <UNII>  (1) 
VD2YSN1AFD

>  <SYNONYMS>  (1) 
Olodaterol

$$$$
