3A3
     RDKit          3D

 25 27  0  0  0  0  0  0  0  0999 V2000
    0.8182    0.1841   -0.0704 O   0  0  0  0  0  0  0  0  0  0  0  0
    0.2553   -0.4558   -1.1179 C   0  0  0  0  0  0  0  0  0  0  0  0
    0.9543   -0.9306   -2.0021 O   0  0  0  0  0  0  0  0  0  0  0  0
   -1.2515   -0.6361   -0.9742 C   0  0  0  0  0  0  0  0  0  0  0  0
   -1.7730   -1.2557    0.2018 O   0  0  0  0  0  0  0  0  0  0  0  0
   -1.3962   -2.5584    0.4091 C   0  0  0  0  0  0  0  0  0  0  0  0
   -2.3780   -3.4530    0.8403 C   0  0  0  0  0  0  0  0  0  0  0  0
   -0.0650   -2.9940    0.3001 C   0  0  0  0  0  0  0  0  0  0  0  0
    0.3124   -4.3106    0.5227 C   0  0  0  0  0  0  0  0  0  0  0  0
   -0.6591   -5.1942    0.9152 C   0  0  0  0  0  0  0  0  0  0  0  0
   -1.9934   -4.7666    1.0800 C   0  0  0  0  0  0  0  0  0  0  0  0
   -2.7608   -5.9656    1.5075 C   0  0  0  0  0  0  0  0  0  0  0  0
   -4.0166   -6.1259    1.7919 N   0  0  0  0  0  0  0  0  0  0  0  0
   -4.7376   -4.9348    1.6672 O   0  0  0  0  0  0  0  0  0  0  0  0
   -1.7799   -7.0815    1.5627 C   0  0  0  0  0  0  0  0  0  0  0  0
   -1.9802   -8.4063    1.8691 C   0  0  0  0  0  0  0  0  0  0  0  0
   -0.5270   -6.5926    1.2155 C   0  0  0  0  0  0  0  0  0  0  0  0
    0.5740   -7.4375    1.1925 C   0  0  0  0  0  0  0  0  0  0  0  0
    0.3917   -8.7837    1.5373 C   0  0  0  0  0  0  0  0  0  0  0  0
   -0.8823   -9.2710    1.8820 C   0  0  0  0  0  0  0  0  0  0  0  0
   -0.9393  -10.6001    2.2142 O   0  0  0  0  0  0  0  0  0  0  0  0
   -2.2010  -11.0919    2.6548 C   0  0  0  0  0  0  0  0  0  0  0  0
   -2.7162  -10.4965    3.9687 C   0  0  0  0  0  0  0  0  0  0  0  0
   -3.9500   -9.9388    3.8995 O   0  0  0  0  0  0  0  0  0  0  0  0
   -2.0744  -10.4922    5.0141 O   0  0  0  0  0  0  0  0  0  0  0  0
  1  2  1  0
  2  3  2  0
  2  4  1  0
  4  5  1  0
  5  6  1  0
  6  7  2  0
  6  8  1  0
  7 11  1  0
  8  9  2  0
  9 10  1  0
 10 11  2  0
 10 17  1  0
 11 12  1  0
 12 13  2  3
 12 15  1  0
 13 14  1  0
 15 16  1  0
 15 17  2  0
 16 20  2  0
 17 18  1  0
 18 19  2  0
 19 20  1  0
 20 21  1  0
 21 22  1  0
 22 23  1  0
 23 24  1  0
 23 25  2  0
M  END
>  <DRUGBANK_ID>  (1) 
DB07034

>  <COMMON_NAME>  (1) 
2,2'-{[9-(HYDROXYIMINO)-9H-FLUORENE-2,7-DIYL]BIS(OXY)}DIACETIC ACID

$$$$
