FFB
     RDKit          3D

 25 26  0  0  0  0  0  0  0  0999 V2000
    1.2126   -0.3118    0.2127 C   0  0  0  0  0  0  0  0  0  0  0  0
    0.3458   -1.3744    0.0627 C   0  0  0  0  0  0  0  0  0  0  0  0
   -1.0016   -1.1190   -0.0218 C   0  0  0  0  0  0  0  0  0  0  0  0
   -1.4608    0.2021   -0.0173 C   0  0  0  0  0  0  0  0  0  0  0  0
   -0.5344    1.2693   -0.0007 C   0  0  0  0  0  0  0  0  0  0  0  0
    0.8450    1.0200    0.0198 C   0  0  0  0  0  0  0  0  0  0  0  0
    1.8091    2.1626   -0.2091 C   0  0  0  0  0  0  0  0  0  0  0  0
    1.3709    3.3094   -0.3139 O   0  0  0  0  0  0  0  0  0  0  0  0
    3.1666    1.9879   -0.3874 N   0  0  0  0  0  0  0  0  0  0  0  0
    3.9789    0.7982   -0.4057 C   0  0  0  0  0  0  0  0  0  0  0  0
   -2.0688   -2.5210   -0.0069 S   0  0  0  0  0  0  0  0  0  0  0  0
   -2.9188   -2.3263    1.4323 N   0  0  0  0  0  0  0  0  0  0  0  0
   -2.9874   -2.4144   -1.1025 O   0  0  0  0  0  0  0  0  0  0  0  0
   -1.2583   -3.7072    0.2144 O   0  0  0  0  0  0  0  0  0  0  0  0
    4.5963    0.4309   -1.7019 C   0  0  0  0  0  0  0  0  0  0  0  0
    5.2579    1.3805   -2.4560 C   0  0  0  0  0  0  0  0  0  0  0  0
    5.9312    1.0081   -3.6042 C   0  0  0  0  0  0  0  0  0  0  0  0
    5.9683   -0.3269   -3.9945 C   0  0  0  0  0  0  0  0  0  0  0  0
    5.3286   -1.2968   -3.2395 C   0  0  0  0  0  0  0  0  0  0  0  0
    4.6018   -0.9123   -2.1272 C   0  0  0  0  0  0  0  0  0  0  0  0
    5.2444    2.6604   -2.0603 F   0  0  0  0  0  0  0  0  0  0  0  0
    6.5813    1.9407   -4.3084 F   0  0  0  0  0  0  0  0  0  0  0  0
    6.6229   -0.6768   -5.1078 F   0  0  0  0  0  0  0  0  0  0  0  0
    5.4479   -2.5954   -3.5485 F   0  0  0  0  0  0  0  0  0  0  0  0
    3.8942   -1.8390   -1.4579 F   0  0  0  0  0  0  0  0  0  0  0  0
  1  2  2  0
  1  6  1  0
  2  3  1  0
  3  4  2  0
  3 11  1  0
  4  5  1  0
  5  6  2  0
  6  7  1  0
  7  8  2  0
  7  9  1  0
  9 10  1  0
 10 15  1  0
 11 12  1  0
 11 13  2  0
 11 14  2  0
 15 16  2  0
 15 20  1  0
 16 17  1  0
 16 21  1  0
 17 18  2  0
 17 22  1  0
 18 19  1  0
 18 23  1  0
 19 20  2  0
 19 24  1  0
 20 25  1  0
M  END
>  <DRUGBANK_ID>  (1) 
DB02610

>  <SECONDARY_ACCESSION_NUMBERS>  (1) 
EXPT01425

>  <COMMON_NAME>  (1) 
N-(2,3,4,5,6-Pentaflouro-Benzyl)-4-Sulfamoyl-Benzamide

$$$$
