
     RDKit          3D

 11 11  0  0  0  0  0  0  0  0999 V2000
    1.0936   -0.0307    0.0170 P   0  0  0  0  0  0  0  0  0  0  0  0
    1.2619    0.1457    1.5188 O   0  0  0  0  0  0  0  0  0  0  0  0
    1.1717    1.3567   -0.8190 O   0  0  0  0  0  0  0  0  0  0  0  0
   -0.6364   -0.0307    0.0170 O   0  0  0  0  0  0  0  0  0  0  0  0
    2.8236   -0.0307    0.0170 O   0  0  0  0  0  0  0  0  0  0  0  0
   -1.3704    0.2959    1.1403 C   0  0  0  0  0  0  0  0  0  0  0  0
   -3.2809   -0.1567    2.5541 C   0  0  0  0  0  0  0  0  0  0  0  0
   -2.9147    0.8866    3.4024 C   0  0  0  0  0  0  0  0  0  0  0  0
   -1.7782    1.6418    3.1183 C   0  0  0  0  0  0  0  0  0  0  0  0
   -1.0428    1.3707    1.9661 C   0  0  0  0  0  0  0  0  0  0  0  0
   -2.4948   -0.4792    1.4410 C   0  0  0  0  0  0  0  0  0  0  0  0
  1  2  2  0
  1  3  1  0
  1  4  1  0
  1  5  1  0
  4  6  1  0
  6 11  2  0
  7  8  2  0
  7 11  1  0
  8  9  1  0
  9 10  2  0
 10  6  1  0
M  END
>  <DRUGBANK_ID>  (1) 
DB03298

>  <SECONDARY_ACCESSION_NUMBERS>  (1) 
EXPT01775

>  <COMMON_NAME>  (1) 
Phenylphosphate

>  <CAS_NUMBER>  (1) 
701-64-4

>  <UNII>  (1) 
75M88J863E

>  <SYNONYMS>  (1) 
Monophenylphosphate; Phenolic phosphate; Phenyl phosphate; Phenylphosphoric acid; Phosphoric acid, monophenyl ester

$$$$
