153
     RDKit          3D

 29 31  0  0  1  0  0  0  0  0999 V2000
    1.6347    2.5130    1.4406 O   0  0  0  0  0  0  0  0  0  0  0  0
   -1.1569   -5.4564   -2.4747 C   0  0  2  0  0  0  0  0  0  0  0  0
   -1.7507   -6.8378   -2.1206 C   0  0  2  0  0  0  0  0  0  0  0  0
   -0.7772   -4.9593   -1.0550 C   0  0  1  0  0  0  0  0  0  0  0  0
   -0.9313   -7.2917   -0.8674 C   0  0  0  0  0  0  0  0  0  0  0  0
   -0.1108   -6.1189   -0.3693 C   0  0  0  0  0  0  0  0  0  0  0  0
   -2.1792   -4.4937   -3.1323 C   0  0  0  0  0  0  0  0  0  0  0  0
   -1.8397   -7.7941   -3.3427 C   0  0  2  0  0  0  0  0  0  0  0  0
   -0.0782   -3.6534   -1.1560 C   0  0  0  0  0  0  0  0  0  0  0  0
    0.0994   -5.5262   -3.3851 C   0  0  0  0  0  0  0  0  0  0  0  0
   -1.5748   -3.1059   -3.2676 C   0  0  0  0  0  0  0  0  0  0  0  0
   -0.9514   -2.7321   -1.9507 C   0  0  0  0  0  0  0  0  0  0  0  0
   -3.1767   -7.6569   -4.0781 C   0  0  0  0  0  0  0  0  0  0  0  0
   -1.5293   -9.2173   -2.9876 C   0  0  0  0  0  0  0  0  0  0  0  0
    1.0529   -3.2897   -0.5258 C   0  0  0  0  0  0  0  0  0  0  0  0
   -0.2684   -9.5401   -2.6728 C   0  0  0  0  0  0  0  0  0  0  0  0
    1.5030   -1.9109   -0.4294 C   0  0  0  0  0  0  0  0  0  0  0  0
    0.1941  -10.8357   -2.0945 C   0  0  1  0  0  0  0  0  0  0  0  0
    0.8024   -0.8693    0.0764 C   0  0  0  0  0  0  0  0  0  0  0  0
    1.3878  -11.3016   -2.9486 C   0  0  0  0  0  0  0  0  0  0  0  0
    1.3884    0.5209    0.1051 C   0  0  0  0  0  0  0  0  0  0  0  0
    0.5449  -10.7130   -0.5988 C   0  0  0  0  0  0  0  0  0  0  0  0
   -0.5475   -0.9403    0.6887 C   0  0  0  0  0  0  0  0  0  0  0  0
    1.2073    1.1574    1.4880 C   0  0  2  0  0  0  0  0  0  0  0  0
   -0.7212   -0.3478    2.0524 C   0  0  0  0  0  0  0  0  0  0  0  0
   -0.2522    1.0999    1.9445 C   0  0  0  0  0  0  0  0  0  0  0  0
    2.6097  -10.3708   -2.8456 C   0  0  0  0  0  0  0  0  0  0  0  0
    1.7757  -12.7213   -2.5600 C   0  0  0  0  0  0  0  0  0  0  0  0
   -1.7033   -1.0422    0.0598 C   0  0  0  0  0  0  0  0  0  0  0  0
  2  3  1  0
  2  4  1  0
  2  7  1  0
  2 10  1  6
  3  5  1  1
  3  8  1  0
  4  6  1  6
  4  9  1  0
  5  6  1  0
  7 11  1  0
  8 14  1  0
  8 13  1  1
  9 12  1  0
  9 15  2  0
 11 12  1  0
 14 16  2  0
 15 17  1  0
 16 18  1  0
 17 19  2  0
 18 20  1  0
 18 22  1  1
 19 21  1  0
 19 23  1  0
 20 27  1  0
 20 28  1  0
 21 24  1  0
 23 25  1  0
 23 29  2  0
 24  1  1  6
 24 26  1  0
 25 26  1  0
M  END
>  <DRUGBANK_ID>  (1) 
DB00153

>  <SECONDARY_ACCESSION_NUMBERS>  (1) 
NUTR00005; APRD00426

>  <COMMON_NAME>  (1) 
Ergocalciferol

>  <CAS_NUMBER>  (1) 
50-14-6

>  <UNII>  (1) 
VS041H42XC

>  <SYNONYMS>  (1) 
(3β,5Z,7E,22E)-9,10-secoergosta-5,7,10(19),22-tetraen-3-ol; (5Z,7E,22E)-(3S)-9,10-seco-5,7,10(19),22-ergostatetraen-3-ol; (5Z,7E,22E)-(3S)-9,10-secoergosta-5,7,10(19),22-tetraen-3-ol; Activated ergosterol; Ercalciol; Ergocalciférol; Ergocalciferol; Ergocalciferolum; Oleovitamin D2; Viosterol; Vitamin D2; Vitamina D2

$$$$
