
     RDKit          3D

 35 36  0  0  0  0  0  0  0  0999 V2000
    0.9876   -0.4486    0.1401 C   0  0  0  0  0  0  0  0  0  0  0  0
    0.4571    0.0198    1.4758 C   0  0  0  0  0  0  0  0  0  0  0  0
    1.6046    1.0966    2.2667 C   0  0  0  0  0  0  0  0  0  0  0  0
   -1.3634    0.3698    1.1117 C   0  0  0  0  0  0  0  0  0  0  0  0
   -1.9903   -0.8417    1.3271 C   0  0  0  0  0  0  0  0  0  0  0  0
   -3.3498   -0.7093    1.5131 C   0  0  0  0  0  0  0  0  0  0  0  0
   -4.0562    0.5798    1.6110 C   0  0  0  0  0  0  0  0  0  0  0  0
   -3.4947    1.9121    1.5493 C   0  0  0  0  0  0  0  0  0  0  0  0
   -2.1637    1.9640    1.1274 C   0  0  0  0  0  0  0  0  0  0  0  0
   -1.4000    3.6636    1.3205 O   0  0  0  0  0  0  0  0  0  0  0  0
    0.4925    4.5060    0.6286 S   0  0  0  0  0  0  0  0  0  0  0  0
    1.5702    4.1306    1.5348 O   0  0  0  0  0  0  0  0  0  0  0  0
    0.6535    4.4074   -0.8257 O   0  0  0  0  0  0  0  0  0  0  0  0
    0.9170    5.9892    0.6242 N   0  0  0  0  0  0  0  0  0  0  0  0
   -0.1143    6.7739    0.2493 C   0  0  0  0  0  0  0  0  0  0  0  0
    0.1131    7.9224    0.0073 O   0  0  0  0  0  0  0  0  0  0  0  0
   -1.4534    6.0180    0.4501 C   0  0  0  0  0  0  0  0  0  0  0  0
   -1.8000    4.7713   -0.6743 C   0  0  0  0  0  0  0  0  0  0  0  0
   -1.2882    3.2345   -0.6918 C   0  0  0  0  0  0  0  0  0  0  0  0
   -1.8560    2.2925   -1.4880 C   0  0  0  0  0  0  0  0  0  0  0  0
   -2.8730    2.7134   -2.2937 C   0  0  0  0  0  0  0  0  0  0  0  0
   -3.3615    4.0517   -2.3005 C   0  0  0  0  0  0  0  0  0  0  0  0
   -2.8005    5.1029   -1.5530 C   0  0  0  0  0  0  0  0  0  0  0  0
   -3.1956    6.5326   -1.7524 C   0  0  0  0  0  0  0  0  0  0  0  0
   -2.6752    6.8959   -3.1242 C   0  0  0  0  0  0  0  0  0  0  0  0
   -4.6817    6.7352   -1.5690 C   0  0  0  0  0  0  0  0  0  0  0  0
   -3.2656    1.6809   -3.2921 C   0  0  0  0  0  0  0  0  0  0  0  0
   -4.7424    1.4176   -3.2000 C   0  0  0  0  0  0  0  0  0  0  0  0
   -2.7816    2.2132   -4.6264 C   0  0  0  0  0  0  0  0  0  0  0  0
   -0.1246    2.3275    0.5033 C   0  0  0  0  0  0  0  0  0  0  0  0
   -0.4674    2.2840    2.4832 C   0  0  0  0  0  0  0  0  0  0  0  0
    1.4123    2.2166   -0.3538 C   0  0  0  0  0  0  0  0  0  0  0  0
   -4.1893    3.1217    2.1091 C   0  0  0  0  0  0  0  0  0  0  0  0
   -3.4536    3.7037    3.3443 C   0  0  0  0  0  0  0  0  0  0  0  0
   -4.2462    4.1434    1.0145 C   0  0  0  0  0  0  0  0  0  0  0  0
  1  2  1  0
  2  3  1  0
  2  4  1  0
  4  5  2  0
  4  9  1  0
  5  6  1  0
  6  7  2  0
  7  8  1  0
  8  9  2  0
  8 33  1  0
  9 10  1  0
 10 11  1  0
 11 12  2  0
 11 13  2  0
 11 14  1  0
 14 15  1  0
 15 16  2  0
 15 17  1  0
 17 18  1  0
 18 19  2  0
 18 23  1  0
 19 20  1  0
 19 30  1  0
 20 21  2  0
 21 22  1  0
 21 27  1  0
 22 23  2  0
 23 24  1  0
 24 25  1  0
 24 26  1  0
 27 28  1  0
 27 29  1  0
 30 31  1  0
 30 32  1  0
 33 34  1  0
 33 35  1  0
M  END
>  <DRUGBANK_ID>  (1) 
DB06442

>  <COMMON_NAME>  (1) 
Avasimibe

>  <CAS_NUMBER>  (1) 
166518-60-1

>  <UNII>  (1) 
28LQ20T5RC

>  <SYNONYMS>  (1) 
Avasimibe

$$$$
