
     RDKit          3D

 13 13  0  0  1  0  0  0  0  0999 V2000
    0.8427    0.1007   -0.5294 Cl  0  0  0  0  0  0  0  0  0  0  0  0
    4.4320    1.3282    0.6491 O   0  0  0  0  0  0  0  0  0  0  0  0
    1.4145   -0.1053    2.4614 N   0  0  0  0  0  0  0  0  0  0  0  0
    2.7077    0.5890    2.3357 C   0  0  1  0  0  0  0  0  0  0  0  0
    3.7992   -0.2912    2.9828 C   0  0  0  0  0  0  0  0  0  0  0  0
    3.0411    1.0413    0.8664 C   0  0  2  0  0  0  0  0  0  0  0  0
    5.1230    0.4065    3.1900 C   0  0  0  0  0  0  0  0  0  0  0  0
    2.5928    0.0514   -0.2114 C   0  0  0  0  0  0  0  0  0  0  0  0
    5.1820    1.7418    3.6135 C   0  0  0  0  0  0  0  0  0  0  0  0
    6.3221   -0.2788    2.9457 C   0  0  0  0  0  0  0  0  0  0  0  0
    6.3993    2.3893    3.7840 C   0  0  0  0  0  0  0  0  0  0  0  0
    7.5436    0.3558    3.1706 C   0  0  0  0  0  0  0  0  0  0  0  0
    7.5840    1.6853    3.5819 C   0  0  0  0  0  0  0  0  0  0  0  0
  1  8  1  0
  4  3  1  6
  4  5  1  0
  5  7  1  0
  6  8  1  0
  6  4  1  0
  6  2  1  1
  7  9  2  0
  7 10  1  0
  9 11  1  0
 10 12  2  0
 11 13  2  0
 12 13  1  0
M  END
>  <DRUGBANK_ID>  (1) 
DB04415

>  <SECONDARY_ACCESSION_NUMBERS>  (1) 
EXPT02589

>  <COMMON_NAME>  (1) 
3-amino-1-chloro-4-phenyl-butanol-2-yl

>  <CAS_NUMBER>  (1) 
160233-25-0

>  <SYNONYMS>  (1) 
(2R,3S)-3-amino-1-chloro-4-phenylbutan-2-ol

$$$$
