
     RDKit          3D

 16 17  0  0  0  0  0  0  0  0999 V2000
    0.9867   -0.0088   -0.0435 C   0  0  0  0  0  0  0  0  0  0  0  0
    1.3110   -2.0239   -1.4063 C   0  0  0  0  0  0  0  0  0  0  0  0
   -1.1912   -2.7555   -2.9995 C   0  0  0  0  0  0  0  0  0  0  0  0
   -4.7826    0.5377   -1.9787 C   0  0  0  0  0  0  0  0  0  0  0  0
   -5.2565    1.8354   -1.7782 C   0  0  0  0  0  0  0  0  0  0  0  0
   -2.9955   -1.1031   -2.6660 C   0  0  0  0  0  0  0  0  0  0  0  0
   -2.7020    1.4087   -2.8861 C   0  0  0  0  0  0  0  0  0  0  0  0
   -3.4484    4.7849   -2.4190 C   0  0  0  0  0  0  0  0  0  0  0  0
    0.5884   -0.6812   -1.3631 C   0  0  0  0  0  0  0  0  0  0  0  0
   -1.4532   -1.2826   -2.6925 C   0  0  0  0  0  0  0  0  0  0  0  0
   -3.4903    0.3119   -2.5075 C   0  0  0  0  0  0  0  0  0  0  0  0
   -4.4281    2.8835   -2.1221 C   0  0  0  0  0  0  0  0  0  0  0  0
   -3.1860    2.6671   -2.6688 C   0  0  0  0  0  0  0  0  0  0  0  0
   -0.8682   -0.7995   -1.4291 N   0  0  0  0  0  0  0  0  0  0  0  0
   -4.6962    4.2062   -1.9752 O   0  0  0  0  0  0  0  0  0  0  0  0
   -2.5181    3.8196   -2.9384 O   0  0  0  0  0  0  0  0  0  0  0  0
  5  4  2  0
  9  1  1  0
  9  2  1  0
 10  3  1  0
 10  6  1  0
 11  4  1  0
 11  6  1  0
 11  7  2  0
 12  5  1  0
 13  7  1  0
 13 12  2  0
 14  9  1  0
 14 10  1  0
 15  8  1  0
 15 12  1  0
 16  8  1  0
 16 13  1  0
M  END
>  <DRUGBANK_ID>  (1) 
DB06112

>  <COMMON_NAME>  (1) 
3,4-Methylenedioxy-N-isopropylamphetamine

>  <CAS_NUMBER>  (1) 
74698-37-6

>  <UNII>  (1) 
307EH7224K

>  <SYNONYMS>  (1) 
MDI-P; MDIP; MDIPA

$$$$
