HII
     RDKit          3D

 11 11  0  0  0  0  0  0  0  0999 V2000
    0.9297   -0.0310   -0.0178 C   0  0  0  0  0  0  0  0  0  0  0  0
    0.3614    1.0599   -0.0826 O   0  0  0  0  0  0  0  0  0  0  0  0
    0.1990   -1.3578   -0.0743 C   0  0  1  0  0  0  0  0  0  0  0  0
    0.5669   -2.0537   -1.3818 C   0  0  0  0  0  0  0  0  0  0  0  0
    0.5777   -2.2435    1.1178 C   0  0  0  0  0  0  0  0  0  0  0  0
    0.2597   -1.6443    2.4504 C   0  0  0  0  0  0  0  0  0  0  0  0
   -0.1822   -2.3132    3.5732 C   0  0  0  0  0  0  0  0  0  0  0  0
   -0.3592   -1.2128    4.8763 S   0  0  0  0  0  0  0  0  0  0  0  0
    0.1675    0.0651    3.8612 C   0  0  0  0  0  0  0  0  0  0  0  0
    0.4726   -0.2930    2.6419 N   0  0  0  0  0  0  0  0  0  0  0  0
    0.2797    1.3228    4.2968 N   0  0  0  0  0  0  0  0  0  0  0  0
  1  2  2  0
  1  3  1  0
  3  4  1  6
  3  5  1  0
  5  6  1  0
  6  7  2  0
  6 10  1  0
  7  8  1  0
  8  9  1  0
  9 10  2  0
  9 11  1  0
M  END
>  <DRUGBANK_ID>  (1) 
DB03024

>  <SECONDARY_ACCESSION_NUMBERS>  (1) 
EXPT01750

>  <COMMON_NAME>  (1) 
2-Methyl-3-(2-Aminothiazolo)Propanal

$$$$
