
     RDKit          3D

 36 38  0  0  1  0  0  0  0  0999 V2000
    0.3964    1.6095    0.1919 C   0  0  2  0  0  0  0  0  0  0  0  0
    0.6297    2.9571   -0.1007 N   0  0  0  0  0  0  0  0  0  0  0  0
    1.6066    1.0574   -0.2141 O   0  0  0  0  0  0  0  0  0  0  0  0
   -0.7908    1.0564   -0.6719 C   0  0  1  0  0  0  0  0  0  0  0  0
    1.1136    3.2001   -1.3818 C   0  0  0  0  0  0  0  0  0  0  0  0
    0.0365    3.8891    0.6926 C   0  0  0  0  0  0  0  0  0  0  0  0
    1.2602   -0.0896   -0.9365 C   0  0  1  0  0  0  0  0  0  0  0  0
   -0.4491   -0.3735   -0.9661 C   0  0  1  0  0  0  0  0  0  0  0  0
   -2.0505    1.2198   -0.0098 O   0  0  0  0  0  0  0  0  0  0  0  0
    0.9994    4.4593   -1.8037 N   0  0  0  0  0  0  0  0  0  0  0  0
    1.5338    2.3717   -2.1992 O   0  0  0  0  0  0  0  0  0  0  0  0
   -0.3279    5.0321    0.1423 C   0  0  0  0  0  0  0  0  0  0  0  0
    2.0575   -0.6322   -2.0946 C   0  0  0  0  0  0  0  0  0  0  0  0
   -1.4491   -1.0636    0.0348 O   0  0  0  0  0  0  0  0  0  0  0  0
    0.0454    5.2962   -1.2776 C   0  0  0  0  0  0  0  0  0  0  0  0
    1.3373   -1.7441   -2.5724 O   0  0  0  0  0  0  0  0  0  0  0  0
   -0.4546    6.1711   -1.9041 O   0  0  0  0  0  0  0  0  0  0  0  0
    1.2796   -3.3125   -1.8445 P   0  0  1  0  0  0  0  0  0  0  0  0
    0.1723   -2.7196   -0.6548 O   0  0  0  0  0  0  0  0  0  0  0  0
    0.2323   -3.6393   -3.0544 O   0  0  0  0  0  0  0  0  0  0  0  0
    1.2279   -4.7161   -1.1930 O   0  0  0  0  0  0  0  0  0  0  0  0
    1.0553   -2.1201    0.7068 P   0  0  1  0  0  0  0  0  0  0  0  0
    2.4686   -2.2352   -0.0888 O   0  0  0  0  0  0  0  0  0  0  0  0
    0.3361   -0.7421    1.0466 O   0  0  0  0  0  0  0  0  0  0  0  0
    1.8455   -1.5836    1.9254 O   0  0  0  0  0  0  0  0  0  0  0  0
    3.2288   -3.4099    0.1181 C   0  0  1  0  0  0  0  0  0  0  0  0
    4.5302   -3.0630    0.5713 O   0  0  0  0  0  0  0  0  0  0  0  0
    2.4811   -4.4721    1.0203 C   0  0  1  0  0  0  0  0  0  0  0  0
    4.4151   -2.3927    1.8253 C   0  0  1  0  0  0  0  0  0  0  0  0
    2.4933   -4.0514    2.4626 C   0  0  2  0  0  0  0  0  0  0  0  0
    1.0254   -4.6325    0.9712 O   0  0  0  0  0  0  0  0  0  0  0  0
    3.7590   -3.3340    2.8648 C   0  0  2  0  0  0  0  0  0  0  0  0
    5.7886   -2.0133    2.3496 C   0  0  0  0  0  0  0  0  0  0  0  0
    2.1573   -5.1581    3.3051 O   0  0  0  0  0  0  0  0  0  0  0  0
    3.4720   -2.5963    4.0484 O   0  0  0  0  0  0  0  0  0  0  0  0
    6.4616   -1.1265    1.4621 O   0  0  0  0  0  0  0  0  0  0  0  0
  1  3  1  0
  1  4  1  0
  1  2  1  6
  2  5  1  0
  2  6  1  0
  3  7  1  0
  4  8  1  0
  4  9  1  1
  5 10  1  0
  5 11  2  0
  6 12  2  0
  7  8  1  0
  7 13  1  6
  8 14  1  1
 10 15  1  0
 12 15  1  0
 13 16  1  0
 15 17  2  0
 16 18  1  0
 18 19  1  0
 18 20  1  6
 18 21  2  0
 19 22  1  0
 22 23  1  0
 22 24  1  6
 22 25  2  0
 26 23  1  1
 26 27  1  0
 26 28  1  0
 27 29  1  0
 28 30  1  0
 28 31  1  6
 29 32  1  0
 29 33  1  1
 30 34  1  1
 30 32  1  0
 32 35  1  1
 33 36  1  0
M  END
>  <DRUGBANK_ID>  (1) 
DB01861

>  <SECONDARY_ACCESSION_NUMBERS>  (1) 
EXPT01669; EXPT03198; DB04355

>  <COMMON_NAME>  (1) 
Uridine diphosphate glucose

>  <CAS_NUMBER>  (1) 
133-89-1

>  <UNII>  (1) 
V50K1D7P4Y

>  <SYNONYMS>  (1) 
5'-Diphosphoglucose; Co-galactoisomerase; Co-waldenase; Cogalactoisomerase; UDP-Glucose; UDPG; Uridine 5'-pyrophosphate glucose ester; Uridine-5'-Diphosphoglucose

$$$$
