
     RDKit          3D

 29 31  0  0  0  0  0  0  0  0999 V2000
    0.8392   -0.0063   -0.0476 O   0  0  0  0  0  0  0  0  0  0  0  0
    0.4315   -1.3178   -0.8882 S   0  0  0  0  0  0  0  0  0  0  0  0
    0.9218   -1.0938   -2.2322 O   0  0  0  0  0  0  0  0  0  0  0  0
    0.9223   -2.4235   -0.0956 O   0  0  0  0  0  0  0  0  0  0  0  0
   -1.2029   -1.2905   -0.8951 O   0  0  0  0  0  0  0  0  0  0  0  0
   -1.8814   -2.3328   -1.4710 C   0  0  0  0  0  0  0  0  0  0  0  0
   -1.5333   -3.6663   -1.2449 C   0  0  0  0  0  0  0  0  0  0  0  0
   -2.2164   -4.7103   -1.8641 C   0  0  0  0  0  0  0  0  0  0  0  0
   -3.2917   -4.4352   -2.7063 C   0  0  0  0  0  0  0  0  0  0  0  0
   -3.6689   -3.0856   -2.8720 C   0  0  0  0  0  0  0  0  0  0  0  0
   -2.9720   -2.0392   -2.2738 C   0  0  0  0  0  0  0  0  0  0  0  0
   -3.9655   -5.5770   -3.4863 C   0  0  0  0  0  0  0  0  0  0  0  0
   -5.4219   -5.7748   -3.0619 C   0  0  0  0  0  0  0  0  0  0  0  0
   -6.3335   -4.7464   -3.3214 C   0  0  0  0  0  0  0  0  0  0  0  0
   -7.6756   -4.8597   -3.0611 C   0  0  0  0  0  0  0  0  0  0  0  0
   -8.1829   -6.0413   -2.5599 C   0  0  0  0  0  0  0  0  0  0  0  0
   -9.5122   -6.1894   -2.2533 O   0  0  0  0  0  0  0  0  0  0  0  0
  -10.5816   -4.9533   -2.4147 S   0  0  0  0  0  0  0  0  0  0  0  0
   -9.9566   -3.7563   -1.5168 O   0  0  0  0  0  0  0  0  0  0  0  0
  -10.5940   -4.4934   -3.7932 O   0  0  0  0  0  0  0  0  0  0  0  0
  -11.8031   -5.3295   -1.7494 O   0  0  0  0  0  0  0  0  0  0  0  0
   -7.3100   -7.1215   -2.3520 C   0  0  0  0  0  0  0  0  0  0  0  0
   -5.9232   -6.9753   -2.5498 C   0  0  0  0  0  0  0  0  0  0  0  0
   -3.8173   -5.3644   -5.0088 C   0  0  0  0  0  0  0  0  0  0  0  0
   -2.5582   -5.1942   -5.5786 C   0  0  0  0  0  0  0  0  0  0  0  0
   -2.4735   -4.8578   -6.9278 C   0  0  0  0  0  0  0  0  0  0  0  0
   -3.6350   -4.7153   -7.6792 C   0  0  0  0  0  0  0  0  0  0  0  0
   -4.8440   -4.9321   -7.0553 C   0  0  0  0  0  0  0  0  0  0  0  0
   -4.9489   -5.2573   -5.7565 N   0  0  0  0  0  0  0  0  0  0  0  0
  1  2  1  0
  2  3  2  0
  2  4  2  0
  2  5  1  0
  5  6  1  0
  6  7  2  0
  6 11  1  0
  7  8  1  0
  8  9  2  0
  9 10  1  0
  9 12  1  0
 10 11  2  0
 12 13  1  0
 12 24  1  0
 13 14  2  0
 13 23  1  0
 14 15  1  0
 15 16  2  0
 16 17  1  0
 16 22  1  0
 17 18  1  0
 18 19  1  0
 18 20  2  0
 18 21  2  0
 22 23  2  0
 24 25  2  0
 24 29  1  0
 25 26  1  0
 26 27  2  0
 27 28  1  0
 28 29  2  0
M  END
>  <DRUGBANK_ID>  (1) 
DB09268

>  <COMMON_NAME>  (1) 
Picosulfuric acid

>  <CAS_NUMBER>  (1) 
10040-34-3

>  <UNII>  (1) 
95D580798S

>  <SYNONYMS>  (1) 
Picosulfate; Picosulphate

$$$$
