
     RDKit          3D

 30 33  0  0  0  0  0  0  0  0999 V2000
    2.0590   -0.6940   -0.0892 C   0  0  0  0  0  0  0  0  0  0  0  0
    2.0892    0.6975   -0.1022 C   0  0  0  0  0  0  0  0  0  0  0  0
    0.9030    1.4352   -0.0194 C   0  0  0  0  0  0  0  0  0  0  0  0
   -0.2832    0.6962    0.0191 C   0  0  0  0  0  0  0  0  0  0  0  0
   -0.2438   -0.6908    0.0479 C   0  0  0  0  0  0  0  0  0  0  0  0
    0.9180   -1.4064    0.0221 N   0  0  0  0  0  0  0  0  0  0  0  0
    3.2563   -1.3835   -0.1947 N   0  0  0  0  0  0  0  0  0  0  0  0
   -1.6215    1.0626    0.0316 N   0  0  0  0  0  0  0  0  0  0  0  0
   -1.6035   -1.1336    0.0699 C   0  0  0  0  0  0  0  0  0  0  0  0
   -2.4466   -0.0426   -0.1772 C   0  0  0  0  0  0  0  0  0  0  0  0
   -3.9068    0.0121   -0.5666 C   0  0  0  0  0  0  0  0  0  0  0  0
   -4.3209    0.6127   -1.7939 C   0  0  0  0  0  0  0  0  0  0  0  0
   -5.6745    0.5896   -2.2465 C   0  0  0  0  0  0  0  0  0  0  0  0
   -6.1493    1.1822   -3.5692 C   0  0  0  0  0  0  0  0  0  0  0  0
   -6.7572    0.1486   -4.5085 C   0  0  0  0  0  0  0  0  0  0  0  0
   -8.0328    0.3800   -4.8951 O   0  0  0  0  0  0  0  0  0  0  0  0
   -6.1489   -0.8427   -4.9114 O   0  0  0  0  0  0  0  0  0  0  0  0
   -6.6347   -0.0320   -1.4454 C   0  0  0  0  0  0  0  0  0  0  0  0
   -6.2823   -0.6515   -0.2376 C   0  0  0  0  0  0  0  0  0  0  0  0
   -4.9265   -0.6162    0.1877 C   0  0  0  0  0  0  0  0  0  0  0  0
   -4.6591   -1.2281    1.3899 O   0  0  0  0  0  0  0  0  0  0  0  0
   -7.3665   -1.2653    0.5489 C   0  0  0  0  0  0  0  0  0  0  0  0
   -7.7502   -0.6879    1.7677 C   0  0  0  0  0  0  0  0  0  0  0  0
   -8.9269   -1.0749    2.4058 C   0  0  0  0  0  0  0  0  0  0  0  0
   -9.6021   -2.2128    1.9760 C   0  0  0  0  0  0  0  0  0  0  0  0
   -9.1556   -2.8814    0.8304 C   0  0  0  0  0  0  0  0  0  0  0  0
   -9.7749   -4.1562    0.4506 N   0  0  0  0  0  0  0  0  0  0  0  0
  -10.6620   -4.6079    1.1900 O   0  0  0  0  0  0  0  0  0  0  0  0
   -9.3623   -4.7180   -0.5734 O   0  0  0  0  0  0  0  0  0  0  0  0
   -8.1058   -2.3574    0.0628 C   0  0  0  0  0  0  0  0  0  0  0  0
  1  2  2  0
  1  6  1  0
  1  7  1  0
  2  3  1  0
  3  4  2  0
  4  5  1  0
  4  8  1  0
  5  6  2  0
  5  9  1  0
 10  8  1  0
 10  9  2  0
 11 10  1  0
 11 12  2  0
 11 20  1  0
 12 13  1  0
 13 14  1  0
 13 18  2  0
 14 15  1  0
 15 16  1  0
 15 17  2  0
 18 19  1  0
 19 20  2  0
 20 21  1  0
 22 19  1  0
 22 23  2  0
 22 30  1  0
 23 24  1  0
 24 25  2  0
 25 26  1  0
 26 27  1  0
 26 30  2  0
 27 28  1  0
 27 29  2  0
M  CHG  2  27   1  28  -1
M  END
>  <DRUGBANK_ID>  (1) 
DB08232

>  <COMMON_NAME>  (1) 
[5-(5-Amino-1H-pyrrolo[3,2-b]pyridin-2-yl)-6-hydroxy-3'-nitro-3-biphenylyl]acetic acid

$$$$
