
     RDKit          3D

 13 13  0  0  0  0  0  0  0  0999 V2000
    0.9331    0.0633   -0.2022 C   0  0  0  0  0  0  0  0  0  0  0  0
   -1.6372   -2.6598   -0.1036 C   0  0  0  0  0  0  0  0  0  0  0  0
    0.9455   -0.0129    2.8675 C   0  0  0  0  0  0  0  0  0  0  0  0
   -0.0118   -2.0603    3.6658 C   0  0  0  0  0  0  0  0  0  0  0  0
    0.4764    0.6722    3.9843 C   0  0  0  0  0  0  0  0  0  0  0  0
   -0.4083   -1.3963    4.8342 C   0  0  0  0  0  0  0  0  0  0  0  0
    0.4625   -1.3842    0.0345 C   0  0  1  0  0  0  0  0  0  0  0  0
    0.6557   -1.3743    2.6443 C   0  0  0  0  0  0  0  0  0  0  0  0
   -0.1807   -0.0307    4.9712 C   0  0  0  0  0  0  0  0  0  0  0  0
    1.1055   -2.0177    1.3323 C   0  0  1  0  0  0  0  0  0  0  0  0
   -1.0173   -1.3494   -0.0019 N   0  0  0  0  0  0  0  0  0  0  0  0
   -0.5906    0.5820    6.1161 O   0  0  0  0  0  0  0  0  0  0  0  0
    0.9187   -3.4401    1.3104 O   0  0  0  0  0  0  0  0  0  0  0  0
  5  3  2  0
  6  4  1  0
  7  1  1  1
  8  3  1  0
  8  4  2  0
  9  5  1  0
  9  6  2  0
 10  7  1  0
 10  8  1  0
 10 13  1  1
 11  2  1  0
 11  7  1  0
 12  9  1  0
M  END
>  <DRUGBANK_ID>  (1) 
DB11610

>  <COMMON_NAME>  (1) 
Oxilofrine

>  <CAS_NUMBER>  (1) 
365-26-4

>  <UNII>  (1) 
F49638UBDR

>  <SYNONYMS>  (1) 
4-HMP; 4-hydroxyephedrine; Methyl synephrin; Methyl synephrine; Methylsympatol; Methylsynephrin; Methylsynephrine; Oxilofrine; Oxyephedrin; p-hydroxyephedrine

$$$$
