
     RDKit          3D

 22 23  0  0  1  0  0  0  0  0999 V2000
    1.0540    0.0832    0.0697 C   0  0  0  0  0  0  0  0  0  0  0  0
    0.2946    1.1732    0.2213 C   0  0  0  0  0  0  0  0  0  0  0  0
   -1.2074    1.0486    0.2029 C   0  0  2  0  0  0  0  0  0  0  0  0
   -1.6499    2.1570   -0.8706 C   0  0  1  0  0  0  0  0  0  0  0  0
   -0.9377    3.7321   -0.5948 C   0  0  2  0  0  0  0  0  0  0  0  0
    0.5404    3.4912   -0.4740 C   0  0  1  0  0  0  0  0  0  0  0  0
    1.1635    4.6746    0.0370 O   0  0  0  0  0  0  0  0  0  0  0  0
    0.8579    2.4195    0.4333 O   0  0  0  0  0  0  0  0  0  0  0  0
   -1.1550    4.7346    0.5049 O   0  0  0  0  0  0  0  0  0  0  0  0
   -1.3278    1.7428   -2.1966 O   0  0  0  0  0  0  0  0  0  0  0  0
   -1.7924    1.0181    1.6011 N   0  0  0  0  0  0  0  0  0  0  0  0
   -1.8391    2.3454    2.2276 C   0  0  1  0  0  0  0  0  0  0  0  0
   -2.8216    3.1426    1.4253 C   0  0  0  0  0  0  0  0  0  0  0  0
   -3.5528    4.2661    1.4467 C   0  0  0  0  0  0  0  0  0  0  0  0
   -3.6240    5.3761    0.3585 C   0  0  0  0  0  0  0  0  0  0  0  0
   -4.1902    6.4560    0.5197 O   0  0  0  0  0  0  0  0  0  0  0  0
   -3.6473    4.6256    2.8217 C   0  0  0  0  0  0  0  0  0  0  0  0
   -3.1226    3.6683    3.8832 C   0  0  1  0  0  0  0  0  0  0  0  0
   -2.1343    2.5177    3.6735 C   0  0  1  0  0  0  0  0  0  0  0  0
   -2.6959    1.2932    4.1547 O   0  0  0  0  0  0  0  0  0  0  0  0
   -2.5764    4.4615    4.9101 O   0  0  0  0  0  0  0  0  0  0  0  0
   -4.2055    5.7066    3.1168 O   0  0  0  0  0  0  0  0  0  0  0  0
  1  2  2  0
  2  3  1  0
  2  8  1  0
  3  4  1  0
  3 11  1  1
  4  5  1  0
  4 10  1  6
  5  6  1  0
  5  9  1  1
  6  8  1  0
  6  7  1  1
 12 11  1  6
 12 13  1  0
 12 19  1  0
 13 14  2  0
 14 15  1  0
 14 17  1  0
 15 16  2  0
 17 18  1  0
 17 22  2  0
 18 19  1  0
 18 21  1  1
 19 20  1  6
M  END
>  <DRUGBANK_ID>  (1) 
DB04164

>  <SECONDARY_ACCESSION_NUMBERS>  (1) 
EXPT01105

>  <COMMON_NAME>  (1) 
4,6-Dideoxy-4-{[(1S,5R,6S)-3-formyl-5,6-dihydroxy-4-oxo-2-cyclohexen-1-yl]amino}-Î±-D-xylo-hex-5-enopyranose

>  <SYNONYMS>  (1) 
1,4-Deoxy-4-((5-Hydroxymethyl-2,3,4-Trihydroxycyclohex-5-Enyl)Amino)Fructose; 4,6-Dideoxy-4-{[(1s,5r,6s)-3-formyl-5,6-dihydroxy-4-oxocyclohex-2-en-1-yl]amino}-alpha-d-xylo-hex-5-enopyranose

$$$$
