1CX
     RDKit          3D

 24 25  0  0  0  0  0  0  0  0999 V2000
    1.3566   -0.6739    0.4077 N   0  0  0  0  0  0  0  0  0  0  0  0
    0.4730   -2.5707    1.2926 C   0  0  0  0  0  0  0  0  0  0  0  0
   -0.5360   -3.4966    1.3526 C   0  0  0  0  0  0  0  0  0  0  0  0
   -1.3683   -3.7215    0.2504 C   0  0  0  0  0  0  0  0  0  0  0  0
    3.1547    1.1592    0.4952 C   0  0  0  0  0  0  0  0  0  0  0  0
    4.4926    1.2011    0.2597 C   0  0  0  0  0  0  0  0  0  0  0  0
    4.9288   -1.2072    0.1143 C   0  0  0  0  0  0  0  0  0  0  0  0
    2.4273    2.6736    0.4123 C   0  0  0  0  0  0  0  0  0  0  0  0
    1.3557    0.8024   -1.7301 C   0  0  0  0  0  0  0  0  0  0  0  0
   -1.2571   -2.9583   -0.9031 C   0  0  0  0  0  0  0  0  0  0  0  0
   -0.2946   -1.9712   -0.9173 C   0  0  0  0  0  0  0  0  0  0  0  0
    0.6355   -1.8075    0.1635 C   0  0  0  0  0  0  0  0  0  0  0  0
   -2.7853   -5.2106    0.3816 I   0  0  0  0  0  0  0  0  0  0  0  0
    5.3677    0.0473    0.1085 C   0  0  0  0  0  0  0  0  0  0  0  0
    3.5263   -1.5486    0.3137 C   0  0  2  0  0  0  0  0  0  0  0  0
    2.6332   -0.3551    0.4726 C   0  0  0  0  0  0  0  0  0  0  0  0
    5.7842   -2.2388   -0.0579 F   0  0  0  0  0  0  0  0  0  0  0  0
    3.3822   -2.3724    1.3931 F   0  0  0  0  0  0  0  0  0  0  0  0
   -0.4190   -1.0682   -1.9067 F   0  0  0  0  0  0  0  0  0  0  0  0
    3.1837    3.6633    0.3908 O   0  0  0  0  0  0  0  0  0  0  0  0
    1.1014    3.0812    0.2503 N   0  0  0  0  0  0  0  0  0  0  0  0
    0.0157    2.4469   -0.3701 O   0  0  0  0  0  0  0  0  0  0  0  0
    0.3588    1.1191   -0.4414 C   0  0  0  0  0  0  0  0  0  0  0  0
    2.2952    1.8236   -2.0754 O   0  0  0  0  0  0  0  0  0  0  0  0
  1 12  1  0
  1 16  2  0
  2  3  2  0
  2 12  1  0
  3  4  1  0
  4 10  2  0
  4 13  1  0
  5  6  2  0
  5  8  1  0
  5 16  1  0
  6 14  1  0
  7 14  2  0
  7 15  1  0
  7 17  1  0
  8 20  2  0
  8 21  1  0
  9 23  1  0
  9 24  1  0
 10 11  1  0
 11 12  2  0
 11 19  1  0
 15 16  1  0
 15 18  1  1
 21 22  1  0
 22 23  1  0
M  END
>  <DRUGBANK_ID>  (1) 
DB06892

>  <COMMON_NAME>  (1) 
(5S)-4,5-difluoro-6-[(2-fluoro-4-iodophenyl)imino]-N-(2-hydroxyethoxy)cyclohexa-1,3-diene-1-carboxamide

$$$$
