F13
     RDKit          3D

 21 23  0  0  0  0  0  0  0  0999 V2000
    2.1278   -0.2027    0.1295 F   0  0  0  0  0  0  0  0  0  0  0  0
    0.7888   -0.1929    0.1538 C   0  0  0  0  0  0  0  0  0  0  0  0
    0.1335    1.0035    0.3669 C   0  0  0  0  0  0  0  0  0  0  0  0
    0.0672   -1.3497   -0.0139 C   0  0  0  0  0  0  0  0  0  0  0  0
   -1.3258   -1.2686   -0.0324 C   0  0  0  0  0  0  0  0  0  0  0  0
   -1.9743   -0.0175   -0.0106 C   0  0  0  0  0  0  0  0  0  0  0  0
   -1.2301    1.1597    0.1298 C   0  0  0  0  0  0  0  0  0  0  0  0
   -1.9037    2.5133    0.0513 C   0  0  0  0  0  0  0  0  0  0  0  0
   -3.1270    2.5695    0.0498 O   0  0  0  0  0  0  0  0  0  0  0  0
   -1.1794    3.7083    0.0460 N   0  0  0  0  0  0  0  0  0  0  0  0
    0.1929    3.9206   -0.1701 C   0  0  0  0  0  0  0  0  0  0  0  0
    0.8777    3.2154   -1.1699 C   0  0  0  0  0  0  0  0  0  0  0  0
    2.2694    3.1488   -1.1579 C   0  0  0  0  0  0  0  0  0  0  0  0
    2.9823    3.9568   -0.2858 C   0  0  0  0  0  0  0  0  0  0  0  0
    2.3017    4.8254    0.5762 C   0  0  0  0  0  0  0  0  0  0  0  0
    0.9053    4.7506    0.6987 C   0  0  0  0  0  0  0  0  0  0  0  0
    3.0605    5.8776    1.2111 C   0  0  0  0  0  0  0  0  0  0  0  0
    3.7277    6.8302    0.5899 N   0  0  0  0  0  0  0  0  0  0  0  0
    4.2863    7.6090    1.5681 N   0  0  0  0  0  0  0  0  0  0  0  0
    3.9919    7.1392    2.7723 N   0  0  0  0  0  0  0  0  0  0  0  0
    3.2313    6.0587    2.5497 N   0  0  0  0  0  0  0  0  0  0  0  0
  1  2  1  0
  2  3  2  0
  2  4  1  0
  3  7  1  0
  4  5  2  0
  5  6  1  0
  6  7  2  0
  7  8  1  0
  8  9  2  0
  8 10  1  0
 10 11  1  0
 11 12  2  0
 11 16  1  0
 12 13  1  0
 13 14  2  0
 14 15  1  0
 15 16  2  0
 15 17  1  0
 17 18  2  0
 17 21  1  0
 18 19  1  0
 19 20  2  0
 20 21  1  0
M  END
>  <DRUGBANK_ID>  (1) 
DB07729

>  <COMMON_NAME>  (1) 
3-fluoro-N-[3-(1H-tetrazol-5-yl)phenyl]benzamide

$$$$
