
     RDKit          3D

 26 28  0  0  0  0  0  0  0  0999 V2000
    1.2978   -0.2901    0.2917 C   0  0  0  0  0  0  0  0  0  0  0  0
   -0.0887   -2.6272    0.1448 N   0  0  0  0  0  0  0  0  0  0  0  0
   -3.4710   -3.5278   -0.3015 C   0  0  0  0  0  0  0  0  0  0  0  0
    2.8144   -0.5404    0.2718 C   0  0  0  0  0  0  0  0  0  0  0  0
    0.2721   -1.2367    0.2752 C   0  0  0  0  0  0  0  0  0  0  0  0
   -1.6521   -3.5285   -0.0045 C   0  0  0  0  0  0  0  0  0  0  0  0
   -3.7886   -3.0397    0.7479 C   0  0  0  0  0  0  0  0  0  0  0  0
   -3.7853   -4.5743    1.0410 C   0  0  0  0  0  0  0  0  0  0  0  0
   -5.1432   -3.8879   -0.7109 C   0  0  0  0  0  0  0  0  0  0  0  0
   -3.2661   -1.9913   -0.0165 N   0  0  0  0  0  0  0  0  0  0  0  0
    3.7200    0.4923    0.2011 O   0  0  0  0  0  0  0  0  0  0  0  0
    3.2452   -1.6891    0.2890 O   0  0  0  0  0  0  0  0  0  0  0  0
   -4.5735   -5.6186    0.2868 C   0  0  0  0  0  0  0  0  0  0  0  0
   -1.4056   -3.5449   -1.2398 C   0  0  0  0  0  0  0  0  0  0  0  0
   -5.5795   -5.1479   -0.4342 C   0  0  0  0  0  0  0  0  0  0  0  0
    3.3722    1.8749    0.0368 C   0  0  0  0  0  0  0  0  0  0  0  0
   -2.1001   -2.3289   -1.1555 C   0  0  0  0  0  0  0  0  0  0  0  0
    2.7459    2.1719   -1.3890 C   0  0  0  0  0  0  0  0  0  0  0  0
   -3.8466   -7.0640   -0.3898 Cl  0  0  0  0  0  0  0  0  0  0  0  0
    0.7758    1.0656    0.3690 C   0  0  0  0  0  0  0  0  0  0  0  0
    1.7386    1.3060   -1.9317 O   0  0  0  0  0  0  0  0  0  0  0  0
   -0.8627   -0.6745    0.7148 C   0  0  0  0  0  0  0  0  0  0  0  0
    3.1609    4.5511   -1.2659 O   0  0  0  0  0  0  0  0  0  0  0  0
    2.1377    3.5834   -1.3931 C   0  0  0  0  0  0  0  0  0  0  0  0
   -0.5425    1.4363    0.1847 C   0  0  0  0  0  0  0  0  0  0  0  0
   -1.3830    0.4208    0.1235 C   0  0  0  0  0  0  0  0  0  0  0  0
  2  5  1  0
  3  6  1  0
  4  1  1  0
  5  1  2  0
  6  2  1  0
  7  3  1  0
  8  7  2  0
  9  3  2  0
 10 17  2  0
 10  7  1  0
 11  4  1  0
 12  4  2  0
 13 15  2  0
 13  8  1  0
 14  6  2  0
 15  9  1  0
 16 11  1  0
 17 14  1  0
 18 16  1  0
 19 13  1  0
 20  1  1  0
 21 18  1  0
 22  5  1  0
 23 24  1  0
 24 18  1  0
 25 20  2  0
 26 25  1  0
 26 22  2  0
M  END
>  <DRUGBANK_ID>  (1) 
DB08963

>  <COMMON_NAME>  (1) 
Glafenine

>  <CAS_NUMBER>  (1) 
3820-67-5

>  <UNII>  (1) 
46HL4I09AH

>  <SYNONYMS>  (1) 
Glafenina; Glafenine; Glaf√©nine; Glafeninum; Glycerylaminophenaquine

$$$$
