
     RDKit          3D

 11 11  0  0  1  0  0  0  0  0999 V2000
   -0.5033    1.8026   -0.0384 C   0  0  0  0  0  0  0  0  0  0  0  0
    1.8400    2.8847   -0.3454 C   0  0  0  0  0  0  0  0  0  0  0  0
    0.9653    1.6390   -0.3895 C   0  0  1  0  0  0  0  0  0  0  0  0
   -1.1679    0.4422   -0.2802 C   0  0  1  0  0  0  0  0  0  0  0  0
   -0.4845   -0.6754    0.5380 C   0  0  2  0  0  0  0  0  0  0  0  0
    1.0500   -0.6042    0.4047 C   0  0  1  0  0  0  0  0  0  0  0  0
    3.2005    2.4332   -0.3873 O   0  0  0  0  0  0  0  0  0  0  0  0
   -2.5639    0.5391   -0.0068 O   0  0  0  0  0  0  0  0  0  0  0  0
   -0.9547   -1.9603    0.1133 O   0  0  0  0  0  0  0  0  0  0  0  0
    1.5083   -1.1773   -0.8148 O   0  0  0  0  0  0  0  0  0  0  0  0
    1.5505    0.7134    0.5465 O   0  0  0  0  0  0  0  0  0  0  0  0
  3  1  1  0
  3  2  1  1
  4  1  1  0
  4  8  1  1
  5  4  1  0
  5  9  1  6
  6  5  1  0
  6 10  1  6
  7  2  1  0
 11  3  1  0
 11  6  1  0
M  END
>  <DRUGBANK_ID>  (1) 
DB02670

>  <SECONDARY_ACCESSION_NUMBERS>  (1) 
EXPT01533

>  <COMMON_NAME>  (1) 
4-Deoxy-Alpha-D-Glucose

$$$$
