
     RDKit          3D

 10  9  0  0  0  0  0  0  0  0999 V2000
    0.9533   -0.0727   -0.0078 C   0  0  0  0  0  0  0  0  0  0  0  0
    0.4909   -1.3105    0.7757 C   0  0  0  0  0  0  0  0  0  0  0  0
    0.9579   -1.1825    2.2442 C   0  0  0  0  0  0  0  0  0  0  0  0
    0.4740    0.0671    3.0067 C   0  0  0  0  0  0  0  0  0  0  0  0
   -1.0226    0.1951    3.1372 C   0  0  0  0  0  0  0  0  0  0  0  0
   -1.7388    0.0777    4.2611 C   0  0  0  0  0  0  0  0  0  0  0  0
   -3.2435    0.0460    4.2216 C   0  0  0  0  0  0  0  0  0  0  0  0
   -1.0599   -0.0041    5.5914 C   0  0  0  0  0  0  0  0  0  0  0  0
   -0.9494   -1.5057    0.5653 N   0  0  0  0  0  0  0  0  0  0  0  0
   -1.5370   -2.5497    1.3962 C   0  0  0  0  0  0  0  0  0  0  0  0
  1  2  1  0
  2  3  1  0
  2  9  1  0
  3  4  1  0
  4  5  1  0
  5  6  2  3
  6  7  1  0
  6  8  1  0
  9 10  1  0
M  END
>  <DRUGBANK_ID>  (1) 
DB06706

>  <COMMON_NAME>  (1) 
Isometheptene

>  <CAS_NUMBER>  (1) 
503-01-5

>  <UNII>  (1) 
Y7L24THH6T

>  <SYNONYMS>  (1) 
Isometepteno; Isometheptene; Isometheptenum

$$$$
