
     RDKit          3D

 32 35  0  0  1  0  0  0  0  0999 V2000
    0.8206    0.0712   -0.3373 C   0  0  0  0  0  0  0  0  0  0  0  0
    0.4046   -1.3803   -0.0168 C   0  0  1  0  0  0  0  0  0  0  0  0
    0.9489   -2.0524    1.2196 O   0  0  0  0  0  0  0  0  0  0  0  0
    2.6789   -2.0524    1.2196 P   0  0  0  0  0  0  0  0  0  0  0  0
    2.6297   -2.7315   -0.1521 O   0  0  0  0  0  0  0  0  0  0  0  0
    2.7455   -0.3509    1.3037 N   0  0  0  0  0  0  0  0  0  0  0  0
    3.5617    0.5386    2.1165 C   0  0  0  0  0  0  0  0  0  0  0  0
    2.0845    0.4880    2.3093 C   0  0  0  0  0  0  0  0  0  0  0  0
    4.4589   -2.0524    1.2196 N   0  0  0  0  0  0  0  0  0  0  0  0
    5.2619   -1.1085    0.4086 C   0  0  0  0  0  0  0  0  0  0  0  0
    5.1717   -2.5300    0.0018 C   0  0  0  0  0  0  0  0  0  0  0  0
   -1.1059   -1.3609    0.0632 C   0  0  0  0  0  0  0  0  0  0  0  0
   -1.7598   -2.5802   -0.0028 C   0  0  0  0  0  0  0  0  0  0  0  0
   -3.1534   -2.6771    0.1111 C   0  0  0  0  0  0  0  0  0  0  0  0
   -3.8000   -3.8946    0.0016 O   0  0  0  0  0  0  0  0  0  0  0  0
   -3.0944   -5.0726    0.1297 C   0  0  0  0  0  0  0  0  0  0  0  0
   -2.1603   -5.2566    1.1457 C   0  0  0  0  0  0  0  0  0  0  0  0
   -1.4234   -6.4067    1.3725 C   0  0  0  0  0  0  0  0  0  0  0  0
   -1.6855   -7.4540    0.4775 C   0  0  0  0  0  0  0  0  0  0  0  0
   -2.6557   -7.3124   -0.5442 C   0  0  0  0  0  0  0  0  0  0  0  0
   -3.3488   -6.1127   -0.7288 C   0  0  0  0  0  0  0  0  0  0  0  0
   -0.4098   -6.5671    2.4931 C   0  0  0  0  0  0  0  0  0  0  0  0
    0.1762   -7.6509    2.5414 O   0  0  0  0  0  0  0  0  0  0  0  0
   -0.1256   -5.5759    3.4680 N   0  0  0  0  0  0  0  0  0  0  0  0
   -0.6598   -4.2407    3.6696 C   0  0  0  0  0  0  0  0  0  0  0  0
    0.8652   -5.9128    4.4859 C   0  0  0  0  0  0  0  0  0  0  0  0
   -3.8870   -1.4836    0.2691 C   0  0  0  0  0  0  0  0  0  0  0  0
   -3.2383   -0.2446    0.3053 C   0  0  0  0  0  0  0  0  0  0  0  0
   -1.8703   -0.1890    0.1478 C   0  0  0  0  0  0  0  0  0  0  0  0
   -5.3505   -1.4574    0.3120 N   0  0  0  0  0  0  0  0  0  0  0  0
   -5.8902   -0.3300    0.3665 O   0  0  0  0  0  0  0  0  0  0  0  0
   -5.9756   -2.5117    0.2820 O   0  0  0  0  0  0  0  0  0  0  0  0
  2  1  1  1
  2  3  1  0
  2 12  1  0
  3  4  1  0
  4  5  2  0
  4  6  1  0
  4  9  1  0
  6  7  1  0
  6  8  1  0
  7  8  1  0
  9 10  1  0
  9 11  1  0
 10 11  1  0
 12 13  2  0
 12 29  1  0
 13 14  1  0
 14 15  1  0
 14 27  2  0
 15 16  1  0
 16 17  2  0
 16 21  1  0
 17 18  1  0
 18 19  2  0
 18 22  1  0
 19 20  1  0
 20 21  2  0
 22 23  2  0
 22 24  1  0
 24 25  1  0
 24 26  1  0
 27 28  1  0
 27 30  1  0
 28 29  2  0
 30 31  1  0
 30 32  2  0
M  CHG  2  30   1  31  -1
M  END
>  <DRUGBANK_ID>  (1) 
DB16057

>  <COMMON_NAME>  (1) 
OBI-3424

>  <CAS_NUMBER>  (1) 
2097713-68-1

>  <UNII>  (1) 
X6SH5T8H76

>  <SYNONYMS>  (1) 
3-(5-((1R)-1-(Bis(aziridin-1-yl(phosphoryloxy)ethyl)-2-nitrophenoxy)-N,N-dimethylbenzamide; 3-[5-[(1R)-1-[bis(aziridin-1-yl(phosphoryloxy]ethyl]-2-nitrophenoxy]-N,N-dimethylbenzamide; OBI 3424; OBI3424; Phosphinic acid, P,P-bis(1-aziridinyl)-, (1R)-1-(3-(3-((dimethylamino)carbonyl)phenoxy)-4-nitrophenyl)ethyl ester

$$$$
