
     RDKit          3D

 23 25  0  0  1  0  0  0  0  0999 V2000
   -2.0489   -0.7605   -0.0111 C   0  0  0  0  0  0  0  0  0  0  0  0
   -2.1396    0.6231   -0.0111 N   0  0  0  0  0  0  0  0  0  0  0  0
   -1.0440    1.4593   -0.0168 C   0  0  0  0  0  0  0  0  0  0  0  0
   -1.1383    2.6816   -0.0034 O   0  0  0  0  0  0  0  0  0  0  0  0
    0.1845    0.7171   -0.0206 C   0  0  0  0  0  0  0  0  0  0  0  0
    0.1520   -0.6665   -0.0390 C   0  0  0  0  0  0  0  0  0  0  0  0
   -0.9488   -1.4571   -0.0316 N   0  0  0  0  0  0  0  0  0  0  0  0
    1.4718   -1.0578   -0.0339 N   0  0  0  0  0  0  0  0  0  0  0  0
    2.1517    0.1218    0.2412 C   0  0  0  0  0  0  0  0  0  0  0  0
    1.4359    1.2073    0.0771 N   0  0  0  0  0  0  0  0  0  0  0  0
    1.9907   -2.4346   -0.0790 C   0  0  1  0  0  0  0  0  0  0  0  0
    2.7460   -3.0688   -1.3361 C   0  0  1  0  0  0  0  0  0  0  0  0
    3.8275   -3.9290   -0.6574 C   0  0  1  0  0  0  0  0  0  0  0  0
    4.0259   -3.3371    0.7592 C   0  0  2  0  0  0  0  0  0  0  0  0
    2.8367   -2.6113    1.0980 O   0  0  0  0  0  0  0  0  0  0  0  0
    5.3460   -2.5068    1.0259 C   0  0  0  0  0  0  0  0  0  0  0  0
    5.4765   -1.1373    0.5750 O   0  0  0  0  0  0  0  0  0  0  0  0
    5.2409   -0.8627   -1.0091 S   0  0  0  0  0  0  0  0  0  0  0  0
    6.1411   -1.6726   -1.8045 O   0  0  0  0  0  0  0  0  0  0  0  0
    3.8478   -0.9656   -1.1919 O   0  0  0  0  0  0  0  0  0  0  0  0
    5.3511    0.6678   -1.4271 O   0  0  0  0  0  0  0  0  0  0  0  0
    3.3470   -5.2748   -0.5894 O   0  0  0  0  0  0  0  0  0  0  0  0
    1.9119   -3.6819   -2.3160 O   0  0  0  0  0  0  0  0  0  0  0  0
  1  2  1  0
  1  7  2  0
  2  3  1  0
  3  4  2  0
  3  5  1  0
  5  6  2  0
  5 10  1  0
  6  7  1  0
  6  8  1  0
  8  9  1  0
  9 10  2  0
 11  8  1  6
 11 15  1  0
 12 11  1  0
 12 13  1  0
 12 23  1  1
 13 14  1  0
 13 22  1  1
 14 15  1  0
 14 16  1  6
 16 17  1  0
 17 18  1  0
 18 19  2  0
 18 20  2  0
 18 21  1  0
M  END
>  <DRUGBANK_ID>  (1) 
DB05973

>  <COMMON_NAME>  (1) 
Inosine 5'-sulfate

>  <CAS_NUMBER>  (1) 
70023-32-4

>  <UNII>  (1) 
SJ1W653O6G

$$$$
