
     RDKit          3D

 24 26  0  0  0  0  0  0  0  0999 V2000
    0.9766    0.1169   -0.3682 C   0  0  0  0  0  0  0  0  0  0  0  0
    0.5967   -1.3639   -0.2081 C   0  0  0  0  0  0  0  0  0  0  0  0
    1.3557   -1.9809    1.0306 C   0  0  0  0  0  0  0  0  0  0  0  0
    0.8711   -1.5418    2.4047 C   0  0  0  0  0  0  0  0  0  0  0  0
    0.3600   -2.4138    3.3960 C   0  0  0  0  0  0  0  0  0  0  0  0
   -0.1498   -1.9211    4.6174 C   0  0  0  0  0  0  0  0  0  0  0  0
   -0.0889   -0.5609    4.8297 C   0  0  0  0  0  0  0  0  0  0  0  0
   -0.4555    0.1198    5.9514 O   0  0  0  0  0  0  0  0  0  0  0  0
    0.0058    1.4501    5.6148 C   0  0  0  0  0  0  0  0  0  0  0  0
    0.4003    1.5848    4.2409 O   0  0  0  0  0  0  0  0  0  0  0  0
    0.4207    0.2781    3.8886 C   0  0  0  0  0  0  0  0  0  0  0  0
    0.9393   -0.1808    2.7006 C   0  0  0  0  0  0  0  0  0  0  0  0
   -0.8752   -1.4138   -0.2427 N   0  0  0  0  0  0  0  0  0  0  0  0
   -1.4631   -2.7487   -0.4433 C   0  0  0  0  0  0  0  0  0  0  0  0
   -1.2522   -3.6904    0.7488 C   0  0  0  0  0  0  0  0  0  0  0  0
   -1.9433   -3.1830    1.8829 O   0  0  0  0  0  0  0  0  0  0  0  0
   -1.6204   -5.1214    0.5846 C   0  0  0  0  0  0  0  0  0  0  0  0
   -2.9195   -5.4557    0.2163 C   0  0  0  0  0  0  0  0  0  0  0  0
   -3.2773   -6.7888    0.1080 C   0  0  0  0  0  0  0  0  0  0  0  0
   -2.3291   -7.7763    0.3727 C   0  0  0  0  0  0  0  0  0  0  0  0
   -2.6515   -9.0992    0.2740 O   0  0  0  0  0  0  0  0  0  0  0  0
   -1.0313   -7.4467    0.7478 C   0  0  0  0  0  0  0  0  0  0  0  0
   -0.0978   -8.4078    1.0018 O   0  0  0  0  0  0  0  0  0  0  0  0
   -0.6692   -6.1229    0.8661 C   0  0  0  0  0  0  0  0  0  0  0  0
  1  2  1  0
  2  3  1  0
  2 13  1  0
  3  4  1  0
  4  5  2  0
  4 12  1  0
  5  6  1  0
  6  7  2  0
  7  8  1  0
  7 11  1  0
  8  9  1  0
  9 10  1  0
 10 11  1  0
 11 12  2  0
 13 14  1  0
 14 15  1  0
 15 16  1  0
 15 17  1  0
 17 18  2  0
 17 24  1  0
 18 19  1  0
 19 20  2  0
 20 21  1  0
 20 22  1  0
 22 23  1  0
 22 24  2  0
M  END
>  <DRUGBANK_ID>  (1) 
DB06814

>  <COMMON_NAME>  (1) 
Protokylol

>  <CAS_NUMBER>  (1) 
136-70-9

>  <UNII>  (1) 
8Y5Y4EEO2V

>  <SYNONYMS>  (1) 
Protokylol; Protokylolum; Protoquilol

$$$$
