1198
     RDKit          3D

 27 30  0  0  1  0  0  0  0  0999 V2000
    2.1170   -0.1534    0.0391 Cl  0  0  0  0  0  0  0  0  0  0  0  0
   -4.7723    2.0086   -1.1358 O   0  0  0  0  0  0  0  0  0  0  0  0
   -5.7476    3.9591   -0.5299 O   0  0  0  0  0  0  0  0  0  0  0  0
   -4.0207   -1.2628    2.0408 O   0  0  0  0  0  0  0  0  0  0  0  0
   -4.2345    3.0028    0.8965 N   0  0  0  0  0  0  0  0  0  0  0  0
   -2.2006    3.3908    2.9997 N   0  0  0  0  0  0  0  0  0  0  0  0
   -3.8908   -0.0522    0.0229 N   0  0  0  0  0  0  0  0  0  0  0  0
   -7.5625    0.4748   -0.5279 N   0  0  0  0  0  0  0  0  0  0  0  0
   -6.9222   -0.9634    1.8572 N   0  0  0  0  0  0  0  0  0  0  0  0
   -1.6836    0.8707   -0.4832 N   0  0  0  0  0  0  0  0  0  0  0  0
   -2.8255    2.9004    0.6428 C   0  0  0  0  0  0  0  0  0  0  0  0
   -4.4532    3.9992    1.9219 C   0  0  0  0  0  0  0  0  0  0  0  0
   -2.0534    2.4221    1.8933 C   0  0  0  0  0  0  0  0  0  0  0  0
   -3.6448    3.6691    3.2015 C   0  0  0  0  0  0  0  0  0  0  0  0
   -4.9261    0.6024   -0.8226 C   0  0  0  0  0  0  0  0  0  0  0  0
   -5.0228    3.0172   -0.2476 C   0  0  0  0  0  0  0  0  0  0  0  0
   -1.4485    4.6051    2.6756 C   0  0  0  0  0  0  0  0  0  0  0  0
   -6.2718    0.2515   -0.1371 C   0  0  0  0  0  0  0  0  0  0  0  0
   -5.9937   -0.4619    1.0033 C   0  0  0  0  0  0  0  0  0  0  0  0
   -4.5301   -0.6700    1.1216 C   0  0  0  0  0  0  0  0  0  0  0  0
   -2.4542   -0.2010   -0.2123 C   0  0  0  0  0  0  0  0  0  0  0  0
   -1.7533   -1.3785   -0.0010 C   0  0  0  0  0  0  0  0  0  0  0  0
   -8.5212   -0.0178    0.3294 C   0  0  0  0  0  0  0  0  0  0  0  0
   -8.2051   -0.7091    1.4978 C   0  0  0  0  0  0  0  0  0  0  0  0
   -0.3233   -1.3955   -0.0001 C   0  0  0  0  0  0  0  0  0  0  0  0
   -0.3255    0.8980   -0.2929 C   0  0  0  0  0  0  0  0  0  0  0  0
    0.4086   -0.2234   -0.0747 C   0  0  0  0  0  0  0  0  0  0  0  0
  1 27  1  0
  2 15  1  0
  2 16  1  0
  3 16  2  0
  4 20  2  0
  5 11  1  0
  5 12  1  0
  5 16  1  0
  6 13  1  0
  6 14  1  0
  6 17  1  0
  7 15  1  0
  7 20  1  0
  7 21  1  0
  8 18  2  0
  8 23  1  0
  9 19  2  0
  9 24  1  0
 10 21  2  0
 10 26  1  0
 11 13  1  0
 12 14  1  0
 15 18  1  0
 18 19  1  0
 19 20  1  0
 21 22  1  0
 22 25  2  0
 23 24  2  0
 25 27  1  0
 26 27  2  0
M  END
>  <DRUGBANK_ID>  (1) 
DB01198

>  <SECONDARY_ACCESSION_NUMBERS>  (1) 
APRD00356

>  <COMMON_NAME>  (1) 
Zopiclone

>  <CAS_NUMBER>  (1) 
43200-80-2

>  <UNII>  (1) 
03A5ORL08Q

>  <SYNONYMS>  (1) 
(+-)-zopiclone; (Â±)-zopiclone; 6-(5-Chloro-2-pyridinyl)-7-oxo-6,7-dihydro-5H-pyrrolo[3,4-b]pyrazin-5-yl 4-methyl-1-piperazinecarboxylate; Zopiclona; Zopiclone; Zopiclonum

$$$$
