
     RDKit          3D

 23 25  0  0  0  0  0  0  0  0999 V2000
    1.0137   -0.3097   -0.1170 C   0  0  0  0  0  0  0  0  0  0  0  0
    0.9700    2.9963    2.9844 C   0  0  0  0  0  0  0  0  0  0  0  0
    0.9677    2.5372    0.6803 C   0  0  0  0  0  0  0  0  0  0  0  0
   -0.1851   -4.3970    2.2789 C   0  0  0  0  0  0  0  0  0  0  0  0
   -0.4002   -5.4128    1.3693 C   0  0  0  0  0  0  0  0  0  0  0  0
   -0.6422   -3.1172    1.9946 C   0  0  0  0  0  0  0  0  0  0  0  0
   -1.0353   -5.1329    0.1697 C   0  0  0  0  0  0  0  0  0  0  0  0
   -3.5135   -0.2149   -3.1659 C   0  0  0  0  0  0  0  0  0  0  0  0
   -3.1804   -1.5409   -2.9555 C   0  0  0  0  0  0  0  0  0  0  0  0
   -2.5797    0.3249   -1.0043 C   0  0  0  0  0  0  0  0  0  0  0  0
   -3.5463    2.1042   -2.3846 C   0  0  0  0  0  0  0  0  0  0  0  0
    0.9784    0.6993    2.2883 C   0  0  0  0  0  0  0  0  0  0  0  0
   -1.0642   -0.4198    1.3708 C   0  0  0  0  0  0  0  0  0  0  0  0
    0.4813   -0.3820    1.3169 C   0  0  0  0  0  0  0  0  0  0  0  0
   -3.2096    0.7227   -2.1900 C   0  0  0  0  0  0  0  0  0  0  0  0
   -1.2506   -2.7801    0.7666 C   0  0  0  0  0  0  0  0  0  0  0  0
   -2.2321   -1.0174   -0.7516 C   0  0  0  0  0  0  0  0  0  0  0  0
   -1.4478   -3.8327   -0.1379 C   0  0  0  0  0  0  0  0  0  0  0  0
   -2.5500   -1.9393   -1.7708 C   0  0  0  0  0  0  0  0  0  0  0  0
   -3.8126    3.2169   -2.5345 N   0  0  0  0  0  0  0  0  0  0  0  0
    0.5007    2.0546    1.9763 N   0  0  0  0  0  0  0  0  0  0  0  0
   -1.6191   -1.4386    0.4566 N   0  0  0  0  0  0  0  0  0  0  0  0
   -2.2038   -3.6691   -1.7187 S   0  0  0  0  0  0  0  0  0  0  0  0
  5  4  2  0
  6  4  1  0
  7  5  1  0
  9  8  1  0
 14  1  1  0
 14 12  1  0
 14 13  1  0
 15  8  2  0
 15 10  1  0
 15 11  1  0
 16  6  2  0
 17 10  2  0
 18  7  2  0
 18 16  1  0
 19  9  2  0
 19 17  1  0
 20 11  3  0
 21  2  1  0
 21  3  1  0
 21 12  1  0
 22 13  1  0
 22 16  1  0
 22 17  1  0
 23 18  1  0
 23 19  1  0
M  END
>  <DRUGBANK_ID>  (1) 
DB09000

>  <COMMON_NAME>  (1) 
Cyamemazine

>  <CAS_NUMBER>  (1) 
3546-03-0

>  <UNII>  (1) 
A2JGV5CNU4

>  <SYNONYMS>  (1) 
Cyamemazine

$$$$
