
     RDKit          3D

 11 11  0  0  0  0  0  0  0  0999 V2000
    1.3298   -1.0534    0.0249 C   0  0  0  0  0  0  0  0  0  0  0  0
    1.2845    0.3568    0.0045 C   0  0  0  0  0  0  0  0  0  0  0  0
    0.1060   -1.7637    0.0027 C   0  0  0  0  0  0  0  0  0  0  0  0
    2.6308   -1.8451    0.0816 C   0  0  0  0  0  0  0  0  0  0  0  0
    0.0308    1.0014   -0.0097 C   0  0  0  0  0  0  0  0  0  0  0  0
    2.4901    1.2581   -0.0029 C   0  0  0  0  0  0  0  0  0  0  0  0
   -1.1267   -1.1089   -0.0171 C   0  0  0  0  0  0  0  0  0  0  0  0
    2.7213   -2.6741    1.3660 C   0  0  0  0  0  0  0  0  0  0  0  0
    2.8082   -2.7233   -1.1590 C   0  0  0  0  0  0  0  0  0  0  0  0
   -1.1533    0.2743   -0.0138 C   0  0  0  0  0  0  0  0  0  0  0  0
   -2.3247    0.9711   -0.0133 O   0  0  0  0  0  0  0  0  0  0  0  0
  1  2  2  0
  1  3  1  0
  1  4  1  0
  2  5  1  0
  2  6  1  0
  3  7  2  0
  4  8  1  0
  4  9  1  0
  5 10  2  0
  7 10  1  0
 10 11  1  0
M  END
>  <DRUGBANK_ID>  (1) 
DB15901

>  <COMMON_NAME>  (1) 
o-Cymen-5-ol

>  <CAS_NUMBER>  (1) 
3228-02-2

>  <UNII>  (1) 
H41B6Q1I9L

>  <SYNONYMS>  (1) 
4-Isopropyl-3-methylphenol; 4-Isopropyl-m-cresol; o-Cymen-5-ol; o-Cymen-5y-ol; p-Thymol

$$$$
