
     RDKit          3D

 13 12  0  0  1  0  0  0  0  0999 V2000
    1.1684    0.0405   -0.1712 N   0  0  0  0  0  0  0  0  0  0  0  0
    0.6259   -1.0852    0.5882 C   0  0  1  0  0  0  0  0  0  0  0  0
    1.2082   -0.9592    2.0626 C   0  0  0  0  0  0  0  0  0  0  0  0
    0.6725    0.1863    2.9101 C   0  0  0  0  0  0  0  0  0  0  0  0
   -0.8349    0.1107    3.0947 C   0  0  0  0  0  0  0  0  0  0  0  0
   -1.4422   -1.1329    3.7446 C   0  0  0  0  0  0  0  0  0  0  0  0
   -2.2557   -0.8847    4.7869 C   0  0  0  0  0  0  0  0  0  0  0  0
   -1.3151   -2.6345    3.5413 C   0  0  0  0  0  0  0  0  0  0  0  0
   -0.6805   -3.1052    2.4555 O   0  0  0  0  0  0  0  0  0  0  0  0
   -1.7444   -3.4531    4.3186 O   0  0  0  0  0  0  0  0  0  0  0  0
   -0.9572   -1.1348    0.2415 C   0  0  0  0  0  0  0  0  0  0  0  0
   -1.4533   -2.3719    0.0007 O   0  0  0  0  0  0  0  0  0  0  0  0
   -1.7248   -0.1863    0.2502 O   0  0  0  0  0  0  0  0  0  0  0  0
  2  1  1  6
  2  3  1  0
  2 11  1  0
  3  4  1  0
  4  5  1  0
  5  6  1  0
  6  7  2  0
  6  8  1  0
  8  9  1  0
  8 10  2  0
 11 12  1  0
 11 13  2  0
M  END
>  <DRUGBANK_ID>  (1) 
DB02892

>  <SECONDARY_ACCESSION_NUMBERS>  (1) 
EXPT00136

>  <COMMON_NAME>  (1) 
L-2-Amino-6-Methylene-Pimelic Acid

$$$$
