MUP
     RDKit          3D

 16 15  0  0  0  0  0  0  0  0999 V2000
    1.0335    0.0092   -0.0938 C   0  0  0  0  0  0  0  0  0  0  0  0
    0.6307    1.4304    0.3276 C   0  0  0  0  0  0  0  0  0  0  0  0
    1.1355    2.5135   -0.6279 C   0  0  0  0  0  0  0  0  0  0  0  0
    0.5478    2.4730   -2.0443 C   0  0  0  0  0  0  0  0  0  0  0  0
   -0.9893    2.5002   -2.0084 C   0  0  0  0  0  0  0  0  0  0  0  0
   -1.5087    3.8616   -1.7373 C   0  0  0  0  0  0  0  0  0  0  0  0
   -1.0432    4.7957   -2.8324 C   0  0  0  0  0  0  0  0  0  0  0  0
   -1.5183    4.2783   -4.2060 C   0  0  0  0  0  0  0  0  0  0  0  0
   -3.0500    4.2099   -4.2604 C   0  0  0  0  0  0  0  0  0  0  0  0
   -3.6781    5.5464   -3.8686 C   0  0  0  0  0  0  0  0  0  0  0  0
   -3.1708    6.6573   -4.7759 C   0  0  0  0  0  0  0  0  0  0  0  0
    3.0574   -0.5889   -1.7532 C   0  0  0  0  0  0  0  0  0  0  0  0
   -0.9748    0.0338   -1.5230 O   0  0  0  0  0  0  0  0  0  0  0  0
    1.8776   -0.1041   -2.4264 O   0  0  0  0  0  0  0  0  0  0  0  0
   -0.1532   -0.8330   -3.3428 O   0  0  0  0  0  0  0  0  0  0  0  0
    0.4235   -0.4237   -1.7639 P   0  0  1  0  0  0  0  0  0  0  0  0
  1  2  1  0
  1 16  1  0
  2  3  1  0
  3  4  1  0
  4  5  1  0
  5  6  1  0
  6  7  1  0
  7  8  1  0
  8  9  1  0
  9 10  1  0
 10 11  1  0
 12 14  1  0
 16 13  2  0
 16 14  1  0
 16 15  1  0
M  END
>  <DRUGBANK_ID>  (1) 
DB08222

>  <COMMON_NAME>  (1) 
METHOXYUNDECYLPHOSPHINIC ACID

$$$$
