
     RDKit          3D

 41 42  0  0  1  0  0  0  0  0999 V2000
    1.0895    0.1631    0.0209 O   0  0  0  0  0  0  0  0  0  0  0  0
    2.3132    0.0592    0.0215 C   0  0  0  0  0  0  0  0  0  0  0  0
    3.0701    0.8609   -0.7951 N   0  0  0  0  0  0  0  0  0  0  0  0
    3.0801   -0.8915    0.9731 C   0  0  1  0  0  0  0  0  0  0  0  0
    2.7243   -0.6079    2.4045 N   0  0  0  0  0  0  0  0  0  0  0  0
    2.0580   -1.4955    3.2465 C   0  0  0  0  0  0  0  0  0  0  0  0
    1.7745   -1.0554    4.6971 C   0  0  1  0  0  0  0  0  0  0  0  0
    0.3193   -1.2939    5.0066 N   0  0  0  0  0  0  0  0  0  0  0  0
   -0.1560   -2.2662    5.8847 C   0  0  0  0  0  0  0  0  0  0  0  0
   -1.6801   -2.3974    6.0849 C   0  0  1  0  0  0  0  0  0  0  0  0
   -2.0857   -3.8325    5.9451 N   0  0  0  0  0  0  0  0  0  0  0  0
   -2.5290   -4.6299    6.9990 C   0  0  0  0  0  0  0  0  0  0  0  0
   -2.9605   -6.0835    6.6862 C   0  0  1  0  0  0  0  0  0  0  0  0
   -2.3168   -7.0289    7.6337 N   0  0  0  0  0  0  0  0  0  0  0  0
   -3.0302   -7.7596    8.5806 C   0  0  0  0  0  0  0  0  0  0  0  0
   -2.2093   -8.5274    9.6104 C   0  0  1  0  0  0  0  0  0  0  0  0
   -2.5548   -8.2238   11.0056 N   0  0  0  0  0  0  0  0  0  0  0  0
   -2.9004   -6.9536   11.4162 C   0  0  0  0  0  0  0  0  0  0  0  0
   -3.2917   -6.7290   12.8561 C   0  0  0  0  0  0  0  0  0  0  0  0
   -2.9267   -5.9960   10.6435 O   0  0  0  0  0  0  0  0  0  0  0  0
   -2.4211   -9.4111   11.8328 C   0  0  0  0  0  0  0  0  0  0  0  0
   -2.2793  -10.5811   10.8621 C   0  0  0  0  0  0  0  0  0  0  0  0
   -2.6556   -9.9982    9.5124 C   0  0  0  0  0  0  0  0  0  0  0  0
   -4.2563   -7.8618    8.6199 O   0  0  0  0  0  0  0  0  0  0  0  0
   -4.4980   -6.1167    6.7903 C   0  0  0  0  0  0  0  0  0  0  0  0
   -5.2124   -5.2835    5.8127 C   0  0  0  0  0  0  0  0  0  0  0  0
   -6.1074   -5.6242    4.8316 C   0  0  0  0  0  0  0  0  0  0  0  0
   -6.4786   -4.5144    4.1271 N   0  0  0  0  0  0  0  0  0  0  0  0
   -5.8707   -3.5082    4.7145 C   0  0  0  0  0  0  0  0  0  0  0  0
   -5.1500   -3.9184    5.7930 N   0  0  0  0  0  0  0  0  0  0  0  0
   -2.7232   -4.1738    8.1226 O   0  0  0  0  0  0  0  0  0  0  0  0
   -1.9752   -1.8026    7.4803 C   0  0  0  0  0  0  0  0  0  0  0  0
   -1.6296   -0.4247    7.5655 O   0  0  0  0  0  0  0  0  0  0  0  0
    0.5824   -2.9731    6.5698 O   0  0  0  0  0  0  0  0  0  0  0  0
    2.7216   -1.8706    5.6055 C   0  0  0  0  0  0  0  0  0  0  0  0
    4.5026   -1.5829    5.3769 S   0  0  0  0  0  0  0  0  0  0  0  0
    1.7468   -2.6412    2.9209 O   0  0  0  0  0  0  0  0  0  0  0  0
    2.8142   -2.3424    0.5784 C   0  0  0  0  0  0  0  0  0  0  0  0
    3.1996   -2.6991   -0.8213 C   0  0  0  0  0  0  0  0  0  0  0  0
    4.1049   -3.7052   -0.9382 N   0  0  0  0  0  0  0  0  0  0  0  0
    2.7346   -2.1508   -1.8219 O   0  0  0  0  0  0  0  0  0  0  0  0
  1  2  2  0
  2  3  1  0
  4  2  1  0
  4  5  1  0
  4 38  1  6
  5  6  1  0
  6 37  2  0
  7  6  1  0
  7  8  1  0
  7 35  1  1
  8  9  1  0
  9 34  2  0
 10  9  1  0
 10 11  1  0
 10 32  1  1
 11 12  1  0
 12 31  2  0
 13 12  1  0
 13 14  1  0
 13 25  1  1
 14 15  1  0
 15 24  2  0
 16 15  1  6
 16 17  1  0
 16 23  1  0
 17 18  1  0
 17 21  1  0
 18 19  1  0
 18 20  2  0
 21 22  1  0
 22 23  1  0
 25 26  1  0
 26 27  2  0
 26 30  1  0
 27 28  1  0
 28 29  2  0
 29 30  1  0
 32 33  1  0
 35 36  1  0
 38 39  1  0
 39 40  1  0
 39 41  2  0
M  END
>  <DRUGBANK_ID>  (1) 
DB05491

>  <COMMON_NAME>  (1) 
ATN-161

>  <CAS_NUMBER>  (1) 
262438-43-7

>  <UNII>  (1) 
XW0H5LE42K

$$$$
