NBF
     RDKit          3D

 20 21  0  0  0  0  0  0  0  0999 V2000
    0.9232   -0.0411   -0.0492 C   0  0  0  0  0  0  0  0  0  0  0  0
    0.4166   -0.4444    1.3260 C   0  0  0  0  0  0  0  0  0  0  0  0
    0.8899    0.4798    2.2946 O   0  0  0  0  0  0  0  0  0  0  0  0
    2.2860    0.6589    2.4823 C   0  0  0  0  0  0  0  0  0  0  0  0
    2.8027    0.7065    3.7527 C   0  0  0  0  0  0  0  0  0  0  0  0
    1.8747    0.5192    4.9419 C   0  0  0  0  0  0  0  0  0  0  0  0
    2.3400    0.5609    6.1238 O   0  0  0  0  0  0  0  0  0  0  0  0
    0.4391    0.2897    4.7248 N   0  0  0  0  0  0  0  0  0  0  0  0
   -0.0991    0.2414    3.3577 C   0  0  0  0  0  0  0  0  0  0  0  0
   -0.7738   -1.1863    3.1003 B   0  0  0  0  0  0  0  0  0  0  0  0
   -2.2294   -1.2756    2.7492 O   0  0  0  0  0  0  0  0  0  0  0  0
    0.0492   -2.4356    3.2101 O   0  0  0  0  0  0  0  0  0  0  0  0
    4.1833    0.9267    3.9778 C   0  0  0  0  0  0  0  0  0  0  0  0
    5.0444    1.0713    2.8415 C   0  0  0  0  0  0  0  0  0  0  0  0
    6.4054    1.3268    3.0448 C   0  0  0  0  0  0  0  0  0  0  0  0
    6.9527    1.4200    4.3136 C   0  0  0  0  0  0  0  0  0  0  0  0
    6.0976    1.2784    5.4183 C   0  0  0  0  0  0  0  0  0  0  0  0
    4.7710    1.0297    5.2731 C   0  0  0  0  0  0  0  0  0  0  0  0
    4.4804    0.9520    1.5456 C   0  0  0  0  0  0  0  0  0  0  0  0
    3.1360    0.7865    1.3608 C   0  0  0  0  0  0  0  0  0  0  0  0
  1  2  1  0
  2  3  1  0
  3  4  1  0
  4  5  2  0
  4 20  1  0
  5  6  1  0
  5 13  1  0
  6  7  2  0
  6  8  1  0
  8  9  1  0
  9 10  1  0
 10 11  1  0
 10 12  1  0
 13 14  2  0
 13 18  1  0
 14 15  1  0
 14 19  1  0
 15 16  2  0
 16 17  1  0
 17 18  2  0
 19 20  2  0
M  END
>  <DRUGBANK_ID>  (1) 
DB02841

>  <SECONDARY_ACCESSION_NUMBERS>  (1) 
EXPT02299

>  <COMMON_NAME>  (1) 
[(2-Ethoxy-1-Naphthoyl)Amino]Methylboronic Acid

$$$$
