
     RDKit          3D

 20 24  0  0  0  0  0  0  0  0999 V2000
    0.9834    3.0176   -6.5124 C   0  0  1  0  0  0  0  0  0  0  0  0
    1.0367    2.6480   -4.8369 C   0  0  0  0  0  0  0  0  0  0  0  0
   -0.4404    4.0917   -7.3271 C   0  0  1  0  0  0  0  0  0  0  0  0
    2.0567    1.7584   -4.6518 C   0  0  0  0  0  0  0  0  0  0  0  0
    2.4324    3.0728   -6.7180 C   0  0  1  0  0  0  0  0  0  0  0  0
    2.8781    1.7806   -5.8244 O   0  0  0  0  0  0  0  0  0  0  0  0
   -1.7146    4.2738   -5.9976 C   0  0  1  0  0  0  0  0  0  0  0  0
   -0.0842    2.8829   -3.8657 C   0  0  0  0  0  0  0  0  0  0  0  0
    0.1787    4.9287   -8.3648 C   0  0  0  0  0  0  0  0  0  0  0  0
   -1.5476    3.6248   -4.3629 C   0  0  0  0  0  0  0  0  0  0  0  0
   -0.4089    4.2778   -5.6242 N   0  0  0  0  0  0  0  0  0  0  0  0
    0.3849    1.8029   -7.0626 C   0  0  0  0  0  0  0  0  0  0  0  0
    1.2691    4.0521   -9.0292 C   0  0  0  0  0  0  0  0  0  0  0  0
    2.4247    3.1230   -8.2820 C   0  0  0  0  0  0  0  0  0  0  0  0
    1.9257    1.0026   -3.4469 C   0  0  0  0  0  0  0  0  0  0  0  0
   -0.7625    2.3835   -6.2782 C   0  0  0  0  0  0  0  0  0  0  0  0
   -0.0746    2.2730   -2.6396 C   0  0  0  0  0  0  0  0  0  0  0  0
    0.9101    1.3056   -2.4459 C   0  0  0  0  0  0  0  0  0  0  0  0
    2.6732   -0.0863   -3.0634 O   0  0  0  0  0  0  0  0  0  0  0  0
   -0.0185    5.8652   -5.8259 C   0  0  0  0  0  0  0  0  0  0  0  0
  1  2  1  0
  1 12  1  6
  3  1  1  0
  4  2  2  0
  4  6  1  0
  5  1  1  0
  6  5  1  0
  7  3  1  0
  7 11  1  0
  8  2  1  0
  8 10  1  0
  3  9  1  1
  9 13  1  0
  7 10  1  1
 11 16  1  0
 13 14  1  0
  5 14  1  6
 15  4  1  0
 16 12  1  0
 17  8  2  0
 18 17  1  0
 18 15  2  0
 19 15  1  0
 20 11  1  0
M  END
>  <DRUGBANK_ID>  (1) 
DB01531

>  <COMMON_NAME>  (1) 
Desomorphine

>  <CAS_NUMBER>  (1) 
427-00-9

>  <UNII>  (1) 
7OP86J5E33

>  <SYNONYMS>  (1) 
4,5-epoxy-3-hydroxy-n-methylmorphinan; 6-deoxy-7,8-dihydromorphine; Deoxydihydromorphine D; Desomorphine; Dihydrodeoxymorphine; Dihydrodesoxymorphine D

$$$$
