DFT
     RDKit          3D

 21 22  0  0  0  0  0  0  0  0999 V2000
    0.9381    0.0462    0.0634 P   0  0  0  0  0  0  0  0  0  0  0  0
    0.7722   -0.9068    1.2333 O   0  0  0  0  0  0  0  0  0  0  0  0
    1.0147    1.6123    0.4553 O   0  0  0  0  0  0  0  0  0  0  0  0
   -0.7919    0.0462    0.0634 O   0  0  0  0  0  0  0  0  0  0  0  0
    2.6681    0.0462    0.0634 O   0  0  0  0  0  0  0  0  0  0  0  0
    3.2224   -0.5830    1.2295 C   0  0  0  0  0  0  0  0  0  0  0  0
    2.7764    0.1118    2.5332 C   0  0  1  0  0  0  0  0  0  0  0  0
    3.0916   -0.7589    3.6276 O   0  0  0  0  0  0  0  0  0  0  0  0
    3.4689    1.4500    2.7529 C   0  0  1  0  0  0  0  0  0  0  0  0
    2.6169    2.3949    3.4116 O   0  0  0  0  0  0  0  0  0  0  0  0
    4.5794    1.0845    3.6941 C   0  0  0  0  0  0  0  0  0  0  0  0
    3.9525   -0.0415    4.4970 C   0  0  2  0  0  0  0  0  0  0  0  0
    5.8095   -1.7617    4.3195 C   0  0  0  0  0  0  0  0  0  0  0  0
    6.7264   -2.7312    6.2994 C   0  0  0  0  0  0  0  0  0  0  0  0
    5.8355   -2.0157    7.0923 C   0  0  0  0  0  0  0  0  0  0  0  0
    5.7481   -2.2281    8.5691 C   0  0  0  0  0  0  0  0  0  0  0  0
    4.9746   -1.1011    6.4827 C   0  0  0  0  0  0  0  0  0  0  0  0
    7.5852   -3.5914    6.8746 F   0  0  0  0  0  0  0  0  0  0  0  0
    6.7494   -2.5967    4.9164 C   0  0  0  0  0  0  0  0  0  0  0  0
    5.7659   -1.7088    2.9784 F   0  0  0  0  0  0  0  0  0  0  0  0
    4.9411   -0.9908    5.0903 C   0  0  0  0  0  0  0  0  0  0  0  0
  1  2  2  0
  1  3  1  0
  1  4  1  0
  1  5  1  0
  5  6  1  0
  7  6  1  6
  7  8  1  0
  7  9  1  0
  8 12  1  0
  9 10  1  1
  9 11  1  0
 11 12  1  0
 12 21  1  6
 13 19  2  0
 13 20  1  0
 13 21  1  0
 14 15  2  0
 14 18  1  0
 14 19  1  0
 15 16  1  0
 15 17  1  0
 17 21  2  0
M  END
>  <DRUGBANK_ID>  (1) 
DB07652

>  <COMMON_NAME>  (1) 
1-[2-DEOXYRIBOFURANOSYL]-2,4-DIFLUORO-5-METHYL-BENZENE-5'MONOPHOSPHATE

$$$$
