335
     RDKit          3D

 19 19  0  0  1  0  0  0  0  0999 V2000
    1.0516    0.0036   -0.1545 O   0  0  0  0  0  0  0  0  0  0  0  0
    1.9032    2.3721    1.6621 O   0  0  0  0  0  0  0  0  0  0  0  0
    7.9280   -1.5904    1.4313 O   0  0  0  0  0  0  0  0  0  0  0  0
   -1.6340    3.1444    1.2546 N   0  0  0  0  0  0  0  0  0  0  0  0
    6.8855   -0.0082    2.6582 N   0  0  0  0  0  0  0  0  0  0  0  0
   -0.1900    3.3269    1.3103 C   0  0  0  0  0  0  0  0  0  0  0  0
    0.5595    1.9969    1.3392 C   0  0  0  0  0  0  0  0  0  0  0  0
   -2.3389    4.4247    1.2710 C   0  0  0  0  0  0  0  0  0  0  0  0
    0.3626    1.2523   -0.0185 C   0  0  0  0  0  0  0  0  0  0  0  0
   -1.9976    5.2738    0.0455 C   0  0  0  0  0  0  0  0  0  0  0  0
   -3.8311    4.1103    1.2865 C   0  0  0  0  0  0  0  0  0  0  0  0
    2.4121    0.0597   -0.2582 C   0  0  0  0  0  0  0  0  0  0  0  0
    5.1774    0.0647    0.1235 C   0  0  0  0  0  0  0  0  0  0  0  0
    3.1433    1.2389   -0.3875 C   0  0  0  0  0  0  0  0  0  0  0  0
    3.0828   -1.1457   -0.0809 C   0  0  0  0  0  0  0  0  0  0  0  0
    4.4984    1.2597   -0.0960 C   0  0  0  0  0  0  0  0  0  0  0  0
    4.4631   -1.1426    0.1189 C   0  0  0  0  0  0  0  0  0  0  0  0
    6.6771    0.0830    0.2319 C   0  0  0  0  0  0  0  0  0  0  0  0
    7.2107   -0.5903    1.4700 C   0  0  0  0  0  0  0  0  0  0  0  0
  1  9  1  0
  1 12  1  0
  2  7  1  0
  3 19  2  0
  4  6  1  0
  4  8  1  0
  5 19  1  0
  6  7  1  0
  7  9  1  0
  8 10  1  0
  8 11  1  0
 12 14  2  0
 12 15  1  0
 13 16  2  0
 13 17  1  0
 13 18  1  0
 14 16  1  0
 15 17  2  0
 18 19  1  0
M  END
>  <DRUGBANK_ID>  (1) 
DB00335

>  <SECONDARY_ACCESSION_NUMBERS>  (1) 
APRD00172

>  <COMMON_NAME>  (1) 
Atenolol

>  <CAS_NUMBER>  (1) 
29122-68-7

>  <UNII>  (1) 
50VV3VW0TI

>  <SYNONYMS>  (1) 
1-p-Carbamoylmethylphenoxy-3-isopropylamino-2-propanol; 2-(p-(2-Hydroxy-3-(isopropylamino)propoxy)phenyl)acetamide; 4-(2-Hydroxy-3-((1-methylethyl)amino)propoxy)benzeneacetamide; Atenolol; Atenololum

$$$$
