
     RDKit          3D

 20 21  0  0  0  0  0  0  0  0999 V2000
    0.8803    0.0502   -0.0158 C   0  0  0  0  0  0  0  0  0  0  0  0
    0.4486   -1.4040   -0.1840 C   0  0  0  0  0  0  0  0  0  0  0  0
   -0.2074   -1.9617    0.6940 O   0  0  0  0  0  0  0  0  0  0  0  0
    0.7227   -2.0734   -1.3648 N   0  0  0  0  0  0  0  0  0  0  0  0
    1.5795   -1.6450   -2.3845 C   0  0  0  0  0  0  0  0  0  0  0  0
    2.7004   -0.9488   -2.0223 C   0  0  0  0  0  0  0  0  0  0  0  0
    3.3652   -0.2115   -2.9670 C   0  0  0  0  0  0  0  0  0  0  0  0
    3.2869   -0.4841   -4.3199 C   0  0  0  0  0  0  0  0  0  0  0  0
    2.2401   -1.3310   -4.7130 C   0  0  0  0  0  0  0  0  0  0  0  0
    1.3377   -1.8490   -3.7459 C   0  0  0  0  0  0  0  0  0  0  0  0
    4.2433    0.1478   -5.3071 C   0  0  0  0  0  0  0  0  0  0  0  0
    4.0088    0.0283   -6.5036 O   0  0  0  0  0  0  0  0  0  0  0  0
    5.3307    0.9353   -4.9047 N   0  0  0  0  0  0  0  0  0  0  0  0
    5.9348    1.0791   -3.6336 C   0  0  0  0  0  0  0  0  0  0  0  0
    6.1409   -0.0544   -2.8258 C   0  0  0  0  0  0  0  0  0  0  0  0
    6.4030    0.0877   -1.4641 C   0  0  0  0  0  0  0  0  0  0  0  0
    6.6727    1.3490   -0.9502 C   0  0  0  0  0  0  0  0  0  0  0  0
    6.6489    2.4675   -1.7926 C   0  0  0  0  0  0  0  0  0  0  0  0
    6.1765    2.3691   -3.1110 C   0  0  0  0  0  0  0  0  0  0  0  0
    6.0596    3.5339   -3.8913 N   0  0  0  0  0  0  0  0  0  0  0  0
  1  2  1  0
  2  3  2  0
  2  4  1  0
  4  5  1  0
  5  6  2  0
  5 10  1  0
  6  7  1  0
  7  8  2  0
  8  9  1  0
  8 11  1  0
  9 10  2  0
 11 12  2  0
 11 13  1  0
 13 14  1  0
 14 15  2  0
 14 19  1  0
 15 16  1  0
 16 17  2  0
 17 18  1  0
 18 19  2  0
 19 20  1  0
M  END
>  <DRUGBANK_ID>  (1) 
DB12291

>  <COMMON_NAME>  (1) 
Tacedinaline

>  <CAS_NUMBER>  (1) 
112522-64-2

>  <UNII>  (1) 
UMF554N5FG

>  <SYNONYMS>  (1) 
tacedinalina; Tacedinaline

$$$$
