
     RDKit          3D

 20 21  0  0  0  0  0  0  0  0999 V2000
    0.9067    0.0465    0.1168 C   0  0  0  0  0  0  0  0  0  0  0  0
    0.4523   -1.3389    0.2011 N   0  0  0  0  0  0  0  0  0  0  0  0
    0.4057    0.8249    1.2182 O   0  0  0  0  0  0  0  0  0  0  0  0
    0.4190    0.6663   -1.2026 C   0  0  0  0  0  0  0  0  0  0  0  0
    1.2153   -2.4566   -0.0128 C   0  0  0  0  0  0  0  0  0  0  0  0
   -0.8078   -1.7518    0.5265 C   0  0  0  0  0  0  0  0  0  0  0  0
    0.8323    0.4313    2.4602 C   0  0  0  0  0  0  0  0  0  0  0  0
    1.4488    1.1334   -2.2566 C   0  0  0  0  0  0  0  0  0  0  0  0
   -0.7924    0.7998   -1.4327 O   0  0  0  0  0  0  0  0  0  0  0  0
    0.3635   -3.5105    0.2241 C   0  0  0  0  0  0  0  0  0  0  0  0
   -0.8868   -3.0620    0.5588 N   0  0  0  0  0  0  0  0  0  0  0  0
    2.1546    0.1067    2.7689 C   0  0  0  0  0  0  0  0  0  0  0  0
   -0.1502    0.3658    3.4506 C   0  0  0  0  0  0  0  0  0  0  0  0
    1.2110    0.3541   -3.5594 C   0  0  0  0  0  0  0  0  0  0  0  0
    1.2160    2.6297   -2.5164 C   0  0  0  0  0  0  0  0  0  0  0  0
    2.9054    0.9328   -1.8271 C   0  0  0  0  0  0  0  0  0  0  0  0
    2.4759   -0.3581    4.0469 C   0  0  0  0  0  0  0  0  0  0  0  0
    0.1710   -0.0980    4.7280 C   0  0  0  0  0  0  0  0  0  0  0  0
    1.4811   -0.4725    5.0163 C   0  0  0  0  0  0  0  0  0  0  0  0
    1.8781   -1.0775    6.5765 Cl  0  0  0  0  0  0  0  0  0  0  0  0
  1  2  1  0
  1  3  1  0
  1  4  1  0
  2  5  1  0
  2  6  1  0
  3  7  1  0
  4  8  1  0
  4  9  2  0
  5 10  2  0
  6 11  2  0
  7 12  2  0
  7 13  1  0
  8 14  1  0
  8 15  1  0
  8 16  1  0
 10 11  1  0
 12 17  1  0
 13 18  2  0
 17 19  2  0
 18 19  1  0
 19 20  1  0
M  END
>  <DRUGBANK_ID>  (1) 
DB15580

>  <COMMON_NAME>  (1) 
Climbazole

>  <CAS_NUMBER>  (1) 
38083-17-9

>  <UNII>  (1) 
9N42CW7I54

>  <SYNONYMS>  (1) 
Climbazol; Climbazole; Climbazolum

$$$$
