EI1
     RDKit          3D

 19 21  0  0  0  0  0  0  0  0999 V2000
    0.8676   -0.1588    0.1430 C   0  0  0  0  0  0  0  0  0  0  0  0
    0.4467    1.1437    0.7770 C   0  0  0  0  0  0  0  0  0  0  0  0
    0.8699    2.4394    0.1391 C   0  0  0  0  0  0  0  0  0  0  0  0
    0.4775    3.7068    0.5175 C   0  0  0  0  0  0  0  0  0  0  0  0
   -0.4223    4.0165    1.5472 C   0  0  0  0  0  0  0  0  0  0  0  0
   -0.6529    5.4002    1.6450 C   0  0  0  0  0  0  0  0  0  0  0  0
   -1.5161    5.7966    2.6381 O   0  0  0  0  0  0  0  0  0  0  0  0
   -0.0590    6.3715    0.7921 C   0  0  0  0  0  0  0  0  0  0  0  0
    0.8607    6.0268   -0.2319 C   0  0  0  0  0  0  0  0  0  0  0  0
    1.1374    4.6493   -0.3360 C   0  0  0  0  0  0  0  0  0  0  0  0
    1.9938    3.9882   -1.1365 N   0  0  0  0  0  0  0  0  0  0  0  0
    1.8031    2.6607   -0.8821 N   0  0  0  0  0  0  0  0  0  0  0  0
    2.4725    1.7225   -1.7223 C   0  0  0  0  0  0  0  0  0  0  0  0
    3.8720    1.6937   -1.7877 C   0  0  0  0  0  0  0  0  0  0  0  0
    4.5072    0.7841   -2.6486 C   0  0  0  0  0  0  0  0  0  0  0  0
    3.7541   -0.1379   -3.3703 C   0  0  0  0  0  0  0  0  0  0  0  0
    4.4048   -0.9958   -4.2077 O   0  0  0  0  0  0  0  0  0  0  0  0
    2.3711   -0.1626   -3.2553 C   0  0  0  0  0  0  0  0  0  0  0  0
    1.7310    0.8284   -2.5048 C   0  0  0  0  0  0  0  0  0  0  0  0
  1  2  1  0
  2  3  1  0
  3 12  1  0
  3  4  2  0
  4 10  1  0
  4  5  1  0
  5  6  2  0
  6  8  1  0
  6  7  1  0
  8  9  2  0
  9 10  1  0
 10 11  2  0
 11 12  1  0
 12 13  1  0
 13 14  2  0
 13 19  1  0
 14 15  1  0
 15 16  2  0
 16 17  1  0
 16 18  1  0
 18 19  2  0
M  END
>  <DRUGBANK_ID>  (1) 
DB07712

>  <COMMON_NAME>  (1) 
3-ETHYL-2-(4-HYDROXYPHENYL)-2H-INDAZOL-5-OL

$$$$
