OX3
     RDKit          3D

 18 19  0  0  0  0  0  0  0  0999 V2000
    0.8870   -0.0477    0.0099 C   0  0  0  0  0  0  0  0  0  0  0  0
    2.2487   -0.0159    0.0069 O   0  0  0  0  0  0  0  0  0  0  0  0
    0.2351    1.1708    0.0158 C   0  0  0  0  0  0  0  0  0  0  0  0
   -1.1592    1.2031    0.0167 C   0  0  0  0  0  0  0  0  0  0  0  0
   -1.9256    0.0287    0.0094 C   0  0  0  0  0  0  0  0  0  0  0  0
   -1.2535   -1.1973    0.0017 C   0  0  0  0  0  0  0  0  0  0  0  0
    0.1561   -1.2343    0.0079 C   0  0  0  0  0  0  0  0  0  0  0  0
   -3.4255    0.0896   -0.0035 C   0  0  0  0  0  0  0  0  0  0  0  0
   -4.0251    1.2343    0.0822 N   0  0  0  0  0  0  0  0  0  0  0  0
   -5.4154    1.1841   -0.0531 O   0  0  0  0  0  0  0  0  0  0  0  0
   -6.0342    2.4227   -0.1143 C   0  0  0  0  0  0  0  0  0  0  0  0
   -7.2741    2.4628   -0.1124 O   0  0  0  0  0  0  0  0  0  0  0  0
   -5.2308    3.7546   -0.1199 C   0  0  0  0  0  0  0  0  0  0  0  0
   -6.0204    4.8761   -0.8442 C   0  0  0  0  0  0  0  0  0  0  0  0
   -5.2356    6.1924   -0.9606 C   0  0  0  0  0  0  0  0  0  0  0  0
   -3.8843    5.9972   -1.6364 C   0  0  0  0  0  0  0  0  0  0  0  0
   -3.0823    4.9650   -0.8890 C   0  0  0  0  0  0  0  0  0  0  0  0
   -3.8551    3.6742   -0.7659 C   0  0  0  0  0  0  0  0  0  0  0  0
  1  7  2  0
  1  2  1  0
  1  3  1  0
  3  4  2  0
  4  5  1  0
  5  6  2  0
  5  8  1  0
  6  7  1  0
  8  9  2  0
  9 10  1  0
 10 11  1  0
 11 13  1  0
 11 12  2  0
 13 14  1  0
 13 18  1  0
 14 15  1  0
 15 16  1  0
 16 17  1  0
 17 18  1  0
M  END
>  <DRUGBANK_ID>  (1) 
DB08333

>  <COMMON_NAME>  (1) 
4-HYDROXYBENZALDEHYDE O-(CYCLOHEXYLCARBONYL)OXIME

$$$$
