
     RDKit          3D

 29 31  0  0  0  0  0  0  0  0999 V2000
    1.1951    0.1299   -0.1055 O   0  0  0  0  0  0  0  0  0  0  0  0
    0.6252   -1.0088   -0.7381 C   0  0  0  0  0  0  0  0  0  0  0  0
    1.0414   -1.1060   -2.2057 C   0  0  0  0  0  0  0  0  0  0  0  0
    2.4720   -1.1493   -2.2783 O   0  0  0  0  0  0  0  0  0  0  0  0
    0.4343   -2.3369   -2.9003 C   0  0  0  0  0  0  0  0  0  0  0  0
   -1.0149   -2.3009   -2.8881 O   0  0  0  0  0  0  0  0  0  0  0  0
   -1.6185   -2.6477   -1.6912 C   0  0  0  0  0  0  0  0  0  0  0  0
   -1.0937   -3.0489   -0.7115 O   0  0  0  0  0  0  0  0  0  0  0  0
   -3.0789   -2.4586   -1.7835 C   0  0  0  0  0  0  0  0  0  0  0  0
   -3.6865   -3.2852   -2.7811 C   0  0  0  0  0  0  0  0  0  0  0  0
   -5.0616   -3.4623   -2.8406 C   0  0  0  0  0  0  0  0  0  0  0  0
   -5.8165   -2.5996   -2.1074 C   0  0  0  0  0  0  0  0  0  0  0  0
   -5.1750   -1.6347   -1.3230 C   0  0  0  0  0  0  0  0  0  0  0  0
   -3.8636   -1.7485   -0.8559 C   0  0  0  0  0  0  0  0  0  0  0  0
   -3.4575   -1.2466    0.4989 N   0  0  0  0  0  0  0  0  0  0  0  0
   -4.4845   -0.9381    1.8285 C   0  0  0  0  0  0  0  0  0  0  0  0
   -4.7334   -2.2284    2.6134 C   0  0  0  0  0  0  0  0  0  0  0  0
   -4.9536   -3.2244    1.7843 C   0  0  0  0  0  0  0  0  0  0  0  0
   -5.8814   -2.7524    1.0013 N   0  0  0  0  0  0  0  0  0  0  0  0
   -6.3781   -1.4490    1.0733 C   0  0  0  0  0  0  0  0  0  0  0  0
   -7.6798   -1.4108    0.7545 C   0  0  0  0  0  0  0  0  0  0  0  0
   -8.4017   -0.2125    0.7690 C   0  0  0  0  0  0  0  0  0  0  0  0
   -7.7560    1.0225    0.8335 C   0  0  0  0  0  0  0  0  0  0  0  0
   -6.3758    1.0280    1.1099 C   0  0  0  0  0  0  0  0  0  0  0  0
   -5.6864   -0.3008    1.3935 C   0  0  0  0  0  0  0  0  0  0  0  0
   -8.2427   -2.7806    0.5398 C   0  0  0  0  0  0  0  0  0  0  0  0
   -8.8152   -3.2091    1.6923 F   0  0  0  0  0  0  0  0  0  0  0  0
   -9.1725   -2.7600   -0.4392 F   0  0  0  0  0  0  0  0  0  0  0  0
   -7.4379   -3.8214    0.1434 F   0  0  0  0  0  0  0  0  0  0  0  0
  1  2  1  0
  2  3  1  0
  3  4  1  0
  3  5  1  0
  5  6  1  0
  6  7  1  0
  7  8  2  0
  7  9  1  0
  9 10  2  0
  9 14  1  0
 10 11  1  0
 11 12  2  0
 12 13  1  0
 13 14  2  0
 14 15  1  0
 15 16  1  0
 16 17  2  0
 16 25  1  0
 17 18  1  0
 18 19  2  0
 19 20  1  0
 20 21  1  0
 20 25  2  0
 21 22  2  0
 21 26  1  0
 22 23  1  0
 23 24  2  0
 24 25  1  0
 26 27  1  0
 26 28  1  0
 26 29  1  0
M  END
>  <DRUGBANK_ID>  (1) 
DB08976

>  <COMMON_NAME>  (1) 
Floctafenine

>  <CAS_NUMBER>  (1) 
23779-99-9

>  <UNII>  (1) 
O04HVX6A9Q

>  <SYNONYMS>  (1) 
Floctafenina; Floctafenine; Floctafeninum

$$$$
