
     RDKit          3D

 33 36  0  0  0  0  0  0  0  0999 V2000
   -3.3453   -0.0946   -0.1906 C   0  0  0  0  0  0  0  0  0  0  0  0
   -2.8569    1.1999   -0.3799 C   0  0  0  0  0  0  0  0  0  0  0  0
   -1.4961    1.4553   -0.2684 C   0  0  0  0  0  0  0  0  0  0  0  0
   -2.4714   -1.1575    0.0525 C   0  0  0  0  0  0  0  0  0  0  0  0
   -1.0938   -0.9379    0.1388 C   0  0  0  0  0  0  0  0  0  0  0  0
   -0.6433    0.3970    0.0336 C   0  0  0  0  0  0  0  0  0  0  0  0
    1.0700    0.7256    0.3238 S   0  0  0  0  0  0  0  0  0  0  0  0
    1.6918   -0.7403   -0.2123 N   0  0  0  0  0  0  0  0  0  0  0  0
    1.1204   -1.8308    0.6671 C   0  0  0  0  0  0  0  0  0  0  0  0
   -0.1709   -2.0556    0.4472 C   0  0  0  0  0  0  0  0  0  0  0  0
   -0.7355   -3.3240    0.5986 O   0  0  0  0  0  0  0  0  0  0  0  0
   -0.0475   -4.5034    0.3320 C   0  0  0  0  0  0  0  0  0  0  0  0
    1.3246   -4.4242   -0.4674 C   0  0  0  0  0  0  0  0  0  0  0  0
   -0.4167   -5.4751    0.9847 O   0  0  0  0  0  0  0  0  0  0  0  0
    2.3798   -5.2087   -0.1147 C   0  0  0  0  0  0  0  0  0  0  0  0
    3.9816   -5.0052    0.0781 C   0  0  0  0  0  0  0  0  0  0  0  0
    4.7713   -4.0309    0.8214 C   0  0  0  0  0  0  0  0  0  0  0  0
    6.1636   -3.9212    0.9953 C   0  0  0  0  0  0  0  0  0  0  0  0
    6.9056   -4.9612    0.5492 C   0  0  0  0  0  0  0  0  0  0  0  0
    6.2106   -6.0775    0.0721 C   0  0  0  0  0  0  0  0  0  0  0  0
    4.7970   -6.0943   -0.1787 C   0  0  0  0  0  0  0  0  0  0  0  0
    1.4843    1.7898   -0.5976 O   0  0  0  0  0  0  0  0  0  0  0  0
    1.2675    0.8128    1.7386 O   0  0  0  0  0  0  0  0  0  0  0  0
    1.8701   -0.8508   -1.7061 C   0  0  0  0  0  0  0  0  0  0  0  0
    2.1277   -2.7300    1.4191 C   0  0  0  0  0  0  0  0  0  0  0  0
    1.7590   -3.9383    2.2744 N   0  0  0  0  0  0  0  0  0  0  0  0
    2.5040   -5.3000    2.6342 C   0  0  0  0  0  0  0  0  0  0  0  0
    3.1992   -2.2800    1.0180 O   0  0  0  0  0  0  0  0  0  0  0  0
    3.7692   -5.2901    3.1523 C   0  0  0  0  0  0  0  0  0  0  0  0
    4.5933   -6.4490    3.0786 C   0  0  0  0  0  0  0  0  0  0  0  0
    4.1564   -7.6646    2.5501 C   0  0  0  0  0  0  0  0  0  0  0  0
    2.8503   -7.6814    2.1276 C   0  0  0  0  0  0  0  0  0  0  0  0
    1.9999   -6.5673    2.2697 N   0  0  0  0  0  0  0  0  0  0  0  0
  1  2  2  0
  1  4  1  0
  2  3  1  0
  3  6  2  0
  5  4  2  0
  5 10  1  0
  5  6  1  0
  6  7  1  0
  7  8  1  0
  7 22  2  0
  7 23  2  0
  8  9  1  0
  8 24  1  0
  9 10  2  0
  9 25  1  0
 10 11  1  0
 11 12  1  0
 12 13  1  0
 12 14  2  0
 13 15  2  0
 15 16  1  0
 16 17  2  0
 17 18  1  0
 18 19  2  0
 19 20  1  0
 20 21  2  0
 21 16  1  0
 25 26  1  0
 25 28  2  0
 26 27  1  0
 27 29  2  0
 29 30  1  0
 30 31  2  0
 31 32  1  0
 32 33  2  0
 33 27  1  0
M  END
>  <DRUGBANK_ID>  (1) 
DB15883

>  <COMMON_NAME>  (1) 
Piroxicam cinnamate

>  <CAS_NUMBER>  (1) 
87234-24-0

>  <UNII>  (1) 
7E8Q32N75N

>  <SYNONYMS>  (1) 
Cinnoxicam; Piroxicam cinnamate; Piroxicam cinnamic acid ester

$$$$
