910
     RDKit          3D

 28 30  0  0  0  0  0  0  0  0999 V2000
    2.6358    0.4145    0.0744 S   0  0  0  0  0  0  0  0  0  0  0  0
    2.1162   -1.2408    0.0177 C   0  0  0  0  0  0  0  0  0  0  0  0
    0.7254   -1.3162   -0.0820 C   0  0  0  0  0  0  0  0  0  0  0  0
    0.1529   -0.0065   -0.2550 C   0  0  0  0  0  0  0  0  0  0  0  0
    1.0478    1.0166   -0.0493 C   0  0  0  0  0  0  0  0  0  0  0  0
    3.1513   -2.2768    0.0536 C   0  0  0  0  0  0  0  0  0  0  0  0
    2.6749   -3.5492    0.0297 O   0  0  0  0  0  0  0  0  0  0  0  0
    4.3689   -2.0824    0.0697 O   0  0  0  0  0  0  0  0  0  0  0  0
    0.7302    2.4510   -0.0089 C   0  0  0  0  0  0  0  0  0  0  0  0
   -0.0934    2.9549    1.0232 C   0  0  0  0  0  0  0  0  0  0  0  0
   -0.4883    4.2996    1.0638 C   0  0  0  0  0  0  0  0  0  0  0  0
   -0.0697    5.1189    0.0163 C   0  0  0  0  0  0  0  0  0  0  0  0
    0.7294    4.6385   -1.0167 C   0  0  0  0  0  0  0  0  0  0  0  0
    1.0875    3.2969   -1.0588 C   0  0  0  0  0  0  0  0  0  0  0  0
   -1.6064    0.4777   -0.8344 Br  0  0  0  0  0  0  0  0  0  0  0  0
    0.1441   -2.5515   -0.0773 O   0  0  0  0  0  0  0  0  0  0  0  0
   -1.2749   -2.5819    0.0077 C   0  0  0  0  0  0  0  0  0  0  0  0
   -1.8911   -2.0831    1.3235 C   0  0  0  0  0  0  0  0  0  0  0  0
   -2.9349   -1.2312    1.2009 O   0  0  0  0  0  0  0  0  0  0  0  0
   -1.4855   -2.4257    2.4252 O   0  0  0  0  0  0  0  0  0  0  0  0
   -1.2256    4.7693    2.1281 N   0  0  0  0  0  0  0  0  0  0  0  0
   -1.6604    6.1463    2.2965 C   0  0  0  0  0  0  0  0  0  0  0  0
   -3.1644    6.2668    2.3351 C   0  0  0  0  0  0  0  0  0  0  0  0
   -3.9987    5.1427    2.4089 C   0  0  0  0  0  0  0  0  0  0  0  0
   -5.3723    5.2816    2.5683 C   0  0  0  0  0  0  0  0  0  0  0  0
   -5.9327    6.5507    2.6599 C   0  0  0  0  0  0  0  0  0  0  0  0
   -5.1212    7.6811    2.5793 C   0  0  0  0  0  0  0  0  0  0  0  0
   -3.7487    7.5429    2.3725 C   0  0  0  0  0  0  0  0  0  0  0  0
  1  2  1  0
  1  5  1  0
  2  3  2  0
  2  6  1  0
  3  4  1  0
  3 16  1  0
  4  5  2  0
  4 15  1  0
  5  9  1  0
  6  7  1  0
  6  8  2  0
  9 10  2  0
  9 14  1  0
 10 11  1  0
 11 12  2  0
 11 21  1  0
 12 13  1  0
 13 14  2  0
 16 17  1  0
 17 18  1  0
 18 19  1  0
 18 20  2  0
 21 22  1  0
 22 23  1  0
 23 24  2  0
 23 28  1  0
 24 25  1  0
 25 26  2  0
 26 27  1  0
 27 28  2  0
M  END
>  <DRUGBANK_ID>  (1) 
DB07289

>  <COMMON_NAME>  (1) 
5-[3-(BENZYLAMINO)PHENYL]-4-BROMO-3-(CARBOXYMETHOXY)THIOPHENE-2-CARBOXYLIC ACID

$$$$
