
     RDKit          3D

 25 26  0  0  0  0  0  0  0  0999 V2000
   -1.1932   -1.1857   -0.0730 C   0  0  0  0  0  0  0  0  0  0  0  0
   -1.1672    1.2293   -0.0302 C   0  0  0  0  0  0  0  0  0  0  0  0
    0.2026   -1.2138   -0.0315 C   0  0  0  0  0  0  0  0  0  0  0  0
    0.2295    1.2022   -0.0085 C   0  0  0  0  0  0  0  0  0  0  0  0
   -8.3554   -0.8706    1.8749 C   0  0  0  0  0  0  0  0  0  0  0  0
   -9.2753   -2.0370    1.5097 C   0  0  0  0  0  0  0  0  0  0  0  0
   -3.3539    0.0592   -0.0060 C   0  0  0  0  0  0  0  0  0  0  0  0
   -4.6408   -2.3678    4.0689 C   0  0  0  0  0  0  0  0  0  0  0  0
   -1.8889    0.0330   -0.0513 C   0  0  0  0  0  0  0  0  0  0  0  0
    0.9034   -0.0144   -0.0103 C   0  0  0  0  0  0  0  0  0  0  0  0
   -7.1406   -1.3146    2.6423 C   0  0  0  0  0  0  0  0  0  0  0  0
   -4.0838   -0.4774    0.9814 C   0  0  0  0  0  0  0  0  0  0  0  0
   -9.9216   -2.7589    2.6778 C   0  0  0  0  0  0  0  0  0  0  0  0
   -5.1991   -1.6671    5.3023 C   0  0  0  0  0  0  0  0  0  0  0  0
   -5.7381   -1.1042    2.1250 C   0  0  0  0  0  0  0  0  0  0  0  0
   -3.5501   -1.1608    2.2060 C   0  0  0  0  0  0  0  0  0  0  0  0
   -7.2494   -1.8308    3.8142 N   0  0  0  0  0  0  0  0  0  0  0  0
   -5.4673   -0.4806    1.0180 N   0  0  0  0  0  0  0  0  0  0  0  0
   -4.6715   -1.5364    2.8621 N   0  0  0  0  0  0  0  0  0  0  0  0
    2.2665    0.0212    0.0089 O   0  0  0  0  0  0  0  0  0  0  0  0
  -11.0927   -2.6920    3.0093 O   0  0  0  0  0  0  0  0  0  0  0  0
   -9.0500   -3.4910    3.3951 O   0  0  0  0  0  0  0  0  0  0  0  0
   -5.9151   -2.1648    6.1618 O   0  0  0  0  0  0  0  0  0  0  0  0
   -4.7606   -0.3990    5.4503 O   0  0  0  0  0  0  0  0  0  0  0  0
   -2.3934   -1.3762    2.5312 O   0  0  0  0  0  0  0  0  0  0  0  0
  3  1  2  0
  4  2  1  0
  6  5  1  0
  9  1  1  0
  9  2  2  0
  9  7  1  0
 10  3  1  0
 10  4  2  0
 11  5  1  0
 12  7  2  0
 13  6  1  0
 14  8  1  0
 15 11  1  0
 16 12  1  0
 17 11  2  0
 18 12  1  0
 18 15  2  0
 19  8  1  0
 19 15  1  0
 19 16  1  0
 20 10  1  0
 21 13  2  0
 22 13  1  0
 23 14  2  0
 24 14  1  0
 25 16  2  0
M  END
>  <DRUGBANK_ID>  (1) 
DB04668

>  <COMMON_NAME>  (1) 
CHROMOPHORE (GLU-TYR-GLY)

$$$$
