
     RDKit          3D

 34 37  0  0  0  0  0  0  0  0999 V2000
    1.4097   -0.2079    0.1686 C   0  0  0  0  0  0  0  0  0  0  0  0
    0.5575   -1.2932    0.3245 C   0  0  0  0  0  0  0  0  0  0  0  0
   -0.8322   -1.1386    0.2277 C   0  0  0  0  0  0  0  0  0  0  0  0
   -1.3661    0.1346    0.1810 C   0  0  0  0  0  0  0  0  0  0  0  0
   -0.5073    1.2236    0.2290 C   0  0  0  0  0  0  0  0  0  0  0  0
    0.8787    1.0681    0.0678 C   0  0  0  0  0  0  0  0  0  0  0  0
    1.7926    2.2119   -0.2946 C   0  0  0  0  0  0  0  0  0  0  0  0
    1.3999    2.8567   -1.6383 C   0  0  0  0  0  0  0  0  0  0  0  0
    0.0418    3.5799   -1.6230 C   0  0  0  0  0  0  0  0  0  0  0  0
   -0.1150    4.5459   -0.4404 C   0  0  0  0  0  0  0  0  0  0  0  0
    0.7238    5.7143   -0.5619 N   0  0  0  0  0  0  0  0  0  0  0  0
    0.3450    7.0164   -0.5029 C   0  0  0  0  0  0  0  0  0  0  0  0
    1.5015    7.6978   -0.7935 C   0  0  0  0  0  0  0  0  0  0  0  0
    2.5257    6.8157   -0.9699 N   0  0  0  0  0  0  0  0  0  0  0  0
    2.0472    5.6017   -0.7584 N   0  0  0  0  0  0  0  0  0  0  0  0
   -1.7402   -2.1539    0.0938 O   0  0  0  0  0  0  0  0  0  0  0  0
   -1.1981   -3.4807    0.0014 C   0  0  0  0  0  0  0  0  0  0  0  0
   -0.4441   -3.7499   -1.2658 C   0  0  0  0  0  0  0  0  0  0  0  0
    0.1271   -2.8615   -2.1488 C   0  0  0  0  0  0  0  0  0  0  0  0
    0.8198   -3.5498   -3.0721 O   0  0  0  0  0  0  0  0  0  0  0  0
    0.5951   -4.8752   -2.7776 C   0  0  0  0  0  0  0  0  0  0  0  0
   -0.1416   -5.0276   -1.6800 N   0  0  0  0  0  0  0  0  0  0  0  0
    1.0921   -5.9152   -3.5891 C   0  0  0  0  0  0  0  0  0  0  0  0
    1.8587   -5.6361   -4.6636 C   0  0  0  0  0  0  0  0  0  0  0  0
    2.3784   -6.6864   -5.5290 C   0  0  0  0  0  0  0  0  0  0  0  0
    1.5550   -7.7070   -6.0169 C   0  0  0  0  0  0  0  0  0  0  0  0
    2.0842   -8.7077   -6.8302 C   0  0  0  0  0  0  0  0  0  0  0  0
    3.4398   -8.6868   -7.1863 C   0  0  0  0  0  0  0  0  0  0  0  0
    4.2421   -7.6190   -6.7567 C   0  0  0  0  0  0  0  0  0  0  0  0
    3.7229   -6.6429   -5.9080 C   0  0  0  0  0  0  0  0  0  0  0  0
    4.0611   -9.8213   -7.9591 C   0  0  0  0  0  0  0  0  0  0  0  0
    4.6066   -9.4226   -9.1397 F   0  0  0  0  0  0  0  0  0  0  0  0
    5.0699  -10.4161   -7.2616 F   0  0  0  0  0  0  0  0  0  0  0  0
    3.1849  -10.8184   -8.2641 F   0  0  0  0  0  0  0  0  0  0  0  0
  1  2  2  0
  1  6  1  0
  2  3  1  0
  3  4  2  0
  3 16  1  0
  4  5  1  0
  5  6  2  0
  6  7  1  0
  7  8  1  0
  8  9  1  0
  9 10  1  0
 10 11  1  0
 11 12  1  0
 11 15  1  0
 12 13  2  0
 13 14  1  0
 14 15  2  0
 16 17  1  0
 17 18  1  0
 18 19  2  0
 18 22  1  0
 19 20  1  0
 20 21  1  0
 21 22  2  0
 21 23  1  0
 23 24  2  0
 24 25  1  0
 25 26  2  0
 25 30  1  0
 26 27  1  0
 27 28  2  0
 28 29  1  0
 28 31  1  0
 29 30  2  0
 31 32  1  0
 31 33  1  0
 31 34  1  0
M  END
>  <DRUGBANK_ID>  (1) 
DB12682

>  <COMMON_NAME>  (1) 
Mubritinib

>  <CAS_NUMBER>  (1) 
366017-09-6

>  <UNII>  (1) 
V734AZP9BR

>  <SYNONYMS>  (1) 
Mubritinib

$$$$
