
     RDKit          3D

 37 40  0  0  0  0  0  0  0  0999 V2000
    0.9230    0.0576    0.0373 O   0  0  0  0  0  0  0  0  0  0  0  0
   -5.4780    2.3511    3.3500 O   0  0  0  0  0  0  0  0  0  0  0  0
    0.6730    0.7811    2.2255 O   0  0  0  0  0  0  0  0  0  0  0  0
   -3.8673    3.6592    2.6526 O   0  0  0  0  0  0  0  0  0  0  0  0
    2.2159    5.3770    4.4113 O   0  0  0  0  0  0  0  0  0  0  0  0
    2.7957    3.4062    3.7885 O   0  0  0  0  0  0  0  0  0  0  0  0
   -3.0786   -0.6480    0.6714 N   0  0  0  0  0  0  0  0  0  0  0  0
    1.9361    4.2834    3.9490 N   0  0  0  0  0  0  0  0  0  0  0  0
    2.7524    2.0548    1.3175 N   0  0  0  0  0  0  0  0  0  0  0  0
   -1.9563    1.7839    1.6545 C   0  0  1  0  0  0  0  0  0  0  0  0
   -1.1716    0.5787    1.0124 C   0  0  0  0  0  0  0  0  0  0  0  0
   -3.4874    1.3968    1.9187 C   0  0  0  0  0  0  0  0  0  0  0  0
   -1.2515    2.5293    2.8585 C   0  0  0  0  0  0  0  0  0  0  0  0
   -1.7364   -0.5816    0.6392 C   0  0  0  0  0  0  0  0  0  0  0  0
   -3.8606    0.1814    1.4069 C   0  0  0  0  0  0  0  0  0  0  0  0
    0.2505    0.5099    1.1169 C   0  0  0  0  0  0  0  0  0  0  0  0
   -4.3236    2.5121    2.6240 C   0  0  0  0  0  0  0  0  0  0  0  0
   -0.0179    3.2112    2.7020 C   0  0  0  0  0  0  0  0  0  0  0  0
   -1.8449    2.6475    4.1299 C   0  0  0  0  0  0  0  0  0  0  0  0
    0.5563    3.8888    3.7978 C   0  0  0  0  0  0  0  0  0  0  0  0
   -1.1114   -1.9025    0.2783 C   0  0  0  0  0  0  0  0  0  0  0  0
    2.3636   -0.0611    0.0890 C   0  0  1  0  0  0  0  0  0  0  0  0
   -5.1628   -0.4717    1.4888 C   0  0  0  0  0  0  0  0  0  0  0  0
   -1.3884    3.5559    5.0859 C   0  0  0  0  0  0  0  0  0  0  0  0
   -0.1413    4.1010    4.9673 C   0  0  0  0  0  0  0  0  0  0  0  0
    2.9753    1.3204    0.0760 C   0  0  0  0  0  0  0  0  0  0  0  0
    2.9784   -0.9156    1.2112 C   0  0  0  0  0  0  0  0  0  0  0  0
    2.8986   -0.2575    2.5607 C   0  0  0  0  0  0  0  0  0  0  0  0
    3.3076    1.2346    2.4568 C   0  0  0  0  0  0  0  0  0  0  0  0
   -6.4625    1.3352    3.2030 C   0  0  0  0  0  0  0  0  0  0  0  0
    3.1752    3.4695    1.1333 C   0  0  0  0  0  0  0  0  0  0  0  0
    4.6528    3.6547    1.1328 C   0  0  0  0  0  0  0  0  0  0  0  0
    5.3404    3.2067    0.0101 C   0  0  0  0  0  0  0  0  0  0  0  0
    5.3458    4.2029    2.2159 C   0  0  0  0  0  0  0  0  0  0  0  0
    6.7100    3.2183   -0.0206 C   0  0  0  0  0  0  0  0  0  0  0  0
    6.7149    4.3798    2.1065 C   0  0  0  0  0  0  0  0  0  0  0  0
    7.3956    3.8440    1.0109 C   0  0  0  0  0  0  0  0  0  0  0  0
  1 16  1  0
  2 17  1  0
  2 30  1  0
  3 16  2  0
  4 17  2  0
  5  8  1  0
  6  8  2  0
  7 14  1  0
  7 15  1  0
  8 20  1  0
  9 26  1  0
  9 29  1  0
  9 31  1  0
 10 11  1  0
 10 12  1  0
 10 13  1  1
 11 14  2  0
 11 16  1  0
 12 15  2  0
 12 17  1  0
 13 18  2  0
 13 19  1  0
 14 21  1  0
 15 23  1  0
 18 20  1  0
 19 24  2  0
 20 25  2  0
 22  1  1  1
 22 26  1  0
 22 27  1  0
 24 25  1  0
 27 28  1  0
 28 29  1  0
 31 32  1  0
 32 33  2  0
 32 34  1  0
 33 35  1  0
 34 36  2  0
 35 37  2  0
 36 37  1  0
M  CHG  2   5  -1   8   1
M  END
>  <DRUGBANK_ID>  (1) 
DB09231

>  <COMMON_NAME>  (1) 
Benidipine

>  <CAS_NUMBER>  (1) 
105979-17-7

>  <UNII>  (1) 
4G9T91JS7E

>  <SYNONYMS>  (1) 
Benidipine

$$$$
