521
     RDKit          3D

 20 22  0  0  0  0  0  0  0  0999 V2000
    1.3624   -0.2099    0.0014 C   0  0  0  0  0  0  0  0  0  0  0  0
    0.8575    1.0888   -0.0180 C   0  0  0  0  0  0  0  0  0  0  0  0
   -0.5245    1.3076   -0.0045 C   0  0  0  0  0  0  0  0  0  0  0  0
   -1.4169    0.2297   -0.0681 C   0  0  0  0  0  0  0  0  0  0  0  0
   -0.8928   -1.0731   -0.0480 C   0  0  0  0  0  0  0  0  0  0  0  0
    0.4868   -1.2917   -0.0026 C   0  0  0  0  0  0  0  0  0  0  0  0
   -2.8719    0.4413   -0.1330 C   0  0  0  0  0  0  0  0  0  0  0  0
   -6.3584    0.0353    1.0255 N   0  0  0  0  0  0  0  0  0  0  0  0
   -8.2549    0.4278    2.4993 N   0  0  0  0  0  0  0  0  0  0  0  0
   -5.1876    0.3440    0.3092 C   0  0  0  0  0  0  0  0  0  0  0  0
   -3.8571   -0.0194    0.7215 C   0  0  0  0  0  0  0  0  0  0  0  0
   -5.1536    1.0637   -0.8698 C   0  0  0  0  0  0  0  0  0  0  0  0
   -3.5574    1.3168   -1.4410 S   0  0  0  0  0  0  0  0  0  0  0  0
   -7.5322   -0.6922    0.5025 C   0  0  0  0  0  0  0  0  0  0  0  0
   -8.6858   -0.0256    1.2537 C   0  0  0  0  0  0  0  0  0  0  0  0
   -9.8459    0.0454    0.8860 O   0  0  0  0  0  0  0  0  0  0  0  0
   -6.6085    0.5105    2.6285 S   0  0  0  0  0  0  0  0  0  0  0  0
   -6.2420    1.8978    2.7945 O   0  0  0  0  0  0  0  0  0  0  0  0
   -6.2106   -0.5344    3.5286 O   0  0  0  0  0  0  0  0  0  0  0  0
   -3.5261   -0.9770    2.1108 Cl  0  0  0  0  0  0  0  0  0  0  0  0
  1  6  2  0
  1  2  1  0
  2  3  2  0
  3  4  1  0
  4  7  1  0
  4  5  2  0
  5  6  1  0
  7 11  2  0
  7 13  1  0
  8 17  1  0
  8 14  1  0
  8 10  1  0
  9 17  1  0
  9 15  1  0
 10 11  1  0
 10 12  2  0
 11 20  1  0
 12 13  1  0
 14 15  1  0
 15 16  2  0
 17 19  2  0
 17 18  2  0
M  END
>  <DRUGBANK_ID>  (1) 
DB07134

>  <COMMON_NAME>  (1) 
5-(4-CHLORO-5-PHENYL-3-THIENYL)-1,2,5-THIADIAZOLIDIN-3-ONE 1,1-DIOXIDE

$$$$
