
     RDKit          3D

 22 23  0  0  0  0  0  0  0  0999 V2000
    0.9958   -1.3948    0.0151 C   0  0  0  0  0  0  0  0  0  0  0  0
    2.1887   -0.6538   -0.0171 C   0  0  0  0  0  0  0  0  0  0  0  0
    2.1305    0.7376   -0.0264 C   0  0  0  0  0  0  0  0  0  0  0  0
    0.9049    1.4170    0.0005 C   0  0  0  0  0  0  0  0  0  0  0  0
   -0.2709    0.6586    0.0075 C   0  0  0  0  0  0  0  0  0  0  0  0
   -0.2612   -0.7332    0.0098 C   0  0  0  0  0  0  0  0  0  0  0  0
   -1.6389   -1.1616   -0.0127 C   0  0  0  0  0  0  0  0  0  0  0  0
   -1.5904    1.0545    0.0043 N   0  0  0  0  0  0  0  0  0  0  0  0
   -2.4217   -0.0313   -0.0403 C   0  0  0  0  0  0  0  0  0  0  0  0
   -2.0778   -2.5357   -0.0261 C   0  0  0  0  0  0  0  0  0  0  0  0
   -3.3128   -2.9257   -0.0737 N   0  0  0  0  0  0  0  0  0  0  0  0
   -3.5435   -4.3122   -0.0811 N   0  0  0  0  0  0  0  0  0  0  0  0
   -2.6162   -5.3406   -0.0325 C   0  0  0  0  0  0  0  0  0  0  0  0
   -3.0988   -6.6148   -0.0432 N   0  0  0  0  0  0  0  0  0  0  0  0
   -2.2514   -7.7988    0.0022 C   0  0  0  0  0  0  0  0  0  0  0  0
   -2.5300   -8.6232    1.2499 C   0  0  0  0  0  0  0  0  0  0  0  0
   -3.8928   -9.3047    1.1889 C   0  0  0  0  0  0  0  0  0  0  0  0
   -4.0447  -10.2087   -0.0380 C   0  0  0  0  0  0  0  0  0  0  0  0
   -3.0152  -11.3296   -0.0459 C   0  0  0  0  0  0  0  0  0  0  0  0
   -1.3540   -5.1124    0.0248 N   0  0  0  0  0  0  0  0  0  0  0  0
    3.3434   -1.3957   -0.0460 O   0  0  0  0  0  0  0  0  0  0  0  0
    4.5682   -0.6682   -0.1017 C   0  0  0  0  0  0  0  0  0  0  0  0
  1  2  2  0
  1  6  1  0
  2  3  1  0
  2 21  1  0
  3  4  2  0
  4  5  1  0
  5  8  1  0
  6  5  2  0
  7  6  1  0
  7  9  2  0
  8  9  1  0
 10 11  2  0
 10  7  1  0
 11 12  1  0
 12 13  1  0
 13 14  1  0
 13 20  2  0
 14 15  1  0
 15 16  1  0
 16 17  1  0
 17 18  1  0
 18 19  1  0
 21 22  1  0
M  END
>  <DRUGBANK_ID>  (1) 
DB01079

>  <SECONDARY_ACCESSION_NUMBERS>  (1) 
APRD00096

>  <COMMON_NAME>  (1) 
Tegaserod

>  <CAS_NUMBER>  (1) 
145158-71-0

>  <UNII>  (1) 
458VC51857

>  <SYNONYMS>  (1) 
1-(((5-Methoxyindol-3-yl)methylene)amino)-3-pentylguanidine; Tegaserod; Tégasérod; Tegaserodum

$$$$
