
     RDKit          3D

 21 21  0  0  0  0  0  0  0  0999 V2000
    0.9804   -0.0281    0.0944 C   0  0  0  0  0  0  0  0  0  0  0  0
    0.3618   -1.7108   -0.2491 S   0  0  0  0  0  0  0  0  0  0  0  0
    0.9562   -1.9592   -1.9385 C   0  0  0  0  0  0  0  0  0  0  0  0
    0.3185   -0.9880   -2.9259 C   0  0  0  0  0  0  0  0  0  0  0  0
    0.9979    0.2975   -2.9694 N   0  0  0  0  0  0  0  0  0  0  0  0
    1.8235    0.9079   -3.9032 C   0  0  0  0  0  0  0  0  0  0  0  0
    0.5444    0.4679    1.4258 C   0  0  0  0  0  0  0  0  0  0  0  0
    0.0396   -0.4255    2.3380 N   0  0  0  0  0  0  0  0  0  0  0  0
   -0.3569    0.1959    3.4188 C   0  0  0  0  0  0  0  0  0  0  0  0
   -0.1517    1.8998    3.4081 S   0  0  0  0  0  0  0  0  0  0  0  0
    0.5281    1.7879    1.8386 C   0  0  0  0  0  0  0  0  0  0  0  0
   -0.8561   -0.5531    4.6148 C   0  0  0  0  0  0  0  0  0  0  0  0
    2.2589    2.1573   -3.5722 C   0  0  0  0  0  0  0  0  0  0  0  0
    0.0593   -0.4499    5.7684 N   0  0  0  0  0  0  0  0  0  0  0  0
   -0.4999   -1.1883    6.8968 C   0  0  0  0  0  0  0  0  0  0  0  0
    1.3860   -0.9835    5.4327 C   0  0  0  0  0  0  0  0  0  0  0  0
    3.1051    2.9642   -4.4273 N   0  0  0  0  0  0  0  0  0  0  0  0
    3.4182    4.0788   -3.9654 O   0  0  0  0  0  0  0  0  0  0  0  0
    3.4584    2.5429   -5.5293 O   0  0  0  0  0  0  0  0  0  0  0  0
    2.1864    0.3110   -5.0848 N   0  0  0  0  0  0  0  0  0  0  0  0
    1.8864   -0.9309   -5.7330 C   0  0  0  0  0  0  0  0  0  0  0  0
  1  2  1  0
  1  7  1  0
  2  3  1  0
  3  4  1  0
  4  5  1  0
  5  6  1  0
  6 13  2  3
  6 20  1  0
  7  8  1  0
  7 11  2  0
  8  9  2  0
  9 10  1  0
  9 12  1  0
 10 11  1  0
 12 14  1  0
 13 17  1  0
 14 15  1  0
 14 16  1  0
 17 18  2  0
 17 19  1  0
 20 21  1  0
M  CHG  2  17   1  19  -1
M  END
>  <DRUGBANK_ID>  (1) 
DB00585

>  <SECONDARY_ACCESSION_NUMBERS>  (1) 
APRD00706

>  <COMMON_NAME>  (1) 
Nizatidine

>  <CAS_NUMBER>  (1) 
76963-41-2

>  <UNII>  (1) 
P41PML4GHR

>  <SYNONYMS>  (1) 
N-(4-(6-Methylamino-7-nitro-2-thia-5-aza-6-hepten-1-yl)-2-thiazolylmethyl)-N,N-dimethylamine; Nizatidina; Nizatidine; Nizatidinum

$$$$
