891
     RDKit          3D

 17 18  0  0  0  0  0  0  0  0999 V2000
    1.0892    0.1686    0.0421 S   0  0  0  0  0  0  0  0  0  0  0  0
    0.7384   -0.4177   -1.2466 O   0  0  0  0  0  0  0  0  0  0  0  0
    0.5627   -0.4078    1.2543 O   0  0  0  0  0  0  0  0  0  0  0  0
    0.5204    1.7516   -0.0467 N   0  0  0  0  0  0  0  0  0  0  0  0
    1.1053    3.8450    0.7530 N   0  0  0  0  0  0  0  0  0  0  0  0
    7.0705    0.0060   -0.0920 N   0  0  0  0  0  0  0  0  0  0  0  0
    2.8707    0.0520    0.1813 C   0  0  0  0  0  0  0  0  0  0  0  0
    3.6529    1.1661    0.4206 C   0  0  0  0  0  0  0  0  0  0  0  0
    3.5300   -1.1651    0.0011 C   0  0  0  0  0  0  0  0  0  0  0  0
    1.2868    2.9204   -0.2155 C   0  0  0  0  0  0  0  0  0  0  0  0
    5.6954   -0.0141    0.0455 C   0  0  0  0  0  0  0  0  0  0  0  0
    5.0191    1.1801    0.1775 C   0  0  0  0  0  0  0  0  0  0  0  0
    4.9426   -1.1932   -0.0109 C   0  0  0  0  0  0  0  0  0  0  0  0
    2.2727    3.0265   -1.1827 C   0  0  0  0  0  0  0  0  0  0  0  0
    3.2434    4.0225   -1.0295 C   0  0  0  0  0  0  0  0  0  0  0  0
    3.1100    4.9664   -0.0186 C   0  0  0  0  0  0  0  0  0  0  0  0
    2.0042    4.8658    0.8102 C   0  0  0  0  0  0  0  0  0  0  0  0
  1  2  2  0
  1  3  2  0
  1  4  1  0
  1  7  1  0
  4 10  1  0
  5 10  2  0
  5 17  1  0
  6 11  1  0
  7  8  2  0
  7  9  1  0
  8 12  1  0
  9 13  2  0
 10 14  1  0
 11 12  2  0
 11 13  1  0
 14 15  2  0
 15 16  1  0
 16 17  2  0
M  END
>  <DRUGBANK_ID>  (1) 
DB00891

>  <SECONDARY_ACCESSION_NUMBERS>  (1) 
APRD00491

>  <COMMON_NAME>  (1) 
Sulfapyridine

>  <CAS_NUMBER>  (1) 
144-83-2

>  <UNII>  (1) 
Y5V2N1KE8U

>  <SYNONYMS>  (1) 
2-(p-Aminobenzenesulphonamido)pyridine; 2-Sulfanilamidopyridin; 2-Sulfanilamidopyridine; 2-Sulfanilylaminopyridine; 2-Sulfapyridine; 4-(2-Pyridinylsulfonyl)aniline; 4-[(2-Pyridylamino)sulfonyl]aniline; 4-Amino-N-pyridin-2-yl-benzenesulfonamide; 4-Amino-N,2-pyridinylbenzenesulfonamide; N-2-Pyridylsulfanilamide; N(1)-2-Pyridylsulfanilamide; N(1)-Pyridylsulfanilamide; Solfapiridina; Sulfapiridina; Sulfapyridin; Sulfapyridine; Sulfapyridinum; Sulphapyridine

$$$$
