
     RDKit          3D

 19 18  0  0  0  0  0  0  0  0999 V2000
    1.1010   -0.1351    0.0492 C   0  0  0  0  0  0  0  0  0  0  0  0
    0.5207   -0.8288    1.3178 C   0  0  0  0  0  0  0  0  0  0  0  0
    0.6766    1.3732   -0.0890 C   0  0  0  0  0  0  0  0  0  0  0  0
    0.6273   -1.0120   -1.1579 C   0  0  0  0  0  0  0  0  0  0  0  0
    2.4996   -0.2335    0.3074 O   0  0  0  0  0  0  0  0  0  0  0  0
    0.9514   -0.0719    2.5568 C   0  0  0  0  0  0  0  0  0  0  0  0
    1.0179    2.1908   -1.3227 C   0  0  0  0  0  0  0  0  0  0  0  0
    1.4764   -1.3109   -2.1670 O   0  0  0  0  0  0  0  0  0  0  0  0
   -0.5282   -1.4358   -1.2231 O   0  0  0  0  0  0  0  0  0  0  0  0
    0.0302    0.5336    3.3272 O   0  0  0  0  0  0  0  0  0  0  0  0
    2.1443    0.1006    2.8078 O   0  0  0  0  0  0  0  0  0  0  0  0
    0.0778    2.4109   -2.2689 O   0  0  0  0  0  0  0  0  0  0  0  0
    2.1302    2.7130   -1.4526 O   0  0  0  0  0  0  0  0  0  0  0  0
    2.9088   -1.3050   -2.0324 C   0  0  0  0  0  0  0  0  0  0  0  0
   -1.3894    0.3770    3.1893 C   0  0  0  0  0  0  0  0  0  0  0  0
   -1.3513    2.4208   -2.0484 C   0  0  0  0  0  0  0  0  0  0  0  0
    3.4406    0.1029   -2.1752 C   0  0  0  0  0  0  0  0  0  0  0  0
   -1.9091    1.1015    1.9697 C   0  0  0  0  0  0  0  0  0  0  0  0
   -1.8935    1.0146   -2.0517 C   0  0  0  0  0  0  0  0  0  0  0  0
  1  2  1  0
  1  3  1  0
  1  4  1  0
  1  5  1  0
  2  6  1  0
  3  7  1  0
  4  8  1  0
  4  9  2  0
  6 10  1  0
  6 11  2  0
  7 12  1  0
  7 13  2  0
  8 14  1  0
 10 15  1  0
 12 16  1  0
 14 17  1  0
 15 18  1  0
 16 19  1  0
M  END
>  <DRUGBANK_ID>  (1) 
DB16827

>  <COMMON_NAME>  (1) 
Triethyl citrate

>  <CAS_NUMBER>  (1) 
77-93-0

>  <UNII>  (1) 
8Z96QXD6UM

>  <SYNONYMS>  (1) 
Citric acid ethyl ester; Citric acid triethyl ester

$$$$
