
     RDKit          3D

 31 32  0  0  1  0  0  0  0  0999 V2000
    1.2030   -0.0025   -0.2008 C   0  0  0  0  0  0  0  0  0  0  0  0
    0.8240    0.6981    1.0772 C   0  0  0  0  0  0  0  0  0  0  0  0
    1.3891    2.1488    1.0790 C   0  0  0  0  0  0  0  0  0  0  0  0
   -0.6754    0.7268    1.3690 C   0  0  1  0  0  0  0  0  0  0  0  0
   -1.4021   -0.5405    1.3977 N   0  0  0  0  0  0  0  0  0  0  0  0
   -2.6635   -0.8307    1.8718 C   0  0  0  0  0  0  0  0  0  0  0  0
   -3.0670   -1.9528    1.7471 O   0  0  0  0  0  0  0  0  0  0  0  0
   -3.3319    0.0914    2.6618 N   0  0  0  0  0  0  0  0  0  0  0  0
   -3.1238    1.4960    2.7588 C   0  0  0  0  0  0  0  0  0  0  0  0
   -4.0831    2.4981    3.2804 C   0  0  0  0  0  0  0  0  0  0  0  0
   -4.6988    2.1505    4.6379 C   0  0  0  0  0  0  0  0  0  0  0  0
   -3.2865    3.8421    3.4664 C   0  0  0  0  0  0  0  0  0  0  0  0
   -4.9703    2.4102    2.1943 O   0  0  0  0  0  0  0  0  0  0  0  0
   -0.6523    1.4999    2.7433 C   0  0  0  0  0  0  0  0  0  0  0  0
   -0.7698    2.7330    2.6822 O   0  0  0  0  0  0  0  0  0  0  0  0
   -0.6392    0.7435    3.9602 N   0  0  0  0  0  0  0  0  0  0  0  0
    0.6306    0.3454    4.4738 C   0  0  0  0  0  0  0  0  0  0  0  0
    0.4540   -1.0714    5.0432 C   0  0  0  0  0  0  0  0  0  0  0  0
   -0.6897   -1.1978    6.1597 C   0  0  2  0  0  0  0  0  0  0  0  0
   -0.3041   -0.3793    7.2662 O   0  0  0  0  0  0  0  0  0  0  0  0
   -0.9664   -2.6083    6.6799 C   0  0  0  0  0  0  0  0  0  0  0  0
    0.0871   -3.3282    7.1831 C   0  0  0  0  0  0  0  0  0  0  0  0
   -0.1180   -4.6701    7.4858 C   0  0  0  0  0  0  0  0  0  0  0  0
   -1.3505   -5.3055    7.2572 C   0  0  0  0  0  0  0  0  0  0  0  0
   -1.5606   -6.9741    7.5577 Cl  0  0  0  0  0  0  0  0  0  0  0  0
   -2.4315   -4.6013    6.8081 C   0  0  0  0  0  0  0  0  0  0  0  0
   -2.2417   -3.2612    6.6201 C   0  0  0  0  0  0  0  0  0  0  0  0
   -2.0039   -0.6736    5.6150 C   0  0  0  0  0  0  0  0  0  0  0  0
   -2.4135   -1.6671    4.4799 C   0  0  0  0  0  0  0  0  0  0  0  0
   -3.1654   -0.4614    6.6797 C   0  0  0  0  0  0  0  0  0  0  0  0
   -1.6324    0.7438    5.1197 C   0  0  0  0  0  0  0  0  0  0  0  0
  1  2  1  0
  2  3  1  0
  4  2  1  0
  4  5  1  1
  4 14  1  0
  5  6  1  0
  6  7  2  0
  6  8  1  0
  8  9  1  0
  9 10  1  0
 10 11  1  0
 10 12  1  0
 10 13  1  0
 14 15  2  0
 14 16  1  0
 16 17  1  0
 16 31  1  0
 17 18  1  0
 19 18  1  0
 19 28  1  0
 19 21  1  0
 19 20  1  1
 21 22  2  0
 21 27  1  0
 22 23  1  0
 23 24  2  0
 24 25  1  0
 24 26  1  0
 26 27  2  0
 28 29  1  0
 28 30  1  0
 28 31  1  0
M  END
>  <DRUGBANK_ID>  (1) 
DB14941

>  <COMMON_NAME>  (1) 
BMS-817399

>  <CAS_NUMBER>  (1) 
1202400-18-7

>  <UNII>  (1) 
AKQ3X6FEH0

$$$$
