
     RDKit          3D

 29 31  0  0  0  0  0  0  0  0999 V2000
    1.0201   -0.4119   -0.2543 C   0  0  0  0  0  0  0  0  0  0  0  0
    0.2931    1.3774    3.8938 C   0  0  0  0  0  0  0  0  0  0  0  0
    0.5160    0.0804    1.0834 C   0  0  0  0  0  0  0  0  0  0  0  0
    0.0400    1.9239    2.4872 C   0  0  0  0  0  0  0  0  0  0  0  0
   -1.6379    5.5982    4.3919 C   0  0  0  0  0  0  0  0  0  0  0  0
   -1.5823    6.7277    3.5746 C   0  0  0  0  0  0  0  0  0  0  0  0
   -0.5017    4.7965    4.5706 C   0  0  0  0  0  0  0  0  0  0  0  0
   -0.4221    7.0204    2.8676 C   0  0  0  0  0  0  0  0  0  0  0  0
    5.7803    4.6037    4.8250 C   0  0  0  0  0  0  0  0  0  0  0  0
    5.3580    3.2948    4.5172 C   0  0  0  0  0  0  0  0  0  0  0  0
    3.5575   -0.5531    3.9826 C   0  0  0  0  0  0  0  0  0  0  0  0
    3.9649    0.5807    4.6331 C   0  0  0  0  0  0  0  0  0  0  0  0
    3.4749    5.3198    4.9561 C   0  0  0  0  0  0  0  0  0  0  0  0
    2.3976    1.6819    1.4621 C   0  0  0  0  0  0  0  0  0  0  0  0
    4.8313    5.6151    4.9987 C   0  0  0  0  0  0  0  0  0  0  0  0
    0.6852    5.1212    3.8930 C   0  0  0  0  0  0  0  0  0  0  0  0
    3.0580    4.0696    4.4804 C   0  0  0  0  0  0  0  0  0  0  0  0
    0.6965    6.2104    2.9983 C   0  0  0  0  0  0  0  0  0  0  0  0
    3.9981    3.0208    4.2411 C   0  0  0  0  0  0  0  0  0  0  0  0
    3.0948    1.0759    2.6552 C   0  0  0  0  0  0  0  0  0  0  0  0
    1.8051    4.1862    3.7612 C   0  0  0  0  0  0  0  0  0  0  0  0
    2.0309    6.5828    1.9454 Cl  0  0  0  0  0  0  0  0  0  0  0  0
    3.1517   -0.2493    2.7339 N   0  0  0  0  0  0  0  0  0  0  0  0
    0.9072    1.4542    1.3898 N   0  0  0  0  0  0  0  0  0  0  0  0
    3.6934    1.6683    3.7970 N   0  0  0  0  0  0  0  0  0  0  0  0
    5.2205    7.0347    5.0065 N   0  0  0  0  0  0  0  0  0  0  0  0
    1.9379    3.7906    2.6109 O   0  0  0  0  0  0  0  0  0  0  0  0
    4.3149    7.8763    4.8952 O   0  0  0  0  0  0  0  0  0  0  0  0
    6.4243    7.3039    5.0904 O   0  0  0  0  0  0  0  0  0  0  0  0
  3  1  1  0
  4  2  1  0
  6  5  2  0
  7  5  1  0
  8  6  1  0
 10  9  2  0
 12 11  2  0
 15  9  1  0
 15 13  2  0
 16  7  2  0
 17 13  1  0
 18  8  2  0
 18 16  1  0
 19 10  1  0
 19 17  2  0
 20 14  1  0
 21 16  1  0
 21 17  1  0
 22 18  1  0
 23 11  1  0
 23 20  2  0
 24  3  1  0
 24  4  1  0
 24 14  1  0
 25 12  1  0
 25 19  1  0
 25 20  1  0
 26 15  1  0
 27 21  2  0
 28 26  1  0
 29 26  2  0
M  CHG  2  26   1  28  -1
M  END
>  <DRUGBANK_ID>  (1) 
DB13546

>  <COMMON_NAME>  (1) 
Nizofenone

>  <CAS_NUMBER>  (1) 
54533-85-6

>  <UNII>  (1) 
7A2NOC3R88

>  <SYNONYMS>  (1) 
Nizofenone

$$$$
