
     RDKit          3D

 17 18  0  0  0  0  0  0  0  0999 V2000
    0.7957    1.1760    0.0676 C   0  0  0  0  0  0  0  0  0  0  0  0
   -2.3127    1.2579   -2.4463 C   0  0  0  0  0  0  0  0  0  0  0  0
    1.6024   -0.0311    0.4975 C   0  0  0  0  0  0  0  0  0  0  0  0
   -2.2800    1.1240   -3.9540 C   0  0  0  0  0  0  0  0  0  0  0  0
   -1.2824   -0.0984    0.0057 C   0  0  0  0  0  0  0  0  0  0  0  0
   -0.2207    2.5118   -2.4030 C   0  0  0  0  0  0  0  0  0  0  0  0
   -1.4273    2.2849   -0.3283 C   0  0  0  0  0  0  0  0  0  0  0  0
   -0.6664   -1.2685    0.5564 N   0  0  0  0  0  0  0  0  0  0  0  0
   -0.1542    2.5895   -3.8319 N   0  0  0  0  0  0  0  0  0  0  0  0
   -0.6603    1.1712    0.3099 N   0  0  0  0  0  0  0  0  0  0  0  0
   -1.5326    2.3423   -1.8186 N   0  0  0  0  0  0  0  0  0  0  0  0
    0.7599   -1.4705   -1.5611 O   0  0  0  0  0  0  0  0  0  0  0  0
    1.4410   -2.6579    0.5474 O   0  0  0  0  0  0  0  0  0  0  0  0
    0.1402    0.0471   -3.9209 O   0  0  0  0  0  0  0  0  0  0  0  0
   -0.5928    1.3134   -5.9652 O   0  0  0  0  0  0  0  0  0  0  0  0
    0.8609   -1.5247   -0.1147 S   0  0  0  0  0  0  0  0  0  0  0  0
   -0.6042    1.1262   -4.5425 S   0  0  0  0  0  0  0  0  0  0  0  0
  3  1  1  0
  4  2  1  0
  8  5  1  0
  9  6  1  0
 10  1  1  0
 10  5  1  0
 10  7  1  0
 11  2  1  0
 11  6  1  0
 11  7  1  0
 16  3  1  0
 16  8  1  0
 16 12  2  0
 16 13  2  0
 17  4  1  0
 17  9  1  0
 17 14  2  0
 17 15  2  0
M  END
>  <DRUGBANK_ID>  (1) 
DB12473

>  <COMMON_NAME>  (1) 
Taurolidine

>  <CAS_NUMBER>  (1) 
19388-87-5

>  <UNII>  (1) 
8OBZ1M4V3V

>  <SYNONYMS>  (1) 
Taurolidine

$$$$
