
     RDKit          3D

 20 21  0  0  0  0  0  0  0  0999 V2000
    1.1765   -0.1912   -0.4439 O   0  0  0  0  0  0  0  0  0  0  0  0
    3.1729    0.4689   -1.2110 N   0  0  0  0  0  0  0  0  0  0  0  0
    2.9142   -0.2333    1.0721 N   0  0  0  0  0  0  0  0  0  0  0  0
    2.2763   -0.7007    2.2286 N   0  0  0  0  0  0  0  0  0  0  0  0
    0.0096   -0.2366    1.5924 N   0  0  0  0  0  0  0  0  0  0  0  0
    0.4043   -1.1546    3.5275 N   0  0  0  0  0  0  0  0  0  0  0  0
    4.5842    0.3873   -1.2686 C   0  0  0  0  0  0  0  0  0  0  0  0
    2.4931    0.8648   -2.4333 C   0  0  0  0  0  0  0  0  0  0  0  0
    5.2746   -0.7068   -0.7352 C   0  0  0  0  0  0  0  0  0  0  0  0
    1.3767    1.7201   -2.3739 C   0  0  0  0  0  0  0  0  0  0  0  0
    5.3054    1.4163   -1.8927 C   0  0  0  0  0  0  0  0  0  0  0  0
    2.8598    0.3487   -3.6857 C   0  0  0  0  0  0  0  0  0  0  0  0
    2.3576   -0.0110   -0.1861 C   0  0  0  0  0  0  0  0  0  0  0  0
    6.6629   -0.7647   -0.8123 C   0  0  0  0  0  0  0  0  0  0  0  0
    0.6780    2.0882   -3.5254 C   0  0  0  0  0  0  0  0  0  0  0  0
    6.6864    1.3254   -2.0275 C   0  0  0  0  0  0  0  0  0  0  0  0
    2.1898    0.7579   -4.8462 C   0  0  0  0  0  0  0  0  0  0  0  0
    7.3656    0.2488   -1.4615 C   0  0  0  0  0  0  0  0  0  0  0  0
    1.0937    1.6164   -4.7648 C   0  0  0  0  0  0  0  0  0  0  0  0
    0.9880   -0.7082    2.3939 C   0  0  0  0  0  0  0  0  0  0  0  0
  1 13  2  0
  2  7  1  0
  2  8  1  0
  2 13  1  0
  3  4  1  0
  3 13  1  0
  4 20  2  3
  5 20  1  0
  6 20  1  0
  7  9  2  0
  7 11  1  0
  8 10  2  0
  8 12  1  0
  9 14  1  0
 10 15  1  0
 11 16  2  0
 12 17  2  0
 14 18  2  0
 15 19  2  0
 16 18  1  0
 17 19  1  0
M  END
>  <DRUGBANK_ID>  (1) 
DB07120

>  <COMMON_NAME>  (1) 
3-Carbamimidamido-1,1-diphenylurea

$$$$
