
     RDKit          3D

 39 38  0  0  1  0  0  0  0  0999 V2000
  -12.9731   -3.1171   -4.5551 C   0  0  0  0  0  0  0  0  0  0  0  0
  -11.4569   -3.0888   -4.5475 C   0  0  0  0  0  0  0  0  0  0  0  0
  -10.9648   -2.1989   -3.4121 C   0  0  0  0  0  0  0  0  0  0  0  0
  -11.4597   -2.7349   -2.0703 C   0  0  0  0  0  0  0  0  0  0  0  0
  -10.9503   -4.1592   -1.8651 C   0  0  0  0  0  0  0  0  0  0  0  0
   -9.4289   -4.1447   -1.8808 C   0  0  0  0  0  0  0  0  0  0  0  0
   -8.9654   -3.2081   -0.7743 C   0  0  0  0  0  0  0  0  0  0  0  0
   -9.5516   -3.7334    0.5370 C   0  0  0  0  0  0  0  0  0  0  0  0
   -9.0515   -5.1183    0.6754 C   0  0  0  0  0  0  0  0  0  0  0  0
   -7.5854   -4.8175    0.4865 C   0  0  0  0  0  0  0  0  0  0  0  0
   -7.1944   -3.3714    1.6519 C   0  0  0  0  0  0  0  0  0  0  0  0
   -7.9348   -3.5013    3.3658 C   0  0  0  0  0  0  0  0  0  0  0  0
   -7.1891   -4.4468    4.2861 C   0  0  0  0  0  0  0  0  0  0  0  0
   -5.2117   -5.0067    4.3055 C   0  0  0  0  0  0  0  0  0  0  0  0
   -4.4840   -4.6233    5.4559 C   0  0  0  0  0  0  0  0  0  0  0  0
   -5.0334   -5.5448    6.8753 C   0  0  0  0  0  0  0  0  0  0  0  0
   -4.6635   -7.2052    7.1247 O   0  0  0  0  0  0  0  0  0  0  0  0
   -5.2580   -8.5320    6.2518 C   0  0  0  0  0  0  0  0  0  0  0  0
   -6.8544   -8.7967    5.5357 C   0  0  2  0  0  0  0  0  0  0  0  0
   -7.2666   -9.8252    4.5527 C   0  0  0  0  0  0  0  0  0  0  0  0
   -6.2983   -9.4770    3.4112 O   0  0  0  0  0  0  0  0  0  0  0  0
   -6.0303   -8.1111    2.3840 P   0  0  1  0  0  0  0  0  0  0  0  0
   -4.3214   -8.2264    1.8924 O   0  0  0  0  0  0  0  0  0  0  0  0
   -6.7956   -8.8358    1.1780 O   0  0  0  0  0  0  0  0  0  0  0  0
   -5.7622   -6.7451    1.3567 O   0  0  0  0  0  0  0  0  0  0  0  0
   -5.3115   -5.4124    1.5634 C   0  0  0  0  0  0  0  0  0  0  0  0
   -6.4185   -5.1249    2.7241 C   0  0  0  0  0  0  0  0  0  0  0  0
   -7.4066   -6.2934    4.3379 N   0  0  0  0  0  0  0  0  0  0  0  0
   -6.3411   -6.6742    5.2921 C   0  0  0  0  0  0  0  0  0  0  0  0
   -8.7697   -6.1502    5.1933 C   0  0  0  0  0  0  0  0  0  0  0  0
   -8.7184   -7.6910    3.3132 C   0  0  0  0  0  0  0  0  0  0  0  0
   -7.2784   -8.0619    4.3659 O   0  0  0  0  0  0  0  0  0  0  0  0
   -6.9442   -6.8580    2.8256 C   0  0  0  0  0  0  0  0  0  0  0  0
   -4.8540   -6.8948    3.1849 C   0  0  0  0  0  0  0  0  0  0  0  0
   -4.2836   -8.6838    3.6707 C   0  0  0  0  0  0  0  0  0  0  0  0
   -4.7514  -10.0735    2.3666 C   0  0  0  0  0  0  0  0  0  0  0  0
   -4.4113   -9.7223    0.7051 C   0  0  0  0  0  0  0  0  0  0  0  0
   -3.5281  -10.6871    0.5033 O   0  0  0  0  0  0  0  0  0  0  0  0
   -4.6121   -8.7730   -0.0641 O   0  0  0  0  0  0  0  0  0  0  0  0
  1  2  1  0
  2  3  1  0
  3  4  1  0
  4  5  1  0
  5  6  1  0
  6  7  1  0
  7  8  1  0
  8  9  1  0
  9 10  1  0
 10 11  1  0
 11 12  1  0
 12 13  1  0
 13 14  1  0
 14 15  1  0
 15 16  1  0
 16 17  1  0
 17 18  1  0
 19 32  1  0
 19 20  1  6
 19 18  1  0
 20 21  1  0
 21 22  1  0
 22 23  1  6
 22 24  2  0
 22 25  1  0
 25 26  1  0
 26 27  1  0
 27 28  1  0
 28 29  1  0
 28 30  1  0
 28 31  1  0
 32 33  1  0
 33 34  1  0
 34 35  1  0
 35 36  1  0
 36 37  1  0
 37 38  1  0
 37 39  2  0
M  CHG  2  23  -1  28   1
M  END
>  <DRUGBANK_ID>  (1) 
DB15259

>  <COMMON_NAME>  (1) 
VB-201

>  <CAS_NUMBER>  (1) 
630112-41-3

>  <UNII>  (1) 
SJ5A8151JO

$$$$
