1542
     RDKit          3D

 21 22  0  0  1  0  0  0  0  0999 V2000
    1.2354    0.2868   -0.0377 O   0  0  0  0  0  0  0  0  0  0  0  0
    3.0486   -0.9225    0.3672 O   0  0  0  0  0  0  0  0  0  0  0  0
   -1.0313   -0.6714   -2.2853 N   0  0  0  0  0  0  0  0  0  0  0  0
    0.1626    1.2632   -0.3980 C   0  0  0  0  0  0  0  0  0  0  0  0
   -0.9986    0.3226    0.0527 C   0  0  0  0  0  0  0  0  0  0  0  0
   -0.0944    1.4866   -1.9196 C   0  0  0  0  0  0  0  0  0  0  0  0
   -0.9110   -0.9829   -0.8469 C   0  0  0  0  0  0  0  0  0  0  0  0
    0.0257    0.2281   -2.7113 C   0  0  0  0  0  0  0  0  0  0  0  0
   -2.3685    0.9853   -0.0374 C   0  0  0  0  0  0  0  0  0  0  0  0
    0.4603    2.6216    0.2642 C   0  0  0  0  0  0  0  0  0  0  0  0
   -0.9392   -1.8695   -3.1068 C   0  0  0  0  0  0  0  0  0  0  0  0
    0.8308    2.7308    1.6077 C   0  0  0  0  0  0  0  0  0  0  0  0
    0.6403    3.7829   -0.5377 C   0  0  0  0  0  0  0  0  0  0  0  0
   -3.4555    0.0512    0.3853 C   0  0  0  0  0  0  0  0  0  0  0  0
    2.5579    0.1378    0.0201 C   0  0  0  0  0  0  0  0  0  0  0  0
    1.4369    3.9102    2.0791 C   0  0  0  0  0  0  0  0  0  0  0  0
    1.3343    4.9042   -0.1021 C   0  0  0  0  0  0  0  0  0  0  0  0
    3.3853    1.3174   -0.3481 C   0  0  0  0  0  0  0  0  0  0  0  0
    1.7081    4.9813    1.2225 C   0  0  0  0  0  0  0  0  0  0  0  0
   -4.2533    0.3001    1.4236 C   0  0  0  0  0  0  0  0  0  0  0  0
    3.1706    1.6684   -1.7902 C   0  0  0  0  0  0  0  0  0  0  0  0
  1  4  1  0
  1 15  1  0
  2 15  2  0
  3  7  1  0
  3  8  1  0
  3 11  1  0
  4  5  1  0
  4  6  1  0
  4 10  1  0
  5  7  1  0
  5  9  1  0
  6  8  1  0
  9 14  1  0
 10 12  2  0
 10 13  1  0
 12 16  1  0
 13 17  2  0
 14 20  2  0
 15 18  1  0
 16 19  2  0
 17 19  1  0
 18 21  1  0
M  END
>  <DRUGBANK_ID>  (1) 
DB01542

>  <COMMON_NAME>  (1) 
Allylprodine

>  <CAS_NUMBER>  (1) 
25384-17-2

>  <UNII>  (1) 
4343OEZ18O

>  <SYNONYMS>  (1) 
Allylprodine

$$$$
