
     RDKit          3D

 35 36  0  0  0  0  0  0  0  0999 V2000
    1.1633    0.0347   -0.0942 C   0  0  0  0  0  0  0  0  0  0  0  0
    0.5065   -0.3210   -1.4221 C   0  0  0  0  0  0  0  0  0  0  0  0
    0.9471   -1.7351   -1.8048 C   0  0  0  0  0  0  0  0  0  0  0  0
   -1.0265   -0.2586   -1.3628 C   0  0  0  0  0  0  0  0  0  0  0  0
   -1.5852    1.0580   -1.0388 N   0  0  0  0  0  0  0  0  0  0  0  0
   -2.4113    1.7497   -2.0421 C   0  0  0  0  0  0  0  0  0  0  0  0
   -3.8106    2.0848   -1.5144 C   0  0  0  0  0  0  0  0  0  0  0  0
   -4.2479    3.2402   -1.5657 O   0  0  0  0  0  0  0  0  0  0  0  0
   -4.5669    1.0772   -0.9469 N   0  0  0  0  0  0  0  0  0  0  0  0
   -4.3089   -0.3648   -1.0502 C   0  0  0  0  0  0  0  0  0  0  0  0
   -4.1783   -1.0891    0.2918 C   0  0  0  0  0  0  0  0  0  0  0  0
   -5.5198   -1.2724    1.0083 C   0  0  0  0  0  0  0  0  0  0  0  0
   -6.5192   -1.9198    0.1410 N   0  0  0  0  0  0  0  0  0  0  0  0
   -6.4526   -3.3440   -0.0193 C   0  0  0  0  0  0  0  0  0  0  0  0
   -7.2323   -3.6109   -1.2841 C   0  0  0  0  0  0  0  0  0  0  0  0
   -8.2436   -2.4919   -1.3422 C   0  0  0  0  0  0  0  0  0  0  0  0
   -7.5320   -1.3767   -0.6602 C   0  0  0  0  0  0  0  0  0  0  0  0
   -7.9008   -0.2204   -0.8459 O   0  0  0  0  0  0  0  0  0  0  0  0
   -5.8074    1.5439   -0.3575 C   0  0  0  0  0  0  0  0  0  0  0  0
   -5.6376    2.2827    0.9644 C   0  0  0  0  0  0  0  0  0  0  0  0
   -6.3835    3.4142    1.0882 N   0  0  0  0  0  0  0  0  0  0  0  0
   -4.9438    1.8821    1.8958 O   0  0  0  0  0  0  0  0  0  0  0  0
   -1.4841    1.5525    0.2624 C   0  0  0  0  0  0  0  0  0  0  0  0
   -1.1143    0.8428    1.2034 O   0  0  0  0  0  0  0  0  0  0  0  0
   -1.9071    2.9897    0.5473 C   0  0  0  0  0  0  0  0  0  0  0  0
   -1.3642    3.9538   -0.4355 N   0  0  0  0  0  0  0  0  0  0  0  0
   -1.7385    5.3170   -0.0535 C   0  0  0  0  0  0  0  0  0  0  0  0
   -1.1888    5.7516    1.3179 C   0  0  0  0  0  0  0  0  0  0  0  0
    0.3223    5.7404    1.3716 C   0  0  0  0  0  0  0  0  0  0  0  0
    1.0228    6.9460    1.3246 C   0  0  0  0  0  0  0  0  0  0  0  0
    2.4207    6.9439    1.3201 C   0  0  0  0  0  0  0  0  0  0  0  0
    3.1362    5.7446    1.3282 C   0  0  0  0  0  0  0  0  0  0  0  0
    2.4561    4.5419    1.3595 C   0  0  0  0  0  0  0  0  0  0  0  0
    1.0745    4.5543    1.4155 C   0  0  0  0  0  0  0  0  0  0  0  0
    0.4971    3.3542    1.4684 F   0  0  0  0  0  0  0  0  0  0  0  0
  1  2  1  0
  2  3  1  0
  2  4  1  0
  4  5  1  0
  5  6  1  0
  5 23  1  0
  6  7  1  0
  7  8  2  0
  7  9  1  0
  9 10  1  0
  9 19  1  0
 10 11  1  0
 11 12  1  0
 12 13  1  0
 13 14  1  0
 13 17  1  0
 14 15  1  0
 15 16  1  0
 16 17  1  0
 17 18  2  0
 19 20  1  0
 20 21  1  0
 20 22  2  0
 23 24  2  0
 23 25  1  0
 25 26  1  0
 26 27  1  0
 27 28  1  0
 28 29  1  0
 29 30  2  0
 29 34  1  0
 30 31  1  0
 31 32  2  0
 32 33  1  0
 33 34  2  0
 34 35  1  0
M  END
>  <DRUGBANK_ID>  (1) 
DB18295

>  <COMMON_NAME>  (1) 
BN-201

>  <CAS_NUMBER>  (1) 
1361200-34-1

>  <UNII>  (1) 
KCN37L7EIH

>  <SYNONYMS>  (1) 
Glycinamide, n-(2-(2-fluorophenyl)ethyl)glycyl-n-(2-methylpropyl)glycyl-n2-(3-(2-oxo-1-pyrrolidinyl)propyl)-; N-(2-amino-2-oxoethyl)-2-(2-((4-fluorophenethyl)amino)-N-isobutylacetamido)-N-(3-(2-oxopyrrolidin-1-yl)propyl)acetamide N-({Carbamoylmethyl-[3-(2-oxo-pyrrolidin-1-yl)propyl}-carbamoyl}-methyl)-2-[2-(2-fluorophenyl)-ethylamino]-N-isobutyl-acetamide

$$$$
