
     RDKit          3D

 20 21  0  0  0  0  0  0  0  0999 V2000
   -1.1836    1.2157    0.0068 C   0  0  0  0  0  0  0  0  0  0  0  0
   -1.9619    0.0638    0.0052 C   0  0  0  0  0  0  0  0  0  0  0  0
   -1.3488   -1.1777   -0.0063 C   0  0  0  0  0  0  0  0  0  0  0  0
    0.0483   -1.2902   -0.0524 C   0  0  0  0  0  0  0  0  0  0  0  0
    0.8547   -0.1352   -0.0195 C   0  0  0  0  0  0  0  0  0  0  0  0
    0.2114    1.1178    0.0109 C   0  0  0  0  0  0  0  0  0  0  0  0
    2.2199   -0.0077    0.0181 O   0  0  0  0  0  0  0  0  0  0  0  0
    3.0867   -1.1454    0.0465 C   0  0  0  0  0  0  0  0  0  0  0  0
    2.9306   -2.0170    1.2808 C   0  0  0  0  0  0  0  0  0  0  0  0
    2.9362   -3.4238    1.1932 C   0  0  0  0  0  0  0  0  0  0  0  0
    2.7103   -4.2192    2.3180 C   0  0  0  0  0  0  0  0  0  0  0  0
    2.6090   -3.6234    3.5742 C   0  0  0  0  0  0  0  0  0  0  0  0
    2.6662   -2.2279    3.6811 C   0  0  0  0  0  0  0  0  0  0  0  0
    2.7492   -1.4305    2.5375 C   0  0  0  0  0  0  0  0  0  0  0  0
    2.4240   -4.4273    4.8024 C   0  0  0  0  0  0  0  0  0  0  0  0
    2.3706   -3.9820    5.9400 O   0  0  0  0  0  0  0  0  0  0  0  0
    2.3090   -5.7436    4.5573 O   0  0  0  0  0  0  0  0  0  0  0  0
    0.5317   -2.6617   -0.2625 C   0  0  0  0  0  0  0  0  0  0  0  0
   -0.1055   -3.6576    0.0720 O   0  0  0  0  0  0  0  0  0  0  0  0
   -2.1851   -2.2664   -0.0208 O   0  0  0  0  0  0  0  0  0  0  0  0
  1  2  2  0
  1  6  1  0
  2  3  1  0
  3  4  2  0
  3 20  1  0
  4  5  1  0
  4 18  1  0
  5  6  2  0
  5  7  1  0
  7  8  1  0
  8  9  1  0
  9 10  2  0
  9 14  1  0
 10 11  1  0
 11 12  2  0
 12 13  1  0
 12 15  1  0
 13 14  2  0
 15 16  2  0
 15 17  1  0
 18 19  2  0
M  END
>  <DRUGBANK_ID>  (1) 
DB13027

>  <COMMON_NAME>  (1) 
Tucaresol

>  <CAS_NUMBER>  (1) 
84290-27-7

>  <UNII>  (1) 
JH368G5B9M

>  <SYNONYMS>  (1) 
Tucaresol

$$$$
