
     RDKit          3D

 23 25  0  0  0  0  0  0  0  0999 V2000
    1.3600   -0.2211    0.0387 C   0  0  0  0  0  0  0  0  0  0  0  0
   -1.4201    0.2169   -0.0083 C   0  0  0  0  0  0  0  0  0  0  0  0
   -0.9178   -1.0871   -0.0086 C   0  0  0  0  0  0  0  0  0  0  0  0
    0.4658   -1.3005    0.0224 C   0  0  0  0  0  0  0  0  0  0  0  0
    0.8359    1.0778   -0.0054 C   0  0  0  0  0  0  0  0  0  0  0  0
   -0.5456    1.3032    0.0240 C   0  0  0  0  0  0  0  0  0  0  0  0
   -3.1626    0.5004   -0.2577 S   0  0  0  0  0  0  0  0  0  0  0  0
    2.8014   -0.4738    0.1723 C   0  0  0  0  0  0  0  0  0  0  0  0
    3.5501   -1.2005   -0.6624 C   0  0  0  0  0  0  0  0  0  0  0  0
    4.9207   -1.2374   -0.0850 C   0  0  0  0  0  0  0  0  0  0  0  0
    4.9312   -0.4823    1.0502 O   0  0  0  0  0  0  0  0  0  0  0  0
    3.6198    0.0340    1.3132 C   0  0  0  0  0  0  0  0  0  0  0  0
    3.0904   -1.7288   -1.8414 O   0  0  0  0  0  0  0  0  0  0  0  0
    5.1545   -1.6746   -3.1662 C   0  0  0  0  0  0  0  0  0  0  0  0
    5.8935   -1.8354   -0.4921 O   0  0  0  0  0  0  0  0  0  0  0  0
    5.1890   -0.1584   -3.2238 C   0  0  0  0  0  0  0  0  0  0  0  0
    5.1315   -0.9578   -4.4925 C   0  0  0  0  0  0  0  0  0  0  0  0
    3.9972   -2.4771   -2.6500 C   0  0  0  0  0  0  0  0  0  0  0  0
   -3.7264    1.4053    1.1567 C   0  0  0  0  0  0  0  0  0  0  0  0
   -3.2747    1.3693   -1.4139 O   0  0  0  0  0  0  0  0  0  0  0  0
   -3.8218   -0.7921   -0.2335 O   0  0  0  0  0  0  0  0  0  0  0  0
    3.7445    1.5544    1.3665 C   0  0  0  0  0  0  0  0  0  0  0  0
    3.1804   -0.5284    2.6641 C   0  0  0  0  0  0  0  0  0  0  0  0
  1  5  1  0
  1  8  1  0
  2  3  2  0
  2  6  1  0
  2  7  1  0
  3  4  1  0
  4  1  2  0
  5  6  2  0
  7 19  1  0
  7 20  2  0
  7 21  2  0
  8  9  2  0
  8 12  1  0
  9 10  1  0
  9 13  1  0
 10 11  1  0
 10 15  2  0
 11 12  1  0
 13 18  1  0
 14 16  1  0
 14 17  1  0
 16 17  1  0
 18 14  1  0
 22 12  1  0
 23 12  1  0
M  END
>  <DRUGBANK_ID>  (1) 
DB09217

>  <COMMON_NAME>  (1) 
Firocoxib

>  <CAS_NUMBER>  (1) 
189954-96-9

>  <UNII>  (1) 
Y6V2W4S4WT

>  <SYNONYMS>  (1) 
Firocoxib

$$$$
