152
     RDKit          3D

 18 19  0  0  0  0  0  0  0  0999 V2000
   -1.5127   -0.1781    0.2718 S   0  0  0  0  0  0  0  0  0  0  0  0
   -3.1864    1.6711   -1.3367 O   0  0  0  0  0  0  0  0  0  0  0  0
    0.9689   -0.4871    0.0262 N   0  0  0  0  0  0  0  0  0  0  0  0
    1.7618   -3.8565    2.6407 N   0  0  0  0  0  0  0  0  0  0  0  0
    3.5134   -2.4324    3.3576 N   0  0  0  0  0  0  0  0  0  0  0  0
    0.7389   -3.6655    0.6180 N   0  0  0  0  0  0  0  0  0  0  0  0
    0.7897    0.9049    0.0487 C   0  0  0  0  0  0  0  0  0  0  0  0
    2.2795   -1.1888    0.0188 C   0  0  0  0  0  0  0  0  0  0  0  0
   -0.5581    1.2278    0.0738 C   0  0  0  0  0  0  0  0  0  0  0  0
   -1.2873    2.5298   -0.0033 C   0  0  0  0  0  0  0  0  0  0  0  0
    2.4527   -2.0544    1.2337 C   0  0  0  0  0  0  0  0  0  0  0  0
   -0.1705   -1.1387   -0.0568 C   0  0  0  0  0  0  0  0  0  0  0  0
    1.9467    1.8326    0.0112 C   0  0  0  0  0  0  0  0  0  0  0  0
   -2.1292    2.6247   -1.2862 C   0  0  0  0  0  0  0  0  0  0  0  0
    1.7000   -3.1855    1.4930 C   0  0  0  0  0  0  0  0  0  0  0  0
    3.3901   -1.7520    2.2056 C   0  0  0  0  0  0  0  0  0  0  0  0
    2.6697   -3.4581    3.5451 C   0  0  0  0  0  0  0  0  0  0  0  0
    2.7295   -4.2248    4.8265 C   0  0  0  0  0  0  0  0  0  0  0  0
  1  9  1  0
  1 12  1  0
  2 14  1  0
  3  7  1  0
  3  8  1  0
  3 12  2  0
  4 15  2  0
  4 17  1  0
  5 16  1  0
  5 17  2  0
  6 15  1  0
  7  9  2  0
  7 13  1  0
  8 11  1  0
  9 10  1  0
 10 14  1  0
 11 15  1  0
 11 16  2  0
 17 18  1  0
M  CHG  1   3   1
M  END
>  <DRUGBANK_ID>  (1) 
DB00152

>  <SECONDARY_ACCESSION_NUMBERS>  (1) 
NUTR00009; APRD00552; EXPT03222

>  <COMMON_NAME>  (1) 
Thiamine

>  <CAS_NUMBER>  (1) 
70-16-6

>  <UNII>  (1) 
4ABT0J945J

>  <SYNONYMS>  (1) 
Aneurin; Antiberiberi factor; Thiamin; Thiamine; thiamine(1+); thiamine(1+) ion; thiaminium; Thiaminum; Tiamina; Vitamin B1

$$$$
