1119
     RDKit          3D

 14 15  0  0  0  0  0  0  0  0999 V2000
    1.0901    0.1486   -0.0584 Cl  0  0  0  0  0  0  0  0  0  0  0  0
    5.6240   -2.6648   -0.1046 S   0  0  0  0  0  0  0  0  0  0  0  0
    5.2781   -3.2029   -1.4022 O   0  0  0  0  0  0  0  0  0  0  0  0
    5.2011   -3.3279    1.1170 O   0  0  0  0  0  0  0  0  0  0  0  0
    7.0518   -0.0455   -0.0663 N   0  0  0  0  0  0  0  0  0  0  0  0
    7.2062   -2.4403   -0.0464 N   0  0  0  0  0  0  0  0  0  0  0  0
    4.8610   -1.0939   -0.0542 C   0  0  0  0  0  0  0  0  0  0  0  0
    5.6507    0.0515   -0.0541 C   0  0  0  0  0  0  0  0  0  0  0  0
    7.7160   -1.2598   -0.0517 C   0  0  0  0  0  0  0  0  0  0  0  0
    3.4637   -1.0846   -0.0491 C   0  0  0  0  0  0  0  0  0  0  0  0
    4.9628    1.2739   -0.0533 C   0  0  0  0  0  0  0  0  0  0  0  0
    2.8075    0.1264   -0.0502 C   0  0  0  0  0  0  0  0  0  0  0  0
    3.5486    1.3078   -0.0529 C   0  0  0  0  0  0  0  0  0  0  0  0
    9.2344   -1.2792   -0.0480 C   0  0  0  0  0  0  0  0  0  0  0  0
  1 12  1  0
  2  3  2  0
  2  4  2  0
  2  6  1  0
  2  7  1  0
  5  8  1  0
  5  9  1  0
  6  9  2  0
  7  8  2  0
  7 10  1  0
  8 11  1  0
  9 14  1  0
 10 12  2  0
 11 13  2  0
 12 13  1  0
M  END
>  <DRUGBANK_ID>  (1) 
DB01119

>  <SECONDARY_ACCESSION_NUMBERS>  (1) 
APRD00914

>  <COMMON_NAME>  (1) 
Diazoxide

>  <CAS_NUMBER>  (1) 
364-98-7

>  <UNII>  (1) 
O5CB12L4FN

>  <SYNONYMS>  (1) 
7-chloro-3-methyl-2H-1,2,4-benzothiadiazine 1,1-dioxide; Diazossido; Diazoxide; Diazoxido; Diazoxidum

$$$$
