
     RDKit          3D

 13 15  0  0  1  0  0  0  0  0999 V2000
    0.7846    1.3805   -0.1074 N   0  0  0  0  0  0  0  0  0  0  0  0
    0.5995   -0.9790   -0.2266 C   0  0  0  0  0  0  0  0  0  0  0  0
   -0.7462   -0.2981   -0.3910 C   0  0  0  0  0  0  0  0  0  0  0  0
   -0.6586   -1.4634    0.5161 C   0  0  0  0  0  0  0  0  0  0  0  0
    1.4840    0.1470    0.2950 C   0  0  0  0  0  0  0  0  0  0  0  0
   -0.6293    1.1046    0.1670 C   0  0  0  0  0  0  0  0  0  0  0  0
    1.4343   -2.1384   -0.8169 C   0  0  0  0  0  0  0  0  0  0  0  0
    2.4374   -2.7317    0.0105 C   0  0  0  0  0  0  0  0  0  0  0  0
    1.4480   -2.5743   -2.1420 C   0  0  0  0  0  0  0  0  0  0  0  0
    3.4126   -3.6346   -0.4658 C   0  0  0  0  0  0  0  0  0  0  0  0
    2.4173   -3.4986   -2.6272 C   0  0  0  0  0  0  0  0  0  0  0  0
    3.4218   -4.0254   -1.7938 C   0  0  0  0  0  0  0  0  0  0  0  0
    4.4745   -4.9609   -2.3351 C   0  0  0  0  0  0  0  0  0  0  0  0
  1  5  1  0
  1  6  1  0
  2  3  1  0
  2  4  1  0
  2  5  1  0
  2  7  1  0
  3  4  1  0
  3  6  1  0
  7  8  2  0
  7  9  1  0
  8 10  1  0
  9 11  2  0
 10 12  2  0
 11 12  1  0
 12 13  1  0
M  END
>  <DRUGBANK_ID>  (1) 
DB04889

>  <COMMON_NAME>  (1) 
Bicifadine

>  <CAS_NUMBER>  (1) 
71195-57-8

>  <UNII>  (1) 
B0SV3N7J3H

>  <SYNONYMS>  (1) 
Bicifadine

$$$$
