
     RDKit          3D

 28 31  0  0  0  0  0  0  0  0999 V2000
    2.1992    0.6710    0.1795 C   0  0  0  0  0  0  0  0  0  0  0  0
    2.1760   -0.7290    0.1814 C   0  0  0  0  0  0  0  0  0  0  0  0
    0.9860   -1.4536    0.0670 C   0  0  0  0  0  0  0  0  0  0  0  0
   -0.2288   -0.7538    0.0259 C   0  0  0  0  0  0  0  0  0  0  0  0
   -0.1957    0.6355    0.0326 C   0  0  0  0  0  0  0  0  0  0  0  0
    0.9916    1.3813    0.0766 C   0  0  0  0  0  0  0  0  0  0  0  0
   -1.6135   -1.0998   -0.0183 C   0  0  0  0  0  0  0  0  0  0  0  0
   -2.3835   -0.0024   -0.0150 N   0  0  0  0  0  0  0  0  0  0  0  0
   -1.5072    1.0162   -0.0101 N   0  0  0  0  0  0  0  0  0  0  0  0
    3.7209    1.6188    0.2654 S   0  0  0  0  0  0  0  0  0  0  0  0
    5.0514    0.4406   -0.0375 C   0  0  0  0  0  0  0  0  0  0  0  0
    5.1984   -0.4274   -1.1523 C   0  0  0  0  0  0  0  0  0  0  0  0
    6.3190   -1.2841   -1.1895 C   0  0  0  0  0  0  0  0  0  0  0  0
    7.3055   -1.2385   -0.1989 C   0  0  0  0  0  0  0  0  0  0  0  0
    7.1908   -0.3440    0.8545 C   0  0  0  0  0  0  0  0  0  0  0  0
    6.0527    0.4537    0.9581 C   0  0  0  0  0  0  0  0  0  0  0  0
    4.1808   -0.4692   -2.2642 C   0  0  0  0  0  0  0  0  0  0  0  0
    4.2141   -1.5041   -3.1792 N   0  0  0  0  0  0  0  0  0  0  0  0
    3.3105    0.3937   -2.3702 O   0  0  0  0  0  0  0  0  0  0  0  0
   -2.1137   -2.4460   -0.0229 C   0  0  0  0  0  0  0  0  0  0  0  0
   -3.4137   -2.7931   -0.0341 C   0  0  0  0  0  0  0  0  0  0  0  0
   -3.8831   -4.1826   -0.0126 C   0  0  0  0  0  0  0  0  0  0  0  0
   -4.9098   -4.4785   -0.8424 N   0  0  0  0  0  0  0  0  0  0  0  0
   -3.3233   -5.1256    0.8457 C   0  0  0  0  0  0  0  0  0  0  0  0
   -5.3540   -5.7581   -0.8465 C   0  0  0  0  0  0  0  0  0  0  0  0
   -3.7989   -6.4341    0.8187 C   0  0  0  0  0  0  0  0  0  0  0  0
   -4.8307   -6.7628   -0.0492 C   0  0  0  0  0  0  0  0  0  0  0  0
    3.1685   -1.6120   -4.1726 C   0  0  0  0  0  0  0  0  0  0  0  0
  1  2  2  0
  1  6  1  0
  1 10  1  0
  2  3  1  0
  3  4  2  0
  4  5  1  0
  4  7  1  0
  5  6  2  0
  5  9  1  0
  7  8  2  0
  7 20  1  0
  8  9  1  0
 10 11  1  0
 11 12  2  0
 11 16  1  0
 12 13  1  0
 12 17  1  0
 13 14  2  0
 14 15  1  0
 15 16  2  0
 17 18  1  0
 17 19  2  0
 18 28  1  0
 20 21  2  0
 21 22  1  0
 23 22  2  0
 24 22  1  0
 25 23  1  0
 26 24  2  0
 27 25  2  0
 27 26  1  0
M  END
>  <DRUGBANK_ID>  (1) 
DB06626

>  <COMMON_NAME>  (1) 
Axitinib

>  <CAS_NUMBER>  (1) 
319460-85-0

>  <UNII>  (1) 
C9LVQ0YUXG

>  <SYNONYMS>  (1) 
Axitinib; Axitinibum; N-methyl-2-[[3-[(E)-2-pyridin-2-ylethenyl]-1H-indazol-6-yl]sulfanyl]benzamide

$$$$
