
     RDKit          3D

 11 11  0  0  0  0  0  0  0  0999 V2000
   -1.0626   -1.1051    0.0108 C   0  0  0  0  0  0  0  0  0  0  0  0
    0.3147   -0.9776    0.0505 C   0  0  0  0  0  0  0  0  0  0  0  0
    0.9403    0.2480    0.0135 C   0  0  0  0  0  0  0  0  0  0  0  0
    0.1905    1.3989   -0.0006 C   0  0  0  0  0  0  0  0  0  0  0  0
   -1.2071    1.3007   -0.0093 C   0  0  0  0  0  0  0  0  0  0  0  0
   -1.8458    0.0478   -0.0179 C   0  0  0  0  0  0  0  0  0  0  0  0
    2.3026    0.2931    0.0109 O   0  0  0  0  0  0  0  0  0  0  0  0
   -1.7218   -2.3771    0.0131 O   0  0  0  0  0  0  0  0  0  0  0  0
   -1.3795   -3.7465    0.0034 C   0  0  0  0  0  0  0  0  0  0  0  0
    0.0720   -4.1347    0.0062 C   0  0  0  0  0  0  0  0  0  0  0  0
   -2.2413   -4.6093    0.0037 O   0  0  0  0  0  0  0  0  0  0  0  0
  1  2  2  0
  1  6  1  0
  1  8  1  0
  2  3  1  0
  3  4  2  0
  3  7  1  0
  4  5  1  0
  5  6  2  0
  8  9  1  0
  9 10  1  0
  9 11  2  0
M  END
>  <DRUGBANK_ID>  (1) 
DB15480

>  <COMMON_NAME>  (1) 
Resorcinol monoacetate

>  <CAS_NUMBER>  (1) 
102-29-4

>  <UNII>  (1) 
YL6O37RD1S

>  <SYNONYMS>  (1) 
Resorcinol acetate; Resorcinol monoacetate

$$$$
