
     RDKit          3D

 21 21  0  0  0  0  0  0  0  0999 V2000
    1.9870    0.1947   -1.0258 C   0  0  0  0  0  0  0  0  0  0  0  0
    0.6299    0.0343   -0.5255 C   0  0  0  0  0  0  0  0  0  0  0  0
    0.0290    1.2353   -0.1983 C   0  0  0  0  0  0  0  0  0  0  0  0
   -1.3107    1.2959    0.0111 C   0  0  0  0  0  0  0  0  0  0  0  0
   -2.0036    0.0745    0.0246 C   0  0  0  0  0  0  0  0  0  0  0  0
   -1.2759   -1.1885    0.0222 C   0  0  0  0  0  0  0  0  0  0  0  0
    0.1180   -1.1987   -0.1381 C   0  0  0  0  0  0  0  0  0  0  0  0
    1.0731   -2.4142    0.0654 C   0  0  0  0  0  0  0  0  0  0  0  0
    0.5926   -3.5493   -0.0088 O   0  0  0  0  0  0  0  0  0  0  0  0
    2.5600   -2.2962    0.2951 N   0  0  0  0  0  0  0  0  0  0  0  0
    3.6539   -1.3924    0.6552 C   0  0  0  0  0  0  0  0  0  0  0  0
    4.8595   -1.6303    0.2547 N   0  0  0  0  0  0  0  0  0  0  0  0
    3.5530   -0.1613    1.2682 N   0  0  0  0  0  0  0  0  0  0  0  0
   -3.7762   -0.0772   -0.0264 S   0  0  0  0  0  0  0  0  0  0  0  0
   -4.0533   -0.7198   -1.2980 O   0  0  0  0  0  0  0  0  0  0  0  0
   -4.1349   -0.7133    1.2260 O   0  0  0  0  0  0  0  0  0  0  0  0
   -4.5894    1.4754   -0.0683 C   0  0  0  0  0  0  0  0  0  0  0  0
   -1.9325    2.9460    0.0638 S   0  0  0  0  0  0  0  0  0  0  0  0
   -2.5845    3.1346   -1.2365 O   0  0  0  0  0  0  0  0  0  0  0  0
   -2.5862    3.0927    1.3222 O   0  0  0  0  0  0  0  0  0  0  0  0
   -0.6776    4.1710    0.0564 C   0  0  0  0  0  0  0  0  0  0  0  0
  1  2  1  0
  2  3  2  0
  2  7  1  0
  3  4  1  0
  4  5  2  0
  4 18  1  0
  5  6  1  0
  5 14  1  0
  6  7  2  0
  7  8  1  0
  8  9  2  0
  8 10  1  0
 10 11  1  0
 11 12  2  0
 11 13  1  0
 14 15  2  0
 14 16  2  0
 14 17  1  0
 18 19  2  0
 18 20  2  0
 18 21  1  0
M  END
>  <DRUGBANK_ID>  (1) 
DB12861

>  <COMMON_NAME>  (1) 
Rimeporide

>  <CAS_NUMBER>  (1) 
187870-78-6

>  <UNII>  (1) 
QH6B4V5743

>  <SYNONYMS>  (1) 
Rimeporide

$$$$
