
     RDKit          3D

 27 29  0  0  0  0  0  0  0  0999 V2000
    1.5707    1.0170    0.1649 N   0  0  0  0  0  0  0  0  0  0  0  0
    0.2845    0.5266    0.1009 C   0  0  0  0  0  0  0  0  0  0  0  0
    2.1075    2.3884    0.0927 C   0  0  2  0  0  0  0  0  0  0  0  0
    2.3797   -0.0938    0.0664 C   0  0  0  0  0  0  0  0  0  0  0  0
    0.3794   -0.8450    0.0459 C   0  0  0  0  0  0  0  0  0  0  0  0
   -0.8668    1.1737    0.0745 N   0  0  0  0  0  0  0  0  0  0  0  0
    1.6429    3.2404    1.1659 O   0  0  0  0  0  0  0  0  0  0  0  0
    1.8091    3.0713   -1.2212 C   0  0  1  0  0  0  0  0  0  0  0  0
    1.7046   -1.2254    0.0329 N   0  0  0  0  0  0  0  0  0  0  0  0
   -0.8396   -1.5576    0.0212 C   0  0  0  0  0  0  0  0  0  0  0  0
   -1.9701    0.4329   -0.0117 C   0  0  0  0  0  0  0  0  0  0  0  0
    1.2911    4.5568    0.6288 C   0  0  1  0  0  0  0  0  0  0  0  0
    1.7067    4.5639   -0.8453 C   0  0  1  0  0  0  0  0  0  0  0  0
    2.7186    2.8124   -2.2880 O   0  0  0  0  0  0  0  0  0  0  0  0
   -2.0158   -0.8999   -0.0084 N   0  0  0  0  0  0  0  0  0  0  0  0
   -0.9096   -2.9289    0.0464 N   0  0  0  0  0  0  0  0  0  0  0  0
   -0.2049    4.8915    0.8350 C   0  0  0  0  0  0  0  0  0  0  0  0
    2.9919    5.1858   -1.0308 O   0  0  0  0  0  0  0  0  0  0  0  0
   -1.2180    3.7157    0.0231 S   0  0  0  0  0  0  0  0  0  0  0  0
   -2.9164    4.0169    0.4366 C   0  0  0  0  0  0  0  0  0  0  0  0
   -1.0697    3.7758   -1.7539 C   0  0  0  0  0  0  0  0  0  0  0  0
   -3.4869    5.3346   -0.0407 C   0  0  0  0  0  0  0  0  0  0  0  0
   -3.4283    5.4962   -1.5440 C   0  0  1  0  0  0  0  0  0  0  0  0
   -4.1338    4.3713   -2.4371 C   0  0  0  0  0  0  0  0  0  0  0  0
   -3.7604    6.8655   -2.0319 N   0  0  0  0  0  0  0  0  0  0  0  0
   -4.8658    4.8492   -3.3719 O   0  0  0  0  0  0  0  0  0  0  0  0
   -3.9132    3.1728   -2.1672 O   0  0  0  0  0  0  0  0  0  0  0  0
  1  2  1  0
  1  4  1  0
  2  5  2  0
  2  6  1  0
  3  1  1  6
  3  7  1  0
  3  8  1  0
  4  9  2  0
  5 10  1  0
  5  9  1  0
  6 11  2  0
  7 12  1  0
  8 13  1  0
  8 14  1  6
 10 15  2  0
 10 16  1  0
 11 15  1  0
 12 13  1  0
 12 17  1  6
 13 18  1  1
 17 19  1  0
 19 20  1  0
 19 21  1  6
 20 22  1  0
 22 23  1  0
 23 24  1  0
 23 25  1  1
 24 26  2  0
 24 27  1  0
M  CHG  2  19   1  27  -1
M  END
>  <DRUGBANK_ID>  (1) 
DB00118

>  <SECONDARY_ACCESSION_NUMBERS>  (1) 
NUTR00052

>  <COMMON_NAME>  (1) 
Ademetionine

>  <CAS_NUMBER>  (1) 
29908-03-0

>  <UNII>  (1) 
7LP2MPO46S

>  <SYNONYMS>  (1) 
Ademetionine; AdoMet; L-S-Adenosylmethionine; S-Adenosylmethionine; SAM; SAM-e; SAMe

$$$$
