1393
     RDKit          3D

 25 26  0  0  0  0  0  0  0  0999 V2000
   -2.2324   -0.2303   -0.0085 Cl  0  0  0  0  0  0  0  0  0  0  0  0
    9.8248    4.4695    1.6983 O   0  0  0  0  0  0  0  0  0  0  0  0
   12.4260    4.6175    1.7140 O   0  0  0  0  0  0  0  0  0  0  0  0
   12.4969    6.8588    1.5938 O   0  0  0  0  0  0  0  0  0  0  0  0
    4.4479   -0.9717    0.0591 O   0  0  0  0  0  0  0  0  0  0  0  0
    4.5254    1.2369   -0.1046 N   0  0  0  0  0  0  0  0  0  0  0  0
   10.2884    5.8265    1.6051 C   0  0  0  0  0  0  0  0  0  0  0  0
    4.3376    3.2869    1.3026 C   0  0  0  0  0  0  0  0  0  0  0  0
    5.7786    3.6024    1.4680 C   0  0  0  0  0  0  0  0  0  0  0  0
    4.1614    2.6368   -0.0534 C   0  0  0  0  0  0  0  0  0  0  0  0
    8.4732    4.2476    1.6467 C   0  0  0  0  0  0  0  0  0  0  0  0
    9.9264    6.4716    0.2493 C   0  0  0  0  0  0  0  0  0  0  0  0
    9.8628    6.6319    2.8479 C   0  0  0  0  0  0  0  0  0  0  0  0
    6.1504    4.9287    1.4203 C   0  0  0  0  0  0  0  0  0  0  0  0
    6.7422    2.5946    1.6037 C   0  0  0  0  0  0  0  0  0  0  0  0
    7.4843    5.2340    1.5298 C   0  0  0  0  0  0  0  0  0  0  0  0
    8.0876    2.9151    1.7028 C   0  0  0  0  0  0  0  0  0  0  0  0
   11.8376    5.8383    1.6375 C   0  0  0  0  0  0  0  0  0  0  0  0
    3.8086    0.0701    0.0044 C   0  0  0  0  0  0  0  0  0  0  0  0
    2.3037    0.0336    0.0161 C   0  0  0  0  0  0  0  0  0  0  0  0
    1.4541    1.1427   -0.0019 C   0  0  0  0  0  0  0  0  0  0  0  0
    1.6773   -1.2189    0.0122 C   0  0  0  0  0  0  0  0  0  0  0  0
    0.0733    1.0654   -0.0111 C   0  0  0  0  0  0  0  0  0  0  0  0
    0.2712   -1.3135   -0.0047 C   0  0  0  0  0  0  0  0  0  0  0  0
   -0.5220   -0.1676   -0.0071 C   0  0  0  0  0  0  0  0  0  0  0  0
  1 25  1  0
  2  7  1  0
  2 11  1  0
  3 18  1  0
  4 18  2  0
  5 19  2  0
  6 10  1  0
  6 19  1  0
  7 12  1  0
  7 13  1  0
  7 18  1  0
  8  9  1  0
  8 10  1  0
  9 14  2  0
  9 15  1  0
 11 16  2  0
 11 17  1  0
 14 16  1  0
 15 17  2  0
 19 20  1  0
 20 21  2  0
 20 22  1  0
 21 23  1  0
 22 24  2  0
 23 25  2  0
 24 25  1  0
M  END
>  <DRUGBANK_ID>  (1) 
DB01393

>  <SECONDARY_ACCESSION_NUMBERS>  (1) 
DB08380

>  <COMMON_NAME>  (1) 
Bezafibrate

>  <CAS_NUMBER>  (1) 
41859-67-0

>  <UNII>  (1) 
Y9449Q51XH

>  <SYNONYMS>  (1) 
2-(p-(2-(p-Chlorobenzamido)ethyl)phenoxy)-2-methylpropionic acid; Bezafibrate; Bezafibrato; Bezafibratum

$$$$
