
     RDKit          3D

 11 10  0  0  0  0  0  0  0  0999 V2000
    1.1134   -0.0162   -0.0257 O   0  0  0  0  0  0  0  0  0  0  0  0
    3.0801    0.7252   -0.8653 N   0  0  0  0  0  0  0  0  0  0  0  0
    4.5262    1.1506   -3.4501 C   0  0  0  0  0  0  0  0  0  0  0  0
    5.0054    0.2702   -2.2861 C   0  0  0  0  0  0  0  0  0  0  0  0
    5.0603    2.5823   -3.4168 C   0  0  0  0  0  0  0  0  0  0  0  0
    4.5296    0.7330   -0.8967 C   0  0  1  0  0  0  0  0  0  0  0  0
    6.5916    2.6241   -3.3376 C   0  0  0  0  0  0  0  0  0  0  0  0
    7.1875    2.1010   -4.6380 C   0  0  0  0  0  0  0  0  0  0  0  0
    5.0487    2.0887   -0.4156 C   0  0  0  0  0  0  0  0  0  0  0  0
    6.7068    2.9526   -5.8010 C   0  0  0  0  0  0  0  0  0  0  0  0
    2.3281   -0.0150   -0.0056 C   0  0  0  0  0  0  0  0  0  0  0  0
  1 11  2  0
  2 11  1  0
  3  4  1  0
  3  5  1  0
  4  6  1  0
  5  7  1  0
  6  2  1  0
  6  9  1  6
  7  8  1  0
  8 10  1  0
M  END
>  <DRUGBANK_ID>  (1) 
DB02131

>  <SECONDARY_ACCESSION_NUMBERS>  (1) 
EXPT01516

>  <COMMON_NAME>  (1) 
N-1-methylheptylformamide

>  <SYNONYMS>  (1) 
(R)-(-)-2-Octyl isocyanate

$$$$
