
     RDKit          3D

 15 16  0  0  1  0  0  0  0  0999 V2000
    0.9566    0.0787    0.0025 C   0  0  0  0  0  0  0  0  0  0  0  0
    0.8364   -2.4692   -0.4048 C   0  0  0  0  0  0  0  0  0  0  0  0
    0.9250    1.5273   -2.0515 C   0  0  0  0  0  0  0  0  0  0  0  0
   -0.2426   -2.3551   -2.3208 C   0  0  0  0  0  0  0  0  0  0  0  0
    0.4322    1.3838   -0.6104 C   0  0  1  0  0  0  0  0  0  0  0  0
    0.5468   -1.1622   -0.7235 C   0  0  0  0  0  0  0  0  0  0  0  0
    0.4716   -4.6125   -1.6017 C   0  0  0  0  0  0  0  0  0  0  0  0
   -1.0444    1.4535   -0.5502 N   0  0  0  0  0  0  0  0  0  0  0  0
   -0.1703   -1.1140   -1.8955 N   0  0  0  0  0  0  0  0  0  0  0  0
    0.2232   -5.4729   -0.6079 N   0  0  0  0  0  0  0  0  0  0  0  0
    0.9167   -5.1760   -2.7556 N   0  0  0  0  0  0  0  0  0  0  0  0
    0.4854   -6.6192   -1.2639 N   0  0  0  0  0  0  0  0  0  0  0  0
    0.9754   -6.4803   -2.5086 N   0  0  0  0  0  0  0  0  0  0  0  0
    0.3498   -3.2259   -1.4452 N   0  0  0  0  0  0  0  0  0  0  0  0
    0.1965    1.7546   -3.0229 O   0  0  0  0  0  0  0  0  0  0  0  0
  5  1  1  0
  5  3  1  0
  5  8  1  6
  6  1  1  0
  6  2  2  0
  9  4  2  0
  9  6  1  0
 10  7  2  0
 11  7  1  0
 12 10  1  0
 13 11  2  0
 13 12  1  0
 14  2  1  0
 14  4  1  0
 14  7  1  0
 15  3  2  0
M  END
>  <DRUGBANK_ID>  (1) 
DB02528

>  <SECONDARY_ACCESSION_NUMBERS>  (1) 
EXPT02402

>  <COMMON_NAME>  (1) 
Tetrazolyl Histidine

$$$$
