
     RDKit          3D

 19 21  0  0  0  0  0  0  0  0999 V2000
    1.0564   -0.1791   -0.0196 O   0  0  0  0  0  0  0  0  0  0  0  0
    2.2745   -0.0641    0.1333 C   0  0  0  0  0  0  0  0  0  0  0  0
    2.9802    0.9737   -0.6924 C   0  0  0  0  0  0  0  0  0  0  0  0
    4.3055    1.0542   -0.8710 C   0  0  0  0  0  0  0  0  0  0  0  0
    5.0708    1.9574   -1.7274 C   0  0  0  0  0  0  0  0  0  0  0  0
    6.2407    1.4381   -2.3372 C   0  0  0  0  0  0  0  0  0  0  0  0
    7.0780    2.2505   -3.1023 C   0  0  0  0  0  0  0  0  0  0  0  0
    6.7272    3.5743   -3.2257 C   0  0  0  0  0  0  0  0  0  0  0  0
    7.4153    4.5129   -3.9275 O   0  0  0  0  0  0  0  0  0  0  0  0
    6.5551    5.6578   -3.7566 C   0  0  0  0  0  0  0  0  0  0  0  0
    5.4604    5.4227   -2.8472 O   0  0  0  0  0  0  0  0  0  0  0  0
    5.6051    4.0901   -2.6162 C   0  0  0  0  0  0  0  0  0  0  0  0
    4.7572    3.3114   -1.8568 C   0  0  0  0  0  0  0  0  0  0  0  0
    3.0100   -0.9280    0.9229 N   0  0  0  0  0  0  0  0  0  0  0  0
    4.1346   -0.5583    1.7744 C   0  0  0  0  0  0  0  0  0  0  0  0
    5.3627   -1.3967    1.4115 C   0  0  0  0  0  0  0  0  0  0  0  0
    5.0474   -2.8902    1.4458 C   0  0  0  0  0  0  0  0  0  0  0  0
    3.7718   -3.2204    0.6580 C   0  0  0  0  0  0  0  0  0  0  0  0
    2.5990   -2.3208    1.0681 C   0  0  0  0  0  0  0  0  0  0  0  0
  1  2  2  0
  2  3  1  0
  2 14  1  0
  3  4  2  0
  4  5  1  0
  5  6  2  0
  5 13  1  0
  6  7  1  0
  7  8  2  0
  8  9  1  0
  8 12  1  0
  9 10  1  0
 10 11  1  0
 11 12  1  0
 12 13  2  0
 14 15  1  0
 14 19  1  0
 15 16  1  0
 16 17  1  0
 17 18  1  0
 18 19  1  0
M  END
>  <DRUGBANK_ID>  (1) 
DB16942

>  <COMMON_NAME>  (1) 
Ilepcimide

>  <CAS_NUMBER>  (1) 
82857-82-7

>  <UNII>  (1) 
5ML58O200F

>  <SYNONYMS>  (1) 
1-((e)-3,4-(methylenedioxy)cinnamoyl)piperidine; Antiepilepsirine; Piperidine, 1-(3-(1,3-benzodioxol-5-yl)-1-oxo-2-propenyl)-, (e)-

$$$$
