
     RDKit          3D

 15 15  0  0  0  0  0  0  0  0999 V2000
    0.9510   -0.1498   -0.0746 Cl  0  0  0  0  0  0  0  0  0  0  0  0
    1.7382    2.7287   -1.5630 Cl  0  0  0  0  0  0  0  0  0  0  0  0
    1.7265    2.7409    1.3933 Cl  0  0  0  0  0  0  0  0  0  0  0  0
    3.9543    3.8165   -0.0806 Cl  0  0  0  0  0  0  0  0  0  0  0  0
    5.6971   -2.8576   -0.0733 Cl  0  0  0  0  0  0  0  0  0  0  0  0
    6.8959   -0.1729   -0.0621 O   0  0  0  0  0  0  0  0  0  0  0  0
    2.7645   -2.4243   -0.0688 O   0  0  0  0  0  0  0  0  0  0  0  0
    4.8014    1.0285   -0.0664 N   0  0  0  0  0  0  0  0  0  0  0  0
    3.3940    1.1048   -0.0721 C   0  0  0  0  0  0  0  0  0  0  0  0
    5.5133   -0.1555   -0.0658 C   0  0  0  0  0  0  0  0  0  0  0  0
    2.6779   -0.0464   -0.0719 C   0  0  0  0  0  0  0  0  0  0  0  0
    2.7131    2.4939   -0.0797 C   0  0  0  0  0  0  0  0  0  0  0  0
    4.8763   -1.3406   -0.0693 C   0  0  0  0  0  0  0  0  0  0  0  0
    3.3899   -1.3640   -0.0698 C   0  0  0  0  0  0  0  0  0  0  0  0
    7.6252    1.0410   -0.0551 C   0  0  0  0  0  0  0  0  0  0  0  0
  1 11  1  0
  2 12  1  0
  3 12  1  0
  4 12  1  0
  5 13  1  0
  6 10  1  0
  6 15  1  0
  7 14  2  0
  8  9  1  0
  8 10  1  0
  9 11  2  0
  9 12  1  0
 10 13  2  0
 11 14  1  0
 13 14  1  0
M  END
>  <DRUGBANK_ID>  (1) 
DB06331

>  <COMMON_NAME>  (1) 
4-O-Demethylpenclomedine

>  <CAS_NUMBER>  (1) 
176046-79-0

>  <UNII>  (1) 
XUK71J2M0Q

>  <SYNONYMS>  (1) 
4-Demethylpenclomedine; 4-Dm-pen; 4-Dmpen; DM-PEN; DMPEN

$$$$
