
     RDKit          3D

 26 27  0  0  0  0  0  0  0  0999 V2000
    1.3827   -0.1840    0.1424 C   0  0  0  0  0  0  0  0  0  0  0  0
   -0.5309    1.2815    0.0745 C   0  0  0  0  0  0  0  0  0  0  0  0
    0.1364   -5.1045    1.2365 C   0  0  0  0  0  0  0  0  0  0  0  0
   -0.9359   -5.6152   -0.8916 C   0  0  0  0  0  0  0  0  0  0  0  0
    0.5381   -1.2802    0.0579 C   0  0  0  0  0  0  0  0  0  0  0  0
   -1.3821    0.1698    0.0534 C   0  0  0  0  0  0  0  0  0  0  0  0
   -0.4509   -3.8404    1.2168 C   0  0  0  0  0  0  0  0  0  0  0  0
   -1.5093   -4.3417   -0.9104 C   0  0  0  0  0  0  0  0  0  0  0  0
    1.0609    4.2666   -1.6366 C   0  0  0  0  0  0  0  0  0  0  0  0
    2.0253    5.1842   -2.4191 C   0  0  0  0  0  0  0  0  0  0  0  0
    1.7864    2.2511   -0.3029 C   0  0  0  0  0  0  0  0  0  0  0  0
    0.8595    1.1078    0.0424 C   0  0  0  0  0  0  0  0  0  0  0  0
   -0.1488   -6.0048    0.2021 C   0  0  0  0  0  0  0  0  0  0  0  0
   -0.8498   -1.1211    0.0444 C   0  0  0  0  0  0  0  0  0  0  0  0
   -1.2419   -3.4484    0.1268 C   0  0  0  0  0  0  0  0  0  0  0  0
    1.8951    0.6793   -2.9017 C   0  0  0  0  0  0  0  0  0  0  0  0
    1.3994    2.1201   -2.8136 C   0  0  0  0  0  0  0  0  0  0  0  0
    0.5858   -0.3576   -3.5005 Cl  0  0  0  0  0  0  0  0  0  0  0  0
    3.3118    0.6088   -3.9751 Cl  0  0  0  0  0  0  0  0  0  0  0  0
    1.4565    2.8421   -1.6133 N   0  0  0  0  0  0  0  0  0  0  0  0
    0.2969   -7.3982    0.3210 N   0  0  0  0  0  0  0  0  0  0  0  0
    2.1105    4.9517   -3.8162 O   0  0  0  0  0  0  0  0  0  0  0  0
    0.9905    2.6827   -3.8439 O   0  0  0  0  0  0  0  0  0  0  0  0
   -0.0384   -8.1873   -0.5771 O   0  0  0  0  0  0  0  0  0  0  0  0
    0.9464   -7.7124    1.3255 O   0  0  0  0  0  0  0  0  0  0  0  0
   -1.7482   -2.1713    0.0132 O   0  0  0  0  0  0  0  0  0  0  0  0
  5  1  2  0
  6  2  1  0
  7  3  2  0
  8  4  1  0
 10  9  1  0
 12  1  1  0
 12  2  2  0
 12 11  1  0
 13  3  1  0
 13  4  2  0
 14  5  1  0
 14  6  2  0
 15  7  1  0
 15  8  2  0
 17 16  1  0
 18 16  1  0
 19 16  1  0
 20  9  1  0
 20 11  1  0
 20 17  1  0
 21 13  1  0
 22 10  1  0
 23 17  2  0
 24 21  1  0
 25 21  2  0
 26 14  1  0
 26 15  1  0
M  CHG  2  21   1  24  -1
M  END
>  <DRUGBANK_ID>  (1) 
DB13512

>  <COMMON_NAME>  (1) 
Clefamide

>  <CAS_NUMBER>  (1) 
3576-64-5

>  <UNII>  (1) 
4AZ2V8K4EK

>  <SYNONYMS>  (1) 
Clefamide

$$$$
