
     RDKit          3D

 38 41  0  0  1  0  0  0  0  0999 V2000
    1.1302   -0.1622   -0.8371 C   0  0  0  0  0  0  0  0  0  0  0  0
    0.5691   -1.5240   -1.0141 C   0  0  0  0  0  0  0  0  0  0  0  0
    1.1155   -2.6297   -0.0491 C   0  0  1  0  0  0  0  0  0  0  0  0
    0.7802   -2.7676    1.3806 O   0  0  0  0  0  0  0  0  0  0  0  0
    1.0887   -1.8159    2.3266 C   0  0  0  0  0  0  0  0  0  0  0  0
    1.3102   -0.5150    1.9359 C   0  0  0  0  0  0  0  0  0  0  0  0
    1.2154    0.7007    2.5940 C   0  0  0  0  0  0  0  0  0  0  0  0
    1.2079    0.4862    3.9740 C   0  0  0  0  0  0  0  0  0  0  0  0
    1.1877   -0.8506    4.5121 C   0  0  0  0  0  0  0  0  0  0  0  0
    1.1130   -2.0045    3.6858 C   0  0  0  0  0  0  0  0  0  0  0  0
    0.3451    1.7173    1.8474 N   0  0  0  0  0  0  0  0  0  0  0  0
   -1.0677    1.6690    2.0232 C   0  0  0  0  0  0  0  0  0  0  0  0
   -1.4187    2.1565    3.3513 C   0  0  0  0  0  0  0  0  0  0  0  0
   -1.6367    1.3846    0.7702 C   0  0  0  0  0  0  0  0  0  0  0  0
   -2.8290    0.7040    0.1723 C   0  0  0  0  0  0  0  0  0  0  0  0
   -2.9444    0.5637   -1.0519 O   0  0  0  0  0  0  0  0  0  0  0  0
   -3.9797    0.1372    0.8756 C   0  0  0  0  0  0  0  0  0  0  0  0
   -4.5715    0.8974    1.8640 C   0  0  0  0  0  0  0  0  0  0  0  0
   -5.7856    0.4906    2.4080 C   0  0  0  0  0  0  0  0  0  0  0  0
   -6.4365   -0.6623    1.9544 C   0  0  0  0  0  0  0  0  0  0  0  0
   -7.5961   -1.1591    2.4876 O   0  0  0  0  0  0  0  0  0  0  0  0
   -8.0553   -0.5089    3.6708 C   0  0  0  0  0  0  0  0  0  0  0  0
   -5.8927   -1.3818    0.8899 C   0  0  0  0  0  0  0  0  0  0  0  0
   -4.6520   -1.0012    0.3642 C   0  0  0  0  0  0  0  0  0  0  0  0
   -0.7111    2.0610   -0.1090 C   0  0  0  0  0  0  0  0  0  0  0  0
   -0.7146    2.2004   -1.5165 C   0  0  0  0  0  0  0  0  0  0  0  0
    0.3715    2.7439   -2.1718 C   0  0  0  0  0  0  0  0  0  0  0  0
    1.4428    3.2489   -1.4426 C   0  0  0  0  0  0  0  0  0  0  0  0
    2.5837    3.7300   -2.0370 O   0  0  0  0  0  0  0  0  0  0  0  0
    2.6560    3.5741   -3.4533 C   0  0  0  0  0  0  0  0  0  0  0  0
    2.6329    2.2666   -3.8061 F   0  0  0  0  0  0  0  0  0  0  0  0
    1.6444    4.2237   -4.0718 F   0  0  0  0  0  0  0  0  0  0  0  0
    3.8168    4.1006   -3.8971 F   0  0  0  0  0  0  0  0  0  0  0  0
    1.4742    3.1552   -0.0258 C   0  0  0  0  0  0  0  0  0  0  0  0
    0.4617    2.4009    0.6097 C   0  0  0  0  0  0  0  0  0  0  0  0
    0.5293   -3.8698   -0.7665 C   0  0  0  0  0  0  0  0  0  0  0  0
    1.4777   -4.6540   -1.3592 O   0  0  0  0  0  0  0  0  0  0  0  0
   -0.6381   -4.0806   -0.9116 O   0  0  0  0  0  0  0  0  0  0  0  0
  1  2  1  0
  3  2  1  6
  3  4  1  0
  3 36  1  0
  4  5  1  0
  5  6  2  0
  5 10  1  0
  6  7  1  0
  7  8  2  0
  7 11  1  0
  8  9  1  0
  9 10  2  0
 11 12  1  0
 11 35  1  0
 12 13  1  0
 12 14  2  0
 14 15  1  0
 14 25  1  0
 15 16  2  0
 15 17  1  0
 17 18  2  0
 17 24  1  0
 18 19  1  0
 19 20  2  0
 20 21  1  0
 20 23  1  0
 21 22  1  0
 23 24  2  0
 25 26  1  0
 25 35  2  0
 26 27  2  0
 27 28  1  0
 28 29  1  0
 28 34  2  0
 29 30  1  0
 30 31  1  0
 30 32  1  0
 30 33  1  0
 34 35  1  0
 36 37  1  0
 36 38  2  0
M  END
>  <DRUGBANK_ID>  (1) 
DB15242

>  <COMMON_NAME>  (1) 
MK-0533

>  <CAS_NUMBER>  (1) 
668455-28-5

>  <UNII>  (1) 
J17152066B

$$$$
