367
     RDKit          3D

 30 32  0  0  0  0  0  0  0  0999 V2000
    0.0440   -0.3984    0.3113 C   0  0  0  0  0  0  0  0  0  0  0  0
    1.2047   -1.3236    0.1469 C   0  0  0  0  0  0  0  0  0  0  0  0
    2.4433   -0.7015   -0.0242 C   0  0  0  0  0  0  0  0  0  0  0  0
    2.5102    0.7058   -0.0394 C   0  0  0  0  0  0  0  0  0  0  0  0
    1.3566    1.5068   -0.0119 C   0  0  0  0  0  0  0  0  0  0  0  0
    0.0927    0.9658    0.0756 C   0  0  0  0  0  0  0  0  0  0  0  0
   -1.2489   -0.6564    0.7716 C   0  0  0  0  0  0  0  0  0  0  0  0
   -2.5944   -0.0243    0.2565 C   0  0  0  0  0  0  0  0  0  0  0  0
   -1.1144    1.7688    0.0100 C   0  0  0  0  0  0  0  0  0  0  0  0
   -2.4282    1.3026    0.0312 C   0  0  0  0  0  0  0  0  0  0  0  0
   -4.0649   -0.7779   -0.6378 C   0  0  0  0  0  0  0  0  0  0  0  0
   -5.1941   -0.0381   -0.5237 N   0  0  0  0  0  0  0  0  0  0  0  0
   -4.2835   -2.3575   -1.1884 N   0  0  0  0  0  0  0  0  0  0  0  0
    1.2154   -2.8068    0.1344 N   0  0  0  0  0  0  0  0  0  0  0  0
    0.2606   -3.8220    0.1396 C   0  0  0  0  0  0  0  0  0  0  0  0
    0.4530   -5.0243    0.2176 O   0  0  0  0  0  0  0  0  0  0  0  0
   -1.1211   -3.5342   -0.0518 C   0  0  0  0  0  0  0  0  0  0  0  0
   -1.1677   -2.7332   -1.1734 C   0  0  0  0  0  0  0  0  0  0  0  0
   -2.2708   -2.0370   -0.7430 C   0  0  0  0  0  0  0  0  0  0  0  0
   -3.1982   -2.2677    0.6790 C   0  0  0  0  0  0  0  0  0  0  0  0
   -3.2259   -3.2513    1.6144 C   0  0  0  0  0  0  0  0  0  0  0  0
   -2.0984   -3.8838    1.1906 C   0  0  0  0  0  0  0  0  0  0  0  0
   -4.8989   -3.7790    2.1066 S   0  0  0  0  0  0  0  0  0  0  0  0
   -5.2109   -5.0613    1.0939 O   0  0  0  0  0  0  0  0  0  0  0  0
   -4.7347   -4.2285    3.4898 O   0  0  0  0  0  0  0  0  0  0  0  0
   -5.8854   -2.7459    1.9189 O   0  0  0  0  0  0  0  0  0  0  0  0
   -5.3394   -5.1581   -0.3609 C   0  0  0  0  0  0  0  0  0  0  0  0
   -6.6365   -4.5848   -1.0398 C   0  0  0  0  0  0  0  0  0  0  0  0
   -6.8505   -3.0981   -0.9155 C   0  0  0  0  0  0  0  0  0  0  0  0
   -6.2921   -2.4626   -2.0445 O   0  0  0  0  0  0  0  0  0  0  0  0
  1  2  1  0
  1  6  2  0
  1  7  1  0
  2  3  2  0
  2 14  1  0
  3  4  1  0
  4  5  2  0
  5  6  1  0
  6  9  1  0
  7  8  2  0
  8 10  1  0
  8 11  1  0
  9 10  2  0
 11 12  2  0
 11 13  1  0
 14 15  1  0
 15 16  2  0
 15 17  1  0
 17 18  2  0
 17 22  1  0
 18 19  1  0
 19 20  2  0
 20 21  1  0
 21 22  2  0
 21 23  1  0
 23 24  1  0
 23 25  2  0
 23 26  2  0
 24 27  1  0
 27 28  1  0
 28 29  1  0
 29 30  1  0
M  END
>  <DRUGBANK_ID>  (1) 
DB07022

>  <COMMON_NAME>  (1) 
3-Hydroxypropyl 3-[(7-carbamimidoyl-1-naphthyl)carbamoyl]benzenesulfonate

$$$$
