2IG
     RDKit          3D

 28 31  0  0  0  0  0  0  0  0999 V2000
    1.2046    0.2442    0.0292 C   0  0  0  0  0  0  0  0  0  0  0  0
    0.0852    0.9956   -0.0245 N   0  0  0  0  0  0  0  0  0  0  0  0
   -1.0726    0.3438   -0.0433 C   0  0  0  0  0  0  0  0  0  0  0  0
   -1.2220   -0.9760   -0.0372 N   0  0  0  0  0  0  0  0  0  0  0  0
   -0.0897   -1.7252    0.0330 C   0  0  0  0  0  0  0  0  0  0  0  0
    1.1763   -1.1481    0.0859 C   0  0  0  0  0  0  0  0  0  0  0  0
    2.4005    0.9522    0.1639 N   0  0  0  0  0  0  0  0  0  0  0  0
   -2.2263    1.1015   -0.0762 N   0  0  0  0  0  0  0  0  0  0  0  0
   -0.3081   -3.2223    0.0682 C   0  0  0  0  0  0  0  0  0  0  0  0
   -1.0901   -3.6510    1.2948 C   0  0  0  0  0  0  0  0  0  0  0  0
    3.2674   -1.8396    1.2688 C   0  0  0  0  0  0  0  0  0  0  0  0
    4.4283   -2.6143    1.3665 C   0  0  0  0  0  0  0  0  0  0  0  0
    4.7422   -3.5353    0.3528 C   0  0  0  0  0  0  0  0  0  0  0  0
    3.8913   -3.6281   -0.7421 C   0  0  0  0  0  0  0  0  0  0  0  0
    2.7331   -2.8377   -0.8530 C   0  0  0  0  0  0  0  0  0  0  0  0
    2.4095   -1.9463    0.1738 C   0  0  0  0  0  0  0  0  0  0  0  0
    4.4172   -4.5804   -1.6058 N   0  0  0  0  0  0  0  0  0  0  0  0
    3.7009   -4.8714   -2.8488 C   0  0  0  0  0  0  0  0  0  0  0  0
    4.4758   -4.8146   -4.1511 C   0  0  0  0  0  0  0  0  0  0  0  0
    5.6622   -5.7321   -4.2020 C   0  0  0  0  0  0  0  0  0  0  0  0
    5.3932   -7.1374   -4.0710 O   0  0  0  0  0  0  0  0  0  0  0  0
    4.5200   -7.6900   -3.0781 C   0  0  0  0  0  0  0  0  0  0  0  0
    6.5370   -6.1186   -1.3945 C   0  0  0  0  0  0  0  0  0  0  0  0
    5.5831   -5.1255   -1.0419 C   0  0  0  0  0  0  0  0  0  0  0  0
    5.8110   -4.4592    0.1667 C   0  0  0  0  0  0  0  0  0  0  0  0
    6.9698   -4.7932    0.9260 C   0  0  0  0  0  0  0  0  0  0  0  0
    7.8875   -5.7667    0.5051 C   0  0  0  0  0  0  0  0  0  0  0  0
    7.6654   -6.4352   -0.6623 C   0  0  0  0  0  0  0  0  0  0  0  0
  1  2  2  0
  1  6  1  0
  1  7  1  0
  2  3  1  0
  3  4  2  0
  3  8  1  0
  4  5  1  0
  5  6  2  0
  5  9  1  0
  6 16  1  0
  9 10  1  0
 11 12  2  0
 11 16  1  0
 12 13  1  0
 13 14  2  0
 13 25  1  0
 14 15  1  0
 14 17  1  0
 15 16  2  0
 17 18  1  0
 17 24  1  0
 18 19  1  0
 19 20  1  0
 20 21  1  0
 21 22  1  0
 23 24  1  0
 23 28  2  0
 24 25  2  0
 25 26  1  0
 26 27  2  0
 27 28  1  0
M  END
>  <DRUGBANK_ID>  (1) 
DB06967

>  <COMMON_NAME>  (1) 
6-ETHYL-5-[9-(3-METHOXYPROPYL)-9H-CARBAZOL-2-YL]PYRIMIDINE-2,4-DIAMINE

$$$$
