
     RDKit          3D

 21 22  0  0  0  0  0  0  0  0999 V2000
    2.4020   -0.1399    0.1957 C   0  0  0  0  0  0  0  0  0  0  0  0
    1.6993    1.0326    0.4136 C   0  0  0  0  0  0  0  0  0  0  0  0
    0.3393    1.1643    0.1552 C   0  0  0  0  0  0  0  0  0  0  0  0
   -0.3822   -0.0318    0.0087 C   0  0  0  0  0  0  0  0  0  0  0  0
    0.2874   -1.2750   -0.0300 C   0  0  0  0  0  0  0  0  0  0  0  0
    1.6880   -1.3100    0.0119 C   0  0  0  0  0  0  0  0  0  0  0  0
    2.4456   -2.5627   -0.0192 N   0  0  0  0  0  0  0  0  0  0  0  0
    1.7995   -3.6224   -0.0344 O   0  0  0  0  0  0  0  0  0  0  0  0
    3.6792   -2.4874   -0.0133 O   0  0  0  0  0  0  0  0  0  0  0  0
   -2.1077   -0.0303   -0.0725 Cl  0  0  0  0  0  0  0  0  0  0  0  0
   -0.2599    2.4506    0.0316 N   0  0  0  0  0  0  0  0  0  0  0  0
    0.3148    3.7193   -0.1123 C   0  0  0  0  0  0  0  0  0  0  0  0
   -0.3945    4.7243   -0.0607 O   0  0  0  0  0  0  0  0  0  0  0  0
    1.7853    3.9189   -0.2796 C   0  0  0  0  0  0  0  0  0  0  0  0
    2.5394    3.1891   -1.2169 C   0  0  0  0  0  0  0  0  0  0  0  0
    3.9287    3.0958   -1.0846 C   0  0  0  0  0  0  0  0  0  0  0  0
    4.5827    3.8500   -0.1090 C   0  0  0  0  0  0  0  0  0  0  0  0
    3.8470    4.6833    0.7360 C   0  0  0  0  0  0  0  0  0  0  0  0
    2.4511    4.7054    0.6767 C   0  0  0  0  0  0  0  0  0  0  0  0
    4.6795    5.6472    1.8939 Cl  0  0  0  0  0  0  0  0  0  0  0  0
    1.9075    2.4206   -2.1568 O   0  0  0  0  0  0  0  0  0  0  0  0
  1  2  2  0
  1  6  1  0
  2  3  1  0
  3  4  2  0
  3 11  1  0
  4  5  1  0
  4 10  1  0
  5  6  2  0
  6  7  1  0
  7  8  2  0
  7  9  1  0
 11 12  1  0
 12 13  2  0
 12 14  1  0
 14 15  2  0
 14 19  1  0
 15 16  1  0
 15 21  1  0
 16 17  2  0
 17 18  1  0
 18 19  2  0
 18 20  1  0
M  CHG  2   7   1   9  -1
M  END
>  <DRUGBANK_ID>  (1) 
DB06803

>  <COMMON_NAME>  (1) 
Niclosamide

>  <CAS_NUMBER>  (1) 
50-65-7

>  <UNII>  (1) 
8KK8CQ2K8G

>  <SYNONYMS>  (1) 
Niclosamide

$$$$
