
     RDKit          3D

 18 17  0  0  0  0  0  0  0  0999 V2000
    4.6994    1.4374   -2.6159 O   0  0  0  0  0  0  0  0  0  0  0  0
    4.6433    1.0766   -0.3344 O   0  0  0  0  0  0  0  0  0  0  0  0
    5.5880    3.7390   -2.2456 O   0  0  0  0  0  0  0  0  0  0  0  0
    2.4961    4.4023    1.5787 O   0  0  0  0  0  0  0  0  0  0  0  0
    3.4121    3.4133   -1.6930 N   0  0  0  0  0  0  0  0  0  0  0  0
    2.7716    1.2944    0.7155 N   0  0  0  0  0  0  0  0  0  0  0  0
    2.8436    2.7431    3.1009 N   0  0  0  0  0  0  0  0  0  0  0  0
    3.6522    0.0094   -2.8094 C   0  0  0  0  0  0  0  0  0  0  0  0
    2.6100    2.3244   -1.6837 C   0  0  2  0  0  0  0  0  0  0  0  0
    2.7135   -0.5474   -1.5437 C   0  0  0  0  0  0  0  0  0  0  0  0
    2.7235   -0.0856   -4.2723 C   0  0  0  0  0  0  0  0  0  0  0  0
    4.6774   -1.0993   -2.9970 C   0  0  0  0  0  0  0  0  0  0  0  0
    1.7232    2.1967    1.0396 C   0  0  1  0  0  0  0  0  0  0  0  0
    3.4971    1.5274   -0.3997 C   0  0  0  0  0  0  0  0  0  0  0  0
    2.4305    2.1617   -3.1784 C   0  0  0  0  0  0  0  0  0  0  0  0
    4.6260    2.9251   -2.1828 C   0  0  0  0  0  0  0  0  0  0  0  0
    0.5551    1.4190    1.5431 C   0  0  0  0  0  0  0  0  0  0  0  0
    2.3651    3.2335    1.9248 C   0  0  0  0  0  0  0  0  0  0  0  0
  1  8  1  0
  1 16  1  0
  2 14  2  0
  3 16  2  0
  4 18  2  0
  5 16  1  0
  6 14  1  0
  7 18  1  0
  8 10  1  0
  8 11  1  0
  8 12  1  0
  9 15  1  6
  9 14  1  0
  9  5  1  0
 13  6  1  0
 13 17  1  1
 13 18  1  0
M  END
>  <DRUGBANK_ID>  (1) 
DB03757

>  <SECONDARY_ACCESSION_NUMBERS>  (1) 
EXPT00619

>  <COMMON_NAME>  (1) 
N-{[(2-Methyl-2-propanyl)oxy]carbonyl}-L-alanyl-L-alaninamide

>  <CAS_NUMBER>  (1) 
41036-24-2

>  <SYNONYMS>  (1) 
(Tert-butyloxycarbonyl)-alanyl-alanyl-amine

$$$$
