
     RDKit          3D

 41 44  0  0  0  0  0  0  0  0999 V2000
    1.5368    1.5660    0.3009 O   0  0  0  0  0  0  0  0  0  0  0  0
    0.5160    3.6826    0.3083 O   0  0  0  0  0  0  0  0  0  0  0  0
   -1.9514    0.2965   -0.2174 O   0  0  0  0  0  0  0  0  0  0  0  0
    1.8798   -1.3040   -0.1704 O   0  0  0  0  0  0  0  0  0  0  0  0
   -3.0171   -1.7012    0.2070 O   0  0  0  0  0  0  0  0  0  0  0  0
    1.6882    4.3169   -3.7294 O   0  0  0  0  0  0  0  0  0  0  0  0
    0.5124    6.4516   -2.1490 O   0  0  0  0  0  0  0  0  0  0  0  0
   -2.3894    3.0031   -0.2214 O   0  0  0  0  0  0  0  0  0  0  0  0
   -2.2806    5.3303   -0.7621 O   0  0  0  0  0  0  0  0  0  0  0  0
    4.1215    0.5831   -3.2810 O   0  0  0  0  0  0  0  0  0  0  0  0
   -0.3784   -5.1644    0.6005 O   0  0  0  0  0  0  0  0  0  0  0  0
   -2.5561   -1.5666   -4.6051 O   0  0  0  0  0  0  0  0  0  0  0  0
   -2.3077   -1.5736   -6.8780 O   0  0  0  0  0  0  0  0  0  0  0  0
    2.9301    2.1684   -2.2454 N   0  0  0  0  0  0  0  0  0  0  0  0
   -0.4005   -2.9297    0.6177 N   0  0  0  0  0  0  0  0  0  0  0  0
    0.4973    0.7104   -0.2121 C   0  0  1  0  0  0  0  0  0  0  0  0
    0.6809   -0.7102    0.3602 C   0  0  1  0  0  0  0  0  0  0  0  0
    1.7406    2.8951   -1.7761 C   0  0  1  0  0  0  0  0  0  0  0  0
    1.6159    2.9117   -0.2179 C   0  0  2  0  0  0  0  0  0  0  0  0
   -0.5284   -1.6091    0.0307 C   0  0  2  0  0  0  0  0  0  0  0  0
   -0.9146    1.2169    0.0631 C   0  0  1  0  0  0  0  0  0  0  0  0
    1.6819    4.3311   -2.2937 C   0  0  2  0  0  0  0  0  0  0  0  0
    0.4355    5.0727   -1.7879 C   0  0  1  0  0  0  0  0  0  0  0  0
   -1.8406   -0.9229    0.4495 C   0  0  1  0  0  0  0  0  0  0  0  0
    0.2459    4.9802   -0.2640 C   0  0  1  0  0  0  0  0  0  0  0  0
   -1.3882    2.2730   -0.8930 C   0  0  0  0  0  0  0  0  0  0  0  0
   -1.1746    5.5641    0.1193 C   0  0  0  0  0  0  0  0  0  0  0  0
    3.0170    1.0608   -3.0433 C   0  0  0  0  0  0  0  0  0  0  0  0
   -0.4243   -4.1268   -0.0387 C   0  0  0  0  0  0  0  0  0  0  0  0
   -3.4059   -1.9949   -1.0701 C   0  0  0  0  0  0  0  0  0  0  0  0
    1.7660    0.4315   -3.6146 C   0  0  0  0  0  0  0  0  0  0  0  0
   -0.5024   -4.1120   -1.5456 C   0  0  0  0  0  0  0  0  0  0  0  0
   -2.8328   -1.5295   -2.2508 C   0  0  0  0  0  0  0  0  0  0  0  0
   -4.4561   -2.9091   -1.1565 C   0  0  0  0  0  0  0  0  0  0  0  0
   -3.2576   -2.0366   -3.4782 C   0  0  0  0  0  0  0  0  0  0  0  0
   -4.8950   -3.3903   -2.3989 C   0  0  0  0  0  0  0  0  0  0  0  0
   -4.2840   -2.9692   -3.5854 C   0  0  0  0  0  0  0  0  0  0  0  0
   -4.6527   -3.4489   -4.9219 C   0  0  0  0  0  0  0  0  0  0  0  0
   -3.9787   -2.9728   -5.9819 C   0  0  0  0  0  0  0  0  0  0  0  0
   -2.8931   -1.9942   -5.8711 C   0  0  0  0  0  0  0  0  0  0  0  0
   -5.7589   -4.4459   -5.0828 C   0  0  0  0  0  0  0  0  0  0  0  0
  2 19  1  0
  2 25  1  0
  3 21  1  0
  3 24  1  0
  5 30  1  0
  8 26  1  0
  9 27  1  0
 10 28  2  0
 11 29  2  0
 12 35  1  0
 12 40  1  0
 13 40  2  0
 14 28  1  0
 15 29  1  0
 16  1  1  1
 16 17  1  0
 16 21  1  0
 17  4  1  6
 17 20  1  0
 18 14  1  1
 18 19  1  0
 18 22  1  0
 19  1  1  6
 20 15  1  1
 20 24  1  0
 21 26  1  6
 22  6  1  6
 22 23  1  0
 23  7  1  1
 23 25  1  0
 24  5  1  6
 25 27  1  6
 28 31  1  0
 29 32  1  0
 30 33  1  0
 30 34  2  0
 33 35  2  0
 34 36  1  0
 35 37  1  0
 36 37  2  0
 37 38  1  0
 38 39  2  0
 38 41  1  0
 39 40  1  0
M  END
>  <DRUGBANK_ID>  (1) 
DB02759

>  <SECONDARY_ACCESSION_NUMBERS>  (1) 
EXPT01671

>  <COMMON_NAME>  (1) 
4-methyl-umbelliferyl-N-acetyl-chitobiose

>  <CAS_NUMBER>  (1) 
53643-12-2

>  <UNII>  (1) 
SYW68VG2T6

>  <SYNONYMS>  (1) 
4-methylumbelliferyl-N,N-diacetylchitobioside; 4-Mudacb

$$$$
