4BC
     RDKit          3D

 27 30  0  0  0  0  0  0  0  0999 V2000
    0.9928   -1.4128   -0.0028 C   0  0  0  0  0  0  0  0  0  0  0  0
   -0.1782   -0.6856   -0.0071 C   0  0  0  0  0  0  0  0  0  0  0  0
   -1.4371   -1.2015   -0.0095 O   0  0  0  0  0  0  0  0  0  0  0  0
   -2.2228    0.0054    0.0773 C   0  0  0  0  0  0  0  0  0  0  0  0
   -1.4342    1.2093   -0.0198 O   0  0  0  0  0  0  0  0  0  0  0  0
   -0.1776    0.6898   -0.0099 C   0  0  0  0  0  0  0  0  0  0  0  0
    0.9920    1.4168   -0.0040 C   0  0  0  0  0  0  0  0  0  0  0  0
    2.1951    0.7092    0.0009 C   0  0  0  0  0  0  0  0  0  0  0  0
    2.2021   -0.7004    0.0099 C   0  0  0  0  0  0  0  0  0  0  0  0
    3.4657   -1.4137   -0.0306 C   0  0  0  0  0  0  0  0  0  0  0  0
    4.4610   -1.3600    0.9459 C   0  0  0  0  0  0  0  0  0  0  0  0
    4.4755   -0.5969    2.1785 C   0  0  0  0  0  0  0  0  0  0  0  0
    5.5920   -0.7235    2.9335 O   0  0  0  0  0  0  0  0  0  0  0  0
    3.5742    0.1387    2.5626 O   0  0  0  0  0  0  0  0  0  0  0  0
    5.4200   -2.2168    0.4686 N   0  0  0  0  0  0  0  0  0  0  0  0
    3.9205   -2.3184   -1.0331 C   0  0  0  0  0  0  0  0  0  0  0  0
    5.0964   -2.8532   -0.6739 N   0  0  0  0  0  0  0  0  0  0  0  0
    3.2097   -2.7162   -2.2546 C   0  0  0  0  0  0  0  0  0  0  0  0
    2.8310   -1.7406   -3.1967 C   0  0  0  0  0  0  0  0  0  0  0  0
    2.0498   -2.0573   -4.3351 C   0  0  0  0  0  0  0  0  0  0  0  0
    1.6440   -0.9440   -5.2734 C   0  0  0  0  0  0  0  0  0  0  0  0
    0.7744    0.0983   -4.5845 C   0  0  0  0  0  0  0  0  0  0  0  0
    1.6769   -3.3928   -4.5201 C   0  0  0  0  0  0  0  0  0  0  0  0
    0.9397   -3.8436   -5.5789 O   0  0  0  0  0  0  0  0  0  0  0  0
    2.0402   -4.3695   -3.5920 C   0  0  0  0  0  0  0  0  0  0  0  0
    2.7956   -4.0340   -2.4686 C   0  0  0  0  0  0  0  0  0  0  0  0
    3.0625   -5.0446   -1.5833 O   0  0  0  0  0  0  0  0  0  0  0  0
  1  2  2  0
  1  9  1  0
  2  3  1  0
  2  6  1  0
  3  4  1  0
  4  5  1  0
  5  6  1  0
  6  7  2  0
  7  8  1  0
  8  9  2  0
  9 10  1  0
 10 11  2  0
 10 16  1  0
 11 12  1  0
 11 15  1  0
 12 13  1  0
 12 14  2  0
 15 17  1  0
 16 17  2  0
 16 18  1  0
 18 19  2  0
 18 26  1  0
 19 20  1  0
 20 21  1  0
 20 23  2  0
 21 22  1  0
 23 24  1  0
 23 25  1  0
 25 26  2  0
 26 27  1  0
M  END
>  <DRUGBANK_ID>  (1) 
DB02840

>  <SECONDARY_ACCESSION_NUMBERS>  (1) 
EXPT00204

>  <COMMON_NAME>  (1) 
4-(1,3-Benzodioxol-5-Yl)-5-(5-Ethyl-2,4-Dihydroxyphenyl)-2h-Pyrazole-3-Carboxylic Acid

$$$$
