
     RDKit          3D

 29 30  0  0  0  0  0  0  0  0999 V2000
    1.4736    1.5405    0.2704 O   0  0  0  0  0  0  0  0  0  0  0  0
    1.4850    1.6571    1.7211 C   0  0  1  0  0  0  0  0  0  0  0  0
    0.1992    2.3284    2.2309 C   0  0  1  0  0  0  0  0  0  0  0  0
    1.7376    0.4079    2.3382 O   0  0  0  0  0  0  0  0  0  0  0  0
    0.0643    2.3525    3.7331 C   0  0  2  0  0  0  0  0  0  0  0  0
   -0.0242    3.6387    1.5856 N   0  0  0  0  0  0  0  0  0  0  0  0
    0.5150    0.6597   -0.3787 C   0  0  2  0  0  0  0  0  0  0  0  0
    1.5902    0.3121    3.7470 C   0  0  1  0  0  0  0  0  0  0  0  0
    0.2966    0.9430    4.2916 C   0  0  1  0  0  0  0  0  0  0  0  0
   -1.2603    2.7840    4.0919 O   0  0  0  0  0  0  0  0  0  0  0  0
   -1.2553    4.0610    1.1387 C   0  0  0  0  0  0  0  0  0  0  0  0
   -0.9377    1.2058   -0.4324 C   0  0  2  0  0  0  0  0  0  0  0  0
    0.6033   -0.7795    0.1617 C   0  0  1  0  0  0  0  0  0  0  0  0
    1.6525   -1.1872    4.1287 C   0  0  0  0  0  0  0  0  0  0  0  0
    0.3724    1.0506    5.7116 O   0  0  0  0  0  0  0  0  0  0  0  0
   -1.2461    5.2880    0.2393 C   0  0  0  0  0  0  0  0  0  0  0  0
   -2.2739    3.3953    1.3246 O   0  0  0  0  0  0  0  0  0  0  0  0
   -1.9552    0.2348   -0.6520 O   0  0  0  0  0  0  0  0  0  0  0  0
   -1.1011    2.3890   -1.3861 C   0  0  0  0  0  0  0  0  0  0  0  0
   -0.6215   -1.6234   -0.1296 C   0  0  2  0  0  0  0  0  0  0  0  0
    1.8138   -1.4111   -0.2692 O   0  0  0  0  0  0  0  0  0  0  0  0
    1.6782   -1.3979    5.5315 O   0  0  0  0  0  0  0  0  0  0  0  0
   -1.8574   -0.8263    0.2881 C   0  0  2  0  0  0  0  0  0  0  0  0
   -2.3929    3.0008   -1.2733 O   0  0  0  0  0  0  0  0  0  0  0  0
   -0.5199   -2.9095    0.5446 N   0  0  0  0  0  0  0  0  0  0  0  0
   -3.0354   -1.5866    0.1628 O   0  0  0  0  0  0  0  0  0  0  0  0
   -0.4634   -4.1264   -0.0726 C   0  0  0  0  0  0  0  0  0  0  0  0
   -0.3492   -5.1464    0.5739 O   0  0  0  0  0  0  0  0  0  0  0  0
   -0.5552   -4.1069   -1.5774 C   0  0  0  0  0  0  0  0  0  0  0  0
  2  1  1  6
  2  3  1  0
  2  4  1  0
  3  5  1  0
  3  6  1  1
  4  8  1  0
  5  9  1  0
  5 10  1  6
  6 11  1  0
  7  1  1  1
  7 12  1  0
  7 13  1  0
  8  9  1  0
  8 14  1  6
  9 15  1  1
 11 16  1  0
 11 17  2  0
 12 18  1  0
 12 19  1  6
 13 20  1  0
 13 21  1  6
 14 22  1  0
 18 23  1  0
 19 24  1  0
 20 25  1  1
 20 23  1  0
 23 26  1  6
 25 27  1  0
 27 28  2  0
 27 29  1  0
M  END
>  <DRUGBANK_ID>  (1) 
DB03013

>  <SECONDARY_ACCESSION_NUMBERS>  (1) 
EXPT00851

>  <COMMON_NAME>  (1) 
N-acetyl-beta-D-glucosaminyl-(1->4)-N-acetyl-beta-D-glucosamine

>  <CAS_NUMBER>  (1) 
35061-50-8

>  <SYNONYMS>  (1) 
Chitodextrin; β-D-GlcNAc-(1→4)-β-D-GlcNAc; β-D-GlcpNAc-(1→4)-β-D-GlcpNAc; βGlcNAc(1→4)βGlcNAc

$$$$
