TCM
     RDKit          3D

 11 12  0  0  0  0  0  0  0  0999 V2000
   -0.0229    1.1003   -0.3974 C   0  0  2  0  0  0  0  0  0  0  0  0
    1.0845    0.6142    0.5280 C   0  0  0  0  0  0  0  0  0  0  0  0
    1.1575   -0.8914    0.4506 C   0  0  0  0  0  0  0  0  0  0  0  0
   -0.1356   -1.1347   -0.4131 C   0  0  1  0  0  0  0  0  0  0  0  0
   -1.3175   -0.7653    0.5005 C   0  0  0  0  0  0  0  0  0  0  0  0
   -1.2876    0.7815    0.4887 C   0  0  0  0  0  0  0  0  0  0  0  0
   -0.1292   -0.0161   -1.5072 C   0  0  0  0  0  0  0  0  0  0  0  0
    0.9340   -0.3327   -2.5915 C   0  0  0  0  0  0  0  0  0  0  0  0
   -1.3796    0.2675   -2.3871 C   0  0  0  0  0  0  0  0  0  0  0  0
    0.0441    2.5376   -0.8858 C   0  0  0  0  0  0  0  0  0  0  0  0
    1.8285    1.4944    1.7434 S   0  0  0  0  0  0  0  0  0  0  0  0
  1  2  1  0
  1  6  1  0
  1  7  1  0
  1 10  1  6
  2  3  1  0
  2 11  2  0
  4  3  1  1
  4  5  1  0
  4  7  1  0
  5  6  1  0
  7  8  1  0
  7  9  1  0
M  END
>  <DRUGBANK_ID>  (1) 
DB02851

>  <SECONDARY_ACCESSION_NUMBERS>  (1) 
EXPT03025

>  <COMMON_NAME>  (1) 
Thiocamphor

>  <CAS_NUMBER>  (1) 
7519-74-6

>  <UNII>  (1) 
7WA22E7HFY

$$$$
