
     RDKit          3D

 16 16  0  0  1  0  0  0  0  0999 V2000
    1.0546   -0.1086    0.3487 C   0  0  0  0  0  0  0  0  0  0  0  0
    0.8570    0.9198   -0.7209 C   0  0  0  0  0  0  0  0  0  0  0  0
    1.5807    0.3696   -1.9587 C   0  0  0  0  0  0  0  0  0  0  0  0
    0.6493   -0.6029   -2.7522 C   0  0  0  0  0  0  0  0  0  0  0  0
   -0.9123   -0.3115   -2.8768 C   0  0  0  0  0  0  0  0  0  0  0  0
   -1.4573    0.7778   -3.7634 N   0  0  0  0  0  0  0  0  0  0  0  0
   -0.9704    0.5683   -5.1319 C   0  0  0  0  0  0  0  0  0  0  0  0
   -1.4839    1.6096   -6.1360 C   0  0  2  0  0  0  0  0  0  0  0  0
   -0.8994    1.3294   -7.4117 O   0  0  0  0  0  0  0  0  0  0  0  0
   -1.1329    3.0314   -5.6658 C   0  0  1  0  0  0  0  0  0  0  0  0
   -1.5440    4.0406   -6.5811 O   0  0  0  0  0  0  0  0  0  0  0  0
   -1.7541    3.2881   -4.2651 C   0  0  2  0  0  0  0  0  0  0  0  0
   -1.3650    4.5874   -3.7540 O   0  0  0  0  0  0  0  0  0  0  0  0
   -1.2653    2.2012   -3.2919 C   0  0  2  0  0  0  0  0  0  0  0  0
    0.2051    2.5717   -3.1850 C   0  0  0  0  0  0  0  0  0  0  0  0
    0.6119    3.3311   -2.0613 O   0  0  0  0  0  0  0  0  0  0  0  0
  1  2  1  0
  2  3  1  0
  3  4  1  0
  4  5  1  0
  5  6  1  0
  6  7  1  0
  8  7  1  0
  8  9  1  6
 10  8  1  0
 10 11  1  6
 10 12  1  0
 12 13  1  1
 12 14  1  0
 14  6  1  0
 14 15  1  6
 15 16  1  0
M  END
>  <DRUGBANK_ID>  (1) 
DB17619

>  <COMMON_NAME>  (1) 
Sinbaglustat

>  <CAS_NUMBER>  (1) 
441061-33-2

>  <UNII>  (1) 
T5Y7NB5M2U

>  <SYNONYMS>  (1) 
(2s,3r,4r,5s)-2-(hydroxymethyl)-1-pentyl-3,4,5-piperidinetriol; (2S,3R,4R,5S)-2-(Hydroxymethyl)-1-Pentylpiperidine-3,4,5-Triol; 3,4,5-piperidinetriol, 2-(hydroxymethyl)-1-pentyl-, (2s,3r,4r,5s)-; ACT-519276; OGT-2378; OGT2378; Sinbaglustat

$$$$
