CL3
     RDKit          3D

 26 29  0  0  0  0  0  0  0  0999 V2000
    0.9783    0.1074   -0.1345 O   0  0  0  0  0  0  0  0  0  0  0  0
    6.3703   -1.1764   -3.7254 N   0  0  0  0  0  0  0  0  0  0  0  0
    7.0802   -1.6641   -2.6636 N   0  0  0  0  0  0  0  0  0  0  0  0
    7.8560   -2.8029   -2.6281 C   0  0  0  0  0  0  0  0  0  0  0  0
    7.9454   -3.5639   -3.8128 C   0  0  0  0  0  0  0  0  0  0  0  0
    7.2750   -3.1620   -4.9022 C   0  0  0  0  0  0  0  0  0  0  0  0
    6.4706   -1.9104   -4.7899 C   0  0  0  0  0  0  0  0  0  0  0  0
    7.1897   -1.1031   -1.4112 C   0  0  0  0  0  0  0  0  0  0  0  0
    7.9834   -1.8602   -0.6719 N   0  0  0  0  0  0  0  0  0  0  0  0
    8.3927   -2.9354   -1.4351 N   0  0  0  0  0  0  0  0  0  0  0  0
    5.7481   -1.4874   -6.0064 C   0  0  0  0  0  0  0  0  0  0  0  0
    6.4942    0.1062   -0.9949 C   0  0  0  0  0  0  0  0  0  0  0  0
    5.1011    0.1752   -1.0971 C   0  0  0  0  0  0  0  0  0  0  0  0
    4.3858    1.2419   -0.5486 C   0  0  0  0  0  0  0  0  0  0  0  0
    5.0913    2.3152    0.0046 C   0  0  0  0  0  0  0  0  0  0  0  0
    6.4855    2.2706    0.0847 C   0  0  0  0  0  0  0  0  0  0  0  0
    7.1855    1.1743   -0.4227 C   0  0  0  0  0  0  0  0  0  0  0  0
    4.7747   -2.3174   -6.5675 C   0  0  0  0  0  0  0  0  0  0  0  0
    4.0369   -1.8656   -7.6617 C   0  0  0  0  0  0  0  0  0  0  0  0
    4.2571   -0.5856   -8.1744 C   0  0  0  0  0  0  0  0  0  0  0  0
    5.2117    0.2501   -7.5929 C   0  0  0  0  0  0  0  0  0  0  0  0
    5.9788   -0.2082   -6.5224 C   0  0  0  0  0  0  0  0  0  0  0  0
    2.9681    1.2028   -0.4941 N   0  0  0  0  0  0  0  0  0  0  0  0
    2.2362    2.4026   -0.8902 C   0  0  0  0  0  0  0  0  0  0  0  0
    2.2196    0.0913   -0.1060 C   0  0  0  0  0  0  0  0  0  0  0  0
    2.9043   -1.1578    0.4231 C   0  0  0  0  0  0  0  0  0  0  0  0
  1 25  2  0
  2  3  1  0
  2  7  2  0
  3  4  1  0
  3  8  1  0
  4  5  1  0
  4 10  2  0
  5  6  2  0
  6  7  1  0
  7 11  1  0
  8  9  2  0
  8 12  1  0
  9 10  1  0
 11 18  2  0
 11 22  1  0
 12 13  2  0
 12 17  1  0
 13 14  1  0
 14 15  2  0
 14 23  1  0
 15 16  1  0
 16 17  2  0
 18 19  1  0
 19 20  2  0
 20 21  1  0
 21 22  2  0
 23 24  1  0
 23 25  1  0
 25 26  1  0
M  END
>  <DRUGBANK_ID>  (1) 
DB04154

>  <SECONDARY_ACCESSION_NUMBERS>  (1) 
EXPT00933

>  <COMMON_NAME>  (1) 
N-Methyl-N-[3-(6-Phenyl[1,2,4]Triazolo[4,3-B]Pyridazin-3-Yl)Phenyl]Acetamide

$$$$
