
     RDKit          3D

 21 22  0  0  0  0  0  0  0  0999 V2000
    0.8524   -0.0133    0.0557 N   0  0  0  0  0  0  0  0  0  0  0  0
   -0.0327    1.7988   -3.0721 C   0  0  0  0  0  0  0  0  0  0  0  0
   -1.1925    2.4671   -2.7141 C   0  0  0  0  0  0  0  0  0  0  0  0
   -1.5981    2.4590   -1.3902 C   0  0  0  0  0  0  0  0  0  0  0  0
   -0.9092    1.6485   -0.4733 C   0  0  0  0  0  0  0  0  0  0  0  0
    0.1874    0.8605   -0.8641 C   0  0  0  0  0  0  0  0  0  0  0  0
    0.6736    0.9911   -2.1723 C   0  0  0  0  0  0  0  0  0  0  0  0
    1.7979    0.2788   -2.5148 O   0  0  0  0  0  0  0  0  0  0  0  0
    2.2575    0.3250   -3.8807 C   0  0  0  0  0  0  0  0  0  0  0  0
   -1.9963    3.0852   -3.7772 N   0  0  0  0  0  0  0  0  0  0  0  0
    0.0280   -0.9510    1.1690 S   0  0  0  0  0  0  0  0  0  0  0  0
    0.5274   -2.6113    0.7522 C   0  0  0  0  0  0  0  0  0  0  0  0
    0.5780   -0.6497    2.4679 O   0  0  0  0  0  0  0  0  0  0  0  0
   -1.4003   -0.8737    0.9184 O   0  0  0  0  0  0  0  0  0  0  0  0
    1.6527   -0.1208   -6.3185 C   0  0  0  0  0  0  0  0  0  0  0  0
    2.0326    1.3239   -6.6322 C   0  0  0  0  0  0  0  0  0  0  0  0
    3.1620    1.8186   -5.7323 C   0  0  0  0  0  0  0  0  0  0  0  0
    2.8019    1.7185   -4.2607 C   0  0  0  0  0  0  0  0  0  0  0  0
    1.2462   -0.3024   -4.8667 C   0  0  0  0  0  0  0  0  0  0  0  0
   -3.0552    3.6339   -3.4525 O   0  0  0  0  0  0  0  0  0  0  0  0
   -1.5844    2.9855   -4.9448 O   0  0  0  0  0  0  0  0  0  0  0  0
  1 11  1  0
  3  2  2  0
  4  3  1  0
  5  4  2  0
  6  1  1  0
  6  5  1  0
  7  2  1  0
  7  6  2  0
  8  7  1  0
  9  8  1  0
  9 19  1  0
 10  3  1  0
 10 20  2  0
 10 21  1  0
 11 12  1  0
 11 13  2  0
 14 11  2  0
 15 16  1  0
 15 19  1  0
 16 17  1  0
 17 18  1  0
 18  9  1  0
M  CHG  2  10   1  21  -1
M  END
>  <DRUGBANK_ID>  (1) 
DB14060

>  <COMMON_NAME>  (1) 
NS-398

>  <CAS_NUMBER>  (1) 
123653-11-2

>  <UNII>  (1) 
9SP55KM2KS

>  <SYNONYMS>  (1) 
N-(2-Cyclohexyloxy-4-nitrophenyl)methanesulfonamide

$$$$
