ENM
     RDKit          3D

 32 36  0  0  0  0  0  0  0  0999 V2000
   -2.4601    0.4329   -0.8245 C   0  0  0  0  0  0  0  0  0  0  0  0
   -2.9518   -0.5412    0.0403 C   0  0  0  0  0  0  0  0  0  0  0  0
   -3.2689   -0.2562    1.3200 F   0  0  0  0  0  0  0  0  0  0  0  0
   -3.2618   -1.7339   -0.4984 C   0  0  0  0  0  0  0  0  0  0  0  0
   -3.1509   -1.8544   -1.8908 C   0  0  0  0  0  0  0  0  0  0  0  0
   -3.2250   -3.0749   -2.4096 F   0  0  0  0  0  0  0  0  0  0  0  0
   -2.9621   -0.7891   -2.7859 C   0  0  0  0  0  0  0  0  0  0  0  0
   -2.7160    0.4457   -2.2727 C   0  0  0  0  0  0  0  0  0  0  0  0
   -2.8547    1.6375   -3.2988 C   0  0  0  0  0  0  0  0  0  0  0  0
   -1.5937    1.7554   -3.9129 O   0  0  0  0  0  0  0  0  0  0  0  0
   -0.7044    1.9912   -2.8340 C   0  0  0  0  0  0  0  0  0  0  0  0
   -1.2605    3.1268   -1.9714 C   0  0  0  0  0  0  0  0  0  0  0  0
   -2.7888    2.9443   -0.9829 C   0  0  1  0  0  0  0  0  0  0  0  0
   -1.9123    3.6531    0.3438 C   0  0  0  0  0  0  0  0  0  0  0  0
   -1.6682    5.1485    0.0579 C   0  0  0  0  0  0  0  0  0  0  0  0
   -3.0639    5.7474   -0.1829 C   0  0  1  0  0  0  0  0  0  0  0  0
   -3.1391    7.1854   -0.3209 C   0  0  1  0  0  0  0  0  0  0  0  0
   -2.4441    7.6521    1.5170 C   0  0  0  0  0  0  0  0  0  0  0  0
   -2.6026    7.7091   -1.7789 C   0  0  0  0  0  0  0  0  0  0  0  0
   -1.2897    7.9075   -1.3283 C   0  0  0  0  0  0  0  0  0  0  0  0
   -2.0793    8.9854   -0.1913 C   0  0  0  0  0  0  0  0  0  0  0  0
   -1.2631    9.6460    0.3751 O   0  0  0  0  0  0  0  0  0  0  0  0
   -3.9919    8.4892    0.4200 C   0  0  0  0  0  0  0  0  0  0  0  0
   -4.4889    7.9640   -0.7756 C   0  0  2  0  0  0  0  0  0  0  0  0
   -5.3222    7.1357   -1.6862 C   0  0  0  0  0  0  0  0  0  0  0  0
   -5.3894    5.7307   -1.2241 C   0  0  0  0  0  0  0  0  0  0  0  0
   -3.8726    5.2748   -1.3187 C   0  0  2  0  0  0  0  0  0  0  0  0
   -3.9230    3.8705   -1.0864 C   0  0  2  0  0  0  0  0  0  0  0  0
   -4.6599    3.5168    0.3192 C   0  0  0  0  0  0  0  0  0  0  0  0
   -4.7022    2.0439    0.4207 C   0  0  0  0  0  0  0  0  0  0  0  0
   -4.4492    1.8526   -1.0189 C   0  0  2  0  0  0  0  0  0  0  0  0
   -4.9168    0.5118   -1.3738 O   0  0  0  0  0  0  0  0  0  0  0  0
  1  8  2  0
  1  2  1  0
  2  4  2  0
  2  3  1  0
  4  5  1  0
  5  7  2  0
  5  6  1  0
  7  8  1  0
  8  9  1  0
  9 10  1  0
 10 11  1  0
 11 12  1  0
 13 31  1  0
 13 28  1  0
 13 14  1  0
 13 12  1  6
 14 15  1  0
 16 15  1  6
 16 27  1  0
 16 17  1  0
 17 24  1  0
 17 19  1  0
 17 18  1  1
 19 20  1  0
 20 21  1  0
 21 23  1  0
 21 22  2  0
 24 23  1  1
 24 25  1  0
 25 26  1  0
 27 26  1  1
 27 28  1  0
 28 29  1  1
 29 30  1  0
 30 31  1  0
 31 32  1  1
M  END
>  <DRUGBANK_ID>  (1) 
DB07717

>  <COMMON_NAME>  (1) 
(5S,8R,9S,10S,13R,14S,17S)-13-{2-[(3,5-DIFLUOROBENZYL)OXY]ETHYL}-17-HYDROXY-10-METHYLHEXADECAHYDRO-3H-CYCLOPENTA[A]PHENANTHREN-3-ONE

$$$$
