
     RDKit          3D

 28 31  0  0  0  0  0  0  0  0999 V2000
    2.2092   -1.3592   -0.7151 C   0  0  0  0  0  0  0  0  0  0  0  0
    3.6966   -1.2765   -0.3853 C   0  0  0  0  0  0  0  0  0  0  0  0
    4.1927    0.1659   -0.4501 C   0  0  1  0  0  0  0  0  0  0  0  0
    3.3706    1.0841    0.4566 C   0  0  0  0  0  0  0  0  0  0  0  0
    1.8938    0.9518    0.2012 C   0  0  0  0  0  0  0  0  0  0  0  0
    1.1437    2.0620   -0.0212 C   0  0  0  0  0  0  0  0  0  0  0  0
    1.3176   -0.4668    0.1949 C   0  0  2  0  0  0  0  0  0  0  0  0
   -0.8477   -1.8446   -0.2754 C   0  0  0  0  0  0  0  0  0  0  0  0
   -2.3097   -1.7929   -0.7222 C   0  0  0  0  0  0  0  0  0  0  0  0
   -3.0728   -0.6745    0.0273 C   0  0  1  0  0  0  0  0  0  0  0  0
   -2.3861    0.6356   -0.4037 C   0  0  1  0  0  0  0  0  0  0  0  0
   -3.3623    1.7338   -0.0186 C   0  0  0  0  0  0  0  0  0  0  0  0
   -4.7259    1.1327   -0.3275 C   0  0  0  0  0  0  0  0  0  0  0  0
   -4.5154   -0.3983   -0.4952 C   0  0  2  0  0  0  0  0  0  0  0  0
   -2.9733   -0.8512    1.5658 C   0  0  0  0  0  0  0  0  0  0  0  0
    1.3389   -1.0105    1.6455 C   0  0  0  0  0  0  0  0  0  0  0  0
    5.5651    0.2089   -0.0668 O   0  0  0  0  0  0  0  0  0  0  0  0
   -0.1335   -0.4741   -0.3985 C   0  0  1  0  0  0  0  0  0  0  0  0
   -6.0478   -0.8150    1.5142 C   0  0  0  0  0  0  0  0  0  0  0  0
   -0.9667    0.7194    0.1475 C   0  0  1  0  0  0  0  0  0  0  0  0
   -0.3291    2.0522   -0.2290 C   0  0  0  0  0  0  0  0  0  0  0  0
   -4.8392   -3.5908    0.8450 C   0  0  0  0  0  0  0  0  0  0  0  0
   -5.4481   -3.6610    2.2480 C   0  0  0  0  0  0  0  0  0  0  0  0
   -6.8982   -4.1227    2.2094 C   0  0  0  0  0  0  0  0  0  0  0  0
   -6.8866   -5.5941    1.8334 C   0  0  0  0  0  0  0  0  0  0  0  0
   -5.5707   -2.7213   -0.1937 C   0  0  0  0  0  0  0  0  0  0  0  0
   -5.7079   -1.1987    0.0723 C   0  0  2  0  0  0  0  0  0  0  0  0
   -7.5635   -3.8515    3.5516 C   0  0  0  0  0  0  0  0  0  0  0  0
  1  7  1  0
  2  1  1  0
  3  4  1  0
  3  2  1  0
  3 17  1  1
  4  5  1  0
  5  7  1  0
  6 21  1  0
  6  5  2  0
  7 18  1  0
  7 16  1  1
 18  8  1  1
  8  9  1  0
  9 10  1  0
 10 15  1  1
 11 10  1  0
 11 12  1  1
 14 13  1  1
 13 12  1  0
 14 10  1  0
 14 27  1  0
 20 11  1  0
 20 18  1  0
 20 21  1  6
 23 22  1  0
 24 23  1  0
 25 24  1  0
 26 22  1  0
 27 26  1  0
 27 19  1  1
 28 24  1  0
M  END
>  <DRUGBANK_ID>  (1) 
DB04540

>  <SECONDARY_ACCESSION_NUMBERS>  (1) 
EXPT00945

>  <COMMON_NAME>  (1) 
Cholesterol

>  <CAS_NUMBER>  (1) 
57-88-5

>  <UNII>  (1) 
97C5T2UQ7J

>  <SYNONYMS>  (1) 
(3β,14β,17α)-cholest-5-en-3-ol; Cholest-5-en-3beta-ol; Cholesterin; Cholesterol

$$$$
