
     RDKit          3D

 19 20  0  0  0  0  0  0  0  0999 V2000
    0.9856   -0.0699    0.0538 C   0  0  0  0  0  0  0  0  0  0  0  0
    0.4873    0.8195   -1.0995 C   0  0  0  0  0  0  0  0  0  0  0  0
    1.6172    1.5569   -1.8223 C   0  0  0  0  0  0  0  0  0  0  0  0
    2.3993    2.7516   -0.7750 S   0  0  0  0  0  0  0  0  0  0  0  0
    2.9690    2.0940    0.3789 O   0  0  0  0  0  0  0  0  0  0  0  0
    3.2344    3.5994   -1.6131 O   0  0  0  0  0  0  0  0  0  0  0  0
    0.9964    3.6949   -0.2596 C   0  0  0  0  0  0  0  0  0  0  0  0
   -0.0656    2.7742    0.3170 C   0  0  0  0  0  0  0  0  0  0  0  0
   -0.5519    1.7664   -0.6560 N   0  0  0  0  0  0  0  0  0  0  0  0
   -1.8814    1.7706   -0.9873 N   0  0  0  0  0  0  0  0  0  0  0  0
   -2.4188    0.8179   -1.6939 C   0  0  0  0  0  0  0  0  0  0  0  0
   -3.8297    0.8534   -2.0451 C   0  0  0  0  0  0  0  0  0  0  0  0
   -4.6382    1.9219   -2.3964 C   0  0  0  0  0  0  0  0  0  0  0  0
   -5.9419    1.4209   -2.6158 C   0  0  0  0  0  0  0  0  0  0  0  0
   -5.8621    0.0693   -2.3892 C   0  0  0  0  0  0  0  0  0  0  0  0
   -4.5812   -0.3123   -2.0782 O   0  0  0  0  0  0  0  0  0  0  0  0
   -6.8997   -0.9228   -2.4286 N   0  0  0  0  0  0  0  0  0  0  0  0
   -6.6039   -2.0972   -2.1817 O   0  0  0  0  0  0  0  0  0  0  0  0
   -8.0345   -0.5068   -2.7108 O   0  0  0  0  0  0  0  0  0  0  0  0
  1  2  1  0
  2  3  1  0
  2  9  1  0
  3  4  1  0
  4  5  2  0
  4  6  2  0
  4  7  1  0
  7  8  1  0
  8  9  1  0
  9 10  1  0
 10 11  2  0
 11 12  1  0
 12 13  2  0
 12 16  1  0
 13 14  1  0
 14 15  2  0
 15 16  1  0
 15 17  1  0
 17 18  2  0
 17 19  1  0
M  CHG  2  17   1  19  -1
M  END
>  <DRUGBANK_ID>  (1) 
DB11820

>  <COMMON_NAME>  (1) 
Nifurtimox

>  <CAS_NUMBER>  (1) 
23256-30-6

>  <UNII>  (1) 
M84I3K7C2O

>  <SYNONYMS>  (1) 
Nifurtimox; Nifurtimoxum

$$$$
