
     RDKit          3D

 26 30  0  0  1  0  0  0  0  0999 V2000
    1.1523   -0.0779    0.5843 C   0  0  0  0  0  0  0  0  0  0  0  0
    0.4494    1.2028    0.9454 C   0  0  0  0  0  0  0  0  0  0  0  0
    0.8566    2.3005   -0.0280 C   0  0  0  0  0  0  0  0  0  0  0  0
    0.3184    2.2144   -1.4222 N   0  0  0  0  0  0  0  0  0  0  0  0
    0.0308    1.0495   -2.2217 C   0  0  0  0  0  0  0  0  0  0  0  0
   -0.4453    1.1548   -3.4853 C   0  0  0  0  0  0  0  0  0  0  0  0
   -0.8188    2.4100   -4.0119 C   0  0  0  0  0  0  0  0  0  0  0  0
   -1.5831    2.4567   -4.9886 O   0  0  0  0  0  0  0  0  0  0  0  0
   -0.3183    3.5347   -3.3444 N   0  0  0  0  0  0  0  0  0  0  0  0
    0.1822    3.4993   -2.0323 C   0  0  0  0  0  0  0  0  0  0  0  0
    0.4572    4.5457   -1.4297 O   0  0  0  0  0  0  0  0  0  0  0  0
   -0.5062    4.8586   -3.9752 C   0  0  0  0  0  0  0  0  0  0  0  0
    0.3899    5.0753   -5.2113 C   0  0  0  0  0  0  0  0  0  0  0  0
    0.1706    4.0460   -6.3067 C   0  0  0  0  0  0  0  0  0  0  0  0
   -0.5665   -0.1392   -4.0289 N   0  0  0  0  0  0  0  0  0  0  0  0
   -0.2514   -1.0744   -3.0535 C   0  0  0  0  0  0  0  0  0  0  0  0
    0.0234   -0.3229   -1.9682 N   0  0  0  0  0  0  0  0  0  0  0  0
    0.0031   -2.6889   -3.0276 C   0  0  2  0  0  0  0  0  0  0  0  0
   -0.7943   -3.3279   -1.8451 C   0  0  0  0  0  0  0  0  0  0  0  0
   -0.3876   -4.8093   -1.8764 C   0  0  2  0  0  0  0  0  0  0  0  0
    1.1451   -4.9674   -1.6855 C   0  0  0  0  0  0  0  0  0  0  0  0
    1.9515   -4.1297   -2.7064 C   0  0  2  0  0  0  0  0  0  0  0  0
    1.5128   -2.6878   -2.6343 C   0  0  0  0  0  0  0  0  0  0  0  0
    1.5193   -4.4505   -4.1268 C   0  0  0  0  0  0  0  0  0  0  0  0
    0.0225   -4.0087   -4.0884 C   0  0  1  0  0  0  0  0  0  0  0  0
   -0.7434   -5.1490   -3.3131 C   0  0  0  0  0  0  0  0  0  0  0  0
  1  2  1  0
  2  3  1  0
  3  4  1  0
  4  5  1  0
  4 10  1  0
  5  6  2  0
  5 17  1  0
  6  7  1  0
  6 15  1  0
  7  8  2  0
  7  9  1  0
  9 10  1  0
  9 12  1  0
 10 11  2  0
 12 13  1  0
 13 14  1  0
 15 16  1  0
 16 17  2  0
 18 16  1  6
 18 19  1  0
 18 23  1  0
 18 25  1  0
 20 19  1  6
 20 21  1  0
 20 26  1  0
 22 21  1  1
 22 23  1  0
 22 24  1  0
 25 24  1  1
 25 26  1  0
M  END
>  <DRUGBANK_ID>  (1) 
DB12670

>  <SECONDARY_ACCESSION_NUMBERS>  (1) 
DB05360

>  <COMMON_NAME>  (1) 
Rolofylline

>  <CAS_NUMBER>  (1) 
136199-02-5

>  <UNII>  (1) 
7805S5HIHX

>  <SYNONYMS>  (1) 
Rolofylline

$$$$
