
     RDKit          3D

 17 16  0  0  1  0  0  0  0  0999 V2000
   -0.4458   -5.1952    4.6117 C   0  0  0  0  0  0  0  0  0  0  0  0
   -1.5686   -6.2769    4.8889 C   0  0  0  0  0  0  0  0  0  0  0  0
   -0.1029   -5.0459    3.1363 C   0  0  0  0  0  0  0  0  0  0  0  0
   -3.0529   -5.9872    4.4999 C   0  0  1  0  0  0  0  0  0  0  0  0
   -3.3033   -6.0580    3.0210 C   0  0  0  0  0  0  0  0  0  0  0  0
   -3.9930   -6.9917    5.0208 N   0  0  0  0  0  0  0  0  0  0  0  0
    1.0629   -2.2081    0.9343 N   0  0  0  0  0  0  0  0  0  0  0  0
    0.5437   -3.8832    2.4919 N   0  0  0  0  0  0  0  0  0  0  0  0
   -0.8567   -3.0424    0.0436 N   0  0  0  0  0  0  0  0  0  0  0  0
   -3.8190   -6.9382    2.3464 O   0  0  0  0  0  0  0  0  0  0  0  0
   -2.8095   -4.9863    2.4761 O   0  0  0  0  0  0  0  0  0  0  0  0
   -0.0466   -5.3315    0.6324 O   0  0  0  0  0  0  0  0  0  0  0  0
   -2.4934   -2.7386    1.8136 O   0  0  0  0  0  0  0  0  0  0  0  0
   -3.2762   -2.5625   -0.4761 O   0  0  0  0  0  0  0  0  0  0  0  0
   -2.5709   -4.8157    0.2973 O   0  0  0  0  0  0  0  0  0  0  0  0
    0.4695   -3.8785    0.7728 P   0  0  1  0  0  0  0  0  0  0  0  0
   -2.4150   -3.3693    0.3266 S   0  0  0  0  0  0  0  0  0  0  0  0
  2  1  1  0
  3  1  1  0
  4  2  1  0
  4  6  1  1
  5  4  1  0
  8  3  1  0
 10  5  2  0
 11  5  1  0
 16  9  1  0
 16 12  2  0
 16  8  1  0
 16  7  1  0
 17  9  1  0
 17 13  1  0
 17 14  2  0
 17 15  2  0
M  END
>  <DRUGBANK_ID>  (1) 
DB02965

>  <SECONDARY_ACCESSION_NUMBERS>  (1) 
EXPT02674

>  <COMMON_NAME>  (1) 
Ndelta-(N'-Sulphodiaminophosphinyl)-L-Ornithine

$$$$
