
     RDKit          3D

 22 26  0  0  0  0  0  0  0  0999 V2000
    1.3093   -0.4492    0.3205 C   0  0  0  0  0  0  0  0  0  0  0  0
   -0.0286   -0.0415    0.2255 C   0  0  0  0  0  0  0  0  0  0  0  0
    1.6572   -1.7866    0.1446 C   0  0  0  0  0  0  0  0  0  0  0  0
   -1.0379   -0.9780   -0.0396 C   0  0  0  0  0  0  0  0  0  0  0  0
    0.6583   -2.7169   -0.1481 C   0  0  0  0  0  0  0  0  0  0  0  0
   -0.6783   -2.3141   -0.2482 C   0  0  0  0  0  0  0  0  0  0  0  0
    2.0942    1.7457   -0.2937 N   0  0  0  0  0  0  0  0  0  0  0  0
    0.7099    2.1877   -0.4143 C   0  0  0  0  0  0  0  0  0  0  0  0
    2.3592    0.5977    0.4448 C   0  0  0  0  0  0  0  0  0  0  0  0
   -0.3121    1.4273    0.4149 C   0  0  1  0  0  0  0  0  0  0  0  0
   -1.7195    1.8138   -0.0626 C   0  0  0  0  0  0  0  0  0  0  0  0
   -2.7197    0.8151    0.4943 C   0  0  0  0  0  0  0  0  0  0  0  0
   -2.4800   -0.5505   -0.1536 C   0  0  0  0  0  0  0  0  0  0  0  0
    3.3842    0.4011    1.0900 O   0  0  0  0  0  0  0  0  0  0  0  0
    3.1757    2.4183   -1.0632 C   0  0  2  0  0  0  0  0  0  0  0  0
    3.3109    3.9219   -0.7222 C   0  0  0  0  0  0  0  0  0  0  0  0
    3.0388    2.2862   -2.6235 C   0  0  0  0  0  0  0  0  0  0  0  0
    3.1473    4.7928   -1.9181 N   0  0  0  0  0  0  0  0  0  0  0  0
    1.8269    3.0703   -3.1588 C   0  0  0  0  0  0  0  0  0  0  0  0
    1.8566    4.4930   -2.5804 C   0  0  0  0  0  0  0  0  0  0  0  0
    4.2332    3.0102   -3.2938 C   0  0  0  0  0  0  0  0  0  0  0  0
    4.2383    4.4917   -2.8703 C   0  0  0  0  0  0  0  0  0  0  0  0
  1  9  1  0
  2  1  1  0
  2 10  1  0
  3  1  2  0
  4  2  2  0
  5  3  1  0
  6  4  1  0
  6  5  2  0
  8  7  1  0
  9  7  1  0
  9 14  2  0
 10  8  1  6
 11 10  1  0
 12 11  1  0
 13 12  1  0
 13  4  1  0
 15  7  1  1
 16 15  1  0
 17 15  1  0
 17 21  1  0
 18 16  1  0
 19 17  1  0
 20 18  1  0
 20 19  1  0
 21 22  1  0
 22 18  1  0
M  END
>  <DRUGBANK_ID>  (1) 
DB00377

>  <SECONDARY_ACCESSION_NUMBERS>  (1) 
APRD00351

>  <COMMON_NAME>  (1) 
Palonosetron

>  <CAS_NUMBER>  (1) 
135729-56-5

>  <UNII>  (1) 
5D06587D6R

>  <SYNONYMS>  (1) 
(3aS)-2-[(3S)-1-azabicyclo[2.2.2]octan-3-yl]-2,3,3a,4,5,6-hexahydro-1H-benzo[de]isoquinolin-1-one; 2-(1-Azabicyclo(2.2.2)oct-3-yl)-2,3,3a,4,5,6-hexahydro-1H-benz(de)isoquinolin-1-one; Palonosetron; Palonosétron; Palonosetrón; Palonosetronum

$$$$
