
     RDKit          3D

 17 19  0  0  0  0  0  0  0  0999 V2000
   -2.9030   -1.5251    0.0018 C   0  0  0  0  0  0  0  0  0  0  0  0
   -1.5089   -1.5671   -0.0004 C   0  0  0  0  0  0  0  0  0  0  0  0
   -0.7367   -0.3911   -0.0010 C   0  0  0  0  0  0  0  0  0  0  0  0
    0.7284   -0.4040   -0.0010 C   0  0  0  0  0  0  0  0  0  0  0  0
    1.5028   -1.5769   -0.0012 C   0  0  0  0  0  0  0  0  0  0  0  0
    2.9005   -1.5324   -0.0005 C   0  0  0  0  0  0  0  0  0  0  0  0
    3.5453   -0.3031    0.0001 C   0  0  0  0  0  0  0  0  0  0  0  0
    2.8143    0.8777    0.0006 C   0  0  0  0  0  0  0  0  0  0  0  0
    1.4181    0.8100   -0.0000 C   0  0  0  0  0  0  0  0  0  0  0  0
    0.7171    2.0362    0.0007 O   0  0  0  0  0  0  0  0  0  0  0  0
   -0.6715    2.1162    0.0007 C   0  0  0  0  0  0  0  0  0  0  0  0
   -1.2558    3.1957    0.0022 O   0  0  0  0  0  0  0  0  0  0  0  0
   -1.4213    0.8348   -0.0007 C   0  0  0  0  0  0  0  0  0  0  0  0
   -2.8301    0.8810   -0.0014 C   0  0  0  0  0  0  0  0  0  0  0  0
   -3.5549   -0.3038   -0.0003 C   0  0  0  0  0  0  0  0  0  0  0  0
   -4.9166   -0.3240   -0.0019 O   0  0  0  0  0  0  0  0  0  0  0  0
    4.9056   -0.2214    0.0001 O   0  0  0  0  0  0  0  0  0  0  0  0
  1  2  2  0
  1 15  1  0
  2  3  1  0
  3  4  1  0
  3 13  2  0
  4  5  2  0
  4  9  1  0
  5  6  1  0
  6  7  2  0
  7  8  1  0
  7 17  1  0
  8  9  2  0
  9 10  1  0
 10 11  1  0
 11 12  2  0
 11 13  1  0
 13 14  1  0
 14 15  2  0
 15 16  1  0
M  END
>  <DRUGBANK_ID>  (1) 
DB15464

>  <COMMON_NAME>  (1) 
Urolithin A

>  <CAS_NUMBER>  (1) 
1143-70-0

>  <UNII>  (1) 
ILJ8NEF6DT

>  <SYNONYMS>  (1) 
3,8-Dihydroxyurolithin; 3,8-Hydroxydibenzo-alpha-pyrone

$$$$
