
     RDKit          3D

 22 22  0  0  0  0  0  0  0  0999 V2000
    1.3749   -0.1961   -0.0076 C   0  0  0  0  0  0  0  0  0  0  0  0
    0.9132    1.1306   -0.0562 C   0  0  0  0  0  0  0  0  0  0  0  0
   -0.4738    1.2892    0.0320 C   0  0  0  0  0  0  0  0  0  0  0  0
   -1.3595    0.2140   -0.0068 C   0  0  0  0  0  0  0  0  0  0  0  0
   -0.8838   -1.0904   -0.0255 C   0  0  0  0  0  0  0  0  0  0  0  0
    0.4972   -1.2921    0.0017 C   0  0  0  0  0  0  0  0  0  0  0  0
   -1.7939   -2.2725   -0.0169 C   0  0  0  0  0  0  0  0  0  0  0  0
   -3.3114   -2.0579    0.0592 C   0  0  1  0  0  0  0  0  0  0  0  0
   -4.0070   -2.8204   -1.0707 C   0  0  0  0  0  0  0  0  0  0  0  0
   -4.9494   -3.7899   -0.9825 C   0  0  0  0  0  0  0  0  0  0  0  0
   -5.5221   -4.4156   -2.1756 C   0  0  0  0  0  0  0  0  0  0  0  0
   -6.4488   -5.3896   -2.1350 C   0  0  0  0  0  0  0  0  0  0  0  0
   -7.0242   -6.0288   -3.3280 C   0  0  0  0  0  0  0  0  0  0  0  0
    1.7656    2.2168   -0.1810 N   0  0  0  0  0  0  0  0  0  0  0  0
    1.2804    3.5779   -0.3968 C   0  0  0  0  0  0  0  0  0  0  0  0
    3.1922    2.0090   -0.4176 C   0  0  0  0  0  0  0  0  0  0  0  0
   -1.2982   -3.4000    0.0159 O   0  0  0  0  0  0  0  0  0  0  0  0
   -5.4520   -4.2795    0.3493 C   0  0  0  0  0  0  0  0  0  0  0  0
   -7.9480   -6.9941   -3.0211 N   0  0  0  0  0  0  0  0  0  0  0  0
   -6.7133   -5.7274   -4.4792 O   0  0  0  0  0  0  0  0  0  0  0  0
   -8.5562   -7.6616   -4.1043 O   0  0  0  0  0  0  0  0  0  0  0  0
   -3.6942   -2.3784    1.5025 C   0  0  0  0  0  0  0  0  0  0  0  0
  1  2  2  0
  2 14  1  0
  2  3  1  0
  3  4  2  0
  4  5  1  0
  5  6  2  0
  5  7  1  0
  6  1  1  0
  7  8  1  0
  7 17  2  0
  8  9  1  0
  8 22  1  1
  9 10  2  0
 10 11  1  0
 10 18  1  0
 11 12  2  0
 12 13  1  0
 13 19  1  0
 13 20  2  0
 14 15  1  0
 14 16  1  0
 19 21  1  0
M  END
>  <DRUGBANK_ID>  (1) 
DB04297

>  <SECONDARY_ACCESSION_NUMBERS>  (1) 
EXPT03123

>  <COMMON_NAME>  (1) 
Trichostatin A

>  <CAS_NUMBER>  (1) 
58880-19-6

>  <UNII>  (1) 
3X2S926L3Z

>  <SYNONYMS>  (1) 
TSA

$$$$
