
     RDKit          3D

 16 18  0  0  0  0  0  0  0  0999 V2000
    1.1031   -0.0626   -0.0486 C   0  0  0  0  0  0  0  0  0  0  0  0
    6.1054    5.6812   -3.0187 C   0  0  0  0  0  0  0  0  0  0  0  0
    3.1281    6.6126   -1.1629 C   0  0  0  0  0  0  0  0  0  0  0  0
    2.0273    6.0493   -0.5052 C   0  0  0  0  0  0  0  0  0  0  0  0
   -0.2637    4.0360    0.8804 C   0  0  0  0  0  0  0  0  0  0  0  0
   -1.0504    2.7715    1.2625 C   0  0  0  0  0  0  0  0  0  0  0  0
    3.9684    4.4115   -1.7487 C   0  0  0  0  0  0  0  0  0  0  0  0
    0.6134    1.3219    0.2703 C   0  0  0  0  0  0  0  0  0  0  0  0
    4.0892    5.8070   -1.7782 C   0  0  0  0  0  0  0  0  0  0  0  0
    1.8944    4.6497   -0.4710 C   0  0  0  0  0  0  0  0  0  0  0  0
    0.9498    3.7573    0.0903 C   0  0  0  0  0  0  0  0  0  0  0  0
    2.8624    3.8625   -1.0902 C   0  0  0  0  0  0  0  0  0  0  0  0
    1.3439    2.4698   -0.1841 C   0  0  0  0  0  0  0  0  0  0  0  0
   -0.4847    1.4478    0.9334 N   0  0  0  0  0  0  0  0  0  0  0  0
    2.5031    2.5426   -0.9090 N   0  0  0  0  0  0  0  0  0  0  0  0
    5.1155    6.4859   -2.3857 O   0  0  0  0  0  0  0  0  0  0  0  0
  4  3  2  0
  6  5  1  0
  8  1  1  0
  9  3  1  0
  9  7  2  0
 10  4  1  0
 11  5  1  0
 11 10  1  0
 12  7  1  0
 12 10  2  0
 13  8  1  0
 13 11  2  0
 14  6  1  0
 14  8  2  0
 15 12  1  0
 15 13  1  0
 16  2  1  0
 16  9  1  0
M  END
>  <DRUGBANK_ID>  (1) 
DB13875

>  <COMMON_NAME>  (1) 
Harmaline

>  <CAS_NUMBER>  (1) 
304-21-2

>  <UNII>  (1) 
CN58I4TOET

$$$$
