
     RDKit          3D

 26 28  0  0  0  0  0  0  0  0999 V2000
   -0.0104   -0.6488    0.0013 C   0  0  0  0  0  0  0  0  0  0  0  0
   -0.1379    0.7303    0.0031 C   0  0  0  0  0  0  0  0  0  0  0  0
    1.2092   -1.3499    0.0019 N   0  0  0  0  0  0  0  0  0  0  0  0
   -1.2062   -1.3805    0.0071 C   0  0  0  0  0  0  0  0  0  0  0  0
   -1.3762    1.3870    0.0152 C   0  0  0  0  0  0  0  0  0  0  0  0
    1.2916    1.7119   -0.0299 S   0  0  0  0  0  0  0  0  0  0  0  0
    2.3595   -0.7545    0.0340 C   0  0  0  0  0  0  0  0  0  0  0  0
   -2.4739   -0.7511    0.0153 C   0  0  0  0  0  0  0  0  0  0  0  0
   -2.5590    0.6430    0.0236 C   0  0  0  0  0  0  0  0  0  0  0  0
    2.5206    0.6297    0.0338 N   0  0  0  0  0  0  0  0  0  0  0  0
    1.3526    2.3577   -1.3154 O   0  0  0  0  0  0  0  0  0  0  0  0
    1.3332    2.4569    1.2128 O   0  0  0  0  0  0  0  0  0  0  0  0
    3.6683   -1.5230    0.0683 C   0  0  0  0  0  0  0  0  0  0  0  0
   -3.8314   -1.8131    0.0076 Cl  0  0  0  0  0  0  0  0  0  0  0  0
   -4.0767    1.5565   -0.0564 S   0  0  0  0  0  0  0  0  0  0  0  0
    3.7658   -2.6354    1.5113 S   0  0  0  0  0  0  0  0  0  0  0  0
   -4.0421    2.4960    1.3495 N   0  0  0  0  0  0  0  0  0  0  0  0
   -3.9773    2.4765   -1.1659 O   0  0  0  0  0  0  0  0  0  0  0  0
   -5.2251    0.7073    0.1281 O   0  0  0  0  0  0  0  0  0  0  0  0
    3.6988   -1.4520    2.9140 C   0  0  0  0  0  0  0  0  0  0  0  0
    4.8242   -0.4483    2.9245 C   0  0  0  0  0  0  0  0  0  0  0  0
    4.5606    0.9217    3.0666 C   0  0  0  0  0  0  0  0  0  0  0  0
    6.1586   -0.8649    2.8060 C   0  0  0  0  0  0  0  0  0  0  0  0
    5.5822    1.8552    2.8814 C   0  0  0  0  0  0  0  0  0  0  0  0
    7.1915    0.0673    2.7331 C   0  0  0  0  0  0  0  0  0  0  0  0
    6.8949    1.4264    2.6966 C   0  0  0  0  0  0  0  0  0  0  0  0
  1  2  2  0
  1  3  1  0
  1  4  1  0
  2  5  1  0
  2  6  1  0
  3  7  2  0
  4  8  2  0
  5  9  2  0
  6 10  1  0
  6 11  2  0
  6 12  2  0
  7 13  1  0
  7 10  1  0
  8 14  1  0
  8  9  1  0
  9 15  1  0
 13 16  1  0
 15 17  1  0
 15 18  2  0
 15 19  2  0
 16 20  1  0
 20 21  1  0
 21 22  2  0
 21 23  1  0
 22 24  1  0
 23 25  2  0
 24 26  2  0
 25 26  1  0
M  END
>  <DRUGBANK_ID>  (1) 
DB00562

>  <SECONDARY_ACCESSION_NUMBERS>  (1) 
APRD00728

>  <COMMON_NAME>  (1) 
Benzthiazide

>  <CAS_NUMBER>  (1) 
91-33-8

>  <UNII>  (1) 
1TD8J48L61

>  <SYNONYMS>  (1) 
3-((benzylthio)methyl)-6-chloro-7-sulfamoyl-2H-benzo-1,2,4-thiadiazine 1,1-dioxide; 3-benzylthiomethyl-6-chloro-2H-1,2,4-benzothiadiazine-7-sulfonamide 1,1-dioxide; 3-benzylthiomethyl-6-chloro-7-sulfamoyl-1,2,4-benzothiadiazine 1,1-dioxide; 6-chloro-1,1-dioxo-3-(phenylmethylsulfanylmethyl)-4H-benzo[e][1,2,4]thiadiazine-7-sulfonamide; 6-chloro-7-sulfamoyl-3-benzylthiomethyl-2H-1,2,4-benzothiadiazine 1,1-dioxide; Benzothiazide; Benzotiazida; Benzthiazid; Benzthiazide; Benzthiazidum; Benztiazide

$$$$
