LSR
     RDKit          3D

 15 15  0  0  0  0  0  0  0  0999 V2000
    1.1070   -0.1139    0.0097 C   0  0  0  0  0  0  0  0  0  0  0  0
    0.5966   -0.2612    1.4056 C   0  0  0  0  0  0  0  0  0  0  0  0
   -0.1393    0.6164    2.1062 C   0  0  0  0  0  0  0  0  0  0  0  0
   -0.6385    1.9240    1.5268 C   0  0  0  0  0  0  0  0  0  0  0  0
   -0.5451    0.3672    3.4953 C   0  0  0  0  0  0  0  0  0  0  0  0
   -0.3792   -0.7654    4.2058 C   0  0  0  0  0  0  0  0  0  0  0  0
   -0.9814   -1.0270    5.5195 C   0  0  0  0  0  0  0  0  0  0  0  0
   -2.3031   -0.7998    5.7297 C   0  0  0  0  0  0  0  0  0  0  0  0
   -3.2992   -0.3705    4.6743 C   0  0  0  0  0  0  0  0  0  0  0  0
   -2.9635   -0.9818    7.0770 C   0  0  0  0  0  0  0  0  0  0  0  0
   -1.9954   -1.1947    8.2296 C   0  0  0  0  0  0  0  0  0  0  0  0
   -0.9197   -2.1838    7.8169 C   0  0  0  0  0  0  0  0  0  0  0  0
   -0.0763   -1.6618    6.6152 C   0  0  0  0  0  0  0  0  0  0  0  0
    0.7260   -2.8847    6.1062 C   0  0  0  0  0  0  0  0  0  0  0  0
    0.9315   -0.6153    7.1354 C   0  0  0  0  0  0  0  0  0  0  0  0
  1  2  1  0
  2  3  2  0
  3  4  1  0
  3  5  1  0
  5  6  2  0
  6  7  1  0
  7  8  2  0
  7 13  1  0
  8  9  1  0
  8 10  1  0
 10 11  1  0
 11 12  1  0
 12 13  1  0
 13 14  1  0
 13 15  1  0
M  END
>  <DRUGBANK_ID>  (1) 
DB08127

>  <COMMON_NAME>  (1) 
1,3,3-trimethyl-2-[(1E,3E)-3-methylpenta-1,3-dien-1-yl]cyclohexene

$$$$
