AT5
     RDKit          3D

 23 23  0  0  0  0  0  0  0  0999 V2000
    3.2600    2.7984   -1.9297 O   0  0  0  0  0  0  0  0  0  0  0  0
    3.6188    3.6701   -1.1354 C   0  0  0  0  0  0  0  0  0  0  0  0
    3.6630    3.4228    0.3586 C   0  0  2  0  0  0  0  0  0  0  0  0
    3.8249    1.8656    0.6051 C   0  0  0  0  0  0  0  0  0  0  0  0
    2.6681    0.9176    1.0248 C   0  0  2  0  0  0  0  0  0  0  0  0
    2.3457   -0.0930   -0.0945 C   0  0  0  0  0  0  0  0  0  0  0  0
    1.4669    1.6896    1.5396 C   0  0  1  0  0  0  0  0  0  0  0  0
   -0.0052    0.6665    1.7776 Cl  0  0  0  0  0  0  0  0  0  0  0  0
    1.7165    2.4158    2.8960 C   0  0  0  0  0  0  0  0  0  0  0  0
    3.3862    2.8574    3.4613 Cl  0  0  0  0  0  0  0  0  0  0  0  0
    2.5563    4.3760    0.9080 C   0  0  0  0  0  0  0  0  0  0  0  0
    3.8638    5.0663   -1.5848 C   0  0  0  0  0  0  0  0  0  0  0  0
    5.0275    5.8620   -1.1165 C   0  0  0  0  0  0  0  0  0  0  0  0
    5.0562    7.1608   -1.5522 N   0  0  0  0  0  0  0  0  0  0  0  0
    4.0834    7.7625   -2.3030 C   0  0  0  0  0  0  0  0  0  0  0  0
    2.9714    7.0690   -2.6736 C   0  0  0  0  0  0  0  0  0  0  0  0
    2.8664    5.6645   -2.2583 C   0  0  0  0  0  0  0  0  0  0  0  0
    1.6852    4.9656   -2.4319 O   0  0  0  0  0  0  0  0  0  0  0  0
    2.0085    7.7167   -3.4077 O   0  0  0  0  0  0  0  0  0  0  0  0
    0.7938    7.1992   -3.8883 C   0  0  0  0  0  0  0  0  0  0  0  0
    4.4015    9.0726   -2.5793 O   0  0  0  0  0  0  0  0  0  0  0  0
    3.4793    9.8339   -3.3540 C   0  0  0  0  0  0  0  0  0  0  0  0
    5.8922    5.4118   -0.3904 O   0  0  0  0  0  0  0  0  0  0  0  0
  1  2  2  0
  2 12  1  0
  3 11  1  1
  3  4  1  0
  3  2  1  0
  5  7  1  0
  5  6  1  6
  5  4  1  0
  7  8  1  0
  7  9  1  1
  9 10  1  0
 12 13  1  0
 12 17  2  0
 13 14  1  0
 13 23  2  0
 14 15  1  0
 15 16  2  0
 15 21  1  0
 16 17  1  0
 16 19  1  0
 17 18  1  0
 19 20  1  0
 21 22  1  0
M  END
>  <DRUGBANK_ID>  (1) 
DB04631

>  <COMMON_NAME>  (1) 
Atpenin A5

>  <CAS_NUMBER>  (1) 
119509-24-9

>  <SYNONYMS>  (1) 
3-[(2S,4S,5R)-5,6-dichloro-2,4-dimethyl-1-oxohexyl]-4-hydroxy-5,6-dimethoxy-2(1H)-pyridinone

$$$$
