
     RDKit          3D

 31 35  0  0  1  0  0  0  0  0999 V2000
   -0.5217    0.1293    1.7286 C   0  0  0  0  0  0  0  0  0  0  0  0
    0.6573    0.9767    1.2127 C   0  0  2  0  0  0  0  0  0  0  0  0
    1.6572    1.3281    2.2848 C   0  0  0  0  0  0  0  0  0  0  0  0
    2.3361    0.5719    3.2142 C   0  0  0  0  0  0  0  0  0  0  0  0
    3.0716    1.2565    4.2169 C   0  0  0  0  0  0  0  0  0  0  0  0
    3.2689    2.6683    4.2101 C   0  0  0  0  0  0  0  0  0  0  0  0
    2.6563    3.3912    3.2032 C   0  0  0  0  0  0  0  0  0  0  0  0
    1.8357    2.7095    2.3125 C   0  0  0  0  0  0  0  0  0  0  0  0
    0.9688    3.3687    1.3221 C   0  0  0  0  0  0  0  0  0  0  0  0
    0.1745    2.3000    0.6900 N   0  0  0  0  0  0  0  0  0  0  0  0
    4.3322    3.2798    5.0212 C   0  0  0  0  0  0  0  0  0  0  0  0
    4.1587    4.1522    6.0853 C   0  0  0  0  0  0  0  0  0  0  0  0
    5.2674    4.4420    7.0048 C   0  0  0  0  0  0  0  0  0  0  0  0
    6.6472    4.1553    6.6801 C   0  0  0  0  0  0  0  0  0  0  0  0
    6.7730    3.6094    5.4404 C   0  0  0  0  0  0  0  0  0  0  0  0
    5.6489    3.0742    4.6796 C   0  0  0  0  0  0  0  0  0  0  0  0
    5.9639    2.5461    3.4924 O   0  0  0  0  0  0  0  0  0  0  0  0
    5.4570    1.6274    2.5500 C   0  0  0  0  0  0  0  0  0  0  0  0
    4.9969    0.4976    3.1178 F   0  0  0  0  0  0  0  0  0  0  0  0
    4.5901    2.2617    1.7572 F   0  0  0  0  0  0  0  0  0  0  0  0
    8.0972    3.6626    4.9925 N   0  0  0  0  0  0  0  0  0  0  0  0
    9.1579    4.4002    5.6148 C   0  0  0  0  0  0  0  0  0  0  0  0
    9.8310    3.8117    6.4851 C   0  0  0  0  0  0  0  0  0  0  0  0
    8.2544    4.3194    7.3406 C   0  0  0  0  0  0  0  0  0  0  0  0
    8.3330    5.1092    8.3068 O   0  0  0  0  0  0  0  0  0  0  0  0
   10.9197    3.6307    5.0710 C   0  0  0  0  0  0  0  0  0  0  0  0
   10.7302    3.4494    3.8717 O   0  0  0  0  0  0  0  0  0  0  0  0
   12.2696    3.5884    5.2162 O   0  0  0  0  0  0  0  0  0  0  0  0
    8.5989    2.7272    4.0211 C   0  0  0  0  0  0  0  0  0  0  0  0
    8.3641    3.2089    2.6102 C   0  0  0  0  0  0  0  0  0  0  0  0
    8.0642    1.7837    3.0503 C   0  0  0  0  0  0  0  0  0  0  0  0
  2  3  1  0
  2 10  1  0
  2  1  1  1
  3  4  2  0
  3  8  1  0
  4  5  1  0
  5  6  2  0
  6  7  1  0
  6 11  1  0
  7  8  2  0
  8  9  1  0
  9 10  1  0
 11 12  2  0
 11 16  1  0
 12 13  1  0
 13 14  2  0
 14 15  1  0
 14 24  1  0
 15 16  2  0
 15 21  1  0
 16 17  1  0
 17 18  1  0
 18 19  1  0
 18 20  1  0
 21 22  1  0
 21 29  1  0
 22 23  2  0
 23 24  1  0
 23 26  1  0
 24 25  2  0
 26 27  2  0
 26 28  1  0
 29 30  1  0
 29 31  1  0
 30 31  1  0
M  END
>  <DRUGBANK_ID>  (1) 
DB06160

>  <COMMON_NAME>  (1) 
Garenoxacin

>  <CAS_NUMBER>  (1) 
194804-75-6

>  <UNII>  (1) 
V72H9867WB

>  <SYNONYMS>  (1) 
Garenoxacin; Gar√©noxacine; Garenoxacino; Garenoxacinum

$$$$
