
     RDKit          3D

 24 27  0  0  0  0  0  0  0  0999 V2000
    0.5174    1.2585   -0.0429 C   0  0  0  0  0  0  0  0  0  0  0  0
   -0.4925    0.3056   -0.7807 C   0  0  0  0  0  0  0  0  0  0  0  0
   -1.2832   -0.5164    0.1607 C   0  0  0  0  0  0  0  0  0  0  0  0
   -0.3973   -1.4392    0.5648 C   0  0  0  0  0  0  0  0  0  0  0  0
    1.0186   -1.0970    0.0464 C   0  0  0  0  0  0  0  0  0  0  0  0
    1.6840    0.2834    0.1004 C   0  0  0  0  0  0  0  0  0  0  0  0
    0.4841   -0.8749   -1.3451 C   0  0  0  0  0  0  0  0  0  0  0  0
    0.4276    1.9824    1.3360 C   0  0  0  0  0  0  0  0  0  0  0  0
    0.2915    1.0758    2.4559 N   0  0  0  0  0  0  0  0  0  0  0  0
    0.2703    1.8083    3.9579 S   0  0  0  0  0  0  0  0  0  0  0  0
    1.7115    2.8212    3.9024 C   0  0  0  0  0  0  0  0  0  0  0  0
    2.2924    3.0450    2.6644 C   0  0  0  0  0  0  0  0  0  0  0  0
    1.7100    2.6852    1.4701 N   0  0  0  0  0  0  0  0  0  0  0  0
    2.2896    3.3090    5.0818 C   0  0  0  0  0  0  0  0  0  0  0  0
    3.4698    4.0833    5.0175 C   0  0  0  0  0  0  0  0  0  0  0  0
    4.0487    4.3454    3.7761 C   0  0  0  0  0  0  0  0  0  0  0  0
    3.4679    3.8021    2.6230 C   0  0  0  0  0  0  0  0  0  0  0  0
    5.4113    5.3561    3.4605 Cl  0  0  0  0  0  0  0  0  0  0  0  0
    4.1123    4.6497    6.5670 S   0  0  0  0  0  0  0  0  0  0  0  0
   -0.8862    2.6973    4.0070 O   0  0  0  0  0  0  0  0  0  0  0  0
    0.4906    0.7740    4.9230 O   0  0  0  0  0  0  0  0  0  0  0  0
    3.1517    5.5784    7.1148 O   0  0  0  0  0  0  0  0  0  0  0  0
    4.5556    3.4847    7.2965 O   0  0  0  0  0  0  0  0  0  0  0  0
    5.4808    5.5563    6.2632 N   0  0  0  0  0  0  0  0  0  0  0  0
  1  2  1  0
  1  6  1  0
  1  8  1  0
  2  3  1  0
  2  7  1  0
  3  4  2  0
  4  5  1  0
  5  6  1  0
  5  7  1  0
  8  9  1  0
  8 13  1  0
  9 10  1  0
 10 11  1  0
 10 20  2  0
 10 21  2  0
 11 12  2  0
 11 14  1  0
 12 13  1  0
 12 17  1  0
 14 15  2  0
 15 16  1  0
 15 19  1  0
 16 17  2  0
 16 18  1  0
 19 22  2  0
 19 23  2  0
 19 24  1  0
M  END
>  <DRUGBANK_ID>  (1) 
DB00606

>  <SECONDARY_ACCESSION_NUMBERS>  (1) 
APRD00895; EXPT01082

>  <COMMON_NAME>  (1) 
Cyclothiazide

>  <CAS_NUMBER>  (1) 
2259-96-3

>  <UNII>  (1) 
P71U09G5BW

>  <SYNONYMS>  (1) 
6-chloro-3-(2-norbornen-5-yl)-7-sulfamyl-3,4-dihydro-1,2,4-benzothiadiazine 1,1-dioxide; 6-chloro-3,4-dihydro-3-(2-norbornen-5-yl)-2H-1,2,4-benzothiadiazine-7-sulfonamide 1,1-dioxide; 6-chloro-3,4-dihydro-3-(2-norbornen-5-yl)-7-sulfamoyl-1,2,4-benzothiadiazine 1,1-dioxide; 6-chloro-3,4-dihydro-3-(5-norbornen-2-yl)-2H-1,2,4-benzothiadiazine-7-sulfonamide 1,1-dioxide; Ciclotiazida; Ciclotiazide; Cyclothiazide; Cyclothiazidum

$$$$
