
     RDKit          3D

 10 10  0  0  1  0  0  0  0  0999 V2000
    0.4807    0.4050    2.4899 O   0  0  0  0  0  0  0  0  0  0  0  0
    0.5255    0.9155    1.1452 C   0  0  1  0  0  0  0  0  0  0  0  0
   -0.9126    1.1264    0.6719 C   0  0  1  0  0  0  0  0  0  0  0  0
   -1.6046    1.9198    1.6486 O   0  0  0  0  0  0  0  0  0  0  0  0
   -0.9531    1.8345   -0.6840 C   0  0  0  0  0  0  0  0  0  0  0  0
   -0.1670    3.0326   -0.7103 O   0  0  0  0  0  0  0  0  0  0  0  0
    1.1923    2.8284   -0.3426 C   0  0  2  0  0  0  0  0  0  0  0  0
    1.8574    2.0765   -1.3474 O   0  0  0  0  0  0  0  0  0  0  0  0
    1.2993    2.2379    1.0824 C   0  0  2  0  0  0  0  0  0  0  0  0
    2.6454    2.0004    1.5132 O   0  0  0  0  0  0  0  0  0  0  0  0
  2  3  1  0
  2  9  1  0
  2  1  1  1
  3  5  1  0
  3  4  1  1
  5  6  1  0
  7  6  1  0
  7  8  1  6
  9  7  1  0
  9 10  1  6
M  END
>  <DRUGBANK_ID>  (1) 
DB03246

>  <SECONDARY_ACCESSION_NUMBERS>  (1) 
EXPT00555

>  <COMMON_NAME>  (1) 
Beta-L-Arabinose

>  <CAS_NUMBER>  (1) 
7296-56-2

>  <UNII>  (1) 
194RG7YBRS

$$$$
