
     RDKit          3D

 25 24  0  0  1  0  0  0  0  0999 V2000
    0.9185   -0.0516    0.0330 C   0  0  0  0  0  0  0  0  0  0  0  0
    0.5266   -0.8948    1.2372 C   0  0  0  0  0  0  0  0  0  0  0  0
    1.0651   -0.3960    2.4742 O   0  0  0  0  0  0  0  0  0  0  0  0
    2.4114   -0.2921    2.6075 C   0  0  0  0  0  0  0  0  0  0  0  0
    3.2301   -0.7093    1.7922 O   0  0  0  0  0  0  0  0  0  0  0  0
    2.8177    0.3843    3.8970 C   0  0  0  0  0  0  0  0  0  0  0  0
    2.3005    1.8097    4.0215 C   0  0  0  0  0  0  0  0  0  0  0  0
    0.7848    1.8816    4.0413 C   0  0  0  0  0  0  0  0  0  0  0  0
    0.2159    1.1216    5.2066 C   0  0  0  0  0  0  0  0  0  0  0  0
   -0.5518    1.6868    6.1380 C   0  0  0  0  0  0  0  0  0  0  0  0
   -0.9248    3.1190    6.0765 C   0  0  0  0  0  0  0  0  0  0  0  0
   -2.4006    3.2830    6.0380 C   0  0  0  0  0  0  0  0  0  0  0  0
   -3.0520    4.0278    6.9327 C   0  0  0  0  0  0  0  0  0  0  0  0
   -2.3535    4.6999    8.0632 C   0  0  0  0  0  0  0  0  0  0  0  0
   -2.6081    6.1666    8.0723 C   0  0  0  0  0  0  0  0  0  0  0  0
   -3.1189    6.8230    9.1185 C   0  0  0  0  0  0  0  0  0  0  0  0
   -3.4862    6.1505   10.3317 C   0  0  0  0  0  0  0  0  0  0  0  0
   -3.9995    6.7568   11.3999 C   0  0  0  0  0  0  0  0  0  0  0  0
   -4.4396    5.9573   12.5819 C   0  0  1  0  0  0  0  0  0  0  0  0
   -3.7367    6.4392   13.7180 O   0  0  0  0  0  0  0  0  0  0  0  0
   -5.9406    6.1206   12.7937 C   0  0  0  0  0  0  0  0  0  0  0  0
   -6.7481    5.5031   11.6778 C   0  0  0  0  0  0  0  0  0  0  0  0
   -7.5932    4.4722   11.8169 C   0  0  0  0  0  0  0  0  0  0  0  0
   -7.8881    3.7811   13.1140 C   0  0  0  0  0  0  0  0  0  0  0  0
   -9.3375    3.9783   13.5051 C   0  0  0  0  0  0  0  0  0  0  0  0
  1  2  1  0
  2  3  1  0
  3  4  1  0
  4  5  2  0
  4  6  1  0
  6  7  1  0
  7  8  1  0
  8  9  1  0
  9 10  2  0
 10 11  1  0
 11 12  1  0
 12 13  2  0
 13 14  1  0
 14 15  1  0
 15 16  2  0
 16 17  1  0
 17 18  2  0
 19 18  1  0
 19 20  1  1
 19 21  1  0
 21 22  1  0
 22 23  2  0
 23 24  1  0
 24 25  1  0
M  END
>  <DRUGBANK_ID>  (1) 
DB18100

>  <COMMON_NAME>  (1) 
Epeleuton

>  <CAS_NUMBER>  (1) 
1667760-39-5

>  <UNII>  (1) 
FA9BPX1T6V

>  <SYNONYMS>  (1) 
15(s)-hydroxy-(5z,8z,11z,13e,17z)-eicosapentaenoic acid ethyl ester; 5,8,11,13,17-eicosapentaenoic acid, 15-hydroxy-, ethyl ester, (5z,8z,11z,13e,15s,17z)-

$$$$
