
     RDKit          3D

  9  6  0  0  0  0  0  0  0  0999 V2000
    0.4481    0.0360    0.7561 Zn  0  0  0  0  0 15  0  0  0  0  0  0
    2.2019    0.5424    0.9909 O   0  0  0  0  0  0  0  0  0  0  0  0
    0.2555   -0.8672   -0.9070 O   0  0  0  0  0  0  0  0  0  0  0  0
    4.2759   -0.0320    1.5750 O   0  0  0  0  0  0  0  0  0  0  0  0
    1.6241    0.7206   -1.3654 O   0  0  0  0  0  0  0  0  0  0  0  0
    3.4540    0.4491    0.7187 C   0  0  0  0  0  0  0  0  0  0  0  0
    1.4486   -0.5004   -1.3094 C   0  0  0  0  0  0  0  0  0  0  0  0
    4.0921    0.5917   -0.8445 C   0  0  0  0  0  0  0  0  0  0  0  0
    2.5068   -1.6338   -0.8405 C   0  0  0  0  0  0  0  0  0  0  0  0
  2  6  1  0
  3  7  1  0
  4  6  2  0
  5  7  2  0
  6  8  1  0
  7  9  1  0
M  CHG  3   1   2   2  -1   3  -1
M  END
>  <DRUGBANK_ID>  (1) 
DB14487

>  <SECONDARY_ACCESSION_NUMBERS>  (1) 
DBSALT001308

>  <COMMON_NAME>  (1) 
Zinc acetate

>  <CAS_NUMBER>  (1) 
557-34-6

>  <UNII>  (1) 
H2ZEY72PME

>  <SYNONYMS>  (1) 
Acetic acid, zinc salt; Dicarbomethoxyzinc; Zinc acetate anhydrous; Zinc acetato; Zinc diacetate; Zinc(II) acetate

$$$$
