
     RDKit          3D

 34 38  0  0  1  0  0  0  0  0999 V2000
    0.9147   -0.0819    0.0701 C   0  0  0  0  0  0  0  0  0  0  0  0
    0.5406    1.3697    0.0714 C   0  0  0  0  0  0  0  0  0  0  0  0
    1.4563    2.3515   -0.0364 C   0  0  0  0  0  0  0  0  0  0  0  0
    1.0791    3.8286   -0.1203 C   0  0  1  0  0  0  0  0  0  0  0  0
   -0.3708    4.1014    0.0462 O   0  0  0  0  0  0  0  0  0  0  0  0
   -1.2698    3.0712    0.1860 C   0  0  0  0  0  0  0  0  0  0  0  0
   -2.6386    3.3996    0.3425 C   0  0  0  0  0  0  0  0  0  0  0  0
   -3.6217    2.3985    0.4592 C   0  0  0  0  0  0  0  0  0  0  0  0
   -3.2297    1.0710    0.4226 C   0  0  0  0  0  0  0  0  0  0  0  0
   -4.1150    0.0370    0.5202 O   0  0  0  0  0  0  0  0  0  0  0  0
   -1.8845    0.7426    0.2853 C   0  0  0  0  0  0  0  0  0  0  0  0
   -0.8843    1.7310    0.1764 C   0  0  0  0  0  0  0  0  0  0  0  0
    1.8994    4.6493    0.8740 C   0  0  0  0  0  0  0  0  0  0  0  0
    3.2832    4.8492    0.9394 C   0  0  0  0  0  0  0  0  0  0  0  0
    3.9121    5.0912    2.2055 C   0  0  0  0  0  0  0  0  0  0  0  0
    3.1736    5.5586    3.2542 C   0  0  0  0  0  0  0  0  0  0  0  0
    3.7500    5.7683    4.4687 O   0  0  0  0  0  0  0  0  0  0  0  0
    3.0005    6.0460    5.6948 C   0  0  0  0  0  0  0  0  0  0  0  0
    2.1029    7.3012    5.6553 C   0  0  0  0  0  0  0  0  0  0  0  0
    0.9578    7.0152    4.8501 N   0  0  0  0  0  0  0  0  0  0  0  0
   -0.3499    7.6426    4.8657 C   0  0  0  0  0  0  0  0  0  0  0  0
   -0.7817    6.3809    4.0319 C   0  0  0  0  0  0  0  0  0  0  0  0
   -1.9580    5.4697    4.0390 C   0  0  0  0  0  0  0  0  0  0  0  0
   -3.0309    6.1724    3.6083 F   0  0  0  0  0  0  0  0  0  0  0  0
    0.3427    5.6839    4.8676 C   0  0  0  0  0  0  0  0  0  0  0  0
    2.0151    6.0172    2.7414 C   0  0  0  0  0  0  0  0  0  0  0  0
    1.2445    5.2420    1.9018 C   0  0  0  0  0  0  0  0  0  0  0  0
    2.9017    1.9984   -0.1515 C   0  0  0  0  0  0  0  0  0  0  0  0
    3.8364    2.2171    0.8797 C   0  0  0  0  0  0  0  0  0  0  0  0
    5.1948    2.2719    0.5622 C   0  0  0  0  0  0  0  0  0  0  0  0
    6.1490    2.8889    1.3172 O   0  0  0  0  0  0  0  0  0  0  0  0
    5.6410    1.7470   -0.6297 C   0  0  0  0  0  0  0  0  0  0  0  0
    4.7246    1.2045   -1.5185 C   0  0  0  0  0  0  0  0  0  0  0  0
    3.3633    1.4290   -1.3364 C   0  0  0  0  0  0  0  0  0  0  0  0
  1  2  1  0
  2  3  2  0
  2 12  1  0
  3 28  1  0
  4  3  1  0
  4  5  1  0
  4 13  1  1
  5  6  1  0
  6  7  1  0
  6 12  2  0
  7  8  2  0
  8  9  1  0
  9 10  1  0
  9 11  2  0
 11 12  1  0
 13 14  2  0
 13 27  1  0
 14 15  1  0
 15 16  2  0
 16 17  1  0
 16 26  1  0
 17 18  1  0
 18 19  1  0
 19 20  1  0
 20 21  1  0
 20 25  1  0
 21 22  1  0
 22 23  1  0
 22 25  1  0
 23 24  1  0
 26 27  2  0
 28 29  2  0
 28 34  1  0
 29 30  1  0
 30 31  1  0
 30 32  2  0
 32 33  1  0
 33 34  2  0
M  END
>  <DRUGBANK_ID>  (1) 
DB14934

>  <COMMON_NAME>  (1) 
GDC-0927

>  <CAS_NUMBER>  (1) 
2100830-77-9

>  <UNII>  (1) 
ST9B0EMC0H

$$$$
