
     RDKit          3D

 12 11  0  0  1  0  0  0  0  0999 V2000
    1.0423   -0.1259    0.0375 O   0  0  0  0  0  0  0  0  0  0  0  0
    0.5661    0.8926    0.9125 C   0  0  0  0  0  0  0  0  0  0  0  0
    1.0521    0.6170    2.3379 C   0  0  1  0  0  0  0  0  0  0  0  0
    2.4893    0.5902    2.3439 O   0  0  0  0  0  0  0  0  0  0  0  0
    0.5466    1.6890    3.3251 C   0  0  1  0  0  0  0  0  0  0  0  0
   -0.8845    1.7162    3.3497 O   0  0  0  0  0  0  0  0  0  0  0  0
    1.0578    1.4077    4.7566 C   0  0  1  0  0  0  0  0  0  0  0  0
    2.4772    1.3328    4.8606 O   0  0  0  0  0  0  0  0  0  0  0  0
    0.5379    2.4677    5.7255 C   0  0  0  0  0  0  0  0  0  0  0  0
   -0.1784    2.1625    6.6896 O   0  0  0  0  0  0  0  0  0  0  0  0
    0.9283    3.9233    5.4830 C   0  0  0  0  0  0  0  0  0  0  0  0
    2.3180    4.1761    5.5060 O   0  0  0  0  0  0  0  0  0  0  0  0
  1  2  1  0
  3  2  1  0
  3  4  1  6
  5  3  1  0
  5  6  1  1
  5  7  1  0
  7  8  1  6
  7  9  1  0
  9 10  2  0
  9 11  1  0
 11 12  1  0
M  END
>  <DRUGBANK_ID>  (1) 
DB15087

>  <COMMON_NAME>  (1) 
Psicose

>  <CAS_NUMBER>  (1) 
23140-52-5

>  <UNII>  (1) 
KRF88IOA7T

>  <SYNONYMS>  (1) 
Allulose; DL-Psicose; Erythrohexulose; Pseudofructose

$$$$
