PB4
     RDKit          3D

 30 32  0  0  0  0  0  0  0  0999 V2000
    1.1228   -0.7892    0.0147 C   0  0  0  0  0  0  0  0  0  0  0  0
   -0.0973   -1.4338    0.0018 C   0  0  0  0  0  0  0  0  0  0  0  0
   -1.2219   -0.6344   -0.0189 C   0  0  0  0  0  0  0  0  0  0  0  0
   -8.0107   -2.3233    3.8347 C   0  0  0  0  0  0  0  0  0  0  0  0
    6.7403    1.5655   -3.2954 C   0  0  0  0  0  0  0  0  0  0  0  0
   -2.5710   -1.3084   -0.0558 C   0  0  0  0  0  0  0  0  0  0  0  0
   -5.0432   -1.0836   -0.0902 C   0  0  0  0  0  0  0  0  0  0  0  0
   -5.8524   -0.6863    1.1259 C   0  0  0  0  0  0  0  0  0  0  0  0
    2.3715   -1.6359    0.0307 C   0  0  0  0  0  0  0  0  0  0  0  0
    4.8551   -1.7394    0.0230 C   0  0  0  0  0  0  0  0  0  0  0  0
    5.6833   -1.4470   -1.2097 C   0  0  0  0  0  0  0  0  0  0  0  0
    5.8758   -0.1257   -1.6427 C   0  0  0  0  0  0  0  0  0  0  0  0
    7.1396   -0.9006   -3.5377 C   0  0  0  0  0  0  0  0  0  0  0  0
   -5.9522    0.6591    1.5106 C   0  0  0  0  0  0  0  0  0  0  0  0
   -6.6913    1.0230    2.6357 C   0  0  0  0  0  0  0  0  0  0  0  0
   -7.3493    0.0474    3.3748 C   0  0  0  0  0  0  0  0  0  0  0  0
   -6.5506   -1.6565    1.8724 C   0  0  0  0  0  0  0  0  0  0  0  0
   -1.1671    0.7178   -0.0168 N   0  0  0  0  0  0  0  0  0  0  0  0
    0.0789    1.2367    0.0027 C   0  0  0  0  0  0  0  0  0  0  0  0
    1.2462    0.5586    0.0150 N   0  0  0  0  0  0  0  0  0  0  0  0
   -3.7003   -0.5135   -0.0821 N   0  0  0  0  0  0  0  0  0  0  0  0
    3.5962   -0.9980    0.0433 N   0  0  0  0  0  0  0  0  0  0  0  0
    6.5868    0.1566   -2.8153 C   0  0  0  0  0  0  0  0  0  0  0  0
    7.0135   -2.2137   -3.0991 C   0  0  0  0  0  0  0  0  0  0  0  0
    6.2973   -2.4869   -1.9301 C   0  0  0  0  0  0  0  0  0  0  0  0
   -7.2966   -1.2977    3.0069 C   0  0  0  0  0  0  0  0  0  0  0  0
    2.2684   -2.8622    0.0367 O   0  0  0  0  0  0  0  0  0  0  0  0
   -2.6310   -2.5374   -0.0681 O   0  0  0  0  0  0  0  0  0  0  0  0
   -8.0414    0.4168    4.4623 F   0  0  0  0  0  0  0  0  0  0  0  0
    7.8084   -0.6540   -4.6736 F   0  0  0  0  0  0  0  0  0  0  0  0
  1  2  2  0
  1  9  1  0
  1 20  1  0
  2  3  1  0
  3  6  1  0
  3 18  2  0
  4 26  1  0
  5 23  1  0
  6 21  1  0
  6 28  2  0
  7  8  1  0
  7 21  1  0
  8 14  2  0
  8 17  1  0
  9 22  1  0
  9 27  2  0
 10 11  1  0
 10 22  1  0
 11 12  2  0
 11 25  1  0
 12 23  1  0
 13 23  2  0
 13 24  1  0
 13 30  1  0
 14 15  1  0
 15 16  2  0
 16 26  1  0
 16 29  1  0
 17 26  2  0
 18 19  1  0
 19 20  2  0
 24 25  2  0
M  END
>  <DRUGBANK_ID>  (1) 
DB04760

>  <COMMON_NAME>  (1) 
PYRIMIDINE-4,6-DICARBOXYLIC ACID BIS-(4-FLUORO-3-METHYL-BENZYLAMIDE)

$$$$
