
     RDKit          3D

 23 26  0  0  1  0  0  0  0  0999 V2000
   -0.9667    0.1430    1.1007 C   0  0  0  0  0  0  0  0  0  0  0  0
   -0.6858   -1.2693    1.7488 C   0  0  2  0  0  0  0  0  0  0  0  0
   -1.7703   -1.9061    3.2811 C   0  0  0  0  0  0  0  0  0  0  0  0
   -2.6607   -3.5286    2.9794 C   0  0  0  0  0  0  0  0  0  0  0  0
   -1.5113   -4.5529    2.6307 C   0  0  2  0  0  0  0  0  0  0  0  0
   -0.5314   -3.5132    2.2754 C   0  0  0  0  0  0  0  0  0  0  0  0
   -1.4401   -2.4238    1.2651 C   0  0  2  0  0  0  0  0  0  0  0  0
   -1.7620   -2.9606   -0.1094 C   0  0  0  0  0  0  0  0  0  0  0  0
   -0.4977   -3.4368   -0.8494 C   0  0  0  0  0  0  0  0  0  0  0  0
    0.2819   -2.1489   -1.2165 C   0  0  1  0  0  0  0  0  0  0  0  0
    0.6836   -1.6482    0.4812 C   0  0  1  0  0  0  0  0  0  0  0  0
    1.5863   -0.4833    0.0951 C   0  0  0  0  0  0  0  0  0  0  0  0
    2.7976   -0.9117   -0.6728 C   0  0  0  0  0  0  0  0  0  0  0  0
    2.4742   -1.4308   -2.0364 C   0  0  2  0  0  0  0  0  0  0  0  0
    1.5163   -2.2501   -2.6617 C   0  0  2  0  0  0  0  0  0  0  0  0
    2.9206   -1.3868   -3.7685 C   0  0  0  0  0  0  0  0  0  0  0  0
    4.3358   -1.5033   -3.1366 C   0  0  0  0  0  0  0  0  0  0  0  0
    3.9153   -2.6720   -2.4027 C   0  0  1  0  0  0  0  0  0  0  0  0
    3.3109   -4.0636   -2.1300 C   0  0  0  0  0  0  0  0  0  0  0  0
    2.5870   -4.9749   -2.0141 C   0  0  0  0  0  0  0  0  0  0  0  0
    4.4622   -3.3073   -3.6814 O   0  0  0  0  0  0  0  0  0  0  0  0
    1.1615   -0.3653   -2.9714 C   0  0  0  0  0  0  0  0  0  0  0  0
   -1.4286   -5.3759    1.4934 O   0  0  0  0  0  0  0  0  0  0  0  0
  2  3  1  0
  2  7  1  0
  2 11  1  0
  2  1  1  6
  3  4  1  0
  4  5  1  0
  5  6  1  0
  5 23  1  6
  7  6  1  1
  7  8  1  0
  8  9  1  0
 10  9  1  1
 10 11  1  0
 10 15  1  0
 11 12  1  6
 12 13  1  0
 13 14  1  0
 14 15  1  0
 14 18  1  0
 14 22  1  6
 15 16  1  6
 16 17  1  0
 17 18  1  0
 18 21  1  6
 18 19  1  0
 19 20  3  0
M  END
>  <DRUGBANK_ID>  (1) 
DB06307

>  <COMMON_NAME>  (1) 
Apoptone

>  <CAS_NUMBER>  (1) 
183387-50-0

>  <UNII>  (1) 
891O182ZP5

$$$$
