
     RDKit          3D

 11  8  0  0  0  0  0  0  0  0999 V2000
    0.2612   -0.4657   -0.3452 C   0  0  0  0  0  0  0  0  0  0  0  0
    0.1221    1.5009   -0.5561 C   0  0  0  0  0  0  0  0  0  0  0  0
   -1.1244    1.6254   -0.9855 O   0  0  0  0  0  0  0  0  0  0  0  0
    0.8340    2.3772   -0.0503 O   0  0  0  0  0  0  0  0  0  0  0  0
   -0.2345   -1.0818   -1.5287 N   0  0  0  0  0  0  0  0  0  0  0  0
    2.1554    0.5363    0.5010 C   0  0  0  0  0  0  0  0  0  0  0  0
    0.8276    0.8876    1.8236 C   0  0  0  0  0  0  0  0  0  0  0  0
   -0.4615    0.9783    1.5250 O   0  0  0  0  0  0  0  0  0  0  0  0
    1.1779    0.5310    3.0048 O   0  0  0  0  0  0  0  0  0  0  0  0
    2.0337    0.6832   -1.3372 N   0  0  0  0  0  0  0  0  0  0  0  0
   -1.8016    0.8052    0.4025 Mg  0  0  0  0  0 15  0  0  0  0  0  0
  1  2  1  0
  1  5  1  0
  2  3  2  0
  2  4  1  0
  6  7  1  0
  6 10  1  0
  7  8  2  0
  7  9  1  0
M  CHG  3   4  -1   9  -1  11   2
M  END
>  <DRUGBANK_ID>  (1) 
DB11189

>  <COMMON_NAME>  (1) 
Magnesium glycinate

>  <CAS_NUMBER>  (1) 
14783-68-7

>  <UNII>  (1) 
IFN18A4Y6B

>  <SYNONYMS>  (1) 
Magnesium glycinate

$$$$
