
     RDKit          3D

 31 33  0  0  1  0  0  0  0  0999 V2000
   -0.2836   -2.1598   -0.2872 C   0  0  0  0  0  0  0  0  0  0  0  0
    0.3206   -2.2354   -1.6850 C   0  0  0  0  0  0  0  0  0  0  0  0
    0.8172   -0.8861   -2.3008 C   0  0  2  0  0  0  0  0  0  0  0  0
    0.2773    0.2958   -1.4084 C   0  0  0  0  0  0  0  0  0  0  0  0
    1.1407    1.5301   -1.2885 C   0  0  0  0  0  0  0  0  0  0  0  0
    1.3760    2.1569   -2.6351 C   0  0  1  0  0  0  0  0  0  0  0  0
    0.0364    2.7597   -3.1386 C   0  0  0  0  0  0  0  0  0  0  0  0
    2.4947    3.1298   -2.8633 C   0  0  1  0  0  0  0  0  0  0  0  0
    2.2337    4.3790   -2.0286 C   0  0  0  0  0  0  0  0  0  0  0  0
    3.5597    4.7184   -1.3985 C   0  0  0  0  0  0  0  0  0  0  0  0
    4.5691    3.9658   -2.2610 C   0  0  2  0  0  0  0  0  0  0  0  0
    3.9238    2.6120   -2.5603 C   0  0  2  0  0  0  0  0  0  0  0  0
    4.6522    1.9007   -3.7419 C   0  0  0  0  0  0  0  0  0  0  0  0
    6.1077    1.6378   -3.3635 C   0  0  0  0  0  0  0  0  0  0  0  0
    6.7180    2.9061   -2.8116 C   0  0  0  0  0  0  0  0  0  0  0  0
    5.9397    3.7010   -1.7869 C   0  0  0  0  0  0  0  0  0  0  0  0
    6.4531    4.1909   -0.6246 C   0  0  0  0  0  0  0  0  0  0  0  0
    7.8637    4.1736   -0.3473 C   0  0  0  0  0  0  0  0  0  0  0  0
    8.8337    4.5519   -1.2203 C   0  0  0  0  0  0  0  0  0  0  0  0
   10.2851    4.3604   -0.8687 C   0  0  0  0  0  0  0  0  0  0  0  0
   11.0678    3.5947   -1.9494 C   0  0  2  0  0  0  0  0  0  0  0  0
   10.8339    4.1391   -3.3602 C   0  0  0  0  0  0  0  0  0  0  0  0
    9.3561    4.2251   -3.6798 C   0  0  1  0  0  0  0  0  0  0  0  0
    8.6048    5.0243   -2.6070 C   0  0  0  0  0  0  0  0  0  0  0  0
    7.6799    5.9604   -2.9083 C   0  0  0  0  0  0  0  0  0  0  0  0
    9.1591    4.7529   -4.9880 O   0  0  0  0  0  0  0  0  0  0  0  0
   10.7798    2.1936   -1.8949 O   0  0  0  0  0  0  0  0  0  0  0  0
    4.0594    1.6529   -1.3563 C   0  0  0  0  0  0  0  0  0  0  0  0
    0.4030   -0.8847   -3.8460 C   0  0  0  0  0  0  0  0  0  0  0  0
    0.8498    0.2451   -4.7609 C   0  0  0  0  0  0  0  0  0  0  0  0
    0.9303   -2.0844   -4.6253 C   0  0  0  0  0  0  0  0  0  0  0  0
  1  2  1  0
  3 29  1  0
  3  4  1  1
  3  2  1  0
  4  5  1  0
  5  6  1  0
  6  7  1  1
  8  6  1  0
  8  9  1  1
  8 12  1  0
  9 10  1  0
 11 10  1  1
 11 12  1  0
 11 16  1  0
 12 13  1  0
 12 28  1  1
 13 14  1  0
 14 15  1  0
 15 16  1  0
 16 17  2  0
 17 18  1  0
 18 19  2  0
 19 20  1  0
 19 24  1  0
 20 21  1  0
 21 22  1  0
 21 27  1  6
 22 23  1  0
 23 24  1  0
 23 26  1  6
 24 25  2  0
 29 30  1  0
 29 31  1  0
M  END
>  <DRUGBANK_ID>  (1) 
DB13097

>  <COMMON_NAME>  (1) 
1alpha-Hydroxyvitamin D5

>  <CAS_NUMBER>  (1) 
187935-17-7

>  <UNII>  (1) 
XY02042OD4

>  <SYNONYMS>  (1) 
1-Hydroxyvitamin D5; 1alpha-Hydroxy-24-ethylcholecalciferol

$$$$
