
     RDKit          3D

 40 44  0  0  0  0  0  0  0  0999 V2000
    0.9312   -0.0712   -0.0142 P   0  0  2  0  0  0  0  0  0  0  0  0
    4.0458   -2.7863    1.7965 O   0  0  0  0  0  0  0  0  0  0  0  0
   -1.2187   -0.7149   -4.4651 O   0  0  0  0  0  0  0  0  0  0  0  0
    0.7526   -1.0141   -1.3754 O   0  0  0  0  0  0  0  0  0  0  0  0
    0.8744   -1.0816    1.2948 O   0  0  0  0  0  0  0  0  0  0  0  0
    2.5539   -3.5477   -1.1005 O   0  0  0  0  0  0  0  0  0  0  0  0
   -1.9174   -1.6988   -1.6309 O   0  0  0  0  0  0  0  0  0  0  0  0
    2.5158   -5.6787    0.3658 O   0  0  0  0  0  0  0  0  0  0  0  0
   -2.8202    1.9835   -2.4939 O   0  0  0  0  0  0  0  0  0  0  0  0
   -0.7988   -0.0712   -0.0142 O   0  0  0  0  0  0  0  0  0  0  0  0
    2.4796   -0.0712   -0.0142 O   0  0  0  0  0  0  0  0  0  0  0  0
    0.3361    1.7956   -4.4571 O   0  0  0  0  0  0  0  0  0  0  0  0
    6.5886   -4.2364    6.8387 O   0  0  0  0  0  0  0  0  0  0  0  0
    3.6164    1.1030   -7.4213 O   0  0  0  0  0  0  0  0  0  0  0  0
    3.9719   -4.6460    3.2935 N   0  0  0  0  0  0  0  0  0  0  0  0
    1.1165   -0.3803   -4.6786 N   0  0  0  0  0  0  0  0  0  0  0  0
    2.8757   -3.4865    5.4643 N   0  0  0  0  0  0  0  0  0  0  0  0
    5.5927   -5.6163    4.5322 N   0  0  0  0  0  0  0  0  0  0  0  0
    2.1308    1.4411   -5.7351 N   0  0  0  0  0  0  0  0  0  0  0  0
    4.5063   -3.4230    7.2665 N   0  0  0  0  0  0  0  0  0  0  0  0
    2.5703   -2.4198    7.6363 N   0  0  0  0  0  0  0  0  0  0  0  0
    0.0038   -0.3379   -2.4162 C   0  0  2  0  0  0  0  0  0  0  0  0
    3.0426   -2.2133    0.9579 C   0  0  1  0  0  0  0  0  0  0  0  0
    2.1974   -3.2899    0.2746 C   0  0  2  0  0  0  0  0  0  0  0  0
   -1.5017   -0.4382   -2.1776 C   0  0  1  0  0  0  0  0  0  0  0  0
    2.4472   -4.4917    1.1645 C   0  0  2  0  0  0  0  0  0  0  0  0
    3.7537   -4.1685    1.9044 C   0  0  1  0  0  0  0  0  0  0  0  0
    0.0703   -0.9401   -3.8179 C   0  0  1  0  0  0  0  0  0  0  0  0
   -2.1702   -0.2462   -3.4892 C   0  0  1  0  0  0  0  0  0  0  0  0
    2.1634   -1.3527    1.8978 C   0  0  0  0  0  0  0  0  0  0  0  0
   -2.6367    1.2148   -3.6955 C   0  0  0  0  0  0  0  0  0  0  0  0
    3.7576   -4.2391    4.6582 C   0  0  0  0  0  0  0  0  0  0  0  0
    5.0426   -5.5486    3.3574 C   0  0  0  0  0  0  0  0  0  0  0  0
    1.1302    0.9861   -4.9273 C   0  0  0  0  0  0  0  0  0  0  0  0
    2.0336   -1.2219   -5.2810 C   0  0  0  0  0  0  0  0  0  0  0  0
    4.9241   -4.6848    5.2647 C   0  0  0  0  0  0  0  0  0  0  0  0
    2.8838   -0.7801   -6.2122 C   0  0  0  0  0  0  0  0  0  0  0  0
    5.4294   -4.1317    6.5193 C   0  0  0  0  0  0  0  0  0  0  0  0
    2.9140    0.6573   -6.5234 C   0  0  0  0  0  0  0  0  0  0  0  0
    3.3316   -3.1632    6.7785 C   0  0  0  0  0  0  0  0  0  0  0  0
  1  4  1  0
  1  5  1  0
  1 10  1  0
  1 11  2  0
  2 23  1  0
  2 27  1  0
  3 28  1  0
  3 29  1  0
  5 30  1  0
  9 31  1  0
 12 34  2  0
 13 38  2  0
 14 39  2  0
 15 32  1  0
 15 33  1  0
 16 34  1  0
 16 35  1  0
 17 32  1  0
 17 40  1  0
 18 33  2  0
 18 36  1  0
 19 34  1  0
 19 39  1  0
 20 38  1  0
 20 40  2  0
 21 40  1  0
 22  4  1  1
 22 25  1  0
 22 28  1  0
 23 24  1  0
 23 30  1  1
 24  6  1  6
 24 26  1  0
 25  7  1  6
 25 29  1  0
 26  8  1  6
 26 27  1  0
 27 15  1  1
 28 16  1  6
 29 31  1  6
 32 36  2  0
 35 37  2  0
 36 38  1  0
 37 39  1  0
M  END
>  <DRUGBANK_ID>  (1) 
DB04514

>  <SECONDARY_ACCESSION_NUMBERS>  (1) 
EXPT03158

>  <COMMON_NAME>  (1) 
Uridylyl-2'-5'-phospho-guanosine

>  <UNII>  (1) 
HEM972VB27

$$$$
