028
     RDKit          3D

 16 15  0  0  0  0  0  0  0  0999 V2000
    1.1257    0.1601   -0.1341 C   0  0  0  0  0  0  0  0  0  0  0  0
    0.7173   -1.1906   -0.7018 C   0  0  0  0  0  0  0  0  0  0  0  0
    1.2267   -2.3186    0.1988 C   0  0  0  0  0  0  0  0  0  0  0  0
    0.6954   -2.1549    1.6261 C   0  0  0  0  0  0  0  0  0  0  0  0
   -0.8248   -2.1790    1.6427 C   0  0  0  0  0  0  0  0  0  0  0  0
   -1.3518   -3.4908    1.0741 C   0  0  0  0  0  0  0  0  0  0  0  0
   -0.9357   -4.7695    1.8820 C   0  0  0  0  0  0  0  0  0  0  0  0
   -1.3221   -6.1252    0.5688 P   0  0  0  0  0  0  0  0  0  0  0  0
   -1.8793   -5.6680   -0.7518 O   0  0  0  0  0  0  0  0  0  0  0  0
    0.1281   -6.8069    0.3753 O   0  0  0  0  0  0  0  0  0  0  0  0
   -2.1070   -7.4057    1.1024 O   0  0  0  0  0  0  0  0  0  0  0  0
   -1.5457   -4.6103    3.6000 P   0  0  0  0  0  0  0  0  0  0  0  0
   -2.1224   -4.4597    5.2241 O   0  0  0  0  0  0  0  0  0  0  0  0
   -2.3704   -6.0152    3.4865 O   0  0  0  0  0  0  0  0  0  0  0  0
   -2.6454   -3.6120    3.2357 O   0  0  0  0  0  0  0  0  0  0  0  0
    0.5167   -4.9458    1.9751 O   0  0  0  0  0  0  0  0  0  0  0  0
  1  2  1  0
  2  3  1  0
  3  4  1  0
  4  5  1  0
  5  6  1  0
  6  7  1  0
  7 12  1  0
  7  8  1  0
  7 16  1  0
  8  9  2  0
  8 10  1  0
  8 11  1  0
 12 15  2  0
 12 14  1  0
 12 13  1  0
M  END
>  <DRUGBANK_ID>  (1) 
DB06830

>  <COMMON_NAME>  (1) 
(1-HYDROXYHEPTANE-1,1-DIYL)BIS(PHOSPHONIC ACID)

$$$$
