
     RDKit          3D

 35 38  0  0  0  0  0  0  0  0999 V2000
    0.9067   -2.6868    2.8925 C   0  0  0  0  0  0  0  0  0  0  0  0
    1.5600   -3.2934    1.7861 C   0  0  0  0  0  0  0  0  0  0  0  0
    1.7894   -4.7084    1.8373 C   0  0  0  0  0  0  0  0  0  0  0  0
    1.2234   -5.5266    2.8586 C   0  0  0  0  0  0  0  0  0  0  0  0
    0.5339   -4.8731    3.9446 C   0  0  0  0  0  0  0  0  0  0  0  0
    0.3141   -3.4513    3.9423 C   0  0  0  0  0  0  0  0  0  0  0  0
   -0.8106   -2.7404    4.7602 C   0  0  0  0  0  0  0  0  0  0  0  0
   -2.0334   -3.3382    4.7263 F   0  0  0  0  0  0  0  0  0  0  0  0
   -0.5329   -2.6378    6.0788 F   0  0  0  0  0  0  0  0  0  0  0  0
   -1.0908   -1.4772    4.3118 F   0  0  0  0  0  0  0  0  0  0  0  0
    0.9759   -7.0460    2.5368 C   0  0  0  0  0  0  0  0  0  0  0  0
    1.6868   -7.8866    3.3265 F   0  0  0  0  0  0  0  0  0  0  0  0
   -0.3291   -7.4478    2.6758 F   0  0  0  0  0  0  0  0  0  0  0  0
    1.2784   -7.3898    1.2433 F   0  0  0  0  0  0  0  0  0  0  0  0
    1.6762   -2.4902    0.4449 C   0  0  2  0  0  0  0  0  0  0  0  0
    0.5932   -1.5484    0.1835 O   0  0  0  0  0  0  0  0  0  0  0  0
   -0.7841   -1.9832    0.3186 C   0  0  0  0  0  0  0  0  0  0  0  0
   -1.3773   -3.3543   -0.3878 C   0  0  2  0  0  0  0  0  0  0  0  0
   -0.9688   -3.5179   -1.9400 C   0  0  0  0  0  0  0  0  0  0  0  0
   -2.8579   -3.4348   -0.2045 N   0  0  0  0  0  0  0  0  0  0  0  0
   -3.3001   -3.5099    1.2299 C   0  0  0  0  0  0  0  0  0  0  0  0
   -2.7942   -4.7702    1.9689 C   0  0  2  0  0  0  0  0  0  0  0  0
   -1.3571   -4.6553    1.8014 C   0  0  0  0  0  0  0  0  0  0  0  0
   -0.9072   -4.6090    0.3841 C   0  0  0  0  0  0  0  0  0  0  0  0
   -3.1350   -6.1440    1.4415 C   0  0  0  0  0  0  0  0  0  0  0  0
   -4.1063   -6.7114    2.4548 C   0  0  0  0  0  0  0  0  0  0  0  0
   -4.1399   -5.7243    3.5613 C   0  0  0  0  0  0  0  0  0  0  0  0
   -3.1240   -4.8717    3.3576 N   0  0  0  0  0  0  0  0  0  0  0  0
   -4.8922   -5.7056    4.5566 O   0  0  0  0  0  0  0  0  0  0  0  0
   -0.9452   -2.3756   -2.7524 C   0  0  0  0  0  0  0  0  0  0  0  0
   -0.1470   -2.3482   -3.9162 C   0  0  0  0  0  0  0  0  0  0  0  0
    0.7336   -3.3912   -4.2317 C   0  0  0  0  0  0  0  0  0  0  0  0
    0.7723   -4.5101   -3.4238 C   0  0  0  0  0  0  0  0  0  0  0  0
   -0.1893   -4.6527   -2.4066 C   0  0  0  0  0  0  0  0  0  0  0  0
    1.7719   -3.2760   -0.8271 C   0  0  0  0  0  0  0  0  0  0  0  0
  1  2  2  0
  1  6  1  0
  2  3  1  0
  3  4  2  0
  4  5  1  0
  4 11  1  0
  5  6  2  0
  6  7  1  0
  7  8  1  0
  7  9  1  0
  7 10  1  0
 11 12  1  0
 11 13  1  0
 11 14  1  0
 15 35  1  6
 15 16  1  0
 15  2  1  0
 16 17  1  0
 18 17  1  1
 18 19  1  0
 18 20  1  0
 18 24  1  0
 19 30  2  0
 19 34  1  0
 20 21  1  0
 22 21  1  6
 22 23  1  0
 22 25  1  0
 22 28  1  0
 23 24  1  0
 25 26  1  0
 26 27  1  0
 27 28  1  0
 27 29  2  0
 30 31  1  0
 31 32  2  0
 32 33  1  0
 33 34  2  0
M  END
>  <DRUGBANK_ID>  (1) 
DB09291

>  <COMMON_NAME>  (1) 
Rolapitant

>  <CAS_NUMBER>  (1) 
552292-08-7

>  <UNII>  (1) 
NLE429IZUC

>  <SYNONYMS>  (1) 
Rolapitant

$$$$
