
     RDKit          3D

 22 23  0  0  0  0  0  0  0  0999 V2000
    2.2469    0.0905    0.0016 F   0  0  0  0  0  0  0  0  0  0  0  0
   -3.1563   -8.1632   -3.2563 O   0  0  0  0  0  0  0  0  0  0  0  0
   -3.7144   -6.3602   -4.3215 O   0  0  0  0  0  0  0  0  0  0  0  0
   -4.0579   -0.7048   -1.0673 N   0  0  0  0  0  0  0  0  0  0  0  0
   -4.1879   -2.5153   -2.4615 N   0  0  0  0  0  0  0  0  0  0  0  0
   -3.2438   -6.1455   -2.0360 N   0  0  0  0  0  0  0  0  0  0  0  0
   -4.5820   -4.1987   -3.9049 N   0  0  0  0  0  0  0  0  0  0  0  0
   -3.4335    0.0264    0.0127 C   0  0  0  0  0  0  0  0  0  0  0  0
   -1.9102    0.0435   -0.0209 C   0  0  0  0  0  0  0  0  0  0  0  0
   -3.9477   -2.0624   -1.2322 C   0  0  0  0  0  0  0  0  0  0  0  0
   -3.4986   -4.7543   -1.7909 C   0  0  0  0  0  0  0  0  0  0  0  0
   -3.5853   -2.9359   -0.2157 C   0  0  0  0  0  0  0  0  0  0  0  0
   -4.0397   -3.8340   -2.7107 C   0  0  0  0  0  0  0  0  0  0  0  0
   -1.2139    1.2563   -0.0061 C   0  0  0  0  0  0  0  0  0  0  0  0
   -1.1286   -1.1284   -0.0013 C   0  0  0  0  0  0  0  0  0  0  0  0
   -3.2404   -4.2565   -0.5131 C   0  0  0  0  0  0  0  0  0  0  0  0
    0.1896    1.2682   -0.0027 C   0  0  0  0  0  0  0  0  0  0  0  0
    0.2576   -1.1301    0.0073 C   0  0  0  0  0  0  0  0  0  0  0  0
    0.9097    0.0771    0.0021 C   0  0  0  0  0  0  0  0  0  0  0  0
   -3.3768   -6.8299   -3.2354 C   0  0  0  0  0  0  0  0  0  0  0  0
   -2.5251   -8.9260   -2.2393 C   0  0  0  0  0  0  0  0  0  0  0  0
   -1.1306   -8.4071   -1.9696 C   0  0  0  0  0  0  0  0  0  0  0  0
  1 19  1  0
  2 20  1  0
  2 21  1  0
  3 20  2  0
  4  8  1  0
  4 10  1  0
  5 10  2  0
  5 13  1  0
  6 11  1  0
  6 20  1  0
  7 13  1  0
  8  9  1  0
  9 14  2  0
  9 15  1  0
 10 12  1  0
 11 13  2  0
 11 16  1  0
 12 16  2  0
 14 17  1  0
 15 18  2  0
 17 19  2  0
 18 19  1  0
 21 22  1  0
M  END
>  <DRUGBANK_ID>  (1) 
DB06623

>  <COMMON_NAME>  (1) 
Flupirtine

>  <CAS_NUMBER>  (1) 
56995-20-1

>  <UNII>  (1) 
MOH3ET196H

>  <SYNONYMS>  (1) 
Flupirtine; Flupirtino; Flupirtinum

$$$$
