
     RDKit          3D

 17 17  0  0  0  0  0  0  0  0999 V2000
    1.1179    0.0732    0.0013 C   0  0  0  0  0  0  0  0  0  0  0  0
    0.4550    1.1992    0.7994 C   0  0  0  0  0  0  0  0  0  0  0  0
    1.0843    2.5072    0.2917 C   0  0  0  0  0  0  0  0  0  0  0  0
   -1.1401    1.1563    0.7892 C   0  0  0  0  0  0  0  0  0  0  0  0
   -1.7451    0.0109   -0.0407 C   0  0  0  0  0  0  0  0  0  0  0  0
   -1.2204   -1.0573   -0.3150 O   0  0  0  0  0  0  0  0  0  0  0  0
   -3.0338    0.1727   -0.4309 N   0  0  0  0  0  0  0  0  0  0  0  0
   -3.4843    1.3439   -0.9384 C   0  0  0  0  0  0  0  0  0  0  0  0
   -4.4453    1.3406   -1.7003 O   0  0  0  0  0  0  0  0  0  0  0  0
   -2.7866    2.4778   -0.5835 N   0  0  0  0  0  0  0  0  0  0  0  0
   -1.7378    2.5044    0.3191 C   0  0  0  0  0  0  0  0  0  0  0  0
   -1.3615    3.5766    0.7990 O   0  0  0  0  0  0  0  0  0  0  0  0
   -3.2785    3.7389   -1.1131 C   0  0  0  0  0  0  0  0  0  0  0  0
   -1.6784    0.9894    2.2590 C   0  0  0  0  0  0  0  0  0  0  0  0
   -1.2060   -0.2155    3.0550 C   0  0  0  0  0  0  0  0  0  0  0  0
   -0.4086   -0.1162    4.1277 C   0  0  0  0  0  0  0  0  0  0  0  0
   -1.8708   -1.9050    2.5925 Br  0  0  0  0  0  0  0  0  0  0  0  0
  1  2  1  0
  2  3  1  0
  2  4  1  0
  4  5  1  0
  4 11  1  0
  4 14  1  0
  5  6  2  0
  5  7  1  0
  7  8  1  0
  8  9  2  0
  8 10  1  0
 10 11  1  0
 10 13  1  0
 11 12  2  0
 14 15  1  0
 15 16  2  0
 15 17  1  0
M  END
>  <DRUGBANK_ID>  (1) 
DB13229

>  <COMMON_NAME>  (1) 
Enibomal

>  <CAS_NUMBER>  (1) 
125-55-3

>  <UNII>  (1) 
A77U8G9H84

>  <SYNONYMS>  (1) 
Narcobarbital

$$$$
