
     RDKit          3D

 35 38  0  0  0  0  0  0  0  0999 V2000
    0.9577    0.0816   -0.3962 S   0  0  0  0  0  0  0  0  0  0  0  0
    0.6823   -2.8729    0.0373 O   0  0  0  0  0  0  0  0  0  0  0  0
    1.8374   -5.9517    1.2753 O   0  0  0  0  0  0  0  0  0  0  0  0
   -0.3633   -4.8662    2.2016 O   0  0  0  0  0  0  0  0  0  0  0  0
    0.2430   -0.3493    1.0064 O   0  0  0  0  0  0  0  0  0  0  0  0
    0.4226    1.3875   -0.7344 O   0  0  0  0  0  0  0  0  0  0  0  0
    0.7689   -0.9573   -1.3669 O   0  0  0  0  0  0  0  0  0  0  0  0
    4.6342    0.9760    0.4773 O   0  0  0  0  0  0  0  0  0  0  0  0
    5.1192   -0.9680    6.4486 O   0  0  0  0  0  0  0  0  0  0  0  0
    2.6455   -3.7133   -0.9607 N   0  0  0  0  0  0  0  0  0  0  0  0
    3.9610   -3.9303   -2.7520 N   0  0  0  0  0  0  0  0  0  0  0  0
    4.0814   -2.2895    0.4233 N   0  0  0  0  0  0  0  0  0  0  0  0
    2.5896    0.1485   -0.0948 N   0  0  0  0  0  0  0  0  0  0  0  0
    6.1874   -1.7981   -0.7044 N   0  0  0  0  0  0  0  0  0  0  0  0
    6.7203   -2.5741   -2.8484 N   0  0  0  0  0  0  0  0  0  0  0  0
    2.0193    3.0518    0.3446 N   0  0  0  0  0  0  0  0  0  0  0  0
    1.8408   -4.5247    1.2748 C   0  0  2  0  0  0  0  0  0  0  0  0
    0.7282   -3.9354    2.1436 C   0  0  1  0  0  0  0  0  0  0  0  0
    1.5085   -4.0066   -0.1119 C   0  0  1  0  0  0  0  0  0  0  0  0
    0.2332   -2.7217    1.3718 C   0  0  1  0  0  0  0  0  0  0  0  0
    0.7534   -1.4012    1.8053 C   0  0  0  0  0  0  0  0  0  0  0  0
    3.7819   -2.9960   -0.6830 C   0  0  0  0  0  0  0  0  0  0  0  0
    2.8044   -4.2474   -2.2151 C   0  0  0  0  0  0  0  0  0  0  0  0
    4.5822   -3.1435   -1.8082 C   0  0  0  0  0  0  0  0  0  0  0  0
    5.8344   -2.5037   -1.7982 C   0  0  0  0  0  0  0  0  0  0  0  0
    5.3210   -1.7398    0.3267 C   0  0  0  0  0  0  0  0  0  0  0  0
    2.8124    2.2806    1.2872 C   0  0  2  0  0  0  0  0  0  0  0  0
    3.4144    1.1022    0.5320 C   0  0  0  0  0  0  0  0  0  0  0  0
    2.0371    1.7858    2.5210 C   0  0  0  0  0  0  0  0  0  0  0  0
    2.8837    1.0676    3.5550 C   0  0  0  0  0  0  0  0  0  0  0  0
    2.7739   -0.2990    3.8214 C   0  0  0  0  0  0  0  0  0  0  0  0
    3.7872    1.7467    4.3440 C   0  0  0  0  0  0  0  0  0  0  0  0
    3.5454   -1.0360    4.6992 C   0  0  0  0  0  0  0  0  0  0  0  0
    4.5204    1.0513    5.3217 C   0  0  0  0  0  0  0  0  0  0  0  0
    4.4120   -0.3316    5.4798 C   0  0  0  0  0  0  0  0  0  0  0  0
  1  5  1  0
  1  6  2  0
  1  7  2  0
  1 13  1  0
  2 19  1  0
  2 20  1  0
  5 21  1  0
  8 28  2  0
  9 35  1  0
 10 22  1  0
 10 23  1  0
 11 23  2  0
 11 24  1  0
 12 22  1  0
 12 26  2  0
 13 28  1  0
 14 25  2  0
 14 26  1  0
 15 25  1  0
 17  3  1  6
 17 18  1  0
 17 19  1  0
 18  4  1  6
 18 20  1  0
 19 10  1  1
 20 21  1  1
 22 24  2  0
 24 25  1  0
 27 16  1  6
 27 28  1  0
 27 29  1  0
 29 30  1  0
 30 31  2  0
 30 32  1  0
 31 33  1  0
 32 34  2  0
 33 35  2  0
 34 35  1  0
M  END
>  <DRUGBANK_ID>  (1) 
DB03325

>  <SECONDARY_ACCESSION_NUMBERS>  (1) 
EXPT03277

>  <COMMON_NAME>  (1) 
Tyrosyladenylate

>  <SYNONYMS>  (1) 
5'-O-(L-Tyrosylsulfamoyl)adenosine

$$$$
