
     RDKit          3D

  3  2  0  0  0  0  0  0  0  0999 V2000
    1.0692   -0.0553   -0.0677 S   0  0  0  0  0  0  0  0  0  0  0  0
    0.5006   -0.9459   -1.2286 O   0  0  0  0  0  0  0  0  0  0  0  0
    2.6382   -0.0259   -0.0293 O   0  0  0  0  0  0  0  0  0  0  0  0
  1  2  2  0
  1  3  2  0
M  END
>  <DRUGBANK_ID>  (1) 
DB16426

>  <COMMON_NAME>  (1) 
Sulfur dioxide

>  <CAS_NUMBER>  (1) 
7446-09-5

>  <UNII>  (1) 
0UZA3422Q4

>  <SYNONYMS>  (1) 
Schwefeldioxyd; Siarki dwutlenek; Sulfurous oxide; Sulfuroxide

$$$$
