
     RDKit          3D

 14 15  0  0  0  0  0  0  0  0999 V2000
    1.1706    0.1072    0.0797 O   0  0  0  0  0  0  0  0  0  0  0  0
    2.8244   -0.8749    1.2195 O   0  0  0  0  0  0  0  0  0  0  0  0
    1.2161    1.7730   -1.7331 C   0  0  1  0  0  0  0  0  0  0  0  0
    0.4641    2.1319   -3.0223 C   0  0  0  0  0  0  0  0  0  0  0  0
    0.0981    0.6468   -3.3173 C   0  0  2  0  0  0  0  0  0  0  0  0
    0.3222    0.9146   -0.8595 C   0  0  1  0  0  0  0  0  0  0  0  0
   -0.5071    0.1415   -1.9498 C   0  0  0  0  0  0  0  0  0  0  0  0
    2.1945    0.7167   -2.3805 C   0  0  0  0  0  0  0  0  0  0  0  0
    1.4283   -0.0610   -3.4288 C   0  0  0  0  0  0  0  0  0  0  0  0
    1.6349    2.9938   -0.8816 C   0  0  0  0  0  0  0  0  0  0  0  0
    1.4301    2.8192   -4.0287 C   0  0  0  0  0  0  0  0  0  0  0  0
   -0.7475    3.0375   -2.8420 C   0  0  0  0  0  0  0  0  0  0  0  0
    2.5106   -0.0031    0.4323 C   0  0  0  0  0  0  0  0  0  0  0  0
    3.6816    0.7866   -0.2239 C   0  0  0  0  0  0  0  0  0  0  0  0
  1 13  1  0
  2 13  2  0
  3  4  1  0
  3  6  1  0
  3  8  1  0
  3 10  1  1
  4 11  1  0
  4 12  1  0
  5  4  1  0
  5  7  1  1
  5  9  1  0
  6  1  1  6
  6  7  1  0
  8  9  1  0
 13 14  1  0
M  END
>  <DRUGBANK_ID>  (1) 
DB14665

>  <SECONDARY_ACCESSION_NUMBERS>  (1) 
DBSALT002203

>  <COMMON_NAME>  (1) 
Bornyl acetate

>  <CAS_NUMBER>  (1) 
76-49-3

>  <UNII>  (1) 
213431586X

>  <SYNONYMS>  (1) 
Bornyl acetate

$$$$
