LL1
     RDKit          3D

 15 17  0  0  0  0  0  0  0  0999 V2000
   -0.1813   -0.7588    0.0086 C   0  0  0  0  0  0  0  0  0  0  0  0
    1.0519   -1.4379    0.0085 C   0  0  0  0  0  0  0  0  0  0  0  0
    2.2356   -0.6929    0.0046 C   0  0  0  0  0  0  0  0  0  0  0  0
    2.1999    0.7013    0.0015 C   0  0  0  0  0  0  0  0  0  0  0  0
    0.9849    1.3967    0.0022 C   0  0  0  0  0  0  0  0  0  0  0  0
   -0.1858    0.6297    0.0024 C   0  0  0  0  0  0  0  0  0  0  0  0
   -1.5088    0.9801   -0.0059 N   0  0  0  0  0  0  0  0  0  0  0  0
   -2.3590   -0.0633   -0.0375 N   0  0  0  0  0  0  0  0  0  0  0  0
   -1.5573   -1.1385   -0.0035 C   0  0  0  0  0  0  0  0  0  0  0  0
   -2.0875   -2.4958    0.0022 C   0  0  0  0  0  0  0  0  0  0  0  0
   -1.7623   -3.3729    1.0383 C   0  0  0  0  0  0  0  0  0  0  0  0
   -2.2527   -4.6658    0.9809 C   0  0  0  0  0  0  0  0  0  0  0  0
   -3.0180   -5.1335   -0.0278 N   0  0  0  0  0  0  0  0  0  0  0  0
   -3.3204   -4.2630   -1.0161 C   0  0  0  0  0  0  0  0  0  0  0  0
   -2.8905   -2.9469   -1.0444 C   0  0  0  0  0  0  0  0  0  0  0  0
  1  2  2  0
  2  3  1  0
  4  3  2  0
  5  4  1  0
  6  1  1  0
  6  5  2  0
  7  6  1  0
  7  8  1  0
  8  9  2  0
  9  1  1  0
  9 10  1  0
 10 15  1  0
 11 10  2  0
 11 12  1  0
 12 13  2  0
 13 14  1  0
 15 14  2  0
M  END
>  <DRUGBANK_ID>  (1) 
DB08113

>  <COMMON_NAME>  (1) 
3-pyridin-4-yl-1H-indazole

$$$$
