
     RDKit          3D

 28 30  0  0  1  0  0  0  0  0999 V2000
   -0.3477    5.0645    3.2309 C   0  0  0  0  0  0  0  0  0  0  0  0
   -0.2445    4.2033    4.3220 C   0  0  0  0  0  0  0  0  0  0  0  0
   -0.3088    2.8477    4.1100 C   0  0  0  0  0  0  0  0  0  0  0  0
   -0.4504    2.3771    2.8162 C   0  0  0  0  0  0  0  0  0  0  0  0
   -0.6531    3.1949    1.7043 C   0  0  0  0  0  0  0  0  0  0  0  0
   -0.5447    4.5700    1.9301 C   0  0  0  0  0  0  0  0  0  0  0  0
   -1.0965    2.5981    0.3758 C   0  0  2  0  0  0  0  0  0  0  0  0
   -0.4502    1.2397   -0.0228 C   0  0  0  0  0  0  0  0  0  0  0  0
   -0.5886    0.0221    0.7807 N   0  0  0  0  0  0  0  0  0  0  0  0
    0.6244   -0.8102    0.8032 C   0  0  0  0  0  0  0  0  0  0  0  0
    2.0050   -0.1375    0.9494 C   0  0  0  0  0  0  0  0  0  0  0  0
    2.2356    0.5383    2.2667 C   0  0  0  0  0  0  0  0  0  0  0  0
    2.0845   -0.0842    3.5184 C   0  0  0  0  0  0  0  0  0  0  0  0
    2.2827    0.6224    4.7263 C   0  0  0  0  0  0  0  0  0  0  0  0
    2.5979    1.9803    4.6914 C   0  0  0  0  0  0  0  0  0  0  0  0
    2.6776    2.5576    3.4243 C   0  0  0  0  0  0  0  0  0  0  0  0
    2.5515    1.8762    2.2352 C   0  0  0  0  0  0  0  0  0  0  0  0
    2.7190    2.7353    5.8873 N   0  0  0  0  0  0  0  0  0  0  0  0
    3.1131    4.0515    6.0913 C   0  0  0  0  0  0  0  0  0  0  0  0
    3.0667    4.5142    7.2234 O   0  0  0  0  0  0  0  0  0  0  0  0
   -0.7763    3.5151   -0.6889 O   0  0  0  0  0  0  0  0  0  0  0  0
    3.5414    4.9479    4.9324 C   0  0  0  0  0  0  0  0  0  0  0  0
    4.7453    4.4226    4.1790 C   0  0  0  0  0  0  0  0  0  0  0  0
    5.2395    4.9284    2.9906 C   0  0  0  0  0  0  0  0  0  0  0  0
    6.3431    3.8164    2.2844 S   0  0  0  0  0  0  0  0  0  0  0  0
    6.0641    2.7199    3.5737 C   0  0  0  0  0  0  0  0  0  0  0  0
    5.3056    3.1924    4.5306 N   0  0  0  0  0  0  0  0  0  0  0  0
    6.5649    1.4776    3.5712 N   0  0  0  0  0  0  0  0  0  0  0  0
  1  2  2  0
  1  6  1  0
  2  3  1  0
  3  4  2  0
  4  5  1  0
  5  6  2  0
  7 21  1  6
  7  8  1  0
  7  5  1  0
  8  9  1  0
  9 10  1  0
 10 11  1  0
 11 12  1  0
 12 13  2  0
 12 17  1  0
 13 14  1  0
 14 15  2  0
 15 16  1  0
 15 18  1  0
 16 17  2  0
 18 19  1  0
 19 20  2  0
 19 22  1  0
 22 23  1  0
 23 24  2  0
 23 27  1  0
 24 25  1  0
 25 26  1  0
 26 27  2  0
 26 28  1  0
M  END
>  <DRUGBANK_ID>  (1) 
DB08893

>  <SECONDARY_ACCESSION_NUMBERS>  (1) 
DB05702

>  <COMMON_NAME>  (1) 
Mirabegron

>  <CAS_NUMBER>  (1) 
223673-61-8

>  <UNII>  (1) 
MVR3JL3B2V

>  <SYNONYMS>  (1) 
Mirabegron

$$$$
