
     RDKit          3D

 37 42  0  0  0  0  0  0  0  0999 V2000
    1.0034    0.0444    0.0618 C   0  0  0  0  0  0  0  0  0  0  0  0
    0.6020    0.5414   -1.2089 O   0  0  0  0  0  0  0  0  0  0  0  0
    1.0813    1.7849   -1.4907 C   0  0  0  0  0  0  0  0  0  0  0  0
    2.3840    2.1775   -1.3462 C   0  0  0  0  0  0  0  0  0  0  0  0
    2.7034    3.4963   -1.6800 C   0  0  0  0  0  0  0  0  0  0  0  0
    1.7660    4.4100   -2.1485 C   0  0  0  0  0  0  0  0  0  0  0  0
    0.4609    3.9208   -2.2830 C   0  0  0  0  0  0  0  0  0  0  0  0
    0.1849    2.6306   -1.9860 N   0  0  0  0  0  0  0  0  0  0  0  0
   -0.5218    4.8443   -2.7240 C   0  0  0  0  0  0  0  0  0  0  0  0
   -0.1800    6.1853   -3.0400 C   0  0  0  0  0  0  0  0  0  0  0  0
   -1.0864    7.1749   -3.5064 C   0  0  0  0  0  0  0  0  0  0  0  0
   -0.6629    8.4671   -3.8038 C   0  0  0  0  0  0  0  0  0  0  0  0
    0.6741    8.7928   -3.6274 C   0  0  0  0  0  0  0  0  0  0  0  0
    1.5738    7.8352   -3.1660 C   0  0  0  0  0  0  0  0  0  0  0  0
    1.1802    6.5414   -2.8741 C   0  0  0  0  0  0  0  0  0  0  0  0
    2.1072    5.6765   -2.4365 N   0  0  0  0  0  0  0  0  0  0  0  0
    1.2152   10.3858   -3.9821 Cl  0  0  0  0  0  0  0  0  0  0  0  0
   -1.9164    4.4627   -2.7058 N   0  0  0  0  0  0  0  0  0  0  0  0
   -2.3128    3.1107   -2.5991 C   0  0  0  0  0  0  0  0  0  0  0  0
   -2.4130    2.5266   -1.3338 C   0  0  0  0  0  0  0  0  0  0  0  0
   -2.6022    1.1468   -1.2040 C   0  0  0  0  0  0  0  0  0  0  0  0
   -2.8015    0.4052   -2.3904 C   0  0  0  0  0  0  0  0  0  0  0  0
   -2.9557    1.0274   -3.6302 C   0  0  0  0  0  0  0  0  0  0  0  0
   -2.4749    2.3236   -3.7450 C   0  0  0  0  0  0  0  0  0  0  0  0
   -3.7597    0.3835   -4.7497 C   0  0  0  0  0  0  0  0  0  0  0  0
   -5.0501    1.0383   -5.1352 N   0  0  0  0  0  0  0  0  0  0  0  0
   -4.9475    2.3927   -5.6704 C   0  0  0  0  0  0  0  0  0  0  0  0
   -5.1626    3.3470   -4.5076 C   0  0  0  0  0  0  0  0  0  0  0  0
   -6.0321    2.5767   -3.5417 C   0  0  0  0  0  0  0  0  0  0  0  0
   -6.0133    1.1312   -4.0367 C   0  0  0  0  0  0  0  0  0  0  0  0
   -2.9847   -0.9503   -2.3877 O   0  0  0  0  0  0  0  0  0  0  0  0
   -2.6340    0.5618    0.1951 C   0  0  0  0  0  0  0  0  0  0  0  0
   -3.9402    0.1762    0.7860 N   0  0  0  0  0  0  0  0  0  0  0  0
   -4.6765   -0.8407    0.0319 C   0  0  0  0  0  0  0  0  0  0  0  0
   -5.5068   -0.0282   -0.9288 C   0  0  0  0  0  0  0  0  0  0  0  0
   -6.0093    1.1064   -0.0836 C   0  0  0  0  0  0  0  0  0  0  0  0
   -4.8902    1.2972    0.9400 C   0  0  0  0  0  0  0  0  0  0  0  0
  1  2  1  0
  2  3  1  0
  3  4  2  0
  3  8  1  0
  4  5  1  0
  5  6  2  0
  6  7  1  0
  6 16  1  0
  7  8  2  0
  7  9  1  0
  9 10  2  0
  9 18  1  0
 10 11  1  0
 10 15  1  0
 11 12  2  0
 12 13  1  0
 13 14  2  0
 13 17  1  0
 14 15  1  0
 15 16  2  0
 18 19  1  0
 19 20  2  0
 19 24  1  0
 20 21  1  0
 21 22  2  0
 21 32  1  0
 22 23  1  0
 22 31  1  0
 23 24  2  0
 23 25  1  0
 25 26  1  0
 26 27  1  0
 26 30  1  0
 27 28  1  0
 28 29  1  0
 29 30  1  0
 32 33  1  0
 33 34  1  0
 33 37  1  0
 34 35  1  0
 35 36  1  0
 36 37  1  0
M  END
>  <DRUGBANK_ID>  (1) 
DB12975

>  <COMMON_NAME>  (1) 
Pyronaridine

>  <CAS_NUMBER>  (1) 
74847-35-1

>  <UNII>  (1) 
TD3P7Q3SG6

>  <SYNONYMS>  (1) 
Pyronaridine

$$$$
