
     RDKit          3D

 30 34  0  0  1  0  0  0  0  0999 V2000
    1.3819    0.3210    0.2586 C   0  0  0  0  0  0  0  0  0  0  0  0
   -4.5534   -4.2909    0.8694 C   0  0  0  0  0  0  0  0  0  0  0  0
   -5.3387   -3.4246    1.8805 C   0  0  0  0  0  0  0  0  0  0  0  0
   -5.2864   -4.0054   -0.4292 C   0  0  0  0  0  0  0  0  0  0  0  0
   -5.8970   -2.2243    1.1080 C   0  0  0  0  0  0  0  0  0  0  0  0
   -4.3993   -1.7334   -0.8863 C   0  0  0  0  0  0  0  0  0  0  0  0
    3.4291   -3.5542    1.3385 C   0  0  0  0  0  0  0  0  0  0  0  0
    4.8580   -3.4396    1.8593 C   0  0  0  0  0  0  0  0  0  0  0  0
    3.7465   -2.0741    5.3440 C   0  0  0  0  0  0  0  0  0  0  0  0
    0.8999   -1.7724   -0.7524 C   0  0  0  0  0  0  0  0  0  0  0  0
    4.7545   -2.9684    6.2060 C   0  0  0  0  0  0  0  0  0  0  0  0
   -0.5958   -0.6749   -0.3247 C   0  0  0  0  0  0  0  0  0  0  0  0
   -3.4163   -1.2148    0.1547 C   0  0  0  0  0  0  0  0  0  0  0  0
    1.9192   -0.4606    3.1151 C   0  0  0  0  0  0  0  0  0  0  0  0
    0.5034   -0.6147    2.5864 C   0  0  0  0  0  0  0  0  0  0  0  0
   -5.5886   -2.5084   -0.3619 C   0  0  0  0  0  0  0  0  0  0  0  0
    4.0079   -1.8366    3.7316 C   0  0  2  0  0  0  0  0  0  0  0  0
    2.6529   -1.8099    2.9566 C   0  0  2  0  0  0  0  0  0  0  0  0
    2.7483   -2.1891    1.4226 C   0  0  2  0  0  0  0  0  0  0  0  0
    4.9920   -2.8720    3.2513 C   0  0  0  0  0  0  0  0  0  0  0  0
    1.3504   -2.2339    0.7957 C   0  0  1  0  0  0  0  0  0  0  0  0
    5.9256   -2.5305    5.4516 C   0  0  0  0  0  0  0  0  0  0  0  0
   -0.7670   -1.7424    0.4826 C   0  0  1  0  0  0  0  0  0  0  0  0
   -2.7553   -1.9799    1.3334 C   0  0  0  0  0  0  0  0  0  0  0  0
    5.9386   -3.2794    4.1184 C   0  0  0  0  0  0  0  0  0  0  0  0
    0.5958   -1.0602    1.1527 C   0  0  2  0  0  0  0  0  0  0  0  0
    6.5253   -1.5001    5.7215 O   0  0  0  0  0  0  0  0  0  0  0  0
   -3.2827   -2.1593    2.4704 O   0  0  0  0  0  0  0  0  0  0  0  0
    6.4052   -4.5798    4.0173 O   0  0  0  0  0  0  0  0  0  0  0  0
   -1.5435   -2.4054    1.3967 O   0  0  0  0  0  0  0  0  0  0  0  0
  3  2  1  0
  4  2  1  0
  5  3  1  0
  8  7  1  0
 11  9  1  0
 12 10  1  0
 13  6  1  0
 15 14  1  0
 16  4  1  0
 16  5  1  0
 16  6  1  0
 17  9  1  1
 18 14  1  6
 18 17  1  0
 19  7  1  1
 19 18  1  0
 20  8  1  0
 20 17  1  0
 21 10  1  6
 21 19  1  0
 22 11  1  0
 23 12  1  0
 23 30  1  1
 24 13  1  0
 25 20  2  0
 25 22  1  0
 26  1  1  6
 26 15  1  0
 26 21  1  0
 26 23  1  0
 27 22  2  0
 28 24  2  0
 29 25  1  0
 30 24  1  0
M  END
>  <DRUGBANK_ID>  (1) 
DB13185

>  <COMMON_NAME>  (1) 
Oxabolone cipionate

>  <CAS_NUMBER>  (1) 
1254-35-9

>  <UNII>  (1) 
5RXY50Q01N

>  <SYNONYMS>  (1) 
4-hydroxy-19-nortestosterone 17Î²-cypionate; Cipionate d'oxabolone; Cipionato de oxabolona; Oxabolone 17-cyclopentanepropionate; Oxabolone cipionate; Oxabolone cypionate; Oxaboloni cipionas

$$$$
