1129
     RDKit          3D

 25 27  0  0  1  0  0  0  0  0999 V2000
    1.0272    0.4794    0.0360 S   0  0  0  0  0  0  0  0  0  0  0  0
    1.0510   -5.6001   -2.5082 O   0  0  0  0  0  0  0  0  0  0  0  0
   -0.6205   -5.5804    0.9033 O   0  0  0  0  0  0  0  0  0  0  0  0
    0.5979    1.3964   -1.0671 O   0  0  0  0  0  0  0  0  0  0  0  0
    3.4432   -0.9888    0.1045 N   0  0  0  0  0  0  0  0  0  0  0  0
    3.5387    1.2314    0.0082 N   0  0  0  0  0  0  0  0  0  0  0  0
    1.4971   -1.3592   -2.6243 N   0  0  0  0  0  0  0  0  0  0  0  0
    0.4797   -1.1258   -0.2689 C   0  0  0  0  0  0  0  0  0  0  0  0
    0.9482   -1.8939   -1.5206 C   0  0  0  0  0  0  0  0  0  0  0  0
    0.7887   -3.2535   -1.4906 C   0  0  0  0  0  0  0  0  0  0  0  0
    1.0863   -4.2182   -2.4819 C   0  0  0  0  0  0  0  0  0  0  0  0
    2.7392    0.2149    0.0126 C   0  0  0  0  0  0  0  0  0  0  0  0
    4.7848   -0.6685    0.0952 C   0  0  0  0  0  0  0  0  0  0  0  0
    0.4652   -6.6456   -1.6592 C   0  0  0  0  0  0  0  0  0  0  0  0
    1.0892   -6.9735   -0.2866 C   0  0  0  0  0  0  0  0  0  0  0  0
    4.7959    0.7147    0.0609 C   0  0  0  0  0  0  0  0  0  0  0  0
    0.2304   -3.5572   -0.1797 C   0  0  0  0  0  0  0  0  0  0  0  0
    1.5660   -3.6195   -3.6466 C   0  0  0  0  0  0  0  0  0  0  0  0
    0.8664   -5.8562    0.6616 C   0  0  0  0  0  0  0  0  0  0  0  0
    5.9544   -1.4392    0.1031 C   0  0  0  0  0  0  0  0  0  0  0  0
    1.7574   -2.2330   -3.6324 C   0  0  0  0  0  0  0  0  0  0  0  0
    5.9983    1.4104    0.0714 C   0  0  0  0  0  0  0  0  0  0  0  0
    7.1602   -0.7199    0.0918 C   0  0  0  0  0  0  0  0  0  0  0  0
    7.1828    0.6779    0.0806 C   0  0  0  0  0  0  0  0  0  0  0  0
   -1.7322   -5.2697   -0.1023 C   0  0  0  0  0  0  0  0  0  0  0  0
  1  4  2  0
  1  8  1  0
  1 12  1  0
  2 11  1  0
  2 14  1  0
  3 19  1  0
  3 25  1  0
  5 12  1  0
  5 13  1  0
  6 12  2  0
  6 16  1  0
  7  9  2  0
  7 21  1  0
  8  9  1  0
  9 10  1  0
 10 11  2  0
 10 17  1  0
 11 18  1  0
 13 16  2  0
 13 20  1  0
 14 15  1  0
 15 19  1  0
 16 22  1  0
 18 21  2  0
 20 23  2  0
 22 24  2  0
 23 24  1  0
M  END
>  <DRUGBANK_ID>  (1) 
DB01129

>  <SECONDARY_ACCESSION_NUMBERS>  (1) 
APRD01212

>  <COMMON_NAME>  (1) 
Rabeprazole

>  <CAS_NUMBER>  (1) 
117976-89-3

>  <UNII>  (1) 
32828355LL

>  <SYNONYMS>  (1) 
Clofezone; Rabeprazole

$$$$
