
     RDKit          3D

 13 12  0  0  1  0  0  0  0  0999 V2000
    0.9229    0.0209   -0.0601 N   0  0  0  0  0  0  0  0  0  0  0  0
    0.4329   -0.4283   -1.3712 C   0  0  1  0  0  0  0  0  0  0  0  0
    0.9395   -1.8346   -1.6469 C   0  0  0  0  0  0  0  0  0  0  0  0
    0.4329   -2.7765   -0.5668 C   0  0  0  0  0  0  0  0  0  0  0  0
   -1.0871   -2.7765   -0.5668 C   0  0  0  0  0  0  0  0  0  0  0  0
   -1.7673   -3.9326   -0.7934 C   0  0  0  0  0  0  0  0  0  0  0  0
   -3.3673   -3.9326   -0.7934 B   0  0  0  0  0  0  0  0  0  0  0  0
   -3.8673   -4.3909   -2.1313 O   0  0  0  0  0  0  0  0  0  0  0  0
   -3.8673   -4.8621    0.2725 O   0  0  0  0  0  0  0  0  0  0  0  0
   -3.8673   -2.5448   -0.5214 O   0  0  0  0  0  0  0  0  0  0  0  0
   -1.0871   -0.4283   -1.3712 C   0  0  0  0  0  0  0  0  0  0  0  0
   -1.7971    0.3800   -2.2981 O   0  0  0  0  0  0  0  0  0  0  0  0
   -1.7226   -1.1517   -0.5417 O   0  0  0  0  0  0  0  0  0  0  0  0
  2  1  1  1
  2  3  1  0
  2 11  1  0
  3  4  1  0
  4  5  1  0
  5  6  2  0
  6  7  1  0
  7  8  1  0
  7  9  1  0
  7 10  1  0
 11 12  1  0
 11 13  2  0
M  CHG  1   7  -1
M  END
>  <DRUGBANK_ID>  (1) 
DB04585

>  <COMMON_NAME>  (1) 
DEHYDRO-2(S)-AMINO-6-BORONOHEXANOIC ACID

$$$$
