
     RDKit          3D

 37 41  0  0  0  0  0  0  0  0999 V2000
   -1.9065   -0.0096   -0.0224 C   0  0  0  0  0  0  0  0  0  0  0  0
   -0.4674   -0.0190   -0.0579 C   0  0  0  0  0  0  0  0  0  0  0  0
    0.2304   -1.2352   -0.0784 C   0  0  0  0  0  0  0  0  0  0  0  0
    1.6319   -1.2412   -0.0327 C   0  0  0  0  0  0  0  0  0  0  0  0
    2.3315   -0.0325    0.0482 C   0  0  0  0  0  0  0  0  0  0  0  0
    1.6343    1.1803    0.0198 C   0  0  0  0  0  0  0  0  0  0  0  0
    0.2382    1.1891   -0.0371 C   0  0  0  0  0  0  0  0  0  0  0  0
   -3.0592    0.0003    0.0383 N   0  0  0  0  0  0  0  0  0  0  0  0
    2.3530   -2.5441   -0.0303 C   0  0  0  0  0  0  0  0  0  0  0  0
    3.0978   -2.8302    1.2150 C   0  0  0  0  0  0  0  0  0  0  0  0
    3.3155   -4.1201    1.4571 C   0  0  0  0  0  0  0  0  0  0  0  0
    3.2591   -5.0941    0.3623 C   0  0  0  0  0  0  0  0  0  0  0  0
    2.8758   -4.6087   -0.8816 N   0  0  0  0  0  0  0  0  0  0  0  0
    2.2512   -3.3653   -1.0337 N   0  0  0  0  0  0  0  0  0  0  0  0
    3.6290   -6.2327    0.6302 O   0  0  0  0  0  0  0  0  0  0  0  0
    3.0212   -5.4660   -2.0710 C   0  0  0  0  0  0  0  0  0  0  0  0
    4.4796   -5.6867   -2.4626 C   0  0  0  0  0  0  0  0  0  0  0  0
    5.3962   -6.3240   -1.6002 C   0  0  0  0  0  0  0  0  0  0  0  0
    6.7839   -6.2167   -1.7603 C   0  0  0  0  0  0  0  0  0  0  0  0
    7.2368   -5.7424   -2.9878 C   0  0  0  0  0  0  0  0  0  0  0  0
    6.3297   -5.3474   -3.9767 C   0  0  0  0  0  0  0  0  0  0  0  0
    4.9689   -5.2279   -3.6841 C   0  0  0  0  0  0  0  0  0  0  0  0
    7.7087   -6.5775   -0.6797 C   0  0  0  0  0  0  0  0  0  0  0  0
    7.6866   -7.8464   -0.2515 N   0  0  0  0  0  0  0  0  0  0  0  0
    8.5708   -8.1518    0.7168 C   0  0  0  0  0  0  0  0  0  0  0  0
    9.4194   -7.2527    1.3311 C   0  0  0  0  0  0  0  0  0  0  0  0
    9.3568   -5.9812    0.8141 C   0  0  0  0  0  0  0  0  0  0  0  0
    8.5318   -5.6177   -0.1965 N   0  0  0  0  0  0  0  0  0  0  0  0
   10.2626   -7.4824    2.3725 O   0  0  0  0  0  0  0  0  0  0  0  0
   10.2463   -8.8033    2.9216 C   0  0  0  0  0  0  0  0  0  0  0  0
    9.4746   -9.9942    6.2864 N   0  0  0  0  0  0  0  0  0  0  0  0
    9.5475   -8.5697    5.9275 C   0  0  0  0  0  0  0  0  0  0  0  0
    8.6057   -8.2489    4.7790 C   0  0  0  0  0  0  0  0  0  0  0  0
    8.8926   -9.1517    3.5855 C   0  0  0  0  0  0  0  0  0  0  0  0
    8.8400  -10.6197    3.9888 C   0  0  0  0  0  0  0  0  0  0  0  0
    9.7800  -10.8818    5.1548 C   0  0  0  0  0  0  0  0  0  0  0  0
   10.4073  -10.2616    7.3769 C   0  0  0  0  0  0  0  0  0  0  0  0
  1  2  1  0
  1  8  3  0
  2  3  2  0
  2  7  1  0
  3  4  1  0
  4  5  2  0
  4  9  1  0
  5  6  1  0
  6  7  2  0
  9 10  1  0
  9 14  2  0
 10 11  2  0
 11 12  1  0
 12 13  1  0
 12 15  2  0
 13 14  1  0
 13 16  1  0
 16 17  1  0
 17 18  2  0
 17 22  1  0
 18 19  1  0
 19 20  2  0
 19 23  1  0
 20 21  1  0
 21 22  2  0
 23 24  2  0
 23 28  1  0
 24 25  1  0
 25 26  2  0
 26 27  1  0
 26 29  1  0
 27 28  2  0
 29 30  1  0
 30 34  1  0
 31 32  1  0
 31 36  1  0
 31 37  1  0
 32 33  1  0
 33 34  1  0
 34 35  1  0
 35 36  1  0
M  END
>  <DRUGBANK_ID>  (1) 
DB15133

>  <COMMON_NAME>  (1) 
Tepotinib

>  <CAS_NUMBER>  (1) 
1100598-32-0

>  <UNII>  (1) 
1IJV77EI07

>  <SYNONYMS>  (1) 
Tepotinib

$$$$
