
     RDKit          3D

 42 45  0  0  0  0  0  0  0  0999 V2000
    0.8227   -0.1098    0.0523 P   0  0  0  0  0  0  0  0  0  0  0  0
    0.0972   -1.3771   -1.0873 C   0  0  0  0  0  0  0  0  0  0  0  0
    0.2673   -2.7708   -0.8723 C   0  0  0  0  0  0  0  0  0  0  0  0
    0.1534   -3.7228   -1.8704 C   0  0  0  0  0  0  0  0  0  0  0  0
   -0.5410   -3.3846   -2.9975 C   0  0  0  0  0  0  0  0  0  0  0  0
   -1.0017   -2.0787   -3.1334 C   0  0  0  0  0  0  0  0  0  0  0  0
   -0.5690   -1.0637   -2.2655 C   0  0  0  0  0  0  0  0  0  0  0  0
    0.3207   -0.4670    1.7333 C   0  0  0  0  0  0  0  0  0  0  0  0
    0.3098   -1.7826    2.2084 C   0  0  0  0  0  0  0  0  0  0  0  0
    0.0399   -2.1236    3.5209 C   0  0  0  0  0  0  0  0  0  0  0  0
   -0.2105   -1.1170    4.4253 C   0  0  0  0  0  0  0  0  0  0  0  0
   -0.1983    0.2110    3.9965 C   0  0  0  0  0  0  0  0  0  0  0  0
    0.0240    0.5354    2.6522 C   0  0  0  0  0  0  0  0  0  0  0  0
    0.3337    1.5632   -0.3908 C   0  0  0  0  0  0  0  0  0  0  0  0
   -0.9696    1.8057   -0.8341 C   0  0  0  0  0  0  0  0  0  0  0  0
   -1.4068    3.0903   -1.1438 C   0  0  0  0  0  0  0  0  0  0  0  0
   -0.5723    4.1772   -0.9178 C   0  0  0  0  0  0  0  0  0  0  0  0
    0.7085    3.9705   -0.4156 C   0  0  0  0  0  0  0  0  0  0  0  0
    1.1796    2.6705   -0.2118 C   0  0  0  0  0  0  0  0  0  0  0  0
    2.7145   -0.0471    0.1315 C   0  0  0  0  0  0  0  0  0  0  0  0
    3.4190   -1.3470    0.5177 C   0  0  0  0  0  0  0  0  0  0  0  0
    3.1207   -2.3365   -0.5665 C   0  0  0  0  0  0  0  0  0  0  0  0
    3.5194   -2.0353   -1.9898 C   0  0  0  0  0  0  0  0  0  0  0  0
    5.0111   -2.1069   -2.0104 C   0  0  0  0  0  0  0  0  0  0  0  0
    5.4098   -3.5286   -1.5988 C   0  0  0  0  0  0  0  0  0  0  0  0
    4.8194   -4.5724   -2.5685 C   0  0  0  0  0  0  0  0  0  0  0  0
    5.2585   -4.3113   -4.0195 C   0  0  0  0  0  0  0  0  0  0  0  0
    6.7734   -4.2301   -4.0988 C   0  0  0  0  0  0  0  0  0  0  0  0
    7.4520   -5.5092   -3.6034 C   0  0  0  0  0  0  0  0  0  0  0  0
    8.6173   -5.4224   -2.6371 C   0  0  0  0  0  0  0  0  0  0  0  0
    9.1313   -6.5553   -2.1122 C   0  0  0  0  0  0  0  0  0  0  0  0
    8.5984   -7.9292   -2.4452 C   0  0  0  0  0  0  0  0  0  0  0  0
   10.2853   -6.5150   -1.1792 C   0  0  0  0  0  0  0  0  0  0  0  0
   10.7067   -7.5686   -0.6987 O   0  0  0  0  0  0  0  0  0  0  0  0
   10.9061   -5.1964   -0.8508 C   0  0  0  0  0  0  0  0  0  0  0  0
   12.0310   -5.0880   -0.0595 O   0  0  0  0  0  0  0  0  0  0  0  0
   12.6867   -6.2256    0.4502 C   0  0  0  0  0  0  0  0  0  0  0  0
   10.3627   -4.0591   -1.3297 C   0  0  0  0  0  0  0  0  0  0  0  0
   10.7939   -2.7633   -1.0863 O   0  0  0  0  0  0  0  0  0  0  0  0
   11.9246   -2.5384   -0.2673 C   0  0  0  0  0  0  0  0  0  0  0  0
    9.2021   -4.1145   -2.2389 C   0  0  0  0  0  0  0  0  0  0  0  0
    8.7789   -3.0277   -2.6597 O   0  0  0  0  0  0  0  0  0  0  0  0
  1  2  1  0
  1  8  1  0
  1 14  1  0
  1 20  1  0
  2  3  2  0
  2  7  1  0
  3  4  1  0
  4  5  2  0
  6  5  1  0
  7  6  2  0
  8  9  2  0
  8 13  1  0
  9 10  1  0
 10 11  2  0
 12 11  1  0
 13 12  2  0
 14 15  2  0
 14 19  1  0
 15 16  1  0
 16 17  2  0
 18 17  1  0
 19 18  2  0
 20 21  1  0
 21 22  1  0
 22 23  1  0
 23 24  1  0
 24 25  1  0
 25 26  1  0
 26 27  1  0
 27 28  1  0
 28 29  1  0
 29 30  1  0
 30 31  2  0
 30 41  1  0
 31 32  1  0
 31 33  1  0
 33 34  2  0
 33 35  1  0
 35 36  1  0
 36 37  1  0
 38 35  2  0
 38 39  1  0
 39 40  1  0
 41 38  1  0
 41 42  2  0
M  CHG  1   1   1
M  END
>  <DRUGBANK_ID>  (1) 
DB05063

>  <COMMON_NAME>  (1) 
Mitoquinone

>  <CAS_NUMBER>  (1) 
444890-41-9

>  <UNII>  (1) 
47BYS17IY0

>  <SYNONYMS>  (1) 
Mitoquinone cation; Mitoquinone ion

$$$$
