ET0
     RDKit          3D

 16 17  0  0  0  0  0  0  0  0999 V2000
   -1.5034    1.0699   -0.0666 N   0  0  0  0  0  0  0  0  0  0  0  0
   -0.1953    0.6659   -0.0161 C   0  0  0  0  0  0  0  0  0  0  0  0
   -4.2555   -2.0367    1.2349 C   0  0  0  0  0  0  0  0  0  0  0  0
    1.0464   -1.3968    0.0347 C   0  0  0  0  0  0  0  0  0  0  0  0
   -2.0918   -2.5532   -0.0137 C   0  0  0  0  0  0  0  0  0  0  0  0
    0.9687    1.4304    0.0109 C   0  0  0  0  0  0  0  0  0  0  0  0
    2.2323   -0.6519   -0.0010 C   0  0  0  0  0  0  0  0  0  0  0  0
   -5.3551   -2.4557    0.8995 O   0  0  0  0  0  0  0  0  0  0  0  0
   -4.1136   -0.7598    1.6334 O   0  0  0  0  0  0  0  0  0  0  0  0
   -2.9686   -2.8191    1.2131 C   0  0  0  0  0  0  0  0  0  0  0  0
   -1.5570   -1.1557   -0.0810 C   0  0  0  0  0  0  0  0  0  0  0  0
   -2.3004   -0.0111   -0.2985 C   0  0  0  0  0  0  0  0  0  0  0  0
   -0.1936   -0.7298   -0.0097 C   0  0  0  0  0  0  0  0  0  0  0  0
    2.1834    0.7432   -0.0137 C   0  0  0  0  0  0  0  0  0  0  0  0
    3.3798   -1.4012   -0.0401 O   0  0  0  0  0  0  0  0  0  0  0  0
    4.5973   -0.6680   -0.1013 C   0  0  0  0  0  0  0  0  0  0  0  0
  1 12  1  0
  2  1  1  0
  2 13  2  0
  3  8  2  0
  3  9  1  0
  4 13  1  0
  5 10  1  0
  6  2  1  0
  7  4  2  0
 10  3  1  0
 11  5  1  0
 11 12  2  0
 13 11  1  0
 14  6  2  0
 14  7  1  0
 15  7  1  0
 16 15  1  0
M  END
>  <DRUGBANK_ID>  (1) 
DB07723

>  <COMMON_NAME>  (1) 
3-(5-methoxy-1H-indol-3-yl)propanoic acid

>  <UNII>  (1) 
CS268A9K9W

$$$$
