
     RDKit          3D

 11 10  0  0  0  0  0  0  0  0999 V2000
    1.1232   -0.0719    0.0501 O   0  0  0  0  0  0  0  0  0  0  0  0
    0.5139   -0.8348    1.0836 C   0  0  0  0  0  0  0  0  0  0  0  0
    0.9169   -2.2847    0.9416 C   0  0  0  0  0  0  0  0  0  0  0  0
    2.5247    0.1638    0.2136 C   0  0  0  0  0  0  0  0  0  0  0  0
    3.0823    1.3369   -0.6266 C   0  0  0  0  0  0  0  0  0  0  0  0
    2.2988    2.5126   -0.6910 O   0  0  0  0  0  0  0  0  0  0  0  0
    0.9124    2.3304   -1.0276 C   0  0  0  0  0  0  0  0  0  0  0  0
    0.4122    1.6958   -2.3799 C   0  0  0  0  0  0  0  0  0  0  0  0
    0.6566    0.3426   -2.8181 O   0  0  0  0  0  0  0  0  0  0  0  0
    1.9914   -0.0381   -3.0748 C   0  0  0  0  0  0  0  0  0  0  0  0
    2.7908    0.9728   -3.8907 C   0  0  0  0  0  0  0  0  0  0  0  0
  1  4  1  0
  2  1  1  0
  3  2  1  0
  4  5  1  0
  5  6  1  0
  6  7  1  0
  7  8  1  0
  8  9  1  0
  9 10  1  0
 10 11  1  0
M  END
>  <DRUGBANK_ID>  (1) 
DB08357

>  <COMMON_NAME>  (1) 
Diethylene glycol diethyl ether

>  <CAS_NUMBER>  (1) 
112-36-7

>  <UNII>  (1) 
ZH086O935Z

>  <SYNONYMS>  (1) 
1-ethoxy-2-(2-ethoxyethoxy)ethane; 1-Ethoxy-2-(beta-ethoxyethoxy)ethane; Diethyl carbitol; Diethyldiethylene glycol; Diethylene glycol diethyl ether; Ethyl diglyme

$$$$
