MSR
     RDKit          3D

 12 13  0  0  0  0  0  0  0  0999 V2000
   -1.2260   -1.1957    0.0603 C   0  0  0  0  0  0  0  0  0  0  0  0
    0.1723   -1.2218    0.0409 C   0  0  0  0  0  0  0  0  0  0  0  0
    0.8810   -0.0217    0.0117 C   0  0  0  0  0  0  0  0  0  0  0  0
    2.2444    0.0072    0.0058 O   0  0  0  0  0  0  0  0  0  0  0  0
    0.2167    1.2005   -0.0157 C   0  0  0  0  0  0  0  0  0  0  0  0
   -1.1775    1.2352   -0.0489 C   0  0  0  0  0  0  0  0  0  0  0  0
   -1.8926    0.0332   -0.0012 C   0  0  0  0  0  0  0  0  0  0  0  0
   -3.2988    0.0673   -0.0239 N   0  0  0  0  0  0  0  0  0  0  0  0
   -4.1528   -0.5210    0.8773 C   0  0  0  0  0  0  0  0  0  0  0  0
   -5.4190   -0.1800    0.4576 C   0  0  0  0  0  0  0  0  0  0  0  0
   -5.3673    0.5616   -0.6939 N   0  0  0  0  0  0  0  0  0  0  0  0
   -4.0875    0.7017   -0.9523 C   0  0  0  0  0  0  0  0  0  0  0  0
  1  2  2  0
  1  7  1  0
  2  3  1  0
  3  4  1  0
  3  5  2  0
  5  6  1  0
  6  7  2  0
  7  8  1  0
  8  9  1  0
  8 12  1  0
  9 10  2  0
 10 11  1  0
 11 12  2  0
M  END
>  <DRUGBANK_ID>  (1) 
DB08214

>  <COMMON_NAME>  (1) 
4-(1H-IMIDAZOL-1-YL)PHENOL

$$$$
