
     RDKit          3D

 24 25  0  0  0  0  0  0  0  0999 V2000
    1.4610   -0.1997   -0.0085 C   0  0  0  0  0  0  0  0  0  0  0  0
    0.5757   -1.3123   -0.0235 C   0  0  0  0  0  0  0  0  0  0  0  0
    0.8886    1.0904   -0.0688 C   0  0  0  0  0  0  0  0  0  0  0  0
    2.9528   -0.3005    0.1664 C   0  0  0  0  0  0  0  0  0  0  0  0
   -0.8198   -1.0816   -0.0345 C   0  0  0  0  0  0  0  0  0  0  0  0
    0.7993   -2.6716   -0.0488 O   0  0  0  0  0  0  0  0  0  0  0  0
   -0.4980    1.2843    0.0502 C   0  0  0  0  0  0  0  0  0  0  0  0
    3.7944    0.7709    0.2777 N   0  0  0  0  0  0  0  0  0  0  0  0
    3.5455   -1.3712    0.2747 O   0  0  0  0  0  0  0  0  0  0  0  0
   -1.3613    0.2004    0.0042 C   0  0  0  0  0  0  0  0  0  0  0  0
    2.1250   -3.1553   -0.0763 C   0  0  0  0  0  0  0  0  0  0  0  0
   -1.1608    2.9137    0.3754 S   0  0  0  0  0  0  0  0  0  0  0  0
    5.2214    0.4313    0.3966 C   0  0  0  0  0  0  0  0  0  0  0  0
   -0.4615    3.4267    1.9424 C   0  0  0  0  0  0  0  0  0  0  0  0
   -0.6670    3.7847   -0.6715 O   0  0  0  0  0  0  0  0  0  0  0  0
   -2.5887    2.7573    0.5938 O   0  0  0  0  0  0  0  0  0  0  0  0
    5.9913    1.0052   -0.7837 C   0  0  0  0  0  0  0  0  0  0  0  0
    1.0466    3.5614    1.9303 C   0  0  0  0  0  0  0  0  0  0  0  0
    6.1440    2.4728   -0.6827 N   0  0  0  0  0  0  0  0  0  0  0  0
    7.3941    0.4514   -1.0283 C   0  0  0  0  0  0  0  0  0  0  0  0
    7.2359    2.8100   -1.6078 C   0  0  0  0  0  0  0  0  0  0  0  0
    6.4251    2.9381    0.6934 C   0  0  0  0  0  0  0  0  0  0  0  0
    8.0008    1.5217   -1.9197 C   0  0  0  0  0  0  0  0  0  0  0  0
    7.6508    2.3124    1.3662 C   0  0  0  0  0  0  0  0  0  0  0  0
  1  2  2  0
  1  3  1  0
  1  4  1  0
  2  5  1  0
  2  6  1  0
  3  7  2  0
  4  8  1  0
  4  9  2  0
  5 10  2  0
  6 11  1  0
  7 12  1  0
  7 10  1  0
  8 13  1  0
 12 14  1  0
 12 15  2  0
 12 16  2  0
 13 17  1  0
 14 18  1  0
 17 19  1  0
 17 20  1  0
 19 21  1  0
 19 22  1  0
 20 23  1  0
 21 23  1  0
 22 24  1  0
M  END
>  <DRUGBANK_ID>  (1) 
DB13273

>  <COMMON_NAME>  (1) 
Sultopride

>  <CAS_NUMBER>  (1) 
53583-79-2

>  <UNII>  (1) 
AA0G3TW31W

>  <SYNONYMS>  (1) 
Sultopride; Sultopridum; Sultroprida

$$$$
