
     RDKit          3D

 27 30  0  0  1  0  0  0  0  0999 V2000
    0.7852   -0.3457    0.0701 C   0  0  0  0  0  0  0  0  0  0  0  0
    0.4398   -0.2389    1.5489 C   0  0  1  0  0  0  0  0  0  0  0  0
    1.0748    0.9454    2.0905 O   0  0  0  0  0  0  0  0  0  0  0  0
    2.4011    0.9410    2.2882 C   0  0  0  0  0  0  0  0  0  0  0  0
    2.9424    1.1512    3.4754 N   0  0  0  0  0  0  0  0  0  0  0  0
    4.3086    1.2848    3.3192 N   0  0  0  0  0  0  0  0  0  0  0  0
    4.5858    1.2333    2.0297 C   0  0  0  0  0  0  0  0  0  0  0  0
    3.4046    1.0434    1.3434 N   0  0  0  0  0  0  0  0  0  0  0  0
    3.3243    1.0412   -0.0919 C   0  0  0  0  0  0  0  0  0  0  0  0
    5.9011    1.3125    1.3932 C   0  0  0  0  0  0  0  0  0  0  0  0
    6.1669    2.2579    0.3915 C   0  0  0  0  0  0  0  0  0  0  0  0
    7.3621    2.1863   -0.2984 C   0  0  0  0  0  0  0  0  0  0  0  0
    8.3160    1.2771   -0.0284 N   0  0  0  0  0  0  0  0  0  0  0  0
    8.0643    0.4068    0.9756 C   0  0  0  0  0  0  0  0  0  0  0  0
    6.8839    0.3765    1.7000 C   0  0  0  0  0  0  0  0  0  0  0  0
   -1.0595   -0.1321    1.5831 C   0  0  0  0  0  0  0  0  0  0  0  0
   -1.8479   -0.9770    2.2665 N   0  0  0  0  0  0  0  0  0  0  0  0
   -3.1569   -0.6366    1.9085 O   0  0  0  0  0  0  0  0  0  0  0  0
   -3.1144    0.3672    0.9887 C   0  0  0  0  0  0  0  0  0  0  0  0
   -1.8259    0.7168    0.7546 C   0  0  0  0  0  0  0  0  0  0  0  0
   -4.3557    0.8602    0.4338 C   0  0  0  0  0  0  0  0  0  0  0  0
   -4.5479    0.8351   -0.9543 C   0  0  0  0  0  0  0  0  0  0  0  0
   -5.6838    1.4227   -1.5065 C   0  0  0  0  0  0  0  0  0  0  0  0
   -5.9087    1.4007   -3.2120 Cl  0  0  0  0  0  0  0  0  0  0  0  0
   -6.6232    2.0432   -0.6876 C   0  0  0  0  0  0  0  0  0  0  0  0
   -6.4218    2.0881    0.6932 C   0  0  0  0  0  0  0  0  0  0  0  0
   -5.2878    1.4974    1.2531 C   0  0  0  0  0  0  0  0  0  0  0  0
  2  1  1  6
  2  3  1  0
  2 16  1  0
  3  4  1  0
  4  5  2  0
  4  8  1  0
  5  6  1  0
  6  7  2  0
  7  8  1  0
  7 10  1  0
  8  9  1  0
 10 11  2  0
 10 15  1  0
 11 12  1  0
 12 13  2  0
 13 14  1  0
 14 15  2  0
 16 17  2  0
 16 20  1  0
 17 18  1  0
 18 19  1  0
 19 20  2  0
 19 21  1  0
 21 22  2  0
 21 27  1  0
 22 23  1  0
 23 24  1  0
 23 25  2  0
 25 26  1  0
 26 27  2  0
M  END
>  <DRUGBANK_ID>  (1) 
DB12644

>  <COMMON_NAME>  (1) 
AZD-2066

>  <CAS_NUMBER>  (1) 
934282-55-0

$$$$
