PXB
     RDKit          3D

 26 28  0  0  0  0  0  0  0  0999 V2000
    0.5374   -0.1821   -0.3916 C   0  0  0  0  0  0  0  0  0  0  0  0
    0.2589    1.2299   -0.8467 C   0  0  0  0  0  0  0  0  0  0  0  0
    0.9848    1.4488   -2.1333 C   0  0  0  0  0  0  0  0  0  0  0  0
    0.3745    1.5418   -3.1838 O   0  0  0  0  0  0  0  0  0  0  0  0
    2.3915    1.5042   -2.1418 N   0  0  0  0  0  0  0  0  0  0  0  0
    3.6176    1.3770   -1.0142 S   0  0  0  0  0  0  0  0  0  0  0  0
    4.2937    0.1266   -1.3109 O   0  0  0  0  0  0  0  0  0  0  0  0
    4.3443    2.6228   -1.0712 O   0  0  0  0  0  0  0  0  0  0  0  0
    2.9773    1.2293    0.6542 C   0  0  0  0  0  0  0  0  0  0  0  0
    2.8976   -0.0301    1.2811 C   0  0  0  0  0  0  0  0  0  0  0  0
    2.1545   -0.1768    2.4598 C   0  0  0  0  0  0  0  0  0  0  0  0
    1.6265    0.9493    3.0975 C   0  0  0  0  0  0  0  0  0  0  0  0
    1.8503    2.2194    2.5484 C   0  0  0  0  0  0  0  0  0  0  0  0
    2.4895    2.3614    1.3109 C   0  0  0  0  0  0  0  0  0  0  0  0
    0.7882    0.8091    4.2684 C   0  0  0  0  0  0  0  0  0  0  0  0
    1.1582    0.1641    5.4243 C   0  0  0  0  0  0  0  0  0  0  0  0
   -0.5227    1.2950    4.5408 C   0  0  0  0  0  0  0  0  0  0  0  0
    0.1576    0.2735    6.3386 O   0  0  0  0  0  0  0  0  0  0  0  0
   -0.8933    0.9898    5.7939 N   0  0  0  0  0  0  0  0  0  0  0  0
   -1.4053    2.0195    3.6394 C   0  0  0  0  0  0  0  0  0  0  0  0
   -1.8307    1.4270    2.4426 C   0  0  0  0  0  0  0  0  0  0  0  0
   -2.6577    2.1300    1.5657 C   0  0  0  0  0  0  0  0  0  0  0  0
   -3.0807    3.4174    1.8921 C   0  0  0  0  0  0  0  0  0  0  0  0
   -2.6833    4.0006    3.0954 C   0  0  0  0  0  0  0  0  0  0  0  0
   -1.8187    3.3181    3.9521 C   0  0  0  0  0  0  0  0  0  0  0  0
    2.3679   -0.5569    5.8563 C   0  0  0  0  0  0  0  0  0  0  0  0
  1  2  1  0
  2  3  1  0
  3  4  2  0
  3  5  1  0
  5  6  1  0
  6  7  2  0
  6  8  2  0
  6  9  1  0
  9 10  2  0
  9 14  1  0
 10 11  1  0
 11 12  2  0
 12 13  1  0
 12 15  1  0
 13 14  2  0
 15 16  2  0
 15 17  1  0
 16 18  1  0
 16 26  1  0
 17 19  2  0
 17 20  1  0
 18 19  1  0
 20 21  2  0
 20 25  1  0
 21 22  1  0
 22 23  2  0
 23 24  1  0
 24 25  2  0
M  END
>  <DRUGBANK_ID>  (1) 
DB08439

>  <COMMON_NAME>  (1) 
Parecoxib

>  <CAS_NUMBER>  (1) 
198470-84-7

>  <UNII>  (1) 
9TUW81Y3CE

>  <SYNONYMS>  (1) 
N-((p-(5-methyl-3-phenyl-4-isoxazolyl)phenyl)sulfonyl)propionamide; Parecoxib; Par√©coxib; Parecoxibum

$$$$
