
     RDKit          3D

 10  8  0  0  0  0  0  0  0  0999 V2000
    0.6796   -0.2708    0.1633 C   0  0  0  0  0  0  0  0  0  0  0  0
    0.2150    0.1251   -1.2225 C   0  0  0  0  0  0  0  0  0  0  0  0
    0.9887   -0.6984   -2.2574 C   0  0  0  0  0  0  0  0  0  0  0  0
    0.4044   -1.3212   -3.1491 O   0  0  0  0  0  0  0  0  0  0  0  0
    2.2337   -0.2767   -2.0936 O   0  0  0  0  0  0  0  0  0  0  0  0
   -1.1712    0.2679   -1.3429 O   0  0  0  0  0  0  0  0  0  0  0  0
    0.2588   -1.6488    0.6264 C   0  0  0  0  0  0  0  0  0  0  0  0
   -0.3440   -1.6341    1.7111 O   0  0  0  0  0  0  0  0  0  0  0  0
    0.7970   -2.5749   -0.0504 O   0  0  0  0  0  0  0  0  0  0  0  0
    2.6466    0.8766   -0.8804 Mg  0  0  0  0  0 15  0  0  0  0  0  0
  1  2  1  0
  1  7  1  0
  2  3  1  0
  2  6  1  0
  3  4  2  0
  3  5  1  0
  7  8  2  0
  7  9  1  0
M  CHG  3   5  -1   9  -1  10   2
M  END
>  <DRUGBANK_ID>  (1) 
DB15555

>  <COMMON_NAME>  (1) 
Magnesium malate

>  <CAS_NUMBER>  (1) 
869-06-7

>  <UNII>  (1) 
LA9X9UJA2Z

$$$$
