
     RDKit          3D

 10 10  0  0  0  0  0  0  0  0999 V2000
    0.7425   -0.1237    0.1385 O   0  0  0  0  0  0  0  0  0  0  0  0
    0.4623    0.9033   -0.8118 C   0  0  0  0  0  0  0  0  0  0  0  0
    1.1010    2.2440   -0.4287 C   0  0  0  0  0  0  0  0  0  0  0  0
    2.6193    2.2745   -0.4708 C   0  0  0  0  0  0  0  0  0  0  0  0
    3.3834    1.1697   -0.8849 C   0  0  0  0  0  0  0  0  0  0  0  0
    4.7735    1.1862   -0.8140 C   0  0  0  0  0  0  0  0  0  0  0  0
    5.4142    2.3407   -0.4063 C   0  0  0  0  0  0  0  0  0  0  0  0
    6.7542    2.3647   -0.3674 F   0  0  0  0  0  0  0  0  0  0  0  0
    4.6929    3.4738   -0.0523 C   0  0  0  0  0  0  0  0  0  0  0  0
    3.2936    3.4387   -0.0688 C   0  0  0  0  0  0  0  0  0  0  0  0
  1  2  1  0
  2  3  1  0
  3  4  1  0
  4  5  2  0
  4 10  1  0
  5  6  1  0
  6  7  2  0
  7  8  1  0
  7  9  1  0
  9 10  2  0
M  END
>  <DRUGBANK_ID>  (1) 
DB03669

>  <SECONDARY_ACCESSION_NUMBERS>  (1) 
EXPT00212

>  <COMMON_NAME>  (1) 
4-Fluorophenethyl Alcohol

>  <UNII>  (1) 
1LO8D3EB0N

$$$$
