
     RDKit          3D

 21 22  0  0  0  0  0  0  0  0999 V2000
   -1.4934   -3.3637    0.1318 N   0  0  0  0  0  0  0  0  0  0  0  0
   -1.8106   -4.7214    0.1853 C   0  0  0  0  0  0  0  0  0  0  0  0
   -2.4447   -2.4399   -0.2509 C   0  0  0  0  0  0  0  0  0  0  0  0
   -3.1147   -5.1007    0.0670 N   0  0  0  0  0  0  0  0  0  0  0  0
   -3.9776   -4.2456   -0.3753 C   0  0  0  0  0  0  0  0  0  0  0  0
   -3.6385   -2.8449   -0.6808 C   0  0  0  0  0  0  0  0  0  0  0  0
   -0.1044   -2.9342    0.2626 C   0  0  2  0  0  0  0  0  0  0  0  0
    0.6900   -3.5692   -0.7569 O   0  0  0  0  0  0  0  0  0  0  0  0
    0.5325   -3.2087    1.6252 C   0  0  1  0  0  0  0  0  0  0  0  0
    1.6926   -4.4015   -0.1247 C   0  0  1  0  0  0  0  0  0  0  0  0
    1.3816   -4.4609    1.3974 C   0  0  1  0  0  0  0  0  0  0  0  0
    1.3259   -2.0706    2.0143 O   0  0  0  0  0  0  0  0  0  0  0  0
   -0.9559   -5.5923    0.3503 O   0  0  0  0  0  0  0  0  0  0  0  0
    2.4841   -4.4833    2.3164 O   0  0  0  0  0  0  0  0  0  0  0  0
   -5.2525   -4.6880   -0.5204 N   0  0  0  0  0  0  0  0  0  0  0  0
    1.8243   -5.7319   -0.8699 C   0  0  0  0  0  0  0  0  0  0  0  0
    2.3321   -5.4801   -2.1918 O   0  0  0  0  0  0  0  0  0  0  0  0
    3.7948   -3.7013    1.8507 P   0  0  0  0  0  0  0  0  0  0  0  0
    4.7259   -4.9021    1.3783 O   0  0  0  0  0  0  0  0  0  0  0  0
    3.6152   -2.5641    0.9027 O   0  0  0  0  0  0  0  0  0  0  0  0
    4.6756   -3.2426    3.0856 O   0  0  0  0  0  0  0  0  0  0  0  0
  1  2  1  0
  1  3  1  0
  2 13  2  0
  2  4  1  0
  3  6  2  0
  4  5  2  0
  5 15  1  0
  6  5  1  0
  7  8  1  0
  7  9  1  0
  7  1  1  1
  8 10  1  0
  9 11  1  0
  9 12  1  6
 10 16  1  6
 10 11  1  0
 11 14  1  1
 14 18  1  0
 16 17  1  0
 18 19  1  0
 18 20  2  0
 18 21  1  0
M  END
>  <DRUGBANK_ID>  (1) 
DB01961

>  <SECONDARY_ACCESSION_NUMBERS>  (1) 
EXPT00809

>  <COMMON_NAME>  (1) 
Cytidine 3'-monophosphate

>  <CAS_NUMBER>  (1) 
84-52-6

>  <UNII>  (1) 
6DZL5I6D4D

>  <SYNONYMS>  (1) 
3'-CMP; 3'-Cytidylic acid; Cytidine 3'-phosphate; Cytidine-3'-monophosphate

$$$$
