329
     RDKit          3D

 12 13  0  0  0  0  0  0  0  0999 V2000
   -2.0171   -0.7280   -0.1007 C   0  0  0  0  0  0  0  0  0  0  0  0
   -0.6146   -0.5550    0.1238 C   0  0  0  0  0  0  0  0  0  0  0  0
    0.2078   -1.6066    0.3560 O   0  0  0  0  0  0  0  0  0  0  0  0
    1.5816   -1.5188   -0.0669 C   0  0  1  0  0  0  0  0  0  0  0  0
    1.7834   -2.7052   -1.0146 C   0  0  0  0  0  0  0  0  0  0  0  0
    2.1175    0.9224    0.0597 N   0  0  0  0  0  0  0  0  0  0  0  0
    0.9983    1.4000    0.4909 C   0  0  0  0  0  0  0  0  0  0  0  0
    1.0689    2.5400    1.2450 N   0  0  0  0  0  0  0  0  0  0  0  0
   -0.2755    0.7780    0.2019 C   0  0  0  0  0  0  0  0  0  0  0  0
   -1.6268    1.8009   -0.0685 S   0  0  0  0  0  0  0  0  0  0  0  0
   -2.6766    0.4726   -0.2492 C   0  0  0  0  0  0  0  0  0  0  0  0
    2.0622   -0.2603   -0.8066 C   0  0  0  0  0  0  0  0  0  0  0  0
  1  2  1  0
  1 11  2  0
  2  3  1  0
  2  9  2  0
  3  4  1  0
  4  5  1  6
  4 12  1  0
  6  7  2  0
  6 12  1  0
  7  8  1  0
  7  9  1  0
  9 10  1  0
 10 11  1  0
M  END
>  <DRUGBANK_ID>  (1) 
DB07003

>  <COMMON_NAME>  (1) 
(2S)-2-methyl-2,3-dihydrothieno[2,3-f][1,4]oxazepin-5-amine

$$$$
