R99
     RDKit          3D

 26 26  0  0  0  0  0  0  0  0999 V2000
    3.2359    0.0243    5.6153 C   0  0  0  0  0  0  0  0  0  0  0  0
    3.4595   -1.1897    5.5413 O   0  0  0  0  0  0  0  0  0  0  0  0
    1.9672    0.4598    5.6110 O   0  0  0  0  0  0  0  0  0  0  0  0
    4.2122    1.1214    5.5188 C   0  0  0  0  0  0  0  0  0  0  0  0
    5.6080    0.6139    5.1637 C   0  0  2  0  0  0  0  0  0  0  0  0
    6.5922    1.6438    5.2692 O   0  0  0  0  0  0  0  0  0  0  0  0
    5.5752   -0.4154    3.9217 C   0  0  0  0  0  0  0  0  0  0  0  0
    6.1932   -1.4841    4.0391 O   0  0  0  0  0  0  0  0  0  0  0  0
    4.7795   -0.2757    2.7769 N   0  0  0  0  0  0  0  0  0  0  0  0
    4.3257    0.9401    1.9664 C   0  0  2  0  0  0  0  0  0  0  0  0
    5.2508    1.2277    0.7246 C   0  0  0  0  0  0  0  0  0  0  0  0
    5.6475    2.7599    0.4057 C   0  0  0  0  0  0  0  0  0  0  0  0
    6.6846    3.5118    1.3001 C   0  0  0  0  0  0  0  0  0  0  0  0
    6.2828    4.2987    2.3804 C   0  0  0  0  0  0  0  0  0  0  0  0
    7.0270    4.4104    3.5916 C   0  0  0  0  0  0  0  0  0  0  0  0
    8.2859    3.8779    3.6519 C   0  0  0  0  0  0  0  0  0  0  0  0
    8.8166    3.3976    2.4655 C   0  0  0  0  0  0  0  0  0  0  0  0
    8.0379    3.2527    1.2891 C   0  0  0  0  0  0  0  0  0  0  0  0
    4.5281    2.1124    2.8364 C   0  0  0  0  0  0  0  0  0  0  0  0
    3.5860    3.0337    3.2027 N   0  0  0  0  0  0  0  0  0  0  0  0
    3.8871    4.0438    4.2670 C   0  0  0  0  0  0  0  0  0  0  0  0
    3.6238    5.4729    3.7988 C   0  0  0  0  0  0  0  0  0  0  0  0
    2.1452    5.5769    3.5032 C   0  0  0  0  0  0  0  0  0  0  0  0
    1.3714    5.3917    4.8007 C   0  0  0  0  0  0  0  0  0  0  0  0
    1.8569    6.9035    2.8368 C   0  0  0  0  0  0  0  0  0  0  0  0
    5.6664    2.1550    3.2842 O   0  0  0  0  0  0  0  0  0  0  0  0
  1  2  2  0
  1  3  1  0
  1  4  1  0
  5  7  1  0
  5  6  1  6
  5  4  1  0
  7  8  2  0
  7  9  1  0
 10 19  1  0
 10 11  1  6
 10  9  1  0
 11 12  1  0
 12 13  1  0
 13 14  2  0
 13 18  1  0
 14 15  1  0
 15 16  2  0
 16 17  1  0
 17 18  2  0
 19 20  1  0
 19 26  2  0
 20 21  1  0
 21 22  1  0
 22 23  1  0
 23 24  1  0
 23 25  1  0
M  END
>  <DRUGBANK_ID>  (1) 
DB03573

>  <SECONDARY_ACCESSION_NUMBERS>  (1) 
EXPT02751

>  <COMMON_NAME>  (1) 
WRR-99

$$$$
