
     RDKit          3D

 20 19  0  0  0  0  0  0  0  0999 V2000
    0.9500    0.0370   -0.0258 C   0  0  0  0  0  0  0  0  0  0  0  0
    0.2274    0.9577    0.3586 O   0  0  0  0  0  0  0  0  0  0  0  0
    5.0307    0.3083    5.8690 C   0  0  0  0  0  0  0  0  0  0  0  0
    5.7979    0.3953    6.9512 C   0  0  0  0  0  0  0  0  0  0  0  0
    0.3753   -1.0911   -0.5050 N   0  0  0  0  0  0  0  0  0  0  0  0
    2.4640    0.0599   -0.0113 C   0  0  0  0  0  0  0  0  0  0  0  0
    4.6243    1.5119    5.0862 C   0  0  0  0  0  0  0  0  0  0  0  0
    6.3544   -0.8125    7.6277 C   0  0  0  0  0  0  0  0  0  0  0  0
    2.9764    1.3145    0.6998 C   0  0  0  0  0  0  0  0  0  0  0  0
    5.1509    1.3889    3.6556 C   0  0  0  0  0  0  0  0  0  0  0  0
    7.8819   -0.7473    7.6087 C   0  0  0  0  0  0  0  0  0  0  0  0
   10.5042    0.5800   11.2723 C   0  0  0  0  0  0  0  0  0  0  0  0
    9.9477   -0.6857   10.6174 C   0  0  0  0  0  0  0  0  0  0  0  0
    4.6051    0.1359    2.9567 C   0  0  0  0  0  0  0  0  0  0  0  0
    8.4024    0.5043    8.3280 C   0  0  0  0  0  0  0  0  0  0  0  0
    7.9076    0.5486    9.7783 C   0  0  0  0  0  0  0  0  0  0  0  0
    8.4158   -0.6653   10.5642 C   0  0  0  0  0  0  0  0  0  0  0  0
    2.5426    1.3494    2.1725 C   0  0  0  0  0  0  0  0  0  0  0  0
    3.0746    0.1395    2.9415 C   0  0  0  0  0  0  0  0  0  0  0  0
    9.9993    0.7077   12.7006 C   0  0  0  0  0  0  0  0  0  0  0  0
  2  1  2  0
  3  7  1  0
  4  3  2  0
  5  1  1  0
  6  1  1  0
  7 10  1  0
  8  4  1  0
  9  6  1  0
 10 14  1  0
 11  8  1  0
 12 13  1  0
 13 17  1  0
 14 19  1  0
 15 11  1  0
 16 15  1  0
 17 16  1  0
 18  9  1  0
 19 18  1  0
 20 12  1  0
M  END
>  <DRUGBANK_ID>  (1) 
DB03784

>  <SECONDARY_ACCESSION_NUMBERS>  (1) 
EXPT01336

>  <COMMON_NAME>  (1) 
Elaidamide

>  <CAS_NUMBER>  (1) 
4303-70-2

>  <UNII>  (1) 
GOU8K597IT

$$$$
