
     RDKit          3D

 32 34  0  0  1  0  0  0  0  0999 V2000
    4.2732   -4.0120   -2.1166 C   0  0  2  0  0  0  0  0  0  0  0  0
    5.3596   -2.5682   -3.0587 C   0  0  0  0  0  0  0  0  0  0  0  0
    4.1947   -1.0078   -3.3498 C   0  0  0  0  0  0  0  0  0  0  0  0
    2.0456   -1.5678   -3.3280 C   0  0  1  0  0  0  0  0  0  0  0  0
    1.0049   -1.4008   -4.1622 N   0  0  0  0  0  0  0  0  0  0  0  0
    1.2346   -2.5974   -1.8511 C   0  0  1  0  0  0  0  0  0  0  0  0
   -0.0745   -1.8480   -1.8244 O   0  0  0  0  0  0  0  0  0  0  0  0
   -0.0643   -0.2085   -1.5462 C   0  0  2  0  0  0  0  0  0  0  0  0
    0.6002    1.0275   -2.6020 C   0  0  1  0  0  0  0  0  0  0  0  0
    0.0011    2.3453   -2.5074 N   0  0  0  0  0  0  0  0  0  0  0  0
    2.1825    1.5764   -2.3997 C   0  0  0  0  0  0  0  0  0  0  0  0
    2.6700    1.6297   -0.9766 C   0  0  1  0  0  0  0  0  0  0  0  0
    2.2651    2.9372   -0.7198 N   0  0  0  0  0  0  0  0  0  0  0  0
    2.1643    0.5126   -0.0885 C   0  0  2  0  0  0  0  0  0  0  0  0
    3.1329   -0.3696   -0.6007 O   0  0  0  0  0  0  0  0  0  0  0  0
    2.7734   -0.6303   -1.9406 C   0  0  1  0  0  0  0  0  0  0  0  0
    2.7299    0.1150   -3.8530 O   0  0  0  0  0  0  0  0  0  0  0  0
    2.4241   -0.6499   -5.5692 C   0  0  0  0  0  0  0  0  0  0  0  0
    2.7028   -2.4672   -5.3898 C   0  0  2  0  0  0  0  0  0  0  0  0
    4.1450   -2.6466   -5.4909 C   0  0  0  0  0  0  0  0  0  0  0  0
    2.2191   -3.0597   -6.5578 O   0  0  0  0  0  0  0  0  0  0  0  0
    2.2814   -3.4066   -3.8537 C   0  0  2  0  0  0  0  0  0  0  0  0
    0.5568   -3.5997   -3.9352 N   0  0  0  0  0  0  0  0  0  0  0  0
   -0.1277   -4.3227   -2.8561 C   0  0  0  0  0  0  0  0  0  0  0  0
    2.9941   -2.4805   -2.1056 C   0  0  1  0  0  0  0  0  0  0  0  0
    4.1091   -2.0260   -1.7607 O   0  0  0  0  0  0  0  0  0  0  0  0
    0.5922    0.1790   -0.1656 C   0  0  1  0  0  0  0  0  0  0  0  0
    0.0115    1.4133    0.2415 O   0  0  0  0  0  0  0  0  0  0  0  0
    2.3297   -4.2226   -1.9981 O   0  0  0  0  0  0  0  0  0  0  0  0
    4.7279   -3.3172   -0.4399 C   0  0  1  0  0  0  0  0  0  0  0  0
    3.5314   -3.0689    0.6250 C   0  0  0  0  0  0  0  0  0  0  0  0
    5.7331   -4.2158   -0.1121 N   0  0  0  0  0  0  0  0  0  0  0  0
  1  2  1  6
  1 29  1  0
  1 30  1  0
  2  3  1  0
  4  3  1  0
  4  6  1  0
  4  5  1  6
  6  7  1  6
  6 29  1  0
  8  7  1  6
  8  9  1  0
  8 27  1  0
  9 11  1  0
  9 10  1  1
 12 11  1  0
 12 13  1  1
 14 12  1  0
 14 15  1  6
 16 17  1  0
 16 15  1  1
 17 18  1  0
 19 18  1  0
 19 21  1  0
 19 20  1  6
 22 19  1  0
 22 23  1  1
 22 25  1  0
 23 24  1  0
 25 16  1  0
 25 26  1  6
 27 14  1  0
 27 28  1  6
 30 31  1  1
 30 32  1  0
M  END
>  <DRUGBANK_ID>  (1) 
DB17884

>  <COMMON_NAME>  (1) 
Gentamicin C2

>  <CAS_NUMBER>  (1) 
25876-11-3

>  <UNII>  (1) 
3P99H114B8

$$$$
