HZ3
     RDKit          3D

 29 32  0  0  0  0  0  0  0  0999 V2000
  -16.0987    3.4799   -5.3077 C   0  0  0  0  0  0  0  0  0  0  0  0
  -17.0351    2.5778   -5.8287 C   0  0  0  0  0  0  0  0  0  0  0  0
  -16.6090    1.5663   -6.6842 C   0  0  0  0  0  0  0  0  0  0  0  0
  -17.4746    0.6684   -7.2348 O   0  0  0  0  0  0  0  0  0  0  0  0
  -15.2672    1.4382   -7.0165 C   0  0  0  0  0  0  0  0  0  0  0  0
  -14.3364    2.3406   -6.5039 C   0  0  0  0  0  0  0  0  0  0  0  0
  -14.7445    3.3739   -5.6537 C   0  0  0  0  0  0  0  0  0  0  0  0
  -13.7714    4.3520   -5.1925 C   0  0  0  0  0  0  0  0  0  0  0  0
  -13.4840    4.6386   -3.7513 C   0  0  1  0  0  0  0  0  0  0  0  0
  -12.0543    4.9605   -3.8721 O   0  0  0  0  0  0  0  0  0  0  0  0
  -13.9641    6.0017   -3.3795 C   0  0  0  0  0  0  0  0  0  0  0  0
  -15.1774    6.2857   -2.6424 C   0  0  0  0  0  0  0  0  0  0  0  0
  -15.3141    5.7659   -1.4008 O   0  0  0  0  0  0  0  0  0  0  0  0
  -14.3291    4.9386   -0.7616 C   0  0  0  0  0  0  0  0  0  0  0  0
  -16.0092    7.0664   -3.1002 O   0  0  0  0  0  0  0  0  0  0  0  0
  -13.1822    6.8754   -4.0511 C   0  0  0  0  0  0  0  0  0  0  0  0
  -13.2328    8.3238   -4.1868 C   0  0  0  0  0  0  0  0  0  0  0  0
  -13.4085    9.0974   -3.0894 O   0  0  0  0  0  0  0  0  0  0  0  0
  -13.4106    8.6129   -1.7383 C   0  0  0  0  0  0  0  0  0  0  0  0
  -13.0444    8.8318   -5.2931 O   0  0  0  0  0  0  0  0  0  0  0  0
  -12.2341    6.0286   -4.8743 C   0  0  2  0  0  0  0  0  0  0  0  0
  -12.9899    5.1998   -5.8956 C   0  0  0  0  0  0  0  0  0  0  0  0
  -12.9181    5.3304   -7.3406 C   0  0  0  0  0  0  0  0  0  0  0  0
  -11.7486    5.0394   -8.0526 C   0  0  0  0  0  0  0  0  0  0  0  0
  -11.7424    5.1010   -9.4533 C   0  0  0  0  0  0  0  0  0  0  0  0
  -12.9075    5.4522  -10.1312 C   0  0  0  0  0  0  0  0  0  0  0  0
  -12.9652    5.5227  -11.4915 O   0  0  0  0  0  0  0  0  0  0  0  0
  -14.0721    5.7415   -9.4349 C   0  0  0  0  0  0  0  0  0  0  0  0
  -14.0787    5.6758   -8.0440 C   0  0  0  0  0  0  0  0  0  0  0  0
  1  2  2  0
  2  3  1  0
  3  4  1  0
  5  3  2  0
  6  5  1  0
  7  6  2  0
  7  1  1  0
  8 22  2  0
  8  7  1  0
  9  8  1  6
 10  9  1  0
 10 21  1  0
 11  9  1  0
 11 16  2  0
 12 13  1  0
 12 11  1  0
 13 14  1  0
 15 12  2  0
 21 16  1  1
 17 18  1  0
 17 16  1  0
 19 18  1  0
 20 17  2  0
 21 22  1  0
 22 23  1  0
 23 29  1  0
 23 24  2  0
 24 25  1  0
 25 26  2  0
 26 27  1  0
 28 26  1  0
 29 28  2  0
M  END
>  <DRUGBANK_ID>  (1) 
DB07932

>  <COMMON_NAME>  (1) 
dimethyl (1R,4S)-5,6-bis(4-hydroxyphenyl)-7-oxabicyclo[2.2.1]hepta-2,5-diene-2,3-dicarboxylate

$$$$
