C48
     RDKit          3D

 30 31  0  0  0  0  0  0  0  0999 V2000
    1.0539    0.0090   -0.1471 O   0  0  0  0  0  0  0  0  0  0  0  0
    2.2397    3.3428    1.0308 O   0  0  0  0  0  0  0  0  0  0  0  0
    3.4195    2.0097   -1.9737 O   0  0  0  0  0  0  0  0  0  0  0  0
   -0.4858    5.4695   -0.8725 O   0  0  0  0  0  0  0  0  0  0  0  0
    2.5055    4.0398   -1.7809 N   0  0  0  0  0  0  0  0  0  0  0  0
    0.2471    5.9474   -2.9687 N   0  0  0  0  0  0  0  0  0  0  0  0
    3.0303   -0.8775   -0.7237 N   0  0  0  0  0  0  0  0  0  0  0  0
    3.8238   -3.3167   -2.1444 N   0  0  0  0  0  0  0  0  0  0  0  0
    2.2829    0.0599   -0.0921 C   0  0  0  0  0  0  0  0  0  0  0  0
    2.9805    1.1377    0.6758 C   0  0  0  0  0  0  0  0  0  0  0  0
    2.5945    2.5021    0.2268 C   0  0  0  0  0  0  0  0  0  0  0  0
    2.8546    2.8204   -1.2598 C   0  0  0  0  0  0  0  0  0  0  0  0
    1.9159    5.2282   -1.1403 C   0  0  1  0  0  0  0  0  0  0  0  0
    2.9267    6.4094   -1.0066 C   0  0  0  0  0  0  0  0  0  0  0  0
    3.3619    7.1412   -2.2661 C   0  0  0  0  0  0  0  0  0  0  0  0
    2.7952    8.3992   -2.5338 C   0  0  0  0  0  0  0  0  0  0  0  0
    2.8887    8.9641   -3.8104 C   0  0  0  0  0  0  0  0  0  0  0  0
    3.5295    8.2693   -4.8403 C   0  0  0  0  0  0  0  0  0  0  0  0
    4.1525    7.0481   -4.5761 C   0  0  0  0  0  0  0  0  0  0  0  0
    4.1109    6.5043   -3.2819 C   0  0  0  0  0  0  0  0  0  0  0  0
    0.4673    5.5597   -1.6559 C   0  0  0  0  0  0  0  0  0  0  0  0
    1.2394    6.0203   -3.9824 C   0  0  0  0  0  0  0  0  0  0  0  0
   -1.0415    6.4274   -3.4027 C   0  0  0  0  0  0  0  0  0  0  0  0
    4.4762   -0.9871   -0.8231 C   0  0  0  0  0  0  0  0  0  0  0  0
    4.9613   -2.2920   -0.2144 C   0  0  0  0  0  0  0  0  0  0  0  0
    4.5327   -3.5013   -1.0018 C   0  0  0  0  0  0  0  0  0  0  0  0
    4.9227   -4.7557   -0.5568 C   0  0  0  0  0  0  0  0  0  0  0  0
    4.6195   -5.8596   -1.3416 C   0  0  0  0  0  0  0  0  0  0  0  0
    3.9178   -5.6845   -2.5294 C   0  0  0  0  0  0  0  0  0  0  0  0
    3.5287   -4.4057   -2.8800 C   0  0  0  0  0  0  0  0  0  0  0  0
  1  9  2  0
  2 11  2  0
  3 12  2  0
  4 21  2  0
  5 12  1  0
  6 21  1  0
  6 22  1  0
  6 23  1  0
  7  9  1  0
  7 24  1  0
  8 26  2  0
  8 30  1  0
  9 10  1  0
 10 11  1  0
 11 12  1  0
 13  5  1  0
 13 14  1  6
 13 21  1  0
 14 15  1  0
 15 16  2  0
 15 20  1  0
 16 17  1  0
 17 18  2  0
 18 19  1  0
 19 20  2  0
 24 25  1  0
 25 26  1  0
 26 27  1  0
 27 28  2  0
 28 29  1  0
 29 30  2  0
M  END
>  <DRUGBANK_ID>  (1) 
DB02140

>  <SECONDARY_ACCESSION_NUMBERS>  (1) 
EXPT00812

>  <COMMON_NAME>  (1) 
N1-(1-Dimethylcarbamoyl-2-Phenyl-Ethyl)-2-Oxo-N4-(2-Pyridin-2-Yl-Ethyl)-Succinamide

$$$$
