
     RDKit          3D

 15 13  0  0  0  0  0  0  0  0999 V2000
    0.3340    1.0060   -0.1730 C   0  0  0  0  0  0  0  0  0  0  0  0
   -1.0070    0.3330    0.1730 C   0  0  2  0  0  0  0  0  0  0  0  0
   -0.3330   -1.0050   -0.1730 C   0  0  2  0  0  0  0  0  0  0  0  0
   -0.7660   -2.3122    0.4705 C   0  0  0  0  0  0  0  0  0  0  0  0
   -2.1371   -2.6348    0.0501 N   0  0  0  0  0  0  0  0  0  0  0  0
    1.0060   -0.3340    0.1730 C   0  0  0  0  0  0  0  0  0  0  0  0
   -2.1643    0.7162   -0.7348 C   0  0  0  0  0  0  0  0  0  0  0  0
   -2.1807    2.1710   -0.9449 N   0  0  0  0  0  0  0  0  0  0  0  0
    0.9701   -0.0610   -0.0734 Pt  0  0  0  0  0 15  0  0  0  0  0  0
    0.9448   -0.0024   -0.0833 C   0  0  0  0  0  0  0  0  0  0  0  0
    0.2348   -0.6538    0.9597 O   0  0  0  0  0  0  0  0  0  0  0  0
    0.1848    0.6949   -1.1998 C   0  0  1  0  0  0  0  0  0  0  0  0
    0.5278    2.0727   -1.2173 O   0  0  0  0  0  0  0  0  0  0  0  0
    0.5520    0.0644   -2.5333 C   0  0  0  0  0  0  0  0  0  0  0  0
    2.2157   -0.0024   -0.0833 O   0  0  0  0  0  0  0  0  0  0  0  0
  1  6  1  0
  2  1  1  0
  2  7  1  6
  3  2  1  0
  3  4  1  1
  4  5  1  0
  6  3  1  0
  7  8  1  0
 10 12  1  0
 10 15  2  0
 11 10  1  0
 12 13  1  0
 12 14  1  6
M  CHG  3   9   2  11  -1  13  -1
M  END
>  <DRUGBANK_ID>  (1) 
DB13049

>  <COMMON_NAME>  (1) 
Lobaplatin

>  <CAS_NUMBER>  (1) 
135558-11-1

>  <UNII>  (1) 
OX5XK1JD8C

>  <SYNONYMS>  (1) 
Lobaplatin

$$$$
