Guanosine.mol
     RDKit          3D

 20 22  0  0  0  0  0  0  0  0999 V2000
    1.0738   -0.0878    0.0974 O   0  0  0  0  0  0  0  0  0  0  0  0
    0.5643   -1.4222    0.1668 C   0  0  0  0  0  0  0  0  0  0  0  0
    1.0346   -2.2270   -1.0517 C   0  0  2  0  0  0  0  0  0  0  0  0
    0.1655   -3.4475   -1.3500 C   0  0  1  0  0  0  0  0  0  0  0  0
    0.1600   -3.7458   -2.7563 O   0  0  0  0  0  0  0  0  0  0  0  0
    0.8552   -4.5741   -0.6033 C   0  0  1  0  0  0  0  0  0  0  0  0
    0.6463   -5.8531   -1.2090 O   0  0  0  0  0  0  0  0  0  0  0  0
    2.3256   -4.1511   -0.6436 C   0  0  1  0  0  0  0  0  0  0  0  0
    2.3700   -2.7207   -0.8025 O   0  0  0  0  0  0  0  0  0  0  0  0
    3.0610   -4.6042    0.5277 N   0  0  0  0  0  0  0  0  0  0  0  0
    3.1901   -5.9423    0.8470 C   0  0  0  0  0  0  0  0  0  0  0  0
    3.8830   -6.1286    1.9476 N   0  0  0  0  0  0  0  0  0  0  0  0
    4.2183   -4.8639    2.3489 C   0  0  0  0  0  0  0  0  0  0  0  0
    4.9830   -4.4326    3.4933 C   0  0  0  0  0  0  0  0  0  0  0  0
    5.4764   -5.1706    4.3463 O   0  0  0  0  0  0  0  0  0  0  0  0
    5.1164   -3.0567    3.5518 N   0  0  0  0  0  0  0  0  0  0  0  0
    4.5741   -2.1759    2.6366 C   0  0  0  0  0  0  0  0  0  0  0  0
    4.8121   -0.8650    2.8703 N   0  0  0  0  0  0  0  0  0  0  0  0
    3.8692   -2.5520    1.6018 N   0  0  0  0  0  0  0  0  0  0  0  0
    3.7235   -3.8983    1.4953 C   0  0  0  0  0  0  0  0  0  0  0  0
  1  2  1  0
  3  2  1  1
  3  4  1  0
  3  9  1  0
  4  5  1  6
  4  6  1  0
  6  7  1  6
  6  8  1  0
  8  9  1  0
  8 10  1  1
 10 11  1  0
 10 20  1  0
 11 12  2  0
 12 13  1  0
 13 14  1  0
 13 20  2  0
 14 15  2  0
 14 16  1  0
 16 17  1  0
 17 18  1  0
 17 19  2  0
 19 20  1  0
M  END
>  <DRUGBANK_ID>  (1) 
DB02857

>  <SECONDARY_ACCESSION_NUMBERS>  (1) 
EXPT01622

>  <COMMON_NAME>  (1) 
Guanosine

>  <CAS_NUMBER>  (1) 
118-00-3

>  <UNII>  (1) 
12133JR80S

>  <SYNONYMS>  (1) 
2-amino-1,9-dihydro-9-β-D-ribofuranosyl-6H-purin-6-one; 2(3H)-imino-9-β-D-ribofuranosyl-9H-purin-6(1H)-one; 9-β-D-ribofuranosyl-guanine; Guanine riboside; Guanine-9-β-D-ribofuranoside; Guanosin; Guanosina; Guo

$$$$
