
     RDKit          3D

 33 36  0  0  1  0  0  0  0  0999 V2000
    1.1151    0.0940    0.0182 C   0  0  0  0  0  0  0  0  0  0  0  0
   -0.6219    1.9552   -0.7220 C   0  0  0  0  0  0  0  0  0  0  0  0
    3.7726   -5.8432    1.0566 C   0  0  0  0  0  0  0  0  0  0  0  0
    0.4944    3.7020   -0.2756 C   0  0  0  0  0  0  0  0  0  0  0  0
    5.7589   -9.7457    2.7071 C   0  0  0  0  0  0  0  0  0  0  0  0
    8.4448   -7.3060    0.2774 C   0  0  0  0  0  0  0  0  0  0  0  0
    0.5829    1.4882   -0.2185 C   0  0  0  0  0  0  0  0  0  0  0  0
    0.6883   -0.8996   -1.0708 C   0  0  1  0  0  0  0  0  0  0  0  0
    4.7509   -4.9140    1.7689 C   0  0  2  0  0  0  0  0  0  0  0  0
    7.7730   -9.1747    1.0587 C   0  0  0  0  0  0  0  0  0  0  0  0
    5.4326   -3.9649    0.7723 C   0  0  2  0  0  0  0  0  0  0  0  0
    6.5175   -4.8638    0.1964 C   0  0  2  0  0  0  0  0  0  0  0  0
    7.5446  -10.5083    1.4388 C   0  0  0  0  0  0  0  0  0  0  0  0
    6.9200   -8.2192    1.5896 C   0  0  0  0  0  0  0  0  0  0  0  0
    6.9346   -5.6817    1.4187 C   0  0  2  0  0  0  0  0  0  0  0  0
    1.0651   -2.3565   -0.8223 C   0  0  0  0  0  0  0  0  0  0  0  0
   -0.8266   -0.8905   -1.1432 N   0  0  0  0  0  0  0  0  0  0  0  0
    8.3276  -11.5531    1.0052 N   0  0  0  0  0  0  0  0  0  0  0  0
   -0.6603    3.3200   -0.7585 N   0  0  0  0  0  0  0  0  0  0  0  0
    1.2785    2.6372    0.0696 N   0  0  0  0  0  0  0  0  0  0  0  0
    6.5162  -10.7755    2.2758 N   0  0  0  0  0  0  0  0  0  0  0  0
    5.8859   -8.4386    2.4171 N   0  0  0  0  0  0  0  0  0  0  0  0
    8.7162   -8.5921    0.2370 N   0  0  0  0  0  0  0  0  0  0  0  0
    7.3775   -7.0271    1.0997 N   0  0  0  0  0  0  0  0  0  0  0  0
    5.9515   -2.7978    1.4041 O   0  0  0  0  0  0  0  0  0  0  0  0
    7.5861   -4.1071   -0.3555 O   0  0  0  0  0  0  0  0  0  0  0  0
    0.1042   -3.1585   -0.8170 O   0  0  0  0  0  0  0  0  0  0  0  0
    1.4384   -4.6616    0.6355 O   0  0  0  0  0  0  0  0  0  0  0  0
    1.8338   -4.9395   -2.0240 O   0  0  0  0  0  0  0  0  0  0  0  0
    3.6116   -5.2729   -0.2429 O   0  0  0  0  0  0  0  0  0  0  0  0
    5.8244   -5.6761    2.3449 O   0  0  0  0  0  0  0  0  0  0  0  0
    2.3451   -2.8091   -0.6478 O   0  0  0  0  0  0  0  0  0  0  0  0
    2.3103   -4.4555   -0.6965 P   0  0  2  0  0  0  0  0  0  0  0  0
  7  1  1  0
  7  2  2  0
  8  1  1  0
  8 17  1  1
  9  3  1  6
 11  9  1  0
 11 25  1  1
 12 11  1  0
 12 26  1  1
 13 10  2  0
 14 10  1  0
 15 12  1  0
 15 24  1  6
 16  8  1  0
 18 13  1  0
 19  2  1  0
 19  4  2  0
 20  4  1  0
 20  7  1  0
 21  5  2  0
 21 13  1  0
 22  5  1  0
 22 14  2  0
 23  6  2  0
 23 10  1  0
 24  6  1  0
 24 14  1  0
 27 16  2  0
 30  3  1  0
 31  9  1  0
 31 15  1  0
 32 16  1  0
 33 28  1  1
 33 29  2  0
 33 30  1  0
 33 32  1  0
M  END
>  <DRUGBANK_ID>  (1) 
DB04201

>  <SECONDARY_ACCESSION_NUMBERS>  (1) 
EXPT01691

>  <COMMON_NAME>  (1) 
Histidyl-Adenosine Monophosphate

$$$$
