
     RDKit          3D

 33 37  0  0  0  0  0  0  0  0999 V2000
   -1.2711    0.0421   -0.2216 O   0  0  0  0  0  0  0  0  0  0  0  0
    1.0786    0.1605    0.0843 O   0  0  0  0  0  0  0  0  0  0  0  0
   -0.2483    4.8904   -0.9269 N   0  0  0  0  0  0  0  0  0  0  0  0
    0.7218    6.5050    1.5551 N   0  0  0  0  0  0  0  0  0  0  0  0
    0.5445    4.4602    0.1890 C   0  0  0  0  0  0  0  0  0  0  0  0
   -0.1515    6.3534   -0.8348 C   0  0  0  0  0  0  0  0  0  0  0  0
    0.1154    5.2309    1.5345 C   0  0  0  0  0  0  0  0  0  0  0  0
   -0.0676    7.1551    0.5153 C   0  0  0  0  0  0  0  0  0  0  0  0
   -1.4773    4.1128   -1.0426 C   0  0  0  0  0  0  0  0  0  0  0  0
    2.2282    6.3020    1.7190 C   0  0  0  0  0  0  0  0  0  0  0  0
   -1.1826    2.7686   -1.8116 C   0  0  0  0  0  0  0  0  0  0  0  0
   -0.0240    1.7972   -1.3419 C   0  0  0  0  0  0  0  0  0  0  0  0
   -0.1617    0.8973    0.0330 C   0  0  0  0  0  0  0  0  0  0  0  0
    3.0993    5.5617    0.6389 C   0  0  0  0  0  0  0  0  0  0  0  0
    2.7871    7.6332    2.0561 C   0  0  0  0  0  0  0  0  0  0  0  0
   -0.3284    1.3269    1.4840 C   0  0  0  0  0  0  0  0  0  0  0  0
   -0.7529   -1.2341    0.1034 C   0  0  0  0  0  0  0  0  0  0  0  0
    0.6971   -1.1469   -0.3015 C   0  0  0  0  0  0  0  0  0  0  0  0
    3.0072    6.0460   -0.6923 C   0  0  0  0  0  0  0  0  0  0  0  0
    2.3484    8.3189    3.1858 C   0  0  0  0  0  0  0  0  0  0  0  0
    3.7226    4.3073    0.8148 C   0  0  0  0  0  0  0  0  0  0  0  0
    3.6739    8.2200    1.1591 C   0  0  0  0  0  0  0  0  0  0  0  0
   -0.3736    0.8608    2.7929 C   0  0  0  0  0  0  0  0  0  0  0  0
   -0.4356    2.6277    1.6498 C   0  0  0  0  0  0  0  0  0  0  0  0
    3.2113    5.2436   -1.8016 C   0  0  0  0  0  0  0  0  0  0  0  0
    2.7924    9.6152    3.3521 C   0  0  0  0  0  0  0  0  0  0  0  0
    4.1268    3.5767   -0.3242 C   0  0  0  0  0  0  0  0  0  0  0  0
    4.1276    9.4829    1.3257 C   0  0  0  0  0  0  0  0  0  0  0  0
   -0.3509    1.8131    3.9211 C   0  0  0  0  0  0  0  0  0  0  0  0
    0.5630    2.9979    2.4804 C   0  0  0  0  0  0  0  0  0  0  0  0
    3.7954    4.0084   -1.6180 C   0  0  0  0  0  0  0  0  0  0  0  0
    3.6668   10.1885    2.4153 C   0  0  0  0  0  0  0  0  0  0  0  0
   -0.0162    3.1012    3.6540 C   0  0  0  0  0  0  0  0  0  0  0  0
  1 13  1  0
  1 17  1  0
  2 13  1  0
  2 18  1  0
  3  5  1  0
  3  6  1  0
  3  9  1  0
  4  7  1  0
  4  8  1  0
  4 10  1  0
  5  7  1  0
  6  8  1  0
  9 11  1  0
 10 14  1  0
 10 15  1  0
 11 12  1  0
 12 13  1  0
 13 16  1  0
 14 19  2  0
 14 21  1  0
 15 20  2  0
 15 22  1  0
 16 23  2  0
 16 24  1  0
 17 18  1  0
 19 25  1  0
 20 26  1  0
 21 27  2  0
 22 28  2  0
 23 29  1  0
 24 30  2  0
 25 31  2  0
 26 32  2  0
 27 31  1  0
 28 32  1  0
 29 33  2  0
 30 33  1  0
M  END
>  <DRUGBANK_ID>  (1) 
DB06446

>  <COMMON_NAME>  (1) 
Dotarizine

>  <CAS_NUMBER>  (1) 
84625-59-2

>  <UNII>  (1) 
IO7663S6D3

>  <SYNONYMS>  (1) 
dotarizina; Dotarizine

$$$$
