
     RDKit          3D

 26 28  0  0  1  0  0  0  0  0999 V2000
    0.9824   -0.0313    0.0533 O   0  0  0  0  0  0  0  0  0  0  0  0
   -3.5683    5.6368    0.8267 N   0  0  0  0  0  0  0  0  0  0  0  0
    0.5145    3.3545    1.6715 N   0  0  0  0  0  0  0  0  0  0  0  0
   -1.3870    4.5351    1.1097 N   0  0  0  0  0  0  0  0  0  0  0  0
   -4.7006    4.6209    2.4403 N   0  0  0  0  0  0  0  0  0  0  0  0
   -1.4680    2.8576    2.8409 N   0  0  0  0  0  0  0  0  0  0  0  0
   -3.3093    2.4846    4.2437 N   0  0  0  0  0  0  0  0  0  0  0  0
   -3.3500    6.5590   -0.2802 C   0  0  0  0  0  0  0  0  0  0  0  0
    1.0527    2.0017    1.4705 C   0  0  2  0  0  0  0  0  0  0  0  0
   -2.6780    4.7559    1.4017 C   0  0  0  0  0  0  0  0  0  0  0  0
   -3.4160    4.1260    2.3960 C   0  0  0  0  0  0  0  0  0  0  0  0
    2.6131    2.0343    1.4745 C   0  0  0  0  0  0  0  0  0  0  0  0
   -2.7584    3.1484    3.1664 C   0  0  0  0  0  0  0  0  0  0  0  0
   -0.8396    3.5534    1.8677 C   0  0  0  0  0  0  0  0  0  0  0  0
   -4.7646    5.5112    1.4820 C   0  0  0  0  0  0  0  0  0  0  0  0
   -4.2713    6.2361   -1.4630 C   0  0  0  0  0  0  0  0  0  0  0  0
   -3.5694    8.0117    0.1583 C   0  0  0  0  0  0  0  0  0  0  0  0
    0.5616    1.3342    0.1601 C   0  0  0  0  0  0  0  0  0  0  0  0
    3.2420    3.4188    1.4173 C   0  0  0  0  0  0  0  0  0  0  0  0
   -4.6987    2.5813    4.6470 C   0  0  0  0  0  0  0  0  0  0  0  0
   -5.4712    1.2921    4.4644 C   0  0  0  0  0  0  0  0  0  0  0  0
   -6.8323    1.2606    4.8217 C   0  0  0  0  0  0  0  0  0  0  0  0
   -4.8969    0.1324    3.9284 C   0  0  0  0  0  0  0  0  0  0  0  0
   -7.5879    0.0976    4.6580 C   0  0  0  0  0  0  0  0  0  0  0  0
   -5.6508   -1.0298    3.7696 C   0  0  0  0  0  0  0  0  0  0  0  0
   -6.9941   -1.0485    4.1354 C   0  0  0  0  0  0  0  0  0  0  0  0
  1 18  1  0
  2  8  1  0
  2 10  1  0
  2 15  1  0
  3 14  1  0
  4 10  2  0
  4 14  1  0
  5 11  1  0
  5 15  2  0
  6 13  1  0
  6 14  2  0
  7 13  1  0
  7 20  1  0
  8 16  1  0
  8 17  1  0
  9 18  1  6
  9 12  1  0
  9  3  1  0
 10 11  1  0
 11 13  2  0
 12 19  1  0
 20 21  1  0
 21 22  2  0
 21 23  1  0
 22 24  1  0
 23 25  2  0
 24 26  2  0
 25 26  1  0
M  END
>  <DRUGBANK_ID>  (1) 
DB06195

>  <COMMON_NAME>  (1) 
Seliciclib

>  <CAS_NUMBER>  (1) 
186692-46-6

>  <UNII>  (1) 
0ES1C2KQ94

>  <SYNONYMS>  (1) 
2-(R)-(1-ethyl-2-hydroxyethylamino)-6-benzylamino-9-isopropylpurine; R-roscovitine; Seliciclib

$$$$
