
     RDKit          3D

 36 39  0  0  0  0  0  0  0  0999 V2000
    5.6115    4.3209    2.4852 C   0  0  1  0  0  0  0  0  0  0  0  0
    5.8361    4.8904    3.8611 C   0  0  0  0  0  0  0  0  0  0  0  0
    4.8110    5.8888    3.9592 O   0  0  0  0  0  0  0  0  0  0  0  0
    4.3982    3.4794    2.7537 C   0  0  2  0  0  0  0  0  0  0  0  0
    4.7791    2.0818    3.2905 C   0  0  2  0  0  0  0  0  0  0  0  0
    5.3335    1.5829    2.0381 O   0  0  0  0  0  0  0  0  0  0  0  0
    3.6025    1.2451    3.7790 C   0  0  2  0  0  0  0  0  0  0  0  0
    3.5041   -0.0675    3.2309 O   0  0  0  0  0  0  0  0  0  0  0  0
    2.4761    2.1149    3.4441 C   0  0  1  0  0  0  0  0  0  0  0  0
    2.3844    3.1289    4.4980 O   0  0  0  0  0  0  0  0  0  0  0  0
    2.6227    2.5901    1.7511 C   0  0  2  0  0  0  0  0  0  0  0  0
    1.2157    3.7738    1.1303 O   0  0  0  0  0  0  0  0  0  0  0  0
    0.0211    2.7748   -0.0377 C   0  0  1  0  0  0  0  0  0  0  0  0
   -1.1558    3.0301   -0.8622 C   0  0  2  0  0  0  0  0  0  0  0  0
   -0.3578    3.5599   -1.9696 C   0  0  2  0  0  0  0  0  0  0  0  0
    0.7050    2.5395   -2.4985 O   0  0  0  0  0  0  0  0  0  0  0  0
    1.7420    1.7467   -1.7185 C   0  0  2  0  0  0  0  0  0  0  0  0
    1.1368    1.2664   -0.4459 C   0  0  1  0  0  0  0  0  0  0  0  0
    2.4324    1.1385    0.7739 O   0  0  0  0  0  0  0  0  0  0  0  0
    2.8250    2.4935   -1.1668 O   0  0  0  0  0  0  0  0  0  0  0  0
    2.0863    3.0842   -0.0867 C   0  0  1  0  0  0  0  0  0  0  0  0
    0.7777    2.2012    1.4384 C   0  0  2  0  0  0  0  0  0  0  0  0
   -0.1500    0.9161    1.3046 O   0  0  0  0  0  0  0  0  0  0  0  0
   -0.1779    3.7734    2.3133 C   0  0  2  0  0  0  0  0  0  0  0  0
    0.8454    5.2363    2.5403 C   0  0  0  0  0  0  0  0  0  0  0  0
    1.6018    5.9168    1.2357 C   0  0  1  0  0  0  0  0  0  0  0  0
    2.4768    6.9919    1.7565 N   0  0  0  0  0  0  0  0  0  0  0  0
    2.5810    4.9167    0.2725 C   0  0  2  0  0  0  0  0  0  0  0  0
    3.2699    5.6098   -0.7443 O   0  0  0  0  0  0  0  0  0  0  0  0
   -1.0820    3.3132    3.3425 N   0  0  0  0  0  0  0  0  0  0  0  0
   -0.3635    2.2485    3.9707 C   0  0  0  0  0  0  0  0  0  0  0  0
    0.1183    4.9593   -1.4703 C   0  0  0  0  0  0  0  0  0  0  0  0
    1.0412    5.4979   -2.3592 O   0  0  0  0  0  0  0  0  0  0  0  0
   -2.1155    3.8231   -0.1604 O   0  0  0  0  0  0  0  0  0  0  0  0
    3.8701    3.1433    1.4796 O   0  0  0  0  0  0  0  0  0  0  0  0
    5.3076    5.3878    1.4983 N   0  0  0  0  0  0  0  0  0  0  0  0
  1 36  1  6
  1  2  1  0
  2  3  1  0
  4  5  1  0
  4  1  1  0
  5  7  1  0
  5  6  1  6
  7  8  1  6
  9  7  1  0
  9 10  1  1
  9 11  1  0
 11 19  1  6
 11 35  1  0
 12 11  1  0
 13 12  1  6
 14 13  1  0
 14 34  1  1
 15 14  1  0
 15 32  1  1
 16 15  1  0
 17 16  1  0
 17 18  1  0
 17 20  1  1
 18 13  1  0
 18 19  1  1
 21 22  1  0
 21 20  1  1
 22 23  1  6
 22 24  1  0
 24 30  1  1
 25 24  1  0
 25 26  1  0
 26 28  1  0
 26 27  1  1
 28 21  1  0
 28 29  1  6
 30 31  1  0
 32 33  1  0
  4 35  1  6
M  END
>  <DRUGBANK_ID>  (1) 
DB11520

>  <COMMON_NAME>  (1) 
Hygromycin B

>  <CAS_NUMBER>  (1) 
31282-04-9

>  <UNII>  (1) 
3XQ2233B0B

$$$$
