
     RDKit          3D

 28 31  0  0  1  0  0  0  0  0999 V2000
    1.1510   -2.1424    1.0164 C   0  0  0  0  0  0  0  0  0  0  0  0
    0.4954   -1.4480   -0.1920 C   0  0  2  0  0  0  0  0  0  0  0  0
    1.1310   -0.1181   -0.3203 N   0  0  0  0  0  0  0  0  0  0  0  0
    2.4732   -0.2779   -0.6994 C   0  0  0  0  0  0  0  0  0  0  0  0
    2.6626   -0.9869   -1.8209 N   0  0  0  0  0  0  0  0  0  0  0  0
    3.8929   -1.4245   -2.0726 C   0  0  0  0  0  0  0  0  0  0  0  0
    4.9718   -1.1754   -1.3276 N   0  0  0  0  0  0  0  0  0  0  0  0
    4.7942   -0.4128   -0.2473 C   0  0  0  0  0  0  0  0  0  0  0  0
    3.5248    0.0490    0.1632 C   0  0  0  0  0  0  0  0  0  0  0  0
    3.3908    0.7534    1.3803 C   0  0  0  0  0  0  0  0  0  0  0  0
    4.5208    1.1947    2.0405 C   0  0  0  0  0  0  0  0  0  0  0  0
    4.3931    2.0191    3.0864 F   0  0  0  0  0  0  0  0  0  0  0  0
    5.7744    0.8126    1.5865 C   0  0  0  0  0  0  0  0  0  0  0  0
    6.8754    1.2862    2.1811 F   0  0  0  0  0  0  0  0  0  0  0  0
    5.8975   -0.0486    0.5025 C   0  0  0  0  0  0  0  0  0  0  0  0
   -1.0924   -1.4358   -0.2080 C   0  0  0  0  0  0  0  0  0  0  0  0
   -1.5037   -0.5662   -1.4439 C   0  0  0  0  0  0  0  0  0  0  0  0
   -1.7386   -1.1225   -2.7188 C   0  0  0  0  0  0  0  0  0  0  0  0
   -1.9312   -0.3290   -3.8495 C   0  0  0  0  0  0  0  0  0  0  0  0
   -1.8706    1.0520   -3.7407 C   0  0  0  0  0  0  0  0  0  0  0  0
   -1.6801    1.6366   -2.4908 C   0  0  0  0  0  0  0  0  0  0  0  0
   -1.4961    0.8382   -1.3539 C   0  0  0  0  0  0  0  0  0  0  0  0
   -1.6829   -2.8830   -0.2214 C   0  0  0  0  0  0  0  0  0  0  0  0
   -1.0487   -3.9826    0.3750 C   0  0  0  0  0  0  0  0  0  0  0  0
   -1.2699   -5.2933   -0.0392 C   0  0  0  0  0  0  0  0  0  0  0  0
   -2.3440   -5.5598   -0.8612 C   0  0  0  0  0  0  0  0  0  0  0  0
   -3.1940   -4.5165   -1.2116 C   0  0  0  0  0  0  0  0  0  0  0  0
   -2.8680   -3.1928   -0.8923 C   0  0  0  0  0  0  0  0  0  0  0  0
  2 16  1  0
  2  3  1  0
  2  1  1  1
  3  4  1  0
  4  5  2  0
  4  9  1  0
  5  6  1  0
  6  7  2  0
  7  8  1  0
  8  9  2  0
  8 15  1  0
  9 10  1  0
 10 11  2  0
 11 12  1  0
 11 13  1  0
 13 14  1  0
 13 15  2  0
 16 17  1  0
 16 23  1  0
 17 18  2  0
 17 22  1  0
 18 19  1  0
 19 20  2  0
 20 21  1  0
 21 22  2  0
 23 24  2  0
 23 28  1  0
 24 25  1  0
 25 26  2  0
 26 27  1  0
 27 28  2  0
M  END
>  <DRUGBANK_ID>  (1) 
DB03678

>  <SECONDARY_ACCESSION_NUMBERS>  (1) 
EXPT03193

>  <COMMON_NAME>  (1) 
(6,7-Difluoro-Quinazolin-4-Yl)-(1-Methyl-2,2-Diphenyl-Ethyl)-Amine

$$$$
