
     RDKit          3D

 17 16  0  0  1  0  0  0  0  0999 V2000
    3.4943    2.4617   -1.0427 C   0  0  0  0  0  0  0  0  0  0  0  0
   -2.3279    1.6765    4.0672 C   0  0  0  0  0  0  0  0  0  0  0  0
    0.2111    3.6268    5.2475 C   0  0  0  0  0  0  0  0  0  0  0  0
   -1.2302    4.0650    5.2299 C   0  0  0  0  0  0  0  0  0  0  0  0
    0.6037    3.8866    0.6893 C   0  0  0  0  0  0  0  0  0  0  0  0
    2.7110    3.4157   -0.2015 C   0  0  0  0  0  0  0  0  0  0  0  0
   -1.3225    0.7936    4.7447 C   0  0  0  0  0  0  0  0  0  0  0  0
    1.0193    3.8221    2.1734 C   0  0  2  0  0  0  0  0  0  0  0  0
    0.5817    2.4293    4.3420 C   0  0  2  0  0  0  0  0  0  0  0  0
    0.4255    2.5558    2.8021 C   0  0  2  0  0  0  0  0  0  0  0  0
   -2.0054    3.8885    6.1644 O   0  0  0  0  0  0  0  0  0  0  0  0
    3.1991    4.3695    0.3676 O   0  0  0  0  0  0  0  0  0  0  0  0
   -1.6729   -0.2774    5.2255 O   0  0  0  0  0  0  0  0  0  0  0  0
    0.5031    4.9865    2.8281 O   0  0  0  0  0  0  0  0  0  0  0  0
    0.7316    1.3524    2.0885 O   0  0  0  0  0  0  0  0  0  0  0  0
    1.4002    3.0506   -0.1518 O   0  0  0  0  0  0  0  0  0  0  0  0
   -0.0298    1.1945    4.8356 O   0  0  0  0  0  0  0  0  0  0  0  0
  4  3  1  0
  6  1  1  0
  7  2  1  0
  8 14  1  1
  8 10  1  0
  8  5  1  0
  9  3  1  1
  9 17  1  0
 10 15  1  6
 10  9  1  0
 11  4  2  0
 12  6  2  0
 13  7  2  0
 16  5  1  0
 16  6  1  0
 17  7  1  0
M  END
>  <DRUGBANK_ID>  (1) 
DB17192

>  <COMMON_NAME>  (1) 
WP-1122

>  <UNII>  (1) 
54EAA28C5Y

>  <SYNONYMS>  (1) 
3,6-di-O-acetyl-2-deoxy-D-glucopyranose; an acetic acid diester of 2-deoxy-D-glucose

$$$$
