PHN
     RDKit          3D

 14 16  0  0  0  0  0  0  0  0999 V2000
   -1.3990    1.5038    0.0287 N   0  0  0  0  0  0  0  0  0  0  0  0
   -2.7461    1.4778    0.0141 C   0  0  0  0  0  0  0  0  0  0  0  0
   -3.4848    0.3162   -0.0239 C   0  0  0  0  0  0  0  0  0  0  0  0
   -2.7956   -0.8883   -0.0373 C   0  0  0  0  0  0  0  0  0  0  0  0
   -1.3932   -0.8980   -0.0083 C   0  0  0  0  0  0  0  0  0  0  0  0
   -0.6931   -2.1089   -0.0028 C   0  0  0  0  0  0  0  0  0  0  0  0
    0.6948   -2.1088    0.0274 C   0  0  0  0  0  0  0  0  0  0  0  0
    1.3936   -0.8962    0.0232 C   0  0  0  0  0  0  0  0  0  0  0  0
    2.7963   -0.8863    0.0080 C   0  0  0  0  0  0  0  0  0  0  0  0
    3.4833    0.3191   -0.0371 C   0  0  0  0  0  0  0  0  0  0  0  0
    2.7431    1.4800   -0.0333 C   0  0  0  0  0  0  0  0  0  0  0  0
    1.3965    1.5055    0.0016 N   0  0  0  0  0  0  0  0  0  0  0  0
    0.7019    0.3388    0.0172 C   0  0  0  0  0  0  0  0  0  0  0  0
   -0.7030    0.3389    0.0159 C   0  0  0  0  0  0  0  0  0  0  0  0
  1  2  2  0
  1 14  1  0
  2  3  1  0
  3  4  2  0
  4  5  1  0
  5  6  1  0
  5 14  2  0
  6  7  2  0
  7  8  1  0
  8  9  1  0
  8 13  2  0
  9 10  2  0
 10 11  1  0
 11 12  2  0
 12 13  1  0
 13 14  1  0
M  END
>  <DRUGBANK_ID>  (1) 
DB02365

>  <SECONDARY_ACCESSION_NUMBERS>  (1) 
EXPT02592

>  <COMMON_NAME>  (1) 
1,10-Phenanthroline

>  <CAS_NUMBER>  (1) 
66-71-7

>  <UNII>  (1) 
W4X6ZO7939

>  <SYNONYMS>  (1) 
O-Phenanthroline

$$$$
