
     RDKit          3D

  4  3  0  0  0  0  0  0  0  0999 V2000
    1.0345   -0.0757   -0.1102 C   0  0  0  0  0  0  0  0  0  0  0  0
    0.7274    0.9526   -1.6061 P   0  0  0  0  0  0  0  0  0  0  0  0
    0.0760    2.2041   -1.0606 O   0  0  0  0  0  0  0  0  0  0  0  0
    2.0970    1.0539   -2.2630 O   0  0  0  0  0  0  0  0  0  0  0  0
  1  2  1  0
  2  3  2  0
  2  4  1  0
M  CHG  1   4  -1
M  END
>  <DRUGBANK_ID>  (1) 
DB02825

>  <SECONDARY_ACCESSION_NUMBERS>  (1) 
EXPT03237

>  <COMMON_NAME>  (1) 
Methylphosphinate

$$$$
