TDI
     RDKit          3D

 20 22  0  0  0  0  0  0  0  0999 V2000
    1.4524   -1.5456    0.0184 C   0  0  0  0  0  0  0  0  0  0  0  0
   -0.6614   -0.8236   -0.2063 C   0  0  0  0  0  0  0  0  0  0  0  0
   -0.1823    0.4753   -0.1931 C   0  0  0  0  0  0  0  0  0  0  0  0
    1.1635    0.7429   -0.0333 C   0  0  0  0  0  0  0  0  0  0  0  0
   -3.9735   -4.1693    4.2858 C   0  0  0  0  0  0  0  0  0  0  0  0
   -4.1141   -2.7282    5.3984 S   0  0  0  0  0  0  0  0  0  0  0  0
   -4.6174   -1.3515    4.2838 C   0  0  0  0  0  0  0  0  0  0  0  0
   -3.5327   -0.8286    3.3451 C   0  0  1  0  0  0  0  0  0  0  0  0
   -3.0236   -1.8339    2.3168 C   0  0  0  0  0  0  0  0  0  0  0  0
   -3.8466   -1.7179    1.1175 N   0  0  0  0  0  0  0  0  0  0  0  0
   -3.0683   -1.8773   -0.1232 C   0  0  0  0  0  0  0  0  0  0  0  0
   -2.0842   -0.7634   -0.3174 C   0  0  0  0  0  0  0  0  0  0  0  0
   -2.3849    0.5697   -0.5512 C   0  0  0  0  0  0  0  0  0  0  0  0
   -1.2588    1.3131   -0.3169 N   0  0  0  0  0  0  0  0  0  0  0  0
    1.6725    2.0106    0.0367 N   0  0  0  0  0  0  0  0  0  0  0  0
    1.9930   -0.3108    0.0421 N   0  0  0  0  0  0  0  0  0  0  0  0
    0.1562   -1.8922   -0.0584 N   0  0  0  0  0  0  0  0  0  0  0  0
   -4.6839   -0.5241    1.2580 C   0  0  0  0  0  0  0  0  0  0  0  0
   -4.0869    0.2710    2.4362 C   0  0  2  0  0  0  0  0  0  0  0  0
   -2.9971    1.1185    2.0775 O   0  0  0  0  0  0  0  0  0  0  0  0
  1 16  2  0
  1 17  1  0
  2  3  1  0
  2 12  1  0
  2 17  2  0
  3  4  2  0
  3 14  1  0
  4 15  1  0
  4 16  1  0
  5  6  1  0
  6  7  1  0
  8  9  1  0
  8 19  1  0
  8  7  1  6
  9 10  1  0
 10 11  1  0
 10 18  1  0
 11 12  1  0
 12 13  2  0
 13 14  1  0
 18 19  1  0
 19 20  1  6
M  END
>  <DRUGBANK_ID>  (1) 
DB08606

>  <COMMON_NAME>  (1) 
(3R,4S)-1-[(4-AMINO-5H-PYRROLO[3,2-D]PYRIMIDIN-7-YL)METHYL]-4-[(METHYLSULFANYL)METHYL]PYRROLIDIN-3-OL

$$$$
