
     RDKit          3D

 19 20  0  0  0  0  0  0  0  0999 V2000
    0.9205    0.0886   -0.1279 C   0  0  0  0  0  0  0  0  0  0  0  0
   -1.1419   -0.5533    3.0104 C   0  0  0  0  0  0  0  0  0  0  0  0
    1.9531    6.6747    4.2882 C   0  0  0  0  0  0  0  0  0  0  0  0
    1.2994    6.8987    5.5198 C   0  0  0  0  0  0  0  0  0  0  0  0
    2.2026    5.3831    3.8586 C   0  0  0  0  0  0  0  0  0  0  0  0
    0.8685    5.8376    6.3352 C   0  0  0  0  0  0  0  0  0  0  0  0
    1.0685    0.9028    5.6514 C   0  0  0  0  0  0  0  0  0  0  0  0
    1.7808    4.3749    4.6987 C   0  0  0  0  0  0  0  0  0  0  0  0
    1.1209    4.5646    5.8894 C   0  0  0  0  0  0  0  0  0  0  0  0
    1.9018    2.9657    4.4894 C   0  0  0  0  0  0  0  0  0  0  0  0
    0.7974    3.2360    6.4229 C   0  0  0  0  0  0  0  0  0  0  0  0
    1.2801    2.3263    5.5189 N   0  0  0  0  0  0  0  0  0  0  0  0
    2.4309    2.5679    3.4806 O   0  0  0  0  0  0  0  0  0  0  0  0
    0.1907    3.0313    7.4568 O   0  0  0  0  0  0  0  0  0  0  0  0
    0.6117    0.9606    0.9726 O   0  0  0  0  0  0  0  0  0  0  0  0
    0.1416   -0.8046    2.4708 O   0  0  0  0  0  0  0  0  0  0  0  0
    1.1883    0.4773    2.5304 P   0  0  0  0  0  0  0  0  0  0  0  0
    3.1004   -0.0220    1.9040 S   0  0  0  0  0  0  0  0  0  0  0  0
    1.8950   -0.1151    4.4394 S   0  0  0  0  0  0  0  0  0  0  0  0
  4  3  2  0
  5  3  1  0
  6  4  1  0
  8  5  2  0
  9  6  2  0
  9  8  1  0
 10  8  1  0
 11  9  1  0
 12  7  1  0
 12 10  1  0
 12 11  1  0
 13 10  2  0
 14 11  2  0
 15  1  1  0
 16  2  1  0
 17 15  1  0
 17 16  1  0
 18 17  2  0
 19  7  1  0
 19 17  1  0
M  END
>  <DRUGBANK_ID>  (1) 
DB11448

>  <COMMON_NAME>  (1) 
Phosmet

>  <CAS_NUMBER>  (1) 
732-11-6

>  <UNII>  (1) 
VN04LI540Y

>  <SYNONYMS>  (1) 
Decemthion; Fosmet; O,O-Dimethyl phthalimidomethyl phosphorodithioate; O,O-Dimethyl S-(phthalimidomethyl) dithiophosphate; O,O-Dimethyl S-phthalimidomethyl phosphorodithioate; PMP; S-((1,3-Dihydro-1,3-dioxo-2H-isoindol-2-yl)methyl)phosphorodithioic acid O,O-dimethyl ester; S-[(1,3-dioxo-1,3-dihydro-2H-isoindol-2-yl)methyl] O,O-dimethyl dithiophosphate

$$$$
