
     RDKit          3D

 29 32  0  0  0  0  0  0  0  0999 V2000
    0.6292    2.4443   -1.3009 C   0  0  0  0  0  0  0  0  0  0  0  0
    0.2360    1.7538    0.0258 C   0  0  0  0  0  0  0  0  0  0  0  0
    0.8708    2.5220    1.2128 C   0  0  0  0  0  0  0  0  0  0  0  0
   -1.2747    1.9013    0.2444 C   0  0  0  0  0  0  0  0  0  0  0  0
   -2.1636    0.7596   -0.1726 C   0  0  0  0  0  0  0  0  0  0  0  0
   -1.6330   -0.6831   -0.0242 C   0  0  0  0  0  0  0  0  0  0  0  0
   -2.1648   -1.4208   -1.2776 C   0  0  0  0  0  0  0  0  0  0  0  0
   -2.2908   -1.3147    1.2232 C   0  0  0  0  0  0  0  0  0  0  0  0
   -0.1095   -0.8083    0.0358 C   0  0  0  0  0  0  0  0  0  0  0  0
    0.7366    0.3164    0.0166 C   0  0  0  0  0  0  0  0  0  0  0  0
    2.1306    0.1171   -0.0464 C   0  0  0  0  0  0  0  0  0  0  0  0
    2.6935   -1.1490   -0.0611 C   0  0  0  0  0  0  0  0  0  0  0  0
    1.8823   -2.2729    0.0329 C   0  0  0  0  0  0  0  0  0  0  0  0
    0.4892   -2.0980    0.0737 C   0  0  0  0  0  0  0  0  0  0  0  0
    2.4719   -3.6466    0.0425 C   0  0  0  0  0  0  0  0  0  0  0  0
    1.7551   -4.6419    0.0489 O   0  0  0  0  0  0  0  0  0  0  0  0
    3.9451   -3.8338    0.0225 C   0  0  0  0  0  0  0  0  0  0  0  0
    4.5367   -4.5536   -1.0221 C   0  0  0  0  0  0  0  0  0  0  0  0
    5.9348   -4.7319   -1.0602 C   0  0  0  0  0  0  0  0  0  0  0  0
    6.7335   -4.1606   -0.0413 C   0  0  0  0  0  0  0  0  0  0  0  0
    6.1234   -3.4188    0.9797 C   0  0  0  0  0  0  0  0  0  0  0  0
    4.7376   -3.2803    1.0309 C   0  0  0  0  0  0  0  0  0  0  0  0
    8.1281   -4.3501   -0.0448 C   0  0  0  0  0  0  0  0  0  0  0  0
    8.7552   -5.0995   -1.0463 C   0  0  0  0  0  0  0  0  0  0  0  0
    7.9592   -5.6559   -2.0599 C   0  0  0  0  0  0  0  0  0  0  0  0
    6.5692   -5.4690   -2.0724 C   0  0  0  0  0  0  0  0  0  0  0  0
   10.2304   -5.3421   -1.1013 C   0  0  0  0  0  0  0  0  0  0  0  0
   10.9849   -4.8007   -0.1247 O   0  0  0  0  0  0  0  0  0  0  0  0
   10.7408   -6.0014   -2.0000 O   0  0  0  0  0  0  0  0  0  0  0  0
  1  2  1  0
  2  3  1  0
  2  4  1  0
  2 10  1  0
  4  5  1  0
  5  6  1  0
  6  7  1  0
  6  8  1  0
  6  9  1  0
  9 10  2  0
  9 14  1  0
 10 11  1  0
 11 12  2  0
 12 13  1  0
 13 14  2  0
 13 15  1  0
 15 16  2  0
 15 17  1  0
 17 18  2  0
 17 22  1  0
 18 19  1  0
 19 20  2  0
 19 26  1  0
 20 21  1  0
 20 23  1  0
 21 22  2  0
 23 24  2  0
 24 25  1  0
 24 27  1  0
 25 26  2  0
 27 28  1  0
 27 29  2  0
M  END
>  <DRUGBANK_ID>  (1) 
DB02741

>  <SECONDARY_ACCESSION_NUMBERS>  (1) 
EXPT00233

>  <COMMON_NAME>  (1) 
CD564

$$$$
