
     RDKit          3D

 25 28  0  0  0  0  0  0  0  0999 V2000
    1.7707   -0.8772    0.0323 C   0  0  0  0  0  0  0  0  0  0  0  0
    0.5291   -1.3362   -0.1927 C   0  0  0  0  0  0  0  0  0  0  0  0
    1.9862    0.6009    0.0586 C   0  0  0  0  0  0  0  0  0  0  0  0
    2.9908   -1.7668    0.1228 C   0  0  0  0  0  0  0  0  0  0  0  0
    0.8617    1.4232    0.0489 O   0  0  0  0  0  0  0  0  0  0  0  0
   -0.6295   -0.4750   -0.1005 C   0  0  0  0  0  0  0  0  0  0  0  0
   -0.4351    0.8885    0.0089 C   0  0  0  0  0  0  0  0  0  0  0  0
    3.1166    1.0811    0.0419 O   0  0  0  0  0  0  0  0  0  0  0  0
    0.1992   -2.6192   -0.5345 O   0  0  0  0  0  0  0  0  0  0  0  0
   -1.9309   -0.9944   -0.0983 C   0  0  0  0  0  0  0  0  0  0  0  0
   -1.5163    1.7577    0.0687 C   0  0  0  0  0  0  0  0  0  0  0  0
   -3.0231   -0.1386   -0.0416 C   0  0  0  0  0  0  0  0  0  0  0  0
   -2.8137    1.2380    0.0377 C   0  0  0  0  0  0  0  0  0  0  0  0
    3.0665   -2.5506    1.4284 C   0  0  0  0  0  0  0  0  0  0  0  0
    4.0103   -2.4081    2.3760 C   0  0  0  0  0  0  0  0  0  0  0  0
    2.0807   -3.6477    1.6353 C   0  0  0  0  0  0  0  0  0  0  0  0
    1.7635   -4.0354    2.9082 O   0  0  0  0  0  0  0  0  0  0  0  0
    3.9150   -3.1696    3.6272 C   0  0  0  0  0  0  0  0  0  0  0  0
    2.7770   -3.9391    3.8533 C   0  0  0  0  0  0  0  0  0  0  0  0
    1.5195   -4.1809    0.6774 O   0  0  0  0  0  0  0  0  0  0  0  0
    5.0943   -1.5642    2.2843 O   0  0  0  0  0  0  0  0  0  0  0  0
    4.8734   -3.1281    4.6396 C   0  0  0  0  0  0  0  0  0  0  0  0
    2.5693   -4.6659    5.0217 C   0  0  0  0  0  0  0  0  0  0  0  0
    4.6748   -3.8408    5.8311 C   0  0  0  0  0  0  0  0  0  0  0  0
    3.5237   -4.6078    6.0233 C   0  0  0  0  0  0  0  0  0  0  0  0
  2  1  2  0
  3  1  1  0
  4  1  1  0
  4 14  1  0
  5  3  1  0
  6  2  1  0
  7  5  1  0
  7  6  2  0
  8  3  2  0
  9  2  1  0
 10  6  1  0
 11  7  1  0
 12 10  2  0
 13 11  2  0
 13 12  1  0
 15 14  2  0
 16 14  1  0
 17 16  1  0
 18 15  1  0
 19 17  1  0
 19 18  2  0
 20 16  2  0
 21 15  1  0
 22 18  1  0
 23 19  1  0
 24 22  2  0
 25 23  2  0
 25 24  1  0
M  END
>  <DRUGBANK_ID>  (1) 
DB00266

>  <SECONDARY_ACCESSION_NUMBERS>  (1) 
APRD00761

>  <COMMON_NAME>  (1) 
Dicoumarol

>  <CAS_NUMBER>  (1) 
66-76-2

>  <UNII>  (1) 
7QID3E7BG7

>  <SYNONYMS>  (1) 
3,3'-methylen-bis(4-hydroxy-cumarin); 3,3'-methylene-bis(4-hydroxycoumarine); 3,3'-methylenebis(4-hydroxy-1,2-benzopyrone); 3,3'-methylenebis(4-hydroxy-2H-1-benzopyran-2-one); 3,3'-methylenebis(4-hydroxycoumarin); bis-3,3'-(4-hydroxycoumarinyl)methane; bis-hydroxycoumarin; bis(4-hydroxycoumarin-3-yl)methane; di-(4-hydroxy-3-coumarinyl)methane; Dicoumarol; Dicoumarolum; Dicumarol

$$$$
