
     RDKit          3D

 37 41  0  0  1  0  0  0  0  0999 V2000
    0.7067    0.3793   -0.1053 O   0  0  0  0  0  0  0  0  0  0  0  0
    1.8955    0.3170   -0.0767 C   0  0  0  0  0  0  0  0  0  0  0  0
    2.7686    1.4066   -0.0987 N   0  0  0  0  0  0  0  0  0  0  0  0
    4.1531    1.3602   -0.0359 C   0  0  0  0  0  0  0  0  0  0  0  0
    4.7600    0.1764    0.1846 C   0  0  0  0  0  0  0  0  0  0  0  0
    3.7684   -0.8577    0.6555 C   0  0  0  0  0  0  0  0  0  0  0  0
    2.5419   -0.9741    0.1601 C   0  0  0  0  0  0  0  0  0  0  0  0
    6.3769    0.0111    0.0275 C   0  0  2  0  0  0  0  0  0  0  0  0
    7.0291    1.3458   -0.4470 C   0  0  0  0  0  0  0  0  0  0  0  0
    6.3953    2.5069    0.2993 C   0  0  0  0  0  0  0  0  0  0  0  0
    4.9254    2.6468   -0.1235 C   0  0  0  0  0  0  0  0  0  0  0  0
    7.0304   -1.0050   -0.8883 N   0  0  0  0  0  0  0  0  0  0  0  0
    6.7639   -2.4200   -0.5876 C   0  0  0  0  0  0  0  0  0  0  0  0
    5.2877   -2.5479   -0.6251 C   0  0  0  0  0  0  0  0  0  0  0  0
    4.5961   -2.0578   -1.9312 C   0  0  0  0  0  0  0  0  0  0  0  0
    4.9052   -3.1648   -2.9068 C   0  0  0  0  0  0  0  0  0  0  0  0
    4.2668   -4.4631   -2.3842 C   0  0  0  0  0  0  0  0  0  0  0  0
    2.7368   -4.3514   -2.3471 C   0  0  0  0  0  0  0  0  0  0  0  0
    2.2170   -4.0534   -3.7538 C   0  0  0  0  0  0  0  0  0  0  0  0
    2.6471   -5.1627   -4.7190 C   0  0  0  0  0  0  0  0  0  0  0  0
    2.0694   -6.5136   -4.2867 C   0  0  0  0  0  0  0  0  0  0  0  0
    0.5392   -6.4921   -4.2038 C   0  0  0  0  0  0  0  0  0  0  0  0
   -0.0745   -6.1911   -5.4787 N   0  0  0  0  0  0  0  0  0  0  0  0
   -0.8918   -7.1547   -6.0975 C   0  0  0  0  0  0  0  0  0  0  0  0
   -0.5618   -7.5050   -7.4602 C   0  0  0  0  0  0  0  0  0  0  0  0
    0.6196   -6.9385   -8.2476 C   0  0  0  0  0  0  0  0  0  0  0  0
    0.9967   -7.7754   -9.4890 C   0  0  0  0  0  0  0  0  0  0  0  0
   -0.2540   -8.0636  -10.3052 C   0  0  0  0  0  0  0  0  0  0  0  0
   -1.1638   -8.9575   -9.4798 C   0  0  0  0  0  0  0  0  0  0  0  0
   -1.3834   -8.4400   -8.0782 C   0  0  0  0  0  0  0  0  0  0  0  0
   -2.4442   -8.9772   -7.4511 N   0  0  0  0  0  0  0  0  0  0  0  0
   -2.7290   -8.6441   -6.1741 C   0  0  0  0  0  0  0  0  0  0  0  0
   -3.9077   -9.1239   -5.6609 C   0  0  0  0  0  0  0  0  0  0  0  0
   -4.4434   -8.7528   -4.3993 C   0  0  0  0  0  0  0  0  0  0  0  0
   -3.6692   -8.6914   -3.2753 C   0  0  0  0  0  0  0  0  0  0  0  0
   -2.5864   -7.9572   -3.8231 C   0  0  0  0  0  0  0  0  0  0  0  0
   -1.9963   -7.8569   -5.3169 C   0  0  0  0  0  0  0  0  0  0  0  0
  1  2  2  0
  2  3  1  0
  2  7  1  0
  3  4  1  0
  4  5  2  0
  4 11  1  0
  5  6  1  0
  5  8  1  0
  6  7  2  0
  8  9  1  0
  8 12  1  6
  9 10  1  0
 10 11  1  0
 12 13  1  0
 13 14  1  0
 14 15  1  0
 15 16  1  0
 16 17  1  0
 17 18  1  0
 18 19  1  0
 19 20  1  0
 20 21  1  0
 21 22  1  0
 22 23  1  0
 23 24  1  0
 24 25  1  0
 24 37  2  0
 25 26  1  0
 25 30  2  0
 26 27  1  0
 27 28  1  0
 28 29  1  0
 29 30  1  0
 30 31  1  0
 31 32  2  0
 32 33  1  0
 32 37  1  0
 33 34  2  0
 34 35  1  0
 35 36  2  0
 36 37  1  0
M  END
>  <DRUGBANK_ID>  (1) 
DB04615

>  <COMMON_NAME>  (1) 
(S)-tacrine(10)-hupyridone

$$$$
