
     RDKit          3D

 26 29  0  0  0  0  0  0  0  0999 V2000
    0.1659   -1.3665    0.2817 N   0  0  0  0  0  0  0  0  0  0  0  0
    1.4432   -0.7452    0.1957 C   0  0  0  0  0  0  0  0  0  0  0  0
    0.1697    1.6745   -0.3681 S   0  0  0  0  0  0  0  0  0  0  0  0
    2.5521   -1.5827    0.0799 C   0  0  0  0  0  0  0  0  0  0  0  0
   -0.7507   -1.0099   -0.8445 C   0  0  0  0  0  0  0  0  0  0  0  0
    1.5707    0.6262   -0.0954 C   0  0  0  0  0  0  0  0  0  0  0  0
   -0.9388    0.4286   -1.1082 C   0  0  0  0  0  0  0  0  0  0  0  0
    0.1424   -2.1020    1.8070 C   0  0  0  0  0  0  0  0  0  0  0  0
    3.7349   -1.0974   -0.4357 C   0  0  0  0  0  0  0  0  0  0  0  0
    5.0031   -2.3200   -0.7953 S   0  0  0  0  0  0  0  0  0  0  0  0
   -2.8848   -2.4203    2.6089 N   0  0  0  0  0  0  0  0  0  0  0  0
   -0.5922   -1.5629    3.1832 C   0  0  0  0  0  0  0  0  0  0  0  0
   -2.1443   -1.3789    3.3619 C   0  0  0  0  0  0  0  0  0  0  0  0
    2.7845    1.1404   -0.4764 C   0  0  0  0  0  0  0  0  0  0  0  0
    4.3994   -3.2003   -1.8541 O   0  0  0  0  0  0  0  0  0  0  0  0
    3.8466    0.2765   -0.7207 C   0  0  0  0  0  0  0  0  0  0  0  0
   -2.6450   -3.7915    3.0100 C   0  0  0  0  0  0  0  0  0  0  0  0
   -2.6136   -2.2891    1.2186 C   0  0  0  0  0  0  0  0  0  0  0  0
   -1.7984   -1.8381   -1.4316 C   0  0  0  0  0  0  0  0  0  0  0  0
    6.2517   -1.2889   -1.5600 C   0  0  0  0  0  0  0  0  0  0  0  0
   -2.2298    0.9809   -1.4916 C   0  0  0  0  0  0  0  0  0  0  0  0
   -2.5278    0.1025    3.0230 C   0  0  0  0  0  0  0  0  0  0  0  0
   -2.8134   -0.7979    0.9859 C   0  0  0  0  0  0  0  0  0  0  0  0
   -3.1250   -1.2540   -1.7720 C   0  0  0  0  0  0  0  0  0  0  0  0
   -3.3453    0.1505   -1.7362 C   0  0  0  0  0  0  0  0  0  0  0  0
   -2.0136    0.2838    1.6805 C   0  0  0  0  0  0  0  0  0  0  0  0
  2  1  1  0
  4  2  2  0
  5  1  1  0
  6  2  1  0
  6  3  1  0
  7  3  1  0
  7  5  2  0
  8  1  1  0
  9  4  1  0
 10  9  1  0
 12  8  1  0
 13 11  1  0
 13 12  1  0
 14  6  2  0
 15 10  2  0
 16  9  2  0
 16 14  1  0
 17 11  1  0
 18 11  1  0
 19  5  1  0
 20 10  1  0
 21  7  1  0
 22 13  1  0
 23 18  1  0
 24 19  2  0
 25 21  2  0
 25 24  1  0
 26 22  1  0
 26 23  1  0
M  END
>  <DRUGBANK_ID>  (1) 
DB00933

>  <SECONDARY_ACCESSION_NUMBERS>  (1) 
APRD00610

>  <COMMON_NAME>  (1) 
Mesoridazine

>  <CAS_NUMBER>  (1) 
5588-33-0

>  <UNII>  (1) 
5XE4NWM740

>  <SYNONYMS>  (1) 
10-(2-(1-Methyl-2-piperidyl)ethyl)-2-methylsulfinyl phenothiazine; 10-(2(1-Methyl-2-piperidyl)ethyl)-2-(methylsulfinyl)phenothiazine; 2-Methanesulfinyl-10-[2-(1-methyl-piperidin-2-yl)-ethyl]-10H-phenothiazine; Mesoridazina; Mesoridazine; Mesoridazinum; Thioridazine 2-sulfoxide; Thioridazine thiomethyl sulfoxide; Thioridazine-2-sulfoxide

$$$$
