
     RDKit          3D

 17 17  0  0  1  0  0  0  0  0999 V2000
    0.5246    1.4061   -0.3495 C   0  0  2  0  0  0  0  0  0  0  0  0
    1.3956    0.2188   -0.0892 C   0  0  1  0  0  0  0  0  0  0  0  0
   -0.8479    1.1991    0.2963 C   0  0  2  0  0  0  0  0  0  0  0  0
    0.7845   -1.1598   -0.2928 C   0  0  2  0  0  0  0  0  0  0  0  0
   -0.8177    1.4243    1.8342 C   0  0  0  0  0  0  0  0  0  0  0  0
   -0.6824   -1.2275    0.2009 C   0  0  1  0  0  0  0  0  0  0  0  0
    0.5041    1.5467   -1.7734 O   0  0  0  0  0  0  0  0  0  0  0  0
    2.5999    0.3093   -0.8970 O   0  0  0  0  0  0  0  0  0  0  0  0
   -1.4511    2.2590    2.4580 O   0  0  0  0  0  0  0  0  0  0  0  0
   -0.0215    0.5497    2.4885 O   0  0  0  0  0  0  0  0  0  0  0  0
   -0.7897   -1.5407    1.5711 O   0  0  0  0  0  0  0  0  0  0  0  0
    3.7319   -0.7072    0.9346 O   0  0  0  0  0  0  0  0  0  0  0  0
    1.9973   -1.3385    2.5676 O   0  0  0  0  0  0  0  0  0  0  0  0
    3.6004   -3.0316    1.6033 O   0  0  0  0  0  0  0  0  0  0  0  0
   -1.4249   -0.0453   -0.1203 O   0  0  0  0  0  0  0  0  0  0  0  0
    1.6863   -2.1647    0.2246 O   0  0  0  0  0  0  0  0  0  0  0  0
    2.7416   -1.8723    1.4566 S   0  0  0  0  0  0  0  0  0  0  0  0
  1  7  1  6
  2  1  1  0
  2  8  1  6
  3  1  1  0
  3  5  1  1
  4  2  1  0
  4 16  1  1
  6  4  1  0
  6 11  1  1
  9  5  2  0
 10  5  1  0
 15  3  1  0
 15  6  1  0
 17 12  1  0
 17 13  2  0
 17 14  2  0
 17 16  1  0
M  END
>  <DRUGBANK_ID>  (1) 
DB03935

>  <SECONDARY_ACCESSION_NUMBERS>  (1) 
EXPT01845

>  <COMMON_NAME>  (1) 
1,4-Dideoxy-O2-Sulfo-Glucuronic Acid

$$$$
