
     RDKit          3D

 20 20  0  0  0  0  0  0  0  0999 V2000
    0.9189    0.0865    0.0294 C   0  0  0  0  0  0  0  0  0  0  0  0
    0.4729    0.0301   -1.4224 C   0  0  0  0  0  0  0  0  0  0  0  0
    0.9735   -1.2564   -2.0789 C   0  0  0  0  0  0  0  0  0  0  0  0
    0.4232   -2.4919   -1.3577 C   0  0  0  0  0  0  0  0  0  0  0  0
   -1.1091   -2.4886   -1.3819 C   0  0  0  0  0  0  0  0  0  0  0  0
   -1.5956   -2.5251   -2.8320 C   0  0  0  0  0  0  0  0  0  0  0  0
   -1.0364   -3.7828   -3.5149 C   0  0  0  0  0  0  0  0  0  0  0  0
   -1.4968   -5.0381   -2.7576 C   0  0  0  0  0  0  0  0  0  0  0  0
   -3.0067   -5.0434   -2.7101 C   0  0  0  0  0  0  0  0  0  0  0  0
   -3.5104   -4.9736   -4.1330 C   0  0  0  0  0  0  0  0  0  0  0  0
   -3.1657   -6.2553   -4.9236 C   0  0  0  0  0  0  0  0  0  0  0  0
   -3.7446   -7.5025   -4.2734 C   0  0  0  0  0  0  0  0  0  0  0  0
   -5.2082   -7.5178   -4.1910 N   0  0  0  0  0  0  0  0  0  0  0  0
   -5.8294   -8.8233   -4.0080 C   0  0  0  0  0  0  0  0  0  0  0  0
   -6.6021   -9.2515   -5.2623 C   0  0  0  0  0  0  0  0  0  0  0  0
   -7.9871   -8.5970   -5.4030 C   0  0  0  0  0  0  0  0  0  0  0  0
   -8.0093   -7.0795   -5.5156 C   0  0  0  0  0  0  0  0  0  0  0  0
   -7.4270   -6.4434   -4.2709 C   0  0  0  0  0  0  0  0  0  0  0  0
   -5.9831   -6.4388   -4.6184 C   0  0  0  0  0  0  0  0  0  0  0  0
   -5.6435   -5.5679   -5.4080 O   0  0  0  0  0  0  0  0  0  0  0  0
  1  2  1  0
  2  3  1  0
  3  4  1  0
  4  5  1  0
  5  6  1  0
  6  7  1  0
  7  8  1  0
  8  9  1  0
  9 10  1  0
 10 11  1  0
 11 12  1  0
 12 13  1  0
 13 14  1  0
 13 19  1  0
 14 15  1  0
 15 16  1  0
 16 17  1  0
 17 18  1  0
 18 19  1  0
 19 20  2  0
M  END
>  <DRUGBANK_ID>  (1) 
DB17308

>  <COMMON_NAME>  (1) 
Laurocapram

>  <CAS_NUMBER>  (1) 
59227-89-3

>  <UNII>  (1) 
1F3X9DRV9X

>  <SYNONYMS>  (1) 
1-dodecylazacycloheptan-2-one; 1-dodecylhexahydro-2h-azepin-2-one; 1-n-dodecylazacycloheptan-2-one; 2h-azepin-2-one, 1-dodecylhexahydro-; Azone; N-dodecyl-.epsilon.-caprolactam

$$$$
