
     RDKit          3D

 30 34  0  0  0  0  0  0  0  0999 V2000
   -3.3739    0.0477    0.0012 C   0  0  0  0  0  0  0  0  0  0  0  0
   -1.8861    0.0236   -0.0019 C   0  0  0  0  0  0  0  0  0  0  0  0
   -1.1144    1.1692   -0.0044 N   0  0  0  0  0  0  0  0  0  0  0  0
    0.2325    0.8453   -0.0079 C   0  0  0  0  0  0  0  0  0  0  0  0
    1.4643    1.6591   -0.0069 C   0  0  0  0  0  0  0  0  0  0  0  0
    2.7163    1.0413   -0.0317 C   0  0  0  0  0  0  0  0  0  0  0  0
    2.5332   -0.4668   -0.0385 C   0  0  0  0  0  0  0  0  0  0  0  0
    1.3491   -1.2610   -0.0190 C   0  0  0  0  0  0  0  0  0  0  0  0
    0.1688   -0.5521   -0.0089 C   0  0  0  0  0  0  0  0  0  0  0  0
   -1.1192   -1.0401   -0.0011 N   0  0  0  0  0  0  0  0  0  0  0  0
    4.2783    1.5219    0.1165 C   0  0  0  0  0  0  0  0  0  0  0  0
    4.5935    0.4206    0.5345 O   0  0  0  0  0  0  0  0  0  0  0  0
    5.5900    2.6785   -0.0290 N   0  0  0  0  0  0  0  0  0  0  0  0
    7.4900    2.6432    0.5808 C   0  0  0  0  0  0  0  0  0  0  0  0
    7.7405    1.8290    1.8946 C   0  0  0  0  0  0  0  0  0  0  0  0
    6.3647    1.5787    1.5953 C   0  0  0  0  0  0  0  0  0  0  0  0
    5.7480    3.4320    1.6724 C   0  0  0  0  0  0  0  0  0  0  0  0
    5.3395    3.9141    0.2614 C   0  0  0  0  0  0  0  0  0  0  0  0
    5.8480    0.6516    2.6750 C   0  0  0  0  0  0  0  0  0  0  0  0
    6.0744   -0.7579    2.2381 C   0  0  0  0  0  0  0  0  0  0  0  0
    6.0595   -1.8873    3.0493 C   0  0  0  0  0  0  0  0  0  0  0  0
    6.1960   -3.0209    2.3519 N   0  0  0  0  0  0  0  0  0  0  0  0
    6.2908   -2.5952    1.0750 N   0  0  0  0  0  0  0  0  0  0  0  0
    6.3791   -1.2653    0.9720 C   0  0  0  0  0  0  0  0  0  0  0  0
    6.5696   -0.6039   -0.2607 C   0  0  0  0  0  0  0  0  0  0  0  0
    6.5426   -0.9939   -1.4559 O   0  0  0  0  0  0  0  0  0  0  0  0
    6.7142    0.7761   -0.1522 C   0  0  0  0  0  0  0  0  0  0  0  0
    6.3484   -3.4720   -0.0871 C   0  0  0  0  0  0  0  0  0  0  0  0
    5.1173   -3.2815   -1.0037 C   0  0  0  0  0  0  0  0  0  0  0  0
    7.6969   -3.3195   -0.8270 C   0  0  0  0  0  0  0  0  0  0  0  0
  1  2  1  0
  2  3  1  0
  2 10  2  0
  3  4  1  0
  4  5  2  0
  4  9  1  0
  5  6  1  0
  6  7  2  0
  6 11  1  0
  7  8  1  0
  8  9  2  0
  9 10  1  0
 11 12  2  0
 11 13  1  0
 13 14  1  0
 13 18  1  0
 14 15  1  0
 15 16  1  0
 16 17  1  0
 16 19  1  0
 16 27  1  0
 17 18  1  0
 19 20  1  0
 20 21  1  0
 20 24  2  0
 21 22  2  0
 22 23  1  0
 23 24  1  0
 23 28  1  0
 24 25  1  0
 25 26  2  0
 25 27  1  0
 28 29  1  0
 28 30  1  0
M  END
>  <DRUGBANK_ID>  (1) 
DB12096

>  <COMMON_NAME>  (1) 
PF-05175157

>  <CAS_NUMBER>  (1) 
1301214-47-0

>  <UNII>  (1) 
P826WR56FI

$$$$
