IGP
     RDKit          3D

 19 20  0  0  0  0  0  0  0  0999 V2000
    0.9375   -0.0506    0.0663 C   0  0  0  0  0  0  0  0  0  0  0  0
    1.0183   -0.1843   -2.5694 P   0  0  0  0  0  0  0  0  0  0  0  0
   -0.4285   -0.6846   -3.1503 O   0  0  0  0  0  0  0  0  0  0  0  0
    0.4645    1.2976   -2.1262 O   0  0  0  0  0  0  0  0  0  0  0  0
    1.5344    0.3501   -3.9278 O   0  0  0  0  0  0  0  0  0  0  0  0
    0.4416   -0.7814   -1.0515 O   0  0  0  0  0  0  0  0  0  0  0  0
    0.4116   -0.5668    1.3867 C   0  0  1  0  0  0  0  0  0  0  0  0
    0.9274    0.3135    2.4027 O   0  0  0  0  0  0  0  0  0  0  0  0
   -1.1439   -0.5584    1.3783 C   0  0  1  0  0  0  0  0  0  0  0  0
   -1.6865   -1.3651    0.3281 O   0  0  0  0  0  0  0  0  0  0  0  0
   -1.6378   -1.0517    2.6952 C   0  0  0  0  0  0  0  0  0  0  0  0
   -2.1475   -0.2556    3.7623 C   0  0  0  0  0  0  0  0  0  0  0  0
   -2.3801   -1.1158    4.8368 C   0  0  0  0  0  0  0  0  0  0  0  0
   -2.4135    1.1199    3.9219 C   0  0  0  0  0  0  0  0  0  0  0  0
   -1.6134   -2.3642    3.1319 C   0  0  0  0  0  0  0  0  0  0  0  0
   -2.0297   -2.3793    4.4274 N   0  0  0  0  0  0  0  0  0  0  0  0
   -2.8758   -0.6655    6.0621 C   0  0  0  0  0  0  0  0  0  0  0  0
   -2.9366    1.5809    5.1325 C   0  0  0  0  0  0  0  0  0  0  0  0
   -3.1648    0.6970    6.1849 C   0  0  0  0  0  0  0  0  0  0  0  0
  1  6  1  0
  1  7  1  0
  2  3  1  0
  2  4  1  0
  2  5  2  0
  2  6  1  0
  7  8  1  1
  7  9  1  0
  9 10  1  6
  9 11  1  0
 11 12  1  0
 11 15  2  0
 12 13  2  0
 12 14  1  0
 13 16  1  0
 13 17  1  0
 14 18  2  0
 15 16  1  0
 17 19  2  0
 18 19  1  0
M  END
>  <DRUGBANK_ID>  (1) 
DB04143

>  <SECONDARY_ACCESSION_NUMBERS>  (1) 
EXPT01850

>  <COMMON_NAME>  (1) 
Indole-3-Glycerol Phosphate

$$$$
