SAV
     RDKit          3D

 30 33  0  0  0  0  0  0  0  0999 V2000
    0.9551    0.0582    0.0954 N   0  0  0  0  0  0  0  0  0  0  0  0
    0.3605   -2.3438    4.1253 N   0  0  0  0  0  0  0  0  0  0  0  0
    0.3030    1.0695   -0.6207 C   0  0  0  0  0  0  0  0  0  0  0  0
    0.3328   -0.9559    0.7950 C   0  0  0  0  0  0  0  0  0  0  0  0
   -1.2464   -2.6103    0.8524 C   0  0  0  0  0  0  0  0  0  0  0  0
   -0.9129   -2.9321    2.1498 C   0  0  0  0  0  0  0  0  0  0  0  0
    0.1034   -2.1776    2.7344 C   0  0  0  0  0  0  0  0  0  0  0  0
    1.5231   -0.4157    5.1736 C   0  0  0  0  0  0  0  0  0  0  0  0
    4.9986   -0.6810    7.1132 C   0  0  0  0  0  0  0  0  0  0  0  0
    3.5600   -2.0235    6.0060 C   0  0  0  0  0  0  0  0  0  0  0  0
    0.6820    1.3624   -1.9285 C   0  0  0  0  0  0  0  0  0  0  0  0
   -1.1493    2.9584   -2.1425 C   0  0  0  0  0  0  0  0  0  0  0  0
   -1.5053    4.4321   -4.0395 C   0  0  0  0  0  0  0  0  0  0  0  0
   -3.6697    3.7673   -0.9572 C   0  0  0  0  0  0  0  0  0  0  0  0
   -2.6981    3.0673   -0.1859 O   0  0  0  0  0  0  0  0  0  0  0  0
   -1.5719    2.6215   -0.8422 C   0  0  0  0  0  0  0  0  0  0  0  0
   -0.8160    1.7183   -0.0844 C   0  0  0  0  0  0  0  0  0  0  0  0
   -0.6692   -1.6187    0.1825 N   0  0  0  0  0  0  0  0  0  0  0  0
    1.4397   -1.7731    4.8543 C   0  0  0  0  0  0  0  0  0  0  0  0
    2.6137    0.1427    5.9516 C   0  0  0  0  0  0  0  0  0  0  0  0
    3.7040   -0.6850    6.3840 C   0  0  0  0  0  0  0  0  0  0  0  0
    5.9442    0.2616    7.8245 C   0  0  0  0  0  0  0  0  0  0  0  0
    5.5047   -1.9244    7.1583 N   0  0  0  0  0  0  0  0  0  0  0  0
    4.6357   -2.6781    6.5125 N   0  0  0  0  0  0  0  0  0  0  0  0
    2.4967   -2.5773    5.2646 C   0  0  0  0  0  0  0  0  0  0  0  0
    0.7600   -1.2420    2.0372 N   0  0  0  0  0  0  0  0  0  0  0  0
   -0.0419    2.2841   -2.6996 C   0  0  0  0  0  0  0  0  0  0  0  0
    0.2448    2.5457   -4.0105 O   0  0  0  0  0  0  0  0  0  0  0  0
    1.2906    1.8390   -4.6461 C   0  0  0  0  0  0  0  0  0  0  0  0
   -1.8631    3.9507   -2.7597 O   0  0  0  0  0  0  0  0  0  0  0  0
  1  3  1  0
  1  4  1  0
  2  7  1  0
  2 19  1  0
  3 11  2  0
  3 17  1  0
  4 18  2  0
  4 26  1  0
  5  6  2  0
  5 18  1  0
  6  7  1  0
  7 26  2  0
  8 19  2  0
  8 20  1  0
  9 21  1  0
  9 22  1  0
  9 23  2  0
 10 21  1  0
 10 24  1  0
 10 25  2  0
 11 27  1  0
 12 16  1  0
 12 27  2  0
 12 30  1  0
 13 30  1  0
 14 15  1  0
 15 16  1  0
 16 17  2  0
 19 25  1  0
 20 21  2  0
 23 24  1  0
 27 28  1  0
 28 29  1  0
M  END
>  <DRUGBANK_ID>  (1) 
DB08519

>  <COMMON_NAME>  (1) 
N~4~-(3-methyl-1H-indazol-6-yl)-N~2~-(3,4,5-trimethoxyphenyl)pyrimidine-2,4-diamine

$$$$
