
     RDKit          3D

 21 23  0  0  0  0  0  0  0  0999 V2000
    0.4652    0.1157   -0.1560 C   0  0  0  0  0  0  0  0  0  0  0  0
    0.2861    0.4270    1.2722 N   0  0  0  0  0  0  0  0  0  0  0  0
   -1.1460    0.6045    1.4458 C   0  0  0  0  0  0  0  0  0  0  0  0
    0.8174   -0.4816    2.3038 C   0  0  0  0  0  0  0  0  0  0  0  0
    0.6160   -1.9606    2.1075 C   0  0  0  0  0  0  0  0  0  0  0  0
    1.3973   -2.4868    0.9039 C   0  0  0  0  0  0  0  0  0  0  0  0
    2.8557   -2.2644    0.8618 N   0  0  0  0  0  0  0  0  0  0  0  0
    3.6933   -3.3910    0.9708 C   0  0  0  0  0  0  0  0  0  0  0  0
    3.4603   -4.7643    1.1839 C   0  0  0  0  0  0  0  0  0  0  0  0
    4.5505   -5.6403    1.3066 C   0  0  0  0  0  0  0  0  0  0  0  0
    5.8573   -5.1688    1.2218 C   0  0  0  0  0  0  0  0  0  0  0  0
    6.0771   -3.8252    0.9781 C   0  0  0  0  0  0  0  0  0  0  0  0
    5.0078   -2.9307    0.8315 C   0  0  0  0  0  0  0  0  0  0  0  0
    4.9765   -1.5423    0.5631 C   0  0  0  0  0  0  0  0  0  0  0  0
    3.6579   -1.0905    0.6766 C   0  0  0  0  0  0  0  0  0  0  0  0
    3.3506    0.4226    0.6384 C   0  0  0  0  0  0  0  0  0  0  0  0
    3.6614    1.2191    1.9093 C   0  0  0  0  0  0  0  0  0  0  0  0
    5.0789    1.0268    2.3766 C   0  0  0  0  0  0  0  0  0  0  0  0
    6.0368    1.5631    1.3156 C   0  0  0  0  0  0  0  0  0  0  0  0
    6.2855    0.6877    0.0751 C   0  0  0  0  0  0  0  0  0  0  0  0
    6.2825   -0.8053    0.3454 C   0  0  0  0  0  0  0  0  0  0  0  0
  1  2  1  0
  2  3  1  0
  2  4  1  0
  4  5  1  0
  5  6  1  0
  6  7  1  0
  7  8  1  0
  7 15  1  0
  8  9  2  0
  8 13  1  0
  9 10  1  0
 10 11  2  0
 11 12  1  0
 12 13  2  0
 13 14  1  0
 14 15  2  0
 14 21  1  0
 15 16  1  0
 16 17  1  0
 17 18  1  0
 18 19  1  0
 19 20  1  0
 20 21  1  0
M  END
>  <DRUGBANK_ID>  (1) 
DB13496

>  <COMMON_NAME>  (1) 
Iprindole

>  <CAS_NUMBER>  (1) 
5560-72-5

>  <UNII>  (1) 
69U0IKR8FP

>  <SYNONYMS>  (1) 
Iprindole

$$$$
