
     RDKit          3D

 18 11  0  0  0  0  0  0  0  0999 V2000
    0.5700    1.1000    0.0020 C   0  0  0  0  0  0  0  0  0  0  0  0
   -0.9170    0.8050   -0.0020 C   0  0  0  0  0  0  0  0  0  0  0  0
   -1.8670    1.6492   -0.0071 O   0  0  0  0  0  0  0  0  0  0  0  0
   -1.0220   -0.5390    0.0010 N   0  0  0  0  0  0  0  0  0  0  0  0
    0.1790   -1.1280    0.0010 C   0  0  0  0  0  0  0  0  0  0  0  0
    0.3481   -2.3876    0.0035 O   0  0  0  0  0  0  0  0  0  0  0  0
    1.1880   -0.2380   -0.0020 N   0  0  0  0  0  0  0  0  0  0  0  0
    0.9916    1.9278   -1.1373 N   0  0  0  0  0  0  0  0  0  0  0  0
    1.6503    3.2208   -0.9025 C   0  0  0  0  0  0  0  0  0  0  0  0
    2.0147    3.9364   -1.8874 O   0  0  0  0  0  0  0  0  0  0  0  0
    1.8873    3.6860    0.4717 N   0  0  0  0  0  0  0  0  0  0  0  0
    1.0299   -0.0318    0.0900 O   0  0  0  0  0  0  0  0  0  0  0  0
    1.0041   -0.0240    0.0970 O   0  0  0  0  0  0  0  0  0  0  0  0
    0.9214   -0.0338    0.0517 O   0  0  0  0  0  0  0  0  0  0  0  0
    1.0790   -0.0479    0.0382 O   0  0  0  0  0  0  0  0  0  0  0  0
    1.0631    0.0403    0.0663 Al  0  0  0  0  0 15  0  0  0  0  0  0
    0.9455   -0.0826   -0.0143 Al  0  0  0  0  0 15  0  0  0  0  0  0
    0.9640   -0.0787   -0.0501 Cl  0  0  0  0  0  0  0  0  0  0  0  0
  1  2  1  0
  1  7  1  0
  1  8  1  0
  2  3  2  0
  2  4  1  0
  4  5  1  0
  5  6  2  0
  5  7  1  0
  8  9  1  0
  9 10  2  0
  9 11  1  0
M  CHG  8   4  -1  12  -1  13  -1  14  -1  15  -1  16   3  17   3  18  -1
M  END
>  <DRUGBANK_ID>  (1) 
DB11205

>  <COMMON_NAME>  (1) 
Alcloxa

>  <CAS_NUMBER>  (1) 
1317-25-5

>  <UNII>  (1) 
18B8O9DQA2

>  <SYNONYMS>  (1) 
Alcloxa; Alcloxum; Aluminium chlorohydroxyallantoinate; Aluminum chlorhydroxy allantoinate; Aluminum chlorohydroxy allantoinate; Chlorhydroxyaluminum allantoinate; Dialuminum tetrahydroxychloro allantoinate

$$$$
