I19
     RDKit          3D

 33 36  0  0  0  0  0  0  0  0999 V2000
    1.0640   -0.0636   -0.0491 C   0  0  0  0  0  0  0  0  0  0  0  0
    0.4735    0.9281    0.9617 C   0  0  0  0  0  0  0  0  0  0  0  0
    1.1828    2.2416    0.6621 C   0  0  0  0  0  0  0  0  0  0  0  0
   -0.9984    0.9945    0.9262 N   0  0  0  0  0  0  0  0  0  0  0  0
   -1.8371   -0.1230    0.9880 C   0  0  0  0  0  0  0  0  0  0  0  0
   -1.3980   -1.5479    1.0129 C   0  0  0  0  0  0  0  0  0  0  0  0
   -3.1025    0.2347    1.0076 N   0  0  0  0  0  0  0  0  0  0  0  0
   -3.1093    1.5946    0.9715 C   0  0  0  0  0  0  0  0  0  0  0  0
   -1.8320    2.1216    0.9165 C   0  0  0  0  0  0  0  0  0  0  0  0
   -1.4705    3.5454    0.9638 C   0  0  0  0  0  0  0  0  0  0  0  0
   -0.7799    4.0308   -0.1028 N   0  0  0  0  0  0  0  0  0  0  0  0
   -0.2409    5.2616    0.0156 C   0  0  0  0  0  0  0  0  0  0  0  0
    0.6113    5.7181   -0.9886 N   0  0  0  0  0  0  0  0  0  0  0  0
    1.2765    6.9492   -1.0399 C   0  0  0  0  0  0  0  0  0  0  0  0
    2.0836    7.3861    0.0121 C   0  0  0  0  0  0  0  0  0  0  0  0
    2.6863    8.6490   -0.0124 C   0  0  0  0  0  0  0  0  0  0  0  0
    2.5331    9.5072   -1.1058 C   0  0  0  0  0  0  0  0  0  0  0  0
    1.7389    9.0617   -2.1749 C   0  0  0  0  0  0  0  0  0  0  0  0
    1.0979    7.8083   -2.1276 C   0  0  0  0  0  0  0  0  0  0  0  0
    3.0307   10.9319   -1.0844 C   0  0  0  0  0  0  0  0  0  0  0  0
    2.6478   11.7193   -1.9555 O   0  0  0  0  0  0  0  0  0  0  0  0
    3.7438   11.3612    0.0162 N   0  0  0  0  0  0  0  0  0  0  0  0
    4.9955   10.8282    0.5127 C   0  0  0  0  0  0  0  0  0  0  0  0
    4.8519   10.9911    2.0151 C   0  0  0  0  0  0  0  0  0  0  0  0
    4.1097   12.3431    2.1590 C   0  0  1  0  0  0  0  0  0  0  0  0
    3.3251   12.4950    0.8219 C   0  0  0  0  0  0  0  0  0  0  0  0
    3.3329   12.4648    3.4126 N   0  0  0  0  0  0  0  0  0  0  0  0
    2.7646   13.8134    3.5333 C   0  0  0  0  0  0  0  0  0  0  0  0
    2.2537   11.4752    3.5132 C   0  0  0  0  0  0  0  0  0  0  0  0
   -0.4574    6.0545    1.0774 N   0  0  0  0  0  0  0  0  0  0  0  0
   -1.2298    5.5793    2.0681 C   0  0  0  0  0  0  0  0  0  0  0  0
   -1.7515    4.3152    2.0722 C   0  0  0  0  0  0  0  0  0  0  0  0
   -2.4446    3.8646    3.1239 F   0  0  0  0  0  0  0  0  0  0  0  0
  1  2  1  0
  2  3  1  0
  2  4  1  0
  4  5  1  0
  4  9  1  0
  5  6  1  0
  5  7  2  0
  7  8  1  0
  8  9  2  0
  9 10  1  0
 10 11  2  0
 10 32  1  0
 11 12  1  0
 12 13  1  0
 12 30  2  0
 13 14  1  0
 14 15  2  0
 14 19  1  0
 15 16  1  0
 16 17  2  0
 17 18  1  0
 17 20  1  0
 18 19  2  0
 20 21  2  0
 20 22  1  0
 22 23  1  0
 22 26  1  0
 23 24  1  0
 24 25  1  0
 25 26  1  0
 25 27  1  1
 27 28  1  0
 27 29  1  0
 30 31  1  0
 31 32  2  0
 32 33  1  0
M  END
>  <DRUGBANK_ID>  (1) 
DB07936

>  <COMMON_NAME>  (1) 
N-(4-{[(3S)-3-(dimethylamino)pyrrolidin-1-yl]carbonyl}phenyl)-5-fluoro-4-[2-methyl-1-(1-methylethyl)-1H-imidazol-5-yl]pyrimidin-2-amine

$$$$
