PP2
     RDKit          3D

 21 23  0  0  0  0  0  0  0  0999 V2000
    0.2063    0.6528   -0.0052 C   0  0  0  0  0  0  0  0  0  0  0  0
   -0.9662    1.3529   -0.0049 N   0  0  0  0  0  0  0  0  0  0  0  0
   -2.0642    0.5782   -0.0115 C   0  0  0  0  0  0  0  0  0  0  0  0
   -2.1240   -0.7758   -0.0198 N   0  0  0  0  0  0  0  0  0  0  0  0
   -0.9940   -1.5196   -0.0219 C   0  0  0  0  0  0  0  0  0  0  0  0
    0.2019   -0.7943   -0.0210 C   0  0  0  0  0  0  0  0  0  0  0  0
    1.6182   -1.1319   -0.0030 C   0  0  0  0  0  0  0  0  0  0  0  0
    2.3645    0.0749    0.0480 N   0  0  0  0  0  0  0  0  0  0  0  0
    1.5330    1.1381    0.0205 N   0  0  0  0  0  0  0  0  0  0  0  0
    2.1873   -2.4971   -0.0458 C   0  0  0  0  0  0  0  0  0  0  0  0
    2.9973   -2.9417    0.9981 C   0  0  0  0  0  0  0  0  0  0  0  0
    3.4369   -4.2669    0.9890 C   0  0  0  0  0  0  0  0  0  0  0  0
    3.0823   -5.1162   -0.0631 C   0  0  0  0  0  0  0  0  0  0  0  0
    2.2809   -4.6579   -1.1073 C   0  0  0  0  0  0  0  0  0  0  0  0
    1.8318   -3.3410   -1.1026 C   0  0  0  0  0  0  0  0  0  0  0  0
    2.0266    2.5355    0.0066 C   0  0  0  0  0  0  0  0  0  0  0  0
    2.8860    2.7680    1.2576 C   0  0  0  0  0  0  0  0  0  0  0  0
    2.8800    2.7570   -1.2524 C   0  0  0  0  0  0  0  0  0  0  0  0
    0.8753    3.5492    0.0024 C   0  0  0  0  0  0  0  0  0  0  0  0
   -1.0943   -2.8807   -0.0235 N   0  0  0  0  0  0  0  0  0  0  0  0
    3.6311   -6.7431   -0.0713 Cl  0  0  0  0  0  0  0  0  0  0  0  0
  1  2  2  0
  1  6  1  0
  1  9  1  0
  2  3  1  0
  3  4  2  0
  4  5  1  0
  5  6  2  0
  5 20  1  0
  6  7  1  0
  7  8  2  0
  7 10  1  0
  8  9  1  0
  9 16  1  0
 10 11  2  0
 10 15  1  0
 11 12  1  0
 12 13  2  0
 13 14  1  0
 13 21  1  0
 14 15  2  0
 16 17  1  0
 16 18  1  0
 16 19  1  0
M  CHG  1   8   1
M  END
>  <DRUGBANK_ID>  (1) 
DB03023

>  <SECONDARY_ACCESSION_NUMBERS>  (1) 
EXPT02634

>  <COMMON_NAME>  (1) 
1-Tert-Butyl-3-(4-Chloro-Phenyl)-1h-Pyrazolo[3,4-D]Pyrimidin-4-Ylamine

$$$$
