8PC
     RDKit          3D

 23 25  0  0  0  0  0  0  0  0999 V2000
   -2.7066    0.8226   -0.0427 Cl  0  0  0  0  0  0  0  0  0  0  0  0
   -1.2216   -0.0352    0.0728 C   0  0  0  0  0  0  0  0  0  0  0  0
   -0.0171    0.6688    0.0609 C   0  0  0  0  0  0  0  0  0  0  0  0
    1.1843   -0.0319    0.1016 C   0  0  0  0  0  0  0  0  0  0  0  0
    2.6665    0.8477    0.0123 Cl  0  0  0  0  0  0  0  0  0  0  0  0
    1.1692   -1.4295    0.1484 C   0  0  0  0  0  0  0  0  0  0  0  0
   -0.0383   -2.1283    0.2474 C   0  0  0  0  0  0  0  0  0  0  0  0
   -1.2381   -1.4279    0.1607 C   0  0  0  0  0  0  0  0  0  0  0  0
    2.3518   -2.1023    0.0520 O   0  0  0  0  0  0  0  0  0  0  0  0
    2.5821   -2.9404   -1.0170 C   0  0  0  0  0  0  0  0  0  0  0  0
    3.7760   -3.6443   -0.8658 C   0  0  0  0  0  0  0  0  0  0  0  0
    4.1639   -4.5972   -1.8030 C   0  0  0  0  0  0  0  0  0  0  0  0
    3.4132   -4.8218   -2.9643 C   0  0  0  0  0  0  0  0  0  0  0  0
    2.2217   -4.1137   -3.1189 C   0  0  0  0  0  0  0  0  0  0  0  0
    1.8116   -3.1770   -2.1664 C   0  0  0  0  0  0  0  0  0  0  0  0
    0.6363   -2.5695   -2.5026 O   0  0  0  0  0  0  0  0  0  0  0  0
    3.8665   -5.7883   -4.0418 C   0  0  0  0  0  0  0  0  0  0  0  0
    5.1615   -5.3951   -4.7286 C   0  0  0  0  0  0  0  0  0  0  0  0
    5.1131   -5.0976   -6.0489 N   0  0  0  0  0  0  0  0  0  0  0  0
    6.2648   -4.6934   -6.6375 C   0  0  0  0  0  0  0  0  0  0  0  0
    7.4660   -4.5366   -5.9649 C   0  0  0  0  0  0  0  0  0  0  0  0
    7.5071   -4.8562   -4.6215 C   0  0  0  0  0  0  0  0  0  0  0  0
    6.3561   -5.3328   -4.0093 C   0  0  0  0  0  0  0  0  0  0  0  0
  1  2  1  0
  2  8  2  0
  2  3  1  0
  3  4  2  0
  4  6  1  0
  4  5  1  0
  6  7  2  0
  6  9  1  0
  7  8  1  0
  9 10  1  0
 10 15  1  0
 10 11  2  0
 11 12  1  0
 12 13  2  0
 13 14  1  0
 13 17  1  0
 14 15  2  0
 15 16  1  0
 17 18  1  0
 18 19  2  0
 18 23  1  0
 19 20  1  0
 20 21  2  0
 21 22  1  0
 22 23  2  0
M  END
>  <DRUGBANK_ID>  (1) 
DB07287

>  <COMMON_NAME>  (1) 
2-(2,4-DICHLOROPHENOXY)-5-(PYRIDIN-2-YLMETHYL)PHENOL

$$$$
