
     RDKit          3D

 17 16  0  0  0  0  0  0  0  0999 V2000
    1.7157    0.0612    0.9205 C   0  0  0  0  0  0  0  0  0  0  0  0
    0.7715    0.4447    2.0278 N   0  0  0  0  0  0  0  0  0  0  0  0
    1.1277    1.9122    2.2664 C   0  0  0  0  0  0  0  0  0  0  0  0
   -0.7615    0.4866    1.9761 C   0  0  0  0  0  0  0  0  0  0  0  0
    1.1343   -0.5720    3.0762 C   0  0  0  0  0  0  0  0  0  0  0  0
    0.6340   -2.0132    2.7164 C   0  0  0  0  0  0  0  0  0  0  0  0
    1.3262   -2.6283    1.6294 O   0  0  0  0  0  0  0  0  0  0  0  0
   -2.1599    0.1213   -0.6266 C   0  0  0  0  0  0  0  0  0  0  0  0
   -1.5649   -1.1309   -0.6988 C   0  0  0  0  0  0  0  0  0  0  0  0
   -0.2704   -1.2151   -1.2035 C   0  0  0  0  0  0  0  0  0  0  0  0
    0.4763   -0.0418   -1.5377 C   0  0  0  0  0  0  0  0  0  0  0  0
   -0.0275    1.2536   -1.2377 C   0  0  0  0  0  0  0  0  0  0  0  0
   -1.3972    1.2844   -0.8782 C   0  0  0  0  0  0  0  0  0  0  0  0
    0.8076    2.5742   -0.9302 C   0  0  0  0  0  0  0  0  0  0  0  0
    0.1143    3.5887   -0.5307 O   0  0  0  0  0  0  0  0  0  0  0  0
    2.0669    2.5345   -0.8135 O   0  0  0  0  0  0  0  0  0  0  0  0
    1.7548   -0.2723   -1.9907 O   0  0  0  0  0  0  0  0  0  0  0  0
  1  2  1  0
  2  3  1  0
  2  4  1  0
  2  5  1  0
  5  6  1  0
  6  7  1  0
  8  9  2  0
  8 13  1  0
  9 10  1  0
 10 11  2  0
 11 12  1  0
 11 17  1  0
 12 13  2  0
 12 14  1  0
 14 15  2  0
 14 16  1  0
M  CHG  2   2   1  16  -1
M  END
>  <DRUGBANK_ID>  (1) 
DB14006

>  <SECONDARY_ACCESSION_NUMBERS>  (1) 
DBSALT001576

>  <COMMON_NAME>  (1) 
Choline salicylate

>  <CAS_NUMBER>  (1) 
2016-36-6

>  <UNII>  (1) 
KD510K1IQW

>  <SYNONYMS>  (1) 
Choline salicylate

$$$$
