
     RDKit          3D

  8  7  0  0  1  0  0  0  0  0999 V2000
    1.0795   -0.0777   -0.0669 N   0  0  0  0  0  0  0  0  0  0  0  0
    0.5388   -1.3473    0.4586 C   0  0  1  0  0  0  0  0  0  0  0  0
    1.0275   -1.5926    1.8997 C   0  0  0  0  0  0  0  0  0  0  0  0
    0.6270   -0.5328    2.9299 C   0  0  0  0  0  0  0  0  0  0  0  0
   -0.7655   -0.5249    3.1780 O   0  0  0  0  0  0  0  0  0  0  0  0
   -1.0008   -1.3284    0.3306 C   0  0  0  0  0  0  0  0  0  0  0  0
   -1.5496   -2.3523   -0.3546 O   0  0  0  0  0  0  0  0  0  0  0  0
   -1.7001   -0.4356    0.8080 O   0  0  0  0  0  0  0  0  0  0  0  0
  2  1  1  1
  2  3  1  0
  2  6  1  0
  3  4  1  0
  4  5  1  0
  6  7  1  0
  6  8  2  0
M  END
>  <DRUGBANK_ID>  (1) 
DB04193

>  <SECONDARY_ACCESSION_NUMBERS>  (1) 
EXPT01782

>  <COMMON_NAME>  (1) 
L-Homoserine

>  <CAS_NUMBER>  (1) 
672-15-1

>  <UNII>  (1) 
6KA95X0IVO

$$$$
