
     RDKit          3D

 19 14  0  0  0  0  0  0  0  0999 V2000
    0.9115    0.0322   -0.0337 O   0  0  0  0  0  0  0  0  0  0  0  0
    0.4382   -1.1155   -0.7229 C   0  0  0  0  0  0  0  0  0  0  0  0
    0.9449   -1.0908   -2.1558 C   0  0  0  0  0  0  0  0  0  0  0  0
    2.3649   -1.0908   -2.1558 O   0  0  0  0  0  0  0  0  0  0  0  0
    0.4382   -2.3194   -2.8936 C   0  0  0  0  0  0  0  0  0  0  0  0
   -0.9818   -2.3194   -2.8936 O   0  0  0  0  0  0  0  0  0  0  0  0
    0.9449   -2.2947   -4.3264 C   0  0  0  0  0  0  0  0  0  0  0  0
    2.3649   -2.2947   -4.3265 O   0  0  0  0  0  0  0  0  0  0  0  0
    0.4382   -3.5232   -5.0642 C   0  0  0  0  0  0  0  0  0  0  0  0
   -0.9818   -3.5232   -5.0642 O   0  0  0  0  0  0  0  0  0  0  0  0
    0.9449   -3.4985   -6.4971 C   0  0  0  0  0  0  0  0  0  0  0  0
    2.3649   -3.4985   -6.4971 O   0  0  0  0  0  0  0  0  0  0  0  0
    0.9792    0.0794   -0.0571 Na  0  0  0  0  0 15  0  0  0  0  0  0
    0.9049   -0.0296    0.0086 Al  0  0  0  0  0 15  0  0  0  0  0  0
    0.9648   -0.0582   -0.0733 O   0  0  0  0  0  0  0  0  0  0  0  0
    2.3848   -0.0582   -0.0733 C   0  0  0  0  0  0  0  0  0  0  0  0
    3.0948   -1.0108   -0.8511 O   0  0  0  0  0  0  0  0  0  0  0  0
    3.0202    0.7943    0.6229 O   0  0  0  0  0  0  0  0  0  0  0  0
    1.0613    0.0344   -0.0711 O   0  0  0  0  0  0  0  0  0  0  0  0
  2  1  1  0
  2  3  1  0
  3  4  1  0
  3  5  1  0
  5  6  1  0
  5  7  1  0
  7  8  1  0
  7  9  1  0
  9 10  1  0
  9 11  1  0
 11 12  1  0
 16 15  1  0
 16 17  1  0
 16 18  2  0
M  CHG  5  13   1  14   3  15  -1  17  -1  19  -1
M  END
>  <DRUGBANK_ID>  (1) 
DB15908

>  <COMMON_NAME>  (1) 
Alexitol sodium

>  <CAS_NUMBER>  (1) 
66813-51-2

>  <UNII>  (1) 
JDN69ZV6XV

>  <SYNONYMS>  (1) 
Alexitol sodium; Sodium polyhydroxyaluminium monocarbonate hexitol complex

$$$$
