
     RDKit          3D

 20 20  0  0  0  0  0  0  0  0999 V2000
   -0.2369    1.2482    0.0053 C   0  0  0  0  0  0  0  0  0  0  0  0
    1.2959   -0.4590   -0.2872 N   0  0  0  0  0  0  0  0  0  0  0  0
   -1.2106   -0.1510    0.0436 S   0  0  0  0  0  0  0  0  0  0  0  0
    0.1885   -1.1785   -0.1173 C   0  0  0  0  0  0  0  0  0  0  0  0
    2.3727    2.9173   -1.5935 S   0  0  0  0  0  0  0  0  0  0  0  0
    2.5217    1.5857   -2.8420 C   0  0  0  0  0  0  0  0  0  0  0  0
    3.7916    0.7158   -2.8151 C   0  0  0  0  0  0  0  0  0  0  0  0
    3.8575   -1.6177   -1.9863 N   0  0  0  0  0  0  0  0  0  0  0  0
    3.9581   -0.3089   -1.6404 C   0  0  0  0  0  0  0  0  0  0  0  0
    4.2017    0.1414   -0.4495 N   0  0  0  0  0  0  0  0  0  0  0  0
    3.0224   -1.3894    1.2333 O   0  0  0  0  0  0  0  0  0  0  0  0
    5.4844   -1.3251    1.1480 O   0  0  0  0  0  0  0  0  0  0  0  0
    4.2171   -0.6420    0.9710 S   0  0  0  0  0  0  0  0  0  0  0  0
   -0.0087   -2.5419   -0.0358 N   0  0  0  0  0  0  0  0  0  0  0  0
    2.2757   -3.1139   -0.3616 N   0  0  0  0  0  0  0  0  0  0  0  0
    0.9718   -3.3831   -0.1296 C   0  0  0  0  0  0  0  0  0  0  0  0
    0.8318   -4.7251   -0.0145 N   0  0  0  0  0  0  0  0  0  0  0  0
    1.0912    0.9199   -0.1107 C   0  0  0  0  0  0  0  0  0  0  0  0
    2.1750    1.9673   -0.0668 C   0  0  0  0  0  0  0  0  0  0  0  0
    4.0732    0.4784    2.2391 N   0  0  0  0  0  0  0  0  0  0  0  0
  1 18  2  0
  2  4  2  0
  2 18  1  0
  3  1  1  0
  4  3  1  0
  4 14  1  0
  5  6  1  0
  5 19  1  0
  6  7  1  0
  7  9  1  0
  9  8  1  0
  9 10  2  0
 10 13  1  0
 13 11  2  0
 13 12  2  0
 13 20  1  0
 14 16  2  3
 16 15  1  0
 16 17  1  0
 18 19  1  0
M  END
>  <DRUGBANK_ID>  (1) 
DB00927

>  <SECONDARY_ACCESSION_NUMBERS>  (1) 
APRD00296

>  <COMMON_NAME>  (1) 
Famotidine

>  <CAS_NUMBER>  (1) 
76824-35-6

>  <UNII>  (1) 
5QZO15J2Z8

>  <SYNONYMS>  (1) 
(1-Amino-3-(((2-((diaminomethylene)amino)-4-thiazolyl)methyl)thio)propylidene)sulfamide; 3-(((2-((Aminoiminomethyl)amino)-4-thiazolyl)methyl)thio)-N-(aminosulfonyl)propanimidamide; 3-(((2-((Diaminomethylene)amino)-4-thiazolyl)methyl)thio)-N(sup 2)-sulfamoylpropionamidine; Famotidina; Famotidine; Famotidinum; N-Sulfamoyl-3-((2-guanidinothiazol-4-yl)methylthio)propionamide

$$$$
