
     RDKit          3D

 18 19  0  0  1  0  0  0  0  0999 V2000
    0.6698   -2.2921    1.1709 C   0  0  0  0  0  0  0  0  0  0  0  0
    1.2251   -3.0924    5.4538 C   0  0  0  0  0  0  0  0  0  0  0  0
   -0.7948   -0.6851    2.4642 C   0  0  0  0  0  0  0  0  0  0  0  0
    0.3960   -1.4909   -0.1187 C   0  0  2  0  0  0  0  0  0  0  0  0
   -0.5357   -1.4058    4.4261 C   0  0  0  0  0  0  0  0  0  0  0  0
    1.0864   -0.1103   -0.0881 C   0  0  2  0  0  0  0  0  0  0  0  0
   -0.5480   -1.6424    5.8012 C   0  0  0  0  0  0  0  0  0  0  0  0
    0.3792   -2.1088    3.6599 C   0  0  0  0  0  0  0  0  0  0  0  0
    1.5082    0.2474   -1.5035 C   0  0  0  0  0  0  0  0  0  0  0  0
   -1.4609   -1.0114    6.6139 N   0  0  0  0  0  0  0  0  0  0  0  0
    0.3625   -2.4958    6.3133 N   0  0  0  0  0  0  0  0  0  0  0  0
    1.2974   -2.9832    4.1043 N   0  0  0  0  0  0  0  0  0  0  0  0
   -1.2915   -0.5535    3.6667 N   0  0  0  0  0  0  0  0  0  0  0  0
    0.1104   -1.7114    2.3763 N   0  0  0  0  0  0  0  0  0  0  0  0
   -0.9948   -1.4120   -0.4611 O   0  0  0  0  0  0  0  0  0  0  0  0
    2.2641   -0.1787    0.7303 O   0  0  0  0  0  0  0  0  0  0  0  0
    0.8709    0.8562   -2.3368 O   0  0  0  0  0  0  0  0  0  0  0  0
    2.7294   -0.2760   -1.7880 O   0  0  0  0  0  0  0  0  0  0  0  0
  4 15  1  1
  4  6  1  0
  4  1  1  0
  6 16  1  1
  6  9  1  0
  7  5  2  0
  8  5  1  0
 10  7  1  0
 11  2  2  0
 11  7  1  0
 12  2  1  0
 12  8  2  0
 13  3  2  0
 13  5  1  0
 14  1  1  0
 14  3  1  0
 14  8  1  0
 17  9  2  0
 18  9  1  0
M  END
>  <DRUGBANK_ID>  (1) 
DB03769

>  <SECONDARY_ACCESSION_NUMBERS>  (1) 
EXPT01152

>  <COMMON_NAME>  (1) 
D-Eritadenine

>  <CAS_NUMBER>  (1) 
23918-98-1

>  <UNII>  (1) 
41T27K4B9F

>  <SYNONYMS>  (1) 
Eritadenine; Lentinacin; Lentysine

$$$$
