7BD
     RDKit          3D

 20 22  0  0  0  0  0  0  0  0999 V2000
    1.2617   -0.5714   -0.0416 C   0  0  0  0  0  0  0  0  0  0  0  0
    0.1191   -1.5253   -0.1176 C   0  0  0  0  0  0  0  0  0  0  0  0
   -1.1232   -0.6914   -0.0504 C   0  0  0  0  0  0  0  0  0  0  0  0
   -0.7140    0.6563   -0.0465 C   0  0  0  0  0  0  0  0  0  0  0  0
    0.7295    0.7229   -0.0130 C   0  0  0  0  0  0  0  0  0  0  0  0
   -1.6490    1.6839   -0.0678 C   0  0  0  0  0  0  0  0  0  0  0  0
    1.5818    1.8145    0.0533 C   0  0  0  0  0  0  0  0  0  0  0  0
    2.6302   -0.7981   -0.0420 C   0  0  0  0  0  0  0  0  0  0  0  0
    3.4850    0.2939    0.0165 C   0  0  0  0  0  0  0  0  0  0  0  0
    2.9646    1.5909    0.0709 C   0  0  0  0  0  0  0  0  0  0  0  0
    1.5941   -4.6786   -0.0535 C   0  0  0  0  0  0  0  0  0  0  0  0
    1.0880   -5.2688    1.2517 C   0  0  0  0  0  0  0  0  0  0  0  0
   -0.3984   -5.0970    1.4702 C   0  0  0  0  0  0  0  0  0  0  0  0
   -2.4652   -1.0326    0.0298 C   0  0  0  0  0  0  0  0  0  0  0  0
   -3.4097    0.0093    0.0381 C   0  0  0  0  0  0  0  0  0  0  0  0
   -3.0057    1.3542   -0.0365 C   0  0  0  0  0  0  0  0  0  0  0  0
    0.1683   -2.8180   -0.2519 N   0  0  0  0  0  0  0  0  0  0  0  0
    1.4895   -3.2680   -0.1181 O   0  0  0  0  0  0  0  0  0  0  0  0
   -1.1112   -6.2402    1.3504 O   0  0  0  0  0  0  0  0  0  0  0  0
   -0.9466   -4.0596    1.8203 O   0  0  0  0  0  0  0  0  0  0  0  0
  1  5  2  0
  2  1  1  0
  2  3  1  0
  3  4  2  0
  4  6  1  0
  5  4  1  0
  5  7  1  0
  8  1  1  0
  8  9  2  0
  9 10  1  0
 10  7  2  0
 11 18  1  0
 12 11  1  0
 13 12  1  0
 14  3  1  0
 14 15  2  0
 15 16  1  0
 16  6  2  0
 17  2  2  3
 18 17  1  0
 19 13  1  0
 20 13  2  0
M  END
>  <DRUGBANK_ID>  (1) 
DB07240

>  <COMMON_NAME>  (1) 
3-[(9H-fluoren-9-ylideneamino)oxy]propanoic acid

$$$$
