
     RDKit          3D

 21 24  0  0  1  0  0  0  0  0999 V2000
    1.5964   -0.2164   -0.1438 C   0  0  0  0  0  0  0  0  0  0  0  0
    1.8247    4.7919   -3.2452 C   0  0  0  0  0  0  0  0  0  0  0  0
    1.6273    1.9710   -6.5095 C   0  0  0  0  0  0  0  0  0  0  0  0
    0.9217    4.4454   -2.0104 C   0  0  0  0  0  0  0  0  0  0  0  0
    0.9473    1.7200   -5.3204 C   0  0  0  0  0  0  0  0  0  0  0  0
    0.1577    0.7913   -2.6448 C   0  0  0  0  0  0  0  0  0  0  0  0
   -0.4850    0.6135   -1.2603 C   0  0  0  0  0  0  0  0  0  0  0  0
    2.4173    4.0555   -5.6025 C   0  0  0  0  0  0  0  0  0  0  0  0
   -0.2460    1.0138    1.1881 C   0  0  0  0  0  0  0  0  0  0  0  0
    1.7325    3.7992   -4.3838 C   0  0  0  0  0  0  0  0  0  0  0  0
    2.3607    3.1341   -6.6483 C   0  0  0  0  0  0  0  0  0  0  0  0
    1.0035    2.6017   -4.2295 C   0  0  0  0  0  0  0  0  0  0  0  0
    0.2449    2.2696   -2.9412 C   0  0  2  0  0  0  0  0  0  0  0  0
    0.8952    2.8697   -1.7085 C   0  0  2  0  0  0  0  0  0  0  0  0
    0.3340    2.3989   -0.2046 C   0  0  2  0  0  0  0  0  0  0  0  0
   -0.5293    1.8486    2.3334 C   0  0  2  0  0  0  0  0  0  0  0  0
    0.7014    2.1322    1.5276 C   0  0  2  0  0  0  0  0  0  0  0  0
    0.7072    1.0027   -0.1292 C   0  0  2  0  0  0  0  0  0  0  0  0
    3.0026    3.3167   -7.8383 O   0  0  0  0  0  0  0  0  0  0  0  0
   -0.0899    1.7494    3.6591 O   0  0  0  0  0  0  0  0  0  0  0  0
    1.9857    2.0022    2.1516 O   0  0  0  0  0  0  0  0  0  0  0  0
  4  2  1  0
  5  3  1  0
  7  6  1  0
 10  2  1  0
 10  8  2  0
 11  3  2  0
 11  8  1  0
 12  5  2  0
 12 10  1  0
 13  6  1  1
 13 12  1  0
 14  4  1  6
 14 13  1  0
 14 15  1  0
 15  9  1  6
 15 18  1  0
 16  9  1  0
 16 20  1  1
 17 16  1  0
 17 21  1  1
 18  1  1  6
 18  7  1  0
 18 17  1  0
 19 11  1  0
M  END
>  <DRUGBANK_ID>  (1) 
DB07702

>  <COMMON_NAME>  (1) 
17alpha-Estriol

>  <CAS_NUMBER>  (1) 
1228-72-4

>  <UNII>  (1) 
4G7IHY560Z

$$$$
