
     RDKit          3D

 20 22  0  0  0  0  0  0  0  0999 V2000
   -1.0078    1.4436   -0.0202 C   0  0  0  0  0  0  0  0  0  0  0  0
   -2.1502    0.7097   -0.0089 N   0  0  0  0  0  0  0  0  0  0  0  0
   -2.0712   -0.6313   -0.1008 C   0  0  0  0  0  0  0  0  0  0  0  0
   -0.9367   -1.3313   -0.2644 N   0  0  0  0  0  0  0  0  0  0  0  0
    0.1612   -0.5711   -0.2225 C   0  0  0  0  0  0  0  0  0  0  0  0
    0.2210    0.8065   -0.0884 C   0  0  0  0  0  0  0  0  0  0  0  0
    1.4704   -0.9670   -0.1871 N   0  0  0  0  0  0  0  0  0  0  0  0
    1.5196    1.2483   -0.0322 N   0  0  0  0  0  0  0  0  0  0  0  0
    2.2502    0.1528   -0.0744 C   0  0  0  0  0  0  0  0  0  0  0  0
   -3.2307   -1.3277    0.0214 N   0  0  0  0  0  0  0  0  0  0  0  0
    1.9600   -2.3238   -0.1207 C   0  0  0  0  0  0  0  0  0  0  0  0
    1.6582   -3.0505    1.1735 C   0  0  0  0  0  0  0  0  0  0  0  0
    2.8001   -3.8610    1.5177 O   0  0  0  0  0  0  0  0  0  0  0  0
    2.6156   -4.9699    2.3593 C   0  0  0  0  0  0  0  0  0  0  0  0
    2.8734   -4.4509    4.0522 P   0  0  0  0  0  0  0  0  0  0  0  0
    0.2455   -3.4782    1.5325 C   0  0  0  0  0  0  0  0  0  0  0  0
    0.9011   -2.3744    2.3050 C   0  0  0  0  0  0  0  0  0  0  0  0
    1.8153   -5.3921    4.8047 O   0  0  0  0  0  0  0  0  0  0  0  0
    4.3076   -5.0937    4.3657 O   0  0  0  0  0  0  0  0  0  0  0  0
    2.7968   -3.0208    4.4678 O   0  0  0  0  0  0  0  0  0  0  0  0
  1  2  2  0
  1  6  1  0
  2  3  1  0
  3  4  2  0
  3 10  1  0
  4  5  1  0
  5  6  2  0
  6  8  1  0
  7  5  1  0
  7  9  1  0
  7 11  1  0
  8  9  2  0
 11 12  1  0
 12 13  1  0
 12 17  1  0
 13 14  1  0
 14 15  1  0
 15 18  1  0
 15 19  1  0
 15 20  2  0
 16 12  1  0
 17 16  1  0
M  END
>  <DRUGBANK_ID>  (1) 
DB15671

>  <COMMON_NAME>  (1) 
Besifovir

>  <CAS_NUMBER>  (1) 
441785-25-7

>  <UNII>  (1) 
4PLG22CQUU

>  <SYNONYMS>  (1) 
Besifovir

$$$$
