
     RDKit          3D

 37 40  0  0  1  0  0  0  0  0999 V2000
    0.9139   -0.0621   -0.0140 C   0  0  0  0  0  0  0  0  0  0  0  0
    0.3866   -1.3744   -0.2928 N   0  0  0  0  0  0  0  0  0  0  0  0
   -0.8917   -1.6934   -0.8909 N   0  0  0  0  0  0  0  0  0  0  0  0
   -0.9624   -3.0088   -0.9685 C   0  0  0  0  0  0  0  0  0  0  0  0
   -2.0904   -3.8730   -1.6012 C   0  0  0  0  0  0  0  0  0  0  0  0
   -1.5800   -5.2299   -2.0665 C   0  0  0  0  0  0  0  0  0  0  0  0
   -0.6840   -6.1133   -0.8099 N   0  0  0  0  0  0  0  0  0  0  0  0
    0.9275   -4.8799   -0.5515 C   0  0  0  0  0  0  0  0  0  0  0  0
    0.3196   -3.5351   -0.4506 C   0  0  2  0  0  0  0  0  0  0  0  0
    0.3999   -4.8969   -0.1246 C   0  0  0  0  0  0  0  0  0  0  0  0
    0.8389   -5.8363   -2.0581 C   0  0  0  0  0  0  0  0  0  0  0  0
    2.0286   -5.4993   -2.6057 C   0  0  0  0  0  0  0  0  0  0  0  0
    2.3357   -6.3321   -3.6522 C   0  0  0  0  0  0  0  0  0  0  0  0
    1.5572   -7.4741   -4.0989 C   0  0  0  0  0  0  0  0  0  0  0  0
    0.3651   -7.8575   -3.5982 C   0  0  0  0  0  0  0  0  0  0  0  0
   -0.0301   -6.9843   -2.6999 C   0  0  0  0  0  0  0  0  0  0  0  0
    1.2270   -2.4640   -0.1274 C   0  0  0  0  0  0  0  0  0  0  0  0
    2.4102   -2.4949    0.1377 O   0  0  0  0  0  0  0  0  0  0  0  0
   -0.0543   -7.5484   -0.4704 C   0  0  0  0  0  0  0  0  0  0  0  0
    1.1736   -7.7969   -0.4240 O   0  0  0  0  0  0  0  0  0  0  0  0
   -0.8616   -8.7517   -0.1350 C   0  0  1  0  0  0  0  0  0  0  0  0
   -1.0611   -8.8579    1.3543 C   0  0  0  0  0  0  0  0  0  0  0  0
   -1.9307   -7.9303    2.0324 O   0  0  0  0  0  0  0  0  0  0  0  0
   -1.6050   -6.5657    1.7797 C   0  0  0  0  0  0  0  0  0  0  0  0
   -0.3298   -6.0402    2.4881 C   0  0  0  0  0  0  0  0  0  0  0  0
    0.0161   -4.6479    2.5999 C   0  0  0  0  0  0  0  0  0  0  0  0
    1.3123   -4.2228    3.0028 C   0  0  0  0  0  0  0  0  0  0  0  0
    2.1873   -5.1491    3.5383 C   0  0  0  0  0  0  0  0  0  0  0  0
    1.8184   -6.4751    3.5638 C   0  0  0  0  0  0  0  0  0  0  0  0
    0.6615   -6.9084    2.9446 C   0  0  0  0  0  0  0  0  0  0  0  0
   -1.8998   -9.2192   -0.9600 N   0  0  0  0  0  0  0  0  0  0  0  0
   -1.8812  -10.3737   -1.6945 C   0  0  0  0  0  0  0  0  0  0  0  0
   -2.9178  -10.6278   -2.3141 O   0  0  0  0  0  0  0  0  0  0  0  0
   -0.5843  -11.3077   -1.7680 C   0  0  0  0  0  0  0  0  0  0  0  0
    0.6158  -10.6585   -2.4588 C   0  0  0  0  0  0  0  0  0  0  0  0
   -0.1717  -11.8457   -0.3951 C   0  0  0  0  0  0  0  0  0  0  0  0
   -0.9099  -12.4885   -2.6020 N   0  0  0  0  0  0  0  0  0  0  0  0
  1  2  1  0
  2  3  1  0
  2 17  1  0
  3  4  2  0
  4  5  1  0
  5  6  1  0
  6  7  1  0
  7  8  1  0
  7 19  1  0
  9  8  1  0
  9  4  1  0
  9 17  1  0
  9 10  1  1
 10 11  1  0
 11 12  2  0
 11 16  1  0
 12 13  1  0
 13 14  2  0
 14 15  1  0
 15 16  2  0
 17 18  2  0
 19 20  2  0
 21 19  1  0
 21 22  1  1
 21 31  1  0
 22 23  1  0
 23 24  1  0
 24 25  1  0
 25 26  2  0
 25 30  1  0
 26 27  1  0
 27 28  2  0
 28 29  1  0
 29 30  2  0
 31 32  1  0
 32 33  2  0
 32 34  1  0
 34 35  1  0
 34 36  1  0
 34 37  1  0
M  END
>  <DRUGBANK_ID>  (1) 
DB15205

>  <COMMON_NAME>  (1) 
Capromorelin

>  <CAS_NUMBER>  (1) 
193273-66-4

>  <UNII>  (1) 
0MQ44VUN84

>  <SYNONYMS>  (1) 
Capromorelin; CP-424,391

$$$$
