
     RDKit          3D

 40 43  0  0  0  0  0  0  0  0999 V2000
    0.9369   -0.1050    0.0865 F   0  0  0  0  0  0  0  0  0  0  0  0
    2.2828   -0.1175   -0.0509 C   0  0  0  0  0  0  0  0  0  0  0  0
    2.6164   -1.0594   -0.9508 F   0  0  0  0  0  0  0  0  0  0  0  0
    2.6408    1.1021   -0.5035 F   0  0  0  0  0  0  0  0  0  0  0  0
    2.8595   -0.4330    1.2053 O   0  0  0  0  0  0  0  0  0  0  0  0
    4.2210   -0.3576    1.3454 C   0  0  0  0  0  0  0  0  0  0  0  0
    5.0699    0.5005    0.6310 C   0  0  0  0  0  0  0  0  0  0  0  0
    6.3813    0.7612    1.0916 C   0  0  0  0  0  0  0  0  0  0  0  0
    7.1236    1.9864    0.5880 C   0  0  0  0  0  0  0  0  0  0  0  0
    7.5904    2.9814    1.6702 C   0  0  0  0  0  0  0  0  0  0  0  0
    8.8086    3.1430    1.8632 O   0  0  0  0  0  0  0  0  0  0  0  0
    6.7231    3.7910    2.3636 N   0  0  0  0  0  0  0  0  0  0  0  0
    5.3302    3.7821    2.3160 C   0  0  0  0  0  0  0  0  0  0  0  0
    4.6257    4.8845    2.0308 N   0  0  0  0  0  0  0  0  0  0  0  0
    3.2533    4.7800    1.8049 N   0  0  0  0  0  0  0  0  0  0  0  0
    2.6210    3.5906    1.9313 C   0  0  0  0  0  0  0  0  0  0  0  0
    1.1253    3.4438    1.8408 C   0  0  0  0  0  0  0  0  0  0  0  0
    0.5012    4.0407    3.1013 C   0  0  0  0  0  0  0  0  0  0  0  0
    0.7461    5.5606    3.2045 C   0  0  0  0  0  0  0  0  0  0  0  0
    0.3388    6.3479    1.9376 C   0  0  0  0  0  0  0  0  0  0  0  0
   -1.1335    6.2347    1.7420 C   0  0  0  0  0  0  0  0  0  0  0  0
   -1.7277    5.0650    1.6932 N   0  0  0  0  0  0  0  0  0  0  0  0
   -3.0616    5.1752    1.8853 N   0  0  0  0  0  0  0  0  0  0  0  0
   -3.4807    6.3984    1.6932 C   0  0  0  0  0  0  0  0  0  0  0  0
   -4.7757    6.8067    1.5207 N   0  0  0  0  0  0  0  0  0  0  0  0
   -5.8121    5.9315    1.2987 C   0  0  0  0  0  0  0  0  0  0  0  0
   -6.9610    6.3928    1.1732 O   0  0  0  0  0  0  0  0  0  0  0  0
   -5.5858    4.4243    1.2246 C   0  0  0  0  0  0  0  0  0  0  0  0
   -4.7726    4.0047    0.0157 C   0  0  0  0  0  0  0  0  0  0  0  0
   -4.1571    4.9818   -0.7027 N   0  0  0  0  0  0  0  0  0  0  0  0
   -3.2312    4.6244   -1.6098 C   0  0  0  0  0  0  0  0  0  0  0  0
   -2.9711    3.3130   -1.9427 C   0  0  0  0  0  0  0  0  0  0  0  0
   -3.6704    2.3158   -1.2704 C   0  0  0  0  0  0  0  0  0  0  0  0
   -4.5589    2.6581   -0.2522 C   0  0  0  0  0  0  0  0  0  0  0  0
   -2.2277    7.5626    1.6558 S   0  0  0  0  0  0  0  0  0  0  0  0
    3.3142    2.5008    2.3594 C   0  0  0  0  0  0  0  0  0  0  0  0
    4.6639    2.6246    2.6077 C   0  0  0  0  0  0  0  0  0  0  0  0
    6.8842    0.0350    2.1781 C   0  0  0  0  0  0  0  0  0  0  0  0
    6.0349   -0.8055    2.8999 C   0  0  0  0  0  0  0  0  0  0  0  0
    4.7120   -0.9970    2.4894 C   0  0  0  0  0  0  0  0  0  0  0  0
  1  2  1  0
  2  3  1  0
  2  4  1  0
  2  5  1  0
  5  6  1  0
  6  7  2  0
  6 40  1  0
  7  8  1  0
  8  9  1  0
  8 38  2  0
  9 10  1  0
 10 11  2  0
 10 12  1  0
 12 13  1  0
 13 14  2  0
 13 37  1  0
 14 15  1  0
 15 16  2  0
 16 17  1  0
 16 36  1  0
 17 18  1  0
 18 19  1  0
 19 20  1  0
 20 21  1  0
 21 22  2  0
 21 35  1  0
 22 23  1  0
 23 24  2  0
 24 25  1  0
 24 35  1  0
 25 26  1  0
 26 27  2  0
 26 28  1  0
 28 29  1  0
 29 30  2  0
 29 34  1  0
 30 31  1  0
 31 32  2  0
 32 33  1  0
 33 34  2  0
 36 37  2  0
 38 39  1  0
 39 40  2  0
M  END
>  <DRUGBANK_ID>  (1) 
DB15232

>  <COMMON_NAME>  (1) 
Telaglenastat

>  <CAS_NUMBER>  (1) 
1439399-58-2

>  <UNII>  (1) 
U6CL98GLP4

>  <SYNONYMS>  (1) 
Telaglenastat

$$$$
