
     RDKit          3D

 15 15  0  0  0  0  0  0  0  0999 V2000
    0.9904    0.0149   -0.0012 C   0  0  0  0  0  0  0  0  0  0  0  0
    0.4497    1.4436    0.1934 C   0  0  0  0  0  0  0  0  0  0  0  0
   -1.1046    1.4358    0.3064 C   0  0  0  0  0  0  0  0  0  0  0  0
   -1.6138    0.6476    1.3705 O   0  0  0  0  0  0  0  0  0  0  0  0
    0.7199    2.2676   -1.0862 C   0  0  0  0  0  0  0  0  0  0  0  0
    1.0023    1.9972    1.4492 N   0  0  0  0  0  0  0  0  0  0  0  0
    2.4618    2.0615    1.5942 C   0  0  0  0  0  0  0  0  0  0  0  0
    3.1398    2.9896    0.5710 C   0  0  0  0  0  0  0  0  0  0  0  0
    2.5979    4.3078    0.6900 O   0  0  0  0  0  0  0  0  0  0  0  0
    4.6290    2.9735    0.6077 C   0  0  0  0  0  0  0  0  0  0  0  0
    5.3406    4.1752    0.5666 C   0  0  0  0  0  0  0  0  0  0  0  0
    6.7163    4.1590    0.6149 C   0  0  0  0  0  0  0  0  0  0  0  0
    7.3989    2.9433    0.6922 C   0  0  0  0  0  0  0  0  0  0  0  0
    6.6975    1.7354    0.6569 C   0  0  0  0  0  0  0  0  0  0  0  0
    5.3217    1.7520    0.5632 C   0  0  0  0  0  0  0  0  0  0  0  0
  1  2  1  0
  2  5  1  0
  2  3  1  0
  2  6  1  0
  3  4  1  0
  6  7  1  0
  7  8  1  0
  8  9  1  0
  8 10  1  0
 10 11  2  0
 11 12  1  0
 12 13  2  0
 13 14  1  0
 14 15  2  0
 15 10  1  0
M  END
>  <DRUGBANK_ID>  (1) 
DB15902

>  <COMMON_NAME>  (1) 
Fepradinol

>  <CAS_NUMBER>  (1) 
36981-91-6

>  <UNII>  (1) 
860MHI4WBA

>  <SYNONYMS>  (1) 
Fepradinol; Fepradinolum

$$$$
