
     RDKit          3D

 22 24  0  0  0  0  0  0  0  0999 V2000
    0.8884    1.3635    0.7495 C   0  0  0  0  0  0  0  0  0  0  0  0
    0.9271    1.3779   -0.7905 C   0  0  0  0  0  0  0  0  0  0  0  0
    0.4253   -1.0430   -1.2821 C   0  0  0  0  0  0  0  0  0  0  0  0
   -1.0603    0.5814   -0.0684 N   0  0  0  0  0  0  0  0  0  0  0  0
   -2.3061   -0.1361   -0.2176 C   0  0  0  0  0  0  0  0  0  0  0  0
    1.0446   -1.5712    0.0375 C   0  0  1  0  0  0  0  0  0  0  0  0
    0.3235   -1.0868    1.3182 C   0  0  2  0  0  0  0  0  0  0  0  0
   -0.4235   -2.8744    2.8261 O   0  0  0  0  0  0  0  0  0  0  0  0
   -0.6802   -2.1072    1.9087 C   0  0  0  0  0  0  0  0  0  0  0  0
   -1.8310   -2.1207    1.2227 O   0  0  0  0  0  0  0  0  0  0  0  0
   -2.7907   -3.1895    1.1445 C   0  0  0  0  0  0  0  0  0  0  0  0
    1.3121   -2.9992    0.0728 O   0  0  0  0  0  0  0  0  0  0  0  0
   -0.7848   -3.4422   -0.7619 O   0  0  0  0  0  0  0  0  0  0  0  0
    0.2845   -3.8023   -0.2722 C   0  0  0  0  0  0  0  0  0  0  0  0
    0.4416   -5.2253   -0.0129 C   0  0  0  0  0  0  0  0  0  0  0  0
   -0.4235   -7.4237   -0.5347 C   0  0  0  0  0  0  0  0  0  0  0  0
    0.5027   -7.9652    0.3490 C   0  0  0  0  0  0  0  0  0  0  0  0
    1.3389   -7.1345    1.1080 C   0  0  0  0  0  0  0  0  0  0  0  0
    1.2945   -5.7495    0.9513 C   0  0  0  0  0  0  0  0  0  0  0  0
   -0.4294   -6.0575   -0.7376 C   0  0  0  0  0  0  0  0  0  0  0  0
   -0.2334    0.3526    1.1275 C   0  0  1  0  0  0  0  0  0  0  0  0
   -0.1426    0.3819   -1.1904 C   0  0  1  0  0  0  0  0  0  0  0  0
  1  2  1  0
 22  2  1  1
  3  6  1  0
  4  5  1  0
  6  7  1  0
  6 12  1  6
  7 21  1  0
  7  9  1  6
  9  8  2  0
  9 10  1  0
 10 11  1  0
 12 14  1  0
 14 13  2  0
 14 15  1  0
 15 20  2  0
 16 17  2  0
 17 18  1  0
 18 19  2  0
 19 15  1  0
 20 16  1  0
 21  1  1  6
 21  4  1  0
 22  3  1  0
 22  4  1  0
M  END
>  <DRUGBANK_ID>  (1) 
DB00907

>  <SECONDARY_ACCESSION_NUMBERS>  (1) 
APRD00080

>  <COMMON_NAME>  (1) 
Cocaine

>  <CAS_NUMBER>  (1) 
50-36-2

>  <UNII>  (1) 
I5Y540LHVR

>  <SYNONYMS>  (1) 
(-)-Cocaine; (−)-cocaine; [1R-(exo,exo)]-3-(benzoyloxy)-8-methyl-8-azabicyclo[3.2.1]octane-2-carboxylic acid, methyl ester; 2-methyl-3β-hydroxy-1αH,5αH-tropane-2β-carboxylate benzoate (ester); Benzoylmethylecgonine; beta-Cocain; Cocain; Cocaina; Cocaine; Cocainum; Kokain; L-Cocain; L-Cocaine; methyl [1R-(exo,exo)]-3-(benzoyloxy)-8-methyl-8-azabicyclo[3.2.1]octane-2-carboxylate; Methyl benzoylecgonine; Neurocaine

$$$$
