
     RDKit          3D

 28 31  0  0  0  0  0  0  0  0999 V2000
   -0.0969    0.7198   -0.1015 C   0  0  0  0  0  0  0  0  0  0  0  0
   -0.0924   -0.6813   -0.0370 C   0  0  0  0  0  0  0  0  0  0  0  0
    2.4572   -0.7447   -0.0258 C   0  0  0  0  0  0  0  0  0  0  0  0
    1.1996    1.3708   -0.1626 N   0  0  0  0  0  0  0  0  0  0  0  0
   -1.2903    1.4319   -0.1088 N   0  0  0  0  0  0  0  0  0  0  0  0
   -3.6843    1.4853    0.0091 N   0  0  0  0  0  0  0  0  0  0  0  0
    1.1686   -1.4678   -0.0239 C   0  0  0  0  0  0  0  0  0  0  0  0
   -2.4940    0.7732   -0.0305 C   0  0  0  0  0  0  0  0  0  0  0  0
    2.3574    0.5932   -0.0703 C   0  0  0  0  0  0  0  0  0  0  0  0
   -5.6801    2.4018   -0.8407 C   0  0  0  0  0  0  0  0  0  0  0  0
   -1.3044   -1.3604    0.0120 C   0  0  0  0  0  0  0  0  0  0  0  0
    1.2803    2.8440    0.0635 C   0  0  0  0  0  0  0  0  0  0  0  0
   -6.0677    1.3949    0.2396 C   0  0  0  0  0  0  0  0  0  0  0  0
    3.7613   -1.4505    0.0082 C   0  0  0  0  0  0  0  0  0  0  0  0
   -2.4922   -0.6337    0.0252 C   0  0  0  0  0  0  0  0  0  0  0  0
   -4.1525    2.4118   -1.0383 C   0  0  0  0  0  0  0  0  0  0  0  0
   -4.7375    1.2937    1.0131 C   0  0  0  0  0  0  0  0  0  0  0  0
    1.7158    3.9336   -0.8870 C   0  0  0  0  0  0  0  0  0  0  0  0
    2.6384    3.5182    0.2092 C   0  0  0  0  0  0  0  0  0  0  0  0
   -6.5922    3.0866   -1.4812 N   0  0  0  0  0  0  0  0  0  0  0  0
    1.1137   -2.6927    0.0019 O   0  0  0  0  0  0  0  0  0  0  0  0
    3.9438   -2.6613    0.0179 O   0  0  0  0  0  0  0  0  0  0  0  0
   -3.6426   -1.3260    0.0410 F   0  0  0  0  0  0  0  0  0  0  0  0
    4.8351   -0.6349    0.0081 O   0  0  0  0  0  0  0  0  0  0  0  0
   -7.2600    1.7977    1.1102 C   0  0  0  0  0  0  0  0  0  0  0  0
   -8.4999    1.8189    0.3302 N   0  0  0  0  0  0  0  0  0  0  0  0
   -6.0525    3.9392   -2.4594 O   0  0  0  0  0  0  0  0  0  0  0  0
   -7.1127    4.6476   -3.1232 C   0  0  0  0  0  0  0  0  0  0  0  0
  2  1  2  0
  3  9  2  0
  4  1  1  0
  5  1  1  0
  6  8  1  0
  7  2  1  0
  7  3  1  0
  8  5  2  0
  9  4  1  0
 10 16  1  0
 11  2  1  0
 11 15  2  0
 12  4  1  0
 13 17  1  0
 13 10  1  0
 14  3  1  0
 15  8  1  0
 16  6  1  0
 17  6  1  0
 18 12  1  0
 19 12  1  0
 19 18  1  0
 20 10  2  0
 20 27  1  0
 21  7  2  0
 22 14  2  0
 23 15  1  0
 24 14  1  0
 25 13  1  0
 26 25  1  0
 27 28  1  0
M  END
>  <DRUGBANK_ID>  (1) 
DB01155

>  <SECONDARY_ACCESSION_NUMBERS>  (1) 
APRD00053

>  <COMMON_NAME>  (1) 
Gemifloxacin

>  <CAS_NUMBER>  (1) 
175463-14-6

>  <UNII>  (1) 
OKR68Y0E4T

>  <SYNONYMS>  (1) 
Gemifloxacin

$$$$
