
     RDKit          3D

 23 25  0  0  0  0  0  0  0  0999 V2000
    0.0234   -1.2550    0.6328 N   0  0  0  0  0  0  0  0  0  0  0  0
    1.2858   -0.7087    0.3051 C   0  0  0  0  0  0  0  0  0  0  0  0
   -1.1161   -0.6984    0.0168 C   0  0  0  0  0  0  0  0  0  0  0  0
    0.0866   -2.0641    1.9316 C   0  0  0  0  0  0  0  0  0  0  0  0
    1.4134    0.6759    0.0685 C   0  0  0  0  0  0  0  0  0  0  0  0
    2.3676   -1.5645    0.0559 C   0  0  0  0  0  0  0  0  0  0  0  0
   -1.2995    0.7014   -0.0408 C   0  0  0  0  0  0  0  0  0  0  0  0
   -2.0867   -1.4491   -0.6642 C   0  0  0  0  0  0  0  0  0  0  0  0
   -0.8099   -1.6596    3.1752 C   0  0  0  0  0  0  0  0  0  0  0  0
    0.0467    1.7871    0.4145 S   0  0  0  0  0  0  0  0  0  0  0  0
    2.5970    1.1714   -0.4590 C   0  0  0  0  0  0  0  0  0  0  0  0
    3.5449   -1.0625   -0.4739 C   0  0  0  0  0  0  0  0  0  0  0  0
   -2.5139    1.2440   -0.4815 C   0  0  0  0  0  0  0  0  0  0  0  0
   -3.3525   -0.9450   -0.9516 C   0  0  0  0  0  0  0  0  0  0  0  0
   -2.2991   -1.3817    2.8287 C   0  0  0  0  0  0  0  0  0  0  0  0
   -0.6679   -2.5790    4.3912 N   0  0  0  0  0  0  0  0  0  0  0  0
    3.6542    0.3043   -0.7453 C   0  0  0  0  0  0  0  0  0  0  0  0
   -3.5774    0.4255   -0.8467 C   0  0  0  0  0  0  0  0  0  0  0  0
   -3.1320   -2.5687    2.5094 N   0  0  0  0  0  0  0  0  0  0  0  0
   -1.3583   -2.0083    5.5618 C   0  0  0  0  0  0  0  0  0  0  0  0
   -1.2072   -3.9338    4.2093 C   0  0  0  0  0  0  0  0  0  0  0  0
   -4.4700   -2.1632    2.1288 C   0  0  0  0  0  0  0  0  0  0  0  0
   -2.5556   -3.4574    1.5155 C   0  0  0  0  0  0  0  0  0  0  0  0
  1  2  1  0
  1  3  1  0
  1  4  1  0
  2  5  2  0
  2  6  1  0
  3  8  2  0
  3  7  1  0
  4  9  1  0
  5 10  1  0
  5 11  1  0
  6 12  2  0
  7 13  2  0
  7 10  1  0
  8 14  1  0
  9 15  1  0
  9 16  1  0
 11 17  2  0
 12 17  1  0
 13 18  1  0
 14 18  2  0
 15 19  1  0
 16 20  1  0
 16 21  1  0
 19 22  1  0
 19 23  1  0
M  END
>  <DRUGBANK_ID>  (1) 
DB15596

>  <COMMON_NAME>  (1) 
Aminopromazine

>  <CAS_NUMBER>  (1) 
58-37-7

>  <UNII>  (1) 
S9SDD93U5U

>  <SYNONYMS>  (1) 
Aminopromazina; Aminopromazine; Aminopromazinum; Proquamezine

$$$$
