
     RDKit          3D

 18 20  0  0  0  0  0  0  0  0999 V2000
   -4.2825    1.0267    4.7482 C   0  0  0  0  0  0  0  0  0  0  0  0
   -4.5439    1.1581    5.9623 O   0  0  0  0  0  0  0  0  0  0  0  0
   -4.1198   -0.1883    4.1922 N   0  0  0  0  0  0  0  0  0  0  0  0
   -4.1438    2.1952    3.8497 C   0  0  0  0  0  0  0  0  0  0  0  0
   -3.8532    2.0346    2.5502 C   0  0  0  0  0  0  0  0  0  0  0  0
   -3.6878    0.7151    2.0139 C   0  0  0  0  0  0  0  0  0  0  0  0
   -3.8547   -0.3550    2.8693 C   0  0  0  0  0  0  0  0  0  0  0  0
   -3.6834   -1.7984    2.4811 C   0  0  0  0  0  0  0  0  0  0  0  0
   -2.7992   -1.6813    1.2849 C   0  0  2  0  0  0  0  0  0  0  0  0
   -1.4079   -0.8641    1.7190 C   0  0  0  0  0  0  0  0  0  0  0  0
   -6.1420   -0.4976    0.0385 C   0  0  0  0  0  0  0  0  0  0  0  0
   -4.9271   -1.3856   -0.0460 C   0  0  0  0  0  0  0  0  0  0  0  0
   -3.6919   -0.9006    0.2603 C   0  0  0  0  0  0  0  0  0  0  0  0
   -3.3451    0.5588    0.4550 C   0  0  1  0  0  0  0  0  0  0  0  0
   -4.1435    1.4797   -0.3774 N   0  0  0  0  0  0  0  0  0  0  0  0
   -1.7900    0.7410    0.0431 C   0  0  0  0  0  0  0  0  0  0  0  0
   -0.8742   -0.4189    0.5775 C   0  0  0  0  0  0  0  0  0  0  0  0
   -0.5539   -1.7447   -0.1066 C   0  0  0  0  0  0  0  0  0  0  0  0
  1  3  1  0
  1  4  1  0
  1  2  2  0
  3  7  1  0
  4  5  2  0
  5  6  1  0
  6  7  2  0
  6 14  1  0
  7  8  1  0
  9  8  1  1
  9 10  1  0
  9 13  1  0
 10 17  2  0
 11 12  1  0
 12 13  2  0
 13 14  1  0
 14 16  1  0
 14 15  1  6
 16 17  1  0
 17 18  1  0
M  END
>  <DRUGBANK_ID>  (1) 
DB04864

>  <SECONDARY_ACCESSION_NUMBERS>  (1) 
EXPT01795; DB01928; DB05510

>  <COMMON_NAME>  (1) 
Huperzine A

>  <CAS_NUMBER>  (1) 
102518-79-6

>  <UNII>  (1) 
0111871I23

>  <SYNONYMS>  (1) 
(-)-Huperzine A; (âˆ’)-huperazine A; (âˆ’)-selagine; Huperzine-A; L-huperzine A; Selagine

$$$$
