JNO
     RDKit          3D

 27 30  0  0  0  0  0  0  0  0999 V2000
    0.7481   -0.0889   -0.3634 C   0  0  0  0  0  0  0  0  0  0  0  0
    0.2210   -1.3490    0.1074 N   0  0  0  0  0  0  0  0  0  0  0  0
   -0.4540   -1.5837    1.2801 C   0  0  0  0  0  0  0  0  0  0  0  0
   -0.8053   -2.7478    1.5334 O   0  0  0  0  0  0  0  0  0  0  0  0
   -0.7372   -0.4279    2.2644 C   0  0  0  0  0  0  0  0  0  0  0  0
    0.4770    0.1865    2.8750 N   0  0  0  0  0  0  0  0  0  0  0  0
    1.6967   -0.5964    2.6803 C   0  0  0  0  0  0  0  0  0  0  0  0
    2.9546    0.0183    3.2642 C   0  0  0  0  0  0  0  0  0  0  0  0
    3.1057    1.4808    2.8271 C   0  0  0  0  0  0  0  0  0  0  0  0
    1.8365    2.2562    3.1832 C   0  0  0  0  0  0  0  0  0  0  0  0
    0.5923    1.6184    2.5922 C   0  0  0  0  0  0  0  0  0  0  0  0
    4.2145    2.1103    3.5385 N   0  0  0  0  0  0  0  0  0  0  0  0
    5.3261    2.4862    2.8138 C   0  0  0  0  0  0  0  0  0  0  0  0
    6.5281    1.9704    3.1305 N   0  0  0  0  0  0  0  0  0  0  0  0
    7.6047    2.4772    2.4806 C   0  0  0  0  0  0  0  0  0  0  0  0
    7.5165    3.5052    1.5701 C   0  0  0  0  0  0  0  0  0  0  0  0
    6.2524    3.9794    1.3413 C   0  0  0  0  0  0  0  0  0  0  0  0
    5.1530    3.4669    1.9167 N   0  0  0  0  0  0  0  0  0  0  0  0
    8.8865    1.8271    2.7430 C   0  0  0  0  0  0  0  0  0  0  0  0
   10.0435    2.4361    3.2181 N   0  0  0  0  0  0  0  0  0  0  0  0
   10.2935    3.7579    3.6093 C   0  0  0  0  0  0  0  0  0  0  0  0
   11.5129    4.0996    4.0644 C   0  0  0  0  0  0  0  0  0  0  0  0
   12.5480    3.0825    4.1491 C   0  0  0  0  0  0  0  0  0  0  0  0
   12.3160    1.8152    3.7591 C   0  0  0  0  0  0  0  0  0  0  0  0
   11.0308    1.4473    3.2637 C   0  0  0  0  0  0  0  0  0  0  0  0
   10.5840    0.2937    2.8210 N   0  0  0  0  0  0  0  0  0  0  0  0
    9.2665    0.5151    2.5127 C   0  0  0  0  0  0  0  0  0  0  0  0
  1  2  1  0
  2  3  1  0
  3  4  2  0
  3  5  1  0
  5  6  1  0
  6  7  1  0
  6 11  1  0
  7  8  1  0
  8  9  1  0
  9 10  1  0
  9 12  1  0
 10 11  1  0
 12 13  1  0
 13 14  2  0
 13 18  1  0
 14 15  1  0
 15 16  2  0
 15 19  1  0
 16 17  1  0
 17 18  2  0
 19 20  1  0
 19 27  2  0
 20 21  1  0
 20 25  1  0
 21 22  2  0
 22 23  1  0
 23 24  2  0
 24 25  1  0
 25 26  2  0
 26 27  1  0
M  END
>  <DRUGBANK_ID>  (1) 
DB08026

>  <COMMON_NAME>  (1) 
2-{4-[(4-imidazo[1,2-a]pyridin-3-ylpyrimidin-2-yl)amino]piperidin-1-yl}-N-methylacetamide

$$$$
