
     RDKit          3D

 22 22  0  0  0  0  0  0  0  0999 V2000
    0.8627   -0.0741   -0.0930 F   0  0  0  0  0  0  0  0  0  0  0  0
    4.1628    1.1786    0.5985 O   0  0  0  0  0  0  0  0  0  0  0  0
    2.2555   -1.6930    1.6861 O   0  0  0  0  0  0  0  0  0  0  0  0
    2.4228    2.3636   -0.2066 O   0  0  0  0  0  0  0  0  0  0  0  0
    5.3119    1.0965    3.2989 O   0  0  0  0  0  0  0  0  0  0  0  0
    5.3325   -1.0415    4.8093 O   0  0  0  0  0  0  0  0  0  0  0  0
    1.1414    0.5871    2.3744 O   0  0  0  0  0  0  0  0  0  0  0  0
    7.5302   -0.7803    2.5855 O   0  0  0  0  0  0  0  0  0  0  0  0
    2.5417    2.2893    2.7841 O   0  0  0  0  0  0  0  0  0  0  0  0
    6.0338   -2.3997   -2.5457 O   0  0  0  0  0  0  0  0  0  0  0  0
    4.8951   -1.4190   -0.8805 N   0  0  0  0  0  0  0  0  0  0  0  0
    4.2998   -1.2878    0.4540 C   0  0  1  0  0  0  0  0  0  0  0  0
    4.7792    0.0029    1.1577 C   0  0  2  0  0  0  0  0  0  0  0  0
    2.7770   -1.3335    0.4004 C   0  0  2  0  0  0  0  0  0  0  0  0
    2.2228   -0.0227   -0.1567 C   0  0  2  0  0  0  0  0  0  0  0  0
    2.7431    1.2156    0.5813 C   0  0  1  0  0  0  0  0  0  0  0  0
    4.6849   -0.0494    2.7175 C   0  0  1  0  0  0  0  0  0  0  0  0
    5.2351   -1.3064    3.4023 C   0  0  1  0  0  0  0  0  0  0  0  0
    2.1082    1.4481    1.9875 C   0  0  0  0  0  0  0  0  0  0  0  0
    6.5805   -1.7940    2.8655 C   0  0  0  0  0  0  0  0  0  0  0  0
    5.6432   -2.4490   -1.3734 C   0  0  0  0  0  0  0  0  0  0  0  0
    5.9933   -3.5998   -0.4754 C   0  0  0  0  0  0  0  0  0  0  0  0
 13  2  1  6
  2 16  1  0
  7 19  1  0
  8 20  1  0
  9 19  2  0
 10 21  2  0
 11 21  1  0
 12 11  1  6
 12 13  1  0
 12 14  1  0
 13 17  1  0
 14 15  1  0
 14  3  1  1
 15  1  1  1
 15 16  1  0
 16 19  1  0
 16  4  1  6
 17 18  1  0
 17  5  1  1
 18 20  1  0
 18  6  1  1
 21 22  1  0
M  END
>  <DRUGBANK_ID>  (1) 
DB04211

>  <SECONDARY_ACCESSION_NUMBERS>  (1) 
EXPT01499

>  <COMMON_NAME>  (1) 
5-(acetylamino)-3,5-dideoxy-3-fluoro-D-erythro-alpha-L-manno-non-2-ulopyranosonic acid

$$$$
