
     RDKit          3D

 21 21  0  0  1  0  0  0  0  0999 V2000
    0.0929    6.2950   -0.6333 C   0  0  0  0  0  0  0  0  0  0  0  0
    0.7183    5.1704    0.1589 C   0  0  0  0  0  0  0  0  0  0  0  0
   -0.2592    4.4059    1.0655 C   0  0  0  0  0  0  0  0  0  0  0  0
   -1.4695    3.8172    0.3328 C   0  0  0  0  0  0  0  0  0  0  0  0
   -1.1497    2.7476   -0.7448 C   0  0  2  0  0  0  0  0  0  0  0  0
    0.3299    2.4904   -0.9817 C   0  0  0  0  0  0  0  0  0  0  0  0
    1.1278    2.7308   -2.0488 C   0  0  0  0  0  0  0  0  0  0  0  0
    0.5996    3.0821   -3.4152 C   0  0  0  0  0  0  0  0  0  0  0  0
    2.6061    2.8097   -1.9196 C   0  0  0  0  0  0  0  0  0  0  0  0
    3.3415    2.7611   -0.7858 C   0  0  0  0  0  0  0  0  0  0  0  0
    4.7919    2.8028   -0.7726 C   0  0  0  0  0  0  0  0  0  0  0  0
    5.5716    2.7444    0.3235 C   0  0  0  0  0  0  0  0  0  0  0  0
    7.0769    2.6891    0.3210 C   0  0  0  0  0  0  0  0  0  0  0  0
    7.6678    2.4401    1.3709 O   0  0  0  0  0  0  0  0  0  0  0  0
    7.7210    2.8588   -0.8870 N   0  0  0  0  0  0  0  0  0  0  0  0
    8.9465    2.1621   -1.2240 C   0  0  0  0  0  0  0  0  0  0  0  0
    9.5542    2.9628   -2.3628 C   0  0  0  0  0  0  0  0  0  0  0  0
    8.3690    3.6804   -2.9765 C   0  0  0  0  0  0  0  0  0  0  0  0
    7.4928    3.9031   -1.7838 C   0  0  0  0  0  0  0  0  0  0  0  0
    6.6834    4.8219   -1.6911 O   0  0  0  0  0  0  0  0  0  0  0  0
   -1.8393    3.1900   -1.9031 O   0  0  0  0  0  0  0  0  0  0  0  0
  1  2  1  0
  2  3  1  0
  3  4  1  0
  5 21  1  6
  5  6  1  0
  5  4  1  0
  6  7  2  0
  7  8  1  0
  7  9  1  0
  9 10  2  0
 10 11  1  0
 11 12  2  0
 12 13  1  0
 13 14  2  0
 13 15  1  0
 15 16  1  0
 15 19  1  0
 16 17  1  0
 17 18  1  0
 18 19  1  0
 19 20  2  0
M  END
>  <DRUGBANK_ID>  (1) 
DB13459

>  <COMMON_NAME>  (1) 
Pecilocin

>  <CAS_NUMBER>  (1) 
19504-77-9

>  <UNII>  (1) 
TSA7W27MF8

>  <SYNONYMS>  (1) 
Pecilocin

$$$$
