
     RDKit          3D

 35 37  0  0  0  0  0  0  0  0999 V2000
    1.0528   -0.0799    0.0288 H   0  0  0  0  0  0  0  0  0  0  0  0
    2.1228   -0.0799    0.0288 C   0  0  0  0  0  0  0  0  0  0  0  0
    2.4795    0.9280   -0.0134 H   0  0  0  0  0  0  0  0  0  0  0  0
    2.4795   -0.5474    0.9227 H   0  0  0  0  0  0  0  0  0  0  0  0
    2.6128   -0.8224   -1.1415 N   0  0  0  0  0  0  0  0  0  0  0  0
    1.6576   -1.4210   -2.0849 C   0  0  0  0  0  0  0  0  0  0  0  0
    2.0812   -2.0630   -3.0967 O   0  0  0  0  0  0  0  0  0  0  0  0
    0.1632   -1.2722   -1.8504 C   0  0  0  0  0  0  0  0  0  0  0  0
   -0.3333   -0.0333   -1.4959 C   0  0  0  0  0  0  0  0  0  0  0  0
   -1.7015    0.1156   -1.2554 C   0  0  0  0  0  0  0  0  0  0  0  0
   -2.2484    1.3683   -0.8709 O   0  0  0  0  0  0  0  0  0  0  0  0
   -1.4009    2.4982   -0.7244 C   0  0  0  0  0  0  0  0  0  0  0  0
   -0.6991    2.9265   -1.7671 C   0  0  0  0  0  0  0  0  0  0  0  0
    0.0076    4.1029   -1.6989 C   0  0  0  0  0  0  0  0  0  0  0  0
    0.0807    4.8127   -0.5326 C   0  0  0  0  0  0  0  0  0  0  0  0
    0.9672    5.9763   -0.3883 N   0  0  0  0  0  0  0  0  0  0  0  0
    1.0146    6.7110    0.8840 C   0  0  0  0  0  0  0  0  0  0  0  0
    1.7811    7.7170    1.0088 O   0  0  0  0  0  0  0  0  0  0  0  0
    0.1754    6.2820    2.0121 N   0  0  0  0  0  0  0  0  0  0  0  0
   -0.7111    5.1183    1.8679 C   0  0  0  0  0  0  0  0  0  0  0  0
   -0.2501    4.0135    1.2934 C   0  0  0  0  0  0  0  0  0  0  0  0
   -1.0026    2.8638    1.2840 C   0  0  0  0  0  0  0  0  0  0  0  0
   -2.2759    2.8527    1.7822 C   0  0  0  0  0  0  0  0  0  0  0  0
   -3.3441    1.4414    1.5944 Cl  0  0  0  0  0  0  0  0  0  0  0  0
   -2.6705    3.9454    2.4101 C   0  0  0  0  0  0  0  0  0  0  0  0
   -2.0129    5.1960    2.3348 C   0  0  0  0  0  0  0  0  0  0  0  0
   -3.9179    3.8533    3.2738 C   0  0  0  0  0  0  0  0  0  0  0  0
   -3.6108    4.1620    4.5305 F   0  0  0  0  0  0  0  0  0  0  0  0
   -4.8351    4.7028    2.8200 F   0  0  0  0  0  0  0  0  0  0  0  0
   -4.3992    2.6143    3.2266 F   0  0  0  0  0  0  0  0  0  0  0  0
   -0.6880    4.3966    0.4573 C   0  0  0  0  0  0  0  0  0  0  0  0
   -1.3216    3.1323    0.5045 C   0  0  0  0  0  0  0  0  0  0  0  0
   -2.5078   -1.0056   -1.4060 C   0  0  0  0  0  0  0  0  0  0  0  0
   -1.9339   -2.1971   -1.7862 C   0  0  0  0  0  0  0  0  0  0  0  0
   -0.6229   -2.3503   -1.9967 N   0  0  0  0  0  0  0  0  0  0  0  0
  1  2  1  0
  2  3  1  0
  2  4  1  0
  2  5  1  0
  5  6  1  0
  6  7  2  0
  6  8  1  0
  8  9  2  0
  8 35  1  0
  9 10  1  0
 10 11  1  0
 10 33  2  0
 11 12  1  0
 12 13  2  0
 12 32  1  0
 13 14  1  0
 14 15  2  0
 15 16  1  0
 15 31  1  0
 16 17  1  0
 17 18  2  0
 17 19  1  0
 19 20  1  0
 20 21  2  0
 20 26  1  0
 21 22  1  0
 22 23  2  0
 23 24  1  0
 23 25  1  0
 25 26  2  0
 25 27  1  0
 27 28  1  0
 27 29  1  0
 27 30  1  0
 31 32  2  0
 33 34  1  0
 34 35  2  0
M  ISO  3   1   2   3   2   4   2
M  END
>  <DRUGBANK_ID>  (1) 
DB15414

>  <COMMON_NAME>  (1) 
CM-4307

>  <CAS_NUMBER>  (1) 
1130115-44-4

>  <UNII>  (1) 
41XGO0VS1U

>  <SYNONYMS>  (1) 
DONAFENIB

$$$$
