
     RDKit          3D

 40 44  0  0  0  0  0  0  0  0999 V2000
    1.7420   -0.5066    0.1516 C   0  0  0  0  0  0  0  0  0  0  0  0
    0.7512   -1.6997    0.1836 C   0  0  0  0  0  0  0  0  0  0  0  0
   -0.5425   -1.6125    0.7393 C   0  0  0  0  0  0  0  0  0  0  0  0
   -0.5072   -0.4016    1.4317 C   0  0  0  0  0  0  0  0  0  0  0  0
    0.4386    0.7482    1.5339 C   0  0  0  0  0  0  0  0  0  0  0  0
    1.4749    0.8134    0.6514 C   0  0  0  0  0  0  0  0  0  0  0  0
   -1.8842   -2.2664    0.1002 N   0  0  0  0  0  0  0  0  0  0  0  0
   -3.4734   -2.0442   -0.2060 C   0  0  0  0  0  0  0  0  0  0  0  0
   -4.3458   -2.8160   -1.0316 C   0  0  0  0  0  0  0  0  0  0  0  0
   -4.3128   -0.7753    0.0623 C   0  0  0  0  0  0  0  0  0  0  0  0
   -4.4045    0.1187   -1.0146 C   0  0  0  0  0  0  0  0  0  0  0  0
   -5.0908    1.3886   -0.9660 C   0  0  0  0  0  0  0  0  0  0  0  0
   -5.8168    1.7815    0.0984 C   0  0  0  0  0  0  0  0  0  0  0  0
   -6.0517    0.7907    1.0183 C   0  0  0  0  0  0  0  0  0  0  0  0
   -5.2675   -0.4367    1.0583 C   0  0  0  0  0  0  0  0  0  0  0  0
   -5.1155   -2.0502   -2.4480 C   0  0  0  0  0  0  0  0  0  0  0  0
   -6.2846   -1.6036   -1.9786 N   0  0  0  0  0  0  0  0  0  0  0  0
   -6.6936   -2.3210   -0.9466 C   0  0  0  0  0  0  0  0  0  0  0  0
   -5.7594   -3.1059   -0.2825 C   0  0  0  0  0  0  0  0  0  0  0  0
   -4.8351   -1.3903   -3.4301 O   0  0  0  0  0  0  0  0  0  0  0  0
   -7.9867   -2.0093   -0.7042 C   0  0  0  0  0  0  0  0  0  0  0  0
   -8.5304   -2.6357    0.3318 C   0  0  0  0  0  0  0  0  0  0  0  0
   -7.7363   -3.5256    1.0957 C   0  0  0  0  0  0  0  0  0  0  0  0
   -6.3126   -3.7133    0.8365 C   0  0  0  0  0  0  0  0  0  0  0  0
    2.0361    2.1546    0.0969 N   0  0  0  0  0  0  0  0  0  0  0  0
    1.4688    3.5237   -0.2071 C   0  0  0  0  0  0  0  0  0  0  0  0
    3.3899    2.0128   -0.4051 C   0  0  0  0  0  0  0  0  0  0  0  0
    2.2365    4.4373   -0.5762 O   0  0  0  0  0  0  0  0  0  0  0  0
   -0.0787    3.9870   -0.2330 C   0  0  0  0  0  0  0  0  0  0  0  0
   -0.8369    3.2264   -1.2224 N   0  0  0  0  0  0  0  0  0  0  0  0
   -0.5029    1.8570   -0.8161 C   0  0  0  0  0  0  0  0  0  0  0  0
   -1.1651    0.6264   -1.2887 C   0  0  0  0  0  0  0  0  0  0  0  0
   -2.4207    1.0855   -0.8160 N   0  0  0  0  0  0  0  0  0  0  0  0
   -2.6897    2.1350   -1.8623 C   0  0  0  0  0  0  0  0  0  0  0  0
   -2.3023    3.3727   -1.1241 C   0  0  0  0  0  0  0  0  0  0  0  0
   -2.7988    1.2242    0.7768 C   0  0  0  0  0  0  0  0  0  0  0  0
   -9.9227   -2.1471    0.4428 C   0  0  0  0  0  0  0  0  0  0  0  0
  -10.4044   -1.3103   -0.2411 O   0  0  0  0  0  0  0  0  0  0  0  0
  -10.5013   -2.8201    1.4727 O   0  0  0  0  0  0  0  0  0  0  0  0
  -11.8368   -2.3769    1.5875 C   0  0  0  0  0  0  0  0  0  0  0  0
  1  2  2  0
  2  3  1  0
  3  4  2  0
  3  7  1  0
  4  5  1  0
  5  6  2  0
  6  1  1  0
  6 25  1  0
  7  8  1  0
  8  9  2  0
  8 10  1  0
  9 16  1  0
  9 19  1  0
 10 11  2  0
 10 15  1  0
 11 12  1  0
 12 13  2  0
 13 14  1  0
 14 15  2  0
 16 17  1  0
 16 20  2  0
 17 18  1  0
 18 19  2  0
 18 21  1  0
 19 24  1  0
 21 22  2  0
 22 23  1  0
 22 37  1  0
 23 24  2  0
 25 26  1  0
 25 27  1  0
 26 28  2  0
 26 29  1  0
 29 30  1  0
 30 31  1  0
 30 35  1  0
 31 32  1  0
 32 33  1  0
 33 34  1  0
 33 36  1  0
 34 35  1  0
 38 37  2  0
 39 37  1  0
 40 39  1  0
M  END
>  <DRUGBANK_ID>  (1) 
DB09079

>  <COMMON_NAME>  (1) 
Nintedanib

>  <CAS_NUMBER>  (1) 
656247-17-5

>  <UNII>  (1) 
G6HRD2P839

>  <SYNONYMS>  (1) 
methyl (3Z)-3-[(4-{methyl[(4-methylpiperazin-1-yl)acetyl]amino}anilino)(phenyl)methylidene]-2-oxo-2,3-dihydro-1H-indole-6-carboxylate; Nintedanib

$$$$
