
     RDKit          3D

 22 22  0  0  0  0  0  0  0  0999 V2000
    0.9285   -0.1625   -0.0074 C   0  0  0  0  0  0  0  0  0  0  0  0
   -1.0304    5.1399   -1.1832 C   0  0  0  0  0  0  0  0  0  0  0  0
   -1.2108    5.2862   -4.3284 C   0  0  0  0  0  0  0  0  0  0  0  0
    0.4092    0.4381   -1.3213 C   0  0  0  0  0  0  0  0  0  0  0  0
   -1.4534    3.7056   -1.4534 C   0  0  0  0  0  0  0  0  0  0  0  0
   -1.8982    4.0432   -3.7693 C   0  0  0  0  0  0  0  0  0  0  0  0
   -0.4336   -4.3140   -2.7159 C   0  0  0  0  0  0  0  0  0  0  0  0
   -1.3578   -3.2961   -2.9172 C   0  0  0  0  0  0  0  0  0  0  0  0
    0.8920   -4.0405   -2.3504 C   0  0  0  0  0  0  0  0  0  0  0  0
   -0.9515   -2.0016   -2.7351 C   0  0  0  0  0  0  0  0  0  0  0  0
    1.3115   -2.7395   -2.1796 C   0  0  0  0  0  0  0  0  0  0  0  0
    0.4859    3.4416   -2.9676 C   0  0  0  0  0  0  0  0  0  0  0  0
    1.2557    2.7098   -4.1055 C   0  0  0  0  0  0  0  0  0  0  0  0
   -0.3933    2.4116   -5.7783 C   0  0  0  0  0  0  0  0  0  0  0  0
   -1.0990    1.0683   -5.4782 C   0  0  0  0  0  0  0  0  0  0  0  0
    0.3954   -1.7352   -2.4376 C   0  0  0  0  0  0  0  0  0  0  0  0
    0.8718   -0.3345   -2.5795 C   0  0  0  0  0  0  0  0  0  0  0  0
    0.4767   -0.0356   -4.0637 C   0  0  0  0  0  0  0  0  0  0  0  0
   -1.0297    3.2920   -2.8054 N   0  0  0  0  0  0  0  0  0  0  0  0
    1.2758   -0.1686   -5.0150 O   0  0  0  0  0  0  0  0  0  0  0  0
    0.9602    2.7579   -5.5091 O   0  0  0  0  0  0  0  0  0  0  0  0
   -0.7706    0.4818   -4.2011 O   0  0  0  0  0  0  0  0  0  0  0  0
  4  1  1  0
  5  2  1  0
  6  3  1  0
  8  7  2  0
  9  7  1  0
 10  8  1  0
 11  9  2  0
 13 12  1  0
 15 14  1  0
 16 10  2  0
 16 11  1  0
 17  4  1  0
 17 16  1  0
 18 17  1  0
 19  5  1  0
 19  6  1  0
 19 12  1  0
 20 18  2  0
 21 13  1  0
 21 14  1  0
 22 15  1  0
 22 18  1  0
M  END
>  <DRUGBANK_ID>  (1) 
DB13731

>  <COMMON_NAME>  (1) 
Butamirate

>  <CAS_NUMBER>  (1) 
18109-80-3

>  <UNII>  (1) 
M75MZG2236

>  <SYNONYMS>  (1) 
Butamirate

$$$$
