
     RDKit          3D

 42 46  0  0  0  0  0  0  0  0999 V2000
   -2.3914    0.0070   -0.1129 C   0  0  0  0  0  0  0  0  0  0  0  0
   -0.9925   -0.0015    0.3134 N   0  0  0  0  0  0  0  0  0  0  0  0
   -0.3317   -1.2268   -0.1640 C   0  0  0  0  0  0  0  0  0  0  0  0
    1.1318   -1.2779    0.2768 C   0  0  0  0  0  0  0  0  0  0  0  0
    1.8312   -0.0310   -0.2341 C   0  0  0  0  0  0  0  0  0  0  0  0
    1.1396    1.2313    0.2655 C   0  0  0  0  0  0  0  0  0  0  0  0
   -0.3171    1.2085   -0.1791 C   0  0  0  0  0  0  0  0  0  0  0  0
    3.2470   -0.0083    0.0815 N   0  0  0  0  0  0  0  0  0  0  0  0
    4.2959    0.0176   -0.8030 C   0  0  0  0  0  0  0  0  0  0  0  0
    5.4513   -0.0571   -0.3932 O   0  0  0  0  0  0  0  0  0  0  0  0
    4.0293    0.0515   -2.2573 C   0  0  0  0  0  0  0  0  0  0  0  0
    4.7264   -0.8240   -3.0501 C   0  0  0  0  0  0  0  0  0  0  0  0
    4.5179   -0.8517   -4.4406 C   0  0  0  0  0  0  0  0  0  0  0  0
    3.4812   -0.1018   -5.1066 C   0  0  0  0  0  0  0  0  0  0  0  0
    2.8260    0.8119   -4.2531 C   0  0  0  0  0  0  0  0  0  0  0  0
    3.1433    0.9177   -2.8852 C   0  0  0  0  0  0  0  0  0  0  0  0
    2.5152    1.8667   -2.1802 F   0  0  0  0  0  0  0  0  0  0  0  0
    2.9386   -0.1887   -6.4533 N   0  0  0  0  0  0  0  0  0  0  0  0
    3.2028   -0.9885   -7.6095 C   0  0  0  0  0  0  0  0  0  0  0  0
    3.9775   -0.4334   -8.5596 N   0  0  0  0  0  0  0  0  0  0  0  0
    4.6587   -1.2828   -9.3671 C   0  0  0  0  0  0  0  0  0  0  0  0
    4.5879   -2.6625   -9.3178 C   0  0  0  0  0  0  0  0  0  0  0  0
    3.7787   -3.1774   -8.3263 C   0  0  0  0  0  0  0  0  0  0  0  0
    2.9856   -2.3348   -7.5730 N   0  0  0  0  0  0  0  0  0  0  0  0
    3.9702   -4.4373   -7.7071 O   0  0  0  0  0  0  0  0  0  0  0  0
    4.4773   -5.5131   -8.4071 C   0  0  0  0  0  0  0  0  0  0  0  0
    3.5581   -6.2712   -9.1428 C   0  0  0  0  0  0  0  0  0  0  0  0
    4.0022   -7.1433  -10.1549 C   0  0  0  0  0  0  0  0  0  0  0  0
    5.3675   -7.2905  -10.4318 C   0  0  0  0  0  0  0  0  0  0  0  0
    6.2789   -6.6493   -9.6032 C   0  0  0  0  0  0  0  0  0  0  0  0
    5.8347   -5.8352   -8.5416 C   0  0  0  0  0  0  0  0  0  0  0  0
    7.0460   -5.1815   -7.9768 C   0  0  0  0  0  0  0  0  0  0  0  0
    7.0511   -4.3611   -7.1032 O   0  0  0  0  0  0  0  0  0  0  0  0
    8.1370   -5.5916   -8.7433 N   0  0  0  0  0  0  0  0  0  0  0  0
    7.7657   -6.5129   -9.7973 C   0  0  0  0  0  0  0  0  0  0  0  0
    9.4386   -4.9543   -8.6771 C   0  0  0  0  0  0  0  0  0  0  0  0
    5.3488   -3.4001  -10.3440 C   0  0  0  0  0  0  0  0  0  0  0  0
    6.5323   -3.8820   -9.9255 F   0  0  0  0  0  0  0  0  0  0  0  0
    4.6342   -4.4140  -10.8853 F   0  0  0  0  0  0  0  0  0  0  0  0
    5.7103   -2.6399  -11.4153 F   0  0  0  0  0  0  0  0  0  0  0  0
    5.5764   -1.6030   -4.9114 O   0  0  0  0  0  0  0  0  0  0  0  0
    5.4741   -1.7431   -6.2699 C   0  0  0  0  0  0  0  0  0  0  0  0
  1  2  1  0
  2  3  1  0
  2  7  1  0
  3  4  1  0
  4  5  1  0
  5  6  1  0
  5  8  1  0
  6  7  1  0
  8  9  1  0
  9 10  2  0
  9 11  1  0
 11 12  2  0
 11 16  1  0
 12 13  1  0
 13 14  2  0
 13 41  1  0
 14 15  1  0
 14 18  1  0
 15 16  2  0
 16 17  1  0
 18 19  1  0
 19 20  2  0
 19 24  1  0
 20 21  1  0
 21 22  2  0
 22 23  1  0
 22 37  1  0
 23 24  2  0
 23 25  1  0
 25 26  1  0
 26 27  2  0
 26 31  1  0
 27 28  1  0
 28 29  2  0
 29 30  1  0
 30 31  2  0
 30 35  1  0
 31 32  1  0
 32 33  2  0
 32 34  1  0
 34 35  1  0
 34 36  1  0
 37 38  1  0
 37 39  1  0
 37 40  1  0
 41 42  1  0
M  END
>  <DRUGBANK_ID>  (1) 
DB17570

>  <COMMON_NAME>  (1) 
Ifebemtinib

>  <CAS_NUMBER>  (1) 
1227948-82-4

>  <UNII>  (1) 
C57O858DKU

>  <SYNONYMS>  (1) 
Ifebemtinib

$$$$
