
     RDKit          3D

 23 24  0  0  0  0  0  0  0  0999 V2000
   -1.9269    0.8532   -0.0166 O   0  0  0  0  0  0  0  0  0  0  0  0
   -0.6011    0.6851   -0.4961 C   0  0  1  0  0  0  0  0  0  0  0  0
    0.4802    1.3508    0.3834 C   0  0  1  0  0  0  0  0  0  0  0  0
    1.6690    0.5427    0.2675 O   0  0  0  0  0  0  0  0  0  0  0  0
    1.3181   -0.7053   -0.3458 C   0  0  1  0  0  0  0  0  0  0  0  0
   -0.1982   -0.7634   -0.4753 C   0  0  1  0  0  0  0  0  0  0  0  0
   -0.7720   -1.4288    0.6536 O   0  0  0  0  0  0  0  0  0  0  0  0
    2.0602   -0.8927   -1.6813 C   0  0  0  0  0  0  0  0  0  0  0  0
    1.4477   -1.8675   -2.5544 O   0  0  0  0  0  0  0  0  0  0  0  0
    1.1959   -3.1592   -2.2276 C   0  0  0  0  0  0  0  0  0  0  0  0
    1.7711   -3.7074   -0.9352 C   0  0  0  0  0  0  0  0  0  0  0  0
    0.6610   -4.2066   -0.0162 C   0  0  0  0  0  0  0  0  0  0  0  0
    2.7525   -4.8214   -1.2246 C   0  0  0  0  0  0  0  0  0  0  0  0
    0.5104   -3.8541   -2.9786 O   0  0  0  0  0  0  0  0  0  0  0  0
    0.7625    2.7006   -0.0865 N   0  0  0  0  0  0  0  0  0  0  0  0
   -0.2559    3.6384    0.0589 C   0  0  0  0  0  0  0  0  0  0  0  0
   -1.2217    3.5015    0.8149 O   0  0  0  0  0  0  0  0  0  0  0  0
   -0.1653    4.7339   -0.7612 N   0  0  0  0  0  0  0  0  0  0  0  0
    0.7189    4.8672   -1.7954 C   0  0  0  0  0  0  0  0  0  0  0  0
    1.8332    3.9153   -1.8146 C   0  0  0  0  0  0  0  0  0  0  0  0
    1.8288    2.9183   -0.9366 C   0  0  0  0  0  0  0  0  0  0  0  0
    0.6344    5.7806   -2.7082 N   0  0  0  0  0  0  0  0  0  0  0  0
   -0.4815    6.6034   -2.5244 O   0  0  0  0  0  0  0  0  0  0  0  0
  2  1  1  1
  2  3  1  0
  2  6  1  0
  3  4  1  0
  3 15  1  6
  4  5  1  0
  5  8  1  6
  6  5  1  0
  6  7  1  1
  8  9  1  0
  9 10  1  0
 10 11  1  0
 10 14  2  0
 11 12  1  0
 11 13  1  0
 15 16  1  0
 15 21  1  0
 16 17  2  0
 16 18  1  0
 18 19  1  0
 19 22  2  0
 20 19  1  0
 21 20  2  0
 22 23  1  0
M  END
>  <DRUGBANK_ID>  (1) 
DB15661

>  <COMMON_NAME>  (1) 
Molnupiravir

>  <CAS_NUMBER>  (1) 
2349386-89-4

>  <UNII>  (1) 
YA84KI1VEW

>  <SYNONYMS>  (1) 
Molnupiravir

$$$$
