WST
     RDKit          3D

 21 24  0  0  0  0  0  0  0  0999 V2000
   -0.4345    0.3930    0.4675 C   0  0  0  0  0  0  0  0  0  0  0  0
   -1.3583    1.4456    0.5474 C   0  0  0  0  0  0  0  0  0  0  0  0
   -0.9625    2.6328    1.1002 O   0  0  0  0  0  0  0  0  0  0  0  0
   -2.6607    1.3010    0.0785 C   0  0  0  0  0  0  0  0  0  0  0  0
   -3.0660    0.0739   -0.4392 C   0  0  0  0  0  0  0  0  0  0  0  0
   -2.1770   -1.0007   -0.4742 C   0  0  0  0  0  0  0  0  0  0  0  0
   -0.8719   -0.8489   -0.0017 C   0  0  0  0  0  0  0  0  0  0  0  0
   -0.0778   -1.9622   -0.0794 O   0  0  0  0  0  0  0  0  0  0  0  0
    1.1211   -1.9144    0.7149 C   0  0  2  0  0  0  0  0  0  0  0  0
    1.8807   -0.5981    0.4985 C   0  0  2  0  0  0  0  0  0  0  0  0
    1.0053    0.6036    0.8572 C   0  0  1  0  0  0  0  0  0  0  0  0
    1.6676    1.7634    0.0962 C   0  0  0  0  0  0  0  0  0  0  0  0
    2.3895    1.1595   -1.1016 C   0  0  0  0  0  0  0  0  0  0  0  0
    2.2858   -0.3489   -0.9612 C   0  0  0  0  0  0  0  0  0  0  0  0
    2.0294   -3.0995    0.3850 C   0  0  0  0  0  0  0  0  0  0  0  0
    1.8027   -3.9127   -0.7320 C   0  0  0  0  0  0  0  0  0  0  0  0
    2.7552   -4.8487   -1.1383 C   0  0  0  0  0  0  0  0  0  0  0  0
    3.8649   -5.0894   -0.3354 C   0  0  0  0  0  0  0  0  0  0  0  0
    4.7241   -6.0730   -0.7267 O   0  0  0  0  0  0  0  0  0  0  0  0
    4.0731   -4.3594    0.8237 C   0  0  0  0  0  0  0  0  0  0  0  0
    3.1828   -3.3357    1.1611 C   0  0  0  0  0  0  0  0  0  0  0  0
  1 11  1  0
  1  2  2  0
  1  7  1  0
  2  3  1  0
  2  4  1  0
  4  5  2  0
  5  6  1  0
  6  7  2  0
  7  8  1  0
  8  9  1  0
  9 10  1  0
  9 15  1  6
 10 14  1  6
 10 11  1  0
 11 12  1  6
 12 13  1  0
 13 14  1  0
 15 21  1  0
 15 16  2  0
 16 17  1  0
 17 18  2  0
 18 19  1  0
 18 20  1  0
 20 21  2  0
M  END
>  <DRUGBANK_ID>  (1) 
DB08737

>  <COMMON_NAME>  (1) 
(3AS,4R,9BR)-4-(4-HYDROXYPHENYL)-1,2,3,3A,4,9B-HEXAHYDROCYCLOPENTA[C]CHROMEN-9-OL

$$$$
