
     RDKit          3D

 17 19  0  0  0  0  0  0  0  0999 V2000
    1.0552    0.0866   -0.0199 O   0  0  0  0  0  0  0  0  0  0  0  0
    0.6335   -1.1918   -0.4939 C   0  0  0  0  0  0  0  0  0  0  0  0
    1.1524   -1.4656   -1.9161 C   0  0  0  0  0  0  0  0  0  0  0  0
    2.6110   -1.4718   -1.9678 N   0  0  0  0  0  0  0  0  0  0  0  0
    3.2876   -2.6347   -2.2998 C   0  0  0  0  0  0  0  0  0  0  0  0
    2.8919   -3.3510   -3.3783 N   0  0  0  0  0  0  0  0  0  0  0  0
    3.6420   -4.4043   -3.7680 C   0  0  0  0  0  0  0  0  0  0  0  0
    4.7519   -4.9152   -3.1877 N   0  0  0  0  0  0  0  0  0  0  0  0
    5.0930   -4.2073   -2.0898 C   0  0  0  0  0  0  0  0  0  0  0  0
    4.4380   -3.0774   -1.6066 C   0  0  0  0  0  0  0  0  0  0  0  0
    5.0467   -2.5904   -0.4708 N   0  0  0  0  0  0  0  0  0  0  0  0
    6.0495   -3.4172   -0.2418 C   0  0  0  0  0  0  0  0  0  0  0  0
    7.0092   -3.4164    0.8069 C   0  0  0  0  0  0  0  0  0  0  0  0
    7.9778   -4.3564    0.8383 C   0  0  0  0  0  0  0  0  0  0  0  0
    8.0583   -5.3862   -0.1837 C   0  0  0  0  0  0  0  0  0  0  0  0
    7.1477   -5.4042   -1.1757 C   0  0  0  0  0  0  0  0  0  0  0  0
    6.1415   -4.4232   -1.2079 N   0  0  0  0  0  0  0  0  0  0  0  0
  1  2  1  0
  2  3  1  0
  3  4  1  0
  4  5  1  0
  5  6  2  0
  5 10  1  0
  6  7  1  0
  7  8  2  0
  8  9  1  0
  9 10  2  0
  9 17  1  0
 10 11  1  0
 11 12  2  0
 12 13  1  0
 12 17  1  0
 13 14  2  0
 14 15  1  0
 15 16  2  0
 16 17  1  0
M  END
>  <DRUGBANK_ID>  (1) 
DB01994

>  <SECONDARY_ACCESSION_NUMBERS>  (1) 
EXPT02650

>  <COMMON_NAME>  (1) 
2-(Pyrido[1,2-E]Purin-4-Yl)Amino-Ethanol

$$$$
