NIU
     RDKit          3D

 22 24  0  0  0  0  0  0  0  0999 V2000
   -4.5358    1.7538    0.9040 C   0  0  0  0  0  0  0  0  0  0  0  0
   -4.4545    3.2348    1.1333 C   0  0  0  0  0  0  0  0  0  0  0  0
   -4.1143    4.0269    0.2539 O   0  0  0  0  0  0  0  0  0  0  0  0
   -4.7671    3.7322    2.3678 O   0  0  0  0  0  0  0  0  0  0  0  0
   -5.1729    2.8857    3.4098 C   0  0  0  0  0  0  0  0  0  0  0  0
   -5.2486    1.5611    3.2269 C   0  0  0  0  0  0  0  0  0  0  0  0
   -4.9489    0.9943    1.9364 C   0  0  0  0  0  0  0  0  0  0  0  0
   -5.0961   -0.3758    1.8859 O   0  0  0  0  0  0  0  0  0  0  0  0
   -2.6480    0.5416   -0.1747 C   0  0  0  0  0  0  0  0  0  0  0  0
   -2.3228   -0.8233   -0.2335 C   0  0  0  0  0  0  0  0  0  0  0  0
   -0.9825   -1.2143   -0.0976 C   0  0  0  0  0  0  0  0  0  0  0  0
    0.0228   -0.2583    0.0781 C   0  0  0  0  0  0  0  0  0  0  0  0
   -0.3008    1.0866    0.1576 C   0  0  0  0  0  0  0  0  0  0  0  0
   -1.6227    1.4709    0.0632 C   0  0  0  0  0  0  0  0  0  0  0  0
   -4.0417    1.1322   -0.4110 C   0  0  2  0  0  0  0  0  0  0  0  0
   -3.9661    2.1014   -1.6213 C   0  0  0  0  0  0  0  0  0  0  0  0
   -3.4786    1.4523   -2.9054 C   0  0  0  0  0  0  0  0  0  0  0  0
   -5.6025    3.5825    4.6809 C   0  0  0  0  0  0  0  0  0  0  0  0
   -7.1119    3.4199    4.9376 C   0  0  0  0  0  0  0  0  0  0  0  0
   -7.5052    2.0347    5.4724 C   0  0  0  0  0  0  0  0  0  0  0  0
   -7.2270    0.8832    4.5071 C   0  0  0  0  0  0  0  0  0  0  0  0
   -5.7283    0.6692    4.3299 C   0  0  0  0  0  0  0  0  0  0  0  0
  1  2  1  0
  1  7  2  0
  2  3  2  0
  2  4  1  0
  4  5  1  0
  5  6  2  0
  5 18  1  0
  6  7  1  0
  6 22  1  0
  7  8  1  0
  9 10  2  0
  9 14  1  0
 10 11  1  0
 11 12  2  0
 12 13  1  0
 13 14  2  0
 15 16  1  6
 15  9  1  0
 15  1  1  0
 16 17  1  0
 18 19  1  0
 19 20  1  0
 20 21  1  0
 21 22  1  0
M  END
>  <DRUGBANK_ID>  (1) 
DB08274

>  <COMMON_NAME>  (1) 
6,7,8,9-TETRAHYDRO-4-HYDROXY-3-(1-PHENYLPROPYL)CYCLOHEPTA[B]PYRAN-2-ONE

$$$$
