JST
     RDKit          3D

 18 19  0  0  0  0  0  0  0  0999 V2000
    0.3580    1.1973    0.7365 S   0  0  0  0  0  0  0  0  0  0  0  0
   -7.6766    0.4919   -1.6113 Cl  0  0  0  0  0  0  0  0  0  0  0  0
   -1.3400   -1.2932   -0.1983 N   0  0  0  0  0  0  0  0  0  0  0  0
   -0.0619   -1.3969    0.2894 N   0  0  0  0  0  0  0  0  0  0  0  0
    2.1338   -0.7138    0.0608 N   0  0  0  0  0  0  0  0  0  0  0  0
   -3.7088    0.9732   -1.3979 C   0  0  0  0  0  0  0  0  0  0  0  0
   -5.0535    1.1220   -1.7545 C   0  0  0  0  0  0  0  0  0  0  0  0
   -6.0217    0.2926   -1.1846 C   0  0  0  0  0  0  0  0  0  0  0  0
   -5.6585   -0.6947   -0.2685 C   0  0  0  0  0  0  0  0  0  0  0  0
   -4.3167   -0.8519    0.0856 C   0  0  0  0  0  0  0  0  0  0  0  0
   -3.3473   -0.0132   -0.4750 C   0  0  0  0  0  0  0  0  0  0  0  0
   -1.9426   -0.1576   -0.0180 C   0  0  0  0  0  0  0  0  0  0  0  0
   -1.4006    0.9845    0.7974 C   0  0  0  0  0  0  0  0  0  0  0  0
    0.8984   -0.4138    0.3206 C   0  0  0  0  0  0  0  0  0  0  0  0
    3.1960    0.2997    0.0494 C   0  0  0  0  0  0  0  0  0  0  0  0
    3.3049    1.0346   -1.3061 C   0  0  0  0  0  0  0  0  0  0  0  0
    2.0862    1.8177   -1.7118 C   0  0  0  0  0  0  0  0  0  0  0  0
    1.9444    3.1458   -1.6068 C   0  0  0  0  0  0  0  0  0  0  0  0
  1 13  1  0
  1 14  1  0
  2  8  1  0
  3  4  1  0
  3 12  2  0
  4 14  1  0
  5 14  2  0
  5 15  1  0
  6  7  2  0
  6 11  1  0
  7  8  1  0
  8  9  2  0
  9 10  1  0
 10 11  2  0
 11 12  1  0
 12 13  1  0
 15 16  1  0
 16 17  1  0
 17 18  2  0
M  END
>  <DRUGBANK_ID>  (1) 
DB08028

>  <COMMON_NAME>  (1) 
BUT-3-ENYL-[5-(4-CHLORO-PHENYL)-3,6-DIHYDRO-[1,3,4]THIADIAZIN-2-YLIDENE]-AMINE

$$$$
