
     RDKit          3D

  8  7  0  0  1  0  0  0  0  0999 V2000
    1.0765    2.0494    1.1493 C   0  0  0  0  0  0  0  0  0  0  0  0
    1.5451    2.3956    2.5376 C   0  0  0  0  0  0  0  0  0  0  0  0
    0.3981    0.6737    1.1425 C   0  0  2  0  0  0  0  0  0  0  0  0
    0.8692   -0.1483   -0.0578 C   0  0  0  0  0  0  0  0  0  0  0  0
   -1.0775    0.7507    1.1569 N   0  0  0  0  0  0  0  0  0  0  0  0
    1.0236    1.9747    3.5652 O   0  0  0  0  0  0  0  0  0  0  0  0
    1.4751    0.2661   -1.0367 O   0  0  0  0  0  0  0  0  0  0  0  0
    0.5436   -1.4533    0.0408 O   0  0  0  0  0  0  0  0  0  0  0  0
  2  1  1  0
  3  5  1  6
  3  4  1  0
  3  1  1  0
  6  2  2  0
  7  4  2  0
  8  4  1  0
M  END
>  <DRUGBANK_ID>  (1) 
DB04498

>  <SECONDARY_ACCESSION_NUMBERS>  (1) 
EXPT00566

>  <COMMON_NAME>  (1) 
Aspartate Semialdehyde

$$$$
