
     RDKit          3D

 34 34  0  0  0  0  0  0  0  0999 V2000
    3.8360    7.0411   -0.2517 S   0  0  0  0  0  0  0  0  0  0  0  0
    2.1879    4.2717   -1.8331 O   0  0  0  0  0  0  0  0  0  0  0  0
   -0.4243    5.9083    0.0452 O   0  0  0  0  0  0  0  0  0  0  0  0
    2.4896   12.3466    3.4549 O   0  0  0  0  0  0  0  0  0  0  0  0
    6.3031    9.7862    0.0208 O   0  0  0  0  0  0  0  0  0  0  0  0
    3.6168    6.1747    2.5126 O   0  0  0  0  0  0  0  0  0  0  0  0
    1.4264    6.2434    2.8587 O   0  0  0  0  0  0  0  0  0  0  0  0
    2.2817   12.9623   -2.4418 O   0  0  0  0  0  0  0  0  0  0  0  0
    3.5282   13.4217   -0.6037 O   0  0  0  0  0  0  0  0  0  0  0  0
    7.2442    0.5541   -1.4684 O   0  0  0  0  0  0  0  0  0  0  0  0
    7.2573    1.3854    0.5626 O   0  0  0  0  0  0  0  0  0  0  0  0
    3.6850   11.0088    2.0578 N   0  0  0  0  0  0  0  0  0  0  0  0
    4.4761   10.6819   -0.9714 N   0  0  0  0  0  0  0  0  0  0  0  0
    1.7576    9.3786    1.9210 N   0  0  0  0  0  0  0  0  0  0  0  0
    6.7738    1.2691   -0.5735 N   0  0  0  0  0  0  0  0  0  0  0  0
    4.3027    9.7378    1.2655 C   0  0  1  0  0  0  0  0  0  0  0  0
    3.3301    8.6144    0.3539 C   0  0  0  0  0  0  0  0  0  0  0  0
    2.0438    6.1764   -0.2449 C   0  0  2  0  0  0  0  0  0  0  0  0
    2.7900   10.1521    4.4074 C   0  0  0  0  0  0  0  0  0  0  0  0
    1.9191    8.9362    4.0878 C   0  0  0  0  0  0  0  0  0  0  0  0
    3.0093   11.2347    3.2865 C   0  0  0  0  0  0  0  0  0  0  0  0
    2.0566    5.6843   -1.6850 C   0  0  0  0  0  0  0  0  0  0  0  0
    5.1337   10.1473    0.1018 C   0  0  0  0  0  0  0  0  0  0  0  0
    2.5255    8.4165    2.8753 C   0  0  1  0  0  0  0  0  0  0  0  0
    0.6524    6.8564    0.0886 C   0  0  0  0  0  0  0  0  0  0  0  0
    2.4390    6.8533    2.7533 C   0  0  0  0  0  0  0  0  0  0  0  0
    3.0852   11.1401   -1.1217 C   0  0  0  0  0  0  0  0  0  0  0  0
    3.3950    3.6980   -1.5259 C   0  0  0  0  0  0  0  0  0  0  0  0
    3.9410    3.6790   -0.2385 C   0  0  0  0  0  0  0  0  0  0  0  0
    3.9633    2.8810   -2.5018 C   0  0  0  0  0  0  0  0  0  0  0  0
    3.0111   12.6163   -1.3641 C   0  0  0  0  0  0  0  0  0  0  0  0
    5.0402    2.8878    0.0835 C   0  0  0  0  0  0  0  0  0  0  0  0
    5.0233    2.0226   -2.1754 C   0  0  0  0  0  0  0  0  0  0  0  0
    5.5830    2.0605   -0.8915 C   0  0  0  0  0  0  0  0  0  0  0  0
  1 17  1  0
  2 22  1  0
  2 28  1  0
  3 25  1  0
  4 21  2  0
  5 23  2  0
  6 26  1  0
  7 26  2  0
  8 31  1  0
  9 31  2  0
 10 15  1  0
 11 15  2  0
 12 21  1  0
 13 23  1  0
 13 27  1  0
 15 34  1  0
 16 23  1  0
 16 17  1  6
 16 12  1  0
 18 25  1  6
 18 22  1  0
 18  1  1  0
 19 20  1  0
 19 21  1  0
 24 26  1  0
 24 20  1  0
 24 14  1  6
 27 31  1  0
 28 29  2  0
 28 30  1  0
 29 32  1  0
 30 33  2  0
 32 34  2  0
 33 34  1  0
M  CHG  2  10  -1  15   1
M  END
>  <DRUGBANK_ID>  (1) 
DB03706

>  <SECONDARY_ACCESSION_NUMBERS>  (1) 
EXPT01354

>  <COMMON_NAME>  (1) 
1-Hydroxy-2-S-glutathionyl-3-para-nitrophenoxy-propane

$$$$
