ALR
     RDKit          3D

 19 21  0  0  0  0  0  0  0  0999 V2000
    0.2201    1.2092   -0.0239 C   0  0  0  0  0  0  0  0  0  0  0  0
    0.1521   -1.2292   -0.0149 C   0  0  0  0  0  0  0  0  0  0  0  0
    1.6348   -1.2860   -0.0501 C   0  0  0  0  0  0  0  0  0  0  0  0
    1.6931    1.1777    0.0630 C   0  0  0  0  0  0  0  0  0  0  0  0
    2.1929   -2.3766   -0.1223 O   0  0  0  0  0  0  0  0  0  0  0  0
    2.3111    2.2344    0.1502 O   0  0  0  0  0  0  0  0  0  0  0  0
    3.7561   -0.0809    0.2200 C   0  0  0  0  0  0  0  0  0  0  0  0
   -0.4976    0.0105   -0.0112 C   0  0  0  0  0  0  0  0  0  0  0  0
   -1.9122    0.0567    0.0075 C   0  0  0  0  0  0  0  0  0  0  0  0
   -2.6361   -1.1450    0.0671 C   0  0  0  0  0  0  0  0  0  0  0  0
   -1.9764   -2.3749    0.0819 C   0  0  0  0  0  0  0  0  0  0  0  0
   -0.5852   -2.4188    0.0268 C   0  0  0  0  0  0  0  0  0  0  0  0
   -0.4377    2.4439   -0.0787 C   0  0  0  0  0  0  0  0  0  0  0  0
   -1.8277    2.4888   -0.0901 C   0  0  0  0  0  0  0  0  0  0  0  0
   -2.5608    1.3030   -0.0315 C   0  0  0  0  0  0  0  0  0  0  0  0
    2.3077   -0.0726    0.0397 N   0  0  0  0  0  0  0  0  0  0  0  0
    4.4688    0.6391   -0.9074 C   0  0  0  0  0  0  0  0  0  0  0  0
    5.3231    1.5070   -0.7784 O   0  0  0  0  0  0  0  0  0  0  0  0
    4.1621    0.1701   -2.1342 O   0  0  0  0  0  0  0  0  0  0  0  0
  1  4  1  0
  1  8  2  0
  1 13  1  0
  2  3  1  0
  2  8  1  0
  2 12  2  0
  3  5  2  0
  3 16  1  0
  4  6  2  0
  4 16  1  0
  7 16  1  0
  7 17  1  0
  8  9  1  0
  9 10  1  0
  9 15  2  0
 10 11  2  0
 11 12  1  0
 13 14  2  0
 14 15  1  0
 17 18  2  0
 17 19  1  0
M  END
>  <DRUGBANK_ID>  (1) 
DB02020

>  <SECONDARY_ACCESSION_NUMBERS>  (1) 
EXPT00502

>  <COMMON_NAME>  (1) 
Alrestatin

>  <CAS_NUMBER>  (1) 
51411-04-2

>  <UNII>  (1) 
515DHK15LG

>  <SYNONYMS>  (1) 
Alrestatin

$$$$
