
     RDKit          3D

 21 20  0  0  1  0  0  0  0  0999 V2000
    1.1431    0.0793    0.0263 O   0  0  0  0  0  0  0  0  0  0  0  0
    0.3785    1.1080   -0.3957 C   0  0  0  0  0  0  0  0  0  0  0  0
    1.1658    2.2428   -1.0253 C   0  0  0  0  0  0  0  0  0  0  0  0
    0.7585    2.4581   -2.4835 C   0  0  0  0  0  0  0  0  0  0  0  0
   -0.7277    2.8037   -2.6232 C   0  0  0  0  0  0  0  0  0  0  0  0
   -1.0783    4.0608   -1.8184 C   0  0  0  0  0  0  0  0  0  0  0  0
   -0.3212    5.2789   -2.3593 C   0  0  0  0  0  0  0  0  0  0  0  0
   -0.6864    5.5245   -3.8207 C   0  0  0  0  0  0  0  0  0  0  0  0
   -0.8291    1.0953   -0.2619 O   0  0  0  0  0  0  0  0  0  0  0  0
   -2.1899    5.6909   -3.9661 C   0  0  0  0  0  0  0  0  0  0  0  0
   -5.3729    9.5190   -5.0204 C   0  0  0  0  0  0  0  0  0  0  0  0
   -6.1181   13.3160   -7.6087 C   0  0  0  0  0  0  0  0  0  0  0  0
   -6.8635   12.1494   -6.9789 C   0  0  0  0  0  0  0  0  0  0  0  0
   -6.3258   10.8306   -7.5312 C   0  0  0  0  0  0  0  0  0  0  0  0
   -4.8307   10.7054   -7.2223 C   0  0  0  0  0  0  0  0  0  0  0  0
   -4.5937   10.6517   -5.7109 C   0  0  0  0  0  0  0  0  0  0  0  0
   -3.0891    8.0014   -3.8743 C   0  0  0  0  0  0  0  0  0  0  0  0
   -3.4226    7.9928   -5.3316 C   0  0  0  0  0  0  0  0  0  0  0  0
   -2.6034    6.9347   -3.2468 C   0  0  0  0  0  0  0  0  0  0  0  0
   -4.9325    8.1324   -5.4941 C   0  0  2  0  0  0  0  0  0  0  0  0
   -5.3202    7.8648   -6.8396 O   0  0  0  0  0  0  0  0  0  0  0  0
  1  2  1  0
  3  2  1  0
  4  3  1  0
  4  5  1  0
  6  5  1  0
  6  7  1  0
  8  7  1  0
  8 10  1  0
  9  2  2  0
 10 19  1  0
 11 20  1  0
 12 13  1  0
 13 14  1  0
 14 15  1  0
 15 16  1  0
 16 11  1  0
 18 17  1  0
 19 17  2  0
 20 18  1  0
 20 21  1  6
M  END
>  <DRUGBANK_ID>  (1) 
DB02955

>  <SECONDARY_ACCESSION_NUMBERS>  (1) 
EXPT02762

>  <COMMON_NAME>  (1) 
Ricinoleic acid

>  <CAS_NUMBER>  (1) 
141-22-0

>  <UNII>  (1) 
I2D0F69854

>  <SYNONYMS>  (1) 
(cis,R)-12-hydroxyoctadec-9-enoic acid; (Z,R)-12-hydroxyoctadec-9-enoic acid; 12-Hydroxy-9-octadecenoic acid; 12-Hydroxy-cis-9-octadecenoic acid; 12-hydroxyoleic acid; Ricinoleic acid; Ricinolic acid; Ricinols√§ure

$$$$
