
     RDKit          3D

  4  3  0  0  0  0  0  0  0  0999 V2000
    0.9248    0.0655    0.0076 Cl  0  0  0  0  0  0  0  0  0  0  0  0
    3.1548    0.0655    0.0076 Al  0  0  0  0  0  3  0  0  0  0  0  0
    4.2698    1.9909   -0.1426 Cl  0  0  0  0  0  0  0  0  0  0  0  0
    4.2698   -1.8599    0.1577 Cl  0  0  0  0  0  0  0  0  0  0  0  0
  1  2  1  0
  2  3  1  0
  2  4  1  0
M  END
>  <DRUGBANK_ID>  (1) 
DB11081

>  <COMMON_NAME>  (1) 
Aluminum chloride

>  <CAS_NUMBER>  (1) 
7446-70-0

>  <UNII>  (1) 
LIF1N9568Y

>  <SYNONYMS>  (1) 
Aluminium chloride

$$$$
