MKC
     RDKit          3D

 22 23  0  0  0  0  0  0  0  0999 V2000
    1.1991   -0.2366   -0.0148 C   0  0  0  0  0  0  0  0  0  0  0  0
    0.3739   -1.3586    0.0143 C   0  0  0  0  0  0  0  0  0  0  0  0
   -1.0201   -1.2085    0.0024 C   0  0  0  0  0  0  0  0  0  0  0  0
   -1.6213    0.0509    0.0328 C   0  0  0  0  0  0  0  0  0  0  0  0
   -0.8360    1.1652    0.0587 C   0  0  0  0  0  0  0  0  0  0  0  0
    0.5244    0.9936   -0.0566 C   0  0  0  0  0  0  0  0  0  0  0  0
    3.6082    0.0706   -1.0536 C   0  0  0  0  0  0  0  0  0  0  0  0
    3.6953    1.4493   -1.3673 N   0  0  0  0  0  0  0  0  0  0  0  0
    4.3896    1.9316   -2.4589 C   0  0  0  0  0  0  0  0  0  0  0  0
    4.3675    3.1020   -2.8445 O   0  0  0  0  0  0  0  0  0  0  0  0
    5.1432    1.0334   -3.1252 N   0  0  0  0  0  0  0  0  0  0  0  0
    5.2483   -0.2900   -2.8392 C   0  0  0  0  0  0  0  0  0  0  0  0
    5.9991   -0.9914   -3.4842 O   0  0  0  0  0  0  0  0  0  0  0  0
    4.3920   -0.8078   -1.7231 C   0  0  0  0  0  0  0  0  0  0  0  0
    2.7074   -0.4265    0.0849 C   0  0  0  0  0  0  0  0  0  0  0  0
    4.5213   -2.3003   -1.4433 C   0  0  0  0  0  0  0  0  0  0  0  0
    4.0316   -3.1304   -2.6232 C   0  0  0  0  0  0  0  0  0  0  0  0
    5.9303   -2.6674   -0.9799 C   0  0  0  0  0  0  0  0  0  0  0  0
    3.0033    2.4828   -0.6468 C   0  0  0  0  0  0  0  0  0  0  0  0
    3.8305    3.4298    0.0029 O   0  0  0  0  0  0  0  0  0  0  0  0
    4.5956    2.8253    1.0388 C   0  0  0  0  0  0  0  0  0  0  0  0
    3.7992    2.1918    2.1842 C   0  0  0  0  0  0  0  0  0  0  0  0
  1  2  2  0
  1  6  1  0
  1 15  1  0
  2  3  1  0
  3  4  2  0
  4  5  1  0
  5  6  2  0
  7  8  1  0
  7 14  2  0
  7 15  1  0
  8  9  1  0
  8 19  1  0
  9 10  2  0
  9 11  1  0
 11 12  1  0
 12 13  2  0
 12 14  1  0
 14 16  1  0
 16 17  1  0
 16 18  1  0
 19 20  1  0
 20 21  1  0
 21 22  1  0
M  END
>  <DRUGBANK_ID>  (1) 
DB08188

>  <SECONDARY_ACCESSION_NUMBERS>  (1) 
DB12488

>  <COMMON_NAME>  (1) 
Emivirine

>  <CAS_NUMBER>  (1) 
149950-60-7

>  <UNII>  (1) 
X87G8IX72O

>  <SYNONYMS>  (1) 
1-(ethoxymethyl)-5-(1-methylethyl)-6-(phenylmethyl)pyrimidine-2,4(1H,3H)-dione; 6-benzyl-1-(ethoxymethyl)-5-(1-methylethyl)uracil; Emivirine

$$$$
