458
     RDKit          3D

 21 23  0  0  0  0  0  0  0  0999 V2000
    0.0943   -0.9006   -0.9179 N   0  0  0  0  0  0  0  0  0  0  0  0
   -2.9978   -1.7371   -3.2422 N   0  0  0  0  0  0  0  0  0  0  0  0
    0.1605   -1.4355   -2.3092 C   0  0  0  0  0  0  0  0  0  0  0  0
    1.3396   -0.4426   -0.4410 C   0  0  0  0  0  0  0  0  0  0  0  0
   -1.0824   -0.5593   -0.2532 C   0  0  0  0  0  0  0  0  0  0  0  0
    0.5538    2.0042    0.0273 C   0  0  0  0  0  0  0  0  0  0  0  0
   -0.7234    1.8487   -0.8014 C   0  0  0  0  0  0  0  0  0  0  0  0
    1.5391    0.8439    0.0883 C   0  0  0  0  0  0  0  0  0  0  0  0
   -1.5690    0.7619   -0.1982 C   0  0  0  0  0  0  0  0  0  0  0  0
   -0.6430   -2.7069   -2.5807 C   0  0  0  0  0  0  0  0  0  0  0  0
   -2.1650   -2.6462   -2.4311 C   0  0  0  0  0  0  0  0  0  0  0  0
    2.3477   -1.4190   -0.3465 C   0  0  0  0  0  0  0  0  0  0  0  0
   -1.7811   -1.5326    0.4732 C   0  0  0  0  0  0  0  0  0  0  0  0
    2.7442    1.0815    0.7751 C   0  0  0  0  0  0  0  0  0  0  0  0
   -2.7988    1.0416    0.4135 C   0  0  0  0  0  0  0  0  0  0  0  0
    3.5366   -1.1568    0.3160 C   0  0  0  0  0  0  0  0  0  0  0  0
   -3.0401   -1.2785    1.0036 C   0  0  0  0  0  0  0  0  0  0  0  0
    3.7189    0.0881    0.8909 C   0  0  0  0  0  0  0  0  0  0  0  0
   -3.5598    0.0146    0.9721 C   0  0  0  0  0  0  0  0  0  0  0  0
   -4.3273   -1.6754   -2.6050 C   0  0  0  0  0  0  0  0  0  0  0  0
   -2.5319   -0.3547   -3.3142 C   0  0  0  0  0  0  0  0  0  0  0  0
  1  3  1  0
  1  4  1  0
  1  5  1  0
  2 11  1  0
  2 20  1  0
  2 21  1  0
  3 10  1  0
  4  8  2  0
  4 12  1  0
  5  9  2  0
  5 13  1  0
  6  7  1  0
  6  8  1  0
  7  9  1  0
  8 14  1  0
  9 15  1  0
 10 11  1  0
 12 16  2  0
 13 17  2  0
 14 18  2  0
 15 19  2  0
 16 18  1  0
 17 19  1  0
M  END
>  <DRUGBANK_ID>  (1) 
DB00458

>  <SECONDARY_ACCESSION_NUMBERS>  (1) 
APRD00672; DB08002

>  <COMMON_NAME>  (1) 
Imipramine

>  <CAS_NUMBER>  (1) 
50-49-7

>  <UNII>  (1) 
OGG85SX4E4

>  <SYNONYMS>  (1) 
10,11-dihydro-N,N-dimethyl-5H-dibenz[b,f]azepine-5-propanamine; 5-[3-(dimethylamino)propyl]-10,11-dihydro-5H-dibenz[b,f]azepine; Imipramin; Imipramina; Imipramine; Imipraminum; Imizine; N-(gamma-Dimethylaminopropyl)iminodibenzyl; N-(Î³-dimethylaminopropyl)iminodibenzyl

$$$$
