1214
     RDKit          3D

 22 22  0  0  1  0  0  0  0  0999 V2000
    1.0825    0.1320   -0.0447 O   0  0  0  0  0  0  0  0  0  0  0  0
    1.9400   -2.2760   -1.7770 O   0  0  0  0  0  0  0  0  0  0  0  0
    6.7190   -0.0980   -0.1601 O   0  0  0  0  0  0  0  0  0  0  0  0
    7.3040   -2.4119   -0.1357 O   0  0  0  0  0  0  0  0  0  0  0  0
   -1.5927   -3.0484   -1.3364 N   0  0  0  0  0  0  0  0  0  0  0  0
    0.5955   -1.9005   -1.4614 C   0  0  0  0  0  0  0  0  0  0  0  0
   -0.1485   -3.2316   -1.3952 C   0  0  0  0  0  0  0  0  0  0  0  0
   -2.2968   -4.3284   -1.3237 C   0  0  0  0  0  0  0  0  0  0  0  0
    0.3970   -1.1238   -0.1249 C   0  0  0  0  0  0  0  0  0  0  0  0
    2.4401    0.0987    0.1167 C   0  0  0  0  0  0  0  0  0  0  0  0
    3.1606    1.2867   -0.0207 C   0  0  0  0  0  0  0  0  0  0  0  0
    4.5954    1.2299   -0.0764 C   0  0  0  0  0  0  0  0  0  0  0  0
    4.4882   -1.2009    0.0764 C   0  0  0  0  0  0  0  0  0  0  0  0
    5.2600   -0.0444   -0.0680 C   0  0  0  0  0  0  0  0  0  0  0  0
   -1.9549   -5.1504   -0.0801 C   0  0  0  0  0  0  0  0  0  0  0  0
   -3.7885   -4.0119   -1.3463 C   0  0  0  0  0  0  0  0  0  0  0  0
    3.1246   -1.0833    0.3107 C   0  0  0  0  0  0  0  0  0  0  0  0
    2.3850    2.5868   -0.0510 C   0  0  0  0  0  0  0  0  0  0  0  0
    5.3711    2.5217   -0.1364 C   0  0  0  0  0  0  0  0  0  0  0  0
    4.9213   -2.6230   -0.0448 C   0  0  0  0  0  0  0  0  0  0  0  0
    7.5867   -1.2157   -0.1567 C   0  0  0  0  0  0  0  0  0  0  0  0
    9.0354   -0.9206   -0.1776 C   0  0  0  0  0  0  0  0  0  0  0  0
  1  9  1  0
  1 10  1  0
  2  6  1  0
  3 14  1  0
  3 21  1  0
  4 21  2  0
  5  7  1  0
  5  8  1  0
  6  7  1  0
  6  9  1  0
  8 15  1  0
  8 16  1  0
 10 11  2  0
 10 17  1  0
 11 12  1  0
 11 18  1  0
 12 14  2  0
 12 19  1  0
 13 14  1  0
 13 17  2  0
 13 20  1  0
 21 22  1  0
M  END
>  <DRUGBANK_ID>  (1) 
DB01214

>  <SECONDARY_ACCESSION_NUMBERS>  (1) 
APRD00668

>  <COMMON_NAME>  (1) 
Metipranolol

>  <CAS_NUMBER>  (1) 
22664-55-7

>  <UNII>  (1) 
X39AL81KEB

>  <SYNONYMS>  (1) 
(Â±)-metipranolol; Acetic acid 4-(2-hydroxy-3-isopropylamino-propoxy)-2,3,6-trimethyl-phenyl ester; Metipranolol; Metipranololum

$$$$
