
     RDKit          3D

 32 35  0  0  0  0  0  0  0  0999 V2000
    1.0180    0.0401    0.1166 C   0  0  0  0  0  0  0  0  0  0  0  0
    0.5027    1.3843    0.3076 N   0  0  0  0  0  0  0  0  0  0  0  0
   -0.2980    1.9749   -0.7515 C   0  0  0  0  0  0  0  0  0  0  0  0
    0.8765    2.0817    1.4698 C   0  0  0  0  0  0  0  0  0  0  0  0
    1.6380    1.5775    2.3072 O   0  0  0  0  0  0  0  0  0  0  0  0
    0.3638    3.4860    1.6911 C   0  0  0  0  0  0  0  0  0  0  0  0
    1.2533    4.3913    2.1364 N   0  0  0  0  0  0  0  0  0  0  0  0
    0.7800    5.6430    2.3121 C   0  0  0  0  0  0  0  0  0  0  0  0
   -0.5149    6.0425    2.0332 C   0  0  0  0  0  0  0  0  0  0  0  0
   -1.0513    7.2989    2.1654 O   0  0  0  0  0  0  0  0  0  0  0  0
   -0.1921    8.3357    2.4977 C   0  0  0  0  0  0  0  0  0  0  0  0
   -0.4787    9.0792    3.6756 C   0  0  0  0  0  0  0  0  0  0  0  0
    0.4203   10.0463    4.1624 C   0  0  0  0  0  0  0  0  0  0  0  0
    1.6531   10.1293    3.5310 C   0  0  0  0  0  0  0  0  0  0  0  0
    1.8284    9.5626    2.2863 C   0  0  0  0  0  0  0  0  0  0  0  0
    0.9439    8.6691    1.7237 C   0  0  0  0  0  0  0  0  0  0  0  0
    1.5850    8.2473    0.5230 C   0  0  0  0  0  0  0  0  0  0  0  0
    2.7624    8.9621    0.4212 C   0  0  0  0  0  0  0  0  0  0  0  0
    3.8605    9.0019   -0.5610 C   0  0  0  0  0  0  0  0  0  0  0  0
    2.9139    9.7645    1.5041 O   0  0  0  0  0  0  0  0  0  0  0  0
    0.1016   10.8816    5.3810 C   0  0  0  0  0  0  0  0  0  0  0  0
   -0.8918   10.5779    6.0462 O   0  0  0  0  0  0  0  0  0  0  0  0
    0.9092   11.9168    5.8502 N   0  0  0  0  0  0  0  0  0  0  0  0
    2.0272   12.5131    5.2459 C   0  0  0  0  0  0  0  0  0  0  0  0
    1.9931   12.7975    3.9262 N   0  0  0  0  0  0  0  0  0  0  0  0
    3.1936   12.9890    3.3168 C   0  0  0  0  0  0  0  0  0  0  0  0
    4.3992   12.9912    4.0028 C   0  0  0  0  0  0  0  0  0  0  0  0
    5.6904   13.2186    3.2789 C   0  0  0  0  0  0  0  0  0  0  0  0
    4.4313   12.8123    5.3479 N   0  0  0  0  0  0  0  0  0  0  0  0
    3.2304   12.5764    5.9502 C   0  0  0  0  0  0  0  0  0  0  0  0
   -1.3380    5.0264    1.5977 C   0  0  0  0  0  0  0  0  0  0  0  0
   -0.9342    3.7485    1.4151 N   0  0  0  0  0  0  0  0  0  0  0  0
  1  2  1  0
  2  3  1  0
  2  4  1  0
  4  5  2  0
  4  6  1  0
  6  7  2  0
  6 32  1  0
  7  8  1  0
  8  9  2  0
  9 10  1  0
  9 31  1  0
 10 11  1  0
 11 12  2  0
 11 16  1  0
 12 13  1  0
 13 14  2  0
 13 21  1  0
 14 15  1  0
 15 16  2  0
 15 20  1  0
 16 17  1  0
 17 18  2  0
 18 19  1  0
 18 20  1  0
 21 22  2  0
 21 23  1  0
 23 24  1  0
 24 25  2  0
 24 30  1  0
 25 26  1  0
 26 27  2  0
 27 28  1  0
 27 29  1  0
 29 30  2  0
 31 32  2  0
M  END
>  <DRUGBANK_ID>  (1) 
DB15009

>  <COMMON_NAME>  (1) 
PF-04937319

>  <CAS_NUMBER>  (1) 
1245603-92-2

>  <UNII>  (1) 
7E99B9ZM19

$$$$
