
     RDKit          3D

 16 17  0  0  0  0  0  0  0  0999 V2000
    0.9296    0.0097   -0.0622 C   0  0  0  0  0  0  0  0  0  0  0  0
    0.0975    0.1642   -1.0507 N   0  0  0  0  0  0  0  0  0  0  0  0
    0.3689   -0.2861    1.1400 N   0  0  0  0  0  0  0  0  0  0  0  0
    2.2934    0.0132   -0.1471 N   0  0  0  0  0  0  0  0  0  0  0  0
    3.4137    1.4946   -3.3646 C   0  0  0  0  0  0  0  0  0  0  0  0
    4.4764    0.6549   -3.6812 C   0  0  0  0  0  0  0  0  0  0  0  0
    4.8441   -0.3632   -2.8029 C   0  0  0  0  0  0  0  0  0  0  0  0
    4.1649   -0.5238   -1.5923 C   0  0  0  0  0  0  0  0  0  0  0  0
    3.0825    0.3047   -1.2698 C   0  0  0  0  0  0  0  0  0  0  0  0
    2.7323    1.3249   -2.1622 C   0  0  0  0  0  0  0  0  0  0  0  0
    0.9332   -0.3364    2.4197 C   0  0  0  0  0  0  0  0  0  0  0  0
    1.9936    0.4949    2.7932 C   0  0  0  0  0  0  0  0  0  0  0  0
    2.6072    0.3655    4.0362 C   0  0  0  0  0  0  0  0  0  0  0  0
    2.1339   -0.5733    4.9466 C   0  0  0  0  0  0  0  0  0  0  0  0
    1.0512   -1.3836    4.6102 C   0  0  0  0  0  0  0  0  0  0  0  0
    0.4748   -1.2881    3.3407 C   0  0  0  0  0  0  0  0  0  0  0  0
  2  1  2  0
  3  1  1  0
  3 11  1  0
  4  1  1  0
  6  5  2  0
  7  6  1  0
  8  7  2  0
  9  4  1  0
  9  8  1  0
 10  5  1  0
 10  9  2  0
 11 12  2  0
 12 13  1  0
 13 14  2  0
 14 15  1  0
 15 16  2  0
 16 11  1  0
M  END
>  <DRUGBANK_ID>  (1) 
DB14191

>  <COMMON_NAME>  (1) 
Diphenylguanidine

>  <CAS_NUMBER>  (1) 
102-06-7

>  <UNII>  (1) 
6MRZ85RNHQ

>  <SYNONYMS>  (1) 
1,3-diphenylguanidine; DPG; DPG vulcanizer; Melaniline; N,N'-diphenylguanidine; s-Diphenylguanidine

$$$$
