
     RDKit          3D

 22 23  0  0  1  0  0  0  0  0999 V2000
    1.7702    1.2187   -0.8039 C   0  0  0  0  0  0  0  0  0  0  0  0
    1.2924    0.4201    0.4156 C   0  0  2  0  0  0  0  0  0  0  0  0
    1.3841   -1.1315    0.1371 C   0  0  0  0  0  0  0  0  0  0  0  0
    0.2311   -1.7262   -0.6749 C   0  0  0  0  0  0  0  0  0  0  0  0
   -1.0393   -1.3919    0.0493 C   0  0  0  0  0  0  0  0  0  0  0  0
   -1.0915    0.1089    0.1752 C   0  0  1  0  0  0  0  0  0  0  0  0
   -0.0608    0.8102    0.9064 N   0  0  0  0  0  0  0  0  0  0  0  0
   -0.3487    2.2514    1.0705 N   0  0  0  0  0  0  0  0  0  0  0  0
   -1.4727    3.0498    0.6395 C   0  0  0  0  0  0  0  0  0  0  0  0
   -1.2946    4.2681    0.5406 O   0  0  0  0  0  0  0  0  0  0  0  0
   -2.8488    2.5176    0.1636 C   0  0  0  0  0  0  0  0  0  0  0  0
   -3.5287    1.5159    0.8591 C   0  0  0  0  0  0  0  0  0  0  0  0
   -4.3723    0.6225    0.1605 C   0  0  0  0  0  0  0  0  0  0  0  0
   -4.7738    0.8537   -1.1623 C   0  0  0  0  0  0  0  0  0  0  0  0
   -4.2874    1.9864   -1.8166 C   0  0  0  0  0  0  0  0  0  0  0  0
   -3.3059    2.8057   -1.1599 C   0  0  0  0  0  0  0  0  0  0  0  0
   -4.7580    2.4471   -3.4709 S   0  0  0  0  0  0  0  0  0  0  0  0
   -5.3362    3.7508   -3.3785 O   0  0  0  0  0  0  0  0  0  0  0  0
   -3.6439    2.1573   -4.3685 O   0  0  0  0  0  0  0  0  0  0  0  0
   -6.0145    1.4529   -3.9601 N   0  0  0  0  0  0  0  0  0  0  0  0
   -5.7839   -0.3794   -1.8269 Cl  0  0  0  0  0  0  0  0  0  0  0  0
   -1.2756    0.6916   -1.2324 C   0  0  0  0  0  0  0  0  0  0  0  0
  2  1  1  6
  2  3  1  0
  2  7  1  0
  3  4  1  0
  4  5  1  0
  5  6  1  0
  6  7  1  0
  6 22  1  6
  7  8  1  0
  8  9  1  0
  9 10  2  0
  9 11  1  0
 11 12  2  0
 11 16  1  0
 12 13  1  0
 13 14  2  0
 14 15  1  0
 14 21  1  0
 15 16  2  0
 15 17  1  0
 17 18  2  0
 17 19  2  0
 17 20  1  0
M  END
>  <DRUGBANK_ID>  (1) 
DB13792

>  <COMMON_NAME>  (1) 
Clopamide

>  <CAS_NUMBER>  (1) 
636-54-4

>  <UNII>  (1) 
17S83WON0I

>  <SYNONYMS>  (1) 
Clopamide

$$$$
