
     RDKit          3D

 42 43  0  0  1  0  0  0  0  0999 V2000
   -1.0665   -5.8425    3.6988 C   0  0  0  0  0  0  0  0  0  0  0  0
    0.6584    1.1399   -1.0932 C   0  0  0  0  0  0  0  0  0  0  0  0
    0.6251   -0.0716   -4.3303 C   0  0  0  0  0  0  0  0  0  0  0  0
   -0.3857   -0.6860    0.4986 C   0  0  0  0  0  0  0  0  0  0  0  0
    1.1654   -2.1890    3.1110 C   0  0  0  0  0  0  0  0  0  0  0  0
   -1.2076   -5.7448   -0.3954 C   0  0  0  0  0  0  0  0  0  0  0  0
   -1.1006   -0.6224    3.5905 C   0  0  0  0  0  0  0  0  0  0  0  0
   -0.8368   -5.5989    2.4280 C   0  0  0  0  0  0  0  0  0  0  0  0
   -0.8842   -2.6391   -2.9969 C   0  0  0  0  0  0  0  0  0  0  0  0
   -1.0460   -0.6546   -2.5706 C   0  0  0  0  0  0  0  0  0  0  0  0
   -0.2944   -4.0491   -2.1149 C   0  0  0  0  0  0  0  0  0  0  0  0
   -1.5755   -4.3767    1.7490 C   0  0  0  0  0  0  0  0  0  0  0  0
    2.3502   -2.0706   -0.4425 C   0  0  0  0  0  0  0  0  0  0  0  0
    1.3110    0.6460    1.3339 C   0  0  0  0  0  0  0  0  0  0  0  0
   -1.3133   -2.1485    1.8177 C   0  0  0  0  0  0  0  0  0  0  0  0
    0.7993   -1.3759   -2.1821 C   0  0  0  0  0  0  0  0  0  0  0  0
    1.8349   -0.1009   -0.1529 C   0  0  2  0  0  0  0  0  0  0  0  0
   -0.7416    0.0709   -3.6804 C   0  0  0  0  0  0  0  0  0  0  0  0
   -1.6894   -0.9566    0.8291 C   0  0  1  0  0  0  0  0  0  0  0  0
    0.1336   -2.8270    2.3572 C   0  0  0  0  0  0  0  0  0  0  0  0
    1.3936   -2.8646   -0.9760 C   0  0  0  0  0  0  0  0  0  0  0  0
    1.8956   -1.5669   -2.8913 C   0  0  0  0  0  0  0  0  0  0  0  0
   -0.6109   -2.1719   -1.1025 C   0  0  0  0  0  0  0  0  0  0  0  0
    0.8665   -4.7064   -0.5883 C   0  0  1  0  0  0  0  0  0  0  0  0
   -0.3222    0.9762    2.0186 C   0  0  1  0  0  0  0  0  0  0  0  0
    0.1291   -2.8682   -0.2355 C   0  0  0  0  0  0  0  0  0  0  0  0
   -1.7201    0.5136    1.1765 C   0  0  2  0  0  0  0  0  0  0  0  0
    2.2596   -2.8046   -2.4086 C   0  0  0  0  0  0  0  0  0  0  0  0
    1.6112   -3.5349    1.1936 C   0  0  1  0  0  0  0  0  0  0  0  0
    0.6251   -0.0716   -4.3303 C   0  0  0  0  0  0  0  0  0  0  0  0
    4.0882   -1.2784    0.3205 C   0  0  0  0  0  0  0  0  0  0  0  0
    4.3944   -1.5135   -0.9597 N   0  0  0  0  0  0  0  0  0  0  0  0
   -0.4962   -3.8704    0.7866 N   0  0  0  0  0  0  0  0  0  0  0  0
    2.0701   -0.9497   -4.0438 N   0  0  0  0  0  0  0  0  0  0  0  0
   -1.8478   -2.3323   -1.1407 O   0  0  0  0  0  0  0  0  0  0  0  0
   -3.0134    0.6328    1.7139 O   0  0  0  0  0  0  0  0  0  0  0  0
    3.2618   -3.4229   -2.7162 O   0  0  0  0  0  0  0  0  0  0  0  0
    1.1728    0.8051   -5.8170 O   0  0  0  0  0  0  0  0  0  0  0  0
    4.1740    0.0547    0.4860 O   0  0  0  0  0  0  0  0  0  0  0  0
    0.1958   -5.9690   -0.6196 O   0  0  0  0  0  0  0  0  0  0  0  0
   -0.3112    0.5165    3.4548 O   0  0  0  0  0  0  0  0  0  0  0  0
    3.0190   -2.2307    1.3392 O   0  0  0  0  0  0  0  0  0  0  0  0
  8  1  2  0
 10  9  1  0
 11  9  2  0
 12  8  1  0
 17 13  1  0
 17 14  1  0
 17  2  1  6
 18  3  1  0
 18 10  2  0
 19 15  1  0
 19  4  1  6
 20  5  1  0
 20 15  2  0
 21 13  1  0
 22 16  2  0
 23 16  1  0
 24 11  1  0
 24 40  1  1
 25 14  1  0
 25 41  1  1
 26 21  2  0
 26 23  1  0
 27 19  1  0
 27 25  1  0
 27 36  1  1
 28 21  1  0
 28 22  1  0
 29 20  1  0
 29 24  1  0
 29 42  1  6
 30 18  1  0
 32 31  2  0
 33 12  1  0
 33 26  1  0
 34 22  1  0
 34 30  2  3
 35 23  2  0
 37 28  2  0
 38 30  1  0
 39 31  1  0
 40  6  1  0
 41  7  1  0
 42 31  1  0
M  END
>  <DRUGBANK_ID>  (1) 
DB05134

>  <SECONDARY_ACCESSION_NUMBERS>  (1) 
DB06398

>  <COMMON_NAME>  (1) 
Tanespimycin

>  <CAS_NUMBER>  (1) 
75747-14-7

>  <UNII>  (1) 
4GY0AVT3L4

>  <SYNONYMS>  (1) 
17-allylamino-17-demethoxygeldanamycin; 17-allylamino-17-demethoxygeldanamycin (17-AGG); 17AAG; Tanespimycin; tanespimycina

$$$$
