
     RDKit          3D

 33 37  0  0  0  0  0  0  0  0999 V2000
    1.0436    1.4716   -0.0068 C   0  0  0  0  0  0  0  0  0  0  0  0
    2.3511    0.9689   -0.0095 C   0  0  0  0  0  0  0  0  0  0  0  0
    2.5949   -0.4013   -0.0008 C   0  0  0  0  0  0  0  0  0  0  0  0
    1.5314   -1.3044    0.0170 C   0  0  0  0  0  0  0  0  0  0  0  0
    0.2098   -0.8210    0.0305 C   0  0  0  0  0  0  0  0  0  0  0  0
   -0.0191    0.5543    0.0104 C   0  0  0  0  0  0  0  0  0  0  0  0
   -1.7229    0.8374    0.0066 S   0  0  0  0  0  0  0  0  0  0  0  0
   -2.0081   -0.8567    0.0234 C   0  0  0  0  0  0  0  0  0  0  0  0
   -0.9221   -1.6029    0.0619 N   0  0  0  0  0  0  0  0  0  0  0  0
   -3.4044   -1.4296   -0.0585 C   0  0  0  0  0  0  0  0  0  0  0  0
   -3.5466   -2.2901   -1.3058 C   0  0  0  0  0  0  0  0  0  0  0  0
   -3.6304   -2.2970    1.1690 C   0  0  0  0  0  0  0  0  0  0  0  0
   -3.8179   -3.0166    2.1874 N   0  0  0  0  0  0  0  0  0  0  0  0
   -2.7481   -3.4072   -1.4890 C   0  0  0  0  0  0  0  0  0  0  0  0
   -4.4468   -1.9009   -2.2502 N   0  0  0  0  0  0  0  0  0  0  0  0
   -4.5185   -2.6620   -3.3500 C   0  0  0  0  0  0  0  0  0  0  0  0
   -3.7949   -3.7570   -3.5997 N   0  0  0  0  0  0  0  0  0  0  0  0
   -2.8894   -4.0931   -2.6558 C   0  0  0  0  0  0  0  0  0  0  0  0
   -5.4071   -2.1977   -4.3064 O   0  0  0  0  0  0  0  0  0  0  0  0
   -5.4960   -3.0050   -5.4816 C   0  0  0  0  0  0  0  0  0  0  0  0
   -4.2967   -2.9105   -6.4031 C   0  0  0  0  0  0  0  0  0  0  0  0
   -3.6649   -1.6881   -6.6545 C   0  0  0  0  0  0  0  0  0  0  0  0
   -2.4334   -1.6482   -7.3264 C   0  0  0  0  0  0  0  0  0  0  0  0
   -1.8446   -2.8228   -7.8226 C   0  0  0  0  0  0  0  0  0  0  0  0
   -2.6368   -3.9896   -7.8235 C   0  0  0  0  0  0  0  0  0  0  0  0
   -3.7823   -4.0590   -7.0083 C   0  0  0  0  0  0  0  0  0  0  0  0
   -0.3437   -2.8508   -8.1645 C   0  0  0  0  0  0  0  0  0  0  0  0
    0.6674   -3.4349   -7.2214 N   0  0  0  0  0  0  0  0  0  0  0  0
    0.8772   -2.7093   -5.9439 C   0  0  0  0  0  0  0  0  0  0  0  0
    0.4615   -4.8616   -6.8964 C   0  0  0  0  0  0  0  0  0  0  0  0
   -0.6255   -5.0215   -5.8233 C   0  0  0  0  0  0  0  0  0  0  0  0
   -0.3825   -4.2872   -4.6195 O   0  0  0  0  0  0  0  0  0  0  0  0
   -0.2721   -2.8825   -4.9474 C   0  0  0  0  0  0  0  0  0  0  0  0
  1  2  2  0
  1  6  1  0
  2  3  1  0
  3  4  2  0
  4  5  1  0
  5  6  2  0
  7  6  1  0
  7  8  1  0
  8  9  2  0
  8 10  1  0
  9  5  1  0
 10 11  1  0
 10 12  1  0
 11 15  1  0
 12 13  3  0
 14 11  2  0
 14 18  1  0
 15 16  2  0
 16 17  1  0
 16 19  1  0
 17 18  2  0
 19 20  1  0
 20 21  1  0
 21 22  2  0
 21 26  1  0
 22 23  1  0
 23 24  2  0
 24 25  1  0
 24 27  1  0
 25 26  2  0
 27 28  1  0
 28 30  1  0
 29 28  1  0
 29 33  1  0
 30 31  1  0
 31 32  1  0
 32 33  1  0
M  END
>  <DRUGBANK_ID>  (1) 
DB16851

>  <COMMON_NAME>  (1) 
Bentamapimod

>  <CAS_NUMBER>  (1) 
848344-36-5

>  <UNII>  (1) 
TT3L4B4U0N

>  <SYNONYMS>  (1) 
Bentamapimod

$$$$
