3783
     RDKit          3D

 13 13  0  0  0  0  0  0  0  0999 V2000
    1.0051    0.0240   -0.0521 O   0  0  0  0  0  0  0  0  0  0  0  0
   -3.4924   -4.4087    4.4007 O   0  0  0  0  0  0  0  0  0  0  0  0
   -2.0013   -2.8824    3.6569 N   0  0  0  0  0  0  0  0  0  0  0  0
   -1.2435   -2.1097    2.7429 C   0  0  0  0  0  0  0  0  0  0  0  0
    0.3965   -0.7048    0.9218 C   0  0  0  0  0  0  0  0  0  0  0  0
   -0.1708   -1.3339    3.2045 C   0  0  0  0  0  0  0  0  0  0  0  0
   -1.4859   -2.0967    1.3726 C   0  0  0  0  0  0  0  0  0  0  0  0
    0.6382   -0.6180    2.2928 C   0  0  0  0  0  0  0  0  0  0  0  0
   -0.6524   -1.4675    0.4670 C   0  0  0  0  0  0  0  0  0  0  0  0
    2.4230   -0.0319   -0.0394 C   0  0  0  0  0  0  0  0  0  0  0  0
    2.9040    0.7491   -1.2498 C   0  0  0  0  0  0  0  0  0  0  0  0
   -3.0261   -3.7746    3.4440 C   0  0  0  0  0  0  0  0  0  0  0  0
   -3.5854   -3.9868    2.0667 C   0  0  0  0  0  0  0  0  0  0  0  0
  1  5  1  0
  1 10  1  0
  2 12  2  0
  3  4  1  0
  3 12  1  0
  4  6  2  0
  4  7  1  0
  5  8  2  0
  5  9  1  0
  6  8  1  0
  7  9  2  0
 10 11  1  0
 12 13  1  0
M  END
>  <DRUGBANK_ID>  (1) 
DB03783

>  <SECONDARY_ACCESSION_NUMBERS>  (1) 
EXPT03306; DB08243

>  <COMMON_NAME>  (1) 
Phenacetin

>  <CAS_NUMBER>  (1) 
62-44-2

>  <UNII>  (1) 
ER0CTH01H9

>  <SYNONYMS>  (1) 
Acetophenetidin; Acetophenetidine; Acetophenetin; Acetphenetidin; Fenacetina; Phenacetin

$$$$
