
     RDKit          3D

 30 31  0  0  0  0  0  0  0  0999 V2000
   -1.3762    1.4589    0.0255 C   0  0  0  0  0  0  0  0  0  0  0  0
   -2.5660    0.7435    0.0438 C   0  0  0  0  0  0  0  0  0  0  0  0
   -2.5461   -0.6393    0.2069 C   0  0  0  0  0  0  0  0  0  0  0  0
   -1.3419   -1.3436    0.4080 C   0  0  0  0  0  0  0  0  0  0  0  0
   -0.1570   -0.5698    0.5892 C   0  0  0  0  0  0  0  0  0  0  0  0
   -0.1719    0.8075    0.2810 C   0  0  0  0  0  0  0  0  0  0  0  0
    1.2779    1.7398    0.0703 Cl  0  0  0  0  0  0  0  0  0  0  0  0
    1.3714   -1.2882    1.0323 Cl  0  0  0  0  0  0  0  0  0  0  0  0
   -1.3771   -2.8800    0.1270 C   0  0  0  0  0  0  0  0  0  0  0  0
   -1.9871   -3.1480   -1.3468 C   0  0  0  0  0  0  0  0  0  0  0  0
   -1.3308   -2.9177   -2.6858 C   0  0  0  0  0  0  0  0  0  0  0  0
   -0.0101   -2.7089   -2.8725 O   0  0  0  0  0  0  0  0  0  0  0  0
    0.8149   -2.3169   -1.8157 C   0  0  0  0  0  0  0  0  0  0  0  0
   -1.9820   -2.9507   -3.7271 O   0  0  0  0  0  0  0  0  0  0  0  0
   -3.2866   -3.5555   -1.3969 C   0  0  0  0  0  0  0  0  0  0  0  0
   -3.9723   -3.7245   -0.2289 N   0  0  0  0  0  0  0  0  0  0  0  0
   -3.3754   -4.1048    0.9271 C   0  0  0  0  0  0  0  0  0  0  0  0
   -2.1171   -3.7094    1.2662 C   0  0  0  0  0  0  0  0  0  0  0  0
   -4.2197   -3.8737   -2.5398 C   0  0  0  0  0  0  0  0  0  0  0  0
   -4.3153   -5.0184    1.5966 C   0  0  0  0  0  0  0  0  0  0  0  0
   -1.2067   -3.9864    2.4659 C   0  0  0  0  0  0  0  0  0  0  0  0
   -1.5160   -4.6309    3.6225 O   0  0  0  0  0  0  0  0  0  0  0  0
   -2.7156   -5.2868    4.0201 C   0  0  0  0  0  0  0  0  0  0  0  0
   -3.8839   -4.4297    3.9921 O   0  0  0  0  0  0  0  0  0  0  0  0
   -3.9270   -3.2158    4.5471 C   0  0  0  0  0  0  0  0  0  0  0  0
   -3.0511   -3.0706    5.7369 C   0  0  0  0  0  0  0  0  0  0  0  0
   -2.1502   -1.8633    5.6516 C   0  0  0  0  0  0  0  0  0  0  0  0
   -2.9525   -0.5809    5.7123 C   0  0  0  0  0  0  0  0  0  0  0  0
   -4.7473   -2.3575    4.1642 O   0  0  0  0  0  0  0  0  0  0  0  0
   -0.0484   -3.5655    2.4171 O   0  0  0  0  0  0  0  0  0  0  0  0
  1  2  2  0
  1  6  1  0
  2  3  1  0
  3  4  2  0
  4  5  1  0
  4  9  1  0
  5  6  2  0
  5  8  1  0
  6  7  1  0
  9 10  1  0
  9 18  1  0
 10 11  1  0
 10 15  2  0
 11 12  1  0
 11 14  2  0
 12 13  1  0
 15 16  1  0
 15 19  1  0
 16 17  1  0
 17 18  2  0
 17 20  1  0
 18 21  1  0
 21 22  1  0
 21 30  2  0
 22 23  1  0
 23 24  1  0
 24 25  1  0
 25 26  1  0
 25 29  2  0
 26 27  1  0
 27 28  1  0
M  END
>  <DRUGBANK_ID>  (1) 
DB04920

>  <COMMON_NAME>  (1) 
Clevidipine

>  <CAS_NUMBER>  (1) 
167221-71-8

>  <UNII>  (1) 
19O2GP3B7Q

>  <SYNONYMS>  (1) 
Clevidipine; Clevidipine butyrate; Clevidipino

$$$$
