
     RDKit          3D

 15 15  0  0  1  0  0  0  0  0999 V2000
    0.9629    0.0027    0.2759 N   0  0  0  0  0  0  0  0  0  0  0  0
    0.4114    1.3382    0.5591 C   0  0  1  0  0  0  0  0  0  0  0  0
    0.9163    2.4397   -0.3993 C   0  0  0  0  0  0  0  0  0  0  0  0
    0.4909    2.2398   -1.8114 C   0  0  0  0  0  0  0  0  0  0  0  0
    0.4220    1.0765   -2.5587 C   0  0  0  0  0  0  0  0  0  0  0  0
   -0.1031    1.3845   -3.7739 N   0  0  0  0  0  0  0  0  0  0  0  0
   -0.2395    2.7095   -3.8790 C   0  0  0  0  0  0  0  0  0  0  0  0
    0.0493    3.2332   -2.6844 N   0  0  0  0  0  0  0  0  0  0  0  0
    0.0192    4.9792   -2.3394 P   0  0  0  0  0  0  0  0  0  0  0  0
    1.6434    4.8151   -2.4258 O   0  0  0  0  0  0  0  0  0  0  0  0
   -0.3149    5.1824   -3.9304 O   0  0  0  0  0  0  0  0  0  0  0  0
   -0.0070    6.4980   -2.0393 O   0  0  0  0  0  0  0  0  0  0  0  0
   -1.1268    1.3069    0.5190 C   0  0  0  0  0  0  0  0  0  0  0  0
   -1.7455    1.5239    1.6889 O   0  0  0  0  0  0  0  0  0  0  0  0
   -1.7618    1.1505   -0.5276 O   0  0  0  0  0  0  0  0  0  0  0  0
  2  1  1  6
  2  3  1  0
  2 13  1  0
  3  4  1  0
  4  5  2  0
  4  8  1  0
  5  6  1  0
  6  7  2  0
  7  8  1  0
  8  9  1  0
  9 10  1  0
  9 11  1  0
  9 12  2  0
 13 14  1  0
 13 15  2  0
M  CHG  1   6   1
M  END
>  <DRUGBANK_ID>  (1) 
DB01899

>  <SECONDARY_ACCESSION_NUMBERS>  (1) 
EXPT01752

>  <COMMON_NAME>  (1) 
Nd1-Phosphonohistidine

$$$$
