2DD
     RDKit          3D

 28 30  0  0  0  0  0  0  0  0999 V2000
    2.4411    0.4927   -0.0079 Cl  0  0  0  0  0  0  0  0  0  0  0  0
    0.7532    0.3457   -0.3470 C   0  0  0  0  0  0  0  0  0  0  0  0
    0.1558   -0.9167   -0.3596 C   0  0  0  0  0  0  0  0  0  0  0  0
   -1.2242   -1.0357   -0.5051 C   0  0  0  0  0  0  0  0  0  0  0  0
   -2.0178    0.1129   -0.6609 C   0  0  0  0  0  0  0  0  0  0  0  0
   -3.3712   -0.0971   -0.5108 O   0  0  0  0  0  0  0  0  0  0  0  0
    0.8605   -2.0634   -0.1020 O   0  0  0  0  0  0  0  0  0  0  0  0
   -0.0389    1.5041   -0.4490 C   0  0  0  0  0  0  0  0  0  0  0  0
   -1.4464    1.4093   -0.5944 C   0  0  0  0  0  0  0  0  0  0  0  0
   -2.2827    2.5897   -0.2359 C   0  0  0  0  0  0  0  0  0  0  0  0
   -2.3048    3.6564   -1.1010 N   0  0  0  0  0  0  0  0  0  0  0  0
   -3.1497    4.6287   -0.7582 N   0  0  0  0  0  0  0  0  0  0  0  0
   -3.6503    4.2123    0.4033 C   0  0  0  0  0  0  0  0  0  0  0  0
   -3.1247    2.9557    0.8467 C   0  0  0  0  0  0  0  0  0  0  0  0
   -3.5544    2.3733    2.1625 C   0  0  0  0  0  0  0  0  0  0  0  0
   -4.4475    2.9174    2.8121 O   0  0  0  0  0  0  0  0  0  0  0  0
   -3.0149    1.2385    2.7394 N   0  0  0  0  0  0  0  0  0  0  0  0
   -2.0211    0.4128    2.1823 C   0  0  0  0  0  0  0  0  0  0  0  0
   -0.6810    0.3311    2.7948 C   0  0  0  0  0  0  0  0  0  0  0  0
    0.0651    1.4999    3.0065 C   0  0  0  0  0  0  0  0  0  0  0  0
    1.3091    1.4154    3.5987 C   0  0  0  0  0  0  0  0  0  0  0  0
   -0.1008   -0.9241    2.9586 C   0  0  0  0  0  0  0  0  0  0  0  0
    1.1134   -1.0182    3.6003 C   0  0  0  0  0  0  0  0  0  0  0  0
    1.8026    0.1525    3.9299 C   0  0  0  0  0  0  0  0  0  0  0  0
    3.3289   -0.0469    4.7723 S   0  0  0  0  0  0  0  0  0  0  0  0
    3.0234   -0.5591    6.0967 O   0  0  0  0  0  0  0  0  0  0  0  0
    4.2462   -0.6944    3.8797 O   0  0  0  0  0  0  0  0  0  0  0  0
    3.8873    1.5220    5.0169 N   0  0  0  0  0  0  0  0  0  0  0  0
  1  2  1  0
  2  3  2  0
  2  8  1  0
  3  4  1  0
  3  7  1  0
  4  5  2  0
  5  6  1  0
  5  9  1  0
  8  9  2  0
  9 10  1  0
 10 11  1  0
 10 14  2  0
 11 12  1  0
 12 13  2  0
 13 14  1  0
 14 15  1  0
 15 16  2  0
 15 17  1  0
 17 18  1  0
 18 19  1  0
 19 20  2  0
 19 22  1  0
 20 21  1  0
 21 24  2  0
 22 23  2  0
 23 24  1  0
 24 25  1  0
 25 26  2  0
 25 27  2  0
 25 28  1  0
M  END
>  <DRUGBANK_ID>  (1) 
DB04588

>  <COMMON_NAME>  (1) 
N-[4-(AMINOSULFONYL)BENZYL]-5-(5-CHLORO-2,4-DIHYDROXYPHENYL)-1H-PYRAZOLE-4-CARBOXAMIDE

$$$$
