
     RDKit          3D

 21 21  0  0  0  0  0  0  0  0999 V2000
    0.8760    0.0216   -0.0633 C   0  0  0  0  0  0  0  0  0  0  0  0
    0.2998   -0.2774    1.3261 C   0  0  0  0  0  0  0  0  0  0  0  0
    0.8853    0.7355    2.3268 C   0  0  0  0  0  0  0  0  0  0  0  0
   -1.2172   -0.2469    1.3304 C   0  0  0  0  0  0  0  0  0  0  0  0
    0.6441   -1.6905    1.7069 N   0  0  0  0  0  0  0  0  0  0  0  0
    0.9985   -2.5186    0.7969 O   0  0  0  0  0  0  0  0  0  0  0  0
    0.5383   -2.1278    2.9428 C   0  0  0  0  0  0  0  0  0  0  0  0
    1.0977   -3.4056    3.3798 C   0  0  0  0  0  0  0  0  0  0  0  0
    2.4377   -3.7653    3.1842 C   0  0  0  0  0  0  0  0  0  0  0  0
    2.9384   -4.9259    3.8055 C   0  0  0  0  0  0  0  0  0  0  0  0
    2.0977   -5.7119    4.6055 C   0  0  0  0  0  0  0  0  0  0  0  0
    0.7738   -5.3311    4.8348 C   0  0  0  0  0  0  0  0  0  0  0  0
    0.2660   -4.1991    4.1896 C   0  0  0  0  0  0  0  0  0  0  0  0
    2.6586   -7.2797    5.2485 S   0  0  0  0  0  0  0  0  0  0  0  0
    2.4742   -7.1258    6.8465 O   0  0  0  0  0  0  0  0  0  0  0  0
    1.7325   -8.2863    4.7835 O   0  0  0  0  0  0  0  0  0  0  0  0
    4.0826   -7.3657    5.0118 O   0  0  0  0  0  0  0  0  0  0  0  0
    3.6033   -2.8155    2.2127 S   0  0  0  0  0  0  0  0  0  0  0  0
    4.7944   -2.5825    3.2702 O   0  0  0  0  0  0  0  0  0  0  0  0
    4.0976   -3.6680    1.1507 O   0  0  0  0  0  0  0  0  0  0  0  0
    3.1685   -1.4572    2.0072 O   0  0  0  0  0  0  0  0  0  0  0  0
  1  2  1  0
  2  3  1  0
  2  4  1  0
  2  5  1  0
  5  6  1  0
  5  7  2  0
  7  8  1  0
  8  9  2  0
  8 13  1  0
  9 10  1  0
  9 18  1  0
 10 11  2  0
 11 12  1  0
 11 14  1  0
 12 13  2  0
 14 15  1  0
 14 16  2  0
 14 17  2  0
 18 19  1  0
 18 20  2  0
 18 21  2  0
M  CHG  2   5   1   6  -1
M  END
>  <DRUGBANK_ID>  (1) 
DB17298

>  <COMMON_NAME>  (1) 
Disufenton

>  <CAS_NUMBER>  (1) 
168021-77-0

>  <UNII>  (1) 
797K01YF1M

>  <SYNONYMS>  (1) 
1,3-benzenedisulfonic acid, 4-(((1,1-dimethylethyl)oxidoimino)methyl)-; 2,4-disulfonyl-.alpha.-phenyl-tert-butylnitrone; 4-(((1,1-dimethylethyl)imino)methyl)benzene-1,3-disulfonate n-oxide; 4-(((1,1-dimethylethyl)imino)methyl)benzene-1,3-disulphonate n-oxide; 4-(((1,1-dimethylethyl)oxidoimino)methyl)-1,3-benzenedisulfonic acid; 4-tert-butyliminomethyl)benzene-,3-disulfonate n-oxide; 4-tert-butyliminomethyl)benzene-,3-disulphonate n-oxide

$$$$
