
     RDKit          3D

 14 14  0  0  0  0  0  0  0  0999 V2000
    0.9418   -0.0031   -0.0342 S   0  0  0  0  0  0  0  0  0  0  0  0
    0.3723   -1.3445   -0.7653 O   0  0  0  0  0  0  0  0  0  0  0  0
    0.2867   -0.1071    1.4376 O   0  0  0  0  0  0  0  0  0  0  0  0
    0.3735    1.1630   -0.6782 O   0  0  0  0  0  0  0  0  0  0  0  0
    2.3633   -0.1412    0.1868 O   0  0  0  0  0  0  0  0  0  0  0  0
    0.2718   -4.9173   -6.1889 N   0  0  0  0  0  0  0  0  0  0  0  0
    1.7965   -2.9350   -6.0466 C   0  0  0  0  0  0  0  0  0  0  0  0
    1.4247   -2.5125   -4.6414 C   0  0  0  0  0  0  0  0  0  0  0  0
    1.6482   -4.4393   -6.3244 C   0  0  0  0  0  0  0  0  0  0  0  0
    2.3972   -1.9778   -3.7955 C   0  0  0  0  0  0  0  0  0  0  0  0
    0.1043   -2.5936   -4.1711 C   0  0  0  0  0  0  0  0  0  0  0  0
    0.7491   -1.6570   -2.0459 C   0  0  0  0  0  0  0  0  0  0  0  0
    2.0600   -1.5496   -2.5103 C   0  0  0  0  0  0  0  0  0  0  0  0
   -0.2332   -2.1773   -2.8830 C   0  0  0  0  0  0  0  0  0  0  0  0
  1  2  1  0
  1  3  1  0
  1  4  2  0
  1  5  2  0
  2 12  1  0
  6  9  1  0
  7  8  1  0
  7  9  1  0
  8 10  2  0
  8 11  1  0
 10 13  1  0
 11 14  2  0
 12 13  2  0
 12 14  1  0
M  END
>  <DRUGBANK_ID>  (1) 
DB14630

>  <SECONDARY_ACCESSION_NUMBERS>  (1) 
DBSALT002212

>  <COMMON_NAME>  (1) 
Tyramine O-sulfate

>  <CAS_NUMBER>  (1) 
30223-92-8

>  <UNII>  (1) 
SIA20BP28W

>  <SYNONYMS>  (1) 
Tyramine sulfate

$$$$
