
     RDKit          3D

 33 37  0  0  1  0  0  0  0  0999 V2000
   -5.3084    9.3528   -1.0610 C   0  0  0  0  0  0  0  0  0  0  0  0
    3.5951    9.2993   11.9292 C   0  0  0  0  0  0  0  0  0  0  0  0
    1.2316    9.3714   12.7605 C   0  0  0  0  0  0  0  0  0  0  0  0
    2.6148    7.3304   13.0909 C   0  0  0  0  0  0  0  0  0  0  0  0
   -3.9489    9.1229   -0.2477 C   0  0  0  0  0  0  0  0  0  0  0  0
    1.4272   12.7669    9.2380 C   0  0  0  0  0  0  0  0  0  0  0  0
    1.0854   13.5849    8.1914 C   0  0  0  0  0  0  0  0  0  0  0  0
    1.3263   11.4012    9.0486 C   0  0  0  0  0  0  0  0  0  0  0  0
    0.6401   13.0202    6.9813 C   0  0  0  0  0  0  0  0  0  0  0  0
   -1.5906    9.4851    3.1023 C   0  0  0  0  0  0  0  0  0  0  0  0
    1.1329    8.3935    8.7470 C   0  0  0  0  0  0  0  0  0  0  0  0
    0.0369    7.5804    5.8135 C   0  0  0  0  0  0  0  0  0  0  0  0
   -1.6895    6.0913    1.3091 C   0  0  0  0  0  0  0  0  0  0  0  0
    0.8831   10.7850    7.8334 C   0  0  0  0  0  0  0  0  0  0  0  0
    0.7738    9.3758    7.6180 C   0  0  0  0  0  0  0  0  0  0  0  0
    0.2837    8.9537    6.3555 C   0  0  0  0  0  0  0  0  0  0  0  0
   -1.5525    7.2408    2.2817 C   0  0  0  0  0  0  0  0  0  0  0  0
   -2.2622    8.4184    2.1951 C   0  0  0  0  0  0  0  0  0  0  0  0
    0.5093   11.6434    6.7577 C   0  0  0  0  0  0  0  0  0  0  0  0
   -0.8395    9.1626    4.2193 C   0  0  0  0  0  0  0  0  0  0  0  0
   -0.1262    9.8863    5.3739 C   0  0  0  0  0  0  0  0  0  0  0  0
   -0.8368    6.8464    3.5595 C   0  0  0  0  0  0  0  0  0  0  0  0
   -3.7570    6.8149    1.1298 C   0  0  0  0  0  0  0  0  0  0  0  0
    2.3064    8.4765   12.1153 C   0  0  0  0  0  0  0  0  0  0  0  0
   -3.7408    8.3615    1.1729 C   0  0  2  0  0  0  0  0  0  0  0  0
    1.5518    8.8185    9.9055 N   0  0  0  0  0  0  0  0  0  0  0  0
    0.0089   11.2092    5.5540 N   0  0  0  0  0  0  0  0  0  0  0  0
   -0.5901    7.8185    4.4781 N   0  0  0  0  0  0  0  0  0  0  0  0
   -0.5391    5.6487    3.7689 O   0  0  0  0  0  0  0  0  0  0  0  0
   -4.3217    6.1240    1.9596 O   0  0  0  0  0  0  0  0  0  0  0  0
   -5.0291    8.5130    1.8530 O   0  0  0  0  0  0  0  0  0  0  0  0
   -2.7256    6.3598    0.3705 O   0  0  0  0  0  0  0  0  0  0  0  0
    1.8488    7.8460   10.8717 O   0  0  0  0  0  0  0  0  0  0  0  0
  5  1  1  0
  7  6  2  0
  8  6  1  0
  9  7  1  0
 14  8  2  0
 15 11  1  0
 15 14  1  0
 16 12  1  0
 16 15  2  0
 17 13  1  0
 18 10  1  0
 18 17  2  0
 19  9  2  0
 19 14  1  0
 20 10  2  0
 21 16  1  0
 21 20  1  0
 22 17  1  0
 24  2  1  0
 24  3  1  0
 24  4  1  0
 25  5  1  0
 25 18  1  0
 25 23  1  0
 25 31  1  1
 26 11  2  0
 27 19  1  0
 27 21  2  0
 28 12  1  0
 28 20  1  0
 28 22  1  0
 29 22  2  0
 30 23  2  0
 32 13  1  0
 32 23  1  0
 33 24  1  0
 33 26  1  0
M  END
>  <DRUGBANK_ID>  (1) 
DB06721

>  <COMMON_NAME>  (1) 
Gimatecan

>  <CAS_NUMBER>  (1) 
292618-32-7

>  <UNII>  (1) 
7KKS9R192F

>  <SYNONYMS>  (1) 
(4S)-11-[(E)-(tert-butoxyimino)methyl]-4-ethyl-4-hydroxy-1H-pyrano[3',4':6,7]indolizino[1,2-b]quinoline-3,14(4H,12H)-dione; (4S)-4-ethyl-4-hydroxy-3,14-dioxo-3,4,12,14-tetrahydro-1-H-pyrano[3',4':6,7]-indolizino-[1,2-b]-quinoline-11-carbaldehyde O-(tert-butyl)-(E)-oxime; 1H-Pyrano[3',4':6,7]indolizino[1,2-b]quinoline-11-carboxaldehyde, 4-ethyl-3,4,12,14-tetrahydro-4-hydroxy-3,14-dioxo-, 11-[O-(1,1-dimethylethyl)oxime], (4S)-; Gimatecan

$$$$
