CR4
     RDKit          3D

 19 21  0  0  0  0  0  0  0  0999 V2000
    2.1680    0.7628   -0.0205 C   0  0  0  0  0  0  0  0  0  0  0  0
    2.1632   -0.6518   -0.0025 C   0  0  0  0  0  0  0  0  0  0  0  0
    0.9817   -1.4148    0.0126 C   0  0  0  0  0  0  0  0  0  0  0  0
   -0.2156   -0.7074   -0.0026 C   0  0  0  0  0  0  0  0  0  0  0  0
   -0.2715    0.6755   -0.0387 C   0  0  0  0  0  0  0  0  0  0  0  0
    0.9202    1.4169   -0.0254 C   0  0  0  0  0  0  0  0  0  0  0  0
    3.4357    1.5397   -0.0531 C   0  0  0  0  0  0  0  0  0  0  0  0
    3.4280    2.8622   -0.0746 N   0  0  0  0  0  0  0  0  0  0  0  0
    4.6025    0.9319   -0.0756 N   0  0  0  0  0  0  0  0  0  0  0  0
   -1.5331   -1.0859    0.0359 N   0  0  0  0  0  0  0  0  0  0  0  0
   -1.5572    1.1296   -0.1052 N   0  0  0  0  0  0  0  0  0  0  0  0
   -2.3150    0.0478   -0.0017 C   0  0  0  0  0  0  0  0  0  0  0  0
   -3.7831   -0.0307    0.0250 C   0  0  0  0  0  0  0  0  0  0  0  0
   -4.4784    0.5988   -1.0297 C   0  0  0  0  0  0  0  0  0  0  0  0
   -5.8666    0.5613   -1.0966 C   0  0  0  0  0  0  0  0  0  0  0  0
   -6.5695   -0.0987   -0.1020 C   0  0  0  0  0  0  0  0  0  0  0  0
   -5.8769   -0.7239    0.9455 C   0  0  0  0  0  0  0  0  0  0  0  0
   -4.4667   -0.7428    1.0556 C   0  0  0  0  0  0  0  0  0  0  0  0
   -3.8883   -1.3612    2.0175 O   0  0  0  0  0  0  0  0  0  0  0  0
  1  2  2  0
  1  6  1  0
  1  7  1  0
  2  3  1  0
  3  4  2  0
  4  5  1  0
  4 10  1  0
  5  6  2  0
  5 11  1  0
  7  8  1  0
  7  9  2  0
 10 12  1  0
 11 12  2  0
 12 13  1  0
 13 14  2  0
 13 18  1  0
 14 15  1  0
 15 16  2  0
 16 17  1  0
 17 18  2  0
 18 19  1  0
M  CHG  2   9   1  19  -1
M  END
>  <DRUGBANK_ID>  (1) 
DB03643

>  <SECONDARY_ACCESSION_NUMBERS>  (1) 
EXPT01013

>  <COMMON_NAME>  (1) 
CRA_1144

$$$$
