
     RDKit          3D

 18 18  0  0  0  0  0  0  0  0999 V2000
    1.0549    0.0693    0.0467 P   0  0  2  0  0  0  0  0  0  0  0  0
   -0.2435   -4.0131    0.7375 O   0  0  0  0  0  0  0  0  0  0  0  0
   -0.5456   -3.4749   -1.5173 O   0  0  0  0  0  0  0  0  0  0  0  0
    1.1284   -0.6129    1.5342 O   0  0  0  0  0  0  0  0  0  0  0  0
    1.0120    1.6533    0.2882 O   0  0  0  0  0  0  0  0  0  0  0  0
   -0.4934    0.0693    0.0467 O   0  0  0  0  0  0  0  0  0  0  0  0
   -0.2150   -2.5797    0.6635 C   0  0  2  0  0  0  0  0  0  0  0  0
   -0.1763   -4.4912   -0.6086 C   0  0  0  0  0  0  0  0  0  0  0  0
   -0.2112   -2.2898   -0.8493 C   0  0  0  0  0  0  0  0  0  0  0  0
    1.0121   -2.0405    1.4665 C   0  0  0  0  0  0  0  0  0  0  0  0
    1.2641   -4.8854   -0.9076 C   0  0  0  0  0  0  0  0  0  0  0  0
   -1.1703   -5.6004   -0.8472 C   0  0  0  0  0  0  0  0  0  0  0  0
    2.8849    0.0693    0.0467 C   0  0  0  0  0  0  0  0  0  0  0  0
    3.4650    1.4036   -0.5414 C   0  0  0  0  0  0  0  0  0  0  0  0
    3.2506    2.7152    0.2901 C   0  0  0  0  0  0  0  0  0  0  0  0
    3.5684    2.5297    1.7651 C   0  0  0  0  0  0  0  0  0  0  0  0
    5.0582    2.4865    1.8693 C   0  0  0  0  0  0  0  0  0  0  0  0
    5.7384    3.4608    2.4299 C   0  0  0  0  0  0  0  0  0  0  0  0
  1  4  1  0
  1  5  1  0
  1  6  2  0
  1 13  1  0
  2  7  1  0
  2  8  1  0
  3  8  1  0
  3  9  1  0
  4 10  1  0
  7  9  1  0
  7 10  1  6
  8 11  1  0
  8 12  1  0
 13 14  1  0
 14 15  1  0
 15 16  1  0
 16 17  1  0
 17 18  2  0
M  END
>  <DRUGBANK_ID>  (1) 
DB08548

>  <COMMON_NAME>  (1) 
[(4S)-2,2-dimethyl-1,3-dioxolan-4-yl]methyl hydrogen hex-5-enylphosphonate

$$$$
