
     RDKit          3D

 22 24  0  0  0  0  0  0  0  0999 V2000
   -0.2401    1.1168   -6.8046 S   0  0  0  0  0  0  0  0  0  0  0  0
   -6.3709    5.0790   -5.6390 O   0  0  0  0  0  0  0  0  0  0  0  0
   -2.2043    2.6332   -3.5260 N   0  0  0  0  0  0  0  0  0  0  0  0
   -5.6548    3.5962   -3.8328 C   0  0  0  0  0  0  0  0  0  0  0  0
   -5.5716    2.2474   -3.4015 C   0  0  0  0  0  0  0  0  0  0  0  0
   -3.2281    2.7610   -2.4320 C   0  0  2  0  0  0  0  0  0  0  0  0
   -4.4680    1.7951   -2.4409 C   0  0  0  0  0  0  0  0  0  0  0  0
   -6.4358    3.8769   -4.9786 C   0  0  0  0  0  0  0  0  0  0  0  0
   -4.7313    4.6550   -3.2595 C   0  0  0  0  0  0  0  0  0  0  0  0
   -3.8230    4.1514   -2.1411 C   0  0  0  0  0  0  0  0  0  0  0  0
   -6.3366    1.2513   -4.0614 C   0  0  0  0  0  0  0  0  0  0  0  0
   -7.1255    2.8722   -5.6653 C   0  0  0  0  0  0  0  0  0  0  0  0
   -1.8634    3.7669   -4.4025 C   0  0  0  0  0  0  0  0  0  0  0  0
   -7.0636    1.5559   -5.2156 C   0  0  0  0  0  0  0  0  0  0  0  0
   -2.2838    1.4093   -4.2921 C   0  0  0  0  0  0  0  0  0  0  0  0
   -0.9856    2.6946   -6.8090 C   0  0  0  0  0  0  0  0  0  0  0  0
   -0.8760    3.7371   -5.6639 C   0  0  0  0  0  0  0  0  0  0  0  0
   -1.5392    2.8317   -8.0923 C   0  0  0  0  0  0  0  0  0  0  0  0
   -3.4159    1.2407   -5.3341 C   0  0  0  0  0  0  0  0  0  0  0  0
   -1.4722    0.5213   -7.8584 C   0  0  0  0  0  0  0  0  0  0  0  0
   -1.9030    1.5417   -8.6411 C   0  0  0  0  0  0  0  0  0  0  0  0
   -3.9952    2.3738   -6.1872 C   0  0  0  0  0  0  0  0  0  0  0  0
  1 16  1  0
  1 20  1  0
  2  8  1  0
  3 13  1  0
  3 15  1  0
  4  5  2  0
  4  8  1  0
  4  9  1  0
  5  7  1  0
  5 11  1  0
  6  7  1  0
  6 10  1  0
  6  3  1  6
  8 12  2  0
  9 10  1  0
 11 14  2  0
 12 14  1  0
 13 17  1  0
 15 19  1  0
 16 17  1  0
 16 18  2  0
 18 21  1  0
 19 22  1  0
 20 21  2  0
M  END
>  <DRUGBANK_ID>  (1) 
DB05271

>  <COMMON_NAME>  (1) 
Rotigotine

>  <CAS_NUMBER>  (1) 
99755-59-6

>  <UNII>  (1) 
87T4T8BO2E

>  <SYNONYMS>  (1) 
(6S)-6-(propyl(2-(2-thienyl)ethyl)amino)-5,6,7,8-tetrahydro-1-naphthalenol; Rotigotina; Rotigotine

$$$$
