MGM
     RDKit          3D

 29 28  0  0  0  0  0  0  0  0999 V2000
    4.0262   -1.2351   10.9223 C   0  0  0  0  0  0  0  0  0  0  0  0
    5.1127   -3.2698    9.8346 C   0  0  0  0  0  0  0  0  0  0  0  0
    3.8746   -2.5646   10.2906 C   0  0  0  0  0  0  0  0  0  0  0  0
    2.6576   -3.0977   10.1221 C   0  0  0  0  0  0  0  0  0  0  0  0
    1.3129   -2.4209   10.3431 C   0  0  0  0  0  0  0  0  0  0  0  0
   -1.5748   -3.5601    8.1935 C   0  0  0  0  0  0  0  0  0  0  0  0
   -0.1492   -3.3575    8.4958 C   0  0  0  0  0  0  0  0  0  0  0  0
    0.4350   -2.0978    9.0880 C   0  0  0  0  0  0  0  0  0  0  0  0
    0.6989   -4.4117    8.3336 C   0  0  0  0  0  0  0  0  0  0  0  0
    0.5090   -5.8087    7.9186 C   0  0  0  0  0  0  0  0  0  0  0  0
    1.4816   -6.0139    6.7976 C   0  0  0  0  0  0  0  0  0  0  0  0
    3.1997   -5.9970    6.7739 C   0  0  0  0  0  0  0  0  0  0  0  0
    3.8988   -6.8897    5.7450 C   0  0  0  0  0  0  0  0  0  0  0  0
    3.9730   -4.9172    7.1801 C   0  0  0  0  0  0  0  0  0  0  0  0
    5.2748   -4.2349    6.5426 C   0  0  0  0  0  0  0  0  0  0  0  0
    5.3596   -2.7595    5.7990 C   0  0  0  0  0  0  0  0  0  0  0  0
    4.7620   -1.5129    6.3218 N   0  0  0  0  0  0  0  0  0  0  0  0
    5.2559   -0.2923    5.6753 C   0  0  0  0  0  0  0  0  0  0  0  0
    3.2982   -1.4214    6.2195 C   0  0  0  0  0  0  0  0  0  0  0  0
    2.6401   -1.6606    4.7594 C   0  0  0  0  0  0  0  0  0  0  0  0
    2.9128   -2.9121    4.0203 O   0  0  0  0  0  0  0  0  0  0  0  0
    2.9110   -4.2888    4.9386 P   0  0  0  0  0  0  0  0  0  0  0  0
    3.6270   -5.1628    3.6285 O   0  0  0  0  0  0  0  0  0  0  0  0
    1.3882   -5.0401    4.6076 O   0  0  0  0  0  0  0  0  0  0  0  0
    2.2702   -3.5065    6.1111 O   0  0  0  0  0  0  0  0  0  0  0  0
    1.5556   -6.1145    3.2621 P   0  0  0  0  0  0  0  0  0  0  0  0
    1.0631   -7.3423    4.2284 O   0  0  0  0  0  0  0  0  0  0  0  0
    0.0317   -5.6543    2.8534 O   0  0  0  0  0  0  0  0  0  0  0  0
    1.7055   -7.0762    2.0578 O   0  0  0  0  0  0  0  0  0  0  0  0
  1  3  1  0
  2  3  1  0
  3  4  2  3
  4  5  1  0
  5  8  1  0
  6  7  1  0
  7  8  1  0
  7  9  2  0
  9 10  1  0
 10 11  1  0
 11 12  1  0
 12 13  1  0
 12 14  2  0
 14 15  1  0
 15 16  1  0
 16 17  1  0
 17 18  1  0
 17 19  1  0
 19 20  1  0
 20 21  1  0
 22 24  1  0
 22 25  2  0
 22 23  1  0
 22 21  1  0
 24 26  1  0
 26 27  1  0
 26 28  1  0
 26 29  2  0
M  END
>  <DRUGBANK_ID>  (1) 
DB08180

>  <COMMON_NAME>  (1) 
2-[METHYL-(5-GERANYL-4-METHYL-PENT-3-ENYL)-AMINO]-ETHYL-DIPHOSPHATE

$$$$
