
     RDKit          3D

 34 37  0  0  1  0  0  0  0  0999 V2000
    1.3590   -0.2132    0.0186 C   0  0  0  0  0  0  0  0  0  0  0  0
    0.4769   -1.2909    0.0233 C   0  0  0  0  0  0  0  0  0  0  0  0
    0.8605    1.0878    0.0185 C   0  0  0  0  0  0  0  0  0  0  0  0
   -0.9038   -1.0674    0.0030 C   0  0  0  0  0  0  0  0  0  0  0  0
   -0.5199    1.3129    0.0383 C   0  0  0  0  0  0  0  0  0  0  0  0
   -2.9111    0.4778   -0.1826 C   0  0  0  0  0  0  0  0  0  0  0  0
   -6.9482    7.6484    1.1499 C   0  0  0  0  0  0  0  0  0  0  0  0
   -5.3462    3.9618   -0.3362 C   0  0  0  0  0  0  0  0  0  0  0  0
   -2.8479    4.7669    3.1657 C   0  0  0  0  0  0  0  0  0  0  0  0
   -1.4219    0.2386   -0.0059 C   0  0  0  0  0  0  0  0  0  0  0  0
   -6.0233    8.1564    2.3359 C   0  0  2  0  0  0  0  0  0  0  0  0
   -3.6248    3.4713    1.6511 C   0  0  0  0  0  0  0  0  0  0  0  0
   -4.7174    8.8873    1.9988 C   0  0  2  0  0  0  0  0  0  0  0  0
   -3.7436    7.7591    1.7737 C   0  0  2  0  0  0  0  0  0  0  0  0
   -3.9632    2.4363    0.7596 C   0  0  0  0  0  0  0  0  0  0  0  0
   -4.2696    4.6978    1.4599 C   0  0  0  0  0  0  0  0  0  0  0  0
   -4.1637    6.8191    2.8523 C   0  0  2  0  0  0  0  0  0  0  0  0
   -3.5088    1.1309    0.9658 N   0  0  0  0  0  0  0  0  0  0  0  0
   -4.8140    2.7203   -0.2578 N   0  0  0  0  0  0  0  0  0  0  0  0
   -5.1160    5.0118    0.4862 N   0  0  0  0  0  0  0  0  0  0  0  0
   -2.7446    3.5304    2.7053 N   0  0  0  0  0  0  0  0  0  0  0  0
   -3.8310    5.4551    2.5155 N   0  0  0  0  0  0  0  0  0  0  0  0
   -4.1462    9.8782    2.8466 O   0  0  0  0  0  0  0  0  0  0  0  0
   -2.3813    8.1903    1.8553 O   0  0  0  0  0  0  0  0  0  0  0  0
   -3.1325    8.9821   -0.3964 O   0  0  0  0  0  0  0  0  0  0  0  0
   -2.6371   10.6175   -2.0291 O   0  0  0  0  0  0  0  0  0  0  0  0
   -1.9530   10.7818    0.1938 O   0  0  0  0  0  0  0  0  0  0  0  0
   -6.4620    8.8078   -2.1315 O   0  0  0  0  0  0  0  0  0  0  0  0
   -6.4943    9.8533    0.0671 O   0  0  0  0  0  0  0  0  0  0  0  0
   -6.3420    7.4813   -0.1592 O   0  0  0  0  0  0  0  0  0  0  0  0
   -5.5763    6.9780    3.0662 O   0  0  0  0  0  0  0  0  0  0  0  0
   -4.8163   10.3519   -1.3439 O   0  0  0  0  0  0  0  0  0  0  0  0
   -3.3053   10.5788   -0.5324 P   0  0  0  0  0  0  0  0  0  0  0  0
   -5.5791    8.9166   -0.7516 P   0  0  1  0  0  0  0  0  0  0  0  0
  2  1  2  0
  3  1  1  0
  4  2  1  0
  5  3  2  0
 10  4  2  0
 10  5  1  0
 10  6  1  0
 11  7  1  6
 13 11  1  0
 13 23  1  1
 14 13  1  0
 14 24  1  1
 15 12  2  0
 16 12  1  0
 17 14  1  0
 17 22  1  6
 18  6  1  0
 18 15  1  0
 19  8  2  0
 19 15  1  0
 20  8  1  0
 20 16  2  0
 21  9  2  0
 21 12  1  0
 22  9  1  0
 22 16  1  0
 30  7  1  0
 31 11  1  0
 31 17  1  0
 33 25  1  0
 33 26  1  0
 33 27  2  0
 33 32  1  0
 34 28  1  6
 34 29  2  0
 34 30  1  0
 34 32  1  0
M  END
>  <DRUGBANK_ID>  (1) 
DB01893

>  <SECONDARY_ACCESSION_NUMBERS>  (1) 
EXPT02305

>  <COMMON_NAME>  (1) 
N6-Benzyl Adenosine-5'-Diphosphate

$$$$
