
     RDKit          3D

 17 18  0  0  0  0  0  0  0  0999 V2000
   -0.7830   -1.0090   -0.2000 Zn  0  0  0  0  0  2  0  0  0  0  0  0
    0.7340   -1.0680    0.0740 O   0  0  0  0  0  0  0  0  0  0  0  0
    2.4328    0.7759    0.2628 O   0  0  0  0  0  0  0  0  0  0  0  0
   -2.6001    2.0613    1.2315 O   0  0  0  0  0  0  0  0  0  0  0  0
   -1.1980    0.4130    0.2510 N   0  0  0  0  0  0  0  0  0  0  0  0
    2.3801    3.7980    0.8141 N   0  0  0  0  0  0  0  0  0  0  0  0
    2.7638    4.4611   -1.2771 N   0  0  0  0  0  0  0  0  0  0  0  0
   -2.8709   -1.5289   -0.6540 N   0  0  0  0  0  0  0  0  0  0  0  0
    0.0090    1.2780   -0.2000 C   0  0  2  0  0  0  0  0  0  0  0  0
    1.2380    0.3860    0.0740 C   0  0  0  0  0  0  0  0  0  0  0  0
   -2.4278    0.8375    0.9353 C   0  0  0  0  0  0  0  0  0  0  0  0
    0.0792    2.6070    0.5343 C   0  0  0  0  0  0  0  0  0  0  0  0
    1.3000    3.3814    0.0650 C   0  0  0  0  0  0  0  0  0  0  0  0
   -3.4934   -0.1873    1.2885 C   0  0  0  0  0  0  0  0  0  0  0  0
    1.5434    3.7816   -1.2148 C   0  0  0  0  0  0  0  0  0  0  0  0
    3.2242    4.4571   -0.0533 C   0  0  0  0  0  0  0  0  0  0  0  0
   -3.9924   -0.8576    0.0188 C   0  0  0  0  0  0  0  0  0  0  0  0
  1  2  1  0
  1  5  1  0
  2 10  1  0
  3 10  2  0
  4 11  2  0
  5  9  1  0
  5 11  1  0
  6 13  1  0
  6 16  1  0
  7 15  1  0
  7 16  2  0
  8 17  1  0
  9 10  1  0
  9 12  1  1
 11 14  1  0
 12 13  1  0
 13 15  2  0
 14 17  1  0
M  END
>  <DRUGBANK_ID>  (1) 
DB09221

>  <COMMON_NAME>  (1) 
Polaprezinc

>  <CAS_NUMBER>  (1) 
107667-60-7

>  <UNII>  (1) 
0WA1B15A1Z

>  <SYNONYMS>  (1) 
beta-Alanyl-L-histidinato zinc; Polaprezinc; Zinc L-carnosine

$$$$
