
     RDKit          3D

 11 11  0  0  0  0  0  0  0  0999 V2000
    1.3945   -0.2367    0.0196 C   0  0  0  0  0  0  0  0  0  0  0  0
    0.4974   -1.3027    0.0281 C   0  0  0  0  0  0  0  0  0  0  0  0
    0.9174    1.0676   -0.0269 C   0  0  0  0  0  0  0  0  0  0  0  0
   -0.8806   -1.0643    0.0090 C   0  0  0  0  0  0  0  0  0  0  0  0
   -0.4549    1.3063   -0.0402 C   0  0  0  0  0  0  0  0  0  0  0  0
   -2.8588    0.5055   -0.1589 C   0  0  0  0  0  0  0  0  0  0  0  0
   -1.3768    0.2489   -0.0204 C   0  0  0  0  0  0  0  0  0  0  0  0
   -2.7397    2.7398    1.2017 O   0  0  0  0  0  0  0  0  0  0  0  0
   -4.9453    1.6452    0.9975 O   0  0  0  0  0  0  0  0  0  0  0  0
   -3.1442    0.6873    2.4898 O   0  0  0  0  0  0  0  0  0  0  0  0
   -3.5542    1.3428    1.2719 S   0  0  0  0  0  0  0  0  0  0  0  0
  2  1  2  0
  3  1  1  0
  4  2  1  0
  5  3  2  0
  7  4  2  0
  7  5  1  0
  7  6  1  0
 11  6  1  0
 11  8  1  0
 11  9  2  0
 11 10  2  0
M  END
>  <DRUGBANK_ID>  (1) 
DB03297

>  <SECONDARY_ACCESSION_NUMBERS>  (1) 
EXPT02622

>  <COMMON_NAME>  (1) 
Benzylsulfonic acid

>  <CAS_NUMBER>  (1) 
100-87-8

>  <UNII>  (1) 
5BRP81V98H

>  <SYNONYMS>  (1) 
alpha-Toluenesulfonic acid; Benzenemethanesulfonic acid; Benzylsulfinic acid; Phenylmethanesulfonic acid; Toluene-alpha-sulphonic acid

$$$$
