
     RDKit          3D

 16 16  0  0  0  0  0  0  0  0999 V2000
    1.1003    0.2593   -0.1135 C   0  0  0  0  0  0  0  0  0  0  0  0
    0.5925    0.0954    1.2372 N   0  0  0  0  0  0  0  0  0  0  0  0
   -0.8589   -0.1609    1.2796 C   0  0  0  0  0  0  0  0  0  0  0  0
   -1.4315   -1.3361    0.4298 C   0  0  0  0  0  0  0  0  0  0  0  0
   -1.0037   -2.7356    0.8491 C   0  0  0  0  0  0  0  0  0  0  0  0
   -1.6141   -3.8533    0.2726 C   0  0  0  0  0  0  0  0  0  0  0  0
   -1.2398   -5.1566    0.6392 C   0  0  0  0  0  0  0  0  0  0  0  0
   -0.1741   -5.3659    1.5441 C   0  0  0  0  0  0  0  0  0  0  0  0
    0.4808   -4.2689    2.0997 C   0  0  0  0  0  0  0  0  0  0  0  0
    0.0122   -2.9887    1.7827 C   0  0  0  0  0  0  0  0  0  0  0  0
    1.5551   -4.2031    2.9446 O   0  0  0  0  0  0  0  0  0  0  0  0
    2.1549   -5.3901    3.4154 C   0  0  0  0  0  0  0  0  0  0  0  0
    0.1432   -6.6577    1.8245 O   0  0  0  0  0  0  0  0  0  0  0  0
   -2.0107   -6.1304    0.0453 O   0  0  0  0  0  0  0  0  0  0  0  0
   -1.7367   -7.4796    0.4076 C   0  0  0  0  0  0  0  0  0  0  0  0
   -2.8629   -1.2402    0.4501 O   0  0  0  0  0  0  0  0  0  0  0  0
  1  2  1  0
  2  3  1  0
  3  4  1  0
  4  5  1  0
  4 16  1  0
  5  6  2  0
  5 10  1  0
  6  7  1  0
  7  8  2  0
  7 14  1  0
  8  9  1  0
  8 13  1  0
  9 10  2  0
  9 11  1  0
 11 12  1  0
 14 15  1  0
M  END
>  <DRUGBANK_ID>  (1) 
DB13494

>  <COMMON_NAME>  (1) 
Dimetofrine

>  <CAS_NUMBER>  (1) 
22950-29-4

>  <UNII>  (1) 
BOM1J10QQM

>  <SYNONYMS>  (1) 
Dimetofrine

$$$$
