
     RDKit          3D

 17 18  0  0  0  0  0  0  0  0999 V2000
    2.4515   -0.0186   -0.0126 C   0  0  0  0  0  0  0  0  0  0  0  0
    0.9485   -0.0275   -0.0016 C   0  0  0  0  0  0  0  0  0  0  0  0
    0.2304    1.1644   -0.0125 C   0  0  0  0  0  0  0  0  0  0  0  0
   -1.1731    1.1455   -0.0277 C   0  0  0  0  0  0  0  0  0  0  0  0
   -1.9270   -0.0515   -0.0172 C   0  0  0  0  0  0  0  0  0  0  0  0
   -1.1912   -1.2455   -0.0013 C   0  0  0  0  0  0  0  0  0  0  0  0
    0.2291   -1.2300    0.0039 C   0  0  0  0  0  0  0  0  0  0  0  0
   -1.9245   -2.8683   -0.0559 S   0  0  0  0  0  0  0  0  0  0  0  0
   -1.4504   -3.5307   -1.2571 O   0  0  0  0  0  0  0  0  0  0  0  0
   -1.7390   -3.4698    1.2453 O   0  0  0  0  0  0  0  0  0  0  0  0
   -3.5148   -2.7569   -0.2608 O   0  0  0  0  0  0  0  0  0  0  0  0
   -3.2987    0.0497    0.0019 N   0  0  0  0  0  0  0  0  0  0  0  0
   -4.0479    0.6642   -1.0970 C   0  0  0  0  0  0  0  0  0  0  0  0
   -5.0459    1.6900   -0.5067 C   0  0  0  0  0  0  0  0  0  0  0  0
   -5.9401    1.1313    0.5394 N   0  0  0  0  0  0  0  0  0  0  0  0
   -5.1004    0.5398    1.6109 C   0  0  0  0  0  0  0  0  0  0  0  0
   -4.1362   -0.5205    1.0626 C   0  0  0  0  0  0  0  0  0  0  0  0
  1  2  1  0
  2  3  2  0
  2  7  1  0
  3  4  1  0
  4  5  2  0
  5  6  1  0
  5 12  1  0
  6  7  2  0
  6  8  1  0
  8  9  2  0
  8 10  2  0
  8 11  1  0
 12 13  1  0
 12 17  1  0
 13 14  1  0
 14 15  1  0
 15 16  1  0
 16 17  1  0
M  END
>  <DRUGBANK_ID>  (1) 
DB06231

>  <COMMON_NAME>  (1) 
Caldaret

>  <CAS_NUMBER>  (1) 
133804-44-1

>  <UNII>  (1) 
9L3Y3IJ2HI

>  <SYNONYMS>  (1) 
Caldaret

$$$$
