CPU
     RDKit          3D

 19 20  0  0  0  0  0  0  0  0999 V2000
    1.4042   -0.3438    0.0766 C   0  0  0  0  0  0  0  0  0  0  0  0
    0.5113   -1.4116    0.0231 C   0  0  0  0  0  0  0  0  0  0  0  0
   -0.8680   -1.1929    0.0043 C   0  0  0  0  0  0  0  0  0  0  0  0
   -1.3621    0.0886    0.1527 C   0  0  0  0  0  0  0  0  0  0  0  0
   -0.4648    1.1170    0.4068 C   0  0  0  0  0  0  0  0  0  0  0  0
    0.9214    0.9482    0.2121 C   0  0  0  0  0  0  0  0  0  0  0  0
   -0.1022    4.5158   -0.3772 N   0  0  0  0  0  0  0  0  0  0  0  0
    1.8688    2.1059   -0.0171 C   0  0  0  0  0  0  0  0  0  0  0  0
    1.5154    2.8157   -1.2957 C   0  0  0  0  0  0  0  0  0  0  0  0
    0.1086    3.3605   -1.2031 C   0  0  0  0  0  0  0  0  0  0  0  0
   -0.5362    5.7484   -0.6996 C   0  0  0  0  0  0  0  0  0  0  0  0
   -0.6736    6.5793    0.2166 O   0  0  0  0  0  0  0  0  0  0  0  0
   -0.8211    6.1193   -1.9664 N   0  0  0  0  0  0  0  0  0  0  0  0
   -0.8433    5.3608   -3.2272 C   0  0  0  0  0  0  0  0  0  0  0  0
   -1.9789    4.2928   -3.1550 C   0  0  0  0  0  0  0  0  0  0  0  0
   -1.8114    3.1413   -4.1418 C   0  0  0  0  0  0  0  0  0  0  0  0
   -0.4060    2.5478   -4.2080 C   0  0  0  0  0  0  0  0  0  0  0  0
    0.6756    3.6229   -4.4461 C   0  0  0  0  0  0  0  0  0  0  0  0
    0.6003    4.9146   -3.6091 C   0  0  0  0  0  0  0  0  0  0  0  0
  1  2  2  0
  1  6  1  0
  2  3  1  0
  3  4  2  0
  4  5  1  0
  5  6  2  0
  6  8  1  0
  7 10  1  0
  7 11  1  0
  8  9  1  0
  9 10  1  0
 11 12  2  0
 11 13  1  0
 13 14  1  0
 14 15  1  0
 14 19  1  0
 15 16  1  0
 16 17  1  0
 17 18  1  0
 18 19  1  0
M  END
>  <DRUGBANK_ID>  (1) 
DB04213

>  <SECONDARY_ACCESSION_NUMBERS>  (1) 
EXPT01006

>  <COMMON_NAME>  (1) 
N-Cyclohexyl-N'-(Propyl)Phenyl Urea

$$$$
