
     RDKit          3D

 30 34  0  0  0  0  0  0  0  0999 V2000
    2.4252    0.0012    0.0605 C   0  0  0  0  0  0  0  0  0  0  0  0
    1.0094   -0.0028   -0.2966 N   0  0  0  0  0  0  0  0  0  0  0  0
    0.3240   -1.1997    0.2548 C   0  0  0  0  0  0  0  0  0  0  0  0
   -1.1830   -1.2263   -0.1181 C   0  0  0  0  0  0  0  0  0  0  0  0
   -1.8071    0.0138    0.3478 N   0  0  0  0  0  0  0  0  0  0  0  0
   -1.1873    1.2367   -0.1573 C   0  0  0  0  0  0  0  0  0  0  0  0
    0.3219    1.2069    0.2236 C   0  0  0  0  0  0  0  0  0  0  0  0
   -3.1447    0.0014    0.7120 C   0  0  0  0  0  0  0  0  0  0  0  0
   -4.2033    0.6493    0.0357 C   0  0  0  0  0  0  0  0  0  0  0  0
   -4.2053    1.2992   -1.1649 N   0  0  0  0  0  0  0  0  0  0  0  0
   -5.4268    1.7457   -1.3845 C   0  0  0  0  0  0  0  0  0  0  0  0
   -6.2915    1.3651   -0.3230 N   0  0  0  0  0  0  0  0  0  0  0  0
   -7.7670    1.6021   -0.2184 C   0  0  0  0  0  0  0  0  0  0  0  0
   -8.5893    0.9677   -1.3698 C   0  0  0  0  0  0  0  0  0  0  0  0
  -10.0609    1.4098   -1.3909 C   0  0  0  0  0  0  0  0  0  0  0  0
  -10.1833    2.8273   -1.3939 O   0  0  0  0  0  0  0  0  0  0  0  0
   -9.6517    3.3983   -0.2027 C   0  0  0  0  0  0  0  0  0  0  0  0
   -8.1615    3.0910   -0.1180 C   0  0  0  0  0  0  0  0  0  0  0  0
   -5.4811    0.6534    0.6100 C   0  0  0  0  0  0  0  0  0  0  0  0
   -5.7808    0.0779    1.8115 N   0  0  0  0  0  0  0  0  0  0  0  0
   -4.6872   -0.5330    2.3895 C   0  0  0  0  0  0  0  0  0  0  0  0
   -4.7902   -1.1971    3.7489 C   0  0  0  0  0  0  0  0  0  0  0  0
   -3.4377   -0.6114    1.8773 N   0  0  0  0  0  0  0  0  0  0  0  0
   -5.6995    2.4659   -2.6561 C   0  0  0  0  0  0  0  0  0  0  0  0
   -5.4036    1.8125   -3.8764 C   0  0  0  0  0  0  0  0  0  0  0  0
   -5.5841    2.4420   -5.1209 C   0  0  0  0  0  0  0  0  0  0  0  0
   -6.1047    3.7280   -5.1784 C   0  0  0  0  0  0  0  0  0  0  0  0
   -6.3191    4.4219   -3.9921 C   0  0  0  0  0  0  0  0  0  0  0  0
   -6.0169    3.8292   -2.7539 C   0  0  0  0  0  0  0  0  0  0  0  0
   -5.8159    4.9309   -1.4241 Cl  0  0  0  0  0  0  0  0  0  0  0  0
  1  2  1  0
  2  3  1  0
  2  7  1  0
  3  4  1  0
  4  5  1  0
  5  6  1  0
  5  8  1  0
  6  7  1  0
  8  9  2  0
  8 23  1  0
  9 10  1  0
  9 19  1  0
 10 11  2  0
 11 12  1  0
 11 24  1  0
 12 13  1  0
 12 19  1  0
 13 14  1  0
 13 18  1  0
 14 15  1  0
 15 16  1  0
 16 17  1  0
 17 18  1  0
 19 20  2  0
 20 21  1  0
 21 22  1  0
 21 23  2  0
 24 25  2  0
 24 29  1  0
 25 26  1  0
 26 27  2  0
 27 28  1  0
 28 29  2  0
 29 30  1  0
M  END
>  <DRUGBANK_ID>  (1) 
DB16074

>  <COMMON_NAME>  (1) 
LY2828360

>  <CAS_NUMBER>  (1) 
1231220-79-3

>  <UNII>  (1) 
O12H7VFU6P

$$$$
