
     RDKit          3D

 10 10  0  0  0  0  0  0  0  0999 V2000
    0.3969    1.5655    0.0377 S   0  0  0  0  0  0  0  0  0  0  0  0
    1.4120    0.2744   -0.0341 N   0  0  0  0  0  0  0  0  0  0  0  0
   -1.1056    0.9554   -0.0304 O   0  0  0  0  0  0  0  0  0  0  0  0
    0.5845    2.1610    1.3415 O   0  0  0  0  0  0  0  0  0  0  0  0
    0.6274    2.3313   -1.1679 O   0  0  0  0  0  0  0  0  0  0  0  0
    1.0255   -1.0526   -0.0094 C   0  0  0  0  0  0  0  0  0  0  0  0
   -1.3670   -0.3965   -0.0063 C   0  0  0  0  0  0  0  0  0  0  0  0
   -0.4185   -1.3431   -0.0008 C   0  0  0  0  0  0  0  0  0  0  0  0
    1.8527   -1.9497    0.0027 O   0  0  0  0  0  0  0  0  0  0  0  0
   -2.8305   -0.7054    0.0096 C   0  0  0  0  0  0  0  0  0  0  0  0
  1  2  1  0
  1  3  1  0
  1  4  2  0
  1  5  2  0
  2  6  1  0
  3  7  1  0
  6  8  1  0
  6  9  2  0
  7 10  1  0
  7  8  2  0
M  END
>  <DRUGBANK_ID>  (1) 
DB16868

>  <COMMON_NAME>  (1) 
Acesulfame

>  <CAS_NUMBER>  (1) 
33665-90-6

>  <UNII>  (1) 
MA3UYZ6K1H

>  <SYNONYMS>  (1) 
Acesulfame; Acesulfamo; Acetosulfame

$$$$
