CK7
     RDKit          3D

 23 25  0  0  0  0  0  0  0  0999 V2000
    1.9108    1.3222   -0.0083 N   0  0  0  0  0  0  0  0  0  0  0  0
    0.7957    0.5829    0.0131 C   0  0  0  0  0  0  0  0  0  0  0  0
   -0.3995    1.1172    0.0079 N   0  0  0  0  0  0  0  0  0  0  0  0
   -1.3686    0.1283    0.0073 C   0  0  0  0  0  0  0  0  0  0  0  0
   -2.7934    0.5477    0.0062 C   0  0  0  0  0  0  0  0  0  0  0  0
    0.8291   -1.1364    0.0345 S   0  0  0  0  0  0  0  0  0  0  0  0
   -0.8860   -1.1697   -0.0139 C   0  0  0  0  0  0  0  0  0  0  0  0
   -1.6387   -2.4151   -0.1085 C   0  0  0  0  0  0  0  0  0  0  0  0
   -1.4912   -3.2713    0.9088 N   0  0  0  0  0  0  0  0  0  0  0  0
   -2.5291   -2.6294   -1.1346 C   0  0  0  0  0  0  0  0  0  0  0  0
   -3.2735   -3.7778   -1.0484 C   0  0  0  0  0  0  0  0  0  0  0  0
   -3.1514   -4.6672   -0.0467 N   0  0  0  0  0  0  0  0  0  0  0  0
   -2.2443   -4.3840    0.9001 C   0  0  0  0  0  0  0  0  0  0  0  0
   -2.0348   -5.3333    1.8914 N   0  0  0  0  0  0  0  0  0  0  0  0
   -1.2719   -5.1635    3.0476 C   0  0  0  0  0  0  0  0  0  0  0  0
   -1.4572   -4.0473    3.8778 C   0  0  0  0  0  0  0  0  0  0  0  0
   -0.3049   -6.1090    3.3879 C   0  0  0  0  0  0  0  0  0  0  0  0
    0.4265   -5.9503    4.5708 C   0  0  0  0  0  0  0  0  0  0  0  0
    1.2799   -7.0430    5.0450 N   0  0  0  0  0  0  0  0  0  0  0  0
    1.3599   -8.0614    4.3368 O   0  0  0  0  0  0  0  0  0  0  0  0
    1.8306   -6.9100    6.1436 O   0  0  0  0  0  0  0  0  0  0  0  0
    0.2753   -4.8065    5.3668 C   0  0  0  0  0  0  0  0  0  0  0  0
   -0.6800   -3.8573    5.0189 C   0  0  0  0  0  0  0  0  0  0  0  0
  1  2  1  0
  2  3  2  0
  2  6  1  0
  3  4  1  0
  4  5  1  0
  4  7  2  0
  6  7  1  0
  7  8  1  0
  8  9  2  0
  8 10  1  0
  9 13  1  0
 10 11  2  0
 11 12  1  0
 12 13  2  0
 13 14  1  0
 14 15  1  0
 15 16  2  0
 15 17  1  0
 16 23  1  0
 17 18  2  0
 18 19  1  0
 18 22  1  0
 19 20  1  0
 19 21  2  0
 22 23  2  0
M  CHG  2  19   1  20  -1
M  END
>  <DRUGBANK_ID>  (1) 
DB02833

>  <SECONDARY_ACCESSION_NUMBERS>  (1) 
EXPT00930

>  <COMMON_NAME>  (1) 
[4-(2-Amino-4-Methyl-Thiazol-5-Yl)-Pyrimidin-2-Yl]-(3-Nitro-Phenyl)-Amine

>  <UNII>  (1) 
2L9NBR9W3T

$$$$
