
     RDKit          3D

 23 22  0  0  1  0  0  0  0  0999 V2000
   -0.6870    0.3000   -0.3495 C   0  0  0  0  0  0  0  0  0  0  0  0
   -2.0680    0.0162    0.0841 C   0  0  2  0  0  0  0  0  0  0  0  0
   -2.0789   -1.4513    0.3392 N   0  0  0  0  0  0  0  0  0  0  0  0
   -1.0617   -2.1863   -0.4703 C   0  0  1  0  0  0  0  0  0  0  0  0
    0.3340   -1.2275   -0.3428 S   0  0  0  0  0  0  0  0  0  0  0  0
   -0.4248   -3.4483    0.1697 C   0  0  0  0  0  0  0  0  0  0  0  0
    0.1887   -4.3091   -0.4256 O   0  0  0  0  0  0  0  0  0  0  0  0
   -0.2833   -3.3181    1.5339 O   0  0  0  0  0  0  0  0  0  0  0  0
   -2.8770    0.6538   -1.0291 C   0  0  0  0  0  0  0  0  0  0  0  0
   -3.4080    1.7387   -0.9706 O   0  0  0  0  0  0  0  0  0  0  0  0
   -2.6024    0.0908   -2.2328 O   0  0  0  0  0  0  0  0  0  0  0  0
    1.7622    1.0055    0.0078 C   0  0  0  0  0  0  0  0  0  0  0  0
    1.1000    0.4664    1.5805 C   0  0  0  0  0  0  0  0  0  0  0  0
    1.3651    1.3852    2.7189 C   0  0  1  0  0  0  0  0  0  0  0  0
    0.6298    2.7003    2.4293 C   0  0  0  0  0  0  0  0  0  0  0  0
   -0.4751    2.9909    2.7980 O   0  0  0  0  0  0  0  0  0  0  0  0
    1.2607    3.4491    1.5034 O   0  0  0  0  0  0  0  0  0  0  0  0
    0.7529    0.7554    3.9185 N   0  0  0  0  0  0  0  0  0  0  0  0
    1.2370    2.2768   -0.7677 C   0  0  0  0  0  0  0  0  0  0  0  0
    1.2619    2.1160   -2.2195 N   0  0  0  0  0  0  0  0  0  0  0  0
    0.3004    2.2521   -3.1664 C   0  0  0  0  0  0  0  0  0  0  0  0
    0.5924    2.1963   -4.4198 N   0  0  0  0  0  0  0  0  0  0  0  0
   -0.9841    2.4898   -2.8618 N   0  0  0  0  0  0  0  0  0  0  0  0
  1  2  1  0
  1  5  1  0
  2  3  1  0
  2  9  1  6
  3  4  1  0
  4  5  1  0
  4  6  1  1
  6  7  2  0
  6  8  1  0
  9 10  2  0
  9 11  1  0
 12 13  1  0
 12 19  1  0
 13 14  1  0
 14 15  1  0
 14 18  1  1
 15 16  2  0
 15 17  1  0
 19 20  1  0
 20 21  1  0
 21 22  2  0
 21 23  1  0
M  END
>  <DRUGBANK_ID>  (1) 
DB13748

>  <COMMON_NAME>  (1) 
Tidiacic arginine

>  <CAS_NUMBER>  (1) 
30986-62-0

>  <UNII>  (1) 
A9539XWW0P

$$$$
