
     RDKit          3D

 15 15  0  0  0  0  0  0  0  0999 V2000
    1.4394   -0.1698    0.3095 C   0  0  0  0  0  0  0  0  0  0  0  0
    0.9062    1.1905    0.0163 C   0  0  0  0  0  0  0  0  0  0  0  0
   -0.4138    1.3857   -0.0564 C   0  0  0  0  0  0  0  0  0  0  0  0
   -1.3786    0.2726    0.0783 C   0  0  0  0  0  0  0  0  0  0  0  0
   -0.8306   -1.1055    0.0322 C   0  0  0  0  0  0  0  0  0  0  0  0
    0.4705   -1.2725    0.2919 C   0  0  0  0  0  0  0  0  0  0  0  0
    2.6740   -0.4708    0.5381 N   0  0  0  0  0  0  0  0  0  0  0  0
   -2.5717    0.4980    0.2338 O   0  0  0  0  0  0  0  0  0  0  0  0
    1.7776    2.2424   -0.1916 O   0  0  0  0  0  0  0  0  0  0  0  0
   -1.7147   -2.2878   -0.2723 C   0  0  0  0  0  0  0  0  0  0  0  0
   -1.4329   -2.9504   -1.6520 C   0  0  2  0  0  0  0  0  0  0  0  0
   -2.3908   -4.0726   -1.8373 N   0  0  0  0  0  0  0  0  0  0  0  0
   -0.0008   -3.5167   -1.8023 C   0  0  0  0  0  0  0  0  0  0  0  0
    0.9320   -2.5764   -2.0521 O   0  0  0  0  0  0  0  0  0  0  0  0
    0.3273   -4.6901   -1.6752 O   0  0  0  0  0  0  0  0  0  0  0  0
  1  2  1  0
  1  7  2  0
  2  3  2  0
  2  9  1  0
  3  4  1  0
  4  5  1  0
  4  8  2  0
  5  6  2  0
  5 10  1  0
  6  1  1  0
 10 11  1  0
 11 13  1  0
 11 12  1  1
 13 15  2  0
 13 14  1  0
M  END
>  <DRUGBANK_ID>  (1) 
DB03631

>  <SECONDARY_ACCESSION_NUMBERS>  (1) 
EXPT03144

>  <COMMON_NAME>  (1) 
3-(4-hydroxy-3-imino-6-oxo-cyclohexa-1,4-dienyl)-alanine

$$$$
