348
     RDKit          3D

 23 24  0  0  0  0  0  0  0  0999 V2000
    0.9874    0.1700   -0.2235 F   0  0  0  0  0  0  0  0  0  0  0  0
    2.8362   -0.6172   -1.0541 F   0  0  0  0  0  0  0  0  0  0  0  0
    2.8205    1.3422   -0.0937 F   0  0  0  0  0  0  0  0  0  0  0  0
    4.0943   -6.6498    4.6650 O   0  0  0  0  0  0  0  0  0  0  0  0
    1.9806   -3.6798    4.7826 O   0  0  0  0  0  0  0  0  0  0  0  0
    4.8450   -1.9140    5.8608 O   0  0  0  0  0  0  0  0  0  0  0  0
    0.9499   -4.1992    1.2661 O   0  0  0  0  0  0  0  0  0  0  0  0
    1.6023   -5.0446    3.0965 O   0  0  0  0  0  0  0  0  0  0  0  0
    1.3978   -4.0279    2.4102 N   0  0  0  0  0  0  0  0  0  0  0  0
    4.0668   -4.2633    5.3082 C   0  0  0  0  0  0  0  0  0  0  0  0
    4.4638   -4.4679    1.9755 C   0  0  0  0  0  0  0  0  0  0  0  0
    5.1634   -5.3584    2.9545 C   0  0  0  0  0  0  0  0  0  0  0  0
    4.1876   -3.4144    2.9230 C   0  0  0  0  0  0  0  0  0  0  0  0
    4.4792   -5.5084    4.3654 C   0  0  0  0  0  0  0  0  0  0  0  0
    3.1090   -3.9593    4.3287 C   0  0  0  0  0  0  0  0  0  0  0  0
    4.0043   -2.5626    5.1868 C   0  0  0  0  0  0  0  0  0  0  0  0
    2.9177   -1.7158    3.9455 C   0  0  0  0  0  0  0  0  0  0  0  0
    1.9321   -2.3969    2.7685 C   0  0  0  0  0  0  0  0  0  0  0  0
    3.5788   -0.5105    3.6098 C   0  0  0  0  0  0  0  0  0  0  0  0
    2.5767   -0.5538    1.3308 C   0  0  0  0  0  0  0  0  0  0  0  0
    1.9365   -1.7794    1.5161 C   0  0  0  0  0  0  0  0  0  0  0  0
    3.3475    0.0703    2.3492 C   0  0  0  0  0  0  0  0  0  0  0  0
    2.3276    0.0860   -0.0072 C   0  0  0  0  0  0  0  0  0  0  0  0
  1 23  1  0
  2 23  1  0
  3 23  1  0
  4 14  2  0
  5 15  2  0
  6 16  2  0
  7  9  1  0
  8  9  2  0
  9 18  1  0
 10 14  1  0
 10 15  1  0
 10 16  1  0
 11 12  1  0
 11 13  1  0
 12 14  1  0
 13 15  1  0
 16 17  1  0
 17 18  2  0
 17 19  1  0
 18 21  1  0
 19 22  2  0
 20 21  2  0
 20 22  1  0
 20 23  1  0
M  CHG  2   7  -1   9   1
M  END
>  <DRUGBANK_ID>  (1) 
DB00348

>  <SECONDARY_ACCESSION_NUMBERS>  (1) 
APRD01141

>  <COMMON_NAME>  (1) 
Nitisinone

>  <CAS_NUMBER>  (1) 
104206-65-7

>  <UNII>  (1) 
K5BN214699

>  <SYNONYMS>  (1) 
2-(alpha,alpha,alpha-Trifluoro-2-nitro-p-tuluoyl)-1,3-cyclohexanedione; Nitisinona; Nitisinone; Nitisinonum

$$$$
