1280
     RDKit          3D

 21 23  0  0  1  0  0  0  0  0999 V2000
    1.8370   -0.0884    0.0579 O   0  0  0  0  0  0  0  0  0  0  0  0
   -1.6006   -1.4063    0.0799 O   0  0  0  0  0  0  0  0  0  0  0  0
   -1.3481    1.6099   -0.1690 O   0  0  0  0  0  0  0  0  0  0  0  0
    2.8952    2.4795    0.8409 O   0  0  0  0  0  0  0  0  0  0  0  0
    0.7522   -4.7921    4.9375 O   0  0  0  0  0  0  0  0  0  0  0  0
    1.0871   -1.9219    1.3577 N   0  0  0  0  0  0  0  0  0  0  0  0
    1.8465   -2.4088    3.3984 N   0  0  0  0  0  0  0  0  0  0  0  0
   -0.4973   -3.7481    1.0847 N   0  0  0  0  0  0  0  0  0  0  0  0
   -0.6215   -5.1717    3.0196 N   0  0  0  0  0  0  0  0  0  0  0  0
   -1.9608   -5.5130    1.1555 N   0  0  0  0  0  0  0  0  0  0  0  0
   -0.4419   -0.6765   -0.2784 C   0  0  2  0  0  0  0  0  0  0  0  0
    0.9465   -1.2451    0.0748 C   0  0  1  0  0  0  0  0  0  0  0  0
   -0.4003    0.6972    0.3676 C   0  0  1  0  0  0  0  0  0  0  0  0
    1.0343    1.1208    0.0906 C   0  0  1  0  0  0  0  0  0  0  0  0
    1.5668    2.0734    1.1612 C   0  0  0  0  0  0  0  0  0  0  0  0
    0.4341   -3.0640    1.7555 C   0  0  0  0  0  0  0  0  0  0  0  0
    1.9515   -1.5934    2.3701 C   0  0  0  0  0  0  0  0  0  0  0  0
    0.9018   -3.3391    3.0297 C   0  0  0  0  0  0  0  0  0  0  0  0
    0.3372   -4.4537    3.6635 C   0  0  0  0  0  0  0  0  0  0  0  0
   -0.9869   -4.7916    1.7787 C   0  0  0  0  0  0  0  0  0  0  0  0
    0.1339   -5.9426    5.4976 C   0  0  0  0  0  0  0  0  0  0  0  0
  1 12  1  0
  1 14  1  0
  4 15  1  0
  5 19  1  0
  5 21  1  0
  6 16  1  0
  6 17  1  0
  7 17  2  0
  7 18  1  0
  8 16  1  0
  8 20  2  0
  9 19  2  0
  9 20  1  0
 10 20  1  0
 11  2  1  1
 11 12  1  0
 11 13  1  0
 12  6  1  1
 13  3  1  6
 13 14  1  0
 14 15  1  1
 16 18  2  0
 18 19  1  0
M  END
>  <DRUGBANK_ID>  (1) 
DB01280

>  <COMMON_NAME>  (1) 
Nelarabine

>  <CAS_NUMBER>  (1) 
121032-29-9

>  <UNII>  (1) 
60158CV180

>  <SYNONYMS>  (1) 
2-Amino-9-beta-D-arabinofuranosyl-6-methoxy-9H-purine; Nelarabina; Nelarabine; Nelzarabine

$$$$
