
     RDKit          3D

 32 33  0  0  0  0  0  0  0  0999 V2000
   -0.8992   -1.0363   -0.1717 C   0  0  0  0  0  0  0  0  0  0  0  0
    0.5967   -1.1235    0.0934 C   0  0  2  0  0  0  0  0  0  0  0  0
    1.0504    0.3318    0.2186 C   0  0  1  0  0  0  0  0  0  0  0  0
   -0.1319    1.2288   -0.1585 C   0  0  2  0  0  0  0  0  0  0  0  0
   -1.3010    0.3668    0.2875 C   0  0  1  0  0  0  0  0  0  0  0  0
   -0.1775    1.5333   -1.6610 C   0  0  0  0  0  0  0  0  0  0  0  0
   -0.5996    2.9536   -1.8654 C   0  0  0  0  0  0  0  0  0  0  0  0
    0.2032    3.8719   -2.4071 C   0  0  0  0  0  0  0  0  0  0  0  0
    1.5732    3.5788   -2.9455 C   0  0  0  0  0  0  0  0  0  0  0  0
    1.6182    3.8490   -4.4286 C   0  0  0  0  0  0  0  0  0  0  0  0
    1.3308    5.3045   -4.7196 C   0  0  0  0  0  0  0  0  0  0  0  0
    2.3774    6.2235   -4.1033 C   0  0  0  0  0  0  0  0  0  0  0  0
    3.1853    6.9256   -4.9255 O   0  0  0  0  0  0  0  0  0  0  0  0
    2.5085    6.3367   -2.8999 O   0  0  0  0  0  0  0  0  0  0  0  0
    3.0525    6.9865   -6.3523 C   0  0  0  0  0  0  0  0  0  0  0  0
    3.4343    5.6535   -6.9935 C   0  0  0  0  0  0  0  0  0  0  0  0
    1.7069    7.5914   -6.7570 C   0  0  0  0  0  0  0  0  0  0  0  0
    1.5123    0.6261    1.6433 C   0  0  0  0  0  0  0  0  0  0  0  0
    2.7650    1.0551    1.7593 C   0  0  0  0  0  0  0  0  0  0  0  0
    3.7264    1.4232    2.8310 C   0  0  0  0  0  0  0  0  0  0  0  0
    5.0165    0.5495    2.8765 C   0  0  0  0  0  0  0  0  0  0  0  0
    6.1047    0.7147    1.9081 O   0  0  0  0  0  0  0  0  0  0  0  0
    4.0914    2.7307    2.7018 F   0  0  0  0  0  0  0  0  0  0  0  0
    3.0913    1.3414    4.0343 F   0  0  0  0  0  0  0  0  0  0  0  0
    5.8379    0.5421    0.5805 C   0  0  0  0  0  0  0  0  0  0  0  0
   -2.5450    0.7733   -0.2434 O   0  0  0  0  0  0  0  0  0  0  0  0
    1.3095   -1.7574   -0.9669 O   0  0  0  0  0  0  0  0  0  0  0  0
    4.9886    1.3961   -0.0905 C   0  0  0  0  0  0  0  0  0  0  0  0
    4.4207    1.0255   -1.3125 C   0  0  0  0  0  0  0  0  0  0  0  0
    5.0325    0.0562   -2.0715 C   0  0  0  0  0  0  0  0  0  0  0  0
    6.1980   -0.5109   -1.5696 C   0  0  0  0  0  0  0  0  0  0  0  0
    6.5463   -0.3482   -0.2125 C   0  0  0  0  0  0  0  0  0  0  0  0
  1  2  1  0
  1  5  1  0
  2  3  1  0
  2 27  1  6
  3  4  1  0
  3 18  1  1
  4  5  1  0
  4  6  1  6
  5 26  1  6
  6  7  1  0
  7  8  2  0
  8  9  1  0
  9 10  1  0
 10 11  1  0
 11 12  1  0
 12 13  1  0
 12 14  2  0
 13 15  1  0
 15 16  1  0
 15 17  1  0
 18 19  2  0
 19 20  1  0
 20 21  1  0
 20 23  1  0
 20 24  1  0
 21 22  1  0
 22 25  1  0
 25 28  2  0
 25 32  1  0
 28 29  1  0
 29 30  2  0
 30 31  1  0
 31 32  2  0
M  END
>  <DRUGBANK_ID>  (1) 
DB08819

>  <COMMON_NAME>  (1) 
Tafluprost

>  <CAS_NUMBER>  (1) 
209860-87-7

>  <UNII>  (1) 
1O6WQ6T7G3

>  <SYNONYMS>  (1) 
Tafluprost

$$$$
