NAR
     RDKit          3D

 20 22  0  0  0  0  0  0  0  0999 V2000
   -1.4420   -1.3022    0.0138 C   0  0  0  0  0  0  0  0  0  0  0  0
   -2.3328   -0.2299    0.0103 C   0  0  0  0  0  0  0  0  0  0  0  0
   -1.8768    1.0854   -0.0229 C   0  0  0  0  0  0  0  0  0  0  0  0
   -0.5104    1.3344   -0.0535 C   0  0  0  0  0  0  0  0  0  0  0  0
    0.3916    0.2673   -0.0333 C   0  0  0  0  0  0  0  0  0  0  0  0
   -0.0691   -1.0519   -0.0062 C   0  0  0  0  0  0  0  0  0  0  0  0
    1.8351    0.5065    0.0411 C   0  0  0  0  0  0  0  0  0  0  0  0
    2.6831   -0.6785    0.3298 C   0  0  0  0  0  0  0  0  0  0  0  0
    2.1082   -1.9139   -0.3522 C   0  0  2  0  0  0  0  0  0  0  0  0
    0.7487   -2.1504    0.0560 O   0  0  0  0  0  0  0  0  0  0  0  0
    2.2880    1.6489   -0.0257 O   0  0  0  0  0  0  0  0  0  0  0  0
    2.9153   -3.1667   -0.0214 C   0  0  0  0  0  0  0  0  0  0  0  0
    2.5641   -4.4051   -0.5852 C   0  0  0  0  0  0  0  0  0  0  0  0
    3.2965   -5.5622   -0.2844 C   0  0  0  0  0  0  0  0  0  0  0  0
    4.3856   -5.4834    0.5786 C   0  0  0  0  0  0  0  0  0  0  0  0
    4.7480   -4.2770    1.1486 C   0  0  0  0  0  0  0  0  0  0  0  0
    4.0219   -3.1303    0.8479 C   0  0  0  0  0  0  0  0  0  0  0  0
    5.1430   -6.5675    0.9041 O   0  0  0  0  0  0  0  0  0  0  0  0
   -3.6813   -0.4311    0.0446 O   0  0  0  0  0  0  0  0  0  0  0  0
   -0.1136    2.6441   -0.0827 O   0  0  0  0  0  0  0  0  0  0  0  0
  1  2  2  0
  1  6  1  0
  2  3  1  0
  2 19  1  0
  3  4  2  0
  4  5  1  0
  4 20  1  0
  5  6  2  0
  5  7  1  0
  6 10  1  0
  7  8  1  0
  7 11  2  0
  8  9  1  0
  9 10  1  0
  9 12  1  1
 12 13  2  0
 12 17  1  0
 13 14  1  0
 14 15  2  0
 15 16  1  0
 15 18  1  0
 16 17  2  0
M  END
>  <DRUGBANK_ID>  (1) 
DB03467

>  <SECONDARY_ACCESSION_NUMBERS>  (1) 
EXPT02295

>  <COMMON_NAME>  (1) 
Naringenin

>  <CAS_NUMBER>  (1) 
480-41-1

>  <UNII>  (1) 
HN5425SBF2

$$$$
