
     RDKit          3D

 12 11  0  0  1  0  0  0  0  0999 V2000
    5.1310   -6.1095   -0.5168 O   0  0  0  0  0  0  0  0  0  0  0  0
    4.6855   -5.3788    0.6224 C   0  0  0  0  0  0  0  0  0  0  0  0
    3.1574   -5.3367    0.6440 C   0  0  1  0  0  0  0  0  0  0  0  0
    2.6603   -6.6796    0.6926 O   0  0  0  0  0  0  0  0  0  0  0  0
    2.6403   -4.5273    1.8512 C   0  0  1  0  0  0  0  0  0  0  0  0
    3.1290   -3.1831    1.7944 O   0  0  0  0  0  0  0  0  0  0  0  0
    1.0843   -4.5510    1.8908 C   0  0  2  0  0  0  0  0  0  0  0  0
    0.5696   -3.2072    1.9917 O   0  0  0  0  0  0  0  0  0  0  0  0
    0.5706   -5.4436    3.0324 C   0  0  1  0  0  0  0  0  0  0  0  0
   -0.7979   -5.4088    3.0093 F   0  0  0  0  0  0  0  0  0  0  0  0
    1.0522   -6.8687    2.9073 C   0  0  0  0  0  0  0  0  0  0  0  0
    1.8131   -7.4016    3.7195 O   0  0  0  0  0  0  0  0  0  0  0  0
  1  2  1  0
  3  2  1  0
  3  4  1  1
  5  3  1  0
  5  6  1  6
  7  9  1  0
  7  8  1  1
  7  5  1  0
  9 10  1  6
  9 11  1  0
 11 12  2  0
M  END
>  <DRUGBANK_ID>  (1) 
DB15107

>  <COMMON_NAME>  (1) 
Fludeoxyglucose

>  <CAS_NUMBER>  (1) 
29702-43-0

>  <UNII>  (1) 
ZO2JV75L55

$$$$
