SAG
     RDKit          3D

 22 23  0  0  0  0  0  0  0  0999 V2000
    2.1710   -0.0330    0.0039 F   0  0  0  0  0  0  0  0  0  0  0  0
    0.8345   -0.0249    0.0913 C   0  0  0  0  0  0  0  0  0  0  0  0
    0.1635    1.1909    0.1542 C   0  0  0  0  0  0  0  0  0  0  0  0
    0.1363   -1.2265    0.0523 C   0  0  0  0  0  0  0  0  0  0  0  0
   -1.2594   -1.2165    0.0690 C   0  0  0  0  0  0  0  0  0  0  0  0
   -1.9496   -0.0021    0.1319 C   0  0  0  0  0  0  0  0  0  0  0  0
   -1.2429    1.2140    0.1628 C   0  0  0  0  0  0  0  0  0  0  0  0
   -1.9652    2.5331   -0.0006 C   0  0  0  0  0  0  0  0  0  0  0  0
   -2.7980    2.6560   -1.1682 O   0  0  0  0  0  0  0  0  0  0  0  0
   -2.2110    2.5767   -2.4020 C   0  0  0  0  0  0  0  0  0  0  0  0
   -1.2858    1.5992   -2.7692 C   0  0  0  0  0  0  0  0  0  0  0  0
   -0.7869    1.5004   -4.0558 C   0  0  0  0  0  0  0  0  0  0  0  0
   -2.6981    3.4327   -3.3894 C   0  0  0  0  0  0  0  0  0  0  0  0
   -2.2611    3.2990   -4.7099 C   0  0  0  0  0  0  0  0  0  0  0  0
   -1.2710    2.3681   -5.0176 C   0  0  0  0  0  0  0  0  0  0  0  0
   -0.6541    2.3175   -6.3398 C   0  0  0  0  0  0  0  0  0  0  0  0
   -1.0744    3.0297   -7.3175 N   0  0  0  0  0  0  0  0  0  0  0  0
   -0.3809    2.9246   -8.6169 C   0  0  1  0  0  0  0  0  0  0  0  0
    1.0911    3.2992   -8.5211 C   0  0  0  0  0  0  0  0  0  0  0  0
   -0.6098    1.5524   -9.2674 C   0  0  0  0  0  0  0  0  0  0  0  0
   -1.2425    1.4069  -10.3172 O   0  0  0  0  0  0  0  0  0  0  0  0
   -0.0670    0.4555   -8.6632 N   0  0  0  0  0  0  0  0  0  0  0  0
  1  2  1  0
  2  3  2  0
  2  4  1  0
  3  7  1  0
  4  5  2  0
  5  6  1  0
  6  7  2  0
  7  8  1  0
  8  9  1  0
  9 10  1  0
 10 11  2  0
 10 13  1  0
 11 12  1  0
 12 15  2  0
 13 14  2  0
 14 15  1  0
 15 16  1  0
 16 17  2  0
 17 18  1  0
 18 19  1  1
 18 20  1  0
 20 21  2  0
 20 22  1  0
M  END
>  <DRUGBANK_ID>  (1) 
DB08516

>  <COMMON_NAME>  (1) 
(S)-(+)-2-[4-(FLUOROBENZYLOXY-BENZYLAMINO)PROPIONAMIDE]

$$$$
