
     RDKit          3D

 23 24  0  0  1  0  0  0  0  0999 V2000
    0.2143    0.1791   -0.1554 C   0  0  0  0  0  0  0  0  0  0  0  0
    0.2201   -1.3125   -0.5447 C   0  0  0  0  0  0  0  0  0  0  0  0
    0.8913   -2.4545    0.3033 C   0  0  0  0  0  0  0  0  0  0  0  0
    0.0720   -3.2770    0.8080 O   0  0  0  0  0  0  0  0  0  0  0  0
    2.5202   -2.7032    0.4926 C   0  0  0  0  0  0  0  0  0  0  0  0
    3.2075   -2.8950   -0.9200 C   0  0  0  0  0  0  0  0  0  0  0  0
    3.2093   -1.7169   -1.9430 C   0  0  1  0  0  0  0  0  0  0  0  0
    3.9972   -0.4495   -1.5801 C   0  0  0  0  0  0  0  0  0  0  0  0
    3.6661   -2.1167   -3.3014 N   0  0  0  0  0  0  0  0  0  0  0  0
    3.3517   -1.0330   -4.2574 C   0  0  0  0  0  0  0  0  0  0  0  0
    5.1032   -2.4108   -3.2914 C   0  0  0  0  0  0  0  0  0  0  0  0
    3.1710   -1.5594    1.3166 C   0  0  0  0  0  0  0  0  0  0  0  0
    2.7368   -0.3133    0.9706 C   0  0  0  0  0  0  0  0  0  0  0  0
    3.1291    0.9117    1.4707 C   0  0  0  0  0  0  0  0  0  0  0  0
    3.9541    0.8867    2.5531 C   0  0  0  0  0  0  0  0  0  0  0  0
    4.4004   -0.3542    3.0198 C   0  0  0  0  0  0  0  0  0  0  0  0
    4.1008   -1.5615    2.3472 C   0  0  0  0  0  0  0  0  0  0  0  0
    2.6492   -4.0010    1.3503 C   0  0  0  0  0  0  0  0  0  0  0  0
    2.2950   -3.9065    2.7174 C   0  0  0  0  0  0  0  0  0  0  0  0
    2.3421   -4.9966    3.5645 C   0  0  0  0  0  0  0  0  0  0  0  0
    2.6479   -6.2402    3.0372 C   0  0  0  0  0  0  0  0  0  0  0  0
    2.9618   -6.3748    1.6833 C   0  0  0  0  0  0  0  0  0  0  0  0
    3.0228   -5.2548    0.8524 C   0  0  0  0  0  0  0  0  0  0  0  0
  1  2  1  0
  2  3  1  0
  3  4  2  0
  3  5  1  0
  5  6  1  0
  5 12  1  0
  5 18  1  0
  6  7  1  0
  7  8  1  1
  7  9  1  0
  9 10  1  0
  9 11  1  0
 12 13  2  0
 12 17  1  0
 13 14  1  0
 14 15  2  0
 15 16  1  0
 16 17  2  0
 18 19  2  0
 18 23  1  0
 19 20  1  0
 20 21  2  0
 21 22  1  0
 22 23  2  0
M  END
>  <DRUGBANK_ID>  (1) 
DB13515

>  <COMMON_NAME>  (1) 
Levomethadone

>  <CAS_NUMBER>  (1) 
125-58-6

>  <UNII>  (1) 
6Y75Z4E8NS

>  <SYNONYMS>  (1) 
Levomethadone

$$$$
