1512
     RDKit          3D

 22 26  0  0  1  0  0  0  0  0999 V2000
   -0.0581    1.7839    0.7739 O   0  0  0  0  0  0  0  0  0  0  0  0
   -1.7417   -2.9771   -0.5472 O   0  0  0  0  0  0  0  0  0  0  0  0
   -2.3877    2.0780   -1.2298 O   0  0  0  0  0  0  0  0  0  0  0  0
    2.8686    2.5740    0.9081 O   0  0  0  0  0  0  0  0  0  0  0  0
    0.7465   -0.6466   -1.8647 N   0  0  0  0  0  0  0  0  0  0  0  0
   -0.8068   -0.3853   -0.0856 C   0  0  2  0  0  0  0  0  0  0  0  0
   -1.3457   -1.7606    0.1945 C   0  0  2  0  0  0  0  0  0  0  0  0
    0.1387   -2.0095   -0.7924 C   0  0  2  0  0  0  0  0  0  0  0  0
   -1.2402    0.8730    0.6473 C   0  0  2  0  0  0  0  0  0  0  0  0
   -1.3005   -0.5558   -1.7845 C   0  0  0  0  0  0  0  0  0  0  0  0
    0.7666   -0.3506    0.6966 C   0  0  0  0  0  0  0  0  0  0  0  0
   -2.9083   -1.2955    0.2553 C   0  0  0  0  0  0  0  0  0  0  0  0
   -2.5535    1.3458   -0.0099 C   0  0  2  0  0  0  0  0  0  0  0  0
    1.4810   -2.5766   -0.4559 C   0  0  0  0  0  0  0  0  0  0  0  0
   -3.4754    0.1025   -0.2145 C   0  0  0  0  0  0  0  0  0  0  0  0
   -0.2982    0.1291   -2.5017 C   0  0  0  0  0  0  0  0  0  0  0  0
    1.9036   -1.3474    0.4007 C   0  0  0  0  0  0  0  0  0  0  0  0
    1.0483    0.9632    1.0749 C   0  0  0  0  0  0  0  0  0  0  0  0
    1.7681    0.4423   -1.7721 C   0  0  0  0  0  0  0  0  0  0  0  0
    3.2165   -1.0472    0.4987 C   0  0  0  0  0  0  0  0  0  0  0  0
    2.4331    1.2668    1.1241 C   0  0  0  0  0  0  0  0  0  0  0  0
    3.5054    0.2955    0.8355 C   0  0  0  0  0  0  0  0  0  0  0  0
  9  1  1  6
  1 18  1  0
  4 21  1  0
  5  8  1  0
  5 16  1  0
  5 19  1  0
  6  7  1  0
  6  9  1  0
  6 10  1  6
  6 11  1  0
  7  2  1  6
  7  8  1  0
  7 12  1  0
  8 14  1  1
  9 13  1  0
 10 16  1  0
 11 17  2  0
 11 18  1  0
 12 15  1  0
 13  3  1  6
 13 15  1  0
 14 17  1  0
 17 20  1  0
 18 21  2  0
 20 22  2  0
 21 22  1  0
M  END
>  <DRUGBANK_ID>  (1) 
DB01512

>  <COMMON_NAME>  (1) 
Hydromorphinol

>  <CAS_NUMBER>  (1) 
2183-56-4

>  <UNII>  (1) 
1O00P9X5C1

>  <SYNONYMS>  (1) 
Hydromorphinol

$$$$
