
     RDKit          3D

 41 42  0  0  0  0  0  0  0  0999 V2000
   -1.4158    6.1946   12.7201 O   0  0  0  0  0  0  0  0  0  0  0  0
   -0.4916    6.0754   11.7473 C   0  0  0  0  0  0  0  0  0  0  0  0
    0.9408    6.2622   12.2393 C   0  0  1  0  0  0  0  0  0  0  0  0
   -0.8109    6.0387   10.5585 O   0  0  0  0  0  0  0  0  0  0  0  0
    1.8647    5.0503   11.7893 C   0  0  0  0  0  0  0  0  0  0  0  0
    1.1763    7.6470   11.7953 N   0  0  0  0  0  0  0  0  0  0  0  0
    1.7953    4.4768   10.3374 C   0  0  0  0  0  0  0  0  0  0  0  0
    2.4637    5.4853    9.5237 C   0  0  0  0  0  0  0  0  0  0  0  0
    2.6470    3.2831    9.9543 C   0  0  0  0  0  0  0  0  0  0  0  0
    1.6689    8.7349   12.5270 C   0  0  0  0  0  0  0  0  0  0  0  0
    1.7579   10.1366   11.7239 C   0  0  2  0  0  0  0  0  0  0  0  0
    2.1174    8.5902   13.6622 O   0  0  0  0  0  0  0  0  0  0  0  0
    1.9913   11.2879   12.6995 C   0  0  0  0  0  0  0  0  0  0  0  0
    0.5988   10.1381   10.8347 N   0  0  0  0  0  0  0  0  0  0  0  0
    1.7444   12.6989   12.2310 C   0  0  0  0  0  0  0  0  0  0  0  0
    1.0203   13.0089   11.0923 C   0  0  0  0  0  0  0  0  0  0  0  0
    2.1252   13.7878   12.9852 C   0  0  0  0  0  0  0  0  0  0  0  0
    1.6563   15.0669   12.6374 C   0  0  0  0  0  0  0  0  0  0  0  0
    0.6064   14.2501   10.6771 C   0  0  0  0  0  0  0  0  0  0  0  0
    0.9073   15.2991   11.4818 C   0  0  0  0  0  0  0  0  0  0  0  0
    0.6418   10.5652    9.5073 C   0  0  0  0  0  0  0  0  0  0  0  0
    1.6606   10.7756    8.8564 O   0  0  0  0  0  0  0  0  0  0  0  0
   -0.7606   10.9022    9.0212 C   0  0  0  0  0  0  0  0  0  0  0  0
   -0.8691   12.1591    8.2878 N   0  0  0  0  0  0  0  0  0  0  0  0
   -1.0364   12.2701    6.9136 C   0  0  0  0  0  0  0  0  0  0  0  0
   -1.1647   13.3317    6.3673 O   0  0  0  0  0  0  0  0  0  0  0  0
   -1.1051   10.8915    6.2493 C   0  0  2  0  0  0  0  0  0  0  0  0
    0.1852   10.2097    6.2730 N   0  0  0  0  0  0  0  0  0  0  0  0
   -1.8271   10.7020    4.9580 C   0  0  0  0  0  0  0  0  0  0  0  0
    0.2340    8.8985    6.6882 C   0  0  0  0  0  0  0  0  0  0  0  0
    1.6082    8.2699    6.8719 C   0  0  2  0  0  0  0  0  0  0  0  0
   -0.7884    8.2786    6.9882 O   0  0  0  0  0  0  0  0  0  0  0  0
    1.7306    7.8602    8.3159 C   0  0  0  0  0  0  0  0  0  0  0  0
    3.2008    7.9038    8.8595 C   0  0  0  0  0  0  0  0  0  0  0  0
    2.6967    9.1585    6.5713 N   0  0  0  0  0  0  0  0  0  0  0  0
    5.7273    7.9888   10.2074 C   0  0  0  0  0  0  0  0  0  0  0  0
    4.3227    7.3686    8.2747 C   0  0  0  0  0  0  0  0  0  0  0  0
    3.4554    8.3643   10.1316 C   0  0  0  0  0  0  0  0  0  0  0  0
    5.5784    7.4325    8.9303 C   0  0  0  0  0  0  0  0  0  0  0  0
    4.6334    8.4527   10.8541 C   0  0  0  0  0  0  0  0  0  0  0  0
    6.9045    8.0733   10.8732 O   0  0  0  0  0  0  0  0  0  0  0  0
  1  2  1  0
  2  3  1  0
  2  4  2  0
  3  5  1  6
  3  6  1  0
  5  7  1  0
  6 10  1  0
  7  8  1  0
  7  9  1  0
 10 12  2  0
 11 14  1  0
 11 13  1  1
 11 10  1  0
 13 15  1  0
 14 21  1  0
 15 16  2  0
 15 17  1  0
 16 19  1  0
 17 18  2  0
 18 20  1  0
 19 20  2  0
 21 23  1  0
 21 22  2  0
 23 24  1  0
 24 25  1  0
 25 26  2  0
 27 29  1  6
 27 28  1  0
 27 25  1  0
 28 30  1  0
 30 32  2  0
 31 35  1  1
 31 33  1  0
 31 30  1  0
 33 34  1  0
 34 37  1  0
 34 38  2  0
 36 40  2  0
 36 41  1  0
 36 39  1  0
 37 39  2  0
 38 40  1  0
M  END
>  <DRUGBANK_ID>  (1) 
DB08856

>  <COMMON_NAME>  (1) 
DADLE

>  <CAS_NUMBER>  (1) 
63631-40-3

>  <UNII>  (1) 
CQK2YXW6EZ

>  <SYNONYMS>  (1) 
[D-Ala2, D-Leu5]-Enkephalin; H-Tyr-D-Ala-Gly-Phe-D-Leu; L-Tyrosyl-D-alanylglycyl-L-phenylalanyl-D-leucine

$$$$
