BIP
     RDKit          3D

 13 13  0  0  0  0  0  0  0  0999 V2000
    3.0624    1.4793   -0.1364 C   0  0  0  0  0  0  0  0  0  0  0  0
    4.0756    1.7065   -0.7666 O   0  0  0  0  0  0  0  0  0  0  0  0
    2.3727    2.4926    0.4319 O   0  0  0  0  0  0  0  0  0  0  0  0
    2.4503    0.1017    0.1214 C   0  0  2  0  0  0  0  0  0  0  0  0
    0.9277    0.1902   -0.1349 C   0  0  0  0  0  0  0  0  0  0  0  0
   -0.5858   -0.5874    1.1002 I   0  0  0  0  0  0  0  0  0  0  0  0
    3.0312   -0.4303    1.4393 C   0  0  0  0  0  0  0  0  0  0  0  0
    2.7086   -1.8752    1.7377 C   0  0  0  0  0  0  0  0  0  0  0  0
    3.2866   -2.9166    1.0034 C   0  0  0  0  0  0  0  0  0  0  0  0
    2.9126   -4.2411    1.2465 C   0  0  0  0  0  0  0  0  0  0  0  0
    1.9177   -4.5325    2.1793 C   0  0  0  0  0  0  0  0  0  0  0  0
    1.3588   -3.5089    2.9343 C   0  0  0  0  0  0  0  0  0  0  0  0
    1.7919   -2.1975    2.7478 C   0  0  0  0  0  0  0  0  0  0  0  0
  1  2  2  0
  1  3  1  0
  4  7  1  1
  4  5  1  0
  4  1  1  0
  5  6  1  0
  7  8  1  0
  8  9  2  0
  8 13  1  0
  9 10  1  0
 10 11  2  0
 11 12  1  0
 12 13  2  0
M  END
>  <DRUGBANK_ID>  (1) 
DB03441

>  <SECONDARY_ACCESSION_NUMBERS>  (1) 
EXPT00709

>  <COMMON_NAME>  (1) 
2-Benzyl-3-Iodopropanoic Acid

$$$$
