
     RDKit          3D

 27 30  0  0  0  0  0  0  0  0999 V2000
    1.4488    0.3373    0.0043 C   0  0  0  0  0  0  0  0  0  0  0  0
    2.7186    0.9280   -0.0017 C   0  0  0  0  0  0  0  0  0  0  0  0
    3.9396    0.3158    0.0154 C   0  0  0  0  0  0  0  0  0  0  0  0
    3.9130   -1.0324    0.0150 C   0  0  0  0  0  0  0  0  0  0  0  0
    2.6779   -1.6975    0.0118 C   0  0  0  0  0  0  0  0  0  0  0  0
    1.4395   -1.0285    0.0145 C   0  0  0  0  0  0  0  0  0  0  0  0
   -0.0226   -2.0194   -0.0001 S   0  0  0  0  0  0  0  0  0  0  0  0
   -1.3646   -0.8468   -0.0014 C   0  0  0  0  0  0  0  0  0  0  0  0
   -1.2191    0.5466   -0.0204 C   0  0  0  0  0  0  0  0  0  0  0  0
    0.2031    1.1372   -0.0637 C   0  0  0  0  0  0  0  0  0  0  0  0
   -2.4324    1.3143    0.0031 C   0  0  0  0  0  0  0  0  0  0  0  0
   -2.6437   -1.4371    0.0053 C   0  0  0  0  0  0  0  0  0  0  0  0
   -3.8057   -0.6717    0.0038 C   0  0  0  0  0  0  0  0  0  0  0  0
   -3.6989    0.7058    0.0068 C   0  0  0  0  0  0  0  0  0  0  0  0
    0.3551    2.4276   -0.2215 C   0  0  0  0  0  0  0  0  0  0  0  0
    1.5149    3.4846   -0.1893 C   0  0  0  0  0  0  0  0  0  0  0  0
    1.5004    4.4646   -1.3734 C   0  0  0  0  0  0  0  0  0  0  0  0
    0.3480    5.2938   -1.2319 N   0  0  0  0  0  0  0  0  0  0  0  0
    0.3275    7.7004   -0.4429 C   0  0  0  0  0  0  0  0  0  0  0  0
    0.2114    6.6884   -1.6374 C   0  0  0  0  0  0  0  0  0  0  0  0
   -0.2728    5.1299    0.0497 C   0  0  0  0  0  0  0  0  0  0  0  0
    0.1839    6.0302    1.1676 C   0  0  0  0  0  0  0  0  0  0  0  0
   -0.3091    7.3391    0.8572 N   0  0  0  0  0  0  0  0  0  0  0  0
   -1.7974    7.3622    0.9446 C   0  0  0  0  0  0  0  0  0  0  0  0
   -2.7504    6.4783    0.0813 C   0  0  0  0  0  0  0  0  0  0  0  0
   -2.9192    5.1587    0.6351 O   0  0  0  0  0  0  0  0  0  0  0  0
   -5.1338    1.6635    0.0033 Cl  0  0  0  0  0  0  0  0  0  0  0  0
  1  2  2  0
  1  6  1  0
  1 10  1  0
  2  3  1  0
  3  4  2  0
  4  5  1  0
  5  6  2  0
  6  7  1  0
  7  8  1  0
  8  9  2  0
  8 12  1  0
  9 10  1  0
 10 15  2  3
 11  9  1  0
 11 14  2  0
 12 13  2  0
 13 14  1  0
 14 27  1  0
 15 16  1  0
 16 17  1  0
 17 18  1  0
 18 21  1  0
 19 20  1  0
 19 23  1  0
 20 18  1  0
 21 22  1  0
 22 23  1  0
 23 24  1  0
 24 25  1  0
 25 26  1  0
M  END
>  <DRUGBANK_ID>  (1) 
DB13841

>  <COMMON_NAME>  (1) 
Clopenthixol

>  <CAS_NUMBER>  (1) 
982-24-1

>  <UNII>  (1) 
0A432D932A

>  <SYNONYMS>  (1) 
4-(3-(2-Chloro-9H-thioxanthen-9-ylidene)propyl)-1-piperazineethanol; 4-(3-(2-Chlorothioxanthen-9-ylidene)propyl)-1-piperazineethanol; Chlorpenthixol; Clopenthixol; Clopenthixolum; Clopentixol; Sordinol

$$$$
