1242
     RDKit          3D

 22 24  0  0  0  0  0  0  0  0999 V2000
   -4.3526    0.9567   -0.1570 Cl  0  0  0  0  0  0  0  0  0  0  0  0
    0.5962    0.5294    0.9852 N   0  0  0  0  0  0  0  0  0  0  0  0
    3.4252    2.2227    3.1846 N   0  0  0  0  0  0  0  0  0  0  0  0
    0.4503    0.9493    2.4086 C   0  0  0  0  0  0  0  0  0  0  0  0
   -0.5457   -0.1072    0.4698 C   0  0  0  0  0  0  0  0  0  0  0  0
    1.7763    0.5651    0.2455 C   0  0  0  0  0  0  0  0  0  0  0  0
    0.7670   -2.2830   -0.0972 C   0  0  0  0  0  0  0  0  0  0  0  0
    2.0090   -1.8678    0.6978 C   0  0  0  0  0  0  0  0  0  0  0  0
   -0.4671   -1.3895   -0.1040 C   0  0  0  0  0  0  0  0  0  0  0  0
    2.5710   -0.5933    0.1345 C   0  0  0  0  0  0  0  0  0  0  0  0
    1.5091    0.4850    3.4195 C   0  0  0  0  0  0  0  0  0  0  0  0
    2.9791    0.8125    3.1486 C   0  0  0  0  0  0  0  0  0  0  0  0
   -1.7561    0.6103    0.4535 C   0  0  0  0  0  0  0  0  0  0  0  0
    2.2031    1.7069   -0.4454 C   0  0  0  0  0  0  0  0  0  0  0  0
   -1.6083   -1.8925   -0.7437 C   0  0  0  0  0  0  0  0  0  0  0  0
    3.8330   -0.5361   -0.4610 C   0  0  0  0  0  0  0  0  0  0  0  0
   -2.8791    0.0721   -0.1515 C   0  0  0  0  0  0  0  0  0  0  0  0
    3.4900    1.7896   -0.9749 C   0  0  0  0  0  0  0  0  0  0  0  0
   -2.8028   -1.1706   -0.7668 C   0  0  0  0  0  0  0  0  0  0  0  0
    4.3194    0.6651   -0.9724 C   0  0  0  0  0  0  0  0  0  0  0  0
    4.7671    2.2776    2.5815 C   0  0  0  0  0  0  0  0  0  0  0  0
    2.5905    3.1445    2.4271 C   0  0  0  0  0  0  0  0  0  0  0  0
  1 17  1  0
  2  4  1  0
  2  5  1  0
  2  6  1  0
  3 12  1  0
  3 21  1  0
  3 22  1  0
  4 11  1  0
  5  9  2  0
  5 13  1  0
  6 10  2  0
  6 14  1  0
  7  8  1  0
  7  9  1  0
  8 10  1  0
  9 15  1  0
 10 16  1  0
 11 12  1  0
 13 17  2  0
 14 18  2  0
 15 19  2  0
 16 20  2  0
 17 19  1  0
 18 20  1  0
M  END
>  <DRUGBANK_ID>  (1) 
DB01242

>  <SECONDARY_ACCESSION_NUMBERS>  (1) 
APRD00253; DB07600

>  <COMMON_NAME>  (1) 
Clomipramine

>  <CAS_NUMBER>  (1) 
303-49-1

>  <UNII>  (1) 
NUV44L116D

>  <SYNONYMS>  (1) 
3-(3-chloro-10,11-dihydro-5H-dibenzo[b,f]azepin-5-yl)-N,N-dimethyl-1-propanamine; 3-(3-chloro-5H-dibenzo[b,F]azepin-5-yl)-N,N-dimethylpropan-1-amine; 3-Chloroimipramine; Chlorimipramine; Clomipramina; Clomipramine; Clomipraminum; Monochlorimipramine

$$$$
