
     RDKit          3D

 22 24  0  0  1  0  0  0  0  0999 V2000
   -1.4536   -0.2741    2.0933 C   0  0  0  0  0  0  0  0  0  0  0  0
   -0.4451    0.0748   -0.0263 C   0  0  0  0  0  0  0  0  0  0  0  0
   -0.8830   -5.4003    2.6205 C   0  0  0  0  0  0  0  0  0  0  0  0
   -0.9884   -2.9124    3.2527 C   0  0  0  0  0  0  0  0  0  0  0  0
    0.5687   -5.2570    2.9600 C   0  0  1  0  0  0  0  0  0  0  0  0
    1.4000   -3.3040    3.0367 C   0  0  1  0  0  0  0  0  0  0  0  0
    0.8153   -2.6874    1.7919 C   0  0  1  0  0  0  0  0  0  0  0  0
   -0.5024   -0.9609    1.0984 C   0  0  0  0  0  0  0  0  0  0  0  0
   -0.6381   -3.1567    1.7774 C   0  0  1  0  0  0  0  0  0  0  0  0
   -0.1700   -5.0607    4.9746 N   0  0  0  0  0  0  0  0  0  0  0  0
    2.5363   -5.1827    2.8958 O   0  0  0  0  0  0  0  0  0  0  0  0
    3.1183   -4.1521    4.9887 O   0  0  0  0  0  0  0  0  0  0  0  0
    0.9066   -5.8816    7.1429 O   0  0  0  0  0  0  0  0  0  0  0  0
    1.0645   -3.8306    7.1794 O   0  0  0  0  0  0  0  0  0  0  0  0
   -0.9963   -4.5565    1.4659 O   0  0  0  0  0  0  0  0  0  0  0  0
    0.1050   -3.5022    4.1618 O   0  0  0  0  0  0  0  0  0  0  0  0
    0.8203   -1.2691    1.6022 O   0  0  0  0  0  0  0  0  0  0  0  0
    1.1018   -6.2274    4.6131 O   0  0  0  0  0  0  0  0  0  0  0  0
    1.4599   -3.0691    5.0310 O   0  0  0  0  0  0  0  0  0  0  0  0
   -1.1424   -2.2279    0.7925 O   0  0  0  0  0  0  0  0  0  0  0  0
    1.9966   -4.6404    4.1481 S   0  0  0  0  0  0  0  0  0  0  0  0
    1.5591   -4.8772    6.3079 S   0  0  0  0  0  0  0  0  0  0  0  0
  5  3  1  1
  6  5  1  0
  7  6  1  0
  8  1  1  0
  8  2  1  0
  9  7  1  0
  9  4  1  1
 15  3  1  0
 15  9  1  0
 16  4  1  0
  7 17  1  1
 17  8  1  0
 18  5  1  0
  6 19  1  1
 20  8  1  0
 20  9  1  0
 21 10  1  0
 21 11  2  0
 21 12  2  0
 21 16  1  0
 22 18  1  0
 22 19  1  0
 22 13  2  0
 22 14  2  0
M  END
>  <DRUGBANK_ID>  (1) 
DB02894

>  <SECONDARY_ACCESSION_NUMBERS>  (1) 
EXPT02924

>  <COMMON_NAME>  (1) 
Sulfamic Acid 2,3-O-(1-Methylethylidene)-4,5-O-Sulfonyl-Beta-Fructopyranose Ester

$$$$
