NSC
     RDKit          3D

 28 31  0  0  0  0  0  0  0  0999 V2000
   -1.2800   -0.9716   -0.6133 C   0  0  0  0  0  0  0  0  0  0  0  0
    0.0867   -0.4597   -0.5597 C   0  0  0  0  0  0  0  0  0  0  0  0
    1.6185   -1.1565   -0.7023 C   0  0  0  0  0  0  0  0  0  0  0  0
    2.2405   -2.9104    0.0837 N   0  0  0  0  0  0  0  0  0  0  0  0
    2.4375   -0.0741   -0.6362 C   0  0  0  0  0  0  0  0  0  0  0  0
    2.1845    1.2102   -0.2131 C   0  0  0  0  0  0  0  0  0  0  0  0
    3.5129    1.9014   -0.0038 C   0  0  0  0  0  0  0  0  0  0  0  0
    0.9930    1.6952    0.1111 N   0  0  0  0  0  0  0  0  0  0  0  0
   -0.0465    0.8952   -0.1261 C   0  0  0  0  0  0  0  0  0  0  0  0
   -1.3144    1.4782    0.0639 C   0  0  0  0  0  0  0  0  0  0  0  0
   -2.5365    0.8170   -0.2210 C   0  0  0  0  0  0  0  0  0  0  0  0
   -2.5238   -0.5298   -0.2653 C   0  0  0  0  0  0  0  0  0  0  0  0
   -3.5723   -1.4863    0.0181 N   0  0  0  0  0  0  0  0  0  0  0  0
   -3.6060   -2.8595    0.3336 C   0  0  0  0  0  0  0  0  0  0  0  0
   -4.6890   -3.4560    0.3525 O   0  0  0  0  0  0  0  0  0  0  0  0
   -2.5339   -3.6455    0.6421 N   0  0  0  0  0  0  0  0  0  0  0  0
   -1.2258   -3.3118    0.8507 C   0  0  0  0  0  0  0  0  0  0  0  0
   -0.4875   -3.7587   -0.2437 C   0  0  0  0  0  0  0  0  0  0  0  0
    0.4627   -2.8894   -0.4375 C   0  0  0  0  0  0  0  0  0  0  0  0
    1.6963   -3.0835   -1.8060 C   0  0  0  0  0  0  0  0  0  0  0  0
    1.8628   -4.4454   -2.2935 N   0  0  0  0  0  0  0  0  0  0  0  0
    3.3598   -2.5190   -1.6439 C   0  0  0  0  0  0  0  0  0  0  0  0
    3.9127   -1.8844   -0.1362 C   0  0  0  0  0  0  0  0  0  0  0  0
    5.0842   -0.9417   -0.5420 C   0  0  0  0  0  0  0  0  0  0  0  0
    2.8024   -1.5164    1.2359 N   0  0  0  0  0  0  0  0  0  0  0  0
    1.0608   -1.9365    1.1470 C   0  0  0  0  0  0  0  0  0  0  0  0
    0.2387   -1.5643    2.0988 C   0  0  0  0  0  0  0  0  0  0  0  0
   -0.9557   -2.1593    1.8228 C   0  0  0  0  0  0  0  0  0  0  0  0
  1  2  2  0
  1 12  1  0
  2  3  1  0
  2  9  1  0
  3  4  1  0
  3  5  2  0
  5  6  1  0
  6  7  1  0
  6  8  2  0
  8  9  1  0
  9 10  2  0
 10 11  1  0
 11 12  2  0
 12 13  1  0
 13 14  1  0
 14 15  2  0
 14 16  1  0
 16 17  1  0
 17 18  2  0
 17 28  1  0
 18 19  1  0
 19 20  2  0
 19 26  1  0
 20 21  1  0
 20 22  1  0
 22 23  2  0
 23 24  1  0
 23 25  1  0
 25 26  2  0
 26 27  1  0
 27 28  2  0
M  END
>  <DRUGBANK_ID>  (1) 
DB04452

>  <SECONDARY_ACCESSION_NUMBERS>  (1) 
EXPT02388

>  <COMMON_NAME>  (1) 
Aminoquinuride

>  <CAS_NUMBER>  (1) 
3811-56-1

>  <UNII>  (1) 
08T7936572

>  <SYNONYMS>  (1) 
Aminoquinuride

$$$$
