
     RDKit          3D

 26 29  0  0  0  0  0  0  0  0999 V2000
   -1.6095   -1.3385    0.0486 C   0  0  0  0  0  0  0  0  0  0  0  0
   -2.0050   -0.0501    0.0311 C   0  0  0  0  0  0  0  0  0  0  0  0
   -0.1475   -1.6697   -0.0399 C   0  0  0  0  0  0  0  0  0  0  0  0
   -1.0158    1.0706   -0.0492 C   0  0  0  0  0  0  0  0  0  0  0  0
    0.8349   -0.5785    0.0004 C   0  0  0  0  0  0  0  0  0  0  0  0
    0.4150    0.7423   -0.0036 C   0  0  0  0  0  0  0  0  0  0  0  0
   -2.5518   -2.5172    0.2216 C   0  0  2  0  0  0  0  0  0  0  0  0
    0.2540   -2.8229   -0.1335 O   0  0  0  0  0  0  0  0  0  0  0  0
   -1.3752    2.2375   -0.1371 O   0  0  0  0  0  0  0  0  0  0  0  0
   -4.3138   -6.4755    0.7941 C   0  0  0  0  0  0  0  0  0  0  0  0
   -3.3272    0.3590    0.1047 O   0  0  0  0  0  0  0  0  0  0  0  0
   -3.2870   -5.3760    0.5543 C   0  0  1  0  0  0  0  0  0  0  0  0
   -2.2327   -3.2689    1.5172 C   0  0  0  0  0  0  0  0  0  0  0  0
   -2.6098   -3.4609   -0.9876 C   0  0  0  0  0  0  0  0  0  0  0  0
   -3.5882   -4.6121   -0.7501 C   0  0  0  0  0  0  0  0  0  0  0  0
   -3.2153   -4.3952    1.7383 C   0  0  0  0  0  0  0  0  0  0  0  0
   -4.4906   -7.4923   -0.1565 C   0  0  0  0  0  0  0  0  0  0  0  0
   -5.1000   -6.5125    1.9594 C   0  0  0  0  0  0  0  0  0  0  0  0
   -6.1909   -8.5165    1.2212 C   0  0  0  0  0  0  0  0  0  0  0  0
   -6.0312   -7.5216    2.1742 C   0  0  0  0  0  0  0  0  0  0  0  0
   -5.4322   -8.5030    0.0530 C   0  0  0  0  0  0  0  0  0  0  0  0
   -7.3281   -9.7733    1.5006 Cl  0  0  0  0  0  0  0  0  0  0  0  0
    2.2053   -0.8783    0.0232 C   0  0  0  0  0  0  0  0  0  0  0  0
    1.3594    1.7762    0.0145 C   0  0  0  0  0  0  0  0  0  0  0  0
    3.1460    0.1519    0.0355 C   0  0  0  0  0  0  0  0  0  0  0  0
    2.7224    1.4793    0.0296 C   0  0  0  0  0  0  0  0  0  0  0  0
  2  1  2  0
  3  1  1  0
  4  2  1  0
  5  3  1  0
  6  5  2  0
  6  4  1  0
  7  1  1  6
  8  3  2  0
  9  4  2  0
 11  2  1  0
 12 15  1  0
 12 10  1  1
 13  7  1  0
 14  7  1  0
 15 14  1  0
 16 13  1  0
 16 12  1  0
 17 10  2  0
 18 10  1  0
 19 20  1  0
 20 18  2  0
 21 17  1  0
 21 19  2  0
 22 19  1  0
 23  5  1  0
 24  6  1  0
 25 23  2  0
 26 25  1  0
 26 24  2  0
M  END
>  <DRUGBANK_ID>  (1) 
DB01117

>  <SECONDARY_ACCESSION_NUMBERS>  (1) 
APRD00805

>  <COMMON_NAME>  (1) 
Atovaquone

>  <CAS_NUMBER>  (1) 
95233-18-4

>  <UNII>  (1) 
Y883P1Z2LT

>  <SYNONYMS>  (1) 
2-(trans-4-(p-Chlorophenyl)cyclohexyl)-3-hydroxy-1,4-naphthoquinone; Atovacuona; Atovaquone

$$$$
