1481
     RDKit          3D

 21 24  0  0  1  0  0  0  0  0999 V2000
   -6.6020   -2.6720    9.5097 O   0  0  0  0  0  0  0  0  0  0  0  0
   -5.7301   -8.2280    3.2499 O   0  0  0  0  0  0  0  0  0  0  0  0
   -4.1250   -3.2847    8.0194 C   0  0  2  0  0  0  0  0  0  0  0  0
   -3.8599   -4.4121    7.0911 C   0  0  2  0  0  0  0  0  0  0  0  0
   -4.3519   -1.8373    7.8387 C   0  0  1  0  0  0  0  0  0  0  0  0
   -4.3369   -4.1616    5.6029 C   0  0  2  0  0  0  0  0  0  0  0  0
   -3.5828   -5.2780    4.7168 C   0  0  2  0  0  0  0  0  0  0  0  0
   -4.8167   -1.6756    6.2804 C   0  0  0  0  0  0  0  0  0  0  0  0
   -4.1274   -2.6937    5.2400 C   0  0  0  0  0  0  0  0  0  0  0  0
   -5.2478   -2.1149    9.4805 C   0  0  2  0  0  0  0  0  0  0  0  0
   -3.3538   -3.2779    9.3707 C   0  0  0  0  0  0  0  0  0  0  0  0
   -4.6544   -5.6766    7.5962 C   0  0  0  0  0  0  0  0  0  0  0  0
   -4.0468   -6.6229    5.4156 C   0  0  2  0  0  0  0  0  0  0  0  0
   -4.4127   -3.2859   10.4024 C   0  0  0  0  0  0  0  0  0  0  0  0
   -3.8082   -6.7423    6.9329 C   0  0  0  0  0  0  0  0  0  0  0  0
   -2.9218   -1.0722    7.7019 C   0  0  0  0  0  0  0  0  0  0  0  0
   -2.0951   -4.8696    4.8171 C   0  0  0  0  0  0  0  0  0  0  0  0
   -3.6995   -5.5056    3.1694 C   0  0  0  0  0  0  0  0  0  0  0  0
   -3.8110   -7.9050    4.6436 C   0  0  0  0  0  0  0  0  0  0  0  0
   -4.1963   -6.5910    2.5498 C   0  0  0  0  0  0  0  0  0  0  0  0
   -4.7009   -7.6761    3.4405 C   0  0  0  0  0  0  0  0  0  0  0  0
  2 21  2  0
  3  4  1  0
  3  5  1  0
  3 11  1  1
  4  6  1  0
  4 12  1  1
  5  8  1  0
  5 10  1  0
  5 16  1  1
  6  7  1  0
  6  9  1  6
  7 13  1  0
  7 18  1  0
  7 17  1  6
  8  9  1  0
 10 14  1  0
 10  1  1  6
 11 14  1  0
 12 15  1  0
 13 15  1  1
 13 19  1  0
 18 20  2  0
 19 21  1  0
 20 21  1  0
M  END
>  <DRUGBANK_ID>  (1) 
DB01481

>  <COMMON_NAME>  (1) 
1-Testosterone

>  <CAS_NUMBER>  (1) 
65-06-5

>  <UNII>  (1) 
Y984BV1Q0G

>  <SYNONYMS>  (1) 
1-T; 1-Testo; 17beta-hydroxy-5alpha-androst-1-en-3-one; Androstendolone; delta1-Dihydrotestosterone

$$$$
