
     RDKit          3D

 12 12  0  0  0  0  0  0  0  0999 V2000
    1.1296   -0.1246    0.2300 N   0  0  0  0  0  0  0  0  0  0  0  0
    0.4028    1.0939    0.3643 C   0  0  0  0  0  0  0  0  0  0  0  0
    0.7570    2.3175   -0.2606 C   0  0  0  0  0  0  0  0  0  0  0  0
   -0.0779    3.4336   -0.0680 C   0  0  0  0  0  0  0  0  0  0  0  0
   -1.3182    3.3001    0.5664 C   0  0  0  0  0  0  0  0  0  0  0  0
   -1.6428    2.1188    1.2225 C   0  0  0  0  0  0  0  0  0  0  0  0
   -3.0682    2.0714    2.1872 Cl  0  0  0  0  0  0  0  0  0  0  0  0
   -0.7749    1.0352    1.1386 C   0  0  0  0  0  0  0  0  0  0  0  0
   -1.0353   -0.1209    1.8342 O   0  0  0  0  0  0  0  0  0  0  0  0
    1.9568    2.3948   -1.1548 C   0  0  0  0  0  0  0  0  0  0  0  0
    2.2603    3.5880   -1.7039 O   0  0  0  0  0  0  0  0  0  0  0  0
    2.6268    1.3983   -1.4184 O   0  0  0  0  0  0  0  0  0  0  0  0
  1  2  1  0
  2  3  2  0
  2  8  1  0
  3  4  1  0
  3 10  1  0
  4  5  2  0
  5  6  1  0
  6  7  1  0
  6  8  2  0
  8  9  1  0
 10 11  1  0
 10 12  2  0
M  END
>  <DRUGBANK_ID>  (1) 
DB04598

>  <COMMON_NAME>  (1) 
2-AMINO-4-CHLORO-3-HYDROXYBENZOIC ACID

>  <UNII>  (1) 
R67LEH4X5Q

$$$$
