
     RDKit          3D

 28 31  0  0  1  0  0  0  0  0999 V2000
    1.0963   -0.4944   -0.3543 C   0  0  0  0  0  0  0  0  0  0  0  0
    1.9519   -1.5303   -1.0587 C   0  0  0  0  0  0  0  0  0  0  0  0
    1.6806   -2.9726   -0.6162 C   0  0  0  0  0  0  0  0  0  0  0  0
    1.5064   -3.2095    0.7126 C   0  0  0  0  0  0  0  0  0  0  0  0
    1.6082   -1.9698    1.5926 C   0  0  1  0  0  0  0  0  0  0  0  0
    0.7258   -0.9315    0.8536 C   0  0  0  0  0  0  0  0  0  0  0  0
    1.2340   -4.5503    1.3443 C   0  0  2  0  0  0  0  0  0  0  0  0
    1.4322   -4.6418    2.9115 C   0  0  0  0  0  0  0  0  0  0  0  0
    0.8266   -3.4132    3.6661 C   0  0  2  0  0  0  0  0  0  0  0  0
    1.3390   -2.0488    3.1445 C   0  0  2  0  0  0  0  0  0  0  0  0
    0.4494   -3.2730    5.2643 C   0  0  1  0  0  0  0  0  0  0  0  0
   -0.7456   -2.1661    5.2359 C   0  0  2  0  0  0  0  0  0  0  0  0
    0.1904   -0.9283    5.0173 C   0  0  0  0  0  0  0  0  0  0  0  0
    0.5914   -0.7509    3.6137 C   0  0  2  0  0  0  0  0  0  0  0  0
    1.9721   -5.5251    0.7422 F   0  0  0  0  0  0  0  0  0  0  0  0
    3.0011   -1.9970    4.2106 Cl  0  0  0  0  0  0  0  0  0  0  0  0
   -1.8780   -1.3211    5.8773 C   0  0  0  0  0  0  0  0  0  0  0  0
    3.0986   -1.5606    1.5261 C   0  0  0  0  0  0  0  0  0  0  0  0
    2.8541   -1.2197   -1.7479 O   0  0  0  0  0  0  0  0  0  0  0  0
   -0.5671   -0.2588    2.9403 O   0  0  0  0  0  0  0  0  0  0  0  0
   -1.7380   -3.2689    4.6065 C   0  0  2  0  0  0  0  0  0  0  0  0
   -1.5379   -4.4241    5.7025 C   0  0  1  0  0  0  0  0  0  0  0  0
   -0.0415   -4.5454    5.9040 C   0  0  0  0  0  0  0  0  0  0  0  0
   -2.2317   -2.8816    3.1794 C   0  0  0  0  0  0  0  0  0  0  0  0
   -1.8732   -3.5732    1.8783 C   0  0  0  0  0  0  0  0  0  0  0  0
   -2.8502   -1.8077    3.0737 O   0  0  0  0  0  0  0  0  0  0  0  0
   -2.5993   -3.1181    0.7495 O   0  0  0  0  0  0  0  0  0  0  0  0
   -2.1578   -3.8825    7.0593 C   0  0  0  0  0  0  0  0  0  0  0  0
  1  2  1  0
  1  6  2  0
  2  3  1  0
  2 19  2  0
  3  4  2  0
  4  5  1  0
  4  7  1  0
  5  6  1  0
  5 10  1  0
  5 18  1  1
  7  8  1  0
  7 15  1  6
  9  8  1  1
  9 10  1  0
  9 11  1  0
 10 14  1  0
 10 16  1  1
 11 12  1  0
 12 13  1  0
 12 17  1  1
 13 14  1  0
 14 20  1  6
 21 12  1  0
 21 24  1  6
 22 21  1  0
 22 28  1  1
 11 23  1  6
 23 22  1  0
 24 25  1  0
 24 26  2  0
 25 27  1  0
M  END
>  <DRUGBANK_ID>  (1) 
DB00838

>  <SECONDARY_ACCESSION_NUMBERS>  (1) 
APRD00877

>  <COMMON_NAME>  (1) 
Clocortolone

>  <CAS_NUMBER>  (1) 
4828-27-7

>  <UNII>  (1) 
N8ZUB7XE0H

>  <SYNONYMS>  (1) 
9-chloro-6alpha-Fluoro-11beta,21-dihydroxy-16alpha-methyl-1,4-pregnadien-3,20-dione; 9-chloro-6alpha-Fluoro-16alpha-methyl-1,4-pregnadiene-11beta,21-diol-3,20-dione; Clocortolon; Clocortolona; Clocortolone; Clocortolonum

$$$$
