IOE
     RDKit          3D

 23 24  0  0  0  0  0  0  0  0999 V2000
    1.2128   -0.3114    0.2128 C   0  0  0  0  0  0  0  0  0  0  0  0
    0.3458   -1.3741    0.0633 C   0  0  0  0  0  0  0  0  0  0  0  0
   -1.0015   -1.1190   -0.0215 C   0  0  0  0  0  0  0  0  0  0  0  0
   -1.4607    0.2021   -0.0171 C   0  0  0  0  0  0  0  0  0  0  0  0
   -0.5342    1.2694   -0.0006 C   0  0  0  0  0  0  0  0  0  0  0  0
    0.8454    1.0204    0.0196 C   0  0  0  0  0  0  0  0  0  0  0  0
    1.8097    2.1636   -0.2090 C   0  0  0  0  0  0  0  0  0  0  0  0
    1.3693    3.3099   -0.3139 O   0  0  0  0  0  0  0  0  0  0  0  0
    3.1675    1.9897   -0.3828 N   0  0  0  0  0  0  0  0  0  0  0  0
    3.9805    0.7989   -0.4061 C   0  0  0  0  0  0  0  0  0  0  0  0
   -2.0684   -2.5208   -0.0070 S   0  0  0  0  0  0  0  0  0  0  0  0
   -2.9188   -2.3265    1.4322 N   0  0  0  0  0  0  0  0  0  0  0  0
   -2.9879   -2.4149   -1.1022 O   0  0  0  0  0  0  0  0  0  0  0  0
   -1.2590   -3.7077    0.2143 O   0  0  0  0  0  0  0  0  0  0  0  0
    4.6025    0.4311   -1.6996 C   0  0  0  0  0  0  0  0  0  0  0  0
    5.2637    1.3783   -2.4545 C   0  0  0  0  0  0  0  0  0  0  0  0
    5.9366    1.0121   -3.6029 C   0  0  0  0  0  0  0  0  0  0  0  0
    5.9646   -0.3280   -3.9793 C   0  0  0  0  0  0  0  0  0  0  0  0
    5.3246   -1.3079   -3.2362 C   0  0  0  0  0  0  0  0  0  0  0  0
    4.6057   -0.9115   -2.1250 C   0  0  0  0  0  0  0  0  0  0  0  0
    3.8932   -1.8388   -1.4623 F   0  0  0  0  0  0  0  0  0  0  0  0
    6.6108   -0.6774   -5.0962 F   0  0  0  0  0  0  0  0  0  0  0  0
    5.2482    2.6610   -2.0692 F   0  0  0  0  0  0  0  0  0  0  0  0
  1  2  2  0
  1  6  1  0
  2  3  1  0
  3  4  2  0
  3 11  1  0
  4  5  1  0
  5  6  2  0
  6  7  1  0
  7  8  2  0
  7  9  1  0
  9 10  1  0
 10 15  1  0
 11 12  1  0
 11 13  2  0
 11 14  2  0
 15 16  2  0
 15 20  1  0
 16 17  1  0
 16 23  1  0
 17 18  2  0
 18 19  1  0
 18 22  1  0
 19 20  2  0
 20 21  1  0
M  END
>  <DRUGBANK_ID>  (1) 
DB02221

>  <SECONDARY_ACCESSION_NUMBERS>  (1) 
EXPT01903

>  <COMMON_NAME>  (1) 
4-(Aminosulfonyl)-N-[(2,4,6-Trifluorophenyl)Methyl]-Benzamide

$$$$
