
     RDKit          3D

 14 14  0  0  0  0  0  0  0  0999 V2000
    1.0921    0.0569    0.4762 C   0  0  0  0  0  0  0  0  0  0  0  0
    0.9052   -0.8817   -2.4633 C   0  0  0  0  0  0  0  0  0  0  0  0
   -0.3126   -2.8698    1.9701 C   0  0  0  0  0  0  0  0  0  0  0  0
    1.8804   -2.6946   -0.9114 C   0  0  0  0  0  0  0  0  0  0  0  0
    0.5987   -1.3158    0.8038 C   0  0  0  0  0  0  0  0  0  0  0  0
    1.2590   -2.3458   -2.2802 C   0  0  0  0  0  0  0  0  0  0  0  0
    0.4818   -3.5174    1.0609 C   0  0  0  0  0  0  0  0  0  0  0  0
    2.3961    0.1199   -2.3825 Cl  0  0  0  0  0  0  0  0  0  0  0  0
   -0.2712   -1.5229    1.7719 N   0  0  0  0  0  0  0  0  0  0  0  0
    1.0120   -2.5346    0.2428 N   0  0  0  0  0  0  0  0  0  0  0  0
    0.7217   -4.9270    1.0055 N   0  0  0  0  0  0  0  0  0  0  0  0
    2.1825   -2.7046   -3.3150 O   0  0  0  0  0  0  0  0  0  0  0  0
    1.4555   -5.3744    0.1332 O   0  0  0  0  0  0  0  0  0  0  0  0
    0.1515   -5.6087    1.8764 O   0  0  0  0  0  0  0  0  0  0  0  0
  5  1  1  0
  6  2  1  0
  6  4  1  0
  7  3  2  0
  8  2  1  0
  9  3  1  0
  9  5  2  0
 10  4  1  0
 10  5  1  0
 10  7  1  0
 11  7  1  0
 12  6  1  0
 13 11  1  0
 14 11  2  0
M  CHG  2  11   1  13  -1
M  END
>  <DRUGBANK_ID>  (1) 
DB13026

>  <COMMON_NAME>  (1) 
Ornidazole

>  <CAS_NUMBER>  (1) 
16773-42-5

>  <UNII>  (1) 
62XCK0G93T

>  <SYNONYMS>  (1) 
ornidazol; Ornidazole

$$$$
