
     RDKit          3D

  2  1  0  0  0  0  0  0  0  0999 V2000
    0.9704    0.0574    0.0742 N   0  0  0  0  0  2  0  0  0  0  0  0
    2.1863    0.0574    0.0742 O   0  0  0  0  0  0  0  0  0  0  0  0
  2  1  2  0
M  RAD  1   1   2
M  END
>  <DRUGBANK_ID>  (1) 
DB00435

>  <SECONDARY_ACCESSION_NUMBERS>  (1) 
APRD01142

>  <COMMON_NAME>  (1) 
Nitric Oxide

>  <CAS_NUMBER>  (1) 
10102-43-9

>  <UNII>  (1) 
31C4KY9ESH

>  <SYNONYMS>  (1) 
EDRF; endothelium-derived relaxing factor; Mononitrogen monoxide; Monóxido de nitrógeno; Monoxyde d'azote; Nitric Oxide; Nitrogen monooxide; Nitrogen monoxide; Nitrosyl; NO; óxido de nitrógeno(II); óxido nítrico; Oxyde azotique; Oxyde nitrique; Stickstoff(II)-oxid; Stickstoffmonoxid

$$$$
