
     RDKit          3D

 40 43  0  0  0  0  0  0  0  0999 V2000
   -2.1797   10.6916   10.5563 Cl  0  0  0  0  0  0  0  0  0  0  0  0
   -4.7210    4.6011    9.8585 F   0  0  0  0  0  0  0  0  0  0  0  0
   -3.7288    2.7559   10.4546 F   0  0  0  0  0  0  0  0  0  0  0  0
   -3.9623    4.3751   11.8882 F   0  0  0  0  0  0  0  0  0  0  0  0
   -1.2899    4.1276   10.9923 O   0  0  0  0  0  0  0  0  0  0  0  0
    9.0348    1.9169   12.1747 O   0  0  0  0  0  0  0  0  0  0  0  0
    9.3239   -0.2986   11.9912 O   0  0  0  0  0  0  0  0  0  0  0  0
   -2.0046    6.3925    7.7624 N   0  0  0  0  0  0  0  0  0  0  0  0
   -2.9122    5.5137    7.2594 N   0  0  0  0  0  0  0  0  0  0  0  0
    0.3500    5.7237   10.4265 N   0  0  0  0  0  0  0  0  0  0  0  0
    2.6278    5.0983   10.4447 N   0  0  0  0  0  0  0  0  0  0  0  0
    2.0067    7.2940   10.0464 N   0  0  0  0  0  0  0  0  0  0  0  0
    8.3431    0.2058    9.1985 N   0  0  0  0  0  0  0  0  0  0  0  0
   -2.3303    4.6725   10.1409 C   0  0  2  0  0  0  0  0  0  0  0  0
   -2.3936    6.1931   10.1841 C   0  0  0  0  0  0  0  0  0  0  0  0
   -3.6931    4.1043   10.5857 C   0  0  0  0  0  0  0  0  0  0  0  0
   -2.1773    6.9870    9.0385 C   0  0  0  0  0  0  0  0  0  0  0  0
   -2.5339    6.8277   11.4377 C   0  0  0  0  0  0  0  0  0  0  0  0
    0.0110    4.4454   10.6490 C   0  0  0  0  0  0  0  0  0  0  0  0
   -2.0833    8.3797    9.1578 C   0  0  0  0  0  0  0  0  0  0  0  0
   -2.2539    8.9791   10.4095 C   0  0  0  0  0  0  0  0  0  0  0  0
   -2.4817    8.2123   11.5480 C   0  0  0  0  0  0  0  0  0  0  0  0
    0.9269    3.4404   10.7678 C   0  0  0  0  0  0  0  0  0  0  0  0
   -0.9170    6.5311    6.9335 C   0  0  0  0  0  0  0  0  0  0  0  0
    2.2448    3.8185   10.6446 C   0  0  0  0  0  0  0  0  0  0  0  0
   -2.4196    5.1656    6.0619 C   0  0  0  0  0  0  0  0  0  0  0  0
    1.6530    6.0003   10.3247 C   0  0  0  0  0  0  0  0  0  0  0  0
   -1.1507    5.7382    5.8361 C   0  0  0  0  0  0  0  0  0  0  0  0
    3.3063    2.8166   10.7069 C   0  0  0  0  0  0  0  0  0  0  0  0
    3.3363    1.7586    9.7783 C   0  0  0  0  0  0  0  0  0  0  0  0
    4.2858    2.8628   11.7013 C   0  0  0  0  0  0  0  0  0  0  0  0
    5.2997    0.8336   10.8174 C   0  0  0  0  0  0  0  0  0  0  0  0
   -3.1515    4.2587    5.1396 C   0  0  0  0  0  0  0  0  0  0  0  0
    4.3387    0.7904    9.8114 C   0  0  0  0  0  0  0  0  0  0  0  0
    5.2531    1.8656   11.7660 C   0  0  0  0  0  0  0  0  0  0  0  0
    7.7244    0.6830   10.4589 C   0  0  1  0  0  0  0  0  0  0  0  0
    6.4737   -0.1236   10.8254 C   0  0  0  0  0  0  0  0  0  0  0  0
    8.7407    0.7221   11.6040 C   0  0  0  0  0  0  0  0  0  0  0  0
    8.5066    3.2132   11.8116 C   0  0  0  0  0  0  0  0  0  0  0  0
    8.8525    3.6481   10.3995 C   0  0  0  0  0  0  0  0  0  0  0  0
  1 21  1  0
  5 19  1  0
  6 39  1  0
  8 24  1  0
  9  8  1  0
 10 19  2  0
 11 27  2  0
 14  5  1  1
 14 16  1  0
 15 14  1  0
 15 17  1  0
 16  2  1  0
 16  3  1  0
 16  4  1  0
 17  8  1  0
 17 20  2  0
 18 15  2  0
 19 23  1  0
 20 21  1  0
 21 22  2  0
 22 18  1  0
 23 25  2  0
 24 28  2  0
 25 11  1  0
 25 29  1  0
 26  9  2  0
 26 33  1  0
 27 10  1  0
 27 12  1  0
 28 26  1  0
 29 31  1  0
 30 29  2  0
 31 35  2  0
 32 34  2  0
 32 37  1  0
 34 30  1  0
 35 32  1  0
 36 38  1  0
 36 37  1  0
 36 13  1  6
 38  6  1  0
 38  7  2  0
 39 40  1  0
M  END
>  <DRUGBANK_ID>  (1) 
DB12095

>  <COMMON_NAME>  (1) 
Telotristat ethyl

>  <CAS_NUMBER>  (1) 
1033805-22-9

>  <UNII>  (1) 
8G388563M7

>  <SYNONYMS>  (1) 
Telotristat ethyl

$$$$
