
     RDKit          3D

 37 40  0  0  0  0  0  0  0  0999 V2000
    0.9949   -0.0918   -0.1677 C   0  0  0  0  0  0  0  0  0  0  0  0
    0.4855   -1.0669    0.8767 C   0  0  0  0  0  0  0  0  0  0  0  0
    0.9422   -0.6972    2.3049 C   0  0  0  0  0  0  0  0  0  0  0  0
    0.4765    0.7008    2.8045 C   0  0  0  0  0  0  0  0  0  0  0  0
    1.0563    1.8503    2.3061 C   0  0  0  0  0  0  0  0  0  0  0  0
    0.4211    2.9547    2.8357 N   0  0  0  0  0  0  0  0  0  0  0  0
   -0.5699    2.6020    3.7088 C   0  0  0  0  0  0  0  0  0  0  0  0
   -0.3956    1.2770    3.8292 C   0  0  0  0  0  0  0  0  0  0  0  0
   -1.0043    0.7250    4.9354 N   0  0  0  0  0  0  0  0  0  0  0  0
   -2.0340    1.1874    5.5730 C   0  0  0  0  0  0  0  0  0  0  0  0
   -2.3605    2.4916    5.3408 N   0  0  0  0  0  0  0  0  0  0  0  0
   -1.5032    3.3257    4.5781 C   0  0  0  0  0  0  0  0  0  0  0  0
   -1.5370    4.5206    4.7222 O   0  0  0  0  0  0  0  0  0  0  0  0
   -2.9640    0.1614    6.5529 C   0  0  0  0  0  0  0  0  0  0  0  0
   -4.3353    0.1214    6.3160 C   0  0  0  0  0  0  0  0  0  0  0  0
   -5.4452   -0.5339    6.8990 C   0  0  0  0  0  0  0  0  0  0  0  0
   -5.0850   -1.4433    7.8363 C   0  0  0  0  0  0  0  0  0  0  0  0
   -3.7270   -1.8121    7.8312 C   0  0  0  0  0  0  0  0  0  0  0  0
   -2.6770   -1.0230    7.2187 C   0  0  0  0  0  0  0  0  0  0  0  0
   -1.4607   -1.6385    7.3175 O   0  0  0  0  0  0  0  0  0  0  0  0
   -0.5117   -1.0487    6.4698 C   0  0  0  0  0  0  0  0  0  0  0  0
   -0.7569   -1.4987    4.9418 C   0  0  0  0  0  0  0  0  0  0  0  0
   -2.1385   -1.1613    4.0179 C   0  0  0  0  0  0  0  0  0  0  0  0
   -7.2145   -0.3050    6.4893 S   0  0  0  0  0  0  0  0  0  0  0  0
   -7.7758   -1.5700    6.1113 O   0  0  0  0  0  0  0  0  0  0  0  0
   -7.7637    0.4564    7.6114 O   0  0  0  0  0  0  0  0  0  0  0  0
   -7.4011    0.7009    5.1441 N   0  0  0  0  0  0  0  0  0  0  0  0
   -7.0882    0.1439    3.7860 C   0  0  0  0  0  0  0  0  0  0  0  0
   -5.5909    0.1915    3.5559 C   0  0  0  0  0  0  0  0  0  0  0  0
   -5.0033    1.5530    3.8848 N   0  0  0  0  0  0  0  0  0  0  0  0
   -5.5383    2.2850    5.1163 C   0  0  0  0  0  0  0  0  0  0  0  0
   -7.0434    2.1168    5.3636 C   0  0  0  0  0  0  0  0  0  0  0  0
   -4.8303    2.3636    2.6729 C   0  0  0  0  0  0  0  0  0  0  0  0
   -6.1599    2.8734    2.1075 C   0  0  0  0  0  0  0  0  0  0  0  0
   -6.7264    3.8063    3.0023 O   0  0  0  0  0  0  0  0  0  0  0  0
    0.9000    4.2932    2.6339 C   0  0  0  0  0  0  0  0  0  0  0  0
    2.3387    4.4222    3.0908 C   0  0  0  0  0  0  0  0  0  0  0  0
  1  2  1  0
  2  3  1  0
  3  4  1  0
  4  5  2  0
  4  8  1  0
  5  6  1  0
  6  7  1  0
  6 36  1  0
  7  8  2  0
  7 12  1  0
  8  9  1  0
  9 10  2  0
 10 11  1  0
 10 14  1  0
 11 12  1  0
 12 13  2  0
 14 15  2  0
 14 19  1  0
 15 16  1  0
 16 17  2  0
 16 24  1  0
 17 18  1  0
 18 19  2  0
 19 20  1  0
 20 21  1  0
 21 22  1  0
 22 23  1  0
 24 25  2  0
 24 26  2  0
 24 27  1  0
 27 28  1  0
 27 32  1  0
 28 29  1  0
 29 30  1  0
 30 31  1  0
 30 33  1  0
 31 32  1  0
 33 34  1  0
 34 35  1  0
 36 37  1  0
M  END
>  <DRUGBANK_ID>  (1) 
DB11792

>  <COMMON_NAME>  (1) 
Mirodenafil

>  <CAS_NUMBER>  (1) 
862189-95-5

>  <UNII>  (1) 
504G362H0H

>  <SYNONYMS>  (1) 
Mirodenafil

$$$$
