
     RDKit          3D

 20 21  0  0  0  0  0  0  0  0999 V2000
    0.9890    0.9763   -1.1293 C   0  0  0  0  0  0  0  0  0  0  0  0
   -0.3566    1.3543   -0.6845 C   0  0  0  0  0  0  0  0  0  0  0  0
   -1.0543    0.1983   -0.3415 C   0  0  0  0  0  0  0  0  0  0  0  0
   -0.4953   -1.0963   -0.5210 C   0  0  0  0  0  0  0  0  0  0  0  0
    0.7911   -1.3974   -1.0005 C   0  0  0  0  0  0  0  0  0  0  0  0
    1.9364   -0.4498   -1.0074 C   0  0  0  0  0  0  0  0  0  0  0  0
    3.8317   -0.5545   -0.1326 C   0  0  0  0  0  0  0  0  0  0  0  0
    4.5223   -0.9795    1.3735 C   0  0  0  0  0  0  0  0  0  0  0  0
    4.4003   -2.4572    1.4289 C   0  0  0  0  0  0  0  0  0  0  0  0
    4.7717   -3.1555    0.2256 O   0  0  0  0  0  0  0  0  0  0  0  0
    4.2959   -2.6445   -1.0055 C   0  0  0  0  0  0  0  0  0  0  0  0
    2.8250   -2.4672   -0.8638 C   0  0  0  0  0  0  0  0  0  0  0  0
    2.1966   -1.4559    0.7537 C   0  0  0  0  0  0  0  0  0  0  0  0
    2.5538    0.4276    0.6729 N   0  0  0  0  0  0  0  0  0  0  0  0
    3.2647    0.9369   -1.1286 C   0  0  0  0  0  0  0  0  0  0  0  0
    4.0258    2.1557   -1.2261 C   0  0  0  0  0  0  0  0  0  0  0  0
    2.9752    3.1192   -0.6921 C   0  0  0  0  0  0  0  0  0  0  0  0
    2.0724    2.6652    0.8519 C   0  0  0  0  0  0  0  0  0  0  0  0
    1.4932    1.1652    1.2548 C   0  0  0  0  0  0  0  0  0  0  0  0
   -2.6786    0.1462    0.1759 Cl  0  0  0  0  0  0  0  0  0  0  0  0
  1  2  2  0
  1  6  1  0
  2  3  1  0
  3  4  2  0
  3 20  1  0
  4  5  1  0
  5  6  2  0
  6  7  1  0
  7  8  1  0
  8  9  1  0
  9 10  1  0
 10 11  1  0
 11 12  1  0
 12 13  1  0
 13 14  1  0
 14 15  1  0
 14 19  1  0
 15 16  1  0
 16 17  1  0
 17 18  1  0
 18 19  1  0
M  END
>  <DRUGBANK_ID>  (1) 
DB11642

>  <COMMON_NAME>  (1) 
Pitolisant

>  <CAS_NUMBER>  (1) 
362665-56-3

>  <UNII>  (1) 
4BC83L4PIY

>  <SYNONYMS>  (1) 
Pitolisant

$$$$
