
     RDKit          3D

 27 28  0  0  1  0  0  0  0  0999 V2000
    1.2581    0.0422   -0.0453 C   0  0  0  0  0  0  0  0  0  0  0  0
    0.5170    1.3895   -0.2693 C   0  0  0  0  0  0  0  0  0  0  0  0
    0.8853    2.8572    0.2233 C   0  0  1  0  0  0  0  0  0  0  0  0
    1.2773    3.1640    1.6550 N   0  0  0  0  0  0  0  0  0  0  0  0
    0.1881    2.6287    2.5881 C   0  0  0  0  0  0  0  0  0  0  0  0
   -0.1009    1.1649    2.3257 C   0  0  0  0  0  0  0  0  0  0  0  0
   -0.9875    1.0214    0.6924 S   0  0  0  0  0  0  0  0  0  0  0  0
    1.3700    4.9506    2.0279 S   0  0  0  0  0  0  0  0  0  0  0  0
    0.0668    5.4875    1.6819 O   0  0  0  0  0  0  0  0  0  0  0  0
    1.8617    5.0503    3.3844 O   0  0  0  0  0  0  0  0  0  0  0  0
    2.5444    5.7696    0.9660 C   0  0  0  0  0  0  0  0  0  0  0  0
    2.0562    6.1648   -0.2563 C   0  0  0  0  0  0  0  0  0  0  0  0
    2.8926    6.6235   -1.2640 C   0  0  0  0  0  0  0  0  0  0  0  0
    4.2052    6.9359   -1.0484 C   0  0  0  0  0  0  0  0  0  0  0  0
    4.5797    6.9378    0.3019 C   0  0  0  0  0  0  0  0  0  0  0  0
    3.7881    6.2868    1.3048 C   0  0  0  0  0  0  0  0  0  0  0  0
    5.0801    7.3184   -2.0202 O   0  0  0  0  0  0  0  0  0  0  0  0
    4.8562    7.1520   -3.4658 C   0  0  0  0  0  0  0  0  0  0  0  0
    3.8122    6.2229   -3.9322 C   0  0  0  0  0  0  0  0  0  0  0  0
    2.8290    5.5253   -4.1588 C   0  0  0  0  0  0  0  0  0  0  0  0
    1.5580    4.7977   -4.1406 C   0  0  0  0  0  0  0  0  0  0  0  0
    1.8018    3.4110   -3.9204 O   0  0  0  0  0  0  0  0  0  0  0  0
    1.8807    3.4187   -0.7353 C   0  0  0  0  0  0  0  0  0  0  0  0
    1.4507    4.1684   -1.6051 O   0  0  0  0  0  0  0  0  0  0  0  0
    3.1747    3.0553   -0.7460 N   0  0  0  0  0  0  0  0  0  0  0  0
    3.6724    2.0152    0.0367 O   0  0  0  0  0  0  0  0  0  0  0  0
    0.4724    1.5211   -1.8140 C   0  0  0  0  0  0  0  0  0  0  0  0
  1  2  1  0
  2  3  1  0
  2  7  1  0
  2 27  1  0
  3  4  1  0
  3 23  1  6
  4  5  1  0
  4  8  1  0
  5  6  1  0
  6  7  1  0
  8  9  2  0
  8 10  2  0
  8 11  1  0
 11 12  2  0
 11 16  1  0
 12 13  1  0
 13 14  2  0
 14 15  1  0
 14 17  1  0
 15 16  2  0
 17 18  1  0
 18 19  1  0
 19 20  3  0
 20 21  1  0
 21 22  1  0
 23 24  2  0
 23 25  1  0
 25 26  1  0
M  END
>  <DRUGBANK_ID>  (1) 
DB13020

>  <COMMON_NAME>  (1) 
Apratastat

>  <CAS_NUMBER>  (1) 
287405-51-0

>  <UNII>  (1) 
C6BZ5263BJ

>  <SYNONYMS>  (1) 
Apratastat

$$$$
