
     RDKit          3D

 10 10  0  0  1  0  0  0  0  0999 V2000
    1.2595   -0.0616    0.0623 O   0  0  0  0  0  0  0  0  0  0  0  0
    0.6199   -0.9318    1.0094 C   0  0  2  0  0  0  0  0  0  0  0  0
    0.7751   -2.3858    0.5561 C   0  0  0  0  0  0  0  0  0  0  0  0
    0.0573   -2.6798   -0.6472 O   0  0  0  0  0  0  0  0  0  0  0  0
   -1.3276   -2.3193   -0.6265 C   0  0  1  0  0  0  0  0  0  0  0  0
   -1.9918   -3.1319    0.3296 O   0  0  0  0  0  0  0  0  0  0  0  0
   -1.5348   -0.8315   -0.2881 C   0  0  2  0  0  0  0  0  0  0  0  0
   -0.9741   -0.0148   -1.3293 O   0  0  0  0  0  0  0  0  0  0  0  0
   -0.8778   -0.5971    1.0867 C   0  0  2  0  0  0  0  0  0  0  0  0
   -1.0906    0.7319    1.5637 O   0  0  0  0  0  0  0  0  0  0  0  0
  2  1  1  6
  2  3  1  0
  2  9  1  0
  3  4  1  0
  4  5  1  0
  5  7  1  0
  5  6  1  1
  7  8  1  6
  7  9  1  0
  9 10  1  6
M  END
>  <DRUGBANK_ID>  (1) 
DB04286

>  <SECONDARY_ACCESSION_NUMBERS>  (1) 
EXPT02787

>  <COMMON_NAME>  (1) 
beta-D-Ribopyranose

>  <CAS_NUMBER>  (1) 
7296-60-8

>  <UNII>  (1) 
49X539P7H4

>  <SYNONYMS>  (1) 
Î²-D-ribopyranose

$$$$
