
     RDKit          3D

  8  7  0  0  0  0  0  0  0  0999 V2000
    1.0851   -0.0418   -0.0484 C   0  0  0  0  0  0  0  0  0  0  0  0
    0.6451   -0.2913    1.3857 C   0  0  0  0  0  0  0  0  0  0  0  0
    1.1270    0.8193    2.3217 C   0  0  0  0  0  0  0  0  0  0  0  0
    0.5676    2.2000    1.9534 C   0  0  0  0  0  0  0  0  0  0  0  0
   -0.9670    2.2612    1.9985 C   0  0  0  0  0  0  0  0  0  0  0  0
   -1.5307    1.9393    3.3927 C   0  0  0  0  0  0  0  0  0  0  0  0
   -1.0488    2.9569    4.4257 C   0  0  0  0  0  0  0  0  0  0  0  0
   -2.9923    1.9215    3.3421 N   0  0  0  0  0  0  0  0  0  0  0  0
  1  2  1  0
  2  3  1  0
  3  4  1  0
  4  5  1  0
  5  6  1  0
  6  7  1  0
  6  8  1  0
M  END
>  <DRUGBANK_ID>  (1) 
DB13238

>  <COMMON_NAME>  (1) 
Tuaminoheptane

>  <CAS_NUMBER>  (1) 
123-82-0

>  <UNII>  (1) 
Z0420GYD84

>  <SYNONYMS>  (1) 
1-Methylhexylamine; 2-Aminoheptane; 2-Heptanamine; 2-Heptylamine; Tuaminoheptane; Tuaminoheptano; Tuaminoheptanum

$$$$
