1021
     RDKit          3D

 20 21  0  0  1  0  0  0  0  0999 V2000
    0.9901    0.1625    0.1360 Cl  0  0  0  0  0  0  0  0  0  0  0  0
    3.4517    1.1353    1.3619 Cl  0  0  0  0  0  0  0  0  0  0  0  0
    8.9115   -3.7852   -1.5244 Cl  0  0  0  0  0  0  0  0  0  0  0  0
    2.8827   -3.9611    0.1627 S   0  0  0  0  0  0  0  0  0  0  0  0
    7.3011   -6.8113   -1.2182 S   0  0  0  0  0  0  0  0  0  0  0  0
    2.8336   -4.0739    1.5976 O   0  0  0  0  0  0  0  0  0  0  0  0
    2.1522   -4.8457   -0.7215 O   0  0  0  0  0  0  0  0  0  0  0  0
    7.3702   -7.4762    0.0616 O   0  0  0  0  0  0  0  0  0  0  0  0
    6.6186   -7.3942   -2.3498 O   0  0  0  0  0  0  0  0  0  0  0  0
    2.4296   -2.4086   -0.2582 N   0  0  0  0  0  0  0  0  0  0  0  0
    4.5581   -1.5427   -0.4976 N   0  0  0  0  0  0  0  0  0  0  0  0
    8.8862   -6.5938   -1.6927 N   0  0  0  0  0  0  0  0  0  0  0  0
    3.3291   -1.3969    0.2697 C   0  0  0  0  0  0  0  0  0  0  0  0
    4.5804   -3.9849   -0.3180 C   0  0  0  0  0  0  0  0  0  0  0  0
    5.2085   -2.7639   -0.5585 C   0  0  0  0  0  0  0  0  0  0  0  0
    5.2386   -5.2065   -0.5161 C   0  0  0  0  0  0  0  0  0  0  0  0
    6.5847   -5.2146   -0.9383 C   0  0  0  0  0  0  0  0  0  0  0  0
    2.7681    0.0537    0.1073 C   0  0  0  0  0  0  0  0  0  0  0  0
    6.5471   -2.7962   -0.9509 C   0  0  0  0  0  0  0  0  0  0  0  0
    7.2478   -4.0004   -1.1226 C   0  0  0  0  0  0  0  0  0  0  0  0
  1 18  1  0
  2 18  1  0
  3 20  1  0
  4  6  2  0
  4  7  2  0
  4 10  1  0
  4 14  1  0
  5  8  2  0
  5  9  2  0
  5 12  1  0
  5 17  1  0
 10 13  1  0
 11 13  1  0
 11 15  1  0
 13 18  1  0
 14 15  2  0
 14 16  1  0
 15 19  1  0
 16 17  2  0
 17 20  1  0
 19 20  2  0
M  END
>  <DRUGBANK_ID>  (1) 
DB01021

>  <SECONDARY_ACCESSION_NUMBERS>  (1) 
APRD00031

>  <COMMON_NAME>  (1) 
Trichlormethiazide

>  <CAS_NUMBER>  (1) 
133-67-5

>  <UNII>  (1) 
Q58C92TUN0

>  <SYNONYMS>  (1) 
Trichlormethiazide; triclormetiazida

$$$$
