
     RDKit          3D

 10  9  0  0  0  0  0  0  0  0999 V2000
   -3.1945   -1.9397    4.7963 C   0  0  0  0  0  0  0  0  0  0  0  0
   -1.7017   -2.2812    4.5666 C   0  0  1  0  0  0  0  0  0  0  0  0
   -1.0342   -1.4763    3.4193 C   0  0  2  0  0  0  0  0  0  0  0  0
   -1.4285   -1.8980    1.9705 C   0  0  2  0  0  0  0  0  0  0  0  0
   -3.8441   -2.9411    5.5699 O   0  0  0  0  0  0  0  0  0  0  0  0
   -0.9577   -1.9875    5.7760 O   0  0  0  0  0  0  0  0  0  0  0  0
    0.4027   -1.5927    3.5260 O   0  0  0  0  0  0  0  0  0  0  0  0
   -0.9571   -0.9375    1.0001 O   0  0  0  0  0  0  0  0  0  0  0  0
   -2.9340   -2.0268    1.7434 C   0  0  0  0  0  0  0  0  0  0  0  0
   -3.2993   -2.2460    0.3928 O   0  0  0  0  0  0  0  0  0  0  0  0
  2  6  1  1
  2  1  1  0
  3  2  1  0
  3  7  1  6
  4  8  1  6
  4  3  1  0
  5  1  1  0
  9  4  1  0
  9 10  1  0
M  END
>  <DRUGBANK_ID>  (1) 
DB11195

>  <SECONDARY_ACCESSION_NUMBERS>  (1) 
EXPT03268; DB01904

>  <COMMON_NAME>  (1) 
Xylitol

>  <CAS_NUMBER>  (1) 
87-99-0

>  <UNII>  (1) 
VCQ006KQ1E

>  <SYNONYMS>  (1) 
D-Xylitol; Xylitol

$$$$
