
     RDKit          3D

 33 37  0  0  0  0  0  0  0  0999 V2000
    1.0483   -0.0308    0.0497 O   0  0  0  0  0  0  0  0  0  0  0  0
    2.2636    0.0175    0.0258 C   0  0  0  0  0  0  0  0  0  0  0  0
    3.0126   -0.7162   -0.8288 O   0  0  0  0  0  0  0  0  0  0  0  0
    3.0480    0.7697    1.0347 C   0  0  0  0  0  0  0  0  0  0  0  0
    2.5755    0.7543    2.3554 C   0  0  0  0  0  0  0  0  0  0  0  0
    3.3040    1.3538    3.3784 C   0  0  0  0  0  0  0  0  0  0  0  0
    4.5169    1.9530    3.0839 C   0  0  0  0  0  0  0  0  0  0  0  0
    5.0392    1.9038    1.7827 C   0  0  0  0  0  0  0  0  0  0  0  0
    6.4526    2.2007    1.5818 C   0  0  0  0  0  0  0  0  0  0  0  0
    6.6929    3.2206    0.7534 N   0  0  0  0  0  0  0  0  0  0  0  0
    7.9539    3.5984    0.5407 C   0  0  0  0  0  0  0  0  0  0  0  0
    8.1685    4.7243   -0.2527 N   0  0  0  0  0  0  0  0  0  0  0  0
    7.1358    5.3961   -0.9007 C   0  0  0  0  0  0  0  0  0  0  0  0
    7.6266    6.3845   -1.9461 C   0  0  0  0  0  0  0  0  0  0  0  0
    8.2670    5.6532   -3.1385 C   0  0  0  0  0  0  0  0  0  0  0  0
    9.5305    4.9975   -3.0408 C   0  0  0  0  0  0  0  0  0  0  0  0
    9.9775    4.0557   -3.9905 C   0  0  0  0  0  0  0  0  0  0  0  0
    9.1441    3.7775   -5.0500 C   0  0  0  0  0  0  0  0  0  0  0  0
    9.3428    2.9310   -6.1040 O   0  0  0  0  0  0  0  0  0  0  0  0
    7.9623    2.6513   -6.3987 C   0  0  0  0  0  0  0  0  0  0  0  0
    7.6600    1.4946   -5.7518 F   0  0  0  0  0  0  0  0  0  0  0  0
    7.7624    2.4384   -7.7210 F   0  0  0  0  0  0  0  0  0  0  0  0
    7.0709    3.6902   -5.9830 O   0  0  0  0  0  0  0  0  0  0  0  0
    7.8856    4.3271   -5.0965 C   0  0  0  0  0  0  0  0  0  0  0  0
    7.4658    5.3167   -4.2366 C   0  0  0  0  0  0  0  0  0  0  0  0
    7.9712    7.8113   -1.5518 C   0  0  0  0  0  0  0  0  0  0  0  0
    6.6601    7.5633   -2.2224 C   0  0  0  0  0  0  0  0  0  0  0  0
    5.9411    5.2182   -0.7984 O   0  0  0  0  0  0  0  0  0  0  0  0
    9.0374    2.9178    1.0886 C   0  0  0  0  0  0  0  0  0  0  0  0
    8.7874    1.8370    1.9354 C   0  0  0  0  0  0  0  0  0  0  0  0
    7.4705    1.4674    2.2037 C   0  0  0  0  0  0  0  0  0  0  0  0
    7.1565    0.3190    3.1189 C   0  0  0  0  0  0  0  0  0  0  0  0
    4.2496    1.4103    0.7319 C   0  0  0  0  0  0  0  0  0  0  0  0
  1  2  2  0
  2  3  1  0
  2  4  1  0
  4  5  2  0
  4 33  1  0
  5  6  1  0
  6  7  2  0
  7  8  1  0
  8  9  1  0
  8 33  2  0
  9 10  2  0
  9 31  1  0
 10 11  1  0
 11 12  1  0
 11 29  2  0
 12 13  1  0
 13 14  1  0
 13 28  2  0
 14 15  1  0
 14 26  1  0
 14 27  1  0
 15 16  2  0
 15 25  1  0
 16 17  1  0
 17 18  2  0
 18 19  1  0
 18 24  1  0
 19 20  1  0
 20 21  1  0
 20 22  1  0
 20 23  1  0
 23 24  1  0
 24 25  2  0
 26 27  1  0
 29 30  1  0
 30 31  2  0
 31 32  1  0
M  END
>  <DRUGBANK_ID>  (1) 
DB09280

>  <COMMON_NAME>  (1) 
Lumacaftor

>  <CAS_NUMBER>  (1) 
936727-05-8

>  <UNII>  (1) 
EGP8L81APK

>  <SYNONYMS>  (1) 
3-(6-{[1-(2,2-difluoro-2H-1,3-benzodioxol-5-yl)cyclopropane-1-carbonyl]amino}-3-methylpyridin-2-yl)benzoic acid; Lumacaftor

$$$$
