257
     RDKit          3D

 25 28  0  0  0  0  0  0  0  0999 V2000
   -1.9330   -0.6020   -0.5743 Cl  0  0  0  0  0  0  0  0  0  0  0  0
   -0.0564    3.3277    1.2071 N   0  0  0  0  0  0  0  0  0  0  0  0
   -0.2847    4.7557    2.9384 N   0  0  0  0  0  0  0  0  0  0  0  0
   -0.4558    2.5008   -0.0153 C   0  0  0  0  0  0  0  0  0  0  0  0
    0.2786    1.0855   -0.0072 C   0  0  0  0  0  0  0  0  0  0  0  0
   -0.0063    3.2532   -1.3279 C   0  0  0  0  0  0  0  0  0  0  0  0
   -2.0190    2.3573    0.0311 C   0  0  0  0  0  0  0  0  0  0  0  0
   -0.3085   -0.2035   -0.1148 C   0  0  0  0  0  0  0  0  0  0  0  0
    1.6991    1.0852   -0.0214 C   0  0  0  0  0  0  0  0  0  0  0  0
   -0.2182    2.6216   -2.5756 C   0  0  0  0  0  0  0  0  0  0  0  0
   -2.6202    1.7030    1.1358 C   0  0  0  0  0  0  0  0  0  0  0  0
    0.5403    4.5516   -1.3497 C   0  0  0  0  0  0  0  0  0  0  0  0
   -2.8770    2.8250   -0.9849 C   0  0  0  0  0  0  0  0  0  0  0  0
    1.2044    3.7467    1.5934 C   0  0  0  0  0  0  0  0  0  0  0  0
   -0.9139    3.9993    2.0635 C   0  0  0  0  0  0  0  0  0  0  0  0
    1.0287    4.6291    2.6363 C   0  0  0  0  0  0  0  0  0  0  0  0
    0.4694   -1.3699   -0.0216 C   0  0  0  0  0  0  0  0  0  0  0  0
    2.4697   -0.0789    0.0222 C   0  0  0  0  0  0  0  0  0  0  0  0
    0.0419    3.2791   -3.7763 C   0  0  0  0  0  0  0  0  0  0  0  0
   -3.9917    1.4666    1.1804 C   0  0  0  0  0  0  0  0  0  0  0  0
    0.8259    5.1977   -2.5533 C   0  0  0  0  0  0  0  0  0  0  0  0
   -4.2542    2.6223   -0.9175 C   0  0  0  0  0  0  0  0  0  0  0  0
    1.8499   -1.3115    0.0502 C   0  0  0  0  0  0  0  0  0  0  0  0
    0.5744    4.5630   -3.7637 C   0  0  0  0  0  0  0  0  0  0  0  0
   -4.8054    1.9222    0.1496 C   0  0  0  0  0  0  0  0  0  0  0  0
  1  8  1  0
  2  4  1  0
  2 14  1  0
  2 15  1  0
  3 15  2  0
  3 16  1  0
  4  5  1  0
  4  6  1  0
  4  7  1  0
  5  8  2  0
  5  9  1  0
  6 10  2  0
  6 12  1  0
  7 11  2  0
  7 13  1  0
  8 17  1  0
  9 18  2  0
 10 19  1  0
 11 20  1  0
 12 21  2  0
 13 22  2  0
 14 16  2  0
 17 23  2  0
 18 23  1  0
 19 24  2  0
 20 25  2  0
 21 24  1  0
 22 25  1  0
M  END
>  <DRUGBANK_ID>  (1) 
DB00257

>  <SECONDARY_ACCESSION_NUMBERS>  (1) 
APRD00244

>  <COMMON_NAME>  (1) 
Clotrimazole

>  <CAS_NUMBER>  (1) 
23593-75-1

>  <UNII>  (1) 
G07GZ97H65

>  <SYNONYMS>  (1) 
1-((2-Chlorophenyl)diphenylmethyl)-1H-imidazole; 1-(o-Chloro-α,α-diphenylbenzyl)imidazole; 1-(o-Chlorotrityl)imidazole; 1-(α-(2-Chlorophenyl)benzhydryl)imidazole; Clotrimazol; Clotrimazole; Clotrimazolum

$$$$
