
     RDKit          3D

 24 27  0  0  1  0  0  0  0  0999 V2000
    0.7549   -0.1018    0.1617 C   0  0  0  0  0  0  0  0  0  0  0  0
    5.1584   -0.1826   -2.1193 C   0  0  0  0  0  0  0  0  0  0  0  0
   -0.6947    2.0994   -4.4343 C   0  0  0  0  0  0  0  0  0  0  0  0
    3.6653    3.2602    0.0776 C   0  0  0  0  0  0  0  0  0  0  0  0
    2.8290    3.7530   -0.9974 C   0  0  0  0  0  0  0  0  0  0  0  0
   -1.0569    2.7207   -2.1113 C   0  0  0  0  0  0  0  0  0  0  0  0
    0.3452    3.6805   -2.9421 C   0  0  0  0  0  0  0  0  0  0  0  0
    6.6480    1.8473    0.0068 C   0  0  0  0  0  0  0  0  0  0  0  0
    5.3137    0.4546   -0.0369 C   0  0  0  0  0  0  0  0  0  0  0  0
    5.4050    2.8182   -1.8029 C   0  0  0  0  0  0  0  0  0  0  0  0
    1.2722    0.6072   -3.7373 C   0  0  0  0  0  0  0  0  0  0  0  0
    0.0151    1.1050   -0.3615 C   0  0  0  0  0  0  0  0  0  0  0  0
    4.5471    2.2870   -0.7021 C   0  0  2  0  0  0  0  0  0  0  0  0
    6.4115    3.3230   -0.9051 C   0  0  2  0  0  0  0  0  0  0  0  0
    2.3141    2.4119   -1.5441 C   0  0  1  0  0  0  0  0  0  0  0  0
   -0.5035    1.2158   -1.8814 C   0  0  2  0  0  0  0  0  0  0  0  0
    1.0829    2.6850   -2.2535 C   0  0  2  0  0  0  0  0  0  0  0  0
    2.2584    0.1409   -2.6959 C   0  0  0  0  0  0  0  0  0  0  0  0
    3.1652    1.2743   -2.1355 C   0  0  2  0  0  0  0  0  0  0  0  0
    4.3962    0.8669   -1.2522 C   0  0  1  0  0  0  0  0  0  0  0  0
    0.3548    1.5577   -3.0562 C   0  0  2  0  0  0  0  0  0  0  0  0
   -0.0713    2.0632    0.4242 O   0  0  0  0  0  0  0  0  0  0  0  0
    7.4255    3.9086   -1.7010 O   0  0  0  0  0  0  0  0  0  0  0  0
    2.2455   -0.9876   -2.3294 O   0  0  0  0  0  0  0  0  0  0  0  0
  5  4  1  0
  7  6  1  0
  9  8  1  0
 12  1  1  0
 13  4  1  6
 13 10  1  0
 14  8  1  0
 14 10  1  0
 14 23  1  6
 15  5  1  6
 16  6  1  0
 16 12  1  1
 17  7  1  6
 17 15  1  0
 18 11  1  0
 19 15  1  0
 19 18  1  1
 20  2  1  6
 20  9  1  0
 20 13  1  0
 20 19  1  0
 21  3  1  6
 21 11  1  0
 21 16  1  0
 21 17  1  0
 22 12  2  0
 24 18  2  0
M  END
>  <DRUGBANK_ID>  (1) 
DB11371

>  <COMMON_NAME>  (1) 
Alfaxalone

>  <CAS_NUMBER>  (1) 
23930-19-0

>  <UNII>  (1) 
BD07M97B2A

>  <SYNONYMS>  (1) 
Alfaxalone

$$$$
