
     RDKit          3D

 23 25  0  0  1  0  0  0  0  0999 V2000
   -1.3372    1.2569   -6.2951 C   0  0  0  0  0  0  0  0  0  0  0  0
   -0.0475    1.4290   -4.9537 O   0  0  0  0  0  0  0  0  0  0  0  0
   -0.1678    1.7261   -3.2205 C   0  0  0  0  0  0  0  0  0  0  0  0
   -0.8876    1.2695   -2.4008 O   0  0  0  0  0  0  0  0  0  0  0  0
    0.6197    2.9042   -2.6289 C   0  0  2  0  0  0  0  0  0  0  0  0
   -0.3443    4.0714   -2.2117 C   0  0  1  0  0  0  0  0  0  0  0  0
    0.4517    5.1858   -1.5034 C   0  0  0  0  0  0  0  0  0  0  0  0
    0.9993    6.0272   -2.6550 C   0  0  0  0  0  0  0  0  0  0  0  0
    0.4032    5.3668   -3.9302 C   0  0  1  0  0  0  0  0  0  0  0  0
    1.4556    4.3399   -4.4730 C   0  0  0  0  0  0  0  0  0  0  0  0
    1.8302    3.2114   -3.4381 C   0  0  2  0  0  0  0  0  0  0  0  0
    2.4648    1.8761   -3.9066 C   0  0  0  0  0  0  0  0  0  0  0  0
    3.4282    1.9076   -4.8880 C   0  0  0  0  0  0  0  0  0  0  0  0
    3.7404    0.7353   -5.5869 C   0  0  0  0  0  0  0  0  0  0  0  0
    3.1164   -0.4735   -5.2980 C   0  0  0  0  0  0  0  0  0  0  0  0
    3.2332   -1.5246   -6.1147 F   0  0  0  0  0  0  0  0  0  0  0  0
    2.3298   -0.5836   -4.1928 C   0  0  0  0  0  0  0  0  0  0  0  0
    2.0478    0.5672   -3.4808 C   0  0  0  0  0  0  0  0  0  0  0  0
   -0.8446    4.7729   -3.3861 N   0  0  0  0  0  0  0  0  0  0  0  0
   -1.8981    4.0541   -4.1596 C   0  0  0  0  0  0  0  0  0  0  0  0
   -1.7584    2.6050   -4.4691 C   0  0  0  0  0  0  0  0  0  0  0  0
   -2.1921    1.1625   -4.1997 C   0  0  0  0  0  0  0  0  0  0  0  0
   -1.0094   -1.1008   -4.7832 I   0  0  0  0  0  0  0  0  0  0  0  0
  1  2  1  0
  2  3  1  0
  3  4  2  0
  5  6  1  0
  5 11  1  0
  5  3  1  6
  6  7  1  1
  6 19  1  0
  7  8  1  0
  9  8  1  1
  9 10  1  0
  9 19  1  0
 11 10  1  0
 11 12  1  6
 12 13  2  0
 12 18  1  0
 13 14  1  0
 14 15  2  0
 15 16  1  0
 15 17  1  0
 17 18  2  0
 19 20  1  0
 20 21  1  0
 21 22  2  0
 22 23  1  0
M  ISO  1  23 123
M  END
>  <DRUGBANK_ID>  (1) 
DB15144

>  <COMMON_NAME>  (1) 
Altropane I-123

>  <CAS_NUMBER>  (1) 
208517-65-1

>  <UNII>  (1) 
D20OLL8HWU

$$$$
