DPT
     RDKit          3D

 16 18  0  0  0  0  0  0  0  0999 V2000
    1.4267   -1.5385   -0.0001 N   0  0  0  0  0  0  0  0  0  0  0  0
    2.7789   -1.4993   -0.0002 C   0  0  0  0  0  0  0  0  0  0  0  0
    3.5173   -0.3348    0.0002 C   0  0  0  0  0  0  0  0  0  0  0  0
    2.8317    0.8725    0.0007 C   0  0  0  0  0  0  0  0  0  0  0  0
    1.4185    0.8562    0.0002 C   0  0  0  0  0  0  0  0  0  0  0  0
    0.7137    2.0541    0.0003 C   0  0  0  0  0  0  0  0  0  0  0  0
   -0.6640    2.0658    0.0003 C   0  0  0  0  0  0  0  0  0  0  0  0
   -1.3985    0.8770   -0.0002 C   0  0  0  0  0  0  0  0  0  0  0  0
   -2.8145    0.9006   -0.0010 C   0  0  0  0  0  0  0  0  0  0  0  0
   -3.5041   -0.3112    0.0000 C   0  0  0  0  0  0  0  0  0  0  0  0
   -2.7756   -1.4798    0.0027 C   0  0  0  0  0  0  0  0  0  0  0  0
   -1.4259   -1.5252    0.0024 N   0  0  0  0  0  0  0  0  0  0  0  0
   -0.7084   -0.3670    0.0006 C   0  0  0  0  0  0  0  0  0  0  0  0
    0.7146   -0.3801    0.0001 C   0  0  0  0  0  0  0  0  0  0  0  0
    3.6089    2.1638    0.0027 C   0  0  0  0  0  0  0  0  0  0  0  0
   -3.6395    2.1624   -0.0025 C   0  0  0  0  0  0  0  0  0  0  0  0
  1  2  2  0
  1 14  1  0
  2  3  1  0
  3  4  2  0
  4  5  1  0
  4 15  1  0
  5  6  1  0
  5 14  2  0
  6  7  2  0
  7  8  1  0
  8  9  1  0
  8 13  2  0
  9 10  2  0
  9 16  1  0
 10 11  1  0
 11 12  2  0
 12 13  1  0
 13 14  1  0
M  END
>  <DRUGBANK_ID>  (1) 
DB02586

>  <SECONDARY_ACCESSION_NUMBERS>  (1) 
EXPT01261

>  <COMMON_NAME>  (1) 
4,7-Dimethyl-[1,10]Phenanthroline

>  <CAS_NUMBER>  (1) 
3248-05-3

>  <UNII>  (1) 
P3YJ54Z8ZO

$$$$
