
     RDKit          3D

 33 36  0  0  1  0  0  0  0  0999 V2000
   -6.9361   -6.1993   -3.2346 C   0  0  0  0  0  0  0  0  0  0  0  0
   -5.7282   -5.8029   -3.6835 C   0  0  0  0  0  0  0  0  0  0  0  0
   -5.0792   -4.7747   -4.2745 C   0  0  0  0  0  0  0  0  0  0  0  0
   -5.9305   -3.7426   -4.4302 C   0  0  0  0  0  0  0  0  0  0  0  0
   -7.2943   -3.9968   -4.0057 C   0  0  0  0  0  0  0  0  0  0  0  0
   -7.7485   -5.1504   -3.2906 C   0  0  0  0  0  0  0  0  0  0  0  0
   -8.4206   -3.3138   -4.6456 C   0  0  0  0  0  0  0  0  0  0  0  0
   -9.5494   -3.6580   -4.4738 O   0  0  0  0  0  0  0  0  0  0  0  0
   -8.0524   -2.3747   -5.5803 N   0  0  0  0  0  0  0  0  0  0  0  0
   -3.5189   -5.2358   -4.3268 C   0  0  1  0  0  0  0  0  0  0  0  0
   -2.2629   -5.4695   -2.8607 C   0  0  0  0  0  0  0  0  0  0  0  0
   -2.3000   -6.5774   -1.9452 C   0  0  1  0  0  0  0  0  0  0  0  0
   -3.5228   -6.3048   -1.1384 C   0  0  0  0  0  0  0  0  0  0  0  0
   -4.4448   -7.2179   -1.8642 C   0  0  0  0  0  0  0  0  0  0  0  0
   -3.7092   -7.5546   -3.4658 C   0  0  1  0  0  0  0  0  0  0  0  0
   -3.7490   -6.6553   -4.8358 C   0  0  0  0  0  0  0  0  0  0  0  0
   -2.2928   -7.5769   -3.0227 N   0  0  0  0  0  0  0  0  0  0  0  0
   -1.2514   -7.2022   -4.1584 C   0  0  0  0  0  0  0  0  0  0  0  0
   -1.1588   -5.6256   -5.0826 C   0  0  0  0  0  0  0  0  0  0  0  0
   -1.2675   -4.0339   -4.2495 N   0  0  0  0  0  0  0  0  0  0  0  0
   -0.1647   -3.2503   -4.5640 C   0  0  0  0  0  0  0  0  0  0  0  0
   -0.7545   -1.9968   -5.1624 C   0  0  0  0  0  0  0  0  0  0  0  0
   -2.2835   -2.0719   -5.5157 C   0  0  0  0  0  0  0  0  0  0  0  0
   -2.8773   -0.8274   -6.0499 C   0  0  0  0  0  0  0  0  0  0  0  0
   -2.1340   -0.5690   -7.3195 C   0  0  0  0  0  0  0  0  0  0  0  0
   -0.6223   -0.4892   -7.0662 C   0  0  0  0  0  0  0  0  0  0  0  0
   -0.0335   -1.7487   -6.4599 C   0  0  0  0  0  0  0  0  0  0  0  0
   -2.3377   -3.2680   -3.2522 C   0  0  0  0  0  0  0  0  0  0  0  0
   -3.5299   -3.5579   -2.9990 O   0  0  0  0  0  0  0  0  0  0  0  0
   -2.0271   -2.2300   -2.1973 C   0  0  2  0  0  0  0  0  0  0  0  0
   -1.4976   -2.8262   -0.8870 C   0  0  0  0  0  0  0  0  0  0  0  0
   -2.3182   -3.7813   -0.1894 O   0  0  0  0  0  0  0  0  0  0  0  0
   -3.3763   -1.7052   -1.8204 O   0  0  0  0  0  0  0  0  0  0  0  0
  1  2  2  0
  1  6  1  0
  2  3  1  0
  3  4  2  0
  4  5  1  0
  5  6  2  0
  5  7  1  0
  7  8  2  0
  7  9  1  0
 10  3  1  1
 10 11  1  0
 10 16  1  0
 12 11  1  6
 12 13  1  0
 12 17  1  0
 13 14  1  0
 15 14  1  1
 15 16  1  0
 15 17  1  0
 17 18  1  0
 18 19  1  0
 19 20  1  0
 20 21  1  0
 20 28  1  0
 21 22  1  0
 22 23  1  0
 22 27  1  0
 23 24  1  0
 24 25  1  0
 25 26  1  0
 26 27  1  0
 28 29  2  0
 30 33  1  1
 30 31  1  0
 30 28  1  0
 31 32  1  0
M  END
>  <DRUGBANK_ID>  (1) 
DB12013

>  <COMMON_NAME>  (1) 
Axelopran

>  <CAS_NUMBER>  (1) 
949904-48-7

>  <UNII>  (1) 
85U7ROB149

>  <SYNONYMS>  (1) 
Axelopran

$$$$
