
     RDKit          3D

 37 41  0  0  1  0  0  0  0  0999 V2000
   -0.6605   -3.6999    7.7423 C   0  0  0  0  0  0  0  0  0  0  0  0
   -0.0364   -3.1171    6.4547 C   0  0  2  0  0  0  0  0  0  0  0  0
   -1.0349   -3.3224    5.2229 C   0  0  0  0  0  0  0  0  0  0  0  0
   -1.0199   -4.7397    4.7116 C   0  0  0  0  0  0  0  0  0  0  0  0
    0.4019   -5.4311    4.5306 C   0  0  2  0  0  0  0  0  0  0  0  0
   -0.0323   -6.7660    3.9127 C   0  0  0  0  0  0  0  0  0  0  0  0
    0.9380   -7.9025    4.0457 C   0  0  0  0  0  0  0  0  0  0  0  0
    1.8863   -7.8690    5.2597 C   0  0  0  0  0  0  0  0  0  0  0  0
    2.2896   -6.4467    5.6894 C   0  0  0  0  0  0  0  0  0  0  0  0
    1.1342   -5.3936    5.8520 C   0  0  1  0  0  0  0  0  0  0  0  0
    1.3255   -3.7789    6.1716 C   0  0  1  0  0  0  0  0  0  0  0  0
    1.6384   -2.7872    4.9703 C   0  0  0  0  0  0  0  0  0  0  0  0
    1.1728   -2.9344    3.8374 O   0  0  0  0  0  0  0  0  0  0  0  0
    1.7702   -1.3645    4.9001 C   0  0  0  0  0  0  0  0  0  0  0  0
    0.6852   -0.7689    5.4570 C   0  0  0  0  0  0  0  0  0  0  0  0
    0.2401   -1.5834    6.6741 C   0  0  1  0  0  0  0  0  0  0  0  0
   -1.1114   -1.0569    6.9442 C   0  0  0  0  0  0  0  0  0  0  0  0
   -0.9489    0.2534    7.6393 C   0  0  0  0  0  0  0  0  0  0  0  0
   -1.2353    1.0851    6.4577 C   0  0  2  0  0  0  0  0  0  0  0  0
    0.2283    0.7616    5.3602 C   0  0  2  0  0  0  0  0  0  0  0  0
   -0.4522    1.4943    4.2280 C   0  0  0  0  0  0  0  0  0  0  0  0
   -0.6048    2.8360    4.5221 C   0  0  0  0  0  0  0  0  0  0  0  0
   -1.8978    2.9738    5.2730 C   0  0  0  0  0  0  0  0  0  0  0  0
   -2.9057    3.2735    4.6354 O   0  0  0  0  0  0  0  0  0  0  0  0
   -1.9279    2.4685    6.7276 C   0  0  0  0  0  0  0  0  0  0  0  0
   -3.4636    2.6491    7.1680 C   0  0  0  0  0  0  0  0  0  0  0  0
   -1.2010    3.1222    7.8965 C   0  0  0  0  0  0  0  0  0  0  0  0
    0.4014    3.5572    5.3084 C   0  0  0  0  0  0  0  0  0  0  0  0
    1.2264    3.9760    5.9960 N   0  0  0  0  0  0  0  0  0  0  0  0
    1.7526    1.2312    4.9236 C   0  0  0  0  0  0  0  0  0  0  0  0
    1.3702   -1.2733    7.7116 C   0  0  0  0  0  0  0  0  0  0  0  0
    3.1775   -8.5899    4.7742 C   0  0  0  0  0  0  0  0  0  0  0  0
    1.2978   -8.5054    6.5027 C   0  0  0  0  0  0  0  0  0  0  0  0
    1.5086   -4.9523    3.4424 C   0  0  0  0  0  0  0  0  0  0  0  0
    1.1291   -4.7355    2.2835 O   0  0  0  0  0  0  0  0  0  0  0  0
    2.8641   -4.6469    3.7740 O   0  0  0  0  0  0  0  0  0  0  0  0
    3.9288   -4.3976    4.9205 C   0  0  0  0  0  0  0  0  0  0  0  0
  2  1  1  1
  2  3  1  0
  2 11  1  0
  2 16  1  0
  3  4  1  0
  5  4  1  0
  5  6  1  0
  5 34  1  6
  6  7  1  0
  7  8  1  0
  8  9  1  0
  8 32  1  0
  8 33  1  0
 10  9  1  6
 10  5  1  0
 11 10  1  0
 11 12  1  6
 12 13  2  0
 12 14  1  0
 14 15  2  0
 16 15  1  0
 16 17  1  0
 16 31  1  1
 17 18  1  0
 19 18  1  1
 19 20  1  0
 19 25  1  0
 20 15  1  0
 20 21  1  0
 20 30  1  1
 21 22  2  0
 22 23  1  0
 22 28  1  0
 23 24  2  0
 23 25  1  0
 25 26  1  0
 25 27  1  0
 28 29  3  0
 34 35  2  0
 34 36  1  0
 36 37  1  0
M  END
>  <DRUGBANK_ID>  (1) 
DB05983

>  <COMMON_NAME>  (1) 
Bardoxolone methyl

>  <CAS_NUMBER>  (1) 
218600-53-4

>  <UNII>  (1) 
CEG1Q6OGU1

>  <SYNONYMS>  (1) 
Bardoxolone methyl

$$$$
