
     RDKit          3D

 30 32  0  0  1  0  0  0  0  0999 V2000
    1.3272    0.9581    0.5088 S   0  0  0  0  0  0  0  0  0  0  0  0
    2.1788   -0.5831   -0.0027 C   0  0  0  0  0  0  0  0  0  0  0  0
    1.2635   -1.8254    0.0005 C   0  0  0  0  0  0  0  0  0  0  0  0
   -0.0962   -1.7165   -0.1219 C   0  0  0  0  0  0  0  0  0  0  0  0
    0.0526    0.7459   -0.7493 C   0  0  1  0  0  0  0  0  0  0  0  0
   -0.6550   -0.4966   -0.4562 N   0  0  0  0  0  0  0  0  0  0  0  0
   -1.7766    0.1073    0.0269 C   0  0  0  0  0  0  0  0  0  0  0  0
   -1.3172    1.4653   -0.5615 C   0  0  1  0  0  0  0  0  0  0  0  0
   -2.7159   -0.3652    0.6048 O   0  0  0  0  0  0  0  0  0  0  0  0
   -1.0952   -2.8688    0.1007 C   0  0  0  0  0  0  0  0  0  0  0  0
   -2.2520   -2.7348   -0.5939 O   0  0  0  0  0  0  0  0  0  0  0  0
   -0.9213   -3.8683    0.7768 O   0  0  0  0  0  0  0  0  0  0  0  0
    2.0472   -3.0480    0.2783 C   0  0  0  0  0  0  0  0  0  0  0  0
    1.6714   -4.3201    0.0972 C   0  0  0  0  0  0  0  0  0  0  0  0
   -1.4292    2.6902    0.2712 N   0  0  0  0  0  0  0  0  0  0  0  0
   -2.1071    3.8109   -0.2033 C   0  0  0  0  0  0  0  0  0  0  0  0
   -2.2039    5.0782    0.6838 C   0  0  0  0  0  0  0  0  0  0  0  0
   -2.5866    3.8243   -1.3320 O   0  0  0  0  0  0  0  0  0  0  0  0
   -2.9364    6.2530    0.1623 C   0  0  0  0  0  0  0  0  0  0  0  0
   -1.6761    5.2064    1.8799 N   0  0  0  0  0  0  0  0  0  0  0  0
   -1.0020    4.0549    2.3110 O   0  0  0  0  0  0  0  0  0  0  0  0
   -0.4455    4.2318    3.6045 C   0  0  0  0  0  0  0  0  0  0  0  0
    0.6623    5.2695    3.6383 C   0  0  0  0  0  0  0  0  0  0  0  0
    0.5105    6.2328    4.5778 O   0  0  0  0  0  0  0  0  0  0  0  0
    1.6355    5.2424    2.8962 O   0  0  0  0  0  0  0  0  0  0  0  0
   -2.5050    7.5655    0.2649 C   0  0  0  0  0  0  0  0  0  0  0  0
   -3.6514    8.6343   -0.4346 S   0  0  0  0  0  0  0  0  0  0  0  0
   -4.6442    7.2959   -0.8422 C   0  0  0  0  0  0  0  0  0  0  0  0
   -4.1697    6.1258   -0.4879 N   0  0  0  0  0  0  0  0  0  0  0  0
   -5.8185    7.4675   -1.4621 N   0  0  0  0  0  0  0  0  0  0  0  0
  1  2  1  0
  2  3  1  0
  3  4  2  0
  3 13  1  0
  4 10  1  0
  5  6  1  0
  5  1  1  1
  6  7  1  0
  6  4  1  0
  7  8  1  0
  7  9  2  0
  8 15  1  1
  8  5  1  0
 10 11  1  0
 10 12  2  0
 13 14  2  0
 15 16  1  0
 16 17  1  0
 16 18  2  0
 17 19  1  0
 17 20  2  0
 19 26  2  0
 20 21  1  0
 21 22  1  0
 22 23  1  0
 23 24  1  0
 23 25  2  0
 26 27  1  0
 27 28  1  0
 28 29  2  0
 28 30  1  0
 29 19  1  0
M  END
>  <DRUGBANK_ID>  (1) 
DB00671

>  <SECONDARY_ACCESSION_NUMBERS>  (1) 
APRD00583

>  <COMMON_NAME>  (1) 
Cefixime

>  <CAS_NUMBER>  (1) 
79350-37-1

>  <UNII>  (1) 
XZ7BG04GJX

>  <SYNONYMS>  (1) 
(−)-cefixim; Cefixim; Cefixima; Céfixime; Cefixime; Cefixime anhydrous; Cefiximum

$$$$
