7X2
     RDKit          3D

 30 33  0  0  0  0  0  0  0  0999 V2000
    1.1484    0.0541   -0.0601 C   0  0  0  0  0  0  0  0  0  0  0  0
    0.7396   -1.3057    0.0447 O   0  0  0  0  0  0  0  0  0  0  0  0
    0.9251   -2.0429   -1.1005 C   0  0  0  0  0  0  0  0  0  0  0  0
    2.2361   -2.2110   -1.5754 C   0  0  0  0  0  0  0  0  0  0  0  0
    2.5088   -3.1004   -2.6072 C   0  0  0  0  0  0  0  0  0  0  0  0
    3.8256   -3.3779   -3.0022 N   0  0  0  0  0  0  0  0  0  0  0  0
    4.2201   -4.1180   -4.1016 C   0  0  0  0  0  0  0  0  0  0  0  0
    5.1614   -5.0626   -3.9719 N   0  0  0  0  0  0  0  0  0  0  0  0
    5.4093   -5.8098   -5.0596 C   0  0  0  0  0  0  0  0  0  0  0  0
    4.8334   -5.5841   -6.2930 C   0  0  0  0  0  0  0  0  0  0  0  0
    3.9391   -4.5337   -6.3479 C   0  0  0  0  0  0  0  0  0  0  0  0
    3.4360   -4.0732   -7.5758 N   0  0  0  0  0  0  0  0  0  0  0  0
    2.4177   -3.0834   -7.6935 C   0  0  0  0  0  0  0  0  0  0  0  0
    2.5811   -1.7419   -7.3419 C   0  0  0  0  0  0  0  0  0  0  0  0
    3.6365   -1.1389   -6.7077 O   0  0  0  0  0  0  0  0  0  0  0  0
    3.4292    0.2318   -7.1018 C   0  0  0  0  0  0  0  0  0  0  0  0
    2.0761    0.4869   -7.5149 O   0  0  0  0  0  0  0  0  0  0  0  0
    1.6490   -0.7907   -7.7204 C   0  0  0  0  0  0  0  0  0  0  0  0
    0.4546   -1.1114   -8.3251 C   0  0  0  0  0  0  0  0  0  0  0  0
    0.2015   -2.4560   -8.5739 C   0  0  0  0  0  0  0  0  0  0  0  0
    1.1601   -3.4292   -8.2405 C   0  0  0  0  0  0  0  0  0  0  0  0
    0.7384   -5.0900   -8.5012 Cl  0  0  0  0  0  0  0  0  0  0  0  0
    3.5993   -3.8645   -5.2575 N   0  0  0  0  0  0  0  0  0  0  0  0
    1.4387   -3.8185   -3.1555 C   0  0  0  0  0  0  0  0  0  0  0  0
    0.1387   -3.7323   -2.6548 C   0  0  0  0  0  0  0  0  0  0  0  0
   -0.8615   -4.5842   -3.0788 O   0  0  0  0  0  0  0  0  0  0  0  0
   -0.4641   -5.6544   -3.9463 C   0  0  0  0  0  0  0  0  0  0  0  0
   -0.1455   -2.7840   -1.6507 C   0  0  0  0  0  0  0  0  0  0  0  0
   -1.4714   -2.6729   -1.2964 O   0  0  0  0  0  0  0  0  0  0  0  0
   -1.8398   -1.6119   -0.4231 C   0  0  0  0  0  0  0  0  0  0  0  0
  1  2  1  0
  2  3  1  0
  3  4  2  0
  3 28  1  0
  4  5  1  0
  5  6  1  0
  5 24  2  0
  6  7  1  0
  7  8  2  0
  7 23  1  0
  8  9  1  0
  9 10  2  0
 10 11  1  0
 11 12  1  0
 11 23  2  0
 12 13  1  0
 13 14  2  0
 13 21  1  0
 14 15  1  0
 14 18  1  0
 15 16  1  0
 16 17  1  0
 17 18  1  0
 18 19  2  0
 19 20  1  0
 20 21  2  0
 21 22  1  0
 24 25  1  0
 25 26  1  0
 25 28  2  0
 26 27  1  0
 28 29  1  0
 29 30  1  0
M  END
>  <DRUGBANK_ID>  (1) 
DB07250

>  <COMMON_NAME>  (1) 
N'-(5-CHLORO-1,3-BENZODIOXOL-4-YL)-N-(3,4,5- TRIMETHOXYPHENYL)PYRIMIDINE-2,4-DIAMINE

$$$$
