
     RDKit          3D

 31 33  0  0  1  0  0  0  0  0999 V2000
    0.9383    0.0546    0.0566 C   0  0  0  0  0  0  0  0  0  0  0  0
    1.2089    3.9942   -2.0570 C   0  0  0  0  0  0  0  0  0  0  0  0
    4.5894    2.8495    3.0159 C   0  0  0  0  0  0  0  0  0  0  0  0
    2.3940    5.6665    0.3346 C   0  0  0  0  0  0  0  0  0  0  0  0
    0.4316    1.4397    0.4243 C   0  0  2  0  0  0  0  0  0  0  0  0
    4.1145    5.1091    1.5130 C   0  0  0  0  0  0  0  0  0  0  0  0
   -0.0236    2.0831   -0.8920 C   0  0  2  0  0  0  0  0  0  0  0  0
    0.7254    3.4224   -0.9026 C   0  0  2  0  0  0  0  0  0  0  0  0
    5.3280    4.9483    2.2140 C   0  0  0  0  0  0  0  0  0  0  0  0
    3.1337    4.0814    1.5973 C   0  0  0  0  0  0  0  0  0  0  0  0
    0.8639    3.7290    0.6008 C   0  0  2  0  0  0  0  0  0  0  0  0
   -0.2345    2.7102   -1.7910 As  0  0  0  0  0  5  0  0  0  0  0  0
    6.3653    5.9879    2.1500 N   0  0  0  0  0  0  0  0  0  0  0  0
    5.5279    3.8298    2.9445 N   0  0  0  0  0  0  0  0  0  0  0  0
    3.4063    2.9509    2.3700 N   0  0  0  0  0  0  0  0  0  0  0  0
    3.6004    6.0516    0.7243 N   0  0  0  0  0  0  0  0  0  0  0  0
    2.0980    4.4891    0.8461 N   0  0  0  0  0  0  0  0  0  0  0  0
   -1.4113    2.3747   -0.8910 O   0  0  0  0  0  0  0  0  0  0  0  0
    0.0514    4.4361   -1.6066 O   0  0  0  0  0  0  0  0  0  0  0  0
    0.3254    1.3853   -0.6275 O   0  0  0  0  0  0  0  0  0  0  0  0
   -1.7060    3.5756   -1.0780 O   0  0  0  0  0  0  0  0  0  0  0  0
   -0.6441    2.0314   -3.2446 O   0  0  0  0  0  0  0  0  0  0  0  0
    3.4121    1.8433   -1.8921 O   0  0  0  0  0  0  0  0  0  0  0  0
    3.6008    4.1513   -2.0592 O   0  0  0  0  0  0  0  0  0  0  0  0
    2.2193    1.4103   -1.2523 O   0  0  0  0  0  0  0  0  0  0  0  0
    1.3892   -0.2968   -3.3655 O   0  0  0  0  0  0  0  0  0  0  0  0
    0.4649   -0.2949   -1.2357 O   0  0  0  0  0  0  0  0  0  0  0  0
    0.9140    2.5109    1.2744 O   0  0  0  0  0  0  0  0  0  0  0  0
    1.6183    2.0063   -3.5478 O   0  0  0  0  0  0  0  0  0  0  0  0
    2.6645    3.1383   -2.7623 P   0  0  2  0  0  0  0  0  0  0  0  0
    1.0416    0.8557   -2.3918 P   0  0  1  0  0  0  0  0  0  0  0  0
  5  1  1  6
  7  5  1  0
  7 18  1  1
  8  7  1  0
  8 19  1  6
  9  6  2  0
 10  6  1  0
 11  8  1  0
 11 17  1  6
 12  2  1  0
 13  9  1  0
 14  3  2  0
 14  9  1  0
 15  3  1  0
 15 10  2  0
 16  4  2  0
 16  6  1  0
 17  4  1  0
 17 10  1  0
 20 12  1  0
 21 12  1  0
 22 12  2  0
 27  1  1  0
 28  5  1  0
 28 11  1  0
 30  2  1  0
 30 23  1  1
 30 24  2  0
 30 29  1  0
 31 25  1  1
 31 26  2  0
 31 27  1  0
 31 29  1  0
M  END
>  <DRUGBANK_ID>  (1) 
DB02937

>  <SECONDARY_ACCESSION_NUMBERS>  (1) 
EXPT00589

>  <COMMON_NAME>  (1) 
Gamma-Arsono-Beta, Gamma-Methyleneadenosine-5'-Diphosphate

$$$$
