1390
     RDKit          3D

  5  3  0  0  0  0  0  0  0  0999 V2000
   -0.3993   -1.0185    0.0552 Na  0  0  0  0  0 15  0  0  0  0  0  0
    1.3762    0.3015   -0.1801 O   0  0  0  0  0  0  0  0  0  0  0  0
    1.3309    2.1509    0.9357 O   0  0  0  0  0  0  0  0  0  0  0  0
   -0.5682    1.0064    0.3430 O   0  0  0  0  0  0  0  0  0  0  0  0
    0.6525    1.2809    0.3619 C   0  0  0  0  0  0  0  0  0  0  0  0
  2  5  1  0
  3  5  1  0
  4  5  2  0
M  CHG  2   1   1   3  -1
M  END
>  <DRUGBANK_ID>  (1) 
DB01390

>  <COMMON_NAME>  (1) 
Sodium bicarbonate

>  <CAS_NUMBER>  (1) 
144-55-8

>  <UNII>  (1) 
8MDF5V39QO

>  <SYNONYMS>  (1) 
Baking soda; Bicarbonate of soda; Carbonic acid monosodium salt; NaHCO3; Natriumhydrogenkarbonat; Sodio bicarbonato; Sodium acid carbonate; Sodium bicarbonate; Sodium hydrogen carbonate; Sodium hydrogencarbonate

$$$$
