
     RDKit          3D

 18 20  0  0  0  0  0  0  0  0999 V2000
   -1.4284    0.1942   -0.1687 C   0  0  0  0  0  0  0  0  0  0  0  0
   -0.9870   -1.2268    0.1268 C   0  0  0  0  0  0  0  0  0  0  0  0
   -0.4635    1.3445    0.2739 C   0  0  0  0  0  0  0  0  0  0  0  0
    0.4643   -1.4761   -0.2771 C   0  0  0  0  0  0  0  0  0  0  0  0
    0.9945    1.0088   -0.2029 C   0  0  0  0  0  0  0  0  0  0  0  0
    1.4777   -0.4036    0.1338 C   0  0  0  0  0  0  0  0  0  0  0  0
   -0.9375    2.6347   -0.3867 N   0  0  0  0  0  0  0  0  0  0  0  0
   -0.3828    1.4828    1.8445 C   0  0  0  0  0  0  0  0  0  0  0  0
   -0.1161    0.3733    2.6733 C   0  0  0  0  0  0  0  0  0  0  0  0
   -0.4920    2.7103    2.5175 C   0  0  0  0  0  0  0  0  0  0  0  0
   -0.0042    0.4515    4.0609 C   0  0  0  0  0  0  0  0  0  0  0  0
   -0.4287    2.7963    3.9190 C   0  0  0  0  0  0  0  0  0  0  0  0
   -0.1851    1.6629    4.6875 C   0  0  0  0  0  0  0  0  0  0  0  0
   -0.8582    2.6266   -1.8706 C   0  0  0  0  0  0  0  0  0  0  0  0
   -2.3262    2.9954   -0.0068 C   0  0  0  0  0  0  0  0  0  0  0  0
   -1.2464    3.9635   -2.5001 C   0  0  0  0  0  0  0  0  0  0  0  0
   -2.6804    4.3914   -0.5127 C   0  0  0  0  0  0  0  0  0  0  0  0
   -2.6203    4.4121   -2.0308 C   0  0  0  0  0  0  0  0  0  0  0  0
  2  1  1  0
  3  1  1  0
  4  2  1  0
  5  3  1  0
  6  4  1  0
  6  5  1  0
  7  3  1  0
  8  3  1  0
  9  8  2  0
 10  8  1  0
 11  9  1  0
 12 10  2  0
 13 11  2  0
 13 12  1  0
 14  7  1  0
 15  7  1  0
 16 14  1  0
 17 15  1  0
 18 16  1  0
 18 17  1  0
M  END
>  <DRUGBANK_ID>  (1) 
DB03575

>  <SECONDARY_ACCESSION_NUMBERS>  (1) 
EXPT03307

>  <COMMON_NAME>  (1) 
Phencyclidine

>  <CAS_NUMBER>  (1) 
77-10-1

>  <UNII>  (1) 
J1DOI7UV76

>  <SYNONYMS>  (1) 
1-(1-Phenylcyclohexyl)piperidine; Fenciclidina; PCP; Phencyclidine; Phencyclidinum

$$$$
