
     RDKit          3D

 11 10  0  0  1  0  0  0  0  0999 V2000
    0.9391    0.0668    0.0429 C   0  0  0  0  0  0  0  0  0  0  0  0
    0.3291   -1.6157   -0.3394 P   0  0  0  0  0  0  0  0  0  0  0  0
    1.8345   -2.0343   -0.8499 O   0  0  0  0  0  0  0  0  0  0  0  0
    0.1717   -1.8961    1.1559 O   0  0  0  0  0  0  0  0  0  0  0  0
   -0.2809   -3.2982   -0.7217 C   0  0  0  0  0  0  0  0  0  0  0  0
   -1.5759   -3.1970   -1.4810 C   0  0  0  0  0  0  0  0  0  0  0  0
   -1.6415   -3.5673   -2.6548 O   0  0  0  0  0  0  0  0  0  0  0  0
   -2.7478   -2.5314   -0.8073 C   0  0  0  0  0  0  0  0  0  0  0  0
   -3.1948   -3.2542    0.4236 C   0  0  0  0  0  0  0  0  0  0  0  0
   -3.2241   -2.5136    1.5481 O   0  0  0  0  0  0  0  0  0  0  0  0
   -3.5238   -4.4339    0.4189 O   0  0  0  0  0  0  0  0  0  0  0  0
  2  1  1  0
  2  3  1  0
  2  4  2  0
  2  5  1  0
  5  6  1  0
  6  7  2  0
  6  8  1  0
  8  9  1  0
  9 10  1  0
  9 11  2  0
M  END
>  <DRUGBANK_ID>  (1) 
DB01832

>  <SECONDARY_ACCESSION_NUMBERS>  (1) 
EXPT01703

>  <COMMON_NAME>  (1) 
4-[Hydroxy-[Methyl-Phosphinoyl]]-3-Oxo-Butanoic Acid

$$$$
