
     RDKit          3D

 11 12  0  0  0  0  0  0  0  0999 V2000
    0.9388    0.1161   -0.0945 N   0  0  0  0  0  0  0  0  0  0  0  0
    0.2345    0.0477    1.1110 C   0  0  0  0  0  0  0  0  0  0  0  0
    0.6668    0.8674    2.1575 C   0  0  0  0  0  0  0  0  0  0  0  0
   -0.0090    0.8976    3.3780 C   0  0  0  0  0  0  0  0  0  0  0  0
   -1.1156    0.0801    3.5772 C   0  0  0  0  0  0  0  0  0  0  0  0
   -1.5208   -0.8124    2.5771 C   0  0  0  0  0  0  0  0  0  0  0  0
   -0.8411   -0.8440    1.3301 C   0  0  0  0  0  0  0  0  0  0  0  0
   -1.2305   -1.8228    0.4071 C   0  0  0  0  0  0  0  0  0  0  0  0
   -2.1353   -2.7938    0.7961 C   0  0  0  0  0  0  0  0  0  0  0  0
   -2.8391   -2.7496    1.9452 N   0  0  0  0  0  0  0  0  0  0  0  0
   -2.5519   -1.7281    2.7792 C   0  0  0  0  0  0  0  0  0  0  0  0
  1  2  1  0
  2  3  2  0
  2  7  1  0
  3  4  1  0
  4  5  2  0
  5  6  1  0
  6  7  2  0
  6 11  1  0
  7  8  1  0
  8  9  2  0
  9 10  1  0
 10 11  2  0
M  END
>  <DRUGBANK_ID>  (1) 
DB04605

>  <COMMON_NAME>  (1) 
5-Aminoisoquinoline

>  <CAS_NUMBER>  (1) 
1125-60-6

>  <UNII>  (1) 
LDJ0JLN1Y7

$$$$
