576
     RDKit          3D

 17 18  0  0  0  0  0  0  0  0999 V2000
    0.9768    0.1789   -0.0120 S   0  0  0  0  0  0  0  0  0  0  0  0
    1.0597    4.1864    1.0291 S   0  0  0  0  0  0  0  0  0  0  0  0
    0.5830   -0.4715   -1.2385 O   0  0  0  0  0  0  0  0  0  0  0  0
    0.5001   -0.3506    1.2611 O   0  0  0  0  0  0  0  0  0  0  0  0
    0.3271    1.7462   -0.0965 N   0  0  0  0  0  0  0  0  0  0  0  0
    2.0404    3.1044   -1.0577 N   0  0  0  0  0  0  0  0  0  0  0  0
    6.9700   -0.0270    0.1856 N   0  0  0  0  0  0  0  0  0  0  0  0
    2.8661    4.1818   -0.7767 N   0  0  0  0  0  0  0  0  0  0  0  0
    2.7576    0.0721    0.0934 C   0  0  0  0  0  0  0  0  0  0  0  0
    3.5493    1.1878    0.2666 C   0  0  0  0  0  0  0  0  0  0  0  0
    3.4134   -1.1615    0.0008 C   0  0  0  0  0  0  0  0  0  0  0  0
    5.5927   -0.0302    0.0109 C   0  0  0  0  0  0  0  0  0  0  0  0
    4.9251    1.1719    0.1136 C   0  0  0  0  0  0  0  0  0  0  0  0
    4.8282   -1.2037    0.0156 C   0  0  0  0  0  0  0  0  0  0  0  0
    1.1421    2.8996   -0.1219 C   0  0  0  0  0  0  0  0  0  0  0  0
    2.4747    4.8545    0.2851 C   0  0  0  0  0  0  0  0  0  0  0  0
    3.1419    6.1000    0.7666 C   0  0  0  0  0  0  0  0  0  0  0  0
  1  3  2  0
  1  4  2  0
  1  5  1  0
  1  9  1  0
  2 15  1  0
  2 16  1  0
  5 15  1  0
  6  8  1  0
  6 15  2  0
  7 12  1  0
  8 16  2  0
  9 10  2  0
  9 11  1  0
 10 13  1  0
 11 14  2  0
 12 13  2  0
 12 14  1  0
 16 17  1  0
M  END
>  <DRUGBANK_ID>  (1) 
DB00576

>  <SECONDARY_ACCESSION_NUMBERS>  (1) 
APRD00684

>  <COMMON_NAME>  (1) 
Sulfamethizole

>  <CAS_NUMBER>  (1) 
144-82-1

>  <UNII>  (1) 
25W8454H16

>  <SYNONYMS>  (1) 
Sulfamethizol; Sulfam√©thizol; Sulfamethizole; Sulfamethizolum; Sulfamethylthiadiazole; Sulfametizol

$$$$
