
     RDKit          3D

 31 33  0  0  0  0  0  0  0  0999 V2000
    0.2721    1.0046   -0.1268 C   0  0  0  0  0  0  0  0  0  0  0  0
   -1.3343   -0.9733    3.9097 C   0  0  0  0  0  0  0  0  0  0  0  0
   -4.4356    0.0967    6.7547 C   0  0  0  0  0  0  0  0  0  0  0  0
   -6.3105    0.1514    4.1460 C   0  0  0  0  0  0  0  0  0  0  0  0
   -0.7769   -2.3016    0.5264 C   0  0  0  0  0  0  0  0  0  0  0  0
   -3.2016   -0.2594    5.9238 C   0  0  0  0  0  0  0  0  0  0  0  0
   -0.8113   -2.3336    1.9010 N   0  0  0  0  0  0  0  0  0  0  0  0
   -5.2840   -0.8604    7.2505 N   0  0  0  0  0  0  0  0  0  0  0  0
   -2.2308    1.9591    0.8718 O   0  0  0  0  0  0  0  0  0  0  0  0
   -4.0748   -0.1641    2.1826 C   0  0  0  0  0  0  0  0  0  0  0  0
   -4.7016    1.1741    2.5742 C   0  0  0  0  0  0  0  0  0  0  0  0
   -3.4418   -0.1790    0.7546 C   0  0  2  0  0  0  0  0  0  0  0  0
   -0.9757    0.2695    0.1218 N   0  0  0  0  0  0  0  0  0  0  0  0
   -5.7346   -1.2221    3.8210 C   0  0  0  0  0  0  0  0  0  0  0  0
   -2.4253    0.7250    5.2811 C   0  0  0  0  0  0  0  0  0  0  0  0
   -5.9456    1.4819   -2.4241 O   0  0  0  0  0  0  0  0  0  0  0  0
   -5.3400    1.2914    3.9160 C   0  0  0  0  0  0  0  0  0  0  0  0
   -2.9845   -1.6020    5.5638 C   0  0  0  0  0  0  0  0  0  0  0  0
   -5.0568   -1.3199    2.4571 C   0  0  0  0  0  0  0  0  0  0  0  0
   -7.1167    2.2565   -0.6741 O   0  0  0  0  0  0  0  0  0  0  0  0
   -0.3580   -1.3228    2.8327 C   0  0  0  0  0  0  0  0  0  0  0  0
   -0.3704   -1.0157   -0.2261 C   0  0  1  0  0  0  0  0  0  0  0  0
   -6.0608    1.8089   -1.1304 C   0  0  0  0  0  0  0  0  0  0  0  0
   -2.0931   -1.9522    4.5466 C   0  0  0  0  0  0  0  0  0  0  0  0
   -1.0937   -3.3449   -0.0611 O   0  0  0  0  0  0  0  0  0  0  0  0
   -2.1707    0.7546    0.5896 C   0  0  0  0  0  0  0  0  0  0  0  0
    0.9901   -0.3326    0.1063 C   0  0  0  0  0  0  0  0  0  0  0  0
   -4.7929    1.5789   -0.3643 C   0  0  0  0  0  0  0  0  0  0  0  0
   -1.5306    0.3763    4.2601 C   0  0  0  0  0  0  0  0  0  0  0  0
   -4.8557    1.3103    6.9674 N   0  0  0  0  0  0  0  0  0  0  0  0
   -4.4980    0.1356   -0.2388 N   0  0  0  0  0  0  0  0  0  0  0  0
  1 27  1  0
  2 29  1  0
  2 21  1  0
  3 30  2  0
  3  8  1  0
  4 14  1  0
  5 25  2  0
  6  3  1  0
  6 18  2  0
  7  5  1  0
 10 11  1  0
 11 17  1  0
 12 10  1  0
 12 31  1  6
 13  1  1  0
 13 26  1  0
 15  6  1  0
 17  4  1  0
 18 24  1  0
 19 10  1  0
 19 14  1  0
 21  7  1  0
 22 13  1  0
 22  5  1  1
 23 20  2  0
 23 16  1  0
 24  2  2  0
 26 12  1  0
 26  9  2  0
 27 22  1  0
 28 23  1  0
 29 15  2  0
 31 28  1  0
M  END
>  <DRUGBANK_ID>  (1) 
DB13616

>  <COMMON_NAME>  (1) 
Melagatran

>  <CAS_NUMBER>  (1) 
159776-70-2

>  <UNII>  (1) 
2A9QP32MD4

>  <SYNONYMS>  (1) 
Melagatrán; Mélagatran; Melagatran; Melagatranum

$$$$
