
     RDKit          3D

 38 42  0  0  1  0  0  0  0  0999 V2000
   -3.7757   -0.4581   -3.0983 C   0  0  0  0  0  0  0  0  0  0  0  0
   -4.5170   -1.6357   -2.7485 C   0  0  0  0  0  0  0  0  0  0  0  0
   -3.3417   -2.6384   -2.4894 C   0  0  2  0  0  0  0  0  0  0  0  0
   -2.8815   -2.5002   -1.0105 C   0  0  0  0  0  0  0  0  0  0  0  0
   -2.0298   -2.5140   -3.5102 C   0  0  2  0  0  0  0  0  0  0  0  0
   -1.0753   -3.6891   -3.0893 C   0  0  0  0  0  0  0  0  0  0  0  0
   -1.3514   -4.5969   -2.3306 O   0  0  0  0  0  0  0  0  0  0  0  0
    0.1528   -3.6954   -3.6877 N   0  0  0  0  0  0  0  0  0  0  0  0
    0.4912   -2.8240   -4.7811 C   0  0  1  0  0  0  0  0  0  0  0  0
    0.1139   -1.4169   -4.3466 C   0  0  0  0  0  0  0  0  0  0  0  0
    0.9225   -0.5419   -4.5155 O   0  0  0  0  0  0  0  0  0  0  0  0
   -1.1056   -1.1968   -3.7306 N   0  0  0  0  0  0  0  0  0  0  0  0
   -1.3763    0.3269   -3.3398 C   0  0  2  0  0  0  0  0  0  0  0  0
   -0.8616    1.5520   -4.0647 C   0  0  0  0  0  0  0  0  0  0  0  0
   -0.0980    1.4615   -5.2082 C   0  0  0  0  0  0  0  0  0  0  0  0
    0.8829    2.3814   -5.3677 C   0  0  0  0  0  0  0  0  0  0  0  0
    0.6150    3.6068   -4.8219 C   0  0  0  0  0  0  0  0  0  0  0  0
   -0.4877    3.8844   -4.0813 N   0  0  0  0  0  0  0  0  0  0  0  0
   -1.2296    2.8414   -3.6801 C   0  0  0  0  0  0  0  0  0  0  0  0
   -2.4755    3.1733   -2.8994 C   0  0  0  0  0  0  0  0  0  0  0  0
    1.4765    4.7390   -5.2178 C   0  0  0  0  0  0  0  0  0  0  0  0
   -1.4399    0.5667   -1.6921 C   0  0  0  0  0  0  0  0  0  0  0  0
   -2.4284    0.9037   -1.0362 O   0  0  0  0  0  0  0  0  0  0  0  0
   -0.3092    0.2100   -1.0308 N   0  0  0  0  0  0  0  0  0  0  0  0
    0.9017    0.8938   -1.3697 C   0  0  0  0  0  0  0  0  0  0  0  0
    1.9156   -0.1746   -1.6007 C   0  0  0  0  0  0  0  0  0  0  0  0
    2.1060   -1.0540   -0.4874 O   0  0  0  0  0  0  0  0  0  0  0  0
    0.8672   -1.7281   -0.1734 C   0  0  0  0  0  0  0  0  0  0  0  0
   -0.2155   -0.6815    0.1309 C   0  0  0  0  0  0  0  0  0  0  0  0
    2.0092   -2.7025   -4.9874 C   0  0  0  0  0  0  0  0  0  0  0  0
    2.7534   -3.9756   -5.3378 C   0  0  0  0  0  0  0  0  0  0  0  0
    4.0812   -3.7102   -4.6924 C   0  0  0  0  0  0  0  0  0  0  0  0
    5.2850   -4.3075   -4.9195 C   0  0  0  0  0  0  0  0  0  0  0  0
    6.3935   -3.8657   -4.1818 C   0  0  0  0  0  0  0  0  0  0  0  0
    6.2980   -2.8473   -3.2149 C   0  0  0  0  0  0  0  0  0  0  0  0
    5.0810   -2.2536   -2.9714 C   0  0  0  0  0  0  0  0  0  0  0  0
    4.0223   -2.7068   -3.7367 C   0  0  0  0  0  0  0  0  0  0  0  0
    2.6720   -2.1747   -3.6925 C   0  0  0  0  0  0  0  0  0  0  0  0
  1  2  1  0
  3  4  1  1
  3  2  1  0
  5  3  1  0
  5  6  1  1
  5 12  1  0
  6  7  2  0
  6  8  1  0
  8  9  1  0
  9 10  1  0
  9 30  1  1
 10 11  2  0
 10 12  1  0
 13 22  1  1
 13 14  1  0
 13 12  1  0
 14 15  2  0
 14 19  1  0
 15 16  1  0
 16 17  2  0
 17 18  1  0
 17 21  1  0
 18 19  2  0
 19 20  1  0
 22 23  2  0
 22 24  1  0
 24 25  1  0
 24 29  1  0
 25 26  1  0
 26 27  1  0
 27 28  1  0
 28 29  1  0
 30 31  1  0
 30 38  1  0
 31 32  1  0
 32 33  1  0
 32 37  2  0
 33 34  2  0
 34 35  1  0
 35 36  2  0
 36 37  1  0
 37 38  1  0
M  END
>  <DRUGBANK_ID>  (1) 
DB11934

>  <COMMON_NAME>  (1) 
Epelsiban

>  <CAS_NUMBER>  (1) 
872599-83-2

>  <UNII>  (1) 
T2EZ19HX73

>  <SYNONYMS>  (1) 
Epelsiban

$$$$
