
     RDKit          3D

 39 40  0  0  1  0  0  0  0  0999 V2000
   -5.1662   -3.5123   -6.6800 C   0  0  0  0  0  0  0  0  0  0  0  0
   -4.3050   -4.2275   -5.6474 C   0  0  0  0  0  0  0  0  0  0  0  0
   -2.9275   -4.6370   -6.1917 C   0  0  0  0  0  0  0  0  0  0  0  0
   -2.1651   -3.4752   -6.5955 N   0  0  0  0  0  0  0  0  0  0  0  0
   -0.9761   -3.1035   -5.9755 C   0  0  0  0  0  0  0  0  0  0  0  0
   -0.0084   -4.0468   -5.7573 N   0  0  0  0  0  0  0  0  0  0  0  0
    1.1368   -3.6606   -5.1474 C   0  0  0  0  0  0  0  0  0  0  0  0
    2.1813   -4.5805   -4.9349 N   0  0  0  0  0  0  0  0  0  0  0  0
    3.4200   -4.3104   -4.3173 C   0  0  0  0  0  0  0  0  0  0  0  0
    3.4680   -3.8139   -3.0049 C   0  0  0  0  0  0  0  0  0  0  0  0
    4.6756   -3.4223   -2.4074 C   0  0  0  0  0  0  0  0  0  0  0  0
    5.8711   -3.5119   -3.1219 C   0  0  0  0  0  0  0  0  0  0  0  0
    5.8455   -4.0204   -4.4245 C   0  0  0  0  0  0  0  0  0  0  0  0
    4.6323   -4.4267   -5.0120 C   0  0  0  0  0  0  0  0  0  0  0  0
    7.1084   -3.0858   -2.5382 C   0  0  0  0  0  0  0  0  0  0  0  0
    8.1252   -2.7472   -2.0760 N   0  0  0  0  0  0  0  0  0  0  0  0
    1.3398   -2.4008   -4.7346 N   0  0  0  0  0  0  0  0  0  0  0  0
    0.3661   -1.4982   -4.9434 C   0  0  0  0  0  0  0  0  0  0  0  0
   -0.8227   -1.7786   -5.5650 C   0  0  0  0  0  0  0  0  0  0  0  0
   -1.8188   -0.7467   -5.7147 C   0  0  0  0  0  0  0  0  0  0  0  0
   -2.7347    0.1682   -5.8697 C   0  0  0  0  0  0  0  0  0  0  0  0
   -3.8024    1.2349   -6.0503 C   0  0  0  0  0  0  0  0  0  0  0  0
   -5.0446    0.8627   -5.3544 C   0  0  0  0  0  0  0  0  0  0  0  0
   -4.7118    0.7703   -3.9021 C   0  0  0  0  0  0  0  0  0  0  0  0
   -4.3165    2.0041   -3.2823 N   0  0  0  0  0  0  0  0  0  0  0  0
   -4.8761    2.5513   -2.1569 C   0  0  0  0  0  0  0  0  0  0  0  0
   -4.5614    3.7068   -1.8644 O   0  0  0  0  0  0  0  0  0  0  0  0
   -6.0032    1.7744   -1.4114 C   0  0  2  0  0  0  0  0  0  0  0  0
   -6.1789    2.2936    0.0045 C   0  0  0  0  0  0  0  0  0  0  0  0
   -5.8183    0.3036   -1.3993 N   0  0  0  0  0  0  0  0  0  0  0  0
   -6.8734   -0.4875   -2.0487 C   0  0  0  0  0  0  0  0  0  0  0  0
   -4.6070   -0.1695   -0.8977 C   0  0  0  0  0  0  0  0  0  0  0  0
   -3.7566    0.5694   -0.3969 O   0  0  0  0  0  0  0  0  0  0  0  0
   -4.2285   -1.6032   -1.0044 C   0  0  0  0  0  0  0  0  0  0  0  0
   -4.9152   -2.5857   -1.5914 C   0  0  0  0  0  0  0  0  0  0  0  0
   -4.6149   -4.0265   -1.5905 C   0  0  0  0  0  0  0  0  0  0  0  0
   -5.7263   -4.7282   -0.9311 N   0  0  0  0  0  0  0  0  0  0  0  0
   -5.4546   -6.1606   -0.9928 C   0  0  0  0  0  0  0  0  0  0  0  0
   -5.8601   -4.3072    0.4702 C   0  0  0  0  0  0  0  0  0  0  0  0
  1  2  1  0
  2  3  1  0
  3  4  1  0
  4  5  1  0
  5  6  2  0
  5 19  1  0
  6  7  1  0
  7  8  1  0
  7 17  2  0
  8  9  1  0
  9 10  2  0
  9 14  1  0
 10 11  1  0
 11 12  2  0
 12 13  1  0
 12 15  1  0
 13 14  2  0
 15 16  3  0
 17 18  1  0
 18 19  2  0
 19 20  1  0
 20 21  3  0
 21 22  1  0
 22 23  1  0
 23 24  1  0
 24 25  1  0
 25 26  1  0
 26 27  2  0
 28 30  1  0
 28 29  1  1
 28 26  1  0
 30 31  1  0
 30 32  1  0
 32 33  2  0
 32 34  1  0
 34 35  2  0
 35 36  1  0
 36 37  1  0
 37 38  1  0
 37 39  1  0
M  END
>  <DRUGBANK_ID>  (1) 
DB16050

>  <COMMON_NAME>  (1) 
FF-10101-01

>  <CAS_NUMBER>  (1) 
1472797-69-5

>  <UNII>  (1) 
7V7IHI0SYG

$$$$
