
     RDKit          3D

  7  5  0  0  0  0  0  0  0  0999 V2000
    1.3477    0.2222   -0.0893 C   0  0  0  0  0  0  0  0  0  0  0  0
    0.7740    0.7019    0.9411 O   0  0  0  0  0  0  0  0  0  0  0  0
    0.7147   -0.2320   -1.0843 O   0  0  0  0  0  0  0  0  0  0  0  0
    2.8747    0.1263   -0.0662 C   0  0  0  0  0  0  0  0  0  0  0  0
   -1.3793   -0.3339    0.1935 K   0  0  0  0  0 15  0  0  0  0  0  0
    3.4041    0.6266    1.1757 O   0  0  0  0  0  0  0  0  0  0  0  0
    3.2268   -1.3408   -0.2353 C   0  0  0  0  0  0  0  0  0  0  0  0
  2  1  1  0
  3  1  2  0
  4  1  1  0
  6  4  1  0
  7  4  1  0
M  CHG  2   2  -1   5   1
M  END
>  <DRUGBANK_ID>  (1) 
DB09483

>  <COMMON_NAME>  (1) 
Potassium lactate

>  <CAS_NUMBER>  (1) 
996-31-6

>  <UNII>  (1) 
276897E67U

>  <SYNONYMS>  (1) 
Lactic acid, potassium salt; Monopotassium 2-hydroxypropanoate; Monopotassium lactate

$$$$
