894
     RDKit          3D

 22 25  0  0  1  0  0  0  0  0999 V2000
    3.2869   -1.9732    8.0902 O   0  0  0  0  0  0  0  0  0  0  0  0
    1.5698   -2.2725    9.8684 O   0  0  0  0  0  0  0  0  0  0  0  0
   -3.4269   -5.7323    3.4211 O   0  0  0  0  0  0  0  0  0  0  0  0
    1.4059   -1.8639    5.0709 C   0  0  2  0  0  0  0  0  0  0  0  0
    1.7307   -3.0540    4.2217 C   0  0  1  0  0  0  0  0  0  0  0  0
    2.1975   -1.6801    6.2817 C   0  0  1  0  0  0  0  0  0  0  0  0
    3.6257   -1.7880    6.4243 C   0  0  2  0  0  0  0  0  0  0  0  0
    0.3329   -3.4058    3.0751 C   0  0  2  0  0  0  0  0  0  0  0  0
    3.3125   -3.0932    4.0530 C   0  0  0  0  0  0  0  0  0  0  0  0
    4.0944   -3.0060    5.5143 C   0  0  0  0  0  0  0  0  0  0  0  0
    0.1522   -2.2096    5.8450 C   0  0  0  0  0  0  0  0  0  0  0  0
    1.8185   -0.3536    7.0276 C   0  0  0  0  0  0  0  0  0  0  0  0
   -0.2959   -4.2755    4.1400 C   0  0  0  0  0  0  0  0  0  0  0  0
   -0.6686   -3.1468    5.1220 C   0  0  0  0  0  0  0  0  0  0  0  0
    4.1119   -0.5063    5.6445 C   0  0  0  0  0  0  0  0  0  0  0  0
    1.1376   -4.4098    2.1882 C   0  0  0  0  0  0  0  0  0  0  0  0
   -1.4626   -2.7569    2.8730 C   0  0  0  0  0  0  0  0  0  0  0  0
    0.9453   -0.7534    8.1380 C   0  0  0  0  0  0  0  0  0  0  0  0
    1.9186   -1.7395    8.8122 C   0  0  0  0  0  0  0  0  0  0  0  0
   -1.0610   -5.2965    3.6333 C   0  0  0  0  0  0  0  0  0  0  0  0
   -2.6018   -3.4709    3.3495 C   0  0  0  0  0  0  0  0  0  0  0  0
   -2.4535   -4.9051    3.5202 C   0  0  0  0  0  0  0  0  0  0  0  0
  1  7  1  0
  1 19  1  0
  2 19  2  0
  3 22  2  0
  4  5  1  0
  4  6  1  0
  4 11  1  1
  5  8  1  0
  5  9  1  6
  6  7  1  0
  6 12  1  6
  7 10  1  0
  7 15  1  1
  8 13  1  0
  8 16  1  6
  8 17  1  0
  9 10  1  0
 11 14  1  0
 12 18  1  0
 13 14  1  0
 13 20  2  0
 17 21  2  0
 18 19  1  0
 20 22  1  0
 21 22  1  0
M  END
>  <DRUGBANK_ID>  (1) 
DB00894

>  <SECONDARY_ACCESSION_NUMBERS>  (1) 
APRD00640

>  <COMMON_NAME>  (1) 
Testolactone

>  <CAS_NUMBER>  (1) 
968-93-4

>  <UNII>  (1) 
6J9BLA949Q

>  <SYNONYMS>  (1) 
(4aS,4bR,10aR,10bS,12aS)-10a,12a-dimethyl-3,4,4a,5,6,10a,10b,11,12,12a-decahydro-2H-naphtho[2,1-f]chromene-2,8(4bH)-dione; 1-dehydrotestololactone; 1,2-didehydrotestololactone; 13-hydroxy-3-oxo-13,17-secoandrosta-1,4-dien-17-oic acid δ-lactone; D-homo-17a-oxaandrosta-1,4-diene-3,17-dione; delta(1)-testololactone; Testolactona; Testolactone; Testolactonum; Testolattone; Δ1-testololactone

$$$$
