196
     RDKit          3D

 22 24  0  0  0  0  0  0  0  0999 V2000
    2.0882    1.0742    0.5077 F   0  0  0  0  0  0  0  0  0  0  0  0
   -2.5088    0.8461   -0.0683 F   0  0  0  0  0  0  0  0  0  0  0  0
    2.6572   -2.6621    1.0866 O   0  0  0  0  0  0  0  0  0  0  0  0
    2.0361   -2.1170   -2.5659 N   0  0  0  0  0  0  0  0  0  0  0  0
    4.0767    0.0262   -1.1469 N   0  0  0  0  0  0  0  0  0  0  0  0
    1.6478   -0.8353   -2.6369 N   0  0  0  0  0  0  0  0  0  0  0  0
    3.9665    1.3640   -1.0195 N   0  0  0  0  0  0  0  0  0  0  0  0
    2.2266   -1.6179   -4.6834 N   0  0  0  0  0  0  0  0  0  0  0  0
    4.4875    0.8013   -3.1543 N   0  0  0  0  0  0  0  0  0  0  0  0
    2.5034   -1.7676   -0.0574 C   0  0  0  0  0  0  0  0  0  0  0  0
    2.4508   -2.7124   -1.3086 C   0  0  0  0  0  0  0  0  0  0  0  0
    3.8029   -0.8719   -0.0439 C   0  0  0  0  0  0  0  0  0  0  0  0
    1.1515   -1.0814    0.1527 C   0  0  0  0  0  0  0  0  0  0  0  0
    1.0277    0.3080    0.2362 C   0  0  0  0  0  0  0  0  0  0  0  0
   -0.0513   -1.8235    0.0961 C   0  0  0  0  0  0  0  0  0  0  0  0
   -0.1735    0.9685    0.1006 C   0  0  0  0  0  0  0  0  0  0  0  0
   -1.2818   -1.1690    0.0263 C   0  0  0  0  0  0  0  0  0  0  0  0
    2.2412   -2.6106   -3.8188 C   0  0  0  0  0  0  0  0  0  0  0  0
    4.5205   -0.2767   -2.3992 C   0  0  0  0  0  0  0  0  0  0  0  0
   -1.3338    0.2199    0.0033 C   0  0  0  0  0  0  0  0  0  0  0  0
    1.9015   -0.5419   -3.9146 C   0  0  0  0  0  0  0  0  0  0  0  0
    4.0652    1.7631   -2.2885 C   0  0  0  0  0  0  0  0  0  0  0  0
  1 14  1  0
  2 20  1  0
  3 10  1  0
  4  6  1  0
  4 11  1  0
  4 18  1  0
  5  7  1  0
  5 12  1  0
  5 19  1  0
  6 21  2  0
  7 22  2  0
  8 18  2  0
  8 21  1  0
  9 19  2  0
  9 22  1  0
 10 11  1  0
 10 12  1  0
 10 13  1  0
 13 14  2  0
 13 15  1  0
 14 16  1  0
 15 17  2  0
 16 20  2  0
 17 20  1  0
M  END
>  <DRUGBANK_ID>  (1) 
DB00196

>  <SECONDARY_ACCESSION_NUMBERS>  (1) 
APRD00327

>  <COMMON_NAME>  (1) 
Fluconazole

>  <CAS_NUMBER>  (1) 
86386-73-4

>  <UNII>  (1) 
8VZV102JFY

>  <SYNONYMS>  (1) 
Diflucan; Difluconazole; Fluconazol; Fluconazole; Fluconazolum; Triflucan

$$$$
