
     RDKit          3D

 23 25  0  0  0  0  0  0  0  0999 V2000
    0.9406   -0.0527    0.0675 C   0  0  0  0  0  0  0  0  0  0  0  0
   -2.1675   -1.7870   -4.7932 C   0  0  0  0  0  0  0  0  0  0  0  0
    1.7812   -0.2617   -9.8402 C   0  0  0  0  0  0  0  0  0  0  0  0
    4.0456   -4.9769   -5.9501 C   0  0  0  0  0  0  0  0  0  0  0  0
    3.3951   -3.7620   -5.3066 C   0  0  0  0  0  0  0  0  0  0  0  0
    2.4820   -0.9249   -8.8431 C   0  0  0  0  0  0  0  0  0  0  0  0
    2.4527   -1.1490   -3.7090 C   0  0  0  0  0  0  0  0  0  0  0  0
    2.1370   -1.0083   -2.3637 C   0  0  0  0  0  0  0  0  0  0  0  0
    1.1789   -1.0228  -10.8286 C   0  0  0  0  0  0  0  0  0  0  0  0
    4.9361   -4.5104   -7.0823 C   0  0  0  0  0  0  0  0  0  0  0  0
    1.8661   -1.8825   -5.9944 C   0  0  0  0  0  0  0  0  0  0  0  0
   -0.1597   -1.5859   -2.8554 C   0  0  0  0  0  0  0  0  0  0  0  0
    1.8680   -3.0006   -9.8588 C   0  0  0  0  0  0  0  0  0  0  0  0
    1.4709   -1.5536   -4.6233 C   0  0  0  0  0  0  0  0  0  0  0  0
    2.7773   -2.8265   -6.3234 C   0  0  0  0  0  0  0  0  0  0  0  0
    2.4983   -2.3215   -8.8281 C   0  0  0  0  0  0  0  0  0  0  0  0
    0.8328   -1.2407   -1.9373 C   0  0  0  0  0  0  0  0  0  0  0  0
    0.1328   -1.6680   -4.2158 C   0  0  0  0  0  0  0  0  0  0  0  0
    3.1984   -3.0618   -7.7561 C   0  0  0  0  0  0  0  0  0  0  0  0
    1.2047   -2.3758  -10.8645 N   0  0  0  0  0  0  0  0  0  0  0  0
    4.1505   -3.8577   -8.1264 N   0  0  0  0  0  0  0  0  0  0  0  0
    0.4477   -1.1953   -0.6260 O   0  0  0  0  0  0  0  0  0  0  0  0
   -0.8050   -1.8534   -5.2011 O   0  0  0  0  0  0  0  0  0  0  0  0
  5  4  1  0
  6  3  2  0
  8  7  2  0
  9  3  1  0
 10  4  1  0
 14  7  1  0
 14 11  1  0
 15  5  1  0
 15 11  2  0
 16  6  1  0
 16 13  2  0
 17  8  1  0
 17 12  2  0
 18 12  1  0
 18 14  2  0
 19 15  1  0
 19 16  1  0
 20  9  2  0
 20 13  1  0
 21 10  1  0
 21 19  2  0
 22  1  1  0
 22 17  1  0
 23  2  1  0
 23 18  1  0
M  END
>  <DRUGBANK_ID>  (1) 
DB05708

>  <COMMON_NAME>  (1) 
GTS-21

>  <CAS_NUMBER>  (1) 
148372-04-7

>  <UNII>  (1) 
8S399XDN2K

>  <SYNONYMS>  (1) 
3-(2,4-dimethoxybenzylidene)anabaseine; Dimethoxybenzylidene anabaseine; DMXB-A; DMXB-Anabaseine

$$$$
