
     RDKit          3D

 39 41  0  0  0  0  0  0  0  0999 V2000
    1.0761    0.0089    0.0032 S   0  0  0  0  0  0  0  0  0  0  0  0
    4.0654    5.8869    1.1020 O   0  0  0  0  0  0  0  0  0  0  0  0
   -3.2132    3.4628    6.0009 O   0  0  0  0  0  0  0  0  0  0  0  0
    1.8222    6.3701    4.4218 O   0  0  0  0  0  0  0  0  0  0  0  0
    0.6473   -0.3661   -1.3262 O   0  0  0  0  0  0  0  0  0  0  0  0
    0.5835   -0.7206    1.1518 O   0  0  0  0  0  0  0  0  0  0  0  0
    0.1236    0.9126    5.0629 N   0  0  0  0  0  0  0  0  0  0  0  0
    0.6150    1.6006    0.1896 N   0  0  0  0  0  0  0  0  0  0  0  0
    1.4441    1.6307    5.0158 C   0  0  0  0  0  0  0  0  0  0  0  0
   -0.6009    1.3226    6.2241 C   0  0  0  0  0  0  0  0  0  0  0  0
   -0.7576    0.9736    3.8823 C   0  0  0  0  0  0  0  0  0  0  0  0
    1.6219    3.1883    4.9558 C   0  0  0  0  0  0  0  0  0  0  0  0
   -1.3921    2.5480    5.7880 C   0  0  0  0  0  0  0  0  0  0  0  0
   -2.3415    0.7137    4.2415 C   0  0  0  0  0  0  0  0  0  0  0  0
    1.0853    4.3627    6.0832 C   0  0  0  0  0  0  0  0  0  0  0  0
   -2.4386    2.9775    4.0814 C   0  0  0  0  0  0  0  0  0  0  0  0
   -3.2390    1.6054    5.6507 C   0  0  0  0  0  0  0  0  0  0  0  0
    3.3550    6.5448    2.0727 C   0  0  0  0  0  0  0  0  0  0  0  0
    2.1485    5.8965    2.2684 C   0  0  0  0  0  0  0  0  0  0  0  0
    3.9072    7.7973    2.7050 C   0  0  0  0  0  0  0  0  0  0  0  0
    2.1133    4.7673    1.4134 C   0  0  0  0  0  0  0  0  0  0  0  0
    2.9200    9.0005    2.5972 C   0  0  0  0  0  0  0  0  0  0  0  0
    1.6961    4.0752    7.3709 C   0  0  0  0  0  0  0  0  0  0  0  0
   -4.0455    3.1921    3.9428 C   0  0  0  0  0  0  0  0  0  0  0  0
    3.3001    4.8188    0.7049 C   0  0  0  0  0  0  0  0  0  0  0  0
    1.2766    6.2799    3.3801 C   0  0  0  0  0  0  0  0  0  0  0  0
    1.6078    8.8888    3.3646 C   0  0  0  0  0  0  0  0  0  0  0  0
    1.2251    3.6821    1.1787 C   0  0  0  0  0  0  0  0  0  0  0  0
   -0.2520    6.1485    3.3067 C   0  0  0  0  0  0  0  0  0  0  0  0
    1.5159    2.6919    0.2799 C   0  0  0  0  0  0  0  0  0  0  0  0
   -2.1015    4.7342    5.4534 C   0  0  0  0  0  0  0  0  0  0  0  0
    3.5685    3.9033   -0.3035 C   0  0  0  0  0  0  0  0  0  0  0  0
    2.6129    2.8891   -0.5309 C   0  0  0  0  0  0  0  0  0  0  0  0
   -0.1965    4.8858    3.5182 C   0  0  0  0  0  0  0  0  0  0  0  0
   -1.4306    6.6602    3.9585 C   0  0  0  0  0  0  0  0  0  0  0  0
   -0.8886    4.4059    4.5970 C   0  0  0  0  0  0  0  0  0  0  0  0
   -2.4676    5.9272    4.8939 C   0  0  0  0  0  0  0  0  0  0  0  0
    1.8498    8.7033    4.8774 C   0  0  0  0  0  0  0  0  0  0  0  0
    2.8648   -0.0314    0.0660 C   0  0  0  0  0  0  0  0  0  0  0  0
  1  5  2  0
  1  6  2  0
  1  8  1  0
  1 39  1  0
  2 18  1  0
  2 25  1  0
  3 17  1  0
  3 31  1  0
  4 26  2  0
  7  9  1  0
  7 10  1  0
  7 11  1  0
  8 30  1  0
  9 12  1  0
 10 13  1  0
 11 14  1  0
 12 15  1  0
 13 16  1  0
 14 17  1  0
 15 23  1  0
 16 24  1  0
 18 19  2  0
 18 20  1  0
 19 21  1  0
 19 26  1  0
 20 22  1  0
 21 25  2  0
 21 28  1  0
 22 27  1  0
 25 32  1  0
 26 29  1  0
 27 38  1  0
 28 30  2  0
 29 34  2  0
 29 35  1  0
 30 33  1  0
 31 36  2  0
 31 37  1  0
 32 33  2  0
 34 36  1  0
 35 37  2  0
M  END
>  <DRUGBANK_ID>  (1) 
DB04855

>  <COMMON_NAME>  (1) 
Dronedarone

>  <CAS_NUMBER>  (1) 
141626-36-0

>  <UNII>  (1) 
JQZ1L091Y2

>  <SYNONYMS>  (1) 
Dronedarona; Dronedarone; N-(2-butyl-3-(4-(3-(dibutylamino)propoxy)benzoyl)-5-benzofuranyl)-methanesulfonamide; N-(2-butyl-3-(p-(3-(dibutylamino)propoxy)benzoyl)-5-benzofuranyl)methanesulfonamide

$$$$
