1522
     RDKit          3D

 26 27  0  0  1  0  0  0  0  0999 V2000
    0.2103    0.7539   -4.9784 O   0  0  0  0  0  0  0  0  0  0  0  0
    0.9378    2.6143   -6.0061 O   0  0  0  0  0  0  0  0  0  0  0  0
    0.3820   -1.5872    0.1837 N   0  0  0  0  0  0  0  0  0  0  0  0
    0.5069   -1.4870   -3.7999 C   0  0  0  0  0  0  0  0  0  0  0  0
    0.9766   -1.9205   -2.3349 C   0  0  0  0  0  0  0  0  0  0  0  0
   -0.1391    0.0272   -3.7503 C   0  0  2  0  0  0  0  0  0  0  0  0
   -0.0740   -1.8721   -1.1919 C   0  0  1  0  0  0  0  0  0  0  0  0
   -0.4745   -2.4854   -4.4263 C   0  0  0  0  0  0  0  0  0  0  0  0
    1.8416   -1.5666   -4.6026 C   0  0  0  0  0  0  0  0  0  0  0  0
   -1.6957    0.1886   -3.6589 C   0  0  0  0  0  0  0  0  0  0  0  0
   -1.0806   -3.0537   -1.1912 C   0  0  0  0  0  0  0  0  0  0  0  0
   -1.3026   -2.1005   -5.4801 C   0  0  0  0  0  0  0  0  0  0  0  0
    2.7283   -0.4873   -4.7028 C   0  0  0  0  0  0  0  0  0  0  0  0
   -0.5468   -3.8216   -4.0048 C   0  0  0  0  0  0  0  0  0  0  0  0
    2.2427   -2.7908   -5.1785 C   0  0  0  0  0  0  0  0  0  0  0  0
   -2.4104   -0.4203   -2.4960 C   0  0  0  0  0  0  0  0  0  0  0  0
    1.6821   -0.9428    0.2402 C   0  0  0  0  0  0  0  0  0  0  0  0
    0.3019   -2.7307    1.0758 C   0  0  0  0  0  0  0  0  0  0  0  0
   -2.3968   -2.8763   -5.8269 C   0  0  0  0  0  0  0  0  0  0  0  0
    3.9128   -0.6051   -5.4260 C   0  0  0  0  0  0  0  0  0  0  0  0
   -1.5600   -4.6572   -4.4442 C   0  0  0  0  0  0  0  0  0  0  0  0
    3.4652   -2.9371   -5.8122 C   0  0  0  0  0  0  0  0  0  0  0  0
    0.4208    2.0967   -5.0349 C   0  0  0  0  0  0  0  0  0  0  0  0
   -2.5304   -4.1536   -5.2976 C   0  0  0  0  0  0  0  0  0  0  0  0
    4.2819   -1.8306   -5.9729 C   0  0  0  0  0  0  0  0  0  0  0  0
   -0.0138    2.9121   -3.8473 C   0  0  0  0  0  0  0  0  0  0  0  0
  1 23  1  0
  2 23  2  0
  3 17  1  0
  3 18  1  0
  4  5  1  0
  4  8  1  0
  4  9  1  0
  6 10  1  6
  6  4  1  0
  6  1  1  0
  7 11  1  1
  7  5  1  0
  7  3  1  0
  8 12  2  0
  8 14  1  0
  9 13  2  0
  9 15  1  0
 10 16  1  0
 12 19  1  0
 13 20  1  0
 14 21  2  0
 15 22  2  0
 19 24  2  0
 20 25  2  0
 21 24  1  0
 22 25  1  0
 23 26  1  0
M  END
>  <DRUGBANK_ID>  (1) 
DB01522

>  <COMMON_NAME>  (1) 
Betacetylmethadol

>  <CAS_NUMBER>  (1) 
17199-59-6

>  <UNII>  (1) 
905GLN509G

>  <SYNONYMS>  (1) 
Betacetylmethadol

$$$$
