
     RDKit          3D

 32 34  0  0  1  0  0  0  0  0999 V2000
   -1.9013   -4.9265    0.1795 C   0  0  0  0  0  0  0  0  0  0  0  0
   -0.7695   -3.9159    0.1887 C   0  0  0  0  0  0  0  0  0  0  0  0
    0.4979   -4.7298    0.0993 C   0  0  0  0  0  0  0  0  0  0  0  0
   -0.9326   -2.7265   -0.7536 C   0  0  0  0  0  0  0  0  0  0  0  0
   -1.6636   -1.4411   -0.1608 C   0  0  2  0  0  0  0  0  0  0  0  0
   -1.1228   -0.8761    1.1015 N   0  0  0  0  0  0  0  0  0  0  0  0
   -0.0719    0.1055    1.1728 C   0  0  0  0  0  0  0  0  0  0  0  0
    0.0427    0.2044    2.6819 C   0  0  0  0  0  0  0  0  0  0  0  0
    1.0277    0.8238    3.3862 O   0  0  0  0  0  0  0  0  0  0  0  0
    1.6565    1.8810    2.8110 C   0  0  0  0  0  0  0  0  0  0  0  0
    1.0469    2.9560    2.1502 C   0  0  0  0  0  0  0  0  0  0  0  0
   -0.6632    3.2190    2.0747 Cl  0  0  0  0  0  0  0  0  0  0  0  0
    1.8517    3.9234    1.5627 C   0  0  0  0  0  0  0  0  0  0  0  0
    3.2375    3.8621    1.7141 C   0  0  0  0  0  0  0  0  0  0  0  0
    3.8289    2.8293    2.4404 C   0  0  0  0  0  0  0  0  0  0  0  0
    3.0370    1.8352    2.9874 C   0  0  0  0  0  0  0  0  0  0  0  0
   -0.9054   -0.4599    3.3249 C   0  0  0  0  0  0  0  0  0  0  0  0
   -1.8600   -0.6126    2.2563 C   0  0  0  0  0  0  0  0  0  0  0  0
   -3.0731   -0.4750    2.4587 O   0  0  0  0  0  0  0  0  0  0  0  0
   -3.2093   -1.5691   -0.1242 C   0  0  0  0  0  0  0  0  0  0  0  0
   -3.8634   -0.9638   -0.9902 O   0  0  0  0  0  0  0  0  0  0  0  0
   -3.8877   -2.4029    0.7431 N   0  0  0  0  0  0  0  0  0  0  0  0
   -3.4377   -3.1576    1.8372 C   0  0  0  0  0  0  0  0  0  0  0  0
   -2.2849   -2.9712    2.4731 N   0  0  0  0  0  0  0  0  0  0  0  0
   -2.0729   -3.9673    3.3077 N   0  0  0  0  0  0  0  0  0  0  0  0
   -0.8574   -3.9327    4.1227 C   0  0  0  0  0  0  0  0  0  0  0  0
    0.5611   -3.7899    3.4553 C   0  0  1  0  0  0  0  0  0  0  0  0
    0.8662   -2.5962    2.7434 O   0  0  0  0  0  0  0  0  0  0  0  0
    1.6899   -3.8233    4.4897 C   0  0  0  0  0  0  0  0  0  0  0  0
    1.7266   -5.0509    5.1897 O   0  0  0  0  0  0  0  0  0  0  0  0
   -3.0640   -4.9038    3.1953 C   0  0  0  0  0  0  0  0  0  0  0  0
   -3.9902   -4.3838    2.2921 C   0  0  0  0  0  0  0  0  0  0  0  0
  1  2  1  0
  2  3  1  0
  2  4  1  0
  5 20  1  0
  5  6  1  0
  5  4  1  1
  6  7  1  0
  6 18  1  0
  7  8  1  0
  8  9  1  0
  8 17  2  0
  9 10  1  0
 10 11  2  0
 10 16  1  0
 11 12  1  0
 11 13  1  0
 13 14  2  0
 14 15  1  0
 15 16  2  0
 17 18  1  0
 18 19  2  0
 20 21  2  0
 20 22  1  0
 22 23  1  0
 23 24  2  0
 23 32  1  0
 24 25  1  0
 25 26  1  0
 25 31  1  0
 27 26  1  0
 27 28  1  1
 27 29  1  0
 29 30  1  0
 31 32  2  0
M  END
>  <DRUGBANK_ID>  (1) 
DB15123

>  <COMMON_NAME>  (1) 
Dorzagliatin

>  <CAS_NUMBER>  (1) 
1191995-00-2

>  <UNII>  (1) 
X59W6980E8

>  <SYNONYMS>  (1) 
Dorzagliatin

$$$$
