
     RDKit          3D

 25 25  0  0  0  0  0  0  0  0999 V2000
    6.8917   -9.1707   -2.5340 I   0  0  0  0  0  0  0  0  0  0  0  0
   12.1453   -8.0213    0.3039 I   0  0  0  0  0  0  0  0  0  0  0  0
    6.5629   -5.2323    0.6130 O   0  0  0  0  0  0  0  0  0  0  0  0
    7.3083   -4.4103   -3.6302 O   0  0  0  0  0  0  0  0  0  0  0  0
    2.4803   -5.9060   -0.9622 O   0  0  0  0  0  0  0  0  0  0  0  0
    3.9399   -7.4614   -1.6760 O   0  0  0  0  0  0  0  0  0  0  0  0
    5.4408   -0.6216   -0.0627 O   0  0  0  0  0  0  0  0  0  0  0  0
    9.6963   -9.6478   -1.1284 O   0  0  0  0  0  0  0  0  0  0  0  0
    5.6772   -5.0122   -2.1870 N   0  0  0  0  0  0  0  0  0  0  0  0
    6.3695   -2.4284   -1.0076 N   0  0  0  0  0  0  0  0  0  0  0  0
    7.4625   -3.2508   -1.5481 C   0  0  1  0  0  0  0  0  0  0  0  0
    8.3796   -3.9738   -0.4929 C   0  0  0  0  0  0  0  0  0  0  0  0
    4.8015   -5.3347   -0.9489 C   0  0  2  0  0  0  0  0  0  0  0  0
    6.7655   -4.2036   -2.5369 C   0  0  0  0  0  0  0  0  0  0  0  0
    5.3858   -5.9108    0.4160 C   0  0  1  0  0  0  0  0  0  0  0  0
    8.8225   -5.4816   -0.8058 C   0  0  0  0  0  0  0  0  0  0  0  0
    5.8218   -7.3537    0.6514 C   0  0  0  0  0  0  0  0  0  0  0  0
    3.7221   -6.3574   -1.2638 C   0  0  0  0  0  0  0  0  0  0  0  0
    9.9525   -6.0068   -0.2053 C   0  0  0  0  0  0  0  0  0  0  0  0
    8.0729   -6.4830   -1.5215 C   0  0  0  0  0  0  0  0  0  0  0  0
    6.4589   -1.2101   -0.4047 C   0  0  0  0  0  0  0  0  0  0  0  0
    8.3478   -7.8463   -1.6635 C   0  0  0  0  0  0  0  0  0  0  0  0
   10.2896   -7.3831   -0.3824 C   0  0  0  0  0  0  0  0  0  0  0  0
    9.4702   -8.3076   -1.0606 C   0  0  0  0  0  0  0  0  0  0  0  0
    7.8386   -0.6659   -0.1929 C   0  0  0  0  0  0  0  0  0  0  0  0
  1 22  1  0
  2 23  1  0
  4 14  2  0
  5 18  1  0
  6 18  2  0
  7 21  2  0
  8 24  1  0
  9 14  1  0
 10 21  1  0
 11 14  1  0
 11 12  1  1
 11 10  1  0
 12 16  1  0
 13 18  1  0
 13 15  1  0
 13  9  1  6
 15 17  1  6
 15  3  1  0
 16 19  2  0
 16 20  1  0
 19 23  1  0
 20 22  2  0
 21 25  1  0
 22 24  1  0
 23 24  2  0
M  END
>  <DRUGBANK_ID>  (1) 
DB04150

>  <SECONDARY_ACCESSION_NUMBERS>  (1) 
EXPT01952

>  <COMMON_NAME>  (1) 
N-alpha-Acetyl-3,5-diiodotyrosyl-D-threonine

$$$$
