
     RDKit          3D

 10  9  0  0  0  0  0  0  0  0999 V2000
    2.1753   -1.9738   -0.0378 O   0  0  0  0  0  0  0  0  0  0  0  0
    3.3407   -1.9932   -0.8495 C   0  0  0  0  0  0  0  0  0  0  0  0
    3.0163   -1.6118   -2.2873 C   0  0  0  0  0  0  0  0  0  0  0  0
    2.4914   -0.1653   -2.4815 C   0  0  2  0  0  0  0  0  0  0  0  0
    0.9412   -0.1377   -2.5332 C   0  0  0  0  0  0  0  0  0  0  0  0
    0.3910    0.6533   -3.6939 C   0  0  0  0  0  0  0  0  0  0  0  0
   -0.3327   -0.0734   -4.5747 O   0  0  0  0  0  0  0  0  0  0  0  0
    3.0775    0.2908   -3.7084 O   0  0  0  0  0  0  0  0  0  0  0  0
    3.0181    0.8069   -1.4064 C   0  0  0  0  0  0  0  0  0  0  0  0
    0.5867    1.8503   -3.8588 O   0  0  0  0  0  0  0  0  0  0  0  0
  1  2  1  0
  2  3  1  0
  4  8  1  0
  4  9  1  1
  4  5  1  0
  4  3  1  0
  5  6  1  0
  6  7  1  0
  6 10  2  0
M  END
>  <DRUGBANK_ID>  (1) 
DB03518

>  <SECONDARY_ACCESSION_NUMBERS>  (1) 
EXPT02156

>  <COMMON_NAME>  (1) 
Mevalonic acid

>  <CAS_NUMBER>  (1) 
150-97-0

>  <UNII>  (1) 
S5UOB36OCZ

>  <SYNONYMS>  (1) 
(R)-3,5-dihydroxy-3-methylvaleric acid; (R)-mevalonate; (R)-mevalonic acid; 3,5-Dihydroxy-3-methylvaleric acid

$$$$
