IQZ
     RDKit          3D

 18 21  0  0  0  0  0  0  0  0999 V2000
    3.1562    1.4328    0.1302 C   0  0  0  0  0  0  0  0  0  0  0  0
    1.9067    0.8003    0.2095 C   0  0  0  0  0  0  0  0  0  0  0  0
    1.7223   -0.5508   -0.0914 C   0  0  0  0  0  0  0  0  0  0  0  0
    2.8402   -1.3000   -0.5102 C   0  0  0  0  0  0  0  0  0  0  0  0
    4.0944   -0.6832   -0.6016 C   0  0  0  0  0  0  0  0  0  0  0  0
    4.2492    0.6626   -0.2798 C   0  0  0  0  0  0  0  0  0  0  0  0
    0.6834    1.2963    0.6029 N   0  0  0  0  0  0  0  0  0  0  0  0
   -0.2759    0.3122    0.5542 C   0  0  0  0  0  0  0  0  0  0  0  0
    0.3601   -0.8564    0.1935 C   0  0  0  0  0  0  0  0  0  0  0  0
   -1.7205    0.4835    0.9512 C   0  0  2  0  0  0  0  0  0  0  0  0
   -2.5041   -0.7518    0.6991 N   0  0  0  0  0  0  0  0  0  0  0  0
   -1.7507   -2.0309    0.9212 C   0  0  0  0  0  0  0  0  0  0  0  0
   -0.3589   -2.1110    0.2599 C   0  0  0  0  0  0  0  0  0  0  0  0
   -2.2762    1.7915    0.3302 C   0  0  0  0  0  0  0  0  0  0  0  0
   -2.8470    1.5432   -1.0577 C   0  0  0  0  0  0  0  0  0  0  0  0
   -3.9607    0.5173   -0.9539 C   0  0  0  0  0  0  0  0  0  0  0  0
   -3.3825   -0.8172   -0.4742 C   0  0  0  0  0  0  0  0  0  0  0  0
    0.1821   -3.1899   -0.0013 O   0  0  0  0  0  0  0  0  0  0  0  0
  1  2  2  0
  1  6  1  0
  2  3  1  0
  2  7  1  0
  3  4  2  0
  3  9  1  0
  4  5  1  0
  5  6  2  0
  7  8  1  0
  8  9  2  0
  8 10  1  0
  9 13  1  0
 10 11  1  0
 10 14  1  6
 11 12  1  0
 11 17  1  0
 12 13  1  0
 13 18  2  0
 14 15  1  0
 15 16  1  0
 16 17  1  0
M  END
>  <DRUGBANK_ID>  (1) 
DB02191

>  <SECONDARY_ACCESSION_NUMBERS>  (1) 
EXPT01928

>  <COMMON_NAME>  (1) 
(7as,12ar,12bs)-1,2,3,4,7a,12,12a,12b-Octahydroindolo[2,3-a]Quinolizin-7(6h)-One

$$$$
