
     RDKit          3D

 13 12  0  0  0  0  0  0  0  0999 V2000
    0.9765    0.0515   -0.0125 C   0  0  0  0  0  0  0  0  0  0  0  0
    0.4978    1.2458   -0.8395 C   0  0  0  0  0  0  0  0  0  0  0  0
    0.5180   -1.3074   -0.5401 C   0  0  0  0  0  0  0  0  0  0  0  0
    0.9938    1.2088   -2.2877 C   0  0  0  0  0  0  0  0  0  0  0  0
    0.9124   -2.5147    0.2621 C   0  0  0  0  0  0  0  0  0  0  0  0
    0.4441    0.0607   -3.1412 C   0  0  0  0  0  0  0  0  0  0  0  0
    0.3418   -2.4664    1.6533 C   0  0  0  0  0  0  0  0  0  0  0  0
   -1.0856   -0.0361   -3.0784 C   0  0  0  0  0  0  0  0  0  0  0  0
   -1.1774   -2.3913    1.6300 C   0  0  0  0  0  0  0  0  0  0  0  0
   -1.6869    1.1535   -3.8058 C   0  0  0  0  0  0  0  0  0  0  0  0
   -1.7766   -3.4600    2.1977 O   0  0  0  0  0  0  0  0  0  0  0  0
   -1.8228   -1.4796    1.1572 O   0  0  0  0  0  0  0  0  0  0  0  0
   -1.2084    1.1575   -5.2471 C   0  0  0  0  0  0  0  0  0  0  0  0
  1  2  1  0
  1  3  1  0
  2  4  1  0
  3  5  1  0
  4  6  1  0
  5  7  1  0
  6  8  1  0
  7  9  1  0
  8 10  1  0
  9 11  1  0
  9 12  2  0
 10 13  1  0
M  END
>  <DRUGBANK_ID>  (1) 
DB16857

>  <COMMON_NAME>  (1) 
Undecanoic acid

>  <CAS_NUMBER>  (1) 
112-37-8

>  <UNII>  (1) 
138ON3IIQG

>  <SYNONYMS>  (1) 
Hendecanoic acid; Undecanoate; Undecoic acid; Undecylic acid

$$$$
