
     RDKit          3D

 20 22  0  0  1  0  0  0  0  0999 V2000
    0.8777   -0.1879   -0.1819 N   0  0  0  0  0  0  0  0  0  0  0  0
    0.3703   -1.2407    0.7316 C   0  0  1  0  0  0  0  0  0  0  0  0
    0.9192   -1.1685    2.1722 C   0  0  0  0  0  0  0  0  0  0  0  0
    0.5758    0.0957    2.9229 C   0  0  0  0  0  0  0  0  0  0  0  0
    1.0188    1.3275    2.4673 C   0  0  0  0  0  0  0  0  0  0  0  0
    0.6092    2.4765    3.1103 C   0  0  0  0  0  0  0  0  0  0  0  0
   -0.1442    2.3726    4.2706 C   0  0  0  0  0  0  0  0  0  0  0  0
   -0.4498    3.5364    4.9714 C   0  0  0  0  0  0  0  0  0  0  0  0
   -1.1450    3.4493    6.1630 C   0  0  0  0  0  0  0  0  0  0  0  0
   -1.5802    2.2028    6.6244 C   0  0  0  0  0  0  0  0  0  0  0  0
   -1.2920    1.0113    5.9102 C   0  0  0  0  0  0  0  0  0  0  0  0
   -1.7320   -0.1846    6.3765 N   0  0  0  0  0  0  0  0  0  0  0  0
   -2.4727   -0.2254    7.5008 C   0  0  0  0  0  0  0  0  0  0  0  0
   -2.7959    0.8895    8.2430 C   0  0  0  0  0  0  0  0  0  0  0  0
   -2.3241    2.1188    7.8067 C   0  0  0  0  0  0  0  0  0  0  0  0
   -0.5412    1.0917    4.7281 C   0  0  0  0  0  0  0  0  0  0  0  0
   -0.1813   -0.0234    4.0336 N   0  0  0  0  0  0  0  0  0  0  0  0
   -1.1703   -1.1983    0.7333 C   0  0  0  0  0  0  0  0  0  0  0  0
   -1.7638   -2.2683    0.1569 O   0  0  0  0  0  0  0  0  0  0  0  0
   -1.8293   -0.2495    1.1470 O   0  0  0  0  0  0  0  0  0  0  0  0
  2  1  1  6
  2  3  1  0
  2 18  1  0
  3  4  1  0
  4  5  2  0
  4 17  1  0
  5  6  1  0
  6  7  2  0
  7  8  1  0
  7 16  1  0
  8  9  2  0
  9 10  1  0
 10 11  2  0
 10 15  1  0
 11 12  1  0
 11 16  1  0
 12 13  2  0
 13 14  1  0
 14 15  2  0
 16 17  2  0
 18 19  1  0
 18 20  2  0
M  END
>  <DRUGBANK_ID>  (1) 
DB01659

>  <SECONDARY_ACCESSION_NUMBERS>  (1) 
EXPT02716

>  <COMMON_NAME>  (1) 
3-(1,10-Phenanthrol-2-Yl)-L-Alanine

$$$$
