
     RDKit          3D

 25 26  0  0  1  0  0  0  0  0999 V2000
    1.0716   -0.0420   -0.0775 C   0  0  0  0  0  0  0  0  0  0  0  0
    0.5615    0.4043   -1.4428 C   0  0  0  0  0  0  0  0  0  0  0  0
    0.5763   -1.4208    0.3465 C   0  0  0  0  0  0  0  0  0  0  0  0
    0.7302    3.3233    2.1273 C   0  0  0  0  0  0  0  0  0  0  0  0
    2.1751    3.7272    4.0122 C   0  0  0  0  0  0  0  0  0  0  0  0
    1.3373    4.3783    1.4255 C   0  0  0  0  0  0  0  0  0  0  0  0
    2.7817    4.7772    3.3155 C   0  0  0  0  0  0  0  0  0  0  0  0
    1.0604   -0.4381   -2.6177 C   0  0  0  0  0  0  0  0  0  0  0  0
    0.4537    1.9625    4.2445 C   0  0  0  0  0  0  0  0  0  0  0  0
   -0.5815   -2.8468    4.1984 C   0  0  0  0  0  0  0  0  0  0  0  0
    1.1310    2.9977    3.4360 C   0  0  0  0  0  0  0  0  0  0  0  0
    2.3507    5.1079    2.0369 C   0  0  0  0  0  0  0  0  0  0  0  0
    1.1358   -1.9583    1.6513 C   0  0  1  0  0  0  0  0  0  0  0  0
    0.3745    0.6734    3.8982 C   0  0  0  0  0  0  0  0  0  0  0  0
   -1.6154   -3.4125    3.2380 C   0  0  0  0  0  0  0  0  0  0  0  0
    0.6282   -1.1206    2.7994 C   0  0  0  0  0  0  0  0  0  0  0  0
   -0.3318   -0.4170    4.6384 C   0  0  0  0  0  0  0  0  0  0  0  0
    0.5382   -1.8007   -2.6665 N   0  0  0  0  0  0  0  0  0  0  0  0
    0.8059   -3.3760    1.6500 N   0  0  0  0  0  0  0  0  0  0  0  0
    0.9683    0.1327    2.8037 N   0  0  0  0  0  0  0  0  0  0  0  0
   -0.1545   -1.5082    3.8201 N   0  0  0  0  0  0  0  0  0  0  0  0
    2.9568    6.1684    1.4294 O   0  0  0  0  0  0  0  0  0  0  0  0
   -1.5310   -4.4901    2.6651 O   0  0  0  0  0  0  0  0  0  0  0  0
   -2.6659   -2.6131    2.9954 O   0  0  0  0  0  0  0  0  0  0  0  0
   -0.8618   -0.3491    5.7216 O   0  0  0  0  0  0  0  0  0  0  0  0
  2  1  1  0
  3  1  1  0
  6  4  2  0
  7  5  1  0
  8  2  1  0
 11  4  1  0
 11  5  2  0
 11  9  1  0
 12  6  1  0
 12  7  2  0
 13  3  1  0
 13 19  1  1
 14  9  2  0
 15 10  1  0
 16 13  1  0
 17 14  1  0
 18  8  1  0
 20 14  1  0
 20 16  2  0
 21 10  1  0
 21 16  1  0
 21 17  1  0
 22 12  1  0
 23 15  2  0
 24 15  1  0
 25 17  2  0
M  END
>  <DRUGBANK_ID>  (1) 
DB04666

>  <COMMON_NAME>  (1) 
CHROMOPHORE (LYS-TYR-GLY)

$$$$
