IHX
     RDKit          3D

 28 31  0  0  0  0  0  0  0  0999 V2000
   -1.1984   -1.1906    0.0075 C   0  0  0  0  0  0  0  0  0  0  0  0
   -1.8707    0.0344   -0.0054 C   0  0  0  0  0  0  0  0  0  0  0  0
    0.1965   -1.2248    0.0188 C   0  0  0  0  0  0  0  0  0  0  0  0
   -1.1590    1.2454   -0.0052 C   0  0  0  0  0  0  0  0  0  0  0  0
    0.9070   -0.0298    0.0220 C   0  0  0  0  0  0  0  0  0  0  0  0
    0.2437    1.1919    0.0190 C   0  0  0  0  0  0  0  0  0  0  0  0
   -1.8648    2.5395   -0.0443 C   0  0  0  0  0  0  0  0  0  0  0  0
   -1.6626    3.4487   -1.1005 C   0  0  0  0  0  0  0  0  0  0  0  0
   -2.7499    2.8648    1.0011 C   0  0  0  0  0  0  0  0  0  0  0  0
   -3.4409    4.0767    1.0106 C   0  0  0  0  0  0  0  0  0  0  0  0
   -0.6048    4.0673   -3.0810 C   0  0  0  0  0  0  0  0  0  0  0  0
   -1.2945    5.2692   -3.0312 C   0  0  0  0  0  0  0  0  0  0  0  0
    0.3237    3.7682   -4.0385 N   0  0  0  0  0  0  0  0  0  0  0  0
    1.4713    1.8548   -5.0965 C   0  0  0  0  0  0  0  0  0  0  0  0
    1.4296    4.6611   -4.3625 C   0  0  0  0  0  0  0  0  0  0  0  0
   -4.0490    5.5518    2.7854 F   0  0  0  0  0  0  0  0  0  0  0  0
   -4.4013    4.4189    2.1202 C   0  0  0  0  0  0  0  0  0  0  0  0
   -5.6666    4.6247    1.6640 F   0  0  0  0  0  0  0  0  0  0  0  0
   -4.5014    3.4448    3.0673 F   0  0  0  0  0  0  0  0  0  0  0  0
    2.2708   -0.0031    0.0215 O   0  0  0  0  0  0  0  0  0  0  0  0
   -3.2239    4.9741   -0.0424 C   0  0  0  0  0  0  0  0  0  0  0  0
   -2.3486    4.6848   -1.0833 C   0  0  0  0  0  0  0  0  0  0  0  0
   -2.1781    5.5979   -2.0540 N   0  0  0  0  0  0  0  0  0  0  0  0
   -0.8225    3.1512   -2.1215 N   0  0  0  0  0  0  0  0  0  0  0  0
    2.7232    3.8361   -4.5900 C   0  0  0  0  0  0  0  0  0  0  0  0
    2.5266    2.7688   -5.5993 N   0  0  0  0  0  0  0  0  0  0  0  0
    3.7676    2.0432   -5.8451 C   0  0  0  0  0  0  0  0  0  0  0  0
    0.1331    2.5972   -4.8906 C   0  0  0  0  0  0  0  0  0  0  0  0
  1  2  2  0
  1  3  1  0
  2  4  1  0
  3  5  2  0
  4  6  2  0
  4  7  1  0
  5  6  1  0
  5 20  1  0
  7  8  1  0
  7  9  2  0
  8 22  2  0
  8 24  1  0
  9 10  1  0
 10 17  1  0
 10 21  2  0
 11 12  1  0
 11 13  1  0
 11 24  2  0
 12 23  2  0
 13 15  1  0
 13 28  1  0
 14 26  1  0
 14 28  1  0
 15 25  1  0
 16 17  1  0
 17 18  1  0
 17 19  1  0
 21 22  1  0
 22 23  1  0
 25 26  1  0
 26 27  1  0
M  END
>  <DRUGBANK_ID>  (1) 
DB07969

>  <COMMON_NAME>  (1) 
3-[3-(4-methylpiperazin-1-yl)-7-(trifluoromethyl)quinoxalin-5-yl]phenol

$$$$
