
     RDKit          3D

 12 12  0  0  0  0  0  0  0  0999 V2000
    1.0780    0.0996   -0.0294 N   0  0  0  0  0  0  0  0  0  0  0  0
    0.5496    1.1853    0.8385 C   0  0  0  0  0  0  0  0  0  0  0  0
    1.1709    2.5303    0.3642 C   0  0  0  0  0  0  0  0  0  0  0  0
    0.6223    3.5324   -0.0690 O   0  0  0  0  0  0  0  0  0  0  0  0
    2.5224    2.5399    0.4299 O   0  0  0  0  0  0  0  0  0  0  0  0
   -0.9791    1.1507    0.8814 C   0  0  0  0  0  0  0  0  0  0  0  0
   -1.7529    2.3214    0.9583 C   0  0  0  0  0  0  0  0  0  0  0  0
   -3.1468    2.2852    0.9147 C   0  0  0  0  0  0  0  0  0  0  0  0
   -3.7940    1.0615    0.8688 C   0  0  0  0  0  0  0  0  0  0  0  0
   -5.1531    0.9838    0.8198 O   0  0  0  0  0  0  0  0  0  0  0  0
   -3.0673   -0.1204    0.8815 C   0  0  0  0  0  0  0  0  0  0  0  0
   -1.6688   -0.0778    0.8916 C   0  0  0  0  0  0  0  0  0  0  0  0
  1  2  1  0
  2  3  1  0
  2  6  1  0
  3  4  2  0
  3  5  1  0
  6  7  2  0
  6 12  1  0
  7  8  1  0
  8  9  2  0
  9 10  1  0
  9 11  1  0
 11 12  2  0
M  END
>  <DRUGBANK_ID>  (1) 
DB02601

>  <SECONDARY_ACCESSION_NUMBERS>  (1) 
EXPT01591

>  <COMMON_NAME>  (1) 
4-Hydroxyphenylglycine

>  <CAS_NUMBER>  (1) 
37784-25-1

>  <UNII>  (1) 
7UYG7X0F53

>  <SYNONYMS>  (1) 
(+/-)-alpha-amino-4-hydroxybenzeneacetic acid; (RS)-2-(4-hydroxyphenyl)glycine; dl-p-hydroxyphenylglycine; p-hydroxyphenylglycine

$$$$
