
     RDKit          3D

 25 26  0  0  0  0  0  0  0  0999 V2000
    1.0888    0.0284    0.0785 C   0  0  0  0  0  0  0  0  0  0  0  0
    0.8410    3.2399   -3.2087 C   0  0  0  0  0  0  0  0  0  0  0  0
    5.5991    4.0738   -5.3275 C   0  0  0  0  0  0  0  0  0  0  0  0
    5.1699    3.4830   -3.3103 C   0  0  0  0  0  0  0  0  0  0  0  0
    0.5908    1.3642    0.5792 C   0  0  0  0  0  0  0  0  0  0  0  0
    1.7362    8.0956   -4.4929 C   0  0  0  0  0  0  0  0  0  0  0  0
    7.3778    3.6364   -1.2682 C   0  0  0  0  0  0  0  0  0  0  0  0
    1.2669    6.8383   -4.6608 C   0  0  0  0  0  0  0  0  0  0  0  0
    2.4664    8.3870   -3.3298 C   0  0  0  0  0  0  0  0  0  0  0  0
    6.6841    2.4295   -1.0789 C   0  0  0  0  0  0  0  0  0  0  0  0
    6.6682    4.8346   -1.1395 C   0  0  0  0  0  0  0  0  0  0  0  0
    1.5523    5.9481   -3.6485 C   0  0  0  0  0  0  0  0  0  0  0  0
    2.7363    7.4323   -2.3172 C   0  0  0  0  0  0  0  0  0  0  0  0
    5.2713    2.4209   -0.7962 C   0  0  0  0  0  0  0  0  0  0  0  0
    5.2760    4.8481   -0.8202 C   0  0  0  0  0  0  0  0  0  0  0  0
    2.2960    5.1398   -1.2530 C   0  0  0  0  0  0  0  0  0  0  0  0
    3.2655    3.7435   -4.3530 C   0  0  0  0  0  0  0  0  0  0  0  0
    2.4327    3.1252   -2.9936 C   0  0  1  0  0  0  0  0  0  0  0  0
    2.2302    6.1546   -2.4245 C   0  0  0  0  0  0  0  0  0  0  0  0
    4.5003    3.6457   -0.8033 C   0  0  0  0  0  0  0  0  0  0  0  0
    0.9403    2.5518   -0.2767 C   0  0  0  0  0  0  0  0  0  0  0  0
    2.8927    3.6741   -1.4201 C   0  0  1  0  0  0  0  0  0  0  0  0
    4.6400    3.2533   -4.5869 N   0  0  0  0  0  0  0  0  0  0  0  0
    0.0792    3.3058   -0.6290 O   0  0  0  0  0  0  0  0  0  0  0  0
    2.2823    2.6692   -0.4953 O   0  0  0  0  0  0  0  0  0  0  0  0
  5  1  1  0
  8  6  2  0
  9  6  1  0
 10  7  2  0
 11  7  1  0
 12  8  1  0
 13  9  2  0
 14 10  1  0
 15 11  2  0
 18  2  1  6
 18 17  1  0
 19 12  2  0
 19 13  1  0
 19 16  1  0
 20 14  2  0
 20 15  1  0
 21  5  1  0
 22 20  1  0
 22 25  1  0
 22 18  1  0
 22 16  1  1
 23  3  1  0
 23  4  1  0
 23 17  1  0
 24 21  2  0
 25 21  1  0
M  END
>  <DRUGBANK_ID>  (1) 
DB06793

>  <COMMON_NAME>  (1) 
Levopropoxyphene

>  <CAS_NUMBER>  (1) 
2338-37-6

>  <UNII>  (1) 
U75VZ9PK1J

>  <SYNONYMS>  (1) 
(-)-Propoxyphene; (l)-Propoxyphene; levopropoxifeno; Levopropoxyphene

$$$$
