
     RDKit          3D

 21 23  0  0  0  0  0  0  0  0999 V2000
    1.1182    0.0405    0.0379 C   0  0  0  0  0  0  0  0  0  0  0  0
   -1.1833   -4.3241   -8.2956 C   0  0  0  0  0  0  0  0  0  0  0  0
    5.0562   -3.3706   -3.3274 C   0  0  0  0  0  0  0  0  0  0  0  0
   -2.0061   -3.2906   -8.0460 C   0  0  0  0  0  0  0  0  0  0  0  0
    4.4092   -3.1993   -2.1211 C   0  0  0  0  0  0  0  0  0  0  0  0
   -0.1644   -4.2133   -7.4140 C   0  0  0  0  0  0  0  0  0  0  0  0
    4.2416   -3.6195   -4.4192 C   0  0  0  0  0  0  0  0  0  0  0  0
   -1.7006   -2.3153   -6.7323 C   0  0  0  0  0  0  0  0  0  0  0  0
    2.9294   -3.1176   -2.0960 C   0  0  0  0  0  0  0  0  0  0  0  0
    0.8495   -3.9645   -5.3886 C   0  0  0  0  0  0  0  0  0  0  0  0
    2.1116   -3.6261   -5.6029 C   0  0  0  0  0  0  0  0  0  0  0  0
   -0.8562   -1.2817    0.4020 C   0  0  0  0  0  0  0  0  0  0  0  0
   -1.4213   -1.0031   -1.0183 C   0  0  0  0  0  0  0  0  0  0  0  0
   -0.1138   -3.3028   -6.1464 C   0  0  0  0  0  0  0  0  0  0  0  0
    2.8297   -3.4260   -4.4037 C   0  0  0  0  0  0  0  0  0  0  0  0
   -0.7920   -2.2962   -5.3803 C   0  0  0  0  0  0  0  0  0  0  0  0
    2.0735   -2.9775   -3.3435 C   0  0  0  0  0  0  0  0  0  0  0  0
    0.3537   -2.3190   -3.7754 C   0  0  0  0  0  0  0  0  0  0  0  0
    0.6141   -1.2610    0.4761 N   0  0  0  0  0  0  0  0  0  0  0  0
    0.0430   -2.0082   -2.5236 N   0  0  0  0  0  0  0  0  0  0  0  0
   -1.2591   -1.9752   -2.0776 O   0  0  0  0  0  0  0  0  0  0  0  0
  4  2  2  0
  5  3  2  0
  6  2  1  0
  7  3  1  0
  8  4  1  0
  9  5  1  0
 11 10  2  0
 13 12  1  0
 14  6  2  0
 14 10  1  0
 15  7  2  0
 15 11  1  0
 16  8  2  0
 16 14  1  0
 17  9  2  0
 17 15  1  0
 18 16  1  0
 18 17  1  0
 19  1  1  0
 19 12  1  0
 20 18  2  3
 21 13  1  0
 21 20  1  0
M  END
>  <DRUGBANK_ID>  (1) 
DB08998

>  <COMMON_NAME>  (1) 
Demexiptiline

>  <CAS_NUMBER>  (1) 
24701-51-7

>  <UNII>  (1) 
EYX738UZ5P

>  <SYNONYMS>  (1) 
Demexiptiline

$$$$
