
     RDKit          3D

  6  5  0  0  0  0  0  0  0  0999 V2000
    0.9243    0.0129    0.0544 C   0  0  0  0  0  0  0  0  0  0  0  0
    0.4909    0.2831   -1.2815 O   0  0  0  0  0  0  0  0  0  0  0  0
    0.4201   -1.3871    0.4232 C   0  0  0  0  0  0  0  0  0  0  0  0
    0.4122    1.1303    0.9542 C   0  0  0  0  0  0  0  0  0  0  0  0
    0.9108   -1.9146    1.7648 C   0  0  0  0  0  0  0  0  0  0  0  0
    0.3249   -1.2165    2.8516 O   0  0  0  0  0  0  0  0  0  0  0  0
  1  2  1  0
  1  3  1  0
  1  4  1  0
  3  5  1  0
  5  6  1  0
M  END
>  <DRUGBANK_ID>  (1) 
DB14110

>  <COMMON_NAME>  (1) 
Butylene glycol

>  <CAS_NUMBER>  (1) 
107-88-0

>  <UNII>  (1) 
3XUS85K0RA

>  <SYNONYMS>  (1) 
(RS)-1,3-Butandiol; 1,3 Butylene glycol; 1,3-Butandiol; 1,3-Butanediol; 1,3-Butylene glycol; 1,3-Butylenglykol; BD; beta-Butylene glycol; Butane-1,3-diol; Methyltrimethylene glycol

$$$$
