
     RDKit          3D

 40 45  0  0  1  0  0  0  0  0999 V2000
   -7.1192    5.1084    2.6885 O   0  0  0  0  0  0  0  0  0  0  0  0
   -7.4254    3.8072    2.8882 C   0  0  0  0  0  0  0  0  0  0  0  0
   -7.9671    3.4260    3.9005 O   0  0  0  0  0  0  0  0  0  0  0  0
   -6.9573    2.9146    1.7981 C   0  0  0  0  0  0  0  0  0  0  0  0
   -5.7090    3.0943    1.2794 C   0  0  0  0  0  0  0  0  0  0  0  0
   -5.1552    2.0576    0.4948 C   0  0  0  0  0  0  0  0  0  0  0  0
   -5.7186    0.7486    0.1963 C   0  0  0  0  0  0  0  0  0  0  0  0
   -7.0572    0.7139    0.6133 C   0  0  0  0  0  0  0  0  0  0  0  0
   -7.6597    1.7694    1.3958 C   0  0  0  0  0  0  0  0  0  0  0  0
   -5.1212   -0.5276   -0.8811 C   0  0  2  0  0  0  0  0  0  0  0  0
   -3.4818   -1.1718   -1.6000 C   0  0  0  0  0  0  0  0  0  0  0  0
   -3.7009   -0.7918   -3.0420 C   0  0  1  0  0  0  0  0  0  0  0  0
   -2.7599   -0.0608   -3.8655 N   0  0  0  0  0  0  0  0  0  0  0  0
   -2.9485    1.3547   -4.0754 C   0  0  0  0  0  0  0  0  0  0  0  0
   -2.6321    1.8905   -5.0856 O   0  0  0  0  0  0  0  0  0  0  0  0
   -3.5840    2.1949   -2.8938 C   0  0  0  0  0  0  0  0  0  0  0  0
   -5.1572    2.4567   -3.0729 C   0  0  0  0  0  0  0  0  0  0  0  0
   -4.1815    3.5717   -3.2078 C   0  0  0  0  0  0  0  0  0  0  0  0
   -2.7712    2.0203   -1.4666 C   0  0  0  0  0  0  0  0  0  0  0  0
   -3.0391    0.9541   -0.6303 C   0  0  0  0  0  0  0  0  0  0  0  0
   -2.4376    0.1723    0.4110 C   0  0  0  0  0  0  0  0  0  0  0  0
   -1.1676    0.4984    0.5191 C   0  0  0  0  0  0  0  0  0  0  0  0
   -0.3992   -0.5114    1.0190 O   0  0  0  0  0  0  0  0  0  0  0  0
   -1.3534   -1.5963    1.0946 C   0  0  0  0  0  0  0  0  0  0  0  0
   -1.0362   -2.5522    0.1687 F   0  0  0  0  0  0  0  0  0  0  0  0
   -1.2531   -2.2081    2.3052 F   0  0  0  0  0  0  0  0  0  0  0  0
   -2.7053   -1.1148    0.8628 O   0  0  0  0  0  0  0  0  0  0  0  0
   -0.7925    1.7109   -0.0885 C   0  0  0  0  0  0  0  0  0  0  0  0
   -1.6337    2.5258   -0.9777 C   0  0  0  0  0  0  0  0  0  0  0  0
   -4.4937   -1.9717   -3.2919 C   0  0  0  0  0  0  0  0  0  0  0  0
   -5.7242   -2.0266   -2.5752 C   0  0  0  0  0  0  0  0  0  0  0  0
   -6.1306   -1.3536   -1.4407 O   0  0  0  0  0  0  0  0  0  0  0  0
   -6.6300   -2.9504   -2.9092 C   0  0  0  0  0  0  0  0  0  0  0  0
   -6.2207   -3.9553   -3.7573 C   0  0  0  0  0  0  0  0  0  0  0  0
   -7.0412   -4.9739   -4.1162 O   0  0  0  0  0  0  0  0  0  0  0  0
   -8.3306   -4.9418   -3.5154 C   0  0  0  0  0  0  0  0  0  0  0  0
   -8.2327   -4.9481   -2.1602 F   0  0  0  0  0  0  0  0  0  0  0  0
   -8.9943   -3.8187   -3.8908 F   0  0  0  0  0  0  0  0  0  0  0  0
   -4.9003   -4.0265   -4.2472 C   0  0  0  0  0  0  0  0  0  0  0  0
   -3.9782   -3.0662   -3.9303 C   0  0  0  0  0  0  0  0  0  0  0  0
  1  2  1  0
  2  3  2  0
  2  4  1  0
  4  5  2  0
  4  9  1  0
  5  6  1  0
  6  7  2  0
  7  8  1  0
  8  9  2  0
 10 11  1  0
 10 32  1  0
 10  7  1  1
 12 11  1  0
 12 13  1  6
 12 30  1  0
 13 14  1  0
 14 15  2  0
 14 16  1  0
 16 17  1  0
 16 18  1  0
 16 19  1  0
 17 18  1  0
 19 20  2  0
 19 29  1  0
 20 21  1  0
 21 22  2  0
 21 27  1  0
 22 23  1  0
 22 28  1  0
 23 24  1  0
 24 25  1  0
 24 26  1  0
 24 27  1  0
 28 29  2  0
 30 31  2  0
 30 40  1  0
 31 32  1  0
 31 33  1  0
 33 34  2  0
 34 35  1  0
 34 39  1  0
 35 36  1  0
 36 37  1  0
 36 38  1  0
 39 40  2  0
M  END
>  <DRUGBANK_ID>  (1) 
DB14894

>  <COMMON_NAME>  (1) 
Galicaftor

>  <CAS_NUMBER>  (1) 
1918143-53-9

>  <UNII>  (1) 
J0IIT8QSQS

>  <SYNONYMS>  (1) 
Galicaftor

$$$$
