BTS
     RDKit          3D

 17 18  0  0  0  0  0  0  0  0999 V2000
    2.7046   -0.4920    0.0488 C   0  0  0  0  0  0  0  0  0  0  0  0
    1.6810   -1.4603    0.0925 C   0  0  0  0  0  0  0  0  0  0  0  0
    2.4225    0.8763    0.0505 C   0  0  0  0  0  0  0  0  0  0  0  0
   -0.8289   -1.8371    0.1277 N   0  0  0  0  0  0  0  0  0  0  0  0
   -1.8809   -1.0987   -0.1758 C   0  0  0  0  0  0  0  0  0  0  0  0
   -1.3877    0.3614   -0.8738 S   0  0  0  0  0  0  0  0  0  0  0  0
    0.1306    0.3087   -0.1351 C   0  0  0  0  0  0  0  0  0  0  0  0
    0.3426   -1.0497    0.0543 C   0  0  0  0  0  0  0  0  0  0  0  0
    1.1036    1.3147   -0.0025 C   0  0  0  0  0  0  0  0  0  0  0  0
   -3.5489   -1.6878   -0.0543 S   0  0  0  0  0  0  0  0  0  0  0  0
   -4.7770   -0.2969   -0.0467 C   0  0  0  0  0  0  0  0  0  0  0  0
   -4.7486    0.6768    1.1415 C   0  0  0  0  0  0  0  0  0  0  0  0
   -3.4787    1.5010    1.2319 C   0  0  0  0  0  0  0  0  0  0  0  0
   -3.3196    2.7386   -0.1680 S   0  0  0  0  0  0  0  0  0  0  0  0
   -4.4504    3.6464   -0.1578 O   0  0  0  0  0  0  0  0  0  0  0  0
   -1.9703    3.2386   -0.2389 O   0  0  0  0  0  0  0  0  0  0  0  0
   -3.5532    1.8380   -1.4963 O   0  0  0  0  0  0  0  0  0  0  0  0
  1  2  2  0
  1  3  1  0
  2  8  1  0
  3  9  2  0
  4  5  2  0
  4  8  1  0
  5  6  1  0
  5 10  1  0
  6  7  1  0
  7  8  2  0
  7  9  1  0
 10 11  1  0
 11 12  1  0
 12 13  1  0
 13 14  1  0
 14 15  2  0
 14 16  2  0
 14 17  1  0
M  END
>  <DRUGBANK_ID>  (1) 
DB03132

>  <SECONDARY_ACCESSION_NUMBERS>  (1) 
EXPT00770

>  <COMMON_NAME>  (1) 
3-(2-Benzothiazolylthio)-1-Propanesulfonic Acid

>  <UNII>  (1) 
Q071BHM3ZE

$$$$
