CIH
     RDKit          3D

 23 24  0  0  0  0  0  0  0  0999 V2000
   -2.0764    0.1775    0.2816 Cl  0  0  0  0  0  0  0  0  0  0  0  0
   -0.3426    0.0468    0.1386 C   0  0  0  0  0  0  0  0  0  0  0  0
    0.3503    1.2454    0.0334 C   0  0  0  0  0  0  0  0  0  0  0  0
    1.7402    1.2339    0.0044 C   0  0  0  0  0  0  0  0  0  0  0  0
    2.4384    0.0264    0.0289 C   0  0  0  0  0  0  0  0  0  0  0  0
    1.7496   -1.1829    0.0605 C   0  0  0  0  0  0  0  0  0  0  0  0
    0.3506   -1.1930    0.1278 C   0  0  0  0  0  0  0  0  0  0  0  0
   -0.3560   -2.4714    0.0498 C   0  0  0  0  0  0  0  0  0  0  0  0
   -1.2496   -2.6694   -0.9830 C   0  0  0  0  0  0  0  0  0  0  0  0
   -2.0875   -3.7660   -0.9445 C   0  0  0  0  0  0  0  0  0  0  0  0
   -1.3678   -1.5566   -2.3162 Cl  0  0  0  0  0  0  0  0  0  0  0  0
   -0.2386   -3.4896    1.0156 C   0  0  0  0  0  0  0  0  0  0  0  0
   -0.9711   -4.6969    0.9178 C   0  0  0  0  0  0  0  0  0  0  0  0
   -1.8828   -4.8668   -0.1222 C   0  0  0  0  0  0  0  0  0  0  0  0
   -2.5592   -6.0979   -0.3403 N   0  0  0  0  0  0  0  0  0  0  0  0
   -3.3268   -6.5342   -1.4182 C   0  0  0  0  0  0  0  0  0  0  0  0
   -3.9247   -7.6104   -1.3342 O   0  0  0  0  0  0  0  0  0  0  0  0
   -3.5193   -5.6956   -2.6487 C   0  0  0  0  0  0  0  0  0  0  0  0
   -4.8695   -5.3065   -2.9311 C   0  0  0  0  0  0  0  0  0  0  0  0
   -5.9192   -4.9038   -3.1893 N   0  0  0  0  0  0  0  0  0  0  0  0
   -2.4781   -5.1800   -3.3485 C   0  0  0  0  0  0  0  0  0  0  0  0
   -2.6111   -4.0024   -4.2881 C   0  0  0  0  0  0  0  0  0  0  0  0
   -1.1640   -5.5124   -3.0309 O   0  0  0  0  0  0  0  0  0  0  0  0
  1  2  1  0
  2  3  2  0
  2  7  1  0
  3  4  1  0
  4  5  2  0
  5  6  1  0
  6  7  2  0
  7  8  1  0
  8  9  2  0
  8 12  1  0
  9 10  1  0
  9 11  1  0
 10 14  2  0
 12 13  2  0
 13 14  1  0
 14 15  1  0
 15 16  1  0
 16 17  2  0
 16 18  1  0
 18 19  1  0
 18 21  2  0
 19 20  3  0
 21 22  1  0
 21 23  1  0
M  END
>  <DRUGBANK_ID>  (1) 
DB07559

>  <COMMON_NAME>  (1) 
(2Z)-2-cyano-N-(2,2'-dichlorobiphenyl-4-yl)-3-hydroxybut-2-enamide

$$$$
