T2M
     RDKit          3D

 12 11  0  0  0  0  0  0  0  0999 V2000
    1.0769    0.0729   -0.0529 C   0  0  0  0  0  0  0  0  0  0  0  0
    0.6355    0.6005   -1.3609 N   0  0  0  0  0  0  0  0  0  0  0  0
   -0.2094   -0.2637   -2.1912 N   0  0  0  0  0  0  0  0  0  0  0  0
   -0.7298    0.0279   -3.4381 C   0  0  0  0  0  0  0  0  0  0  0  0
   -1.4248   -0.8028   -4.0140 O   0  0  0  0  0  0  0  0  0  0  0  0
   -0.4044    1.2582   -3.9197 O   0  0  0  0  0  0  0  0  0  0  0  0
   -0.8779    1.7024   -5.2139 C   0  0  0  0  0  0  0  0  0  0  0  0
   -0.3356    0.7910   -6.3134 C   0  0  0  0  0  0  0  0  0  0  0  0
   -2.4042    1.7652   -5.2223 C   0  0  0  0  0  0  0  0  0  0  0  0
   -0.3424    3.1260   -5.4699 C   0  0  0  0  0  0  0  0  0  0  0  0
    0.9783    1.8234   -1.8028 C   0  0  0  0  0  0  0  0  0  0  0  0
    1.2851    2.8825   -2.1668 N   0  0  0  0  0  0  0  0  0  0  0  0
  1  2  1  0
  2  3  1  0
  2 11  1  0
  3  4  1  0
  4  5  2  0
  4  6  1  0
  6  7  1  0
  7  8  1  0
  7  9  1  0
  7 10  1  0
 11 12  3  0
M  END
>  <DRUGBANK_ID>  (1) 
DB08594

>  <COMMON_NAME>  (1) 
TERT-BUTYL 2-CYANO-2-METHYLHYDRAZINECARBOXYLATE

$$$$
