
     RDKit          3D

 20 19  0  0  1  0  0  0  0  0999 V2000
    2.8089    0.1518   -5.8575 C   0  0  0  0  0  0  0  0  0  0  0  0
    3.2784    1.5830   -5.9770 C   0  0  0  0  0  0  0  0  0  0  0  0
    3.5650    2.2592   -4.6821 O   0  0  0  0  0  0  0  0  0  0  0  0
    2.7980    2.1266   -3.5474 C   0  0  0  0  0  0  0  0  0  0  0  0
    1.8984    1.3063   -3.4344 O   0  0  0  0  0  0  0  0  0  0  0  0
    3.1078    3.0725   -2.3606 C   0  0  2  0  0  0  0  0  0  0  0  0
    2.5476    2.3474   -1.0842 C   0  0  0  0  0  0  0  0  0  0  0  0
    3.8208    2.0926    0.1843 S   0  0  0  0  0  0  0  0  0  0  0  0
    2.4822    4.4273   -2.3747 N   0  0  0  0  0  0  0  0  0  0  0  0
    2.8879    5.3451   -3.4339 C   0  0  0  0  0  0  0  0  0  0  0  0
    2.2335    4.9970   -4.7798 C   0  0  0  0  0  0  0  0  0  0  0  0
    0.7622    4.8409   -4.6934 N   0  0  0  0  0  0  0  0  0  0  0  0
    0.1869    4.1870   -5.9102 C   0  0  1  0  0  0  0  0  0  0  0  0
    0.3948    2.6765   -5.9560 C   0  0  0  0  0  0  0  0  0  0  0  0
   -0.4444    1.4786   -4.8589 S   0  0  0  0  0  0  0  0  0  0  0  0
   -1.2984    4.2903   -6.0158 C   0  0  0  0  0  0  0  0  0  0  0  0
   -1.8866    4.6091   -7.0558 O   0  0  0  0  0  0  0  0  0  0  0  0
   -1.8686    3.7859   -4.8900 O   0  0  0  0  0  0  0  0  0  0  0  0
   -3.2588    3.4814   -4.9515 C   0  0  0  0  0  0  0  0  0  0  0  0
   -3.8945    4.8295   -4.7975 C   0  0  0  0  0  0  0  0  0  0  0  0
  1  2  1  0
  2  3  1  0
  3  4  1  0
  4  5  2  0
  6  9  1  0
  6  7  1  1
  6  4  1  0
  7  8  1  0
  9 10  1  0
 10 11  1  0
 11 12  1  0
 13 12  1  0
 13 14  1  1
 13 16  1  0
 14 15  1  0
 16 17  2  0
 16 18  1  0
 18 19  1  0
 19 20  1  0
M  END
>  <DRUGBANK_ID>  (1) 
DB11164

>  <COMMON_NAME>  (1) 
Bicisate

>  <CAS_NUMBER>  (1) 
121251-02-3

>  <UNII>  (1) 
3JXF0Z0XOI

$$$$
