
     RDKit          3D

 19 21  0  0  0  0  0  0  0  0999 V2000
   -2.5962   -7.9222    1.3733 C   0  0  0  0  0  0  0  0  0  0  0  0
    3.9517   -4.4202    4.7400 C   0  0  0  0  0  0  0  0  0  0  0  0
    2.9648   -3.2992    4.6177 C   0  0  0  0  0  0  0  0  0  0  0  0
    4.5647   -4.4713    3.3638 C   0  0  0  0  0  0  0  0  0  0  0  0
   -2.2990   -6.6521    0.5991 C   0  0  2  0  0  0  0  0  0  0  0  0
    2.4984   -3.3839    3.1715 C   0  0  2  0  0  0  0  0  0  0  0  0
   -1.3493   -5.6767    1.2792 C   0  0  1  0  0  0  0  0  0  0  0  0
    0.0381   -3.9900    3.5268 C   0  0  0  0  0  0  0  0  0  0  0  0
    1.2654   -4.2286    3.0129 C   0  0  0  0  0  0  0  0  0  0  0  0
   -1.9132   -4.6859    2.3131 C   0  0  0  0  0  0  0  0  0  0  0  0
   -0.3753   -6.0716    2.4129 C   0  0  2  0  0  0  0  0  0  0  0  0
   -0.3193   -2.8111    4.3995 C   0  0  0  0  0  0  0  0  0  0  0  0
   -0.9284   -4.9533    3.2250 N   0  0  0  0  0  0  0  0  0  0  0  0
   -3.5161   -5.9961    0.2458 O   0  0  0  0  0  0  0  0  0  0  0  0
   -2.8166   -3.8711    2.3073 O   0  0  0  0  0  0  0  0  0  0  0  0
   -1.3462   -2.6655    5.0378 O   0  0  0  0  0  0  0  0  0  0  0  0
    0.6663   -1.8929    4.4981 O   0  0  0  0  0  0  0  0  0  0  0  0
    3.6092   -3.9404    2.4406 O   0  0  0  0  0  0  0  0  0  0  0  0
    1.3441   -5.6840    2.0418 S   0  0  0  0  0  0  0  0  0  0  0  0
  3  2  1  0
  4  2  1  0
  5 14  1  0
  5  1  1  1
  6  3  1  0
  6  9  1  1
  7  5  1  0
  9  8  2  0
  7 10  1  1
 11  7  1  0
 12  8  1  0
 13  8  1  0
 13 10  1  0
 13 11  1  0
 15 10  2  0
 16 12  2  0
 17 12  1  0
 18  4  1  0
 18  6  1  0
 19  9  1  0
 11 19  1  6
M  END
>  <DRUGBANK_ID>  (1) 
DB12190

>  <COMMON_NAME>  (1) 
Faropenem

>  <CAS_NUMBER>  (1) 
106560-14-9

>  <UNII>  (1) 
F52Y83BGH3

>  <SYNONYMS>  (1) 
Faropenem

$$$$
