
     RDKit          3D

 11 10  0  0  1  0  0  0  0  0999 V2000
    3.0952    2.3960   -0.4245 O   0  0  0  0  0  0  0  0  0  0  0  0
    2.6117    1.7724   -1.6300 C   0  0  0  0  0  0  0  0  0  0  0  0
    1.0701    1.7155   -1.6824 C   0  0  2  0  0  0  0  0  0  0  0  0
    0.5990    0.3391   -1.2309 C   0  0  0  0  0  0  0  0  0  0  0  0
    0.5533    2.0278   -2.9801 O   0  0  0  0  0  0  0  0  0  0  0  0
   -0.0169   -0.3783   -2.1986 O   0  0  0  0  0  0  0  0  0  0  0  0
    0.7609   -0.0873   -0.0935 O   0  0  0  0  0  0  0  0  0  0  0  0
    2.5185    4.0221   -0.2963 P   0  0  0  0  0  0  0  0  0  0  0  0
    3.3191    4.2267    1.1033 O   0  0  0  0  0  0  0  0  0  0  0  0
    3.4486    4.4633   -1.4224 O   0  0  0  0  0  0  0  0  0  0  0  0
    1.9419    5.6481   -0.1682 O   0  0  0  0  0  0  0  0  0  0  0  0
  1  2  1  0
  1  8  1  0
  3  5  1  6
  3  4  1  0
  3  2  1  0
  4  6  1  0
  4  7  2  0
  8  9  1  0
  8 10  2  0
  8 11  1  0
M  END
>  <DRUGBANK_ID>  (1) 
DB04510

>  <SECONDARY_ACCESSION_NUMBERS>  (1) 
EXPT00187

>  <COMMON_NAME>  (1) 
3-phospho-D-glyceric acid

>  <CAS_NUMBER>  (1) 
820-11-1

>  <SYNONYMS>  (1) 
3-Phospho-(R)-glycerate; 3-phospho-D-glycerate; 3-Phosphoglycerate; D-glycerate 3-phosphate

$$$$
