
     RDKit          3D

 16 16  0  0  1  0  0  0  0  0999 V2000
    0.8264    1.4176   -0.6094 C   0  0  0  0  0  0  0  0  0  0  0  0
    1.6361    0.2334   -0.0744 C   0  0  0  0  0  0  0  0  0  0  0  0
    0.9810   -1.0142   -0.2565 O   0  0  0  0  0  0  0  0  0  0  0  0
   -0.5262   -1.0975    0.3047 P   0  0  2  0  0  0  0  0  0  0  0  0
   -1.1865   -2.4312    0.0631 O   0  0  0  0  0  0  0  0  0  0  0  0
   -1.2338    0.1076   -0.4744 N   0  0  0  0  0  0  0  0  0  0  0  0
   -0.6494    1.4027   -0.2118 C   0  0  2  0  0  0  0  0  0  0  0  0
   -1.4102    2.4708   -0.7986 O   0  0  0  0  0  0  0  0  0  0  0  0
   -2.6098    1.8839   -1.4185 O   0  0  0  0  0  0  0  0  0  0  0  0
   -0.4804   -0.5099    1.8242 N   0  0  0  0  0  0  0  0  0  0  0  0
   -1.5781    0.2421    2.4821 C   0  0  0  0  0  0  0  0  0  0  0  0
   -2.6915   -0.5467    3.1590 C   0  0  0  0  0  0  0  0  0  0  0  0
   -2.4246   -0.7727    4.9091 Cl  0  0  0  0  0  0  0  0  0  0  0  0
    0.5742   -0.9968    2.7038 C   0  0  0  0  0  0  0  0  0  0  0  0
    0.1060   -2.2322    3.4330 C   0  0  0  0  0  0  0  0  0  0  0  0
   -0.0377   -3.7261    2.5042 Cl  0  0  0  0  0  0  0  0  0  0  0  0
  1  2  1  0
  1  7  1  0
  2  3  1  0
  3  4  1  0
  4  5  2  0
  4  6  1  0
  4 10  1  0
  6  7  1  0
  7  8  1  6
  8  9  1  0
 10 11  1  0
 10 14  1  0
 11 12  1  0
 12 13  1  0
 14 15  1  0
 15 16  1  0
M  END
>  <DRUGBANK_ID>  (1) 
DB12727

>  <COMMON_NAME>  (1) 
Perfosfamide

>  <CAS_NUMBER>  (1) 
62435-42-1

>  <UNII>  (1) 
U880A4FUDA

>  <SYNONYMS>  (1) 
Perfosfamide

$$$$
