D26
     RDKit          3D

 16 18  0  0  0  0  0  0  0  0999 V2000
    1.0037    0.7829   -0.0633 C   0  0  0  0  0  0  0  0  0  0  0  0
   -0.3689    1.1184    0.0252 C   0  0  0  0  0  0  0  0  0  0  0  0
   -0.9132    2.5042    0.0093 C   0  0  0  0  0  0  0  0  0  0  0  0
    1.0409   -0.5865   -0.0206 C   0  0  0  0  0  0  0  0  0  0  0  0
   -1.1774    4.6996   -0.7563 N   0  0  0  0  0  0  0  0  0  0  0  0
   -1.8916    4.6938    0.3523 C   0  0  0  0  0  0  0  0  0  0  0  0
   -2.6382    5.8384    0.8859 C   0  0  0  0  0  0  0  0  0  0  0  0
   -3.6449    6.4392    0.1173 C   0  0  0  0  0  0  0  0  0  0  0  0
   -4.4269    7.4691    0.6496 C   0  0  0  0  0  0  0  0  0  0  0  0
   -4.2068    7.9110    1.9533 C   0  0  0  0  0  0  0  0  0  0  0  0
   -3.1877    7.3441    2.7161 C   0  0  0  0  0  0  0  0  0  0  0  0
   -2.3883    6.3330    2.1752 C   0  0  0  0  0  0  0  0  0  0  0  0
   -1.1326    0.0267    0.1406 N   0  0  0  0  0  0  0  0  0  0  0  0
   -1.9914    3.1629    1.1535 S   0  0  0  0  0  0  0  0  0  0  0  0
   -0.5984    3.4543   -0.9373 C   0  0  0  0  0  0  0  0  0  0  0  0
   -0.2603   -0.9948    0.0413 N   0  0  0  0  0  0  0  0  0  0  0  0
  1  2  1  0
  1  4  2  0
  2  3  1  0
  2 13  2  0
  3 14  1  0
  3 15  2  0
  4 16  1  0
  5  6  2  0
  5 15  1  0
  6  7  1  0
  6 14  1  0
  7  8  2  0
  7 12  1  0
  8  9  1  0
  9 10  2  0
 10 11  1  0
 11 12  2  0
 13 16  1  0
M  END
>  <DRUGBANK_ID>  (1) 
DB07614

>  <COMMON_NAME>  (1) 
PHENYL-5-(1H-PYRAZOL-3-YL)-1,3-THIAZOLE

>  <UNII>  (1) 
MBC2CX42TJ

$$$$
