
     RDKit          3D

 14 14  0  0  0  0  0  0  0  0999 V2000
   -4.4693    2.4277   -0.6130 N   0  0  0  0  0  0  0  0  0  0  0  0
   -3.4455    3.1306    0.0015 C   0  0  0  0  0  0  0  0  0  0  0  0
   -2.4510    2.4661    0.9782 C   0  0  2  0  0  0  0  0  0  0  0  0
   -2.1294    1.0138    0.6673 C   0  0  0  0  0  0  0  0  0  0  0  0
   -0.6018    0.3689    1.3920 S   0  0  0  0  0  0  0  0  0  0  0  0
   -2.8989    2.6495    2.4302 C   0  0  0  0  0  0  0  0  0  0  0  0
   -3.3369    4.3519   -0.1459 O   0  0  0  0  0  0  0  0  0  0  0  0
   -5.4068    3.0714   -1.5524 C   0  0  2  0  0  0  0  0  0  0  0  0
   -6.0690    4.4282   -1.2727 C   0  0  0  0  0  0  0  0  0  0  0  0
   -5.7705    5.3101   -0.4829 O   0  0  0  0  0  0  0  0  0  0  0  0
   -7.1703    4.5981   -2.0477 O   0  0  0  0  0  0  0  0  0  0  0  0
   -6.5676    2.0532   -1.5200 C   0  0  0  0  0  0  0  0  0  0  0  0
   -5.9037    0.7035   -1.4778 C   0  0  0  0  0  0  0  0  0  0  0  0
   -4.6178    0.9769   -0.7295 C   0  0  0  0  0  0  0  0  0  0  0  0
  2  1  1  0
  3  6  1  1
  3  4  1  0
  3  2  1  0
  5  4  1  0
  7  2  2  0
  8  1  1  0
  8  9  1  1
 10  9  2  0
 11  9  1  0
 12  8  1  0
 12 13  1  0
 13 14  1  0
 14  1  1  0
M  END
>  <DRUGBANK_ID>  (1) 
DB02032

>  <SECONDARY_ACCESSION_NUMBERS>  (1) 
EXPT02137

>  <COMMON_NAME>  (1) 
Epicaptopril

>  <CAS_NUMBER>  (1) 
63250-36-2

>  <UNII>  (1) 
PPW0ENH1HA

>  <SYNONYMS>  (1) 
(2S)-1-((2R)-2-Methyl-3-sulfanylpropanoyl)pyrrolidine-2-carboxylic acid; 2-D-Methyl-3-mercaptopropanoyl-L-proline

$$$$
