PTC
     RDKit          3D

 21 22  0  0  0  0  0  0  0  0999 V2000
    2.6893    0.2307    1.4427 C   0  0  0  0  0  0  0  0  0  0  0  0
    1.6853   -0.0124    2.1173 O   0  0  0  0  0  0  0  0  0  0  0  0
    3.8252    0.5457    2.1671 N   0  0  0  0  0  0  0  0  0  0  0  0
    5.2043    0.7094    1.7647 C   0  0  0  0  0  0  0  0  0  0  0  0
    3.3524    0.7895   -1.1123 C   0  0  2  0  0  0  0  0  0  0  0  0
    2.6166    1.5116   -2.1914 C   0  0  0  0  0  0  0  0  0  0  0  0
    2.5783    1.1588   -3.3423 O   0  0  0  0  0  0  0  0  0  0  0  0
    3.3780   -0.7532   -1.0983 C   0  0  1  0  0  0  0  0  0  0  0  0
    4.6003   -1.6288   -0.7130 C   0  0  0  0  0  0  0  0  0  0  0  0
    4.8357   -1.8222    0.6310 C   0  0  0  0  0  0  0  0  0  0  0  0
    5.4469   -2.4356   -1.4931 C   0  0  0  0  0  0  0  0  0  0  0  0
    5.9803   -2.3342    1.2156 C   0  0  0  0  0  0  0  0  0  0  0  0
    6.5192   -3.2052   -0.8871 C   0  0  0  0  0  0  0  0  0  0  0  0
    6.8612   -3.0348    0.4632 C   0  0  0  0  0  0  0  0  0  0  0  0
    7.8995   -3.6191    1.1391 O   0  0  0  0  0  0  0  0  0  0  0  0
    2.5544    0.0708   -0.0602 C   0  0  1  0  0  0  0  0  0  0  0  0
    8.9207   -2.8271    2.1352 P   0  0  0  0  0  0  0  0  0  0  0  0
   10.3536   -3.1978    1.9619 O   0  0  0  0  0  0  0  0  0  0  0  0
    8.6202   -1.2585    1.9950 O   0  0  0  0  0  0  0  0  0  0  0  0
    8.4374   -3.0760    3.6494 O   0  0  0  0  0  0  0  0  0  0  0  0
    2.0404    2.6625   -1.7655 O   0  0  0  0  0  0  0  0  0  0  0  0
  1  2  2  0
  1  3  1  0
  3  4  1  0
  5  8  1  0
  5 16  1  0
  5  6  1  6
  6  7  2  0
  6 21  1  0
  8 16  1  0
  8  9  1  1
  9 10  2  0
  9 11  1  0
 10 12  1  0
 11 13  2  0
 12 14  2  0
 13 14  1  0
 14 15  1  0
 15 17  1  0
 16  1  1  1
 17 18  2  0
 17 19  1  0
 17 20  1  0
M  END
>  <DRUGBANK_ID>  (1) 
DB08434

>  <COMMON_NAME>  (1) 
2-METHYLCARBAMOYL-3-(4-PHOSPHONOOXY-PHENYL)-CYCLOPROPANECARBOXYLIC ACID

$$$$
