
     RDKit          3D

 25 28  0  0  0  0  0  0  0  0999 V2000
    0.8403   -0.0488   -0.0136 O   0  0  0  0  0  0  0  0  0  0  0  0
    0.2974    0.4266   -1.1491 C   0  0  0  0  0  0  0  0  0  0  0  0
    0.9824    0.8052   -2.0875 O   0  0  0  0  0  0  0  0  0  0  0  0
   -1.1804    0.4027   -1.1134 C   0  0  0  0  0  0  0  0  0  0  0  0
   -1.9302    0.0310   -2.2517 C   0  0  0  0  0  0  0  0  0  0  0  0
   -3.3399    0.0283   -2.2720 C   0  0  0  0  0  0  0  0  0  0  0  0
   -3.9871    0.4464   -1.0863 C   0  0  0  0  0  0  0  0  0  0  0  0
   -3.2198    0.8320    0.0439 C   0  0  0  0  0  0  0  0  0  0  0  0
   -1.8329    0.8077    0.0403 C   0  0  0  0  0  0  0  0  0  0  0  0
   -5.4064    0.4532   -1.0602 C   0  0  0  0  0  0  0  0  0  0  0  0
   -6.1170   -0.0050   -2.1752 C   0  0  0  0  0  0  0  0  0  0  0  0
   -7.5048   -0.1314   -1.9917 C   0  0  0  0  0  0  0  0  0  0  0  0
   -8.1817    0.4102   -0.9279 C   0  0  0  0  0  0  0  0  0  0  0  0
   -7.5430    0.9151    0.1165 N   0  0  0  0  0  0  0  0  0  0  0  0
   -6.1912    0.8696    0.0457 C   0  0  0  0  0  0  0  0  0  0  0  0
   -5.4158   -0.3531   -3.3645 C   0  0  0  0  0  0  0  0  0  0  0  0
   -6.1025   -0.6857   -4.5827 N   0  0  0  0  0  0  0  0  0  0  0  0
   -7.4940   -0.6831   -4.8900 C   0  0  0  0  0  0  0  0  0  0  0  0
   -8.2588    0.4899   -4.7046 C   0  0  0  0  0  0  0  0  0  0  0  0
   -9.6385    0.4065   -4.4534 C   0  0  0  0  0  0  0  0  0  0  0  0
  -10.4606    1.7544   -3.7555 Cl  0  0  0  0  0  0  0  0  0  0  0  0
  -10.3078   -0.8086   -4.5652 C   0  0  0  0  0  0  0  0  0  0  0  0
   -9.5945   -1.9426   -4.9561 C   0  0  0  0  0  0  0  0  0  0  0  0
   -8.1905   -1.8945   -5.0691 C   0  0  0  0  0  0  0  0  0  0  0  0
   -4.0483   -0.3493   -3.3829 N   0  0  0  0  0  0  0  0  0  0  0  0
  1  2  1  0
  2  3  2  0
  2  4  1  0
  4  5  2  0
  4  9  1  0
  5  6  1  0
  6  7  2  0
  6 25  1  0
  7  8  1  0
  7 10  1  0
  8  9  2  0
 10 11  2  0
 10 15  1  0
 11 12  1  0
 11 16  1  0
 12 13  2  0
 13 14  1  0
 14 15  2  0
 16 17  1  0
 16 25  2  0
 17 18  1  0
 18 19  2  0
 18 24  1  0
 19 20  1  0
 20 21  1  0
 20 22  2  0
 22 23  1  0
 23 24  2  0
M  END
>  <DRUGBANK_ID>  (1) 
DB15408

>  <COMMON_NAME>  (1) 
Silmitasertib

>  <CAS_NUMBER>  (1) 
1009820-21-6

>  <UNII>  (1) 
C6RWP0N0L2

>  <SYNONYMS>  (1) 
Silmitasertib

$$$$
