
     RDKit          3D

 32 36  0  0  0  0  0  0  0  0999 V2000
    0.9845   -0.0240    0.1254 O   0  0  0  0  0  0  0  0  0  0  0  0
    2.1956    0.1050    0.0098 C   0  0  0  0  0  0  0  0  0  0  0  0
    2.9690    0.9956    0.7509 N   0  0  0  0  0  0  0  0  0  0  0  0
    2.4135    1.4436    2.0421 C   0  0  0  0  0  0  0  0  0  0  0  0
    2.3432    2.9385    2.2148 C   0  0  0  0  0  0  0  0  0  0  0  0
    3.6192    3.5460    1.8077 N   0  0  0  0  0  0  0  0  0  0  0  0
    4.7584    3.1747    2.6753 C   0  0  0  0  0  0  0  0  0  0  0  0
    5.4632    1.8456    2.9688 C   0  0  0  0  0  0  0  0  0  0  0  0
    5.8477    0.6057    2.1783 C   0  0  0  0  0  0  0  0  0  0  0  0
    4.9999    0.4279    3.3992 C   0  0  0  0  0  0  0  0  0  0  0  0
    3.8555    3.3016    0.3755 C   0  0  0  0  0  0  0  0  0  0  0  0
    4.0313    1.8188    0.1042 C   0  0  0  0  0  0  0  0  0  0  0  0
    2.9114   -0.8803   -0.8084 C   0  0  0  0  0  0  0  0  0  0  0  0
    2.6091   -1.2274   -2.1328 C   0  0  0  0  0  0  0  0  0  0  0  0
    3.3688   -2.1900   -2.8500 C   0  0  0  0  0  0  0  0  0  0  0  0
    4.4017   -2.8517   -2.2231 C   0  0  0  0  0  0  0  0  0  0  0  0
    5.3888   -3.5650   -3.0100 N   0  0  0  0  0  0  0  0  0  0  0  0
    6.5523   -4.6063   -2.3441 S   0  0  0  0  0  0  0  0  0  0  0  0
    5.9342   -5.8931   -2.4120 O   0  0  0  0  0  0  0  0  0  0  0  0
    7.8214   -4.4078   -3.0582 O   0  0  0  0  0  0  0  0  0  0  0  0
    6.8537   -4.0292   -0.7088 C   0  0  0  0  0  0  0  0  0  0  0  0
    7.3943   -2.7319   -0.4106 C   0  0  0  0  0  0  0  0  0  0  0  0
    7.2876   -2.2045    0.8913 C   0  0  0  0  0  0  0  0  0  0  0  0
    6.9159   -3.0585    1.9155 C   0  0  0  0  0  0  0  0  0  0  0  0
    6.6798   -4.4116    1.5266 C   0  0  0  0  0  0  0  0  0  0  0  0
    6.3030   -4.8245    0.2695 C   0  0  0  0  0  0  0  0  0  0  0  0
    5.8838   -6.1020    0.0421 N   0  0  0  0  0  0  0  0  0  0  0  0
    6.7556   -7.0310    0.3997 C   0  0  0  0  0  0  0  0  0  0  0  0
    7.7226   -6.5092    1.2083 C   0  0  0  0  0  0  0  0  0  0  0  0
    7.2159   -5.5178    2.1338 C   0  0  0  0  0  0  0  0  0  0  0  0
    4.5334   -2.5293   -0.8884 C   0  0  0  0  0  0  0  0  0  0  0  0
    3.8489   -1.6026   -0.1503 C   0  0  0  0  0  0  0  0  0  0  0  0
  1  2  2  0
  2  3  1  0
  2 13  1  0
  3  4  1  0
  3 12  1  0
  4  5  1  0
  5  6  1  0
  6  7  1  0
  6 11  1  0
  7  8  1  0
  8  9  1  0
  8 10  1  0
  9 10  1  0
 11 12  1  0
 13 14  2  0
 13 32  1  0
 14 15  1  0
 15 16  2  0
 16 17  1  0
 16 31  1  0
 17 18  1  0
 18 19  2  0
 18 20  2  0
 18 21  1  0
 21 22  2  0
 21 26  1  0
 22 23  1  0
 23 24  2  0
 24 25  1  0
 25 26  2  0
 25 30  1  0
 26 27  1  0
 27 28  2  0
 28 29  1  0
 29 30  2  0
 31 32  2  0
M  END
>  <DRUGBANK_ID>  (1) 
DB16236

>  <COMMON_NAME>  (1) 
Mitapivat

>  <CAS_NUMBER>  (1) 
1260075-17-9

>  <UNII>  (1) 
2WTV10SIKH

>  <SYNONYMS>  (1) 
Mitapivat; Pkr-in-1

$$$$
