
     RDKit          3D

 10  9  0  0  1  0  0  0  0  0999 V2000
    1.1090   -2.5101    0.3088 C   0  0  2  0  0  0  0  0  0  0  0  0
    0.6134   -1.3052   -0.5369 C   0  0  2  0  0  0  0  0  0  0  0  0
    1.2247   -2.1337    1.7995 C   0  0  0  0  0  0  0  0  0  0  0  0
    2.4144   -3.0855   -0.2588 C   0  0  0  0  0  0  0  0  0  0  0  0
    0.1570   -3.5901    0.2199 O   0  0  0  0  0  0  0  0  0  0  0  0
    1.1062    0.0736   -0.0408 C   0  0  0  0  0  0  0  0  0  0  0  0
   -0.8313   -1.3474   -0.5446 O   0  0  0  0  0  0  0  0  0  0  0  0
    1.6335   -3.2942    2.6847 C   0  0  0  0  0  0  0  0  0  0  0  0
    2.4290    0.2071    0.1875 O   0  0  0  0  0  0  0  0  0  0  0  0
    0.3459    1.0166    0.1717 O   0  0  0  0  0  0  0  0  0  0  0  0
  1  3  1  0
  1  4  1  6
  1  5  1  0
  2  7  1  1
  2  6  1  0
  2  1  1  0
  3  8  1  0
  6  9  1  0
  6 10  2  0
M  END
>  <DRUGBANK_ID>  (1) 
DB03675

>  <SECONDARY_ACCESSION_NUMBERS>  (1) 
EXPT01232

>  <COMMON_NAME>  (1) 
2,3-Dihydroxy-Valerianic Acid

$$$$
