
     RDKit          3D

 24 24  0  0  1  0  0  0  0  0999 V2000
    0.9263   -2.5608    0.8064 C   0  0  0  0  0  0  0  0  0  0  0  0
    0.4716   -1.4384   -0.1269 C   0  0  2  0  0  0  0  0  0  0  0  0
    1.1599   -0.0948    0.1183 C   0  0  0  0  0  0  0  0  0  0  0  0
    1.9844   -0.1670    1.3226 N   0  0  0  0  0  0  0  0  0  0  0  0
    2.8649    0.9607    1.5061 C   0  0  0  0  0  0  0  0  0  0  0  0
    2.0548    2.1902    1.7991 C   0  0  0  0  0  0  0  0  0  0  0  0
    1.6686    3.0534    0.7595 C   0  0  0  0  0  0  0  0  0  0  0  0
    2.0158    2.8517   -0.5486 O   0  0  0  0  0  0  0  0  0  0  0  0
    0.8486    4.1390    1.0434 C   0  0  0  0  0  0  0  0  0  0  0  0
    0.4228    5.0941   -0.0326 C   0  0  0  0  0  0  0  0  0  0  0  0
    0.3960    4.3937    2.2943 N   0  0  0  0  0  0  0  0  0  0  0  0
    0.7308    3.5312    3.2790 C   0  0  0  0  0  0  0  0  0  0  0  0
    1.5455    2.4167    3.0985 C   0  0  0  0  0  0  0  0  0  0  0  0
    1.9227    1.5889    4.3068 C   0  0  0  0  0  0  0  0  0  0  0  0
    2.7588    2.3346    5.1898 O   0  0  0  0  0  0  0  0  0  0  0  0
    4.1720    2.9266    4.3866 P   0  0  0  0  0  0  0  0  0  0  0  0
    3.3921    4.3646    4.3398 O   0  0  0  0  0  0  0  0  0  0  0  0
    4.7811    3.0982    5.8944 O   0  0  0  0  0  0  0  0  0  0  0  0
    5.4369    3.4565    3.6677 O   0  0  0  0  0  0  0  0  0  0  0  0
   -0.9290   -1.2525   -0.1152 O   0  0  0  0  0  0  0  0  0  0  0  0
   -1.7414   -0.9552    1.2339 P   0  0  0  0  0  0  0  0  0  0  0  0
   -2.8436    0.0368    0.6435 O   0  0  0  0  0  0  0  0  0  0  0  0
   -2.4951   -2.3568    1.3587 O   0  0  0  0  0  0  0  0  0  0  0  0
   -0.9818   -0.4666    2.4057 O   0  0  0  0  0  0  0  0  0  0  0  0
  2 20  1  0
  2  3  1  0
  2  1  1  1
  3  4  1  0
  4  5  1  0
  5  6  1  0
  6  7  2  0
  6 13  1  0
  7  8  1  0
  7  9  1  0
  9 10  1  0
  9 11  2  0
 11 12  1  0
 12 13  2  0
 13 14  1  0
 14 15  1  0
 15 16  1  0
 16 17  1  0
 16 18  1  0
 16 19  2  0
 20 21  1  0
 21 22  1  0
 21 23  1  0
 21 24  2  0
M  END
>  <DRUGBANK_ID>  (1) 
DB03433

>  <SECONDARY_ACCESSION_NUMBERS>  (1) 
EXPT00153

>  <COMMON_NAME>  (1) 
{3-[(3-Hydroxy-2-Methyl-5-Phosphonooxymethyl-Pyridin-4-Ylmethyl)-Amino]-2-Methyl-Propyl}-Phosphonic Acid

$$$$
