
     RDKit          3D

 17 18  0  0  1  0  0  0  0  0999 V2000
    1.4696   -0.2391    0.0385 C   0  0  0  0  0  0  0  0  0  0  0  0
    0.6865   -1.3852    0.0732 C   0  0  0  0  0  0  0  0  0  0  0  0
    0.8990    1.0302    0.0360 C   0  0  0  0  0  0  0  0  0  0  0  0
   -0.6953   -1.2605    0.1030 C   0  0  0  0  0  0  0  0  0  0  0  0
   -0.4965    1.1505    0.0823 C   0  0  0  0  0  0  0  0  0  0  0  0
   -4.8743   -0.9241    0.0828 C   0  0  0  0  0  0  0  0  0  0  0  0
   -4.3443    0.2387   -1.9548 C   0  0  0  0  0  0  0  0  0  0  0  0
   -3.6194   -0.3645    0.7954 C   0  0  0  0  0  0  0  0  0  0  0  0
   -3.0139    0.7632   -1.3269 C   0  0  0  0  0  0  0  0  0  0  0  0
   -6.2326    1.0736   -0.5154 C   0  0  0  0  0  0  0  0  0  0  0  0
   -4.7262    3.1190   -0.8027 C   0  0  0  0  0  0  0  0  0  0  0  0
   -1.2769   -0.0123    0.0725 C   0  0  0  0  0  0  0  0  0  0  0  0
   -5.5653    2.2932    0.1720 C   0  0  1  0  0  0  0  0  0  0  0  0
   -5.4296   -0.0717   -0.9970 N   0  0  0  0  0  0  0  0  0  0  0  0
   -2.6259   -0.0701   -0.2324 N   0  0  0  0  0  0  0  0  0  0  0  0
   -5.5167    3.8665   -1.7068 O   0  0  0  0  0  0  0  0  0  0  0  0
   -6.5558    3.1678    0.7214 O   0  0  0  0  0  0  0  0  0  0  0  0
  2  1  2  0
  3  1  1  0
  4  2  1  0
  5  3  2  0
  8  6  1  0
  9  7  1  0
 12  4  2  0
 12  5  1  0
 13 10  1  0
 13 11  1  0
 13 17  1  6
 14  6  1  0
 14  7  1  0
 14 10  1  0
 15  8  1  0
 15  9  1  0
 15 12  1  0
 16 11  1  0
M  END
>  <DRUGBANK_ID>  (1) 
DB12472

>  <COMMON_NAME>  (1) 
Levodropropizine

>  <CAS_NUMBER>  (1) 
99291-25-5

>  <UNII>  (1) 
3O31P6T4G3

>  <SYNONYMS>  (1) 
levodropropizina; Levodropropizine

$$$$
