
     RDKit          3D

 23 26  0  0  1  0  0  0  0  0999 V2000
   -0.6162    6.1181   -1.3308 C   0  0  0  0  0  0  0  0  0  0  0  0
    0.3405    5.9345   -0.1471 N   0  0  0  0  0  0  0  0  0  0  0  0
    0.4323    4.5681    0.5624 C   0  0  1  0  0  0  0  0  0  0  0  0
    1.0596    3.4059   -0.2315 C   0  0  0  0  0  0  0  0  0  0  0  0
    2.4561    3.7787   -0.8010 C   0  0  2  0  0  0  0  0  0  0  0  0
    2.6297    5.2907   -1.1994 C   0  0  0  0  0  0  0  0  0  0  0  0
    1.8826    6.2633   -0.2641 C   0  0  2  0  0  0  0  0  0  0  0  0
    2.3616    6.0375    1.1501 C   0  0  1  0  0  0  0  0  0  0  0  0
    1.3946    4.9063    1.7191 C   0  0  2  0  0  0  0  0  0  0  0  0
    2.7879    4.7556    1.5575 O   0  0  0  0  0  0  0  0  0  0  0  0
    3.0398    2.7930   -1.6882 O   0  0  0  0  0  0  0  0  0  0  0  0
    3.1261    2.4908   -2.9976 C   0  0  0  0  0  0  0  0  0  0  0  0
    4.0130    1.7496   -3.3551 O   0  0  0  0  0  0  0  0  0  0  0  0
    2.0343    2.9331   -3.9828 C   0  0  2  0  0  0  0  0  0  0  0  0
    1.6432    4.3962   -4.0393 C   0  0  0  0  0  0  0  0  0  0  0  0
    0.8052    4.7048   -2.9543 O   0  0  0  0  0  0  0  0  0  0  0  0
    0.8040    2.0332   -3.8921 C   0  0  0  0  0  0  0  0  0  0  0  0
    0.7796    0.8752   -4.6488 C   0  0  0  0  0  0  0  0  0  0  0  0
   -0.3077    0.0090   -4.5345 C   0  0  0  0  0  0  0  0  0  0  0  0
   -1.3188    0.2220   -3.5919 C   0  0  0  0  0  0  0  0  0  0  0  0
   -1.2943    1.3414   -2.8050 C   0  0  0  0  0  0  0  0  0  0  0  0
   -0.3225    2.2767   -3.0729 C   0  0  0  0  0  0  0  0  0  0  0  0
   -0.2781    6.9249    0.9177 C   0  0  0  0  0  0  0  0  0  0  0  0
  1  2  1  0
  2  3  1  0
  2  7  1  0
  2 23  1  0
  3  4  1  6
  3  9  1  0
  4  5  1  0
  5  6  1  0
  5 11  1  6
  7  6  1  6
  7  8  1  0
  8  9  1  0
  8 10  1  6
  9 10  1  6
 11 12  1  0
 12 13  2  0
 14 17  1  0
 14 15  1  1
 14 12  1  0
 15 16  1  0
 17 18  2  0
 17 22  1  0
 18 19  1  0
 19 20  2  0
 20 21  1  0
 21 22  2  0
M  CHG  1   2   1
M  END
>  <DRUGBANK_ID>  (1) 
DB11315

>  <COMMON_NAME>  (1) 
Methscopolamine

>  <CAS_NUMBER>  (1) 
13265-10-6

>  <UNII>  (1) 
VDR09VTQ8U

>  <SYNONYMS>  (1) 
Methylscopolamine

$$$$
