
     RDKit          3D

 16 15  0  0  0  0  0  0  0  0999 V2000
    0.8230   -0.1517    0.0099 C   0  0  1  0  0  0  0  0  0  0  0  0
    0.3561    1.1981    0.6210 C   0  0  0  0  0  0  0  0  0  0  0  0
    0.2996   -1.4694    0.7186 C   0  0  0  0  0  0  0  0  0  0  0  0
    0.4398    0.0093   -1.4046 N   0  0  0  0  0  0  0  0  0  0  0  0
   -0.0703    1.1368    2.0745 C   0  0  0  0  0  0  0  0  0  0  0  0
    0.1976   -2.6398    0.0698 O   0  0  0  0  0  0  0  0  0  0  0  0
    0.0525   -1.5352    1.9217 O   0  0  0  0  0  0  0  0  0  0  0  0
    1.0759    0.6914    2.9778 C   0  0  0  0  0  0  0  0  0  0  0  0
    0.4419   -2.8439   -1.3069 C   0  0  0  0  0  0  0  0  0  0  0  0
    2.0223    1.7837    3.1486 N   0  0  0  0  0  0  0  0  0  0  0  0
    2.3587    2.2044    4.3998 C   0  0  0  0  0  0  0  0  0  0  0  0
    3.3398    3.1407    4.4273 N   0  0  0  0  0  0  0  0  0  0  0  0
    1.7083    1.7052    5.3978 N   0  0  0  0  0  0  0  0  0  0  0  0
    3.7212    3.7382    5.5669 N   0  0  0  0  0  0  0  0  0  0  0  0
    4.5913    4.5905    5.4113 O   0  0  0  0  0  0  0  0  0  0  0  0
    3.2001    3.4017    6.6373 O   0  0  0  0  0  0  0  0  0  0  0  0
  1  4  1  6
  1  3  1  0
  1  2  1  0
  2  5  1  0
  3  6  1  0
  3  7  2  0
  5  8  1  0
  6  9  1  0
  8 10  1  0
 10 11  1  0
 11 12  1  0
 11 13  2  0
 12 14  1  0
 14 15  2  0
 14 16  1  0
M  CHG  2  14   1  16  -1
M  END
>  <DRUGBANK_ID>  (1) 
DB12750

>  <COMMON_NAME>  (1) 
N-omega-nitro-L-arginine methyl ester

>  <CAS_NUMBER>  (1) 
50903-99-6

>  <UNII>  (1) 
V55S2QJN2X

>  <SYNONYMS>  (1) 
L-NAME; N-nitro-arginine methyl ester; NG-nitro-L-arginine methyl ester; NG-Nitroarginine methyl ester

$$$$
