
     RDKit          3D

 10 11  0  0  1  0  0  0  0  0999 V2000
    1.2866   -0.1039    0.1677 C   0  0  0  0  0  0  0  0  0  0  0  0
    0.4079   -1.2450   -0.1318 N   0  0  0  0  0  0  0  0  0  0  0  0
    0.5327   -1.8562   -1.4673 C   0  0  1  0  0  0  0  0  0  0  0  0
   -0.7225   -2.7465   -1.5569 C   0  0  0  0  0  0  0  0  0  0  0  0
   -1.7336   -2.0763   -0.6391 C   0  0  0  0  0  0  0  0  0  0  0  0
   -1.0065   -0.8441   -0.1041 C   0  0  2  0  0  0  0  0  0  0  0  0
   -1.2486    0.3698   -1.0067 C   0  0  0  0  0  0  0  0  0  0  0  0
   -0.4356    0.3396   -2.2959 C   0  0  0  0  0  0  0  0  0  0  0  0
   -0.4794    1.3018   -3.0749 O   0  0  0  0  0  0  0  0  0  0  0  0
    0.4943   -0.8244   -2.5931 C   0  0  0  0  0  0  0  0  0  0  0  0
  1  2  1  0
  3  2  1  0
  3  4  1  6
  3 10  1  0
  4  5  1  0
  6  5  1  6
  6  2  1  0
  6  7  1  0
  7  8  1  0
  8  9  2  0
  8 10  1  0
M  END
>  <DRUGBANK_ID>  (1) 
DB01874

>  <SECONDARY_ACCESSION_NUMBERS>  (1) 
EXPT03077

>  <COMMON_NAME>  (1) 
Tropinone

>  <CAS_NUMBER>  (1) 
532-24-1

>  <UNII>  (1) 
2A8CC8KA5F

$$$$
