5EE
     RDKit          3D

 25 27  0  0  0  0  0  0  0  0999 V2000
    0.8858   -0.1599    0.0172 S   0  0  0  0  0  0  0  0  0  0  0  0
    0.4167   -0.9460   -1.0941 O   0  0  0  0  0  0  0  0  0  0  0  0
    0.5555   -0.5354    1.3803 O   0  0  0  0  0  0  0  0  0  0  0  0
    0.3336    1.4390   -0.1987 N   0  0  0  0  0  0  0  0  0  0  0  0
    2.6844   -0.0139   -0.0070 C   0  0  0  0  0  0  0  0  0  0  0  0
    3.6215   -1.4401   -0.0551 S   0  0  0  0  0  0  0  0  0  0  0  0
    5.0962   -0.5495   -0.0744 C   0  0  0  0  0  0  0  0  0  0  0  0
    4.8810    0.8096   -0.0534 C   0  0  0  0  0  0  0  0  0  0  0  0
    3.4955    1.1133    0.0059 C   0  0  0  0  0  0  0  0  0  0  0  0
    0.8025    2.2681   -4.7140 C   0  0  0  0  0  0  0  0  0  0  0  0
   -0.6849    2.1594   -4.4330 C   0  0  0  0  0  0  0  0  0  0  0  0
   -1.4268    3.2780   -4.0381 C   0  0  0  0  0  0  0  0  0  0  0  0
   -2.7723    3.1676   -3.6995 C   0  0  0  0  0  0  0  0  0  0  0  0
   -2.7124    0.8180   -4.2505 C   0  0  0  0  0  0  0  0  0  0  0  0
   -3.4256    1.9437   -3.8266 C   0  0  0  0  0  0  0  0  0  0  0  0
   -5.1143    1.9055   -3.4753 Cl  0  0  0  0  0  0  0  0  0  0  0  0
    0.7720    2.2546   -1.3513 N   0  0  0  0  0  0  0  0  0  0  0  0
    0.6497    3.6326   -1.3329 C   0  0  0  0  0  0  0  0  0  0  0  0
    1.6792    2.6834   -3.5185 C   0  0  2  0  0  0  0  0  0  0  0  0
    1.4380    1.6902   -2.4312 C   0  0  0  0  0  0  0  0  0  0  0  0
   -1.3453    0.9247   -4.5420 C   0  0  0  0  0  0  0  0  0  0  0  0
    1.4183    4.3127   -2.7654 S   0  0  0  0  0  0  0  0  0  0  0  0
   -0.0264    4.5911   -0.1483 S   0  0  0  0  0  0  0  0  0  0  0  0
    1.7987    0.5327   -2.5924 O   0  0  0  0  0  0  0  0  0  0  0  0
   -3.4578   -0.7297   -4.4268 Cl  0  0  0  0  0  0  0  0  0  0  0  0
  1  2  2  0
  1  3  2  0
  1  4  1  0
  1  5  1  0
  4 17  1  0
  5  6  1  0
  5  9  2  0
  6  7  1  0
  7  8  2  0
  8  9  1  0
 10 11  1  0
 11 12  2  0
 11 21  1  0
 12 13  1  0
 13 15  2  0
 14 15  1  0
 14 21  2  0
 14 25  1  0
 15 16  1  0
 17 18  1  0
 17 20  1  0
 18 22  1  0
 18 23  2  0
 19 20  1  0
 19 22  1  0
 19 10  1  6
 20 24  2  0
M  END
>  <DRUGBANK_ID>  (1) 
DB07169

>  <COMMON_NAME>  (1) 
5R-(3,4-DICHLOROPHENYLMETHYL)-3-(2-THIOPHENESULFONYLAMINO)-4-OXO-2-THIONOTHIAZOLIDINE

$$$$
