
     RDKit          3D

 32 35  0  0  1  0  0  0  0  0999 V2000
    2.2646    9.6720   -6.2040 C   0  0  0  0  0  0  0  0  0  0  0  0
    3.6406    9.3594   -6.2475 C   0  0  0  0  0  0  0  0  0  0  0  0
    4.2006    8.4857   -5.3196 C   0  0  0  0  0  0  0  0  0  0  0  0
    3.4081    8.1051   -4.2202 C   0  0  0  0  0  0  0  0  0  0  0  0
    2.0533    8.5236   -4.1116 C   0  0  0  0  0  0  0  0  0  0  0  0
    1.4185    9.1615   -5.1975 C   0  0  0  0  0  0  0  0  0  0  0  0
   -0.1076    9.0416   -5.5051 C   0  0  0  0  0  0  0  0  0  0  0  0
   -0.7695    7.6381   -5.6748 C   0  0  0  0  0  0  0  0  0  0  0  0
   -0.6273    6.6895   -4.6586 C   0  0  0  0  0  0  0  0  0  0  0  0
   -1.4236    5.5221   -4.4897 C   0  0  0  0  0  0  0  0  0  0  0  0
   -2.3102    5.1874   -5.4963 C   0  0  0  0  0  0  0  0  0  0  0  0
   -2.4181    6.0511   -6.5957 C   0  0  0  0  0  0  0  0  0  0  0  0
   -1.6586    7.2521   -6.6894 C   0  0  0  0  0  0  0  0  0  0  0  0
   -1.8287    8.1622   -8.1467 Cl  0  0  0  0  0  0  0  0  0  0  0  0
   -1.4036    4.8986   -3.0882 C   0  0  1  0  0  0  0  0  0  0  0  0
   -2.0167    5.9803   -2.1464 C   0  0  1  0  0  0  0  0  0  0  0  0
   -1.9884    5.5303   -0.6995 C   0  0  2  0  0  0  0  0  0  0  0  0
   -2.6214    4.1626   -0.5404 C   0  0  1  0  0  0  0  0  0  0  0  0
   -2.0096    3.1741   -1.5438 C   0  0  2  0  0  0  0  0  0  0  0  0
   -2.1334    3.6595   -2.9134 O   0  0  0  0  0  0  0  0  0  0  0  0
   -2.7095    1.8188   -1.3546 C   0  0  0  0  0  0  0  0  0  0  0  0
   -2.1399    0.8373   -2.2108 O   0  0  0  0  0  0  0  0  0  0  0  0
   -2.4548    3.7036    0.8031 O   0  0  0  0  0  0  0  0  0  0  0  0
   -2.6663    6.4919    0.1184 O   0  0  0  0  0  0  0  0  0  0  0  0
   -1.3539    7.2535   -2.1621 O   0  0  0  0  0  0  0  0  0  0  0  0
    5.3556    7.7572   -5.5591 O   0  0  0  0  0  0  0  0  0  0  0  0
    6.0203    7.8681   -6.8536 C   0  0  0  0  0  0  0  0  0  0  0  0
    5.4958    7.0737   -8.1276 C   0  0  0  0  0  0  0  0  0  0  0  0
    4.0797    7.1336   -8.4326 O   0  0  0  0  0  0  0  0  0  0  0  0
    3.3804    6.5145   -7.3406 C   0  0  0  0  0  0  0  0  0  0  0  0
    2.3121    5.5077   -7.3568 C   0  0  0  0  0  0  0  0  0  0  0  0
    2.0045    6.8983   -7.0305 C   0  0  0  0  0  0  0  0  0  0  0  0
  1  2  2  0
  1  6  1  0
  2  3  1  0
  3  4  2  0
  3 26  1  0
  4  5  1  0
  5  6  2  0
  6  7  1  0
  7  8  1  0
  8  9  2  0
  8 13  1  0
  9 10  1  0
 10 11  2  0
 11 12  1  0
 12 13  2  0
 13 14  1  0
 15 16  1  0
 15 20  1  0
 15 10  1  6
 16 17  1  0
 16 25  1  1
 17 18  1  0
 17 24  1  1
 18 19  1  0
 18 23  1  1
 19 20  1  0
 19 21  1  6
 21 22  1  0
 26 27  1  0
 27 28  1  0
 28 29  1  0
 29 30  1  0
 30 31  1  0
 30 32  1  0
 31 32  1  0
M  END
>  <DRUGBANK_ID>  (1) 
DB12236

>  <COMMON_NAME>  (1) 
Bexagliflozin

>  <CAS_NUMBER>  (1) 
1118567-05-7

>  <UNII>  (1) 
EY00JF42FV

>  <SYNONYMS>  (1) 
(2S,3R,4R,5S,6R)-2-(4-chloro-3-((4-(2-(cyclopropyloxy)ethoxy)phenyl)methyl)phenyl)-6-(hydroxymethyl)tetrahydro-2H-pyran-3,4,5-triol; Bexagliflozin; D-glucitol, 1,5-anhydro-1-C-(4-chloro-3-((4-(2-(cyclopropyloxy)ethoxy)phenyl)methyl)phenyl)-, (1s)-

$$$$
