
     RDKit          3D

 25 27  0  0  0  0  0  0  0  0999 V2000
    0.7266   -0.1289   -0.1088 C   0  0  0  0  0  0  0  0  0  0  0  0
    0.3398   -0.3164    1.3507 C   0  0  0  0  0  0  0  0  0  0  0  0
    2.9350   -1.6094    1.5465 C   0  0  0  0  0  0  0  0  0  0  0  0
    4.6811   -0.1833    2.3648 C   0  0  0  0  0  0  0  0  0  0  0  0
    3.6595    0.6120    0.2984 C   0  0  0  0  0  0  0  0  0  0  0  0
    3.8385   -2.4352    0.6462 C   0  0  0  0  0  0  0  0  0  0  0  0
    5.5908   -1.0357    1.5038 C   0  0  0  0  0  0  0  0  0  0  0  0
    4.4404   -0.3343   -0.6112 C   0  0  0  0  0  0  0  0  0  0  0  0
   10.9088   -2.9819    0.9796 C   0  0  0  0  0  0  0  0  0  0  0  0
   10.6377   -0.7823    2.0607 C   0  0  0  0  0  0  0  0  0  0  0  0
    7.1219   -1.5368   -1.0811 C   0  0  0  0  0  0  0  0  0  0  0  0
   10.2623   -1.5467   -0.8756 C   0  0  0  0  0  0  0  0  0  0  0  0
   11.3606   -2.4797   -0.4039 C   0  0  1  0  0  0  0  0  0  0  0  0
    9.9193   -1.9134    1.4353 C   0  0  1  0  0  0  0  0  0  0  0  0
    8.1206   -0.9763   -0.0037 C   0  0  0  0  0  0  0  0  0  0  0  0
    2.3490    0.7334    2.4630 C   0  0  0  0  0  0  0  0  0  0  0  0
    3.3243   -0.1037    1.6465 C   0  0  1  0  0  0  0  0  0  0  0  0
    4.9893   -1.5443    0.1956 C   0  0  2  0  0  0  0  0  0  0  0  0
   12.5140   -1.7832   -0.2651 F   0  0  0  0  0  0  0  0  0  0  0  0
   11.2837    0.0307    2.6106 N   0  0  0  0  0  0  0  0  0  0  0  0
    5.9563   -2.3118   -0.5839 N   0  0  0  0  0  0  0  0  0  0  0  0
    9.2581   -1.7028    0.1453 N   0  0  0  0  0  0  0  0  0  0  0  0
    8.0177    0.0483    0.6599 O   0  0  0  0  0  0  0  0  0  0  0  0
    2.7516    1.5579    3.2835 O   0  0  0  0  0  0  0  0  0  0  0  0
    1.0167    0.6096    2.2380 O   0  0  0  0  0  0  0  0  0  0  0  0
  2  1  1  0
  6  3  1  0
  7  4  1  0
  8  5  1  0
 13  9  1  0
 13 12  1  0
 13 19  1  1
 14  9  1  0
 14 22  1  0
 14 10  1  6
 15 11  1  0
 17  3  1  0
 17  4  1  0
 17  5  1  0
 17 16  1  1
 18  6  1  0
 18  7  1  0
 18  8  1  0
 20 10  3  0
 21 11  1  0
 18 21  1  6
 22 12  1  0
 22 15  1  0
 23 15  2  0
 24 16  2  0
 25  2  1  0
 25 16  1  0
M  END
>  <DRUGBANK_ID>  (1) 
DB06127

>  <COMMON_NAME>  (1) 
Bisegliptin

>  <CAS_NUMBER>  (1) 
862501-61-9

>  <UNII>  (1) 
9U5KQ79OK6

>  <SYNONYMS>  (1) 
Bisegliptin

$$$$
