
     RDKit          3D

  5  4  0  0  1  0  0  0  0  0999 V2000
    1.0864    0.0845    0.0340 C   0  0  0  0  0  0  0  0  0  0  0  0
    0.5333   -0.0618   -1.3787 C   0  0  1  0  0  0  0  0  0  0  0  0
    0.9944   -1.2940   -1.9283 O   0  0  0  0  0  0  0  0  0  0  0  0
   -0.9997   -0.0451   -1.3955 C   0  0  0  0  0  0  0  0  0  0  0  0
   -1.5219    1.1846   -0.9057 O   0  0  0  0  0  0  0  0  0  0  0  0
  2  1  1  1
  2  3  1  0
  2  4  1  0
  4  5  1  0
M  END
>  <DRUGBANK_ID>  (1) 
DB02159

>  <SECONDARY_ACCESSION_NUMBERS>  (1) 
EXPT02574

>  <COMMON_NAME>  (1) 
(R)-Propylene glycol

>  <CAS_NUMBER>  (1) 
4254-14-2

>  <UNII>  (1) 
602HN5L69H

>  <SYNONYMS>  (1) 
R-1,2-propanediol

$$$$
