
     RDKit          3D

 17 17  0  0  1  0  0  0  0  0999 V2000
    1.0457   -0.2378   -0.9025 O   0  0  0  0  0  0  0  0  0  0  0  0
    0.4649    0.8677   -1.5683 C   0  0  2  0  0  0  0  0  0  0  0  0
    0.9677    2.1911   -1.2669 O   0  0  0  0  0  0  0  0  0  0  0  0
   -1.0112    1.0003   -1.2084 C   0  0  1  0  0  0  0  0  0  0  0  0
   -0.0558    3.1617   -1.6289 C   0  0  1  0  0  0  0  0  0  0  0  0
   -1.3009    2.3065   -1.9311 C   0  0  1  0  0  0  0  0  0  0  0  0
   -1.8145   -0.0789   -1.6594 O   0  0  0  0  0  0  0  0  0  0  0  0
   -0.3852    4.2613   -0.5831 C   0  0  0  0  0  0  0  0  0  0  0  0
   -1.3351    2.0123   -3.3352 O   0  0  0  0  0  0  0  0  0  0  0  0
    0.9446    5.3728    0.0479 S   0  0  0  0  0  0  0  0  0  0  0  0
    2.1933    4.2668    0.8123 C   0  0  0  0  0  0  0  0  0  0  0  0
    1.7580    3.5536    2.1170 C   0  0  0  0  0  0  0  0  0  0  0  0
    0.7235    2.4550    1.8904 C   0  0  1  0  0  0  0  0  0  0  0  0
    1.5201    1.3032    1.2796 C   0  0  0  0  0  0  0  0  0  0  0  0
    0.0165    1.9348    3.0729 N   0  0  0  0  0  0  0  0  0  0  0  0
    1.0514    0.0664    1.5694 O   0  0  0  0  0  0  0  0  0  0  0  0
    2.5230    1.4093    0.6079 O   0  0  0  0  0  0  0  0  0  0  0  0
  2  1  1  1
  2  3  1  0
  2  4  1  0
  3  5  1  0
  4  6  1  0
  4  7  1  6
  5  8  1  1
  5  6  1  0
  6  9  1  6
  8 10  1  0
 10 11  1  0
 11 12  1  0
 12 13  1  0
 13 14  1  0
 13 15  1  1
 14 16  1  0
 14 17  2  0
M  END
>  <DRUGBANK_ID>  (1) 
DB02321

>  <SECONDARY_ACCESSION_NUMBERS>  (1) 
EXPT02779

>  <COMMON_NAME>  (1) 
5-(3-Amino-4,4-Dihyroxy-Butylsulfanylmethyl)-Tetrahydro-Furan-2,3,4-Triol

$$$$
