
     RDKit          3D

 10  9  0  0  1  0  0  0  0  0999 V2000
    0.9885    0.1410    0.0313 C   0  0  0  0  0  0  0  0  0  0  0  0
   -0.3904   -1.0213    1.8838 C   0  0  0  0  0  0  0  0  0  0  0  0
   -1.7041   -1.7691    1.6567 C   0  0  0  0  0  0  0  0  0  0  0  0
    0.5385   -1.1257    0.6858 C   0  0  0  0  0  0  0  0  0  0  0  0
   -1.5311   -3.2621    1.3368 C   0  0  1  0  0  0  0  0  0  0  0  0
   -0.8680   -4.0386    2.4917 C   0  0  0  0  0  0  0  0  0  0  0  0
   -2.8691   -3.8325    1.0358 N   0  0  0  0  0  0  0  0  0  0  0  0
    0.9311   -2.2049    0.2405 O   0  0  0  0  0  0  0  0  0  0  0  0
   -1.3718   -4.9684    3.1131 O   0  0  0  0  0  0  0  0  0  0  0  0
    0.3687   -3.6126    2.8073 O   0  0  0  0  0  0  0  0  0  0  0  0
  3  2  1  0
  4  1  1  0
  4  2  1  0
  5  3  1  0
  5  7  1  1
  6  5  1  0
  8  4  2  0
  9  6  2  0
 10  6  1  0
M  END
>  <DRUGBANK_ID>  (1) 
DB04296

>  <SECONDARY_ACCESSION_NUMBERS>  (1) 
EXPT02438

>  <COMMON_NAME>  (1) 
5-Oxo-L-Norleucine

$$$$
