TQ5
     RDKit          3D

 23 25  0  0  0  0  0  0  0  0999 V2000
    0.0653    0.6382    0.0834 C   0  0  0  0  0  0  0  0  0  0  0  0
    0.0396   -0.7689    0.0644 C   0  0  0  0  0  0  0  0  0  0  0  0
    1.3222   -1.3535   -0.0101 C   0  0  0  0  0  0  0  0  0  0  0  0
    2.4566   -0.6495   -0.0405 N   0  0  0  0  0  0  0  0  0  0  0  0
    2.3475    0.6791    0.0001 C   0  0  0  0  0  0  0  0  0  0  0  0
    1.1941    1.3460    0.0822 N   0  0  0  0  0  0  0  0  0  0  0  0
    1.4840   -2.7142   -0.2736 N   0  0  0  0  0  0  0  0  0  0  0  0
   -1.1378    1.3297    0.0402 C   0  0  0  0  0  0  0  0  0  0  0  0
   -2.3513    0.6777   -0.1358 C   0  0  0  0  0  0  0  0  0  0  0  0
   -2.3990   -0.7049   -0.0331 C   0  0  0  0  0  0  0  0  0  0  0  0
   -1.2218   -1.4475    0.1117 C   0  0  0  0  0  0  0  0  0  0  0  0
    3.4994    1.3952   -0.0801 N   0  0  0  0  0  0  0  0  0  0  0  0
   -1.2416   -3.2277    0.4072 S   0  0  0  0  0  0  0  0  0  0  0  0
   -2.9089   -3.7486    0.4048 C   0  0  0  0  0  0  0  0  0  0  0  0
   -3.7288   -3.5710   -0.7043 C   0  0  0  0  0  0  0  0  0  0  0  0
   -5.0876   -3.8243   -0.5940 C   0  0  0  0  0  0  0  0  0  0  0  0
   -5.6153   -4.4020    0.5726 C   0  0  0  0  0  0  0  0  0  0  0  0
   -4.7268   -4.7549    1.5998 C   0  0  0  0  0  0  0  0  0  0  0  0
   -3.3964   -4.3766    1.5435 C   0  0  0  0  0  0  0  0  0  0  0  0
   -7.1245   -4.5926    0.7158 C   0  0  0  0  0  0  0  0  0  0  0  0
   -7.8155   -3.2124    0.6785 C   0  0  0  0  0  0  0  0  0  0  0  0
   -7.6491   -5.4616   -0.4394 C   0  0  0  0  0  0  0  0  0  0  0  0
   -7.4951   -5.2715    2.0494 C   0  0  0  0  0  0  0  0  0  0  0  0
  1  2  1  0
  1  6  2  0
  1  8  1  0
  2  3  2  0
  2 11  1  0
  3  4  1  0
  3  7  1  0
  4  5  2  0
  5  6  1  0
  5 12  1  0
  8  9  2  0
  9 10  1  0
 10 11  2  0
 11 13  1  0
 13 14  1  0
 14 15  2  0
 14 19  1  0
 15 16  1  0
 16 17  2  0
 17 18  1  0
 17 20  1  0
 18 19  2  0
 20 21  1  0
 20 22  1  0
 20 23  1  0
M  END
>  <DRUGBANK_ID>  (1) 
DB01958

>  <SECONDARY_ACCESSION_NUMBERS>  (1) 
EXPT03101

>  <COMMON_NAME>  (1) 
5-[4-Tert-Butylphenylsulfanyl]-2,4-Quinazolinediamine

$$$$
