
     RDKit          3D

 18 20  0  0  1  0  0  0  0  0999 V2000
    0.8398    0.0037   -0.0531 C   0  0  0  0  0  0  0  0  0  0  0  0
    0.2818    0.7929    1.1032 C   0  0  0  0  0  0  0  0  0  0  0  0
   -0.1184    0.2727    2.2594 C   0  0  0  0  0  0  0  0  0  0  0  0
    0.2069   -1.1252    2.6174 C   0  0  0  0  0  0  0  0  0  0  0  0
    0.8740   -1.0203    3.9791 C   0  0  0  0  0  0  0  0  0  0  0  0
    2.3294   -1.3449    3.7972 C   0  0  1  0  0  0  0  0  0  0  0  0
    3.5150   -0.2415    3.4030 C   0  0  2  0  0  0  0  0  0  0  0  0
    3.1551   -0.7127    4.7453 O   0  0  0  0  0  0  0  0  0  0  0  0
    3.5197    1.3342    3.3574 C   0  0  2  0  0  0  0  0  0  0  0  0
    2.7561    2.4442    2.2852 C   0  0  2  0  0  0  0  0  0  0  0  0
    1.8641    2.5405    0.9508 C   0  0  0  0  0  0  0  0  0  0  0  0
    0.3531    2.2603    0.9662 C   0  0  0  0  0  0  0  0  0  0  0  0
    4.0516    3.1071    1.8727 C   0  0  0  0  0  0  0  0  0  0  0  0
    4.4980    3.7128    0.7602 C   0  0  0  0  0  0  0  0  0  0  0  0
    4.7935    3.0995    3.1179 C   0  0  0  0  0  0  0  0  0  0  0  0
    4.5628    3.9340    4.0220 O   0  0  0  0  0  0  0  0  0  0  0  0
    4.9351    1.7686    3.2751 O   0  0  0  0  0  0  0  0  0  0  0  0
    2.4696   -2.8720    3.7041 C   0  0  0  0  0  0  0  0  0  0  0  0
  1  2  1  0
  2  3  2  0
  2 12  1  0
  3  4  1  0
  4  5  1  0
  5  6  1  0
  6  7  1  0
  6  8  1  0
  6 18  1  6
  7  8  1  1
  7  9  1  0
  9 10  1  0
  9 17  1  6
 10 11  1  6
 10 13  1  0
 11 12  1  0
 13 15  1  0
 13 14  2  0
 15 17  1  0
 15 16  2  0
M  END
>  <DRUGBANK_ID>  (1) 
DB13063

>  <COMMON_NAME>  (1) 
Parthenolide

>  <CAS_NUMBER>  (1) 
20554-84-1

>  <UNII>  (1) 
2RDB26I5ZB

$$$$
