
     RDKit          3D

 37 40  0  0  1  0  0  0  0  0999 V2000
    1.3347   -2.8481   -0.2814 C   0  0  0  0  0  0  0  0  0  0  0  0
    0.6203   -4.1048   -0.4412 N   0  0  0  0  0  0  0  0  0  0  0  0
   -0.8264   -3.9326   -0.7350 C   0  0  1  0  0  0  0  0  0  0  0  0
   -1.3939   -5.1280   -1.5001 C   0  0  1  0  0  0  0  0  0  0  0  0
   -1.0025   -6.3570   -0.8897 O   0  0  0  0  0  0  0  0  0  0  0  0
   -2.9307   -4.9603   -1.6579 C   0  0  1  0  0  0  0  0  0  0  0  0
   -3.4845   -6.0809   -2.3084 O   0  0  0  0  0  0  0  0  0  0  0  0
   -4.8210   -6.0259   -2.7243 C   0  0  2  0  0  0  0  0  0  0  0  0
   -4.9468   -5.1090   -3.7877 O   0  0  0  0  0  0  0  0  0  0  0  0
   -4.1350   -5.4471   -4.9644 C   0  0  2  0  0  0  0  0  0  0  0  0
   -4.6380   -6.6612   -5.8080 C   0  0  1  0  0  0  0  0  0  0  0  0
   -4.2212   -6.5718   -7.2255 N   0  0  0  0  0  0  0  0  0  0  0  0
   -4.0955   -8.0124   -5.3069 C   0  0  0  0  0  0  0  0  0  0  0  0
   -2.5619   -8.0973   -5.1776 C   0  0  1  0  0  0  0  0  0  0  0  0
   -1.8354   -8.1148   -6.4466 N   0  0  0  0  0  0  0  0  0  0  0  0
   -1.9918   -6.9749   -4.3259 C   0  0  2  0  0  0  0  0  0  0  0  0
   -2.0505   -7.5709   -3.0398 O   0  0  0  0  0  0  0  0  0  0  0  0
   -2.5882   -5.5542   -4.7431 C   0  0  1  0  0  0  0  0  0  0  0  0
   -1.9409   -5.1700   -5.9864 O   0  0  0  0  0  0  0  0  0  0  0  0
   -5.6509   -5.9096   -1.4366 C   0  0  2  0  0  0  0  0  0  0  0  0
   -7.0777   -6.0069   -1.7156 N   0  0  0  0  0  0  0  0  0  0  0  0
   -5.1574   -4.7184   -0.5969 C   0  0  0  0  0  0  0  0  0  0  0  0
   -3.6290   -4.8502   -0.3312 C   0  0  2  0  0  0  0  0  0  0  0  0
   -3.1261   -3.7329    0.3563 O   0  0  0  0  0  0  0  0  0  0  0  0
   -1.7043   -3.6947    0.5481 C   0  0  2  0  0  0  0  0  0  0  0  0
   -1.3962   -2.4445    1.1610 O   0  0  0  0  0  0  0  0  0  0  0  0
   -1.6921   -1.3281    0.3253 C   0  0  1  0  0  0  0  0  0  0  0  0
   -3.0949   -1.2281    0.1008 O   0  0  0  0  0  0  0  0  0  0  0  0
   -3.5277   -0.1338   -0.7182 C   0  0  2  0  0  0  0  0  0  0  0  0
   -3.1264   -0.2856   -2.2006 C   0  0  0  0  0  0  0  0  0  0  0  0
   -3.7259   -1.4527   -2.7576 O   0  0  0  0  0  0  0  0  0  0  0  0
   -3.0755    1.1760   -0.0467 C   0  0  1  0  0  0  0  0  0  0  0  0
   -3.8077    1.3289    1.2328 N   0  0  0  0  0  0  0  0  0  0  0  0
   -1.5384    1.1618    0.1782 C   0  0  2  0  0  0  0  0  0  0  0  0
   -0.8770    1.2576   -1.0969 O   0  0  0  0  0  0  0  0  0  0  0  0
   -1.0818   -0.0726    0.9693 C   0  0  1  0  0  0  0  0  0  0  0  0
   -1.4209    0.0376    2.3555 O   0  0  0  0  0  0  0  0  0  0  0  0
  1  2  1  0
  3  2  1  1
  3  4  1  0
  3 25  1  0
  4  6  1  0
  4  5  1  1
  6  7  1  1
  6 23  1  0
  7  8  1  0
  8 20  1  0
  8  9  1  6
 10  9  1  1
 10 11  1  0
 10 18  1  0
 11 13  1  0
 11 12  1  6
 13 14  1  0
 14 16  1  0
 14 15  1  6
 16 17  1  1
 16 18  1  0
 18 19  1  6
 20 21  1  6
 20 22  1  0
 23 22  1  6
 23 24  1  0
 24 25  1  0
 25 26  1  6
 27 28  1  0
 27 36  1  0
 27 26  1  1
 28 29  1  0
 29 30  1  6
 29 32  1  0
 30 31  1  0
 32 34  1  0
 32 33  1  1
 34 35  1  6
 34 36  1  0
 36 37  1  1
M  END
>  <DRUGBANK_ID>  (1) 
DB04626

>  <COMMON_NAME>  (1) 
Apramycin

>  <CAS_NUMBER>  (1) 
37321-09-8

>  <UNII>  (1) 
388K3TR36Z

>  <SYNONYMS>  (1) 
4-O-((8R)-2-amino-8-O-(4-amino-4-deoxy-α-D-glucopyranosyl)-2,3,7-trideoxy-7-(methylamino)-D-glycero-α-D-allo-octodialdo-1,5:8,4-dipyranos-1-yl)-2-deoxy-D-streptamine; 4-O-(3α-amino-6α-((4-amino-4-deoxy-α-D-glucopyranosyl)oxy)-2,3,4,5aβ,6,7,8,8aα-octahydro-8β-hydroxy-7β-(methylamino)pyrano(3,2-b)pyran-2α-yl)-2-deoxy-D-streptamine; Apramicina; Apramycin; Apramycine; Apramycinum; Nebramycin II

$$$$
