839
     RDKit          3D

 21 22  0  0  0  0  0  0  0  0999 V2000
    0.6492   -0.2794   -0.5523 S   0  0  0  0  0  0  0  0  0  0  0  0
    0.4687    4.0451   -0.1098 O   0  0  0  0  0  0  0  0  0  0  0  0
   -0.0491   -1.0828   -1.7193 O   0  0  0  0  0  0  0  0  0  0  0  0
    0.1309   -0.7332    0.7726 O   0  0  0  0  0  0  0  0  0  0  0  0
    2.7171    1.6957    1.3194 N   0  0  0  0  0  0  0  0  0  0  0  0
    2.3008    2.8276    0.4805 N   0  0  0  0  0  0  0  0  0  0  0  0
    0.0461    1.6752   -0.4326 N   0  0  0  0  0  0  0  0  0  0  0  0
    4.7138   -1.6408    1.6479 C   0  0  0  0  0  0  0  0  0  0  0  0
    3.6106   -2.3132    0.8335 C   0  0  0  0  0  0  0  0  0  0  0  0
    4.9550   -0.0251    1.7816 C   0  0  0  0  0  0  0  0  0  0  0  0
    2.3864   -1.2987    1.0303 C   0  0  0  0  0  0  0  0  0  0  0  0
    3.8861    1.1732    1.9460 C   0  0  0  0  0  0  0  0  0  0  0  0
    2.1155    0.5468    0.7278 C   0  0  0  0  0  0  0  0  0  0  0  0
    0.9481    2.8995   -0.0229 C   0  0  0  0  0  0  0  0  0  0  0  0
    2.8161   -0.1772   -1.1876 C   0  0  0  0  0  0  0  0  0  0  0  0
    3.9013    1.0045   -0.9748 C   0  0  0  0  0  0  0  0  0  0  0  0
    3.6051   -1.2905   -1.5151 C   0  0  0  0  0  0  0  0  0  0  0  0
    5.9268   -0.0790   -0.9619 C   0  0  0  0  0  0  0  0  0  0  0  0
    5.3028    1.1230   -0.9273 C   0  0  0  0  0  0  0  0  0  0  0  0
    5.1035   -1.2206   -1.2413 C   0  0  0  0  0  0  0  0  0  0  0  0
    7.3069   -0.1403   -0.3526 C   0  0  0  0  0  0  0  0  0  0  0  0
  1  3  2  0
  1  4  2  0
  1  7  1  0
  1 15  1  0
  2 14  2  0
  5  6  1  0
  5 12  1  0
  5 13  1  0
  6 14  1  0
  7 14  1  0
  8  9  1  0
  8 10  1  0
  9 11  1  0
 10 12  1  0
 11 13  1  0
 15 16  2  0
 15 17  1  0
 16 19  1  0
 17 20  2  0
 18 19  2  0
 18 20  1  0
 18 21  1  0
M  END
>  <DRUGBANK_ID>  (1) 
DB00839

>  <SECONDARY_ACCESSION_NUMBERS>  (1) 
APRD01267

>  <COMMON_NAME>  (1) 
Tolazamide

>  <CAS_NUMBER>  (1) 
1156-19-0

>  <UNII>  (1) 
9LT1BRO48Q

>  <SYNONYMS>  (1) 
1-(Hexahydro-1-azepinyl)-3-p-tolylsulfonylurea; 1-(Hexahydro-1H-azepin-1-yl)-3-(p-tolylsulfonyl)urea; 4-(p-Tolylsulfonyl)-1,1-hexamethylenesemicarbazide; N-(p-Toluenesulfonyl)-N'-hexamethyleniminourea; Tolazamid; Tolazamida; Tolazamide; Tolazamidum

$$$$
