
     RDKit          3D

 32 34  0  0  0  0  0  0  0  0999 V2000
   -0.9081   -1.4471   -0.0226 N   0  0  0  0  0  0  0  0  0  0  0  0
    0.3244   -0.8504    0.0279 C   0  0  0  0  0  0  0  0  0  0  0  0
    0.4960    0.4959    0.1116 C   0  0  0  0  0  0  0  0  0  0  0  0
    1.7506    1.1002    0.1796 N   0  0  0  0  0  0  0  0  0  0  0  0
    1.4636   -1.6488   -0.0316 N   0  0  0  0  0  0  0  0  0  0  0  0
   -1.8975    0.6663    0.0315 N   0  0  0  0  0  0  0  0  0  0  0  0
    2.8073   -1.1052    0.1504 C   0  0  0  0  0  0  0  0  0  0  0  0
    2.8786    0.3540   -0.3885 C   0  0  2  0  0  0  0  0  0  0  0  0
    4.2095    1.0129   -0.0264 C   0  0  0  0  0  0  0  0  0  0  0  0
    5.2960    0.2737   -0.6476 N   0  0  0  0  0  0  0  0  0  0  0  0
    6.2477    0.8862   -1.4297 C   0  0  0  0  0  0  0  0  0  0  0  0
    7.6806    2.7659   -1.9773 C   0  0  0  0  0  0  0  0  0  0  0  0
    6.7362    2.1587   -1.1461 C   0  0  0  0  0  0  0  0  0  0  0  0
    6.7224    0.2314   -2.5688 C   0  0  0  0  0  0  0  0  0  0  0  0
    7.6987    0.8155   -3.3865 C   0  0  0  0  0  0  0  0  0  0  0  0
    8.1535    2.1120   -3.1235 C   0  0  0  0  0  0  0  0  0  0  0  0
    9.0768    2.8690   -4.0301 C   0  0  0  0  0  0  0  0  0  0  0  0
    9.4114    4.0168   -3.7511 O   0  0  0  0  0  0  0  0  0  0  0  0
    9.5057    2.2544   -5.1882 N   0  0  0  0  0  0  0  0  0  0  0  0
   11.6792    0.4986   -9.3288 O   0  0  0  0  0  0  0  0  0  0  0  0
   10.3431    2.9435   -6.1763 C   0  0  2  0  0  0  0  0  0  0  0  0
    9.7269    4.4951   -7.9930 O   0  0  0  0  0  0  0  0  0  0  0  0
    9.5138    3.2775   -7.4451 C   0  0  0  0  0  0  0  0  0  0  0  0
    8.7293    2.5213   -7.9760 O   0  0  0  0  0  0  0  0  0  0  0  0
   11.6115    2.1003   -6.4333 C   0  0  0  0  0  0  0  0  0  0  0  0
   11.4083    0.6550   -6.9212 C   0  0  0  0  0  0  0  0  0  0  0  0
   10.9521    0.4929   -8.3481 C   0  0  0  0  0  0  0  0  0  0  0  0
    9.6175    0.3839   -8.4339 O   0  0  0  0  0  0  0  0  0  0  0  0
   -0.7213    1.3450    0.0902 C   0  0  0  0  0  0  0  0  0  0  0  0
   -0.6634    2.5727    0.0986 O   0  0  0  0  0  0  0  0  0  0  0  0
   -1.9551   -0.6888   -0.0325 C   0  0  0  0  0  0  0  0  0  0  0  0
   -3.1876   -1.2283   -0.1153 N   0  0  0  0  0  0  0  0  0  0  0  0
  1  2  1  0
  2  3  2  0
  2  5  1  0
  3  4  1  0
  3 29  1  0
  4  8  1  0
  7  5  1  0
  7  8  1  0
  8  9  1  1
  9 10  1  0
 10 11  1  0
 11 14  2  0
 12 13  2  0
 12 16  1  0
 13 11  1  0
 14 15  1  0
 15 16  2  0
 16 17  1  0
 17 19  1  0
 17 18  2  0
 21 19  1  0
 21 25  1  6
 21 23  1  0
 23 22  1  0
 23 24  2  0
 25 26  1  0
 26 27  1  0
 27 20  2  0
 27 28  1  0
 29  6  1  0
 29 30  2  0
 31  1  2  0
 31  6  1  0
 31 32  1  0
M  END
>  <DRUGBANK_ID>  (1) 
DB02031

>  <SECONDARY_ACCESSION_NUMBERS>  (1) 
EXPT03050

>  <COMMON_NAME>  (1) 
(6S)-5,6,7,8-tetrahydrofolic acid

>  <CAS_NUMBER>  (1) 
135-16-0

>  <SYNONYMS>  (1) 
(6S)-5,6,7,8-tetrahydrofolate; (6S)-5,6,7,8-tetrahydropteroylglutamate; (6S)-H4folate; (6S)-tetrahydrofolate; (6S)-Tetrahydrofolic acid; (6S)-THFA

$$$$
