
     RDKit          3D

 15 14  0  0  1  0  0  0  0  0999 V2000
    0.9050    0.0796   -0.0201 C   0  0  0  0  0  0  0  0  0  0  0  0
    0.4032    1.3228    0.6591 C   0  0  0  0  0  0  0  0  0  0  0  0
   -0.2885    2.1533    0.0781 O   0  0  0  0  0  0  0  0  0  0  0  0
    0.7577    1.5134    1.9607 N   0  0  0  0  0  0  0  0  0  0  0  0
    1.5395    0.6218    2.8155 C   0  0  1  0  0  0  0  0  0  0  0  0
    2.8109    1.3619    3.2851 C   0  0  0  0  0  0  0  0  0  0  0  0
    2.5977    2.6043    4.1623 C   0  0  0  0  0  0  0  0  0  0  0  0
    1.9689    2.2979    5.5084 C   0  0  0  0  0  0  0  0  0  0  0  0
    2.7240    1.3018    6.2448 N   0  0  0  0  0  0  0  0  0  0  0  0
    2.9710    1.4941    7.5661 C   0  0  0  0  0  0  0  0  0  0  0  0
    3.7238    0.5333    8.1411 N   0  0  0  0  0  0  0  0  0  0  0  0
    2.6185    2.4716    8.2067 O   0  0  0  0  0  0  0  0  0  0  0  0
    0.6093   -0.0352    3.8753 C   0  0  0  0  0  0  0  0  0  0  0  0
    0.7764   -1.3632    4.0531 O   0  0  0  0  0  0  0  0  0  0  0  0
   -0.2717    0.5494    4.5024 O   0  0  0  0  0  0  0  0  0  0  0  0
  1  2  1  0
  2  3  2  0
  2  4  1  0
  5  4  1  0
  5  6  1  1
  5 13  1  0
  6  7  1  0
  7  8  1  0
  8  9  1  0
  9 10  1  0
 10 11  1  0
 10 12  2  0
 13 14  1  0
 13 15  2  0
M  END
>  <DRUGBANK_ID>  (1) 
DB02368

>  <SECONDARY_ACCESSION_NUMBERS>  (1) 
EXPT02432

>  <COMMON_NAME>  (1) 
N-Acetyl-L-Citrulline

$$$$
