
     RDKit          3D

 15 15  0  0  1  0  0  0  0  0999 V2000
    1.9418   -5.2241   -0.1369 C   0  0  0  0  0  0  0  0  0  0  0  0
    1.7862   -4.0776   -0.9912 O   0  0  0  0  0  0  0  0  0  0  0  0
    1.0044   -4.1561   -2.0998 C   0  0  0  0  0  0  0  0  0  0  0  0
    0.7087   -5.2091   -2.6358 O   0  0  0  0  0  0  0  0  0  0  0  0
    0.4493   -2.7576   -2.5744 C   0  0  2  0  0  0  0  0  0  0  0  0
    0.8801   -1.4752   -1.8095 C   0  0  0  0  0  0  0  0  0  0  0  0
    1.1078   -1.6025   -0.3133 C   0  0  0  0  0  0  0  0  0  0  0  0
    2.2388   -0.9948    0.2546 C   0  0  0  0  0  0  0  0  0  0  0  0
    2.6456   -1.3363    1.5468 C   0  0  0  0  0  0  0  0  0  0  0  0
    1.9425   -2.2979    2.2599 C   0  0  0  0  0  0  0  0  0  0  0  0
    0.7864   -2.8623    1.7356 C   0  0  0  0  0  0  0  0  0  0  0  0
    0.3266   -2.4682    0.4827 C   0  0  0  0  0  0  0  0  0  0  0  0
    0.2319   -3.9333    2.3905 O   0  0  0  0  0  0  0  0  0  0  0  0
    2.4537   -2.7425    3.4454 O   0  0  0  0  0  0  0  0  0  0  0  0
   -1.0400   -2.7662   -2.6632 N   0  0  0  0  0  0  0  0  0  0  0  0
  1  2  1  0
  2  3  1  0
  3  4  2  0
  5 15  1  1
  5  6  1  0
  5  3  1  0
  6  7  1  0
  7  8  2  0
  7 12  1  0
  8  9  1  0
  9 10  2  0
 10 11  1  0
 10 14  1  0
 11 12  2  0
 11 13  1  0
M  END
>  <DRUGBANK_ID>  (1) 
DB13313

>  <COMMON_NAME>  (1) 
Melevodopa

>  <CAS_NUMBER>  (1) 
7101-51-1

>  <UNII>  (1) 
M30686U4X4

>  <SYNONYMS>  (1) 
Melevodopa

$$$$
