1154
     RDKit          3D

 17 17  0  0  1  0  0  0  0  0999 V2000
    1.1094    0.1787   -0.3869 S   0  0  0  0  0  0  0  0  0  0  0  0
    4.4994    2.2570    1.8482 O   0  0  0  0  0  0  0  0  0  0  0  0
    4.2532   -2.2426    1.7130 O   0  0  0  0  0  0  0  0  0  0  0  0
    3.4818    1.2521    0.0948 N   0  0  0  0  0  0  0  0  0  0  0  0
    3.4093   -1.0563   -0.0057 N   0  0  0  0  0  0  0  0  0  0  0  0
    5.1752   -0.0221    1.2752 C   0  0  0  0  0  0  0  0  0  0  0  0
    6.1691   -0.0258    0.0466 C   0  0  0  0  0  0  0  0  0  0  0  0
    7.1737    1.1588    0.0424 C   0  0  0  0  0  0  0  0  0  0  0  0
    5.8824   -0.1418    2.6284 C   0  0  0  0  0  0  0  0  0  0  0  0
    6.8040   -1.4049   -0.1998 C   0  0  0  0  0  0  0  0  0  0  0  0
    4.3727    1.2697    1.1427 C   0  0  0  0  0  0  0  0  0  0  0  0
    4.2498   -1.2162    1.0677 C   0  0  0  0  0  0  0  0  0  0  0  0
    8.2237    1.2591    1.1532 C   0  0  0  0  0  0  0  0  0  0  0  0
    5.0420   -0.1799    3.8573 C   0  0  0  0  0  0  0  0  0  0  0  0
    2.7409    0.1235   -0.0891 C   0  0  0  0  0  0  0  0  0  0  0  0
    9.0562    0.0086    1.3575 C   0  0  0  0  0  0  0  0  0  0  0  0
    5.1431   -1.1834    4.7313 C   0  0  0  0  0  0  0  0  0  0  0  0
  1 15  2  0
  2 11  2  0
  3 12  2  0
  4 11  1  0
  4 15  1  0
  5 12  1  0
  5 15  1  0
  6  7  1  0
  6  9  1  0
  6 11  1  0
  6 12  1  0
  7  8  1  0
  7 10  1  0
  8 13  1  0
  9 14  1  0
 13 16  1  0
 14 17  2  0
M  END
>  <DRUGBANK_ID>  (1) 
DB01154

>  <SECONDARY_ACCESSION_NUMBERS>  (1) 
APRD00154

>  <COMMON_NAME>  (1) 
Thiamylal

>  <CAS_NUMBER>  (1) 
77-27-0

>  <UNII>  (1) 
01T23W89FR

>  <SYNONYMS>  (1) 
5-Allyl-5-(1-methylbutyl)-2-thiobarbituric acid; 5-allyl-5-(1-methylbutyl)-2-thioxodihydro-4,6(1H,5H)-pyrimidinedione; 5-allyl-5-(1-methylbutyl)-2-thioxodihydropyrimidine-4,6(1H,5H)-dione; dihydro-5-(1-methylbutyl)-5-(2-propenyl)-2-thioxo-4,6(1H,5H)-pyrimidinedione; Thiamylal

$$$$
