
     RDKit          3D

 17 18  0  0  0  0  0  0  0  0999 V2000
    4.9659    3.1772   -0.8326 O   0  0  0  0  0  0  0  0  0  0  0  0
    2.4472    2.6712   -0.5851 O   0  0  0  0  0  0  0  0  0  0  0  0
    2.2656   -0.9167   -2.5633 O   0  0  0  0  0  0  0  0  0  0  0  0
    4.2597    0.9817   -3.2888 N   0  0  0  0  0  0  0  0  0  0  0  0
    6.4985    1.0908   -1.6849 N   0  0  0  0  0  0  0  0  0  0  0  0
    5.4398   -0.5501   -0.2341 N   0  0  0  0  0  0  0  0  0  0  0  0
    3.4313   -1.6617   -0.7410 N   0  0  0  0  0  0  0  0  0  0  0  0
    4.6499   -2.2186    1.1142 N   0  0  0  0  0  0  0  0  0  0  0  0
    4.9018    2.3054   -3.1971 C   0  0  1  0  0  0  0  0  0  0  0  0
    4.2918    3.2714   -2.1041 C   0  0  1  0  0  0  0  0  0  0  0  0
    6.3865    1.9527   -2.9055 C   0  0  0  0  0  0  0  0  0  0  0  0
    2.7491    3.2279   -1.8744 C   0  0  1  0  0  0  0  0  0  0  0  0
    4.3963    0.0947   -2.2191 C   0  0  0  0  0  0  0  0  0  0  0  0
    5.4614    0.1889   -1.3820 C   0  0  0  0  0  0  0  0  0  0  0  0
    1.9416    2.4703   -2.9122 C   0  0  0  0  0  0  0  0  0  0  0  0
    3.2848   -0.8826   -1.8620 C   0  0  0  0  0  0  0  0  0  0  0  0
    4.4756   -1.4754    0.0018 C   0  0  0  0  0  0  0  0  0  0  0  0
  3 16  2  0
  4  9  1  0
  4 13  1  0
  5 11  1  0
  5 14  1  0
  6 14  1  0
  6 17  1  0
  7 16  1  0
  7 17  2  0
  8 17  1  0
  9 11  1  1
  9 10  1  0
 10  1  1  1
 12 15  1  6
 12 10  1  0
 12  2  1  0
 13 14  2  0
 13 16  1  0
M  END
>  <DRUGBANK_ID>  (1) 
DB03918

>  <SECONDARY_ACCESSION_NUMBERS>  (1) 
EXPT00702

>  <COMMON_NAME>  (1) 
6S-5,6,7,8-Tetrahydrobiopterin

$$$$
