IQA
     RDKit          3D

 22 25  0  0  0  0  0  0  0  0999 V2000
    0.9167    0.0972    0.0068 O   0  0  0  0  0  0  0  0  0  0  0  0
    0.3317    1.1973   -0.5275 C   0  0  0  0  0  0  0  0  0  0  0  0
    1.0154    2.1106   -0.9547 O   0  0  0  0  0  0  0  0  0  0  0  0
   -1.1821    1.1269   -0.5330 C   0  0  0  0  0  0  0  0  0  0  0  0
   -1.6604   -0.0044   -1.3835 C   0  0  0  0  0  0  0  0  0  0  0  0
   -1.4323   -1.3411   -1.1719 C   0  0  0  0  0  0  0  0  0  0  0  0
   -0.7631   -1.8707   -0.0891 N   0  0  0  0  0  0  0  0  0  0  0  0
   -0.4830   -3.2558   -0.0463 C   0  0  0  0  0  0  0  0  0  0  0  0
    0.1547   -3.6749    0.9062 O   0  0  0  0  0  0  0  0  0  0  0  0
   -0.9648   -4.0732   -1.1793 C   0  0  0  0  0  0  0  0  0  0  0  0
   -0.7095   -5.4487   -1.1626 C   0  0  0  0  0  0  0  0  0  0  0  0
   -1.1528   -6.2436   -2.2152 C   0  0  0  0  0  0  0  0  0  0  0  0
   -1.8358   -5.6680   -3.2795 C   0  0  0  0  0  0  0  0  0  0  0  0
   -2.0826   -4.2986   -3.3021 C   0  0  0  0  0  0  0  0  0  0  0  0
   -1.6590   -3.4857   -2.2572 C   0  0  0  0  0  0  0  0  0  0  0  0
   -1.8912   -2.0847   -2.2333 N   0  0  0  0  0  0  0  0  0  0  0  0
   -2.5139   -1.2232   -3.1355 C   0  0  0  0  0  0  0  0  0  0  0  0
   -2.4041    0.0766   -2.6020 C   0  0  0  0  0  0  0  0  0  0  0  0
   -2.9719    1.1591   -3.3145 C   0  0  0  0  0  0  0  0  0  0  0  0
   -3.6206    0.9429   -4.5323 C   0  0  0  0  0  0  0  0  0  0  0  0
   -3.7039   -0.3317   -5.0577 C   0  0  0  0  0  0  0  0  0  0  0  0
   -3.1576   -1.4165   -4.3751 C   0  0  0  0  0  0  0  0  0  0  0  0
  1  2  1  0
  2  3  2  0
  2  4  1  0
  4  5  1  0
  5  6  2  0
  5 18  1  0
  6  7  1  0
  6 16  1  0
  7  8  1  0
  8  9  2  0
  8 10  1  0
 10 11  1  0
 10 15  2  0
 11 12  2  0
 12 13  1  0
 13 14  2  0
 14 15  1  0
 15 16  1  0
 16 17  1  0
 17 18  2  0
 17 22  1  0
 18 19  1  0
 19 20  2  0
 20 21  1  0
 21 22  2  0
M  END
>  <DRUGBANK_ID>  (1) 
DB01765

>  <SECONDARY_ACCESSION_NUMBERS>  (1) 
EXPT01927

>  <COMMON_NAME>  (1) 
(5-hydroxyindolo[1,2-a]quinazolin-7-yl)acetic acid

>  <CAS_NUMBER>  (1) 
391670-48-7

>  <SYNONYMS>  (1) 
(5-oxo-5,6-dihydro-indolo[1,2-a]quinazolin-7-yl)-acetic acid

$$$$
