IAP
     RDKit          3D

 14 14  0  0  0  0  0  0  0  0999 V2000
    1.0075   -0.0126    0.0989 B   0  0  0  0  0  0  0  0  0  0  0  0
    0.2575   -1.3112    0.0641 O   0  0  0  0  0  0  0  0  0  0  0  0
    0.2575    1.2860    0.1337 O   0  0  0  0  0  0  0  0  0  0  0  0
    2.6075   -0.0126    0.0989 C   0  0  0  0  0  0  0  0  0  0  0  0
    3.2589    1.1441    0.1299 C   0  0  0  0  0  0  0  0  0  0  0  0
    4.6236    1.1743    0.2862 C   0  0  0  0  0  0  0  0  0  0  0  0
    5.3531    0.0184    0.3217 C   0  0  0  0  0  0  0  0  0  0  0  0
    4.6660   -1.1087    0.3633 C   0  0  0  0  0  0  0  0  0  0  0  0
    3.2869   -1.2192    0.0666 C   0  0  0  0  0  0  0  0  0  0  0  0
    5.3839   -2.3336    0.7442 N   0  0  0  0  0  0  0  0  0  0  0  0
    4.6679   -3.6159    0.8066 C   0  0  0  0  0  0  0  0  0  0  0  0
    5.2886   -4.6749    1.1360 O   0  0  0  0  0  0  0  0  0  0  0  0
    3.1852   -3.6753    0.4771 C   0  0  0  0  0  0  0  0  0  0  0  0
    2.0988   -2.4074    1.8316 I   0  0  0  0  0  0  0  0  0  0  0  0
  1  2  1  0
  1  3  1  0
  1  4  1  0
  4  5  2  0
  4  9  1  0
  5  6  1  0
  6  7  2  0
  7  8  1  0
  8  9  2  0
  8 10  1  0
 10 11  1  0
 11 12  2  0
 11 13  1  0
 13 14  1  0
M  END
>  <DRUGBANK_ID>  (1) 
DB02122

>  <SECONDARY_ACCESSION_NUMBERS>  (1) 
EXPT01822

>  <COMMON_NAME>  (1) 
4-iodo-acetamido phenylboronic acid

$$$$
