
     RDKit          3D

 12 11  0  0  0  0  0  0  0  0999 V2000
    2.9789   -0.2496    1.5096 C   0  0  0  0  0  0  0  0  0  0  0  0
   -1.1811    1.4868   -2.5342 C   0  0  0  0  0  0  0  0  0  0  0  0
    2.3746   -0.0170    2.5479 O   0  0  0  0  0  0  0  0  0  0  0  0
   -1.7643    2.1342   -3.5624 O   0  0  0  0  0  0  0  0  0  0  0  0
    4.2446   -0.7146    1.5602 O   0  0  0  0  0  0  0  0  0  0  0  0
   -1.8476    0.8879   -1.7018 O   0  0  0  0  0  0  0  0  0  0  0  0
    0.3303    1.5705   -2.5172 C   0  0  0  0  0  0  0  0  0  0  0  0
    2.4876    0.0032    0.0846 C   0  0  2  0  0  0  0  0  0  0  0  0
    0.9552    0.0599    0.0593 C   0  0  0  0  0  0  0  0  0  0  0  0
    0.8442    2.2540   -1.2476 C   0  0  0  0  0  0  0  0  0  0  0  0
    0.4674    1.5130    0.0474 C   0  0  0  0  0  0  0  0  0  0  0  0
    2.9686   -1.0203   -0.8686 N   0  0  0  0  0  0  0  0  0  0  0  0
  3  1  2  0
  4  2  1  0
  5  1  1  0
  6  2  2  0
  7  2  1  0
  8 12  1  6
  8  9  1  0
  8  1  1  0
 10  7  1  0
 11  9  1  0
 11 10  1  0
M  END
>  <DRUGBANK_ID>  (1) 
DB03134

>  <SECONDARY_ACCESSION_NUMBERS>  (1) 
EXPT02383

>  <COMMON_NAME>  (1) 
L-2-aminopimelic acid

>  <CAS_NUMBER>  (1) 
26630-55-7

>  <UNII>  (1) 
0603E10Z5S

>  <SYNONYMS>  (1) 
(2S)-2-Aminoheptanedioic acid; (S)-2-aminoheptanedioic acid; 2-Aminopimelic acid; L-alpha-Aminopimelic acid; L-Î±-aminopimelic acid

$$$$
