675
     RDKit          3D

 28 30  0  0  0  0  0  0  0  0999 V2000
    1.0504   -0.1067   -0.3574 O   0  0  0  0  0  0  0  0  0  0  0  0
    2.3298    2.1081    1.3081 N   0  0  0  0  0  0  0  0  0  0  0  0
   -2.0745   -4.8141    0.0622 C   0  0  0  0  0  0  0  0  0  0  0  0
   -3.1686   -5.0042   -0.7601 C   0  0  0  0  0  0  0  0  0  0  0  0
   -1.2991   -3.5051    0.1878 C   0  0  0  0  0  0  0  0  0  0  0  0
   -3.9917   -6.3142   -0.8205 C   0  0  0  0  0  0  0  0  0  0  0  0
   -1.6297   -6.0123    0.8753 C   0  0  0  0  0  0  0  0  0  0  0  0
   -3.7285   -3.9780   -1.7155 C   0  0  0  0  0  0  0  0  0  0  0  0
   -0.0656   -3.4295    0.8398 C   0  0  0  0  0  0  0  0  0  0  0  0
   -1.7448   -2.2973   -0.3584 C   0  0  0  0  0  0  0  0  0  0  0  0
   -5.4197   -6.2609   -0.2954 C   0  0  0  0  0  0  0  0  0  0  0  0
    0.3675   -1.2380   -0.0701 C   0  0  0  0  0  0  0  0  0  0  0  0
    0.7379   -2.2792    0.7789 C   0  0  0  0  0  0  0  0  0  0  0  0
   -0.8701   -1.2633   -0.6492 C   0  0  0  0  0  0  0  0  0  0  0  0
   -1.5805   -5.9210    2.2729 C   0  0  0  0  0  0  0  0  0  0  0  0
   -1.3291   -7.2532    0.2811 C   0  0  0  0  0  0  0  0  0  0  0  0
   -2.9471   -3.3475   -2.7017 C   0  0  0  0  0  0  0  0  0  0  0  0
   -5.0351   -3.4942   -1.5360 C   0  0  0  0  0  0  0  0  0  0  0  0
    2.8185    1.4300    0.0817 C   0  0  0  0  0  0  0  0  0  0  0  0
    2.4250   -0.0487   -0.0280 C   0  0  0  0  0  0  0  0  0  0  0  0
   -1.3403   -7.0512    3.0565 C   0  0  0  0  0  0  0  0  0  0  0  0
   -1.2137   -8.4038    1.0667 C   0  0  0  0  0  0  0  0  0  0  0  0
   -3.4208   -2.1914   -3.3482 C   0  0  0  0  0  0  0  0  0  0  0  0
   -5.5746   -2.4871   -2.3335 C   0  0  0  0  0  0  0  0  0  0  0  0
   -1.2075   -8.3001    2.4544 C   0  0  0  0  0  0  0  0  0  0  0  0
   -4.7429   -1.7829   -3.1879 C   0  0  0  0  0  0  0  0  0  0  0  0
    2.8478    3.4768    1.3474 C   0  0  0  0  0  0  0  0  0  0  0  0
    0.8633    2.1582    1.3726 C   0  0  0  0  0  0  0  0  0  0  0  0
  1 12  1  0
  1 20  1  0
  2 19  1  0
  2 27  1  0
  2 28  1  0
  3  4  2  0
  3  5  1  0
  3  7  1  0
  4  6  1  0
  4  8  1  0
  5  9  2  0
  5 10  1  0
  6 11  1  0
  7 15  2  0
  7 16  1  0
  8 17  2  0
  8 18  1  0
  9 13  1  0
 10 14  2  0
 12 13  2  0
 12 14  1  0
 15 21  1  0
 16 22  2  0
 17 23  1  0
 18 24  2  0
 19 20  1  0
 21 25  2  0
 22 25  1  0
 23 26  2  0
 24 26  1  0
M  END
>  <DRUGBANK_ID>  (1) 
DB00675

>  <SECONDARY_ACCESSION_NUMBERS>  (1) 
APRD00123

>  <COMMON_NAME>  (1) 
Tamoxifen

>  <CAS_NUMBER>  (1) 
10540-29-1

>  <UNII>  (1) 
094ZI81Y45

>  <SYNONYMS>  (1) 
(Z)-2-(4-(1,2-Diphenyl-1-butenyl)phenoxy)-N,N-dimethylethanamine; (Z)-2-(para-(1,2-Diphenyl-1-butenyl)phenoxy)-N,N-dimethylamine; 1-p-beta-Dimethylaminoethoxyphenyl-trans-1,2-diphenylbut-1-ene; 1-para-beta-Dimethylaminoethoxyphenyl-trans-1,2-diphenylbut-1-ene; Tamoxifen; Tamoxif√®ne; Tamoxifene; Tamoxifeno; Tamoxifenum; trans-Tamoxifen

$$$$
