
     RDKit          3D

 29 32  0  0  0  0  0  0  0  0999 V2000
    2.4564   -0.6750    0.0077 C   0  0  0  0  0  0  0  0  0  0  0  0
    2.4558    0.7189    0.0136 C   0  0  0  0  0  0  0  0  0  0  0  0
    1.2542    1.4358    0.0583 C   0  0  0  0  0  0  0  0  0  0  0  0
    0.0261    0.7728    0.0228 C   0  0  0  0  0  0  0  0  0  0  0  0
   -1.2063    1.4747   -0.0231 C   0  0  0  0  0  0  0  0  0  0  0  0
   -2.3892    0.7805   -0.2633 C   0  0  0  0  0  0  0  0  0  0  0  0
   -2.2910   -0.5834   -0.4619 C   0  0  0  0  0  0  0  0  0  0  0  0
   -1.1405   -1.3169   -0.1860 C   0  0  0  0  0  0  0  0  0  0  0  0
    0.0484   -0.6440   -0.0097 C   0  0  0  0  0  0  0  0  0  0  0  0
    1.2503   -1.3619    0.0336 C   0  0  0  0  0  0  0  0  0  0  0  0
   -3.9867    1.6075   -0.1799 S   0  0  0  0  0  0  0  0  0  0  0  0
   -3.9108    2.4520    0.9896 O   0  0  0  0  0  0  0  0  0  0  0  0
   -4.2388    2.1786   -1.4931 O   0  0  0  0  0  0  0  0  0  0  0  0
   -5.1868    0.4594    0.1787 N   0  0  0  0  0  0  0  0  0  0  0  0
   -5.0794   -0.2030    1.5087 C   0  0  0  0  0  0  0  0  0  0  0  0
   -4.4903   -1.5991    1.3840 C   0  0  0  0  0  0  0  0  0  0  0  0
   -5.1299   -2.3517    0.3192 N   0  0  0  0  0  0  0  0  0  0  0  0
   -5.4516   -1.7715   -0.9900 C   0  0  0  0  0  0  0  0  0  0  0  0
   -6.0114   -0.3500   -0.7843 C   0  0  0  0  0  0  0  0  0  0  0  0
   -5.4788   -3.6275    0.6263 C   0  0  0  0  0  0  0  0  0  0  0  0
   -5.0244   -4.5708   -0.1833 N   0  0  0  0  0  0  0  0  0  0  0  0
   -5.1992   -5.8469    0.2107 C   0  0  0  0  0  0  0  0  0  0  0  0
   -5.8689   -6.2606    1.3365 C   0  0  0  0  0  0  0  0  0  0  0  0
   -6.3454   -5.1974    2.0812 C   0  0  0  0  0  0  0  0  0  0  0  0
   -6.1328   -3.8917    1.7675 N   0  0  0  0  0  0  0  0  0  0  0  0
   -6.1118   -7.6544    1.7923 C   0  0  0  0  0  0  0  0  0  0  0  0
   -6.7648   -7.8099    2.8286 O   0  0  0  0  0  0  0  0  0  0  0  0
   -5.6710   -8.7785    1.1565 N   0  0  0  0  0  0  0  0  0  0  0  0
   -4.9290   -8.9731   -0.0002 O   0  0  0  0  0  0  0  0  0  0  0  0
  1  2  2  0
  1 10  1  0
  2  3  1  0
  3  4  2  0
  4  5  1  0
  4  9  1  0
  5  6  2  0
  6  7  1  0
  6 11  1  0
  7  8  2  0
  8  9  1  0
  9 10  2  0
 11 12  2  0
 11 13  2  0
 11 14  1  0
 14 15  1  0
 14 19  1  0
 15 16  1  0
 16 17  1  0
 17 18  1  0
 17 20  1  0
 18 19  1  0
 20 21  2  0
 20 25  1  0
 21 22  1  0
 22 23  2  0
 23 24  1  0
 23 26  1  0
 24 25  2  0
 26 27  2  0
 26 28  1  0
 28 29  1  0
M  END
>  <DRUGBANK_ID>  (1) 
DB12382

>  <COMMON_NAME>  (1) 
R-306465

>  <CAS_NUMBER>  (1) 
604769-01-9

>  <UNII>  (1) 
5WD7KK1IIQ

$$$$
