
     RDKit          3D

 29 31  0  0  0  0  0  0  0  0999 V2000
    1.0596    0.0903   -0.0918 C   0  0  0  0  0  0  0  0  0  0  0  0
    0.3581   -0.5880    0.8259 C   0  0  0  0  0  0  0  0  0  0  0  0
   -1.1494   -0.7790    0.8490 C   0  0  0  0  0  0  0  0  0  0  0  0
   -1.6800   -2.1934    0.5974 C   0  0  0  0  0  0  0  0  0  0  0  0
   -2.9248   -2.4005   -0.0096 C   0  0  0  0  0  0  0  0  0  0  0  0
   -3.4115   -3.6993   -0.2638 C   0  0  0  0  0  0  0  0  0  0  0  0
   -2.6631   -4.8301    0.0575 C   0  0  0  0  0  0  0  0  0  0  0  0
   -1.4613   -4.6570    0.7112 C   0  0  0  0  0  0  0  0  0  0  0  0
   -1.0146   -3.3460    1.0214 C   0  0  0  0  0  0  0  0  0  0  0  0
    0.0781   -3.1250    1.8047 O   0  0  0  0  0  0  0  0  0  0  0  0
   -0.7150   -5.8412    1.1801 C   0  0  0  0  0  0  0  0  0  0  0  0
   -0.8732   -7.0851    0.8664 N   0  0  0  0  0  0  0  0  0  0  0  0
   -0.0182   -8.0552    1.4023 N   0  0  0  0  0  0  0  0  0  0  0  0
    1.2255   -8.0191    2.0016 C   0  0  0  0  0  0  0  0  0  0  0  0
    1.8315   -9.0955    2.2183 O   0  0  0  0  0  0  0  0  0  0  0  0
    1.9368   -6.7291    2.3304 C   0  0  0  0  0  0  0  0  0  0  0  0
    2.0847   -5.9664    1.1037 N   0  0  0  0  0  0  0  0  0  0  0  0
    2.7838   -6.6866    0.0203 C   0  0  0  0  0  0  0  0  0  0  0  0
    4.3001   -6.6640    0.2359 C   0  0  0  0  0  0  0  0  0  0  0  0
    4.8543   -5.2994    0.3624 N   0  0  0  0  0  0  0  0  0  0  0  0
    4.1983   -4.6061    1.4685 C   0  0  0  0  0  0  0  0  0  0  0  0
    2.6899   -4.6813    1.3831 C   0  0  0  0  0  0  0  0  0  0  0  0
    4.8962   -4.5027   -0.8967 C   0  0  0  0  0  0  0  0  0  0  0  0
    3.6194   -4.0932   -1.6386 C   0  0  0  0  0  0  0  0  0  0  0  0
    2.7591   -3.0968   -1.1585 C   0  0  0  0  0  0  0  0  0  0  0  0
    1.4118   -3.0931   -1.5491 C   0  0  0  0  0  0  0  0  0  0  0  0
    0.9850   -3.8315   -2.6360 C   0  0  0  0  0  0  0  0  0  0  0  0
    1.9207   -4.5845   -3.3280 C   0  0  0  0  0  0  0  0  0  0  0  0
    3.2026   -4.7789   -2.7900 C   0  0  0  0  0  0  0  0  0  0  0  0
  1  2  2  0
  2  3  1  0
  3  4  1  0
  4  5  2  0
  4  9  1  0
  5  6  1  0
  6  7  2  0
  7  8  1  0
  8  9  2  0
  8 11  1  0
  9 10  1  0
 11 12  2  0
 12 13  1  0
 13 14  1  0
 14 15  2  0
 14 16  1  0
 16 17  1  0
 17 18  1  0
 17 22  1  0
 18 19  1  0
 19 20  1  0
 20 21  1  0
 20 23  1  0
 21 22  1  0
 23 24  1  0
 24 25  2  0
 24 29  1  0
 25 26  1  0
 26 27  2  0
 27 28  1  0
 28 29  2  0
M  END
>  <DRUGBANK_ID>  (1) 
DB13048

>  <COMMON_NAME>  (1) 
PAC-1

>  <CAS_NUMBER>  (1) 
315183-21-2

>  <UNII>  (1) 
9LIS8N0B2C

>  <SYNONYMS>  (1) 
Procaspase activating compound 1; Procaspase-activating compound 1

$$$$
