
     RDKit          3D

  3  2  0  0  0  0  0  0  0  0999 V2000
    1.0600   -0.0207    0.0773 Ca  0  0  0  0  0  2  0  0  0  0  0  0
   -1.2700   -0.0207    0.0773 F   0  0  0  0  0  0  0  0  0  0  0  0
    3.3900   -0.0207    0.0773 F   0  0  0  0  0  0  0  0  0  0  0  0
  1  2  1  0
  1  3  1  0
M  END
>  <DRUGBANK_ID>  (1) 
DB15962

>  <COMMON_NAME>  (1) 
Calcium fluoride

>  <CAS_NUMBER>  (1) 
7789-75-5

>  <UNII>  (1) 
O3B55K4YKI

>  <SYNONYMS>  (1) 
Fluorspar

$$$$
