
     RDKit          3D

 22 23  0  0  1  0  0  0  0  0999 V2000
    0.9401    0.0305    0.1413 C   0  0  0  0  0  0  0  0  0  0  0  0
    0.4846    1.3876   -0.3712 C   0  0  0  0  0  0  0  0  0  0  0  0
    0.9926    1.6405   -1.7925 C   0  0  0  0  0  0  0  0  0  0  0  0
   -6.3551   -2.1321   -2.8954 C   0  0  0  0  0  0  0  0  0  0  0  0
   -5.9259   -2.2451   -4.2076 C   0  0  0  0  0  0  0  0  0  0  0  0
   -5.5641   -2.6329   -1.8626 C   0  0  0  0  0  0  0  0  0  0  0  0
   -4.7374   -2.9111   -4.4823 C   0  0  0  0  0  0  0  0  0  0  0  0
   -4.3012   -3.1649   -2.1333 C   0  0  0  0  0  0  0  0  0  0  0  0
    0.3943    0.6733   -2.8112 C   0  0  0  0  0  0  0  0  0  0  0  0
   -1.4887   -1.2019   -6.0904 C   0  0  0  0  0  0  0  0  0  0  0  0
   -2.0284   -0.2058   -5.0839 C   0  0  0  0  0  0  0  0  0  0  0  0
   -2.5042   -3.9299   -3.7412 C   0  0  0  0  0  0  0  0  0  0  0  0
   -3.8763   -3.3338   -3.4557 C   0  0  0  0  0  0  0  0  0  0  0  0
   -1.5007   -2.9157   -4.3336 C   0  0  2  0  0  0  0  0  0  0  0  0
   -1.1547    0.6496   -2.8609 C   0  0  1  0  0  0  0  0  0  0  0  0
   -1.3536   -1.7704   -3.3112 C   0  0  0  0  0  0  0  0  0  0  0  0
   -1.7536    2.0369   -3.2266 C   0  0  0  0  0  0  0  0  0  0  0  0
   -1.8568   -2.5575   -5.7326 N   0  0  0  0  0  0  0  0  0  0  0  0
   -1.5296   -0.4680   -3.7500 N   0  0  0  0  0  0  0  0  0  0  0  0
   -1.0247   -2.0265   -2.1481 O   0  0  0  0  0  0  0  0  0  0  0  0
   -2.5137    2.3169   -4.1488 O   0  0  0  0  0  0  0  0  0  0  0  0
   -1.3845    3.0414   -2.4135 O   0  0  0  0  0  0  0  0  0  0  0  0
  2  1  1  0
  3  2  1  0
  5  4  2  0
  6  4  1  0
  7  5  1  0
  8  6  2  0
  9  3  1  0
 11 10  1  0
 13  7  2  0
 13  8  1  0
 13 12  1  0
 14 12  1  1
 15  9  1  6
 15 19  1  0
 16 14  1  0
 17 15  1  0
 18 10  1  0
 18 14  1  0
 19 11  1  0
 19 16  1  0
 20 16  2  0
 21 17  2  0
 22 17  1  0
M  END
>  <DRUGBANK_ID>  (1) 
DB03090

>  <SECONDARY_ACCESSION_NUMBERS>  (1) 
EXPT02676

>  <COMMON_NAME>  (1) 
Ethylaminobenzylmethylcarbonyl Group

$$$$
