
     RDKit          3D

 23 25  0  0  0  0  0  0  0  0999 V2000
    1.3128   -0.0721    0.2361 C   0  0  0  0  0  0  0  0  0  0  0  0
    0.4291   -1.2350   -0.1531 C   0  0  0  0  0  0  0  0  0  0  0  0
    0.5394    1.1447   -0.2587 C   0  0  0  0  0  0  0  0  0  0  0  0
   -0.9753   -0.7156    0.0317 C   0  0  0  0  0  0  0  0  0  0  0  0
   -1.9400    1.5413   -0.7862 C   0  0  0  0  0  0  0  0  0  0  0  0
   -5.1504    1.9293    2.7778 C   0  0  0  0  0  0  0  0  0  0  0  0
   -6.8052   -0.1235    1.8797 C   0  0  0  0  0  0  0  0  0  0  0  0
   -0.9075    0.8189    0.1039 C   0  0  0  0  0  0  0  0  0  0  0  0
   -6.3015    1.5959    3.5078 C   0  0  0  0  0  0  0  0  0  0  0  0
   -4.8121    1.2695    1.5973 C   0  0  0  0  0  0  0  0  0  0  0  0
   -7.1182    0.5469    3.0753 C   0  0  0  0  0  0  0  0  0  0  0  0
   -5.6802    0.2717    1.1459 C   0  0  0  0  0  0  0  0  0  0  0  0
   -3.4117    1.2582   -0.4146 C   0  0  0  0  0  0  0  0  0  0  0  0
   -6.5720    2.5743    4.9008 Cl  0  0  0  0  0  0  0  0  0  0  0  0
   -9.8014    0.0976    3.0008 N   0  0  0  0  0  0  0  0  0  0  0  0
   -3.6269    1.5949    0.9663 N   0  0  0  0  0  0  0  0  0  0  0  0
   -3.6940   -0.1468   -0.5497 N   0  0  0  0  0  0  0  0  0  0  0  0
   -8.2717   -1.4808    4.2327 O   0  0  0  0  0  0  0  0  0  0  0  0
   -8.7947    0.8132    5.1316 O   0  0  0  0  0  0  0  0  0  0  0  0
   -6.0511    0.0038   -1.4204 O   0  0  0  0  0  0  0  0  0  0  0  0
   -5.2595   -1.9943   -0.0666 O   0  0  0  0  0  0  0  0  0  0  0  0
   -8.4770   -0.0652    4.0344 S   0  0  0  0  0  0  0  0  0  0  0  0
   -5.2839   -0.5713   -0.3496 S   0  0  0  0  0  0  0  0  0  0  0  0
  2  1  1  0
  3  1  1  0
  4  2  1  0
  8  3  1  0
  8  4  1  0
  8  5  1  0
  9  6  2  0
 10  6  1  0
 11  7  2  0
 11  9  1  0
 12  7  1  0
 12 10  2  0
 13  5  1  0
 14  9  1  0
 16 10  1  0
 16 13  1  0
 17 13  1  0
 22 11  1  0
 22 15  1  0
 22 18  2  0
 22 19  2  0
 23 12  1  0
 23 17  1  0
 23 20  2  0
 23 21  2  0
M  END
>  <DRUGBANK_ID>  (1) 
DB13532

>  <COMMON_NAME>  (1) 
Cyclopenthiazide

>  <CAS_NUMBER>  (1) 
742-20-1

>  <UNII>  (1) 
VX4S2N85F5

$$$$
