
     RDKit          3D

 17 18  0  0  0  0  0  0  0  0999 V2000
    0.1298    1.3088   -0.0029 C   0  0  0  0  0  0  0  0  0  0  0  0
   -0.9614   -4.4860   -3.7612 C   0  0  0  0  0  0  0  0  0  0  0  0
   -1.2675    1.2621   -0.0100 C   0  0  0  0  0  0  0  0  0  0  0  0
    0.0290   -4.3718   -2.7926 C   0  0  0  0  0  0  0  0  0  0  0  0
   -1.8847   -2.5464    0.0043 C   0  0  0  0  0  0  0  0  0  0  0  0
    0.1781   -1.0851    0.1369 C   0  0  0  0  0  0  0  0  0  0  0  0
   -2.5654   -3.4963   -2.2367 C   0  0  0  0  0  0  0  0  0  0  0  0
   -1.2223   -1.1742    0.0508 C   0  0  0  0  0  0  0  0  0  0  0  0
   -1.5686   -3.3368   -1.2594 C   0  0  0  0  0  0  0  0  0  0  0  0
    0.8488    0.1307    0.0630 C   0  0  0  0  0  0  0  0  0  0  0  0
   -2.2620   -4.0863   -3.4664 C   0  0  0  0  0  0  0  0  0  0  0  0
   -1.9330    0.0262    0.0025 C   0  0  0  0  0  0  0  0  0  0  0  0
   -0.2966   -3.8632   -1.5363 C   0  0  0  0  0  0  0  0  0  0  0  0
    2.5692    0.1397    0.0422 Cl  0  0  0  0  0  0  0  0  0  0  0  0
   -3.5017   -4.3111   -4.6379 Cl  0  0  0  0  0  0  0  0  0  0  0  0
   -3.2988   -0.0028   -0.0178 O   0  0  0  0  0  0  0  0  0  0  0  0
    0.6524   -3.9285   -0.5577 O   0  0  0  0  0  0  0  0  0  0  0  0
  3  1  2  0
  4  2  2  0
  8  5  1  0
  8  6  1  0
  9  5  1  0
  9  7  1  0
 10  1  1  0
 10  6  2  0
 11  2  1  0
 11  7  2  0
 12  3  1  0
 12  8  2  0
 13  4  1  0
 13  9  2  0
 14 10  1  0
 15 11  1  0
 16 12  1  0
 17 13  1  0
M  END
>  <DRUGBANK_ID>  (1) 
DB11396

>  <COMMON_NAME>  (1) 
Dichlorophen

>  <CAS_NUMBER>  (1) 
97-23-4

>  <UNII>  (1) 
T1J0JOU64O

>  <SYNONYMS>  (1) 
2,2'-Methylenebis(4-chlorophenol); Dichlorophen; Dichlorophene; Dichlorophenum; Diclorofeno

$$$$
