
     RDKit          3D

  7  7  0  0  0  0  0  0  0  0999 V2000
   -1.2567   -0.0392    0.0222 I   0  0  0  0  0  0  0  0  0  0  0  0
    0.8220   -0.0136    0.0206 C   0  0  0  0  0  0  0  0  0  0  0  0
    1.4994    1.2058    0.0165 C   0  0  0  0  0  0  0  0  0  0  0  0
    2.8950    1.2222   -0.0034 C   0  0  0  0  0  0  0  0  0  0  0  0
    3.6077    0.0228   -0.0178 C   0  0  0  0  0  0  0  0  0  0  0  0
    2.9267   -1.1945   -0.0038 C   0  0  0  0  0  0  0  0  0  0  0  0
    1.5310   -1.2155    0.0158 C   0  0  0  0  0  0  0  0  0  0  0  0
  1  2  1  0
  2  3  2  0
  2  7  1  0
  3  4  1  0
  4  5  2  0
  5  6  1  0
  6  7  2  0
M  END
>  <DRUGBANK_ID>  (1) 
DB02252

>  <SECONDARY_ACCESSION_NUMBERS>  (1) 
EXPT02599

>  <COMMON_NAME>  (1) 
Iodobenzene

>  <CAS_NUMBER>  (1) 
591-50-4

>  <UNII>  (1) 
9HK5L7YBBR

>  <SYNONYMS>  (1) 
Benzene iodide; Iodinebenzol; Iodo-benzene; Phenyl iodide

$$$$
