BI9
     RDKit          3D

 33 36  0  0  0  0  0  0  0  0999 V2000
   -0.7516    1.2696    0.2183 C   0  0  0  0  0  0  0  0  0  0  0  0
    0.6972    1.1703   -0.2771 C   0  0  0  0  0  0  0  0  0  0  0  0
    1.3400   -0.0270    0.1955 O   0  0  0  0  0  0  0  0  0  0  0  0
    0.6275   -1.1877   -0.2700 C   0  0  0  0  0  0  0  0  0  0  0  0
   -0.8244   -1.2042    0.2434 C   0  0  0  0  0  0  0  0  0  0  0  0
   -1.4916    0.0544   -0.1167 N   0  0  0  0  0  0  0  0  0  0  0  0
   -2.5987    0.0485   -0.9315 C   0  0  0  0  0  0  0  0  0  0  0  0
   -2.6166    0.6532   -2.1953 C   0  0  0  0  0  0  0  0  0  0  0  0
   -3.7446    0.5910   -3.0433 C   0  0  0  0  0  0  0  0  0  0  0  0
   -3.7770    1.1202   -4.3162 O   0  0  0  0  0  0  0  0  0  0  0  0
   -2.5606    1.7050   -4.7813 C   0  0  0  0  0  0  0  0  0  0  0  0
   -3.7514   -0.6085   -0.5181 C   0  0  0  0  0  0  0  0  0  0  0  0
   -4.8627   -0.6986   -1.3492 C   0  0  0  0  0  0  0  0  0  0  0  0
   -4.9057   -0.0727   -2.6045 C   0  0  0  0  0  0  0  0  0  0  0  0
   -6.1024   -0.0875   -3.3501 N   0  0  0  0  0  0  0  0  0  0  0  0
   -7.3003   -0.6661   -2.9396 C   0  0  0  0  0  0  0  0  0  0  0  0
   -7.7490   -1.7542   -3.5829 N   0  0  0  0  0  0  0  0  0  0  0  0
   -7.8557   -0.2109   -1.8034 N   0  0  0  0  0  0  0  0  0  0  0  0
   -8.8656   -0.9198   -1.2746 C   0  0  0  0  0  0  0  0  0  0  0  0
   -9.3360   -2.0918   -1.8172 C   0  0  0  0  0  0  0  0  0  0  0  0
  -10.7079   -2.8411   -1.0956 Cl  0  0  0  0  0  0  0  0  0  0  0  0
   -8.7444   -2.4894   -3.0201 C   0  0  0  0  0  0  0  0  0  0  0  0
   -9.2748   -3.5989   -3.7731 N   0  0  0  0  0  0  0  0  0  0  0  0
   -9.0051   -3.7901   -5.1705 C   0  0  0  0  0  0  0  0  0  0  0  0
   -7.7036   -4.3099   -5.3820 C   0  0  0  0  0  0  0  0  0  0  0  0
   -7.2330   -4.6612   -6.6365 C   0  0  0  0  0  0  0  0  0  0  0  0
   -8.0613   -4.5016   -7.7310 C   0  0  0  0  0  0  0  0  0  0  0  0
   -9.3338   -3.9343   -7.5675 C   0  0  0  0  0  0  0  0  0  0  0  0
   -9.8293   -3.4838   -6.3088 C   0  0  0  0  0  0  0  0  0  0  0  0
  -11.1419   -2.6665   -6.4821 C   0  0  0  0  0  0  0  0  0  0  0  0
  -11.6531   -2.5551   -7.6174 O   0  0  0  0  0  0  0  0  0  0  0  0
  -11.8069   -1.9633   -5.5020 N   0  0  0  0  0  0  0  0  0  0  0  0
  -11.2976   -1.7114   -4.2193 C   0  0  0  0  0  0  0  0  0  0  0  0
  1  2  1  0
  1  6  1  0
  2  3  1  0
  3  4  1  0
  4  5  1  0
  5  6  1  0
  6  7  1  0
  7  8  2  0
  7 12  1  0
  8  9  1  0
  9 10  1  0
  9 14  2  0
 10 11  1  0
 12 13  2  0
 13 14  1  0
 14 15  1  0
 15 16  1  0
 16 17  2  0
 16 18  1  0
 17 22  1  0
 18 19  2  0
 19 20  1  0
 20 21  1  0
 20 22  2  0
 22 23  1  0
 23 24  1  0
 24 25  2  0
 24 29  1  0
 25 26  1  0
 26 27  2  0
 27 28  1  0
 28 29  2  0
 29 30  1  0
 30 31  2  0
 30 32  1  0
 32 33  1  0
M  END
>  <DRUGBANK_ID>  (1) 
DB07460

>  <COMMON_NAME>  (1) 
2-({5-CHLORO-2-[(2-METHOXY-4-MORPHOLIN-4-YLPHENYL)AMINO]PYRIMIDIN-4-YL}AMINO)-N-METHYLBENZAMIDE

$$$$
