GVI
     RDKit          3D

 18 20  0  0  0  0  0  0  0  0999 V2000
   -2.1074    0.7034    0.0486 N   0  0  0  0  0  0  0  0  0  0  0  0
   -2.0172   -0.6449    0.0072 C   0  0  0  0  0  0  0  0  0  0  0  0
   -0.9055   -1.4107   -0.0143 N   0  0  0  0  0  0  0  0  0  0  0  0
    0.1975   -0.6502   -0.0063 C   0  0  0  0  0  0  0  0  0  0  0  0
    0.2754    0.7338    0.0042 C   0  0  0  0  0  0  0  0  0  0  0  0
   -0.8703    7.2067    0.3262 C   0  0  0  0  0  0  0  0  0  0  0  0
    1.5963    1.1374    0.0036 N   0  0  0  0  0  0  0  0  0  0  0  0
    2.2975    0.0231    0.0177 C   0  0  0  0  0  0  0  0  0  0  0  0
    1.4914   -1.0802    0.0106 N   0  0  0  0  0  0  0  0  0  0  0  0
   -0.8749    5.6995    0.2692 C   0  0  0  0  0  0  0  0  0  0  0  0
   -1.5149    4.9466    1.2619 C   0  0  0  0  0  0  0  0  0  0  0  0
   -1.5776    3.5512    1.1673 C   0  0  0  0  0  0  0  0  0  0  0  0
   -0.9941    2.8759    0.0840 C   0  0  0  0  0  0  0  0  0  0  0  0
   -0.3841    3.6423   -0.9211 C   0  0  0  0  0  0  0  0  0  0  0  0
   -0.2952    5.0314   -0.8153 C   0  0  0  0  0  0  0  0  0  0  0  0
    0.4858    7.7501    0.3786 N   0  0  0  0  0  0  0  0  0  0  0  0
   -0.9473    1.4186    0.0331 C   0  0  0  0  0  0  0  0  0  0  0  0
    0.4440    9.2041    0.4299 C   0  0  0  0  0  0  0  0  0  0  0  0
  1  2  2  0
  1 17  1  0
  2  3  1  0
  3  4  2  0
  4  5  1  0
  4  9  1  0
  5  7  1  0
  5 17  2  0
  6 10  1  0
  6 16  1  0
  7  8  2  0
  8  9  1  0
 10 11  2  0
 10 15  1  0
 11 12  1  0
 12 13  2  0
 13 14  1  0
 13 17  1  0
 14 15  2  0
 16 18  1  0
M  END
>  <DRUGBANK_ID>  (1) 
DB07854

>  <COMMON_NAME>  (1) 
N-METHYL-1-[4-(9H-PURIN-6-YL)PHENYL]METHANAMINE

$$$$
