
     RDKit          3D

 29 31  0  0  1  0  0  0  0  0999 V2000
   -1.8137   -3.8043    0.8929 C   0  0  0  0  0  0  0  0  0  0  0  0
   -1.2364   -3.7817    2.2611 C   0  0  0  0  0  0  0  0  0  0  0  0
   -1.9973   -3.8924    3.4360 C   0  0  0  0  0  0  0  0  0  0  0  0
   -1.3088   -4.3229    4.5426 C   0  0  0  0  0  0  0  0  0  0  0  0
    0.0759   -4.2841    4.6180 C   0  0  0  0  0  0  0  0  0  0  0  0
    0.8387   -4.0098    3.5180 C   0  0  0  0  0  0  0  0  0  0  0  0
    0.1828   -3.7952    2.3296 C   0  0  0  0  0  0  0  0  0  0  0  0
    0.9251   -3.5453    1.2403 F   0  0  0  0  0  0  0  0  0  0  0  0
   -3.3766   -3.5455    3.5982 N   0  0  0  0  0  0  0  0  0  0  0  0
   -4.1410   -3.3103    4.7307 C   0  0  0  0  0  0  0  0  0  0  0  0
   -5.3708   -3.3611    4.6232 O   0  0  0  0  0  0  0  0  0  0  0  0
   -3.6157   -2.9366    5.9637 N   0  0  0  0  0  0  0  0  0  0  0  0
   -2.3159   -2.4702    6.4003 C   0  0  0  0  0  0  0  0  0  0  0  0
   -1.6857   -3.1189    7.4715 C   0  0  0  0  0  0  0  0  0  0  0  0
   -0.2777   -2.9969    7.6257 C   0  0  0  0  0  0  0  0  0  0  0  0
    0.5225   -2.1592    6.7841 C   0  0  0  0  0  0  0  0  0  0  0  0
   -0.0835   -1.4857    5.7146 C   0  0  0  0  0  0  0  0  0  0  0  0
   -1.5002   -1.6723    5.5608 C   0  0  0  0  0  0  0  0  0  0  0  0
   -2.1163   -1.2893    4.4043 O   0  0  0  0  0  0  0  0  0  0  0  0
    0.9733   -0.6961    4.3500 S   0  0  0  0  0  0  0  0  0  0  0  0
    1.5457    0.5166    4.9451 O   0  0  0  0  0  0  0  0  0  0  0  0
    1.8908   -1.6295    3.7604 O   0  0  0  0  0  0  0  0  0  0  0  0
   -0.1925   -0.1747    3.0818 C   0  0  1  0  0  0  0  0  0  0  0  0
   -1.0463    0.8699    3.8038 C   0  0  0  0  0  0  0  0  0  0  0  0
   -2.1458    1.3893    2.9394 C   0  0  0  0  0  0  0  0  0  0  0  0
   -1.4652    2.0674    1.7747 C   0  0  0  0  0  0  0  0  0  0  0  0
   -0.6932    1.0913    0.9946 N   0  0  0  0  0  0  0  0  0  0  0  0
    0.3910    0.4702    1.8137 C   0  0  0  0  0  0  0  0  0  0  0  0
    2.2403   -2.3410    6.9252 Cl  0  0  0  0  0  0  0  0  0  0  0  0
  1  2  1  0
  2  3  2  0
  2  7  1  0
  3  4  1  0
  3  9  1  0
  4  5  2  0
  5  6  1  0
  6  7  2  0
  7  8  1  0
  9 10  1  0
 10 11  2  0
 10 12  1  0
 12 13  1  0
 13 14  2  0
 13 18  1  0
 14 15  1  0
 15 16  2  0
 16 17  1  0
 16 29  1  0
 17 18  2  0
 17 20  1  0
 18 19  1  0
 20 21  2  0
 20 22  2  0
 23 24  1  0
 23 28  1  0
 23 20  1  1
 24 25  1  0
 25 26  1  0
 26 27  1  0
 27 28  1  0
M  END
>  <DRUGBANK_ID>  (1) 
DB11922

>  <COMMON_NAME>  (1) 
Danirixin

>  <CAS_NUMBER>  (1) 
954126-98-8

>  <UNII>  (1) 
R318PGH5VP

>  <SYNONYMS>  (1) 
Danirixin

$$$$
