
     RDKit          3D

 36 40  0  0  0  0  0  0  0  0999 V2000
   -0.7234   -2.3482   -3.4668 C   0  0  1  0  0  0  0  0  0  0  0  0
   -0.6173   -1.2436   -2.2943 C   0  0  2  0  0  0  0  0  0  0  0  0
   -1.0588    0.3257   -3.0048 C   0  0  1  0  0  0  0  0  0  0  0  0
    1.7377    2.3886   -6.9240 N   0  0  0  0  0  0  0  0  0  0  0  0
   -0.4581    0.3010   -4.3041 C   0  0  1  0  0  0  0  0  0  0  0  0
    0.4336   -3.1780   -5.1143 C   0  0  2  0  0  0  0  0  0  0  0  0
    1.4541   -0.9385   -2.9697 C   0  0  1  0  0  0  0  0  0  0  0  0
    0.7425   -2.7973   -3.6664 C   0  0  1  0  0  0  0  0  0  0  0  0
    2.9756    2.3235   -6.0906 C   0  0  1  0  0  0  0  0  0  0  0  0
    0.9585    2.6484   -5.8502 C   0  0  1  0  0  0  0  0  0  0  0  0
    0.9042    0.2205   -3.7196 C   0  0  0  0  0  0  0  0  0  0  0  0
    0.7525   -2.1396   -1.4220 C   0  0  0  0  0  0  0  0  0  0  0  0
   -0.4141   -3.6537   -2.0417 C   0  0  0  0  0  0  0  0  0  0  0  0
   -2.3578   -2.1441   -3.7621 C   0  0  0  0  0  0  0  0  0  0  0  0
   -0.8452   -0.6795   -5.1473 O   0  0  0  0  0  0  0  0  0  0  0  0
    1.3857    0.9039   -5.9282 C   0  0  0  0  0  0  0  0  0  0  0  0
    3.6892    1.0895   -6.1748 C   0  0  0  0  0  0  0  0  0  0  0  0
    0.0308   -1.5208   -5.7120 C   0  0  0  0  0  0  0  0  0  0  0  0
   -2.5216    0.4502   -3.3664 C   0  0  1  0  0  0  0  0  0  0  0  0
    2.8459    0.3856   -5.3075 C   0  0  0  0  0  0  0  0  0  0  0  0
    1.2956    0.0237   -1.2527 C   0  0  0  0  0  0  0  0  0  0  0  0
    0.9654   -3.5169   -1.4447 C   0  0  0  0  0  0  0  0  0  0  0  0
    2.0912    4.1167   -6.3135 C   0  0  0  0  0  0  0  0  0  0  0  0
    3.4861    3.3379   -6.8682 C   0  0  0  0  0  0  0  0  0  0  0  0
    3.5112   -1.2472   -5.7066 S   0  0  0  0  0  0  0  0  0  0  0  0
   -3.0541   -0.7888   -4.0653 C   0  0  0  0  0  0  0  0  0  0  0  0
    1.9985   -1.9605   -1.3857 O   0  0  0  0  0  0  0  0  0  0  0  0
   -0.7814   -2.2528   -6.4440 O   0  0  0  0  0  0  0  0  0  0  0  0
    1.6780   -0.4578    0.0434 C   0  0  0  0  0  0  0  0  0  0  0  0
    1.9605   -1.9349   -5.1426 C   0  0  0  0  0  0  0  0  0  0  0  0
   -0.5954   -4.0071   -4.2785 O   0  0  0  0  0  0  0  0  0  0  0  0
   -0.5339    1.7847   -2.5046 C   0  0  0  0  0  0  0  0  0  0  0  0
    1.1492    1.8875   -8.1230 C   0  0  0  0  0  0  0  0  0  0  0  0
    3.3497   -1.1263   -2.8545 C   0  0  0  0  0  0  0  0  0  0  0  0
    1.2171   -2.4996   -6.8623 C   0  0  0  0  0  0  0  0  0  0  0  0
   -3.1900    0.6995   -2.0580 C   0  0  0  0  0  0  0  0  0  0  0  0
  1  6  1  0
  1 13  1  1
  1 14  1  0
  2  1  1  0
  2 12  1  6
  3  2  1  0
  3  5  1  0
  3 19  1  0
  3 32  1  1
  5 11  1  0
  5 15  1  6
  6  8  1  0
  6 35  1  6
  7 11  1  0
  7 34  1  6
  7 21  1  0
  8  7  1  0
  8 31  1  1
  9  4  1  0
  9 17  1  6
 10 16  1  1
 10  4  1  0
 16 20  1  0
 17 20  1  0
 18 15  1  0
 19 26  1  0
 19 36  1  1
 20 25  1  0
 22 13  1  0
 22 12  1  0
 23 10  1  0
 23 24  1  0
 24  9  1  0
 25 30  1  0
 26 14  1  0
 27 12  2  0
 28 18  2  0
 29 21  2  0
 30 18  1  0
 33  4  1  0
M  END
>  <DRUGBANK_ID>  (1) 
DB01256

>  <COMMON_NAME>  (1) 
Retapamulin

>  <CAS_NUMBER>  (1) 
224452-66-8

>  <UNII>  (1) 
4MG6O8991R

>  <SYNONYMS>  (1) 
Retapamulin; Retapamulina

$$$$
