
     RDKit          3D

  9  8  0  0  0  0  0  0  0  0999 V2000
    1.9868    0.8306    1.7198 O   0  0  0  0  0  0  0  0  0  0  0  0
    1.9880    2.0455    1.5525 C   0  0  0  0  0  0  0  0  0  0  0  0
    1.1290    2.8304    2.2446 O   0  0  0  0  0  0  0  0  0  0  0  0
    2.9175    2.8156    0.5725 C   0  0  1  0  0  0  0  0  0  0  0  0
    4.3297    2.6201    0.9424 N   0  0  0  0  0  0  0  0  0  0  0  0
    2.6503    2.3271   -0.8749 C   0  0  2  0  0  0  0  0  0  0  0  0
    3.1657    0.8856   -1.0686 C   0  0  0  0  0  0  0  0  0  0  0  0
    3.3162    3.2337   -1.9347 C   0  0  0  0  0  0  0  0  0  0  0  0
    2.9667    2.8013   -3.3560 C   0  0  0  0  0  0  0  0  0  0  0  0
  2  1  2  0
  3  2  1  0
  4  2  1  0
  4  5  1  1
  6  7  1  1
  6  4  1  0
  8  6  1  0
  9  8  1  0
M  END
>  <DRUGBANK_ID>  (1) 
DB01739

>  <SECONDARY_ACCESSION_NUMBERS>  (1) 
EXPT01856

>  <COMMON_NAME>  (1) 
L-alloisoleucine

>  <CAS_NUMBER>  (1) 
1509-34-8

>  <UNII>  (1) 
6RNR8XN7S2

>  <SYNONYMS>  (1) 
(2S,3R)-2-amino-3-methylpentanoic acid; allo-L-isoleucine; Alloisoleucine

$$$$
