
     RDKit          3D

 29 30  0  0  0  0  0  0  0  0999 V2000
   -7.4757    6.3712   -0.6846 C   0  0  0  0  0  0  0  0  0  0  0  0
   -8.5819    5.3471   -0.6005 C   0  0  0  0  0  0  0  0  0  0  0  0
   -8.4897    4.3153   -1.7183 C   0  0  0  0  0  0  0  0  0  0  0  0
   -7.1594    3.5762   -1.7142 C   0  0  0  0  0  0  0  0  0  0  0  0
   -6.9573    2.7755   -0.4496 C   0  0  0  0  0  0  0  0  0  0  0  0
   -6.8680    1.4409   -0.3787 C   0  0  0  0  0  0  0  0  0  0  0  0
   -6.9886    0.5789   -1.5776 C   0  0  0  0  0  0  0  0  0  0  0  0
   -5.7670   -0.2505   -1.8680 C   0  0  1  0  0  0  0  0  0  0  0  0
   -5.6777   -1.5604   -1.0374 C   0  0  1  0  0  0  0  0  0  0  0  0
   -6.2322   -2.6659   -1.9685 C   0  0  2  0  0  0  0  0  0  0  0  0
   -6.5557   -2.0579   -3.3351 C   0  0  0  0  0  0  0  0  0  0  0  0
   -5.9621   -0.6859   -3.3434 C   0  0  1  0  0  0  0  0  0  0  0  0
   -6.5408    0.0314   -4.4185 O   0  0  0  0  0  0  0  0  0  0  0  0
   -7.4405   -3.2040   -1.4716 O   0  0  0  0  0  0  0  0  0  0  0  0
   -4.1153   -2.1677   -0.0815 S   0  0  0  0  0  0  0  0  0  0  0  0
   -2.6953   -2.1682   -1.2679 C   0  0  0  0  0  0  0  0  0  0  0  0
   -2.5755   -2.9962   -2.5712 C   0  0  1  0  0  0  0  0  0  0  0  0
   -3.4906   -2.3497   -3.5823 C   0  0  0  0  0  0  0  0  0  0  0  0
   -3.0217   -1.0805   -4.2702 O   0  0  0  0  0  0  0  0  0  0  0  0
   -2.9568    0.1678   -3.6113 C   0  0  0  0  0  0  0  0  0  0  0  0
   -1.9975    0.3568   -2.6319 C   0  0  0  0  0  0  0  0  0  0  0  0
   -2.0999    1.4030   -1.6987 C   0  0  0  0  0  0  0  0  0  0  0  0
   -3.0189    2.4323   -1.8513 C   0  0  0  0  0  0  0  0  0  0  0  0
   -3.8725    2.3842   -2.9439 C   0  0  0  0  0  0  0  0  0  0  0  0
   -3.8258    1.2752   -3.8322 C   0  0  0  0  0  0  0  0  0  0  0  0
   -1.1549    1.3105   -0.2625 Cl  0  0  0  0  0  0  0  0  0  0  0  0
   -1.3052   -2.9302   -3.2127 O   0  0  0  0  0  0  0  0  0  0  0  0
   -6.2620    6.0970   -0.5999 O   0  0  0  0  0  0  0  0  0  0  0  0
   -7.8748    7.6355   -0.8610 O   0  0  0  0  0  0  0  0  0  0  0  0
  1  2  1  0
  1 28  2  0
  1 29  1  0
  2  3  1  0
  3  4  1  0
  4  5  1  0
  5  6  2  0
  6  7  1  0
  8  9  1  0
  8 12  1  0
  8  7  1  1
  9 10  1  0
  9 15  1  6
 10 11  1  0
 10 14  1  1
 12 11  1  0
 12 13  1  1
 15 16  1  0
 17 16  1  0
 17 18  1  0
 17 27  1  6
 18 19  1  0
 19 20  1  0
 20 21  2  0
 20 25  1  0
 21 22  1  0
 22 23  2  0
 22 26  1  0
 23 24  1  0
 24 25  2  0
M  END
>  <DRUGBANK_ID>  (1) 
DB11425

>  <COMMON_NAME>  (1) 
Luprostiol

>  <CAS_NUMBER>  (1) 
67110-79-6

>  <UNII>  (1) 
HWR60H5GZB

>  <SYNONYMS>  (1) 
Luprostiol; Luprostiolum

$$$$
