1523
     RDKit          3D

 27 29  0  0  0  0  0  0  0  0999 V2000
   -2.8486    0.1369   -0.5861 Cl  0  0  0  0  0  0  0  0  0  0  0  0
    6.6243   -1.1231    7.2007 O   0  0  0  0  0  0  0  0  0  0  0  0
    6.0673   -3.2323    7.4340 O   0  0  0  0  0  0  0  0  0  0  0  0
    4.7735   -2.2179    1.4436 N   0  0  0  0  0  0  0  0  0  0  0  0
    2.7785   -1.2553   -0.5526 N   0  0  0  0  0  0  0  0  0  0  0  0
    5.3460   -0.1415    2.2737 N   0  0  0  0  0  0  0  0  0  0  0  0
    6.1271   -2.1778    6.7850 N   0  0  0  0  0  0  0  0  0  0  0  0
    3.9107   -3.1628    0.6944 C   0  0  0  0  0  0  0  0  0  0  0  0
    2.5133   -2.7975    0.4351 C   0  0  0  0  0  0  0  0  0  0  0  0
    5.0876   -0.7190    1.0594 C   0  0  0  0  0  0  0  0  0  0  0  0
    4.7715   -2.3167    2.8497 C   0  0  0  0  0  0  0  0  0  0  0  0
    5.2521   -1.0985    3.3057 C   0  0  0  0  0  0  0  0  0  0  0  0
    4.1360    0.2872   -0.3056 C   0  0  0  0  0  0  0  0  0  0  0  0
    1.0500   -0.3701   -1.2778 C   0  0  0  0  0  0  0  0  0  0  0  0
    2.9221   -0.3911    1.2603 C   0  0  0  0  0  0  0  0  0  0  0  0
    4.4891   -3.4252    3.6641 C   0  0  0  0  0  0  0  0  0  0  0  0
    5.6290   -1.0091    4.6566 C   0  0  0  0  0  0  0  0  0  0  0  0
    2.0932    0.4434   -0.1075 C   0  0  0  0  0  0  0  0  0  0  0  0
    0.0945    0.0490    0.6832 C   0  0  0  0  0  0  0  0  0  0  0  0
    2.1448   -0.0346    2.4599 C   0  0  0  0  0  0  0  0  0  0  0  0
    5.5660   -2.1836    5.4343 C   0  0  0  0  0  0  0  0  0  0  0  0
    4.9988   -3.3702    4.9512 C   0  0  0  0  0  0  0  0  0  0  0  0
    1.4594    1.7550   -0.3734 C   0  0  0  0  0  0  0  0  0  0  0  0
    1.0959   -1.3120    0.1225 C   0  0  0  0  0  0  0  0  0  0  0  0
   -0.1810    1.5693   -0.7425 C   0  0  0  0  0  0  0  0  0  0  0  0
   -0.5267   -1.5217   -0.4660 C   0  0  0  0  0  0  0  0  0  0  0  0
   -1.1403    0.0336   -0.9507 C   0  0  0  0  0  0  0  0  0  0  0  0
  1 27  1  0
  2  7  1  0
  3  7  2  0
  4  8  1  0
  4 10  1  0
  4 11  1  0
  5  9  1  0
  5 14  1  0
  5 15  1  0
  6 10  2  0
  6 12  1  0
  7 21  1  0
  8  9  1  0
 10 13  1  0
 11 12  2  0
 11 16  1  0
 12 17  1  0
 13 18  1  0
 14 19  1  0
 15 20  1  0
 16 22  2  0
 17 21  2  0
 18 23  2  0
 18 24  1  0
 21 22  1  0
 23 25  1  0
 24 26  2  0
 25 27  2  0
 26 27  1  0
M  CHG  2   2  -1   7   1
M  END
>  <DRUGBANK_ID>  (1) 
DB01523

>  <COMMON_NAME>  (1) 
Clonitazene

>  <CAS_NUMBER>  (1) 
3861-76-5

>  <UNII>  (1) 
S90R21A2V2

>  <SYNONYMS>  (1) 
Clonitazene

$$$$
