
     RDKit          3D

 27 29  0  0  0  0  0  0  0  0999 V2000
    1.2163    0.9589    0.0506 N   0  0  0  0  0  0  0  0  0  0  0  0
    0.0204    0.4627    0.0326 C   0  0  0  0  0  0  0  0  0  0  0  0
    0.8881    2.7442    0.0936 C   0  0  1  0  0  0  0  0  0  0  0  0
    2.2148   -0.0385   -0.0073 C   0  0  0  0  0  0  0  0  0  0  0  0
    0.2363   -0.8559    0.0049 C   0  0  0  0  0  0  0  0  0  0  0  0
   -1.0416    1.2443    0.0559 N   0  0  0  0  0  0  0  0  0  0  0  0
    1.1785    3.4325    1.3675 O   0  0  0  0  0  0  0  0  0  0  0  0
    1.1013    3.9162   -1.9917 C   0  0  1  0  0  0  0  0  0  0  0  0
    1.5893   -1.1949   -0.0214 N   0  0  0  0  0  0  0  0  0  0  0  0
   -0.9633   -1.5138    0.0059 C   0  0  0  0  0  0  0  0  0  0  0  0
   -2.1257    0.5490    0.0123 C   0  0  0  0  0  0  0  0  0  0  0  0
    1.4625    4.7782    0.8879 C   0  0  1  0  0  0  0  0  0  0  0  0
    2.3089    5.1108   -0.9845 C   0  0  1  0  0  0  0  0  0  0  0  0
    2.5248    3.2515   -2.9751 O   0  0  0  0  0  0  0  0  0  0  0  0
   -2.1385   -0.7935   -0.0036 N   0  0  0  0  0  0  0  0  0  0  0  0
   -0.9710   -2.8756   -0.0084 N   0  0  0  0  0  0  0  0  0  0  0  0
   -0.2612    4.9135    1.0538 C   0  0  0  0  0  0  0  0  0  0  0  0
    3.4049    5.7602   -1.2302 O   0  0  0  0  0  0  0  0  0  0  0  0
   -0.9835    3.8503    0.2758 O   0  0  0  0  0  0  0  0  0  0  0  0
   -0.6821    3.9582   -1.4243 P   0  0  1  0  0  0  0  0  0  0  0  0
    0.3972    2.6102   -1.3184 O   0  0  0  0  0  0  0  0  0  0  0  0
   -2.1312    3.6261   -1.7521 O   0  0  0  0  0  0  0  0  0  0  0  0
   -0.3806    4.0660   -3.1244 O   0  0  0  0  0  0  0  0  0  0  0  0
    1.9996    3.1783   -0.9982 P   0  0  0  0  0  0  0  0  0  0  0  0
    0.7338    5.0789   -0.7208 O   0  0  0  0  0  0  0  0  0  0  0  0
    2.8098    2.7423    0.6348 O   0  0  0  0  0  0  0  0  0  0  0  0
    3.6020    3.7464   -0.6780 O   0  0  0  0  0  0  0  0  0  0  0  0
  1  2  1  0
  1  4  1  0
  2  5  2  0
  2  6  1  0
  3  1  1  6
  3  7  1  0
  3  8  1  0
  4  9  2  0
  5 10  1  0
  5  9  1  0
  6 11  2  0
  7 12  1  0
  8 13  1  0
  8 14  1  6
 10 15  2  0
 10 16  1  0
 11 15  1  0
 12 13  1  0
 12 17  1  6
 13 18  1  1
 17 19  1  0
 19 20  1  0
 20 21  1  0
 20 22  2  0
 20 23  1  1
 21 24  1  0
 24 25  1  0
 24 26  2  0
 24 27  1  0
M  END
>  <DRUGBANK_ID>  (1) 
DB16833

>  <COMMON_NAME>  (1) 
Adenosine disphosphate

>  <CAS_NUMBER>  (1) 
58-64-0

>  <UNII>  (1) 
61D2G4IYVH

>  <SYNONYMS>  (1) 
ADP

$$$$
