
     RDKit          3D

 42 47  0  0  0  0  0  0  0  0999 V2000
    1.3747   -0.3130   -0.0370 C   0  0  0  0  0  0  0  0  0  0  0  0
    0.6740   -0.8265    1.2078 C   0  0  0  0  0  0  0  0  0  0  0  0
    0.9968    0.0070    2.3946 C   0  0  0  0  0  0  0  0  0  0  0  0
    0.7863    1.3862    2.5727 C   0  0  0  0  0  0  0  0  0  0  0  0
    0.2475    2.3311    1.6439 N   0  0  0  0  0  0  0  0  0  0  0  0
    0.2098    3.7437    1.9618 C   0  0  0  0  0  0  0  0  0  0  0  0
   -0.3226    2.0727    0.3623 C   0  0  0  0  0  0  0  0  0  0  0  0
   -1.2301    1.1572    0.0521 N   0  0  0  0  0  0  0  0  0  0  0  0
   -1.3416    0.9239   -1.3371 C   0  0  0  0  0  0  0  0  0  0  0  0
   -0.5843    1.7535   -2.1345 C   0  0  0  0  0  0  0  0  0  0  0  0
    0.2687    2.8764   -1.1349 S   0  0  0  0  0  0  0  0  0  0  0  0
   -0.5672    1.7356   -3.5836 C   0  0  0  0  0  0  0  0  0  0  0  0
   -0.6076    1.6835   -4.7231 N   0  0  0  0  0  0  0  0  0  0  0  0
   -2.2472   -0.1124   -1.8456 C   0  0  0  0  0  0  0  0  0  0  0  0
   -3.5951   -0.0348   -1.4824 C   0  0  0  0  0  0  0  0  0  0  0  0
   -4.5171   -0.9598   -1.9751 C   0  0  0  0  0  0  0  0  0  0  0  0
   -4.0618   -2.0803   -2.6544 C   0  0  0  0  0  0  0  0  0  0  0  0
   -4.9385   -2.9985   -3.0817 F   0  0  0  0  0  0  0  0  0  0  0  0
   -2.7096   -2.2440   -2.9183 C   0  0  0  0  0  0  0  0  0  0  0  0
   -1.8283   -1.1884   -2.6504 C   0  0  0  0  0  0  0  0  0  0  0  0
    1.2641    1.5777    3.9276 N   0  0  0  0  0  0  0  0  0  0  0  0
    1.2960    2.6724    4.8226 C   0  0  0  0  0  0  0  0  0  0  0  0
    1.6487    2.5247    6.1113 C   0  0  0  0  0  0  0  0  0  0  0  0
    2.1889    1.2575    6.5176 C   0  0  0  0  0  0  0  0  0  0  0  0
    2.1943    0.1728    5.7364 C   0  0  0  0  0  0  0  0  0  0  0  0
    2.6696   -1.0939    6.3868 C   0  0  0  0  0  0  0  0  0  0  0  0
    1.6937    0.3102    4.3917 C   0  0  0  0  0  0  0  0  0  0  0  0
    1.5529   -0.6169    3.4820 N   0  0  0  0  0  0  0  0  0  0  0  0
    1.5344    3.4275    7.1478 N   0  0  0  0  0  0  0  0  0  0  0  0
    2.6798    3.6353    8.0336 C   0  0  0  0  0  0  0  0  0  0  0  0
    2.7040    4.2865    9.3774 C   0  0  0  0  0  0  0  0  0  0  0  0
    1.7076    5.3643    9.3696 N   0  0  0  0  0  0  0  0  0  0  0  0
    2.2013    6.6364    8.7047 C   0  0  0  0  0  0  0  0  0  0  0  0
    2.5722    6.7369    7.1196 C   0  0  0  0  0  0  0  0  0  0  0  0
    1.8251    7.4311    6.4104 O   0  0  0  0  0  0  0  0  0  0  0  0
    3.7819    6.1962    6.5869 N   0  0  0  0  0  0  0  0  0  0  0  0
    4.3474    4.8120    6.5538 C   0  0  0  0  0  0  0  0  0  0  0  0
    5.4478    5.2957    5.7162 C   0  0  0  0  0  0  0  0  0  0  0  0
    6.5547    5.6838    6.5615 O   0  0  0  0  0  0  0  0  0  0  0  0
    4.3739    6.3430    5.2380 C   0  0  0  0  0  0  0  0  0  0  0  0
    0.4503    4.8236    8.7648 C   0  0  0  0  0  0  0  0  0  0  0  0
    0.5192    4.4812    7.2555 C   0  0  0  0  0  0  0  0  0  0  0  0
  1  2  1  0
  2  3  1  0
  3  4  2  0
  3 28  1  0
  4  5  1  0
  4 21  1  0
  5  6  1  0
  5  7  1  0
  7  8  2  0
  7 11  1  0
  8  9  1  0
  9 10  2  0
  9 14  1  0
 10 11  1  0
 10 12  1  0
 12 13  3  0
 14 15  2  0
 14 20  1  0
 15 16  1  0
 16 17  2  0
 17 18  1  0
 17 19  1  0
 19 20  2  0
 21 22  1  0
 21 27  1  0
 22 23  2  0
 23 24  1  0
 23 29  1  0
 24 25  2  0
 25 26  1  0
 25 27  1  0
 27 28  2  0
 29 30  1  0
 29 42  1  0
 30 31  1  0
 31 32  1  0
 32 33  1  0
 32 41  1  0
 33 34  1  0
 34 35  2  0
 34 36  1  0
 36 37  1  0
 36 40  1  0
 37 38  1  0
 38 39  1  0
 38 40  1  0
 41 42  1  0
M  END
>  <DRUGBANK_ID>  (1) 
DB15403

>  <COMMON_NAME>  (1) 
Ziritaxestat

>  <CAS_NUMBER>  (1) 
1628260-79-6

>  <UNII>  (1) 
I02418V13W

>  <SYNONYMS>  (1) 
2-((2-ethyl-6-(4-(2-(3-hydroxyazetidin-1-yl)-2-oxoethyl)-piperazin-1-yl)-8-methylimidazo[1,2-a]pyridin-3-yl)-(methyl)amino)-4-(4-fluorophenyl)-thiazole-5-carbonitrile; Ziritaxestat

$$$$
