473
     RDKit          3D

 19 20  0  0  1  0  0  0  0  0999 V2000
    1.2611   -0.0095   -0.1507 O   0  0  0  0  0  0  0  0  0  0  0  0
    3.0645   -1.3824    0.0654 O   0  0  0  0  0  0  0  0  0  0  0  0
    1.6628    2.8550    0.8444 N   0  0  0  0  0  0  0  0  0  0  0  0
    2.0931    4.0368    1.5104 C   0  0  0  0  0  0  0  0  0  0  0  0
    1.1363    4.0711    2.6500 C   0  0  0  0  0  0  0  0  0  0  0  0
    2.3212    5.2788    0.6331 C   0  0  0  0  0  0  0  0  0  0  0  0
    1.4747    5.2310    3.5064 C   0  0  0  0  0  0  0  0  0  0  0  0
    2.6803    6.4030    1.5759 C   0  0  0  0  0  0  0  0  0  0  0  0
    1.5798    6.4774    2.6259 C   0  0  0  0  0  0  0  0  0  0  0  0
    0.3612    2.3662    0.5063 C   0  0  0  0  0  0  0  0  0  0  0  0
    0.4102    1.1677   -0.5151 C   0  0  0  0  0  0  0  0  0  0  0  0
    0.6416    1.5638   -1.9586 C   0  0  0  0  0  0  0  0  0  0  0  0
    2.5759   -0.3460   -0.4453 C   0  0  0  0  0  0  0  0  0  0  0  0
    3.5155    0.6871   -1.0249 C   0  0  0  0  0  0  0  0  0  0  0  0
    3.5334    1.7319   -0.1864 C   0  0  0  0  0  0  0  0  0  0  0  0
    4.6477    0.7739   -1.8053 C   0  0  0  0  0  0  0  0  0  0  0  0
    4.1467    2.9731   -0.3545 C   0  0  0  0  0  0  0  0  0  0  0  0
    5.3896    2.0276   -1.9426 C   0  0  0  0  0  0  0  0  0  0  0  0
    4.9900    3.2100   -1.3649 C   0  0  0  0  0  0  0  0  0  0  0  0
  1 11  1  0
  1 13  1  0
  2 13  2  0
  3  4  1  0
  3 10  1  0
  4  5  1  0
  4  6  1  0
  5  7  1  0
  6  8  1  0
  7  9  1  0
  8  9  1  0
 10 11  1  0
 11 12  1  0
 13 14  1  0
 14 15  2  0
 14 16  1  0
 15 17  1  0
 16 18  2  0
 17 19  2  0
 18 19  1  0
M  END
>  <DRUGBANK_ID>  (1) 
DB00473

>  <SECONDARY_ACCESSION_NUMBERS>  (1) 
APRD01014

>  <COMMON_NAME>  (1) 
Hexylcaine

>  <CAS_NUMBER>  (1) 
532-77-4

>  <UNII>  (1) 
511IU0826Z

>  <SYNONYMS>  (1) 
Hexilcaina; Hexylcaine; Hexylcainum

$$$$
