265
     RDKit          3D

 15 15  0  0  0  0  0  0  0  0999 V2000
    0.9320   -0.1050   -0.2016 O   0  0  0  0  0  0  0  0  0  0  0  0
    2.9353   -1.1561    0.3177 N   0  0  0  0  0  0  0  0  0  0  0  0
    4.3661   -1.1716    0.4213 C   0  0  0  0  0  0  0  0  0  0  0  0
    2.2154   -2.3308    0.8469 C   0  0  0  0  0  0  0  0  0  0  0  0
    5.1023   -0.0893    0.9481 C   0  0  0  0  0  0  0  0  0  0  0  0
    5.0688   -2.3055   -0.0388 C   0  0  0  0  0  0  0  0  0  0  0  0
    2.1679   -0.1090   -0.2255 C   0  0  0  0  0  0  0  0  0  0  0  0
    6.5085   -0.1254    0.8981 C   0  0  0  0  0  0  0  0  0  0  0  0
    1.3616   -2.0078    2.0720 C   0  0  0  0  0  0  0  0  0  0  0  0
    4.4711    1.1242    1.5824 C   0  0  0  0  0  0  0  0  0  0  0  0
    6.4668   -2.3351   -0.0550 C   0  0  0  0  0  0  0  0  0  0  0  0
    7.1856   -1.2363    0.3980 C   0  0  0  0  0  0  0  0  0  0  0  0
    2.8747    1.0492   -0.8635 C   0  0  0  0  0  0  0  0  0  0  0  0
    2.2663    2.2208   -1.1169 C   0  0  0  0  0  0  0  0  0  0  0  0
    3.0177    3.4432   -1.5457 C   0  0  0  0  0  0  0  0  0  0  0  0
  1  7  2  0
  2  3  1  0
  2  4  1  0
  2  7  1  0
  3  5  2  0
  3  6  1  0
  4  9  1  0
  5  8  1  0
  5 10  1  0
  6 11  2  0
  7 13  1  0
  8 12  2  0
 11 12  1  0
 13 14  2  3
 14 15  1  0
M  END
>  <DRUGBANK_ID>  (1) 
DB00265

>  <SECONDARY_ACCESSION_NUMBERS>  (1) 
APRD00211

>  <COMMON_NAME>  (1) 
Crotamiton

>  <CAS_NUMBER>  (1) 
483-63-6

>  <UNII>  (1) 
2EEH27851Y

>  <SYNONYMS>  (1) 
Crotamiton

$$$$
