
     RDKit          3D

  6  5  0  0  0  0  0  0  0  0999 V2000
    1.0468    0.1043    0.0146 O   0  0  0  0  0  0  0  0  0  0  0  0
    0.5821   -0.0853   -1.3089 C   0  0  0  0  0  0  0  0  0  0  0  0
    1.0780    0.9971   -2.2527 C   0  0  0  0  0  0  0  0  0  0  0  0
    1.7875    0.7298   -3.2263 O   0  0  0  0  0  0  0  0  0  0  0  0
    0.6594    2.4240   -1.9414 C   0  0  0  0  0  0  0  0  0  0  0  0
   -0.7460    2.5888   -1.9738 O   0  0  0  0  0  0  0  0  0  0  0  0
  1  2  1  0
  2  3  1  0
  3  4  2  0
  3  5  1  0
  5  6  1  0
M  END
>  <DRUGBANK_ID>  (1) 
DB01775

>  <SECONDARY_ACCESSION_NUMBERS>  (1) 
EXPT00122

>  <COMMON_NAME>  (1) 
Dihydroxyacetone

>  <CAS_NUMBER>  (1) 
96-26-4

>  <UNII>  (1) 
O10DDW6JOO

>  <SYNONYMS>  (1) 
Dihydroxyacetone

$$$$
