
     RDKit          3D

 34 37  0  0  0  0  0  0  0  0999 V2000
    2.6314    0.6865   -0.1290 C   0  0  0  0  0  0  0  0  0  0  0  0
    1.1836    0.2556   -0.3491 C   0  0  0  0  0  0  0  0  0  0  0  0
    1.1399   -1.1652   -0.2796 C   0  0  0  0  0  0  0  0  0  0  0  0
   -0.0486   -1.8468   -0.1957 C   0  0  0  0  0  0  0  0  0  0  0  0
   -1.2248   -1.1244   -0.2035 C   0  0  0  0  0  0  0  0  0  0  0  0
   -1.2638    0.2955   -0.3032 C   0  0  0  0  0  0  0  0  0  0  0  0
   -0.0515    1.0729   -0.3936 C   0  0  0  0  0  0  0  0  0  0  0  0
   -0.0708    2.6192   -0.2602 N   0  0  0  0  0  0  0  0  0  0  0  0
   -1.3024    3.3827   -0.0809 C   0  0  0  0  0  0  0  0  0  0  0  0
   -1.6630    4.0070    1.2732 C   0  0  0  0  0  0  0  0  0  0  0  0
   -2.1366    5.1548    1.2820 O   0  0  0  0  0  0  0  0  0  0  0  0
   -1.6023    3.3760    2.4881 N   0  0  0  0  0  0  0  0  0  0  0  0
   -1.2115    2.0932    2.8776 C   0  0  0  0  0  0  0  0  0  0  0  0
   -0.0723    1.4731    2.4236 C   0  0  0  0  0  0  0  0  0  0  0  0
    0.1548    0.1148    2.6408 C   0  0  0  0  0  0  0  0  0  0  0  0
   -0.7300   -0.6316    3.3880 C   0  0  0  0  0  0  0  0  0  0  0  0
   -1.7194    0.0581    4.0832 C   0  0  0  0  0  0  0  0  0  0  0  0
   -1.9710    1.4149    3.8190 C   0  0  0  0  0  0  0  0  0  0  0  0
   -0.6027   -2.0750    3.4200 C   0  0  0  0  0  0  0  0  0  0  0  0
    0.6119   -2.7011    3.5848 N   0  0  0  0  0  0  0  0  0  0  0  0
    0.2664   -3.9625    3.6048 C   0  0  0  0  0  0  0  0  0  0  0  0
   -1.0537   -4.1773    3.3808 O   0  0  0  0  0  0  0  0  0  0  0  0
   -1.6369   -2.9158    3.2436 N   0  0  0  0  0  0  0  0  0  0  0  0
    1.0832    3.3561   -0.3816 C   0  0  0  0  0  0  0  0  0  0  0  0
    2.0908    2.8368   -0.8950 O   0  0  0  0  0  0  0  0  0  0  0  0
    1.3968    4.8352   -0.0734 C   0  0  0  0  0  0  0  0  0  0  0  0
    2.8572    4.7852    0.5146 C   0  0  0  0  0  0  0  0  0  0  0  0
    2.8532    4.1322    1.9027 C   0  0  0  0  0  0  0  0  0  0  0  0
    2.1029    5.2447    3.0677 S   0  0  0  0  0  0  0  0  0  0  0  0
    1.7675    4.4939    4.2632 O   0  0  0  0  0  0  0  0  0  0  0  0
    2.8767    6.4641    3.1224 O   0  0  0  0  0  0  0  0  0  0  0  0
    0.5921    5.5792    2.2432 C   0  0  0  0  0  0  0  0  0  0  0  0
    0.6664    5.8815    0.7575 C   0  0  0  0  0  0  0  0  0  0  0  0
   -2.6710    0.8108   -0.1402 C   0  0  0  0  0  0  0  0  0  0  0  0
  1  2  1  0
  2  3  2  0
  2  7  1  0
  3  4  1  0
  4  5  2  0
  5  6  1  0
  6  7  2  0
  6 34  1  0
  7  8  1  0
  8  9  1  0
  8 24  1  0
  9 10  1  0
 10 11  2  0
 10 12  1  0
 12 13  1  0
 13 14  2  0
 13 18  1  0
 14 15  1  0
 15 16  2  0
 16 17  1  0
 16 19  1  0
 17 18  2  0
 19 20  1  0
 19 23  2  0
 20 21  2  0
 21 22  1  0
 22 23  1  0
 24 25  2  0
 24 26  1  0
 26 27  1  0
 26 33  1  0
 27 28  1  0
 28 29  1  0
 29 30  2  0
 29 31  2  0
 29 32  1  0
 32 33  1  0
M  END
>  <DRUGBANK_ID>  (1) 
DB11701

>  <COMMON_NAME>  (1) 
Amenamevir

>  <CAS_NUMBER>  (1) 
841301-32-4

>  <UNII>  (1) 
94X46KW4AE

>  <SYNONYMS>  (1) 
Amenamevir

$$$$
