812
     RDKit          3D

 21 23  0  0  0  0  0  0  0  0999 V2000
   -0.7993   -0.9006   -0.5734 C   0  0  0  0  0  0  0  0  0  0  0  0
   -1.0393    0.5237   -0.2558 N   0  0  0  0  0  0  0  0  0  0  0  0
    0.6847   -1.2052   -0.3665 C   0  0  0  0  0  0  0  0  0  0  0  0
    1.3629    0.1555   -0.3929 C   0  0  0  0  0  0  0  0  0  0  0  0
    0.2796    1.2011   -0.1020 C   0  0  2  0  0  0  0  0  0  0  0  0
    0.4518    2.0558    1.2202 C   0  0  0  0  0  0  0  0  0  0  0  0
    1.2128    1.5782    2.3560 O   0  0  0  0  0  0  0  0  0  0  0  0
    0.8269    0.4654    3.0371 C   0  0  0  0  0  0  0  0  0  0  0  0
    1.2896    0.1802    4.2895 C   0  0  0  0  0  0  0  0  0  0  0  0
    1.0670   -1.1049    4.8443 C   0  0  0  0  0  0  0  0  0  0  0  0
    0.3692   -2.1258    4.1663 C   0  0  0  0  0  0  0  0  0  0  0  0
   -0.0947   -1.8178    2.9311 C   0  0  0  0  0  0  0  0  0  0  0  0
    0.0569   -0.5203    2.4742 C   0  0  0  0  0  0  0  0  0  0  0  0
    0.1982   -3.4289    4.6055 N   0  0  0  0  0  0  0  0  0  0  0  0
    0.2515   -3.7100    6.0197 C   0  0  0  0  0  0  0  0  0  0  0  0
   -1.1248   -3.8566    6.6105 C   0  0  0  0  0  0  0  0  0  0  0  0
   -1.9220   -2.7337    6.8869 C   0  0  0  0  0  0  0  0  0  0  0  0
   -3.1893   -2.8894    7.4499 C   0  0  0  0  0  0  0  0  0  0  0  0
   -3.6792   -4.1673    7.7130 C   0  0  0  0  0  0  0  0  0  0  0  0
   -2.9011   -5.2874    7.4248 C   0  0  0  0  0  0  0  0  0  0  0  0
   -1.6187   -5.1320    6.9041 C   0  0  0  0  0  0  0  0  0  0  0  0
  1  3  1  0
  2  1  1  0
  4  3  1  0
  5  2  1  0
  5  4  1  0
  5  6  1  1
  6  7  1  0
  7  8  1  0
  8 13  1  0
  9  8  2  0
  9 10  1  0
 10 11  2  0
 11 14  1  0
 11 12  1  0
 13 12  2  0
 14 15  1  0
 15 16  1  0
 16 17  2  0
 17 18  1  0
 19 18  2  0
 20 19  1  0
 21 16  1  0
 21 20  2  0
M  END
>  <DRUGBANK_ID>  (1) 
DB07260

>  <COMMON_NAME>  (1) 
N-benzyl-4-[(2R)-pyrrolidin-2-ylmethoxy]aniline

$$$$
