ZPR
     RDKit          3D

 24 26  0  0  0  0  0  0  0  0999 V2000
    1.2420    0.3060   -0.4463 C   0  0  0  0  0  0  0  0  0  0  0  0
    0.8426   -0.5422   -1.2392 O   0  0  0  0  0  0  0  0  0  0  0  0
    0.3425    1.3201    0.2197 C   0  0  2  0  0  0  0  0  0  0  0  0
    1.0145    2.6688   -0.0363 C   0  0  0  0  0  0  0  0  0  0  0  0
    0.1144    3.6349    0.7125 C   0  0  0  0  0  0  0  0  0  0  0  0
   -0.3732    2.8165    1.9080 C   0  0  0  0  0  0  0  0  0  0  0  0
    0.1163    1.4556    1.6620 N   0  0  0  0  0  0  0  0  0  0  0  0
   -0.1367    0.4913    2.6216 C   0  0  0  0  0  0  0  0  0  0  0  0
   -0.4907    0.8167    3.7629 O   0  0  0  0  0  0  0  0  0  0  0  0
    0.0809   -1.0065    2.3246 C   0  0  2  0  0  0  0  0  0  0  0  0
    1.5403   -1.3995    2.0481 C   0  0  0  0  0  0  0  0  0  0  0  0
    1.4489   -2.6507    1.1673 C   0  0  0  0  0  0  0  0  0  0  0  0
    0.0294   -2.6697    0.5944 C   0  0  0  0  0  0  0  0  0  0  0  0
   -0.6492   -1.5191    1.1702 N   0  0  0  0  0  0  0  0  0  0  0  0
   -1.9355   -1.1728    0.7906 C   0  0  0  0  0  0  0  0  0  0  0  0
   -2.5909   -1.8259   -0.0171 O   0  0  0  0  0  0  0  0  0  0  0  0
   -2.3450    0.0180    1.3051 O   0  0  0  0  0  0  0  0  0  0  0  0
   -3.5443    0.6840    0.8239 C   0  0  0  0  0  0  0  0  0  0  0  0
   -3.3814    1.4188   -0.5011 C   0  0  0  0  0  0  0  0  0  0  0  0
   -3.7873    2.7551   -0.6671 C   0  0  0  0  0  0  0  0  0  0  0  0
   -3.6151    3.4094   -1.8981 C   0  0  0  0  0  0  0  0  0  0  0  0
   -3.0044    2.7549   -2.9663 C   0  0  0  0  0  0  0  0  0  0  0  0
   -2.6005    1.4381   -2.8174 C   0  0  0  0  0  0  0  0  0  0  0  0
   -2.8497    0.7682   -1.6224 C   0  0  0  0  0  0  0  0  0  0  0  0
  1  2  2  0
  3  1  1  1
  3  4  1  0
  3  7  1  0
  4  5  1  0
  5  6  1  0
  6  7  1  0
  7  8  1  0
  8  9  2  0
 10  8  1  6
 10 11  1  0
 10 14  1  0
 11 12  1  0
 12 13  1  0
 13 14  1  0
 14 15  1  0
 15 16  2  0
 15 17  1  0
 17 18  1  0
 18 19  1  0
 19 20  2  0
 19 24  1  0
 20 21  1  0
 21 22  2  0
 22 23  1  0
 23 24  2  0
M  END
>  <DRUGBANK_ID>  (1) 
DB03535

>  <SECONDARY_ACCESSION_NUMBERS>  (1) 
EXPT03293

>  <COMMON_NAME>  (1) 
Z-Pro-Prolinal

>  <UNII>  (1) 
4YM8D0GKX6

$$$$
