
     RDKit          3D

 35 40  0  0  0  0  0  0  0  0999 V2000
    1.0334   -0.0252    0.0181 C   0  0  0  0  0  0  0  0  0  0  0  0
    0.5820   -0.4337    1.4266 C   0  0  0  0  0  0  0  0  0  0  0  0
    1.3817    0.4778    2.3674 C   0  0  0  0  0  0  0  0  0  0  0  0
   -0.8989   -0.4004    1.4929 N   0  0  0  0  0  0  0  0  0  0  0  0
   -1.4699    0.9685    1.5667 C   0  0  0  0  0  0  0  0  0  0  0  0
   -1.2706    1.6918    2.9143 C   0  0  0  0  0  0  0  0  0  0  0  0
   -1.6580    0.8083    4.0060 N   0  0  0  0  0  0  0  0  0  0  0  0
   -1.1987   -0.5863    4.0170 C   0  0  0  0  0  0  0  0  0  0  0  0
   -1.4523   -1.1963    2.6240 C   0  0  0  0  0  0  0  0  0  0  0  0
   -2.3770    1.3193    5.0471 C   0  0  0  0  0  0  0  0  0  0  0  0
   -3.6174    1.9175    4.8372 C   0  0  0  0  0  0  0  0  0  0  0  0
   -4.3821    2.3483    5.9193 C   0  0  0  0  0  0  0  0  0  0  0  0
   -3.8745    2.1915    7.2030 C   0  0  0  0  0  0  0  0  0  0  0  0
   -4.5736    2.6858    8.3130 N   0  0  0  0  0  0  0  0  0  0  0  0
   -4.0713    2.3900    9.5855 C   0  0  0  0  0  0  0  0  0  0  0  0
   -3.0465    3.1711    9.9868 N   0  0  0  0  0  0  0  0  0  0  0  0
   -2.4610    2.9578   11.1756 C   0  0  0  0  0  0  0  0  0  0  0  0
   -2.9745    1.9956   12.0233 C   0  0  0  0  0  0  0  0  0  0  0  0
   -2.7780    1.6759   13.3788 C   0  0  0  0  0  0  0  0  0  0  0  0
   -3.8216    0.8591   13.7688 C   0  0  0  0  0  0  0  0  0  0  0  0
   -4.7362    0.8202   12.6737 N   0  0  0  0  0  0  0  0  0  0  0  0
   -4.0711    1.2810   11.5449 C   0  0  0  0  0  0  0  0  0  0  0  0
   -4.6532    1.4236   10.3297 N   0  0  0  0  0  0  0  0  0  0  0  0
   -6.1947    0.7988   12.6629 C   0  0  0  0  0  0  0  0  0  0  0  0
   -6.7859    2.5109   12.0544 C   0  0  0  0  0  0  0  0  0  0  0  0
   -5.9005    3.4747   12.6932 C   0  0  0  0  0  0  0  0  0  0  0  0
   -6.2106    3.0637   14.1199 C   0  0  0  0  0  0  0  0  0  0  0  0
   -7.5637    1.9787   14.2393 C   0  0  0  0  0  0  0  0  0  0  0  0
   -7.6309    0.7940   13.0718 C   0  0  0  0  0  0  0  0  0  0  0  0
   -6.1288   -0.1913   14.1931 C   0  0  0  0  0  0  0  0  0  0  0  0
   -5.3878    0.2756   15.3440 N   0  0  0  0  0  0  0  0  0  0  0  0
   -4.0810    0.4877   15.1398 C   0  0  0  0  0  0  0  0  0  0  0  0
   -3.2544    0.4916   16.0834 O   0  0  0  0  0  0  0  0  0  0  0  0
   -2.6525    1.6543    7.4095 N   0  0  0  0  0  0  0  0  0  0  0  0
   -1.9375    1.2425    6.3534 C   0  0  0  0  0  0  0  0  0  0  0  0
  1  2  1  0
  2  3  1  0
  2  4  1  0
  4  5  1  0
  4  9  1  0
  5  6  1  0
  6  7  1  0
  7  8  1  0
  7 10  1  0
  8  9  1  0
 10 11  2  0
 10 35  1  0
 11 12  1  0
 12 13  2  0
 13 14  1  0
 13 34  1  0
 14 15  1  0
 15 16  2  0
 15 23  1  0
 16 17  1  0
 17 18  2  0
 18 19  1  0
 18 22  1  0
 19 20  2  0
 20 21  1  0
 20 32  1  0
 21 22  1  0
 21 24  1  0
 22 23  2  0
 24 25  1  0
 24 29  1  0
 24 30  1  0
 25 26  1  0
 26 27  1  0
 27 28  1  0
 28 29  1  0
 30 31  1  0
 31 32  1  0
 32 33  2  0
 34 35  2  0
M  END
>  <DRUGBANK_ID>  (1) 
DB16218

>  <COMMON_NAME>  (1) 
Lerociclib

>  <CAS_NUMBER>  (1) 
1628256-23-4

>  <UNII>  (1) 
WBH8AY6ENB

>  <SYNONYMS>  (1) 
G1t38 free base; Lerociclib

$$$$
