
     RDKit          3D

 19 20  0  0  0  0  0  0  0  0999 V2000
    0.9594   -0.1631    0.3480 C   0  0  0  0  0  0  0  0  0  0  0  0
    0.4306    1.2734    0.4225 C   0  0  0  0  0  0  0  0  0  0  0  0
    0.9475    2.2806   -0.6345 C   0  0  0  0  0  0  0  0  0  0  0  0
    0.5137    2.0089   -2.0122 N   0  0  0  0  0  0  0  0  0  0  0  0
    1.0013    3.0294   -2.9457 C   0  0  0  0  0  0  0  0  0  0  0  0
    0.5025    2.7265   -4.3625 C   0  0  0  0  0  0  0  0  0  0  0  0
    0.8907    1.3128   -4.8305 C   0  0  0  0  0  0  0  0  0  0  0  0
    0.5085    0.3006   -3.7886 C   0  0  0  0  0  0  0  0  0  0  0  0
    0.9935    0.7059   -2.4440 C   0  0  0  0  0  0  0  0  0  0  0  0
    0.2544    0.9432   -6.1490 C   0  0  0  0  0  0  0  0  0  0  0  0
    0.5684    1.7242   -7.2597 C   0  0  0  0  0  0  0  0  0  0  0  0
    0.0373    1.4153   -8.5023 C   0  0  0  0  0  0  0  0  0  0  0  0
   -0.7695    0.2904   -8.6640 C   0  0  0  0  0  0  0  0  0  0  0  0
   -1.0315   -0.5361   -7.5771 C   0  0  0  0  0  0  0  0  0  0  0  0
   -0.5818   -0.1792   -6.3136 C   0  0  0  0  0  0  0  0  0  0  0  0
   -1.7697   -2.1412   -7.7582 S   0  0  0  0  0  0  0  0  0  0  0  0
   -0.7368   -3.1057   -7.3932 O   0  0  0  0  0  0  0  0  0  0  0  0
   -3.0389   -2.1150   -7.0749 O   0  0  0  0  0  0  0  0  0  0  0  0
   -2.0740   -2.3410   -9.4909 C   0  0  0  0  0  0  0  0  0  0  0  0
  1  2  1  0
  2  3  1  0
  3  4  1  0
  4  5  1  0
  4  9  1  0
  5  6  1  0
  6  7  1  0
  7  8  1  0
  7 10  1  0
  8  9  1  0
 10 11  2  0
 10 15  1  0
 11 12  1  0
 12 13  2  0
 13 14  1  0
 14 15  2  0
 14 16  1  0
 16 17  2  0
 16 18  2  0
 16 19  1  0
M  END
>  <DRUGBANK_ID>  (1) 
DB11947

>  <COMMON_NAME>  (1) 
Pridopidine

>  <CAS_NUMBER>  (1) 
346688-38-8

>  <UNII>  (1) 
HD4TW8S2VK

>  <SYNONYMS>  (1) 
Pridopidine

$$$$
