
     RDKit          3D

 21 22  0  0  0  0  0  0  0  0999 V2000
   -0.1203   -1.1970    0.2732 N   0  0  0  0  0  0  0  0  0  0  0  0
    1.0895   -0.4817    0.2236 C   0  0  0  0  0  0  0  0  0  0  0  0
   -1.2877   -0.5323   -0.0061 C   0  0  0  0  0  0  0  0  0  0  0  0
    1.0835    0.8506   -0.0631 N   0  0  0  0  0  0  0  0  0  0  0  0
   -0.0500    1.4755   -0.0229 C   0  0  0  0  0  0  0  0  0  0  0  0
   -1.3340    0.7832    0.1193 C   0  0  0  0  0  0  0  0  0  0  0  0
   -0.3232   -2.6569    0.6085 C   0  0  2  0  0  0  0  0  0  0  0  0
    0.2930   -3.0368    1.8613 O   0  0  0  0  0  0  0  0  0  0  0  0
   -0.2047   -3.6934   -0.5212 C   0  0  2  0  0  0  0  0  0  0  0  0
    1.0754   -4.2510    1.8552 C   0  0  1  0  0  0  0  0  0  0  0  0
    0.4678   -5.0406    0.6269 C   0  0  1  0  0  0  0  0  0  0  0  0
    0.1964   -3.8303   -1.9915 O   0  0  0  0  0  0  0  0  0  0  0  0
    2.2017   -0.9876    0.4873 O   0  0  0  0  0  0  0  0  0  0  0  0
   -0.5398   -6.0140    0.6033 O   0  0  0  0  0  0  0  0  0  0  0  0
   -0.0211    2.8218   -0.1619 N   0  0  0  0  0  0  0  0  0  0  0  0
    2.7036   -3.8761    2.1707 C   0  0  0  0  0  0  0  0  0  0  0  0
    3.3500   -2.7231    1.6174 O   0  0  0  0  0  0  0  0  0  0  0  0
    1.5527   -4.2235   -0.9923 P   0  0  0  0  0  0  0  0  0  0  0  0
    2.3002   -4.8950   -2.2747 O   0  0  0  0  0  0  0  0  0  0  0  0
    2.2396   -2.8611   -1.0824 O   0  0  0  0  0  0  0  0  0  0  0  0
    2.9091   -4.6167    0.0070 O   0  0  0  0  0  0  0  0  0  0  0  0
  1  2  1  0
  1  3  1  0
  2 13  2  0
  2  4  1  0
  3  6  2  0
  4  5  2  0
  5 15  1  0
  6  5  1  0
  7  1  1  6
  7  8  1  0
  7  9  1  0
  8 10  1  0
  9 11  1  0
  9 12  1  1
 10 11  1  0
 10 16  1  6
 11 14  1  1
 12 18  1  0
 16 17  1  0
 18 19  1  0
 18 20  2  0
 18 21  1  0
M  END
>  <DRUGBANK_ID>  (1) 
DB03765

>  <SECONDARY_ACCESSION_NUMBERS>  (1) 
EXPT00808

>  <COMMON_NAME>  (1) 
2'-cytidylic acid

>  <CAS_NUMBER>  (1) 
85-94-9

>  <UNII>  (1) 
KBN4598ZJQ

>  <SYNONYMS>  (1) 
2'-CMP; 2'-cytidinephosphoric acid; Cytidine 2'-phosphate; Cytidine-2'-monophosphate; Cytidine, 2'-phosphate

$$$$
