131
     RDKit          3D

 23 25  0  0  1  0  0  0  0  0999 V2000
    1.0183   -0.0908   -0.0377 P   0  0  0  0  0  0  0  0  0  0  0  0
   -1.8090   -0.2288    2.1504 O   0  0  0  0  0  0  0  0  0  0  0  0
   -2.0751   -2.9796   -0.4398 O   0  0  0  0  0  0  0  0  0  0  0  0
   -1.5320   -3.3684    2.2400 O   0  0  0  0  0  0  0  0  0  0  0  0
    0.7752    0.6738    1.3406 O   0  0  0  0  0  0  0  0  0  0  0  0
    0.7557   -0.1374   -1.6044 O   0  0  0  0  0  0  0  0  0  0  0  0
   -0.7117   -0.0908   -0.0377 O   0  0  0  0  0  0  0  0  0  0  0  0
    2.5666   -0.0908   -0.0377 O   0  0  0  0  0  0  0  0  0  0  0  0
   -2.1875    1.1138   -0.3182 N   0  0  0  0  0  0  0  0  0  0  0  0
   -2.1491    1.3887   -2.6576 N   0  0  0  0  0  0  0  0  0  0  0  0
    0.4152    2.3634   -0.3419 N   0  0  0  0  0  0  0  0  0  0  0  0
    1.4525    2.3714   -2.5586 N   0  0  0  0  0  0  0  0  0  0  0  0
    0.2366    2.5384   -4.4849 N   0  0  0  0  0  0  0  0  0  0  0  0
   -1.3940   -1.9893    0.3004 C   0  0  2  0  0  0  0  0  0  0  0  0
   -0.6907   -2.4003    1.6129 C   0  0  1  0  0  0  0  0  0  0  0  0
   -2.3282   -0.4099    0.7445 C   0  0  1  0  0  0  0  0  0  0  0  0
   -0.6062   -1.0953    2.4515 C   0  0  1  0  0  0  0  0  0  0  0  0
    0.7479   -0.2849    2.4088 C   0  0  0  0  0  0  0  0  0  0  0  0
   -0.8326    1.9801   -0.8921 C   0  0  0  0  0  0  0  0  0  0  0  0
   -2.7701    0.9433   -1.6117 C   0  0  0  0  0  0  0  0  0  0  0  0
   -0.9242    1.9387   -2.2907 C   0  0  0  0  0  0  0  0  0  0  0  0
    0.2229    2.3060   -3.1106 C   0  0  0  0  0  0  0  0  0  0  0  0
    1.4901    2.4314   -1.2333 C   0  0  0  0  0  0  0  0  0  0  0  0
  1  5  1  0
  1  6  1  0
  1  7  1  0
  1  8  2  0
  2 16  1  0
  2 17  1  0
  5 18  1  0
  9 19  1  0
  9 20  1  0
 10 20  2  0
 10 21  1  0
 11 19  1  0
 11 23  2  0
 12 22  2  0
 12 23  1  0
 13 22  1  0
 14  3  1  1
 14 15  1  0
 14 16  1  0
 15  4  1  1
 15 17  1  0
 16  9  1  6
 17 18  1  6
 19 21  2  0
 21 22  1  0
M  END
>  <DRUGBANK_ID>  (1) 
DB00131

>  <SECONDARY_ACCESSION_NUMBERS>  (1) 
NUTR00011; EXPT00512

>  <COMMON_NAME>  (1) 
Adenosine phosphate

>  <CAS_NUMBER>  (1) 
61-19-8

>  <UNII>  (1) 
415SHH325A

>  <SYNONYMS>  (1) 
5'-Adenosine monophosphate; 5'-Adenylic acid; 5'-AMP; 5'-O-Phosphonoadenosine; Adenosine 5'-(dihydrogen phosphate); Adenosine 5'-monophosphate; Adenosine 5'-phosphate; Adenosine monophosphate; Adenosine phosphate; Adenosine-5'-Monophosphate; Adenosine-5'-monophosphoric acid; Adenosine-5'P; Adenosini phosphas; Adenylate; Adenylic acid; Ado5'P; AMP; Fosfato de adenosina; PAdo; Phosphate d'ad√©nosine

$$$$
