
     RDKit          3D

 11 11  0  0  0  0  0  0  0  0999 V2000
    1.0419    0.0878    0.0166 C   0  0  0  0  0  0  0  0  0  0  0  0
    0.3271   -1.1759   -0.2714 C   0  0  0  0  0  0  0  0  0  0  0  0
    0.7495   -2.3490    0.3576 C   0  0  0  0  0  0  0  0  0  0  0  0
    0.4323    1.1328    0.2178 O   0  0  0  0  0  0  0  0  0  0  0  0
    2.4060    0.0296    0.0811 N   0  0  0  0  0  0  0  0  0  0  0  0
    0.0214   -3.5294    0.2136 C   0  0  0  0  0  0  0  0  0  0  0  0
    0.3390   -4.7156    0.8208 O   0  0  0  0  0  0  0  0  0  0  0  0
   -0.8277   -1.1777   -1.0573 C   0  0  0  0  0  0  0  0  0  0  0  0
   -1.5756   -2.3510   -1.1811 C   0  0  0  0  0  0  0  0  0  0  0  0
   -1.1371   -3.5291   -0.5679 C   0  0  0  0  0  0  0  0  0  0  0  0
    1.4713   -4.6786    1.6875 C   0  0  0  0  0  0  0  0  0  0  0  0
  2  1  1  0
  3  2  2  0
  4  1  2  0
  5  1  1  0
  6  3  1  0
  7  6  1  0
  8  2  1  0
  9  8  2  0
 10  9  1  0
 10  6  2  0
 11  7  1  0
M  END
>  <DRUGBANK_ID>  (1) 
DB03073

>  <SECONDARY_ACCESSION_NUMBERS>  (1) 
EXPT00177

>  <COMMON_NAME>  (1) 
3-Methoxybenzamide

>  <CAS_NUMBER>  (1) 
5813-86-5

>  <UNII>  (1) 
M8502TLK98

>  <SYNONYMS>  (1) 
m-Anisamide; m-Methoxybenzamide

$$$$
