
     RDKit          3D

 36 40  0  0  0  0  0  0  0  0999 V2000
    2.5129    2.6002   -1.1852 F   0  0  0  0  0  0  0  0  0  0  0  0
    3.3479    5.8692   -0.4462 O   0  0  0  0  0  0  0  0  0  0  0  0
    0.5779    3.4765   -4.1276 O   0  0  0  0  0  0  0  0  0  0  0  0
    1.3799    7.7315   -2.8111 O   0  0  0  0  0  0  0  0  0  0  0  0
    3.9762    8.9518   -0.9427 O   0  0  0  0  0  0  0  0  0  0  0  0
    5.4054   -0.7583   -2.2106 O   0  0  0  0  0  0  0  0  0  0  0  0
    2.1194   10.2755   -1.2658 O   0  0  0  0  0  0  0  0  0  0  0  0
    4.0843   11.8180    3.0934 N   0  0  0  0  0  0  0  0  0  0  0  0
    1.0413    4.2276   -0.1247 C   0  0  1  0  0  0  0  0  0  0  0  0
    0.4059    2.8308   -0.7413 C   0  0  1  0  0  0  0  0  0  0  0  0
    1.2778    5.1362   -1.4433 C   0  0  1  0  0  0  0  0  0  0  0  0
    1.2807    2.4952   -1.9119 C   0  0  2  0  0  0  0  0  0  0  0  0
    2.0819    6.3454   -0.9175 C   0  0  1  0  0  0  0  0  0  0  0  0
    1.1739    0.9155   -2.4044 C   0  0  2  0  0  0  0  0  0  0  0  0
    1.5872    3.3166   -3.1511 C   0  0  2  0  0  0  0  0  0  0  0  0
    2.1746    4.5664   -2.5937 C   0  0  0  0  0  0  0  0  0  0  0  0
    0.7846    5.4499    0.9270 C   0  0  0  0  0  0  0  0  0  0  0  0
    1.1784    6.7464    0.2258 C   0  0  1  0  0  0  0  0  0  0  0  0
    0.4924    1.6290    0.3230 C   0  0  0  0  0  0  0  0  0  0  0  0
    1.6371   -0.3430   -0.9808 C   0  0  0  0  0  0  0  0  0  0  0  0
    2.2668    7.4472   -2.0016 C   0  0  0  0  0  0  0  0  0  0  0  0
   -0.1232    5.4801   -1.9944 C   0  0  0  0  0  0  0  0  0  0  0  0
    0.4408    0.1354   -0.1612 C   0  0  0  0  0  0  0  0  0  0  0  0
    2.6254    0.6477   -2.0411 C   0  0  0  0  0  0  0  0  0  0  0  0
    0.6285    0.5381   -3.8610 C   0  0  0  0  0  0  0  0  0  0  0  0
    3.1357   -0.7957   -0.6720 C   0  0  0  0  0  0  0  0  0  0  0  0
    1.7514    7.8337    1.0610 C   0  0  0  0  0  0  0  0  0  0  0  0
    3.6094    8.1675   -2.0860 C   0  0  0  0  0  0  0  0  0  0  0  0
    3.4984    0.2248   -2.9949 C   0  0  0  0  0  0  0  0  0  0  0  0
    4.2438   -0.5534   -2.0361 C   0  0  0  0  0  0  0  0  0  0  0  0
    3.1262    9.9796   -0.6476 C   0  0  0  0  0  0  0  0  0  0  0  0
    3.4525   10.5746    0.6788 C   0  0  0  0  0  0  0  0  0  0  0  0
    4.7460   11.0041    0.9127 C   0  0  0  0  0  0  0  0  0  0  0  0
    2.4720   10.7629    1.6704 C   0  0  0  0  0  0  0  0  0  0  0  0
    4.9977   11.6459    2.1107 C   0  0  0  0  0  0  0  0  0  0  0  0
    2.8417   11.3564    2.8636 C   0  0  0  0  0  0  0  0  0  0  0  0
  4 21  2  0
  5 28  1  0
  5 31  1  0
  6 30  2  0
  7 31  2  0
  8 35  2  0
  8 36  1  0
  9 10  1  0
  9 11  1  0
  9 17  1  1
 10 12  1  0
 10 19  1  1
 11 13  1  0
 11 16  1  0
 11 22  1  6
 12  1  1  1
 12 14  1  0
 12 15  1  0
 13 18  1  0
 13 21  1  0
 13  2  1  1
 14 20  1  0
 14 24  1  0
 14 25  1  6
 15  3  1  1
 15 16  1  0
 17 18  1  0
 18 27  1  1
 19 23  1  0
 20 23  1  0
 20 26  2  0
 21 28  1  0
 24 29  2  0
 26 30  1  0
 29 30  1  0
 31 32  1  0
 32 33  2  0
 32 34  1  0
 33 35  1  0
 34 36  2  0
M  END
>  <DRUGBANK_ID>  (1) 
DB11487

>  <COMMON_NAME>  (1) 
Dexamethasone isonicotinate

>  <CAS_NUMBER>  (1) 
2265-64-7

>  <UNII>  (1) 
8LGC0BOA71

>  <SYNONYMS>  (1) 
Dexamethasone 21-(4-Pyridinecarboxylate); Dexamethasone-21-isonicotinate

$$$$
