
     RDKit          3D

 22 25  0  0  0  0  0  0  0  0999 V2000
   -2.4953   -1.3406    0.5624 C   0  0  0  0  0  0  0  0  0  0  0  0
   -1.3046   -2.1555    0.0192 C   0  0  0  0  0  0  0  0  0  0  0  0
    0.0887   -1.7012    0.5180 C   0  0  2  0  0  0  0  0  0  0  0  0
    0.2211   -0.1443    0.5101 C   0  0  2  0  0  0  0  0  0  0  0  0
   -0.3739    0.5105   -0.8076 C   0  0  1  0  0  0  0  0  0  0  0  0
   -1.7560    0.2503   -1.0455 O   0  0  0  0  0  0  0  0  0  0  0  0
   -2.4453    0.1490    0.1857 C   0  0  1  0  0  0  0  0  0  0  0  0
    1.2236   -2.4564   -0.2185 C   0  0  1  0  0  0  0  0  0  0  0  0
    2.5981   -2.1482    0.3998 C   0  0  0  0  0  0  0  0  0  0  0  0
    2.9314   -0.6706    0.6002 C   0  0  0  0  0  0  0  0  0  0  0  0
    1.6796    0.3315    0.9014 C   0  0  1  0  0  0  0  0  0  0  0  0
    1.7514    1.9267    0.5283 C   0  0  2  0  0  0  0  0  0  0  0  0
    1.0737    2.4113   -0.8718 C   0  0  2  0  0  0  0  0  0  0  0  0
   -0.2447    1.9137   -0.9454 O   0  0  0  0  0  0  0  0  0  0  0  0
    1.0910   -3.9874   -0.1620 C   0  0  0  0  0  0  0  0  0  0  0  0
   -3.8404    0.7227   -0.0624 C   0  0  0  0  0  0  0  0  0  0  0  0
   -0.6005    0.2674    1.6545 O   0  0  0  0  0  0  0  0  0  0  0  0
   -1.8151    0.9493    1.1923 O   0  0  0  0  0  0  0  0  0  0  0  0
    1.7521    2.3777   -2.1690 O   0  0  0  0  0  0  0  0  0  0  0  0
    3.1179    2.5597    0.7618 C   0  0  0  0  0  0  0  0  0  0  0  0
    1.8962    1.1405   -2.8752 C   0  0  0  0  0  0  0  0  0  0  0  0
    2.6957    0.2952   -1.9476 C   0  0  0  0  0  0  0  0  0  0  0  0
  1  2  1  0
  3  2  1  6
  3  8  1  0
  4  3  1  0
  4 11  1  0
  4 17  1  1
  5  6  1  0
  5  4  1  0
  6  7  1  0
  7  1  1  0
  7 16  1  6
  7 18  1  0
  8  9  1  0
  8 15  1  1
  9 10  1  0
 11 10  1  6
 11 12  1  0
 12 13  1  0
 12 20  1  6
 13 14  1  0
 13 19  1  6
  5 14  1  1
 18 17  1  0
 19 21  1  0
 21 22  1  0
M  END
>  <DRUGBANK_ID>  (1) 
DB13851

>  <COMMON_NAME>  (1) 
Artemotil

>  <CAS_NUMBER>  (1) 
75887-54-6

>  <UNII>  (1) 
XGL7GFB9YI

>  <SYNONYMS>  (1) 
Arteether; Artemotil; beta-Arteether; beta-Dihydroartemisinin ethyl ether; Dihydroartemisinin ethyl ether

$$$$
