
     RDKit          3D

 33 38  0  0  1  0  0  0  0  0999 V2000
    1.4616   -1.7977   -0.0249 C   0  0  0  0  0  0  0  0  0  0  0  0
    2.5315   -0.9789   -0.0185 C   0  0  0  0  0  0  0  0  0  0  0  0
    2.3749    0.5147   -0.0135 C   0  0  0  0  0  0  0  0  0  0  0  0
    3.3515    1.2569   -0.0140 O   0  0  0  0  0  0  0  0  0  0  0  0
    1.0780    0.9440    0.0067 N   0  0  0  0  0  0  0  0  0  0  0  0
    0.0309    0.0785    0.0496 C   0  0  0  0  0  0  0  0  0  0  0  0
    0.1334   -1.2492    0.0085 C   0  0  0  0  0  0  0  0  0  0  0  0
   -0.9411   -2.1035   -0.0445 N   0  0  0  0  0  0  0  0  0  0  0  0
   -2.0890   -1.5316    0.1922 C   0  0  0  0  0  0  0  0  0  0  0  0
   -2.2223   -0.0683    0.6055 C   0  0  0  0  0  0  0  0  0  0  0  0
   -3.2987    0.2832    1.0991 O   0  0  0  0  0  0  0  0  0  0  0  0
   -1.1510    0.7132    0.2162 N   0  0  0  0  0  0  0  0  0  0  0  0
   -0.9186    2.1903    0.0763 C   0  0  1  0  0  0  0  0  0  0  0  0
    0.6141    2.3249    0.0447 C   0  0  0  0  0  0  0  0  0  0  0  0
   -1.4447    2.8399   -1.2587 C   0  0  0  0  0  0  0  0  0  0  0  0
   -2.8873    2.7779   -1.5189 N   0  0  0  0  0  0  0  0  0  0  0  0
   -3.3123    1.4126   -1.8379 C   0  0  0  0  0  0  0  0  0  0  0  0
   -4.7983    1.0346   -1.8791 C   0  0  0  0  0  0  0  0  0  0  0  0
   -5.5638    1.5735   -0.6768 C   0  0  0  0  0  0  0  0  0  0  0  0
   -4.9512    2.8952   -0.3769 C   0  0  0  0  0  0  0  0  0  0  0  0
   -3.5172    3.2088   -0.2954 C   0  0  0  0  0  0  0  0  0  0  0  0
   -7.0266    1.7063   -0.9352 N   0  0  0  0  0  0  0  0  0  0  0  0
   -7.8514    2.3806    0.1356 C   0  0  0  0  0  0  0  0  0  0  0  0
   -7.6615    3.8871    0.3995 C   0  0  0  0  0  0  0  0  0  0  0  0
   -8.5908    4.8847    0.3746 C   0  0  0  0  0  0  0  0  0  0  0  0
   -8.1183    6.2306    0.4624 C   0  0  0  0  0  0  0  0  0  0  0  0
   -6.7725    6.5399    0.6955 C   0  0  0  0  0  0  0  0  0  0  0  0
   -5.9357    5.5098    0.7315 C   0  0  0  0  0  0  0  0  0  0  0  0
   -6.4265    4.2751    0.7146 N   0  0  0  0  0  0  0  0  0  0  0  0
   -6.1955    7.7562    0.8540 O   0  0  0  0  0  0  0  0  0  0  0  0
   -7.1668    8.7612    1.0819 C   0  0  0  0  0  0  0  0  0  0  0  0
   -8.2110    8.6599   -0.0118 C   0  0  0  0  0  0  0  0  0  0  0  0
   -9.0286    7.3701    0.1446 C   0  0  0  0  0  0  0  0  0  0  0  0
  1  2  2  0
  1  7  1  0
  2  3  1  0
  3  4  2  0
  3  5  1  0
  5  6  1  0
  5 14  1  0
  6  7  2  0
  6 12  1  0
  7  8  1  0
  8  9  2  0
  9 10  1  0
 10 11  2  0
 10 12  1  0
 12 13  1  0
 13 14  1  0
 13 15  1  6
 15 16  1  0
 16 17  1  0
 16 21  1  0
 17 18  1  0
 18 19  1  0
 19 20  1  0
 19 22  1  0
 20 21  1  0
 22 23  1  0
 23 24  1  0
 24 25  2  0
 24 29  1  0
 25 26  1  0
 26 27  2  0
 26 33  1  0
 27 28  1  0
 27 30  1  0
 28 29  2  0
 30 31  1  0
 31 32  1  0
 32 33  1  0
M  END
>  <DRUGBANK_ID>  (1) 
DB12134

>  <COMMON_NAME>  (1) 
Gepotidacin

>  <CAS_NUMBER>  (1) 
1075236-89-3

>  <UNII>  (1) 
DVF0PR037D

>  <SYNONYMS>  (1) 
Gepotidacin

$$$$
