
     RDKit          3D

 39 44  0  0  1  0  0  0  0  0999 V2000
    0.9965   -0.0680    2.4101 C   0  0  0  0  0  0  0  0  0  0  0  0
    0.4631   -0.7576    1.1254 C   0  0  2  0  0  0  0  0  0  0  0  0
    0.9519    0.0049   -0.0472 N   0  0  0  0  0  0  0  0  0  0  0  0
   -1.0973   -0.6414    1.2136 C   0  0  0  0  0  0  0  0  0  0  0  0
   -1.7971    0.4977    0.7734 C   0  0  0  0  0  0  0  0  0  0  0  0
   -3.1986    0.5245    0.7625 C   0  0  0  0  0  0  0  0  0  0  0  0
   -3.9164   -0.6077    1.1206 C   0  0  0  0  0  0  0  0  0  0  0  0
   -5.2522   -0.6106    1.0431 F   0  0  0  0  0  0  0  0  0  0  0  0
   -3.2660   -1.7146    1.6205 C   0  0  0  0  0  0  0  0  0  0  0  0
   -1.8867   -1.6556    1.7967 C   0  0  0  0  0  0  0  0  0  0  0  0
    1.0229   -2.1904    1.0130 C   0  0  0  0  0  0  0  0  0  0  0  0
    0.2631   -3.3277    0.8642 C   0  0  0  0  0  0  0  0  0  0  0  0
    0.6967   -4.5900    0.9570 N   0  0  0  0  0  0  0  0  0  0  0  0
    2.0085   -4.7962    1.0298 C   0  0  0  0  0  0  0  0  0  0  0  0
    2.8827   -3.7759    1.0516 N   0  0  0  0  0  0  0  0  0  0  0  0
    2.3709   -2.5111    1.0267 C   0  0  0  0  0  0  0  0  0  0  0  0
    2.4339   -6.0741    0.7942 N   0  0  0  0  0  0  0  0  0  0  0  0
    3.2949   -6.7740    1.7496 C   0  0  0  0  0  0  0  0  0  0  0  0
    4.0962   -7.8444    0.9576 C   0  0  0  0  0  0  0  0  0  0  0  0
    3.2081   -8.7145    0.1556 N   0  0  0  0  0  0  0  0  0  0  0  0
    2.2763   -7.9756   -0.7096 C   0  0  0  0  0  0  0  0  0  0  0  0
    1.4702   -6.9671    0.1311 C   0  0  0  0  0  0  0  0  0  0  0  0
    3.2480  -10.0913    0.1898 C   0  0  0  0  0  0  0  0  0  0  0  0
    3.0479  -10.7298    1.3161 N   0  0  0  0  0  0  0  0  0  0  0  0
    3.0239  -12.1027    1.3182 C   0  0  0  0  0  0  0  0  0  0  0  0
    3.2335  -12.9008    0.3125 N   0  0  0  0  0  0  0  0  0  0  0  0
    3.4885  -12.2545   -0.8317 N   0  0  0  0  0  0  0  0  0  0  0  0
    3.7616  -12.8443   -2.0365 C   0  0  0  0  0  0  0  0  0  0  0  0
    3.9674  -11.8417   -2.9580 C   0  0  0  0  0  0  0  0  0  0  0  0
    3.8110  -10.6037   -2.2871 C   0  0  0  0  0  0  0  0  0  0  0  0
    3.5000  -10.8987   -0.9706 C   0  0  0  0  0  0  0  0  0  0  0  0
    4.2258  -12.0117   -4.3734 C   0  0  0  0  0  0  0  0  0  0  0  0
    5.3324  -11.5559   -5.1128 C   0  0  0  0  0  0  0  0  0  0  0  0
    5.2384  -11.8822   -6.4099 N   0  0  0  0  0  0  0  0  0  0  0  0
    4.0772  -12.5742   -6.4792 N   0  0  0  0  0  0  0  0  0  0  0  0
    3.6093  -13.0918   -7.7544 C   0  0  0  0  0  0  0  0  0  0  0  0
    3.3852  -11.9842   -8.7785 C   0  0  0  0  0  0  0  0  0  0  0  0
    4.5959  -11.3231   -9.1350 O   0  0  0  0  0  0  0  0  0  0  0  0
    3.4340  -12.6707   -5.2817 C   0  0  0  0  0  0  0  0  0  0  0  0
  2  4  1  0
  2 11  1  0
  2  3  1  0
  2  1  1  1
  4  5  2  0
  4 10  1  0
  5  6  1  0
  6  7  2  0
  7  8  1  0
  7  9  1  0
  9 10  2  0
 11 12  2  0
 11 16  1  0
 12 13  1  0
 13 14  2  0
 14 15  1  0
 14 17  1  0
 15 16  2  0
 17 18  1  0
 17 22  1  0
 18 19  1  0
 19 20  1  0
 20 21  1  0
 20 23  1  0
 21 22  1  0
 23 24  2  0
 23 31  1  0
 24 25  1  0
 25 26  2  0
 26 27  1  0
 27 28  1  0
 27 31  1  0
 28 29  2  0
 29 30  1  0
 29 32  1  0
 30 31  2  0
 32 33  1  0
 32 39  2  0
 33 34  2  0
 34 35  1  0
 35 36  1  0
 35 39  1  0
 36 37  1  0
 37 38  1  0
M  END
>  <DRUGBANK_ID>  (1) 
DB18489

>  <COMMON_NAME>  (1) 
Elenestinib

>  <CAS_NUMBER>  (1) 
2505078-08-8

>  <UNII>  (1) 
6FBM4CP6RK

>  <SYNONYMS>  (1) 
(S)-2-(4-(4-(4-(5-(1-amino-1-(4-fluorophenyl)ethyl)pyrimidin-2-yl)piperazin-1-yl)pyrrolo[2,1-f][1,2,4]triazin-6-yl)-1H-pyrazol-1-yl)ethan-1-ol; 1H-Pyrazole-1-ethanol, 4-[4-[4-[5-[(1S)-1-amino-1-(4-fluorophenyl)ethyl]-2-pyrimidinyl]-1-piperazinyl]pyrrolo[2,1-f][1,2,4]triazin-6-yl]-; 2-{4-[4-(4-{5-[(1S)-1-amino-1-(4- fluorophenyl)ethyl]pyrimidin-2-yl}piperazin-1- yl)pyrrolo[2,1-f][1,2,4]triazin-6-yl]-1H-pyrazol-1- yl}ethan-1-ol; 4-[4-[4-[5-[(1S)-1-Amino-1-(4-fluorophenyl)ethyl]-2-pyrimidinyl]-1-piperazinyl]pyrrolo[2,1-f][1,2,4]triazin-6-yl]-1H-pyrazole-1-ethanol

$$$$
