
     RDKit          3D

 30 32  0  0  0  0  0  0  0  0999 V2000
    0.9324   -0.0669   -0.0443 C   0  0  0  0  0  0  0  0  0  0  0  0
    0.4183    0.8199   -1.2027 C   0  0  0  0  0  0  0  0  0  0  0  0
    1.4836    1.8725   -1.5733 C   0  0  0  0  0  0  0  0  0  0  0  0
    1.6207    2.9080   -0.4747 C   0  0  0  0  0  0  0  0  0  0  0  0
    0.3408    3.7533   -0.3539 C   0  0  0  0  0  0  0  0  0  0  0  0
   -0.8934    2.8539   -0.3232 C   0  0  0  0  0  0  0  0  0  0  0  0
   -0.8796    1.4903   -0.7382 C   0  0  0  0  0  0  0  0  0  0  0  0
   -2.0710    0.7101   -0.6447 C   0  0  0  0  0  0  0  0  0  0  0  0
   -3.2260    1.2212   -0.0520 C   0  0  0  0  0  0  0  0  0  0  0  0
   -3.0780    2.4500    0.5470 C   0  0  0  0  0  0  0  0  0  0  0  0
   -2.0773    3.3392    0.2037 C   0  0  0  0  0  0  0  0  0  0  0  0
   -2.4393    5.0034    0.5467 Cl  0  0  0  0  0  0  0  0  0  0  0  0
   -3.8125    2.8149    1.6401 O   0  0  0  0  0  0  0  0  0  0  0  0
   -4.5193    0.4584   -0.0682 C   0  0  0  0  0  0  0  0  0  0  0  0
   -4.4816   -0.7367   -0.3739 O   0  0  0  0  0  0  0  0  0  0  0  0
   -5.7647    1.0188    0.2530 N   0  0  0  0  0  0  0  0  0  0  0  0
   -6.1011    2.3592    0.5600 C   0  0  0  0  0  0  0  0  0  0  0  0
   -5.6914    3.4204   -0.2550 C   0  0  0  0  0  0  0  0  0  0  0  0
   -5.6937    4.7379    0.2374 C   0  0  0  0  0  0  0  0  0  0  0  0
   -6.1326    5.0347    1.5302 C   0  0  0  0  0  0  0  0  0  0  0  0
   -6.6332    3.9771    2.2977 C   0  0  0  0  0  0  0  0  0  0  0  0
   -6.6455    2.6518    1.8180 C   0  0  0  0  0  0  0  0  0  0  0  0
   -7.0118    4.1750    3.5692 F   0  0  0  0  0  0  0  0  0  0  0  0
   -5.9952    6.3822    2.1525 C   0  0  0  0  0  0  0  0  0  0  0  0
   -6.4009    6.7153    3.2364 O   0  0  0  0  0  0  0  0  0  0  0  0
   -5.3332    7.2658    1.3762 O   0  0  0  0  0  0  0  0  0  0  0  0
   -5.0652    5.6561   -0.5118 F   0  0  0  0  0  0  0  0  0  0  0  0
    0.5386    4.5626    0.9587 C   0  0  0  0  0  0  0  0  0  0  0  0
    0.2031    4.6942   -1.5663 C   0  0  0  0  0  0  0  0  0  0  0  0
    0.1953   -0.0376   -2.4615 C   0  0  0  0  0  0  0  0  0  0  0  0
  1  2  1  0
  2  3  1  0
  2  7  1  0
  2 30  1  0
  3  4  1  0
  4  5  1  0
  5  6  1  0
  5 28  1  0
  5 29  1  0
  6  7  2  0
  6 11  1  0
  7  8  1  0
  8  9  2  0
  9 10  1  0
  9 14  1  0
 10 11  2  0
 10 13  1  0
 11 12  1  0
 14 15  2  0
 14 16  1  0
 16 17  1  0
 17 18  2  0
 17 22  1  0
 18 19  1  0
 19 20  2  0
 19 27  1  0
 20 21  1  0
 20 24  1  0
 21 22  2  0
 21 23  1  0
 24 25  2  0
 24 26  1  0
M  END
>  <DRUGBANK_ID>  (1) 
DB05653

>  <COMMON_NAME>  (1) 
IRX-5183

>  <CAS_NUMBER>  (1) 
367273-07-2

>  <UNII>  (1) 
RC87L028HU

$$$$
