3GV
     RDKit          3D

 16 17  0  0  0  0  0  0  0  0999 V2000
    1.9428    0.0862    0.0580 O   0  0  0  0  0  0  0  0  0  0  0  0
    0.7227    0.0315    0.0753 C   0  0  0  0  0  0  0  0  0  0  0  0
   -0.1911    1.2218    0.2330 C   0  0  0  0  0  0  0  0  0  0  0  0
   -0.0699   -1.1070    0.0053 N   0  0  0  0  0  0  0  0  0  0  0  0
   -1.4686   -0.7894    0.0414 C   0  0  0  0  0  0  0  0  0  0  0  0
   -1.5383    0.6953   -0.2701 C   0  0  1  0  0  0  0  0  0  0  0  0
   -2.7097    1.4462    0.3209 C   0  0  0  0  0  0  0  0  0  0  0  0
   -3.6777    0.7260    0.9169 O   0  0  0  0  0  0  0  0  0  0  0  0
   -2.8103    2.6632    0.2301 O   0  0  0  0  0  0  0  0  0  0  0  0
    0.4082   -2.4363    0.0099 C   0  0  0  0  0  0  0  0  0  0  0  0
    1.2710   -2.9270    1.0034 C   0  0  0  0  0  0  0  0  0  0  0  0
    1.6183   -2.2138    2.1178 O   0  0  0  0  0  0  0  0  0  0  0  0
    1.7564   -4.2337    0.9509 C   0  0  0  0  0  0  0  0  0  0  0  0
    1.3885   -5.0722   -0.0981 C   0  0  0  0  0  0  0  0  0  0  0  0
    0.5191   -4.6070   -1.0828 C   0  0  0  0  0  0  0  0  0  0  0  0
    0.0185   -3.3011   -1.0214 C   0  0  0  0  0  0  0  0  0  0  0  0
  2  1  2  0
  2  4  1  0
  3  2  1  0
  4 10  1  0
  5  4  1  0
  6  3  1  0
  6  5  1  0
  6  7  1  1
  7  8  1  0
  9  7  2  0
 10 11  2  0
 10 16  1  0
 11 13  1  0
 12 11  1  0
 13 14  2  0
 15 14  1  0
 16 15  2  0
M  END
>  <DRUGBANK_ID>  (1) 
DB07057

>  <COMMON_NAME>  (1) 
(3S)-1-(2-hydroxyphenyl)-5-oxopyrrolidine-3-carboxylic acid

$$$$
