
     RDKit          3D

 19 21  0  0  0  0  0  0  0  0999 V2000
    1.7110    0.4966    0.1218 O   0  0  0  0  0  0  0  0  0  0  0  0
   -1.8768    0.8942    0.0910 O   0  0  0  0  0  0  0  0  0  0  0  0
   -0.7751   -1.4960    0.6652 O   0  0  0  0  0  0  0  0  0  0  0  0
    1.3933   -1.9470   -2.5928 O   0  0  0  0  0  0  0  0  0  0  0  0
   -0.2060    5.5568   -3.1175 O   0  0  0  0  0  0  0  0  0  0  0  0
    0.7151    2.6349   -0.0500 N   0  0  0  0  0  0  0  0  0  0  0  0
    0.1932    4.7282   -0.2500 N   0  0  0  0  0  0  0  0  0  0  0  0
    1.7918    2.3402   -2.2360 N   0  0  0  0  0  0  0  0  0  0  0  0
    1.7120    4.1925   -3.7288 N   0  0  0  0  0  0  0  0  0  0  0  0
    0.5168    1.2501    0.3496 C   0  0  1  0  0  0  0  0  0  0  0  0
   -0.5999    0.6089   -0.4740 C   0  0  1  0  0  0  0  0  0  0  0  0
   -0.1994   -0.8497   -0.4760 C   0  0  1  0  0  0  0  0  0  0  0  0
    1.3360   -0.8078   -0.4005 C   0  0  1  0  0  0  0  0  0  0  0  0
    1.1846    3.0599   -1.2694 C   0  0  0  0  0  0  0  0  0  0  0  0
    2.0635   -1.0506   -1.7351 C   0  0  0  0  0  0  0  0  0  0  0  0
    0.8168    4.3631   -1.4213 C   0  0  0  0  0  0  0  0  0  0  0  0
    0.1539    3.6808    0.5817 C   0  0  0  0  0  0  0  0  0  0  0  0
    1.0527    5.0517   -2.7138 C   0  0  2  0  0  0  0  0  0  0  0  0
    2.0187    2.9727   -3.4298 C   0  0  0  0  0  0  0  0  0  0  0  0
  1 10  1  0
  1 13  1  0
  4 15  1  0
  6 14  1  0
  6 17  2  0
  7 16  1  0
  7 17  1  0
  8 14  1  0
  8 19  1  0
  9 18  1  0
  9 19  2  0
 10 11  1  0
 10  6  1  6
 11  2  1  1
 11 12  1  0
 12  3  1  1
 12 13  1  0
 13 15  1  6
 14 16  2  0
 16 18  1  0
 18  5  1  6
M  CHG  1   6   1
M  END
>  <DRUGBANK_ID>  (1) 
DB03015

>  <SECONDARY_ACCESSION_NUMBERS>  (1) 
EXPT02660

>  <COMMON_NAME>  (1) 
6-hydroxy-1,6-dihydro purine nucleoside

$$$$
