
     RDKit          3D

 26 27  0  0  0  0  0  0  0  0999 V2000
    0.0387   -0.1580   -0.4114 C   0  0  0  0  0  0  0  0  0  0  0  0
    0.7247   -2.3500    3.8293 C   0  0  0  0  0  0  0  0  0  0  0  0
    5.4974   -5.2794   -3.5216 C   0  0  0  0  0  0  0  0  0  0  0  0
    2.6123    0.4003    0.0941 C   0  0  0  0  0  0  0  0  0  0  0  0
    0.2030   -0.7670    1.1427 C   0  0  0  0  0  0  0  0  0  0  0  0
    0.4009   -0.8678    3.6399 C   0  0  0  0  0  0  0  0  0  0  0  0
    5.1037   -5.8693   -4.8682 C   0  0  0  0  0  0  0  0  0  0  0  0
    1.1887   -2.4573   -3.5596 C   0  0  0  0  0  0  0  0  0  0  0  0
    1.6581   -1.6466   -2.4973 C   0  0  0  0  0  0  0  0  0  0  0  0
    3.3525   -1.5804    2.3801 C   0  0  0  0  0  0  0  0  0  0  0  0
    2.5273   -0.3387    2.7217 C   0  0  0  0  0  0  0  0  0  0  0  0
    1.7359   -4.3767   -2.2981 C   0  0  0  0  0  0  0  0  0  0  0  0
    1.3789   -5.8699   -4.7112 C   0  0  0  0  0  0  0  0  0  0  0  0
    2.6701   -1.3202   -0.0244 C   0  0  0  0  0  0  0  0  0  0  0  0
    1.3165   -3.8301   -3.5021 C   0  0  0  0  0  0  0  0  0  0  0  0
    2.1650   -2.1411   -1.2685 C   0  0  0  0  0  0  0  0  0  0  0  0
    2.9773   -2.1270    1.0385 C   0  0  0  0  0  0  0  0  0  0  0  0
    2.1161   -3.5434   -1.2134 C   0  0  0  0  0  0  0  0  0  0  0  0
    2.8201   -6.2778   -4.4099 C   0  0  0  0  0  0  0  0  0  0  0  0
    2.8682   -3.6448    1.0981 C   0  0  0  0  0  0  0  0  0  0  0  0
    1.0138   -0.2462    2.4251 N   0  0  0  0  0  0  0  0  0  0  0  0
    3.1069   -7.0977   -3.5458 O   0  0  0  0  0  0  0  0  0  0  0  0
    3.1079   -4.2917    2.0741 O   0  0  0  0  0  0  0  0  0  0  0  0
    3.7226   -5.6063   -5.1784 O   0  0  0  0  0  0  0  0  0  0  0  0
    1.0600   -4.4883   -4.6718 O   0  0  0  0  0  0  0  0  0  0  0  0
    2.4524   -4.2670   -0.0676 O   0  0  0  0  0  0  0  0  0  0  0  0
  5  1  1  0
  6  2  1  0
  7  3  1  0
  9  8  2  0
 11 10  1  0
 14  4  1  0
 15  8  1  0
 15 12  2  0
 16  9  1  0
 16 14  1  0
 17 10  1  0
 17 14  2  0
 18 12  1  0
 18 16  2  0
 19 13  1  0
 20 17  1  0
 21  5  1  0
 21  6  1  0
 21 11  1  0
 22 19  2  0
 23 20  2  0
 24  7  1  0
 24 19  1  0
 25 13  1  0
 25 15  1  0
 26 18  1  0
 26 20  1  0
M  END
>  <DRUGBANK_ID>  (1) 
DB13279

>  <COMMON_NAME>  (1) 
Carbocromen

>  <CAS_NUMBER>  (1) 
804-10-4

>  <UNII>  (1) 
R0C9NIE5JJ

>  <SYNONYMS>  (1) 
Carbocromen; Chromonar

$$$$
