
     RDKit          3D

  9  9  0  0  0  0  0  0  0  0999 V2000
   -0.1133   -1.0717    0.0329 C   0  0  0  0  0  0  0  0  0  0  0  0
   -1.1274   -0.1238   -0.0011 C   0  0  0  0  0  0  0  0  0  0  0  0
   -0.2067   -2.5727    0.0313 C   0  0  0  0  0  0  0  0  0  0  0  0
    1.4038   -0.2686    0.1659 S   0  0  0  0  0  0  0  0  0  0  0  0
   -0.6950    1.1962   -0.0193 N   0  0  0  0  0  0  0  0  0  0  0  0
   -2.5947   -0.3627   -0.0199 C   0  0  0  0  0  0  0  0  0  0  0  0
    0.3254   -3.2445   -1.2343 C   0  0  0  0  0  0  0  0  0  0  0  0
    0.6129    1.2377    0.0366 C   0  0  0  0  0  0  0  0  0  0  0  0
    2.1005   -3.2154   -1.3758 Cl  0  0  0  0  0  0  0  0  0  0  0  0
  1  2  2  0
  1  3  1  0
  1  4  1  0
  2  5  1  0
  2  6  1  0
  3  7  1  0
  4  8  1  0
  5  8  2  0
  7  9  1  0
M  END
>  <DRUGBANK_ID>  (1) 
DB06470

>  <COMMON_NAME>  (1) 
Clomethiazole

>  <CAS_NUMBER>  (1) 
533-45-9

>  <UNII>  (1) 
0C5DBZ19HV

>  <SYNONYMS>  (1) 
Clomethiazole; Clomethiazolum; Clometiazol

$$$$
