
     RDKit          3D

 25 27  0  0  0  0  0  0  0  0999 V2000
    0.1902    0.2194    0.1479 C   0  0  0  0  0  0  0  0  0  0  0  0
    0.1383    0.9003   -1.2036 N   0  0  0  0  0  0  0  0  0  0  0  0
   -1.3672    0.8282   -1.4593 C   0  0  0  0  0  0  0  0  0  0  0  0
   -1.8079    1.7679   -2.5438 C   0  0  0  0  0  0  0  0  0  0  0  0
   -1.3781    3.1822   -2.1980 C   0  0  0  0  0  0  0  0  0  0  0  0
    0.1336    3.2417   -2.1920 C   0  0  0  0  0  0  0  0  0  0  0  0
    0.6526    2.3647   -1.0704 C   0  0  0  0  0  0  0  0  0  0  0  0
    0.9766    0.1502   -2.3103 C   0  0  0  0  0  0  0  0  0  0  0  0
    2.5278    0.1092   -2.1078 C   0  0  0  0  0  0  0  0  0  0  0  0
    3.1226   -0.6530   -0.8552 C   0  0  0  0  0  0  0  0  0  0  0  0
    2.5480   -2.1414   -0.9350 C   0  0  0  0  0  0  0  0  0  0  0  0
    3.2870   -3.1708   -1.5168 C   0  0  0  0  0  0  0  0  0  0  0  0
    2.9954   -4.5190   -1.2737 C   0  0  0  0  0  0  0  0  0  0  0  0
    1.8082   -4.8876   -0.6619 C   0  0  0  0  0  0  0  0  0  0  0  0
    0.9028   -3.9033   -0.3551 C   0  0  0  0  0  0  0  0  0  0  0  0
    1.2579   -2.5752   -0.5817 C   0  0  0  0  0  0  0  0  0  0  0  0
    4.6764   -0.5577   -0.8200 C   0  0  0  0  0  0  0  0  0  0  0  0
    5.2813    0.7165   -0.8063 C   0  0  0  0  0  0  0  0  0  0  0  0
    6.6287    0.8612   -0.4931 C   0  0  0  0  0  0  0  0  0  0  0  0
    7.4190   -0.2617   -0.2718 C   0  0  0  0  0  0  0  0  0  0  0  0
    6.8498   -1.5203   -0.2651 C   0  0  0  0  0  0  0  0  0  0  0  0
    5.4913   -1.6483   -0.4780 C   0  0  0  0  0  0  0  0  0  0  0  0
    2.8742    0.1946    0.5357 C   0  0  0  0  0  0  0  0  0  0  0  0
    2.7228    1.3998    0.5793 O   0  0  0  0  0  0  0  0  0  0  0  0
    2.7194   -0.4913    1.7134 N   0  0  0  0  0  0  0  0  0  0  0  0
  1  2  1  0
  2  3  1  0
  2  7  1  0
  2  8  1  0
  3  4  1  0
  4  5  1  0
  5  6  1  0
  6  7  1  0
  8  9  1  0
  9 10  1  0
 10 11  1  0
 10 17  1  0
 10 23  1  0
 11 12  2  0
 11 16  1  0
 12 13  1  0
 13 14  2  0
 14 15  1  0
 15 16  2  0
 17 18  2  0
 17 22  1  0
 18 19  1  0
 19 20  2  0
 20 21  1  0
 21 22  2  0
 23 24  2  0
 23 25  1  0
M  CHG  1   2   1
M  END
>  <DRUGBANK_ID>  (1) 
DB13759

>  <COMMON_NAME>  (1) 
Fenpiverinium

>  <CAS_NUMBER>  (1) 
258329-46-3

>  <UNII>  (1) 
KP2L8LC73B

$$$$
