
     RDKit          3D

 40 41  0  0  0  0  0  0  0  0999 V2000
   -8.0119   10.4653    5.2858 C   0  0  0  0  0  0  0  0  0  0  0  0
   -8.3711    9.1358    5.2421 C   0  0  0  0  0  0  0  0  0  0  0  0
   -7.8924    8.2830    4.2120 C   0  0  0  0  0  0  0  0  0  0  0  0
   -7.2814    8.8122    3.0160 C   0  0  0  0  0  0  0  0  0  0  0  0
   -6.8385   10.1490    3.1517 C   0  0  0  0  0  0  0  0  0  0  0  0
   -7.2022   10.9568    4.2688 C   0  0  0  0  0  0  0  0  0  0  0  0
   -7.9613    6.7903    4.5896 C   0  0  0  0  0  0  0  0  0  0  0  0
   -9.4338    6.3591    4.3964 C   0  0  0  0  0  0  0  0  0  0  0  0
   -7.0352    6.0595    3.6783 C   0  0  0  0  0  0  0  0  0  0  0  0
   -7.3260    6.3264    5.8866 C   0  0  0  0  0  0  0  0  0  0  0  0
   -6.9984    8.0857    1.7251 N   0  0  0  0  0  0  0  0  0  0  0  0
   -7.6061    6.9105    1.1355 C   0  0  0  0  0  0  0  0  0  0  0  0
   -6.6905    6.0002    0.3027 C   0  0  0  0  0  0  0  0  0  0  0  0
   -7.0684    4.6325    0.3492 N   0  0  0  0  0  0  0  0  0  0  0  0
   -6.6918    3.7448   -0.7353 C   0  0  2  0  0  0  0  0  0  0  0  0
   -5.2124    3.4661   -0.4827 C   0  0  0  0  0  0  0  0  0  0  0  0
   -4.4703    3.2697   -1.6028 N   0  0  0  0  0  0  0  0  0  0  0  0
   -3.0464    3.0676   -1.5565 C   0  0  2  0  0  0  0  0  0  0  0  0
   -2.4245    4.3023   -2.2700 C   0  0  0  0  0  0  0  0  0  0  0  0
   -1.2929    5.0662   -1.5255 C   0  0  0  0  0  0  0  0  0  0  0  0
    0.0862    5.0562   -1.9294 O   0  0  0  0  0  0  0  0  0  0  0  0
    0.7338    3.8577   -2.0422 C   0  0  0  0  0  0  0  0  0  0  0  0
    0.1516    2.7456   -2.5966 C   0  0  0  0  0  0  0  0  0  0  0  0
    0.7392    1.4948   -2.7166 C   0  0  0  0  0  0  0  0  0  0  0  0
    2.0740    1.3606   -2.4983 C   0  0  0  0  0  0  0  0  0  0  0  0
    2.7564    2.5098   -2.1172 C   0  0  0  0  0  0  0  0  0  0  0  0
    2.0923    3.7220   -1.8138 C   0  0  0  0  0  0  0  0  0  0  0  0
    0.0069    0.4776   -3.1924 F   0  0  0  0  0  0  0  0  0  0  0  0
   -0.9717    2.8973   -3.2670 F   0  0  0  0  0  0  0  0  0  0  0  0
    4.0924    2.4631   -2.1140 F   0  0  0  0  0  0  0  0  0  0  0  0
    2.7989    4.7539   -1.3363 F   0  0  0  0  0  0  0  0  0  0  0  0
   -2.7629    4.6271   -3.4131 O   0  0  0  0  0  0  0  0  0  0  0  0
   -2.7808    1.6748   -2.1475 C   0  0  0  0  0  0  0  0  0  0  0  0
   -3.1727    1.6019   -3.6185 C   0  0  0  0  0  0  0  0  0  0  0  0
   -4.7194    3.3818    0.6434 O   0  0  0  0  0  0  0  0  0  0  0  0
   -7.0433    4.4153   -2.0623 C   0  0  0  0  0  0  0  0  0  0  0  0
   -5.8204    6.4884   -0.3568 O   0  0  0  0  0  0  0  0  0  0  0  0
   -8.7116    6.3971    1.3377 O   0  0  0  0  0  0  0  0  0  0  0  0
   -2.2062    1.3392   -4.5193 O   0  0  0  0  0  0  0  0  0  0  0  0
   -4.3319    1.7692   -3.9802 O   0  0  0  0  0  0  0  0  0  0  0  0
  1  2  2  0
  2  3  1  0
  3  7  1  0
  3  4  2  0
  4 11  1  0
  4  5  1  0
  5  6  2  0
  6  1  1  0
  7 10  1  0
  7  8  1  0
  7  9  1  0
 11 12  1  0
 12 13  1  0
 12 38  2  0
 13 14  1  0
 13 37  2  0
 15 36  1  6
 15 16  1  0
 15 14  1  0
 16 17  1  0
 16 35  2  0
 17 18  1  0
 18 33  1  6
 18 19  1  0
 19 20  1  0
 19 32  2  0
 20 21  1  0
 21 22  1  0
 22 23  2  0
 23 24  1  0
 23 29  1  0
 24 25  2  0
 24 28  1  0
 25 26  1  0
 26 27  2  0
 26 30  1  0
 27 22  1  0
 27 31  1  0
 33 34  1  0
 34 39  1  0
 34 40  2  0
M  END
>  <DRUGBANK_ID>  (1) 
DB05408

>  <COMMON_NAME>  (1) 
Emricasan

>  <CAS_NUMBER>  (1) 
254750-02-2

>  <UNII>  (1) 
P0GMS9N47Q

>  <SYNONYMS>  (1) 
Emricasan; EmricasÃ¡n; Emricasanum

$$$$
