
     RDKit          3D

 36 40  0  0  0  0  0  0  0  0999 V2000
    0.9403   -0.0837   -0.0191 C   0  0  0  0  0  0  0  0  0  0  0  0
    0.3326    0.2717   -1.4007 C   0  0  0  0  0  0  0  0  0  0  0  0
    0.9597   -0.7165   -2.4176 C   0  0  0  0  0  0  0  0  0  0  0  0
   -1.2489    0.2625   -1.3771 C   0  0  0  0  0  0  0  0  0  0  0  0
   -2.0418   -0.8846   -1.3064 C   0  0  0  0  0  0  0  0  0  0  0  0
   -3.6545   -1.0028   -1.1399 C   0  0  0  0  0  0  0  0  0  0  0  0
   -4.7592   -0.0359   -0.9825 C   0  0  0  0  0  0  0  0  0  0  0  0
   -3.7811    1.2160   -1.0872 C   0  0  0  0  0  0  0  0  0  0  0  0
   -2.1277    1.3414   -1.3165 C   0  0  0  0  0  0  0  0  0  0  0  0
   -6.5990   -0.7129   -0.9188 C   0  0  0  0  0  0  0  0  0  0  0  0
   -8.6474   -0.4013   -0.4125 C   0  0  0  0  0  0  0  0  0  0  0  0
  -10.3334   -0.7850   -0.5256 C   0  0  0  0  0  0  0  0  0  0  0  0
  -11.7488   -0.1681   -1.3454 C   0  0  0  0  0  0  0  0  0  0  0  0
  -11.4979    0.8674   -2.2011 C   0  0  0  0  0  0  0  0  0  0  0  0
  -10.1807    1.2216   -2.1393 C   0  0  0  0  0  0  0  0  0  0  0  0
   -9.0431    0.4816   -1.3918 C   0  0  0  0  0  0  0  0  0  0  0  0
   -7.9980    0.3822   -2.2136 N   0  0  0  0  0  0  0  0  0  0  0  0
   -7.7135   -1.2512   -2.3058 C   0  0  0  0  0  0  0  0  0  0  0  0
   -8.4558   -2.2085   -2.0430 O   0  0  0  0  0  0  0  0  0  0  0  0
   -6.4724   -1.4231   -1.9548 N   0  0  0  0  0  0  0  0  0  0  0  0
   -7.2119    1.6172   -1.3980 C   0  0  0  0  0  0  0  0  0  0  0  0
   -6.6891    1.5928    0.1648 C   0  0  0  0  0  0  0  0  0  0  0  0
   -6.2973    2.8304    0.6415 C   0  0  0  0  0  0  0  0  0  0  0  0
   -5.4813    2.8539    1.7615 C   0  0  0  0  0  0  0  0  0  0  0  0
   -5.0094    1.6819    2.3573 C   0  0  0  0  0  0  0  0  0  0  0  0
   -5.6179    0.4873    2.1820 C   0  0  0  0  0  0  0  0  0  0  0  0
   -6.3785    0.4659    1.0705 C   0  0  0  0  0  0  0  0  0  0  0  0
   -5.4246   -0.5881    2.9839 N   0  0  0  0  0  0  0  0  0  0  0  0
   -4.8275   -0.2593    4.1480 C   0  0  0  0  0  0  0  0  0  0  0  0
   -4.1758    0.9752    4.2560 C   0  0  0  0  0  0  0  0  0  0  0  0
   -3.9685    1.6628    3.1440 N   0  0  0  0  0  0  0  0  0  0  0  0
   -4.4699    2.4264    5.4964 Br  0  0  0  0  0  0  0  0  0  0  0  0
  -13.2088   -0.2839   -1.4189 O   0  0  0  0  0  0  0  0  0  0  0  0
  -14.3921   -1.1049   -0.8688 C   0  0  0  0  0  0  0  0  0  0  0  0
  -13.8628   -2.5039   -1.1389 C   0  0  0  0  0  0  0  0  0  0  0  0
  -13.4089   -3.7040   -1.3706 C   0  0  0  0  0  0  0  0  0  0  0  0
  1  2  1  0
  2  3  1  0
  2  4  1  0
  4  5  2  0
  4  9  1  0
  5  6  1  0
  6  7  2  0
  7  8  1  0
  7 10  1  0
  8  9  2  0
 10 11  1  0
 10 20  2  0
 11 12  2  0
 11 16  1  0
 12 13  1  0
 13 14  2  0
 13 33  1  0
 14 15  1  0
 15 16  2  0
 16 17  1  0
 17 18  1  0
 17 21  1  0
 18 19  2  0
 18 20  1  0
 21 22  1  0
 22 23  2  0
 22 27  1  0
 23 24  1  0
 24 25  2  0
 25 26  1  0
 25 31  1  0
 26 27  2  0
 26 28  1  0
 28 29  2  0
 29 30  1  0
 30 31  2  0
 30 32  1  0
 33 34  1  0
 34 35  1  0
 35 36  3  0
M  END
>  <DRUGBANK_ID>  (1) 
DB12673

>  <COMMON_NAME>  (1) 
ATX-914

>  <UNII>  (1) 
8VK61D7U5D

$$$$
