
     RDKit          3D

 26 28  0  0  0  0  0  0  0  0999 V2000
    2.6096    0.0909   -0.0206 C   0  0  0  0  0  0  0  0  0  0  0  0
   -3.0428   -5.4220    0.4705 C   0  0  0  0  0  0  0  0  0  0  0  0
   -4.5497   -5.4927    0.6440 C   0  0  0  0  0  0  0  0  0  0  0  0
   -4.5486    3.4027   -1.1093 C   0  0  0  0  0  0  0  0  0  0  0  0
   -5.4045    3.6998   -0.0549 C   0  0  0  0  0  0  0  0  0  0  0  0
   -3.8947    2.1750   -1.1265 C   0  0  0  0  0  0  0  0  0  0  0  0
    0.3613    1.2939    0.0022 C   0  0  0  0  0  0  0  0  0  0  0  0
    0.4839   -1.0780    0.0053 C   0  0  0  0  0  0  0  0  0  0  0  0
   -1.0441    1.2384    0.0176 C   0  0  0  0  0  0  0  0  0  0  0  0
   -0.8947   -1.1040    0.0572 C   0  0  0  0  0  0  0  0  0  0  0  0
   -6.5153    3.0511    2.0577 C   0  0  0  0  0  0  0  0  0  0  0  0
   -6.7637    2.2103    3.0735 C   0  0  0  0  0  0  0  0  0  0  0  0
   -4.0187   -1.1148   -0.0354 C   0  0  0  0  0  0  0  0  0  0  0  0
   -2.6851   -4.2598    1.3673 C   0  0  0  0  0  0  0  0  0  0  0  0
   -4.9979   -4.0707    0.9650 C   0  0  0  0  0  0  0  0  0  0  0  0
   -3.5777   -2.5408   -0.1202 C   0  0  0  0  0  0  0  0  0  0  0  0
    1.1257    0.1296   -0.0144 C   0  0  0  0  0  0  0  0  0  0  0  0
   -1.7365    0.0209    0.0125 C   0  0  0  0  0  0  0  0  0  0  0  0
   -5.5880    2.7521    0.9497 C   0  0  0  0  0  0  0  0  0  0  0  0
   -3.2617    0.0131   -0.0055 C   0  0  0  0  0  0  0  0  0  0  0  0
   -4.0803    1.2866   -0.0654 C   0  0  0  0  0  0  0  0  0  0  0  0
   -7.6968    2.4908    4.1801 C   0  0  0  0  0  0  0  0  0  0  0  0
   -4.9398    1.5553    0.9563 N   0  0  0  0  0  0  0  0  0  0  0  0
   -3.7699   -3.2784    1.1302 N   0  0  0  0  0  0  0  0  0  0  0  0
   -7.9273    1.7350    5.0943 O   0  0  0  0  0  0  0  0  0  0  0  0
   -8.2986    3.6939    4.0907 O   0  0  0  0  0  0  0  0  0  0  0  0
  3  2  1  0
  5  4  2  0
  6  4  1  0
  9  7  2  0
 10  8  1  0
 12 11  2  0
 14  2  1  0
 15  3  1  0
 16 13  1  0
 17  1  1  0
 17  7  1  0
 17  8  2  0
 18  9  1  0
 18 10  2  0
 19  5  1  0
 19 11  1  0
 20 13  2  0
 20 18  1  0
 21  6  2  0
 21 20  1  0
 22 12  1  0
 23 19  2  0
 23 21  1  0
 24 14  1  0
 24 15  1  0
 24 16  1  0
 25 22  2  0
 26 22  1  0
M  END
>  <DRUGBANK_ID>  (1) 
DB09488

>  <COMMON_NAME>  (1) 
Acrivastine

>  <CAS_NUMBER>  (1) 
87848-99-5

>  <UNII>  (1) 
A20F9XAI7W

>  <SYNONYMS>  (1) 
(2E)-3-{6-[(1E)-1-(4-methylphenyl)-3-(pyrrolidin-1-yl)prop-1-en-1-yl]pyridin-2-yl}acrylic acid; acrivastina; Acrivastine

$$$$
