CRV
     RDKit          3D

 33 35  0  0  0  0  0  0  0  0999 V2000
    2.1064   -0.2613    4.7208 C   0  0  0  0  0  0  0  0  0  0  0  0
    1.6530    0.5871    3.5027 C   0  0  1  0  0  0  0  0  0  0  0  0
    0.9307    1.8958    3.8096 N   0  0  0  0  0  0  0  0  0  0  0  0
    2.8690    0.7925    2.5944 C   0  0  0  0  0  0  0  0  0  0  0  0
    3.0681    0.3510    5.4421 F   0  0  0  0  0  0  0  0  0  0  0  0
    2.5756   -1.4734    4.3335 F   0  0  0  0  0  0  0  0  0  0  0  0
    1.0563   -0.4991    5.5467 F   0  0  0  0  0  0  0  0  0  0  0  0
    0.3613    2.6626    2.6171 C   0  0  2  0  0  0  0  0  0  0  0  0
    0.5586    1.9118    1.2719 C   0  0  0  0  0  0  0  0  0  0  0  0
    0.7925    4.1470    2.7259 C   0  0  0  0  0  0  0  0  0  0  0  0
    0.1710    5.3183    1.4934 S   0  0  0  0  0  0  0  0  0  0  0  0
   -1.5915    5.1236    1.4842 C   0  0  0  0  0  0  0  0  0  0  0  0
    1.0869    2.6164    0.2414 N   0  0  0  0  0  0  0  0  0  0  0  0
    0.2317    0.7275    1.1792 O   0  0  0  0  0  0  0  0  0  0  0  0
    1.6593    2.1744   -0.9889 C   0  0  0  0  0  0  0  0  0  0  0  0
    2.5993    4.4550   -1.2295 N   0  0  0  0  0  0  0  0  0  0  0  0
    0.7661    1.8004   -2.1460 C   0  0  0  0  0  0  0  0  0  0  0  0
    1.5021    0.7267   -1.4007 C   0  0  0  0  0  0  0  0  0  0  0  0
    3.4580    2.0572    2.4775 C   0  0  0  0  0  0  0  0  0  0  0  0
    4.4494    2.3257    1.5482 C   0  0  0  0  0  0  0  0  0  0  0  0
    4.9295    1.2895    0.7624 C   0  0  0  0  0  0  0  0  0  0  0  0
    4.4248    0.0037    0.9044 C   0  0  0  0  0  0  0  0  0  0  0  0
    3.3873   -0.2460    1.8086 C   0  0  0  0  0  0  0  0  0  0  0  0
    5.8374    1.5243   -0.2279 O   0  0  0  0  0  0  0  0  0  0  0  0
   -2.0714    5.6752    2.7675 C   0  0  0  0  0  0  0  0  0  0  0  0
   -2.3499    4.8272    3.8395 C   0  0  0  0  0  0  0  0  0  0  0  0
   -2.5159    5.3710    5.1020 C   0  0  0  0  0  0  0  0  0  0  0  0
   -2.3921    6.7491    5.2862 C   0  0  0  0  0  0  0  0  0  0  0  0
   -2.1133    7.5913    4.2129 C   0  0  0  0  0  0  0  0  0  0  0  0
   -2.0174    7.0626    2.9417 C   0  0  0  0  0  0  0  0  0  0  0  0
    0.5971    6.6492    1.9132 O   0  0  0  0  0  0  0  0  0  0  0  0
    0.5128    4.9391    0.1553 O   0  0  0  0  0  0  0  0  0  0  0  0
    2.8948    3.0347   -1.3124 C   0  0  0  0  0  0  0  0  0  0  0  0
  1  2  1  0
  1  5  1  0
  1  6  1  0
  1  7  1  0
  2  3  1  1
  2  4  1  0
  4 19  2  0
  4 23  1  0
  8 10  1  6
  8  9  1  0
  8  3  1  0
  9 13  1  0
  9 14  2  0
 10 11  1  0
 11 12  1  0
 11 31  2  0
 11 32  2  0
 12 25  1  0
 13 15  1  0
 15 17  1  0
 15 18  1  0
 15 33  1  0
 16 33  1  0
 17 18  1  0
 19 20  1  0
 20 21  2  0
 21 22  1  0
 21 24  1  0
 22 23  2  0
 25 26  2  0
 25 30  1  0
 26 27  1  0
 27 28  2  0
 28 29  1  0
 29 30  2  0
M  END
>  <DRUGBANK_ID>  (1) 
DB07589

>  <COMMON_NAME>  (1) 
N-[1-(AMINOMETHYL)CYCLOPROPYL]-3-(BENZYLSULFONYL)-N~2~-[(1S)-2,2,2-TRIFLUORO-1-(4-HYDROXYPHENYL)ETHYL]-L-ALANINAMIDE

$$$$
