BTQ
     RDKit          3D

 16 17  0  0  0  0  0  0  0  0999 V2000
    0.7592   -0.1317   -0.2015 C   0  0  0  0  0  0  0  0  0  0  0  0
    0.0229    0.4568    0.5742 O   0  0  0  0  0  0  0  0  0  0  0  0
    0.2532   -0.8785   -1.1834 O   0  0  0  0  0  0  0  0  0  0  0  0
    2.2367   -0.1290   -0.2038 C   0  0  0  0  0  0  0  0  0  0  0  0
    2.6533    0.6982    0.9769 C   0  0  0  0  0  0  0  0  0  0  0  0
    2.4376    0.0127    2.3563 C   0  0  0  0  0  0  0  0  0  0  0  0
    3.1001   -1.3602    2.5280 C   0  0  0  0  0  0  0  0  0  0  0  0
    4.6454   -1.3880    2.6244 C   0  0  1  0  0  0  0  0  0  0  0  0
    5.5384   -0.4450    1.3526 S   0  0  0  0  0  0  0  0  0  0  0  0
    5.2729    1.1544    2.2234 C   0  0  0  0  0  0  0  0  0  0  0  0
    5.3666    0.8188    3.6892 C   0  0  2  0  0  0  0  0  0  0  0  0
    6.6951    1.1019    4.1312 N   0  0  0  0  0  0  0  0  0  0  0  0
    7.3944   -0.0665    4.2881 C   0  0  0  0  0  0  0  0  0  0  0  0
    8.6119   -0.1429    4.4150 O   0  0  0  0  0  0  0  0  0  0  0  0
    6.5103   -1.1220    4.2683 N   0  0  0  0  0  0  0  0  0  0  0  0
    5.1694   -0.7032    3.9036 C   0  0  2  0  0  0  0  0  0  0  0  0
  1  2  2  0
  1  3  1  0
  1  4  1  0
  4  5  1  0
  5  6  1  0
  6  7  1  0
  8  7  1  6
  8  9  1  0
  8 16  1  0
  9 10  1  0
 11 10  1  6
 11 12  1  0
 11 16  1  0
 12 13  1  0
 13 14  2  0
 13 15  1  0
 16 15  1  6
M  END
>  <DRUGBANK_ID>  (1) 
DB04650

>  <COMMON_NAME>  (1) 
5-[(3AS,4R,6AR)-2-OXOHEXAHYDRO-1H-THIENO[3,4-D]IMIDAZOL-4-YL]PENTANOIC ACID

$$$$
