
     RDKit          3D

 28 31  0  0  0  0  0  0  0  0999 V2000
    0.9742    0.0781    0.0638 C   0  0  0  0  0  0  0  0  0  0  0  0
    0.4882    1.4283   -0.0442 O   0  0  0  0  0  0  0  0  0  0  0  0
    1.0425    2.3255    0.8138 C   0  0  0  0  0  0  0  0  0  0  0  0
    1.9704    2.0648    1.5732 O   0  0  0  0  0  0  0  0  0  0  0  0
    0.3748    3.6716    0.7736 C   0  0  0  0  0  0  0  0  0  0  0  0
   -1.0038    3.8750    0.5103 C   0  0  0  0  0  0  0  0  0  0  0  0
   -1.4233    5.2138    0.4439 C   0  0  0  0  0  0  0  0  0  0  0  0
   -0.5784    6.2879    0.6569 C   0  0  0  0  0  0  0  0  0  0  0  0
   -1.2222    7.4808    0.5090 O   0  0  0  0  0  0  0  0  0  0  0  0
   -2.5226    7.0626    0.0866 C   0  0  0  0  0  0  0  0  0  0  0  0
   -2.7003    5.6393    0.1706 O   0  0  0  0  0  0  0  0  0  0  0  0
    0.7479    6.1069    0.9922 C   0  0  0  0  0  0  0  0  0  0  0  0
    1.6693    7.0844    1.2491 O   0  0  0  0  0  0  0  0  0  0  0  0
    1.2279    8.4365    1.1197 C   0  0  0  0  0  0  0  0  0  0  0  0
    1.2118    4.7837    1.0653 C   0  0  0  0  0  0  0  0  0  0  0  0
   -1.9776    2.7830    0.3102 C   0  0  0  0  0  0  0  0  0  0  0  0
   -2.3144    1.8305    1.3099 C   0  0  0  0  0  0  0  0  0  0  0  0
   -1.8239    1.9226    2.7438 C   0  0  0  0  0  0  0  0  0  0  0  0
   -0.4470    1.6790    2.9224 O   0  0  0  0  0  0  0  0  0  0  0  0
   -3.2345    0.7887    0.9992 C   0  0  0  0  0  0  0  0  0  0  0  0
   -3.8691    0.6945   -0.2480 C   0  0  0  0  0  0  0  0  0  0  0  0
   -4.7464   -0.3441   -0.3958 O   0  0  0  0  0  0  0  0  0  0  0  0
   -5.4047   -0.4427   -1.6583 C   0  0  0  0  0  0  0  0  0  0  0  0
   -3.5518    1.6552   -1.1860 C   0  0  0  0  0  0  0  0  0  0  0  0
   -2.6333    2.6514   -0.9195 C   0  0  0  0  0  0  0  0  0  0  0  0
   -2.4576    3.4747   -2.0017 O   0  0  0  0  0  0  0  0  0  0  0  0
   -3.3014    2.8491   -2.9785 C   0  0  0  0  0  0  0  0  0  0  0  0
   -4.0615    1.7611   -2.4458 O   0  0  0  0  0  0  0  0  0  0  0  0
  1  2  1  0
  2  3  1  0
  3  4  2  0
  3  5  1  0
  5  6  2  0
  5 15  1  0
  6  7  1  0
  6 16  1  0
  7  8  2  0
  7 11  1  0
  8  9  1  0
  8 12  1  0
  9 10  1  0
 10 11  1  0
 12 13  1  0
 12 15  2  0
 13 14  1  0
 16 17  2  0
 16 25  1  0
 17 18  1  0
 17 20  1  0
 18 19  1  0
 20 21  2  0
 21 22  1  0
 21 24  1  0
 22 23  1  0
 24 25  2  0
 24 28  1  0
 25 26  1  0
 26 27  1  0
 27 28  1  0
M  END
>  <DRUGBANK_ID>  (1) 
DB16014

>  <COMMON_NAME>  (1) 
Bicyclol

>  <CAS_NUMBER>  (1) 
118159-48-1

>  <UNII>  (1) 
9734122TH2

>  <SYNONYMS>  (1) 
4,4'-bi-1,3-benzodioxole)-5-carboxylic acid, 5'-(hydroxymethyl)-7,7'-dimethoxy-, methyl ester

$$$$
