
     RDKit          3D

 22 23  0  0  0  0  0  0  0  0999 V2000
    5.2423   -3.6298   -6.7970 C   0  0  0  0  0  0  0  0  0  0  0  0
    5.9872   -3.6621   -5.5088 C   0  0  0  0  0  0  0  0  0  0  0  0
    6.2594   -4.8838   -5.0443 N   0  0  0  0  0  0  0  0  0  0  0  0
    7.0327   -4.9135   -3.9745 C   0  0  0  0  0  0  0  0  0  0  0  0
    7.4341   -3.8284   -3.2386 C   0  0  0  0  0  0  0  0  0  0  0  0
    8.1057   -4.0293   -1.9406 C   0  0  0  0  0  0  0  0  0  0  0  0
    7.1681   -4.4607   -0.9043 N   0  0  0  0  0  0  0  0  0  0  0  0
    7.0704   -3.7103    0.1817 C   0  0  0  0  0  0  0  0  0  0  0  0
    6.8853   -4.7983    1.4615 S   0  0  0  0  0  0  0  0  0  0  0  0
    5.8666   -5.7770    0.4497 C   0  0  0  0  0  0  0  0  0  0  0  0
    4.8186   -6.7517    0.9183 C   0  0  0  0  0  0  0  0  0  0  0  0
    5.1025   -7.3060    2.2952 C   0  0  0  0  0  0  0  0  0  0  0  0
    5.0736   -6.3523    3.3275 O   0  0  0  0  0  0  0  0  0  0  0  0
    3.9323   -5.1843    3.4820 P   0  0  0  0  0  0  0  0  0  0  0  0
    3.0414   -6.4065    4.3220 O   0  0  0  0  0  0  0  0  0  0  0  0
    2.7645   -5.3525    2.5040 O   0  0  0  0  0  0  0  0  0  0  0  0
    4.7296   -4.0905    2.7303 O   0  0  0  0  0  0  0  0  0  0  0  0
    6.4869   -5.6858   -0.7736 C   0  0  0  0  0  0  0  0  0  0  0  0
    6.4915   -6.7928   -1.7418 C   0  0  0  0  0  0  0  0  0  0  0  0
    7.1952   -2.6087   -3.8426 C   0  0  0  0  0  0  0  0  0  0  0  0
    7.8794   -1.4693   -3.4619 N   0  0  0  0  0  0  0  0  0  0  0  0
    6.4758   -2.5237   -4.9725 N   0  0  0  0  0  0  0  0  0  0  0  0
  1  2  1  0
  2  3  2  0
  2 22  1  0
  3  4  1  0
  4  5  2  0
  5  6  1  0
  5 20  1  0
  6  7  1  0
  7  8  2  0
  7 18  1  0
  8  9  1  0
  9 10  1  0
 10 11  1  0
 10 18  2  0
 11 12  1  0
 12 13  1  0
 14 16  1  0
 14 17  2  0
 14 15  1  0
 14 13  1  0
 18 19  1  0
 20 21  1  0
 20 22  2  0
M  CHG  2   7   1  16  -1
M  END
>  <DRUGBANK_ID>  (1) 
DB03416

>  <SECONDARY_ACCESSION_NUMBERS>  (1) 
EXPT03096

>  <COMMON_NAME>  (1) 
Thiamine(1+) monophosphate

>  <CAS_NUMBER>  (1) 
10023-48-0

>  <UNII>  (1) 
71F2V60NN0

$$$$
