
     RDKit          3D

 21 23  0  0  0  0  0  0  0  0999 V2000
    0.9349    0.0233   -0.0722 C   0  0  0  0  0  0  0  0  0  0  0  0
   -3.8278    1.1182    0.7471 C   0  0  0  0  0  0  0  0  0  0  0  0
   -0.3689    0.0233   -0.0722 C   0  0  0  0  0  0  0  0  0  0  0  0
   -6.3431   -3.5105    3.6499 C   0  0  0  0  0  0  0  0  0  0  0  0
    0.6294   -2.4418    4.2152 C   0  0  0  0  0  0  0  0  0  0  0  0
   -5.7718   -4.7161    3.2471 C   0  0  0  0  0  0  0  0  0  0  0  0
    0.5175   -3.7530    3.7612 C   0  0  0  0  0  0  0  0  0  0  0  0
   -5.6473   -2.3273    3.4651 C   0  0  0  0  0  0  0  0  0  0  0  0
   -0.3174   -1.4905    3.8374 C   0  0  0  0  0  0  0  0  0  0  0  0
   -4.5174   -4.7377    2.6308 C   0  0  0  0  0  0  0  0  0  0  0  0
   -0.5507   -4.1180    2.9433 C   0  0  0  0  0  0  0  0  0  0  0  0
   -1.8889    0.0233   -0.0722 C   0  0  0  0  0  0  0  0  0  0  0  0
   -3.7121   -1.0587    2.7925 C   0  0  0  0  0  0  0  0  0  0  0  0
   -1.9573    0.5842    2.2822 C   0  0  0  0  0  0  0  0  0  0  0  0
   -4.3587   -2.3497    2.9294 C   0  0  0  0  0  0  0  0  0  0  0  0
   -2.4061   -0.8022    2.7023 C   0  0  0  0  0  0  0  0  0  0  0  0
   -1.4003   -1.8354    3.0166 C   0  0  0  0  0  0  0  0  0  0  0  0
   -3.8026   -3.5514    2.4792 C   0  0  0  0  0  0  0  0  0  0  0  0
   -1.5221   -3.1712    2.6017 C   0  0  0  0  0  0  0  0  0  0  0  0
   -2.3828    0.9806    0.9171 N   0  0  0  0  0  0  0  0  0  0  0  0
   -2.5815   -3.6217    1.8431 O   0  0  0  0  0  0  0  0  0  0  0  0
  3  1  3  0
  6  4  2  0
  7  5  2  0
  8  4  1  0
  9  5  1  0
 10  6  1  0
 11  7  1  0
 12  3  1  0
 15  8  2  0
 15 13  1  0
 16 13  2  0
 16 14  1  0
 17  9  2  0
 17 16  1  0
 18 10  2  0
 18 15  1  0
 19 11  2  0
 19 17  1  0
 20  2  1  0
 20 12  1  0
 20 14  1  0
 21 18  1  0
 21 19  1  0
M  END
>  <DRUGBANK_ID>  (1) 
DB12879

>  <COMMON_NAME>  (1) 
Omigapil

>  <CAS_NUMBER>  (1) 
181296-84-4

>  <UNII>  (1) 
5V14HD0N4Q

>  <SYNONYMS>  (1) 
Omigapil

$$$$
