DSV
     RDKit          3D

 24 26  0  0  0  0  0  0  0  0999 V2000
   -8.0377   -0.5158   -0.4372 C   0  0  0  0  0  0  0  0  0  0  0  0
   -8.1974   -1.7421    0.2155 C   0  0  0  0  0  0  0  0  0  0  0  0
   -9.1470   -1.8249    1.2574 C   0  0  0  0  0  0  0  0  0  0  0  0
   -9.7809   -0.6981    1.7860 C   0  0  0  0  0  0  0  0  0  0  0  0
   -9.4582    0.5583    1.2258 C   0  0  0  0  0  0  0  0  0  0  0  0
   -8.6949    0.6208    0.0503 C   0  0  0  0  0  0  0  0  0  0  0  0
   -9.6897   -3.2565    2.0255 S   0  0  0  0  0  0  0  0  0  0  0  0
  -10.8529   -2.4207    2.9674 C   0  0  0  0  0  0  0  0  0  0  0  0
  -10.7420   -1.0390    2.8190 C   0  0  0  0  0  0  0  0  0  0  0  0
  -11.8218   -3.0009    3.8066 C   0  0  0  0  0  0  0  0  0  0  0  0
  -12.6783   -2.1703    4.5293 C   0  0  0  0  0  0  0  0  0  0  0  0
  -12.5699   -0.7911    4.4315 C   0  0  0  0  0  0  0  0  0  0  0  0
  -11.6131   -0.2182    3.5866 C   0  0  0  0  0  0  0  0  0  0  0  0
   -6.7314   -0.3950   -1.6836 S   0  0  0  0  0  0  0  0  0  0  0  0
   -7.3249   -0.8169   -2.9358 O   0  0  0  0  0  0  0  0  0  0  0  0
   -5.5476   -1.0471   -1.1812 O   0  0  0  0  0  0  0  0  0  0  0  0
   -6.3414    1.2441   -1.8589 N   0  0  0  0  0  0  0  0  0  0  0  0
   -5.7031    2.0805   -0.7787 C   0  0  1  0  0  0  0  0  0  0  0  0
   -5.8302    1.4771    0.6348 C   0  0  0  0  0  0  0  0  0  0  0  0
   -4.6470    0.6939    1.1662 C   0  0  0  0  0  0  0  0  0  0  0  0
   -6.4620    2.4038    1.6667 C   0  0  0  0  0  0  0  0  0  0  0  0
   -4.2680    2.4878   -1.1093 C   0  0  0  0  0  0  0  0  0  0  0  0
   -3.2580    2.3357   -0.4359 O   0  0  0  0  0  0  0  0  0  0  0  0
   -4.1265    3.1447   -2.2740 O   0  0  0  0  0  0  0  0  0  0  0  0
  1  6  2  0
  1 14  1  0
  2  1  1  0
  3  2  2  0
  4  3  1  0
  4  5  2  0
  5  6  1  0
  7  3  1  0
  8  7  1  0
  8  9  2  0
  9  4  1  0
 10  8  1  0
 11 10  2  0
 11 12  1  0
 12 13  2  0
 13  9  1  0
 14 16  2  0
 15 14  2  0
 17 14  1  0
 18 19  1  0
 18 17  1  6
 19 20  1  0
 21 19  1  0
 22 18  1  0
 23 22  2  0
 24 22  1  0
M  END
>  <DRUGBANK_ID>  (1) 
DB07683

>  <COMMON_NAME>  (1) 
N-(dibenzo[b,d]thiophen-3-ylsulfonyl)-L-valine

$$$$
