
     RDKit          3D

 26 29  0  0  0  0  0  0  0  0999 V2000
    1.3677   -0.2587    0.4220 C   0  0  0  0  0  0  0  0  0  0  0  0
    0.4784   -1.3250    0.3484 C   0  0  0  0  0  0  0  0  0  0  0  0
    0.8801    1.0394    0.5089 C   0  0  0  0  0  0  0  0  0  0  0  0
   -5.2008    0.0962    0.4947 C   0  0  0  0  0  0  0  0  0  0  0  0
   -0.9032   -1.0855    0.3309 C   0  0  0  0  0  0  0  0  0  0  0  0
   -0.4905    1.2728    0.5172 C   0  0  0  0  0  0  0  0  0  0  0  0
   -3.8613   -0.1545    0.8354 C   0  0  0  0  0  0  0  0  0  0  0  0
   -5.5558    0.8763   -0.6524 C   0  0  0  0  0  0  0  0  0  0  0  0
   -1.2626    3.0726   -3.5110 C   0  0  0  0  0  0  0  0  0  0  0  0
   -2.1962    0.3857   -3.6238 C   0  0  0  0  0  0  0  0  0  0  0  0
   -1.4180    0.2255    0.3886 C   0  0  0  0  0  0  0  0  0  0  0  0
   -2.8559    0.4925    0.1456 C   0  0  0  0  0  0  0  0  0  0  0  0
   -4.5623    1.5426   -1.3797 C   0  0  0  0  0  0  0  0  0  0  0  0
   -0.3422    1.9955   -3.2445 C   0  0  0  0  0  0  0  0  0  0  0  0
   -0.8579    0.6711   -3.2967 C   0  0  0  0  0  0  0  0  0  0  0  0
   -2.6682    2.7527   -3.6644 C   0  0  0  0  0  0  0  0  0  0  0  0
   -3.0397    1.4378   -3.9298 C   0  0  0  0  0  0  0  0  0  0  0  0
   -3.2926    1.4448   -0.7950 C   0  0  0  0  0  0  0  0  0  0  0  0
    1.0762    2.2273   -2.6850 C   0  0  0  0  0  0  0  0  0  0  0  0
   -4.6223    2.2848   -2.7474 C   0  0  0  0  0  0  0  0  0  0  0  0
    0.0168   -0.7692   -2.9009 Cl  0  0  0  0  0  0  0  0  0  0  0  0
    1.8410    1.3130   -2.1959 N   0  0  0  0  0  0  0  0  0  0  0  0
    1.7094    3.4358   -2.5609 N   0  0  0  0  0  0  0  0  0  0  0  0
   -3.8510    3.3529   -3.1382 N   0  0  0  0  0  0  0  0  0  0  0  0
   -4.4528    1.5270   -3.9478 N   0  0  0  0  0  0  0  0  0  0  0  0
   -2.4784    2.5202   -1.0169 O   0  0  0  0  0  0  0  0  0  0  0  0
  2  1  2  0
  3  1  1  0
  5  2  1  0
  6  3  2  0
  7  4  2  0
  8  4  1  0
 11  5  2  0
 11  6  1  0
 12  7  1  0
 12 11  1  0
 13  8  2  0
 14  9  2  0
 15 10  2  0
 15 14  1  0
 16  9  1  0
 17 10  1  0
 17 16  2  0
 18 12  2  0
 18 13  1  0
 19 14  1  0
 20 13  1  0
 21 15  1  0
 22 19  2  0
 23 19  1  0
 24 16  1  0
 24 20  2  0
 25 17  1  0
 25 20  1  0
 26 18  1  0
M  END
>  <DRUGBANK_ID>  (1) 
DB02366

>  <SECONDARY_ACCESSION_NUMBERS>  (1) 
EXPT00299

>  <COMMON_NAME>  (1) 
CRA_10762

$$$$
