
     RDKit          3D

 36 39  0  0  0  0  0  0  0  0999 V2000
    0.8357   -0.0162   -0.1980 O   0  0  0  0  0  0  0  0  0  0  0  0
   -5.5057   -0.8523   -3.9170 O   0  0  0  0  0  0  0  0  0  0  0  0
    0.7799   -0.0849   -2.5037 O   0  0  0  0  0  0  0  0  0  0  0  0
   -3.5712   -1.8705   -4.1268 O   0  0  0  0  0  0  0  0  0  0  0  0
   -3.5600   -5.0126    2.1843 O   0  0  0  0  0  0  0  0  0  0  0  0
   -3.9025   -2.8467    2.2244 O   0  0  0  0  0  0  0  0  0  0  0  0
   -3.1231    0.9182   -0.2907 N   0  0  0  0  0  0  0  0  0  0  0  0
   -3.4448   -3.8764    1.7048 N   0  0  0  0  0  0  0  0  0  0  0  0
    4.3117    0.8017   -1.0467 N   0  0  0  0  0  0  0  0  0  0  0  0
   -2.0381   -0.9211   -2.0775 C   0  0  2  0  0  0  0  0  0  0  0  0
   -1.1975    0.0381   -1.2196 C   0  0  0  0  0  0  0  0  0  0  0  0
   -3.5305   -0.4076   -2.2621 C   0  0  0  0  0  0  0  0  0  0  0  0
   -2.0280   -2.3136   -1.4162 C   0  0  0  0  0  0  0  0  0  0  0  0
   -1.7674    0.9131   -0.3661 C   0  0  0  0  0  0  0  0  0  0  0  0
   -3.9262    0.4849   -1.3048 C   0  0  0  0  0  0  0  0  0  0  0  0
    0.2381   -0.0169   -1.3937 C   0  0  0  0  0  0  0  0  0  0  0  0
   -4.2280   -1.0574   -3.4672 C   0  0  0  0  0  0  0  0  0  0  0  0
   -2.6216   -2.4794   -0.1519 C   0  0  0  0  0  0  0  0  0  0  0  0
   -1.4900   -3.4414   -2.0535 C   0  0  0  0  0  0  0  0  0  0  0  0
   -2.7371   -3.7428    0.4274 C   0  0  0  0  0  0  0  0  0  0  0  0
    2.2523    0.0297   -0.1601 C   0  0  2  0  0  0  0  0  0  0  0  0
   -1.1560    1.9544    0.5195 C   0  0  0  0  0  0  0  0  0  0  0  0
   -5.2283    1.1267   -1.1260 C   0  0  0  0  0  0  0  0  0  0  0  0
   -1.6422   -4.7142   -1.4859 C   0  0  0  0  0  0  0  0  0  0  0  0
   -2.2470   -4.8685   -0.2354 C   0  0  0  0  0  0  0  0  0  0  0  0
    2.9182    1.2255   -0.8390 C   0  0  0  0  0  0  0  0  0  0  0  0
    2.9237   -1.1764   -0.8072 C   0  0  0  0  0  0  0  0  0  0  0  0
    4.2474   -0.6363   -1.3651 C   0  0  0  0  0  0  0  0  0  0  0  0
    5.1700    1.1266    0.1135 C   0  0  0  0  0  0  0  0  0  0  0  0
   -6.5393    0.0054   -3.4252 C   0  0  0  0  0  0  0  0  0  0  0  0
    4.8119    0.5015    1.4523 C   0  0  0  0  0  0  0  0  0  0  0  0
    4.7958   -0.8963    1.6142 C   0  0  0  0  0  0  0  0  0  0  0  0
    4.4545    1.2815    2.5558 C   0  0  0  0  0  0  0  0  0  0  0  0
    4.3554   -1.5120    2.7734 C   0  0  0  0  0  0  0  0  0  0  0  0
    4.1712    0.6614    3.7793 C   0  0  0  0  0  0  0  0  0  0  0  0
    4.0817   -0.7297    3.8761 C   0  0  0  0  0  0  0  0  0  0  0  0
  1 16  1  0
  2 17  1  0
  2 30  1  0
  3 16  2  0
  4 17  2  0
  5  8  1  0
  6  8  2  0
  7 14  1  0
  7 15  1  0
  8 20  1  0
  9 26  1  0
  9 28  1  0
  9 29  1  0
 10 11  1  0
 10 12  1  0
 10 13  1  1
 11 14  2  0
 11 16  1  0
 12 15  2  0
 12 17  1  0
 13 18  2  0
 13 19  1  0
 14 22  1  0
 15 23  1  0
 18 20  1  0
 19 24  2  0
 20 25  2  0
 21  1  1  6
 21 26  1  0
 21 27  1  0
 24 25  1  0
 27 28  1  0
 29 31  1  0
 31 32  2  0
 31 33  1  0
 32 34  1  0
 33 35  2  0
 34 36  2  0
 35 36  1  0
M  CHG  2   5  -1   8   1
M  END
>  <DRUGBANK_ID>  (1) 
DB09227

>  <COMMON_NAME>  (1) 
Barnidipine

>  <CAS_NUMBER>  (1) 
104713-75-9

>  <UNII>  (1) 
2VBY96ASWJ

>  <SYNONYMS>  (1) 
Barnidipine; Barnidipino; Mepirodipine

$$$$
