
     RDKit          3D

  8  7  0  0  1  0  0  0  0  0999 V2000
    0.7479    2.6842   -0.5407 C   0  0  0  0  0  0  0  0  0  0  0  0
    1.9590   -0.3039    1.1104 C   0  0  0  0  0  0  0  0  0  0  0  0
    1.8552    0.1750   -1.4252 C   0  0  0  0  0  0  0  0  0  0  0  0
    0.3579    1.4816    0.3086 C   0  0  2  0  0  0  0  0  0  0  0  0
    1.0644    0.1209   -0.0715 C   0  0  2  0  0  0  0  0  0  0  0  0
    3.1022   -0.5996   -1.4714 N   0  0  0  0  0  0  0  0  0  0  0  0
   -1.0696    1.4085    0.2839 O   0  0  0  0  0  0  0  0  0  0  0  0
    0.0596   -0.9084   -0.2122 O   0  0  0  0  0  0  0  0  0  0  0  0
  4  7  1  0
  4  5  1  0
  4  1  1  6
  5  8  1  0
  5  3  1  0
  5  2  1  1
  6  3  1  0
M  END
>  <DRUGBANK_ID>  (1) 
DB02847

>  <SECONDARY_ACCESSION_NUMBERS>  (1) 
EXPT03122

>  <COMMON_NAME>  (1) 
(2s,3r)-1-Amino-2-Methylbutane-2,3-Diol

$$$$
