
     RDKit          3D

  9  9  0  0  0  0  0  0  0  0999 V2000
    1.0691    0.0320   -0.0649 O   0  0  0  0  0  0  0  0  0  0  0  0
    0.5691   -1.0897    0.7964 B   0  0  0  0  0  0  0  0  0  0  0  0
    1.5438   -1.9940    1.4907 O   0  0  0  0  0  0  0  0  0  0  0  0
   -1.0040   -1.3216    0.9745 C   0  0  0  0  0  0  0  0  0  0  0  0
   -1.7939   -1.2763   -0.0919 C   0  0  0  0  0  0  0  0  0  0  0  0
   -3.1200   -1.6226    0.0047 C   0  0  0  0  0  0  0  0  0  0  0  0
   -3.6794   -1.9331    1.2131 C   0  0  0  0  0  0  0  0  0  0  0  0
   -2.8492   -2.0399    2.2346 C   0  0  0  0  0  0  0  0  0  0  0  0
   -1.5160   -1.5660    2.2381 C   0  0  0  0  0  0  0  0  0  0  0  0
  1  2  1  0
  2  3  1  0
  2  4  1  0
  4  5  2  0
  4  9  1  0
  5  6  1  0
  6  7  2  0
  7  8  1  0
  8  9  2  0
M  END
>  <DRUGBANK_ID>  (1) 
DB01795

>  <SECONDARY_ACCESSION_NUMBERS>  (1) 
EXPT02505

>  <COMMON_NAME>  (1) 
Phenylboronic acid

>  <CAS_NUMBER>  (1) 
98-80-6

>  <UNII>  (1) 
L12H7B02G5

>  <SYNONYMS>  (1) 
Benzeneboronic acid; Borophenylic acid; dihydroxy(phenyl)borane; Phenyldihydroxyborane

$$$$
