
     RDKit          3D

 25 24  0  0  0  0  0  0  0  0999 V2000
    0.0519   -0.1264   -0.7506 C   0  0  0  0  0  0  0  0  0  0  0  0
   -0.3806    1.2484   -0.2668 C   0  0  0  0  0  0  0  0  0  0  0  0
   -1.8807    1.2629    0.0319 C   0  0  0  0  0  0  0  0  0  0  0  0
   -2.2414    0.2509    1.1242 C   0  0  0  0  0  0  0  0  0  0  0  0
   -1.4706    0.5485    2.4163 C   0  0  0  0  0  0  0  0  0  0  0  0
   -1.8259    1.9412    2.9513 C   0  0  0  0  0  0  0  0  0  0  0  0
   -3.3195    2.0276    3.2519 C   0  0  0  0  0  0  0  0  0  0  0  0
   -3.7222    0.9336    4.2261 C   0  0  0  0  0  0  0  0  0  0  0  0
   -3.0415    1.1824    5.5330 C   0  0  0  0  0  0  0  0  0  0  0  0
   -3.7054    1.4990    6.6399 C   0  0  0  0  0  0  0  0  0  0  0  0
   -5.1970    1.4774    6.7185 C   0  0  0  0  0  0  0  0  0  0  0  0
   -5.6135    0.3773    7.6804 C   0  0  0  0  0  0  0  0  0  0  0  0
   -5.1403    0.7108    9.0917 C   0  0  0  0  0  0  0  0  0  0  0  0
   -5.6732    2.0864    9.5092 C   0  0  0  0  0  0  0  0  0  0  0  0
   -7.2067    2.0897    9.4766 C   0  0  0  0  0  0  0  0  0  0  0  0
   -7.7591    1.1061   10.5079 C   0  0  0  0  0  0  0  0  0  0  0  0
   -7.1777    1.3340   11.9063 C   0  0  0  0  0  0  0  0  0  0  0  0
  -10.0638    4.2034   12.9417 C   0  0  0  0  0  0  0  0  0  0  0  0
   -7.8283    5.0319   12.0178 C   0  0  0  0  0  0  0  0  0  0  0  0
   -9.3634    5.1496   11.9679 C   0  0  0  0  0  0  0  0  0  0  0  0
   -7.4586    2.6817   12.5242 C   0  0  0  0  0  0  0  0  0  0  0  0
   -9.5906    4.4907   14.2611 O   0  0  0  0  0  0  0  0  0  0  0  0
   -9.7247    6.4932   12.3127 O   0  0  0  0  0  0  0  0  0  0  0  0
   -7.7374    2.8083   13.7166 O   0  0  0  0  0  0  0  0  0  0  0  0
   -7.3590    3.7168   11.6591 O   0  0  0  0  0  0  0  0  0  0  0  0
  2  1  1  0
  3  2  1  0
  4  3  1  0
  5  4  1  0
  6  5  1  0
  7  6  1  0
  8  7  1  0
  9  8  1  0
 10  9  2  0
 11 10  1  0
 12 11  1  0
 13 12  1  0
 14 13  1  0
 15 14  1  0
 16 15  1  0
 17 16  1  0
 20 18  1  0
 20 19  1  0
 21 17  1  0
 22 18  1  0
 23 20  1  0
 24 21  2  0
 25 19  1  0
 25 21  1  0
M  END
>  <DRUGBANK_ID>  (1) 
DB13171

>  <COMMON_NAME>  (1) 
Glyceryl 1-oleate

>  <CAS_NUMBER>  (1) 
111-03-5

>  <UNII>  (1) 
D3AEF6S35P

>  <SYNONYMS>  (1) 
1-(9Z-octadecenoyl)-rac-glycerol; 1-(9Z)-octadecenoylglycerol; 1-Glyceryl oleate; 1-monoolein; 1-monooleoyl-rac-glycerol; 1-monooleoylglycerol; 1-oleoyl-rac-glycerol; 1-oleoylglycerol; 2,3-dihydroxypropyl oleate; 9-Octadecenoic acid, 2,3-dihydroxypropyl ester; Glyceryl monooleate; Glyceryl oleate; MG (18:1/0:0/0:0); Monoolein

$$$$
