
     RDKit          3D

 37 39  0  0  1  0  0  0  0  0999 V2000
    2.0455   -0.9406   -0.8940 C   0  0  0  0  0  0  0  0  0  0  0  0
    2.8606   -0.4204   -2.0673 C   0  0  0  0  0  0  0  0  0  0  0  0
    4.1242    0.1266   -1.6484 O   0  0  0  0  0  0  0  0  0  0  0  0
    4.0560    1.2561   -0.8854 C   0  0  0  0  0  0  0  0  0  0  0  0
    3.0492    1.8304   -0.5523 O   0  0  0  0  0  0  0  0  0  0  0  0
    5.3286    1.6503   -0.5883 O   0  0  0  0  0  0  0  0  0  0  0  0
    5.4142    2.7927    0.2846 C   0  0  0  0  0  0  0  0  0  0  0  0
    4.9605    4.0914   -0.4000 C   0  0  2  0  0  0  0  0  0  0  0  0
    6.1789    4.9845   -0.6731 C   0  0  2  0  0  0  0  0  0  0  0  0
    5.7174    6.2533   -1.3679 C   0  0  1  0  0  0  0  0  0  0  0  0
    4.5749    6.8686   -0.5814 C   0  0  2  0  0  0  0  0  0  0  0  0
    3.4652    5.9465    0.0032 C   0  0  1  0  0  0  0  0  0  0  0  0
    4.0514    4.7429    0.4961 O   0  0  0  0  0  0  0  0  0  0  0  0
    2.5414    6.5158    1.0102 O   0  0  0  0  0  0  0  0  0  0  0  0
    3.0687    6.9862    2.1915 C   0  0  0  0  0  0  0  0  0  0  0  0
    3.9213    8.1004    2.3699 C   0  0  0  0  0  0  0  0  0  0  0  0
    4.2797    8.0416    3.6978 C   0  0  0  0  0  0  0  0  0  0  0  0
    3.3678    7.2311    4.3171 N   0  0  0  0  0  0  0  0  0  0  0  0
    2.6269    6.5224    3.3923 N   0  0  0  0  0  0  0  0  0  0  0  0
    3.3209    7.1365    5.7858 C   0  0  0  0  0  0  0  0  0  0  0  0
    2.0356    7.5758    6.4762 C   0  0  0  0  0  0  0  0  0  0  0  0
    3.8629    5.8341    6.3518 C   0  0  0  0  0  0  0  0  0  0  0  0
    5.3455    8.7694    4.4210 C   0  0  0  0  0  0  0  0  0  0  0  0
    4.5020    8.9931    1.3533 C   0  0  0  0  0  0  0  0  0  0  0  0
    4.1693   10.4189    1.5128 C   0  0  0  0  0  0  0  0  0  0  0  0
    4.4832   11.0422    2.6735 C   0  0  0  0  0  0  0  0  0  0  0  0
    4.4856   12.3728    2.8175 C   0  0  0  0  0  0  0  0  0  0  0  0
    4.0242   13.1857    1.8262 C   0  0  0  0  0  0  0  0  0  0  0  0
    3.6845   12.6038    0.6057 C   0  0  0  0  0  0  0  0  0  0  0  0
    3.7382   11.2119    0.4520 C   0  0  0  0  0  0  0  0  0  0  0  0
    3.8382   14.5129    2.0529 O   0  0  0  0  0  0  0  0  0  0  0  0
    4.0898   14.9785    3.4046 C   0  0  0  0  0  0  0  0  0  0  0  0
    3.1683   14.3685    4.4946 C   0  0  0  0  0  0  0  0  0  0  0  0
    5.5934   14.9589    3.7566 C   0  0  0  0  0  0  0  0  0  0  0  0
    4.0804    7.9760   -1.3491 O   0  0  0  0  0  0  0  0  0  0  0  0
    6.8116    7.1976   -1.4478 O   0  0  0  0  0  0  0  0  0  0  0  0
    7.1566    4.3230   -1.4701 O   0  0  0  0  0  0  0  0  0  0  0  0
  1  2  1  0
  2  3  1  0
  3  4  1  0
  4  5  2  0
  4  6  1  0
  6  7  1  0
  8  9  1  0
  8 13  1  0
  8  7  1  1
  9 10  1  0
  9 37  1  6
 10 11  1  0
 10 36  1  1
 11 12  1  0
 11 35  1  6
 12 13  1  0
 12 14  1  1
 14 15  1  0
 15 16  1  0
 15 19  2  0
 16 17  2  0
 16 24  1  0
 17 18  1  0
 17 23  1  0
 18 19  1  0
 18 20  1  0
 20 21  1  0
 20 22  1  0
 24 25  1  0
 25 26  2  0
 25 30  1  0
 26 27  1  0
 27 28  2  0
 28 29  1  0
 28 31  1  0
 29 30  2  0
 31 32  1  0
 32 33  1  0
 32 34  1  0
M  END
>  <DRUGBANK_ID>  (1) 
DB12935

>  <COMMON_NAME>  (1) 
Remogliflozin etabonate

>  <CAS_NUMBER>  (1) 
442201-24-3

>  <UNII>  (1) 
TR0QT6QSUL

>  <SYNONYMS>  (1) 
Remogliflozin etabonate

$$$$
