
     RDKit          3D

 32 34  0  0  1  0  0  0  0  0999 V2000
    0.9884    0.0803   -0.0004 C   0  0  0  0  0  0  0  0  0  0  0  0
    0.2957   -1.2941    0.0143 C   0  0  1  0  0  0  0  0  0  0  0  0
    0.6915   -1.9191    1.3357 N   0  0  0  0  0  0  0  0  0  0  0  0
    0.0055   -2.4950    2.3696 C   0  0  0  0  0  0  0  0  0  0  0  0
    0.5980   -2.9250    3.3809 O   0  0  0  0  0  0  0  0  0  0  0  0
   -1.4206   -2.7324    2.2705 C   0  0  0  0  0  0  0  0  0  0  0  0
   -1.8191   -3.6191    1.2937 C   0  0  0  0  0  0  0  0  0  0  0  0
   -0.7424   -4.4773    0.2370 Cl  0  0  0  0  0  0  0  0  0  0  0  0
   -3.1695   -3.6352    1.0728 C   0  0  0  0  0  0  0  0  0  0  0  0
   -3.5716   -4.2086   -0.1960 N   0  0  0  0  0  0  0  0  0  0  0  0
   -4.0305   -2.9557    1.8992 N   0  0  0  0  0  0  0  0  0  0  0  0
   -3.5113   -2.1932    2.8942 C   0  0  0  0  0  0  0  0  0  0  0  0
   -2.2156   -2.0108    3.1042 N   0  0  0  0  0  0  0  0  0  0  0  0
   -1.2131   -1.0157   -0.2226 C   0  0  0  0  0  0  0  0  0  0  0  0
   -1.8163   -0.0333    0.4014 N   0  0  0  0  0  0  0  0  0  0  0  0
   -3.1822   -0.1755    0.3183 C   0  0  0  0  0  0  0  0  0  0  0  0
   -3.7198   -1.2278   -0.4274 C   0  0  0  0  0  0  0  0  0  0  0  0
   -2.3122   -1.7537   -1.4021 S   0  0  0  0  0  0  0  0  0  0  0  0
   -5.1610   -1.8208   -0.3848 C   0  0  0  0  0  0  0  0  0  0  0  0
   -5.5400   -3.0008   -0.2851 O   0  0  0  0  0  0  0  0  0  0  0  0
   -6.2808   -1.0676   -0.2171 N   0  0  0  0  0  0  0  0  0  0  0  0
   -6.1889    0.2730   -0.2079 C   0  0  0  0  0  0  0  0  0  0  0  0
   -5.3488    0.8020   -1.1071 N   0  0  0  0  0  0  0  0  0  0  0  0
   -4.9547    2.0564   -0.9063 C   0  0  0  0  0  0  0  0  0  0  0  0
   -5.5154    2.8517    0.0692 C   0  0  0  0  0  0  0  0  0  0  0  0
   -5.0196    4.4873    0.0992 Cl  0  0  0  0  0  0  0  0  0  0  0  0
   -6.4632    2.2873    0.9345 C   0  0  0  0  0  0  0  0  0  0  0  0
   -6.7623    0.9323    0.8369 C   0  0  0  0  0  0  0  0  0  0  0  0
   -7.2660    3.0426    1.9309 C   0  0  0  0  0  0  0  0  0  0  0  0
   -8.5954    2.8588    1.6890 F   0  0  0  0  0  0  0  0  0  0  0  0
   -7.0585    2.5985    3.1997 F   0  0  0  0  0  0  0  0  0  0  0  0
   -7.0693    4.3776    1.9465 F   0  0  0  0  0  0  0  0  0  0  0  0
  2  1  1  1
  2  3  1  0
  2 14  1  0
  3  4  1  0
  4  5  2  0
  4  6  1  0
  6  7  2  0
  6 13  1  0
  7  8  1  0
  7  9  1  0
  9 10  1  0
  9 11  2  0
 11 12  1  0
 12 13  2  0
 14 15  2  0
 14 18  1  0
 15 16  1  0
 16 17  2  0
 17 18  1  0
 17 19  1  0
 19 20  2  0
 19 21  1  0
 21 22  1  0
 22 23  2  0
 22 28  1  0
 23 24  1  0
 24 25  2  0
 25 26  1  0
 25 27  1  0
 27 28  2  0
 27 29  1  0
 29 30  1  0
 29 31  1  0
 29 32  1  0
M  END
>  <DRUGBANK_ID>  (1) 
DB15266

>  <COMMON_NAME>  (1) 
Tovorafenib

>  <CAS_NUMBER>  (1) 
1096708-71-2

>  <UNII>  (1) 
ZN90E4027M

>  <SYNONYMS>  (1) 
4-Pyrimidinecarboxamide, 6-amino-5-chloro-N-[(1R)-1-[5-[[[5-chloro-4-(trifluoromethyl)-2-pyridinyl]amino]carbonyl]-2-thiazolyl]ethyl]-; 6-Amino-5-chloro-N-((1R)-1-(5-(((5-chloro-4-(trifluoromethyl)-2-pyridinyl)amino)carbonyl)-2-thiazolyl)ethyl)-4-pyrimidinecarboxamide; 6-amino-5-chloro-N-[1R)-1-[5-[[[5-hloro-4-(trifluoromethyl)-2pyridinyl]amino]carbonyl]-2-thiazoyl]ethyl]-4-pyrimdinecarboxamide

$$$$
