
     RDKit          3D

 29 32  0  0  1  0  0  0  0  0999 V2000
    0.8943   -0.0680    0.0857 C   0  0  0  0  0  0  0  0  0  0  0  0
    0.4020    1.0242    1.0324 C   0  0  0  0  0  0  0  0  0  0  0  0
    0.8413    2.3813    0.6229 C   0  0  0  0  0  0  0  0  0  0  0  0
    1.8389    2.6811   -0.3193 C   0  0  0  0  0  0  0  0  0  0  0  0
    1.9829    3.9765   -0.5096 N   0  0  0  0  0  0  0  0  0  0  0  0
    1.0713    4.5670    0.3086 N   0  0  0  0  0  0  0  0  0  0  0  0
    0.3845    3.6131    1.0695 C   0  0  0  0  0  0  0  0  0  0  0  0
   -0.5371    3.9644    2.0291 N   0  0  0  0  0  0  0  0  0  0  0  0
   -0.8307    5.2387    2.1740 C   0  0  0  0  0  0  0  0  0  0  0  0
   -0.1637    6.2972    1.3108 C   0  0  0  0  0  0  0  0  0  0  0  0
    0.7961    5.9465    0.4225 C   0  0  0  0  0  0  0  0  0  0  0  0
    1.4840    6.8880   -0.3572 N   0  0  0  0  0  0  0  0  0  0  0  0
    2.5883    6.6650   -1.2798 C   0  0  0  0  0  0  0  0  0  0  0  0
    2.2282    7.1337   -2.6611 C   0  0  0  0  0  0  0  0  0  0  0  0
    2.3145    8.4856   -2.9918 C   0  0  0  0  0  0  0  0  0  0  0  0
    2.0834    8.8981   -4.2970 C   0  0  0  0  0  0  0  0  0  0  0  0
    1.7548    7.9516   -5.2659 C   0  0  0  0  0  0  0  0  0  0  0  0
    1.6311    6.6074   -4.9570 N   0  0  0  0  0  0  0  0  0  0  0  0
    1.8558    6.2115   -3.6516 C   0  0  0  0  0  0  0  0  0  0  0  0
    1.3396    5.7632   -5.8584 O   0  0  0  0  0  0  0  0  0  0  0  0
   -1.7207    5.6363    3.1885 N   0  0  0  0  0  0  0  0  0  0  0  0
   -1.5493    5.1585    4.5677 C   0  0  0  0  0  0  0  0  0  0  0  0
   -2.7465    4.3303    5.0343 C   0  0  0  0  0  0  0  0  0  0  0  0
   -4.0895    5.0171    4.7864 C   0  0  0  0  0  0  0  0  0  0  0  0
   -4.1840    5.4977    3.3425 C   0  0  0  0  0  0  0  0  0  0  0  0
   -2.9779    6.3699    2.9456 C   0  0  1  0  0  0  0  0  0  0  0  0
   -3.0007    7.6933    3.7457 C   0  0  0  0  0  0  0  0  0  0  0  0
   -1.9712    8.6882    3.2480 C   0  0  0  0  0  0  0  0  0  0  0  0
   -2.2722    9.1103    1.9256 O   0  0  0  0  0  0  0  0  0  0  0  0
  1  2  1  0
  2  3  1  0
  3  4  1  0
  3  7  2  0
  4  5  2  0
  5  6  1  0
  6  7  1  0
  6 11  1  0
  7  8  1  0
  8  9  2  0
  9 10  1  0
  9 21  1  0
 10 11  2  0
 11 12  1  0
 12 13  1  0
 13 14  1  0
 14 15  2  0
 14 19  1  0
 15 16  1  0
 16 17  2  0
 17 18  1  0
 18 19  2  0
 18 20  1  0
 21 22  1  0
 21 26  1  0
 22 23  1  0
 23 24  1  0
 24 25  1  0
 25 26  1  0
 26 27  1  1
 27 28  1  0
 28 29  1  0
M  CHG  2  18   1  20  -1
M  END
>  <DRUGBANK_ID>  (1) 
DB12021

>  <COMMON_NAME>  (1) 
Dinaciclib

>  <CAS_NUMBER>  (1) 
779353-01-4

>  <UNII>  (1) 
4V8ECV0NBQ

>  <SYNONYMS>  (1) 
Dinaciclib

$$$$
