
     RDKit          3D

 29 32  0  0  0  0  0  0  0  0999 V2000
    2.2095   -1.3591   -0.7151 C   0  0  0  0  0  0  0  0  0  0  0  0
    3.6969   -1.2765   -0.3853 C   0  0  0  0  0  0  0  0  0  0  0  0
    4.1930    0.1659   -0.4501 C   0  0  1  0  0  0  0  0  0  0  0  0
    3.3712    1.0842    0.4567 C   0  0  0  0  0  0  0  0  0  0  0  0
    1.8949    0.9520    0.2014 C   0  0  0  0  0  0  0  0  0  0  0  0
    1.1449    2.0629   -0.0212 C   0  0  0  0  0  0  0  0  0  0  0  0
    1.3184   -0.4664    0.1949 C   0  0  2  0  0  0  0  0  0  0  0  0
   -0.8460   -1.8433   -0.2757 C   0  0  0  0  0  0  0  0  0  0  0  0
   -2.3076   -1.7906   -0.7219 C   0  0  0  0  0  0  0  0  0  0  0  0
   -3.0693   -0.6694    0.0250 C   0  0  1  0  0  0  0  0  0  0  0  0
   -2.3828    0.6394   -0.4046 C   0  0  1  0  0  0  0  0  0  0  0  0
   -3.3587    1.7387   -0.0197 C   0  0  0  0  0  0  0  0  0  0  0  0
   -4.7222    1.1413   -0.3327 C   0  0  0  0  0  0  0  0  0  0  0  0
   -4.5098   -0.3870   -0.5017 C   0  0  2  0  0  0  0  0  0  0  0  0
   -2.9701   -0.8497    1.5637 C   0  0  0  0  0  0  0  0  0  0  0  0
    1.3393   -1.0103    1.6455 C   0  0  0  0  0  0  0  0  0  0  0  0
    5.5655    0.2086   -0.0669 O   0  0  0  0  0  0  0  0  0  0  0  0
   -0.1322   -0.4731   -0.3987 C   0  0  1  0  0  0  0  0  0  0  0  0
   -6.0277   -0.8001    1.5087 C   0  0  0  0  0  0  0  0  0  0  0  0
   -0.9646    0.7209    0.1474 C   0  0  1  0  0  0  0  0  0  0  0  0
   -0.3274    2.0533   -0.2290 C   0  0  0  0  0  0  0  0  0  0  0  0
   -4.8497   -3.5905    0.8339 C   0  0  0  0  0  0  0  0  0  0  0  0
   -6.9049   -5.5988    1.8343 C   0  0  0  0  0  0  0  0  0  0  0  0
   -5.5240   -2.7087   -0.2293 C   0  0  0  0  0  0  0  0  0  0  0  0
   -5.6962   -1.1927    0.0634 C   0  0  2  0  0  0  0  0  0  0  0  0
   -7.5638   -3.8672    3.5862 C   0  0  0  0  0  0  0  0  0  0  0  0
   -5.4871   -3.6548    2.2267 C   0  0  0  0  0  0  0  0  0  0  0  0
   -6.9401   -4.1306    2.2229 C   0  0  0  0  0  0  0  0  0  0  0  0
   -7.7412   -3.4105    1.2926 O   0  0  0  0  0  0  0  0  0  0  0  0
  1  7  1  0
  2  1  1  0
  3  4  1  0
  3  2  1  0
  3 17  1  1
  4  5  1  0
  5  7  1  0
  6 21  1  0
  6  5  2  0
  7 18  1  0
  7 16  1  1
 18  8  1  1
  8  9  1  0
  9 10  1  0
 10 15  1  1
 11 10  1  0
 11 12  1  1
 14 13  1  1
 13 12  1  0
 14 10  1  0
 14 25  1  0
 20 11  1  0
 20 18  1  0
 20 21  1  6
 23 28  1  0
 24 22  1  0
 25 24  1  0
 25 19  1  1
 26 28  1  0
 27 22  1  0
 28 27  1  0
 28 29  1  0
M  END
>  <DRUGBANK_ID>  (1) 
DB04705

>  <COMMON_NAME>  (1) 
25-Hydroxycholesterol

>  <CAS_NUMBER>  (1) 
2140-46-7

>  <UNII>  (1) 
767JTD2N31

>  <SYNONYMS>  (1) 
5-Cholestene-3beta,25-diol; Cholest-5-ene-3beta,25-diol

$$$$
