
     RDKit          3D

 18 19  0  0  1  0  0  0  0  0999 V2000
    1.0041   -0.6776   -2.4156 C   0  0  0  0  0  0  0  0  0  0  0  0
    0.4474    0.2694   -1.3395 C   0  0  2  0  0  0  0  0  0  0  0  0
    0.9245    0.0482    0.1018 C   0  0  0  0  0  0  0  0  0  0  0  0
    1.6896   -1.0295    0.3593 O   0  0  0  0  0  0  0  0  0  0  0  0
    0.6284    0.8186    1.0158 O   0  0  0  0  0  0  0  0  0  0  0  0
   -1.0730    0.3131   -1.3847 C   0  0  0  0  0  0  0  0  0  0  0  0
   -1.8024   -0.8833   -1.3513 C   0  0  0  0  0  0  0  0  0  0  0  0
   -3.1873   -0.8706   -1.3639 C   0  0  0  0  0  0  0  0  0  0  0  0
   -3.8274   -2.0497   -1.3467 F   0  0  0  0  0  0  0  0  0  0  0  0
   -3.8999    0.3276   -1.3805 C   0  0  0  0  0  0  0  0  0  0  0  0
   -3.1746    1.5319   -1.3919 C   0  0  0  0  0  0  0  0  0  0  0  0
   -1.7749    1.5278   -1.3927 C   0  0  0  0  0  0  0  0  0  0  0  0
   -5.3591    0.3314   -1.3185 C   0  0  0  0  0  0  0  0  0  0  0  0
   -6.0191   -0.2748   -0.2377 C   0  0  0  0  0  0  0  0  0  0  0  0
   -7.4051   -0.2126   -0.1250 C   0  0  0  0  0  0  0  0  0  0  0  0
   -8.1457    0.4713   -1.0855 C   0  0  0  0  0  0  0  0  0  0  0  0
   -7.5042    1.0797   -2.1635 C   0  0  0  0  0  0  0  0  0  0  0  0
   -6.1217    0.9742   -2.3020 C   0  0  0  0  0  0  0  0  0  0  0  0
  2  6  1  0
  2  3  1  0
  2  1  1  6
  3  4  1  0
  3  5  2  0
  6  7  2  0
  6 12  1  0
  7  8  1  0
  8  9  1  0
  8 10  2  0
 10 11  1  0
 10 13  1  0
 11 12  2  0
 13 14  2  0
 13 18  1  0
 14 15  1  0
 15 16  2  0
 16 17  1  0
 17 18  2  0
M  END
>  <DRUGBANK_ID>  (1) 
DB16159

>  <COMMON_NAME>  (1) 
Esflurbiprofen

>  <CAS_NUMBER>  (1) 
51543-39-6

>  <UNII>  (1) 
J5ZZK9P7MX

>  <SYNONYMS>  (1) 
Esflurbiprofen; Flurbiprofen, (s)-

$$$$
