
     RDKit          3D

 32 33  0  0  0  0  0  0  0  0999 V2000
    1.0608   -0.1035   -0.0438 C   0  0  0  0  0  0  0  0  0  0  0  0
   -2.8297    2.8495    4.4847 C   0  0  0  0  0  0  0  0  0  0  0  0
   -2.8584    9.4952    1.1988 C   0  0  0  0  0  0  0  0  0  0  0  0
   -5.0745    6.4773    0.7293 C   0  0  0  0  0  0  0  0  0  0  0  0
    0.6930    6.5256    3.4106 C   0  0  0  0  0  0  0  0  0  0  0  0
    1.4852    5.6191    2.8172 C   0  0  0  0  0  0  0  0  0  0  0  0
    2.2488    3.6214    1.6183 C   0  0  0  0  0  0  0  0  0  0  0  0
    2.1237    2.5095    0.7756 C   0  0  0  0  0  0  0  0  0  0  0  0
   -1.5053    5.4994    4.0305 C   0  0  0  0  0  0  0  0  0  0  0  0
   -1.3821    7.4641    2.5412 C   0  0  0  0  0  0  0  0  0  0  0  0
   -0.7703    6.5382    3.4047 C   0  0  0  0  0  0  0  0  0  0  0  0
    1.1276    4.4599    1.9754 C   0  0  0  0  0  0  0  0  0  0  0  0
    0.8765    2.2220    0.2651 C   0  0  0  0  0  0  0  0  0  0  0  0
   -2.8621    5.3192    3.7013 C   0  0  0  0  0  0  0  0  0  0  0  0
   -2.7281    7.3536    2.2079 C   0  0  0  0  0  0  0  0  0  0  0  0
   -0.1418    4.1349    1.4503 C   0  0  0  0  0  0  0  0  0  0  0  0
   -3.4849    6.2792    2.7096 C   0  0  0  0  0  0  0  0  0  0  0  0
   -0.1817    3.0918    0.5673 C   0  0  0  0  0  0  0  0  0  0  0  0
   -2.9213    4.5781   -0.1517 O   0  0  0  0  0  0  0  0  0  0  0  0
   -2.4753    2.4128    1.7101 O   0  0  0  0  0  0  0  0  0  0  0  0
   -4.4174    3.7764    1.7692 O   0  0  0  0  0  0  0  0  0  0  0  0
   -3.3094    2.4966   -1.2293 O   0  0  0  0  0  0  0  0  0  0  0  0
   -1.1078    2.9913   -2.1323 O   0  0  0  0  0  0  0  0  0  0  0  0
   -2.0845    0.8542   -2.2052 O   0  0  0  0  0  0  0  0  0  0  0  0
    0.6694    1.1675   -0.5758 O   0  0  0  0  0  0  0  0  0  0  0  0
   -3.4529    4.0780    3.9921 O   0  0  0  0  0  0  0  0  0  0  0  0
   -3.2942    8.1549    1.2577 O   0  0  0  0  0  0  0  0  0  0  0  0
   -4.7118    6.0109    2.0790 O   0  0  0  0  0  0  0  0  0  0  0  0
   -1.4721    4.6133    1.7852 O   0  0  0  0  0  0  0  0  0  0  0  0
   -1.4691    3.0611    0.1397 O   0  0  0  0  0  0  0  0  0  0  0  0
   -2.9936    3.9222    1.3188 P   0  0  0  0  0  0  0  0  0  0  0  0
   -1.7938    1.8965   -1.0977 P   0  0  0  0  0  0  0  0  0  0  0  0
  6  5  2  0
  8  7  2  0
 11  5  1  0
 11  9  2  0
 11 10  1  0
 12  6  1  0
 12  7  1  0
 13  8  1  0
 14  9  1  0
 15 10  2  0
 16 12  2  0
 17 14  2  0
 17 15  1  0
 18 13  2  0
 18 16  1  0
 25  1  1  0
 25 13  1  0
 26  2  1  0
 26 14  1  0
 27  3  1  0
 27 15  1  0
 28  4  1  0
 28 17  1  0
 29 16  1  0
 30 18  1  0
 31 19  1  0
 31 20  1  0
 31 21  2  0
 31 29  1  0
 32 22  1  0
 32 23  1  0
 32 24  2  0
 32 30  1  0
M  END
>  <DRUGBANK_ID>  (1) 
DB05143

>  <COMMON_NAME>  (1) 
OXI-4503

>  <CAS_NUMBER>  (1) 
288847-35-8

>  <UNII>  (1) 
JH6Z94GLUD

>  <SYNONYMS>  (1) 
CA1P; Combretastatin A-1 bis(phosphate); Combretastatin A1 diphosphate; OXI4503

$$$$
