
     RDKit          3D

 38 41  0  0  0  0  0  0  0  0999 V2000
    2.6270    0.1017   -0.1142 C   0  0  0  0  0  0  0  0  0  0  0  0
   -7.7123    2.5138    5.8815 C   0  0  0  0  0  0  0  0  0  0  0  0
   -3.6632   -4.4269   -0.1298 C   0  0  0  0  0  0  0  0  0  0  0  0
   -3.2067   -3.8863   -1.3294 C   0  0  0  0  0  0  0  0  0  0  0  0
   -3.0172   -4.0594    1.0409 C   0  0  0  0  0  0  0  0  0  0  0  0
   -2.1417   -2.8939   -1.3269 C   0  0  0  0  0  0  0  0  0  0  0  0
   -2.0269   -3.0442    1.0482 C   0  0  0  0  0  0  0  0  0  0  0  0
   -3.3600    0.3040   -0.1524 C   0  0  0  0  0  0  0  0  0  0  0  0
   -4.1054    0.5730   -2.4128 C   0  0  0  0  0  0  0  0  0  0  0  0
   -2.7407    1.5245   -0.2040 C   0  0  0  0  0  0  0  0  0  0  0  0
   -3.5061    1.8259   -2.4313 C   0  0  0  0  0  0  0  0  0  0  0  0
   -7.0616    1.2336    3.5011 C   0  0  0  0  0  0  0  0  0  0  0  0
   -8.5576   -0.5603    4.1412 C   0  0  0  0  0  0  0  0  0  0  0  0
   -6.9341    0.6667    2.2440 C   0  0  0  0  0  0  0  0  0  0  0  0
   -8.4302   -1.1402    2.8849 C   0  0  0  0  0  0  0  0  0  0  0  0
    0.1104    2.3978    0.0490 C   0  0  0  0  0  0  0  0  0  0  0  0
   -0.5073    3.1373   -1.2138 C   0  0  0  0  0  0  0  0  0  0  0  0
   -4.5861   -1.5423   -1.2258 C   0  0  0  0  0  0  0  0  0  0  0  0
   -6.8181   -2.4466   -1.6720 C   0  0  0  0  0  0  0  0  0  0  0  0
    1.1811   -0.0448   -0.1555 C   0  0  0  0  0  0  0  0  0  0  0  0
   -4.0290   -0.1803   -1.2623 C   0  0  0  0  0  0  0  0  0  0  0  0
   -1.5307   -2.4351   -0.1181 C   0  0  0  0  0  0  0  0  0  0  0  0
   -7.9185    0.6532    4.4360 C   0  0  0  0  0  0  0  0  0  0  0  0
   -2.6857    2.2221   -1.3783 C   0  0  0  0  0  0  0  0  0  0  0  0
   -7.6101   -0.5251    1.9565 C   0  0  0  0  0  0  0  0  0  0  0  0
    0.1476    0.8327    0.0613 C   0  0  0  0  0  0  0  0  0  0  0  0
   -7.5872   -3.5692   -1.0056 C   0  0  0  0  0  0  0  0  0  0  0  0
   -0.6371   -1.2154    0.0087 C   0  0  0  0  0  0  0  0  0  0  0  0
   -6.1372   -1.3727    0.5113 C   0  0  0  0  0  0  0  0  0  0  0  0
   -0.8613   -0.0096    0.5261 N   0  0  0  0  0  0  0  0  0  0  0  0
   -5.9077   -1.7367   -0.7955 N   0  0  0  0  0  0  0  0  0  0  0  0
   -8.8040   -3.5562   -0.7798 O   0  0  0  0  0  0  0  0  0  0  0  0
   -6.8516   -4.6332   -0.6455 O   0  0  0  0  0  0  0  0  0  0  0  0
   -5.2463   -1.2066    1.3277 O   0  0  0  0  0  0  0  0  0  0  0  0
   -8.2200    1.2010    5.6538 O   0  0  0  0  0  0  0  0  0  0  0  0
   -1.9322    3.3473   -1.4027 O   0  0  0  0  0  0  0  0  0  0  0  0
    0.6866   -1.3263   -0.3332 O   0  0  0  0  0  0  0  0  0  0  0  0
   -7.4743   -1.1708    0.7382 O   0  0  0  0  0  0  0  0  0  0  0  0
  4  3  2  0
  5  3  1  0
  6  4  1  0
  7  5  2  0
 10  8  2  0
 11  9  1  0
 14 12  2  0
 15 13  1  0
 17 16  1  0
 20  1  1  0
 21  8  1  0
 21  9  2  0
 21 18  1  0
 22  6  2  0
 22  7  1  0
 23 12  1  0
 23 13  2  0
 24 10  1  0
 24 11  2  0
 25 14  1  0
 25 15  2  0
 26 16  1  0
 26 20  2  0
 27 19  1  0
 28 22  1  0
 30 26  1  0
 30 28  2  0
 31 18  1  0
 31 19  1  0
 31 29  1  0
 32 27  2  0
 33 27  1  0
 34 29  2  0
 35  2  1  0
 35 23  1  0
 36 17  1  0
 36 24  1  0
 37 20  1  0
 37 28  1  0
 38 25  1  0
 38 29  1  0
M  END
>  <DRUGBANK_ID>  (1) 
DB06510

>  <COMMON_NAME>  (1) 
Muraglitazar

>  <CAS_NUMBER>  (1) 
331741-94-7

>  <UNII>  (1) 
W1MKM70WQI

>  <SYNONYMS>  (1) 
Muraglitazar

$$$$
