
     RDKit          3D

  6  5  0  0  0  0  0  0  0  0999 V2000
    0.9288   -0.0159   -0.1000 C   0  0  0  0  0  0  0  0  0  0  0  0
    0.4781   -1.4657   -0.0096 C   0  0  0  0  0  0  0  0  0  0  0  0
    0.9424   -2.1344    1.2872 C   0  0  0  0  0  0  0  0  0  0  0  0
    0.3773   -1.4827    2.5575 C   0  0  0  0  0  0  0  0  0  0  0  0
   -1.1526   -1.4547    2.6175 C   0  0  0  0  0  0  0  0  0  0  0  0
   -1.7035   -2.8050    2.6318 N   0  0  0  0  0  0  0  0  0  0  0  0
  1  2  1  0
  2  3  1  0
  3  4  1  0
  4  5  1  0
  5  6  1  0
M  END
>  <DRUGBANK_ID>  (1) 
DB02045

>  <SECONDARY_ACCESSION_NUMBERS>  (1) 
EXPT00510

>  <COMMON_NAME>  (1) 
Amylamine

>  <CAS_NUMBER>  (1) 
110-58-7

>  <UNII>  (1) 
E05QM3V8EF

$$$$
