059
     RDKit          3D

 32 33  0  0  0  0  0  0  0  0999 V2000
   -7.6828    3.8408    2.2935 C   0  0  0  0  0  0  0  0  0  0  0  0
   -8.3248    5.0694    2.5726 C   0  0  0  0  0  0  0  0  0  0  0  0
   -7.7114    6.3015    2.3175 C   0  0  0  0  0  0  0  0  0  0  0  0
   -6.4048    6.2992    1.9078 C   0  0  0  0  0  0  0  0  0  0  0  0
   -5.7841    5.0635    1.7862 C   0  0  0  0  0  0  0  0  0  0  0  0
   -6.4075    3.8442    1.7790 C   0  0  0  0  0  0  0  0  0  0  0  0
   -5.6104    2.7095    1.1741 C   0  0  0  0  0  0  0  0  0  0  0  0
   -5.2878    2.8636   -0.3382 C   0  0  0  0  0  0  0  0  0  0  0  0
   -4.1636    4.1891   -0.8879 S   0  0  0  0  0  0  0  0  0  0  0  0
   -4.7665    5.4733   -0.6882 O   0  0  0  0  0  0  0  0  0  0  0  0
   -3.6879    3.8685   -2.2278 O   0  0  0  0  0  0  0  0  0  0  0  0
   -2.7905    4.0604    0.1272 N   0  0  0  0  0  0  0  0  0  0  0  0
   -1.7584    5.1649   -0.0548 C   0  0  1  0  0  0  0  0  0  0  0  0
   -1.7917    6.2278    1.0916 C   0  0  0  0  0  0  0  0  0  0  0  0
   -0.8702    7.4148    0.8801 C   0  0  0  0  0  0  0  0  0  0  0  0
   -3.1229    6.9027    1.2502 C   0  0  0  0  0  0  0  0  0  0  0  0
   -0.0748    4.5136   -0.2111 P   0  0  2  0  0  0  0  0  0  0  0  0
    0.2924    3.8070    1.2026 O   0  0  0  0  0  0  0  0  0  0  0  0
    0.8656    5.6325   -0.5166 O   0  0  0  0  0  0  0  0  0  0  0  0
    0.0316    3.0918   -1.2831 C   0  0  0  0  0  0  0  0  0  0  0  0
   -0.0797    3.4266   -2.7664 C   0  0  2  0  0  0  0  0  0  0  0  0
    0.0157    2.1705   -3.6006 C   0  0  0  0  0  0  0  0  0  0  0  0
   -0.8630    1.7063   -4.3073 O   0  0  0  0  0  0  0  0  0  0  0  0
    1.2220    1.5670   -3.5221 O   0  0  0  0  0  0  0  0  0  0  0  0
    0.9572    4.4413   -3.2174 C   0  0  0  0  0  0  0  0  0  0  0  0
    2.2052    4.5406   -2.5717 C   0  0  0  0  0  0  0  0  0  0  0  0
    0.6416    5.3646   -4.2162 C   0  0  0  0  0  0  0  0  0  0  0  0
    1.5484    6.3750   -4.5334 C   0  0  0  0  0  0  0  0  0  0  0  0
    2.7342    6.5186   -3.8066 C   0  0  0  0  0  0  0  0  0  0  0  0
    3.0308    5.6492   -2.7582 C   0  0  0  0  0  0  0  0  0  0  0  0
    4.1201    5.9549   -1.7547 C   0  0  0  0  0  0  0  0  0  0  0  0
    3.5951    6.1672   -0.4094 N   0  0  0  0  0  0  0  0  0  0  0  0
  1  2  2  0
  1  6  1  0
  2  3  1  0
  3  4  2  0
  4  5  1  0
  5  6  2  0
  6  7  1  0
  7  8  1  0
  8  9  1  0
  9 12  1  0
  9 11  2  0
  9 10  2  0
 13 14  1  0
 13 17  1  0
 13 12  1  1
 14 15  1  0
 14 16  1  0
 17 20  1  0
 17 19  2  0
 17 18  1  0
 21 20  1  1
 21 25  1  0
 21 22  1  0
 22 23  2  0
 22 24  1  0
 25 27  1  0
 25 26  2  0
 26 30  1  0
 27 28  2  0
 28 29  1  0
 29 30  2  0
 30 31  1  0
 31 32  1  0
M  END
>  <DRUGBANK_ID>  (1) 
DB06835

>  <COMMON_NAME>  (1) 
(2S)-2-[3-(AMINOMETHYL)PHENYL]-3-{(S)-HYDROXY[(1R)-2-METHYL-1-{[(2-PHENYLETHYL)SULFONYL]AMINO}PROPYL]PHOSPHORYL}PROPANOIC ACID

$$$$
