GT9
     RDKit          3D

 16 15  0  0  0  0  0  0  0  0999 V2000
    0.5018   -0.5236    0.2671 N   0  0  0  0  0  0  0  0  0  0  0  0
    0.1980   -0.4447    1.6795 C   0  0  1  0  0  0  0  0  0  0  0  0
    0.8310    0.6933    2.5095 C   0  0  0  0  0  0  0  0  0  0  0  0
    0.5121    2.5007    2.1559 S   0  0  0  0  0  0  0  0  0  0  0  0
   -1.3032   -0.4109    1.6799 C   0  0  0  0  0  0  0  0  0  0  0  0
   -2.0426   -1.3795    1.8776 O   0  0  0  0  0  0  0  0  0  0  0  0
   -1.7785    0.7482    1.1784 O   0  0  0  0  0  0  0  0  0  0  0  0
    1.1450    2.8817    0.4681 C   0  0  0  0  0  0  0  0  0  0  0  0
    2.6748    2.9317    0.3740 C   0  0  0  0  0  0  0  0  0  0  0  0
    3.3537    1.5890    0.5533 C   0  0  0  0  0  0  0  0  0  0  0  0
    2.9194    0.6552   -0.5544 C   0  0  0  0  0  0  0  0  0  0  0  0
    3.4102    0.9177   -1.9369 C   0  0  0  0  0  0  0  0  0  0  0  0
    4.9063    0.7965   -1.8741 C   0  0  0  0  0  0  0  0  0  0  0  0
    5.3202   -0.6300   -1.4600 C   0  0  0  0  0  0  0  0  0  0  0  0
    4.7496   -1.6880   -2.4101 C   0  0  0  0  0  0  0  0  0  0  0  0
    5.1724   -1.3634   -3.8314 C   0  0  0  0  0  0  0  0  0  0  0  0
  2  1  1  6
  2  3  1  0
  2  5  1  0
  3  4  1  0
  4  8  1  0
  5  6  2  0
  5  7  1  0
  8  9  1  0
  9 10  1  0
 10 11  1  0
 11 12  1  0
 12 13  1  0
 13 14  1  0
 14 15  1  0
 15 16  1  0
M  END
>  <DRUGBANK_ID>  (1) 
DB07849

>  <COMMON_NAME>  (1) 
S-NONYL-CYSTEINE

$$$$
