
     RDKit          3D

 31 34  0  0  0  0  0  0  0  0999 V2000
    2.6556    2.6185   -1.3307 F   0  0  0  0  0  0  0  0  0  0  0  0
    3.3559    6.1046   -0.6781 O   0  0  0  0  0  0  0  0  0  0  0  0
    0.4427    3.4528   -4.1666 O   0  0  0  0  0  0  0  0  0  0  0  0
    1.3595    7.7448   -3.1174 O   0  0  0  0  0  0  0  0  0  0  0  0
    3.8727    8.9252   -1.0807 O   0  0  0  0  0  0  0  0  0  0  0  0
    5.3794   -0.5325   -2.4582 O   0  0  0  0  0  0  0  0  0  0  0  0
    1.8837   10.0557   -1.2664 O   0  0  0  0  0  0  0  0  0  0  0  0
    1.0175    4.4158   -0.2345 C   0  0  0  0  0  0  0  0  0  0  0  0
    0.5265    2.8898   -0.7629 C   0  0  1  0  0  0  0  0  0  0  0  0
    1.2431    5.2501   -1.5801 C   0  0  1  0  0  0  0  0  0  0  0  0
    1.4152    2.4674   -2.0060 C   0  0  2  0  0  0  0  0  0  0  0  0
    2.0341    6.4811   -1.1387 C   0  0  1  0  0  0  0  0  0  0  0  0
    1.5209    1.0193   -2.5967 C   0  0  2  0  0  0  0  0  0  0  0  0
    1.4873    3.4297   -3.2123 C   0  0  2  0  0  0  0  0  0  0  0  0
    2.0916    4.6648   -2.6973 C   0  0  0  0  0  0  0  0  0  0  0  0
    1.3768    5.5617    0.9389 C   0  0  0  0  0  0  0  0  0  0  0  0
    1.1854    6.7919    0.0413 C   0  0  0  0  0  0  0  0  0  0  0  0
    0.5385    1.7273    0.2574 C   0  0  0  0  0  0  0  0  0  0  0  0
    1.8866    0.1618   -1.3690 C   0  0  0  0  0  0  0  0  0  0  0  0
    2.2108    7.5209   -2.2543 C   0  0  0  0  0  0  0  0  0  0  0  0
   -0.1867    5.4847   -2.1223 C   0  0  0  0  0  0  0  0  0  0  0  0
    0.6196    0.3193   -0.4314 C   0  0  0  0  0  0  0  0  0  0  0  0
    2.7163    1.0838   -3.5453 C   0  0  0  0  0  0  0  0  0  0  0  0
    0.4532    0.5771   -3.6978 C   0  0  0  0  0  0  0  0  0  0  0  0
    3.2251   -0.1970   -1.2420 C   0  0  0  0  0  0  0  0  0  0  0  0
    0.0851    7.5751    0.0197 C   0  0  0  0  0  0  0  0  0  0  0  0
    3.5488    8.2332   -2.2838 C   0  0  0  0  0  0  0  0  0  0  0  0
    3.5903    0.1908   -3.6899 C   0  0  0  0  0  0  0  0  0  0  0  0
    4.2063   -0.2461   -2.4510 C   0  0  0  0  0  0  0  0  0  0  0  0
    2.9234    9.8089   -0.6727 C   0  0  0  0  0  0  0  0  0  0  0  0
    3.3140   10.4662    0.6091 C   0  0  0  0  0  0  0  0  0  0  0  0
  4 20  2  0
  5 27  1  0
  5 30  1  0
  6 29  2  0
  7 30  2  0
  8  9  1  0
  8 10  1  0
  8 16  1  0
  9 11  1  0
  9 18  1  1
 10 12  1  0
 10 15  1  0
 10 21  1  6
 11  1  1  1
 11 13  1  0
 11 14  1  0
 12 17  1  0
 12 20  1  0
 12  2  1  1
 13 19  1  0
 13 23  1  0
 13 24  1  6
 14  3  1  1
 14 15  1  0
 16 17  1  0
 17 26  2  0
 18 22  1  0
 19 22  1  0
 19 25  2  0
 20 27  1  0
 23 28  2  0
 25 29  1  0
 28 29  1  0
 30 31  1  0
M  END
>  <DRUGBANK_ID>  (1) 
DB14634

>  <SECONDARY_ACCESSION_NUMBERS>  (1) 
DBSALT001871

>  <COMMON_NAME>  (1) 
Fluprednidene acetate

>  <CAS_NUMBER>  (1) 
1255-35-2

>  <UNII>  (1) 
GE65DV564S

$$$$
