
     RDKit          3D

 35 37  0  0  0  0  0  0  0  0999 V2000
    0.8952    0.1347   -0.3571 O   0  0  0  0  0  0  0  0  0  0  0  0
    5.2935    0.9550   -2.4697 O   0  0  0  0  0  0  0  0  0  0  0  0
    3.5058   -1.6629   -4.5229 O   0  0  0  0  0  0  0  0  0  0  0  0
    1.6664    4.4538    1.4641 O   0  0  0  0  0  0  0  0  0  0  0  0
    1.7555    2.8530    3.0224 O   0  0  0  0  0  0  0  0  0  0  0  0
    2.8569   -0.7579   -0.8517 N   0  0  0  0  0  0  0  0  0  0  0  0
    2.1020    2.2876    0.8164 N   0  0  0  0  0  0  0  0  0  0  0  0
    5.5904    3.8144   -0.5002 N   0  0  0  0  0  0  0  0  0  0  0  0
    4.2839   -0.7564   -1.0062 C   0  0  1  0  0  0  0  0  0  0  0  0
    4.9074   -2.2017   -0.7095 C   0  0  0  0  0  0  0  0  0  0  0  0
    2.7430    0.9758    0.9733 C   0  0  1  0  0  0  0  0  0  0  0  0
    4.6789   -3.3772   -1.7414 C   0  0  0  0  0  0  0  0  0  0  0  0
    2.5470    0.3882    2.3592 C   0  0  0  0  0  0  0  0  0  0  0  0
    2.1072    0.1203   -0.1303 C   0  0  0  0  0  0  0  0  0  0  0  0
    4.4197    0.0793   -2.3760 C   0  0  0  0  0  0  0  0  0  0  0  0
    5.6273   -3.2681   -2.9715 C   0  0  0  0  0  0  0  0  0  0  0  0
    2.9472   -1.0324    2.5946 C   0  0  0  0  0  0  0  0  0  0  0  0
    3.6149   -0.4748   -3.7578 C   0  0  0  0  0  0  0  0  0  0  0  0
    6.0436   -1.9863   -3.2805 C   0  0  0  0  0  0  0  0  0  0  0  0
    5.8816   -4.1241   -4.0081 C   0  0  0  0  0  0  0  0  0  0  0  0
    3.7426   -1.3383    3.6990 C   0  0  0  0  0  0  0  0  0  0  0  0
    2.3931   -2.0737    1.8433 C   0  0  0  0  0  0  0  0  0  0  0  0
    1.8409    3.1703    1.8023 C   0  0  0  0  0  0  0  0  0  0  0  0
    6.4365   -1.3800   -4.4740 C   0  0  0  0  0  0  0  0  0  0  0  0
    6.3978   -3.6040   -5.2491 C   0  0  0  0  0  0  0  0  0  0  0  0
    3.9811   -2.6680    4.0251 C   0  0  0  0  0  0  0  0  0  0  0  0
    2.6399   -3.3959    2.1559 C   0  0  0  0  0  0  0  0  0  0  0  0
    6.5607   -2.2319   -5.5164 C   0  0  0  0  0  0  0  0  0  0  0  0
    3.4437   -3.6926    3.2441 C   0  0  0  0  0  0  0  0  0  0  0  0
    2.0082    5.0011    0.1749 C   0  0  0  0  0  0  0  0  0  0  0  0
    3.4930    5.0254   -0.1047 C   0  0  0  0  0  0  0  0  0  0  0  0
    4.1951    6.2212   -0.2134 C   0  0  0  0  0  0  0  0  0  0  0  0
    4.2623    3.8792   -0.2946 C   0  0  0  0  0  0  0  0  0  0  0  0
    5.5713    6.1979   -0.4682 C   0  0  0  0  0  0  0  0  0  0  0  0
    6.2222    4.9823   -0.5881 C   0  0  0  0  0  0  0  0  0  0  0  0
  1 14  2  0
  2 15  2  0
  3 18  1  0
  4 23  1  0
  4 30  1  0
  5 23  2  0
  6 14  1  0
  7 23  1  0
  8 33  2  0
  8 35  1  0
  9  6  1  0
  9 10  1  6
  9 15  1  0
 10 12  1  0
 11  7  1  0
 11 13  1  1
 11 14  1  0
 12 16  1  0
 13 17  1  0
 15 18  1  0
 16 19  2  0
 16 20  1  0
 17 21  2  0
 17 22  1  0
 19 24  1  0
 20 25  2  0
 21 26  1  0
 22 27  2  0
 24 28  2  0
 25 28  1  0
 26 29  2  0
 27 29  1  0
 30 31  1  0
 31 32  2  0
 31 33  1  0
 32 34  1  0
 34 35  2  0
M  END
>  <DRUGBANK_ID>  (1) 
DB02128

>  <SECONDARY_ACCESSION_NUMBERS>  (1) 
EXPT02467

>  <COMMON_NAME>  (1) 
[1-(3-hydroxy-2-oxo-1-phenethyl-propylcarbamoyl)2-phenyl-ethyl]-carbamic acid pyridin-4-ylmethyl ester

>  <SYNONYMS>  (1) 
N-[(3S)-1-hydroxy-2-oxo-5-phenyl-3-pentanyl]-NÎ±-[(3-pyridinylmethoxy)carbonyl]-L-phenylalaninamide

$$$$
