
     RDKit          3D

 29 31  0  0  0  0  0  0  0  0999 V2000
    0.9340   -0.2543   -0.4469 C   0  0  0  0  0  0  0  0  0  0  0  0
    1.1682    0.5916    2.5962 C   0  0  0  0  0  0  0  0  0  0  0  0
    0.3416    1.5750    1.8080 C   0  0  0  0  0  0  0  0  0  0  0  0
    0.7114    0.7424    4.0097 C   0  0  0  0  0  0  0  0  0  0  0  0
   -2.1560    4.0913   -0.1658 C   0  0  0  0  0  0  0  0  0  0  0  0
   -2.6054    2.7697   -0.1396 C   0  0  0  0  0  0  0  0  0  0  0  0
    0.6656    3.0312    1.9843 C   0  0  0  0  0  0  0  0  0  0  0  0
   -0.8563    4.3685   -0.5857 C   0  0  0  0  0  0  0  0  0  0  0  0
   -1.7770    1.7181   -0.5538 C   0  0  0  0  0  0  0  0  0  0  0  0
   -0.7941    0.4464    4.1124 C   0  0  0  0  0  0  0  0  0  0  0  0
    3.2717    4.1459   -4.3626 C   0  0  0  0  0  0  0  0  0  0  0  0
    2.7949    4.2939   -3.0548 C   0  0  0  0  0  0  0  0  0  0  0  0
    2.0700    3.3019    1.4055 C   0  0  0  0  0  0  0  0  0  0  0  0
    2.2455    1.9968   -4.5207 C   0  0  0  0  0  0  0  0  0  0  0  0
    2.9987    2.9928   -5.0842 C   0  0  0  0  0  0  0  0  0  0  0  0
    0.0165    3.3024   -0.9269 C   0  0  0  0  0  0  0  0  0  0  0  0
    2.0079    3.2937   -2.4481 C   0  0  0  0  0  0  0  0  0  0  0  0
   -0.4643    1.9670   -0.9425 C   0  0  0  0  0  0  0  0  0  0  0  0
    1.7394    2.1431   -3.2310 C   0  0  0  0  0  0  0  0  0  0  0  0
   -1.1514   -0.9857    3.7808 C   0  0  0  0  0  0  0  0  0  0  0  0
    1.5014    3.5889   -1.0373 C   0  0  0  0  0  0  0  0  0  0  0  0
    3.5644    2.7681   -6.6840 Cl  0  0  0  0  0  0  0  0  0  0  0  0
    2.3473    2.9452   -0.0103 N   0  0  0  0  0  0  0  0  0  0  0  0
    0.4162    0.8626   -1.2698 N   0  0  0  0  0  0  0  0  0  0  0  0
   -1.5447   -1.8107    4.5874 O   0  0  0  0  0  0  0  0  0  0  0  0
   -1.0026   -1.3252    2.4828 O   0  0  0  0  0  0  0  0  0  0  0  0
    1.6366   -0.4247   -3.0243 O   0  0  0  0  0  0  0  0  0  0  0  0
   -0.4748    0.8411   -3.5984 O   0  0  0  0  0  0  0  0  0  0  0  0
    0.7516    0.7311   -2.8644 S   0  0  0  0  0  0  0  0  0  0  0  0
  3  2  1  0
  4  2  1  0
  6  5  2  0
  7  3  1  0
  8  5  1  0
  9  6  1  0
 10  4  1  0
 12 11  1  0
 13  7  1  0
 15 11  2  0
 15 14  1  0
 16  8  2  0
 17 12  2  0
 18  9  2  0
 18 16  1  0
 19 14  2  0
 19 17  1  0
 20 10  1  0
 21 16  1  0
 21 17  1  0
 22 15  1  0
 23 13  1  0
 23 21  1  0
 24  1  1  0
 24 18  1  0
 25 20  2  0
 26 20  1  0
 29 19  1  0
 29 24  1  0
 29 27  2  0
 29 28  2  0
M  END
>  <DRUGBANK_ID>  (1) 
DB09289

>  <COMMON_NAME>  (1) 
Tianeptine

>  <CAS_NUMBER>  (1) 
72797-41-2

>  <UNII>  (1) 
0T493YFU8O

>  <SYNONYMS>  (1) 
Tianeptina; Tianeptine

$$$$
