1536
     RDKit          3D

 21 24  0  0  1  0  0  0  0  0999 V2000
    2.2688   -6.2925   13.3691 O   0  0  0  0  0  0  0  0  0  0  0  0
    0.9505   -0.3299   16.8492 O   0  0  0  0  0  0  0  0  0  0  0  0
    4.4542   -5.2736   15.9331 C   0  0  1  0  0  0  0  0  0  0  0  0
    3.3476   -5.1651   17.0111 C   0  0  2  0  0  0  0  0  0  0  0  0
    4.1639   -6.5412   15.2420 C   0  0  2  0  0  0  0  0  0  0  0  0
    3.5901   -7.8447   15.4325 C   0  0  1  0  0  0  0  0  0  0  0  0
    2.9517   -3.5986   17.2471 C   0  0  1  0  0  0  0  0  0  0  0  0
    3.9291   -6.3936   17.8551 C   0  0  0  0  0  0  0  0  0  0  0  0
    3.2579   -7.6080   17.0741 C   0  0  0  0  0  0  0  0  0  0  0  0
    4.2279   -4.0862   15.0862 C   0  0  0  0  0  0  0  0  0  0  0  0
    5.0872   -7.1221   13.9913 C   0  0  0  0  0  0  0  0  0  0  0  0
    3.7873   -2.3839   17.0534 C   0  0  0  0  0  0  0  0  0  0  0  0
    3.2895   -6.8042   13.7236 C   0  0  0  0  0  0  0  0  0  0  0  0
    4.6501   -2.7592   15.7943 C   0  0  0  0  0  0  0  0  0  0  0  0
    4.6934   -6.0683   13.1373 C   0  0  0  0  0  0  0  0  0  0  0  0
    2.2111   -2.6895   15.6494 C   0  0  0  0  0  0  0  0  0  0  0  0
    4.8863   -8.9029   15.8019 C   0  0  0  0  0  0  0  0  0  0  0  0
    4.0639   -3.7053   18.5848 C   0  0  0  0  0  0  0  0  0  0  0  0
    2.5609   -1.0374   15.3234 C   0  0  0  0  0  0  0  0  0  0  0  0
    3.0216   -1.3602   17.6186 C   0  0  0  0  0  0  0  0  0  0  0  0
    2.0992   -0.6876   16.6333 C   0  0  0  0  0  0  0  0  0  0  0  0
  1 13  2  0
  2 21  2  0
  3  4  1  0
  3  5  1  0
  3 10  1  6
  4  7  1  0
  4  8  1  1
  5  6  1  0
  5 11  1  1
  6  9  1  0
  6 13  1  0
  6 17  1  6
  7 12  1  0
  7 16  1  0
  7 18  1  1
  8  9  1  0
 10 14  1  0
 11 15  1  0
 12 14  1  0
 12 20  2  0
 13 15  1  0
 16 19  1  0
 19 21  1  0
 20 21  1  0
M  END
>  <DRUGBANK_ID>  (1) 
DB01536

>  <SECONDARY_ACCESSION_NUMBERS>  (1) 
EXPT00569; DB07386

>  <COMMON_NAME>  (1) 
Androstenedione

>  <CAS_NUMBER>  (1) 
63-05-8

>  <UNII>  (1) 
409J2J96VR

>  <SYNONYMS>  (1) 
4-Androstene-3,17-dione; 4-Androstenedione; Androst-4-ene-3,17-dione; Androstenedione; delta-4-Androstenedione

$$$$
