ME1
     RDKit          3D

 27 29  0  0  0  0  0  0  0  0999 V2000
    0.3867    0.1113    0.0322 C   0  0  0  0  0  0  0  0  0  0  0  0
   -0.1446    1.3620    0.0245 C   0  0  0  0  0  0  0  0  0  0  0  0
   -1.5508    1.2987   -0.0884 C   0  0  0  0  0  0  0  0  0  0  0  0
   -4.6233    1.8289    0.0588 C   0  0  0  0  0  0  0  0  0  0  0  0
   -5.1311    2.4175   -1.2479 C   0  0  0  0  0  0  0  0  0  0  0  0
   -7.3797    3.3843   -1.3034 C   0  0  0  0  0  0  0  0  0  0  0  0
   -8.8339    3.1267   -1.2246 C   0  0  0  0  0  0  0  0  0  0  0  0
   -9.3591    2.2152   -0.3001 C   0  0  0  0  0  0  0  0  0  0  0  0
  -10.7461    2.0918   -0.1510 C   0  0  0  0  0  0  0  0  0  0  0  0
   -9.6852    3.9085   -2.0057 C   0  0  0  0  0  0  0  0  0  0  0  0
  -13.7538    2.8493    0.2493 C   0  0  0  0  0  0  0  0  0  0  0  0
  -15.0950    2.8493    0.2286 C   0  0  0  0  0  0  0  0  0  0  0  0
  -15.1206    2.1264   -2.0676 C   0  0  0  0  0  0  0  0  0  0  0  0
   -2.0945    0.0255   -0.0122 C   0  0  0  0  0  0  0  0  0  0  0  0
   -0.7787   -1.1180    0.0279 S   0  0  0  0  0  0  0  0  0  0  0  0
   -3.4772   -0.4821    0.0160 C   0  0  0  0  0  0  0  0  0  0  0  0
   -3.7688   -1.6787    0.0339 O   0  0  0  0  0  0  0  0  0  0  0  0
   -4.5601    0.3797    0.0434 N   0  0  0  0  0  0  0  0  0  0  0  0
   -6.5666    2.2729   -1.3180 N   0  0  0  0  0  0  0  0  0  0  0  0
   -6.9687    4.5321   -1.3281 O   0  0  0  0  0  0  0  0  0  0  0  0
  -11.6051    2.8568   -0.9470 C   0  0  0  0  0  0  0  0  0  0  0  0
  -11.0655    3.7880   -1.8484 C   0  0  0  0  0  0  0  0  0  0  0  0
  -13.0157    2.6469   -0.9114 N   0  0  0  0  0  0  0  0  0  0  0  0
  -15.7997    2.4796   -0.9715 C   0  0  0  0  0  0  0  0  0  0  0  0
  -13.6439    2.3018   -2.1235 C   0  0  0  0  0  0  0  0  0  0  0  0
  -13.0839    2.1112   -3.2007 O   0  0  0  0  0  0  0  0  0  0  0  0
    2.0666   -0.2262    0.0246 Cl  0  0  0  0  0  0  0  0  0  0  0  0
  1  2  2  0
  1 27  1  0
  1 15  1  0
  2  3  1  0
  3 14  2  0
  4  5  1  0
  4 18  1  0
  5 19  1  0
  6  7  1  0
  6 20  2  0
  6 19  1  0
  7  8  2  0
  7 10  1  0
  8  9  1  0
  9 21  2  0
 10 22  2  0
 11 12  2  0
 11 23  1  0
 12 24  1  0
 13 24  2  0
 13 25  1  0
 14 16  1  0
 14 15  1  0
 16 17  2  0
 16 18  1  0
 21 23  1  0
 21 22  1  0
 23 25  1  0
 25 26  2  0
M  END
>  <DRUGBANK_ID>  (1) 
DB08173

>  <COMMON_NAME>  (1) 
5-CHLORO-N-(2-(4-(2-OXOPYRIDIN-1(2H)-YL)BENZAMIDO)ETHYL)THIOPHENE-2-CARBOXAMIDE

$$$$
