
     RDKit          3D

 25 27  0  0  0  0  0  0  0  0999 V2000
    0.8978   -0.0655   -0.0743 C   0  0  0  0  0  0  0  0  0  0  0  0
    0.2588    0.4103    1.1414 N   0  0  0  0  0  0  0  0  0  0  0  0
   -0.4316    1.6948    1.1312 C   0  0  0  0  0  0  0  0  0  0  0  0
    0.6962   -0.0183    2.3829 C   0  0  0  0  0  0  0  0  0  0  0  0
    2.0168   -0.3517    2.6140 C   0  0  0  0  0  0  0  0  0  0  0  0
    2.4717   -0.5475    3.9122 C   0  0  0  0  0  0  0  0  0  0  0  0
    1.6237   -0.6720    5.0201 C   0  0  0  0  0  0  0  0  0  0  0  0
    0.2971   -0.3072    4.7806 C   0  0  0  0  0  0  0  0  0  0  0  0
   -0.1589   -0.0170    3.4892 C   0  0  0  0  0  0  0  0  0  0  0  0
    2.0546   -1.1695    6.3962 C   0  0  0  0  0  0  0  0  0  0  0  0
    1.0703   -1.1813    7.5409 C   0  0  0  0  0  0  0  0  0  0  0  0
   -0.0834   -1.9827    7.4579 C   0  0  0  0  0  0  0  0  0  0  0  0
   -0.9718   -2.0719    8.5303 C   0  0  0  0  0  0  0  0  0  0  0  0
   -0.6828   -1.4164    9.7236 C   0  0  0  0  0  0  0  0  0  0  0  0
    0.4727   -0.6446    9.8329 C   0  0  0  0  0  0  0  0  0  0  0  0
    1.3087   -0.4721    8.7273 C   0  0  0  0  0  0  0  0  0  0  0  0
    3.2840   -1.7254    6.6468 C   0  0  0  0  0  0  0  0  0  0  0  0
    3.7279   -2.1903    7.9633 C   0  0  0  0  0  0  0  0  0  0  0  0
    5.0329   -2.2629    8.2582 C   0  0  0  0  0  0  0  0  0  0  0  0
    6.0745   -1.9140    7.2199 C   0  0  0  0  0  0  0  0  0  0  0  0
    5.5733   -1.9332    5.8180 C   0  0  0  0  0  0  0  0  0  0  0  0
    4.2655   -1.9913    5.6053 C   0  0  0  0  0  0  0  0  0  0  0  0
    7.3208   -1.7178    7.5041 N   0  0  0  0  0  0  0  0  0  0  0  0
    8.3713   -1.3703    6.4919 C   0  0  0  0  0  0  0  0  0  0  0  0
    7.8178   -1.8305    8.9077 C   0  0  0  0  0  0  0  0  0  0  0  0
  1  2  1  0
  2  3  1  0
  2  4  1  0
  4  5  2  0
  4  9  1  0
  5  6  1  0
  6  7  2  0
  7  8  1  0
  7 10  1  0
  8  9  2  0
 10 11  1  0
 10 17  2  3
 11 12  2  0
 11 16  1  0
 12 13  1  0
 13 14  2  0
 14 15  1  0
 15 16  2  0
 17 18  1  0
 17 22  1  0
 18 19  2  0
 19 20  1  0
 20 21  1  0
 20 23  2  3
 21 22  2  0
 23 24  1  0
 23 25  1  0
M  CHG  1  23   1
M  END
>  <DRUGBANK_ID>  (1) 
DB03895

>  <SECONDARY_ACCESSION_NUMBERS>  (1) 
EXPT02168

>  <COMMON_NAME>  (1) 
Malachite Green

>  <CAS_NUMBER>  (1) 
10309-95-2

>  <UNII>  (1) 
AWT9R95TV1

>  <SYNONYMS>  (1) 
malachite green cation; malachite green(1+)

$$$$
