748
     RDKit          3D

 20 21  0  0  1  0  0  0  0  0999 V2000
   -2.2371    0.0304   -0.0259 Cl  0  0  0  0  0  0  0  0  0  0  0  0
    4.0852   -1.0319    1.4816 O   0  0  0  0  0  0  0  0  0  0  0  0
    4.1146    2.4143    1.0697 N   0  0  0  0  0  0  0  0  0  0  0  0
    5.1289   -2.2229   -0.9823 N   0  0  0  0  0  0  0  0  0  0  0  0
    3.7525   -0.5397    0.1766 C   0  0  0  0  0  0  0  0  0  0  0  0
    3.8445    0.0190    2.4525 C   0  0  0  0  0  0  0  0  0  0  0  0
    4.4679    1.4879    2.2206 C   0  0  0  0  0  0  0  0  0  0  0  0
    2.2621   -0.2811    0.0505 C   0  0  0  0  0  0  0  0  0  0  0  0
    4.3559   -1.1405   -1.1000 C   0  0  0  0  0  0  0  0  0  0  0  0
    1.6278    0.9780   -0.0186 C   0  0  0  0  0  0  0  0  0  0  0  0
    1.4689   -1.4264    0.0221 C   0  0  0  0  0  0  0  0  0  0  0  0
    4.1034   -0.5170   -2.3499 C   0  0  0  0  0  0  0  0  0  0  0  0
    4.4579    3.8003    1.3775 C   0  0  0  0  0  0  0  0  0  0  0  0
    4.7544    2.2280   -0.2543 C   0  0  0  0  0  0  0  0  0  0  0  0
    0.2386    1.0839   -0.0407 C   0  0  0  0  0  0  0  0  0  0  0  0
    0.0878   -1.3262   -0.0257 C   0  0  0  0  0  0  0  0  0  0  0  0
   -0.5241   -0.0753   -0.0336 C   0  0  0  0  0  0  0  0  0  0  0  0
    4.5667   -1.1270   -3.5145 C   0  0  0  0  0  0  0  0  0  0  0  0
    5.5619   -2.7924   -2.1320 C   0  0  0  0  0  0  0  0  0  0  0  0
    5.2689   -2.3002   -3.3971 C   0  0  0  0  0  0  0  0  0  0  0  0
  1 17  1  0
  2  5  1  0
  2  6  1  0
  3  7  1  0
  3 13  1  0
  3 14  1  0
  4  9  2  0
  4 19  1  0
  5  8  1  0
  5  9  1  0
  6  7  1  0
  8 10  2  0
  8 11  1  0
  9 12  1  0
 10 15  1  0
 11 16  2  0
 12 18  2  0
 15 17  2  0
 16 17  1  0
 18 20  1  0
 19 20  2  0
M  END
>  <DRUGBANK_ID>  (1) 
DB00748

>  <SECONDARY_ACCESSION_NUMBERS>  (1) 
APRD00765

>  <COMMON_NAME>  (1) 
Carbinoxamine

>  <CAS_NUMBER>  (1) 
486-16-8

>  <UNII>  (1) 
982A7M02H5

>  <SYNONYMS>  (1) 
(±)-carbinoxamine; {2-[(4-Chloro-phenyl)-pyridin-2-yl-methoxy]-ethyl}-dimethyl-amine; 2-(p-chloro-α-(2-(dimethylamino)ethoxy)benzyl)pyridine; Carbinoxamin; Carbinoxamina; Carbinoxamine; Carbinoxamine base; Carbinoxaminum; Paracarbinoxamine

$$$$
