
     RDKit          3D

 25 28  0  0  0  0  0  0  0  0999 V2000
    2.4246   -1.4573    0.0514 C   0  0  0  0  0  0  0  0  0  0  0  0
    1.5398   -0.3214    0.0277 N   0  0  0  0  0  0  0  0  0  0  0  0
    1.8925    0.9996    0.0019 C   0  0  0  0  0  0  0  0  0  0  0  0
    0.8374    1.7912   -0.0038 N   0  0  0  0  0  0  0  0  0  0  0  0
   -0.2506    0.9353    0.0175 C   0  0  0  0  0  0  0  0  0  0  0  0
   -1.6432    1.1489    0.0207 C   0  0  0  0  0  0  0  0  0  0  0  0
   -2.2358    2.4205    0.0375 N   0  0  0  0  0  0  0  0  0  0  0  0
   -3.6083    2.6954    0.1312 C   0  0  0  0  0  0  0  0  0  0  0  0
   -4.3831    2.1569    1.1700 C   0  0  0  0  0  0  0  0  0  0  0  0
   -5.7688    2.3377    1.2075 C   0  0  0  0  0  0  0  0  0  0  0  0
   -6.3956    3.0504    0.1912 C   0  0  0  0  0  0  0  0  0  0  0  0
   -8.1075    3.2267    0.2009 Cl  0  0  0  0  0  0  0  0  0  0  0  0
   -5.6435    3.6096   -0.8403 C   0  0  0  0  0  0  0  0  0  0  0  0
   -4.2521    3.4436   -0.8612 C   0  0  0  0  0  0  0  0  0  0  0  0
   -2.4360    0.0426   -0.0487 N   0  0  0  0  0  0  0  0  0  0  0  0
   -1.8921   -1.1978    0.0197 C   0  0  0  0  0  0  0  0  0  0  0  0
   -2.8061   -2.2969   -0.0817 N   0  0  0  0  0  0  0  0  0  0  0  0
   -2.7793   -3.3428    0.7972 N   0  0  0  0  0  0  0  0  0  0  0  0
   -3.8192   -4.1051    0.4404 C   0  0  0  0  0  0  0  0  0  0  0  0
   -4.1959   -5.3031    1.2266 C   0  0  0  0  0  0  0  0  0  0  0  0
   -4.4356   -3.6376   -0.7354 C   0  0  0  0  0  0  0  0  0  0  0  0
   -3.7825   -2.4689   -1.0519 C   0  0  0  0  0  0  0  0  0  0  0  0
   -3.9455   -1.5757   -2.2246 C   0  0  0  0  0  0  0  0  0  0  0  0
   -0.5765   -1.4925    0.0996 N   0  0  0  0  0  0  0  0  0  0  0  0
    0.1766   -0.3818    0.0508 C   0  0  0  0  0  0  0  0  0  0  0  0
  1  2  1  0
  2  3  1  0
  2 25  1  0
  3  4  2  0
  4  5  1  0
  5  6  1  0
  5 25  2  0
  6  7  1  0
  6 15  2  0
  7  8  1  0
  8  9  2  0
  8 14  1  0
  9 10  1  0
 10 11  2  0
 11 12  1  0
 11 13  1  0
 13 14  2  0
 15 16  1  0
 16 17  1  0
 16 24  2  0
 17 18  1  0
 17 22  1  0
 18 19  2  0
 19 20  1  0
 19 21  1  0
 21 22  2  0
 22 23  1  0
 24 25  1  0
M  END
>  <DRUGBANK_ID>  (1) 
DB16898

>  <COMMON_NAME>  (1) 
NS13001

>  <CAS_NUMBER>  (1) 
1063331-94-1

$$$$
