MN8
     RDKit          3D

 21 23  0  0  0  0  0  0  0  0999 V2000
   10.1799   -0.0268   -0.1629 C   0  0  0  0  0  0  0  0  0  0  0  0
   11.1834   -0.4189    0.4309 O   0  0  0  0  0  0  0  0  0  0  0  0
   10.1724   -0.0496   -1.5110 O   0  0  0  0  0  0  0  0  0  0  0  0
    8.9403    0.4483    0.4469 C   0  0  0  0  0  0  0  0  0  0  0  0
    8.7335    0.5231    1.8231 C   0  0  0  0  0  0  0  0  0  0  0  0
    9.6635    0.2104    2.9849 C   0  0  0  0  0  0  0  0  0  0  0  0
   10.0584    1.4393    3.8094 C   0  0  0  0  0  0  0  0  0  0  0  0
    9.0796   -0.8785    3.8853 C   0  0  0  0  0  0  0  0  0  0  0  0
    7.0968    0.9172    2.1126 S   0  0  0  0  0  0  0  0  0  0  0  0
    6.8058    1.1620    0.3932 C   0  0  0  0  0  0  0  0  0  0  0  0
    7.8456    0.8723   -0.3563 N   0  0  0  0  0  0  0  0  0  0  0  0
    5.5847    2.0447    0.0929 C   0  0  1  0  0  0  0  0  0  0  0  0
    5.9248    3.2803    0.8485 N   0  0  0  0  0  0  0  0  0  0  0  0
    5.4899    4.5383    0.3104 C   0  0  0  0  0  0  0  0  0  0  0  0
    4.1342    4.4309   -0.2845 C   0  0  0  0  0  0  0  0  0  0  0  0
    3.8955    3.3680   -1.1794 C   0  0  0  0  0  0  0  0  0  0  0  0
    5.0282    2.3292   -1.3354 C   0  0  0  0  0  0  0  0  0  0  0  0
    2.6463    3.3050   -1.7978 C   0  0  0  0  0  0  0  0  0  0  0  0
    1.6627    4.2647   -1.4916 C   0  0  0  0  0  0  0  0  0  0  0  0
    1.9077    5.2817   -0.5655 C   0  0  0  0  0  0  0  0  0  0  0  0
    3.1506    5.3684    0.0371 C   0  0  0  0  0  0  0  0  0  0  0  0
  1  2  2  0
  1  3  1  0
  1  4  1  0
  4  5  2  0
  4 11  1  0
  5  6  1  0
  5  9  1  0
  6  7  1  0
  6  8  1  0
  9 10  1  0
 10 11  2  0
 12 13  1  0
 12 17  1  0
 12 10  1  6
 13 14  1  0
 14 15  1  0
 15 16  2  0
 15 21  1  0
 16 17  1  0
 16 18  1  0
 18 19  2  0
 19 20  1  0
 20 21  2  0
M  END
>  <DRUGBANK_ID>  (1) 
DB08192

>  <COMMON_NAME>  (1) 
2-(4-CARCOXY-5-ISOPROPYLTHIAZOLYL)BENZOPIPERIDINE

$$$$
