CRI
     RDKit          3D

 31 33  0  0  0  0  0  0  0  0999 V2000
    1.0024   -0.0193    0.0676 N   0  0  0  0  0  0  0  0  0  0  0  0
    0.3198   -0.8981    0.9261 O   0  0  0  0  0  0  0  0  0  0  0  0
    0.9691    1.3740   -1.7205 O   0  0  0  0  0  0  0  0  0  0  0  0
    0.3459    0.7135   -0.8738 C   0  0  0  0  0  0  0  0  0  0  0  0
   -1.8405    0.8988    0.2982 C   0  0  0  0  0  0  0  0  0  0  0  0
   -1.1238    0.7483   -0.8921 C   0  0  0  0  0  0  0  0  0  0  0  0
   -1.7829    0.7183   -2.1293 C   0  0  0  0  0  0  0  0  0  0  0  0
   -3.1651    0.7627   -2.1717 C   0  0  0  0  0  0  0  0  0  0  0  0
   -3.8796    0.8121   -0.9777 C   0  0  0  0  0  0  0  0  0  0  0  0
   -3.2202    0.9623    0.2524 C   0  0  0  0  0  0  0  0  0  0  0  0
   -5.3021    0.5680   -0.9833 C   0  0  0  0  0  0  0  0  0  0  0  0
   -5.7974   -0.6880   -1.4630 C   0  0  0  0  0  0  0  0  0  0  0  0
   -7.1445   -0.9603   -1.3600 C   0  0  0  0  0  0  0  0  0  0  0  0
   -7.8683    0.0337   -0.7320 C   0  0  0  0  0  0  0  0  0  0  0  0
   -7.4261    1.1990   -0.1041 C   0  0  0  0  0  0  0  0  0  0  0  0
   -6.1283    1.5224   -0.3692 C   0  0  0  0  0  0  0  0  0  0  0  0
   -8.2335    2.0817    0.8229 C   0  0  0  0  0  0  0  0  0  0  0  0
   -7.7926    3.2285    1.0631 O   0  0  0  0  0  0  0  0  0  0  0  0
   -9.3715    1.6480    1.4815 N   0  0  0  0  0  0  0  0  0  0  0  0
  -10.0084    0.4210    1.2479 C   0  0  0  0  0  0  0  0  0  0  0  0
  -10.2937    2.5729    2.1353 C   0  0  0  0  0  0  0  0  0  0  0  0
   -7.7682   -2.1629   -1.8127 N   0  0  0  0  0  0  0  0  0  0  0  0
   -9.0960   -2.6472   -1.7634 C   0  0  0  0  0  0  0  0  0  0  0  0
   -9.2901   -3.8371   -2.0350 O   0  0  0  0  0  0  0  0  0  0  0  0
  -10.6313   -0.6045   -1.9196 C   0  0  0  0  0  0  0  0  0  0  0  0
  -11.5958    0.2241   -1.2848 C   0  0  0  0  0  0  0  0  0  0  0  0
  -12.3656   -0.2306   -0.1665 C   0  0  0  0  0  0  0  0  0  0  0  0
  -12.1201   -1.5379    0.2872 C   0  0  0  0  0  0  0  0  0  0  0  0
  -11.1427   -2.3509   -0.3326 C   0  0  0  0  0  0  0  0  0  0  0  0
  -10.3294   -1.8636   -1.3794 C   0  0  0  0  0  0  0  0  0  0  0  0
  -13.0560    0.7405    0.8116 C   0  0  0  0  0  0  0  0  0  0  0  0
  1  2  1  0
  1  4  1  0
  3  4  2  0
  4  6  1  0
  5  6  2  0
  5 10  1  0
  6  7  1  0
  7  8  2  0
  8  9  1  0
  9 10  2  0
  9 11  1  0
 11 12  2  0
 11 16  1  0
 12 13  1  0
 13 14  2  0
 13 22  1  0
 14 15  1  0
 15 16  2  0
 15 17  1  0
 17 18  2  0
 17 19  1  0
 19 20  1  0
 19 21  1  0
 22 23  1  0
 23 24  2  0
 23 30  1  0
 25 26  2  0
 25 30  1  0
 26 27  1  0
 27 28  2  0
 27 31  1  0
 28 29  1  0
 29 30  2  0
M  END
>  <DRUGBANK_ID>  (1) 
DB07586

>  <COMMON_NAME>  (1) 
5-(4-METHYL-BENZOYLAMINO)-BIPHENYL-3,4'-DICARBOXYLIC ACID 3-DIMETHYLAMIDE-4'-HYDROXYAMIDE

$$$$
