
     RDKit          3D

 33 36  0  0  1  0  0  0  0  0999 V2000
  -11.1206   21.9823    0.8878 N   0  0  0  0  0  0  0  0  0  0  0  0
  -11.3233   20.7418    0.3769 C   0  0  0  0  0  0  0  0  0  0  0  0
  -11.5045   19.7301    1.1632 N   0  0  0  0  0  0  0  0  0  0  0  0
  -11.6274   18.4906    0.5875 C   0  0  0  0  0  0  0  0  0  0  0  0
  -11.8640   17.4757    1.2631 O   0  0  0  0  0  0  0  0  0  0  0  0
  -11.3406   18.3512   -0.8904 C   0  0  0  0  0  0  0  0  0  0  0  0
  -11.1545   19.4772   -1.6313 C   0  0  0  0  0  0  0  0  0  0  0  0
  -11.2494   20.6777   -0.9723 N   0  0  0  0  0  0  0  0  0  0  0  0
  -10.8578   19.4018   -3.0021 N   0  0  0  0  0  0  0  0  0  0  0  0
  -10.4492   18.2402   -3.4525 C   0  0  0  0  0  0  0  0  0  0  0  0
  -10.1585   17.0657   -2.5425 C   0  0  2  0  0  0  0  0  0  0  0  0
  -10.2602   15.6438   -3.0647 C   0  0  0  0  0  0  0  0  0  0  0  0
  -10.9607   14.9691   -1.9670 N   0  0  0  0  0  0  0  0  0  0  0  0
  -11.2092   15.8248   -0.8346 C   0  0  0  0  0  0  0  0  0  0  0  0
  -11.1489   17.1112   -1.4690 N   0  0  0  0  0  0  0  0  0  0  0  0
  -11.1409   13.6338   -1.8740 C   0  0  0  0  0  0  0  0  0  0  0  0
  -10.0583   12.8443   -2.0145 C   0  0  0  0  0  0  0  0  0  0  0  0
  -10.2921   11.5036   -2.0957 C   0  0  0  0  0  0  0  0  0  0  0  0
  -11.4824   10.7897   -1.8791 C   0  0  0  0  0  0  0  0  0  0  0  0
  -12.5752   11.6019   -1.6905 C   0  0  0  0  0  0  0  0  0  0  0  0
  -12.3964   13.0091   -1.7057 C   0  0  0  0  0  0  0  0  0  0  0  0
  -11.6132    9.2542   -1.8772 C   0  0  0  0  0  0  0  0  0  0  0  0
  -12.7035    8.7102   -1.7089 O   0  0  0  0  0  0  0  0  0  0  0  0
  -10.4976    8.4260   -2.0151 N   0  0  0  0  0  0  0  0  0  0  0  0
   -9.1351    8.8941   -2.2288 C   0  0  2  0  0  0  0  0  0  0  0  0
   -8.7625    9.7156   -0.8879 C   0  0  0  0  0  0  0  0  0  0  0  0
   -7.8587    9.1315    0.1682 C   0  0  0  0  0  0  0  0  0  0  0  0
   -6.5055    9.0797   -0.4625 C   0  0  0  0  0  0  0  0  0  0  0  0
   -5.5841    9.8808    0.1025 O   0  0  0  0  0  0  0  0  0  0  0  0
   -6.2936    8.4673   -1.5026 O   0  0  0  0  0  0  0  0  0  0  0  0
   -9.2428    9.4946   -3.7735 C   0  0  0  0  0  0  0  0  0  0  0  0
   -8.1134    9.4698   -4.5006 O   0  0  0  0  0  0  0  0  0  0  0  0
  -10.2427    9.9916   -4.2882 O   0  0  0  0  0  0  0  0  0  0  0  0
  1  2  1  0
  2  3  2  0
  2  8  1  0
  3  4  1  0
  4  5  2  0
  4  6  1  0
  6  7  2  0
  6 15  1  0
  7  8  1  0
  7  9  1  0
  9 10  2  0
 11 10  1  6
 11 12  1  0
 11 15  1  0
 12 13  1  0
 13 14  1  0
 13 16  1  0
 15 14  1  0
 16 17  2  0
 16 21  1  0
 17 18  1  0
 18 19  2  0
 19 20  1  0
 19 22  1  0
 20 21  2  0
 22 23  2  0
 22 24  1  0
 25 31  1  0
 25 26  1  1
 25 24  1  0
 26 27  1  0
 27 28  1  0
 28 29  1  0
 28 30  2  0
 31 32  1  0
 31 33  2  0
M  END
>  <DRUGBANK_ID>  (1) 
DB02301

>  <SECONDARY_ACCESSION_NUMBERS>  (1) 
EXPT03070

>  <COMMON_NAME>  (1) 
5,10-Methylene-6-Hydrofolic Acid

$$$$
