
     RDKit          3D

 11 11  0  0  0  0  0  0  0  0999 V2000
    0.9833   -0.1207   -0.1053 N   0  0  0  0  0  0  0  0  0  0  0  0
    0.5311   -0.1395    1.2791 C   0  0  0  0  0  0  0  0  0  0  0  0
    0.9858    1.1103    2.0387 C   0  0  0  0  0  0  0  0  0  0  0  0
    0.3904    2.4195    1.4921 C   0  0  0  0  0  0  0  0  0  0  0  0
   -1.1487    2.4543    1.4843 C   0  0  0  0  0  0  0  0  0  0  0  0
   -1.6960    2.3523    2.8878 C   0  0  0  0  0  0  0  0  0  0  0  0
   -1.8819    1.1066    3.5016 C   0  0  0  0  0  0  0  0  0  0  0  0
   -2.1599    1.0094    4.8616 C   0  0  0  0  0  0  0  0  0  0  0  0
   -2.3005    2.1713    5.6170 C   0  0  0  0  0  0  0  0  0  0  0  0
   -2.1663    3.4165    5.0096 C   0  0  0  0  0  0  0  0  0  0  0  0
   -1.8789    3.5140    3.6483 C   0  0  0  0  0  0  0  0  0  0  0  0
  1  2  1  0
  2  3  1  0
  3  4  1  0
  4  5  1  0
  5  6  1  0
  6  7  2  0
  6 11  1  0
  7  8  1  0
  8  9  2  0
  9 10  1  0
 10 11  2  0
M  END
>  <DRUGBANK_ID>  (1) 
DB04311

>  <SECONDARY_ACCESSION_NUMBERS>  (1) 
EXPT02510

>  <COMMON_NAME>  (1) 
4-Phenylbutylamine

>  <UNII>  (1) 
UG8K2LT79Y

$$$$
