NLA
     RDKit          3D

 14 15  0  0  0  0  0  0  0  0999 V2000
   -0.0136   -0.7120    0.0073 C   0  0  0  0  0  0  0  0  0  0  0  0
    1.2267   -1.4077    0.0270 C   0  0  0  0  0  0  0  0  0  0  0  0
    2.4335   -0.6887   -0.0179 C   0  0  0  0  0  0  0  0  0  0  0  0
    2.4283    0.7025   -0.0175 C   0  0  0  0  0  0  0  0  0  0  0  0
    1.2182    1.3923    0.0170 C   0  0  0  0  0  0  0  0  0  0  0  0
   -0.0053    0.7036    0.0088 C   0  0  0  0  0  0  0  0  0  0  0  0
   -1.2236    1.4055   -0.0029 C   0  0  0  0  0  0  0  0  0  0  0  0
   -2.4454    0.7312   -0.0132 C   0  0  0  0  0  0  0  0  0  0  0  0
   -2.4677   -0.6542   -0.0169 C   0  0  0  0  0  0  0  0  0  0  0  0
   -1.2687   -1.3621   -0.0148 C   0  0  0  0  0  0  0  0  0  0  0  0
    1.2832   -2.9194    0.1115 C   0  0  0  0  0  0  0  0  0  0  0  0
    0.6301   -3.4679    1.3582 C   0  0  0  0  0  0  0  0  0  0  0  0
   -0.3223   -4.2364    1.3872 O   0  0  0  0  0  0  0  0  0  0  0  0
    1.1865   -3.0278    2.5028 O   0  0  0  0  0  0  0  0  0  0  0  0
  1  2  2  0
  1  6  1  0
  1 10  1  0
  2  3  1  0
  2 11  1  0
  3  4  2  0
  4  5  1  0
  5  6  2  0
  6  7  1  0
  7  8  2  0
  8  9  1  0
  9 10  2  0
 11 12  1  0
 12 13  2  0
 12 14  1  0
M  END
>  <DRUGBANK_ID>  (1) 
DB01750

>  <SECONDARY_ACCESSION_NUMBERS>  (1) 
EXPT02353

>  <COMMON_NAME>  (1) 
1-naphthaleneacetic acid

>  <CAS_NUMBER>  (1) 
86-87-3

>  <UNII>  (1) 
33T7G7757C

>  <SYNONYMS>  (1) 
1-Naphthylacetic acid; NAA; naphthalen-1-yl-acetic acid; naphthalene-1-acetic acid; α-NAA; α-naphthaleneacetic acid

$$$$
