
     RDKit          3D

 13 13  0  0  1  0  0  0  0  0999 V2000
   -1.3387   -3.3447   -3.3643 C   0  0  0  0  0  0  0  0  0  0  0  0
    1.4320    0.5899   -2.7747 C   0  0  0  0  0  0  0  0  0  0  0  0
    2.0361   -0.8276   -2.6778 C   0  0  2  0  0  0  0  0  0  0  0  0
    1.7467   -3.2966   -2.4332 C   0  0  2  0  0  0  0  0  0  0  0  0
    2.9264   -3.2979   -1.4424 C   0  0  2  0  0  0  0  0  0  0  0  0
    0.9925   -1.9494   -2.4036 C   0  0  2  0  0  0  0  0  0  0  0  0
    3.7911   -2.0326   -1.5780 C   0  0  1  0  0  0  0  0  0  0  0  0
    0.9053    0.8833   -4.0667 O   0  0  0  0  0  0  0  0  0  0  0  0
    0.8981   -4.4048   -2.1151 O   0  0  0  0  0  0  0  0  0  0  0  0
    3.7209   -4.4781   -1.6306 O   0  0  0  0  0  0  0  0  0  0  0  0
    4.6678   -2.1145   -2.6976 O   0  0  0  0  0  0  0  0  0  0  0  0
    3.0198   -0.8362   -1.6267 O   0  0  0  0  0  0  0  0  0  0  0  0
   -0.4097   -1.8228   -3.6088 S   0  0  0  0  0  0  0  0  0  0  0  0
  3  2  1  1
  4  9  1  1
  5  4  1  0
  5 10  1  6
  6  3  1  0
  6  4  1  0
  6 13  1  6
  7  5  1  0
  7 11  1  6
  8  2  1  0
 12  3  1  0
 12  7  1  0
 13  1  1  0
M  END
>  <DRUGBANK_ID>  (1) 
DB02730

>  <SECONDARY_ACCESSION_NUMBERS>  (1) 
EXPT02093

>  <COMMON_NAME>  (1) 
4-Methylthio-Alpha-D-Mannose

$$$$
