
     RDKit          3D

 11 10  0  0  1  0  0  0  0  0999 V2000
    0.9795   -0.2617    0.3202 N   0  0  0  0  0  0  0  0  0  0  0  0
    0.4359    0.6899    1.3104 C   0  0  1  0  0  0  0  0  0  0  0  0
    0.9760    2.1209    1.1203 C   0  0  0  0  0  0  0  0  0  0  0  0
    0.4463    3.0866   -0.3591 S   0  0  0  0  0  0  0  0  0  0  0  0
    1.0764    2.1327   -1.7884 C   0  0  0  0  0  0  0  0  0  0  0  0
    2.5911    2.0600   -1.7703 C   0  0  0  0  0  0  0  0  0  0  0  0
    3.1594    0.8214   -1.6511 N   0  0  0  0  0  0  0  0  0  0  0  0
    3.3165    3.0489   -1.8214 O   0  0  0  0  0  0  0  0  0  0  0  0
   -1.1041    0.6599    1.2728 C   0  0  0  0  0  0  0  0  0  0  0  0
   -1.6933    0.1393    2.3711 O   0  0  0  0  0  0  0  0  0  0  0  0
   -1.7731    1.0198    0.3081 O   0  0  0  0  0  0  0  0  0  0  0  0
  2  1  1  6
  2  3  1  0
  2  9  1  0
  3  4  1  0
  4  5  1  0
  5  6  1  0
  6  7  1  0
  6  8  2  0
  9 10  1  0
  9 11  2  0
M  END
>  <DRUGBANK_ID>  (1) 
DB02987

>  <SECONDARY_ACCESSION_NUMBERS>  (1) 
EXPT03271

>  <COMMON_NAME>  (1) 
Cysteine-S-acetamide

>  <CAS_NUMBER>  (1) 
17528-66-4

>  <UNII>  (1) 
LAH55Q7GIH

>  <SYNONYMS>  (1) 
S-(Carbamoylmethyl)cysteine; S-Carbamidomethylcysteine

$$$$
