
     RDKit          3D

 32 34  0  0  0  0  0  0  0  0999 V2000
    0.0790    2.4978   -0.0879 C   0  0  0  0  0  0  0  0  0  0  0  0
   -1.2033    1.9069    0.0197 C   0  0  0  0  0  0  0  0  0  0  0  0
   -2.4652    2.6225    0.0824 N   0  0  0  0  0  0  0  0  0  0  0  0
   -2.7090    3.9773    0.0980 C   0  0  0  0  0  0  0  0  0  0  0  0
   -1.2206    0.4896    0.0433 C   0  0  0  0  0  0  0  0  0  0  0  0
    0.3504    3.9691   -0.1755 C   0  0  0  0  0  0  0  0  0  0  0  0
   -4.0322    4.5555    0.1104 C   0  0  0  0  0  0  0  0  0  0  0  0
   -6.2000    6.1386    0.8235 C   0  0  0  0  0  0  0  0  0  0  0  0
    0.7902    4.5736    1.0977 N   0  0  0  0  0  0  0  0  0  0  0  0
   -0.0363   -0.2815    0.0223 C   0  0  0  0  0  0  0  0  0  0  0  0
   -5.8733    4.9764    1.5494 C   0  0  0  0  0  0  0  0  0  0  0  0
   -4.8107    4.1745    1.1752 C   0  0  0  0  0  0  0  0  0  0  0  0
   -7.3908    6.9011    1.0652 O   0  0  0  0  0  0  0  0  0  0  0  0
    1.2579    1.7196   -0.0797 C   0  0  0  0  0  0  0  0  0  0  0  0
   -8.5058    6.4125    1.7699 C   0  0  0  0  0  0  0  0  0  0  0  0
    1.2006    0.3448   -0.0178 C   0  0  0  0  0  0  0  0  0  0  0  0
   -1.9322    4.9279    0.2280 O   0  0  0  0  0  0  0  0  0  0  0  0
   -4.2490    5.7953   -0.5388 C   0  0  0  0  0  0  0  0  0  0  0  0
   -5.3315    6.6003   -0.1770 C   0  0  0  0  0  0  0  0  0  0  0  0
   -8.6635    5.3253    2.3131 O   0  0  0  0  0  0  0  0  0  0  0  0
    0.6755    6.0557    1.0535 C   0  0  0  0  0  0  0  0  0  0  0  0
   -2.8606   -0.4828    0.0510 Br  0  0  0  0  0  0  0  0  0  0  0  0
    2.8135   -0.6351   -0.0085 Br  0  0  0  0  0  0  0  0  0  0  0  0
   -6.4960    4.7536    2.7331 O   0  0  0  0  0  0  0  0  0  0  0  0
    0.1620    4.0188    2.3068 C   0  0  0  0  0  0  0  0  0  0  0  0
   -9.6670    7.3380    1.7482 C   0  0  0  0  0  0  0  0  0  0  0  0
    2.0115    6.6555    1.5323 C   0  0  0  0  0  0  0  0  0  0  0  0
   -0.4701    6.6483    1.9155 C   0  0  0  0  0  0  0  0  0  0  0  0
   -6.3888    3.4728    3.3266 C   0  0  0  0  0  0  0  0  0  0  0  0
   -0.5255    8.1528    1.9189 C   0  0  0  0  0  0  0  0  0  0  0  0
    1.9510    8.1862    1.5778 C   0  0  0  0  0  0  0  0  0  0  0  0
    0.7913    8.6921    2.4316 C   0  0  0  0  0  0  0  0  0  0  0  0
  2  1  1  0
  3  2  1  0
  4  3  1  0
  5  2  2  0
  5 10  1  0
  6  1  1  0
  7  4  1  0
  8 19  2  0
  9  6  1  0
 10 16  2  0
 11 12  2  0
 11  8  1  0
 12  7  1  0
 13  8  1  0
 14  1  2  0
 15 13  1  0
 16 14  1  0
 17  4  2  0
 18  7  2  0
 19 18  1  0
 20 15  2  0
 21  9  1  0
 22  5  1  0
 23 16  1  0
 24 11  1  0
 25  9  1  0
 26 15  1  0
 27 21  1  0
 28 21  1  0
 29 24  1  0
 30 28  1  0
 31 27  1  0
 31 32  1  0
 32 30  1  0
M  END
>  <DRUGBANK_ID>  (1) 
DB14720

>  <COMMON_NAME>  (1) 
Brovanexine

>  <CAS_NUMBER>  (1) 
54340-61-3

>  <UNII>  (1) 
Y00SD533IW

>  <SYNONYMS>  (1) 
Brovanexina; Brovanexine; Brovanexinum

$$$$
