
     RDKit          3D

 11 12  0  0  0  0  0  0  0  0999 V2000
   -1.2196   -0.7551   -0.5941 C   0  0  0  0  0  0  0  0  0  0  0  0
   -0.0034   -1.0997    0.3013 C   0  0  0  0  0  0  0  0  0  0  0  0
    1.2579   -0.7593   -0.5244 C   0  0  0  0  0  0  0  0  0  0  0  0
    1.2839    0.7796   -0.4956 C   0  0  0  0  0  0  0  0  0  0  0  0
    1.1762   -0.0241    2.3535 C   0  0  0  0  0  0  0  0  0  0  0  0
   -0.0300    0.0004    1.3935 C   0  0  0  0  0  0  0  0  0  0  0  0
   -1.2896   -0.0235    2.2829 C   0  0  0  0  0  0  0  0  0  0  0  0
    0.0055    1.1279    0.3183 C   0  0  0  0  0  0  0  0  0  0  0  0
    0.0051    2.5468    0.8561 C   0  0  0  0  0  0  0  0  0  0  0  0
   -1.2401    0.7874   -0.5565 C   0  0  0  0  0  0  0  0  0  0  0  0
   -1.2104    1.3644   -1.8489 O   0  0  0  0  0  0  0  0  0  0  0  0
  1 10  1  0
  2  1  1  0
  3  2  1  0
  4  8  1  0
  4  3  1  0
  6  8  1  0
  6  2  1  0
  6  5  1  0
  6  7  1  0
  8  9  1  0
 10  8  1  0
 10 11  1  0
M  END
>  <DRUGBANK_ID>  (1) 
DB11288

>  <COMMON_NAME>  (1) 
Borneol

>  <CAS_NUMBER>  (1) 
507-70-0

>  <UNII>  (1) 
M89NIB437X

>  <SYNONYMS>  (1) 
Borneo camphor; Bornyl alcohol; endo-1,7,7-trimethylbicyclo[2.2.1]heptan-2-ol; endo-2-bornanol; endo-2-camphanol; endo-2-hydroxycamphane; Sumatra camphor

$$$$
