JI3
     RDKit          3D

 26 28  0  0  0  0  0  0  0  0999 V2000
    1.6125    0.7641   -0.6953 C   0  0  0  0  0  0  0  0  0  0  0  0
    0.2041    0.7631   -0.6276 C   0  0  0  0  0  0  0  0  0  0  0  0
   -0.4700   -0.3704   -0.2209 C   0  0  0  0  0  0  0  0  0  0  0  0
   -2.1720   -0.3160    0.0145 Cl  0  0  0  0  0  0  0  0  0  0  0  0
    0.2500   -1.5341   -0.0036 C   0  0  0  0  0  0  0  0  0  0  0  0
    1.6527   -1.5126   -0.0097 C   0  0  0  0  0  0  0  0  0  0  0  0
    2.3645   -0.3395   -0.2598 C   0  0  0  0  0  0  0  0  0  0  0  0
    3.1652    5.6945    0.2413 C   0  0  0  0  0  0  0  0  0  0  0  0
    3.0746    7.0789    0.0771 N   0  0  0  0  0  0  0  0  0  0  0  0
    2.0591    5.0065    0.6473 C   0  0  0  0  0  0  0  0  0  0  0  0
    2.1710    3.6548    0.9281 C   0  0  0  0  0  0  0  0  0  0  0  0
    3.3930    3.0512    0.6778 C   0  0  0  0  0  0  0  0  0  0  0  0
    4.4273    3.7714    0.1092 C   0  0  0  0  0  0  0  0  0  0  0  0
    4.3211    5.1060   -0.1007 N   0  0  0  0  0  0  0  0  0  0  0  0
    6.3353    5.1956    2.4854 N   0  0  0  0  0  0  0  0  0  0  0  0
    5.5788    4.0181    2.9594 C   0  0  0  0  0  0  0  0  0  0  0  0
    6.3826    2.8200    2.4214 C   0  0  2  0  0  0  0  0  0  0  0  0
    6.7943    3.3185    1.0204 C   0  0  2  0  0  0  0  0  0  0  0  0
    7.0372    4.8092    1.2467 C   0  0  0  0  0  0  0  0  0  0  0  0
    5.7776    3.1499   -0.1422 C   0  0  0  0  0  0  0  0  0  0  0  0
    0.9546    2.9212    1.3527 C   0  0  0  0  0  0  0  0  0  0  0  0
    5.8239    1.4624    2.4990 N   0  0  0  0  0  0  0  0  0  0  0  0
    6.4717    0.5289    1.5618 C   0  0  0  0  0  0  0  0  0  0  0  0
    5.7994   -0.8460    1.3982 C   0  0  0  0  0  0  0  0  0  0  0  0
    4.3324   -0.8257    1.2234 N   0  0  0  0  0  0  0  0  0  0  0  0
    3.8816   -0.3284   -0.0933 C   0  0  0  0  0  0  0  0  0  0  0  0
  1  7  2  0
  1  2  1  0
  2  3  2  0
  3  5  1  0
  3  4  1  0
  5  6  2  0
  6  7  1  0
  7 26  1  0
  8 14  2  0
  8  9  1  0
  8 10  1  0
 10 11  2  0
 11 12  1  0
 11 21  1  0
 12 13  2  0
 13 20  1  0
 13 14  1  0
 15 16  1  0
 15 19  1  0
 16 17  1  0
 17 22  1  6
 17 18  1  0
 18 19  1  0
 18 20  1  6
 22 23  1  0
 23 24  1  0
 24 25  1  0
 25 26  1  0
M  END
>  <DRUGBANK_ID>  (1) 
DB08018

>  <COMMON_NAME>  (1) 
N-{(3S,4S)-4-[(6-AMINO-4-METHYLPYRIDIN-2-YL)METHYL]PYRROLIDIN-3-YL}-N'-(4-CHLOROBENZYL)ETHANE-1,2-DIAMINE

$$$$
