
     RDKit          3D

 21 22  0  0  0  0  0  0  0  0999 V2000
    2.3831   -0.6707    0.0119 C   0  0  0  0  0  0  0  0  0  0  0  0
    1.1337   -1.2989    0.0376 C   0  0  0  0  0  0  0  0  0  0  0  0
   -0.0661   -0.6128    0.0361 C   0  0  0  0  0  0  0  0  0  0  0  0
   -0.0520    0.7859    0.0311 C   0  0  0  0  0  0  0  0  0  0  0  0
   -1.2949    1.4405    0.0040 C   0  0  0  0  0  0  0  0  0  0  0  0
   -2.4992    0.7161   -0.0096 C   0  0  0  0  0  0  0  0  0  0  0  0
   -3.6421    1.4703   -0.0265 O   0  0  0  0  0  0  0  0  0  0  0  0
   -4.8664    0.7420   -0.0199 C   0  0  0  0  0  0  0  0  0  0  0  0
   -2.4739   -0.6773   -0.0039 C   0  0  0  0  0  0  0  0  0  0  0  0
   -1.2588   -1.3403    0.0208 C   0  0  0  0  0  0  0  0  0  0  0  0
    1.1972    1.4474    0.0423 C   0  0  0  0  0  0  0  0  0  0  0  0
    2.4039    0.7274    0.0238 C   0  0  0  0  0  0  0  0  0  0  0  0
    3.6545   -1.5111   -0.0916 C   0  0  1  0  0  0  0  0  0  0  0  0
    3.8645   -2.3273    1.2312 C   0  0  0  0  0  0  0  0  0  0  0  0
    2.8374   -3.4019    1.5819 C   0  0  0  0  0  0  0  0  0  0  0  0
    3.7923   -2.3343   -1.4483 C   0  0  0  0  0  0  0  0  0  0  0  0
    3.6710   -1.3687   -2.6561 C   0  0  0  0  0  0  0  0  0  0  0  0
    4.6959   -1.3601   -3.5372 O   0  0  0  0  0  0  0  0  0  0  0  0
    2.6884   -0.6880   -2.8840 O   0  0  0  0  0  0  0  0  0  0  0  0
    5.1363   -3.0933   -1.4353 C   0  0  0  0  0  0  0  0  0  0  0  0
    2.6973   -3.3894   -1.7011 C   0  0  0  0  0  0  0  0  0  0  0  0
  1  2  2  0
  1 12  1  0
  1 13  1  0
  2  3  1  0
  3  4  2  0
  3 10  1  0
  4  5  1  0
  4 11  1  0
  5  6  2  0
  6  7  1  0
  6  9  1  0
  7  8  1  0
  9 10  2  0
 11 12  2  0
 13 14  1  1
 13 16  1  0
 14 15  1  0
 16 17  1  0
 16 20  1  0
 16 21  1  0
 17 18  1  0
 17 19  2  0
M  END
>  <DRUGBANK_ID>  (1) 
DB13143

>  <COMMON_NAME>  (1) 
Methallenestril

>  <CAS_NUMBER>  (1) 
517-18-0

>  <UNII>  (1) 
XL025389JS

>  <SYNONYMS>  (1) 
Metalenestrilo; Methallenestril; Methallenestrilum

$$$$
