SKA
     RDKit          3D

 12 13  0  0  0  0  0  0  0  0999 V2000
    1.0033   -0.0438   -0.0393 Cl  0  0  0  0  0  0  0  0  0  0  0  0
    2.7409   -0.0515   -0.0669 C   0  0  0  0  0  0  0  0  0  0  0  0
    3.4375   -1.2783   -0.0801 C   0  0  0  0  0  0  0  0  0  0  0  0
    2.6966   -2.6016   -0.0696 C   0  0  0  0  0  0  0  0  0  0  0  0
    3.5288   -3.7562   -0.4350 N   0  0  0  0  0  0  0  0  0  0  0  0
    4.7577   -3.7552    0.3554 C   0  0  0  0  0  0  0  0  0  0  0  0
    5.6279   -2.5618   -0.0429 C   0  0  0  0  0  0  0  0  0  0  0  0
    4.8508   -1.2654   -0.0370 C   0  0  0  0  0  0  0  0  0  0  0  0
    5.5461   -0.0497   -0.0403 C   0  0  0  0  0  0  0  0  0  0  0  0
    4.8490    1.1554   -0.0507 C   0  0  0  0  0  0  0  0  0  0  0  0
    3.4529    1.1592   -0.0594 C   0  0  0  0  0  0  0  0  0  0  0  0
    2.6671    2.7015   -0.0594 Cl  0  0  0  0  0  0  0  0  0  0  0  0
  1  2  1  0
  2  3  2  0
  2 11  1  0
  3  4  1  0
  3  8  1  0
  4  5  1  0
  5  6  1  0
  6  7  1  0
  7  8  1  0
  8  9  2  0
  9 10  1  0
 10 11  2  0
 11 12  1  0
M  END
>  <DRUGBANK_ID>  (1) 
DB08550

>  <COMMON_NAME>  (1) 
7,8-Dichloro-1,2,3,4-tetrahydroisoquinoline

>  <CAS_NUMBER>  (1) 
61563-24-4

>  <UNII>  (1) 
A0EP5O913J

$$$$
