
     RDKit          3D

 32 36  0  0  0  0  0  0  0  0999 V2000
    0.9070   -0.0982   -0.0186 C   0  0  0  0  0  0  0  0  0  0  0  0
    2.3814    0.5394  -12.4900 C   0  0  0  0  0  0  0  0  0  0  0  0
    1.3085    3.7759   -3.5886 C   0  0  0  0  0  0  0  0  0  0  0  0
    2.9091    2.5533   -2.2964 C   0  0  0  0  0  0  0  0  0  0  0  0
    1.0555    2.5773   -4.4969 C   0  0  0  0  0  0  0  0  0  0  0  0
    2.7417    1.2528   -3.1248 C   0  0  0  0  0  0  0  0  0  0  0  0
    3.1144   -1.0874   -6.8019 C   0  0  0  0  0  0  0  0  0  0  0  0
    2.5969    1.6059   -6.9957 C   0  0  0  0  0  0  0  0  0  0  0  0
    0.5406    2.7273   -1.4211 C   0  0  0  0  0  0  0  0  0  0  0  0
    0.2107    0.1825   -1.2936 C   0  0  0  0  0  0  0  0  0  0  0  0
    2.7556    1.7391  -11.3069 C   0  0  0  0  0  0  0  0  0  0  0  0
    3.1824   -0.4080   -8.0587 C   0  0  0  0  0  0  0  0  0  0  0  0
    2.6832   -0.4578   -5.6496 C   0  0  0  0  0  0  0  0  0  0  0  0
    2.8016    0.9235   -8.2923 C   0  0  0  0  0  0  0  0  0  0  0  0
    2.4681    0.9191   -5.6631 C   0  0  0  0  0  0  0  0  0  0  0  0
   -0.0574    1.3621   -1.7926 C   0  0  0  0  0  0  0  0  0  0  0  0
    4.4746   -0.3457  -10.2317 C   0  0  0  0  0  0  0  0  0  0  0  0
    3.8204   -1.1129   -9.1516 C   0  0  0  0  0  0  0  0  0  0  0  0
    4.2533    0.9919  -10.1789 C   0  0  0  0  0  0  0  0  0  0  0  0
    4.7305   -1.0043  -11.5024 C   0  0  0  0  0  0  0  0  0  0  0  0
   -0.5651   -0.0804   -3.2582 C   0  0  0  0  0  0  0  0  0  0  0  0
    2.4616   -1.2050   -4.5503 F   0  0  0  0  0  0  0  0  0  0  0  0
    1.6638    3.3616   -2.2039 N   0  0  0  0  0  0  0  0  0  0  0  0
    2.1505    1.5928   -4.4684 N   0  0  0  0  0  0  0  0  0  0  0  0
    3.1847    1.5231   -9.6437 N   0  0  0  0  0  0  0  0  0  0  0  0
    3.8408   -2.3599   -9.1004 O   0  0  0  0  0  0  0  0  0  0  0  0
    4.3311   -2.1619  -11.7819 O   0  0  0  0  0  0  0  0  0  0  0  0
    5.1987   -0.2500  -12.4883 O   0  0  0  0  0  0  0  0  0  0  0  0
   -0.7524   -0.5063   -4.4221 O   0  0  0  0  0  0  0  0  0  0  0  0
   -0.0516   -0.8323   -2.2196 O   0  0  0  0  0  0  0  0  0  0  0  0
   -0.9018    1.2047   -2.8857 O   0  0  0  0  0  0  0  0  0  0  0  0
    4.5363    2.4574  -11.0988 S   0  0  0  0  0  0  0  0  0  0  0  0
  5  3  1  0
  6  4  1  0
 10  1  1  0
 11  2  1  0
 12  7  2  0
 13  7  1  0
 14  8  2  0
 14 12  1  0
 15  8  1  0
 15 13  2  0
 16  9  1  0
 16 10  2  0
 18 12  1  0
 18 17  1  0
 19 17  2  0
 20 17  1  0
 22 13  1  0
 23  3  1  0
 23  4  1  0
 23  9  1  0
 24  5  1  0
 24  6  1  0
 24 15  1  0
 25 11  1  0
 25 14  1  0
 25 19  1  0
 26 18  2  0
 27 20  2  0
 28 20  1  0
 29 21  2  0
 30 10  1  0
 30 21  1  0
 31 16  1  0
 31 21  1  0
 32 11  1  0
 32 19  1  0
M  END
>  <DRUGBANK_ID>  (1) 
DB11892

>  <COMMON_NAME>  (1) 
Prulifloxacin

>  <CAS_NUMBER>  (1) 
123447-62-1

>  <UNII>  (1) 
J42298IESW

>  <SYNONYMS>  (1) 
Prulifloxacin

$$$$
