660
     RDKit          3D

 16 17  0  0  1  0  0  0  0  0999 V2000
   -0.0580    1.1655    0.0914 O   0  0  0  0  0  0  0  0  0  0  0  0
    3.7507    1.1319    0.7477 O   0  0  0  0  0  0  0  0  0  0  0  0
   -2.1091    0.1009   -0.0151 O   0  0  0  0  0  0  0  0  0  0  0  0
   -0.1757   -1.0672   -0.0326 N   0  0  0  0  0  0  0  0  0  0  0  0
    1.3142    0.7362   -0.0871 C   0  0  0  0  0  0  0  0  0  0  0  0
    1.1720   -0.7592    0.0535 C   0  0  0  0  0  0  0  0  0  0  0  0
    2.3161    1.3855    0.9126 C   0  0  0  0  0  0  0  0  0  0  0  0
   -0.9041    0.0744    0.0088 C   0  0  0  0  0  0  0  0  0  0  0  0
    4.1955   -0.1482    0.9318 C   0  0  0  0  0  0  0  0  0  0  0  0
    3.7620   -1.1714    0.1085 C   0  0  0  0  0  0  0  0  0  0  0  0
    5.2434   -0.4656    1.7618 C   0  0  0  0  0  0  0  0  0  0  0  0
    3.8707   -2.5311    0.4179 C   0  0  0  0  0  0  0  0  0  0  0  0
    5.6284   -1.8196    1.8965 C   0  0  0  0  0  0  0  0  0  0  0  0
    4.8862   -2.8550    1.2925 C   0  0  0  0  0  0  0  0  0  0  0  0
    2.9722   -3.5851   -0.1813 C   0  0  0  0  0  0  0  0  0  0  0  0
    6.8599   -2.1588    2.6688 C   0  0  0  0  0  0  0  0  0  0  0  0
  1  5  1  0
  1  8  1  0
  2  7  1  0
  2  9  1  0
  3  8  2  0
  4  6  1  0
  4  8  1  0
  5  6  1  0
  5  7  1  0
  9 10  2  0
  9 11  1  0
 10 12  1  0
 11 13  2  0
 12 14  2  0
 12 15  1  0
 13 14  1  0
 13 16  1  0
M  END
>  <DRUGBANK_ID>  (1) 
DB00660

>  <SECONDARY_ACCESSION_NUMBERS>  (1) 
APRD00514

>  <COMMON_NAME>  (1) 
Metaxalone

>  <CAS_NUMBER>  (1) 
1665-48-1

>  <UNII>  (1) 
1NMA9J598Y

>  <SYNONYMS>  (1) 
Metassalone; Metaxalon; Metaxalona; Metaxalone; Metaxalonum

$$$$
