
     RDKit          3D

 24 23  0  0  0  0  0  0  0  0999 V2000
    1.0357    0.1538    0.0176 C   0  0  0  0  0  0  0  0  0  0  0  0
   -0.3955   -1.8663    0.6650 C   0  0  0  0  0  0  0  0  0  0  0  0
    3.2250   -3.8776   -4.7112 C   0  0  0  0  0  0  0  0  0  0  0  0
    0.5012   -7.7324   -0.1371 C   0  0  0  0  0  0  0  0  0  0  0  0
    1.6858   -1.2485   -2.5895 C   0  0  0  0  0  0  0  0  0  0  0  0
    1.4757   -5.7590   -3.0668 C   0  0  0  0  0  0  0  0  0  0  0  0
    0.7159   -1.7418   -1.5388 C   0  0  0  0  0  0  0  0  0  0  0  0
    2.9437   -2.1244   -2.8063 C   0  0  0  0  0  0  0  0  0  0  0  0
    1.8945   -4.3764   -2.7094 C   0  0  0  0  0  0  0  0  0  0  0  0
    1.9860   -6.7771   -2.0366 C   0  0  0  0  0  0  0  0  0  0  0  0
    1.6365   -5.5920    0.1405 C   0  0  0  0  0  0  0  0  0  0  0  0
    1.0477   -5.4228    1.4853 C   0  0  0  0  0  0  0  0  0  0  0  0
    0.4649   -1.1738   -0.3469 C   0  0  0  0  0  0  0  0  0  0  0  0
    2.6693   -3.4966   -3.3858 C   0  0  0  0  0  0  0  0  0  0  0  0
    1.3891   -6.6432   -0.6539 C   0  0  0  0  0  0  0  0  0  0  0  0
    4.7086   -8.7165    0.6410 O   0  0  0  0  0  0  0  0  0  0  0  0
    5.0186  -10.0479    2.6863 O   0  0  0  0  0  0  0  0  0  0  0  0
    3.1720  -10.3949    1.2650 O   0  0  0  0  0  0  0  0  0  0  0  0
    5.1382   -5.5272    2.5802 O   0  0  0  0  0  0  0  0  0  0  0  0
    3.8352   -6.3941    4.6581 O   0  0  0  0  0  0  0  0  0  0  0  0
    4.5953   -7.8234    2.7174 O   0  0  0  0  0  0  0  0  0  0  0  0
    3.8443   -9.1804    1.9510 P   0  0  0  0  0  0  0  0  0  0  0  0
    3.9216   -6.4214    3.1634 P   0  0  0  0  0  0  0  0  0  0  0  0
    2.3853   -5.1660    2.5842 S   0  0  0  0  0  0  0  0  0  0  0  0
  7  5  1  0
  8  5  1  0
  9  6  1  0
 10  6  1  0
 12 11  1  0
 13  1  1  0
 13  2  1  0
 13  7  2  3
 14  3  1  0
 14  8  1  0
 14  9  2  0
 15  4  1  0
 15 10  1  0
 15 11  2  0
 22 16  1  0
 22 17  1  0
 22 18  2  0
 22 21  1  0
 23 19  1  0
 23 20  2  0
 23 21  1  0
 24 12  1  0
 24 23  1  0
M  END
>  <DRUGBANK_ID>  (1) 
DB04695

>  <COMMON_NAME>  (1) 
Farnesyl thiopyrophosphate

>  <SYNONYMS>  (1) 
Farnesyl thiodiphosphate

$$$$
