
     RDKit          3D

 33 35  0  0  0  0  0  0  0  0999 V2000
    0.8866    0.0546    0.0224 C   0  0  0  0  0  0  0  0  0  0  0  0
    0.5092   -1.3632    0.4138 C   0  0  0  0  0  0  0  0  0  0  0  0
    0.9999   -1.7313    1.7379 N   0  0  0  0  0  0  0  0  0  0  0  0
    0.0516   -2.1377    2.7584 C   0  0  0  0  0  0  0  0  0  0  0  0
    2.3605   -1.8413    1.9910 C   0  0  0  0  0  0  0  0  0  0  0  0
    2.7809   -2.9050    2.7238 N   0  0  0  0  0  0  0  0  0  0  0  0
    4.1249   -2.9945    2.8634 C   0  0  0  0  0  0  0  0  0  0  0  0
    4.9476   -1.9472    2.3799 C   0  0  0  0  0  0  0  0  0  0  0  0
    4.5396   -0.8457    1.6108 C   0  0  0  0  0  0  0  0  0  0  0  0
    3.1786   -0.8567    1.4701 N   0  0  0  0  0  0  0  0  0  0  0  0
    5.3536    0.2074    0.9749 N   0  0  0  0  0  0  0  0  0  0  0  0
    6.7939    0.5154    0.8656 C   0  0  0  0  0  0  0  0  0  0  0  0
    7.6621   -0.4846    0.3470 C   0  0  0  0  0  0  0  0  0  0  0  0
    9.0540   -0.5503    0.6952 C   0  0  0  0  0  0  0  0  0  0  0  0
    9.5923    0.4706    1.4748 C   0  0  0  0  0  0  0  0  0  0  0  0
    8.7163    1.4789    1.8906 C   0  0  0  0  0  0  0  0  0  0  0  0
    7.3530    1.5165    1.6195 N   0  0  0  0  0  0  0  0  0  0  0  0
    9.8515   -1.8346    0.5284 C   0  0  0  0  0  0  0  0  0  0  0  0
    6.1447   -2.2915    2.9112 N   0  0  0  0  0  0  0  0  0  0  0  0
    6.2328   -3.6177    2.9086 N   0  0  0  0  0  0  0  0  0  0  0  0
    5.0546   -4.0290    3.3929 C   0  0  0  0  0  0  0  0  0  0  0  0
    4.9770   -5.3676    4.1460 C   0  0  0  0  0  0  0  0  0  0  0  0
    3.8783   -5.8557    4.4046 O   0  0  0  0  0  0  0  0  0  0  0  0
    6.1141   -6.1811    4.6383 N   0  0  0  0  0  0  0  0  0  0  0  0
    7.7927   -6.1116    4.8169 S   0  0  0  0  0  0  0  0  0  0  0  0
    8.1191   -5.7263    6.1564 O   0  0  0  0  0  0  0  0  0  0  0  0
    8.4365   -7.2574    4.1712 O   0  0  0  0  0  0  0  0  0  0  0  0
    8.1736   -4.8087    3.8108 C   0  0  0  0  0  0  0  0  0  0  0  0
    7.3429   -1.4892    2.8999 C   0  0  0  0  0  0  0  0  0  0  0  0
    8.0596   -0.6357    3.9936 C   0  0  0  0  0  0  0  0  0  0  0  0
    8.8814   -1.2944    4.9320 O   0  0  0  0  0  0  0  0  0  0  0  0
    8.1179   -2.3573    5.3920 C   0  0  0  0  0  0  0  0  0  0  0  0
    6.7842   -1.9813    5.9894 C   0  0  0  0  0  0  0  0  0  0  0  0
  1  2  1  0
  2  3  1  0
  3  4  1  0
  3  5  1  0
  5  6  2  0
  5 10  1  0
  6  7  1  0
  7  8  2  0
  7 21  1  0
  8  9  1  0
  8 19  1  0
  9 10  2  0
  9 11  1  0
 11 12  1  0
 12 13  2  0
 12 17  1  0
 13 14  1  0
 14 15  2  0
 14 18  1  0
 15 16  1  0
 16 17  2  0
 19 20  1  0
 19 29  1  0
 20 21  2  0
 21 22  1  0
 22 23  2  0
 22 24  1  0
 24 25  1  0
 25 26  2  0
 25 27  2  0
 25 28  1  0
 29 30  1  0
 30 31  1  0
 31 32  1  0
 32 33  1  0
M  END
>  <DRUGBANK_ID>  (1) 
DB11736

>  <COMMON_NAME>  (1) 
PF-00489791

>  <CAS_NUMBER>  (1) 
853003-48-2

>  <UNII>  (1) 
2S27T3DSZ3

$$$$
