
     RDKit          3D

 29 33  0  0  0  0  0  0  0  0999 V2000
   -0.2142   -0.9838   -0.0556 N   0  0  0  0  0  0  0  0  0  0  0  0
   -1.1075    0.0046   -0.0487 N   0  0  0  0  0  0  0  0  0  0  0  0
   -0.8882    2.3888    0.0290 N   0  0  0  0  0  0  0  0  0  0  0  0
   -2.7921    3.4638   -0.9451 N   0  0  0  0  0  0  0  0  0  0  0  0
   -4.9195    3.0719   -0.0104 N   0  0  0  0  0  0  0  0  0  0  0  0
   -4.7281    4.3615   -1.9564 N   0  0  0  0  0  0  0  0  0  0  0  0
  -11.3100    6.3610   -4.4092 N   0  0  0  0  0  0  0  0  0  0  0  0
    2.2501   -1.5131   -0.0093 C   0  0  0  0  0  0  0  0  0  0  0  0
    3.2357   -1.3906    1.1316 C   0  0  0  0  0  0  0  0  0  0  0  0
    3.6768   -1.1065   -0.2663 C   0  0  0  0  0  0  0  0  0  0  0  0
    1.0792   -0.5548   -0.0233 C   0  0  0  0  0  0  0  0  0  0  0  0
    1.0111    0.8211    0.0072 C   0  0  0  0  0  0  0  0  0  0  0  0
   -0.3795    1.1270   -0.0179 C   0  0  0  0  0  0  0  0  0  0  0  0
   -2.2782    2.6907    0.0456 C   0  0  0  0  0  0  0  0  0  0  0  0
   -3.0590    2.1779    1.1090 C   0  0  0  0  0  0  0  0  0  0  0  0
   -8.9161    4.5029   -2.5719 C   0  0  0  0  0  0  0  0  0  0  0  0
   -4.4137    2.4120    1.0122 C   0  0  0  0  0  0  0  0  0  0  0  0
   -2.5803    1.5002    2.2567 C   0  0  0  0  0  0  0  0  0  0  0  0
   -4.1232    3.6036   -0.9368 C   0  0  0  0  0  0  0  0  0  0  0  0
   -7.9109    5.2417   -3.4240 C   0  0  0  0  0  0  0  0  0  0  0  0
   -8.3505    4.0132   -1.2972 C   0  0  0  0  0  0  0  0  0  0  0  0
   -6.0165    4.5561   -1.9985 C   0  0  0  0  0  0  0  0  0  0  0  0
  -10.0057    5.4503   -2.1282 C   0  0  0  0  0  0  0  0  0  0  0  0
   -5.2754    1.9667    2.0114 C   0  0  0  0  0  0  0  0  0  0  0  0
   -6.5949    5.2947   -3.1669 C   0  0  0  0  0  0  0  0  0  0  0  0
   -7.0523    4.1245   -1.0042 C   0  0  0  0  0  0  0  0  0  0  0  0
   -3.4423    1.0477    3.2497 C   0  0  0  0  0  0  0  0  0  0  0  0
   -4.8011    1.2836    3.1287 C   0  0  0  0  0  0  0  0  0  0  0  0
  -10.7186    5.9480   -3.3749 C   0  0  0  0  0  0  0  0  0  0  0  0
  1  2  1  0
  1 11  1  0
  2 13  2  0
  3 13  1  0
  3 14  1  0
  4 14  2  0
  4 19  1  0
  5 17  1  0
  5 19  2  0
  6 19  1  0
  6 22  2  3
  7 29  3  0
  8  9  1  0
  8 10  1  0
  8 11  1  0
  9 10  1  0
 11 12  2  0
 12 13  1  0
 14 15  1  0
 15 17  2  0
 15 18  1  0
 16 20  1  0
 16 21  1  0
 16 23  1  0
 17 24  1  0
 18 27  2  0
 20 25  2  0
 21 26  2  0
 22 25  1  0
 22 26  1  0
 23 29  1  0
 24 28  2  0
 27 28  1  0
M  END
>  <DRUGBANK_ID>  (1) 
DB07853

>  <COMMON_NAME>  (1) 
2-[4-[4-[(5-cyclopropyl-1H-pyrazol-3-yl)amino]quinazolin-2-yl]iminocyclohexa-2,5-dien-1-yl]acetonitrile

$$$$
