
     RDKit          3D

 17 18  0  0  0  0  0  0  0  0999 V2000
    0.6434    0.1104   -0.3059 C   0  0  0  0  0  0  0  0  0  0  0  0
    3.0274   -1.4814    0.9900 C   0  0  0  0  0  0  0  0  0  0  0  0
    0.2126    0.1559    1.1710 C   0  0  0  0  0  0  0  0  0  0  0  0
    0.2957   -0.2426    4.2940 C   0  0  0  0  0  0  0  0  0  0  0  0
    1.5749   -1.0403    4.4686 C   0  0  0  0  0  0  0  0  0  0  0  0
    0.7190    3.9510   -0.4552 C   0  0  0  0  0  0  0  0  0  0  0  0
    1.2766    2.8950    0.2722 C   0  0  0  0  0  0  0  0  0  0  0  0
   -0.2051    4.8055    0.1444 C   0  0  0  0  0  0  0  0  0  0  0  0
    0.4795    1.0866    3.5944 C   0  0  0  0  0  0  0  0  0  0  0  0
    2.0382   -1.6831    3.1689 C   0  0  0  0  0  0  0  0  0  0  0  0
   -0.0457    3.4922    2.1637 C   0  0  0  0  0  0  0  0  0  0  0  0
    2.5322    0.6200    2.2036 C   0  0  0  0  0  0  0  0  0  0  0  0
    0.8205    2.5552    1.5533 C   0  0  0  0  0  0  0  0  0  0  0  0
   -0.5414    4.5886    1.4649 C   0  0  0  0  0  0  0  0  0  0  0  0
    1.0309    1.1057    2.1247 C   0  0  0  0  0  0  0  0  0  0  0  0
    2.8469   -0.8313    2.2890 N   0  0  0  0  0  0  0  0  0  0  0  0
   -1.4139    5.4051    2.1305 O   0  0  0  0  0  0  0  0  0  0  0  0
  3  1  1  0
  5  4  1  0
  7  6  2  0
  8  6  1  0
  9  4  1  0
 10  5  1  0
 13  7  1  0
 13 11  2  0
 14  8  2  0
 14 11  1  0
 15  3  1  0
 15  9  1  0
 15 12  1  0
 15 13  1  0
 16  2  1  0
 16 10  1  0
 16 12  1  0
 17 14  1  0
M  END
>  <DRUGBANK_ID>  (1) 
DB13478

>  <COMMON_NAME>  (1) 
Meptazinol

>  <CAS_NUMBER>  (1) 
54340-58-8

>  <UNII>  (1) 
18Y7S5JKZD

>  <SYNONYMS>  (1) 
Meptazinol

$$$$
