
     RDKit          3D

 31 35  0  0  0  0  0  0  0  0999 V2000
    0.8463   -0.1056    0.0835 C   0  0  0  0  0  0  0  0  0  0  0  0
    0.4407    1.1912    0.7462 C   0  0  0  0  0  0  0  0  0  0  0  0
    1.1063    2.3496    0.4059 C   0  0  0  0  0  0  0  0  0  0  0  0
    0.6293    3.7126    0.6109 C   0  0  0  0  0  0  0  0  0  0  0  0
    0.9840    4.8310   -0.1822 C   0  0  0  0  0  0  0  0  0  0  0  0
    1.9348    4.7544   -1.1862 N   0  0  0  0  0  0  0  0  0  0  0  0
    2.2990    3.5931   -1.9688 C   0  0  0  0  0  0  0  0  0  0  0  0
    1.7115    3.4712   -3.3412 C   0  0  0  0  0  0  0  0  0  0  0  0
    2.7762    3.4872   -4.3622 N   0  0  0  0  0  0  0  0  0  0  0  0
    0.4508    4.2560   -3.7185 C   0  0  0  0  0  0  0  0  0  0  0  0
   -0.1161    3.0845   -4.3814 O   0  0  0  0  0  0  0  0  0  0  0  0
    0.7585    2.2435   -3.5736 C   0  0  0  0  0  0  0  0  0  0  0  0
    0.4592    6.1065   -0.0787 N   0  0  0  0  0  0  0  0  0  0  0  0
   -0.3633    6.4220    0.9244 C   0  0  0  0  0  0  0  0  0  0  0  0
   -0.6540    5.3922    1.8357 N   0  0  0  0  0  0  0  0  0  0  0  0
   -0.2653    3.9948    1.6190 C   0  0  0  0  0  0  0  0  0  0  0  0
   -0.6637    2.7351    2.2673 C   0  0  0  0  0  0  0  0  0  0  0  0
   -0.4982    1.3991    1.7168 C   0  0  0  0  0  0  0  0  0  0  0  0
   -0.6955    7.8918    1.1461 N   0  0  0  0  0  0  0  0  0  0  0  0
   -0.6776    9.1720   -0.0093 C   0  0  0  0  0  0  0  0  0  0  0  0
    0.1408   10.6504    0.1451 C   0  0  0  0  0  0  0  0  0  0  0  0
    1.4032   11.0919    1.3630 S   0  0  0  0  0  0  0  0  0  0  0  0
    0.7502   11.2881    2.6672 O   0  0  0  0  0  0  0  0  0  0  0  0
    2.2037   12.1656    0.8419 O   0  0  0  0  0  0  0  0  0  0  0  0
    2.4784    9.6677    1.5201 C   0  0  0  0  0  0  0  0  0  0  0  0
    3.8258    9.7424    1.1816 C   0  0  0  0  0  0  0  0  0  0  0  0
    4.5345    8.5512    0.9638 C   0  0  0  0  0  0  0  0  0  0  0  0
    3.9327    7.3096    1.1557 C   0  0  0  0  0  0  0  0  0  0  0  0
    2.6651    7.2504    1.6922 C   0  0  0  0  0  0  0  0  0  0  0  0
    1.9203    8.4148    1.8499 C   0  0  0  0  0  0  0  0  0  0  0  0
    0.4272    8.2650    2.0011 C   0  0  0  0  0  0  0  0  0  0  0  0
  1  2  1  0
  2  3  2  0
  2 18  1  0
  3  4  1  0
  4  5  2  0
  4 16  1  0
  5  6  1  0
  5 13  1  0
  6  7  1  0
  7  8  1  0
  8  9  1  0
  8 10  1  0
  8 12  1  0
 10 11  1  0
 11 12  1  0
 13 14  2  0
 14 15  1  0
 14 19  1  0
 15 16  2  0
 16 17  1  0
 17 18  2  0
 19 20  1  0
 19 31  1  0
 20 21  1  0
 21 22  1  0
 22 23  2  0
 22 24  2  0
 22 25  1  0
 25 26  1  0
 25 30  2  0
 26 27  2  0
 27 28  1  0
 28 29  2  0
 29 30  1  0
 30 31  1  0
M  END
>  <DRUGBANK_ID>  (1) 
DB15145

>  <COMMON_NAME>  (1) 
Ziresovir

>  <CAS_NUMBER>  (1) 
1422500-60-4

>  <UNII>  (1) 
XCF42D7AG4

>  <SYNONYMS>  (1) 
Ziresovir

$$$$
