
     RDKit          3D

  8  8  0  0  0  0  0  0  0  0999 V2000
    1.7418   -1.4445    0.1649 N   0  0  0  0  0  0  0  0  0  0  0  0
    0.5513   -0.7237   -0.0289 C   0  0  0  0  0  0  0  0  0  0  0  0
   -0.6764   -1.3988    0.0043 C   0  0  0  0  0  0  0  0  0  0  0  0
   -1.8894   -0.6999   -0.0161 C   0  0  0  0  0  0  0  0  0  0  0  0
   -1.8953    0.6936   -0.0236 C   0  0  0  0  0  0  0  0  0  0  0  0
   -0.6873    1.3849   -0.0181 C   0  0  0  0  0  0  0  0  0  0  0  0
    0.5149    0.6803   -0.0134 C   0  0  0  0  0  0  0  0  0  0  0  0
    1.6597    1.4302    0.0077 O   0  0  0  0  0  0  0  0  0  0  0  0
  1  2  1  0
  2  3  2  0
  2  7  1  0
  3  4  1  0
  4  5  2  0
  5  6  1  0
  6  7  2  0
  7  8  1  0
M  END
>  <DRUGBANK_ID>  (1) 
DB01726

>  <SECONDARY_ACCESSION_NUMBERS>  (1) 
EXPT00102

>  <COMMON_NAME>  (1) 
2-Aminophenol

>  <CAS_NUMBER>  (1) 
95-55-6

>  <UNII>  (1) 
23RH73DZ65

>  <SYNONYMS>  (1) 
2-Aminophenol

$$$$
