878
     RDKit          3D

 16 16  0  0  0  0  0  0  0  0999 V2000
    1.5709    1.2220   -0.0253 C   0  0  0  0  0  0  0  0  0  0  0  0
    2.9801    1.1309   -0.0832 C   0  0  0  0  0  0  0  0  0  0  0  0
    3.6333   -0.1247   -0.0923 C   0  0  0  0  0  0  0  0  0  0  0  0
    2.8279   -1.2424    0.1544 C   0  0  0  0  0  0  0  0  0  0  0  0
    1.4327   -1.1719    0.0597 C   0  0  0  0  0  0  0  0  0  0  0  0
    0.8045    0.0606   -0.0249 C   0  0  0  0  0  0  0  0  0  0  0  0
    3.3380   -2.4899    0.7572 C   0  0  0  0  0  0  0  0  0  0  0  0
    2.8495   -3.5959    0.6527 O   0  0  0  0  0  0  0  0  0  0  0  0
    4.4823   -2.2556    1.4320 O   0  0  0  0  0  0  0  0  0  0  0  0
    5.0422   -0.1706   -0.3089 N   0  0  0  0  0  0  0  0  0  0  0  0
    5.9394   -1.2193   -0.5677 C   0  0  0  0  0  0  0  0  0  0  0  0
    7.1475   -1.0112   -0.4412 O   0  0  0  0  0  0  0  0  0  0  0  0
    5.4883   -2.6760   -0.9835 C   0  0  0  0  0  0  0  0  0  0  0  0
    4.5728   -2.9731   -1.6965 O   0  0  0  0  0  0  0  0  0  0  0  0
    6.1593   -3.6191   -0.2669 O   0  0  0  0  0  0  0  0  0  0  0  0
   -1.2715    0.1228   -0.0189 I   0  0  0  0  0  0  0  0  0  0  0  0
  1  2  2  0
  1  6  1  0
  2  3  1  0
  3  4  2  0
  3 10  1  0
  4  5  1  0
  4  7  1  0
  5  6  2  0
  6 16  1  0
  7  8  2  0
  7  9  1  0
 10 11  1  0
 11 12  2  0
 11 13  1  0
 13 14  2  0
 13 15  1  0
M  END
>  <DRUGBANK_ID>  (1) 
DB02662

>  <SECONDARY_ACCESSION_NUMBERS>  (1) 
EXPT00329

>  <COMMON_NAME>  (1) 
Novo Nordisk a/S Compound

$$$$
