
     RDKit          3D

 24 28  0  0  0  0  0  0  0  0999 V2000
   -0.6231    1.8558   -0.1008 C   0  0  0  0  0  0  0  0  0  0  0  0
   -0.3034    0.5243   -0.4693 C   0  0  0  0  0  0  0  0  0  0  0  0
   -2.8869    0.1622    0.0014 C   0  0  0  0  0  0  0  0  0  0  0  0
   -2.1941   -1.0296   -0.0772 C   0  0  0  0  0  0  0  0  0  0  0  0
   -0.8663   -0.7767   -0.3129 C   0  0  0  0  0  0  0  0  0  0  0  0
   -2.1344    1.5538    0.0277 C   0  0  0  0  0  0  0  0  0  0  0  0
    1.1810   -0.9302   -1.2149 C   0  0  2  0  0  0  0  0  0  0  0  0
    2.5297   -1.1595   -0.4142 C   0  0  0  0  0  0  0  0  0  0  0  0
    3.2321   -0.0736    0.3980 C   0  0  0  0  0  0  0  0  0  0  0  0
    3.1556    1.1961   -0.3959 C   0  0  0  0  0  0  0  0  0  0  0  0
    1.1298    2.2382   -1.5860 C   0  0  2  0  0  0  0  0  0  0  0  0
   -0.4819    2.6909   -2.1695 N   0  0  0  0  0  0  0  0  0  0  0  0
    1.6712    1.3912   -0.4723 C   0  0  2  0  0  0  0  0  0  0  0  0
    1.5469    2.0573    0.9627 O   0  0  0  0  0  0  0  0  0  0  0  0
    0.7226    3.1238   -0.6854 C   0  0  0  0  0  0  0  0  0  0  0  0
    0.7711    0.5157   -1.4952 C   0  0  2  0  0  0  0  0  0  0  0  0
    0.3261    1.2566   -3.3413 C   0  0  0  0  0  0  0  0  0  0  0  0
   -1.0851    1.7782   -3.0956 C   0  0  0  0  0  0  0  0  0  0  0  0
    3.0606   -2.2757   -0.4358 O   0  0  0  0  0  0  0  0  0  0  0  0
    0.1064   -1.7002   -0.5858 O   0  0  0  0  0  0  0  0  0  0  0  0
   -2.7178   -2.2857    0.0002 O   0  0  0  0  0  0  0  0  0  0  0  0
   -1.2149    3.7940   -1.3882 C   0  0  0  0  0  0  0  0  0  0  0  0
   -1.1624    4.9964   -2.1865 C   0  0  0  0  0  0  0  0  0  0  0  0
   -2.3237    5.5538   -2.2398 C   0  0  0  0  0  0  0  0  0  0  0  0
  1  6  2  0
  2  1  1  0
  3  4  2  0
  3  6  1  0
  4  5  1  0
  4 21  1  0
  5  2  2  0
  5 20  1  0
  7  8  1  0
  7 20  1  1
  8  9  1  0
  8 19  2  0
  9 10  1  0
 10 13  1  0
 11 12  1  0
 11 15  1  1
 12 18  1  0
 12 22  1  0
 13 11  1  0
 13 14  1  1
 15  1  1  0
 16  2  1  0
 16 13  1  0
 16  7  1  0
 16 17  1  6
 17 18  1  0
 22 23  1  0
 23 24  2  0
M  END
>  <DRUGBANK_ID>  (1) 
DB01183

>  <SECONDARY_ACCESSION_NUMBERS>  (1) 
APRD00025

>  <COMMON_NAME>  (1) 
Naloxone

>  <CAS_NUMBER>  (1) 
465-65-6

>  <UNII>  (1) 
36B82AMQ7N

>  <SYNONYMS>  (1) 
(−)-naloxone; 1-N-Allyl-14-hydroxynordihydromorphinone; 17-allyl-3,14-dihydroxy-4,5α-epoxymorphinan-6-one; Nalossone; Naloxona; Naloxone; Naloxonum

$$$$
