
     RDKit          3D

 12 12  0  0  1  0  0  0  0  0999 V2000
    1.7768    0.0101   -0.7429 C   0  0  0  0  0  0  0  0  0  0  0  0
   -2.1939   -2.9637   -0.3635 C   0  0  0  0  0  0  0  0  0  0  0  0
   -0.0076   -1.1808    0.5834 C   0  0  0  0  0  0  0  0  0  0  0  0
    0.9037    0.0362    0.5188 C   0  0  2  0  0  0  0  0  0  0  0  0
   -1.1258   -0.8090   -0.3904 C   0  0  2  0  0  0  0  0  0  0  0  0
   -0.1153    1.1767    0.4622 C   0  0  2  0  0  0  0  0  0  0  0  0
   -0.5037    1.6973    1.8534 C   0  0  0  0  0  0  0  0  0  0  0  0
   -1.3030    0.6457   -0.2615 N   0  0  0  0  0  0  0  0  0  0  0  0
   -2.3986   -1.5183   -0.2466 N   0  0  0  0  0  0  0  0  0  0  0  0
   -0.3494    2.8525    2.2403 O   0  0  0  0  0  0  0  0  0  0  0  0
   -1.0283    0.7815    2.6894 O   0  0  0  0  0  0  0  0  0  0  0  0
   -2.8506   -1.3291    1.1278 O   0  0  0  0  0  0  0  0  0  0  0  0
  4  1  1  6
  4  3  1  0
  5  3  1  0
  5  9  1  1
  6  4  1  0
  6  7  1  1
  8  5  1  0
  8  6  1  0
  9  2  1  0
 10  7  2  0
 11  7  1  0
 12  9  1  0
M  END
>  <DRUGBANK_ID>  (1) 
DB01855

>  <SECONDARY_ACCESSION_NUMBERS>  (1) 
EXPT00682

>  <COMMON_NAME>  (1) 
5-(Hydroxy-Methyl-Amino)-3-Methyl-Pyrrolidine-2-Carboxylic Acid

$$$$
