1509
     RDKit          3D

 13 14  0  0  1  0  0  0  0  0999 V2000
   -1.4774   -1.1529   -0.0689 O   0  0  0  0  0  0  0  0  0  0  0  0
   -1.4637    1.2573    0.0287 O   0  0  0  0  0  0  0  0  0  0  0  0
    2.5606   -3.4326    1.3186 N   0  0  0  0  0  0  0  0  0  0  0  0
    3.4531   -1.4881   -0.0369 C   0  0  0  0  0  0  0  0  0  0  0  0
    3.6047   -2.4040    1.2072 C   0  0  0  0  0  0  0  0  0  0  0  0
    2.1638   -0.6930   -0.0734 C   0  0  0  0  0  0  0  0  0  0  0  0
    0.9353   -1.3625   -0.1856 C   0  0  0  0  0  0  0  0  0  0  0  0
   -0.2250   -0.6312   -0.0952 C   0  0  0  0  0  0  0  0  0  0  0  0
    2.1745    0.7163    0.0029 C   0  0  0  0  0  0  0  0  0  0  0  0
   -0.2076    0.7355   -0.0138 C   0  0  0  0  0  0  0  0  0  0  0  0
    4.9483   -3.1277    1.1669 C   0  0  0  0  0  0  0  0  0  0  0  0
    0.9752    1.4432    0.0107 C   0  0  0  0  0  0  0  0  0  0  0  0
   -2.2559    0.0498    0.0744 C   0  0  0  0  0  0  0  0  0  0  0  0
  1  8  1  0
  1 13  1  0
  2 10  1  0
  2 13  1  0
  3  5  1  0
  4  5  1  0
  4  6  1  0
  5 11  1  0
  6  7  1  0
  6  9  2  0
  7  8  2  0
  8 10  1  0
  9 12  1  0
 10 12  2  0
M  END
>  <DRUGBANK_ID>  (1) 
DB01509

>  <COMMON_NAME>  (1) 
Tenamfetamine

>  <CAS_NUMBER>  (1) 
4764-17-4

>  <UNII>  (1) 
XJZ28FJ27W

>  <SYNONYMS>  (1) 
3,4-methylenedioxyamphetamine; MDA; Methylenedioxyamphetamine; Tenamfetamina; Tenamfetamine; Tenamfetaminum

$$$$
