
     RDKit          3D

  8  7  0  0  1  0  0  0  0  0999 V2000
    3.1487   -2.8232    0.3228 O   0  0  0  0  0  0  0  0  0  0  0  0
    2.5407   -1.9129    1.2447 C   0  0  0  0  0  0  0  0  0  0  0  0
    1.0109   -2.0546    1.3009 C   0  0  2  0  0  0  0  0  0  0  0  0
    0.4285   -0.7383    1.3062 O   0  0  0  0  0  0  0  0  0  0  0  0
    0.4971   -2.7953    2.5508 C   0  0  1  0  0  0  0  0  0  0  0  0
   -0.9432   -2.7592    2.5113 O   0  0  0  0  0  0  0  0  0  0  0  0
    0.9316   -4.2632    2.6489 C   0  0  0  0  0  0  0  0  0  0  0  0
    2.3282   -4.4315    2.8330 O   0  0  0  0  0  0  0  0  0  0  0  0
  1  2  1  0
  3  5  1  0
  3  4  1  1
  3  2  1  0
  5  6  1  6
  5  7  1  0
  7  8  1  0
M  END
>  <DRUGBANK_ID>  (1) 
DB03278

>  <SECONDARY_ACCESSION_NUMBERS>  (1) 
EXPT01285

>  <COMMON_NAME>  (1) 
D-Treitol

$$$$
