
     RDKit          3D

 37 41  0  0  1  0  0  0  0  0999 V2000
    1.3295    0.1711   -0.3417 C   0  0  0  0  0  0  0  0  0  0  0  0
    0.2055    0.9347    1.0171 C   0  0  2  0  0  0  0  0  0  0  0  0
   -0.1259    2.3747    1.0660 C   0  0  0  0  0  0  0  0  0  0  0  0
    0.8871    3.3749    0.3194 C   0  0  1  0  0  0  0  0  0  0  0  0
    2.2084    3.6426    1.0925 C   0  0  0  0  0  0  0  0  0  0  0  0
    3.0757    4.8901    1.3207 C   0  0  0  0  0  0  0  0  0  0  0  0
    3.6146    6.7552    1.1559 C   0  0  0  0  0  0  0  0  0  0  0  0
    3.6640    7.7313    2.5733 C   0  0  0  0  0  0  0  0  0  0  0  0
    2.8449    6.6967    3.1313 C   0  0  0  0  0  0  0  0  0  0  0  0
    1.6535    6.6544    2.8189 O   0  0  0  0  0  0  0  0  0  0  0  0
    3.7250    5.5558    3.4895 C   0  0  0  0  0  0  0  0  0  0  0  0
    3.7580    4.5799    2.5690 C   0  0  0  0  0  0  0  0  0  0  0  0
    4.2734    3.2440    3.0013 C   0  0  0  0  0  0  0  0  0  0  0  0
    3.6083    1.8780    2.6601 C   0  0  0  0  0  0  0  0  0  0  0  0
    2.4236    1.8751    1.6252 C   0  0  1  0  0  0  0  0  0  0  0  0
    1.2849    0.2814    1.5771 C   0  0  2  0  0  0  0  0  0  0  0  0
   -0.4029   -0.5050    0.5713 C   0  0  0  0  0  0  0  0  0  0  0  0
   -1.7084   -0.4560    1.3228 C   0  0  0  0  0  0  0  0  0  0  0  0
   -0.6309   -0.2515    2.2436 C   0  0  1  0  0  0  0  0  0  0  0  0
    0.1373   -1.8612    2.4802 C   0  0  0  0  0  0  0  0  0  0  0  0
    1.3613   -1.8888    3.3957 C   0  0  0  0  0  0  0  0  0  0  0  0
    1.1181   -1.2043    4.5317 F   0  0  0  0  0  0  0  0  0  0  0  0
    1.7055   -3.1542    3.7270 F   0  0  0  0  0  0  0  0  0  0  0  0
    2.4829   -1.3621    2.8325 F   0  0  0  0  0  0  0  0  0  0  0  0
   -0.8487   -2.6815    2.9649 F   0  0  0  0  0  0  0  0  0  0  0  0
    0.5285   -2.4795    1.3137 F   0  0  0  0  0  0  0  0  0  0  0  0
   -1.1473    0.2695    3.4461 O   0  0  0  0  0  0  0  0  0  0  0  0
    1.2286    2.8236   -1.0782 C   0  0  0  0  0  0  0  0  0  0  0  0
    0.2132    2.5061   -1.9952 C   0  0  0  0  0  0  0  0  0  0  0  0
    0.5300    1.8744   -3.2131 C   0  0  0  0  0  0  0  0  0  0  0  0
    1.8549    1.5099   -3.5026 C   0  0  0  0  0  0  0  0  0  0  0  0
    2.8718    1.7767   -2.6006 C   0  0  0  0  0  0  0  0  0  0  0  0
    2.5536    2.4210   -1.4148 C   0  0  0  0  0  0  0  0  0  0  0  0
    2.3403    0.6994   -4.9974 S   0  0  0  0  0  0  0  0  0  0  0  0
    3.2113    1.6344   -5.6835 O   0  0  0  0  0  0  0  0  0  0  0  0
    2.8039   -0.6277   -4.6368 O   0  0  0  0  0  0  0  0  0  0  0  0
    0.8733    0.5111   -5.9656 C   0  0  0  0  0  0  0  0  0  0  0  0
  2  1  1  6
  2  3  1  0
  2 16  1  0
  2 19  1  0
  3  4  1  0
  4  5  1  0
  4 28  1  6
  5  6  2  0
  5 15  1  0
  6  7  1  0
  6 12  1  0
  7  8  1  0
  8  9  1  0
  9 10  2  0
  9 11  1  0
 11 12  2  0
 12 13  1  0
 13 14  1  0
 15 14  1  1
 15 16  1  0
 16 17  1  6
 17 18  1  0
 18 19  1  0
 19 20  1  0
 19 27  1  1
 20 21  1  0
 20 25  1  0
 20 26  1  0
 21 22  1  0
 21 23  1  0
 21 24  1  0
 28 29  2  0
 28 33  1  0
 29 30  1  0
 30 31  2  0
 31 32  1  0
 31 34  1  0
 32 33  2  0
 34 35  2  0
 34 36  2  0
 34 37  1  0
M  END
>  <DRUGBANK_ID>  (1) 
DB11971

>  <COMMON_NAME>  (1) 
Vilaprisan

>  <CAS_NUMBER>  (1) 
1262108-14-4

>  <UNII>  (1) 
IN59K53GI9

>  <SYNONYMS>  (1) 
Vilaprisan

$$$$
