
     RDKit          3D

  4  3  0  0  0  0  0  0  0  0999 V2000
    0.9103    0.0446    0.1148 C   0  0  0  0  0  0  0  0  0  0  0  0
    0.2833    0.2474   -1.0526 C   0  0  0  0  0  0  0  0  0  0  0  0
    0.3750   -0.1691    1.3445 N   0  0  0  0  0  0  0  0  0  0  0  0
   -1.4349    0.2815   -1.2488 S   0  0  0  0  0  0  0  0  0  0  0  0
  2  1  2  0
  3  1  1  0
  4  2  1  0
M  END
>  <DRUGBANK_ID>  (1) 
DB01968

>  <SECONDARY_ACCESSION_NUMBERS>  (1) 
EXPT03035

>  <COMMON_NAME>  (1) 
2-Thioethenamine

$$$$
