
     RDKit          3D

 31 34  0  0  0  0  0  0  0  0999 V2000
    1.2846   -0.0075    0.1036 O   0  0  0  0  0  0  0  0  0  0  0  0
    1.9386    2.3471    1.8667 O   0  0  0  0  0  0  0  0  0  0  0  0
   10.8012    2.9733   -3.7898 N   0  0  0  0  0  0  0  0  0  0  0  0
   -1.6598    3.1403    1.4032 N   0  0  0  0  0  0  0  0  0  0  0  0
    9.7065    3.4243   -5.6913 N   0  0  0  0  0  0  0  0  0  0  0  0
    8.1562    1.5172   -1.9911 N   0  0  0  0  0  0  0  0  0  0  0  0
    6.7827    0.2471   -0.5139 N   0  0  0  0  0  0  0  0  0  0  0  0
    7.3881    2.4404    0.0456 N   0  0  0  0  0  0  0  0  0  0  0  0
    0.6079    1.9712    1.4700 C   0  0  1  0  0  0  0  0  0  0  0  0
   -0.1935    3.2875    1.4288 C   0  0  0  0  0  0  0  0  0  0  0  0
    9.4537    2.8601   -3.4905 C   0  0  0  0  0  0  0  0  0  0  0  0
    0.5517    1.2089    0.1229 C   0  0  0  0  0  0  0  0  0  0  0  0
   10.8894    3.2949   -5.1463 C   0  0  0  0  0  0  0  0  0  0  0  0
    8.8042    3.1579   -4.6834 C   0  0  0  0  0  0  0  0  0  0  0  0
    8.8953    2.6384   -2.1604 C   0  0  0  0  0  0  0  0  0  0  0  0
   11.9208    2.8158   -2.9726 C   0  0  0  0  0  0  0  0  0  0  0  0
   -2.2870    4.4518    1.5431 C   0  0  0  0  0  0  0  0  0  0  0  0
   -2.1765    2.5288    0.1833 C   0  0  0  0  0  0  0  0  0  0  0  0
   12.2051    3.4327   -5.6945 C   0  0  0  0  0  0  0  0  0  0  0  0
    7.3453    3.2525   -4.9345 C   0  0  0  0  0  0  0  0  0  0  0  0
    2.6073    0.1119   -0.1534 C   0  0  0  0  0  0  0  0  0  0  0  0
   13.1518    2.9539   -3.4974 C   0  0  0  0  0  0  0  0  0  0  0  0
   13.2792    3.2681   -4.9138 C   0  0  0  0  0  0  0  0  0  0  0  0
    9.0153    3.6237   -1.2065 C   0  0  0  0  0  0  0  0  0  0  0  0
    5.3806    0.1824   -0.3801 C   0  0  0  0  0  0  0  0  0  0  0  0
    7.4648    1.4310   -0.8415 C   0  0  0  0  0  0  0  0  0  0  0  0
    3.2562    1.3213   -0.3386 C   0  0  0  0  0  0  0  0  0  0  0  0
    3.3240   -1.0750   -0.1018 C   0  0  0  0  0  0  0  0  0  0  0  0
    4.6262    1.3561   -0.3891 C   0  0  0  0  0  0  0  0  0  0  0  0
    4.7157   -1.0384   -0.1846 C   0  0  0  0  0  0  0  0  0  0  0  0
    8.1533    3.5169   -0.1551 C   0  0  0  0  0  0  0  0  0  0  0  0
  1 12  1  0
  1 21  1  0
  3 11  1  0
  3 13  1  0
  3 16  1  0
  4 10  1  0
  4 17  1  0
  4 18  1  0
  5 13  2  0
  5 14  1  0
  6 15  2  0
  6 26  1  0
  7 25  1  0
  7 26  1  0
  8 26  2  0
  8 31  1  0
  9  2  1  6
  9 10  1  0
  9 12  1  0
 11 14  2  0
 11 15  1  0
 13 19  1  0
 14 20  1  0
 15 24  1  0
 16 22  2  0
 19 23  2  0
 21 27  2  0
 21 28  1  0
 22 23  1  0
 24 31  2  0
 25 29  2  0
 25 30  1  0
 27 29  1  0
 28 30  2  0
M  END
>  <DRUGBANK_ID>  (1) 
DB07889

>  <COMMON_NAME>  (1) 
(2S)-1-(Dimethylamino)-3-(4-{[4-(2-methylimidazo[1,2-a]pyridin-3-yl)-2-pyrimidinyl]amino}phenoxy)-2-propanol

$$$$
