
     RDKit          3D

 30 33  0  0  0  0  0  0  0  0999 V2000
   -3.1715    0.5987    0.1916 Cl  0  0  0  0  0  0  0  0  0  0  0  0
   -1.5590   -0.0347    0.0158 C   0  0  0  0  0  0  0  0  0  0  0  0
   -1.2126   -1.3359   -0.0818 C   0  0  0  0  0  0  0  0  0  0  0  0
   -2.0681   -2.4349   -0.1715 N   0  0  0  0  0  0  0  0  0  0  0  0
   -3.5136   -2.4341   -0.3268 C   0  0  0  0  0  0  0  0  0  0  0  0
   -3.9392   -2.8833   -1.6844 C   0  0  0  0  0  0  0  0  0  0  0  0
   -3.6282   -4.1786   -2.0067 C   0  0  0  0  0  0  0  0  0  0  0  0
   -3.8830   -4.6056   -3.2832 C   0  0  0  0  0  0  0  0  0  0  0  0
   -4.7524   -3.9547   -4.1514 C   0  0  0  0  0  0  0  0  0  0  0  0
   -5.1067   -2.6440   -3.8197 C   0  0  0  0  0  0  0  0  0  0  0  0
   -4.6160   -2.0805   -2.6265 C   0  0  0  0  0  0  0  0  0  0  0  0
   -5.2027   -4.5963   -5.4339 C   0  0  0  0  0  0  0  0  0  0  0  0
   -5.7424   -3.8960   -6.2846 O   0  0  0  0  0  0  0  0  0  0  0  0
   -4.9448   -5.9356   -5.7397 N   0  0  0  0  0  0  0  0  0  0  0  0
   -4.4489   -6.9863   -4.9376 C   0  0  0  0  0  0  0  0  0  0  0  0
   -4.8747   -7.1940   -3.6206 C   0  0  0  0  0  0  0  0  0  0  0  0
   -4.1365   -8.0234   -2.7752 C   0  0  0  0  0  0  0  0  0  0  0  0
   -3.0826   -8.7377   -3.3161 C   0  0  0  0  0  0  0  0  0  0  0  0
   -2.7003   -8.6395   -4.6089 N   0  0  0  0  0  0  0  0  0  0  0  0
   -3.3827   -7.7617   -5.3891 C   0  0  0  0  0  0  0  0  0  0  0  0
    0.2852   -1.6707   -0.0453 C   0  0  0  0  0  0  0  0  0  0  0  0
    0.6757   -2.8393   -0.0218 O   0  0  0  0  0  0  0  0  0  0  0  0
    1.2682   -0.5590   -0.0124 C   0  0  0  0  0  0  0  0  0  0  0  0
    0.8202    0.7541   -0.0137 C   0  0  0  0  0  0  0  0  0  0  0  0
    1.7067    1.8357   -0.0151 C   0  0  0  0  0  0  0  0  0  0  0  0
    3.0706    1.6092   -0.0030 C   0  0  0  0  0  0  0  0  0  0  0  0
    3.5447    0.2990    0.0155 C   0  0  0  0  0  0  0  0  0  0  0  0
    2.6517   -0.7860    0.0129 C   0  0  0  0  0  0  0  0  0  0  0  0
   -0.5928    1.0661    0.0037 C   0  0  0  0  0  0  0  0  0  0  0  0
   -0.9500    2.2479    0.0025 O   0  0  0  0  0  0  0  0  0  0  0  0
  1  2  1  0
  2  3  2  0
  2 29  1  0
  3  4  1  0
  3 21  1  0
  4  5  1  0
  5  6  1  0
  6  7  2  0
  6 11  1  0
  7  8  1  0
  8  9  2  0
  9 10  1  0
  9 12  1  0
 10 11  2  0
 12 13  2  0
 12 14  1  0
 14 15  1  0
 15 16  2  0
 15 20  1  0
 16 17  1  0
 17 18  2  0
 18 19  1  0
 19 20  2  0
 21 22  2  0
 21 23  1  0
 23 24  2  0
 23 28  1  0
 24 25  1  0
 24 29  1  0
 25 26  2  0
 26 27  1  0
 27 28  2  0
 29 30  2  0
M  END
>  <DRUGBANK_ID>  (1) 
DB17136

>  <COMMON_NAME>  (1) 
MPT-0L055

>  <CAS_NUMBER>  (1) 
2069950-14-5

>  <UNII>  (1) 
U1DMN1EU6W

>  <SYNONYMS>  (1) 
4-(((3-chloro-1,4-dihydro-1,4-dioxo-2-naphthalenyl)amino)methyl)-n-3-pyridinylbenzamide; 4-(((3-chloro-1,4-dioxo-1,4 dihydronaphthalen-2-yl)amino)methyl)-n-(pyridine-3-yl)benzamide; Benzamide, 4-(((3-chloro-1,4-dihydro-1,4-dioxo-2-naphthalenyl)amino)methyl)-n-3-pyridinyl-

$$$$
