DQO
     RDKit          3D

 33 37  0  0  0  0  0  0  0  0999 V2000
    0.6354    0.7715    0.0348 C   0  0  0  0  0  0  0  0  0  0  0  0
    1.9581    1.2532   -0.0163 C   0  0  0  0  0  0  0  0  0  0  0  0
    3.0073    0.3134   -0.1105 C   0  0  0  0  0  0  0  0  0  0  0  0
    2.7931   -1.0732   -0.1534 C   0  0  0  0  0  0  0  0  0  0  0  0
    1.4696   -1.5154   -0.0739 C   0  0  0  0  0  0  0  0  0  0  0  0
    0.3905   -0.6118    0.0570 C   0  0  0  0  0  0  0  0  0  0  0  0
    3.8598   -1.9444   -0.2008 N   0  0  0  0  0  0  0  0  0  0  0  0
    2.2655    2.6957    0.0213 C   0  0  0  0  0  0  0  0  0  0  0  0
   -0.9665   -1.0469    0.2013 N   0  0  0  0  0  0  0  0  0  0  0  0
   -2.0465   -0.2016   -0.0551 C   0  0  0  0  0  0  0  0  0  0  0  0
   -1.7280    1.0874   -0.3825 N   0  0  0  0  0  0  0  0  0  0  0  0
   -0.5456    1.6900    0.1602 C   0  0  0  0  0  0  0  0  0  0  0  0
   -3.2368   -0.5193   -0.0174 O   0  0  0  0  0  0  0  0  0  0  0  0
   -1.2150   -2.3678    0.6830 C   0  0  0  0  0  0  0  0  0  0  0  0
    2.9082    3.3173   -1.0628 C   0  0  0  0  0  0  0  0  0  0  0  0
    3.1637    4.6916   -1.0469 C   0  0  0  0  0  0  0  0  0  0  0  0
    2.7638    5.4562    0.0438 C   0  0  0  0  0  0  0  0  0  0  0  0
    2.1254    4.8752    1.1268 C   0  0  0  0  0  0  0  0  0  0  0  0
    1.8960    3.5040    1.1132 C   0  0  0  0  0  0  0  0  0  0  0  0
   -0.8012   -2.7516    1.9795 C   0  0  0  0  0  0  0  0  0  0  0  0
   -1.0897   -4.0275    2.4744 C   0  0  0  0  0  0  0  0  0  0  0  0
   -1.7982   -4.9372    1.6955 C   0  0  0  0  0  0  0  0  0  0  0  0
   -2.2149   -4.5763    0.4161 C   0  0  0  0  0  0  0  0  0  0  0  0
   -1.9297   -3.3029   -0.0909 C   0  0  0  0  0  0  0  0  0  0  0  0
    1.2748    2.9614    2.1716 F   0  0  0  0  0  0  0  0  0  0  0  0
    2.9966    6.7747    0.0456 F   0  0  0  0  0  0  0  0  0  0  0  0
   -2.3913   -2.9998   -1.7338 Cl  0  0  0  0  0  0  0  0  0  0  0  0
    0.0172   -1.6757    3.0684 Cl  0  0  0  0  0  0  0  0  0  0  0  0
    4.0380   -3.0063   -1.1980 C   0  0  0  0  0  0  0  0  0  0  0  0
    4.2728   -4.3728   -0.5052 C   0  0  0  0  0  0  0  0  0  0  0  0
    5.3537   -4.3549    0.5094 N   0  0  0  0  0  0  0  0  0  0  0  0
    5.0596   -3.2811    1.4859 C   0  0  0  0  0  0  0  0  0  0  0  0
    4.8974   -1.8869    0.8329 C   0  0  0  0  0  0  0  0  0  0  0  0
  1  2  1  0
  1  6  2  0
  1 12  1  0
  2  3  2  0
  2  8  1  0
  3  4  1  0
  4  5  2  0
  4  7  1  0
  5  6  1  0
  6  9  1  0
  7 29  1  0
  7 33  1  0
  8 15  2  0
  8 19  1  0
  9 10  1  0
  9 14  1  0
 10 11  1  0
 10 13  2  0
 11 12  1  0
 14 20  2  0
 14 24  1  0
 15 16  1  0
 16 17  2  0
 17 18  1  0
 17 26  1  0
 18 19  2  0
 19 25  1  0
 20 21  1  0
 20 28  1  0
 21 22  2  0
 22 23  1  0
 23 24  2  0
 24 27  1  0
 29 30  1  0
 30 31  1  0
 31 32  1  0
 32 33  1  0
M  END
>  <DRUGBANK_ID>  (1) 
DB02873

>  <SECONDARY_ACCESSION_NUMBERS>  (1) 
EXPT01266

>  <COMMON_NAME>  (1) 
1-(2,6-Dichlorophenyl)-5-(2,4-Difluorophenyl)-7-Piperazin-1-Yl-3,4-Dihydroquinazolin-2(1h)-One

$$$$
