
     RDKit          3D

 24 26  0  0  1  0  0  0  0  0999 V2000
   -0.8982   -8.4461    3.6019 N   0  0  0  0  0  0  0  0  0  0  0  0
   -0.8556   -7.5597    4.6140 C   0  0  0  0  0  0  0  0  0  0  0  0
   -0.5784   -6.3761    3.6205 C   0  0  2  0  0  0  0  0  0  0  0  0
   -0.7305   -9.8046    3.4310 C   0  0  0  0  0  0  0  0  0  0  0  0
   -0.7674   -7.4664    2.5153 C   0  0  1  0  0  0  0  0  0  0  0  0
    0.7712   -5.7019    3.6187 N   0  0  0  0  0  0  0  0  0  0  0  0
    0.9595   -4.6464    2.7397 C   0  0  0  0  0  0  0  0  0  0  0  0
   -1.0878  -10.8244    4.4946 C   0  0  0  0  0  0  0  0  0  0  0  0
   -0.2055  -10.2201    2.2527 C   0  0  0  0  0  0  0  0  0  0  0  0
    2.2430   -3.7110    2.7646 C   0  0  2  0  0  0  0  0  0  0  0  0
    0.3777   -7.8269    1.5997 C   0  0  0  0  0  0  0  0  0  0  0  0
   -0.9403   -7.7449    5.8130 O   0  0  0  0  0  0  0  0  0  0  0  0
    2.1677   -2.9165    1.5108 N   0  0  0  0  0  0  0  0  0  0  0  0
    0.0209   -4.3989    1.9670 O   0  0  0  0  0  0  0  0  0  0  0  0
    0.2299   -9.2742    1.1604 C   0  0  0  0  0  0  0  0  0  0  0  0
   -1.6431  -10.3535    5.6289 O   0  0  0  0  0  0  0  0  0  0  0  0
   -0.9557  -12.0329    4.3600 O   0  0  0  0  0  0  0  0  0  0  0  0
    3.6021   -4.3875    2.9018 C   0  0  0  0  0  0  0  0  0  0  0  0
    0.1328  -11.8635    1.7966 Cl  0  0  0  0  0  0  0  0  0  0  0  0
    3.8450   -5.3136    3.9222 C   0  0  0  0  0  0  0  0  0  0  0  0
    4.6864   -4.0760    2.0537 C   0  0  0  0  0  0  0  0  0  0  0  0
    5.8748   -4.8006    2.0971 C   0  0  0  0  0  0  0  0  0  0  0  0
    5.0369   -6.0332    3.9810 C   0  0  0  0  0  0  0  0  0  0  0  0
    6.0509   -5.7768    3.0666 C   0  0  0  0  0  0  0  0  0  0  0  0
  2  1  1  0
  3  5  1  0
  3  2  1  0
  3  6  1  1
  4  1  1  0
  5  1  1  0
  5 11  1  6
  7  6  1  0
  8  4  1  0
  9  4  2  0
 10 13  1  6
 10  7  1  0
 12  2  2  0
 14  7  2  0
 15 11  1  0
 15  9  1  0
 16  8  1  0
 17  8  2  0
 18 10  1  0
 19  9  1  0
 20 18  2  0
 21 18  1  0
 22 21  2  0
 23 20  1  0
 23 24  2  0
 24 22  1  0
M  END
>  <DRUGBANK_ID>  (1) 
DB00447

>  <SECONDARY_ACCESSION_NUMBERS>  (1) 
APRD01077

>  <COMMON_NAME>  (1) 
Loracarbef

>  <CAS_NUMBER>  (1) 
76470-66-1

>  <UNII>  (1) 
W72I5ZT78Z

>  <SYNONYMS>  (1) 
Anhydrous loracarbef; Loracarbef; Loracarbef anhydrous; Loracarbef, anhydrous; Loracarbefum

$$$$
