
     RDKit          3D

 25 28  0  0  0  0  0  0  0  0999 V2000
    2.6415   -0.0593   -0.0176 C   0  0  0  0  0  0  0  0  0  0  0  0
    1.1576   -0.0446   -0.0527 C   0  0  0  0  0  0  0  0  0  0  0  0
    0.5368    1.2004   -0.1013 C   0  0  0  0  0  0  0  0  0  0  0  0
   -0.8296    1.3160   -0.1096 C   0  0  0  0  0  0  0  0  0  0  0  0
   -1.5629    0.1205   -0.1522 C   0  0  0  0  0  0  0  0  0  0  0  0
   -0.9704   -1.1453   -0.0779 C   0  0  0  0  0  0  0  0  0  0  0  0
    0.4079   -1.2243   -0.0231 C   0  0  0  0  0  0  0  0  0  0  0  0
   -1.3059    2.5881    0.1720 N   0  0  0  0  0  0  0  0  0  0  0  0
   -1.4525    3.6075   -0.8798 C   0  0  0  0  0  0  0  0  0  0  0  0
   -1.7492    4.9720   -0.1924 C   0  0  0  0  0  0  0  0  0  0  0  0
   -2.8875    5.0071    0.7528 N   0  0  0  0  0  0  0  0  0  0  0  0
   -4.2552    4.9510    0.1611 C   0  0  0  0  0  0  0  0  0  0  0  0
   -4.8549    3.7257   -0.6170 C   0  0  0  0  0  0  0  0  0  0  0  0
   -5.1976    2.4734    0.2032 C   0  0  0  0  0  0  0  0  0  0  0  0
   -4.9736    1.2078   -0.3576 C   0  0  0  0  0  0  0  0  0  0  0  0
   -4.8373    0.1071    0.5030 C   0  0  0  0  0  0  0  0  0  0  0  0
   -4.7890    0.2792    1.8913 C   0  0  0  0  0  0  0  0  0  0  0  0
   -4.4649   -0.7618    2.7813 C   0  0  0  0  0  0  0  0  0  0  0  0
   -4.3636   -0.5347    4.1510 C   0  0  0  0  0  0  0  0  0  0  0  0
   -4.4508    0.7683    4.6285 C   0  0  0  0  0  0  0  0  0  0  0  0
   -4.7286    1.8049    3.7345 C   0  0  0  0  0  0  0  0  0  0  0  0
   -4.9971    1.5913    2.3833 C   0  0  0  0  0  0  0  0  0  0  0  0
   -5.2960    2.6219    1.5548 N   0  0  0  0  0  0  0  0  0  0  0  0
   -2.6322    3.9842    1.7850 C   0  0  0  0  0  0  0  0  0  0  0  0
   -2.3393    2.6056    1.1852 C   0  0  0  0  0  0  0  0  0  0  0  0
  1  2  1  0
  2  3  2  0
  2  7  1  0
  3  4  1  0
  4  5  2  0
  4  8  1  0
  5  6  1  0
  6  7  2  0
  8  9  1  0
  8 25  1  0
  9 10  1  0
 10 11  1  0
 11 12  1  0
 11 24  1  0
 12 13  1  0
 13 14  1  0
 14 15  2  0
 14 23  1  0
 15 16  1  0
 16 17  2  0
 17 18  1  0
 17 22  1  0
 18 19  2  0
 19 20  1  0
 20 21  2  0
 21 22  1  0
 22 23  2  0
 24 25  1  0
M  END
>  <DRUGBANK_ID>  (1) 
DB16122

>  <COMMON_NAME>  (1) 
Centhaquine

>  <CAS_NUMBER>  (1) 
57961-90-7

>  <UNII>  (1) 
QD4VI0J9T5

>  <SYNONYMS>  (1) 
Centhaquine; Compound-7173

$$$$
