
     RDKit          3D

 16 16  0  0  0  0  0  0  0  0999 V2000
    0.4756   -0.3018    0.7930 S   0  0  0  0  0  0  0  0  0  0  0  0
    2.2404    1.1984   -2.7352 O   0  0  0  0  0  0  0  0  0  0  0  0
    0.1965    0.9546   -0.4534 O   0  0  0  0  0  0  0  0  0  0  0  0
   -0.3661    4.1307   -1.5364 O   0  0  0  0  0  0  0  0  0  0  0  0
    1.1903    4.3643   -4.0317 O   0  0  0  0  0  0  0  0  0  0  0  0
    2.3880    1.7509   -4.8738 O   0  0  0  0  0  0  0  0  0  0  0  0
    2.9913    0.9583    0.5021 O   0  0  0  0  0  0  0  0  0  0  0  0
   -0.1597   -1.5702    0.0164 O   0  0  0  0  0  0  0  0  0  0  0  0
   -0.2577   -0.0229    1.9768 O   0  0  0  0  0  0  0  0  0  0  0  0
    1.8156   -0.8972    0.9622 O   0  0  0  0  0  0  0  0  0  0  0  0
    1.0751    2.1392   -0.7548 C   0  0  2  0  0  0  0  0  0  0  0  0
    0.8084    3.3663   -1.7843 C   0  0  1  0  0  0  0  0  0  0  0  0
    2.3983    1.6428   -1.4085 C   0  0  1  0  0  0  0  0  0  0  0  0
    1.0500    3.1254   -3.3199 C   0  0  2  0  0  0  0  0  0  0  0  0
    2.3088    2.2918   -3.5779 C   0  0  1  0  0  0  0  0  0  0  0  0
    2.7621    0.4000   -0.7800 C   0  0  0  0  0  0  0  0  0  0  0  0
  1  3  1  0
  1  8  1  0
  1  9  2  0
  1 10  2  0
  2 13  1  0
  2 15  1  0
  7 16  1  0
 11  3  1  6
 11 12  1  0
 11 13  1  0
 12  4  1  6
 12 14  1  0
 13 16  1  1
 14  5  1  6
 14 15  1  0
 15  6  1  6
M  END
>  <DRUGBANK_ID>  (1) 
DB02837

>  <SECONDARY_ACCESSION_NUMBERS>  (1) 
EXPT01646; DB03377

>  <COMMON_NAME>  (1) 
4-(Hydrogen sulfate)-beta-D-galactopyranose

>  <CAS_NUMBER>  (1) 
30591-62-9

>  <UNII>  (1) 
5G2WS8D321

>  <SYNONYMS>  (1) 
4-(Hydrogen sulfate)-beta-D-galactopyranose; 4-O-Sulfo-Î²-D-galactopyranose

$$$$
