6116
     RDKit          3D

  9  6  0  0  0  0  0  0  0  0999 V2000
    0.7212   -0.4627   -1.3013 Ca  0  0  0  0  0 15  0  0  0  0  0  0
    0.1902   -0.2632    0.9275 O   0  0  0  0  0  0  0  0  0  0  0  0
    2.2866    0.8742   -1.3935 O   0  0  0  0  0  0  0  0  0  0  0  0
    1.8099   -1.5048    0.2830 O   0  0  0  0  0  0  0  0  0  0  0  0
    4.0904   -0.3242   -0.7756 O   0  0  0  0  0  0  0  0  0  0  0  0
    2.3126    0.3641    1.7679 C   0  0  0  0  0  0  0  0  0  0  0  0
    4.0874    1.9872   -0.3115 C   0  0  0  0  0  0  0  0  0  0  0  0
    1.3996   -0.6372    1.1094 C   0  0  0  0  0  0  0  0  0  0  0  0
    3.4670    0.7402   -0.8758 C   0  0  0  0  0  0  0  0  0  0  0  0
  2  8  1  0
  3  9  1  0
  4  8  2  0
  5  9  2  0
  6  8  1  0
  7  9  1  0
M  CHG  3   1   2   2  -1   3  -1
M  END
>  <DRUGBANK_ID>  (1) 
DB00258

>  <SECONDARY_ACCESSION_NUMBERS>  (1) 
APRD00839

>  <COMMON_NAME>  (1) 
Calcium acetate

>  <CAS_NUMBER>  (1) 
62-54-4

>  <UNII>  (1) 
Y882YXF34X

>  <SYNONYMS>  (1) 
Acetate of lime; Brown acetate of lime; Calcio acetato; Calcium acetate; calcium ethanoate; calcium(II) acetate; Gray acetate of lime; Lime acetate; Lime pyrolignite

$$$$
