
     RDKit          3D

 31 33  0  0  0  0  0  0  0  0999 V2000
    1.4792   -0.9262   -0.5346 C   0  0  1  0  0  0  0  0  0  0  0  0
    0.1009   -1.5833   -0.5933 C   0  0  0  0  0  0  0  0  0  0  0  0
   -0.9240   -0.8050    0.2136 C   0  0  1  0  0  0  0  0  0  0  0  0
   -0.9527    0.6717   -0.1929 C   0  0  0  0  0  0  0  0  0  0  0  0
    0.3688    1.3396   -0.2073 C   0  0  0  0  0  0  0  0  0  0  0  0
    1.4472    0.5615   -0.9245 C   0  0  0  0  0  0  0  0  0  0  0  0
    2.0672   -1.1069    0.7570 O   0  0  0  0  0  0  0  0  0  0  0  0
   -2.2025   -1.4232    0.0919 O   0  0  0  0  0  0  0  0  0  0  0  0
    0.6901    2.4823    0.4510 C   0  0  0  0  0  0  0  0  0  0  0  0
   -0.1788    3.2572    1.3039 C   0  0  0  0  0  0  0  0  0  0  0  0
   -2.8310    4.0869    5.1353 C   0  0  1  0  0  0  0  0  0  0  0  0
   -2.9819    5.2880    4.1561 C   0  0  0  0  0  0  0  0  0  0  0  0
   -2.2234    4.9265    2.8887 C   0  0  0  0  0  0  0  0  0  0  0  0
   -1.9793    3.4359    3.0582 C   0  0  1  0  0  0  0  0  0  0  0  0
   -0.9481    2.7100    2.2767 C   0  0  0  0  0  0  0  0  0  0  0  0
   -0.9293    1.2467    2.6496 C   0  0  0  0  0  0  0  0  0  0  0  0
   -0.8270    0.9225    4.1182 C   0  0  0  0  0  0  0  0  0  0  0  0
   -1.8308    1.7339    4.9033 C   0  0  0  0  0  0  0  0  0  0  0  0
   -1.6998    3.2401    4.5645 C   0  0  2  0  0  0  0  0  0  0  0  0
   -0.3215    3.7939    4.9933 C   0  0  0  0  0  0  0  0  0  0  0  0
   -2.6540    4.5373    6.5938 C   0  0  1  0  0  0  0  0  0  0  0  0
   -3.7987    5.5031    6.9332 C   0  0  0  0  0  0  0  0  0  0  0  0
   -5.1866    4.8952    6.6932 C   0  0  0  0  0  0  0  0  0  0  0  0
   -5.5010    3.7555    7.6542 C   0  0  0  0  0  0  0  0  0  0  0  0
   -5.2753    4.1568    9.1214 C   0  0  0  0  0  0  0  0  0  0  0  0
   -6.2837    5.2261    9.5609 C   0  0  0  0  0  0  0  0  0  0  0  0
   -7.6915    4.6695    9.3568 C   0  0  0  0  0  0  0  0  0  0  0  0
   -6.0394    5.6366   11.0005 C   0  0  0  0  0  0  0  0  0  0  0  0
   -2.4849    3.3425    7.5525 C   0  0  0  0  0  0  0  0  0  0  0  0
   -6.1001    6.4236    8.8069 O   0  0  0  0  0  0  0  0  0  0  0  0
   -2.0999    1.3493   -0.3970 C   0  0  0  0  0  0  0  0  0  0  0  0
  1  2  1  0
  1  6  1  0
  1  7  1  1
  2  3  1  0
  3  4  1  0
  3  8  1  6
  4  5  1  0
  4 31  2  0
  5  6  1  0
  5  9  2  0
  9 10  1  0
 10 15  2  0
 11 12  1  6
 11 19  1  0
 11 21  1  0
 12 13  1  0
 14 13  1  6
 14 15  1  0
 14 19  1  0
 15 16  1  0
 16 17  1  0
 17 18  1  0
 18 19  1  0
 19 20  1  6
 21 22  1  0
 21 29  1  1
 22 23  1  0
 23 24  1  0
 24 25  1  0
 25 26  1  0
 26 27  1  0
 26 28  1  0
 26 30  1  0
M  END
>  <DRUGBANK_ID>  (1) 
DB15557

>  <COMMON_NAME>  (1) 
24-Homo-1,25-dihydroxyvitamin D3

>  <CAS_NUMBER>  (1) 
103656-40-2

>  <UNII>  (1) 
F35KTH803S

>  <SYNONYMS>  (1) 
24-Homo-calcitriol

$$$$
