
     RDKit          3D

 22 23  0  0  0  0  0  0  0  0999 V2000
    1.0861    0.0010    0.0803 C   0  0  0  0  0  0  0  0  0  0  0  0
    0.6903    1.3257    0.7151 C   0  0  0  0  0  0  0  0  0  0  0  0
    1.2765    2.5035   -0.0747 C   0  0  0  0  0  0  0  0  0  0  0  0
    0.7992    2.4998   -1.5073 C   0  0  0  0  0  0  0  0  0  0  0  0
   -0.7015    2.5607   -1.5044 C   0  0  0  0  0  0  0  0  0  0  0  0
   -1.2822    3.8436   -0.8837 C   0  0  0  0  0  0  0  0  0  0  0  0
   -0.9753    5.0453   -1.7747 C   0  0  0  0  0  0  0  0  0  0  0  0
   -1.6030    4.8969   -3.1702 C   0  0  0  0  0  0  0  0  0  0  0  0
   -4.5023    1.4484   -2.0247 C   0  0  0  0  0  0  0  0  0  0  0  0
   -5.5159    2.5742   -1.8214 C   0  0  2  0  0  0  0  0  0  0  0  0
   -6.8060    2.0296   -2.3780 C   0  0  2  0  0  0  0  0  0  0  0  0
   -7.8740    3.0991   -2.3775 C   0  0  1  0  0  0  0  0  0  0  0  0
   -7.4548    4.3778   -3.1098 C   0  0  2  0  0  0  0  0  0  0  0  0
   -5.9504    4.7068   -3.1525 C   0  0  1  0  0  0  0  0  0  0  0  0
   -3.7369    3.8099   -2.8336 C   0  0  0  0  0  0  0  0  0  0  0  0
   -3.0514    4.8913   -3.0102 N   0  0  0  0  0  0  0  0  0  0  0  0
   -5.0635    3.7578   -2.5455 N   0  0  0  0  0  0  0  0  0  0  0  0
   -7.2101    0.8725   -1.6355 O   0  0  0  0  0  0  0  0  0  0  0  0
   -9.0225    2.5392   -3.0448 O   0  0  0  0  0  0  0  0  0  0  0  0
   -8.1721    5.4871   -2.5419 O   0  0  0  0  0  0  0  0  0  0  0  0
   -5.6372    4.7589   -4.5461 O   0  0  0  0  0  0  0  0  0  0  0  0
   -3.1910    2.1660   -2.9832 S   0  0  0  0  0  0  0  0  0  0  0  0
  2  1  1  0
  3  2  1  0
  4  3  1  0
  5  4  1  0
  6  5  1  0
  7  6  1  0
  8  7  1  0
 10  9  1  6
 11 10  1  0
 11 18  1  1
 12 11  1  0
 12 19  1  6
 13 12  1  0
 13 20  1  1
 14 13  1  0
 14 21  1  6
 16  8  1  0
 16 15  2  0
 17 10  1  0
 17 14  1  0
 17 15  1  0
 22  9  1  0
 22 15  1  0
M  END
>  <DRUGBANK_ID>  (1) 
DB07370

>  <COMMON_NAME>  (1) 
(3Z,5S,6R,7S,8R,8aS)-3-(octylimino)hexahydro[1,3]thiazolo[3,4-a]pyridine-5,6,7,8-tetrol

$$$$
