
     RDKit          3D

  8  7  0  0  1  0  0  0  0  0999 V2000
    0.9994   -0.1540    2.5681 C   0  0  0  0  0  0  0  0  0  0  0  0
    0.5154   -0.6944    1.2188 C   0  0  2  0  0  0  0  0  0  0  0  0
    1.0709   -0.1007   -0.0598 C   0  0  0  0  0  0  0  0  0  0  0  0
    1.3601    1.6775   -0.2297 P   0  0  1  0  0  0  0  0  0  0  0  0
    2.1210    1.8719   -1.5214 O   0  0  0  0  0  0  0  0  0  0  0  0
   -0.1625    2.2025   -0.3666 O   0  0  0  0  0  0  0  0  0  0  0  0
   -0.8456   -0.5792    1.1712 F   0  0  0  0  0  0  0  0  0  0  0  0
    1.3531    1.2524    2.6202 N   0  0  0  0  0  0  0  0  0  0  0  0
  1  8  1  0
  2  7  1  6
  2  3  1  0
  2  1  1  0
  3  4  1  0
  4  5  2  0
  4  6  1  6
M  END
>  <DRUGBANK_ID>  (1) 
DB11920

>  <COMMON_NAME>  (1) 
Lesogaberan

>  <CAS_NUMBER>  (1) 
344413-67-8

>  <UNII>  (1) 
4D6Q6HGC7Z

>  <SYNONYMS>  (1) 
Lesogaberan

$$$$
