
     RDKit          3D

  7  5  0  0  0  0  0  0  0  0999 V2000
    0.4772   -0.6508    1.2456 Na  0  0  0  0  0 15  0  0  0  0  0  0
    1.0953    0.0906   -0.5328 O   0  0  0  0  0  0  0  0  0  0  0  0
    2.3503    0.0482   -0.3319 C   0  0  0  0  0  0  0  0  0  0  0  0
    2.7988   -0.4895    0.7298 O   0  0  0  0  0  0  0  0  0  0  0  0
    3.3063    0.7011   -1.3274 C   0  0  0  0  0  0  0  0  0  0  0  0
    3.0360    0.0028   -2.9465 Cl  0  0  0  0  0  0  0  0  0  0  0  0
    2.9790    2.4584   -1.3513 Cl  0  0  0  0  0  0  0  0  0  0  0  0
  2  3  1  0
  3  4  2  0
  3  5  1  0
  5  6  1  0
  5  7  1  0
M  CHG  2   1   1   2  -1
M  END
>  <DRUGBANK_ID>  (1) 
DB16929

>  <COMMON_NAME>  (1) 
Sodium dichloroacetate

>  <CAS_NUMBER>  (1) 
2156-56-1

>  <UNII>  (1) 
42932X67B5

>  <SYNONYMS>  (1) 
Ceresine; Cmi x-11s; Dca sodium; Dichloroacetate sodium

$$$$
