
     RDKit          3D

 15 15  0  0  0  0  0  0  0  0999 V2000
    1.3157   -0.2225    0.1132 C   0  0  0  0  0  0  0  0  0  0  0  0
    2.8080   -0.4380    0.1970 C   0  0  0  0  0  0  0  0  0  0  0  0
    0.4477   -1.3153    0.0182 C   0  0  0  0  0  0  0  0  0  0  0  0
    0.7645    1.0664    0.1818 C   0  0  0  0  0  0  0  0  0  0  0  0
    3.6192    0.1148   -0.9936 C   0  0  0  0  0  0  0  0  0  0  0  0
   -0.9334   -1.1154   -0.0284 C   0  0  0  0  0  0  0  0  0  0  0  0
   -0.6099    1.2687    0.1021 C   0  0  0  0  0  0  0  0  0  0  0  0
    3.4853    1.6185   -1.2326 C   0  0  0  0  0  0  0  0  0  0  0  0
    5.0460   -0.2370   -0.8688 N   0  0  0  0  0  0  0  0  0  0  0  0
   -1.4600    0.1756   -0.0042 C   0  0  0  0  0  0  0  0  0  0  0  0
    5.7189    0.2476    0.1258 C   0  0  0  0  0  0  0  0  0  0  0  0
    7.2024    0.0102    0.3386 C   0  0  0  0  0  0  0  0  0  0  0  0
    7.9805    1.6118    0.3925 Cl  0  0  0  0  0  0  0  0  0  0  0  0
    7.3854   -0.8043    1.9092 Cl  0  0  0  0  0  0  0  0  0  0  0  0
    7.9110   -0.9714   -0.9551 Cl  0  0  0  0  0  0  0  0  0  0  0  0
  1  2  1  0
  1  3  2  0
  1  4  1  0
  2  5  1  0
  3  6  1  0
  4  7  2  0
  5  8  1  0
  5  9  1  0
  6 10  2  0
  7 10  1  0
  9 11  2  0
 11 12  1  0
 12 13  1  0
 12 14  1  0
 12 15  1  0
M  END
>  <DRUGBANK_ID>  (1) 
DB08924

>  <COMMON_NAME>  (1) 
Amfecloral

>  <CAS_NUMBER>  (1) 
5581-35-1

>  <UNII>  (1) 
6015XOA0BI

>  <SYNONYMS>  (1) 
Amfecloral; Amphecloral

$$$$
