825
     RDKit          3D

 30 32  0  0  0  0  0  0  0  0999 V2000
    0.7608    0.1905   -0.1334 O   0  0  0  0  0  0  0  0  0  0  0  0
    1.9671    0.2075   -0.1840 C   0  0  0  0  0  0  0  0  0  0  0  0
    2.5570   -0.7148   -1.1562 C   0  0  0  0  0  0  0  0  0  0  0  0
    2.1715   -1.0407   -2.4464 C   0  0  0  0  0  0  0  0  0  0  0  0
    2.8851   -2.0102   -3.1503 C   0  0  0  0  0  0  0  0  0  0  0  0
    4.0307   -2.5036   -2.6107 C   0  0  0  0  0  0  0  0  0  0  0  0
    4.4021   -2.1007   -1.3726 C   0  0  0  0  0  0  0  0  0  0  0  0
    3.5199   -1.4503   -0.5897 C   0  0  0  0  0  0  0  0  0  0  0  0
    2.9653    1.1059    0.7153 C   0  0  1  0  0  0  0  0  0  0  0  0
    2.0697    2.1122    1.4456 C   0  0  0  0  0  0  0  0  0  0  0  0
    1.0684    1.6342    2.3132 C   0  0  0  0  0  0  0  0  0  0  0  0
    0.2769    2.5088    3.0431 C   0  0  0  0  0  0  0  0  0  0  0  0
    2.2484    3.4903    1.3057 C   0  0  0  0  0  0  0  0  0  0  0  0
    1.4971    4.3641    2.0928 C   0  0  0  0  0  0  0  0  0  0  0  0
    0.5019    3.8760    2.9428 C   0  0  0  0  0  0  0  0  0  0  0  0
    3.9170    0.4951    1.8626 C   0  0  0  0  0  0  0  0  0  0  0  0
    5.1452   -0.3900    1.5693 C   0  0  0  0  0  0  0  0  0  0  0  0
    5.1389   -1.7628    1.9255 C   0  0  0  0  0  0  0  0  0  0  0  0
    6.0654   -2.6802    1.3829 C   0  0  0  0  0  0  0  0  0  0  0  0
    5.7318   -4.4930    1.8766 Br  0  0  0  0  0  0  0  0  0  0  0  0
    6.9779   -2.2501    0.3873 C   0  0  0  0  0  0  0  0  0  0  0  0
    7.1251   -0.8507    0.2210 C   0  0  0  0  0  0  0  0  0  0  0  0
    6.2147    0.0640    0.7963 C   0  0  0  0  0  0  0  0  0  0  0  0
    7.5733   -3.1968   -0.7040 C   0  0  0  0  0  0  0  0  0  0  0  0
    8.5261   -2.5736   -1.4660 F   0  0  0  0  0  0  0  0  0  0  0  0
    8.2548   -4.1776   -0.0332 F   0  0  0  0  0  0  0  0  0  0  0  0
    6.6372   -4.0560   -2.0210 P   0  0  0  0  0  0  0  0  0  0  0  0
    5.6035   -4.7564   -0.9439 O   0  0  0  0  0  0  0  0  0  0  0  0
    5.8452   -4.7830   -3.1352 O   0  0  0  0  0  0  0  0  0  0  0  0
    7.7393   -5.2923   -1.8827 O   0  0  0  0  0  0  0  0  0  0  0  0
  1  2  2  0
  2  9  1  0
  3  2  1  0
  4  3  2  0
  5  4  1  0
  6  5  2  0
  6  7  1  0
  7  8  2  0
  8  3  1  0
  9 16  1  1
  9 10  1  0
 11 10  2  0
 12 11  1  0
 13 10  1  0
 14 13  2  0
 15 12  2  0
 15 14  1  0
 16 17  1  0
 17 23  1  0
 18 17  2  0
 18 19  1  0
 19 21  2  0
 20 19  1  0
 21 22  1  0
 21 24  1  0
 23 22  2  0
 24 26  1  0
 24 27  1  0
 25 24  1  0
 27 30  1  0
 27 28  1  0
 29 27  2  0
M  END
>  <DRUGBANK_ID>  (1) 
DB07263

>  <COMMON_NAME>  (1) 
[{2-bromo-4-[(2R)-3-oxo-2,3-diphenylpropyl]phenyl}(difluoro)methyl]phosphonic acid

$$$$
