
     RDKit          3D

 33 36  0  0  0  0  0  0  0  0999 V2000
    0.9519   -0.0709    0.0055 C   0  0  0  0  0  0  0  0  0  0  0  0
    0.4518   -0.1660    1.4409 C   0  0  0  0  0  0  0  0  0  0  0  0
    0.9782    0.9843    2.2887 C   0  0  0  0  0  0  0  0  0  0  0  0
   -1.0333   -0.2139    1.4555 C   0  0  0  0  0  0  0  0  0  0  0  0
   -1.8374    0.8978    1.4616 N   0  0  0  0  0  0  0  0  0  0  0  0
   -3.1387    0.4754    1.5567 C   0  0  0  0  0  0  0  0  0  0  0  0
   -4.3495    1.1658    1.6723 C   0  0  0  0  0  0  0  0  0  0  0  0
   -5.4464    0.2780    1.5744 C   0  0  0  0  0  0  0  0  0  0  0  0
   -5.3919   -1.1023    1.5020 C   0  0  0  0  0  0  0  0  0  0  0  0
   -4.1751   -1.7231    1.4864 C   0  0  0  0  0  0  0  0  0  0  0  0
   -3.0389   -0.9140    1.4900 C   0  0  0  0  0  0  0  0  0  0  0  0
   -1.7414   -1.3181    1.4478 N   0  0  0  0  0  0  0  0  0  0  0  0
   -4.3378    2.6796    1.7824 C   0  0  0  0  0  0  0  0  0  0  0  0
   -3.2833    3.2976    1.5913 O   0  0  0  0  0  0  0  0  0  0  0  0
   -5.4671    3.4283    2.0684 N   0  0  0  0  0  0  0  0  0  0  0  0
   -6.8204    2.9659    2.0457 C   0  0  0  0  0  0  0  0  0  0  0  0
   -7.8455    3.2753    3.1096 C   0  0  0  0  0  0  0  0  0  0  0  0
   -9.0937    2.3402    3.0737 C   0  0  0  0  0  0  0  0  0  0  0  0
  -10.3023    2.7271    2.1953 C   0  0  0  0  0  0  0  0  0  0  0  0
  -10.6365    4.1374    2.0279 N   0  0  0  0  0  0  0  0  0  0  0  0
   -9.4789    5.0147    2.1202 C   0  0  0  0  0  0  0  0  0  0  0  0
   -8.2914    4.7240    3.0439 C   0  0  0  0  0  0  0  0  0  0  0  0
  -11.2647    4.3449    0.6596 C   0  0  0  0  0  0  0  0  0  0  0  0
  -10.4955    4.0543   -0.7430 C   0  0  0  0  0  0  0  0  0  0  0  0
  -10.1176    2.5765   -1.0299 C   0  0  0  0  0  0  0  0  0  0  0  0
   -8.7382    2.1890   -0.5147 C   0  0  0  0  0  0  0  0  0  0  0  0
   -7.7125    3.0903   -0.9986 N   0  0  0  0  0  0  0  0  0  0  0  0
   -7.9125    4.5159   -0.6960 C   0  0  0  0  0  0  0  0  0  0  0  0
   -9.2954    4.9822   -1.1288 C   0  0  0  0  0  0  0  0  0  0  0  0
   -6.4441    2.5677   -1.0734 C   0  0  0  0  0  0  0  0  0  0  0  0
   -6.2059    1.3475   -1.0654 O   0  0  0  0  0  0  0  0  0  0  0  0
   -5.4998    3.5256   -1.0919 O   0  0  0  0  0  0  0  0  0  0  0  0
   -4.1928    3.0525   -1.3688 C   0  0  0  0  0  0  0  0  0  0  0  0
  1  2  1  0
  2  3  1  0
  2  4  1  0
  4  5  1  0
  4 12  2  0
  5  6  1  0
  6  7  2  0
  6 11  1  0
  7  8  1  0
  7 13  1  0
  8  9  2  0
  9 10  1  0
 10 11  2  0
 11 12  1  0
 13 14  2  0
 13 15  1  0
 15 16  1  0
 16 17  1  0
 17 18  1  0
 17 22  1  0
 18 19  1  0
 19 20  1  0
 20 21  1  0
 20 23  1  0
 21 22  1  0
 23 24  1  0
 24 25  1  0
 24 29  1  0
 25 26  1  0
 26 27  1  0
 27 28  1  0
 27 30  1  0
 28 29  1  0
 30 31  2  0
 30 32  1  0
 32 33  1  0
M  END
>  <DRUGBANK_ID>  (1) 
DB12725

>  <COMMON_NAME>  (1) 
Felcisetrag

>  <CAS_NUMBER>  (1) 
916075-84-8

>  <UNII>  (1) 
35F0Y2W16Q

>  <SYNONYMS>  (1) 
Felcisetrag

$$$$
