
     RDKit          3D

 21 22  0  0  0  0  0  0  0  0999 V2000
   -3.9828   -9.9038   -3.0642 C   0  0  0  0  0  0  0  0  0  0  0  0
   -3.0120   -8.9534   -2.4162 C   0  0  0  0  0  0  0  0  0  0  0  0
   -0.4082   -6.2001   -0.6347 O   0  0  0  0  0  0  0  0  0  0  0  0
   -0.0312   -6.2715    0.7628 C   0  0  2  0  0  0  0  0  0  0  0  0
   -4.4878  -10.8310   -2.2015 F   0  0  0  0  0  0  0  0  0  0  0  0
   -3.4350  -10.6069   -4.0912 F   0  0  0  0  0  0  0  0  0  0  0  0
   -5.0629   -9.2552   -3.5810 F   0  0  0  0  0  0  0  0  0  0  0  0
   -0.6448   -5.1035    1.5310 C   0  0  0  0  0  0  0  0  0  0  0  0
   -2.5183   -7.8407   -3.1111 C   0  0  0  0  0  0  0  0  0  0  0  0
   -2.6347   -9.1348   -1.0847 C   0  0  0  0  0  0  0  0  0  0  0  0
   -1.2951   -7.1149   -1.1384 C   0  0  0  0  0  0  0  0  0  0  0  0
    1.5102   -6.3827    0.8039 C   0  0  0  0  0  0  0  0  0  0  0  0
   -1.6624   -6.9310   -2.4769 C   0  0  0  0  0  0  0  0  0  0  0  0
   -1.8317   -8.1960   -0.4427 C   0  0  0  0  0  0  0  0  0  0  0  0
    1.5049   -7.8515    2.8294 N   0  0  0  0  0  0  0  0  0  0  0  0
    2.1215   -6.6978    2.1745 C   0  0  0  0  0  0  0  0  0  0  0  0
   -0.3268   -4.8187    2.8683 C   0  0  0  0  0  0  0  0  0  0  0  0
   -1.6275   -4.2997    0.9314 C   0  0  0  0  0  0  0  0  0  0  0  0
   -0.8292   -3.7002    3.5279 C   0  0  0  0  0  0  0  0  0  0  0  0
   -2.1632   -3.1990    1.5973 C   0  0  0  0  0  0  0  0  0  0  0  0
   -1.7539   -2.8858    2.8866 C   0  0  0  0  0  0  0  0  0  0  0  0
  2  1  1  0
  3 11  1  0
  4  8  1  0
  4  3  1  0
  5  1  1  0
  6  1  1  0
  7  1  1  0
  9  2  2  0
 10  2  1  0
 11 14  1  0
  4 12  1  6
 13  9  1  0
 13 11  2  0
 14 10  2  0
 15 16  1  0
 16 12  1  0
 17  8  2  0
 18  8  1  0
 19 17  1  0
 20 18  2  0
 20 21  1  0
 21 19  2  0
M  END
>  <DRUGBANK_ID>  (1) 
DB06731

>  <COMMON_NAME>  (1) 
Seproxetine

>  <CAS_NUMBER>  (1) 
126924-38-7

>  <UNII>  (1) 
25CO3X0R31

>  <SYNONYMS>  (1) 
(S)-norfluoxetine; Seproxetine

$$$$
