
     RDKit          3D

 19 20  0  0  1  0  0  0  0  0999 V2000
    1.1151    0.0875   -0.1123 C   0  0  0  0  0  0  0  0  0  0  0  0
    0.5645   -5.1774    0.1749 C   0  0  0  0  0  0  0  0  0  0  0  0
    4.4203   -7.9107    1.0397 C   0  0  0  0  0  0  0  0  0  0  0  0
    0.7019   -1.1331   -0.8957 C   0  0  0  0  0  0  0  0  0  0  0  0
    2.3469   -3.3519    4.9450 C   0  0  0  0  0  0  0  0  0  0  0  0
    3.2111   -2.5346    4.2146 C   0  0  0  0  0  0  0  0  0  0  0  0
    1.6632   -4.3625    4.3070 C   0  0  0  0  0  0  0  0  0  0  0  0
    3.3786   -2.7118    2.8334 C   0  0  0  0  0  0  0  0  0  0  0  0
    1.8655   -4.5538    2.9525 C   0  0  0  0  0  0  0  0  0  0  0  0
    4.3356   -4.1741    0.3105 C   0  0  0  0  0  0  0  0  0  0  0  0
    4.8212   -5.5229    0.8940 C   0  0  0  0  0  0  0  0  0  0  0  0
    2.6255   -6.4861    0.5672 C   0  0  0  0  0  0  0  0  0  0  0  0
    2.0849   -5.1682    0.0216 C   0  0  2  0  0  0  0  0  0  0  0  0
    2.6817   -3.7246    2.1601 C   0  0  0  0  0  0  0  0  0  0  0  0
    1.0539   -2.2819   -0.0146 C   0  0  0  0  0  0  0  0  0  0  0  0
    2.8121   -3.9276    0.6330 C   0  0  1  0  0  0  0  0  0  0  0  0
    4.0571   -6.6615    0.3560 N   0  0  0  0  0  0  0  0  0  0  0  0
    0.1859   -2.6661    0.7743 O   0  0  0  0  0  0  0  0  0  0  0  0
    2.3450   -2.7220   -0.1094 O   0  0  0  0  0  0  0  0  0  0  0  0
  4  1  1  0
  6  5  2  0
  7  5  1  0
  8  6  1  0
  9  7  2  0
 11 10  1  0
 13 12  1  0
 13  2  1  1
 14  8  2  0
 14  9  1  0
 15  4  1  0
 16 10  1  0
 16 13  1  0
 16 14  1  0
 16 19  1  6
 17  3  1  0
 17 11  1  0
 17 12  1  0
 18 15  2  0
 19 15  1  0
M  END
>  <DRUGBANK_ID>  (1) 
DB01473

>  <COMMON_NAME>  (1) 
Betaprodine

>  <CAS_NUMBER>  (1) 
468-59-7

>  <UNII>  (1) 
21J54X4Z4Z

>  <SYNONYMS>  (1) 
beta-Prodine; Betaprodina; Betaprodine; Betaprodinum

$$$$
