
     RDKit          3D

 18 18  0  0  0  0  0  0  0  0999 V2000
   -0.0459    2.0184    0.2729 O   0  0  0  0  0  0  0  0  0  0  0  0
    2.4636   -0.6629   -0.2124 O   0  0  0  0  0  0  0  0  0  0  0  0
    0.0838   -2.1546    0.3542 O   0  0  0  0  0  0  0  0  0  0  0  0
   -2.4227   -0.7801   -0.2532 O   0  0  0  0  0  0  0  0  0  0  0  0
   -2.4784    3.4621   -0.0089 O   0  0  0  0  0  0  0  0  0  0  0  0
    0.2658    1.9983   -2.5836 O   0  0  0  0  0  0  0  0  0  0  0  0
    4.1439    3.4592    0.1542 O   0  0  0  0  0  0  0  0  0  0  0  0
    2.2672    2.2445    0.1561 N   0  0  0  0  0  0  0  0  0  0  0  0
    1.9414    0.5326   -2.5308 N   0  0  0  0  0  0  0  0  0  0  0  0
    1.2579   -0.0200    0.2384 C   0  0  1  0  0  0  0  0  0  0  0  0
    1.1288    1.4332   -0.3156 C   0  0  1  0  0  0  0  0  0  0  0  0
    0.0119   -0.8271   -0.1735 C   0  0  2  0  0  0  0  0  0  0  0  0
   -1.2749   -0.1170    0.2781 C   0  0  1  0  0  0  0  0  0  0  0  0
   -1.2642    1.3590   -0.1438 C   0  0  1  0  0  0  0  0  0  0  0  0
   -2.4914    2.0970    0.4005 C   0  0  0  0  0  0  0  0  0  0  0  0
    1.0413    1.3511   -1.8949 C   0  0  0  0  0  0  0  0  0  0  0  0
    3.2320    2.9600   -0.4946 C   0  0  0  0  0  0  0  0  0  0  0  0
    3.2094    3.1044   -1.9917 C   0  0  0  0  0  0  0  0  0  0  0  0
  1 11  1  0
  1 14  1  0
  5 15  1  0
  6 16  2  0
  7 17  2  0
  8 17  1  0
  9 16  1  0
 10  2  1  6
 10 11  1  0
 10 12  1  0
 11  8  1  6
 11 16  1  0
 12  3  1  1
 12 13  1  0
 13  4  1  6
 13 14  1  0
 14 15  1  1
 17 18  1  0
M  END
>  <DRUGBANK_ID>  (1) 
DB04544

>  <SECONDARY_ACCESSION_NUMBERS>  (1) 
EXPT01015

>  <COMMON_NAME>  (1) 
1-Deoxy-1-acetylamino-beta-D-gluco-2-heptulopyranosonamide

$$$$
