
     RDKit          3D

 21 23  0  0  0  0  0  0  0  0999 V2000
    0.9880    0.1846   -0.0072 C   0  0  0  0  0  0  0  0  0  0  0  0
    0.4957    0.9763    1.1008 N   0  0  0  0  0  0  0  0  0  0  0  0
   -0.0399    0.5951    2.3296 C   0  0  0  0  0  0  0  0  0  0  0  0
   -0.1962    1.7771    3.0814 C   0  0  0  0  0  0  0  0  0  0  0  0
    0.2697    2.8769    2.2917 C   0  0  0  0  0  0  0  0  0  0  0  0
    0.6551    2.3590    1.0777 C   0  0  0  0  0  0  0  0  0  0  0  0
    1.1726    3.1911    0.0214 C   0  0  0  0  0  0  0  0  0  0  0  0
    1.3648    2.8115   -1.1381 O   0  0  0  0  0  0  0  0  0  0  0  0
    1.4855    4.6119    0.3848 C   0  0  0  0  0  0  0  0  0  0  0  0
    1.1484    5.1719    1.5662 C   0  0  0  0  0  0  0  0  0  0  0  0
    0.3630    4.3047    2.5830 C   0  0  0  0  0  0  0  0  0  0  0  0
   -0.1716    4.8067    3.5723 O   0  0  0  0  0  0  0  0  0  0  0  0
    1.1569    6.4827    1.9766 N   0  0  0  0  0  0  0  0  0  0  0  0
    1.3065    7.7604    1.3837 C   0  0  0  0  0  0  0  0  0  0  0  0
    2.1405    7.3034    2.6116 C   0  0  0  0  0  0  0  0  0  0  0  0
   -0.7174    1.8670    4.4884 C   0  0  0  0  0  0  0  0  0  0  0  0
   -2.0469    1.3628    4.5874 O   0  0  0  0  0  0  0  0  0  0  0  0
   -0.3557   -0.7376    2.7716 C   0  0  0  0  0  0  0  0  0  0  0  0
   -0.2533   -1.8911    2.1000 C   0  0  0  0  0  0  0  0  0  0  0  0
   -0.5941   -3.2518    2.5959 C   0  0  0  0  0  0  0  0  0  0  0  0
   -1.5596   -3.7994    1.7091 O   0  0  0  0  0  0  0  0  0  0  0  0
  1  2  1  0
  2  3  1  0
  2  6  1  0
  3  4  2  0
  3 18  1  0
  4  5  1  0
  4 16  1  0
  5  6  2  0
  5 11  1  0
  6  7  1  0
  7  8  2  0
  7  9  1  0
  9 10  2  0
 10 11  1  0
 10 13  1  0
 11 12  2  0
 13 14  1  0
 13 15  1  0
 14 15  1  0
 16 17  1  0
 18 19  2  0
 19 20  1  0
 20 21  1  0
M  END
>  <DRUGBANK_ID>  (1) 
DB12593

>  <COMMON_NAME>  (1) 
Apaziquone

>  <CAS_NUMBER>  (1) 
114560-48-4

>  <UNII>  (1) 
H464ZO600O

>  <SYNONYMS>  (1) 
Apaziquone; EOQUIN

$$$$
