
     RDKit          3D

 27 29  0  0  0  0  0  0  0  0999 V2000
    0.8212    0.0749   -0.0293 C   0  0  0  0  0  0  0  0  0  0  0  0
    1.8085    4.8765   -0.2200 C   0  0  0  0  0  0  0  0  0  0  0  0
   -5.6056    0.5624   -2.6156 C   0  0  0  0  0  0  0  0  0  0  0  0
   -4.7684   -0.5516   -2.7379 C   0  0  0  0  0  0  0  0  0  0  0  0
   -4.6682    4.3029   -0.1944 C   0  0  0  0  0  0  0  0  0  0  0  0
   -3.5568    4.2208    0.8528 C   0  0  0  0  0  0  0  0  0  0  0  0
   -3.7206    2.0316   -2.9754 C   0  0  0  0  0  0  0  0  0  0  0  0
   -6.5919    3.1672   -1.1579 C   0  0  0  0  0  0  0  0  0  0  0  0
   -2.9864    1.7495    0.8286 C   0  0  0  0  0  0  0  0  0  0  0  0
   -5.0977    1.8662   -2.7530 C   0  0  0  0  0  0  0  0  0  0  0  0
   -3.4115   -0.3642   -2.9842 C   0  0  0  0  0  0  0  0  0  0  0  0
   -2.8928    0.9230   -3.0910 C   0  0  0  0  0  0  0  0  0  0  0  0
   -5.9888    3.0869   -2.5847 C   0  0  0  0  0  0  0  0  0  0  0  0
   -1.3324    3.1081    0.3893 C   0  0  0  0  0  0  0  0  0  0  0  0
   -0.9328    1.8017    0.3161 C   0  0  0  0  0  0  0  0  0  0  0  0
   -0.4450    4.1932    0.2042 C   0  0  0  0  0  0  0  0  0  0  0  0
    1.3212    2.4747   -0.1231 C   0  0  0  0  0  0  0  0  0  0  0  0
   -5.5864    3.1612   -0.0928 N   0  0  0  0  0  0  0  0  0  0  0  0
   -1.9664    0.9539    0.5676 N   0  0  0  0  0  0  0  0  0  0  0  0
    0.3805    1.4580    0.0625 N   0  0  0  0  0  0  0  0  0  0  0  0
    0.8644    3.7984   -0.0408 N   0  0  0  0  0  0  0  0  0  0  0  0
   -2.6660    3.0798    0.6841 N   0  0  0  0  0  0  0  0  0  0  0  0
   -2.5569   -1.4207   -3.1348 O   0  0  0  0  0  0  0  0  0  0  0  0
   -1.5625    1.1358   -3.3179 O   0  0  0  0  0  0  0  0  0  0  0  0
   -7.0315    3.0888   -3.5508 O   0  0  0  0  0  0  0  0  0  0  0  0
   -0.7927    5.3753    0.2660 O   0  0  0  0  0  0  0  0  0  0  0  0
    2.5098    2.2238   -0.3422 O   0  0  0  0  0  0  0  0  0  0  0  0
  4  3  2  0
  6  5  1  0
 10  3  1  0
 10  7  2  0
 11  4  1  0
 12  7  1  0
 12 11  2  0
 13  8  1  0
 13 10  1  0
 15 14  2  0
 16 14  1  0
 18  5  1  0
 18  8  1  0
 19  9  2  0
 19 15  1  0
 20  1  1  0
 20 15  1  0
 20 17  1  0
 21  2  1  0
 21 16  1  0
 21 17  1  0
 22  6  1  0
 22  9  1  0
 22 14  1  0
 23 11  1  0
 24 12  1  0
 25 13  1  0
 26 16  2  0
 27 17  2  0
M  END
>  <DRUGBANK_ID>  (1) 
DB12927

>  <COMMON_NAME>  (1) 
Theodrenaline

>  <CAS_NUMBER>  (1) 
13460-98-5

>  <UNII>  (1) 
RW8PD99T8G

>  <SYNONYMS>  (1) 
Theodrenaline

$$$$
