
     RDKit          3D

 18 19  0  0  0  0  0  0  0  0999 V2000
   -0.5354    1.5015   -0.1968 O   0  0  0  0  0  0  0  0  0  0  0  0
    0.5301   -1.4588   -0.1258 O   0  0  0  0  0  0  0  0  0  0  0  0
    2.1662    0.2506   -0.3887 O   0  0  0  0  0  0  0  0  0  0  0  0
   -1.8981   -2.3319    1.0393 O   0  0  0  0  0  0  0  0  0  0  0  0
   -3.6983   -0.2384   -0.2475 O   0  0  0  0  0  0  0  0  0  0  0  0
   -1.3195    0.8035   -2.3055 O   0  0  0  0  0  0  0  0  0  0  0  0
    2.0581   -2.6098    1.6719 O   0  0  0  0  0  0  0  0  0  0  0  0
    3.9906   -1.6506    0.9994 O   0  0  0  0  0  0  0  0  0  0  0  0
   -0.1455   -0.6945    0.9025 C   0  0  1  0  0  0  0  0  0  0  0  0
    0.1290    0.7928    0.8412 C   0  0  1  0  0  0  0  0  0  0  0  0
   -1.6545   -0.9266    0.8606 C   0  0  1  0  0  0  0  0  0  0  0  0
   -2.2761   -0.4011   -0.4256 C   0  0  2  0  0  0  0  0  0  0  0  0
   -1.6294    0.9269   -0.9039 C   0  0  1  0  0  0  0  0  0  0  0  0
    1.6411    0.9935    0.7106 C   0  0  0  0  0  0  0  0  0  0  0  0
    1.9376   -1.1518   -0.2792 C   0  0  2  0  0  0  0  0  0  0  0  0
    2.4526   -1.7709   -1.6096 C   0  0  0  0  0  0  0  0  0  0  0  0
    2.7842   -1.8220    0.8395 C   0  0  0  0  0  0  0  0  0  0  0  0
   -0.2386   -0.0873   -2.5132 C   0  0  0  0  0  0  0  0  0  0  0  0
  1 10  1  0
  1 13  1  0
  9  2  1  6
  2 15  1  0
  3 14  1  0
  3 15  1  0
  6 18  1  0
  7 17  1  0
  8 17  2  0
  9 10  1  0
  9 11  1  0
 10 14  1  6
 11  4  1  6
 11 12  1  0
 12 13  1  0
 12  5  1  1
 13  6  1  6
 15 16  1  6
 15 17  1  0
M  END
>  <DRUGBANK_ID>  (1) 
DB01651

>  <SECONDARY_ACCESSION_NUMBERS>  (1) 
EXPT00869

>  <COMMON_NAME>  (1) 
Methyl 4,6-O-[(1R)-1-carboxyethylidene]-beta-D-galactopyranoside

>  <SYNONYMS>  (1) 
Methyl 4,6-O-[(1R)-1-carboxyethylidene]-Î²-D-galactopyranoside

$$$$
