
     RDKit          3D

 19 21  0  0  1  0  0  0  0  0999 V2000
   -0.0362    1.2973    0.6782 O   0  0  0  0  0  0  0  0  0  0  0  0
    3.0186   -1.2355   -1.4191 N   0  0  0  0  0  0  0  0  0  0  0  0
   -0.5824   -1.3363    0.0265 N   0  0  0  0  0  0  0  0  0  0  0  0
   -1.1018    0.9886   -0.1574 N   0  0  0  0  0  0  0  0  0  0  0  0
   -4.9987   -0.4630   -1.0428 N   0  0  0  0  0  0  0  0  0  0  0  0
    3.3978    0.1836   -1.4732 C   0  0  0  0  0  0  0  0  0  0  0  0
    3.7478   -1.9277   -0.3506 C   0  0  0  0  0  0  0  0  0  0  0  0
    4.8755    0.4821   -1.6084 C   0  0  0  0  0  0  0  0  0  0  0  0
    5.2564   -1.7141   -0.4772 C   0  0  0  0  0  0  0  0  0  0  0  0
    5.6233   -0.2326   -0.4920 C   0  0  0  0  0  0  0  0  0  0  0  0
    1.5480   -1.4650   -1.2853 C   0  0  0  0  0  0  0  0  0  0  0  0
    0.8419   -0.9527    0.0139 C   0  0  0  0  0  0  0  0  0  0  0  0
    1.0582    0.5583    0.1718 C   0  0  0  0  0  0  0  0  0  0  0  0
   -1.4237   -0.3499   -0.0498 C   0  0  0  0  0  0  0  0  0  0  0  0
   -2.8458   -0.6887   -0.0047 C   0  0  0  0  0  0  0  0  0  0  0  0
   -3.3807   -1.4239    1.0485 C   0  0  0  0  0  0  0  0  0  0  0  0
   -3.6704   -0.2363   -1.0201 C   0  0  0  0  0  0  0  0  0  0  0  0
   -4.7453   -1.6783    1.0425 C   0  0  0  0  0  0  0  0  0  0  0  0
   -5.5020   -1.1838   -0.0134 C   0  0  0  0  0  0  0  0  0  0  0  0
  1  4  1  0
  1 13  1  0
  2  6  1  0
  2  7  1  0
  2 11  1  0
  3 12  1  0
  3 14  2  0
  4 14  1  0
  5 17  2  0
  5 19  1  0
  6  8  1  0
  7  9  1  0
  8 10  1  0
  9 10  1  0
 11 12  1  0
 12 13  1  0
 14 15  1  0
 15 16  2  0
 15 17  1  0
 16 18  1  0
 18 19  2  0
M  END
>  <DRUGBANK_ID>  (1) 
DB05444

>  <COMMON_NAME>  (1) 
Iroxanadine

>  <CAS_NUMBER>  (1) 
276690-58-5

>  <UNII>  (1) 
6K69EJ1DL1

>  <SYNONYMS>  (1) 
Iroxanadine

$$$$
