
     RDKit          3D

 13 14  0  0  0  0  0  0  0  0999 V2000
    2.0976   -0.6294   -0.0007 N   0  0  0  0  0  0  0  0  0  0  0  0
    2.0327    0.7506    0.0028 C   0  0  0  0  0  0  0  0  0  0  0  0
    0.9019    1.4114    0.0030 N   0  0  0  0  0  0  0  0  0  0  0  0
   -0.2041    0.6193    0.0006 C   0  0  0  0  0  0  0  0  0  0  0  0
   -0.2456   -0.7567   -0.0003 C   0  0  0  0  0  0  0  0  0  0  0  0
    1.0001   -1.4665   -0.0006 C   0  0  0  0  0  0  0  0  0  0  0  0
    1.0947   -2.6870    0.0001 O   0  0  0  0  0  0  0  0  0  0  0  0
   -1.5935   -1.1700    0.0005 C   0  0  0  0  0  0  0  0  0  0  0  0
   -2.1002   -2.5059    0.0015 C   0  0  0  0  0  0  0  0  0  0  0  0
   -2.5465   -3.5804    0.0026 N   0  0  0  0  0  0  0  0  0  0  0  0
   -2.3587   -0.0185    0.0007 C   0  0  0  0  0  0  0  0  0  0  0  0
   -1.5027    1.0655    0.0000 N   0  0  0  0  0  0  0  0  0  0  0  0
    3.2315    1.3874    0.0059 N   0  0  0  0  0  0  0  0  0  0  0  0
  2  1  1  0
  2  3  2  0
  2 13  1  0
  4  3  1  0
  4  5  2  0
  4 12  1  0
  5  6  1  0
  5  8  1  0
  6  1  1  0
  6  7  2  0
  8 11  2  0
  9  8  1  0
  9 10  3  0
 11 12  1  0
M  END
>  <DRUGBANK_ID>  (1) 
DB03074

>  <SECONDARY_ACCESSION_NUMBERS>  (1) 
EXPT02651

>  <COMMON_NAME>  (1) 
7-cyano-7-deazaguanine

>  <SYNONYMS>  (1) 
7-CN-7-deazaG; 7-Cyano-7-carbaguanine

$$$$
