
     RDKit          3D

 23 26  0  0  0  0  0  0  0  0999 V2000
    3.7810   -1.9705    0.1111 S   0  0  0  0  0  0  0  0  0  0  0  0
    3.0419   -0.2135    0.0297 P   0  0  2  0  0  0  0  0  0  0  0  0
    3.1264    3.8979   -0.0167 O   0  0  0  0  0  0  0  0  0  0  0  0
    3.6263    0.8686   -1.0332 O   0  0  0  0  0  0  0  0  0  0  0  0
    3.2380    0.6316    1.3893 O   0  0  0  0  0  0  0  0  0  0  0  0
    1.4607   -0.0694   -0.1937 O   0  0  0  0  0  0  0  0  0  0  0  0
    3.2018    3.5590    3.1370 O   0  0  0  0  0  0  0  0  0  0  0  0
    9.4670    5.0902    1.1405 O   0  0  0  0  0  0  0  0  0  0  0  0
    5.3907    4.0820   -0.6044 N   0  0  0  0  0  0  0  0  0  0  0  0
    5.5387    4.4761    1.8255 N   0  0  0  0  0  0  0  0  0  0  0  0
    7.5115    4.5743   -1.0961 N   0  0  0  0  0  0  0  0  0  0  0  0
    7.7246    4.9443    2.6410 N   0  0  0  0  0  0  0  0  0  0  0  0
    5.9227    4.7159    4.0598 N   0  0  0  0  0  0  0  0  0  0  0  0
    4.3839    1.8529   -0.3184 C   0  0  2  0  0  0  0  0  0  0  0  0
    3.7476    1.8977    1.0479 C   0  0  1  0  0  0  0  0  0  0  0  0
    4.1810    3.2973   -0.7980 C   0  0  1  0  0  0  0  0  0  0  0  0
    2.6142    2.8873    0.8624 C   0  0  1  0  0  0  0  0  0  0  0  0
    2.1307    3.4662    2.1893 C   0  0  0  0  0  0  0  0  0  0  0  0
    5.9960    4.4394    0.5642 C   0  0  0  0  0  0  0  0  0  0  0  0
    6.3316    4.2636   -1.5932 C   0  0  0  0  0  0  0  0  0  0  0  0
    7.3130    4.6738    0.2649 C   0  0  0  0  0  0  0  0  0  0  0  0
    8.2654    4.9302    1.3518 C   0  0  0  0  0  0  0  0  0  0  0  0
    6.4518    4.7377    2.8163 C   0  0  0  0  0  0  0  0  0  0  0  0
  2  4  1  0
  2  5  1  0
  2  6  1  0
  2  1  2  0
  3 16  1  0
  3 17  1  0
 14  4  1  6
 15  5  1  6
  7 18  1  0
  8 22  2  0
  9 19  1  0
  9 20  1  0
 10 19  1  0
 10 23  1  0
 11 20  2  0
 11 21  1  0
 12 22  1  0
 12 23  2  0
 13 23  1  0
 14 15  1  0
 14 16  1  0
 15 17  1  0
 16  9  1  1
 17 18  1  1
 19 21  2  0
 21 22  1  0
M  END
>  <DRUGBANK_ID>  (1) 
DB03178

>  <SECONDARY_ACCESSION_NUMBERS>  (1) 
EXPT02899

>  <COMMON_NAME>  (1) 
Guanosine-2',3'-cyclophosphorothioate

>  <CAS_NUMBER>  (1) 
38557-85-6

$$$$
