
     RDKit          3D

 21 22  0  0  0  0  0  0  0  0999 V2000
    5.1178   -5.7625    0.9521 Cl  0  0  0  0  0  0  0  0  0  0  0  0
    6.4202    1.8367   -1.0543 O   0  0  0  0  0  0  0  0  0  0  0  0
    4.8320   -0.8198    3.1665 O   0  0  0  0  0  0  0  0  0  0  0  0
    6.8171   -0.5049   -1.1731 O   0  0  0  0  0  0  0  0  0  0  0  0
    3.8137   -0.4762   -2.2745 N   0  0  0  0  0  0  0  0  0  0  0  0
    5.1428    1.0297    1.6805 N   0  0  0  0  0  0  0  0  0  0  0  0
    5.5535   -4.9180   -1.9751 N   0  0  0  0  0  0  0  0  0  0  0  0
    4.3908    1.3970    0.3023 C   0  0  1  0  0  0  0  0  0  0  0  0
    4.9872    1.8616   -1.0902 C   0  0  2  0  0  0  0  0  0  0  0  0
    4.0834   -0.0024    0.0597 C   0  0  0  0  0  0  0  0  0  0  0  0
    4.1330    0.9697   -2.3102 C   0  0  0  0  0  0  0  0  0  0  0  0
    3.5265   -0.8963   -0.9541 C   0  0  0  0  0  0  0  0  0  0  0  0
    5.3983   -0.4749    2.0549 C   0  0  0  0  0  0  0  0  0  0  0  0
    7.1329    3.0599   -1.1548 C   0  0  0  0  0  0  0  0  0  0  0  0
    5.9100   -1.7532    0.9590 C   0  0  0  0  0  0  0  0  0  0  0  0
    6.4100   -1.6662   -0.4958 C   0  0  0  0  0  0  0  0  0  0  0  0
    5.4337   -3.0611    1.3337 C   0  0  0  0  0  0  0  0  0  0  0  0
    6.2674   -2.7457   -1.3740 C   0  0  0  0  0  0  0  0  0  0  0  0
    5.4724   -4.1510    0.4053 C   0  0  0  0  0  0  0  0  0  0  0  0
    5.8242   -3.9838   -0.9542 C   0  0  0  0  0  0  0  0  0  0  0  0
    6.7666   -0.2447   -2.6426 C   0  0  0  0  0  0  0  0  0  0  0  0
  1 19  1  0
  2 14  1  0
  3 13  2  0
  4 16  1  0
  4 21  1  0
  5 11  1  0
  5 12  1  0
  6 13  1  0
  7 20  1  0
  8  9  1  0
  8 10  1  0
  8  6  1  1
  9 11  1  0
  9  2  1  1
 10 12  1  0
 13 15  1  0
 15 16  2  0
 15 17  1  0
 16 18  1  0
 17 19  2  0
 18 20  2  0
 19 20  1  0
M  END
>  <DRUGBANK_ID>  (1) 
DB06422

>  <COMMON_NAME>  (1) 
Ticalopride

>  <CAS_NUMBER>  (1) 
202590-69-0

>  <UNII>  (1) 
QNG273A81O

>  <SYNONYMS>  (1) 
Norcisapride; Ticalopride

$$$$
