COR
     RDKit          3D

 20 21  0  0  0  0  0  0  0  0999 V2000
    1.1574    0.8047    2.3106 C   0  0  0  0  0  0  0  0  0  0  0  0
    0.5404   -0.2894    1.4180 C   0  0  2  0  0  0  0  0  0  0  0  0
    0.9208   -0.2376   -0.0274 N   0  0  0  0  0  0  0  0  0  0  0  0
   -0.9964   -0.2582    1.4821 C   0  0  0  0  0  0  0  0  0  0  0  0
   -1.4229   -1.2686    0.5525 O   0  0  0  0  0  0  0  0  0  0  0  0
   -1.5803   -0.4985    2.9149 C   0  0  1  0  0  0  0  0  0  0  0  0
   -1.2499    0.5216    3.9371 N   0  0  0  0  0  0  0  0  0  0  0  0
   -3.1244   -0.5860    2.8734 C   0  0  0  0  0  0  0  0  0  0  0  0
    2.4219    1.3572    1.7436 C   0  0  0  0  0  0  0  0  0  0  0  0
    3.6131    0.6666    1.9442 C   0  0  0  0  0  0  0  0  0  0  0  0
    4.7336    1.0354    1.2110 C   0  0  0  0  0  0  0  0  0  0  0  0
    4.6330    2.0658    0.2751 C   0  0  0  0  0  0  0  0  0  0  0  0
    3.4389    2.7534    0.0804 C   0  0  0  0  0  0  0  0  0  0  0  0
    2.3336    2.4336    0.8559 C   0  0  0  0  0  0  0  0  0  0  0  0
   -3.6375   -1.7456    2.0608 C   0  0  0  0  0  0  0  0  0  0  0  0
   -3.1071   -3.0276    2.2720 C   0  0  0  0  0  0  0  0  0  0  0  0
   -3.4385   -4.0787    1.4279 C   0  0  0  0  0  0  0  0  0  0  0  0
   -4.3638   -3.8771    0.4088 C   0  0  0  0  0  0  0  0  0  0  0  0
   -4.9360   -2.6189    0.2178 C   0  0  0  0  0  0  0  0  0  0  0  0
   -4.5514   -1.5444    1.0192 C   0  0  0  0  0  0  0  0  0  0  0  0
  1  9  1  0
  2  4  1  0
  2  3  1  6
  2  1  1  0
  4  5  1  0
  4  6  1  0
  6  7  1  1
  6  8  1  0
  8 15  1  0
  9 10  2  0
  9 14  1  0
 10 11  1  0
 11 12  2  0
 12 13  1  0
 13 14  2  0
 15 16  2  0
 15 20  1  0
 16 17  1  0
 17 18  2  0
 18 19  1  0
 19 20  2  0
M  END
>  <DRUGBANK_ID>  (1) 
DB07575

>  <COMMON_NAME>  (1) 
2,4-DIAMINO-1,5-DIPHENYL-3-HYDROXYPENTANE

$$$$
