
     RDKit          3D

 13 13  0  0  0  0  0  0  0  0999 V2000
    0.9575    0.0457   -0.0978 N   0  0  0  0  0  0  0  0  0  0  0  0
    0.3818   -0.9058   -0.9684 C   0  0  0  0  0  0  0  0  0  0  0  0
   -0.7252   -0.5965   -1.7707 C   0  0  0  0  0  0  0  0  0  0  0  0
   -1.3928   -1.5826   -2.5104 C   0  0  0  0  0  0  0  0  0  0  0  0
   -0.9114   -2.8944   -2.5360 C   0  0  0  0  0  0  0  0  0  0  0  0
    0.1898   -3.2228   -1.7380 C   0  0  0  0  0  0  0  0  0  0  0  0
    0.8243   -2.2372   -0.9583 C   0  0  0  0  0  0  0  0  0  0  0  0
    0.2830    0.8765    0.7486 C   0  0  0  0  0  0  0  0  0  0  0  0
   -0.9910    0.9702    0.9218 N   0  0  0  0  0  0  0  0  0  0  0  0
    1.0386    1.6858    1.5121 N   0  0  0  0  0  0  0  0  0  0  0  0
   -1.5515   -3.8678   -3.4613 C   0  0  0  0  0  0  0  0  0  0  0  0
   -2.4867   -3.6281   -4.2094 O   0  0  0  0  0  0  0  0  0  0  0  0
   -0.9563   -5.0740   -3.4574 O   0  0  0  0  0  0  0  0  0  0  0  0
  1  8  1  0
  1  2  1  0
  2  3  2  0
  3  4  1  0
  4  5  2  0
  5 11  1  0
  5  6  1  0
  6  7  2  0
  7  2  1  0
  8  9  2  0
  8 10  1  0
 11 12  2  0
 11 13  1  0
M  END
>  <DRUGBANK_ID>  (1) 
DB02459

>  <SECONDARY_ACCESSION_NUMBERS>  (1) 
EXPT01553

>  <COMMON_NAME>  (1) 
4-guanidinobenzoic acid

>  <CAS_NUMBER>  (1) 
16060-65-4

>  <SYNONYMS>  (1) 
4-Guanidino-benzoic acid; p-guanidinobenzoic acid

$$$$
