
     RDKit          3D

 28 31  0  0  0  0  0  0  0  0999 V2000
   -0.7496   -0.8797   -0.3366 N   0  0  0  0  0  0  0  0  0  0  0  0
    0.5785   -1.0573   -0.0402 C   0  0  0  0  0  0  0  0  0  0  0  0
   -1.0814    0.3559    0.1049 C   0  0  0  0  0  0  0  0  0  0  0  0
    1.1611    0.3468    0.0892 C   0  0  1  0  0  0  0  0  0  0  0  0
   -0.0010    1.1707   -0.0649 O   0  0  0  0  0  0  0  0  0  0  0  0
   -1.6295   -1.9888   -0.3581 N   0  0  0  0  0  0  0  0  0  0  0  0
    1.8321    0.6957    1.4073 C   0  0  0  0  0  0  0  0  0  0  0  0
    1.1842   -2.1126    0.0956 O   0  0  0  0  0  0  0  0  0  0  0  0
   -2.1232    0.7596    0.6086 O   0  0  0  0  0  0  0  0  0  0  0  0
    3.9636    1.8799    4.8177 O   0  0  0  0  0  0  0  0  0  0  0  0
    2.9504   -0.0369    1.8117 C   0  0  0  0  0  0  0  0  0  0  0  0
    1.4733    1.8348    2.1546 C   0  0  0  0  0  0  0  0  0  0  0  0
   -2.9641   -1.7575   -0.8084 C   0  0  0  0  0  0  0  0  0  0  0  0
    3.3421    1.4820    3.6530 C   0  0  0  0  0  0  0  0  0  0  0  0
    2.1708    0.5868   -1.0411 C   0  0  0  0  0  0  0  0  0  0  0  0
    3.6868    0.3458    2.9230 C   0  0  0  0  0  0  0  0  0  0  0  0
    2.2546    2.2530    3.2370 C   0  0  0  0  0  0  0  0  0  0  0  0
    5.0365    1.1527    5.2828 C   0  0  0  0  0  0  0  0  0  0  0  0
   -3.3646   -0.7822   -1.7359 C   0  0  0  0  0  0  0  0  0  0  0  0
   -3.9471   -2.6320   -0.3225 C   0  0  0  0  0  0  0  0  0  0  0  0
    6.2161    1.0438    4.5408 C   0  0  0  0  0  0  0  0  0  0  0  0
    4.9673    0.6124    6.5673 C   0  0  0  0  0  0  0  0  0  0  0  0
   -5.2909   -2.5015   -0.6870 C   0  0  0  0  0  0  0  0  0  0  0  0
    6.0947   -0.0021    7.1189 C   0  0  0  0  0  0  0  0  0  0  0  0
    7.3088    0.3536    5.0606 C   0  0  0  0  0  0  0  0  0  0  0  0
   -4.7231   -0.6135   -2.0591 C   0  0  0  0  0  0  0  0  0  0  0  0
    7.2521   -0.1601    6.3545 C   0  0  0  0  0  0  0  0  0  0  0  0
   -5.6872   -1.4624   -1.5204 C   0  0  0  0  0  0  0  0  0  0  0  0
  2  1  1  0
  3  1  1  0
  4  2  1  0
  4  7  1  0
  4 15  1  6
  5  3  1  0
  5  4  1  0
  6  1  1  0
  8  2  2  0
  9  3  2  0
 10 14  1  0
 11  7  2  0
 12  7  1  0
 13  6  1  0
 14 17  1  0
 14 16  2  0
 16 11  1  0
 17 12  2  0
 18 10  1  0
 19 13  2  0
 20 13  1  0
 21 18  2  0
 22 18  1  0
 23 20  2  0
 24 22  2  0
 25 21  1  0
 25 27  2  0
 26 19  1  0
 26 28  2  0
 27 24  1  0
 28 23  1  0
M  END
>  <DRUGBANK_ID>  (1) 
DB07778

>  <COMMON_NAME>  (1) 
(S)-famoxadone

>  <CAS_NUMBER>  (1) 
132584-12-4

>  <SYNONYMS>  (1) 
(−)-famoxadone; (S)-(−)-famoxadone; (S)-5-Methyl-5-(4-phenoxy-phenyl)-3-phenylamino-oxazolidine-2,4-dione

$$$$
