
     RDKit          3D

  6  5  0  0  0  0  0  0  0  0999 V2000
    1.0260   -0.1377    0.0289 C   0  0  0  0  0  0  0  0  0  0  0  0
    0.3604   -1.7175    0.6109 S   0  0  0  0  0  0  0  0  0  0  0  0
    1.0319   -2.8655   -0.6491 C   0  0  0  0  0  0  0  0  0  0  0  0
    0.5130   -2.4976   -2.0479 C   0  0  0  0  0  0  0  0  0  0  0  0
    1.4279   -2.2636   -2.8975 O   0  0  0  0  0  0  0  0  0  0  0  0
   -0.7358   -2.5295   -2.2252 O   0  0  0  0  0  0  0  0  0  0  0  0
  1  2  1  0
  2  3  1  0
  3  4  1  0
  4  5  1  0
  4  6  2  0
M  CHG  1   5  -1
M  END
>  <DRUGBANK_ID>  (1) 
DB03517

>  <SECONDARY_ACCESSION_NUMBERS>  (1) 
EXPT02243

>  <COMMON_NAME>  (1) 
[Methylthio]Acetate

$$$$
