GVQ
     RDKit          3D

 16 17  0  0  0  0  0  0  0  0999 V2000
    1.6887    1.2243    0.0105 C   0  0  0  0  0  0  0  0  0  0  0  0
    0.2878    1.2420   -0.0012 C   0  0  0  0  0  0  0  0  0  0  0  0
   -0.4310    0.0487   -0.0156 C   0  0  0  0  0  0  0  0  0  0  0  0
    0.2347   -1.1679   -0.0519 C   0  0  0  0  0  0  0  0  0  0  0  0
    5.0678   -0.4478    3.6254 C   0  0  0  0  0  0  0  0  0  0  0  0
    4.6272   -1.7391    3.8925 C   0  0  0  0  0  0  0  0  0  0  0  0
    4.1943   -2.5547    2.8518 C   0  0  0  0  0  0  0  0  0  0  0  0
    4.1573   -2.0461    1.5580 C   0  0  0  0  0  0  0  0  0  0  0  0
    3.9248   -0.0264    0.0155 C   0  0  2  0  0  0  0  0  0  0  0  0
    4.9718    0.0819    2.3348 C   0  0  0  0  0  0  0  0  0  0  0  0
    4.4190   -0.6940    1.3033 C   0  0  0  0  0  0  0  0  0  0  0  0
    2.3819    0.0045   -0.0162 C   0  0  0  0  0  0  0  0  0  0  0  0
    1.6256   -1.1811   -0.0796 C   0  0  0  0  0  0  0  0  0  0  0  0
    4.5042   -0.6849   -1.2614 C   0  0  0  0  0  0  0  0  0  0  0  0
    4.0814    0.0004   -2.4906 N   0  0  0  0  0  0  0  0  0  0  0  0
   -2.1498    0.0658   -0.0061 Cl  0  0  0  0  0  0  0  0  0  0  0  0
  1  2  2  0
  1 12  1  0
  2  3  1  0
  3  4  2  0
  3 16  1  0
  4 13  1  0
  5  6  2  0
  5 10  1  0
  6  7  1  0
  7  8  2  0
  8 11  1  0
  9 11  1  0
  9 12  1  0
  9 14  1  6
 10 11  2  0
 12 13  2  0
 14 15  1  0
M  END
>  <DRUGBANK_ID>  (1) 
DB07860

>  <COMMON_NAME>  (1) 
(2R)-2-(4-CHLOROPHENYL)-2-PHENYLETHANAMINE

$$$$
