1459
     RDKit          3D

 37 41  0  0  0  0  0  0  0  0999 V2000
    1.2342   -0.1671   -0.1835 O   0  0  0  0  0  0  0  0  0  0  0  0
    1.5169   -2.7036    0.0218 O   0  0  0  0  0  0  0  0  0  0  0  0
    1.2706    5.2754    0.3412 N   0  0  0  0  0  0  0  0  0  0  0  0
    3.3024    1.1903    0.0347 N   0  0  0  0  0  0  0  0  0  0  0  0
    3.2690   -1.1488    0.0588 N   0  0  0  0  0  0  0  0  0  0  0  0
    0.7311    1.9656    0.2277 N   0  0  0  0  0  0  0  0  0  0  0  0
    2.9037    2.6397    0.0901 C   0  0  0  0  0  0  0  0  0  0  0  0
    2.3732    3.1151    1.5289 C   0  0  0  0  0  0  0  0  0  0  0  0
    3.2268    3.9389   -0.6816 C   0  0  0  0  0  0  0  0  0  0  0  0
    1.3203    4.2920    1.4574 C   0  0  0  0  0  0  0  0  0  0  0  0
    1.8883    4.7413   -0.8959 C   0  0  0  0  0  0  0  0  0  0  0  0
   -0.1630    5.6711    0.0288 C   0  0  0  0  0  0  0  0  0  0  0  0
   -1.1702    4.7621   -0.8306 C   0  0  0  0  0  0  0  0  0  0  0  0
    4.5943    0.7299    0.0678 C   0  0  0  0  0  0  0  0  0  0  0  0
   -1.6272    3.3593   -0.2515 C   0  0  0  0  0  0  0  0  0  0  0  0
    2.4074   -0.0185   -0.0326 C   0  0  0  0  0  0  0  0  0  0  0  0
    4.5892   -0.6734    0.1162 C   0  0  0  0  0  0  0  0  0  0  0  0
   -2.4296    3.5559    1.0757 C   0  0  0  0  0  0  0  0  0  0  0  0
   -2.4664    2.5249   -1.2431 C   0  0  0  0  0  0  0  0  0  0  0  0
    5.7333    1.4894    0.0307 C   0  0  0  0  0  0  0  0  0  0  0  0
    5.7882   -1.3369    0.1888 C   0  0  0  0  0  0  0  0  0  0  0  0
    2.7197   -2.4288    0.0007 C   0  0  0  0  0  0  0  0  0  0  0  0
   -0.3382    2.5976    0.0104 C   0  0  0  0  0  0  0  0  0  0  0  0
    6.9356    0.8022    0.0119 C   0  0  0  0  0  0  0  0  0  0  0  0
    6.9615   -0.5976    0.0796 C   0  0  0  0  0  0  0  0  0  0  0  0
   -2.8926    2.4565    1.8190 C   0  0  0  0  0  0  0  0  0  0  0  0
   -2.3975    1.1116   -1.2033 C   0  0  0  0  0  0  0  0  0  0  0  0
   -2.7534    4.8288    1.5869 C   0  0  0  0  0  0  0  0  0  0  0  0
   -3.2991    3.1076   -2.2058 C   0  0  0  0  0  0  0  0  0  0  0  0
    3.6498   -3.6068   -0.0639 C   0  0  0  0  0  0  0  0  0  0  0  0
   -3.7248    2.6383    2.9286 C   0  0  0  0  0  0  0  0  0  0  0  0
   -2.9594    0.3321   -2.2053 C   0  0  0  0  0  0  0  0  0  0  0  0
   -3.3870    5.0052    2.8118 C   0  0  0  0  0  0  0  0  0  0  0  0
   -3.9459    2.3121   -3.1538 C   0  0  0  0  0  0  0  0  0  0  0  0
    4.4131   -3.6511   -1.3748 C   0  0  0  0  0  0  0  0  0  0  0  0
   -3.9521    3.9120    3.4379 C   0  0  0  0  0  0  0  0  0  0  0  0
   -3.7173    0.9380   -3.1957 C   0  0  0  0  0  0  0  0  0  0  0  0
  1 16  2  0
  2 22  2  0
  3 10  1  0
  3 11  1  0
  3 12  1  0
  4  7  1  0
  4 14  1  0
  4 16  1  0
  5 16  1  0
  5 17  1  0
  5 22  1  0
  6 23  3  0
  7  8  1  0
  7  9  1  0
  8 10  1  0
  9 11  1  0
 12 13  1  0
 13 15  1  0
 14 17  2  0
 14 20  1  0
 15 18  1  0
 15 19  1  0
 15 23  1  0
 17 21  1  0
 18 26  2  0
 18 28  1  0
 19 27  2  0
 19 29  1  0
 20 24  2  0
 21 25  2  0
 22 30  1  0
 24 25  1  0
 26 31  1  0
 27 32  1  0
 28 33  2  0
 29 34  2  0
 30 35  1  0
 31 36  2  0
 32 37  2  0
 33 36  1  0
 34 37  1  0
M  END
>  <DRUGBANK_ID>  (1) 
DB01459

>  <COMMON_NAME>  (1) 
Bezitramide

>  <CAS_NUMBER>  (1) 
15301-48-1

>  <UNII>  (1) 
3KXW0Y310I

>  <SYNONYMS>  (1) 
Bezitramida; Bezitramide; Bezitramidum

$$$$
