
     RDKit          3D

 29 30  0  0  1  0  0  0  0  0999 V2000
   -7.6463    3.5816    4.7004 C   0  0  0  0  0  0  0  0  0  0  0  0
   -6.4265    3.9888    4.0764 O   0  0  0  0  0  0  0  0  0  0  0  0
   -5.2850    3.4964    4.6293 C   0  0  0  0  0  0  0  0  0  0  0  0
   -5.2408    2.8297    5.6544 O   0  0  0  0  0  0  0  0  0  0  0  0
   -4.0624    3.8985    3.8290 C   0  0  0  0  0  0  0  0  0  0  0  0
   -4.0171    3.2912    2.4283 C   0  0  0  0  0  0  0  0  0  0  0  0
   -5.1052    3.7906    1.5193 C   0  0  0  0  0  0  0  0  0  0  0  0
   -4.9276    4.4853    0.4523 C   0  0  0  0  0  0  0  0  0  0  0  0
   -4.7649    5.2089   -0.6270 C   0  0  0  0  0  0  0  0  0  0  0  0
   -4.5187    6.6881   -0.6107 C   0  0  0  0  0  0  0  0  0  0  0  0
   -3.1043    6.9972   -1.1283 C   0  0  1  0  0  0  0  0  0  0  0  0
   -3.0365    8.0577   -2.2239 C   0  0  1  0  0  0  0  0  0  0  0  0
   -2.9619    9.4591   -1.6060 C   0  0  2  0  0  0  0  0  0  0  0  0
   -2.7186    9.2309   -0.1234 C   0  0  0  0  0  0  0  0  0  0  0  0
   -2.3503    7.7682   -0.0920 C   0  0  0  0  0  0  0  0  0  0  0  0
   -1.5563    7.2651    0.6901 O   0  0  0  0  0  0  0  0  0  0  0  0
   -4.2134   10.1082   -1.8530 O   0  0  0  0  0  0  0  0  0  0  0  0
   -1.8356    7.7831   -3.1387 C   0  0  0  0  0  0  0  0  0  0  0  0
   -2.1382    7.6027   -4.4204 C   0  0  0  0  0  0  0  0  0  0  0  0
   -1.4664    7.2116   -5.6909 C   0  0  1  0  0  0  0  0  0  0  0  0
   -1.9890    5.8721   -6.3147 C   0  0  0  0  0  0  0  0  0  0  0  0
   -3.2677    5.8271   -7.0291 O   0  0  0  0  0  0  0  0  0  0  0  0
   -4.4211    6.1146   -6.3561 C   0  0  0  0  0  0  0  0  0  0  0  0
   -4.6492    7.3779   -5.8536 C   0  0  0  0  0  0  0  0  0  0  0  0
   -5.6336    7.6360   -4.9027 C   0  0  0  0  0  0  0  0  0  0  0  0
   -6.6948    6.7746   -4.8189 C   0  0  0  0  0  0  0  0  0  0  0  0
   -6.6963    5.6701   -5.6673 C   0  0  0  0  0  0  0  0  0  0  0  0
   -5.5241    5.2776   -6.3531 C   0  0  0  0  0  0  0  0  0  0  0  0
   -1.5883    8.2910   -6.6208 O   0  0  0  0  0  0  0  0  0  0  0  0
  1  2  1  0
  2  3  1  0
  3  4  2  0
  3  5  1  0
  5  6  1  0
  6  7  1  0
  7  8  2  0
  8  9  2  0
  9 10  1  0
 11 12  1  0
 11 15  1  0
 11 10  1  1
 12 13  1  0
 12 18  1  1
 13 14  1  0
 13 17  1  1
 14 15  1  0
 15 16  2  0
 18 19  2  0
 19 20  1  0
 20 21  1  0
 20 29  1  6
 21 22  1  0
 22 23  1  0
 23 24  2  0
 23 28  1  0
 24 25  1  0
 25 26  2  0
 26 27  1  0
 27 28  2  0
M  END
>  <DRUGBANK_ID>  (1) 
DB13824

>  <COMMON_NAME>  (1) 
Enprostil

>  <CAS_NUMBER>  (1) 
73121-56-9

>  <UNII>  (1) 
J4IP5Z9DAU

>  <SYNONYMS>  (1) 
Enprostil

$$$$
