
     RDKit          3D

 27 27  0  0  1  0  0  0  0  0999 V2000
    6.9511   -1.2123  -10.6017 C   0  0  0  0  0  0  0  0  0  0  0  0
    8.3593   -1.6100  -10.2003 C   0  0  0  0  0  0  0  0  0  0  0  0
    9.0704   -0.4404   -9.5220 C   0  0  0  0  0  0  0  0  0  0  0  0
    8.3710   -0.0104   -8.2293 C   0  0  0  0  0  0  0  0  0  0  0  0
    8.2059   -1.1805   -7.2650 C   0  0  0  0  0  0  0  0  0  0  0  0
    9.5178   -1.6768   -6.6134 C   0  0  2  0  0  0  0  0  0  0  0  0
    9.7032   -1.2606   -5.1969 C   0  0  0  0  0  0  0  0  0  0  0  0
    8.8152   -0.5507   -4.4953 C   0  0  0  0  0  0  0  0  0  0  0  0
    8.9602   -0.2151   -3.0934 C   0  0  0  0  0  0  0  0  0  0  0  0
   10.1021    0.4579   -2.6671 C   0  0  0  0  0  0  0  0  0  0  0  0
   10.2227    0.8277   -1.3357 C   0  0  0  0  0  0  0  0  0  0  0  0
    9.1831    0.5784   -0.4479 C   0  0  0  0  0  0  0  0  0  0  0  0
    8.0171   -0.0325   -0.8901 C   0  0  0  0  0  0  0  0  0  0  0  0
    7.9152   -0.5014   -2.2011 C   0  0  0  0  0  0  0  0  0  0  0  0
    6.8183   -1.3828   -2.6138 C   0  0  0  0  0  0  0  0  0  0  0  0
    5.9160   -1.8750   -1.7627 C   0  0  0  0  0  0  0  0  0  0  0  0
    4.9652   -2.9191   -2.1981 C   0  0  2  0  0  0  0  0  0  0  0  0
    3.8922   -3.2984   -1.1423 C   0  0  2  0  0  0  0  0  0  0  0  0
    2.4675   -3.1941   -1.7014 C   0  0  0  0  0  0  0  0  0  0  0  0
    2.2932   -3.7596   -3.1100 C   0  0  0  0  0  0  0  0  0  0  0  0
    2.8033   -5.1912   -3.2454 C   0  0  0  0  0  0  0  0  0  0  0  0
    1.9809   -6.1592   -2.4502 C   0  0  0  0  0  0  0  0  0  0  0  0
    1.2812   -7.0530   -2.9125 O   0  0  0  0  0  0  0  0  0  0  0  0
    2.0650   -5.9648   -1.1222 O   0  0  0  0  0  0  0  0  0  0  0  0
    3.9154   -2.4462    0.0104 O   0  0  0  0  0  0  0  0  0  0  0  0
    5.7328   -4.0637   -2.5841 O   0  0  0  0  0  0  0  0  0  0  0  0
   10.6980   -1.2283   -7.2676 O   0  0  0  0  0  0  0  0  0  0  0  0
  1  2  1  0
  2  3  1  0
  3  4  1  0
  4  5  1  0
  6 27  1  6
  6  7  1  0
  6  5  1  0
  7  8  2  0
  8  9  1  0
  9 10  2  0
  9 14  1  0
 10 11  1  0
 11 12  2  0
 12 13  1  0
 13 14  2  0
 14 15  1  0
 15 16  2  0
 17 26  1  1
 17 18  1  0
 17 16  1  0
 18 25  1  1
 18 19  1  0
 19 20  1  0
 20 21  1  0
 21 22  1  0
 22 23  2  0
 22 24  1  0
M  END
>  <DRUGBANK_ID>  (1) 
DB12133

>  <COMMON_NAME>  (1) 
BLXA4

>  <CAS_NUMBER>  (1) 
864516-86-9

>  <UNII>  (1) 
LXE89WJ787

$$$$
