
     RDKit          3D

 21 21  0  0  0  0  0  0  0  0999 V2000
    1.0346    0.0719    0.2015 C   0  0  0  0  0  0  0  0  0  0  0  0
   -1.0621    3.0329   -4.3342 C   0  0  0  0  0  0  0  0  0  0  0  0
    5.9588    5.0022   -4.3409 C   0  0  0  0  0  0  0  0  0  0  0  0
    0.4811    1.4918    0.0294 C   0  0  0  0  0  0  0  0  0  0  0  0
   -1.5840    2.4822   -3.0079 C   0  0  0  0  0  0  0  0  0  0  0  0
    0.9352    2.1028   -1.2712 C   0  0  0  0  0  0  0  0  0  0  0  0
    0.4820    1.2558   -2.4409 C   0  0  0  0  0  0  0  0  0  0  0  0
    3.6161    1.6689   -3.4078 C   0  0  0  0  0  0  0  0  0  0  0  0
    4.8800    0.3112   -4.8428 C   0  0  0  0  0  0  0  0  0  0  0  0
    2.8453   -0.7191   -3.7954 C   0  0  0  0  0  0  0  0  0  0  0  0
    4.3759    2.8063   -3.6921 C   0  0  0  0  0  0  0  0  0  0  0  0
    5.6464    1.4526   -5.1760 C   0  0  0  0  0  0  0  0  0  0  0  0
    1.5487   -0.7022   -4.1849 C   0  0  0  0  0  0  0  0  0  0  0  0
   -1.3242    0.0532   -3.7834 C   0  0  0  0  0  0  0  0  0  0  0  0
   -1.0134    1.0949   -2.6810 C   0  0  0  0  0  0  0  0  0  0  0  0
    3.7801    0.4205   -4.0130 C   0  0  0  0  0  0  0  0  0  0  0  0
    5.3952    2.7106   -4.6115 C   0  0  0  0  0  0  0  0  0  0  0  0
    0.5402   -1.6848   -3.6672 C   0  0  0  0  0  0  0  0  0  0  0  0
    0.8682   -2.7898   -3.2905 O   0  0  0  0  0  0  0  0  0  0  0  0
    6.1938    3.7521   -4.9963 O   0  0  0  0  0  0  0  0  0  0  0  0
   -0.7567   -1.2600   -3.5224 O   0  0  0  0  0  0  0  0  0  0  0  0
  4  1  1  0
  5  2  1  0
  6  4  1  0
  7  6  1  0
 11  8  2  0
 12  9  1  0
 13 10  2  0
 15  5  1  0
 15  7  1  0
 15 14  1  0
 16  8  1  0
 16  9  2  0
 16 10  1  0
 17 11  1  0
 17 12  2  0
 18 13  1  0
 19 18  2  0
 20  3  1  0
 20 17  1  0
 21 14  1  0
 21 18  1  0
M  END
>  <DRUGBANK_ID>  (1) 
DB09496

>  <COMMON_NAME>  (1) 
Octinoxate

>  <CAS_NUMBER>  (1) 
5466-77-3

>  <UNII>  (1) 
4Y5P7MUD51

>  <SYNONYMS>  (1) 
ethylhexyl methoxycinnamate; ethylhexyl p-methoxycinnamate; Octinoxate; octyl methoxycinnamate; parsol

$$$$
