
     RDKit          3D

 36 40  0  0  1  0  0  0  0  0999 V2000
   -1.8918    2.4464   -0.2907 C   0  0  0  0  0  0  0  0  0  0  0  0
   -0.6465    2.2807    1.5198 O   0  0  0  0  0  0  0  0  0  0  0  0
    0.0478    3.1599    2.3163 C   0  0  0  0  0  0  0  0  0  0  0  0
   -0.1937    4.5442    2.1221 C   0  0  0  0  0  0  0  0  0  0  0  0
    0.3914    5.3426    2.9931 C   0  0  0  0  0  0  0  0  0  0  0  0
    1.1689    4.7118    3.9659 C   0  0  0  0  0  0  0  0  0  0  0  0
    1.2480    3.2824    4.1412 C   0  0  0  0  0  0  0  0  0  0  0  0
    0.7716    2.4277    3.2035 C   0  0  0  0  0  0  0  0  0  0  0  0
    0.9345    1.0555    3.1647 O   0  0  0  0  0  0  0  0  0  0  0  0
    0.4391    0.1875    2.0283 C   0  0  0  0  0  0  0  0  0  0  0  0
   -1.0411    0.2434    1.8633 C   0  0  2  0  0  0  0  0  0  0  0  0
   -1.8576   -0.9155    1.6398 O   0  0  0  0  0  0  0  0  0  0  0  0
   -2.9680   -0.4794    2.8928 P   0  0  0  0  0  0  0  0  0  0  0  0
   -1.7573   -0.5396    4.0064 O   0  0  0  0  0  0  0  0  0  0  0  0
   -3.3332    0.9716    2.2971 O   0  0  0  0  0  0  0  0  0  0  0  0
   -3.9618   -0.0892    4.0141 O   0  0  0  0  0  0  0  0  0  0  0  0
   -1.4858    1.1648    0.7630 C   0  0  0  0  0  0  0  0  0  0  0  0
   -0.4122    3.0244    0.1630 C   0  0  0  0  0  0  0  0  0  0  0  0
   -2.1480    2.9948    1.4424 C   0  0  0  0  0  0  0  0  0  0  0  0
    0.2559    6.7142    2.8151 N   0  0  0  0  0  0  0  0  0  0  0  0
   -0.9915    7.3505    2.8196 C   0  0  0  0  0  0  0  0  0  0  0  0
   -1.2016    8.6351    2.7156 N   0  0  0  0  0  0  0  0  0  0  0  0
   -0.0132    9.3737    2.5466 C   0  0  0  0  0  0  0  0  0  0  0  0
    1.2059    8.7703    2.4599 C   0  0  0  0  0  0  0  0  0  0  0  0
    2.4996    9.7988    2.2347 S   0  0  0  0  0  0  0  0  0  0  0  0
    1.4531   11.1336    2.2532 C   0  0  0  0  0  0  0  0  0  0  0  0
    0.1180   10.7817    2.4341 C   0  0  0  0  0  0  0  0  0  0  0  0
    2.0791   12.4251    2.0766 C   0  0  0  0  0  0  0  0  0  0  0  0
    2.7973   12.7084    0.9067 C   0  0  0  0  0  0  0  0  0  0  0  0
    3.2824   13.9907    0.6751 C   0  0  0  0  0  0  0  0  0  0  0  0
    3.0572   14.9830    1.6201 C   0  0  0  0  0  0  0  0  0  0  0  0
    3.7369   16.5474    1.4092 Cl  0  0  0  0  0  0  0  0  0  0  0  0
    2.3308   14.7021    2.7745 C   0  0  0  0  0  0  0  0  0  0  0  0
    1.9359   13.3992    3.0556 C   0  0  0  0  0  0  0  0  0  0  0  0
    1.4293    7.3859    2.5667 C   0  0  0  0  0  0  0  0  0  0  0  0
    2.5291    6.8533    2.4362 O   0  0  0  0  0  0  0  0  0  0  0  0
  1  2  1  0
  2  3  1  0
  3  4  2  0
  3  8  1  0
  4  5  1  0
  5  6  2  0
  5 20  1  0
  6  7  1  0
  7  8  2  0
  8  9  1  0
  9 10  1  0
 11 17  1  0
 11 12  1  0
 11 10  1  6
 12 13  1  0
 13 14  1  0
 13 15  1  0
 13 16  2  0
 17 18  1  0
 17 19  1  0
 18 19  1  0
 20 21  1  0
 20 35  1  0
 21 22  2  0
 22 23  1  0
 23 24  2  0
 23 27  1  0
 24 25  1  0
 24 35  1  0
 25 26  1  0
 26 27  2  0
 26 28  1  0
 28 29  2  0
 28 34  1  0
 29 30  1  0
 30 31  2  0
 31 32  1  0
 31 33  1  0
 33 34  2  0
 35 36  2  0
M  END
>  <DRUGBANK_ID>  (1) 
DB14787

>  <COMMON_NAME>  (1) 
BMS-830216

>  <CAS_NUMBER>  (1) 
1197420-06-6

>  <UNII>  (1) 
ISL723GVQ8

$$$$
