C52
     RDKit          3D

 29 32  0  0  0  0  0  0  0  0999 V2000
   -1.1430   -1.3816    0.1274 C   0  0  0  0  0  0  0  0  0  0  0  0
    0.0607   -0.6751    0.0868 C   0  0  0  0  0  0  0  0  0  0  0  0
    1.2897   -1.2974    0.0131 C   0  0  0  0  0  0  0  0  0  0  0  0
    2.4500   -0.6275   -0.0636 N   0  0  0  0  0  0  0  0  0  0  0  0
    2.3640    0.7055   -0.0283 C   0  0  0  0  0  0  0  0  0  0  0  0
    3.5269    1.4052   -0.1375 N   0  0  0  0  0  0  0  0  0  0  0  0
    1.2311    1.4086    0.0718 N   0  0  0  0  0  0  0  0  0  0  0  0
    0.0858    0.7217    0.0973 C   0  0  0  0  0  0  0  0  0  0  0  0
   -1.1270    1.3963    0.0755 C   0  0  0  0  0  0  0  0  0  0  0  0
   -2.3285    0.7101   -0.0747 C   0  0  0  0  0  0  0  0  0  0  0  0
   -2.3428   -0.6788    0.0255 C   0  0  0  0  0  0  0  0  0  0  0  0
   -3.6046   -1.4152    0.0760 C   0  0  0  0  0  0  0  0  0  0  0  0
   -3.9273   -2.1527    1.3426 C   0  0  0  0  0  0  0  0  0  0  0  0
   -3.2507   -1.9250    2.3592 O   0  0  0  0  0  0  0  0  0  0  0  0
   -4.4429   -1.4826   -0.9781 C   0  0  0  0  0  0  0  0  0  0  0  0
   -4.1945   -0.8100   -2.3036 C   0  0  0  0  0  0  0  0  0  0  0  0
   -5.5965   -2.3571   -0.8939 C   0  0  0  0  0  0  0  0  0  0  0  0
   -5.7300   -3.2182    0.1239 C   0  0  0  0  0  0  0  0  0  0  0  0
   -4.9518   -3.1026    1.2675 N   0  0  0  0  0  0  0  0  0  0  0  0
   -5.3434   -3.7427    2.4817 C   0  0  0  0  0  0  0  0  0  0  0  0
   -5.5870   -2.9578    3.6212 C   0  0  0  0  0  0  0  0  0  0  0  0
   -5.4668   -5.1295    2.5669 C   0  0  0  0  0  0  0  0  0  0  0  0
   -5.8056   -5.7219    3.7865 C   0  0  0  0  0  0  0  0  0  0  0  0
   -5.9428   -4.9400    4.9363 C   0  0  0  0  0  0  0  0  0  0  0  0
   -5.8289   -3.5466    4.8666 C   0  0  0  0  0  0  0  0  0  0  0  0
   -5.9224   -2.7114    6.1171 C   0  0  0  0  0  0  0  0  0  0  0  0
   -4.9445   -3.0151    7.0159 F   0  0  0  0  0  0  0  0  0  0  0  0
   -5.8259   -1.3708    5.8977 F   0  0  0  0  0  0  0  0  0  0  0  0
   -7.1008   -2.8959    6.7752 F   0  0  0  0  0  0  0  0  0  0  0  0
  1  2  2  0
  2  8  1  0
  2  3  1  0
  3  4  2  0
  4  5  1  0
  5  6  1  0
  7  5  2  0
  8  7  1  0
  9  8  2  0
 10  9  1  0
 11  1  1  0
 11 10  2  0
 12 11  1  0
 12 15  2  0
 13 12  1  0
 14 13  2  0
 15 16  1  0
 17 15  1  0
 18 17  2  0
 19 13  1  0
 19 18  1  0
 20 19  1  0
 21 20  2  0
 22 20  1  0
 23 22  2  0
 24 23  1  0
 24 25  2  0
 25 21  1  0
 26 25  1  0
 26 29  1  0
 27 26  1  0
 28 26  1  0
M  END
>  <DRUGBANK_ID>  (1) 
DB07528

>  <COMMON_NAME>  (1) 
3-(2-aminoquinazolin-6-yl)-4-methyl-1-[3-(trifluoromethyl)phenyl]pyridin-2(1H)-one

$$$$
