
     RDKit          3D

 36 40  0  0  0  0  0  0  0  0999 V2000
    0.3779    1.1189    0.0034 N   0  0  0  0  0  0  0  0  0  0  0  0
   -0.9689    1.2153    0.0010 C   0  0  0  0  0  0  0  0  0  0  0  0
    0.9376   -0.1284    0.0099 C   0  0  0  0  0  0  0  0  0  0  0  0
    0.1661   -1.3030    0.0234 C   0  0  0  0  0  0  0  0  0  0  0  0
    2.4387   -0.1035   -0.0022 C   0  0  0  0  0  0  0  0  0  0  0  0
    0.7406   -2.6044    0.0567 N   0  0  0  0  0  0  0  0  0  0  0  0
   -1.2229   -1.1345    0.0026 C   0  0  0  0  0  0  0  0  0  0  0  0
   -1.8036    0.1246   -0.0069 C   0  0  0  0  0  0  0  0  0  0  0  0
    0.0326   -3.7894    0.0462 C   0  0  0  0  0  0  0  0  0  0  0  0
    0.8166   -5.0304    0.0134 C   0  0  0  0  0  0  0  0  0  0  0  0
    0.3628   -6.0473   -0.8221 C   0  0  0  0  0  0  0  0  0  0  0  0
    0.9987   -7.2784   -0.8115 C   0  0  0  0  0  0  0  0  0  0  0  0
    2.0828   -7.5383    0.0571 C   0  0  0  0  0  0  0  0  0  0  0  0
    2.5589   -8.9878    0.2350 C   0  0  1  0  0  0  0  0  0  0  0  0
    1.3867   -9.8512    0.8162 C   0  0  0  0  0  0  0  0  0  0  0  0
    1.0283   -9.5701    2.2436 C   0  0  0  0  0  0  0  0  0  0  0  0
    0.4324   -8.3537    2.5376 C   0  0  0  0  0  0  0  0  0  0  0  0
    0.3625   -7.9206    3.8468 C   0  0  0  0  0  0  0  0  0  0  0  0
    0.7023   -8.7851    4.8829 C   0  0  0  0  0  0  0  0  0  0  0  0
    1.1753  -10.0590    4.6100 C   0  0  0  0  0  0  0  0  0  0  0  0
    1.4121  -10.4143    3.2968 C   0  0  0  0  0  0  0  0  0  0  0  0
    2.8020   -9.6079   -1.1602 C   0  0  0  0  0  0  0  0  0  0  0  0
    3.3068  -11.0477   -1.1399 C   0  0  0  0  0  0  0  0  0  0  0  0
    4.2366  -11.4599    0.0191 C   0  0  1  0  0  0  0  0  0  0  0  0
    4.7839  -10.2539    0.7974 C   0  0  0  0  0  0  0  0  0  0  0  0
    3.7737   -9.1774    1.2072 C   0  0  1  0  0  0  0  0  0  0  0  0
    4.4929   -7.9144    1.6893 C   0  0  0  0  0  0  0  0  0  0  0  0
    3.5910   -6.7203    1.9368 C   0  0  0  0  0  0  0  0  0  0  0  0
    2.5465   -6.4966    0.8838 C   0  0  0  0  0  0  0  0  0  0  0  0
    1.8948   -5.2483    0.8703 C   0  0  0  0  0  0  0  0  0  0  0  0
   -1.1954   -3.9368    0.0261 O   0  0  0  0  0  0  0  0  0  0  0  0
    3.6491  -12.6071    0.9176 C   0  0  0  0  0  0  0  0  0  0  0  0
    5.3934  -12.0334   -0.6556 O   0  0  0  0  0  0  0  0  0  0  0  0
    3.3517  -13.6772    0.1357 F   0  0  0  0  0  0  0  0  0  0  0  0
    4.5385  -13.0164    1.8487 F   0  0  0  0  0  0  0  0  0  0  0  0
    2.5226  -12.3404    1.5803 F   0  0  0  0  0  0  0  0  0  0  0  0
  1  2  2  0
  1  3  1  0
  2  8  1  0
  3  4  2  0
  4  6  1  0
  5  3  1  0
  7  4  1  0
  8  7  2  0
  9  6  1  0
  9 10  1  0
 10 30  1  0
 11 10  2  0
 11 12  1  0
 12 13  2  0
 13 29  1  0
 14 22  1  0
 14 13  1  0
 14 15  1  1
 16 15  1  0
 17 16  2  0
 17 18  1  0
 18 19  2  0
 19 20  1  0
 20 21  2  0
 21 16  1  0
 22 23  1  0
 24 25  1  0
 24 23  1  0
 24 32  1  0
 24 33  1  6
 26 27  1  6
 26 14  1  0
 26 25  1  0
 27 28  1  0
 29 28  1  0
 30 29  2  0
 31  9  2  0
 32 34  1  0
 32 35  1  0
 32 36  1  0
M  END
>  <DRUGBANK_ID>  (1) 
DB14676

>  <COMMON_NAME>  (1) 
Fagrocorat

>  <CAS_NUMBER>  (1) 
1044535-52-5

>  <UNII>  (1) 
OPM23UN90U

$$$$
