
     RDKit          3D

 38 41  0  0  1  0  0  0  0  0999 V2000
    0.9661   -0.0639   -0.0690 P   0  0  0  0  0  0  0  0  0  0  0  0
    2.5940    0.9207   -1.1625 P   0  0  1  0  0  0  0  0  0  0  0  0
    5.0865    3.0861   -1.7256 O   0  0  0  0  0  0  0  0  0  0  0  0
   -1.3170   -1.8177    1.3000 O   0  0  0  0  0  0  0  0  0  0  0  0
    5.5719    1.6474   -4.4368 O   0  0  0  0  0  0  0  0  0  0  0  0
    5.9334   -0.4754   -2.7771 O   0  0  0  0  0  0  0  0  0  0  0  0
    2.1888    2.5125   -1.3399 O   0  0  0  0  0  0  0  0  0  0  0  0
    0.8507   -1.7038   -0.1076 O   0  0  0  0  0  0  0  0  0  0  0  0
   -2.1404   -0.2352   -2.9644 O   0  0  0  0  0  0  0  0  0  0  0  0
   -2.1517    1.7673   -0.3399 O   0  0  0  0  0  0  0  0  0  0  0  0
   -0.2292   -2.5694   -2.3804 O   0  0  0  0  0  0  0  0  0  0  0  0
    0.9661    0.6134   -1.6609 O   0  0  0  0  0  0  0  0  0  0  0  0
   -1.4538   -0.0902    3.7461 O   0  0  0  0  0  0  0  0  0  0  0  0
   -0.7639   -0.0639   -0.0690 O   0  0  0  0  0  0  0  0  0  0  0  0
    2.2674    0.9707    0.9232 O   0  0  0  0  0  0  0  0  0  0  0  0
    2.5144   -0.0639   -0.0690 O   0  0  0  0  0  0  0  0  0  0  0  0
    4.0509    1.1958   -0.7163 O   0  0  0  0  0  0  0  0  0  0  0  0
    5.4975    1.7673    0.5133 N   0  0  0  0  0  0  0  0  0  0  0  0
    5.5405    0.2863    2.2723 N   0  0  0  0  0  0  0  0  0  0  0  0
    2.8765    2.8662    1.2433 N   0  0  0  0  0  0  0  0  0  0  0  0
    1.6893    1.1984    3.0227 N   0  0  0  0  0  0  0  0  0  0  0  0
    3.0564   -0.5653    4.0791 N   0  0  0  0  0  0  0  0  0  0  0  0
    4.5064    1.4783   -3.5061 C   0  0  1  0  0  0  0  0  0  0  0  0
    5.0823    0.5731   -2.3914 C   0  0  2  0  0  0  0  0  0  0  0  0
    4.1672    2.8413   -2.8464 C   0  0  1  0  0  0  0  0  0  0  0  0
    5.7456    1.8462   -1.2325 C   0  0  1  0  0  0  0  0  0  0  0  0
   -1.6575   -0.5559   -1.7062 C   0  0  1  0  0  0  0  0  0  0  0  0
   -2.4941    0.3368   -0.1968 C   0  0  1  0  0  0  0  0  0  0  0  0
   -1.1516   -2.1037   -1.3767 C   0  0  2  0  0  0  0  0  0  0  0  0
   -1.6804   -0.2913    1.4839 C   0  0  1  0  0  0  0  0  0  0  0  0
    2.6419    3.0732   -2.5448 C   0  0  0  0  0  0  0  0  0  0  0  0
   -0.4115   -2.3788    0.0773 C   0  0  2  0  0  0  0  0  0  0  0  0
   -2.1879    0.4002    2.6413 C   0  0  0  0  0  0  0  0  0  0  0  0
    4.1566    2.0102    1.4239 C   0  0  0  0  0  0  0  0  0  0  0  0
    6.2225    0.8455    1.2753 C   0  0  0  0  0  0  0  0  0  0  0  0
    4.2335    0.9126    2.3621 C   0  0  0  0  0  0  0  0  0  0  0  0
    2.9967    0.5435    3.2099 C   0  0  0  0  0  0  0  0  0  0  0  0
    1.6229    2.3304    2.0987 C   0  0  0  0  0  0  0  0  0  0  0  0
  1 14  1  0
  1 16  2  0
  1 12  1  0
  1  8  1  0
  2  7  1  0
  2 12  1  0
  2 15  1  0
  2 17  2  0
  3 25  1  0
  3 26  1  0
  4 30  1  0
  4 32  1  0
  7 31  1  0
 13 33  1  0
 18 34  1  0
 18 35  1  0
 19 35  2  0
 19 36  1  0
 20 34  1  0
 20 38  2  0
 21 37  2  0
 21 38  1  0
 22 37  1  0
 23  5  1  6
 23 24  1  0
 23 25  1  0
 24  6  1  6
 24 26  1  0
 25 31  1  1
 26 18  1  1
 27  9  1  6
 27 28  1  0
 27 29  1  0
 28 10  1  6
 28 30  1  0
 29 11  1  6
 29 32  1  0
 30 33  1  1
 32  8  1  6
 34 36  2  0
 36 37  1  0
M  END
>  <DRUGBANK_ID>  (1) 
DB01774

>  <SECONDARY_ACCESSION_NUMBERS>  (1) 
EXPT00437

>  <COMMON_NAME>  (1) 
Adenosine-5'-Monophosphate Glucopyranosyl-Monophosphate Ester

$$$$
