
     RDKit          3D

 19 21  0  0  0  0  0  0  0  0999 V2000
   -3.6483    0.0750    0.7711 C   0  0  0  0  0  0  0  0  0  0  0  0
   -3.2774   -1.2660    0.6924 C   0  0  0  0  0  0  0  0  0  0  0  0
   -2.0764   -1.6317    0.0726 C   0  0  0  0  0  0  0  0  0  0  0  0
   -2.8165    1.0531    0.2385 C   0  0  0  0  0  0  0  0  0  0  0  0
   -1.2336   -0.6520   -0.4717 C   0  0  0  0  0  0  0  0  0  0  0  0
   -1.6195    0.6913   -0.3922 C   0  0  0  0  0  0  0  0  0  0  0  0
   -0.7151    1.7422   -0.9457 C   0  0  0  0  0  0  0  0  0  0  0  0
   -0.0089   -1.0087   -1.1131 N   0  0  0  0  0  0  0  0  0  0  0  0
    0.4648    1.8924   -0.0399 C   0  0  0  0  0  0  0  0  0  0  0  0
    1.4262    0.7594    0.0530 C   0  0  0  0  0  0  0  0  0  0  0  0
    1.2138   -0.5347   -0.4837 C   0  0  0  0  0  0  0  0  0  0  0  0
    2.2767   -1.4548   -0.3507 C   0  0  0  0  0  0  0  0  0  0  0  0
    3.4867   -1.1167    0.2685 C   0  0  0  0  0  0  0  0  0  0  0  0
    3.6833    0.1632    0.7622 C   0  0  0  0  0  0  0  0  0  0  0  0
    2.6592    1.0948    0.6543 C   0  0  0  0  0  0  0  0  0  0  0  0
    0.0498   -1.8299   -2.2493 C   0  0  0  0  0  0  0  0  0  0  0  0
   -1.1296   -2.2481   -2.7889 N   0  0  0  0  0  0  0  0  0  0  0  0
    1.0771   -2.1471   -2.8513 O   0  0  0  0  0  0  0  0  0  0  0  0
    0.6427    2.9271    0.6077 O   0  0  0  0  0  0  0  0  0  0  0  0
  1  2  2  0
  2  3  1  0
  3  5  2  0
  4  1  1  0
  5  6  1  0
  5  8  1  0
  6  7  1  0
  6  4  2  0
  7  9  1  0
  8 11  1  0
  8 16  1  0
  9 10  1  0
  9 19  2  0
 10 11  2  0
 11 12  1  0
 12 13  2  0
 13 14  1  0
 14 15  2  0
 15 10  1  0
 16 17  1  0
 16 18  2  0
M  END
>  <DRUGBANK_ID>  (1) 
DB00776

>  <SECONDARY_ACCESSION_NUMBERS>  (1) 
APRD01308

>  <COMMON_NAME>  (1) 
Oxcarbazepine

>  <CAS_NUMBER>  (1) 
28721-07-5

>  <UNII>  (1) 
VZI5B1W380

>  <SYNONYMS>  (1) 
10,11-Dihydro-10-oxo-5H-dibenz(b,f)azepine-5-carboxamide; OCBZ; Oxcarbamazepine; Oxcarbazepina; Oxcarbazepine; Oxcarbazepinum

$$$$
