1502
     RDKit          3D

 24 25  0  0  1  0  0  0  0  0999 V2000
    0.8665    0.0118    0.1231 O   0  0  0  0  0  0  0  0  0  0  0  0
    5.3301   -2.4398   -2.7149 N   0  0  0  0  0  0  0  0  0  0  0  0
    2.7418   -0.4802   -1.1444 N   0  0  0  0  0  0  0  0  0  0  0  0
    5.2363   -1.8325   -1.3523 C   0  0  0  0  0  0  0  0  0  0  0  0
    4.3395   -0.4535   -1.2221 C   0  0  0  0  0  0  0  0  0  0  0  0
    5.1793   -3.9112   -2.8238 C   0  0  0  0  0  0  0  0  0  0  0  0
    6.7392   -1.6610   -1.1529 C   0  0  0  0  0  0  0  0  0  0  0  0
    4.3557   -4.7346   -1.7681 C   0  0  0  0  0  0  0  0  0  0  0  0
    4.2134   -1.9415   -3.3924 C   0  0  0  0  0  0  0  0  0  0  0  0
    1.8101   -0.6617   -2.4191 C   0  0  0  0  0  0  0  0  0  0  0  0
    2.8204   -4.7888   -1.6260 C   0  0  0  0  0  0  0  0  0  0  0  0
    2.0717   -0.0193    0.0311 C   0  0  0  0  0  0  0  0  0  0  0  0
    2.8866    0.4013    1.2870 C   0  0  0  0  0  0  0  0  0  0  0  0
    0.8549    0.2474   -2.8314 C   0  0  0  0  0  0  0  0  0  0  0  0
    1.7451   -1.7992   -3.2824 C   0  0  0  0  0  0  0  0  0  0  0  0
    2.1321   -5.9796   -1.8690 C   0  0  0  0  0  0  0  0  0  0  0  0
    2.0060   -3.7529   -1.1403 C   0  0  0  0  0  0  0  0  0  0  0  0
    2.5624    1.8382    1.6751 C   0  0  0  0  0  0  0  0  0  0  0  0
    0.1160    0.0372   -4.0545 C   0  0  0  0  0  0  0  0  0  0  0  0
    1.2902   -1.9173   -4.5884 C   0  0  0  0  0  0  0  0  0  0  0  0
    0.7229   -6.0550   -1.8079 C   0  0  0  0  0  0  0  0  0  0  0  0
    0.5945   -3.7567   -1.2745 C   0  0  0  0  0  0  0  0  0  0  0  0
    0.3734   -1.0077   -4.9560 C   0  0  0  0  0  0  0  0  0  0  0  0
   -0.0543   -4.9186   -1.6239 C   0  0  0  0  0  0  0  0  0  0  0  0
  1 12  2  0
  2  4  1  0
  2  6  1  0
  2  9  1  0
  3  5  1  0
  3 10  1  0
  3 12  1  0
  4  5  1  0
  4  7  1  0
  6  8  1  0
  8 11  1  0
 10 14  2  0
 10 15  1  0
 11 16  2  0
 11 17  1  0
 12 13  1  0
 13 18  1  0
 14 19  1  0
 15 20  2  0
 16 21  1  0
 17 22  2  0
 19 23  2  0
 20 23  1  0
 21 24  2  0
 22 24  1  0
M  END
>  <DRUGBANK_ID>  (1) 
DB01502

>  <COMMON_NAME>  (1) 
Diampromide

>  <CAS_NUMBER>  (1) 
552-25-0

>  <UNII>  (1) 
26G7YC77BU

>  <SYNONYMS>  (1) 
Diampromide

$$$$
