
     RDKit          3D

 34 37  0  0  1  0  0  0  0  0999 V2000
    0.9217    0.3047    0.1395 N   0  0  0  0  0  0  0  0  0  0  0  0
    0.3202    0.0294   -1.3765 S   0  0  0  0  0  0  0  0  0  0  0  0
    0.9615   -1.2611   -1.5606 O   0  0  0  0  0  0  0  0  0  0  0  0
   -1.1004    0.1931   -1.3285 O   0  0  0  0  0  0  0  0  0  0  0  0
    0.9644    1.1080   -2.4196 O   0  0  0  0  0  0  0  0  0  0  0  0
    0.4528    1.1792   -3.7732 C   0  0  0  0  0  0  0  0  0  0  0  0
    0.9000   -0.0307   -4.6146 C   0  0  1  0  0  0  0  0  0  0  0  0
    0.3634   -1.3408   -4.0322 C   0  0  0  0  0  0  0  0  0  0  0  0
   -0.2228   -2.2530   -5.0766 C   0  0  1  0  0  0  0  0  0  0  0  0
   -1.7017   -2.3567   -4.9590 N   0  0  0  0  0  0  0  0  0  0  0  0
   -2.5698   -1.2484   -5.0031 C   0  0  0  0  0  0  0  0  0  0  0  0
   -2.6960   -0.5498   -6.1428 C   0  0  0  0  0  0  0  0  0  0  0  0
   -3.4845    0.6926   -6.1096 C   0  0  0  0  0  0  0  0  0  0  0  0
   -4.1855    1.1183   -5.1103 N   0  0  0  0  0  0  0  0  0  0  0  0
   -4.1521    0.3346   -3.9912 C   0  0  0  0  0  0  0  0  0  0  0  0
   -4.8153    0.4669   -2.7998 C   0  0  0  0  0  0  0  0  0  0  0  0
   -4.3355   -0.5745   -1.9775 C   0  0  0  0  0  0  0  0  0  0  0  0
   -3.4684   -1.3703   -2.6327 N   0  0  0  0  0  0  0  0  0  0  0  0
   -3.3536   -0.8193   -3.8800 N   0  0  0  0  0  0  0  0  0  0  0  0
   -4.7850   -0.8553   -0.6160 C   0  0  0  0  0  0  0  0  0  0  0  0
   -6.1405   -1.1213   -0.3971 C   0  0  0  0  0  0  0  0  0  0  0  0
   -6.5898   -1.4706    0.8720 C   0  0  0  0  0  0  0  0  0  0  0  0
   -5.6868   -1.5751    1.9300 C   0  0  0  0  0  0  0  0  0  0  0  0
   -4.3212   -1.3504    1.7320 C   0  0  0  0  0  0  0  0  0  0  0  0
   -3.0660   -1.6816    2.9687 S   0  0  0  0  0  0  0  0  0  0  0  0
   -3.9832   -2.4318    4.3270 C   0  0  0  0  0  0  0  0  0  0  0  0
   -4.8536   -1.5536    4.8820 F   0  0  0  0  0  0  0  0  0  0  0  0
   -4.6914   -3.5255    3.9523 F   0  0  0  0  0  0  0  0  0  0  0  0
   -3.1436   -2.8298    5.3148 F   0  0  0  0  0  0  0  0  0  0  0  0
   -3.8906   -0.9183    0.4633 C   0  0  0  0  0  0  0  0  0  0  0  0
    0.3119   -1.6071   -6.3519 C   0  0  2  0  0  0  0  0  0  0  0  0
    1.6487   -2.0719   -6.6260 O   0  0  0  0  0  0  0  0  0  0  0  0
    0.3832   -0.0830   -6.0426 C   0  0  2  0  0  0  0  0  0  0  0  0
    1.2400    0.6016   -6.9389 O   0  0  0  0  0  0  0  0  0  0  0  0
  1  2  1  0
  2  3  2  0
  2  4  2  0
  2  5  1  0
  5  6  1  0
  7  6  1  1
  7  8  1  0
  9  8  1  0
  9 10  1  6
 10 11  1  0
 11 12  2  0
 11 19  1  0
 12 13  1  0
 13 14  2  0
 14 15  1  0
 15 16  2  0
 15 19  1  0
 16 17  1  0
 17 18  2  0
 17 20  1  0
 18 19  1  0
 20 21  2  0
 20 30  1  0
 21 22  1  0
 22 23  2  0
 23 24  1  0
 24 25  1  0
 24 30  2  0
 25 26  1  0
 26 27  1  0
 26 28  1  0
 26 29  1  0
 31  9  1  0
 31 32  1  1
 31 33  1  0
 33  7  1  0
 33 34  1  6
M  END
>  <DRUGBANK_ID>  (1) 
DB15013

>  <COMMON_NAME>  (1) 
TAK-243

>  <CAS_NUMBER>  (1) 
1450833-55-2

>  <UNII>  (1) 
V9GGV0YCDI

$$$$
