
     RDKit          3D

 10  9  0  0  0  0  0  0  0  0999 V2000
    0.9942   -0.0399   -0.0937 C   0  0  0  0  0  0  0  0  0  0  0  0
    0.9359    2.3503   -1.0418 C   0  0  0  0  0  0  0  0  0  0  0  0
    0.5758   -0.7486   -1.3862 C   0  0  0  0  0  0  0  0  0  0  0  0
    0.3294    2.0395   -2.2941 O   0  0  0  0  0  0  0  0  0  0  0  0
    1.0476   -2.1968   -1.4473 C   0  0  0  0  0  0  0  0  0  0  0  0
    0.4392   -3.0785   -0.3595 C   0  0  0  0  0  0  0  0  0  0  0  0
   -1.0920   -3.0710   -0.3574 C   0  0  0  0  0  0  0  0  0  0  0  0
   -1.6682   -3.5696   -1.6744 C   0  0  0  0  0  0  0  0  0  0  0  0
    0.4706    1.3910    0.0598 C   0  0  0  0  0  0  0  0  0  0  0  0
   -0.9563    1.3625    0.1256 O   0  0  0  0  0  0  0  0  0  0  0  0
  1  3  1  0
  2  4  1  0
  3  5  1  0
  5  6  1  0
  6  7  1  0
  7  8  1  0
  9  1  1  0
  9  2  1  0
  9 10  1  0
M  END
>  <DRUGBANK_ID>  (1) 
DB14589

>  <COMMON_NAME>  (1) 
Caprylyl glycol

>  <CAS_NUMBER>  (1) 
1117-86-8

>  <UNII>  (1) 
00YIU5438U

>  <SYNONYMS>  (1) 
1,2-Dihydroxyoctane; 1,2-Octanediol; 1,2-Octylene glycol; Octane-1,2-diol

$$$$
