
     RDKit          3D

 32 33  0  0  0  0  0  0  0  0999 V2000
    2.3889   -5.0275   -0.7785 P   0  0  2  0  0  0  0  0  0  0  0  0
    2.8565   -2.1699   -0.6896 P   0  0  2  0  0  0  0  0  0  0  0  0
    3.0010   -8.3225    1.8951 O   0  0  0  0  0  0  0  0  0  0  0  0
    3.5383   -5.4614    3.1479 O   0  0  0  0  0  0  0  0  0  0  0  0
    5.4316   -7.0445    4.2706 O   0  0  0  0  0  0  0  0  0  0  0  0
    3.8782   -5.7149   -0.5981 O   0  0  0  0  0  0  0  0  0  0  0  0
    4.8617   -9.8449    0.8208 O   0  0  0  0  0  0  0  0  0  0  0  0
    2.7064   -3.5449   -1.4760 O   0  0  0  0  0  0  0  0  0  0  0  0
    2.6727   -4.3248    0.7766 O   0  0  0  0  0  0  0  0  0  0  0  0
    1.3482   -1.9796   -0.1207 O   0  0  0  0  0  0  0  0  0  0  0  0
    2.1349   -5.6565   -2.1704 O   0  0  0  0  0  0  0  0  0  0  0  0
    7.4890  -12.2883    3.5506 O   0  0  0  0  0  0  0  0  0  0  0  0
    2.8114   -0.8886   -1.6483 O   0  0  0  0  0  0  0  0  0  0  0  0
    4.1343   -2.1131    0.0872 O   0  0  0  0  0  0  0  0  0  0  0  0
    4.4201   -9.7728    3.1062 N   0  0  0  0  0  0  0  0  0  0  0  0
    6.2169  -10.9541    2.2163 N   0  0  0  0  0  0  0  0  0  0  0  0
    4.7145   -2.6249    4.9293 N   0  0  0  0  0  0  0  0  0  0  0  0
    4.2634   -6.3050    2.2465 C   0  0  1  0  0  0  0  0  0  0  0  0
    4.9436   -7.4113    2.9846 C   0  0  2  0  0  0  0  0  0  0  0  0
    3.2724   -7.0457    1.3286 C   0  0  1  0  0  0  0  0  0  0  0  0
    3.8266   -8.4621    3.0445 C   0  0  1  0  0  0  0  0  0  0  0  0
    3.7948   -7.0671   -0.1102 C   0  0  0  0  0  0  0  0  0  0  0  0
    5.1124  -10.1896    1.9700 C   0  0  0  0  0  0  0  0  0  0  0  0
    4.7388  -10.2331    4.3651 C   0  0  0  0  0  0  0  0  0  0  0  0
    5.7147  -11.1200    4.5596 C   0  0  0  0  0  0  0  0  0  0  0  0
    6.5372  -11.5059    3.4102 C   0  0  0  0  0  0  0  0  0  0  0  0
    2.4242   -2.5248    2.4265 C   0  0  0  0  0  0  0  0  0  0  0  0
    3.3478   -1.3786    2.6893 C   0  0  0  0  0  0  0  0  0  0  0  0
    0.9574   -2.3139    2.1931 C   0  0  0  0  0  0  0  0  0  0  0  0
    3.0649   -0.9869    4.0933 C   0  0  0  0  0  0  0  0  0  0  0  0
    0.8486   -1.3358    1.0440 C   0  0  0  0  0  0  0  0  0  0  0  0
    3.3290   -2.1746    5.0287 C   0  0  0  0  0  0  0  0  0  0  0  0
  1  6  1  0
  1  8  1  0
  1  9  1  0
  1 11  2  0
  2 13  1  0
  2 14  2  0
  2 10  1  0
  2  8  1  0
  3 20  1  0
  3 21  1  0
  6 22  1  0
  7 23  2  0
 10 31  1  0
 12 26  2  0
 15 23  1  0
 15 24  1  0
 16 23  1  0
 16 26  1  0
 17 32  1  0
 18  4  1  1
 18 19  1  0
 18 20  1  0
 19  5  1  1
 19 21  1  0
 20 22  1  6
 21 15  1  6
 24 25  2  0
 25 26  1  0
 27 28  1  0
 27 29  1  0
 28 30  1  0
 29 31  1  0
 30 32  1  0
M  END
>  <DRUGBANK_ID>  (1) 
DB02696

>  <SECONDARY_ACCESSION_NUMBERS>  (1) 
EXPT03171

>  <COMMON_NAME>  (1) 
6-Aminohexyl-uridine-C1,5'-diphosphate

>  <CAS_NUMBER>  (1) 
40248-31-5

$$$$
