NC3
     RDKit          3D

 14 14  0  0  0  0  0  0  0  0999 V2000
   -1.4435    0.3295   -0.3129 C   0  0  0  0  0  0  0  0  0  0  0  0
   -1.6305    0.3577   -1.7758 N   0  0  0  0  0  0  0  0  0  0  0  0
   -2.8457    0.6447   -2.3500 C   0  0  0  0  0  0  0  0  0  0  0  0
   -2.8485    0.5919   -3.7228 N   0  0  0  0  0  0  0  0  0  0  0  0
   -4.0545    0.9277   -4.4872 C   0  0  0  0  0  0  0  0  0  0  0  0
   -3.9187    2.1967   -5.3336 C   0  0  0  0  0  0  0  0  0  0  0  0
   -4.1986    2.0397   -6.6516 O   0  0  0  0  0  0  0  0  0  0  0  0
   -3.8561    0.8792   -1.6979 O   0  0  0  0  0  0  0  0  0  0  0  0
   -3.5646    3.2848   -4.8937 O   0  0  0  0  0  0  0  0  0  0  0  0
   -1.0011   -1.0578    0.1797 C   0  0  0  0  0  0  0  0  0  0  0  0
    0.4281   -1.3931   -0.2443 C   0  0  0  0  0  0  0  0  0  0  0  0
    1.4145   -0.3270    0.2243 C   0  0  0  0  0  0  0  0  0  0  0  0
    0.9971    1.0649   -0.2431 C   0  0  0  0  0  0  0  0  0  0  0  0
   -0.4396    1.3921    0.1639 C   0  0  0  0  0  0  0  0  0  0  0  0
  1  2  1  0
  1 10  1  0
  1 14  1  0
  2  3  1  0
  3  4  1  0
  3  8  2  0
  4  5  1  0
  5  6  1  0
  6  7  1  0
  6  9  2  0
 10 11  1  0
 11 12  1  0
 12 13  1  0
 13 14  1  0
M  END
>  <DRUGBANK_ID>  (1) 
DB08256

>  <COMMON_NAME>  (1) 
N-[(CYCLOHEXYLAMINO)CARBONYL]GLYCINE

$$$$
