
     RDKit          3D

 10  9  0  0  0  0  0  0  0  0999 V2000
    1.0289   -0.0989   -0.0576 C   0  0  0  0  0  0  0  0  0  0  0  0
    0.5319   -0.7704    1.2117 C   0  0  0  0  0  0  0  0  0  0  0  0
    1.0248   -0.0557    2.4904 C   0  0  0  0  0  0  0  0  0  0  0  0
    0.5060    1.3875    2.5326 C   0  0  0  0  0  0  0  0  0  0  0  0
    0.6035   -0.8230    3.7723 C   0  0  0  0  0  0  0  0  0  0  0  0
    1.0767   -2.2938    3.7922 C   0  0  0  0  0  0  0  0  0  0  0  0
    2.5887   -2.4657    3.7168 C   0  0  0  0  0  0  0  0  0  0  0  0
    1.0368   -0.0899    5.0477 C   0  0  0  0  0  0  0  0  0  0  0  0
    0.2338    0.2923    5.8983 O   0  0  0  0  0  0  0  0  0  0  0  0
    2.3665    0.1486    5.2168 N   0  0  0  0  0  0  0  0  0  0  0  0
  1  2  1  0
  2  3  1  0
  3  4  1  0
  3  5  1  0
  5  6  1  0
  5  8  1  0
  6  7  1  0
  8  9  2  0
  8 10  1  0
M  END
>  <DRUGBANK_ID>  (1) 
DB13099

>  <COMMON_NAME>  (1) 
Valnoctamide

>  <CAS_NUMBER>  (1) 
4171-13-5

>  <UNII>  (1) 
3O25NRX9YG

>  <SYNONYMS>  (1) 
Valnoctamide

$$$$
