GVJ
     RDKit          3D

 23 26  0  0  0  0  0  0  0  0999 V2000
    1.0931   -0.0438    0.1738 N   0  0  0  0  0  0  0  0  0  0  0  0
    0.5099    1.2303   -0.2861 C   0  0  1  0  0  0  0  0  0  0  0  0
    1.0433    1.6547   -1.6528 C   0  0  0  0  0  0  0  0  0  0  0  0
    0.9715    3.0074   -2.0343 C   0  0  0  0  0  0  0  0  0  0  0  0
    1.4326    3.4348   -3.2784 C   0  0  0  0  0  0  0  0  0  0  0  0
    2.0332    2.5267   -4.1424 C   0  0  0  0  0  0  0  0  0  0  0  0
    2.1489    1.1903   -3.7733 C   0  0  0  0  0  0  0  0  0  0  0  0
    1.6207    0.7500   -2.5593 C   0  0  0  0  0  0  0  0  0  0  0  0
   -1.0145    1.2221   -0.2087 C   0  0  0  0  0  0  0  0  0  0  0  0
   -1.7495    0.0278   -0.1825 C   0  0  0  0  0  0  0  0  0  0  0  0
   -3.1399    0.0376   -0.0783 C   0  0  0  0  0  0  0  0  0  0  0  0
   -3.8463    1.2437   -0.0295 C   0  0  0  0  0  0  0  0  0  0  0  0
   -3.1219    2.4406   -0.0383 C   0  0  0  0  0  0  0  0  0  0  0  0
   -1.7302    2.4308   -0.1416 C   0  0  0  0  0  0  0  0  0  0  0  0
   -5.2980    1.2459   -0.0406 C   0  0  0  0  0  0  0  0  0  0  0  0
   -5.9713    0.5942    0.9461 N   0  0  0  0  0  0  0  0  0  0  0  0
   -7.3184    0.5739    0.8789 C   0  0  0  0  0  0  0  0  0  0  0  0
   -8.1150    1.0983   -0.0761 N   0  0  0  0  0  0  0  0  0  0  0  0
   -7.3902    1.7049   -1.0258 C   0  0  0  0  0  0  0  0  0  0  0  0
   -7.8526    2.3092   -2.1557 N   0  0  0  0  0  0  0  0  0  0  0  0
   -6.7760    2.7860   -2.8486 C   0  0  0  0  0  0  0  0  0  0  0  0
   -5.6448    2.5270   -2.2254 N   0  0  0  0  0  0  0  0  0  0  0  0
   -6.0117    1.8375   -1.0872 C   0  0  0  0  0  0  0  0  0  0  0  0
  2  1  1  6
  2  3  1  0
  2  9  1  0
  3  4  2  0
  3  8  1  0
  4  5  1  0
  5  6  2  0
  6  7  1  0
  7  8  2  0
  9 10  2  0
  9 14  1  0
 10 11  1  0
 11 12  2  0
 12 13  1  0
 12 15  1  0
 13 14  2  0
 15 16  2  0
 15 23  1  0
 16 17  1  0
 17 18  2  0
 18 19  1  0
 19 20  1  0
 19 23  2  0
 20 21  1  0
 21 22  2  0
 22 23  1  0
M  END
>  <DRUGBANK_ID>  (1) 
DB07855

>  <COMMON_NAME>  (1) 
(S)-1-PHENYL-1-[4-(9H-PURIN-6-YL)PHENYL]METHANAMINE

$$$$
