312
     RDKit          3D

 16 16  0  0  1  0  0  0  0  0999 V2000
   -2.3904   -1.1007   -0.1131 O   0  0  0  0  0  0  0  0  0  0  0  0
    2.4314   -1.0801   -0.0939 O   0  0  0  0  0  0  0  0  0  0  0  0
    0.0023    2.6701   -0.0109 O   0  0  0  0  0  0  0  0  0  0  0  0
   -1.1409    0.7275    0.0318 N   0  0  0  0  0  0  0  0  0  0  0  0
    1.1626    0.7382    0.0245 N   0  0  0  0  0  0  0  0  0  0  0  0
    0.0261   -1.4568   -0.1161 C   0  0  0  0  0  0  0  0  0  0  0  0
    0.0099   -2.5006    1.0726 C   0  0  0  0  0  0  0  0  0  0  0  0
   -1.2035   -3.4860    1.0822 C   0  0  0  0  0  0  0  0  0  0  0  0
    0.0724   -2.0885   -1.5290 C   0  0  0  0  0  0  0  0  0  0  0  0
   -1.2584   -0.6256   -0.0392 C   0  0  0  0  0  0  0  0  0  0  0  0
    1.2953   -0.6133   -0.0233 C   0  0  0  0  0  0  0  0  0  0  0  0
    1.3374   -3.2657    1.2600 C   0  0  0  0  0  0  0  0  0  0  0  0
   -1.3939   -4.4409   -0.1044 C   0  0  0  0  0  0  0  0  0  0  0  0
    0.1448   -1.1165   -2.6891 C   0  0  0  0  0  0  0  0  0  0  0  0
    0.0074    1.4364    0.0144 C   0  0  0  0  0  0  0  0  0  0  0  0
   -0.2094   -5.3435   -0.3898 C   0  0  0  0  0  0  0  0  0  0  0  0
  1 10  2  0
  2 11  2  0
  3 15  2  0
  4 10  1  0
  4 15  1  0
  5 11  1  0
  5 15  1  0
  6  7  1  0
  6  9  1  0
  6 10  1  0
  6 11  1  0
  7  8  1  0
  7 12  1  0
  8 13  1  0
  9 14  1  0
 13 16  1  0
M  END
>  <DRUGBANK_ID>  (1) 
DB00312

>  <SECONDARY_ACCESSION_NUMBERS>  (1) 
APRD01174

>  <COMMON_NAME>  (1) 
Pentobarbital

>  <CAS_NUMBER>  (1) 
76-74-4

>  <UNII>  (1) 
I4744080IR

>  <SYNONYMS>  (1) 
5-Ethyl-5-(1-methyl-butyl)-pyrimidine-2,4,6-trione; 5-Ethyl-5-(1-methylbutyl)-2,4,6(1H,3H,5H)-pyrimidinetrione; 5-ethyl-5-(1-methylbutyl)barbituric acid; 5-ethyl-5-(sec-pentyl)barbituric acid; Pentobarbital; Pentobarbitone

$$$$
