4833
     RDKit          3D

 19 21  0  0  0  0  0  0  0  0999 V2000
    0.9901    0.0384    0.0859 O   0  0  0  0  0  0  0  0  0  0  0  0
    2.9568   -1.2253   -0.0455 N   0  0  0  0  0  0  0  0  0  0  0  0
    5.0529   -0.1238   -0.0055 N   0  0  0  0  0  0  0  0  0  0  0  0
    2.2229   -2.4374   -0.1686 C   0  0  0  0  0  0  0  0  0  0  0  0
    4.3463   -1.2117   -0.0748 C   0  0  0  0  0  0  0  0  0  0  0  0
    2.9980    1.1967    0.0719 C   0  0  0  0  0  0  0  0  0  0  0  0
    2.2257   -0.0444    0.0509 C   0  0  0  0  0  0  0  0  0  0  0  0
    1.3678   -2.6645   -1.2654 C   0  0  0  0  0  0  0  0  0  0  0  0
    4.3851    1.1063    0.0290 C   0  0  0  0  0  0  0  0  0  0  0  0
    2.4243   -3.4459    0.7880 C   0  0  0  0  0  0  0  0  0  0  0  0
    2.3416    2.4306    0.0699 C   0  0  0  0  0  0  0  0  0  0  0  0
    5.1253   -2.5061   -0.2477 C   0  0  0  0  0  0  0  0  0  0  0  0
    0.7349   -3.9123   -1.3693 C   0  0  0  0  0  0  0  0  0  0  0  0
    5.1189    2.2892   -0.0635 C   0  0  0  0  0  0  0  0  0  0  0  0
    1.1584   -1.6704   -2.3789 C   0  0  0  0  0  0  0  0  0  0  0  0
    1.9071   -4.7202    0.5832 C   0  0  0  0  0  0  0  0  0  0  0  0
    1.0577   -4.9508   -0.4934 C   0  0  0  0  0  0  0  0  0  0  0  0
    3.0779    3.5908   -0.1240 C   0  0  0  0  0  0  0  0  0  0  0  0
    4.4645    3.5130   -0.2419 C   0  0  0  0  0  0  0  0  0  0  0  0
  1  7  2  0
  2  4  1  0
  2  5  1  0
  2  7  1  0
  3  5  2  0
  3  9  1  0
  4  8  2  0
  4 10  1  0
  5 12  1  0
  6  7  1  0
  6  9  2  0
  6 11  1  0
  8 13  1  0
  8 15  1  0
  9 14  1  0
 10 16  2  0
 11 18  2  0
 13 17  2  0
 14 19  2  0
 16 17  1  0
 18 19  1  0
M  END
>  <DRUGBANK_ID>  (1) 
DB04833

>  <COMMON_NAME>  (1) 
Methaqualone

>  <CAS_NUMBER>  (1) 
72-44-6

>  <UNII>  (1) 
7ZKH8MQW6T

>  <SYNONYMS>  (1) 
metacualona; Methaqualone

$$$$
