4BT
     RDKit          3D

 18 18  0  0  0  0  0  0  0  0999 V2000
    1.0863   -0.1779    0.0531 C   0  0  0  0  0  0  0  0  0  0  0  0
    0.5337   -0.7029   -1.2809 C   0  0  0  0  0  0  0  0  0  0  0  0
    2.0052   -4.7213   -1.6543 C   0  0  0  0  0  0  0  0  0  0  0  0
    0.6833   -4.4993   -1.2558 C   0  0  0  0  0  0  0  0  0  0  0  0
    0.1921   -3.1958   -1.1880 C   0  0  0  0  0  0  0  0  0  0  0  0
    1.0052   -2.1054   -1.5366 C   0  0  0  0  0  0  0  0  0  0  0  0
    2.3386   -2.3262   -1.8968 C   0  0  0  0  0  0  0  0  0  0  0  0
    2.8501   -3.6233   -1.8764 C   0  0  0  0  0  0  0  0  0  0  0  0
    2.4988   -6.1021   -1.9802 C   0  0  0  0  0  0  0  0  0  0  0  0
    2.4969   -6.3971   -3.4961 C   0  0  0  0  0  0  0  0  0  0  0  0
    1.5555   -3.5504   -4.5218 N   0  0  0  0  0  0  0  0  0  0  0  0
    2.8837   -3.7847   -4.6792 C   0  0  0  0  0  0  0  0  0  0  0  0
    3.5333   -5.4087   -4.6319 S   0  0  0  0  0  0  0  0  0  0  0  0
    3.7382   -2.8262   -4.8023 N   0  0  0  0  0  0  0  0  0  0  0  0
    2.3881   -2.9121    1.0738 N   0  0  0  0  0  0  0  0  0  0  0  0
    1.1979   -2.6204    1.6193 C   0  0  0  0  0  0  0  0  0  0  0  0
    0.5169   -1.0174    1.5755 S   0  0  0  0  0  0  0  0  0  0  0  0
    0.5193   -3.5628    2.2044 N   0  0  0  0  0  0  0  0  0  0  0  0
  1  2  1  0
  1 17  1  0
  2  6  1  0
  3  4  2  0
  3  8  1  0
  3  9  1  0
  4  5  1  0
  5  6  2  0
  6  7  1  0
  7  8  2  0
  9 10  1  0
 10 13  1  0
 11 12  1  0
 12 13  1  0
 12 14  2  0
 15 16  1  0
 16 17  1  0
 16 18  2  0
M  END
>  <DRUGBANK_ID>  (1) 
DB02141

>  <SECONDARY_ACCESSION_NUMBERS>  (1) 
EXPT00205

>  <COMMON_NAME>  (1) 
S,S'-(1,4-Phenylene-Bis(1,2-Ethanediyl))Bis-Isothiourea

$$$$
