
     RDKit          3D

 38 43  0  0  1  0  0  0  0  0999 V2000
    0.9976   -0.0277   -0.0339 C   0  0  0  0  0  0  0  0  0  0  0  0
    0.4789   -0.2991    1.6587 S   0  0  0  0  0  0  0  0  0  0  0  0
    1.0411    0.7511    2.4752 O   0  0  0  0  0  0  0  0  0  0  0  0
   -0.9541   -0.5251    1.6405 O   0  0  0  0  0  0  0  0  0  0  0  0
    1.1947   -1.7126    2.2000 N   0  0  0  0  0  0  0  0  0  0  0  0
    1.8983   -2.5971    1.3479 C   0  0  0  0  0  0  0  0  0  0  0  0
    3.0296   -2.1790    0.6439 C   0  0  0  0  0  0  0  0  0  0  0  0
    3.6928   -3.0283   -0.2498 C   0  0  0  0  0  0  0  0  0  0  0  0
    3.2842   -4.3504   -0.3750 C   0  0  0  0  0  0  0  0  0  0  0  0
    2.1994   -4.7538    0.3966 C   0  0  0  0  0  0  0  0  0  0  0  0
    1.4974   -3.9105    1.2540 C   0  0  0  0  0  0  0  0  0  0  0  0
    1.6402   -6.4045    0.2968 S   0  0  0  0  0  0  0  0  0  0  0  0
    0.3351   -6.3001   -0.3746 O   0  0  0  0  0  0  0  0  0  0  0  0
    1.7424   -6.9379    1.6199 O   0  0  0  0  0  0  0  0  0  0  0  0
    2.6573   -7.1790   -0.6462 N   0  0  0  0  0  0  0  0  0  0  0  0
    3.5930   -6.5640   -1.2963 C   0  0  0  0  0  0  0  0  0  0  0  0
    3.9099   -5.2284   -1.2486 N   0  0  0  0  0  0  0  0  0  0  0  0
    4.3262   -7.4378   -2.2204 C   0  0  0  0  0  0  0  0  0  0  0  0
    3.5315   -7.9734   -3.1491 C   0  0  0  0  0  0  0  0  0  0  0  0
    4.1187   -8.9217   -4.0691 C   0  0  1  0  0  0  0  0  0  0  0  0
    4.3503   -8.3625   -5.6315 C   0  0  1  0  0  0  0  0  0  0  0  0
    5.1465   -9.0021   -6.8745 C   0  0  0  0  0  0  0  0  0  0  0  0
    6.0787   -9.8912   -6.2044 C   0  0  0  0  0  0  0  0  0  0  0  0
    4.9745  -10.2533   -5.2509 C   0  0  2  0  0  0  0  0  0  0  0  0
    3.3965   -9.4035   -5.8829 C   0  0  0  0  0  0  0  0  0  0  0  0
    5.4102   -9.5609   -3.8328 C   0  0  1  0  0  0  0  0  0  0  0  0
    6.2686   -8.3430   -3.4616 N   0  0  0  0  0  0  0  0  0  0  0  0
    5.7871   -7.5001   -2.4285 C   0  0  0  0  0  0  0  0  0  0  0  0
    6.4887   -6.6807   -1.8055 O   0  0  0  0  0  0  0  0  0  0  0  0
    7.6303   -7.9904   -3.9963 C   0  0  0  0  0  0  0  0  0  0  0  0
    7.6245   -7.3524   -5.4136 C   0  0  0  0  0  0  0  0  0  0  0  0
    6.6881   -6.3565   -5.7343 C   0  0  0  0  0  0  0  0  0  0  0  0
    6.2559   -6.2050   -7.0652 C   0  0  0  0  0  0  0  0  0  0  0  0
    6.8609   -6.9316   -8.0934 C   0  0  0  0  0  0  0  0  0  0  0  0
    7.9168   -7.7915   -7.8165 C   0  0  0  0  0  0  0  0  0  0  0  0
    8.3189   -7.9835   -6.4817 C   0  0  0  0  0  0  0  0  0  0  0  0
    6.2343   -7.0283   -9.2802 F   0  0  0  0  0  0  0  0  0  0  0  0
    2.1621   -7.8014   -3.2146 O   0  0  0  0  0  0  0  0  0  0  0  0
  1  2  1  0
  2  3  2  0
  2  4  2  0
  2  5  1  0
  5  6  1  0
  6  7  2  0
  6 11  1  0
  7  8  1  0
  8  9  2  0
  9 10  1  0
  9 17  1  0
 10 11  2  0
 10 12  1  0
 12 13  2  0
 12 14  2  0
 12 15  1  0
 15 16  2  0
 16 17  1  0
 16 18  1  0
 18 19  2  0
 18 28  1  0
 19 38  1  0
 20 19  1  1
 20 21  1  0
 20 26  1  0
 21 22  1  6
 21 25  1  0
 22 23  1  0
 24 23  1  6
 24 25  1  0
 24 26  1  0
 26 27  1  6
 27 28  1  0
 27 30  1  0
 28 29  2  0
 30 31  1  0
 31 32  2  0
 31 36  1  0
 32 33  1  0
 33 34  2  0
 34 35  1  0
 34 37  1  0
 35 36  2  0
M  END
>  <DRUGBANK_ID>  (1) 
DB12051

>  <COMMON_NAME>  (1) 
Setrobuvir

>  <CAS_NUMBER>  (1) 
1071517-39-9

>  <UNII>  (1) 
T5B2GI8F84

>  <SYNONYMS>  (1) 
Setrobuvir

$$$$
