
     RDKit          3D

 30 32  0  0  0  0  0  0  0  0999 V2000
   -0.9676   -1.4057   -0.0093 C   0  0  0  0  0  0  0  0  0  0  0  0
   -2.1886   -0.7235    0.0042 C   0  0  0  0  0  0  0  0  0  0  0  0
   -2.1853    0.6558   -0.0318 C   0  0  0  0  0  0  0  0  0  0  0  0
   -0.9936    1.3610   -0.1073 C   0  0  0  0  0  0  0  0  0  0  0  0
   -4.5492   -0.7502    0.0150 C   0  0  0  0  0  0  0  0  0  0  0  0
    1.6224   -1.0892   -0.0599 C   0  0  0  0  0  0  0  0  0  0  0  0
    2.4117    0.0628   -0.0957 C   0  0  0  0  0  0  0  0  0  0  0  0
    1.9667    2.5583    0.0223 C   0  0  0  0  0  0  0  0  0  0  0  0
    0.9349   -4.2498    1.2138 O   0  0  0  0  0  0  0  0  0  0  0  0
    1.6210   -3.2276    1.2767 C   0  0  0  0  0  0  0  0  0  0  0  0
    1.9899   -2.7674    2.5161 N   0  0  0  0  0  0  0  0  0  0  0  0
    2.7872   -1.5818    2.8202 C   0  0  1  0  0  0  0  0  0  0  0  0
    1.9911   -0.4890    3.5322 C   0  0  0  0  0  0  0  0  0  0  0  0
    1.5887   -0.9207    4.9277 C   0  0  0  0  0  0  0  0  0  0  0  0
    4.1084   -1.9222    3.5107 C   0  0  0  0  0  0  0  0  0  0  0  0
    4.8293   -2.8779    2.7381 O   0  0  0  0  0  0  0  0  0  0  0  0
    2.1077   -2.5114    0.0168 C   0  0  0  0  0  0  0  0  0  0  0  0
    0.2605   -0.6911   -0.0416 C   0  0  0  0  0  0  0  0  0  0  0  0
    3.9169    0.1093   -0.1186 C   0  0  0  0  0  0  0  0  0  0  0  0
    1.5695    1.1847   -0.0405 N   0  0  0  0  0  0  0  0  0  0  0  0
    0.2441    0.7045   -0.0630 C   0  0  0  0  0  0  0  0  0  0  0  0
   -3.3256   -1.4858    0.0253 O   0  0  0  0  0  0  0  0  0  0  0  0
    3.1678    2.8459   -0.0221 O   0  0  0  0  0  0  0  0  0  0  0  0
    1.0569    3.7128    0.1007 C   0  0  0  0  0  0  0  0  0  0  0  0
    0.1556    3.8382    1.1635 C   0  0  0  0  0  0  0  0  0  0  0  0
   -0.9161    4.7254    1.0359 C   0  0  0  0  0  0  0  0  0  0  0  0
   -0.9670    5.6013   -0.0494 C   0  0  0  0  0  0  0  0  0  0  0  0
   -2.3243    6.6390   -0.2410 Cl  0  0  0  0  0  0  0  0  0  0  0  0
    0.0505    5.6074   -1.0040 C   0  0  0  0  0  0  0  0  0  0  0  0
    1.0384    4.6233   -0.9623 C   0  0  0  0  0  0  0  0  0  0  0  0
  1  2  2  0
  2  3  1  0
  2 22  1  0
  3  4  2  0
  5 22  1  0
  6  7  2  0
  7 20  1  0
  8 20  1  0
  8 23  2  0
 10  9  2  0
 10 11  1  0
 12 11  1  0
 12 13  1  1
 12 15  1  0
 13 14  1  0
 15 16  1  0
 17  6  1  0
 17 10  1  0
 18  1  1  0
 18  6  1  0
 19  7  1  0
 21  4  1  0
 21 18  2  0
 21 20  1  0
 24  8  1  0
 24 25  2  0
 24 30  1  0
 26 25  1  0
 27 26  2  0
 27 28  1  0
 29 27  1  0
 30 29  2  0
M  END
>  <DRUGBANK_ID>  (1) 
DB07984

>  <COMMON_NAME>  (1) 
2-[1-(4-chlorobenzoyl)-5-methoxy-2-methyl-1H-indol-3-yl]-n-[(1S)-1-(hydroxymethyl)propyl]acetamide

$$$$
