
     RDKit          3D

 17 17  0  0  0  0  0  0  0  0999 V2000
    1.4102   -0.1945   -0.1096 C   0  0  0  0  0  0  0  0  0  0  0  0
    2.2516    0.2059   -3.8129 C   0  0  0  0  0  0  0  0  0  0  0  0
   -1.0342    1.0023    0.5618 C   0  0  0  0  0  0  0  0  0  0  0  0
   -2.6770    1.8593   -0.8729 C   0  0  0  0  0  0  0  0  0  0  0  0
   -1.9002    0.0417    1.0825 C   0  0  0  0  0  0  0  0  0  0  0  0
   -3.6338    1.0323   -0.2308 C   0  0  0  0  0  0  0  0  0  0  0  0
   -1.3220    1.7104   -0.6031 C   0  0  0  0  0  0  0  0  0  0  0  0
   -3.2205    0.0657    0.6929 C   0  0  0  0  0  0  0  0  0  0  0  0
   -5.3132    0.0206    2.3842 N   0  0  0  0  0  0  0  0  0  0  0  0
   -5.1451   -1.7096    0.5411 O   0  0  0  0  0  0  0  0  0  0  0  0
   -3.5959   -1.7619    2.5367 O   0  0  0  0  0  0  0  0  0  0  0  0
    0.5888    0.0976   -1.2591 O   0  0  0  0  0  0  0  0  0  0  0  0
    1.0182    0.8116   -3.4004 O   0  0  0  0  0  0  0  0  0  0  0  0
   -0.3959    2.1908   -1.5446 O   0  0  0  0  0  0  0  0  0  0  0  0
    1.1654    1.5793   -1.9409 P   0  0  0  0  0  0  0  0  0  0  0  0
    1.7979    3.2043   -2.6887 S   0  0  0  0  0  0  0  0  0  0  0  0
   -4.3343   -1.0373    1.5121 S   0  0  0  0  0  0  0  0  0  0  0  0
  5  3  2  0
  6  4  1  0
  7  3  1  0
  7  4  2  0
  8  5  1  0
  8  6  2  0
 12  1  1  0
 13  2  1  0
 14  7  1  0
 15 12  1  0
 15 13  1  0
 15 14  1  0
 16 15  2  0
 17  8  1  0
 17  9  1  0
 17 10  2  0
 17 11  2  0
M  END
>  <DRUGBANK_ID>  (1) 
DB11392

>  <COMMON_NAME>  (1) 
Cythioate

>  <CAS_NUMBER>  (1) 
115-93-5

>  <UNII>  (1) 
3OOH7Q4333

$$$$
