AED
     RDKit          3D

 16 17  0  0  0  0  0  0  0  0999 V2000
    1.0073   -0.0828   -0.0018 C   0  0  0  0  0  0  0  0  0  0  0  0
    2.1848    3.1698   -0.7299 C   0  0  0  0  0  0  0  0  0  0  0  0
    0.6311    3.1964    1.2873 C   0  0  0  0  0  0  0  0  0  0  0  0
   -1.8345   -0.0294   -0.0563 C   0  0  0  0  0  0  0  0  0  0  0  0
    0.2491   -1.2753    0.0221 C   0  0  0  0  0  0  0  0  0  0  0  0
    3.3572    3.5059    0.1821 C   0  0  0  0  0  0  0  0  0  0  0  0
   -3.3441    0.1018   -0.0330 C   0  0  0  0  0  0  0  0  0  0  0  0
   -3.9142    0.8340    1.2059 C   0  0  0  0  0  0  0  0  0  0  0  0
    2.3699   -0.1187    0.0553 O   0  0  0  0  0  0  0  0  0  0  0  0
   -1.1637   -1.2395    0.0040 C   0  0  0  0  0  0  0  0  0  0  0  0
   -3.5196    2.2419    1.3233 N   0  0  0  0  0  0  0  0  0  0  0  0
   -1.0496    1.1206   -0.1606 C   0  0  0  0  0  0  0  0  0  0  0  0
    0.3719    1.1331   -0.0965 C   0  0  0  0  0  0  0  0  0  0  0  0
    0.9392    2.5465   -0.0794 C   0  0  0  0  0  0  0  0  0  0  0  0
    2.9173    4.2328    1.4477 C   0  0  0  0  0  0  0  0  0  0  0  0
    1.8513    3.4318    2.1729 C   0  0  0  0  0  0  0  0  0  0  0  0
  1  5  2  0
  1  9  1  0
  1 13  1  0
  2  6  1  0
  2 14  1  0
  3 14  1  0
  3 16  1  0
  4  7  1  0
  4 10  2  0
  4 12  1  0
  5 10  1  0
  6 15  1  0
  7  8  1  0
  8 11  1  0
 12 13  2  0
 13 14  1  0
 15 16  1  0
M  END
>  <DRUGBANK_ID>  (1) 
DB07345

>  <COMMON_NAME>  (1) 
4-(2-aminoethyl)-2-cyclohexylphenol

$$$$
