
     RDKit          3D

 31 33  0  0  0  0  0  0  0  0999 V2000
   -5.9072   -1.6517   -1.7891 C   0  0  0  0  0  0  0  0  0  0  0  0
   -4.8160   -1.1006   -0.8859 C   0  0  1  0  0  0  0  0  0  0  0  0
   -3.5263   -1.8995   -1.1066 C   0  0  0  0  0  0  0  0  0  0  0  0
   -2.4231   -1.3091   -0.2677 C   0  0  0  0  0  0  0  0  0  0  0  0
   -2.1707    0.1906   -0.3690 C   0  0  1  0  0  0  0  0  0  0  0  0
   -3.4713    1.0011   -0.3225 C   0  0  0  0  0  0  0  0  0  0  0  0
   -4.5716    0.3872   -1.1784 C   0  0  0  0  0  0  0  0  0  0  0  0
   -1.0902    0.6976    0.6425 C   0  0  0  0  0  0  0  0  0  0  0  0
   -0.0323    1.1217    0.1598 O   0  0  0  0  0  0  0  0  0  0  0  0
   -1.3166    0.6027    2.0428 N   0  0  0  0  0  0  0  0  0  0  0  0
   -2.5437    0.0186    2.6055 C   0  0  1  0  0  0  0  0  0  0  0  0
   -2.3617   -1.4780    2.7872 C   0  0  0  0  0  0  0  0  0  0  0  0
   -3.4699   -2.0732    3.6503 C   0  0  0  0  0  0  0  0  0  0  0  0
   -3.8571   -1.2623    4.8995 C   0  0  1  0  0  0  0  0  0  0  0  0
   -4.1728    0.1816    4.5418 C   0  0  0  0  0  0  0  0  0  0  0  0
   -3.0141    0.8382    3.8261 C   0  0  0  0  0  0  0  0  0  0  0  0
   -4.9710   -1.8697    5.5387 O   0  0  0  0  0  0  0  0  0  0  0  0
   -0.2563    0.9859    2.9682 C   0  0  0  0  0  0  0  0  0  0  0  0
    0.1722    0.3619    4.1834 C   0  0  0  0  0  0  0  0  0  0  0  0
    1.3876    1.3412    4.9470 S   0  0  0  0  0  0  0  0  0  0  0  0
    1.3517    2.5431    3.7708 C   0  0  0  0  0  0  0  0  0  0  0  0
    0.4516    2.2504    2.7748 C   0  0  0  0  0  0  0  0  0  0  0  0
    2.1797    3.6954    3.8604 C   0  0  0  0  0  0  0  0  0  0  0  0
    2.9265    4.6461    3.9812 C   0  0  0  0  0  0  0  0  0  0  0  0
    3.8556    5.7855    4.1328 C   0  0  0  0  0  0  0  0  0  0  0  0
    4.0708    6.4591    2.7710 C   0  0  0  0  0  0  0  0  0  0  0  0
    3.2727    6.8041    5.1224 C   0  0  0  0  0  0  0  0  0  0  0  0
    5.2112    5.2911    4.6577 C   0  0  0  0  0  0  0  0  0  0  0  0
   -0.0335   -0.8649    5.0019 C   0  0  0  0  0  0  0  0  0  0  0  0
    0.6990   -1.3335    5.8632 O   0  0  0  0  0  0  0  0  0  0  0  0
   -1.1734   -1.5189    4.8143 O   0  0  0  0  0  0  0  0  0  0  0  0
  2  1  1  6
  2  3  1  0
  2  7  1  0
  3  4  1  0
  4  5  1  0
  5  6  1  0
  5  8  1  1
  6  7  1  0
  8  9  2  0
  8 10  1  0
 10 18  1  0
 11 12  1  0
 11 16  1  0
 11 10  1  1
 12 13  1  0
 13 14  1  0
 14 15  1  0
 14 17  1  6
 15 16  1  0
 18 19  2  0
 18 22  1  0
 19 20  1  0
 19 29  1  0
 20 21  1  0
 21 22  2  0
 21 23  1  0
 23 24  3  0
 24 25  1  0
 25 26  1  0
 25 27  1  0
 25 28  1  0
 29 30  2  0
 29 31  1  0
M  END
>  <DRUGBANK_ID>  (1) 
DB11954

>  <COMMON_NAME>  (1) 
Lomibuvir

>  <CAS_NUMBER>  (1) 
1026785-55-6

>  <UNII>  (1) 
37L2LF4A2D

>  <SYNONYMS>  (1) 
Lomibuvir

$$$$
