
     RDKit          3D

  7  6  0  0  0  0  0  0  0  0999 V2000
    0.9313    0.0630    0.0363 P   0  0  0  0  0  0  0  0  0  0  0  0
    1.0611    1.7078    0.2554 O   0  0  0  0  0  0  0  0  0  0  0  0
    0.9884    0.1061   -1.6301 O   0  0  0  0  0  0  0  0  0  0  0  0
   -0.6170    0.0630    0.0363 O   0  0  0  0  0  0  0  0  0  0  0  0
    3.4220    0.9770   -0.7402 O   0  0  0  0  0  0  0  0  0  0  0  0
    3.3425   -0.8032    0.6766 O   0  0  0  0  0  0  0  0  0  0  0  0
    2.7613    0.0630    0.0363 C   0  0  0  0  0  0  0  0  0  0  0  0
  1  2  1  0
  1  3  1  0
  1  4  2  0
  1  7  1  0
  5  7  1  0
  6  7  2  0
M  END
>  <DRUGBANK_ID>  (1) 
DB00529

>  <SECONDARY_ACCESSION_NUMBERS>  (1) 
APRD00669

>  <COMMON_NAME>  (1) 
Foscarnet

>  <CAS_NUMBER>  (1) 
4428-95-9

>  <UNII>  (1) 
364P9RVW4X

>  <SYNONYMS>  (1) 
Carboxyphosphonic acid; Foscarmet; Phosphonoformate; Phosphonoformic acid; Phosphonomethanoic acid

$$$$
