
     RDKit          3D

 31 34  0  0  0  0  0  0  0  0999 V2000
    1.0828    0.0281   -0.0720 C   0  0  0  0  0  0  0  0  0  0  0  0
    0.5431   -0.7357   -1.2757 C   0  0  0  0  0  0  0  0  0  0  0  0
    0.9913   -2.2144   -1.2866 C   0  0  0  0  0  0  0  0  0  0  0  0
    0.4964   -3.0674   -0.1892 N   0  0  0  0  0  0  0  0  0  0  0  0
    0.5541   -4.4468   -0.0825 C   0  0  0  0  0  0  0  0  0  0  0  0
   -0.0350   -4.8483    1.1379 C   0  0  0  0  0  0  0  0  0  0  0  0
   -0.2836   -3.5809    1.7356 C   0  0  0  0  0  0  0  0  0  0  0  0
   -0.0676   -2.5424    0.9114 N   0  0  0  0  0  0  0  0  0  0  0  0
    0.1322   -6.1780    1.8249 N   0  0  0  0  0  0  0  0  0  0  0  0
    1.4373   -6.7291    1.8957 C   0  0  0  0  0  0  0  0  0  0  0  0
    2.7752   -5.8901    1.2001 Cl  0  0  0  0  0  0  0  0  0  0  0  0
    1.4521   -7.9203    2.5655 C   0  0  0  0  0  0  0  0  0  0  0  0
    2.6637   -9.1000    3.0416 S   0  0  0  0  0  0  0  0  0  0  0  0
    4.1908   -8.4239    2.5345 C   0  0  0  0  0  0  0  0  0  0  0  0
    4.8368   -9.0301    1.4632 C   0  0  0  0  0  0  0  0  0  0  0  0
    5.8444   -8.3391    0.8159 C   0  0  0  0  0  0  0  0  0  0  0  0
    6.4002   -7.2049    1.4121 C   0  0  0  0  0  0  0  0  0  0  0  0
    5.8545   -6.6706    2.5922 C   0  0  0  0  0  0  0  0  0  0  0  0
    6.4171   -5.5013    3.2899 C   0  0  0  0  0  0  0  0  0  0  0  0
    7.5801   -5.0152    2.8464 O   0  0  0  0  0  0  0  0  0  0  0  0
    5.8660   -4.9893    4.2975 O   0  0  0  0  0  0  0  0  0  0  0  0
    4.6941   -7.2534    3.0993 C   0  0  0  0  0  0  0  0  0  0  0  0
    3.9591   -6.6270    4.0367 F   0  0  0  0  0  0  0  0  0  0  0  0
    0.1428   -8.1603    2.9648 C   0  0  0  0  0  0  0  0  0  0  0  0
   -0.4017   -9.1715    3.7499 C   0  0  0  0  0  0  0  0  0  0  0  0
   -1.7163   -9.0216    4.2111 C   0  0  0  0  0  0  0  0  0  0  0  0
   -2.6672   -8.9383    3.2571 C   0  0  0  0  0  0  0  0  0  0  0  0
   -2.8292  -10.7300    3.6343 Cl  0  0  0  0  0  0  0  0  0  0  0  0
   -2.1584   -7.7390    2.5592 C   0  0  0  0  0  0  0  0  0  0  0  0
   -3.1058   -6.7852    2.4196 F   0  0  0  0  0  0  0  0  0  0  0  0
   -0.7382   -7.2325    2.3959 C   0  0  0  0  0  0  0  0  0  0  0  0
  1  2  1  0
  2  3  1  0
  3  4  1  0
  4  5  1  0
  4  8  1  0
  5  6  2  0
  6  7  1  0
  6  9  1  0
  7  8  2  0
  9 10  1  0
  9 31  1  0
 10 11  1  0
 10 12  2  0
 12 13  1  0
 12 24  1  0
 13 14  1  0
 14 15  2  0
 14 22  1  0
 15 16  1  0
 16 17  2  0
 17 18  1  0
 18 19  1  0
 18 22  2  0
 19 20  1  0
 19 21  2  0
 22 23  1  0
 24 25  1  0
 24 31  2  0
 25 26  2  0
 26 27  1  0
 27 28  1  0
 27 29  2  0
 29 30  1  0
 29 31  1  0
M  END
>  <DRUGBANK_ID>  (1) 
DB18203

>  <COMMON_NAME>  (1) 
Cudetaxestat

>  <CAS_NUMBER>  (1) 
1782070-21-6

>  <UNII>  (1) 
6B7TYB2MJX

>  <SYNONYMS>  (1) 
3-((2,6-dichloro-7-fluoro-1-(1-propyl-1h-pyrazol-4-yl)-1h-indol-3-yl)thio)-2-fluorobenzoic acid; Benzoic acid, 3-((2,6-dichloro-7-fluoro-1-(1-propyl-1h-pyrazol-4-yl)-1h-indol-3-yl)thio)-2-fluoro-; BLD-0409; Cudetaxestat

$$$$
