3DE
     RDKit          3D

 18 19  0  0  0  0  0  0  0  0999 V2000
    1.0326    0.0313    0.1025 C   0  0  0  0  0  0  0  0  0  0  0  0
    0.3347    0.6054    1.1287 O   0  0  0  0  0  0  0  0  0  0  0  0
   -1.0772    0.4685    1.4994 C   0  0  0  0  0  0  0  0  0  0  0  0
   -1.9236    1.2452    0.5494 C   0  0  0  0  0  0  0  0  0  0  0  0
    0.3646   -0.5715   -1.0158 C   0  0  0  0  0  0  0  0  0  0  0  0
    0.5852   -1.9224   -1.4971 C   0  0  0  0  0  0  0  0  0  0  0  0
   -0.3782   -2.1884   -2.5086 N   0  0  0  0  0  0  0  0  0  0  0  0
    1.7857   -2.7328   -1.2288 C   0  0  0  0  0  0  0  0  0  0  0  0
   -0.4965    0.0153   -2.0251 C   0  0  0  0  0  0  0  0  0  0  0  0
   -1.0155    1.3957   -2.1132 C   0  0  0  0  0  0  0  0  0  0  0  0
   -0.9366   -1.0270   -2.8864 N   0  0  0  0  0  0  0  0  0  0  0  0
   -1.7540   -0.8299   -4.0642 C   0  0  0  0  0  0  0  0  0  0  0  0
   -2.9582   -1.4966   -4.1922 C   0  0  0  0  0  0  0  0  0  0  0  0
   -3.7960   -1.1013   -5.2365 C   0  0  0  0  0  0  0  0  0  0  0  0
   -3.4302   -0.0464   -6.0881 C   0  0  0  0  0  0  0  0  0  0  0  0
   -2.2372    0.6441   -5.8950 C   0  0  0  0  0  0  0  0  0  0  0  0
   -1.3718    0.2186   -4.9032 C   0  0  0  0  0  0  0  0  0  0  0  0
    2.2725   -0.0058    0.1478 O   0  0  0  0  0  0  0  0  0  0  0  0
  1  2  1  0
  1  5  1  0
  1 18  2  0
  2  3  1  0
  3  4  1  0
  5  6  1  0
  5  9  2  0
  6  7  2  0
  6  8  1  0
  7 11  1  0
  9 10  1  0
  9 11  1  0
 11 12  1  0
 12 13  2  0
 12 17  1  0
 13 14  1  0
 14 15  2  0
 15 16  1  0
 16 17  2  0
M  CHG  1   7   1
M  END
>  <DRUGBANK_ID>  (1) 
DB07051

>  <COMMON_NAME>  (1) 
3,5-DIMETHYL-1-PHENYL-1H-PYRAZOLE-4-CARBOXYLIC ACID ETHYL ESTER

$$$$
