
     RDKit          3D

 27 31  0  0  1  0  0  0  0  0999 V2000
    0.9934    2.9977   -0.3737 C   0  0  0  0  0  0  0  0  0  0  0  0
   -0.4632    2.1230   -0.3328 O   0  0  0  0  0  0  0  0  0  0  0  0
   -0.7580    0.8145    0.5408 C   0  0  0  0  0  0  0  0  0  0  0  0
    0.3466    0.8368    1.4564 C   0  0  0  0  0  0  0  0  0  0  0  0
    0.0518    2.3047    1.7664 C   0  0  1  0  0  0  0  0  0  0  0  0
   -1.0742    3.4213    2.1756 C   0  0  0  0  0  0  0  0  0  0  0  0
   -0.7970    4.0713    3.9385 C   0  0  1  0  0  0  0  0  0  0  0  0
   -0.8016    2.8743    4.7584 C   0  0  0  0  0  0  0  0  0  0  0  0
   -0.7888    2.0895    3.5399 N   0  0  0  0  0  0  0  0  0  0  0  0
   -2.5562    2.1271    2.7867 C   0  0  0  0  0  0  0  0  0  0  0  0
   -3.5644    3.6956    2.2465 C   0  0  0  0  0  0  0  0  0  0  0  0
   -2.8371    5.4000    2.1209 C   0  0  0  0  0  0  0  0  0  0  0  0
   -1.5159    5.8742    1.8272 C   0  0  0  0  0  0  0  0  0  0  0  0
   -1.2664    7.2154    2.0272 N   0  0  0  0  0  0  0  0  0  0  0  0
   -2.2712    7.5731    2.8842 C   0  0  0  0  0  0  0  0  0  0  0  0
   -3.2451    6.5321    2.8666 C   0  0  0  0  0  0  0  0  0  0  0  0
   -4.2378    6.5241    3.8122 C   0  0  0  0  0  0  0  0  0  0  0  0
   -4.3244    7.6217    4.6319 C   0  0  0  0  0  0  0  0  0  0  0  0
   -3.3293    8.6066    4.6656 C   0  0  0  0  0  0  0  0  0  0  0  0
   -2.2016    8.5476    3.8679 C   0  0  0  0  0  0  0  0  0  0  0  0
   -0.1794    5.0833    1.7489 C   0  0  2  0  0  0  0  0  0  0  0  0
   -0.5876    5.4295    3.6013 C   0  0  0  0  0  0  0  0  0  0  0  0
    0.3806    3.3344    2.5838 C   0  0  2  0  0  0  0  0  0  0  0  0
   -1.1729    4.7869   -0.0348 C   0  0  0  0  0  0  0  0  0  0  0  0
   -2.3376    4.9357   -0.2307 O   0  0  0  0  0  0  0  0  0  0  0  0
   -0.5618    4.3902   -1.2171 O   0  0  0  0  0  0  0  0  0  0  0  0
   -1.0991    3.3864   -2.3412 C   0  0  0  0  0  0  0  0  0  0  0  0
  1  2  1  0
  2  3  1  0
  3  4  1  0
  5  6  1  0
  5  4  1  1
  7  6  1  6
  7  8  1  0
  7 22  1  0
  9  8  1  0
  9 10  1  0
 10 11  1  0
 11 12  1  0
 12 13  2  0
 12 16  1  0
 13 14  1  0
 14 15  1  0
 15 16  2  0
 15 20  1  0
 16 17  1  0
 17 18  2  0
 18 19  1  0
 19 20  2  0
 21 13  1  0
 21 22  1  0
 21 24  1  1
 23 21  1  0
 23  5  1  0
 23  9  1  1
 24 25  2  0
 24 26  1  0
 26 27  1  0
M  END
>  <DRUGBANK_ID>  (1) 
DB15096

>  <COMMON_NAME>  (1) 
18-methoxycoronaridine

>  <CAS_NUMBER>  (1) 
308123-60-6

>  <UNII>  (1) 
KX8NQX91Z8

$$$$
