1056
     RDKit          3D

 14 14  0  0  1  0  0  0  0  0999 V2000
    1.0543    0.1269    0.2711 O   0  0  0  0  0  0  0  0  0  0  0  0
    3.0996    0.4327    1.1549 N   0  0  0  0  0  0  0  0  0  0  0  0
    2.5322   -1.8658   -1.5177 N   0  0  0  0  0  0  0  0  0  0  0  0
    4.5133    0.5125    1.2291 C   0  0  0  0  0  0  0  0  0  0  0  0
    5.2866    1.1544    0.2346 C   0  0  0  0  0  0  0  0  0  0  0  0
    5.1814   -0.0445    2.3450 C   0  0  0  0  0  0  0  0  0  0  0  0
    2.8888   -0.4642   -1.2225 C   0  0  0  0  0  0  0  0  0  0  0  0
    2.2850    0.0662    0.1001 C   0  0  0  0  0  0  0  0  0  0  0  0
    6.6818    1.0508    0.2460 C   0  0  0  0  0  0  0  0  0  0  0  0
    6.5914   -0.0833    2.3498 C   0  0  0  0  0  0  0  0  0  0  0  0
    4.7230    1.9741   -0.8797 C   0  0  0  0  0  0  0  0  0  0  0  0
    4.4733   -0.6662    3.5215 C   0  0  0  0  0  0  0  0  0  0  0  0
    7.3334    0.4302    1.2929 C   0  0  0  0  0  0  0  0  0  0  0  0
    2.4506    0.4164   -2.4075 C   0  0  0  0  0  0  0  0  0  0  0  0
  1  8  2  0
  2  4  1  0
  2  8  1  0
  3  7  1  0
  4  5  2  0
  4  6  1  0
  5  9  1  0
  5 11  1  0
  6 10  2  0
  6 12  1  0
  7  8  1  0
  7 14  1  0
  9 13  2  0
 10 13  1  0
M  END
>  <DRUGBANK_ID>  (1) 
DB01056

>  <SECONDARY_ACCESSION_NUMBERS>  (1) 
APRD01266

>  <COMMON_NAME>  (1) 
Tocainide

>  <CAS_NUMBER>  (1) 
41708-72-9

>  <UNII>  (1) 
27DXO59SAN

>  <SYNONYMS>  (1) 
2-Amino-2',6'-propionoxylidide; 2-amino-N-(2,6-dimethylphenyl)propanamide; 2-Amino-N-(2,6-dimethylphenyl)propionamid; Alanyl-2,6-xylidide; Tocainida; Tocainide; Tocainidum

$$$$
