
     RDKit          3D

 30 33  0  0  0  0  0  0  0  0999 V2000
    2.5200   -0.0932    0.2537 C   0  0  0  0  0  0  0  0  0  0  0  0
    1.0085   -0.0372    0.3695 C   0  0  0  0  0  0  0  0  0  0  0  0
    0.3388    1.1927    0.4859 C   0  0  0  0  0  0  0  0  0  0  0  0
   -1.0581    1.2553    0.3150 C   0  0  0  0  0  0  0  0  0  0  0  0
   -1.7439    0.0521    0.1817 C   0  0  0  0  0  0  0  0  0  0  0  0
   -1.1318   -1.1528    0.0945 N   0  0  0  0  0  0  0  0  0  0  0  0
    0.2235   -1.1889    0.1828 C   0  0  0  0  0  0  0  0  0  0  0  0
    0.8344   -2.5189    0.0960 C   0  0  0  0  0  0  0  0  0  0  0  0
    0.6473   -3.3947   -0.9740 C   0  0  0  0  0  0  0  0  0  0  0  0
    1.3304   -4.6026   -0.9552 C   0  0  0  0  0  0  0  0  0  0  0  0
    2.1827   -4.9799    0.0276 N   0  0  0  0  0  0  0  0  0  0  0  0
    2.3507   -4.1278    1.0602 C   0  0  0  0  0  0  0  0  0  0  0  0
    1.6883   -2.9178    1.1288 C   0  0  0  0  0  0  0  0  0  0  0  0
    3.2797   -4.5188    2.1672 C   0  0  0  0  0  0  0  0  0  0  0  0
   -1.7464    2.5721    0.0362 C   0  0  0  0  0  0  0  0  0  0  0  0
   -2.5488    2.6497   -1.2783 C   0  0  0  0  0  0  0  0  0  0  0  0
   -3.7897    2.7513   -1.2209 O   0  0  0  0  0  0  0  0  0  0  0  0
   -1.9512    2.7336   -2.5141 N   0  0  0  0  0  0  0  0  0  0  0  0
   -0.6048    2.5708   -2.8432 C   0  0  0  0  0  0  0  0  0  0  0  0
    0.0437    1.4533   -2.4051 C   0  0  0  0  0  0  0  0  0  0  0  0
    1.4213    1.3772   -2.4858 C   0  0  0  0  0  0  0  0  0  0  0  0
    2.1600    2.3274   -3.1530 C   0  0  0  0  0  0  0  0  0  0  0  0
    1.3928    3.3002   -3.7782 C   0  0  0  0  0  0  0  0  0  0  0  0
    0.0276    3.4447   -3.6435 N   0  0  0  0  0  0  0  0  0  0  0  0
    3.6102    2.1731   -3.2409 C   0  0  0  0  0  0  0  0  0  0  0  0
    4.1955    0.9371   -3.5434 C   0  0  0  0  0  0  0  0  0  0  0  0
    5.5301    0.7431   -3.6468 N   0  0  0  0  0  0  0  0  0  0  0  0
    6.2795    1.8382   -3.4117 C   0  0  0  0  0  0  0  0  0  0  0  0
    5.7197    3.0537   -3.0501 C   0  0  0  0  0  0  0  0  0  0  0  0
    4.3793    3.2516   -2.9600 N   0  0  0  0  0  0  0  0  0  0  0  0
  1  2  1  0
  2  3  2  0
  2  7  1  0
  3  4  1  0
  4  5  2  0
  4 15  1  0
  5  6  1  0
  6  7  2  0
  7  8  1  0
  8  9  2  0
  8 13  1  0
  9 10  1  0
 10 11  2  0
 11 12  1  0
 12 13  2  0
 12 14  1  0
 15 16  1  0
 16 17  2  0
 16 18  1  0
 18 19  1  0
 19 20  2  0
 19 24  1  0
 20 21  1  0
 21 22  2  0
 22 23  1  0
 22 25  1  0
 23 24  2  0
 25 26  2  0
 25 30  1  0
 26 27  1  0
 27 28  2  0
 28 29  1  0
 29 30  2  0
M  END
>  <DRUGBANK_ID>  (1) 
DB12561

>  <COMMON_NAME>  (1) 
WNT-974

>  <CAS_NUMBER>  (1) 
1243244-14-5

>  <UNII>  (1) 
U27F40013Q

>  <SYNONYMS>  (1) 
(2,4'-bipyridine)-5-acetamide, 2',3-dimethyl-N-(5-(2-pyrazinyl)-2-pyridinyl)-

$$$$
