
     RDKit          3D

 20 21  0  0  0  0  0  0  0  0999 V2000
    1.6940   -1.3268    0.0234 O   0  0  0  0  0  0  0  0  0  0  0  0
    0.4969   -0.6637    0.0963 C   0  0  0  0  0  0  0  0  0  0  0  0
    0.5280    0.7302    0.0411 C   0  0  0  0  0  0  0  0  0  0  0  0
    1.7510    1.3340   -0.0403 O   0  0  0  0  0  0  0  0  0  0  0  0
   -0.6721    1.4434    0.0594 C   0  0  0  0  0  0  0  0  0  0  0  0
   -1.9027    0.7496    0.0966 C   0  0  0  0  0  0  0  0  0  0  0  0
   -1.9281   -0.6536    0.1693 C   0  0  0  0  0  0  0  0  0  0  0  0
   -0.7090   -1.3551    0.1965 C   0  0  0  0  0  0  0  0  0  0  0  0
   -3.2630   -1.3569    0.0494 C   0  0  0  0  0  0  0  0  0  0  0  0
   -4.2953   -0.6807    0.0409 O   0  0  0  0  0  0  0  0  0  0  0  0
   -3.3236   -2.8707   -0.1171 C   0  0  0  0  0  0  0  0  0  0  0  0
   -2.6875   -3.4081   -1.3866 C   0  0  0  0  0  0  0  0  0  0  0  0
   -1.9747   -2.5809   -2.2708 C   0  0  0  0  0  0  0  0  0  0  0  0
   -1.2059   -3.0958   -3.3036 C   0  0  0  0  0  0  0  0  0  0  0  0
   -1.2188   -4.4585   -3.5429 C   0  0  0  0  0  0  0  0  0  0  0  0
   -1.9749   -5.3001   -2.7258 C   0  0  0  0  0  0  0  0  0  0  0  0
   -2.7189   -4.7805   -1.6601 C   0  0  0  0  0  0  0  0  0  0  0  0
   -0.6981    2.9146    0.0466 N   0  0  0  0  0  0  0  0  0  0  0  0
    0.3727    3.5418    0.0621 O   0  0  0  0  0  0  0  0  0  0  0  0
   -1.8075    3.4597    0.0394 O   0  0  0  0  0  0  0  0  0  0  0  0
  1  2  1  0
  2  3  2  0
  2  8  1  0
  3  4  1  0
  3  5  1  0
  5  6  2  0
  5 18  1  0
  6  7  1  0
  7  8  2  0
  7  9  1  0
  9 10  2  0
  9 11  1  0
 11 12  1  0
 12 13  2  0
 12 17  1  0
 13 14  1  0
 14 15  2  0
 15 16  1  0
 16 17  2  0
 18 19  1  0
 18 20  2  0
M  CHG  2  18   1  19  -1
M  END
>  <DRUGBANK_ID>  (1) 
DB14849

>  <COMMON_NAME>  (1) 
Nebicapone

>  <CAS_NUMBER>  (1) 
274925-86-9

>  <UNII>  (1) 
NM2KXJ990T

>  <SYNONYMS>  (1) 
Nebicapone

$$$$
