DBD
     RDKit          3D

 31 34  0  0  0  0  0  0  0  0999 V2000
   -1.9555    1.0137    0.3547 O   0  0  0  0  0  0  0  0  0  0  0  0
   -0.6924    1.6263   -0.0561 C   0  0  2  0  0  0  0  0  0  0  0  0
    0.4049    0.5483    0.0464 C   0  0  0  0  0  0  0  0  0  0  0  0
    0.1485   -0.8035    0.0407 C   0  0  0  0  0  0  0  0  0  0  0  0
   -1.2634   -1.2769    0.0681 C   0  0  0  0  0  0  0  0  0  0  0  0
   -2.2239   -0.1911   -0.3809 C   0  0  0  0  0  0  0  0  0  0  0  0
    2.0793    0.7942    0.2896 S   0  0  0  0  0  0  0  0  0  0  0  0
    2.4915   -0.8506    0.1031 C   0  0  0  0  0  0  0  0  0  0  0  0
    1.3380   -1.6276    0.0896 C   0  0  0  0  0  0  0  0  0  0  0  0
    1.3286   -3.0778    0.1405 C   0  0  0  0  0  0  0  0  0  0  0  0
    2.3282   -3.7926    0.1471 O   0  0  0  0  0  0  0  0  0  0  0  0
    0.0952   -3.6236    0.2118 O   0  0  0  0  0  0  0  0  0  0  0  0
    3.8313   -1.2797    0.0757 N   0  0  0  0  0  0  0  0  0  0  0  0
    4.9584   -0.4538    0.0394 C   0  0  0  0  0  0  0  0  0  0  0  0
    6.3506   -1.1680    0.0213 C   0  0  0  0  0  0  0  0  0  0  0  0
    7.4179   -0.5807   -0.0127 O   0  0  0  0  0  0  0  0  0  0  0  0
    6.3273   -2.5057    0.0824 O   0  0  0  0  0  0  0  0  0  0  0  0
    4.9861    0.7709    0.0486 O   0  0  0  0  0  0  0  0  0  0  0  0
   -0.4147    2.8482    0.8391 C   0  0  0  0  0  0  0  0  0  0  0  0
    0.1440    4.0213    0.1738 O   0  0  0  0  0  0  0  0  0  0  0  0
    1.0804    3.8669   -0.7847 C   0  0  0  0  0  0  0  0  0  0  0  0
    2.1470    4.8579   -0.7722 C   0  0  0  0  0  0  0  0  0  0  0  0
    3.0897    4.4821   -1.7150 C   0  0  0  0  0  0  0  0  0  0  0  0
    2.5152    3.0592   -2.5384 S   0  0  0  0  0  0  0  0  0  0  0  0
    1.1310    2.9249   -1.6679 N   0  0  0  0  0  0  0  0  0  0  0  0
    2.3234    5.9871    0.0021 C   0  0  0  0  0  0  0  0  0  0  0  0
    3.4957    6.7239   -0.2003 C   0  0  0  0  0  0  0  0  0  0  0  0
    4.4613    6.3122   -1.1439 C   0  0  0  0  0  0  0  0  0  0  0  0
    4.2666    5.1669   -1.9169 C   0  0  0  0  0  0  0  0  0  0  0  0
    2.1856    3.4279   -3.8964 O   0  0  0  0  0  0  0  0  0  0  0  0
    3.4297    1.9792   -2.2497 O   0  0  0  0  0  0  0  0  0  0  0  0
  1  2  1  0
  1  6  1  0
  2  3  1  0
  2 19  1  1
  3  4  2  0
  3  7  1  0
  4  5  1  0
  4  9  1  0
  5  6  1  0
  7  8  1  0
  8  9  2  0
  8 13  1  0
  9 10  1  0
 10 11  2  0
 10 12  1  0
 13 14  1  0
 14 15  1  0
 14 18  2  0
 15 16  2  0
 15 17  1  0
 19 20  1  0
 20 21  1  0
 21 22  1  0
 21 25  2  0
 22 23  2  0
 22 26  1  0
 23 24  1  0
 23 29  1  0
 24 25  1  0
 24 30  2  0
 24 31  2  0
 26 27  2  0
 27 28  1  0
 28 29  2  0
M  END
>  <DRUGBANK_ID>  (1) 
DB02827

>  <SECONDARY_ACCESSION_NUMBERS>  (1) 
EXPT01119

>  <COMMON_NAME>  (1) 
7-(1,1-Dioxo-1h-Benzo[D]Isothiazol-3-Yloxymethyl)-2-(Oxalyl-Amino)-4,7-Dihydro-5h-Thieno[2,3-C]Pyran-3-Carboxylic Acid

$$$$
