
     RDKit          3D

 18 19  0  0  0  0  0  0  0  0999 V2000
   -0.2313    0.8039   -0.1310 C   0  0  0  0  0  0  0  0  0  0  0  0
    0.7728   -0.3891    0.1915 C   0  0  0  0  0  0  0  0  0  0  0  0
   -0.7291   -0.6043    0.1256 C   0  0  0  0  0  0  0  0  0  0  0  0
   -0.1718    2.1264    1.0450 C   0  0  0  0  0  0  0  0  0  0  0  0
   -0.0331    3.5834    0.6228 N   0  0  0  0  0  0  0  0  0  0  0  0
   -0.5048    1.1854   -1.6138 C   0  0  0  0  0  0  0  0  0  0  0  0
   -0.1621    1.8432    2.2118 O   0  0  0  0  0  0  0  0  0  0  0  0
    1.7664   -0.9360   -0.8167 C   0  0  0  0  0  0  0  0  0  0  0  0
    3.0705   -0.3159   -0.5702 N   0  0  0  0  0  0  0  0  0  0  0  0
   -0.0978    4.7327    1.5012 C   0  0  0  0  0  0  0  0  0  0  0  0
    0.1775    4.1806   -0.6928 C   0  0  0  0  0  0  0  0  0  0  0  0
   -0.9600    0.8051   -2.8103 C   0  0  0  0  0  0  0  0  0  0  0  0
    0.1173    2.3070   -1.9394 C   0  0  0  0  0  0  0  0  0  0  0  0
    1.1204    5.6215    1.1233 C   0  0  0  0  0  0  0  0  0  0  0  0
    1.8689    3.8176   -1.4552 C   0  0  0  0  0  0  0  0  0  0  0  0
   -0.1249    3.3439   -2.9728 C   0  0  0  0  0  0  0  0  0  0  0  0
   -1.0587    1.7022   -4.0098 C   0  0  0  0  0  0  0  0  0  0  0  0
   -0.7298    3.0432   -4.0692 C   0  0  0  0  0  0  0  0  0  0  0  0
  1  4  1  0
  2  1  1  0
  2  8  1  0
  3  1  1  0
  3  2  1  0
  5  4  1  0
  6  1  1  0
  7  4  2  0
  9  8  1  0
 10  5  1  0
 11  5  1  0
 12  6  2  0
 13  6  1  0
 14 10  1  0
 15 11  1  0
 16 13  2  0
 17 12  1  0
 17 18  2  0
 18 16  1  0
M  END
>  <DRUGBANK_ID>  (1) 
DB04896

>  <COMMON_NAME>  (1) 
Milnacipran

>  <CAS_NUMBER>  (1) 
92623-85-3

>  <UNII>  (1) 
G56VK1HF36

>  <SYNONYMS>  (1) 
(+-)-Milnacipran; Midalcipran; Milnacipran; Milnacipranum

$$$$
