
     RDKit          3D

 23 26  0  0  1  0  0  0  0  0999 V2000
    2.4873    0.8063    0.3212 C   0  0  0  0  0  0  0  0  0  0  0  0
    2.4961   -0.5789    0.4656 C   0  0  0  0  0  0  0  0  0  0  0  0
    1.3423   -1.2238    0.9130 C   0  0  0  0  0  0  0  0  0  0  0  0
    0.1138   -0.5226    1.0386 C   0  0  0  0  0  0  0  0  0  0  0  0
    0.0801    0.8873    0.8752 C   0  0  0  0  0  0  0  0  0  0  0  0
    1.3114    1.5618    0.5763 C   0  0  0  0  0  0  0  0  0  0  0  0
    1.3337    3.0509    0.3560 C   0  0  0  0  0  0  0  0  0  0  0  0
    0.3561    3.7615    0.3995 O   0  0  0  0  0  0  0  0  0  0  0  0
    2.5442    3.6577    0.1457 N   0  0  0  0  0  0  0  0  0  0  0  0
   -1.2912    1.5165    0.5726 C   0  0  0  0  0  0  0  0  0  0  0  0
   -2.2660    0.5807   -0.2282 C   0  0  2  0  0  0  0  0  0  0  0  0
   -2.2912   -0.6722    0.6768 C   0  0  0  0  0  0  0  0  0  0  0  0
   -1.0252   -1.3065    0.9495 O   0  0  0  0  0  0  0  0  0  0  0  0
   -2.2637    0.4270   -1.7662 N   0  0  0  0  0  0  0  0  0  0  0  0
   -2.3955    1.6740   -2.5802 C   0  0  0  0  0  0  0  0  0  0  0  0
   -1.1977    2.6513   -2.4935 C   0  0  0  0  0  0  0  0  0  0  0  0
   -2.2219    3.7986   -2.4407 C   0  0  0  0  0  0  0  0  0  0  0  0
   -3.3001    2.7732   -2.0139 C   0  0  0  0  0  0  0  0  0  0  0  0
   -1.2601   -0.3993   -2.5177 C   0  0  0  0  0  0  0  0  0  0  0  0
   -1.0418   -1.8575   -2.0817 C   0  0  0  0  0  0  0  0  0  0  0  0
    0.4617   -1.5422   -1.9695 C   0  0  0  0  0  0  0  0  0  0  0  0
    0.1067   -0.0656   -1.9879 C   0  0  0  0  0  0  0  0  0  0  0  0
    1.3606   -2.5706    0.9004 F   0  0  0  0  0  0  0  0  0  0  0  0
  1  2  2  0
  1  6  1  0
  2  3  1  0
  3  4  2  0
  3 23  1  0
  4  5  1  0
  4 13  1  0
  5  6  2  0
  5 10  1  0
  6  7  1  0
  7  8  2  0
  7  9  1  0
 10 11  1  0
 11 12  1  0
 11 14  1  6
 12 13  1  0
 14 15  1  0
 14 19  1  0
 15 16  1  0
 15 18  1  0
 16 17  1  0
 17 18  1  0
 19 20  1  0
 19 22  1  0
 20 21  1  0
 21 22  1  0
M  END
>  <DRUGBANK_ID>  (1) 
DB06538

>  <COMMON_NAME>  (1) 
Robalzotan

>  <CAS_NUMBER>  (1) 
169758-66-1

>  <UNII>  (1) 
I18M56OGME

>  <SYNONYMS>  (1) 
(R)-3-(Dicyclobutylamino)-8-fluoro-5-chromancarboxamide; Robalzotan

$$$$
