
     RDKit          3D

 30 32  0  0  0  0  0  0  0  0999 V2000
   -1.0836   -0.0116   -0.0211 O   0  0  0  0  0  0  0  0  0  0  0  0
   -0.2278    1.0491   -0.0158 C   0  0  0  0  0  0  0  0  0  0  0  0
    1.0778    0.6192   -0.0045 C   0  0  0  0  0  0  0  0  0  0  0  0
    1.0210   -0.7952    0.0060 C   0  0  0  0  0  0  0  0  0  0  0  0
   -0.3182   -1.1458    0.0220 C   0  0  0  0  0  0  0  0  0  0  0  0
   -1.0137   -2.4785    0.0638 C   0  0  0  0  0  0  0  0  0  0  0  0
   -1.9347   -2.7082    1.6164 S   0  0  0  0  0  0  0  0  0  0  0  0
   -2.6848   -4.3581    1.5136 C   0  0  0  0  0  0  0  0  0  0  0  0
   -1.8185   -5.5885    1.3837 C   0  0  0  0  0  0  0  0  0  0  0  0
   -1.4476   -6.2420    2.5584 N   0  0  0  0  0  0  0  0  0  0  0  0
   -0.6009   -7.4307    2.7746 C   0  0  0  0  0  0  0  0  0  0  0  0
   -0.9975   -2.6693    2.7844 O   0  0  0  0  0  0  0  0  0  0  0  0
   -1.5622   -5.9797    0.2236 O   0  0  0  0  0  0  0  0  0  0  0  0
    0.1343   -7.3172    4.1029 C   0  0  0  0  0  0  0  0  0  0  0  0
    0.5379   -8.3674    4.8387 C   0  0  0  0  0  0  0  0  0  0  0  0
    0.1984   -9.7870    4.4951 C   0  0  0  0  0  0  0  0  0  0  0  0
    1.3194  -10.6805    4.4676 O   0  0  0  0  0  0  0  0  0  0  0  0
    2.1746  -10.5417    3.3950 C   0  0  0  0  0  0  0  0  0  0  0  0
    2.3523  -11.6196    2.6095 N   0  0  0  0  0  0  0  0  0  0  0  0
    3.3011  -11.5172    1.6397 C   0  0  0  0  0  0  0  0  0  0  0  0
    4.0289  -10.3671    1.3619 C   0  0  0  0  0  0  0  0  0  0  0  0
    3.8343   -9.2599    2.1769 C   0  0  0  0  0  0  0  0  0  0  0  0
    2.9623   -9.4109    3.2646 C   0  0  0  0  0  0  0  0  0  0  0  0
    4.4977   -7.9267    1.8671 C   0  0  0  0  0  0  0  0  0  0  0  0
    3.6000   -6.8486    1.3969 N   0  0  0  0  0  0  0  0  0  0  0  0
    2.8531   -7.2660    0.1956 C   0  0  0  0  0  0  0  0  0  0  0  0
    1.9510   -6.1621   -0.3339 C   0  0  0  0  0  0  0  0  0  0  0  0
    1.0783   -5.6498    0.7583 C   0  0  0  0  0  0  0  0  0  0  0  0
    1.7462   -5.3261    2.0696 C   0  0  0  0  0  0  0  0  0  0  0  0
    2.6915   -6.4377    2.4662 C   0  0  0  0  0  0  0  0  0  0  0  0
  1  2  1  0
  2  3  2  0
  3  4  1  0
  4  5  2  0
  5  1  1  0
  5  6  1  0
  6  7  1  0
  7  8  1  0
  7 12  2  0
  8  9  1  0
  9 10  1  0
  9 13  2  0
 10 11  1  0
 11 14  1  0
 14 15  2  0
 15 16  1  0
 16 17  1  0
 17 18  1  0
 18 19  2  0
 19 20  1  0
 20 21  2  0
 21 22  1  0
 22 23  2  0
 22 24  1  0
 23 18  1  0
 24 25  1  0
 25 26  1  0
 25 30  1  0
 26 27  1  0
 27 28  1  0
 28 29  1  0
 29 30  1  0
M  END
>  <DRUGBANK_ID>  (1) 
DB12770

>  <COMMON_NAME>  (1) 
Lafutidine

>  <CAS_NUMBER>  (1) 
118288-08-7

>  <UNII>  (1) 
49S4O7ADLC

>  <SYNONYMS>  (1) 
Lafutidine

$$$$
