
     RDKit          3D

 22 25  0  0  0  0  0  0  0  0999 V2000
    1.3316   -1.5259    0.1465 C   0  0  2  0  0  0  0  0  0  0  0  0
   -0.0731   -0.7979   -0.1317 C   0  0  2  0  0  0  0  0  0  0  0  0
   -0.0581    0.7282    0.2114 C   0  0  2  0  0  0  0  0  0  0  0  0
   -1.3375    1.5032   -0.2400 C   0  0  2  0  0  0  0  0  0  0  0  0
   -2.5454    2.2512    2.3451 C   0  0  2  0  0  0  0  0  0  0  0  0
   -2.5725    0.7302    0.3117 C   0  0  2  0  0  0  0  0  0  0  0  0
   -1.3177   -1.5487    0.3236 C   0  0  2  0  0  0  0  0  0  0  0  0
    2.3491   -0.7129   -0.6915 C   0  0  1  0  0  0  0  0  0  0  0  0
   -1.4023    1.6052   -1.7970 C   0  0  0  0  0  0  0  0  0  0  0  0
   -1.2490    2.9530    0.3444 C   0  0  0  0  0  0  0  0  0  0  0  0
   -1.2442    2.9150    1.8779 C   0  0  0  0  0  0  0  0  0  0  0  0
   -2.6361    2.2840    3.7637 O   0  0  0  0  0  0  0  0  0  0  0  0
   -2.6428    0.8098    1.8451 C   0  0  0  0  0  0  0  0  0  0  0  0
   -2.5408   -0.7404   -0.1574 C   0  0  0  0  0  0  0  0  0  0  0  0
   -1.2322   -1.8417    1.7048 O   0  0  0  0  0  0  0  0  0  0  0  0
    1.1591    1.4392   -0.3909 C   0  0  0  0  0  0  0  0  0  0  0  0
    2.3361    0.6586    0.0050 C   0  0  0  0  0  0  0  0  0  0  0  0
    3.8399   -1.0362   -0.5910 C   0  0  0  0  0  0  0  0  0  0  0  0
    1.6975   -1.3423   -2.0530 C   0  0  0  0  0  0  0  0  0  0  0  0
    1.0258   -0.8400   -2.9108 O   0  0  0  0  0  0  0  0  0  0  0  0
    1.7658   -2.8559   -1.8669 C   0  0  0  0  0  0  0  0  0  0  0  0
    1.3888   -2.9776   -0.3876 C   0  0  0  0  0  0  0  0  0  0  0  0
  1  2  1  0
  1  8  1  0
  1 22  1  6
  2  7  1  1
  3  2  1  0
  3  4  1  0
  4  9  1  6
  5 11  1  0
  5 12  1  1
  6  4  1  0
  6 13  1  1
  7 14  1  0
  7 15  1  1
  8 17  1  0
  8 18  1  1
 10  4  1  0
 11 10  1  0
 13  5  1  0
 14  6  1  0
  3 16  1  6
 17 16  1  0
 19  8  1  0
 19 20  2  0
 21 19  1  0
 22 21  1  0
M  END
>  <DRUGBANK_ID>  (1) 
DB06622

>  <COMMON_NAME>  (1) 
7-beta-Hydroxyepiandrosterone

>  <CAS_NUMBER>  (1) 
25848-69-5

>  <UNII>  (1) 
OCP3E5KD08

>  <SYNONYMS>  (1) 
(3beta,5alpha,7beta)-3,7-Dihydroxyandrostan-17-one; 7beta-OH-Epia; 7β-Hydroxyepiandrosterone; 7β-OH-EPIA

$$$$
