
     RDKit          3D

 15 14  0  0  1  0  0  0  0  0999 V2000
    0.5990    1.7068   -1.8947 C   0  0  0  0  0  0  0  0  0  0  0  0
    4.1862    0.2736   -2.4378 C   0  0  0  0  0  0  0  0  0  0  0  0
    0.9973   -0.0003    0.1000 C   0  0  0  0  0  0  0  0  0  0  0  0
    0.1436    1.2016   -0.4971 C   0  0  2  0  0  0  0  0  0  0  0  0
    3.0979   -0.3666   -1.5812 C   0  0  2  0  0  0  0  0  0  0  0  0
    5.2377   -0.7352   -2.7917 C   0  0  0  0  0  0  0  0  0  0  0  0
   -1.3396    1.1460   -0.4749 C   0  0  0  0  0  0  0  0  0  0  0  0
    1.9475   -0.8251   -2.3838 N   0  0  0  0  0  0  0  0  0  0  0  0
    5.5483   -1.0484   -3.9174 O   0  0  0  0  0  0  0  0  0  0  0  0
    5.8437   -1.2877   -1.7200 O   0  0  0  0  0  0  0  0  0  0  0  0
   -2.0486    1.9941    0.0154 O   0  0  0  0  0  0  0  0  0  0  0  0
   -1.8483    0.1413   -1.1974 O   0  0  0  0  0  0  0  0  0  0  0  0
    2.2413    2.1613    0.1452 O   0  0  0  0  0  0  0  0  0  0  0  0
    4.1823    1.1256    0.0604 O   0  0  0  0  0  0  0  0  0  0  0  0
    2.7226    0.6096    0.0786 P   0  0  2  0  0  0  0  0  0  0  0  0
  4  3  1  0
  4  1  1  6
  5  8  1  6
  5  2  1  0
  6  2  1  0
  7  4  1  0
  9  6  2  0
 10  6  1  0
 11  7  2  0
 12  7  1  0
 15  3  1  0
 15  5  1  0
 15 13  1  6
 15 14  2  0
M  END
>  <DRUGBANK_ID>  (1) 
DB03340

>  <SECONDARY_ACCESSION_NUMBERS>  (1) 
EXPT00448

>  <COMMON_NAME>  (1) 
3-[(1-Amino-2-Carboxy-Ethyl)-Hydroxy-Phosphinoyl]-2-Methyl-Propionic Acid

$$$$
