
     RDKit          3D

 19 18  0  0  0  0  0  0  0  0999 V2000
   -4.4112   -3.0983   -6.0821 C   0  0  0  0  0  0  0  0  0  0  0  0
   -3.6389   -2.2305   -6.4651 O   0  0  0  0  0  0  0  0  0  0  0  0
   -4.7718   -3.3826   -4.6238 C   0  0  1  0  0  0  0  0  0  0  0  0
   -6.2155   -3.2224   -4.3828 N   0  0  0  0  0  0  0  0  0  0  0  0
   -1.9275   -5.5056   -1.6395 N   0  0  0  0  0  0  0  0  0  0  0  0
   -2.3462   -4.1652   -2.0715 C   0  0  0  0  0  0  0  0  0  0  0  0
   -4.3100   -4.7954   -4.2469 C   0  0  0  0  0  0  0  0  0  0  0  0
   -2.0050   -3.9870   -3.5407 C   0  0  0  0  0  0  0  0  0  0  0  0
   -2.7916   -4.9550   -4.4236 C   0  0  0  0  0  0  0  0  0  0  0  0
   -4.9840   -3.9476   -6.9588 O   0  0  0  0  0  0  0  0  0  0  0  0
   -2.2330   -5.6900   -0.2050 C   0  0  2  0  0  0  0  0  0  0  0  0
   -1.4035   -4.7394    0.6842 C   0  0  0  0  0  0  0  0  0  0  0  0
   -1.5197   -4.6080    1.8985 O   0  0  0  0  0  0  0  0  0  0  0  0
   -0.4648   -4.0160    0.0416 O   0  0  0  0  0  0  0  0  0  0  0  0
   -1.9757   -7.1582    0.1863 C   0  0  0  0  0  0  0  0  0  0  0  0
   -2.4040   -7.4859    1.6230 C   0  0  0  0  0  0  0  0  0  0  0  0
   -3.8820   -7.2357    1.8505 C   0  0  0  0  0  0  0  0  0  0  0  0
   -4.5761   -8.3096    2.2734 O   0  0  0  0  0  0  0  0  0  0  0  0
   -4.4368   -6.1622    1.6621 O   0  0  0  0  0  0  0  0  0  0  0  0
  1  2  2  0
  1  3  1  0
  3  4  1  6
  3  7  1  0
  5  6  1  0
  6  8  1  0
  7  9  1  0
  8  9  1  0
 10  1  1  0
 11 12  1  0
 11  5  1  0
 13 12  2  0
 14 12  1  0
 11 15  1  1
 16 15  1  0
 16 17  1  0
 18 17  1  0
 19 17  2  0
M  END
>  <DRUGBANK_ID>  (1) 
DB04207

>  <SECONDARY_ACCESSION_NUMBERS>  (1) 
EXPT02906

>  <COMMON_NAME>  (1) 
L-Saccharopine

>  <CAS_NUMBER>  (1) 
997-68-2

>  <UNII>  (1) 
WBQ73O8W32

>  <SYNONYMS>  (1) 
epsilon-N-(L-Glutar-2-yl)-L-lysine; N-[(S)-5-Amino-5-carboxypentyl]-L-glutamic acid; N6-(L-1,3-Dicarboxypropyl)-L-lysine; Saccharopine

$$$$
