
     RDKit          3D

 30 32  0  0  1  0  0  0  0  0999 V2000
    2.0462   -0.1710   -0.1439 C   0  0  1  0  0  0  0  0  0  0  0  0
    2.7709    1.0975    0.1860 C   0  0  0  0  0  0  0  0  0  0  0  0
    3.8409    0.9669    1.2444 C   0  0  0  0  0  0  0  0  0  0  0  0
    4.0004   -0.5067    1.1904 C   0  0  1  0  0  0  0  0  0  0  0  0
    4.6616   -1.2293    2.2932 C   0  0  0  0  0  0  0  0  0  0  0  0
    4.5905   -2.6761    1.9302 C   0  0  0  0  0  0  0  0  0  0  0  0
    3.3316   -3.3799    1.4983 C   0  0  0  0  0  0  0  0  0  0  0  0
    2.6239   -2.5255    0.4736 C   0  0  0  0  0  0  0  0  0  0  0  0
    2.5594   -1.0808    0.9778 C   0  0  2  0  0  0  0  0  0  0  0  0
    1.7499   -1.0220    2.3102 C   0  0  0  0  0  0  0  0  0  0  0  0
    5.3454   -0.7217    3.3336 C   0  0  0  0  0  0  0  0  0  0  0  0
    6.1888   -1.5507    4.1776 C   0  0  0  0  0  0  0  0  0  0  0  0
    7.2019   -2.3528    3.7754 C   0  0  0  0  0  0  0  0  0  0  0  0
    7.9406   -3.2003    4.7798 C   0  0  0  0  0  0  0  0  0  0  0  0
    9.4565   -3.0549    4.6096 C   0  0  1  0  0  0  0  0  0  0  0  0
   10.1305   -3.9682    5.4684 O   0  0  0  0  0  0  0  0  0  0  0  0
    9.8842   -3.3043    3.1626 C   0  0  0  0  0  0  0  0  0  0  0  0
    9.2192   -2.2997    2.2251 C   0  0  0  0  0  0  0  0  0  0  0  0
    7.7406   -2.4802    2.3939 C   0  0  0  0  0  0  0  0  0  0  0  0
    7.2245   -3.1343    1.3682 C   0  0  0  0  0  0  0  0  0  0  0  0
    0.4916   -0.0035   -0.1669 C   0  0  2  0  0  0  0  0  0  0  0  0
   -0.0071   -0.5049   -1.5276 C   0  0  0  0  0  0  0  0  0  0  0  0
   -0.2008    1.3801    0.1482 C   0  0  0  0  0  0  0  0  0  0  0  0
    0.1723    2.3080    1.3585 C   0  0  0  0  0  0  0  0  0  0  0  0
    1.3202    3.3716    1.1961 C   0  0  1  0  0  0  0  0  0  0  0  0
    1.1223    4.1131   -0.0059 O   0  0  0  0  0  0  0  0  0  0  0  0
    1.6565    4.1860    2.4558 C   0  0  0  0  0  0  0  0  0  0  0  0
    1.9016    3.2848    3.6840 C   0  0  0  0  0  0  0  0  0  0  0  0
    2.9585    4.9712    2.1787 C   0  0  0  0  0  0  0  0  0  0  0  0
    0.5662    5.0505    2.7216 O   0  0  0  0  0  0  0  0  0  0  0  0
  1  2  1  1
  1  9  1  0
  1 21  1  0
  2  3  1  0
  4  3  1  1
  4  5  1  0
  5  6  1  0
  5 11  2  0
  6  7  1  0
  7  8  1  0
  9  8  1  0
  9  4  1  0
  9 10  1  1
 11 12  1  0
 12 13  2  0
 13 14  1  0
 13 19  1  0
 15 14  1  0
 15 16  1  1
 15 17  1  0
 17 18  1  0
 18 19  1  0
 19 20  2  0
 21 23  1  0
 21 22  1  6
 23 24  1  0
 25 24  1  0
 25 26  1  6
 25 27  1  0
 27 28  1  0
 27 29  1  0
 27 30  1  0
M  END
>  <DRUGBANK_ID>  (1) 
DB18406

>  <COMMON_NAME>  (1) 
Secalciferol

>  <CAS_NUMBER>  (1) 
55721-11-4

>  <UNII>  (1) 
460029IUDA

>  <SYNONYMS>  (1) 
(5z,7e,24r)-9,10-secocholesta-5,7,10(19)-triene-3b,24,25-triol; 2,3-heptanediol, 2-methyl-6-((1r,3as,4e,7ar)-octahydro-4-((2z)-2-((5s)-5-hydroxy-2-methylenecyclohexylidene)ethylidene)-7a-methyl-1h-inden-1-yl)-, (3r,6r)-; 24(R),25-(OH)2D3; Osteo d

$$$$
