657
     RDKit          3D

 12 13  0  0  1  0  0  0  0  0999 V2000
    0.9837   -0.1092   -0.0701 N   0  0  0  0  0  0  0  0  0  0  0  0
    1.4462    2.0713   -1.2869 C   0  0  0  0  0  0  0  0  0  0  0  0
    0.6113    0.6953   -1.2655 C   0  0  0  0  0  0  0  0  0  0  0  0
    0.3103    3.1476   -1.1634 C   0  0  0  0  0  0  0  0  0  0  0  0
   -0.8585    1.2481   -1.1301 C   0  0  0  0  0  0  0  0  0  0  0  0
   -0.6964    2.4732   -0.2237 C   0  0  0  0  0  0  0  0  0  0  0  0
   -0.5250    3.2397   -2.4538 C   0  0  0  0  0  0  0  0  0  0  0  0
   -1.3333    1.9379   -2.4308 C   0  0  0  0  0  0  0  0  0  0  0  0
    2.4252    2.2578   -0.0927 C   0  0  0  0  0  0  0  0  0  0  0  0
    2.3114    2.2575   -2.5467 C   0  0  0  0  0  0  0  0  0  0  0  0
    0.7826   -0.1656   -2.5344 C   0  0  0  0  0  0  0  0  0  0  0  0
    0.5179   -1.4930   -0.0567 C   0  0  0  0  0  0  0  0  0  0  0  0
  1  3  1  0
  1 12  1  0
  2  3  1  0
  2  4  1  0
  2  9  1  0
  2 10  1  0
  3  5  1  0
  3 11  1  0
  4  6  1  0
  4  7  1  0
  5  6  1  0
  5  8  1  0
  7  8  1  0
M  END
>  <DRUGBANK_ID>  (1) 
DB00657

>  <SECONDARY_ACCESSION_NUMBERS>  (1) 
APRD00458

>  <COMMON_NAME>  (1) 
Mecamylamine

>  <CAS_NUMBER>  (1) 
60-40-2

>  <SYNONYMS>  (1) 
Mecamylamine

$$$$
