
     RDKit          3D

 17 18  0  0  0  0  0  0  0  0999 V2000
    1.0319    0.3470    0.2564 O   0  0  0  0  0  0  0  0  0  0  0  0
    4.1788   -2.0111    2.3518 N   0  0  0  0  0  0  0  0  0  0  0  0
    3.3605   -2.9521    1.7963 N   0  0  0  0  0  0  0  0  0  0  0  0
    2.9042   -0.8967    0.8896 C   0  0  0  0  0  0  0  0  0  0  0  0
    1.5456   -2.9813    0.0867 C   0  0  0  0  0  0  0  0  0  0  0  0
    2.5804   -2.2773    0.9356 C   0  0  0  0  0  0  0  0  0  0  0  0
    3.9430   -0.7564    1.7811 C   0  0  0  0  0  0  0  0  0  0  0  0
    3.0366    1.0736   -0.7649 C   0  0  0  0  0  0  0  0  0  0  0  0
    2.2477    0.1554    0.1389 C   0  0  0  0  0  0  0  0  0  0  0  0
    0.1265   -2.4696    0.3550 C   0  0  0  0  0  0  0  0  0  0  0  0
    1.8896   -2.8278   -1.4005 C   0  0  0  0  0  0  0  0  0  0  0  0
    4.7130    0.3483    2.2378 C   0  0  0  0  0  0  0  0  0  0  0  0
    2.6419    0.8647   -2.2264 C   0  0  0  0  0  0  0  0  0  0  0  0
    2.6655    2.4873   -0.3239 C   0  0  0  0  0  0  0  0  0  0  0  0
    5.1477   -2.1847    3.3526 C   0  0  0  0  0  0  0  0  0  0  0  0
    5.6400    0.1692    3.1934 C   0  0  0  0  0  0  0  0  0  0  0  0
    5.8762   -1.1368    3.7803 C   0  0  0  0  0  0  0  0  0  0  0  0
  1  9  2  0
  2  3  1  0
  2  7  1  0
  2 15  1  0
  3  6  2  0
  4  6  1  0
  4  7  2  0
  4  9  1  0
  5  6  1  0
  5 10  1  0
  5 11  1  0
  7 12  1  0
  8  9  1  0
  8 13  1  0
  8 14  1  0
 12 16  2  0
 15 17  2  0
 16 17  1  0
M  END
>  <DRUGBANK_ID>  (1) 
DB05266

>  <SECONDARY_ACCESSION_NUMBERS>  (1) 
DB05066

>  <COMMON_NAME>  (1) 
Ibudilast

>  <CAS_NUMBER>  (1) 
50847-11-5

>  <UNII>  (1) 
M0TTH61XC5

>  <SYNONYMS>  (1) 
Ibudilast; Ibudilastum

$$$$
