
     RDKit          3D

 21 23  0  0  0  0  0  0  0  0999 V2000
    0.5871    0.1559   -0.4839 C   0  0  0  0  0  0  0  0  0  0  0  0
    0.3146   -1.3105   -0.3465 C   0  0  0  0  0  0  0  0  0  0  0  0
   -0.8866   -1.5915   -0.7165 N   0  0  0  0  0  0  0  0  0  0  0  0
   -1.2596   -2.9120   -0.8377 C   0  0  0  0  0  0  0  0  0  0  0  0
   -0.4307   -3.9607   -0.4662 C   0  0  0  0  0  0  0  0  0  0  0  0
   -0.8371   -5.2882   -0.6486 C   0  0  0  0  0  0  0  0  0  0  0  0
   -0.2128   -6.3476   -0.0011 N   0  0  0  0  0  0  0  0  0  0  0  0
   -2.0030   -5.5121   -1.3869 C   0  0  0  0  0  0  0  0  0  0  0  0
   -2.7756   -4.4495   -1.8599 C   0  0  0  0  0  0  0  0  0  0  0  0
   -2.4699   -3.1579   -1.4703 C   0  0  0  0  0  0  0  0  0  0  0  0
    0.9051   -3.6082    0.0615 C   0  0  0  0  0  0  0  0  0  0  0  0
    1.6593   -4.4979    0.4298 O   0  0  0  0  0  0  0  0  0  0  0  0
    1.2396   -2.2403    0.0911 N   0  0  0  0  0  0  0  0  0  0  0  0
    2.5835   -1.9737    0.6812 C   0  0  0  0  0  0  0  0  0  0  0  0
    2.5816   -1.2615    2.0379 C   0  0  0  0  0  0  0  0  0  0  0  0
    2.4243    0.2287    1.8879 C   0  0  0  0  0  0  0  0  0  0  0  0
    3.3552    0.8195    0.8288 C   0  0  0  0  0  0  0  0  0  0  0  0
    3.4948    2.0211    0.6931 O   0  0  0  0  0  0  0  0  0  0  0  0
    3.9017   -0.0575   -0.0943 N   0  0  0  0  0  0  0  0  0  0  0  0
    3.5322   -1.3598   -0.3355 C   0  0  0  0  0  0  0  0  0  0  0  0
    3.8686   -1.9286   -1.3737 O   0  0  0  0  0  0  0  0  0  0  0  0
  1  2  1  0
  2  3  2  0
  2 13  1  0
  3  4  1  0
  4  5  2  0
  4 10  1  0
  5  6  1  0
  5 11  1  0
  6  7  1  0
  6  8  2  0
  8  9  1  0
  9 10  2  0
 11 12  2  0
 11 13  1  0
 13 14  1  0
 14 15  1  0
 14 20  1  0
 15 16  1  0
 16 17  1  0
 17 18  2  0
 17 19  1  0
 19 20  1  0
 20 21  2  0
M  END
>  <DRUGBANK_ID>  (1) 
DB14857

>  <COMMON_NAME>  (1) 
Avadomide

>  <CAS_NUMBER>  (1) 
1015474-32-4

>  <UNII>  (1) 
28DZS29F59

>  <SYNONYMS>  (1) 
3-(5-Amino-2-methyl-4-oxo-4H-quinazolin-3-yl)piperidine-2,6-dione; Avadomide

$$$$
