[NO NAME]
     RDKit          3D

 29 31  0  0  0  0  0  0  0  0999 V2000
    2.2371    0.1481    0.3978 O   0  0  0  0  0  0  0  0  0  0  0  0
   -1.7739    4.8151    0.0551 O   0  0  0  0  0  0  0  0  0  0  0  0
    0.6510    2.6121   -2.1448 O   0  0  0  0  0  0  0  0  0  0  0  0
   -1.6765    2.5665    0.0559 N   0  0  0  0  0  0  0  0  0  0  0  0
    2.4491    4.6417    0.8515 N   0  0  0  0  0  0  0  0  0  0  0  0
   -3.4355    0.0851   -0.0519 C   0  0  0  0  0  0  0  0  0  0  0  0
    0.9045   -2.6430    0.0393 C   0  0  0  0  0  0  0  0  0  0  0  0
   -1.8980    0.0785   -0.0038 C   0  0  0  0  0  0  0  0  0  0  0  0
    0.2398   -1.2633    0.0312 C   0  0  0  0  0  0  0  0  0  0  0  0
   -1.1759   -1.1588   -0.0328 C   0  0  0  0  0  0  0  0  0  0  0  0
   -1.1458    1.2532    0.1436 C   0  0  0  0  0  0  0  0  0  0  0  0
   -3.9881    0.7737    1.2202 C   0  0  0  0  0  0  0  0  0  0  0  0
   -3.9255    0.7812   -1.3382 C   0  0  0  0  0  0  0  0  0  0  0  0
   -4.0412   -1.3404   -0.0613 C   0  0  0  0  0  0  0  0  0  0  0  0
    0.9038   -0.0763    0.2464 C   0  0  0  0  0  0  0  0  0  0  0  0
    0.4746   -3.3884    1.3172 C   0  0  0  0  0  0  0  0  0  0  0  0
    0.4995   -3.4407   -1.2125 C   0  0  0  0  0  0  0  0  0  0  0  0
    2.4416   -2.6005    0.0536 C   0  0  0  0  0  0  0  0  0  0  0  0
    0.1922    1.0890    0.4331 C   0  0  0  0  0  0  0  0  0  0  0  0
   -1.0734    3.8006   -0.0290 C   0  0  0  0  0  0  0  0  0  0  0  0
    0.3927    3.9307   -0.1768 C   0  0  0  0  0  0  0  0  0  0  0  0
    1.1753    3.1607   -1.1948 C   0  0  0  0  0  0  0  0  0  0  0  0
    2.6323    2.9978   -0.9287 C   0  0  0  0  0  0  0  0  0  0  0  0
    1.0765    4.6184    0.7534 C   0  0  0  0  0  0  0  0  0  0  0  0
    3.2333    3.7753    0.0735 C   0  0  0  0  0  0  0  0  0  0  0  0
    3.3602    2.0397   -1.6437 C   0  0  0  0  0  0  0  0  0  0  0  0
    4.6134    3.6686    0.2533 C   0  0  0  0  0  0  0  0  0  0  0  0
    4.7304    1.9247   -1.4359 C   0  0  0  0  0  0  0  0  0  0  0  0
    5.3596    2.7636   -0.5151 C   0  0  0  0  0  0  0  0  0  0  0  0
  1 15  1  0
  2 20  2  0
  3 22  2  0
  4 11  1  0
  4 20  1  0
  5 24  1  0
  5 25  1  0
  6  8  1  0
  6 12  1  0
  6 13  1  0
  6 14  1  0
  7  9  1  0
  7 16  1  0
  7 17  1  0
  7 18  1  0
  8 10  2  0
  8 11  1  0
  9 10  1  0
  9 15  2  0
 11 19  2  0
 15 19  1  0
 20 21  1  0
 21 22  1  0
 21 24  2  0
 22 23  1  0
 23 25  2  0
 23 26  1  0
 25 27  1  0
 26 28  2  0
 27 29  2  0
 28 29  1  0
M  END
>  <DRUGBANK_ID>  (1) 
DB08820

>  <SECONDARY_ACCESSION_NUMBERS>  (1) 
DB05989

>  <COMMON_NAME>  (1) 
Ivacaftor

>  <CAS_NUMBER>  (1) 
873054-44-5

>  <UNII>  (1) 
1Y740ILL1Z

>  <SYNONYMS>  (1) 
Ivacaftor; Ivacaftorum; N-(2,4-di-tert-butyl-5-hydroxyphenyl)-4-oxo-1,4-dihydroquinoline-3-carboxamide

$$$$
