
     RDKit          3D

 11 12  0  0  0  0  0  0  0  0999 V2000
   -2.1031   -0.7289   -0.0030 N   0  0  0  0  0  0  0  0  0  0  0  0
   -2.0712    0.5715   -0.0023 C   0  0  0  0  0  0  0  0  0  0  0  0
    0.2964   -0.7507   -0.0006 C   0  0  0  0  0  0  0  0  0  0  0  0
    0.2696    0.7161    0.0004 C   0  0  0  0  0  0  0  0  0  0  0  0
   -0.8864   -1.4059   -0.0006 C   0  0  0  0  0  0  0  0  0  0  0  0
   -0.9398    1.3559    0.0006 N   0  0  0  0  0  0  0  0  0  0  0  0
    1.6035   -1.1538   -0.0001 N   0  0  0  0  0  0  0  0  0  0  0  0
   -0.9114   -2.7726    0.0025 N   0  0  0  0  0  0  0  0  0  0  0  0
    2.2490   -0.0219    0.0007 C   0  0  0  0  0  0  0  0  0  0  0  0
    1.4963    1.1468    0.0014 N   0  0  0  0  0  0  0  0  0  0  0  0
   -0.9986    2.8024    0.0074 C   0  0  0  0  0  0  0  0  0  0  0  0
  1  2  2  0
  3  7  1  0
  3  4  1  0
  3  5  2  0
  4 10  2  0
  4  6  1  0
  5  1  1  0
  5  8  1  0
  6  2  1  0
  6 11  1  0
  7  9  2  0
 10  9  1  0
M  END
>  <DRUGBANK_ID>  (1) 
DB04104

>  <SECONDARY_ACCESSION_NUMBERS>  (1) 
EXPT00431

>  <COMMON_NAME>  (1) 
3-Methyladenine

>  <CAS_NUMBER>  (1) 
5142-23-4

>  <UNII>  (1) 
DR88TV7SNU

>  <SYNONYMS>  (1) 
3-methyl-3H-adenine; 3-methyladenine; 6-amino-3-methylpurine

$$$$
