
     RDKit          3D

 13 12  0  0  0  0  0  0  0  0999 V2000
    0.9178   -1.1914   -2.3133 N   0  0  0  0  0  0  0  0  0  0  0  0
    0.2918   -1.7845   -3.4417 N   0  0  0  0  0  0  0  0  0  0  0  0
    4.3450   -0.6555   -1.2937 N   0  0  0  0  0  0  0  0  0  0  0  0
    4.9200   -0.0559   -0.1530 N   0  0  0  0  0  0  0  0  0  0  0  0
   -1.7791   -1.2608   -2.4453 N   0  0  0  0  0  0  0  0  0  0  0  0
   -1.7448   -2.3016   -4.4255 N   0  0  0  0  0  0  0  0  0  0  0  0
    6.9956   -0.5780   -1.1462 N   0  0  0  0  0  0  0  0  0  0  0  0
    6.9644    0.4618    0.8319 N   0  0  0  0  0  0  0  0  0  0  0  0
    2.2249   -1.2325   -2.3915 C   0  0  0  0  0  0  0  0  0  0  0  0
    3.0449   -0.6363   -1.2572 C   0  0  0  0  0  0  0  0  0  0  0  0
   -1.0094   -1.7744   -3.4225 C   0  0  0  0  0  0  0  0  0  0  0  0
    6.2255   -0.0635   -0.1675 C   0  0  0  0  0  0  0  0  0  0  0  0
    2.9821   -1.8395   -3.5464 C   0  0  0  0  0  0  0  0  0  0  0  0
  1  2  1  0
  1  9  2  0
  2 11  2  0
  3  4  1  0
  3 10  2  0
  4 12  2  0
  5 11  1  0
  7 12  1  0
  9 10  1  0
  9 13  1  0
 11  6  1  0
 12  8  1  0
M  END
>  <DRUGBANK_ID>  (1) 
DB12967

>  <COMMON_NAME>  (1) 
Mitoguazone

>  <CAS_NUMBER>  (1) 
459-86-9

>  <UNII>  (1) 
OD5Q0L447W

>  <SYNONYMS>  (1) 
Me-GAG; Methyl-G; Mitoguazona; Mitoguazone; Mitoguazonum

$$$$
