
     RDKit          3D

 37 40  0  0  0  0  0  0  0  0999 V2000
    1.0938   -0.0068   -0.0135 C   0  0  0  0  0  0  0  0  0  0  0  0
    0.6667    1.3446    0.1369 O   0  0  0  0  0  0  0  0  0  0  0  0
    1.0238    1.8969    1.3586 C   0  0  0  0  0  0  0  0  0  0  0  0
    2.4640    1.9945    1.5938 C   0  0  0  0  0  0  0  0  0  0  0  0
    2.9536    2.8705    2.4655 C   0  0  0  0  0  0  0  0  0  0  0  0
    4.3330    2.9902    2.9923 C   0  0  0  0  0  0  0  0  0  0  0  0
    2.0860    3.6825    3.0897 N   0  0  0  0  0  0  0  0  0  0  0  0
    0.7727    3.4227    3.1816 C   0  0  0  0  0  0  0  0  0  0  0  0
    0.3064    4.1808    4.0487 O   0  0  0  0  0  0  0  0  0  0  0  0
    0.0918    2.4848    2.1701 C   0  0  0  0  0  0  0  0  0  0  0  0
   -1.3781    2.5685    1.6453 C   0  0  0  0  0  0  0  0  0  0  0  0
   -2.5310    2.6634    2.5783 N   0  0  0  0  0  0  0  0  0  0  0  0
   -3.6191    3.5588    2.8745 C   0  0  0  0  0  0  0  0  0  0  0  0
   -4.1731    3.3161    3.9527 O   0  0  0  0  0  0  0  0  0  0  0  0
   -4.0974    4.7774    2.0626 C   0  0  0  0  0  0  0  0  0  0  0  0
   -4.1944    4.8543    0.6619 C   0  0  0  0  0  0  0  0  0  0  0  0
   -4.0068    3.6602   -0.2114 C   0  0  0  0  0  0  0  0  0  0  0  0
   -4.0727    6.2161    0.2650 N   0  0  0  0  0  0  0  0  0  0  0  0
   -4.2149    7.0369    1.4020 C   0  0  0  0  0  0  0  0  0  0  0  0
   -4.1909    6.1794    2.5284 C   0  0  0  0  0  0  0  0  0  0  0  0
   -4.0290    6.7976    3.8017 C   0  0  0  0  0  0  0  0  0  0  0  0
   -4.1000    8.1925    3.9535 C   0  0  0  0  0  0  0  0  0  0  0  0
   -4.2409    9.0105    2.8423 C   0  0  0  0  0  0  0  0  0  0  0  0
   -4.2344    8.4558    1.5537 C   0  0  0  0  0  0  0  0  0  0  0  0
   -3.8618    6.7442   -1.1187 C   0  0  1  0  0  0  0  0  0  0  0  0
   -2.4441    6.6977   -1.9067 C   0  0  0  0  0  0  0  0  0  0  0  0
   -1.8131    5.3199   -2.1179 C   0  0  0  0  0  0  0  0  0  0  0  0
   -1.1690    4.8919   -0.8091 C   0  0  0  0  0  0  0  0  0  0  0  0
   -0.2413    5.8294   -0.1108 N   0  0  0  0  0  0  0  0  0  0  0  0
   -0.8582    7.1461    0.0030 C   0  0  0  0  0  0  0  0  0  0  0  0
   -1.3328    7.6096   -1.3369 C   0  0  0  0  0  0  0  0  0  0  0  0
    0.0406    5.4526    1.3535 C   0  0  0  0  0  0  0  0  0  0  0  0
   -1.1350    5.6278    2.3816 C   0  0  0  0  0  0  0  0  0  0  0  0
   -2.0877    5.1850    1.5879 F   0  0  0  0  0  0  0  0  0  0  0  0
   -1.4133    4.9338    3.4803 F   0  0  0  0  0  0  0  0  0  0  0  0
   -1.3803    6.9099    2.6837 F   0  0  0  0  0  0  0  0  0  0  0  0
   -5.0015    6.1836   -1.9703 C   0  0  0  0  0  0  0  0  0  0  0  0
  1  2  1  0
  2  3  1  0
  3  4  1  0
  3 10  2  0
  4  5  2  0
  5  6  1  0
  5  7  1  0
  7  8  1  0
  8  9  2  0
  8 10  1  0
 10 11  1  0
 11 12  1  0
 12 13  1  0
 13 14  2  0
 13 15  1  0
 15 16  2  0
 15 20  1  0
 16 17  1  0
 16 18  1  0
 18 19  1  0
 19 20  2  0
 19 24  1  0
 20 21  1  0
 21 22  2  0
 22 23  1  0
 23 24  2  0
 25 18  1  0
 25 26  1  0
 25 37  1  6
 26 27  1  0
 26 31  1  0
 27 28  1  0
 28 29  1  0
 29 30  1  0
 29 32  1  0
 30 31  1  0
 32 33  1  0
 33 34  1  0
 33 35  1  0
 33 36  1  0
M  END
>  <DRUGBANK_ID>  (1) 
DB14581

>  <COMMON_NAME>  (1) 
CPI-1205

>  <CAS_NUMBER>  (1) 
1621862-70-1

>  <UNII>  (1) 
455J2479FY

$$$$
