
     RDKit          3D

 34 38  0  0  1  0  0  0  0  0999 V2000
    5.2816   -5.1852   -6.8676 C   0  0  0  0  0  0  0  0  0  0  0  0
    6.6541   -4.9457   -6.5885 O   0  0  0  0  0  0  0  0  0  0  0  0
    6.9281   -5.0458   -5.1917 C   0  0  0  0  0  0  0  0  0  0  0  0
    6.4752   -3.9063   -4.2269 C   0  0  0  0  0  0  0  0  0  0  0  0
    5.1147   -3.5007   -4.1597 O   0  0  0  0  0  0  0  0  0  0  0  0
    4.6035   -2.7259   -5.1599 C   0  0  0  0  0  0  0  0  0  0  0  0
    3.3082   -2.3990   -4.9740 C   0  0  0  0  0  0  0  0  0  0  0  0
    2.5554   -2.1456   -6.1120 C   0  0  0  0  0  0  0  0  0  0  0  0
    3.0385   -2.1907   -7.4041 C   0  0  0  0  0  0  0  0  0  0  0  0
    2.1463   -1.9425   -8.5401 C   0  0  0  0  0  0  0  0  0  0  0  0
    0.9565   -1.3726   -8.2686 C   0  0  0  0  0  0  0  0  0  0  0  0
    0.6547   -0.9947   -6.9504 N   0  0  0  0  0  0  0  0  0  0  0  0
   -0.2160    0.0949   -6.5302 C   0  0  2  0  0  0  0  0  0  0  0  0
    0.3670    0.9099   -5.1974 C   0  0  0  0  0  0  0  0  0  0  0  0
   -1.6048   -0.4605   -6.1825 C   0  0  0  0  0  0  0  0  0  0  0  0
   -2.1328    0.0467   -5.0748 N   0  0  0  0  0  0  0  0  0  0  0  0
   -1.7377   -0.8363   -4.0949 N   0  0  0  0  0  0  0  0  0  0  0  0
   -1.7527   -2.0176   -4.6641 C   0  0  0  0  0  0  0  0  0  0  0  0
   -1.9737   -1.8211   -6.0268 N   0  0  0  0  0  0  0  0  0  0  0  0
   -2.8426   -2.6798   -6.7301 C   0  0  0  0  0  0  0  0  0  0  0  0
   -3.3662   -3.7601   -6.0854 C   0  0  0  0  0  0  0  0  0  0  0  0
   -2.9539   -4.0369   -4.7061 C   0  0  0  0  0  0  0  0  0  0  0  0
   -2.0911   -3.2390   -4.0724 C   0  0  0  0  0  0  0  0  0  0  0  0
   -1.7928   -3.4208   -2.7732 F   0  0  0  0  0  0  0  0  0  0  0  0
   -4.2790   -4.6624   -6.6849 C   0  0  0  0  0  0  0  0  0  0  0  0
   -3.9839   -5.4463   -7.7691 C   0  0  0  0  0  0  0  0  0  0  0  0
   -5.1188   -6.1500   -8.0260 N   0  0  0  0  0  0  0  0  0  0  0  0
   -5.3581   -6.9723   -9.1840 C   0  0  0  0  0  0  0  0  0  0  0  0
   -6.1008   -5.9468   -7.1250 N   0  0  0  0  0  0  0  0  0  0  0  0
   -5.5814   -5.0353   -6.2951 C   0  0  0  0  0  0  0  0  0  0  0  0
    1.2968   -1.5646   -5.8891 C   0  0  0  0  0  0  0  0  0  0  0  0
    0.9529   -1.5006   -4.6905 O   0  0  0  0  0  0  0  0  0  0  0  0
    4.3451   -2.3414   -7.5920 N   0  0  0  0  0  0  0  0  0  0  0  0
    5.1001   -2.5013   -6.4481 C   0  0  0  0  0  0  0  0  0  0  0  0
  1  2  1  0
  2  3  1  0
  3  4  1  0
  4  5  1  0
  5  6  1  0
  6  7  2  0
  6 34  1  0
  7  8  1  0
  8  9  2  0
  8 31  1  0
  9 10  1  0
  9 33  1  0
 10 11  2  0
 11 12  1  0
 12 31  1  0
 13 15  1  0
 13 14  1  1
 13 12  1  0
 15 16  2  0
 15 19  1  0
 16 17  1  0
 17 18  2  0
 18 19  1  0
 18 23  1  0
 19 20  1  0
 20 21  2  0
 21 22  1  0
 21 25  1  0
 22 23  2  0
 23 24  1  0
 25 26  2  0
 25 30  1  0
 26 27  1  0
 27 28  1  0
 27 29  1  0
 29 30  2  0
 31 32  2  0
 33 34  2  0
M  END
>  <DRUGBANK_ID>  (1) 
DB15639

>  <COMMON_NAME>  (1) 
AMG-337

>  <CAS_NUMBER>  (1) 
1173699-31-4

>  <UNII>  (1) 
08WG8S0L8D

$$$$
