
     RDKit          3D

 15 10  0  0  0  0  0  0  0  0999 V2000
    1.0839    0.0497    0.0222 O   0  0  0  0  0  0  0  0  0  0  0  0
    0.9869    0.0943   -0.0306 O   0  0  0  0  0  0  0  0  0  0  0  0
    0.9438   -0.0468    0.0682 O   0  0  0  0  0  0  0  0  0  0  0  0
    1.0828    0.0026    0.0560 O   0  0  0  0  0  0  0  0  0  0  0  0
    0.3728    1.1625   -0.3525 C   0  0  0  0  0  0  0  0  0  0  0  0
    1.0082    2.2006   -0.7182 O   0  0  0  0  0  0  0  0  0  0  0  0
   -1.1472    1.1625   -0.3525 C   0  0  0  0  0  0  0  0  0  0  0  0
   -1.6539    0.0743   -1.2851 C   0  0  0  0  0  0  0  0  0  0  0  0
   -1.0006   -1.6686   -0.6711 Ge  0  0  0  0  0  1  0  0  0  0  0  0
    0.9744   -0.0599   -0.0759 O   0  0  0  0  0  0  0  0  0  0  0  0
    0.2644   -0.8428    0.8725 C   0  0  0  0  0  0  0  0  0  0  0  0
    0.8998   -1.5436    1.7212 O   0  0  0  0  0  0  0  0  0  0  0  0
   -1.2556   -0.8428    0.8725 C   0  0  0  0  0  0  0  0  0  0  0  0
   -1.7623    0.5704    1.1101 C   0  0  0  0  0  0  0  0  0  0  0  0
   -1.1090    1.7469   -0.3150 Ge  0  0  0  0  0  1  0  0  0  0  0  0
  4  5  1  0
  5  6  2  0
  5  7  1  0
  7  8  1  0
  8  9  1  0
 10 11  1  0
 11 12  2  0
 11 13  1  0
 13 14  1  0
 14 15  1  0
M  CHG  5   1  -2   2  -2   3  -2   9   3  15   3
M  END
>  <DRUGBANK_ID>  (1) 
DB17608

>  <COMMON_NAME>  (1) 
Propagermanium

>  <CAS_NUMBER>  (1) 
12758-40-6

>  <UNII>  (1) 
1Q2P9TO9Q7

>  <SYNONYMS>  (1) 
3-[[2-carboxyethyl(oxo)germyl]oxy-oxogermyl]propanoic acid; Arlamol geo; beta-carboxyethylgermanium sesquioxide; Bis (2-carboxyethylgermanium)sesquioxide; Bis(carboxyethyl)germanium sesquioxide; Carboxyethylgermanium sesquioxide; Organic germanium; Propagermanium; Propanoic acid, 3,3'-(1,3-dioxo-1,3-digermoxanediyl)bis-; Proxigermanium; Rapagermanium; Repagermanium; Serocion; SK 818; SK-818

$$$$
