
     RDKit          3D

 30 33  0  0  0  0  0  0  0  0999 V2000
    1.5734   -0.3787   -0.4994 O   0  0  0  0  0  0  0  0  0  0  0  0
    2.7213   -0.1595   -0.3046 C   0  0  0  0  0  0  0  0  0  0  0  0
    3.5062   -0.5150   -1.3103 O   0  0  0  0  0  0  0  0  0  0  0  0
    3.3415    0.5197    0.9407 C   0  0  0  0  0  0  0  0  0  0  0  0
    3.1670    2.1289    1.2825 C   0  0  0  0  0  0  0  0  0  0  0  0
    1.8143    2.6027    1.6191 C   0  0  0  0  0  0  0  0  0  0  0  0
    1.4689    1.5431    2.4013 C   0  0  0  0  0  0  0  0  0  0  0  0
    0.8926    3.8836    1.9083 C   0  0  0  0  0  0  0  0  0  0  0  0
    0.2959    4.2798    3.2693 C   0  0  0  0  0  0  0  0  0  0  0  0
    1.0671    3.3777    4.1534 C   0  0  0  0  0  0  0  0  0  0  0  0
   -0.2734    2.4196    3.5648 C   0  0  0  0  0  0  0  0  0  0  0  0
   -0.0899    0.6498    3.6145 C   0  0  0  0  0  0  0  0  0  0  0  0
    0.2407   -0.3249    5.0121 C   0  0  0  0  0  0  0  0  0  0  0  0
    0.4761    0.0314    6.4348 O   0  0  0  0  0  0  0  0  0  0  0  0
    1.3546   -1.2353    4.4741 C   0  0  0  0  0  0  0  0  0  0  0  0
    2.6848   -0.7548    4.3146 O   0  0  0  0  0  0  0  0  0  0  0  0
    0.8298   -1.7415    2.9366 C   0  0  0  0  0  0  0  0  0  0  0  0
   -0.4492   -2.4257    3.1116 C   0  0  0  0  0  0  0  0  0  0  0  0
   -1.0369   -3.5922    2.3952 C   0  0  0  0  0  0  0  0  0  0  0  0
   -0.3808   -4.6884    3.0082 O   0  0  0  0  0  0  0  0  0  0  0  0
   -0.5903   -3.6239    0.8725 C   0  0  0  0  0  0  0  0  0  0  0  0
    0.2816   -2.4361    0.5443 C   0  0  0  0  0  0  0  0  0  0  0  0
   -0.0324   -1.1328    1.2721 C   0  0  0  0  0  0  0  0  0  0  0  0
   -0.6935   -1.2869   -0.6733 C   0  0  0  0  0  0  0  0  0  0  0  0
   -0.3299    0.1654    1.5974 C   0  0  0  0  0  0  0  0  0  0  0  0
   -0.8854    1.2051    0.3089 C   0  0  0  0  0  0  0  0  0  0  0  0
   -0.1394    2.5029    0.0193 C   0  0  0  0  0  0  0  0  0  0  0  0
    1.1689    2.5082   -0.7114 O   0  0  0  0  0  0  0  0  0  0  0  0
   -0.4403    3.2045    1.7163 C   0  0  0  0  0  0  0  0  0  0  0  0
   -1.6045    3.9947    0.7807 C   0  0  0  0  0  0  0  0  0  0  0  0
  1  2  2  0
  2  3  1  0
  2  4  1  0
  4  5  1  0
  5  6  1  0
  6  7  1  0
  6  8  1  0
  8  9  1  0
  8 29  1  0
  9 10  1  0
 10 11  1  0
 11 12  1  0
 11 29  1  0
 12 13  1  0
 12 25  1  0
 13 14  1  0
 13 15  1  0
 15 16  1  0
 15 17  1  0
 17 18  1  0
 17 23  1  0
 18 19  1  0
 19 20  1  0
 19 21  1  0
 21 22  1  0
 22 23  1  0
 23 24  1  0
 23 25  1  0
 25 26  1  0
 26 27  1  0
 27 28  1  0
 27 29  1  0
 29 30  1  0
M  END
>  <DRUGBANK_ID>  (1) 
DB18044

>  <COMMON_NAME>  (1) 
3alpha,6beta,7beta,12alpha-tetrahydroxy-5beta-cholan-24-oic acid

>  <CAS_NUMBER>  (1) 
75110-48-4

>  <SYNONYMS>  (1) 
(3alpha,5beta,6beta,7beta,12alpha)-3,6,7,12-Tetrahydroxycholan-24-oic acid; (3α,5β,6β,7β,12α)-3,6,7,12-Tetrahydroxycholan-24-oic acid; 3a,6b,7b,12a-(OH)4-5b-cholanic acid; 3alpha,6beta,7beta,12alpha-Tetrahydroxy-5beta-cholanoic acid

$$$$
