
     RDKit          3D

 28 31  0  0  0  0  0  0  0  0999 V2000
    0.9405   -0.1365   -0.0068 F   0  0  0  0  0  0  0  0  0  0  0  0
    2.7404   -1.1992    0.5993 F   0  0  0  0  0  0  0  0  0  0  0  0
    2.7422   -0.0257   -1.2306 F   0  0  0  0  0  0  0  0  0  0  0  0
    4.9691    2.7425    6.9448 O   0  0  0  0  0  0  0  0  0  0  0  0
    7.5710    1.0853    4.9801 N   0  0  0  0  0  0  0  0  0  0  0  0
    5.5158    1.8156    2.9465 N   0  0  0  0  0  0  0  0  0  0  0  0
    6.6487    4.2940    5.7513 N   0  0  0  0  0  0  0  0  0  0  0  0
    4.3594    4.5908    6.0081 N   0  0  0  0  0  0  0  0  0  0  0  0
    7.5288    0.5936    3.5968 C   0  0  0  0  0  0  0  0  0  0  0  0
    6.1795    1.3531    5.3088 C   0  0  0  0  0  0  0  0  0  0  0  0
    6.8764    1.5022    2.5077 C   0  0  0  0  0  0  0  0  0  0  0  0
    5.4390    2.3135    4.2700 C   0  0  0  0  0  0  0  0  0  0  0  0
    8.3973    2.2509    5.3774 C   0  0  0  0  0  0  0  0  0  0  0  0
    7.9238    3.6816    5.0118 C   0  0  0  0  0  0  0  0  0  0  0  0
    4.4397    2.1547    2.1688 C   0  0  0  0  0  0  0  0  0  0  0  0
    6.2457    5.5822    5.2957 C   0  0  0  0  0  0  0  0  0  0  0  0
    5.3891    3.7670    6.3736 C   0  0  0  0  0  0  0  0  0  0  0  0
    3.8025    1.0512    1.6533 C   0  0  0  0  0  0  0  0  0  0  0  0
    4.8789    5.7306    5.5116 C   0  0  0  0  0  0  0  0  0  0  0  0
    3.8029    3.4093    2.0432 C   0  0  0  0  0  0  0  0  0  0  0  0
    2.7394    1.1809    0.7842 C   0  0  0  0  0  0  0  0  0  0  0  0
    6.9731    6.6411    4.8363 C   0  0  0  0  0  0  0  0  0  0  0  0
    2.6457    3.5435    1.2625 C   0  0  0  0  0  0  0  0  0  0  0  0
    4.1637    6.8772    5.4626 C   0  0  0  0  0  0  0  0  0  0  0  0
    2.1817    2.4406    0.5550 C   0  0  0  0  0  0  0  0  0  0  0  0
    6.3104    7.8750    4.9049 C   0  0  0  0  0  0  0  0  0  0  0  0
    4.9394    7.9914    5.2588 C   0  0  0  0  0  0  0  0  0  0  0  0
    2.2918   -0.0343    0.0524 C   0  0  0  0  0  0  0  0  0  0  0  0
  1 28  1  0
  2 28  1  0
  3 28  1  0
  4 17  2  0
  5  9  1  0
  5 10  1  0
  5 13  1  0
  6 11  1  0
  6 12  1  0
  6 15  1  0
  7 14  1  0
  7 16  1  0
  7 17  1  0
  8 17  1  0
  8 19  1  0
  9 11  1  0
 10 12  1  0
 13 14  1  0
 15 18  2  0
 15 20  1  0
 16 19  2  0
 16 22  1  0
 18 21  1  0
 19 24  1  0
 20 23  2  0
 21 25  2  0
 21 28  1  0
 22 26  2  0
 23 25  1  0
 24 27  2  0
 26 27  1  0
M  END
>  <DRUGBANK_ID>  (1) 
DB04908

>  <COMMON_NAME>  (1) 
Flibanserin

>  <CAS_NUMBER>  (1) 
167933-07-5

>  <UNII>  (1) 
37JK4STR6Z

>  <SYNONYMS>  (1) 
Flibanserin

$$$$
