
     RDKit          3D

 13 14  0  0  0  0  0  0  0  0999 V2000
   -0.0096   -0.6857    0.1062 C   0  0  0  0  0  0  0  0  0  0  0  0
   -1.1902   -1.4302    0.1217 C   0  0  0  0  0  0  0  0  0  0  0  0
   -2.4190   -0.7790    0.0054 C   0  0  0  0  0  0  0  0  0  0  0  0
   -2.4272    0.6083   -0.1376 C   0  0  0  0  0  0  0  0  0  0  0  0
   -1.2631    1.3481    0.0663 C   0  0  0  0  0  0  0  0  0  0  0  0
   -0.0253    0.7064    0.1062 C   0  0  0  0  0  0  0  0  0  0  0  0
    1.2412    1.4371    0.0645 C   0  0  0  0  0  0  0  0  0  0  0  0
    2.3767    0.7327   -0.0337 C   0  0  0  0  0  0  0  0  0  0  0  0
    2.4116   -0.7360   -0.0636 C   0  0  0  0  0  0  0  0  0  0  0  0
    1.2029   -1.4015    0.0529 O   0  0  0  0  0  0  0  0  0  0  0  0
    1.2300    2.9341    0.0642 C   0  0  0  0  0  0  0  0  0  0  0  0
   -3.5946   -1.5087   -0.1896 N   0  0  0  0  0  0  0  0  0  0  0  0
    3.4850   -1.3296   -0.1721 O   0  0  0  0  0  0  0  0  0  0  0  0
  1  2  2  0
  1  6  1  0
  1 10  1  0
  2  3  1  0
  3  4  2  0
  3 12  1  0
  4  5  1  0
  5  6  2  0
  6  7  1  0
  7  8  2  0
  7 11  1  0
  8  9  1  0
  9 10  1  0
  9 13  2  0
M  END
>  <DRUGBANK_ID>  (1) 
DB08168

>  <COMMON_NAME>  (1) 
Coumarin 120

>  <CAS_NUMBER>  (1) 
26093-31-2

>  <UNII>  (1) 
OCY3JCT44X

>  <SYNONYMS>  (1) 
7-Amino-4-methylcoumarin

$$$$
