PS0
     RDKit          3D

 12 12  0  0  0  0  0  0  0  0999 V2000
    0.8901    2.2511    1.2570 N   0  0  0  0  0  0  0  0  0  0  0  0
    0.5096    0.8254    1.1491 C   0  0  2  0  0  0  0  0  0  0  0  0
    1.0668    0.2469   -0.1933 C   0  0  1  0  0  0  0  0  0  0  0  0
    0.3941    0.8417   -1.2991 O   0  0  0  0  0  0  0  0  0  0  0  0
   -1.0416    0.7149    1.2706 C   0  0  0  0  0  0  0  0  0  0  0  0
   -1.5882   -0.7018    1.3587 C   0  0  0  0  0  0  0  0  0  0  0  0
   -0.8174   -1.8414    1.1043 C   0  0  0  0  0  0  0  0  0  0  0  0
   -2.9134   -0.9231    1.7593 C   0  0  0  0  0  0  0  0  0  0  0  0
   -1.3113   -3.1318    1.1316 C   0  0  0  0  0  0  0  0  0  0  0  0
   -3.3791   -2.2330    1.9362 C   0  0  0  0  0  0  0  0  0  0  0  0
   -2.5999   -3.3347    1.5915 C   0  0  0  0  0  0  0  0  0  0  0  0
    2.5760    0.3298   -0.3460 C   0  0  0  0  0  0  0  0  0  0  0  0
  2  5  1  0
  2  3  1  0
  2  1  1  6
  3  4  1  0
  3 12  1  6
  5  6  1  0
  6  7  2  0
  6  8  1  0
  7  9  1  0
  8 10  2  0
  9 11  2  0
 10 11  1  0
M  END
>  <DRUGBANK_ID>  (1) 
DB08428

>  <COMMON_NAME>  (1) 
3(S)-AMINO-4-PHENYL-BUTAN-2(S)-OL

$$$$
