
     RDKit          3D

 27 29  0  0  0  0  0  0  0  0999 V2000
    1.1026    0.0024   -0.0399 C   0  0  0  0  0  0  0  0  0  0  0  0
    0.8043    4.6333  -12.9794 C   0  0  0  0  0  0  0  0  0  0  0  0
   -4.9792    5.0648   -6.3784 C   0  0  0  0  0  0  0  0  0  0  0  0
   -4.2579    4.3208   -5.2594 C   0  0  0  0  0  0  0  0  0  0  0  0
   -4.3197    4.8091   -7.7293 C   0  0  0  0  0  0  0  0  0  0  0  0
   -2.7584    4.6303   -5.2393 C   0  0  0  0  0  0  0  0  0  0  0  0
   -2.8244    5.1067   -7.6797 C   0  0  0  0  0  0  0  0  0  0  0  0
   -1.3598    1.9605   -4.7159 C   0  0  0  0  0  0  0  0  0  0  0  0
    0.7933    2.9190   -5.2753 C   0  0  0  0  0  0  0  0  0  0  0  0
   -0.1996    3.9924   -8.8912 C   0  0  0  0  0  0  0  0  0  0  0  0
   -0.9756    1.7173   -8.7076 C   0  0  0  0  0  0  0  0  0  0  0  0
   -0.8901    1.6469   -3.4531 C   0  0  0  0  0  0  0  0  0  0  0  0
    1.2871    2.5508   -4.0199 C   0  0  0  0  0  0  0  0  0  0  0  0
   -0.2142    3.8489  -10.2550 C   0  0  0  0  0  0  0  0  0  0  0  0
   -0.8160    1.5345  -10.0906 C   0  0  0  0  0  0  0  0  0  0  0  0
    0.5660    0.2628   -1.4162 C   0  0  0  0  0  0  0  0  0  0  0  0
    0.3170    3.2422  -13.2838 C   0  0  0  0  0  0  0  0  0  0  0  0
   -2.1418    4.2726   -6.5892 C   0  0  0  0  0  0  0  0  0  0  0  0
   -0.5530    2.6834   -5.5922 C   0  0  0  0  0  0  0  0  0  0  0  0
   -0.7259    2.9731   -8.1268 C   0  0  0  0  0  0  0  0  0  0  0  0
    0.4390    1.9042   -3.1177 C   0  0  0  0  0  0  0  0  0  0  0  0
   -0.4249    2.6266  -10.8650 C   0  0  0  0  0  0  0  0  0  0  0  0
   -1.1695    3.3231   -6.7687 C   0  0  0  0  0  0  0  0  0  0  0  0
   -0.0968   -0.5574   -2.0189 O   0  0  0  0  0  0  0  0  0  0  0  0
    0.3911    2.8087  -14.4324 O   0  0  0  0  0  0  0  0  0  0  0  0
    0.9465    1.5356   -1.8583 O   0  0  0  0  0  0  0  0  0  0  0  0
   -0.2711    2.4653  -12.2701 O   0  0  0  0  0  0  0  0  0  0  0  0
  4  3  1  0
  5  3  1  0
  6  4  1  0
  7  5  1  0
 12  8  2  0
 13  9  1  0
 14 10  2  0
 15 11  1  0
 16  1  1  0
 17  2  1  0
 18  6  1  0
 18  7  1  0
 19  8  1  0
 19  9  2  0
 20 10  1  0
 20 11  2  0
 21 12  1  0
 21 13  2  0
 22 14  1  0
 22 15  2  0
 23 18  2  3
 23 19  1  0
 23 20  1  0
 24 16  2  0
 25 17  2  0
 26 16  1  0
 26 21  1  0
 27 17  1  0
 27 22  1  0
M  END
>  <DRUGBANK_ID>  (1) 
DB13472

>  <COMMON_NAME>  (1) 
Cyclofenil

>  <CAS_NUMBER>  (1) 
2624-43-3

>  <UNII>  (1) 
J468V64WZ1

>  <SYNONYMS>  (1) 
Cyclofenil

$$$$
