BTP
     RDKit          3D

 13 13  0  0  0  0  0  0  0  0999 V2000
    3.2037   -0.3289   -1.3370 C   0  0  0  0  0  0  0  0  0  0  0  0
    2.9057    0.1374   -2.4278 O   0  0  0  0  0  0  0  0  0  0  0  0
    4.2188   -1.2111   -1.2667 O   0  0  0  0  0  0  0  0  0  0  0  0
    2.5791   -0.0069    0.0172 C   0  0  2  0  0  0  0  0  0  0  0  0
    1.0297   -0.0746    0.0541 C   0  0  0  0  0  0  0  0  0  0  0  0
    0.3892   -0.5619   -1.2120 C   0  0  0  0  0  0  0  0  0  0  0  0
   -0.2940    0.3310   -2.0500 C   0  0  0  0  0  0  0  0  0  0  0  0
   -0.7008   -0.0820   -3.3153 C   0  0  0  0  0  0  0  0  0  0  0  0
   -0.3916   -1.3677   -3.7581 C   0  0  0  0  0  0  0  0  0  0  0  0
    0.3154   -2.2448   -2.9372 C   0  0  0  0  0  0  0  0  0  0  0  0
    0.6484   -1.8678   -1.6430 C   0  0  0  0  0  0  0  0  0  0  0  0
    3.0912    1.3808    0.4117 C   0  0  0  0  0  0  0  0  0  0  0  0
    2.6100    1.9086    2.0974 S   0  0  0  0  0  0  0  0  0  0  0  0
  1  2  2  0
  1  3  1  0
  4 12  1  6
  4  5  1  0
  4  1  1  0
  5  6  1  0
  6  7  2  0
  6 11  1  0
  7  8  1  0
  8  9  2  0
  9 10  1  0
 10 11  2  0
 12 13  1  0
M  END
>  <DRUGBANK_ID>  (1) 
DB02953

>  <SECONDARY_ACCESSION_NUMBERS>  (1) 
EXPT00769

>  <COMMON_NAME>  (1) 
2-Thiomethyl-3-Phenylpropanoic Acid

$$$$
