
     RDKit          3D

 23 24  0  0  0  0  0  0  0  0999 V2000
    0.8662    0.0765    0.0991 C   0  0  0  0  0  0  0  0  0  0  0  0
    6.6559    3.6453   -3.6080 C   0  0  0  0  0  0  0  0  0  0  0  0
   10.3121   -1.3882   -6.8372 C   0  0  0  0  0  0  0  0  0  0  0  0
    7.9100   -2.6802   -2.8132 C   0  0  0  0  0  0  0  0  0  0  0  0
    0.3149    0.2083   -2.9715 C   0  0  0  0  0  0  0  0  0  0  0  0
    0.3015    2.6818   -2.7973 C   0  0  0  0  0  0  0  0  0  0  0  0
    0.3979    1.3175   -0.6658 C   0  0  0  0  0  0  0  0  0  0  0  0
    4.4958    0.2474   -2.0400 C   0  0  0  0  0  0  0  0  0  0  0  0
    4.4265    2.6516   -1.7929 C   0  0  0  0  0  0  0  0  0  0  0  0
    3.1154    0.2164   -2.1298 C   0  0  0  0  0  0  0  0  0  0  0  0
    3.0605    2.6285   -1.9814 C   0  0  0  0  0  0  0  0  0  0  0  0
    6.6137    1.5666   -2.1288 C   0  0  0  0  0  0  0  0  0  0  0  0
    8.5782    2.0631   -3.7429 C   0  0  0  0  0  0  0  0  0  0  0  0
    9.4278    0.3816   -5.3091 C   0  0  0  0  0  0  0  0  0  0  0  0
    8.4423   -0.3407   -3.2927 C   0  0  0  0  0  0  0  0  0  0  0  0
    7.0458    2.1607   -3.5067 C   0  0  2  0  0  0  0  0  0  0  0  0
   10.0550   -1.0329   -5.3865 C   0  0  1  0  0  0  0  0  0  0  0  0
    8.9693   -1.7562   -3.4302 C   0  0  2  0  0  0  0  0  0  0  0  0
    5.1378    1.4831   -1.9464 C   0  0  0  0  0  0  0  0  0  0  0  0
    2.3855    1.4131   -2.1378 C   0  0  0  0  0  0  0  0  0  0  0  0
    0.8613    1.3918   -2.1482 C   0  0  0  0  0  0  0  0  0  0  0  0
    9.2059    0.7398   -3.9053 N   0  0  0  0  0  0  0  0  0  0  0  0
    9.1916   -2.0449   -4.8135 O   0  0  0  0  0  0  0  0  0  0  0  0
  7  1  1  0
 10  8  2  0
 11  9  1  0
 16  2  1  1
 16 12  1  0
 16 13  1  0
 17  3  1  6
 17 14  1  0
 18  4  1  6
 18 15  1  0
 19  8  1  0
 19  9  2  0
 19 12  1  0
 20 10  1  0
 20 11  2  0
 21  5  1  0
 21  6  1  0
 21  7  1  0
 21 20  1  0
 22 13  1  0
 22 14  1  0
 22 15  1  0
 23 17  1  0
 23 18  1  0
M  END
>  <DRUGBANK_ID>  (1) 
DB09056

>  <COMMON_NAME>  (1) 
Amorolfine

>  <CAS_NUMBER>  (1) 
78613-35-1

>  <UNII>  (1) 
AB0BHP2FH0

>  <SYNONYMS>  (1) 
Amorolfin; Amorolfina; Amorolfine

$$$$
