
     RDKit          3D

 24 28  0  0  0  0  0  0  0  0999 V2000
    2.7715   -1.2467    0.8775 C   0  0  1  0  0  0  0  0  0  0  0  0
    3.0708   -1.2323    2.6635 C   0  0  2  0  0  0  0  0  0  0  0  0
    4.5112   -1.4812    3.1131 C   0  0  0  0  0  0  0  0  0  0  0  0
    5.2733   -1.3907    1.8726 C   0  0  0  0  0  0  0  0  0  0  0  0
    5.3943    3.2131    1.9695 C   0  0  0  0  0  0  0  0  0  0  0  0
    4.2070    3.7574    1.2268 C   0  0  0  0  0  0  0  0  0  0  0  0
    4.6621    3.8072   -0.2483 C   0  0  1  0  0  0  0  0  0  0  0  0
    6.1659    3.7612   -0.5597 C   0  0  0  0  0  0  0  0  0  0  0  0
    6.7583    2.4109   -0.3152 C   0  0  0  0  0  0  0  0  0  0  0  0
    4.7841   -0.0432    1.1908 C   0  0  2  0  0  0  0  0  0  0  0  0
    4.3255    2.4251   -0.6521 C   0  0  0  0  0  0  0  0  0  0  0  0
    4.3509   -0.8057   -0.0841 C   0  0  2  0  0  0  0  0  0  0  0  0
    5.5929    1.4215    1.4928 C   0  0  1  0  0  0  0  0  0  0  0  0
    5.3961    0.2117   -0.8461 C   0  0  1  0  0  0  0  0  0  0  0  0
    5.4984    1.5868   -0.0830 C   0  0  2  0  0  0  0  0  0  0  0  0
    2.2297   -1.9435    3.5703 O   0  0  0  0  0  0  0  0  0  0  0  0
    1.1430   -1.3105    0.9190 C   0  0  0  0  0  0  0  0  0  0  0  0
    6.8655   -0.2483   -1.2559 C   0  0  0  0  0  0  0  0  0  0  0  0
    7.2379   -0.4925   -2.4018 O   0  0  0  0  0  0  0  0  0  0  0  0
    7.8188   -0.1027   -0.3018 O   0  0  0  0  0  0  0  0  0  0  0  0
    6.9689    4.7182   -1.0176 C   0  0  0  0  0  0  0  0  0  0  0  0
    3.4610    0.6584    1.2705 O   0  0  0  0  0  0  0  0  0  0  0  0
    2.6333    0.0898    0.4122 C   0  0  0  0  0  0  0  0  0  0  0  0
    2.2282    0.4852   -0.7219 O   0  0  0  0  0  0  0  0  0  0  0  0
  1 12  1  0
  1 17  1  6
  1 23  1  0
  2  1  1  0
  2  3  1  0
  2 16  1  1
  3  4  1  0
 10  4  1  1
 13  5  1  1
  6  5  1  0
  7  6  1  1
  7 11  1  0
  7  8  1  0
  8  9  1  0
 10 22  1  0
 12 10  1  0
 13 10  1  0
 12 14  1  6
 14 18  1  1
 15 13  1  0
 15 14  1  0
 15 11  1  0
 15  9  1  6
 19 18  2  0
 20 18  1  0
 21  8  2  0
 23 22  1  0
 24 23  2  0
M  END
>  <DRUGBANK_ID>  (1) 
DB07815

>  <COMMON_NAME>  (1) 
Gibberellin A4

>  <CAS_NUMBER>  (1) 
468-44-0

>  <UNII>  (1) 
1360M56KLC

>  <SYNONYMS>  (1) 
2β,4a-dihydroxy-1-methyl-8-methylene-4aα,4bβ-gibbane-1α,10β-dicarboxylic acid, 1,4a-lactone; GA4; Gibberellin 4

$$$$
