NEZ
     RDKit          3D

 24 27  0  0  0  0  0  0  0  0999 V2000
    0.8261   -0.2006    0.0445 C   0  0  0  0  0  0  0  0  0  0  0  0
    0.3540   -1.6407    0.3098 C   0  0  0  0  0  0  0  0  0  0  0  0
    0.9238   -2.7954   -0.3761 C   0  0  0  0  0  0  0  0  0  0  0  0
    1.7829   -2.6992   -1.5259 N   0  0  0  0  0  0  0  0  0  0  0  0
    2.1922   -3.7913   -2.1163 C   0  0  0  0  0  0  0  0  0  0  0  0
    2.9779   -3.8025   -3.2216 N   0  0  0  0  0  0  0  0  0  0  0  0
    1.8732   -5.0423   -1.6776 N   0  0  0  0  0  0  0  0  0  0  0  0
    1.1126   -5.2722   -0.5838 C   0  0  0  0  0  0  0  0  0  0  0  0
    0.8370   -6.4154   -0.2122 O   0  0  0  0  0  0  0  0  0  0  0  0
    0.6084   -4.0833    0.1051 C   0  0  0  0  0  0  0  0  0  0  0  0
   -0.2182   -4.3276    1.1936 C   0  0  0  0  0  0  0  0  0  0  0  0
   -0.9109   -3.2389    1.6631 C   0  0  0  0  0  0  0  0  0  0  0  0
   -1.9379   -3.1926    2.5638 N   0  0  0  0  0  0  0  0  0  0  0  0
   -2.3140   -1.8934    2.6908 C   0  0  0  0  0  0  0  0  0  0  0  0
   -1.5559   -1.1063    1.9574 N   0  0  0  0  0  0  0  0  0  0  0  0
   -0.6772   -1.9297    1.2654 C   0  0  0  0  0  0  0  0  0  0  0  0
    0.4270    0.8927    1.1021 C   0  0  0  0  0  0  0  0  0  0  0  0
    0.9076    2.3219    0.8664 C   0  0  0  0  0  0  0  0  0  0  0  0
    0.3196    3.3894    1.5744 C   0  0  0  0  0  0  0  0  0  0  0  0
    0.5936    4.7199    1.2261 C   0  0  0  0  0  0  0  0  0  0  0  0
    1.5525    5.0100    0.2525 C   0  0  0  0  0  0  0  0  0  0  0  0
    1.7725    6.4200   -0.2067 C   0  0  0  0  0  0  0  0  0  0  0  0
    2.2654    3.9560   -0.3207 C   0  0  0  0  0  0  0  0  0  0  0  0
    1.9115    2.6304   -0.0543 C   0  0  0  0  0  0  0  0  0  0  0  0
  1  2  1  0
  1 17  1  0
  2  3  2  0
  2 16  1  0
  3  4  1  0
  3 10  1  0
  4  5  2  0
  5  6  1  0
  5  7  1  0
  7  8  1  0
  8  9  2  0
  8 10  1  0
 10 11  2  0
 11 12  1  0
 12 13  1  0
 12 16  2  0
 13 14  1  0
 14 15  2  0
 15 16  1  0
 17 18  1  0
 18 19  2  0
 18 24  1  0
 19 20  1  0
 20 21  2  0
 21 22  1  0
 21 23  1  0
 23 24  2  0
M  END
>  <DRUGBANK_ID>  (1) 
DB08268

>  <COMMON_NAME>  (1) 
6-AMINO-4-[2-(4-METHYLPHENYL)ETHYL]-1,7-DIHYDRO-8H-IMIDAZO[4,5-G]QUINAZOLIN-8-ONE

$$$$
