
     RDKit          3D

 27 30  0  0  1  0  0  0  0  0999 V2000
    0.9244   -2.1363   -1.5771 C   0  0  0  0  0  0  0  0  0  0  0  0
    0.4290   -0.7038   -1.3356 C   0  0  2  0  0  0  0  0  0  0  0  0
    0.8770   -0.1467   -0.0896 O   0  0  0  0  0  0  0  0  0  0  0  0
    2.2217   -0.0471    0.1651 C   0  0  0  0  0  0  0  0  0  0  0  0
    3.2306   -0.4182   -0.7093 C   0  0  0  0  0  0  0  0  0  0  0  0
    4.5353   -0.5470   -0.2694 C   0  0  0  0  0  0  0  0  0  0  0  0
    5.4789   -1.1590   -1.1051 C   0  0  0  0  0  0  0  0  0  0  0  0
    6.7358   -1.4297   -0.6089 C   0  0  0  0  0  0  0  0  0  0  0  0
    7.6274   -2.0626   -1.3808 F   0  0  0  0  0  0  0  0  0  0  0  0
    7.0760   -1.0264    0.6710 C   0  0  0  0  0  0  0  0  0  0  0  0
    6.1717   -0.2567    1.4212 C   0  0  0  0  0  0  0  0  0  0  0  0
    4.8502   -0.0838    1.0164 C   0  0  0  0  0  0  0  0  0  0  0  0
    3.9090    0.4669    1.8201 N   0  0  0  0  0  0  0  0  0  0  0  0
    2.6140    0.4455    1.4149 C   0  0  0  0  0  0  0  0  0  0  0  0
    1.6501    0.8349    2.3336 N   0  0  0  0  0  0  0  0  0  0  0  0
   -1.1015   -0.5997   -1.3733 C   0  0  0  0  0  0  0  0  0  0  0  0
   -1.8334   -1.7824   -1.3354 N   0  0  0  0  0  0  0  0  0  0  0  0
   -3.1742   -1.8792   -1.5774 C   0  0  0  0  0  0  0  0  0  0  0  0
   -3.7462   -2.9620   -1.7154 O   0  0  0  0  0  0  0  0  0  0  0  0
   -3.9084   -0.6023   -1.6338 C   0  0  0  0  0  0  0  0  0  0  0  0
   -3.2344    0.5455   -1.4606 C   0  0  0  0  0  0  0  0  0  0  0  0
   -1.7689    0.5813   -1.4500 C   0  0  0  0  0  0  0  0  0  0  0  0
   -1.1174    1.8366   -1.5155 N   0  0  0  0  0  0  0  0  0  0  0  0
   -0.2092    2.2180   -2.5041 C   0  0  0  0  0  0  0  0  0  0  0  0
    0.2427    3.4779   -2.2096 C   0  0  0  0  0  0  0  0  0  0  0  0
   -0.4457    3.8195   -1.0421 C   0  0  0  0  0  0  0  0  0  0  0  0
   -1.3233    2.8878   -0.6681 N   0  0  0  0  0  0  0  0  0  0  0  0
  2 16  1  0
  2  3  1  0
  2  1  1  1
  3  4  1  0
  4  5  2  0
  4 14  1  0
  5  6  1  0
  6  7  2  0
  6 12  1  0
  7  8  1  0
  8  9  1  0
  8 10  2  0
 10 11  1  0
 11 12  2  0
 12 13  1  0
 13 14  2  0
 14 15  1  0
 16 17  1  0
 16 22  2  0
 17 18  1  0
 18 19  2  0
 18 20  1  0
 20 21  2  0
 21 22  1  0
 22 23  1  0
 23 24  1  0
 23 27  1  0
 24 25  2  0
 25 26  1  0
 26 27  2  0
M  END
>  <DRUGBANK_ID>  (1) 
DB18122

>  <COMMON_NAME>  (1) 
PF-07059013

>  <CAS_NUMBER>  (1) 
2435610-93-6

>  <UNII>  (1) 
FXK42BP3GL

>  <SYNONYMS>  (1) 
2(1h)-pyridinone, 6-((1s)-1-((2-amino-6-fluoro-3-quinolinyl)oxy)ethyl)-5-(1h-pyrazol-1-yl)-; 6-((1s)-1-((2-amino-6-fluoroquinolin-3-yl)oxy)ethyl)-5-(1h-pyrazol-1-yl)pyridin-2(1h)-one

$$$$
