
     RDKit          3D

 35 37  0  0  1  0  0  0  0  0999 V2000
    0.8222    0.1067    0.2070 C   0  0  0  0  0  0  0  0  0  0  0  0
    5.2536    1.8320    2.0646 C   0  0  0  0  0  0  0  0  0  0  0  0
    3.0669    5.2300    0.4141 C   0  0  0  0  0  0  0  0  0  0  0  0
    0.1076    2.5945   -5.0131 C   0  0  0  0  0  0  0  0  0  0  0  0
    0.2762    1.3850    0.9783 C   0  0  2  0  0  0  0  0  0  0  0  0
    4.8811    4.2338    0.9640 C   0  0  0  0  0  0  0  0  0  0  0  0
   -0.4533    2.3811    0.1072 C   0  0  2  0  0  0  0  0  0  0  0  0
    0.5296    3.5510   -0.0854 C   0  0  2  0  0  0  0  0  0  0  0  0
    6.1876    3.7910    1.2404 C   0  0  0  0  0  0  0  0  0  0  0  0
    3.8507    3.3860    1.3271 C   0  0  0  0  0  0  0  0  0  0  0  0
    1.3197    3.5646    1.2049 C   0  0  2  0  0  0  0  0  0  0  0  0
    7.3105    4.5459    0.9920 N   0  0  0  0  0  0  0  0  0  0  0  0
    6.3501    2.5708    1.8047 N   0  0  0  0  0  0  0  0  0  0  0  0
    3.9675    2.1580    1.8538 N   0  0  0  0  0  0  0  0  0  0  0  0
    4.3753    5.3811    0.3865 N   0  0  0  0  0  0  0  0  0  0  0  0
    2.6917    4.0522    1.0197 N   0  0  0  0  0  0  0  0  0  0  0  0
   -1.6780    2.9266    0.5697 O   0  0  0  0  0  0  0  0  0  0  0  0
   -0.0769    4.7499   -0.5313 O   0  0  0  0  0  0  0  0  0  0  0  0
    0.7925    0.8239   -6.8952 O   0  0  0  0  0  0  0  0  0  0  0  0
    2.6534    1.5825   -5.4070 O   0  0  0  0  0  0  0  0  0  0  0  0
   -0.7199    2.9157   -2.4984 O   0  0  0  0  0  0  0  0  0  0  0  0
   -0.8238    4.8356   -3.5692 O   0  0  0  0  0  0  0  0  0  0  0  0
   -0.6177   -1.6963   -3.7341 O   0  0  0  0  0  0  0  0  0  0  0  0
    1.7810   -2.1272   -3.4935 O   0  0  0  0  0  0  0  0  0  0  0  0
    0.4639   -1.4715   -1.6420 O   0  0  0  0  0  0  0  0  0  0  0  0
    2.3099    1.6103   -1.0791 O   0  0  0  0  0  0  0  0  0  0  0  0
    2.1231    0.6337   -2.9684 O   0  0  0  0  0  0  0  0  0  0  0  0
    0.5097    0.0169   -1.2707 O   0  0  0  0  0  0  0  0  0  0  0  0
    1.3325    2.1618    1.6049 O   0  0  0  0  0  0  0  0  0  0  0  0
    0.9633   -0.3894   -4.6960 O   0  0  0  0  0  0  0  0  0  0  0  0
    1.6630    2.7719   -3.0175 O   0  0  0  0  0  0  0  0  0  0  0  0
    1.2501    1.1200   -5.3540 P   0  0  1  0  0  0  0  0  0  0  0  0
    0.3507    3.8609   -3.3086 P   0  0  2  0  0  0  0  0  0  0  0  0
    0.6998   -0.9604   -3.0844 P   0  0  0  0  0  0  0  0  0  0  0  0
    1.0864    1.3944   -2.1441 P   0  0  1  0  0  0  0  0  0  0  0  0
  5  1  1  6
  7  5  1  0
  7 17  1  1
  8  7  1  0
  8 18  1  1
  9  6  2  0
 10  6  1  0
 11  8  1  0
 11 16  1  6
 12  9  1  0
 13  2  2  0
 13  9  1  0
 14  2  1  0
 14 10  2  0
 15  3  2  0
 15  6  1  0
 16  3  1  0
 16 10  1  0
 28  1  1  0
 29  5  1  0
 29 11  1  0
 32  4  1  0
 32 19  1  6
 32 20  2  0
 32 30  1  0
 33  4  1  0
 33 21  1  1
 33 22  2  0
 33 31  1  0
 34 23  1  0
 34 24  1  0
 34 25  2  0
 34 30  1  0
 35 26  1  1
 35 27  2  0
 35 28  1  0
 35 31  1  0
M  END
>  <DRUGBANK_ID>  (1) 
DB03755

>  <SECONDARY_ACCESSION_NUMBERS>  (1) 
EXPT00417

>  <COMMON_NAME>  (1) 
Adenosine-5'-[Beta, Gamma-Methylene]Tetraphosphate

$$$$
