ILF
     RDKit          3D

 30 32  0  0  0  0  0  0  0  0999 V2000
    1.4027   -0.1927    0.0140 C   0  0  0  0  0  0  0  0  0  0  0  0
    0.5586   -1.3060    0.0049 C   0  0  0  0  0  0  0  0  0  0  0  0
   -0.8289   -1.1160   -0.0144 C   0  0  0  0  0  0  0  0  0  0  0  0
   -1.3719    0.1749   -0.0270 C   0  0  0  0  0  0  0  0  0  0  0  0
   -2.8078    0.4125   -0.1752 C   0  0  0  0  0  0  0  0  0  0  0  0
   -0.4977    1.2753    0.0267 C   0  0  0  0  0  0  0  0  0  0  0  0
    0.8782    1.0944   -0.0003 C   0  0  0  0  0  0  0  0  0  0  0  0
   -3.7606   -0.0334    0.7446 C   0  0  0  0  0  0  0  0  0  0  0  0
   -5.1134    0.3182    0.5916 C   0  0  0  0  0  0  0  0  0  0  0  0
   -5.5522    1.1336   -0.4659 C   0  0  0  0  0  0  0  0  0  0  0  0
   -3.2451    1.2040   -1.2342 C   0  0  0  0  0  0  0  0  0  0  0  0
   -7.4979    2.1257   -1.6862 C   0  0  0  0  0  0  0  0  0  0  0  0
   -8.9496    2.3003   -1.7162 C   0  0  0  0  0  0  0  0  0  0  0  0
   -9.6562    2.2661   -2.9752 C   0  0  0  0  0  0  0  0  0  0  0  0
   -9.7832    2.6700   -0.6680 C   0  0  0  0  0  0  0  0  0  0  0  0
    0.9725   -2.6097   -0.0134 O   0  0  0  0  0  0  0  0  0  0  0  0
    2.3757   -2.8267   -0.0497 C   0  0  0  0  0  0  0  0  0  0  0  0
    2.9334   -2.2537   -1.1395 F   0  0  0  0  0  0  0  0  0  0  0  0
    2.9674   -2.3432    1.0648 F   0  0  0  0  0  0  0  0  0  0  0  0
    2.6162   -4.1541   -0.1088 F   0  0  0  0  0  0  0  0  0  0  0  0
   -5.9841   -0.1266    1.5129 F   0  0  0  0  0  0  0  0  0  0  0  0
   -6.9422    1.4006   -0.6420 N   0  0  0  0  0  0  0  0  0  0  0  0
   -4.5598    1.6273   -1.3119 C   0  0  0  0  0  0  0  0  0  0  0  0
   -4.7604    2.6261   -2.1734 F   0  0  0  0  0  0  0  0  0  0  0  0
   -6.8972    2.5757   -2.6548 O   0  0  0  0  0  0  0  0  0  0  0  0
  -10.9906    2.5537   -2.8502 C   0  0  0  0  0  0  0  0  0  0  0  0
  -11.3980    2.8973   -1.2238 S   0  0  0  0  0  0  0  0  0  0  0  0
   -9.3909    2.9095    0.7126 C   0  0  0  0  0  0  0  0  0  0  0  0
  -10.3933    3.2428    1.5576 O   0  0  0  0  0  0  0  0  0  0  0  0
   -8.2452    2.7901    1.1402 O   0  0  0  0  0  0  0  0  0  0  0  0
  1  2  2  0
  1  7  1  0
  2  3  1  0
  2 16  1  0
  3  4  2  0
  4  5  1  0
  4  6  1  0
  5  8  2  0
  5 11  1  0
  6  7  2  0
  8  9  1  0
  9 10  2  0
  9 21  1  0
 10 22  1  0
 10 23  1  0
 11 23  2  0
 12 13  1  0
 12 22  1  0
 12 25  2  0
 13 14  1  0
 13 15  2  0
 14 26  2  0
 15 27  1  0
 15 28  1  0
 16 17  1  0
 17 18  1  0
 17 19  1  0
 17 20  1  0
 23 24  1  0
 26 27  1  0
 28 29  1  0
 28 30  2  0
M  END
>  <DRUGBANK_ID>  (1) 
DB07977

>  <COMMON_NAME>  (1) 
3-({[3,5-DIFLUORO-3'-(TRIFLUOROMETHOXY)BIPHENYL-4-YL]AMINO}CARBONYL)THIOPHENE-2-CARBOXYLIC ACID

$$$$
