
     RDKit          3D

 13 13  0  0  0  0  0  0  0  0999 V2000
    3.4385    2.6124   -0.0660 C   0  0  0  0  0  0  0  0  0  0  0  0
    5.5132    1.6490   -0.4266 C   0  0  0  0  0  0  0  0  0  0  0  0
    4.1110    3.8694   -0.0621 C   0  0  0  0  0  0  0  0  0  0  0  0
    6.1993    2.8386   -0.2322 C   0  0  0  0  0  0  0  0  0  0  0  0
    3.6466    0.0544   -0.1424 C   0  0  0  0  0  0  0  0  0  0  0  0
    4.1734    1.4397   -0.1774 C   0  0  0  0  0  0  0  0  0  0  0  0
    5.5162    4.0272   -0.0843 C   0  0  0  0  0  0  0  0  0  0  0  0
    4.2978   -1.1375   -0.1239 C   0  0  0  0  0  0  0  0  0  0  0  0
    5.7471   -1.5509   -0.1439 C   0  0  0  0  0  0  0  0  0  0  0  0
    3.4966   -2.2372   -0.1238 F   0  0  0  0  0  0  0  0  0  0  0  0
    6.1145    5.1502   -0.0521 O   0  0  0  0  0  0  0  0  0  0  0  0
    6.1330   -2.6943   -0.4040 O   0  0  0  0  0  0  0  0  0  0  0  0
    6.6300   -0.6010    0.1749 O   0  0  0  0  0  0  0  0  0  0  0  0
  3  1  2  0
  4  2  1  0
  6  1  1  0
  6  2  2  0
  6  5  1  0
  7  3  1  0
  7  4  2  0
  8  5  2  0
  9  8  1  0
 10  8  1  0
 11  7  1  0
 12  9  2  0
 13  9  1  0
M  CHG  1  11  -1
M  END
>  <DRUGBANK_ID>  (1) 
DB02384

>  <SECONDARY_ACCESSION_NUMBERS>  (1) 
EXPT01432

>  <COMMON_NAME>  (1) 
(E)-2-Fluoro-P-Hydroxycinnamate

$$$$
