TYC
     RDKit          3D

 13 13  0  0  0  0  0  0  0  0999 V2000
    0.9524   -1.8168    1.6649 N   0  0  0  0  0  0  0  0  0  0  0  0
    0.4962   -1.3950    0.3151 C   0  0  2  0  0  0  0  0  0  0  0  0
    1.2166   -0.0776   -0.0612 C   0  0  0  0  0  0  0  0  0  0  0  0
    1.6931    0.1384   -1.1747 O   0  0  0  0  0  0  0  0  0  0  0  0
   -1.0398   -1.3380    0.2750 C   0  0  0  0  0  0  0  0  0  0  0  0
   -1.5685   -0.9900   -1.0959 C   0  0  0  0  0  0  0  0  0  0  0  0
   -1.5701    0.3454   -1.5240 C   0  0  0  0  0  0  0  0  0  0  0  0
   -1.9882   -1.9899   -1.9833 C   0  0  0  0  0  0  0  0  0  0  0  0
   -1.9331    0.6754   -2.8296 C   0  0  0  0  0  0  0  0  0  0  0  0
   -2.3704   -1.6574   -3.2841 C   0  0  0  0  0  0  0  0  0  0  0  0
   -2.6759   -0.0653   -4.9923 O   0  0  0  0  0  0  0  0  0  0  0  0
   -2.3263   -0.3326   -3.7017 C   0  0  0  0  0  0  0  0  0  0  0  0
    1.3586    0.8659    0.9170 N   0  0  0  0  0  0  0  0  0  0  0  0
  2  5  1  0
  2  3  1  0
  2  1  1  1
  3  4  2  0
  3 13  1  0
  5  6  1  0
  6  7  2  0
  6  8  1  0
  7  9  1  0
  8 10  2  0
  9 12  2  0
 10 12  1  0
 11 12  1  0
M  END
>  <DRUGBANK_ID>  (1) 
DB03380

>  <SECONDARY_ACCESSION_NUMBERS>  (1) 
EXPT03135

>  <COMMON_NAME>  (1) 
L-tyrosinamide

>  <CAS_NUMBER>  (1) 
4985-46-0

>  <UNII>  (1) 
05LU01CS4T

>  <SYNONYMS>  (1) 
(2S)-2-amino-3-(4-hydroxyphenyl)propanamide; L-Tyrosine amide; Tyrosinamide; Tyrosine amide

$$$$
