
     RDKit          3D

  9  9  0  0  1  0  0  0  0  0999 V2000
    0.7506    0.2324    0.0501 O   0  0  0  0  0  0  0  0  0  0  0  0
    0.4439    1.7462   -0.3846 S   0  0  0  0  0  0  0  0  0  0  0  0
    0.8626    1.8669   -1.8125 O   0  0  0  0  0  0  0  0  0  0  0  0
   -1.3651    1.5985   -0.3899 C   0  0  0  0  0  0  0  0  0  0  0  0
   -2.0539    0.3819   -0.3519 C   0  0  0  0  0  0  0  0  0  0  0  0
   -3.4496    0.3602   -0.2394 C   0  0  0  0  0  0  0  0  0  0  0  0
   -4.1645    1.5557   -0.1527 C   0  0  0  0  0  0  0  0  0  0  0  0
   -3.4901    2.7707   -0.2062 C   0  0  0  0  0  0  0  0  0  0  0  0
   -2.1015    2.7930   -0.3558 C   0  0  0  0  0  0  0  0  0  0  0  0
  2  1  1  0
  2  3  2  0
  2  4  1  0
  4  5  2  0
  4  9  1  0
  5  6  1  0
  6  7  2  0
  7  8  1  0
  8  9  2  0
M  END
>  <DRUGBANK_ID>  (1) 
DB03848

>  <SECONDARY_ACCESSION_NUMBERS>  (1) 
EXPT00732

>  <COMMON_NAME>  (1) 
Benzenesulfinic acid

>  <CAS_NUMBER>  (1) 
618-41-7

>  <UNII>  (1) 
G9560D97PI

>  <SYNONYMS>  (1) 
benzenesulphinic acid

$$$$
