800
     RDKit          3D

 21 23  0  0  1  0  0  0  0  0999 V2000
    0.9350   -0.0178   -0.0676 Cl  0  0  0  0  0  0  0  0  0  0  0  0
    5.3685   -2.3030   -0.7940 O   0  0  0  0  0  0  0  0  0  0  0  0
    2.6824   -2.3207   -0.6559 O   0  0  0  0  0  0  0  0  0  0  0  0
   11.2686    1.9299    1.4253 O   0  0  0  0  0  0  0  0  0  0  0  0
    3.9507    4.3131   -0.4867 N   0  0  0  0  0  0  0  0  0  0  0  0
    5.6037    2.5508    0.5098 C   0  0  0  0  0  0  0  0  0  0  0  0
    4.8113    1.2298    0.1780 C   0  0  0  0  0  0  0  0  0  0  0  0
    5.2569    3.6172   -0.6044 C   0  0  0  0  0  0  0  0  0  0  0  0
    3.3908    1.1987    0.2886 C   0  0  0  0  0  0  0  0  0  0  0  0
    2.6509    2.4861    0.5805 C   0  0  0  0  0  0  0  0  0  0  0  0
    2.7866    3.4292   -0.6161 C   0  0  0  0  0  0  0  0  0  0  0  0
    7.1322    2.4357    0.8332 C   0  0  0  0  0  0  0  0  0  0  0  0
    5.4210    0.0600   -0.3272 C   0  0  0  0  0  0  0  0  0  0  0  0
    2.6706    0.0109   -0.0252 C   0  0  0  0  0  0  0  0  0  0  0  0
    4.7239   -1.1342   -0.4884 C   0  0  0  0  0  0  0  0  0  0  0  0
    7.9609    3.5589    1.0636 C   0  0  0  0  0  0  0  0  0  0  0  0
    7.7636    1.2024    1.0347 C   0  0  0  0  0  0  0  0  0  0  0  0
    3.3481   -1.1574   -0.3701 C   0  0  0  0  0  0  0  0  0  0  0  0
    9.3509    3.4141    1.2990 C   0  0  0  0  0  0  0  0  0  0  0  0
    9.1428    1.0422    1.1152 C   0  0  0  0  0  0  0  0  0  0  0  0
    9.9389    2.1586    1.2605 C   0  0  0  0  0  0  0  0  0  0  0  0
  1 14  1  0
  2 15  1  0
  3 18  1  0
  4 21  1  0
  5  8  1  0
  5 11  1  0
  6  7  1  0
  6  8  1  0
  6 12  1  0
  7  9  2  0
  7 13  1  0
  9 10  1  0
  9 14  1  0
 10 11  1  0
 12 16  2  0
 12 17  1  0
 13 15  2  0
 14 18  2  0
 15 18  1  0
 16 19  1  0
 17 20  2  0
 19 21  2  0
 20 21  1  0
M  END
>  <DRUGBANK_ID>  (1) 
DB00800

>  <SECONDARY_ACCESSION_NUMBERS>  (1) 
APRD00969

>  <COMMON_NAME>  (1) 
Fenoldopam

>  <CAS_NUMBER>  (1) 
67227-56-9

>  <UNII>  (1) 
INU8H2KAWG

>  <SYNONYMS>  (1) 
FÃ©noldopam; Fenoldopam; Fenoldopamum

$$$$
