
     RDKit          3D

 11 10  0  0  1  0  0  0  0  0999 V2000
    0.8951    2.5480   -0.3858 C   0  0  0  0  0  0  0  0  0  0  0  0
    1.0348    0.0105   -0.0356 C   0  0  0  0  0  0  0  0  0  0  0  0
    0.4110    1.3433    0.4537 C   0  0  2  0  0  0  0  0  0  0  0  0
    1.7575    0.1079   -1.3448 C   0  0  0  0  0  0  0  0  0  0  0  0
   -1.1368    1.2878    0.5234 C   0  0  1  0  0  0  0  0  0  0  0  0
   -1.6713    0.2391    1.5324 C   0  0  0  0  0  0  0  0  0  0  0  0
   -1.6442    2.6251    0.9391 N   0  0  0  0  0  0  0  0  0  0  0  0
    2.9697    0.1459   -1.4964 O   0  0  0  0  0  0  0  0  0  0  0  0
    0.9111    0.2662   -2.3819 O   0  0  0  0  0  0  0  0  0  0  0  0
   -2.3573    0.4750    2.5173 O   0  0  0  0  0  0  0  0  0  0  0  0
   -1.3508   -1.0322    1.2292 O   0  0  0  0  0  0  0  0  0  0  0  0
  3  2  1  0
  3  1  1  6
  4  2  1  0
  5  3  1  0
  5  7  1  1
  6  5  1  0
  8  4  2  0
  9  4  1  0
 10  6  2  0
 11  6  1  0
M  END
>  <DRUGBANK_ID>  (1) 
DB03810

>  <SECONDARY_ACCESSION_NUMBERS>  (1) 
EXPT02042

>  <COMMON_NAME>  (1) 
3-Methylglutamic acid

>  <CAS_NUMBER>  (1) 
6070-75-3

>  <SYNONYMS>  (1) 
(2S,3R)-2-azanyl-3-methyl-pentanedioic acid; (3R)-3-methyl-L-glutamic acid

$$$$
