TNS
     RDKit          3D

 26 27  0  0  0  0  0  0  0  0999 V2000
    0.9289    0.1623   -0.5056 O   0  0  0  0  0  0  0  0  0  0  0  0
    2.1326    0.1695   -0.4078 C   0  0  0  0  0  0  0  0  0  0  0  0
    2.9452    1.0093   -1.0832 O   0  0  0  0  0  0  0  0  0  0  0  0
    2.8709   -0.6965    0.5367 C   0  0  0  0  0  0  0  0  0  0  0  0
    2.3783   -0.3346    1.9090 C   0  0  0  0  0  0  0  0  0  0  0  0
    1.0049   -0.7478    2.4168 C   0  0  0  0  0  0  0  0  0  0  0  0
    0.7833   -2.2532    2.2324 C   0  0  0  0  0  0  0  0  0  0  0  0
    1.5407   -3.1040    3.2020 N   0  0  0  0  0  0  0  0  0  0  0  0
    0.7650   -4.0646    3.9676 C   0  0  0  0  0  0  0  0  0  0  0  0
    2.9218   -3.1987    3.3539 C   0  0  0  0  0  0  0  0  0  0  0  0
    3.7151   -2.1231    3.7897 C   0  0  0  0  0  0  0  0  0  0  0  0
    5.0819   -2.0466    3.5137 C   0  0  0  0  0  0  0  0  0  0  0  0
    3.6251   -4.3778    3.1534 C   0  0  0  0  0  0  0  0  0  0  0  0
    5.0211   -4.4029    3.2750 C   0  0  0  0  0  0  0  0  0  0  0  0
    5.7692   -3.2217    3.3165 C   0  0  0  0  0  0  0  0  0  0  0  0
    7.2269   -3.1635    3.2419 C   0  0  0  0  0  0  0  0  0  0  0  0
    7.9849   -4.2654    3.2554 C   0  0  0  0  0  0  0  0  0  0  0  0
    9.4373   -4.2337    3.2910 C   0  0  0  0  0  0  0  0  0  0  0  0
   10.1100   -3.3528    4.1451 C   0  0  0  0  0  0  0  0  0  0  0  0
   10.1480   -5.1847    2.5534 C   0  0  0  0  0  0  0  0  0  0  0  0
   11.5304   -5.2774    2.6919 C   0  0  0  0  0  0  0  0  0  0  0  0
   12.2020   -4.3540    3.5044 C   0  0  0  0  0  0  0  0  0  0  0  0
   11.4957   -3.4000    4.2461 C   0  0  0  0  0  0  0  0  0  0  0  0
   13.6667   -4.3419    3.5263 N   0  0  0  0  0  0  0  0  0  0  0  0
   14.2597   -5.1817    2.8349 O   0  0  0  0  0  0  0  0  0  0  0  0
   14.2248   -3.4736    4.2122 O   0  0  0  0  0  0  0  0  0  0  0  0
  1  2  2  0
  2  3  1  0
  2  4  1  0
  4  5  1  0
  5  6  1  0
  6  7  1  0
  7  8  1  0
  8  9  1  0
  8 10  1  0
 10 11  2  0
 10 13  1  0
 11 12  1  0
 12 15  2  0
 13 14  2  0
 14 15  1  0
 15 16  1  0
 16 17  2  0
 17 18  1  0
 18 19  2  0
 18 20  1  0
 19 23  1  0
 20 21  2  0
 21 22  1  0
 22 23  2  0
 22 24  1  0
 24 25  2  0
 24 26  1  0
M  CHG  2  24   1  26  -1
M  END
>  <DRUGBANK_ID>  (1) 
DB08635

>  <COMMON_NAME>  (1) 
N-(TRANS-4'-NITRO-4-STILBENYL)-N-METHYL-5-AMINO-PENTANOIC ACID

$$$$
