
     RDKit          3D

 12  9  0  0  0  0  0  0  0  0999 V2000
    0.9025    0.1286   -0.6099 C   0  0  0  0  0  0  0  0  0  0  0  0
    0.9983   -2.5603    0.1152 C   0  0  0  0  0  0  0  0  0  0  0  0
    0.5415   -1.3825   -0.8022 C   0  0  0  0  0  0  0  0  0  0  0  0
   -0.0600    0.9364    0.0662 O   0  0  0  0  0  0  0  0  0  0  0  0
   -0.8953   -1.4203   -0.9454 O   0  0  0  0  0  0  0  0  0  0  0  0
    2.3284   -0.8606    1.2063 O   0  0  0  0  0  0  0  0  0  0  0  0
   -0.1890   -0.4046    1.9351 O   0  0  0  0  0  0  0  0  0  0  0  0
    1.7132    0.3107    2.8920 O   0  0  0  0  0  0  0  0  0  0  0  0
    0.6204   -2.4399    1.4821 O   0  0  0  0  0  0  0  0  0  0  0  0
    1.1971   -0.9884    2.2261 P   0  0  0  0  0  0  0  0  0  0  0  0
   -0.4191   -0.0114   -3.0495 Na  0  0  0  0  0 15  0  0  0  0  0  0
    1.6356    1.6676    1.6729 Na  0  0  0  0  0 15  0  0  0  0  0  0
  3  1  1  0
  3  2  1  0
  4  1  1  0
  5  3  1  0
  9  2  1  0
 10  6  1  0
 10  7  1  0
 10  8  2  0
 10  9  1  0
M  CHG  4   6  -1   7  -1  11   1  12   1
M  END
>  <DRUGBANK_ID>  (1) 
DB09561

>  <SECONDARY_ACCESSION_NUMBERS>  (1) 
DBSALT001586

>  <COMMON_NAME>  (1) 
Sodium glycerophosphate

>  <CAS_NUMBER>  (1) 
1334-74-3

>  <UNII>  (1) 
G43E72677U

>  <SYNONYMS>  (1) 
Disodium glycerol phosphate; Sodium glycerophosphate anhydrous

$$$$
