
     RDKit          3D

 29 32  0  0  0  0  0  0  0  0999 V2000
    4.8135    0.0496    0.6723 C   0  0  1  0  0  0  0  0  0  0  0  0
    4.2034    1.4527    0.6171 C   0  0  0  0  0  0  0  0  0  0  0  0
    2.7013    1.4145    0.7771 C   0  0  0  0  0  0  0  0  0  0  0  0
    4.1080   -1.0441   -0.1461 C   0  0  0  0  0  0  0  0  0  0  0  0
    2.6114   -0.9453   -0.0883 C   0  0  0  0  0  0  0  0  0  0  0  0
    1.9038   -2.0756    0.0630 C   0  0  0  0  0  0  0  0  0  0  0  0
    0.4184   -2.1316    0.1425 C   0  0  0  0  0  0  0  0  0  0  0  0
   -0.2744   -0.8385   -0.3054 C   0  0  1  0  0  0  0  0  0  0  0  0
   -1.7027   -0.7758    0.2368 C   0  0  2  0  0  0  0  0  0  0  0  0
   -2.6799   -1.9097   -0.0420 C   0  0  0  0  0  0  0  0  0  0  0  0
   -4.0134   -1.3322    0.4627 C   0  0  0  0  0  0  0  0  0  0  0  0
   -3.8047    0.1686    0.3583 C   0  0  0  0  0  0  0  0  0  0  0  0
   -2.4476    0.4903   -0.2261 C   0  0  2  0  0  0  0  0  0  0  0  0
   -2.6482    0.6133   -1.7464 C   0  0  0  0  0  0  0  0  0  0  0  0
   -1.7441    1.7120    0.3520 C   0  0  0  0  0  0  0  0  0  0  0  0
   -0.2788    1.7295   -0.0811 C   0  0  0  0  0  0  0  0  0  0  0  0
    0.4751    0.4099    0.2395 C   0  0  2  0  0  0  0  0  0  0  0  0
    1.9746    0.4449   -0.2030 C   0  0  1  0  0  0  0  0  0  0  0  0
    2.0610    0.9318   -1.6714 C   0  0  0  0  0  0  0  0  0  0  0  0
   -4.6424    1.0035    0.6701 O   0  0  0  0  0  0  0  0  0  0  0  0
    6.2236    0.0936    0.3764 O   0  0  0  0  0  0  0  0  0  0  0  0
    6.7432    0.3621   -0.8384 C   0  0  0  0  0  0  0  0  0  0  0  0
    5.8166    0.7960   -1.9483 C   0  0  0  0  0  0  0  0  0  0  0  0
    6.0129    2.2373   -2.3778 C   0  0  0  0  0  0  0  0  0  0  0  0
    7.3702    2.3917   -3.0352 C   0  0  0  0  0  0  0  0  0  0  0  0
    7.5071    1.4569   -4.2436 C   0  0  0  0  0  0  0  0  0  0  0  0
    6.4703    1.7658   -5.3258 C   0  0  0  0  0  0  0  0  0  0  0  0
    6.6348    3.1936   -5.8175 C   0  0  0  0  0  0  0  0  0  0  0  0
    7.9571    0.2478   -1.0191 O   0  0  0  0  0  0  0  0  0  0  0  0
  1  2  1  0
  1  4  1  0
  1 21  1  6
  2  3  1  0
  3 18  1  0
  4  5  1  0
  5  6  2  0
  5 18  1  0
  6  7  1  0
  8  7  1  1
  8  9  1  0
  8 17  1  0
  9 10  1  6
  9 13  1  0
 10 11  1  0
 11 12  1  0
 12 13  1  0
 12 20  2  0
 13 14  1  6
 13 15  1  0
 15 16  1  0
 17 16  1  6
 17 18  1  0
 18 19  1  6
 21 22  1  0
 22 23  1  0
 22 29  2  0
 23 24  1  0
 24 25  1  0
 25 26  1  0
 26 27  1  0
 27 28  1  0
M  END
>  <DRUGBANK_ID>  (1) 
DB16625

>  <COMMON_NAME>  (1) 
Prasterone enantate

>  <CAS_NUMBER>  (1) 
23983-43-9

>  <UNII>  (1) 
2W8I1S6T5L

>  <SYNONYMS>  (1) 
Dehydroepiandrosterone enanthate; DHEA enantate; DHEA enanthate; Prasterone enanthate

$$$$
