
     RDKit          3D

 25 24  0  0  0  0  0  0  0  0999 V2000
    1.1387   -3.2642    0.3977 Mg  0  0  0  0  0 15  0  0  0  0  0  0
   -1.3050    0.0000   -0.1630 O   0  0  0  0  0  0  0  0  0  0  0  0
   -1.3050    0.0000   -0.1630 O   0  0  0  0  0  0  0  0  0  0  0  0
    2.1857    1.4545   -0.2136 O   0  0  0  0  0  0  0  0  0  0  0  0
    2.1857    1.4545   -0.2136 O   0  0  0  0  0  0  0  0  0  0  0  0
   -1.9861    2.8321   -0.5616 O   0  0  0  0  0  0  0  0  0  0  0  0
   -1.9861    2.8321   -0.5616 O   0  0  0  0  0  0  0  0  0  0  0  0
    1.6460    3.0650   -0.6488 O   0  0  0  0  0  0  0  0  0  0  0  0
    1.6460    3.0650   -0.6488 O   0  0  0  0  0  0  0  0  0  0  0  0
    2.1839   -1.4566   -0.2138 O   0  0  0  0  0  0  0  0  0  0  0  0
    2.1839   -1.4566   -0.2138 O   0  0  0  0  0  0  0  0  0  0  0  0
   -0.7062   -2.3772    0.4688 O   0  0  0  0  0  0  0  0  0  0  0  0
   -0.7062   -2.3772    0.4688 O   0  0  0  0  0  0  0  0  0  0  0  0
   -0.3720    1.1970    0.1360 C   0  0  2  0  0  0  0  0  0  0  0  0
   -0.3720    1.1970    0.1360 C   0  0  2  0  0  0  0  0  0  0  0  0
   -0.6540    2.3857   -0.7683 C   0  0  2  0  0  0  0  0  0  0  0  0
   -0.6540    2.3857   -0.7683 C   0  0  2  0  0  0  0  0  0  0  0  0
    1.0250    0.6520   -0.0550 C   0  0  0  0  0  0  0  0  0  0  0  0
    1.0250    0.6520   -0.0550 C   0  0  0  0  0  0  0  0  0  0  0  0
    0.3139    3.5114   -0.4421 C   0  0  0  0  0  0  0  0  0  0  0  0
    0.3139    3.5114   -0.4421 C   0  0  0  0  0  0  0  0  0  0  0  0
    1.0240   -0.6530   -0.0550 C   0  0  0  0  0  0  0  0  0  0  0  0
    1.0240   -0.6530   -0.0550 C   0  0  0  0  0  0  0  0  0  0  0  0
   -0.3720   -1.1970    0.1360 C   0  0  0  0  0  0  0  0  0  0  0  0
   -0.3720   -1.1970    0.1360 C   0  0  0  0  0  0  0  0  0  0  0  0
 14  2  1  6
  2 24  1  0
 15  3  1  6
  3 25  1  0
  4 18  1  0
  5 19  1  0
  8 20  1  0
  9 21  1  0
 10 22  1  0
 11 23  1  0
 12 24  2  0
 13 25  2  0
 14 16  1  0
 14 18  1  0
 15 17  1  0
 15 19  1  0
 16  6  1  1
 16 21  1  0
 17  7  1  1
 17 20  1  0
 18 22  2  0
 19 23  2  0
 22 24  1  0
 23 25  1  0
M  CHG  3   1   2   4  -1   5  -1
M  END
>  <DRUGBANK_ID>  (1) 
DB14484

>  <SECONDARY_ACCESSION_NUMBERS>  (1) 
DBSALT002423

>  <COMMON_NAME>  (1) 
Magnesium ascorbate

>  <CAS_NUMBER>  (1) 
15431-40-0

>  <UNII>  (1) 
0N1G678593

>  <SYNONYMS>  (1) 
Ascorbic acid, magnesium salt; L(+)-ascorbic acid magnesium salt; Vitamin C magnesium salt

$$$$
