55V
     RDKit          3D

 26 27  0  0  0  0  0  0  0  0999 V2000
    0.2874   -0.0010   -0.0709 C   0  0  0  0  0  0  0  0  0  0  0  0
    0.2382   -0.2979   -1.4568 O   0  0  0  0  0  0  0  0  0  0  0  0
    0.8689    0.5860   -2.3003 C   0  0  0  0  0  0  0  0  0  0  0  0
    0.0152    1.0451   -3.3258 C   0  0  0  0  0  0  0  0  0  0  0  0
    2.2419    0.8827   -2.3742 C   0  0  0  0  0  0  0  0  0  0  0  0
    3.2708    0.3999   -1.6385 O   0  0  0  0  0  0  0  0  0  0  0  0
    3.1723   -0.2829   -0.4322 C   0  0  0  0  0  0  0  0  0  0  0  0
    2.7037    1.7175   -3.4221 C   0  0  0  0  0  0  0  0  0  0  0  0
    4.0025    2.1205   -3.6714 O   0  0  0  0  0  0  0  0  0  0  0  0
    5.0324    1.6370   -2.8179 C   0  0  0  0  0  0  0  0  0  0  0  0
    1.8269    2.1801   -4.4043 C   0  0  0  0  0  0  0  0  0  0  0  0
    0.4887    1.7847   -4.4274 C   0  0  0  0  0  0  0  0  0  0  0  0
   -0.4027    2.0396   -5.6476 C   0  0  0  0  0  0  0  0  0  0  0  0
    0.3202    2.7972   -6.7840 C   0  0  0  0  0  0  0  0  0  0  0  0
   -1.6300    2.8745   -5.2339 C   0  0  0  0  0  0  0  0  0  0  0  0
   -0.8733    0.7087   -6.2111 C   0  0  0  0  0  0  0  0  0  0  0  0
   -1.2770   -0.4330   -6.6945 C   0  0  0  0  0  0  0  0  0  0  0  0
   -1.6670   -1.7104   -7.2263 C   0  0  0  0  0  0  0  0  0  0  0  0
   -1.1436   -2.8811   -6.7031 C   0  0  0  0  0  0  0  0  0  0  0  0
   -0.1874   -2.8610   -5.5449 C   0  0  0  0  0  0  0  0  0  0  0  0
   -1.4482   -4.1023   -7.1946 N   0  0  0  0  0  0  0  0  0  0  0  0
   -2.3037   -4.1623   -8.2242 C   0  0  0  0  0  0  0  0  0  0  0  0
   -2.5812   -5.3986   -8.7155 N   0  0  0  0  0  0  0  0  0  0  0  0
   -2.8853   -3.0870   -8.7790 N   0  0  0  0  0  0  0  0  0  0  0  0
   -2.5680   -1.8765   -8.2778 C   0  0  0  0  0  0  0  0  0  0  0  0
   -3.1262   -0.7878   -8.9302 N   0  0  0  0  0  0  0  0  0  0  0  0
  1  2  1  0
  2  3  1  0
  3  5  2  0
  4  3  1  0
  4 12  2  0
  5  6  1  0
  5  8  1  0
  6  7  1  0
  8  9  1  0
  9 10  1  0
 11  8  2  0
 12 11  1  0
 13 12  1  0
 13 16  1  0
 13 15  1  0
 14 13  1  0
 16 17  3  0
 17 18  1  0
 18 25  1  0
 19 18  2  0
 19 21  1  0
 20 19  1  0
 21 22  2  0
 22 23  1  0
 22 24  1  0
 25 24  2  0
 25 26  1  0
M  END
>  <DRUGBANK_ID>  (1) 
DB07153

>  <COMMON_NAME>  (1) 
6-methyl-5-[3-methyl-3-(3,4,5-trimethoxyphenyl)but-1-yn-1-yl]pyrimidine-2,4-diamine

$$$$
