
     RDKit          3D

 26 27  0  0  0  0  0  0  0  0999 V2000
    1.0383   -0.0480   -0.0416 S   0  0  0  0  0  0  0  0  0  0  0  0
    3.2466   -4.7213    5.6239 O   0  0  0  0  0  0  0  0  0  0  0  0
    6.5075   -3.6099    3.3241 O   0  0  0  0  0  0  0  0  0  0  0  0
    5.4131   -4.5326    6.1324 O   0  0  0  0  0  0  0  0  0  0  0  0
    0.5324   -1.4287    0.6161 O   0  0  0  0  0  0  0  0  0  0  0  0
    0.6303    1.0309    0.8086 O   0  0  0  0  0  0  0  0  0  0  0  0
    0.6447   -0.1178   -1.4387 O   0  0  0  0  0  0  0  0  0  0  0  0
    4.5206   -2.7034    5.0566 N   0  0  0  0  0  0  0  0  0  0  0  0
    8.0330   -2.0617    3.8433 N   0  0  0  0  0  0  0  0  0  0  0  0
    2.7107   -0.1878   -0.0401 N   0  0  0  0  0  0  0  0  0  0  0  0
    5.8550   -2.0307    5.0946 C   0  0  2  0  0  0  0  0  0  0  0  0
    5.6731   -0.4847    4.8506 C   0  0  0  0  0  0  0  0  0  0  0  0
    3.4707   -1.8173    4.5451 C   0  0  0  0  0  0  0  0  0  0  0  0
    4.9717   -0.2549    3.5362 C   0  0  0  0  0  0  0  0  0  0  0  0
    3.8636   -1.0494    3.3479 C   0  0  0  0  0  0  0  0  0  0  0  0
    6.8002   -2.6366    4.0221 C   0  0  0  0  0  0  0  0  0  0  0  0
    3.1172   -1.0361    2.1787 C   0  0  0  0  0  0  0  0  0  0  0  0
    4.4300   -4.0018    5.6098 C   0  0  0  0  0  0  0  0  0  0  0  0
    5.3223    0.6340    2.5412 C   0  0  0  0  0  0  0  0  0  0  0  0
    1.9992   -4.2533    5.0859 C   0  0  0  0  0  0  0  0  0  0  0  0
    3.4487   -0.1535    1.1753 C   0  0  0  0  0  0  0  0  0  0  0  0
    4.5558    0.6881    1.3598 C   0  0  0  0  0  0  0  0  0  0  0  0
    1.5468   -3.0823    6.0197 C   0  0  0  0  0  0  0  0  0  0  0  0
    2.1926   -4.1694    3.5344 C   0  0  0  0  0  0  0  0  0  0  0  0
    0.8407   -5.2394    5.2324 C   0  0  0  0  0  0  0  0  0  0  0  0
    8.6129   -0.9415    4.5447 C   0  0  0  0  0  0  0  0  0  0  0  0
  1  5  1  0
  1  6  2  0
  1  7  2  0
  1 10  1  0
  2 18  1  0
  2 20  1  0
  3 16  2  0
  4 18  2  0
  8 11  1  0
  8 13  1  0
  8 18  1  0
  9 16  1  0
  9 26  1  0
 10 21  1  0
 11 12  1  0
 11 16  1  6
 12 14  1  0
 13 15  1  0
 14 15  2  0
 14 19  1  0
 15 17  1  0
 17 21  2  0
 19 22  2  0
 20 23  1  0
 20 24  1  0
 20 25  1  0
 21 22  1  0
M  END
>  <DRUGBANK_ID>  (1) 
DB07719

>  <COMMON_NAME>  (1) 
[(3R)-3-(Methylcarbamoyl)-2-{[(2-methyl-2-propanyl)oxy]carbonyl}-1,2,3,4-tetrahydro-7-isoquinolinyl]sulfamic acid

$$$$
