
     RDKit          3D

 29 32  0  0  0  0  0  0  0  0999 V2000
    0.9286   -0.1457   -0.0777 C   0  0  0  0  0  0  0  0  0  0  0  0
    0.3839    0.4235   -1.3908 C   0  0  0  0  0  0  0  0  0  0  0  0
    0.8857   -0.4286   -2.5536 C   0  0  0  0  0  0  0  0  0  0  0  0
   -1.1555    0.4590   -1.3452 C   0  0  0  0  0  0  0  0  0  0  0  0
    0.9521    1.8079   -1.6829 C   0  0  0  0  0  0  0  0  0  0  0  0
    0.5478    2.7891   -0.7241 N   0  0  0  0  0  0  0  0  0  0  0  0
    1.0529    4.0767   -1.1479 C   0  0  0  0  0  0  0  0  0  0  0  0
    0.3116    4.8528   -2.1615 C   0  0  0  0  0  0  0  0  0  0  0  0
   -1.0862    4.9254   -1.8275 N   0  0  0  0  0  0  0  0  0  0  0  0
   -1.8091    4.8714   -0.6307 C   0  0  0  0  0  0  0  0  0  0  0  0
   -1.3625    4.8126    1.1404 S   0  0  0  0  0  0  0  0  0  0  0  0
    0.4102    4.8602    1.6498 C   0  0  0  0  0  0  0  0  0  0  0  0
    1.1282    6.0655    1.5565 C   0  0  0  0  0  0  0  0  0  0  0  0
    2.5249    6.0904    1.6478 C   0  0  0  0  0  0  0  0  0  0  0  0
    3.2476    7.2057    1.2573 O   0  0  0  0  0  0  0  0  0  0  0  0
    3.3804    6.7901   -0.0936 C   0  0  0  0  0  0  0  0  0  0  0  0
    3.6466    5.3402   -0.0949 O   0  0  0  0  0  0  0  0  0  0  0  0
    3.1328    4.9599    1.1852 C   0  0  0  0  0  0  0  0  0  0  0  0
    2.5791    3.7227    1.5330 C   0  0  0  0  0  0  0  0  0  0  0  0
    1.2098    3.7259    1.9396 C   0  0  0  0  0  0  0  0  0  0  0  0
    0.4078    2.1193    3.0064 I   0  0  0  0  0  0  0  0  0  0  0  0
   -3.1093    4.8141   -0.9428 N   0  0  0  0  0  0  0  0  0  0  0  0
   -3.2123    4.9139   -2.3331 C   0  0  0  0  0  0  0  0  0  0  0  0
   -4.2924    4.9699   -3.2441 C   0  0  0  0  0  0  0  0  0  0  0  0
   -5.6084    4.9146   -2.8747 N   0  0  0  0  0  0  0  0  0  0  0  0
   -4.0185    5.1068   -4.5723 N   0  0  0  0  0  0  0  0  0  0  0  0
   -2.7355    5.1679   -4.9636 C   0  0  0  0  0  0  0  0  0  0  0  0
   -1.6417    5.1100   -4.1959 N   0  0  0  0  0  0  0  0  0  0  0  0
   -1.9712    4.9911   -2.8810 C   0  0  0  0  0  0  0  0  0  0  0  0
  1  2  1  0
  2  3  1  0
  2  4  1  0
  2  5  1  0
  5  6  1  0
  6  7  1  0
  7  8  1  0
  8  9  1  0
  9 10  1  0
  9 29  1  0
 10 11  1  0
 10 22  2  0
 11 12  1  0
 12 13  2  0
 12 20  1  0
 13 14  1  0
 14 15  1  0
 14 18  2  0
 15 16  1  0
 16 17  1  0
 17 18  1  0
 18 19  1  0
 19 20  2  0
 20 21  1  0
 22 23  1  0
 23 24  1  0
 23 29  2  0
 24 25  1  0
 24 26  2  0
 26 27  1  0
 27 28  2  0
 28 29  1  0
M  END
>  <DRUGBANK_ID>  (1) 
DB18106

>  <COMMON_NAME>  (1) 
Icapamespib

>  <CAS_NUMBER>  (1) 
1000999-96-1

>  <UNII>  (1) 
447591A1PU

>  <SYNONYMS>  (1) 
9h-purine-9-ethanamine, 6-amino-n-(2,2-dimethylpropyl)-8-((6-iodo-1,3-benzodioxol-5-yl)thio)-

$$$$
