
     RDKit          3D

 31 32  0  0  0  0  0  0  0  0999 V2000
    4.4496    2.9324   -6.1706 Cl  0  0  0  0  0  0  0  0  0  0  0  0
    5.1918    7.0676   -1.0844 O   0  0  0  0  0  0  0  0  0  0  0  0
    8.0686    3.9695    1.2657 O   0  0  0  0  0  0  0  0  0  0  0  0
    6.9096    4.6560   -6.1828 O   0  0  0  0  0  0  0  0  0  0  0  0
    8.1887    5.6806   -0.2239 N   0  0  0  0  0  0  0  0  0  0  0  0
    5.7313    6.0959   -2.9455 N   0  0  0  0  0  0  0  0  0  0  0  0
    5.7910    5.0492    2.3937 N   0  0  0  0  0  0  0  0  0  0  0  0
    8.4578    9.0510   -5.0499 N   0  0  0  0  0  0  0  0  0  0  0  0
    6.4076    9.0640   -3.8078 N   0  0  0  0  0  0  0  0  0  0  0  0
    7.9739   10.4488   -3.2834 N   0  0  0  0  0  0  0  0  0  0  0  0
    7.6164    6.7610   -1.0519 C   0  0  1  0  0  0  0  0  0  0  0  0
    8.6653    6.6867   -2.0678 C   0  0  0  0  0  0  0  0  0  0  0  0
   10.0207    6.2574   -1.7153 C   0  0  0  0  0  0  0  0  0  0  0  0
    9.6607    5.4718   -0.4871 C   0  0  0  0  0  0  0  0  0  0  0  0
    6.1468    6.6634   -1.7627 C   0  0  0  0  0  0  0  0  0  0  0  0
    7.5237    4.8677    0.6583 C   0  0  0  0  0  0  0  0  0  0  0  0
    6.3068    5.9627   -4.3485 C   0  0  1  0  0  0  0  0  0  0  0  0
    6.0407    5.1531    0.9222 C   0  0  1  0  0  0  0  0  0  0  0  0
    7.7707    6.1805   -4.3590 C   0  0  0  0  0  0  0  0  0  0  0  0
    6.1163    4.6183   -4.9898 C   0  0  1  0  0  0  0  0  0  0  0  0
    5.1012    4.1944    0.1587 C   0  0  0  0  0  0  0  0  0  0  0  0
    8.8013    6.6359   -5.3236 C   0  0  0  0  0  0  0  0  0  0  0  0
    4.6676    4.4843   -5.3590 C   0  0  0  0  0  0  0  0  0  0  0  0
    3.6347    4.4551    0.4591 C   0  0  0  0  0  0  0  0  0  0  0  0
    8.3033    7.9086   -5.9666 C   0  0  0  0  0  0  0  0  0  0  0  0
    2.7677    3.3810    0.6798 C   0  0  0  0  0  0  0  0  0  0  0  0
    3.1186    5.7556    0.5964 C   0  0  0  0  0  0  0  0  0  0  0  0
    1.4515    3.6133    1.0905 C   0  0  0  0  0  0  0  0  0  0  0  0
    1.8246    5.9867    1.0455 C   0  0  0  0  0  0  0  0  0  0  0  0
    0.9834    4.9131    1.2789 C   0  0  0  0  0  0  0  0  0  0  0  0
    7.6422    9.4720   -4.1521 C   0  0  0  0  0  0  0  0  0  0  0  0
  1 23  1  0
  2 15  2  0
  3 16  2  0
  5 11  1  0
  5 14  1  0
  5 16  1  0
  6 15  1  0
  8 25  1  0
  8 31  2  3
  9 31  1  0
 10 31  1  0
 11 12  1  0
 11 15  1  6
 12 13  1  0
 13 14  1  0
 17  6  1  0
 17 19  1  1
 17 20  1  0
 18 21  1  0
 18 16  1  0
 18  7  1  1
 19 22  1  0
 20  4  1  6
 20 23  1  0
 21 24  1  0
 22 25  1  0
 24 26  2  0
 24 27  1  0
 26 28  1  0
 27 29  2  0
 28 30  2  0
 29 30  1  0
M  CHG  1   7   1
M  END
>  <DRUGBANK_ID>  (1) 
DB06841

>  <COMMON_NAME>  (1) 
[(2R)-1-[(2S)-2-[[(2S,3S)-1-Chloro-6-(diaminomethylideneamino)-2-hydroxyhexan-3-yl]carbamoyl]pyrrolidin-1-yl]-1-oxo-3-phenylpropan-2-yl]azanium

$$$$
