
     RDKit          3D

 30 33  0  0  1  0  0  0  0  0999 V2000
    0.9847    0.7193    2.5499 C   0  0  0  0  0  0  0  0  0  0  0  0
    0.4352   -0.1014    1.3817 C   0  0  2  0  0  0  0  0  0  0  0  0
    1.1530    0.2319    0.0652 C   0  0  0  0  0  0  0  0  0  0  0  0
    1.8022   -0.7481   -0.7107 C   0  0  0  0  0  0  0  0  0  0  0  0
    2.1657   -0.4433   -2.0235 C   0  0  0  0  0  0  0  0  0  0  0  0
    1.8655    0.7204   -2.6384 N   0  0  0  0  0  0  0  0  0  0  0  0
    1.3764    1.6867   -1.8408 C   0  0  0  0  0  0  0  0  0  0  0  0
    1.1601    1.5326   -0.4767 C   0  0  0  0  0  0  0  0  0  0  0  0
    0.8901    2.9900    0.4223 Cl  0  0  0  0  0  0  0  0  0  0  0  0
    2.2913   -2.2844   -0.0935 Cl  0  0  0  0  0  0  0  0  0  0  0  0
   -1.0514   -0.1614    1.3991 O   0  0  0  0  0  0  0  0  0  0  0  0
   -1.7953    0.9352    1.0184 C   0  0  0  0  0  0  0  0  0  0  0  0
   -1.7241    1.4289   -0.2563 C   0  0  0  0  0  0  0  0  0  0  0  0
   -2.2341    2.6973   -0.5556 C   0  0  0  0  0  0  0  0  0  0  0  0
   -3.1221    3.3149    0.3391 C   0  0  0  0  0  0  0  0  0  0  0  0
   -3.4767    2.7644    1.5570 C   0  0  0  0  0  0  0  0  0  0  0  0
   -2.7336    1.5398    1.8889 C   0  0  0  0  0  0  0  0  0  0  0  0
   -4.6200    3.6930    2.0504 C   0  0  0  0  0  0  0  0  0  0  0  0
   -4.7664    4.7112    1.1871 N   0  0  0  0  0  0  0  0  0  0  0  0
   -3.8416    4.4724    0.2288 N   0  0  0  0  0  0  0  0  0  0  0  0
   -5.4408    3.3839    3.2234 C   0  0  0  0  0  0  0  0  0  0  0  0
   -6.5861    3.3961    3.9769 C   0  0  0  0  0  0  0  0  0  0  0  0
   -6.9543    2.3832    5.2074 C   0  0  0  0  0  0  0  0  0  0  0  0
   -7.2568    0.8154    5.5541 C   0  0  0  0  0  0  0  0  0  0  0  0
   -6.1233    0.1189    5.8630 N   0  0  0  0  0  0  0  0  0  0  0  0
   -5.3047    1.0568    5.4423 N   0  0  0  0  0  0  0  0  0  0  0  0
   -5.8416    2.2829    6.0365 C   0  0  0  0  0  0  0  0  0  0  0  0
   -4.8873    0.7859    4.0628 C   0  0  0  0  0  0  0  0  0  0  0  0
   -5.9529    0.7280    2.7194 C   0  0  0  0  0  0  0  0  0  0  0  0
   -7.1081    1.5330    2.3802 O   0  0  0  0  0  0  0  0  0  0  0  0
  2 11  1  0
  2  3  1  0
  2  1  1  1
  3  4  2  0
  3  8  1  0
  4  5  1  0
  4 10  1  0
  5  6  2  0
  6  7  1  0
  7  8  2  0
  8  9  1  0
 11 12  1  0
 12 13  2  0
 12 17  1  0
 13 14  1  0
 14 15  2  0
 15 16  1  0
 15 20  1  0
 16 17  2  0
 16 18  1  0
 18 19  2  0
 18 21  1  0
 19 20  1  0
 21 22  2  0
 22 23  1  0
 23 24  1  0
 23 27  2  0
 24 25  2  0
 25 26  1  0
 26 27  1  0
 26 28  1  0
 28 29  1  0
 29 30  1  0
M  END
>  <DRUGBANK_ID>  (1) 
DB13022

>  <COMMON_NAME>  (1) 
LY-2874455

>  <CAS_NUMBER>  (1) 
1254473-64-7

>  <UNII>  (1) 
E9M363811V

$$$$
