
     RDKit          3D

 15 15  0  0  1  0  0  0  0  0999 V2000
    0.8252   -0.0772   -0.3178 N   0  0  0  0  0  0  0  0  0  0  0  0
    0.3634   -1.4133    0.0973 C   0  0  1  0  0  0  0  0  0  0  0  0
    0.9186   -1.9735    1.4425 C   0  0  0  0  0  0  0  0  0  0  0  0
    0.5323   -1.2141    2.7023 C   0  0  0  0  0  0  0  0  0  0  0  0
   -0.2454   -1.8383    3.7030 C   0  0  0  0  0  0  0  0  0  0  0  0
   -0.8071   -1.0940    4.7542 C   0  0  0  0  0  0  0  0  0  0  0  0
   -1.5150   -1.7232    5.7944 N   0  0  0  0  0  0  0  0  0  0  0  0
   -0.4603    0.2585    4.8786 C   0  0  0  0  0  0  0  0  0  0  0  0
   -1.0052    0.9920    5.9015 O   0  0  0  0  0  0  0  0  0  0  0  0
    0.4083    0.8605    3.9843 C   0  0  0  0  0  0  0  0  0  0  0  0
    0.8811    0.1279    2.9066 C   0  0  0  0  0  0  0  0  0  0  0  0
    1.7011    0.8250    2.0683 O   0  0  0  0  0  0  0  0  0  0  0  0
   -1.1807   -1.3886    0.1253 C   0  0  0  0  0  0  0  0  0  0  0  0
   -1.7661   -2.0676   -0.8905 O   0  0  0  0  0  0  0  0  0  0  0  0
   -1.8442   -0.7795    0.9463 O   0  0  0  0  0  0  0  0  0  0  0  0
  2  1  1  1
  2  3  1  0
  2 13  1  0
  3  4  1  0
  4  5  2  0
  4 11  1  0
  5  6  1  0
  6  7  1  0
  6  8  2  0
  8  9  1  0
  8 10  1  0
 10 11  2  0
 11 12  1  0
 13 14  1  0
 13 15  2  0
M  END
>  <DRUGBANK_ID>  (1) 
DB02928

>  <SECONDARY_ACCESSION_NUMBERS>  (1) 
EXPT03140

>  <COMMON_NAME>  (1) 
3-Amino-6-Hydroxy-Tyrosine

$$$$
