
     RDKit          3D

 30 33  0  0  0  0  0  0  0  0999 V2000
    2.1894    0.0421    0.0034 F   0  0  0  0  0  0  0  0  0  0  0  0
    0.8510   -0.0124   -0.0106 C   0  0  0  0  0  0  0  0  0  0  0  0
    0.2162   -1.2441   -0.0011 C   0  0  0  0  0  0  0  0  0  0  0  0
   -1.1738   -1.2875   -0.0012 C   0  0  0  0  0  0  0  0  0  0  0  0
   -1.8703   -0.0881   -0.0149 C   0  0  0  0  0  0  0  0  0  0  0  0
   -1.2743    1.1264   -0.0272 N   0  0  0  0  0  0  0  0  0  0  0  0
    0.0896    1.1486   -0.0277 C   0  0  0  0  0  0  0  0  0  0  0  0
    0.7857    2.4821    0.0452 C   0  0  0  0  0  0  0  0  0  0  0  0
    0.4392    3.3586   -1.0532 N   0  0  0  0  0  0  0  0  0  0  0  0
   -0.2611    4.5269   -0.9599 C   0  0  0  0  0  0  0  0  0  0  0  0
   -0.6430    5.0665   -2.0060 O   0  0  0  0  0  0  0  0  0  0  0  0
   -0.5342    5.0723    0.3640 C   0  0  0  0  0  0  0  0  0  0  0  0
   -1.7048    5.6714    0.7698 C   0  0  0  0  0  0  0  0  0  0  0  0
   -1.5600    6.0811    2.0563 O   0  0  0  0  0  0  0  0  0  0  0  0
   -0.2786    5.7241    2.3789 C   0  0  0  0  0  0  0  0  0  0  0  0
    0.1923    6.0529    3.7508 C   0  0  0  0  0  0  0  0  0  0  0  0
    0.3234    7.5546    3.9903 C   0  0  0  0  0  0  0  0  0  0  0  0
   -0.9797    8.2364    3.9649 N   0  0  0  0  0  0  0  0  0  0  0  0
   -0.8396    9.6933    4.0708 C   0  0  0  0  0  0  0  0  0  0  0  0
    0.0293   10.3400    2.9786 C   0  0  0  0  0  0  0  0  0  0  0  0
   -0.4915   10.0362    1.6131 C   0  0  0  0  0  0  0  0  0  0  0  0
   -0.5623    8.8473    1.0496 N   0  0  0  0  0  0  0  0  0  0  0  0
   -1.1233    9.0536   -0.1831 C   0  0  0  0  0  0  0  0  0  0  0  0
   -1.4119    8.1570   -1.2149 C   0  0  0  0  0  0  0  0  0  0  0  0
   -1.9997    8.5949   -2.3954 C   0  0  0  0  0  0  0  0  0  0  0  0
   -2.2718    9.9454   -2.5627 C   0  0  0  0  0  0  0  0  0  0  0  0
   -1.9783   10.8797   -1.5575 C   0  0  0  0  0  0  0  0  0  0  0  0
   -1.4087   10.3942   -0.3789 C   0  0  0  0  0  0  0  0  0  0  0  0
   -0.9861   11.0006    0.7741 N   0  0  0  0  0  0  0  0  0  0  0  0
    0.3735    5.1062    1.4145 N   0  0  0  0  0  0  0  0  0  0  0  0
  1  2  1  0
  2  3  2  0
  2  7  1  0
  3  4  1  0
  4  5  2  0
  5  6  1  0
  6  7  2  0
  7  8  1  0
  8  9  1  0
  9 10  1  0
 10 11  2  0
 10 12  1  0
 12 13  2  0
 12 30  1  0
 13 14  1  0
 14 15  1  0
 15 16  1  0
 15 30  2  0
 16 17  1  0
 17 18  1  0
 18 19  1  0
 19 20  1  0
 20 21  1  0
 21 22  2  0
 21 29  1  0
 22 23  1  0
 23 24  2  0
 23 28  1  0
 24 25  1  0
 25 26  2  0
 26 27  1  0
 27 28  2  0
 28 29  1  0
M  END
>  <DRUGBANK_ID>  (1) 
DB17692

>  <COMMON_NAME>  (1) 
Vamifeport

>  <CAS_NUMBER>  (1) 
2095668-10-1

>  <UNII>  (1) 
FUF66UD0KR

>  <SYNONYMS>  (1) 
2-(2-((2-(1h-benzimidazol-2-yl)ethyl)amino)ethyl)-n-((3-fluoropyridin-2-yl)methyl)-1,3-oxazole-4-carboxamide; 4-oxazolecarboxamide, 2-(2-((2-(1h-benzimidazol-2-yl)ethyl)amino)ethyl)-n-((3-fluoro-2-pyridinyl)methyl)-

$$$$
