
     RDKit          3D

 30 33  0  0  0  0  0  0  0  0999 V2000
    0.9210   -0.0199    0.2980 C   0  0  0  0  0  0  0  0  0  0  0  0
    0.5168    1.4192    0.0798 C   0  0  0  0  0  0  0  0  0  0  0  0
    1.0775    2.0464   -1.2176 C   0  0  0  0  0  0  0  0  0  0  0  0
    0.6809    1.4083   -2.4845 N   0  0  0  0  0  0  0  0  0  0  0  0
    0.9530    0.0870   -2.7674 C   0  0  0  0  0  0  0  0  0  0  0  0
    0.3973   -0.5493   -3.8258 C   0  0  0  0  0  0  0  0  0  0  0  0
   -0.3668    0.1102   -4.7909 C   0  0  0  0  0  0  0  0  0  0  0  0
   -0.9881   -0.5298   -5.6507 O   0  0  0  0  0  0  0  0  0  0  0  0
   -0.3092    1.4978   -4.6753 N   0  0  0  0  0  0  0  0  0  0  0  0
    0.0729    2.1773   -3.4923 C   0  0  0  0  0  0  0  0  0  0  0  0
   -0.1242    3.3871   -3.3519 O   0  0  0  0  0  0  0  0  0  0  0  0
   -0.8157    2.2888   -5.7943 C   0  0  0  0  0  0  0  0  0  0  0  0
    0.1138    2.2626   -7.0247 C   0  0  0  0  0  0  0  0  0  0  0  0
    0.3262    0.8773   -7.6170 C   0  0  0  0  0  0  0  0  0  0  0  0
    0.7109   -1.8681   -3.6925 N   0  0  0  0  0  0  0  0  0  0  0  0
    1.3817   -1.9864   -2.4975 C   0  0  0  0  0  0  0  0  0  0  0  0
    1.7008   -0.7840   -2.0564 N   0  0  0  0  0  0  0  0  0  0  0  0
    1.7535   -3.2722   -1.8231 C   0  0  0  0  0  0  0  0  0  0  0  0
    0.8409   -3.6136   -0.6055 C   0  0  0  0  0  0  0  0  0  0  0  0
    1.3202   -4.8894    0.1039 C   0  0  0  0  0  0  0  0  0  0  0  0
    2.5440   -5.4917   -0.6243 C   0  0  0  0  0  0  0  0  0  0  0  0
    3.6758   -4.4533   -0.5971 C   0  0  0  0  0  0  0  0  0  0  0  0
    3.2087   -3.1673   -1.3015 C   0  0  0  0  0  0  0  0  0  0  0  0
    2.1966   -5.6716   -2.1002 C   0  0  0  0  0  0  0  0  0  0  0  0
    1.7015   -4.4372   -2.8041 C   0  0  0  0  0  0  0  0  0  0  0  0
    2.9286   -6.8575   -0.0116 C   0  0  0  0  0  0  0  0  0  0  0  0
    1.8066   -7.9327   -0.0097 C   0  0  0  0  0  0  0  0  0  0  0  0
    1.3669   -8.5363   -1.3399 C   0  0  0  0  0  0  0  0  0  0  0  0
    1.8932   -9.4874   -1.8935 O   0  0  0  0  0  0  0  0  0  0  0  0
    0.3550   -7.8877   -1.9548 O   0  0  0  0  0  0  0  0  0  0  0  0
  1  2  1  0
  2  3  1  0
  3  4  1  0
  4  5  1  0
  4 10  1  0
  5  6  2  0
  5 17  1  0
  6  7  1  0
  6 15  1  0
  7  8  2  0
  7  9  1  0
  9 10  1  0
  9 12  1  0
 10 11  2  0
 12 13  1  0
 13 14  1  0
 15 16  1  0
 16 17  2  0
 16 18  1  0
 18 19  1  0
 18 23  1  0
 18 25  1  0
 19 20  1  0
 20 21  1  0
 21 22  1  0
 21 24  1  0
 21 26  1  0
 22 23  1  0
 24 25  1  0
 26 27  1  0
 27 28  1  0
 28 29  2  0
 28 30  1  0
M  END
>  <DRUGBANK_ID>  (1) 
DB12569

>  <SECONDARY_ACCESSION_NUMBERS>  (1) 
DB05640

>  <COMMON_NAME>  (1) 
Tonapofylline

>  <CAS_NUMBER>  (1) 
340021-17-2

>  <UNII>  (1) 
83VNU4U44T

>  <SYNONYMS>  (1) 
Tonapofylline

$$$$
