
     RDKit          3D

  1  0  0  0  0  0  0  0  0  0999 V2000
    0.9716   -0.0567   -0.0773 Sr  0  0  0  0  0 15  0  0  0  0  0  0
M  CHG  1   1   2
M  ISO  1   1  89
M  END
>  <DRUGBANK_ID>  (1) 
DB14536

>  <COMMON_NAME>  (1) 
Strontium cation Sr-89

>  <UNII>  (1) 
06A33308KH

>  <SYNONYMS>  (1) 
Strontium (89Sr) cation; Strontium Sr-89 cation; Strontium-89

$$$$
