
     RDKit          3D

 41 40  0  0  0  0  0  0  0  0999 V2000
   -1.6424   -7.1571   -1.5371 N   0  0  0  0  0  0  0  0  0  0  0  0
   -1.7821   -6.4239   -2.9105 C   0  0  2  0  0  0  0  0  0  0  0  0
   -3.2759   -5.8345   -3.1813 C   0  0  0  0  0  0  0  0  0  0  0  0
   -3.5923   -4.5542   -2.6842 O   0  0  0  0  0  0  0  0  0  0  0  0
   -3.4298   -4.3496   -1.3463 C   0  0  0  0  0  0  0  0  0  0  0  0
   -4.4956   -5.1707   -0.7172 C   0  0  0  0  0  0  0  0  0  0  0  0
   -3.6836   -5.5994   -4.5230 O   0  0  0  0  0  0  0  0  0  0  0  0
   -2.9344   -4.5344   -5.1041 C   0  0  0  0  0  0  0  0  0  0  0  0
   -2.7644   -3.1238   -4.5713 C   0  0  0  0  0  0  0  0  0  0  0  0
   -1.2493   -7.4219   -3.9324 C   0  0  0  0  0  0  0  0  0  0  0  0
   -1.1811   -6.9158   -5.3608 C   0  0  0  0  0  0  0  0  0  0  0  0
   -0.2781   -5.6762   -5.5382 C   0  0  0  0  0  0  0  0  0  0  0  0
    1.0799   -6.0711   -5.4997 N   0  0  0  0  0  0  0  0  0  0  0  0
    1.9795   -5.7900   -6.4457 C   0  0  0  0  0  0  0  0  0  0  0  0
    3.2169   -6.0777   -6.2727 N   0  0  0  0  0  0  0  0  0  0  0  0
    1.5442   -5.2139   -7.5714 N   0  0  0  0  0  0  0  0  0  0  0  0
   -0.9943   -6.5598   -0.5212 C   0  0  0  0  0  0  0  0  0  0  0  0
   -1.0269   -6.9814    1.1440 C   0  0  1  0  0  0  0  0  0  0  0  0
    0.1101   -6.6102    2.0257 N   0  0  0  0  0  0  0  0  0  0  0  0
    0.2120   -5.6982    3.0997 C   0  0  0  0  0  0  0  0  0  0  0  0
    1.3792   -5.6007    3.5077 O   0  0  0  0  0  0  0  0  0  0  0  0
   -0.9725   -4.7504    3.6994 C   0  0  0  0  0  0  0  0  0  0  0  0
   -1.9191   -3.6657    2.9410 C   0  0  0  0  0  0  0  0  0  0  0  0
   -2.1472   -3.7755    1.5203 C   0  0  0  0  0  0  0  0  0  0  0  0
   -3.2854   -3.5023    1.0636 O   0  0  0  0  0  0  0  0  0  0  0  0
   -1.1246   -4.1398    0.7452 N   0  0  0  0  0  0  0  0  0  0  0  0
    0.3676   -4.0035    0.8899 C   0  0  2  0  0  0  0  0  0  0  0  0
    0.5032   -2.7078    1.6879 C   0  0  0  0  0  0  0  0  0  0  0  0
    0.5642   -2.4268    3.2522 C   0  0  0  0  0  0  0  0  0  0  0  0
    1.6084   -2.8648    3.8012 O   0  0  0  0  0  0  0  0  0  0  0  0
   -0.3595   -1.7644    3.7946 O   0  0  0  0  0  0  0  0  0  0  0  0
    1.3372   -4.4526   -0.3874 C   0  0  0  0  0  0  0  0  0  0  0  0
    2.8353   -4.4755   -0.1592 N   0  0  0  0  0  0  0  0  0  0  0  0
    3.2970   -5.6336    0.7310 C   0  0  0  0  0  0  0  0  0  0  0  0
    3.5173   -4.5807   -1.4992 C   0  0  0  0  0  0  0  0  0  0  0  0
    3.1523   -3.1883    0.4905 C   0  0  0  0  0  0  0  0  0  0  0  0
   -2.1998   -6.6888    2.0956 C   0  0  0  0  0  0  0  0  0  0  0  0
   -3.5827   -6.7999    1.6333 C   0  0  0  0  0  0  0  0  0  0  0  0
   -3.8221   -8.2541    1.5617 C   0  0  0  0  0  0  0  0  0  0  0  0
   -4.6268   -5.9699    2.4457 C   0  0  0  0  0  0  0  0  0  0  0  0
   -0.5339   -5.5181   -0.9772 O   0  0  0  0  0  0  0  0  0  0  0  0
  1 17  1  0
  2 10  1  6
  2  3  1  0
  2  1  1  0
  3  4  1  0
  3  7  1  0
  4  5  1  0
  5  6  1  0
  7  8  1  0
  8  9  1  0
 11 10  1  0
 11 12  1  0
 12 13  1  0
 13 14  1  0
 14 15  2  0
 14 16  1  0
 17 18  1  0
 18 19  1  0
 18 37  1  1
 20 19  1  0
 20 21  2  0
 22 20  1  0
 23 22  1  0
 24 23  1  0
 24 25  2  0
 26 24  1  0
 27 28  1  6
 27 26  1  0
 28 29  1  0
 29 30  1  0
 29 31  2  0
 32 27  1  0
 33 32  1  0
 33 34  1  0
 33 35  1  0
 36 33  1  0
 37 38  1  0
 38 40  1  0
 39 38  1  0
 41 17  2  0
M  CHG  2  30  -1  33   1
M  END
>  <DRUGBANK_ID>  (1) 
DB06124

>  <COMMON_NAME>  (1) 
L-aminocarnityl-succinyl-leucyl-argininal-diethylacetal

>  <CAS_NUMBER>  (1) 
1006685-44-4

>  <UNII>  (1) 
BK727F83NO

$$$$
