
     RDKit          3D

 23 24  0  0  0  0  0  0  0  0999 V2000
    0.2592    1.0708    0.3330 C   0  0  0  0  0  0  0  0  0  0  0  0
    0.5945    2.4841    0.1224 C   0  0  0  0  0  0  0  0  0  0  0  0
    1.1527    0.0904    0.7691 N   0  0  0  0  0  0  0  0  0  0  0  0
   -1.0036    0.6206    0.2641 N   0  0  0  0  0  0  0  0  0  0  0  0
    1.3078    3.0070   -0.9746 C   0  0  0  0  0  0  0  0  0  0  0  0
    0.1002    3.3836    1.0760 C   0  0  0  0  0  0  0  0  0  0  0  0
    0.4148   -0.9718    0.9034 C   0  0  0  0  0  0  0  0  0  0  0  0
   -0.9184   -0.7280    0.6495 O   0  0  0  0  0  0  0  0  0  0  0  0
    1.5273    4.3975   -1.0831 C   0  0  0  0  0  0  0  0  0  0  0  0
    0.2869    4.7610    0.9486 C   0  0  0  0  0  0  0  0  0  0  0  0
    0.8632   -2.2897    0.9249 N   0  0  0  0  0  0  0  0  0  0  0  0
    1.0191    5.2695   -0.1182 C   0  0  0  0  0  0  0  0  0  0  0  0
    0.1248   -3.5122    0.4517 C   0  0  0  0  0  0  0  0  0  0  0  0
    0.5546   -4.4308   -0.8229 C   0  0  0  0  0  0  0  0  0  0  0  0
    1.9584   -4.7814   -1.1236 N   0  0  0  0  0  0  0  0  0  0  0  0
    2.1970   -5.5482   -2.4132 C   0  0  0  0  0  0  0  0  0  0  0  0
    2.8000   -3.6011   -1.0152 C   0  0  0  0  0  0  0  0  0  0  0  0
    2.0976   -4.9106   -3.8821 C   0  0  0  0  0  0  0  0  0  0  0  0
    2.3991   -2.4834   -1.9930 C   0  0  0  0  0  0  0  0  0  0  0  0
    3.1720   -3.8691   -4.4388 C   0  0  0  0  0  0  0  0  0  0  0  0
    1.1328   -2.0070   -2.7765 C   0  0  0  0  0  0  0  0  0  0  0  0
    4.5953   -4.2011   -4.0456 C   0  0  0  0  0  0  0  0  0  0  0  0
    0.4933   -1.0207   -1.9267 C   0  0  0  0  0  0  0  0  0  0  0  0
  1  2  1  0
  1  3  1  0
  1  4  2  0
  2  5  2  0
  2  6  1  0
  3  7  2  0
  4  8  1  0
  5  9  1  0
  6 10  2  0
  7 11  1  0
  7  8  1  0
  9 12  2  0
 10 12  1  0
 11 13  1  0
 13 14  1  0
 14 15  1  0
 15 16  1  0
 15 17  1  0
 16 18  1  0
 17 19  1  0
 18 20  1  0
 19 21  1  0
 20 22  1  0
 21 23  1  0
M  END
>  <DRUGBANK_ID>  (1) 
DB13681

>  <COMMON_NAME>  (1) 
Butalamine

>  <CAS_NUMBER>  (1) 
22131-35-7

>  <UNII>  (1) 
140T9JTG43

>  <SYNONYMS>  (1) 
Butalamina; Butalamine; Butalaminum

$$$$
