
     RDKit          3D

 19 18  0  0  0  0  0  0  0  0999 V2000
    1.1196   -0.0942    0.0147 N   0  0  0  0  0  0  0  0  0  0  0  0
    0.6078    1.1814    0.7225 C   0  0  0  0  0  0  0  0  0  0  0  0
    0.6523   -0.1571   -1.4410 C   0  0  0  0  0  0  0  0  0  0  0  0
    0.5629   -1.2293    0.8811 C   0  0  0  0  0  0  0  0  0  0  0  0
    2.6344   -0.1211    0.0463 C   0  0  0  0  0  0  0  0  0  0  0  0
    1.0848    2.4920    0.0993 C   0  0  0  0  0  0  0  0  0  0  0  0
    1.1107   -1.3295   -2.2897 C   0  0  0  0  0  0  0  0  0  0  0  0
    0.5066    2.8371   -1.2719 C   0  0  0  0  0  0  0  0  0  0  0  0
    0.4843   -2.6373   -1.8734 C   0  0  0  0  0  0  0  0  0  0  0  0
   -1.0185    2.7050   -1.2895 C   0  0  0  0  0  0  0  0  0  0  0  0
   -1.0412   -2.5097   -1.8130 C   0  0  0  0  0  0  0  0  0  0  0  0
   -1.6207    3.8365   -0.4666 C   0  0  0  0  0  0  0  0  0  0  0  0
   -1.6097   -2.3083   -3.2192 C   0  0  0  0  0  0  0  0  0  0  0  0
   -1.2141    5.1950   -1.0467 C   0  0  0  0  0  0  0  0  0  0  0  0
   -1.2034   -3.4715   -4.1293 C   0  0  0  0  0  0  0  0  0  0  0  0
   -1.6239    5.3268   -2.5159 C   0  0  0  0  0  0  0  0  0  0  0  0
   -1.6229   -4.8173   -3.5305 C   0  0  0  0  0  0  0  0  0  0  0  0
   -3.1353    5.2496   -2.6396 C   0  0  0  0  0  0  0  0  0  0  0  0
   -3.1350   -4.8800   -3.3992 C   0  0  0  0  0  0  0  0  0  0  0  0
  1  2  1  0
  1  3  1  0
  1  4  1  0
  1  5  1  0
  2  6  1  0
  3  7  1  0
  6  8  1  0
  7  9  1  0
  8 10  1  0
  9 11  1  0
 10 12  1  0
 11 13  1  0
 12 14  1  0
 13 15  1  0
 14 16  1  0
 15 17  1  0
 16 18  1  0
 17 19  1  0
M  CHG  1   1   1
M  END
>  <DRUGBANK_ID>  (1) 
DB13970

>  <COMMON_NAME>  (1) 
Dioctyldimonium

>  <CAS_NUMBER>  (1) 
20256-55-7

>  <UNII>  (1) 
3535D7RPGW

>  <SYNONYMS>  (1) 
Dimethyldioctylammonium; Dioctyldimonium cation; Dioctyldimonium ion

$$$$
