D9Z
     RDKit          3D

 16 17  0  0  0  0  0  0  0  0999 V2000
    1.0218   -0.0449   -0.1404 O   0  0  0  0  0  0  0  0  0  0  0  0
    2.4636   -0.0503   -0.0047 S   0  0  0  0  0  0  0  0  0  0  0  0
    3.1112   -0.3927    1.2397 O   0  0  0  0  0  0  0  0  0  0  0  0
    3.0423   -1.1685   -1.1368 N   0  0  0  0  0  0  0  0  0  0  0  0
    3.0441    1.5552   -0.4526 C   0  0  0  0  0  0  0  0  0  0  0  0
    2.2084    2.9400    0.0900 S   0  0  0  0  0  0  0  0  0  0  0  0
    4.0972    1.7961   -1.2067 N   0  0  0  0  0  0  0  0  0  0  0  0
    4.2772    3.1553   -1.4017 N   0  0  0  0  0  0  0  0  0  0  0  0
    3.3890    3.8848   -0.7495 C   0  0  0  0  0  0  0  0  0  0  0  0
    3.3448    5.3544   -0.7576 C   0  0  0  0  0  0  0  0  0  0  0  0
    3.2110    6.0282   -1.9890 C   0  0  0  0  0  0  0  0  0  0  0  0
    3.4989    6.1328    0.4032 C   0  0  0  0  0  0  0  0  0  0  0  0
    3.5081    7.5334    0.3318 C   0  0  0  0  0  0  0  0  0  0  0  0
    3.3596    8.1806   -0.8930 C   0  0  0  0  0  0  0  0  0  0  0  0
    3.2083    7.4283   -2.0537 C   0  0  0  0  0  0  0  0  0  0  0  0
    3.7319    5.4365    1.9706 Cl  0  0  0  0  0  0  0  0  0  0  0  0
  1  2  2  0
  2  3  2  0
  2  4  1  0
  2  5  1  0
  5  6  1  0
  5  7  2  0
  6  9  1  0
  7  8  1  0
  8  9  2  0
  9 10  1  0
 10 11  2  0
 10 12  1  0
 11 15  1  0
 12 13  2  0
 12 16  1  0
 13 14  1  0
 14 15  2  0
M  END
>  <DRUGBANK_ID>  (1) 
DB07632

>  <COMMON_NAME>  (1) 
5-(2-chlorophenyl)-1,3,4-thiadiazole-2-sulfonamide

>  <UNII>  (1) 
J1RC4Y1VF0

$$$$
