
     RDKit          3D

 22 23  0  0  1  0  0  0  0  0999 V2000
    1.4279    0.0497    0.0011 C   0  0  0  0  0  0  0  0  0  0  0  0
    0.6921    1.2261    0.0078 C   0  0  0  0  0  0  0  0  0  0  0  0
    0.7574   -1.1701   -0.0087 C   0  0  0  0  0  0  0  0  0  0  0  0
   -0.6882    1.1302    0.0073 C   0  0  0  0  0  0  0  0  0  0  0  0
   -4.8786   -5.7793   -2.1103 C   0  0  0  0  0  0  0  0  0  0  0  0
   -4.3781   -3.8775   -0.6253 C   0  0  0  0  0  0  0  0  0  0  0  0
   -3.5183   -5.9747    1.1321 C   0  0  0  0  0  0  0  0  0  0  0  0
   -5.1220   -5.1724   -0.7237 C   0  0  2  0  0  0  0  0  0  0  0  0
   -5.6201   -7.1014   -2.3288 C   0  0  1  0  0  0  0  0  0  0  0  0
   -3.3230   -3.7001    0.1825 C   0  0  0  0  0  0  0  0  0  0  0  0
   -4.7302   -6.1982    0.3436 C   0  0  0  0  0  0  0  0  0  0  0  0
   -2.8781   -4.8080    1.0342 C   0  0  0  0  0  0  0  0  0  0  0  0
   -0.6353   -1.1839    0.0062 C   0  0  0  0  0  0  0  0  0  0  0  0
   -7.1467   -6.9218   -2.2253 C   0  0  0  0  0  0  0  0  0  0  0  0
   -5.2377   -7.6241   -3.6616 N   0  0  0  0  0  0  0  0  0  0  0  0
   -1.3626   -0.0398    0.0055 N   0  0  0  0  0  0  0  0  0  0  0  0
   -2.6349   -2.5042    0.2262 N   0  0  0  0  0  0  0  0  0  0  0  0
   -1.3041   -2.4190   -0.1171 N   0  0  0  0  0  0  0  0  0  0  0  0
   -5.3401   -7.2489    0.5423 O   0  0  0  0  0  0  0  0  0  0  0  0
   -1.7459   -4.5682    1.7895 O   0  0  0  0  0  0  0  0  0  0  0  0
   -7.9560   -7.1270   -3.1250 O   0  0  0  0  0  0  0  0  0  0  0  0
   -7.5721   -6.4810   -1.0280 O   0  0  0  0  0  0  0  0  0  0  0  0
  2  1  2  0
  3  1  1  0
  4  2  1  0
  8  5  1  6
  8  6  1  0
  9  5  1  0
  9 15  1  6
 10  6  2  0
 11  7  1  0
 11  8  1  0
 12  7  2  0
 12 10  1  0
 13  3  2  0
 14  9  1  0
 16  4  2  0
 16 13  1  0
 17 10  1  0
 18 13  1  0
 18 17  1  0
 19 11  2  0
 20 12  1  0
 21 14  2  0
 22 14  1  0
M  END
>  <DRUGBANK_ID>  (1) 
DB01634

>  <SECONDARY_ACCESSION_NUMBERS>  (1) 
EXPT02499

>  <COMMON_NAME>  (1) 
2-Oxy-4-Hydroxy-5-(2-Hydrazinopyridine)Phenylalanine

$$$$
