
     RDKit          3D

 16 16  0  0  0  0  0  0  0  0999 V2000
    0.7428   -0.2886   -0.1133 N   0  0  0  0  0  0  0  0  0  0  0  0
   -0.1670    0.5747    0.5191 N   0  0  0  0  0  0  0  0  0  0  0  0
    0.2208   -1.1051   -1.0750 C   0  0  0  0  0  0  0  0  0  0  0  0
    0.8993   -1.8490   -1.8518 N   0  0  0  0  0  0  0  0  0  0  0  0
   -1.1299   -1.0646   -1.0885 N   0  0  0  0  0  0  0  0  0  0  0  0
   -0.6460    0.0234    1.7918 C   0  0  0  0  0  0  0  0  0  0  0  0
    0.4582   -0.5197    2.6958 C   0  0  0  0  0  0  0  0  0  0  0  0
    1.1830    0.5394    3.3774 O   0  0  0  0  0  0  0  0  0  0  0  0
    2.1681    1.2234    2.7013 C   0  0  0  0  0  0  0  0  0  0  0  0
    3.5002    1.0847    3.1042 C   0  0  0  0  0  0  0  0  0  0  0  0
    4.5203    1.8475    2.5022 C   0  0  0  0  0  0  0  0  0  0  0  0
    4.2528    2.6541    1.3990 C   0  0  0  0  0  0  0  0  0  0  0  0
    2.9451    2.8082    0.9931 C   0  0  0  0  0  0  0  0  0  0  0  0
    1.9311    2.2622    1.7824 C   0  0  0  0  0  0  0  0  0  0  0  0
    0.4325    3.1412    1.6681 Cl  0  0  0  0  0  0  0  0  0  0  0  0
    3.9432    0.0741    4.4325 Cl  0  0  0  0  0  0  0  0  0  0  0  0
  1  2  1  0
  1  3  1  0
  2  6  1  0
  3  4  2  0
  3  5  1  0
  6  7  1  0
  7  8  1  0
  8  9  1  0
  9 10  2  0
  9 14  1  0
 10 11  1  0
 10 16  1  0
 11 12  2  0
 12 13  1  0
 13 14  2  0
 14 15  1  0
M  END
>  <DRUGBANK_ID>  (1) 
DB13779

>  <COMMON_NAME>  (1) 
Guanoclor

>  <CAS_NUMBER>  (1) 
5001-32-1

>  <UNII>  (1) 
M4HBT852YO

>  <SYNONYMS>  (1) 
Guanoclor; Guanocloro; Guanoclorum

$$$$
