
     RDKit          3D

 29 31  0  0  1  0  0  0  0  0999 V2000
    0.1785    0.7335   -0.6129 C   0  0  2  0  0  0  0  0  0  0  0  0
   -0.5551   -0.5165   -0.3979 N   0  0  0  0  0  0  0  0  0  0  0  0
    0.0301   -1.7355   -0.1579 C   0  0  0  0  0  0  0  0  0  0  0  0
    1.3810   -1.7773   -0.0052 C   0  0  0  0  0  0  0  0  0  0  0  0
    2.2831   -0.5507   -0.0837 C   0  0  0  0  0  0  0  0  0  0  0  0
    1.4829    0.9346    0.5728 S   0  0  0  0  0  0  0  0  0  0  0  0
   -1.1206    1.4566   -0.3988 C   0  0  1  0  0  0  0  0  0  0  0  0
   -1.6586    0.0784    0.1118 C   0  0  0  0  0  0  0  0  0  0  0  0
   -1.3842    2.7011    0.3109 N   0  0  0  0  0  0  0  0  0  0  0  0
   -2.1215    3.7940   -0.1817 C   0  0  0  0  0  0  0  0  0  0  0  0
   -2.1593    4.7689    0.5680 O   0  0  0  0  0  0  0  0  0  0  0  0
   -2.6138   -0.3219    0.7457 O   0  0  0  0  0  0  0  0  0  0  0  0
   -2.8334    3.8205   -1.6276 C   0  0  0  0  0  0  0  0  0  0  0  0
    2.1432   -3.0343    0.3294 C   0  0  0  0  0  0  0  0  0  0  0  0
   -0.8882   -2.9561   -0.1019 C   0  0  0  0  0  0  0  0  0  0  0  0
   -2.0936   -2.9613   -0.2792 O   0  0  0  0  0  0  0  0  0  0  0  0
   -0.2390   -4.1229    0.0590 O   0  0  0  0  0  0  0  0  0  0  0  0
   -2.9142    2.6014   -2.4356 C   0  0  0  0  0  0  0  0  0  0  0  0
   -2.3174    2.5500   -3.6831 O   0  0  0  0  0  0  0  0  0  0  0  0
   -2.2734    1.2396   -4.0712 C   0  0  0  0  0  0  0  0  0  0  0  0
   -2.7922    0.4346   -3.0870 C   0  0  0  0  0  0  0  0  0  0  0  0
   -3.3499    1.3192   -2.1216 C   0  0  0  0  0  0  0  0  0  0  0  0
   -3.3953    4.8869   -2.1389 N   0  0  0  0  0  0  0  0  0  0  0  0
    1.7201   -3.6418    1.5708 O   0  0  0  0  0  0  0  0  0  0  0  0
    1.6415   -3.0400    2.7782 C   0  0  0  0  0  0  0  0  0  0  0  0
    2.2336   -1.8296    2.8962 N   0  0  0  0  0  0  0  0  0  0  0  0
    1.0919   -3.5653    3.7360 O   0  0  0  0  0  0  0  0  0  0  0  0
   -3.3817    5.9834   -1.2668 O   0  0  0  0  0  0  0  0  0  0  0  0
   -4.1103    7.0689   -1.8302 C   0  0  0  0  0  0  0  0  0  0  0  0
  1  2  1  0
  1  6  1  1
  1  7  1  0
  2  3  1  0
  2  8  1  0
  3  4  2  0
  3 15  1  0
  4  5  1  0
  4 14  1  0
  5  6  1  0
  7  8  1  0
  7  9  1  1
  8 12  2  0
  9 10  1  0
 10 11  2  0
 10 13  1  0
 13 18  1  0
 13 23  2  0
 14 24  1  0
 15 16  2  0
 15 17  1  0
 18 19  1  0
 18 22  2  0
 19 20  1  0
 20 21  2  0
 21 22  1  0
 23 28  1  0
 24 25  1  0
 25 26  1  0
 25 27  2  0
 28 29  1  0
M  END
>  <DRUGBANK_ID>  (1) 
DB01112

>  <SECONDARY_ACCESSION_NUMBERS>  (1) 
APRD00285

>  <COMMON_NAME>  (1) 
Cefuroxime

>  <CAS_NUMBER>  (1) 
55268-75-2

>  <UNII>  (1) 
O1R9FJ93ED

>  <SYNONYMS>  (1) 
(6R,7R)-3-[(carbamoyloxy)methyl]-7-{[(2Z)-2-furan-2-yl-2-(methoxyimino)acetyl]amino}-8-oxo-5-thia-1-azabicyclo[4.2.0]oct-2-ene-2-carboxylic acid; Cefuroxim; Cefuroxima; Cefuroxime; Cefuroximo; Cefuroximum; Cephuroxime

$$$$
