
     RDKit          3D

 12 12  0  0  1  0  0  0  0  0999 V2000
    0.5735   -1.1368    0.2171 C   0  0  0  0  0  0  0  0  0  0  0  0
    1.2933    0.1529   -0.1519 C   0  0  0  0  0  0  0  0  0  0  0  0
   -1.9026   -1.8141    0.2997 C   0  0  0  0  0  0  0  0  0  0  0  0
   -0.8435   -0.8796   -0.2828 C   0  0  1  0  0  0  0  0  0  0  0  0
    0.2170    1.2314   -0.0551 C   0  0  1  0  0  0  0  0  0  0  0  0
   -2.0712   -3.0765   -0.5014 C   0  0  0  0  0  0  0  0  0  0  0  0
    0.1888    2.1382   -1.2859 C   0  0  0  0  0  0  0  0  0  0  0  0
   -1.0787    0.5225    0.1242 N   0  0  0  0  0  0  0  0  0  0  0  0
   -2.1267   -4.2092   -0.0461 O   0  0  0  0  0  0  0  0  0  0  0  0
   -2.2650   -2.8560   -1.8152 O   0  0  0  0  0  0  0  0  0  0  0  0
    0.4337    3.3367   -1.2887 O   0  0  0  0  0  0  0  0  0  0  0  0
   -0.1072    1.5029   -2.4404 O   0  0  0  0  0  0  0  0  0  0  0  0
  2  1  1  0
  4  1  1  0
  4  3  1  1
  5  2  1  0
  5  7  1  6
  6  3  1  0
  8  4  1  0
  8  5  1  0
  9  6  2  0
 10  6  1  0
 11  7  2  0
 12  7  1  0
M  END
>  <DRUGBANK_ID>  (1) 
DB03215

>  <SECONDARY_ACCESSION_NUMBERS>  (1) 
EXPT02957

>  <COMMON_NAME>  (1) 
(2s,5s)-5-Carboxymethylproline

$$$$
