K25
     RDKit          3D

 16 17  0  0  0  0  0  0  0  0999 V2000
    2.1293   -0.6915   -0.0007 C   0  0  0  0  0  0  0  0  0  0  0  0
    2.1302    0.7219    0.0015 C   0  0  0  0  0  0  0  0  0  0  0  0
    0.9131    1.4356   -0.0009 C   0  0  0  0  0  0  0  0  0  0  0  0
    0.9071   -1.4082   -0.0004 C   0  0  0  0  0  0  0  0  0  0  0  0
   -1.5988    1.0638   -0.0008 N   0  0  0  0  0  0  0  0  0  0  0  0
   -0.3106   -0.6927    0.0002 C   0  0  0  0  0  0  0  0  0  0  0  0
   -0.2737    0.6925   -0.0007 C   0  0  0  0  0  0  0  0  0  0  0  0
   -2.3892   -0.0597    0.0008 C   0  0  0  0  0  0  0  0  0  0  0  0
   -1.6248   -1.1306    0.0012 N   0  0  0  0  0  0  0  0  0  0  0  0
   -3.7483    0.0026    0.0018 N   0  0  0  0  0  0  0  0  0  0  0  0
   -4.5326    1.2237    0.0018 C   0  0  0  0  0  0  0  0  0  0  0  0
   -4.5020   -1.2482    0.0029 C   0  0  0  0  0  0  0  0  0  0  0  0
    3.7903   -1.6593   -0.0074 Br  0  0  0  0  0  0  0  0  0  0  0  0
    3.7832    1.7016    0.0116 Br  0  0  0  0  0  0  0  0  0  0  0  0
    0.7898    3.3315   -0.0062 Br  0  0  0  0  0  0  0  0  0  0  0  0
    0.8176   -3.3100    0.0010 Br  0  0  0  0  0  0  0  0  0  0  0  0
  1  2  2  0
  1  4  1  0
  1 13  1  0
  2  3  1  0
  2 14  1  0
  3  7  2  0
  3 15  1  0
  4  6  2  0
  4 16  1  0
  5  7  1  0
  5  8  1  0
  6  7  1  0
  6  9  1  0
  8  9  2  0
  8 10  1  0
 10 11  1  0
 10 12  1  0
M  END
>  <DRUGBANK_ID>  (1) 
DB04719

>  <COMMON_NAME>  (1) 
DIMETHYL-(4,5,6,7-TETRABROMO-1H-BENZOIMIDAZOL-2-YL)-AMINE

$$$$
