428
     RDKit          3D

 18 18  0  0  1  0  0  0  0  0999 V2000
   -1.4387   -0.9800    0.5638 O   0  0  0  0  0  0  0  0  0  0  0  0
    1.8772    1.5857    0.0876 O   0  0  0  0  0  0  0  0  0  0  0  0
    2.1223   -1.2617   -0.4713 O   0  0  0  0  0  0  0  0  0  0  0  0
   -2.1804    0.3406   -1.2253 O   0  0  0  0  0  0  0  0  0  0  0  0
   -1.2311   -3.7490    0.2044 O   0  0  0  0  0  0  0  0  0  0  0  0
   -0.9595    4.7554    0.8697 O   0  0  0  0  0  0  0  0  0  0  0  0
    0.0508    1.1932    3.1386 O   0  0  0  0  0  0  0  0  0  0  0  0
   -0.7601    2.6720    0.3196 N   0  0  0  0  0  0  0  0  0  0  0  0
   -0.4179    3.4118    2.6406 N   0  0  0  0  0  0  0  0  0  0  0  0
   -0.1262    2.3417    3.5077 N   0  0  0  0  0  0  0  0  0  0  0  0
    0.7641    0.7585   -0.2831 C   0  0  2  0  0  0  0  0  0  0  0  0
   -0.5278    1.2543    0.3619 C   0  0  2  0  0  0  0  0  0  0  0  0
    0.9934   -0.6935    0.1886 C   0  0  1  0  0  0  0  0  0  0  0  0
   -0.2685   -1.5409   -0.0559 C   0  0  1  0  0  0  0  0  0  0  0  0
   -1.7355    0.3469    0.1156 C   0  0  2  0  0  0  0  0  0  0  0  0
   -0.0704   -2.9648    0.4739 C   0  0  0  0  0  0  0  0  0  0  0  0
   -0.7032    3.6031    1.2933 C   0  0  0  0  0  0  0  0  0  0  0  0
   -0.4525    4.6222    3.4549 C   0  0  0  0  0  0  0  0  0  0  0  0
  1 14  1  0
  1 15  1  0
  5 16  1  0
  6 17  2  0
  7 10  2  0
  8 17  1  0
  9 10  1  0
  9 17  1  0
  9 18  1  0
 11  2  1  1
 11 12  1  0
 11 13  1  0
 12  8  1  6
 12 15  1  0
 13  3  1  6
 13 14  1  0
 14 16  1  1
 15  4  1  6
M  END
>  <DRUGBANK_ID>  (1) 
DB00428

>  <SECONDARY_ACCESSION_NUMBERS>  (1) 
APRD00209

>  <COMMON_NAME>  (1) 
Streptozocin

>  <CAS_NUMBER>  (1) 
66395-18-4

>  <UNII>  (1) 
8H27GUR065

>  <SYNONYMS>  (1) 
2-Deoxy-2-(((methylnitrosoamino)carbonyl)amino)-D-glucopyranose; 2-Deoxy-2-(3-methyl-3-nitrosoureido)-D-glucopyranose; Estreptozocina; N-D-Glucosyl-(2)-N'-nitrosomethylharnstoff; N-D-Glucosyl-(2)-N'-nitrosomethylurea; Streptozocin; Streptozocine; Streptozocinium; Streptozocinum; Streptozotocin

$$$$
