LI6
     RDKit          3D

 14 15  0  0  0  0  0  0  0  0999 V2000
   -1.2378    1.3526    0.0651 C   0  0  0  0  0  0  0  0  0  0  0  0
   -0.0060    0.6865    0.0995 C   0  0  0  0  0  0  0  0  0  0  0  0
    0.0088   -0.7201    0.0957 C   0  0  0  0  0  0  0  0  0  0  0  0
    1.2871   -1.4254    0.0183 C   0  0  0  0  0  0  0  0  0  0  0  0
    2.4357   -0.7431   -0.0601 C   0  0  0  0  0  0  0  0  0  0  0  0
    3.5469    1.3025   -0.1190 O   0  0  0  0  0  0  0  0  0  0  0  0
    2.4429    0.7491   -0.0336 C   0  0  0  0  0  0  0  0  0  0  0  0
    3.6496   -1.4068   -0.1782 O   0  0  0  0  0  0  0  0  0  0  0  0
    1.2288    1.4045    0.0722 N   0  0  0  0  0  0  0  0  0  0  0  0
    1.2149    2.8582    0.0628 C   0  0  0  0  0  0  0  0  0  0  0  0
    1.2527   -2.8060   -0.0320 O   0  0  0  0  0  0  0  0  0  0  0  0
   -2.4153    0.6381   -0.1433 C   0  0  0  0  0  0  0  0  0  0  0  0
   -2.4080   -0.7476   -0.0503 C   0  0  0  0  0  0  0  0  0  0  0  0
   -1.2026   -1.4237    0.1167 C   0  0  0  0  0  0  0  0  0  0  0  0
  1  2  2  0
  1 12  1  0
  2  3  1  0
  2  9  1  0
  3  4  1  0
  3 14  2  0
  4  5  2  0
  4 11  1  0
  5  7  1  0
  5  8  1  0
  6  7  2  0
  7  9  1  0
  9 10  1  0
 12 13  2  0
 13 14  1  0
M  END
>  <DRUGBANK_ID>  (1) 
DB01754

>  <SECONDARY_ACCESSION_NUMBERS>  (1) 
EXPT02028

>  <COMMON_NAME>  (1) 
3,4-Dihydroxy-1-Methylquinolin-2(1h)-One

>  <UNII>  (1) 
3LH3M77BN6

$$$$
