
     RDKit          3D

 21 23  0  0  0  0  0  0  0  0999 V2000
    1.0254   -0.0432   -0.0088 C   0  0  0  0  0  0  0  0  0  0  0  0
    0.5599    1.4132   -0.0668 C   0  0  0  0  0  0  0  0  0  0  0  0
    1.0524    2.1293   -1.2597 N   0  0  0  0  0  0  0  0  0  0  0  0
    1.5664    1.5161   -2.4008 C   0  0  0  0  0  0  0  0  0  0  0  0
    1.8901    2.1019   -3.5641 C   0  0  0  0  0  0  0  0  0  0  0  0
    1.6483    3.5641   -3.6215 C   0  0  0  0  0  0  0  0  0  0  0  0
    1.8967    4.2301   -4.6201 O   0  0  0  0  0  0  0  0  0  0  0  0
    1.0862    4.2312   -2.4286 C   0  0  0  0  0  0  0  0  0  0  0  0
    0.8102    5.5779   -2.4248 C   0  0  0  0  0  0  0  0  0  0  0  0
    0.2688    6.2384   -1.3679 N   0  0  0  0  0  0  0  0  0  0  0  0
    0.0396    5.5329   -0.2459 C   0  0  0  0  0  0  0  0  0  0  0  0
    0.3050    4.2013   -0.1703 N   0  0  0  0  0  0  0  0  0  0  0  0
    0.7990    3.5430   -1.2636 C   0  0  0  0  0  0  0  0  0  0  0  0
   -0.5378    6.1494    0.8429 N   0  0  0  0  0  0  0  0  0  0  0  0
   -1.6917    7.0280    0.7406 C   0  0  0  0  0  0  0  0  0  0  0  0
   -1.3201    8.2580    1.5636 C   0  0  0  0  0  0  0  0  0  0  0  0
   -0.4588    7.6809    2.6766 C   0  0  0  0  0  0  0  0  0  0  0  0
    0.2330    6.4530    2.0449 C   0  0  0  0  0  0  0  0  0  0  0  0
    2.4405    1.3377   -4.7062 C   0  0  0  0  0  0  0  0  0  0  0  0
    2.7576    1.7799   -5.8016 O   0  0  0  0  0  0  0  0  0  0  0  0
    2.5898    0.0180   -4.4689 O   0  0  0  0  0  0  0  0  0  0  0  0
  1  2  1  0
  2  3  1  0
  3  4  1  0
  3 13  1  0
  4  5  2  0
  5  6  1  0
  5 19  1  0
  6  7  2  0
  6  8  1  0
  8  9  1  0
  8 13  2  0
  9 10  2  0
 10 11  1  0
 11 12  2  0
 11 14  1  0
 12 13  1  0
 14 15  1  0
 14 18  1  0
 15 16  1  0
 16 17  1  0
 17 18  1  0
 19 20  2  0
 19 21  1  0
M  END
>  <DRUGBANK_ID>  (1) 
DB13744

>  <COMMON_NAME>  (1) 
Piromidic acid

>  <CAS_NUMBER>  (1) 
19562-30-2

>  <UNII>  (1) 
3I12WH4EWF

>  <SYNONYMS>  (1) 
Piromidic acid

$$$$
