
     RDKit          3D

 21 23  0  0  0  0  0  0  0  0999 V2000
    1.3482    1.8989   -0.5972 C   0  0  0  0  0  0  0  0  0  0  0  0
    2.5708    1.1998   -0.6236 C   0  0  0  0  0  0  0  0  0  0  0  0
    2.6167   -0.2004   -0.7305 C   0  0  0  0  0  0  0  0  0  0  0  0
    1.4081   -0.8704   -0.7949 C   0  0  0  0  0  0  0  0  0  0  0  0
    1.1022   -2.2270   -0.5537 N   0  0  0  0  0  0  0  0  0  0  0  0
   -0.2990   -2.3665   -0.4666 C   0  0  0  0  0  0  0  0  0  0  0  0
    0.2025   -0.1753   -0.8419 C   0  0  0  0  0  0  0  0  0  0  0  0
   -0.8403   -1.1124   -0.7705 N   0  0  0  0  0  0  0  0  0  0  0  0
   -2.2149   -0.7231   -0.9239 C   0  0  0  0  0  0  0  0  0  0  0  0
   -2.8147    0.0917    0.2391 C   0  0  1  0  0  0  0  0  0  0  0  0
    0.1297    1.2004   -0.6521 C   0  0  0  0  0  0  0  0  0  0  0  0
   -1.9751    1.1856    0.7665 N   0  0  0  0  0  0  0  0  0  0  0  0
   -1.1598    1.8775   -0.2539 C   0  0  0  0  0  0  0  0  0  0  0  0
   -1.0893   -3.7388    0.0281 S   0  0  0  0  0  0  0  0  0  0  0  0
   -4.1483    0.6535   -0.2969 C   0  0  0  0  0  0  0  0  0  0  0  0
   -1.3223    0.9018    2.0632 C   0  0  0  0  0  0  0  0  0  0  0  0
   -0.2318   -0.1599    2.1254 C   0  0  0  0  0  0  0  0  0  0  0  0
    1.0740    0.0210    2.3745 C   0  0  0  0  0  0  0  0  0  0  0  0
    2.1252   -1.0716    2.2577 C   0  0  0  0  0  0  0  0  0  0  0  0
    1.6174    1.3874    2.6820 C   0  0  0  0  0  0  0  0  0  0  0  0
    4.0207    2.0736   -0.2724 Cl  0  0  0  0  0  0  0  0  0  0  0  0
  1  2  2  0
  2  3  1  0
  2 21  1  0
  3  4  2  0
  4  5  1  0
  6  8  1  0
  6 14  2  0
  6  5  1  0
  7 11  2  0
  7  8  1  0
  7  4  1  0
  8  9  1  0
  9 10  1  0
 10 12  1  0
 10 15  1  6
 11  1  1  0
 11 13  1  0
 12 13  1  0
 12 16  1  0
 16 17  1  0
 17 18  2  3
 18 19  1  0
 18 20  1  0
M  END
>  <DRUGBANK_ID>  (1) 
DB08598

>  <COMMON_NAME>  (1) 
R-82913

>  <CAS_NUMBER>  (1) 
126347-69-1

>  <UNII>  (1) 
4FOI87E52P

$$$$
