
     RDKit          3D

  8  7  0  0  1  0  0  0  0  0999 V2000
    3.0772    3.7945    2.6298 Se  0  0  0  0  0  2  0  0  0  0  0  0
   -0.4191    4.3540    2.4333 O   0  0  0  0  0  0  0  0  0  0  0  0
    0.7043    4.7060    0.4207 O   0  0  0  0  0  0  0  0  0  0  0  0
    0.4139    1.8020    0.1247 N   0  0  0  0  0  0  0  0  0  0  0  0
    0.9039    2.4747    1.3365 C   0  0  1  0  0  0  0  0  0  0  0  0
    2.4239    2.4747    1.3365 C   0  0  0  0  0  0  0  0  0  0  0  0
    2.4239    5.5745    2.1334 C   0  0  0  0  0  0  0  0  0  0  0  0
    0.3972    3.9075    1.3606 C   0  0  0  0  0  0  0  0  0  0  0  0
  1  6  1  0
  1  7  1  0
  2  8  1  0
  3  8  2  0
  5  8  1  0
  5  6  1  0
  5  4  1  6
M  END
>  <DRUGBANK_ID>  (1) 
DB12697

>  <COMMON_NAME>  (1) 
Methylselenocysteine

>  <CAS_NUMBER>  (1) 
26046-90-2

>  <UNII>  (1) 
TWK220499Z

>  <SYNONYMS>  (1) 
SE-METHYL-SELENO-L-CYSTEINE

$$$$
