
     RDKit          3D

 28 31  0  0  0  0  0  0  0  0999 V2000
    0.0568    0.7965   -0.7050 C   0  0  2  0  0  0  0  0  0  0  0  0
   -0.6216   -0.4677   -0.5266 N   0  0  0  0  0  0  0  0  0  0  0  0
   -0.0073   -1.6799   -0.4224 C   0  0  0  0  0  0  0  0  0  0  0  0
    1.2868   -1.7629   -0.0154 C   0  0  0  0  0  0  0  0  0  0  0  0
    2.2011   -0.5506    0.0545 C   0  0  0  0  0  0  0  0  0  0  0  0
    1.3468    0.9728    0.5644 S   0  0  0  0  0  0  0  0  0  0  0  0
   -1.3378    1.4178   -0.4223 C   0  0  1  0  0  0  0  0  0  0  0  0
   -1.6973    0.0574    0.1276 C   0  0  0  0  0  0  0  0  0  0  0  0
   -1.4339    2.6886    0.3127 N   0  0  0  0  0  0  0  0  0  0  0  0
   -2.0470    3.8169   -0.1918 C   0  0  0  0  0  0  0  0  0  0  0  0
   -2.1114    4.8294    0.5088 O   0  0  0  0  0  0  0  0  0  0  0  0
   -2.6051   -0.3610    0.8212 O   0  0  0  0  0  0  0  0  0  0  0  0
   -2.6943    3.7668   -1.5913 C   0  0  0  0  0  0  0  0  0  0  0  0
    1.9320   -3.0951    0.3488 C   0  0  0  0  0  0  0  0  0  0  0  0
   -0.8658   -2.9720   -0.8149 C   0  0  0  0  0  0  0  0  0  0  0  0
   -2.0910   -2.9153   -0.5472 O   0  0  0  0  0  0  0  0  0  0  0  0
   -0.1548   -3.9891   -1.0775 O   0  0  0  0  0  0  0  0  0  0  0  0
   -1.6804    3.5935   -2.7049 C   0  0  0  0  0  0  0  0  0  0  0  0
    1.3691   -3.7253    1.6175 N   0  0  0  0  0  0  0  0  0  0  0  0
    0.0424   -3.9004    1.8167 C   0  0  0  0  0  0  0  0  0  0  0  0
   -0.5259   -4.4605    2.9282 C   0  0  0  0  0  0  0  0  0  0  0  0
    0.3008   -4.9403    3.9019 C   0  0  0  0  0  0  0  0  0  0  0  0
    1.6760   -4.8504    3.7027 C   0  0  0  0  0  0  0  0  0  0  0  0
    2.2013   -4.2024    2.5711 C   0  0  0  0  0  0  0  0  0  0  0  0
   -1.4947    2.1164   -3.5847 S   0  0  0  0  0  0  0  0  0  0  0  0
   -0.0862    2.6703   -4.3642 C   0  0  0  0  0  0  0  0  0  0  0  0
    0.0331    4.0337   -4.2305 C   0  0  0  0  0  0  0  0  0  0  0  0
   -0.8864    4.5659   -3.2789 C   0  0  0  0  0  0  0  0  0  0  0  0
  1  2  1  0
  1  6  1  1
  1  7  1  0
  2  3  1  0
  2  8  1  0
  3  4  2  0
  3 15  1  0
  4  5  1  0
  4 14  1  0
  5  6  1  0
  7  8  1  0
  7  9  1  1
  8 12  2  0
  9 10  1  0
 10 11  2  0
 10 13  1  0
 13 18  1  0
 14 19  1  0
 15 16  2  0
 15 17  1  0
 18 25  1  0
 18 28  2  0
 19 20  2  0
 19 24  1  0
 20 21  1  0
 21 22  2  0
 22 23  1  0
 23 24  2  0
 25 26  1  0
 26 27  2  0
 27 28  1  0
M  CHG  2  17  -1  19   1
M  END
>  <DRUGBANK_ID>  (1) 
DB09008

>  <COMMON_NAME>  (1) 
Cefaloridine

>  <CAS_NUMBER>  (1) 
50-59-9

>  <UNII>  (1) 
LVZ1VC61HB

>  <SYNONYMS>  (1) 
(6R,7R)-8-oxo-3-(pyridin-1-ium-1-ylmethyl)- 7-[(2-thiophen-2-ylacetyl)amino]-5-thia-1- azabicyclo[4.2.0]oct-2-ene-2-carboxylate; Cefaloridin; Cefaloridina; CÃ©faloridine; Cefaloridine; Cefaloridinum; Cephalomycine; Cephaloridine

$$$$
