4820
     RDKit          3D

 22 23  0  0  0  0  0  0  0  0999 V2000
    1.1579   -0.0500    0.1267 O   0  0  0  0  0  0  0  0  0  0  0  0
   -0.3099    1.7952   -5.0515 O   0  0  0  0  0  0  0  0  0  0  0  0
    3.1313   -1.0614    0.3681 N   0  0  0  0  0  0  0  0  0  0  0  0
    1.2807    2.0239   -1.8486 N   0  0  0  0  0  0  0  0  0  0  0  0
    0.8631    2.2622   -3.1624 N   0  0  0  0  0  0  0  0  0  0  0  0
   -1.5967   -2.1062   -2.2124 N   0  0  0  0  0  0  0  0  0  0  0  0
    3.0622    1.3321   -0.3311 C   0  0  0  0  0  0  0  0  0  0  0  0
    2.7073    1.7149   -1.7657 C   0  0  0  0  0  0  0  0  0  0  0  0
    4.5713   -1.2013    0.4151 C   0  0  0  0  0  0  0  0  0  0  0  0
    2.3877    0.0359    0.0789 C   0  0  0  0  0  0  0  0  0  0  0  0
    5.0197   -1.4880    1.8179 C   0  0  0  0  0  0  0  0  0  0  0  0
    5.3114   -0.4318    2.6938 C   0  0  0  0  0  0  0  0  0  0  0  0
    5.0579   -2.8040    2.2931 C   0  0  0  0  0  0  0  0  0  0  0  0
    5.6150   -0.6878    4.0293 C   0  0  0  0  0  0  0  0  0  0  0  0
    5.3085   -3.0524    3.6411 C   0  0  0  0  0  0  0  0  0  0  0  0
   -0.0447    1.5023   -3.8825 C   0  0  0  0  0  0  0  0  0  0  0  0
    5.6044   -1.9977    4.5038 C   0  0  0  0  0  0  0  0  0  0  0  0
   -0.6471    0.2825   -3.2917 C   0  0  0  0  0  0  0  0  0  0  0  0
   -1.2293    0.2681   -2.0243 C   0  0  0  0  0  0  0  0  0  0  0  0
   -0.6071   -0.8899   -4.0437 C   0  0  0  0  0  0  0  0  0  0  0  0
   -1.6587   -0.9470   -1.5225 C   0  0  0  0  0  0  0  0  0  0  0  0
   -1.0849   -2.0486   -3.4607 C   0  0  0  0  0  0  0  0  0  0  0  0
  1 10  2  0
  2 16  2  0
  3  9  1  0
  3 10  1  0
  4  5  1  0
  4  8  1  0
  5 16  1  0
  6 21  2  0
  6 22  1  0
  7  8  1  0
  7 10  1  0
  9 11  1  0
 11 12  2  0
 11 13  1  0
 12 14  1  0
 13 15  2  0
 14 17  2  0
 15 17  1  0
 16 18  1  0
 18 19  2  0
 18 20  1  0
 19 21  1  0
 20 22  2  0
M  END
>  <DRUGBANK_ID>  (1) 
DB04820

>  <COMMON_NAME>  (1) 
Nialamide

>  <CAS_NUMBER>  (1) 
51-12-7

>  <UNII>  (1) 
T2Q0RYM725

>  <SYNONYMS>  (1) 
1-(2-(Benzylcarbamoyl)ethyl)-2-isonicotinoylhydrazine; 2-(2-(Benzylcarbamoyl)ethyl)hydrazide isonicotinic acid; 2-(2-(Benzylcarbamyl)ethyl)hydrazide isonicotinic acid; BEIH; Isonicotinic acid 2-((2-benzylcarbamoyl)ethyl)hydrazide; Isonicotinic acid, 2-(2-(benzylcarbamoyl)ethyl)hydrazide; N-(2-(Benzylcarbamyl)ethylamino)isonicotinamide; N-benzyl-beta-(isonicotinoylhydrazine)propionamide; N-benzyl-beta-(isonicotinylhydrazino)propionamide; N-Isonicotinoyl-N'(beta-N-benzylcarboxamidoethyl)hydrazine; Nialamida; Nialamide; Nialamidum

$$$$
