
     RDKit          3D

 28 30  0  0  1  0  0  0  0  0999 V2000
   -1.5737   -0.7159    0.9760 C   0  0  0  0  0  0  0  0  0  0  0  0
   -2.1130   -2.4802    3.0620 C   0  0  0  0  0  0  0  0  0  0  0  0
   -4.1041   -1.7561    6.7991 C   0  0  0  0  0  0  0  0  0  0  0  0
   -1.5016    2.2125    6.1786 C   0  0  0  0  0  0  0  0  0  0  0  0
    0.6277    0.9213    6.3195 C   0  0  0  0  0  0  0  0  0  0  0  0
   -2.2557   -0.1421    2.1852 C   0  0  0  0  0  0  0  0  0  0  0  0
   -1.1055   -2.5104    9.9402 C   0  0  0  0  0  0  0  0  0  0  0  0
   -0.8993   -4.9650    9.3585 C   0  0  0  0  0  0  0  0  0  0  0  0
   -1.1643   -1.1619    9.5233 C   0  0  0  0  0  0  0  0  0  0  0  0
   -0.8141   -5.8959    8.3959 C   0  0  0  0  0  0  0  0  0  0  0  0
   -2.9979   -1.2280    2.9448 C   0  0  2  0  0  0  0  0  0  0  0  0
   -3.5378   -2.6767    5.7844 C   0  0  0  0  0  0  0  0  0  0  0  0
   -0.9277   -3.5500    9.0213 C   0  0  0  0  0  0  0  0  0  0  0  0
   -1.0685   -0.8346    8.1812 C   0  0  0  0  0  0  0  0  0  0  0  0
   -0.7494   -5.5495    6.9711 C   0  0  0  0  0  0  0  0  0  0  0  0
   -0.9415   -1.8706    7.2792 C   0  0  0  0  0  0  0  0  0  0  0  0
   -0.8082   -3.2049    7.6979 C   0  0  0  0  0  0  0  0  0  0  0  0
   -1.1916   -1.6271    5.8533 C   0  0  2  0  0  0  0  0  0  0  0  0
   -1.4654   -0.1963    5.3958 C   0  0  2  0  0  0  0  0  0  0  0  0
   -3.6276   -0.4798    4.1156 C   0  0  0  0  0  0  0  0  0  0  0  0
   -0.9084    0.8139    6.4371 C   0  0  0  0  0  0  0  0  0  0  0  0
   -4.2565   -3.4487    5.1508 O   0  0  0  0  0  0  0  0  0  0  0  0
   -0.7193   -6.4167    6.0908 O   0  0  0  0  0  0  0  0  0  0  0  0
   -4.8416   -0.2687    4.1346 O   0  0  0  0  0  0  0  0  0  0  0  0
   -2.2227   -2.5932    5.5014 O   0  0  0  0  0  0  0  0  0  0  0  0
   -0.6696   -4.2008    6.6945 O   0  0  0  0  0  0  0  0  0  0  0  0
   -2.8636    0.0609    5.1004 O   0  0  0  0  0  0  0  0  0  0  0  0
   -1.2459    0.4675    7.8038 O   0  0  0  0  0  0  0  0  0  0  0  0
  6  1  1  0
  9  7  2  0
 10  8  2  0
 11  2  1  1
 11  6  1  0
 12  3  1  0
 13  7  1  0
 13  8  1  0
 14  9  1  0
 15 10  1  0
 16 14  2  0
 17 13  2  0
 17 16  1  0
 18 16  1  0
 18 25  1  1
 19 18  1  0
 19 27  1  1
 20 11  1  0
 21  4  1  0
 21  5  1  0
 21 19  1  0
 22 12  2  0
 23 15  2  0
 24 20  2  0
 25 12  1  0
 26 15  1  0
 26 17  1  0
 27 20  1  0
 28 14  1  0
 28 21  1  0
M  END
>  <DRUGBANK_ID>  (1) 
DB13355

>  <COMMON_NAME>  (1) 
Visnadine

>  <CAS_NUMBER>  (1) 
477-32-7

>  <UNII>  (1) 
0RL4V0K263

>  <SYNONYMS>  (1) 
Visnadine

$$$$
