
     RDKit          3D

 32 32  0  0  0  0  0  0  0  0999 V2000
   -0.8558   -1.9563    7.8339 N   0  0  0  0  0  0  0  0  0  0  0  0
    0.1813   -0.9669    7.4276 C   0  0  2  0  0  0  0  0  0  0  0  0
   -1.4121    0.7804    6.6093 O   0  0  0  0  0  0  0  0  0  0  0  0
   -0.2693    0.4095    6.7611 C   0  0  0  0  0  0  0  0  0  0  0  0
    1.1731   -1.7547    6.5473 C   0  0  0  0  0  0  0  0  0  0  0  0
    2.4304   -0.9702    6.2102 C   0  0  0  0  0  0  0  0  0  0  0  0
    1.6091   -3.0060    7.3167 C   0  0  0  0  0  0  0  0  0  0  0  0
    0.7201    1.2974    6.4063 N   0  0  0  0  0  0  0  0  0  0  0  0
    0.3874    2.6007    5.8277 C   0  0  1  0  0  0  0  0  0  0  0  0
   -0.1967    3.5116    3.6609 O   0  0  0  0  0  0  0  0  0  0  0  0
    1.3507    3.6283    6.4035 C   0  0  0  0  0  0  0  0  0  0  0  0
    0.3757    2.6089    4.2698 C   0  0  0  0  0  0  0  0  0  0  0  0
    1.1493    1.6675    3.6159 N   0  0  0  0  0  0  0  0  0  0  0  0
    1.3826    1.5949    2.1375 C   0  0  2  0  0  0  0  0  0  0  0  0
    3.4244    0.4803    2.7863 O   0  0  0  0  0  0  0  0  0  0  0  0
    2.5356    0.5758    1.9263 C   0  0  0  0  0  0  0  0  0  0  0  0
    1.8475    2.9549    1.6166 C   0  0  0  0  0  0  0  0  0  0  0  0
    1.9286    3.0308    0.1240 C   0  0  0  0  0  0  0  0  0  0  0  0
    1.1978    3.6552   -0.6126 O   0  0  0  0  0  0  0  0  0  0  0  0
    2.9361    2.2928   -0.3782 O   0  0  0  0  0  0  0  0  0  0  0  0
    2.6063   -0.2891    0.6693 C   0  0  0  0  0  0  0  0  0  0  0  0
    1.8050   -1.3869    0.7302 F   0  0  0  0  0  0  0  0  0  0  0  0
   -1.4518   -1.9403    9.0774 C   0  0  0  0  0  0  0  0  0  0  0  0
   -2.6174   -2.6415    9.2340 O   0  0  0  0  0  0  0  0  0  0  0  0
   -0.9824   -1.2973   10.0039 O   0  0  0  0  0  0  0  0  0  0  0  0
   -3.4463   -3.2583    8.2046 C   0  0  0  0  0  0  0  0  0  0  0  0
   -4.0808   -2.2864    7.2254 C   0  0  0  0  0  0  0  0  0  0  0  0
   -3.3189   -1.2628    6.6927 C   0  0  0  0  0  0  0  0  0  0  0  0
   -3.6379   -0.4608    5.6162 C   0  0  0  0  0  0  0  0  0  0  0  0
   -4.9212   -0.4707    5.1850 C   0  0  0  0  0  0  0  0  0  0  0  0
   -5.7873   -1.4147    5.7293 C   0  0  0  0  0  0  0  0  0  0  0  0
   -5.3741   -2.3337    6.7286 C   0  0  0  0  0  0  0  0  0  0  0  0
  1 23  1  0
  2  5  1  0
  2  4  1  0
  2  1  1  6
  4  8  1  0
  4  3  2  0
  5  6  1  0
  5  7  1  0
  9 11  1  6
  9 12  1  0
  9  8  1  0
 12 13  1  0
 12 10  2  0
 14 17  1  1
 14 16  1  0
 14 13  1  0
 16 15  2  0
 16 21  1  0
 17 18  1  0
 18 19  2  0
 18 20  1  0
 21 22  1  0
 23 24  1  0
 23 25  2  0
 24 26  1  0
 26 27  1  0
 27 28  2  0
 28 29  1  0
 29 30  2  0
 30 31  1  0
 31 32  2  0
 32 27  1  0
M  END
>  <DRUGBANK_ID>  (1) 
DB07744

>  <COMMON_NAME>  (1) 
Z-Val-Ala-Asp fluoromethyl ketone

>  <CAS_NUMBER>  (1) 
161401-82-7

>  <SYNONYMS>  (1) 
N-[(Benzyloxy)carbonyl]-L-valyl-N-[(2S)-1-carboxy-4-fluoro-3-oxo-2-butanyl]-L-alaninamide; Z-VAD-FMK

$$$$
