CAX
     RDKit          3D

 13 13  0  0  0  0  0  0  0  0999 V2000
   -1.8186   -1.6438    0.9096 O   0  0  0  0  0  0  0  0  0  0  0  0
   -2.0461   -1.2877    2.2526 C   0  0  0  0  0  0  0  0  0  0  0  0
   -3.1949   -1.8983    2.7899 O   0  0  0  0  0  0  0  0  0  0  0  0
   -0.8409   -1.5069    3.1715 C   0  0  0  0  0  0  0  0  0  0  0  0
    0.5123   -0.9102    2.7143 C   0  0  1  0  0  0  0  0  0  0  0  0
    0.5359    0.6000    2.2635 C   0  0  0  0  0  0  0  0  0  0  0  0
    1.3795    0.7009    0.9776 C   0  0  0  0  0  0  0  0  0  0  0  0
   -0.7945    1.2607    1.9096 C   0  0  0  0  0  0  0  0  0  0  0  0
    1.0611    1.4086    3.4845 C   0  0  2  0  0  0  0  0  0  0  0  0
    2.2577    2.2724    3.1517 C   0  0  0  0  0  0  0  0  0  0  0  0
    1.3894    0.3428    4.5009 C   0  0  0  0  0  0  0  0  0  0  0  0
    1.5111    0.5466    5.6924 O   0  0  0  0  0  0  0  0  0  0  0  0
    1.5719   -0.9900    3.8395 C   0  0  0  0  0  0  0  0  0  0  0  0
  1  2  1  0
  2  3  1  0
  2  4  1  0
  5  6  1  0
  5 13  1  0
  5  4  1  1
  6  7  1  0
  6  8  1  0
  6  9  1  0
  9 10  1  6
  9 11  1  0
 11 12  2  0
 11 13  1  0
M  END
>  <DRUGBANK_ID>  (1) 
DB02906

>  <SECONDARY_ACCESSION_NUMBERS>  (1) 
EXPT00834

>  <COMMON_NAME>  (1) 
(2s,4s)-Alpha-Campholinic Acid

$$$$
