904
     RDKit          3D

 22 25  0  0  1  0  0  0  0  0999 V2000
    1.2160   -0.0918   -0.2269 O   0  0  0  0  0  0  0  0  0  0  0  0
    4.9631    2.4241    0.5702 N   0  0  0  0  0  0  0  0  0  0  0  0
    4.8396   -2.4642   -1.9071 N   0  0  0  0  0  0  0  0  0  0  0  0
    5.3669   -4.6090   -2.1171 N   0  0  0  0  0  0  0  0  0  0  0  0
    3.3123   -1.2867   -0.2982 C   0  0  0  0  0  0  0  0  0  0  0  0
    4.3295   -1.3062    0.8564 C   0  0  0  0  0  0  0  0  0  0  0  0
    5.3123   -0.1228    0.7379 C   0  0  0  0  0  0  0  0  0  0  0  0
    4.5184    1.1267    0.4972 C   0  0  0  0  0  0  0  0  0  0  0  0
    3.1879    1.1629    0.1165 C   0  0  0  0  0  0  0  0  0  0  0  0
    2.4461   -0.0514   -0.1362 C   0  0  0  0  0  0  0  0  0  0  0  0
    4.0019   -1.2898   -1.6856 C   0  0  0  0  0  0  0  0  0  0  0  0
    2.7864    2.5065    0.0248 C   0  0  0  0  0  0  0  0  0  0  0  0
    3.9141    3.2903    0.2942 C   0  0  0  0  0  0  0  0  0  0  0  0
    6.3236    2.8038    0.8844 C   0  0  0  0  0  0  0  0  0  0  0  0
    1.5590    3.1149   -0.2939 C   0  0  0  0  0  0  0  0  0  0  0  0
    3.8359    4.6913    0.2499 C   0  0  0  0  0  0  0  0  0  0  0  0
    4.3768   -3.7599   -1.9450 C   0  0  0  0  0  0  0  0  0  0  0  0
    6.2008   -2.5151   -2.0875 C   0  0  0  0  0  0  0  0  0  0  0  0
    1.4751    4.5021   -0.3307 C   0  0  0  0  0  0  0  0  0  0  0  0
    2.5994    5.2762   -0.0626 C   0  0  0  0  0  0  0  0  0  0  0  0
    6.4985   -3.8538   -2.2178 C   0  0  0  0  0  0  0  0  0  0  0  0
    2.9578   -4.1532   -1.7867 C   0  0  0  0  0  0  0  0  0  0  0  0
  1 10  2  0
  2  8  1  0
  2 13  1  0
  2 14  1  0
  3 11  1  0
  3 17  1  0
  3 18  1  0
  4 17  2  0
  4 21  1  0
  5  6  1  0
  5 10  1  0
  5 11  1  0
  6  7  1  0
  7  8  1  0
  8  9  2  0
  9 10  1  0
  9 12  1  0
 12 13  2  0
 12 15  1  0
 13 16  1  0
 15 19  2  0
 16 20  2  0
 17 22  1  0
 18 21  2  0
 19 20  1  0
M  END
>  <DRUGBANK_ID>  (1) 
DB00904

>  <SECONDARY_ACCESSION_NUMBERS>  (1) 
APRD00481

>  <COMMON_NAME>  (1) 
Ondansetron

>  <CAS_NUMBER>  (1) 
99614-02-5

>  <UNII>  (1) 
4AF302ESOS

>  <SYNONYMS>  (1) 
Ondansetron

$$$$
