
     RDKit          3D

 23 25  0  0  0  0  0  0  0  0999 V2000
    0.8587   -0.1285   -0.1091 C   0  0  0  0  0  0  0  0  0  0  0  0
    0.2701    1.1589    0.1475 O   0  0  0  0  0  0  0  0  0  0  0  0
    0.3901    1.4153    1.4913 C   0  0  0  0  0  0  0  0  0  0  0  0
    1.6169    1.2160    2.0997 C   0  0  0  0  0  0  0  0  0  0  0  0
    1.6987    1.3844    3.4979 C   0  0  0  0  0  0  0  0  0  0  0  0
    0.6917    2.1501    4.2597 C   0  0  0  0  0  0  0  0  0  0  0  0
    1.1734    3.2419    5.8834 S   0  0  0  0  0  0  0  0  0  0  0  0
    1.0077    5.2418    5.4885 C   0  0  0  0  0  0  0  0  0  0  0  0
   -0.4262    5.6468    5.1850 C   0  0  0  0  0  0  0  0  0  0  0  0
   -0.9291    5.0501    3.9461 N   0  0  0  0  0  0  0  0  0  0  0  0
   -0.2791    5.5840    2.6892 C   0  0  0  0  0  0  0  0  0  0  0  0
    1.2496    5.3929    2.5177 C   0  0  0  0  0  0  0  0  0  0  0  0
    1.6979    4.1385    2.5820 C   0  0  0  0  0  0  0  0  0  0  0  0
    2.8245    3.7833    3.3311 C   0  0  0  0  0  0  0  0  0  0  0  0
    3.9829    4.3356    3.0530 C   0  0  0  0  0  0  0  0  0  0  0  0
    3.7426    5.6168    2.5670 C   0  0  0  0  0  0  0  0  0  0  0  0
    2.3686    6.1916    2.4436 C   0  0  0  0  0  0  0  0  0  0  0  0
    5.1956    3.5521    3.4662 C   0  0  0  0  0  0  0  0  0  0  0  0
    5.1884    2.2512    3.8628 O   0  0  0  0  0  0  0  0  0  0  0  0
    6.3023    4.1336    3.4276 O   0  0  0  0  0  0  0  0  0  0  0  0
   -1.3644    3.6287    4.1131 C   0  0  0  0  0  0  0  0  0  0  0  0
   -0.4869    2.5088    3.5818 C   0  0  0  0  0  0  0  0  0  0  0  0
   -0.6644    2.0245    2.2260 C   0  0  0  0  0  0  0  0  0  0  0  0
  1  2  1  0
  2  3  1  0
  3  4  2  0
  3 23  1  0
  4  5  1  0
  5  6  2  0
  6  7  1  0
  6 22  1  0
  7  8  1  0
  8  9  1  0
  9 10  1  0
 10 11  1  0
 10 21  1  0
 11 12  1  0
 12 13  2  0
 12 17  1  0
 13 14  1  0
 14 15  2  0
 15 16  1  0
 15 18  1  0
 16 17  2  0
 18 19  1  0
 18 20  2  0
 21 22  1  0
 22 23  2  0
M  END
>  <DRUGBANK_ID>  (1) 
DB16944

>  <COMMON_NAME>  (1) 
ARM-210

>  <CAS_NUMBER>  (1) 
1467605-57-7

>  <UNII>  (1) 
1033GN605L

>  <SYNONYMS>  (1) 
4-((7-methoxy-2,3-dihydro-1,4-benzothiazepin-4(5h)-yl)methyl)benzoic acid; Benzoic acid, 4-((2,3-dihydro-7-methoxy-1,4-benzothiazepin-4(5h)-yl)methyl)-; Rycal dmd

$$$$
