
     RDKit          3D

 33 36  0  0  0  0  0  0  0  0999 V2000
    2.6671   -3.5147    1.1234 C   0  0  2  0  0  0  0  0  0  0  0  0
    0.8459   -1.6244   -2.5204 C   0  0  1  0  0  0  0  0  0  0  0  0
    4.0866   -3.1267    1.5357 C   0  0  0  0  0  0  0  0  0  0  0  0
    2.2145   -2.2527   -2.5029 C   0  0  1  0  0  0  0  0  0  0  0  0
    2.7551   -2.3765   -1.1332 C   0  0  1  0  0  0  0  0  0  0  0  0
    2.0677   -3.4197   -0.2944 C   0  0  2  0  0  0  0  0  0  0  0  0
    1.2393   -1.5161   -4.1879 C   0  0  2  0  0  0  0  0  0  0  0  0
    2.0655   -2.2392    1.5852 C   0  0  0  0  0  0  0  0  0  0  0  0
    0.0476   -2.7939   -1.5200 C   0  0  0  0  0  0  0  0  0  0  0  0
    0.5381   -3.1649   -0.1820 C   0  0  2  0  0  0  0  0  0  0  0  0
    2.0986   -3.5039   -3.4714 C   0  0  0  0  0  0  0  0  0  0  0  0
    1.3853   -3.0292   -4.7169 C   0  0  1  0  0  0  0  0  0  0  0  0
    4.2144   -2.6404   -1.2123 C   0  0  0  0  0  0  0  0  0  0  0  0
    4.8645   -2.6934    0.2054 C   0  0  2  0  0  0  0  0  0  0  0  0
    4.1713   -2.4530    2.7975 C   0  0  0  0  0  0  0  0  0  0  0  0
   -1.6911   -0.0343   -3.5097 C   0  0  0  0  0  0  0  0  0  0  0  0
    1.6383   -1.9106    2.7937 C   0  0  0  0  0  0  0  0  0  0  0  0
    1.6586    0.0186   -4.3254 C   0  0  0  0  0  0  0  0  0  0  0  0
    2.9841   -1.4093    3.1366 C   0  0  0  0  0  0  0  0  0  0  0  0
   -1.9092   -1.3626   -4.3203 C   0  0  0  0  0  0  0  0  0  0  0  0
   -0.7395    0.9177   -3.8424 O   0  0  0  0  0  0  0  0  0  0  0  0
   -2.3724    0.1657   -2.5029 O   0  0  0  0  0  0  0  0  0  0  0  0
    0.4847    1.0129   -4.6909 C   0  0  0  0  0  0  0  0  0  0  0  0
    2.7983    0.4382   -4.1254 O   0  0  0  0  0  0  0  0  0  0  0  0
    3.1310   -0.1934    3.4684 O   0  0  0  0  0  0  0  0  0  0  0  0
    2.2150   -4.9140    1.5956 C   0  0  0  0  0  0  0  0  0  0  0  0
    0.6093   -0.3007   -1.6681 C   0  0  0  0  0  0  0  0  0  0  0  0
    5.9670   -3.4740    0.0246 F   0  0  0  0  0  0  0  0  0  0  0  0
   -0.0362   -2.1437    0.6402 O   0  0  0  0  0  0  0  0  0  0  0  0
    0.0096   -3.6368   -5.1079 C   0  0  0  0  0  0  0  0  0  0  0  0
   -1.8705   -2.6350   -3.3037 C   0  0  0  0  0  0  0  0  0  0  0  0
   -3.2672   -1.7278   -4.7808 C   0  0  0  0  0  0  0  0  0  0  0  0
   -1.1999   -1.0918   -5.6954 C   0  0  0  0  0  0  0  0  0  0  0  0
  1 26  1  1
  2  9  1  0
  2 27  1  1
  2  4  1  0
  3  1  1  0
  4  5  1  0
  5  6  1  0
  5 13  1  6
  6  1  1  0
  7  2  1  0
  7 18  1  1
  8  1  1  0
  9 10  1  0
  6 10  1  1
 10 29  1  1
  4 11  1  1
 12 11  1  0
 12  7  1  0
 12 30  1  1
 13 14  1  0
 14  3  1  0
 14 28  1  6
 15  3  2  0
 16 21  1  0
 17  8  2  0
 17 19  1  0
 19 15  1  0
 20 16  1  0
 21 23  1  0
 22 16  2  0
 23 18  1  0
 24 18  2  0
 25 19  2  0
 31 20  1  0
 32 20  1  0
 33 20  1  0
M  END
>  <DRUGBANK_ID>  (1) 
DB15777

>  <COMMON_NAME>  (1) 
Fluocortolone pivalate

>  <CAS_NUMBER>  (1) 
29205-06-9

>  <UNII>  (1) 
9J8AL6K50Q

>  <SYNONYMS>  (1) 
Fluocortolone 21-pivalate; Fluocortolone trimethylacetate

$$$$
