
     RDKit          3D

 32 35  0  0  0  0  0  0  0  0999 V2000
   -0.6696   -3.4791    0.1992 N   0  0  0  0  0  0  0  0  0  0  0  0
   -2.0993   -3.2189    0.0909 C   0  0  0  0  0  0  0  0  0  0  0  0
   -2.8130   -4.5556    0.0248 C   0  0  1  0  0  0  0  0  0  0  0  0
   -1.6074   -5.4538    0.1764 C   0  0  0  0  0  0  0  0  0  0  0  0
   -0.4565   -4.8540    0.2890 N   0  0  0  0  0  0  0  0  0  0  0  0
    2.8397   -0.7683    1.5400 C   0  0  0  0  0  0  0  0  0  0  0  0
    2.7030    0.6125    1.3110 C   0  0  0  0  0  0  0  0  0  0  0  0
    2.6986    1.5012    2.3910 C   0  0  0  0  0  0  0  0  0  0  0  0
    2.8531    1.0128    3.6874 C   0  0  0  0  0  0  0  0  0  0  0  0
    2.9969   -0.3579    3.9149 C   0  0  0  0  0  0  0  0  0  0  0  0
    2.9939   -1.2546    2.8396 C   0  0  0  0  0  0  0  0  0  0  0  0
    2.8823    2.1110    5.0127 Cl  0  0  0  0  0  0  0  0  0  0  0  0
    2.9048   -1.9143    0.1472 S   0  0  0  0  0  0  0  0  0  0  0  0
    1.6169   -2.8944    0.2684 N   0  0  0  0  0  0  0  0  0  0  0  0
    4.1318   -2.6732    0.3521 O   0  0  0  0  0  0  0  0  0  0  0  0
    2.7709   -1.0804   -1.0311 O   0  0  0  0  0  0  0  0  0  0  0  0
    0.3647   -2.5120    0.1704 C   0  0  0  0  0  0  0  0  0  0  0  0
    0.0309   -1.1800    0.0357 N   0  0  0  0  0  0  0  0  0  0  0  0
   -1.1892   -0.4315   -0.0323 C   0  0  0  0  0  0  0  0  0  0  0  0
   -1.7717   -6.9333    0.2208 C   0  0  0  0  0  0  0  0  0  0  0  0
   -3.9179   -4.6626    1.0671 C   0  0  0  0  0  0  0  0  0  0  0  0
   -5.0600   -3.8476    1.0301 C   0  0  0  0  0  0  0  0  0  0  0  0
   -6.0803   -4.0166    1.9794 C   0  0  0  0  0  0  0  0  0  0  0  0
   -6.0041   -5.0326    2.9324 C   0  0  0  0  0  0  0  0  0  0  0  0
   -4.8966   -5.8548    2.9637 C   0  0  0  0  0  0  0  0  0  0  0  0
   -3.8448   -5.5978    2.1010 C   0  0  0  0  0  0  0  0  0  0  0  0
   -2.4667   -7.6099   -0.7859 C   0  0  0  0  0  0  0  0  0  0  0  0
   -2.7212   -8.9816   -0.6523 C   0  0  0  0  0  0  0  0  0  0  0  0
   -2.3352   -9.6583    0.5064 C   0  0  0  0  0  0  0  0  0  0  0  0
   -1.6795   -8.9811    1.5310 C   0  0  0  0  0  0  0  0  0  0  0  0
   -1.3656   -7.6278    1.3730 C   0  0  0  0  0  0  0  0  0  0  0  0
   -2.6671  -11.3388    0.6706 Cl  0  0  0  0  0  0  0  0  0  0  0  0
  1  2  1  0
  2  3  1  0
  3  4  1  0
  3 21  1  1
  4  5  2  0
  4 20  1  0
  5  1  1  0
  6 13  1  0
  6  7  2  0
  7  8  1  0
  8  9  2  0
  9 10  1  0
  9 12  1  0
 10 11  2  0
 11  6  1  0
 13 16  2  0
 13 14  1  0
 13 15  2  0
 14 17  2  0
 17  1  1  0
 17 18  1  0
 18 19  1  0
 20 27  2  0
 21 22  2  0
 22 23  1  0
 23 24  2  0
 24 25  1  0
 25 26  2  0
 26 21  1  0
 27 28  1  0
 28 29  2  0
 29 30  1  0
 29 32  1  0
 30 31  2  0
 31 20  1  0
M  END
>  <DRUGBANK_ID>  (1) 
DB12649

>  <COMMON_NAME>  (1) 
Ibipinabant

>  <CAS_NUMBER>  (1) 
464213-10-3

>  <UNII>  (1) 
O5CSC6WH1T

>  <SYNONYMS>  (1) 
Ibipinabant; Ibipinabantum

$$$$
