
     RDKit          3D

 30 34  0  0  0  0  0  0  0  0999 V2000
    0.9096   -0.0037    0.0041 O   0  0  0  0  0  0  0  0  0  0  0  0
    0.3092   -1.2700   -0.1456 N   0  0  0  0  0  0  0  0  0  0  0  0
   -0.9899   -1.1991   -0.1237 C   0  0  0  0  0  0  0  0  0  0  0  0
   -1.7757    0.0229    0.0216 C   0  0  0  0  0  0  0  0  0  0  0  0
   -3.1122   -0.0251    0.0171 C   0  0  0  0  0  0  0  0  0  0  0  0
   -3.9058   -1.1611   -0.0591 O   0  0  0  0  0  0  0  0  0  0  0  0
   -3.2378   -2.3406   -0.2529 C   0  0  0  0  0  0  0  0  0  0  0  0
   -1.8864   -2.3469   -0.3216 C   0  0  0  0  0  0  0  0  0  0  0  0
   -1.3109   -3.5227   -0.6882 C   0  0  0  0  0  0  0  0  0  0  0  0
   -2.0082   -4.6271   -1.1857 C   0  0  0  0  0  0  0  0  0  0  0  0
   -1.3571   -5.9466   -1.4799 C   0  0  0  0  0  0  0  0  0  0  0  0
   -0.0354   -5.8311   -2.2222 C   0  0  0  0  0  0  0  0  0  0  0  0
    1.0413   -4.9068   -1.5884 C   0  0  0  0  0  0  0  0  0  0  0  0
    1.6177   -5.2667   -0.2460 N   0  0  0  0  0  0  0  0  0  0  0  0
    1.8044   -6.7311   -0.1528 C   0  0  0  0  0  0  0  0  0  0  0  0
    0.5227   -7.5369    0.0306 C   0  0  0  0  0  0  0  0  0  0  0  0
   -0.2642   -7.0456    1.1596 O   0  0  0  0  0  0  0  0  0  0  0  0
   -0.3712   -5.5998    1.2886 C   0  0  0  0  0  0  0  0  0  0  0  0
    0.9015   -4.8281    1.0017 C   0  0  0  0  0  0  0  0  0  0  0  0
   -3.3553   -4.5869   -1.1339 C   0  0  0  0  0  0  0  0  0  0  0  0
   -3.9682   -3.5178   -0.4805 C   0  0  0  0  0  0  0  0  0  0  0  0
   -3.8320    1.2392    0.1239 C   0  0  0  0  0  0  0  0  0  0  0  0
   -3.5758    2.2207   -0.8100 C   0  0  0  0  0  0  0  0  0  0  0  0
   -4.0085    3.4893   -0.4651 C   0  0  0  0  0  0  0  0  0  0  0  0
   -4.8436    3.7141    0.6067 C   0  0  0  0  0  0  0  0  0  0  0  0
   -5.2010    5.0821    0.7931 C   0  0  0  0  0  0  0  0  0  0  0  0
   -4.6326    5.9624   -0.0580 C   0  0  0  0  0  0  0  0  0  0  0  0
   -3.5985    4.8926   -1.2887 S   0  0  0  0  0  0  0  0  0  0  0  0
   -5.2580    2.6031    1.3283 C   0  0  0  0  0  0  0  0  0  0  0  0
   -4.6700    1.4024    1.1631 N   0  0  0  0  0  0  0  0  0  0  0  0
  1  2  1  0
  2  3  2  0
  3  4  1  0
  3  8  1  0
  4  5  2  0
  5  6  1  0
  5 22  1  0
  6  7  1  0
  7  8  2  0
  7 21  1  0
  8  9  1  0
  9 10  2  0
 10 11  1  0
 10 20  1  0
 11 12  1  0
 12 13  1  0
 13 14  1  0
 14 15  1  0
 14 19  1  0
 15 16  1  0
 16 17  1  0
 17 18  1  0
 18 19  1  0
 20 21  2  0
 22 23  2  0
 22 30  1  0
 23 24  1  0
 24 25  2  0
 24 28  1  0
 25 26  1  0
 25 29  1  0
 26 27  2  0
 27 28  1  0
 29 30  2  0
M  END
>  <DRUGBANK_ID>  (1) 
DB15292

>  <COMMON_NAME>  (1) 
Foliglurax

>  <CAS_NUMBER>  (1) 
1883329-53-0

>  <UNII>  (1) 
FR50CP1D6W

>  <SYNONYMS>  (1) 
Foliglurax

$$$$
