
     RDKit          3D

 30 31  0  0  0  0  0  0  0  0999 V2000
    1.0756    0.0197    0.3778 C   0  0  0  0  0  0  0  0  0  0  0  0
    0.6020   -1.4275    0.5054 C   0  0  0  0  0  0  0  0  0  0  0  0
    1.1634   -2.0148    1.8002 C   0  0  0  0  0  0  0  0  0  0  0  0
   -0.8985   -1.3988    0.7801 C   0  0  0  0  0  0  0  0  0  0  0  0
    1.0581   -2.2986   -0.7371 C   0  0  0  0  0  0  0  0  0  0  0  0
    0.5481   -1.9138   -2.1960 C   0  0  0  0  0  0  0  0  0  0  0  0
    1.1181   -0.5693   -2.6827 C   0  0  0  0  0  0  0  0  0  0  0  0
    1.0735   -2.9484   -3.2287 C   0  0  0  0  0  0  0  0  0  0  0  0
   -0.9797   -1.9738   -2.1204 C   0  0  0  0  0  0  0  0  0  0  0  0
   -1.5119   -3.2004   -1.6546 C   0  0  0  0  0  0  0  0  0  0  0  0
   -2.7552   -3.2745   -1.0413 C   0  0  0  0  0  0  0  0  0  0  0  0
   -3.5716   -2.1483   -1.0209 C   0  0  0  0  0  0  0  0  0  0  0  0
   -4.9145   -2.3215   -0.8296 O   0  0  0  0  0  0  0  0  0  0  0  0
   -5.5043   -3.5735   -1.2932 C   0  0  0  0  0  0  0  0  0  0  0  0
   -5.1241   -4.3165   -2.6292 C   0  0  0  0  0  0  0  0  0  0  0  0
   -3.9314   -4.4588   -3.3872 O   0  0  0  0  0  0  0  0  0  0  0  0
   -3.3873   -3.2286   -3.8525 C   0  0  0  0  0  0  0  0  0  0  0  0
   -3.9138   -2.1265   -4.7690 C   0  0  0  0  0  0  0  0  0  0  0  0
   -5.4528   -1.7338   -4.7368 N   0  0  0  0  0  0  0  0  0  0  0  0
   -5.8030   -0.9771   -3.4567 C   0  0  0  0  0  0  0  0  0  0  0  0
   -5.7409   -0.6573   -5.7714 C   0  0  0  0  0  0  0  0  0  0  0  0
   -6.4329   -2.9232   -5.0652 C   0  0  0  0  0  0  0  0  0  0  0  0
   -5.8783   -3.8972   -6.0649 C   0  0  0  0  0  0  0  0  0  0  0  0
   -5.0500   -3.4762   -7.1134 C   0  0  0  0  0  0  0  0  0  0  0  0
   -4.5725   -4.2724   -8.1047 C   0  0  0  0  0  0  0  0  0  0  0  0
   -4.9355   -5.6148   -8.0911 C   0  0  0  0  0  0  0  0  0  0  0  0
   -5.6540   -6.1096   -7.0033 C   0  0  0  0  0  0  0  0  0  0  0  0
   -6.1355   -5.2789   -5.9956 C   0  0  0  0  0  0  0  0  0  0  0  0
   -3.0994   -0.9083   -1.5444 C   0  0  0  0  0  0  0  0  0  0  0  0
   -1.8162   -0.8349   -2.1426 C   0  0  0  0  0  0  0  0  0  0  0  0
  1  2  1  0
  2  3  1  0
  2  4  1  0
  2  5  1  0
  5  6  1  0
  6  7  1  0
  6  8  1  0
  6  9  1  0
  9 10  2  0
  9 30  1  0
 10 11  1  0
 11 12  2  0
 12 13  1  0
 12 29  1  0
 13 14  1  0
 14 15  1  0
 15 16  1  0
 16 17  1  0
 17 18  1  0
 18 19  1  0
 19 20  1  0
 19 21  1  0
 19 22  1  0
 22 23  1  0
 23 24  2  0
 23 28  1  0
 24 25  1  0
 25 26  2  0
 26 27  1  0
 27 28  2  0
 29 30  2  0
M  CHG  1  19   1
M  END
>  <DRUGBANK_ID>  (1) 
DB11125

>  <COMMON_NAME>  (1) 
Benzethonium

>  <CAS_NUMBER>  (1) 
10172-60-8

>  <UNII>  (1) 
1VU15B70BP

$$$$
