
     RDKit          3D

 33 38  0  0  1  0  0  0  0  0999 V2000
    1.4603   -0.2246    0.0088 C   0  0  0  0  0  0  0  0  0  0  0  0
    0.5827   -1.2946   -0.0469 C   0  0  0  0  0  0  0  0  0  0  0  0
    0.9489    1.0636   -0.0218 C   0  0  0  0  0  0  0  0  0  0  0  0
  -13.6194    0.0315    0.6056 C   0  0  0  0  0  0  0  0  0  0  0  0
  -14.0022    1.5021    0.6721 C   0  0  0  0  0  0  0  0  0  0  0  0
   -0.7967   -1.0702   -0.1788 C   0  0  0  0  0  0  0  0  0  0  0  0
   -0.4371    1.2724   -0.0901 C   0  0  0  0  0  0  0  0  0  0  0  0
  -12.5776   -0.2197   -0.4693 C   0  0  0  0  0  0  0  0  0  0  0  0
   -6.0571    0.4436    0.3668 C   0  0  0  0  0  0  0  0  0  0  0  0
   -5.8769   -0.3545   -1.8492 C   0  0  0  0  0  0  0  0  0  0  0  0
   -7.3218    0.9845    0.1341 C   0  0  0  0  0  0  0  0  0  0  0  0
   -7.2190    0.0492   -2.0408 C   0  0  0  0  0  0  0  0  0  0  0  0
   -3.4222   -3.6478    1.9250 C   0  0  0  0  0  0  0  0  0  0  0  0
   -3.4875   -2.8878    0.7675 C   0  0  0  0  0  0  0  0  0  0  0  0
   -3.5526    0.7144    2.1259 C   0  0  0  0  0  0  0  0  0  0  0  0
  -12.8855    2.4972    0.3600 C   0  0  0  0  0  0  0  0  0  0  0  0
   -3.2021    1.4321    0.7706 C   0  0  0  0  0  0  0  0  0  0  0  0
  -10.4773    2.9236    0.0415 C   0  0  0  0  0  0  0  0  0  0  0  0
   -9.4721    2.6925   -1.1000 C   0  0  0  0  0  0  0  0  0  0  0  0
   -3.8571   -1.6245    3.2217 C   0  0  0  0  0  0  0  0  0  0  0  0
  -10.3204    0.3707   -1.3893 C   0  0  0  0  0  0  0  0  0  0  0  0
   -5.2456   -0.1583   -0.6275 C   0  0  0  0  0  0  0  0  0  0  0  0
   -3.6975   -0.8227    2.0874 C   0  0  0  0  0  0  0  0  0  0  0  0
   -7.9250    0.7777   -1.0747 C   0  0  0  0  0  0  0  0  0  0  0  0
   -1.3661    0.2138   -0.1788 C   0  0  0  0  0  0  0  0  0  0  0  0
  -11.2931    0.5733   -0.1896 C   0  0  1  0  0  0  0  0  0  0  0  0
   -3.6686   -3.0148    3.1372 C   0  0  0  0  0  0  0  0  0  0  0  0
   -3.6643   -1.4886    0.8464 C   0  0  0  0  0  0  0  0  0  0  0  0
   -3.7615   -0.6379   -0.4057 C   0  0  2  0  0  0  0  0  0  0  0  0
  -11.5773    1.9752    0.0774 N   0  0  0  0  0  0  0  0  0  0  0  0
   -9.1800    1.2821   -1.3476 N   0  0  0  0  0  0  0  0  0  0  0  0
   -2.7631    0.4787   -0.2632 N   0  0  0  0  0  0  0  0  0  0  0  0
   -3.6841   -3.7408    4.2951 O   0  0  0  0  0  0  0  0  0  0  0  0
  2  1  2  0
  3  1  1  0
  5  4  1  0
  6  2  1  0
  7  3  2  0
  8  4  1  0
 11  9  2  0
 12 10  1  0
 14 13  2  0
 16  5  1  0
 17 15  1  0
 19 18  1  0
 22  9  1  0
 22 10  2  0
 23 15  1  0
 23 20  1  0
 24 11  1  0
 24 12  2  0
 25  6  2  0
 25  7  1  0
 26  8  1  6
 26 21  1  0
 27 13  1  0
 27 20  2  0
 28 14  1  0
 28 23  2  0
 29 28  1  0
 29 22  1  1
 30 16  1  0
 30 18  1  0
 30 26  1  0
 31 19  1  0
 31 21  1  0
 31 24  1  0
 32 17  1  0
 32 25  1  0
 32 29  1  0
 33 27  1  0
M  END
>  <DRUGBANK_ID>  (1) 
DB03802

>  <SECONDARY_ACCESSION_NUMBERS>  (1) 
EXPT00446

>  <COMMON_NAME>  (1) 
1-[4-(Octahydro-Pyrido[1,2-a]Pyrazin-2-Yl)-Phenyl]-2-Phenyl-1,2,3,4-Tetrahydro-Isoquinolin-6-Ol

$$$$
