
     RDKit          3D

 17 18  0  0  0  0  0  0  0  0999 V2000
   -0.3512   -1.2342   -0.0014 C   0  0  0  0  0  0  0  0  0  0  0  0
   -0.3705    1.0829    0.0965 N   0  0  0  0  0  0  0  0  0  0  0  0
   -0.7559    2.4892    0.0037 C   0  0  0  0  0  0  0  0  0  0  0  0
   -1.1398   -0.1101    0.0219 C   0  0  0  0  0  0  0  0  0  0  0  0
   -2.6527   -0.0230    0.0072 C   0  0  0  0  0  0  0  0  0  0  0  0
    0.9754    0.7109    0.0794 N   0  0  0  0  0  0  0  0  0  0  0  0
    2.0736    1.5777   -0.0019 C   0  0  0  0  0  0  0  0  0  0  0  0
    4.2748    3.2873   -0.1833 C   0  0  0  0  0  0  0  0  0  0  0  0
    4.0846    2.2990   -1.1471 C   0  0  0  0  0  0  0  0  0  0  0  0
    2.9899    1.4411   -1.0523 C   0  0  0  0  0  0  0  0  0  0  0  0
    2.2995    2.5352    0.9891 C   0  0  0  0  0  0  0  0  0  0  0  0
    3.3756    3.4153    0.8759 C   0  0  0  0  0  0  0  0  0  0  0  0
    1.0662   -0.6595   -0.0097 C   0  0  0  0  0  0  0  0  0  0  0  0
    2.1057   -1.3184   -0.0471 O   0  0  0  0  0  0  0  0  0  0  0  0
   -0.5100   -2.6368   -0.0235 N   0  0  0  0  0  0  0  0  0  0  0  0
   -1.7679   -3.3571   -0.0152 C   0  0  0  0  0  0  0  0  0  0  0  0
    0.6520   -3.5628   -0.0118 C   0  0  0  0  0  0  0  0  0  0  0  0
  1  4  2  0
  1 15  1  0
  2  3  1  0
  4  2  1  0
  4  5  1  0
  6 13  1  0
  6  2  1  0
  6  7  1  0
  7 11  1  0
  8  9  2  0
  8 12  1  0
  9 10  1  0
 10  7  2  0
 11 12  2  0
 13  1  1  0
 13 14  2  0
 15 16  1  0
 15 17  1  0
M  END
>  <DRUGBANK_ID>  (1) 
DB01424

>  <COMMON_NAME>  (1) 
Aminophenazone

>  <CAS_NUMBER>  (1) 
58-15-1

>  <UNII>  (1) 
01704YP3MO

>  <SYNONYMS>  (1) 
(Dimethylamino)phenazone; 1-Phenyl-2,3-dimethyl-4-(dimethylamino)-5-pyrazolone; 1-Phenyl-2,3-dimethyl-4-dimethylaminopyrazol-5-one; 1,5-Dimethyl-4-dimethylamino-2-phenyl-3-pyrazolone; 2,3-Dimethyl-4-dimethylamino-1-phenyl-5-pyrazolone; 3-Keto-1,5-dimethyl-4-dimethylamino-2-phenyl-2,3-dihydropyrazole; 4-(Dimethylamino)-1,2-dihydro-1,5-dimethyl-2-phenyl-3H-pyrazol-3-one; 4-(Dimethylamino)-1,5-dimethyl-2-phenyl-1,2-dihydro-3H-pyrazol-3-one; 4-(Dimethylamino)antipyrine; 4-Dimethylamino-1-phenyl-2,3-dimethylpyrazolone; 4-Dimethylamino-2,3-dimethyl-1-phenyl-3-pyrazolin-5-one; 4-Dimethylamino-2,3-dimethyl-1-phenyl-5-pyrazolone; 4-Dimethylaminoantipyrine; 4-Dimethylaminophenazone; Aminofenazona; Aminofenazone; Aminophenazon; Aminophenazone; Aminophenazonum; Aminopyrine; Dimethylaminoantipyrine; Dimethylaminoazophene; Dimethylaminophenazon; Dimethylaminophenazone; Dimethylaminophenyldimethylpyrazolone; Dipyrine

$$$$
