BIG
     RDKit          3D

 23 25  0  0  0  0  0  0  0  0999 V2000
    1.5104   -1.5130    0.0091 C   0  0  0  0  0  0  0  0  0  0  0  0
   -0.0850    0.5448   -0.2490 C   0  0  0  0  0  0  0  0  0  0  0  0
   -0.5703   -0.7554   -0.2990 C   0  0  0  0  0  0  0  0  0  0  0  0
   -2.2833    0.6715   -0.6517 C   0  0  0  0  0  0  0  0  0  0  0  0
   -2.8855    1.3376    2.1173 O   0  0  0  0  0  0  0  0  0  0  0  0
   -3.9752    0.5154    2.5430 C   0  0  2  0  0  0  0  0  0  0  0  0
   -3.3876   -0.5608    3.4770 C   0  0  1  0  0  0  0  0  0  0  0  0
   -4.4784   -1.1374    4.3925 C   0  0  0  0  0  0  0  0  0  0  0  0
   -4.1504   -2.6775    5.3564 S   0  0  0  0  0  0  0  0  0  0  0  0
   -4.0706   -4.1060    4.1807 C   0  0  0  0  0  0  0  0  0  0  0  0
   -5.3189   -4.5061    3.3788 C   0  0  0  0  0  0  0  0  0  0  0  0
   -5.8814   -3.5290    2.3631 C   0  0  0  0  0  0  0  0  0  0  0  0
   -5.0249   -3.5217    1.1284 C   0  0  0  0  0  0  0  0  0  0  0  0
   -2.7527   -1.5175    2.4728 C   0  0  0  0  0  0  0  0  0  0  0  0
   -3.4822   -1.3024    1.2392 N   0  0  0  0  0  0  0  0  0  0  0  0
   -4.5162   -0.2951    1.3668 C   0  0  0  0  0  0  0  0  0  0  0  0
   -2.9322   -1.7010   -0.0478 C   0  0  0  0  0  0  0  0  0  0  0  0
   -1.1621    1.3909   -0.3698 N   0  0  0  0  0  0  0  0  0  0  0  0
    1.2377    0.7770   -0.0327 C   0  0  0  0  0  0  0  0  0  0  0  0
    1.7426    2.0566    0.0906 N   0  0  0  0  0  0  0  0  0  0  0  0
    0.2184   -1.8357   -0.1178 N   0  0  0  0  0  0  0  0  0  0  0  0
   -1.9688   -0.6569   -0.4105 C   0  0  0  0  0  0  0  0  0  0  0  0
    2.0626   -0.2801    0.0585 N   0  0  0  0  0  0  0  0  0  0  0  0
  1 21  2  0
  1 23  1  0
  2  3  2  0
  2 18  1  0
  2 19  1  0
  3 21  1  0
  3 22  1  0
  4 18  1  0
  4 22  2  0
  6  5  1  6
  6  7  1  0
  6 16  1  0
  7 14  1  0
  7  8  1  6
  8  9  1  0
  9 10  1  0
 10 11  1  0
 11 12  1  0
 12 13  1  0
 14 15  1  0
 15 16  1  0
 15 17  1  0
 17 22  1  0
 19 20  1  0
 19 23  2  0
M  END
>  <DRUGBANK_ID>  (1) 
DB07463

>  <COMMON_NAME>  (1) 
(3R,4S)-1-[(4-amino-5H-pyrrolo[3,2-d]pyrimidin-7-yl)methyl]-4-[(butylsulfanyl)methyl]pyrrolidin-3-ol

$$$$
