
     RDKit          3D

 23 25  0  0  0  0  0  0  0  0999 V2000
    2.3632   -1.5685    0.0490 C   0  0  0  0  0  0  0  0  0  0  0  0
    3.5409   -1.0657   -0.4749 C   0  0  0  0  0  0  0  0  0  0  0  0
    3.6490    0.3027   -0.7440 C   0  0  0  0  0  0  0  0  0  0  0  0
    2.5869    1.1644   -0.4581 C   0  0  0  0  0  0  0  0  0  0  0  0
    1.4012    0.6667    0.0628 C   0  0  0  0  0  0  0  0  0  0  0  0
    1.2751   -0.7183    0.2970 C   0  0  0  0  0  0  0  0  0  0  0  0
    0.0180   -1.2735    0.6413 N   0  0  0  0  0  0  0  0  0  0  0  0
    0.0338    1.7715    0.4092 S   0  0  0  0  0  0  0  0  0  0  0  0
   -1.3154    0.6768   -0.0224 C   0  0  0  0  0  0  0  0  0  0  0  0
   -1.1489   -0.7216    0.0635 C   0  0  0  0  0  0  0  0  0  0  0  0
   -2.1696   -1.4866   -0.5476 C   0  0  0  0  0  0  0  0  0  0  0  0
   -2.5204    1.2205   -0.4817 C   0  0  0  0  0  0  0  0  0  0  0  0
   -3.6078    0.4070   -0.8097 C   0  0  0  0  0  0  0  0  0  0  0  0
   -3.4621   -0.9819   -0.7958 C   0  0  0  0  0  0  0  0  0  0  0  0
    0.1246   -2.0499    1.9463 C   0  0  0  0  0  0  0  0  0  0  0  0
   -0.6964   -1.6099    3.1915 C   0  0  0  0  0  0  0  0  0  0  0  0
   -2.1938   -1.4326    2.9800 C   0  0  0  0  0  0  0  0  0  0  0  0
   -2.9659   -2.6913    2.7775 N   0  0  0  0  0  0  0  0  0  0  0  0
   -4.2897   -2.2729    2.3697 C   0  0  0  0  0  0  0  0  0  0  0  0
   -2.4164   -3.5560    1.7393 C   0  0  0  0  0  0  0  0  0  0  0  0
   -0.5661   -2.5944    4.3787 C   0  0  0  0  0  0  0  0  0  0  0  0
   -4.6593   -1.9091   -0.9737 C   0  0  0  0  0  0  0  0  0  0  0  0
   -5.9637   -1.5263   -0.2356 C   0  0  0  0  0  0  0  0  0  0  0  0
  1  2  2  0
  1  6  1  0
  2  3  1  0
  3  4  2  0
  4  5  1  0
  5  8  1  0
  6  5  2  0
  7  6  1  0
  7 10  1  0
  7 15  1  0
  8  9  1  0
  9 12  1  0
 10  9  2  0
 11 10  1  0
 11 14  2  0
 12 13  2  0
 13 14  1  0
 14 22  1  0
 15 16  1  0
 16 17  1  0
 16 21  1  0
 17 18  1  0
 18 19  1  0
 18 20  1  0
 22 23  1  0
M  END
>  <DRUGBANK_ID>  (1) 
DB11517

>  <COMMON_NAME>  (1) 
Etymemazine

>  <UNII>  (1) 
861J4K81C7

>  <SYNONYMS>  (1) 
Ethylisobutrazine; Etymemazine

$$$$
