
     RDKit          3D

 18 18  0  0  0  0  0  0  0  0999 V2000
    0.8787   -0.0561   -0.0327 C   0  0  0  0  0  0  0  0  0  0  0  0
    0.4085   -1.4896   -0.0942 C   0  0  0  0  0  0  0  0  0  0  0  0
   -0.5020   -2.0133    0.9918 C   0  0  0  0  0  0  0  0  0  0  0  0
   -1.8512   -2.3882    0.4266 C   0  0  0  0  0  0  0  0  0  0  0  0
   -2.2637   -3.7024    0.6115 N   0  0  0  0  0  0  0  0  0  0  0  0
   -3.5025   -4.1802    0.1156 C   0  0  0  0  0  0  0  0  0  0  0  0
   -3.9607   -3.8122   -1.1560 C   0  0  0  0  0  0  0  0  0  0  0  0
   -5.2083   -4.2486   -1.6627 C   0  0  0  0  0  0  0  0  0  0  0  0
   -5.5825   -3.8214   -3.0582 C   0  0  0  0  0  0  0  0  0  0  0  0
   -5.5993   -2.4651   -3.1943 F   0  0  0  0  0  0  0  0  0  0  0  0
   -4.6816   -4.2702   -3.9804 F   0  0  0  0  0  0  0  0  0  0  0  0
   -6.7925   -4.2412   -3.5130 F   0  0  0  0  0  0  0  0  0  0  0  0
   -6.0041   -5.0536   -0.8458 C   0  0  0  0  0  0  0  0  0  0  0  0
   -5.5423   -5.4446    0.4181 C   0  0  0  0  0  0  0  0  0  0  0  0
   -4.2869   -5.0344    0.8887 C   0  0  0  0  0  0  0  0  0  0  0  0
   -7.5722   -5.6146   -1.2992 Cl  0  0  0  0  0  0  0  0  0  0  0  0
   -2.5382   -1.5177   -0.1167 O   0  0  0  0  0  0  0  0  0  0  0  0
    0.7645   -2.2237   -1.0195 O   0  0  0  0  0  0  0  0  0  0  0  0
  1  2  1  0
  2  3  1  0
  2 18  2  0
  3  4  1  0
  4  5  1  0
  4 17  2  0
  5  6  1  0
  6  7  2  0
  6 15  1  0
  7  8  1  0
  8  9  1  0
  8 13  2  0
  9 10  1  0
  9 11  1  0
  9 12  1  0
 13 14  1  0
 13 16  1  0
 14 15  2  0
M  END
>  <DRUGBANK_ID>  (1) 
DB16759

>  <COMMON_NAME>  (1) 
Fasentin

>  <CAS_NUMBER>  (1) 
392721-37-8

$$$$
