
     RDKit          3D

 24 28  0  0  1  0  0  0  0  0999 V2000
    1.2045   -0.0603   -0.1799 O   0  0  0  0  0  0  0  0  0  0  0  0
    4.7629    2.6127    0.8675 N   0  0  0  0  0  0  0  0  0  0  0  0
    4.7466   -2.4832   -1.8398 N   0  0  0  0  0  0  0  0  0  0  0  0
    5.2660   -4.6283   -2.0679 N   0  0  0  0  0  0  0  0  0  0  0  0
    4.4570    1.2575    0.6790 C   0  0  0  0  0  0  0  0  0  0  0  0
    3.2787   -1.2502   -0.2215 C   0  0  1  0  0  0  0  0  0  0  0  0
    3.1481    1.2197    0.1898 C   0  0  0  0  0  0  0  0  0  0  0  0
    5.2595   -0.0167    0.8778 C   0  0  0  0  0  0  0  0  0  0  0  0
    3.7525    3.3541    0.2531 C   0  0  0  0  0  0  0  0  0  0  0  0
    4.2880   -1.2435    0.9397 C   0  0  0  0  0  0  0  0  0  0  0  0
    2.6766    2.5278    0.0213 C   0  0  0  0  0  0  0  0  0  0  0  0
    5.3880    3.3581    1.9828 C   0  0  0  0  0  0  0  0  0  0  0  0
    2.4196   -0.0122   -0.0749 C   0  0  0  0  0  0  0  0  0  0  0  0
    3.6890    4.7438    0.1617 C   0  0  0  0  0  0  0  0  0  0  0  0
    5.3937    4.9481    1.8645 C   0  0  0  0  0  0  0  0  0  0  0  0
    4.9121    5.5118    0.5212 C   0  0  0  0  0  0  0  0  0  0  0  0
    3.9334   -1.2928   -1.6175 C   0  0  0  0  0  0  0  0  0  0  0  0
    1.4422    3.0983   -0.3090 C   0  0  0  0  0  0  0  0  0  0  0  0
    2.4428    5.3027   -0.1189 C   0  0  0  0  0  0  0  0  0  0  0  0
    1.3325    4.4895   -0.3450 C   0  0  0  0  0  0  0  0  0  0  0  0
    4.2773   -3.7773   -1.8886 C   0  0  0  0  0  0  0  0  0  0  0  0
    6.1051   -2.5374   -2.0311 C   0  0  0  0  0  0  0  0  0  0  0  0
    6.3997   -3.8751   -2.1663 C   0  0  0  0  0  0  0  0  0  0  0  0
    2.8576   -4.1723   -1.7341 C   0  0  0  0  0  0  0  0  0  0  0  0
  1 13  2  0
  2  5  1  0
  2  9  1  0
  2 12  1  0
  3 17  1  0
  3 21  1  0
  3 22  1  0
  4 21  2  0
  4 23  1  0
  5  7  2  0
  5  8  1  0
  6 10  1  0
  6 13  1  0
  6 17  1  6
  7 11  1  0
  7 13  1  0
  8 10  1  0
  9 11  2  0
  9 14  1  0
 11 18  1  0
 12 15  1  0
 14 16  1  0
 14 19  2  0
 15 16  1  0
 18 20  2  0
 19 20  1  0
 21 24  1  0
 22 23  2  0
M  END
>  <DRUGBANK_ID>  (1) 
DB04885

>  <COMMON_NAME>  (1) 
Cilansetron

>  <CAS_NUMBER>  (1) 
120635-74-7

>  <UNII>  (1) 
2J6DQ1U5B5

>  <SYNONYMS>  (1) 
Cilansetron

$$$$
