
     RDKit          3D

 16 16  0  0  0  0  0  0  0  0999 V2000
    0.9306    0.0162   -0.0365 S   0  0  0  0  0  0  0  0  0  0  0  0
    0.3619   -1.1448    1.0558 N   0  0  0  0  0  0  0  0  0  0  0  0
    2.3763   -0.0511   -0.1346 O   0  0  0  0  0  0  0  0  0  0  0  0
    0.2504    1.2543    0.2578 O   0  0  0  0  0  0  0  0  0  0  0  0
    3.3047   -1.6713    3.3075 C   0  0  0  0  0  0  0  0  0  0  0  0
    2.3009   -1.0184    2.5812 C   0  0  0  0  0  0  0  0  0  0  0  0
    1.2756   -1.7455    1.9762 C   0  0  0  0  0  0  0  0  0  0  0  0
    4.5723   -0.9134    3.6492 C   0  0  0  0  0  0  0  0  0  0  0  0
    0.3003   -0.6072   -1.5748 C   0  0  0  0  0  0  0  0  0  0  0  0
    5.6755   -1.4989    1.4684 N   0  0  0  0  0  0  0  0  0  0  0  0
    4.7585   -0.9292    5.0617 O   0  0  0  0  0  0  0  0  0  0  0  0
    3.1959   -3.0496    3.5346 C   0  0  0  0  0  0  0  0  0  0  0  0
    2.1320   -3.7656    2.9887 C   0  0  0  0  0  0  0  0  0  0  0  0
    5.8058   -1.5214    2.9337 C   0  0  0  0  0  0  0  0  0  0  0  0
    1.1448   -3.1056    2.2516 C   0  0  0  0  0  0  0  0  0  0  0  0
    6.8201   -2.1212    0.8298 C   0  0  0  0  0  0  0  0  0  0  0  0
  2  1  1  0
  3  1  2  0
  4  1  2  0
  5  6  2  0
  6  7  1  0
  7  2  1  0
  8  5  1  0
  8 11  1  0
  9  1  1  0
 10 14  1  0
 12  5  1  0
 13 15  1  0
 13 12  2  0
 14  8  1  0
 15  7  2  0
 16 10  1  0
M  END
>  <DRUGBANK_ID>  (1) 
DB16623

>  <COMMON_NAME>  (1) 
Amidephrine

>  <CAS_NUMBER>  (1) 
37571-84-9

>  <UNII>  (1) 
7E2P22546V

>  <SYNONYMS>  (1) 
Amidefrine; Amidephrine

$$$$
