
     RDKit          3D

 22 22  0  0  1  0  0  0  0  0999 V2000
    1.0316   -0.4089    0.3015 C   0  0  0  0  0  0  0  0  0  0  0  0
    0.5568   -1.2744   -0.7186 O   0  0  0  0  0  0  0  0  0  0  0  0
    0.9872   -0.9782   -2.0458 C   0  0  0  0  0  0  0  0  0  0  0  0
    0.4504    0.3459   -2.5995 C   0  0  0  0  0  0  0  0  0  0  0  0
    1.0350    1.5911   -1.9331 C   0  0  0  0  0  0  0  0  0  0  0  0
    2.5639    1.5235   -1.9355 C   0  0  0  0  0  0  0  0  0  0  0  0
    3.0420    1.6178   -3.3874 C   0  0  0  0  0  0  0  0  0  0  0  0
    2.5227    2.9192   -4.0170 C   0  0  0  0  0  0  0  0  0  0  0  0
    2.9288    4.0860   -3.1345 C   0  0  0  0  0  0  0  0  0  0  0  0
    4.4387    4.0280   -2.9533 C   0  0  0  0  0  0  0  0  0  0  0  0
    5.1660    4.3587   -4.2625 C   0  0  0  0  0  0  0  0  0  0  0  0
    4.7671    5.6595   -4.8034 N   0  0  0  0  0  0  0  0  0  0  0  0
    5.0834    5.7301   -6.2446 C   0  0  0  0  0  0  0  0  0  0  0  0
    4.5060    6.9979   -6.8878 C   0  0  2  0  0  0  0  0  0  0  0  0
    4.8000    7.0136   -8.2870 O   0  0  0  0  0  0  0  0  0  0  0  0
    5.0773    8.2252   -6.1667 C   0  0  1  0  0  0  0  0  0  0  0  0
    4.5452    9.4347   -6.7143 O   0  0  0  0  0  0  0  0  0  0  0  0
    4.7782    8.1368   -4.6630 C   0  0  2  0  0  0  0  0  0  0  0  0
    5.3579    9.2629   -3.9946 O   0  0  0  0  0  0  0  0  0  0  0  0
    5.3322    6.8242   -4.0677 C   0  0  1  0  0  0  0  0  0  0  0  0
    5.0910    6.8804   -2.5332 C   0  0  0  0  0  0  0  0  0  0  0  0
    6.0982    6.1349   -1.8259 O   0  0  0  0  0  0  0  0  0  0  0  0
  1  2  1  0
  2  3  1  0
  3  4  1  0
  4  5  1  0
  5  6  1  0
  6  7  1  0
  7  8  1  0
  8  9  1  0
  9 10  1  0
 10 11  1  0
 11 12  1  0
 12 13  1  0
 14 13  1  0
 14 15  1  6
 16 14  1  0
 16 17  1  6
 16 18  1  0
 18 19  1  1
 18 20  1  0
 20 12  1  0
 20 21  1  1
 21 22  1  0
M  END
>  <DRUGBANK_ID>  (1) 
DB17804

>  <COMMON_NAME>  (1) 
N-9-Methoxynonyldeoxynojirimycin

>  <CAS_NUMBER>  (1) 
615253-61-7

>  <UNII>  (1) 
3P161BU63E

>  <SYNONYMS>  (1) 
3,4,5-piperidinetriol, 2-(hydroxymethyl)-1-(9-methoxynonyl)-, (2r,3r,4r,5s)-

$$$$
