
     RDKit          3D

 17 14  0  0  0  0  0  0  0  0999 V2000
    0.2580    0.4813   -0.7328 C   0  0  0  0  0  0  0  0  0  0  0  0
   -0.3244   -0.3656    0.8759 C   0  0  0  0  0  0  0  0  0  0  0  0
   -1.4236    0.1149    1.2612 O   0  0  0  0  0  0  0  0  0  0  0  0
    0.2464   -1.8451    1.7435 C   0  0  0  0  0  0  0  0  0  0  0  0
   -0.0455   -3.1144    1.0286 C   0  0  0  0  0  0  0  0  0  0  0  0
    0.7262   -3.1422   -0.2837 C   0  0  0  0  0  0  0  0  0  0  0  0
    1.7076   -3.9128   -0.3761 O   0  0  0  0  0  0  0  0  0  0  0  0
    0.1934   -2.3422   -1.1356 O   0  0  0  0  0  0  0  0  0  0  0  0
    2.1923   -0.1407    0.2627 C   0  0  0  0  0  0  0  0  0  0  0  0
    1.3894    1.3025    1.1991 C   0  0  0  0  0  0  0  0  0  0  0  0
    0.5377    2.1298    0.7444 O   0  0  0  0  0  0  0  0  0  0  0  0
    1.3462    1.4795    2.6880 C   0  0  0  0  0  0  0  0  0  0  0  0
    0.7983    0.3865    3.5760 C   0  0  0  0  0  0  0  0  0  0  0  0
    1.9178   -0.6271    3.5225 C   0  0  0  0  0  0  0  0  0  0  0  0
    2.0264   -1.4175    4.4467 O   0  0  0  0  0  0  0  0  0  0  0  0
    2.6293   -0.5957    2.4397 O   0  0  0  0  0  0  0  0  0  0  0  0
   -2.2185    0.0988   -0.8384 Ca  0  0  0  0  0 15  0  0  0  0  0  0
  1  2  1  0
  2  3  2  0
  2  4  1  0
  4  5  1  0
  5  6  1  0
  6  7  2  0
  6  8  1  0
  9 10  1  0
 10 11  2  0
 10 12  1  0
 12 13  1  0
 13 14  1  0
 14 15  2  0
 14 16  1  0
M  CHG  3   8  -1  16  -1  17   2
M  END
>  <DRUGBANK_ID>  (1) 
DB13800

>  <COMMON_NAME>  (1) 
Calcium levulinate

>  <CAS_NUMBER>  (1) 
591-64-0

>  <UNII>  (1) 
LLQ966USIL

>  <SYNONYMS>  (1) 
Calcium laevulate; Calcium levulinate anhydrous

$$$$
