
     RDKit          3D

 10 10  0  0  0  0  0  0  0  0999 V2000
    0.9787   -0.0242    0.0410 C   0  0  0  0  0  0  0  0  0  0  0  0
   -0.3689    0.6856   -1.9563 C   0  0  0  0  0  0  0  0  0  0  0  0
    2.0768    2.7753   -0.2001 C   0  0  0  0  0  0  0  0  0  0  0  0
   -0.2092    3.3406   -0.6253 C   0  0  0  0  0  0  0  0  0  0  0  0
    2.3698    4.1237    0.0570 C   0  0  0  0  0  0  0  0  0  0  0  0
    0.0665    4.6836   -0.3485 C   0  0  0  0  0  0  0  0  0  0  0  0
    0.7867    2.3537   -0.5603 C   0  0  0  0  0  0  0  0  0  0  0  0
    1.3548    5.0685   -0.0203 C   0  0  0  0  0  0  0  0  0  0  0  0
    0.5122    1.0256   -0.8503 N   0  0  0  0  0  0  0  0  0  0  0  0
    1.5781    6.3919    0.2173 O   0  0  0  0  0  0  0  0  0  0  0  0
  5  3  2  0
  6  4  1  0
  7  3  1  0
  7  4  2  0
  8  5  1  0
  8  6  2  0
  9  1  1  0
  9  2  1  0
  9  7  1  0
 10  8  1  0
M  END
>  <DRUGBANK_ID>  (1) 
DB13549

>  <COMMON_NAME>  (1) 
4-dimethylaminophenol

>  <CAS_NUMBER>  (1) 
619-60-3

>  <UNII>  (1) 
X387L5559O

$$$$
