ebastine
     RDKit          3D

 35 38  0  0  0  0  0  0  0  0999 V2000
    0.7517   -0.0418    0.0683 C   0  0  0  0  0  0  0  0  0  0  0  0
    0.5182    1.2796    0.6371 O   0  0  0  0  0  0  0  0  0  0  0  0
    0.3445   -0.1437   -1.4084 C   0  0  0  0  0  0  0  0  0  0  0  0
    0.2974   -1.2019    0.9895 C   0  0  0  0  0  0  0  0  0  0  0  0
    1.0549    1.5333    1.9649 C   0  0  0  0  0  0  0  0  0  0  0  0
    0.4932   -1.3563   -2.1059 C   0  0  0  0  0  0  0  0  0  0  0  0
   -0.1150    0.9337   -2.1602 C   0  0  0  0  0  0  0  0  0  0  0  0
    0.6582   -2.5221    0.7085 C   0  0  0  0  0  0  0  0  0  0  0  0
   -0.2539   -1.0074    2.2620 C   0  0  0  0  0  0  0  0  0  0  0  0
    1.2430    3.0114    2.2133 C   0  0  0  0  0  0  0  0  0  0  0  0
    2.3555    0.7916    2.2732 C   0  0  0  0  0  0  0  0  0  0  0  0
   -0.1180   -1.6217   -3.3149 C   0  0  0  0  0  0  0  0  0  0  0  0
   -0.6624    0.7081   -3.4322 C   0  0  0  0  0  0  0  0  0  0  0  0
    0.4558   -3.5675    1.5923 C   0  0  0  0  0  0  0  0  0  0  0  0
   -0.1826   -1.9856    3.2500 C   0  0  0  0  0  0  0  0  0  0  0  0
    2.3912    3.4370    1.3527 C   0  0  0  0  0  0  0  0  0  0  0  0
    3.4329    1.2491    1.3391 C   0  0  0  0  0  0  0  0  0  0  0  0
   -0.7052   -0.5754   -3.9858 C   0  0  0  0  0  0  0  0  0  0  0  0
    0.0933   -3.2899    2.8914 C   0  0  0  0  0  0  0  0  0  0  0  0
    3.6495    2.6711    1.4290 N   0  0  0  0  0  0  0  0  0  0  0  0
    4.6164    2.8783    0.3518 C   0  0  0  0  0  0  0  0  0  0  0  0
    4.3092    2.9585   -1.1171 C   0  0  0  0  0  0  0  0  0  0  0  0
    3.2834    4.0642   -1.4114 C   0  0  0  0  0  0  0  0  0  0  0  0
    3.4983    5.5463   -0.8773 C   0  0  0  0  0  0  0  0  0  0  0  0
    3.1522    6.4664   -1.6642 O   0  0  0  0  0  0  0  0  0  0  0  0
    3.9324    6.0460    0.5306 C   0  0  0  0  0  0  0  0  0  0  0  0
    4.9998    5.5673    1.3148 C   0  0  0  0  0  0  0  0  0  0  0  0
    3.2384    7.1097    1.1150 C   0  0  0  0  0  0  0  0  0  0  0  0
    5.1869    5.8442    2.6380 C   0  0  0  0  0  0  0  0  0  0  0  0
    3.6407    7.6167    2.3730 C   0  0  0  0  0  0  0  0  0  0  0  0
    4.5861    6.9404    3.1724 C   0  0  0  0  0  0  0  0  0  0  0  0
    5.0540    7.3572    4.5508 C   0  0  0  0  0  0  0  0  0  0  0  0
    5.7585    8.7067    4.3993 C   0  0  0  0  0  0  0  0  0  0  0  0
    3.8177    7.4159    5.4411 C   0  0  0  0  0  0  0  0  0  0  0  0
    6.0662    6.3545    5.1914 C   0  0  0  0  0  0  0  0  0  0  0  0
  1  2  1  0
  1  3  1  0
  1  4  1  0
  2  5  1  0
  3  6  2  0
  3  7  1  0
  4  8  2  0
  4  9  1  0
  5 10  1  0
  5 11  1  0
  6 12  1  0
  7 13  2  0
  8 14  1  0
  9 15  2  0
 10 16  1  0
 11 17  1  0
 12 18  2  0
 13 18  1  0
 14 19  2  0
 15 19  1  0
 16 20  1  0
 17 20  1  0
 20 21  1  0
 21 22  1  0
 22 23  1  0
 23 24  1  0
 24 25  2  0
 24 26  1  0
 26 27  2  0
 26 28  1  0
 27 29  1  0
 28 30  2  0
 29 31  2  0
 30 31  1  0
 31 32  1  0
 32 33  1  0
 32 34  1  0
 32 35  1  0
M  END
>  <DRUGBANK_ID>  (1) 
DB11742

>  <COMMON_NAME>  (1) 
Ebastine

>  <CAS_NUMBER>  (1) 
90729-43-4

>  <UNII>  (1) 
TQD7Q784P1

>  <SYNONYMS>  (1) 
Ebastina; Ebastine

$$$$
