
     RDKit          3D

 26 30  0  0  1  0  0  0  0  0999 V2000
    1.0113    0.0831   -0.2268 C   0  0  0  0  0  0  0  0  0  0  0  0
    2.7437    5.5451    3.4968 C   0  0  0  0  0  0  0  0  0  0  0  0
    0.4740   -0.5717    0.9848 C   0  0  0  0  0  0  0  0  0  0  0  0
    4.8005    2.8776    7.4959 C   0  0  0  0  0  0  0  0  0  0  0  0
    3.7615    3.7454    7.1756 C   0  0  0  0  0  0  0  0  0  0  0  0
    2.0936   -2.3400    1.9031 C   0  0  0  0  0  0  0  0  0  0  0  0
    4.9221    1.6485    6.8610 C   0  0  0  0  0  0  0  0  0  0  0  0
    2.7910    3.3981    6.2371 C   0  0  0  0  0  0  0  0  0  0  0  0
    4.6968   -1.0581    4.9228 C   0  0  0  0  0  0  0  0  0  0  0  0
    0.8121   -1.3803    2.8945 C   0  0  0  0  0  0  0  0  0  0  0  0
    2.2903   -3.1569    3.0446 C   0  0  0  0  0  0  0  0  0  0  0  0
    3.7434   -2.2174    4.7381 C   0  0  0  0  0  0  0  0  0  0  0  0
    0.7968    1.3818    2.4634 C   0  0  0  0  0  0  0  0  0  0  0  0
    4.0142    1.3232    5.8525 C   0  0  0  0  0  0  0  0  0  0  0  0
    3.9273    0.2193    5.0066 C   0  0  0  0  0  0  0  0  0  0  0  0
    2.9570    2.1949    5.5393 C   0  0  0  0  0  0  0  0  0  0  0  0
    2.9293    0.5055    4.1162 C   0  0  0  0  0  0  0  0  0  0  0  0
    2.6623   -0.3711    2.9750 C   0  0  2  0  0  0  0  0  0  0  0  0
    1.2561    3.6580    3.3160 C   0  0  0  0  0  0  0  0  0  0  0  0
    1.1799   -0.1065    2.3055 C   0  0  2  0  0  0  0  0  0  0  0  0
    1.0767    2.1647    3.7656 C   0  0  2  0  0  0  0  0  0  0  0  0
    2.9198   -1.9533    3.6047 N   0  0  0  0  0  0  0  0  0  0  0  0
    2.2670    1.6449    4.4671 N   0  0  0  0  0  0  0  0  0  0  0  0
    0.3585    4.3217    2.7207 O   0  0  0  0  0  0  0  0  0  0  0  0
   -0.0548    1.9819    4.6268 O   0  0  0  0  0  0  0  0  0  0  0  0
    2.4747    4.1475    3.5896 O   0  0  0  0  0  0  0  0  0  0  0  0
  3  1  1  0
  5  4  2  0
  7  4  1  0
  8  5  1  0
 10  6  1  0
 11  6  1  0
 12  9  1  0
 14  7  2  0
 15  9  1  0
 15 14  1  0
 16  8  2  0
 16 14  1  0
 17 15  2  0
 18 17  1  0
 20  3  1  6
 20 10  1  0
 20 13  1  0
 20 18  1  0
 21 13  1  0
 21 25  1  1
 21 19  1  0
 22 11  1  0
 22 12  1  0
 18 22  1  1
 23 16  1  0
 23 17  1  0
 23 21  1  0
 24 19  2  0
 26  2  1  0
 26 19  1  0
M  END
>  <DRUGBANK_ID>  (1) 
DB13374

>  <COMMON_NAME>  (1) 
Vincamine

>  <CAS_NUMBER>  (1) 
1617-90-9

>  <UNII>  (1) 
996XVD0JHT

>  <SYNONYMS>  (1) 
Vincamina; Vincamine

$$$$
