
     RDKit          3D

 31 35  0  0  0  0  0  0  0  0999 V2000
    0.8769   -0.0407    0.1192 C   0  0  0  0  0  0  0  0  0  0  0  0
    0.5403   -0.7529   -1.1642 C   0  0  0  0  0  0  0  0  0  0  0  0
    0.1202   -0.3877   -2.4829 N   0  0  0  0  0  0  0  0  0  0  0  0
   -0.0595   -1.5994   -3.1743 C   0  0  0  0  0  0  0  0  0  0  0  0
    0.4152   -2.6696   -2.3965 C   0  0  0  0  0  0  0  0  0  0  0  0
    0.7892   -2.1037   -1.1766 C   0  0  0  0  0  0  0  0  0  0  0  0
    0.4232   -3.9798   -2.9222 C   0  0  0  0  0  0  0  0  0  0  0  0
    0.9438   -5.1987   -2.2076 C   0  0  0  0  0  0  0  0  0  0  0  0
    1.4530   -5.0870   -0.9295 N   0  0  0  0  0  0  0  0  0  0  0  0
    0.9342   -6.2817   -2.7298 O   0  0  0  0  0  0  0  0  0  0  0  0
   -0.0803   -4.1583   -4.2260 C   0  0  0  0  0  0  0  0  0  0  0  0
   -0.5855   -3.0921   -4.9707 C   0  0  0  0  0  0  0  0  0  0  0  0
   -0.5957   -1.8022   -4.4537 C   0  0  0  0  0  0  0  0  0  0  0  0
   -0.4246    0.8679   -3.0510 C   0  0  0  0  0  0  0  0  0  0  0  0
   -1.6386    1.1646   -2.5807 N   0  0  0  0  0  0  0  0  0  0  0  0
   -1.8241    2.4696   -2.5202 C   0  0  0  0  0  0  0  0  0  0  0  0
   -2.9905    2.8632   -3.1899 N   0  0  0  0  0  0  0  0  0  0  0  0
   -3.6387    4.1187   -3.6678 C   0  0  0  0  0  0  0  0  0  0  0  0
   -4.2826    4.1334   -5.1027 C   0  0  0  0  0  0  0  0  0  0  0  0
   -4.6843    2.9954   -5.8205 C   0  0  0  0  0  0  0  0  0  0  0  0
   -5.0789    3.0781   -7.1788 C   0  0  0  0  0  0  0  0  0  0  0  0
   -5.2293    4.3081   -7.8141 C   0  0  0  0  0  0  0  0  0  0  0  0
   -5.0437    5.4632   -7.0690 C   0  0  0  0  0  0  0  0  0  0  0  0
   -4.5518    5.3766   -5.7453 C   0  0  0  0  0  0  0  0  0  0  0  0
   -0.6683    3.2044   -2.2091 C   0  0  0  0  0  0  0  0  0  0  0  0
    0.0996    3.2131   -3.3102 C   0  0  0  0  0  0  0  0  0  0  0  0
    0.3950    1.8782   -3.6440 N   0  0  0  0  0  0  0  0  0  0  0  0
    1.1473    4.4111   -3.0750 C   0  0  0  0  0  0  0  0  0  0  0  0
    1.5172    4.7372   -1.5393 C   0  0  0  0  0  0  0  0  0  0  0  0
    1.6432    3.5905   -0.7265 O   0  0  0  0  0  0  0  0  0  0  0  0
    0.7706    2.6664   -1.3220 C   0  0  0  0  0  0  0  0  0  0  0  0
  1  2  1  0
  2  3  1  0
  2  6  2  0
  3  4  1  0
  3 14  1  0
  4  5  2  0
  4 13  1  0
  5  7  1  0
  6  5  1  0
  7  8  1  0
  7 11  2  0
  8  9  1  0
  8 10  2  0
 12 11  1  0
 13 12  2  0
 14 15  2  0
 14 27  1  0
 15 16  1  0
 16 17  1  0
 16 25  2  0
 17 18  1  0
 18 19  1  0
 19 20  2  0
 19 24  1  0
 20 21  1  0
 21 22  2  0
 23 22  1  0
 24 23  2  0
 25 31  1  0
 26 25  1  0
 26 28  1  0
 27 26  2  0
 28 29  1  0
 29 30  1  0
 31 30  1  0
M  END
>  <DRUGBANK_ID>  (1) 
DB16874

>  <COMMON_NAME>  (1) 
CB-5083

>  <CAS_NUMBER>  (1) 
1542705-92-9

>  <UNII>  (1) 
591IV6UL6J

>  <SYNONYMS>  (1) 
1-(4-(benzylamino)-7,8-dihydro-5H-pyrano[4,3-d]pyrimidin-2-yl)-2-methyl-1H-indole-4-carboxamide; 1-(7,8-Dihydro-4-((phenylmethyl)amino)-5H-pyrano(4,3-d)pyrimidin-2-yl)-2-methyl-1H-indole-4-carboxamide

$$$$
