879
     RDKit          3D

  9  9  0  0  1  0  0  0  0  0999 V2000
   -2.4602    0.7091   -0.0370 F   0  0  0  0  0  0  0  0  0  0  0  0
    2.8025   -0.1897   -0.0194 O   0  0  0  0  0  0  0  0  0  0  0  0
    1.0844    1.2516    0.0530 N   0  0  0  0  0  0  0  0  0  0  0  0
    0.6945   -1.0845    0.0088 N   0  0  0  0  0  0  0  0  0  0  0  0
   -1.4459   -1.8935    0.0090 N   0  0  0  0  0  0  0  0  0  0  0  0
   -0.2494    1.5425    0.0314 C   0  0  0  0  0  0  0  0  0  0  0  0
    1.5838   -0.0339    0.0115 C   0  0  0  0  0  0  0  0  0  0  0  0
   -1.1267    0.5469   -0.0050 C   0  0  0  0  0  0  0  0  0  0  0  0
   -0.5841   -0.8354    0.0037 C   0  0  0  0  0  0  0  0  0  0  0  0
  1  8  1  0
  2  7  2  0
  3  6  1  0
  3  7  1  0
  4  7  1  0
  4  9  2  0
  5  9  1  0
  6  8  2  0
  8  9  1  0
M  END
>  <DRUGBANK_ID>  (1) 
DB01099

>  <SECONDARY_ACCESSION_NUMBERS>  (1) 
APRD00299

>  <COMMON_NAME>  (1) 
Flucytosine

>  <CAS_NUMBER>  (1) 
2022-85-7

>  <UNII>  (1) 
D83282DT06

>  <SYNONYMS>  (1) 
5-FC; 5-Fluorocystosine; 5-Fluorocytosine; flucytosina; Flucytosine; Flucytosinum

$$$$
