
     RDKit          3D

 14 14  0  0  0  0  0  0  0  0999 V2000
    0.9639    0.0599   -0.0423 C   0  0  0  0  0  0  0  0  0  0  0  0
    0.5855   -1.3201    0.4514 C   0  0  0  0  0  0  0  0  0  0  0  0
   -0.2527   -3.9032    1.0921 C   0  0  0  0  0  0  0  0  0  0  0  0
   -0.5509   -1.5178    1.2503 C   0  0  0  0  0  0  0  0  0  0  0  0
    1.3090   -2.4360    0.0091 C   0  0  0  0  0  0  0  0  0  0  0  0
    0.8818   -3.7230    0.3145 C   0  0  0  0  0  0  0  0  0  0  0  0
   -0.9740   -2.8117    1.5685 C   0  0  0  0  0  0  0  0  0  0  0  0
   -0.6220   -5.1882    1.3574 O   0  0  0  0  0  0  0  0  0  0  0  0
    0.4528    0.3969   -1.4704 C   0  0  0  0  0  0  0  0  0  0  0  0
    0.9706   -0.5908   -2.5258 C   0  0  0  0  0  0  0  0  0  0  0  0
   -1.0984    0.4468   -1.5159 C   0  0  0  0  0  0  0  0  0  0  0  0
    0.9902    1.7423   -1.8284 N   0  0  0  0  0  0  0  0  0  0  0  0
   -1.7980    1.4271   -1.7468 O   0  0  0  0  0  0  0  0  0  0  0  0
   -1.6919   -0.7424   -1.2937 O   0  0  0  0  0  0  0  0  0  0  0  0
  1  9  1  0
  2  1  1  0
  3  6  1  0
  4  2  2  0
  5  2  1  0
  6  5  2  0
  7  4  1  0
  7  3  2  0
  8  3  1  0
  9 10  1  0
  9 11  1  0
  9 12  1  0
 11 13  2  0
 11 14  1  0
M  END
>  <DRUGBANK_ID>  (1) 
DB16306

>  <COMMON_NAME>  (1) 
Racemetyrosine

>  <CAS_NUMBER>  (1) 
658-48-0

>  <UNII>  (1) 
X88TTO174Z

>  <SYNONYMS>  (1) 
AMPT; D,L-metyrosine; DL-metyrosine; Racemetirosina; Racemetirosine; Racemetirosinum; Racemetyrosine; Sm-88 component racemetyrosine

$$$$
