
     RDKit          3D

 32 36  0  0  1  0  0  0  0  0999 V2000
   -0.9860   -0.5714    3.6479 C   0  0  0  0  0  0  0  0  0  0  0  0
    0.4389    0.0934    3.5103 C   0  0  0  0  0  0  0  0  0  0  0  0
    0.4649    1.2278    4.0275 O   0  0  0  0  0  0  0  0  0  0  0  0
    1.7790   -0.2964    2.5866 C   0  0  1  0  0  0  0  0  0  0  0  0
    3.6351    0.1231    2.9699 C   0  0  0  0  0  0  0  0  0  0  0  0
    4.1497   -0.8066    4.0990 C   0  0  0  0  0  0  0  0  0  0  0  0
    2.7722   -1.2656    4.1632 C   0  0  1  0  0  0  0  0  0  0  0  0
    2.3949   -1.6450    2.5205 C   0  0  1  0  0  0  0  0  0  0  0  0
    2.6775   -3.1326    2.6522 C   0  0  0  0  0  0  0  0  0  0  0  0
    2.0184   -3.9938    3.8714 C   0  0  1  0  0  0  0  0  0  0  0  0
    2.2908   -3.5864    5.4831 C   0  0  0  0  0  0  0  0  0  0  0  0
    2.4598   -4.1949    6.7837 C   0  0  0  0  0  0  0  0  0  0  0  0
    2.5615   -5.6597    7.9366 C   0  0  0  0  0  0  0  0  0  0  0  0
    3.9793   -5.8650    8.7563 C   0  0  0  0  0  0  0  0  0  0  0  0
    4.6363   -4.9933    7.8474 C   0  0  0  0  0  0  0  0  0  0  0  0
    4.9708   -5.4259    6.6750 O   0  0  0  0  0  0  0  0  0  0  0  0
    4.3061   -3.6148    8.1671 C   0  0  0  0  0  0  0  0  0  0  0  0
    3.1575   -3.2028    7.6357 C   0  0  0  0  0  0  0  0  0  0  0  0
    2.9268   -1.7302    7.7514 C   0  0  0  0  0  0  0  0  0  0  0  0
    2.4690   -1.0162    6.5452 C   0  0  0  0  0  0  0  0  0  0  0  0
    2.2192   -1.9908    5.3838 C   0  0  1  0  0  0  0  0  0  0  0  0
    0.5411   -3.9706    3.4891 C   0  0  0  0  0  0  0  0  0  0  0  0
    0.0856   -4.3878    2.2300 C   0  0  0  0  0  0  0  0  0  0  0  0
   -1.2855   -4.4426    1.9476 C   0  0  0  0  0  0  0  0  0  0  0  0
   -2.2538   -4.0435    2.8813 C   0  0  0  0  0  0  0  0  0  0  0  0
   -1.7657   -3.6126    4.1080 C   0  0  0  0  0  0  0  0  0  0  0  0
   -0.4151   -3.5292    4.3826 C   0  0  0  0  0  0  0  0  0  0  0  0
   -3.6071   -4.0315    2.6115 N   0  0  0  0  0  0  0  0  0  0  0  0
   -4.5959   -3.4882    3.5364 C   0  0  0  0  0  0  0  0  0  0  0  0
   -4.1027   -4.5417    1.3450 C   0  0  0  0  0  0  0  0  0  0  0  0
    3.0861   -1.1678    0.9050 C   0  0  0  0  0  0  0  0  0  0  0  0
    1.1570    0.2146    1.3822 O   0  0  0  0  0  0  0  0  0  0  0  0
  1  2  1  0
  2  3  2  0
  4  5  1  0
  4  8  1  0
  4 32  1  6
  4  2  1  0
  5  6  1  0
  7  6  1  6
  7  8  1  0
  7 21  1  0
  8  9  1  0
  8 31  1  6
  9 10  1  0
 10 11  1  0
 10 22  1  6
 11 12  2  0
 11 21  1  0
 12 13  1  0
 12 18  1  0
 13 14  1  0
 14 15  1  0
 15 16  2  0
 15 17  1  0
 17 18  2  0
 18 19  1  0
 19 20  1  0
 21 20  1  1
 22 23  2  0
 22 27  1  0
 23 24  1  0
 24 25  2  0
 25 26  1  0
 25 28  1  0
 26 27  2  0
 28 29  1  0
 28 30  1  0
M  END
>  <DRUGBANK_ID>  (1) 
DB08867

>  <SECONDARY_ACCESSION_NUMBERS>  (1) 
DB05366

>  <COMMON_NAME>  (1) 
Ulipristal

>  <CAS_NUMBER>  (1) 
159811-51-5

>  <UNII>  (1) 
6J5J15Q2X8

>  <SYNONYMS>  (1) 
Ulipristal

$$$$
