
     RDKit          3D

 31 35  0  0  0  0  0  0  0  0999 V2000
    1.1001   -0.0563    0.2221 C   0  0  0  0  0  0  0  0  0  0  0  0
    0.6276   -0.2317   -1.2003 C   0  0  0  0  0  0  0  0  0  0  0  0
    1.0764   -1.4666   -1.8361 N   0  0  0  0  0  0  0  0  0  0  0  0
    0.5433   -1.6323   -3.2000 C   0  0  0  0  0  0  0  0  0  0  0  0
    0.9431   -0.5572   -4.1891 C   0  0  0  0  0  0  0  0  0  0  0  0
    0.4526    0.7462   -4.0241 C   0  0  0  0  0  0  0  0  0  0  0  0
    0.7896    1.8232   -4.7550 N   0  0  0  0  0  0  0  0  0  0  0  0
    1.5970    1.5764   -5.7933 C   0  0  0  0  0  0  0  0  0  0  0  0
    2.0700    0.3069   -6.1439 C   0  0  0  0  0  0  0  0  0  0  0  0
    1.7537   -0.7923   -5.3121 C   0  0  0  0  0  0  0  0  0  0  0  0
    2.2301   -2.1900   -5.6368 C   0  0  0  0  0  0  0  0  0  0  0  0
    2.8459    0.1679   -7.3680 C   0  0  0  0  0  0  0  0  0  0  0  0
    2.3662   -0.6320   -8.4196 C   0  0  0  0  0  0  0  0  0  0  0  0
    3.1039   -0.8301   -9.5842 C   0  0  0  0  0  0  0  0  0  0  0  0
    4.3102   -0.1342   -9.6784 C   0  0  0  0  0  0  0  0  0  0  0  0
    4.8141    0.6728   -8.6650 C   0  0  0  0  0  0  0  0  0  0  0  0
    4.0773    0.8282   -7.4863 C   0  0  0  0  0  0  0  0  0  0  0  0
    6.0080    1.2248   -9.1896 C   0  0  0  0  0  0  0  0  0  0  0  0
    6.1947    0.8759  -10.4700 N   0  0  0  0  0  0  0  0  0  0  0  0
    5.2331   -0.0475  -10.6838 N   0  0  0  0  0  0  0  0  0  0  0  0
    6.8700    2.2205   -8.4799 C   0  0  0  0  0  0  0  0  0  0  0  0
    7.1480    3.4577   -9.0101 N   0  0  0  0  0  0  0  0  0  0  0  0
    7.8712    4.1676   -8.0818 C   0  0  0  0  0  0  0  0  0  0  0  0
    8.3598    5.4783   -8.0720 C   0  0  0  0  0  0  0  0  0  0  0  0
    9.1211    5.8550   -6.9614 C   0  0  0  0  0  0  0  0  0  0  0  0
    9.3905    4.9805   -5.9165 C   0  0  0  0  0  0  0  0  0  0  0  0
    8.8628    3.6870   -5.9435 C   0  0  0  0  0  0  0  0  0  0  0  0
    8.0670    3.2735   -7.0320 C   0  0  0  0  0  0  0  0  0  0  0  0
    7.3774    2.0989   -7.2714 N   0  0  0  0  0  0  0  0  0  0  0  0
    9.1279    2.8596   -4.9221 F   0  0  0  0  0  0  0  0  0  0  0  0
    9.6128    7.1010   -6.9106 F   0  0  0  0  0  0  0  0  0  0  0  0
  1  2  1  0
  2  3  1  0
  3  4  1  0
  4  5  1  0
  5  6  2  0
  5 10  1  0
  6  7  1  0
  7  8  2  0
  8  9  1  0
  9 10  2  0
  9 12  1  0
 10 11  1  0
 12 13  2  0
 12 17  1  0
 13 14  1  0
 14 15  2  0
 15 16  1  0
 15 20  1  0
 16 17  2  0
 16 18  1  0
 18 19  2  0
 18 21  1  0
 19 20  1  0
 21 22  1  0
 21 29  2  0
 22 23  1  0
 23 24  2  0
 23 28  1  0
 24 25  1  0
 25 26  2  0
 25 31  1  0
 26 27  1  0
 27 28  2  0
 27 30  1  0
 28 29  1  0
M  END
>  <DRUGBANK_ID>  (1) 
DB13035

>  <COMMON_NAME>  (1) 
AG-24322

>  <CAS_NUMBER>  (1) 
837364-57-5

>  <UNII>  (1) 
926F8X7TNO

$$$$
