
     RDKit          3D

 13 12  0  0  1  0  0  0  0  0999 V2000
   -1.2445    3.6242   -0.0247 O   0  0  0  0  0  0  0  0  0  0  0  0
   -1.0569    2.9072   -1.2446 C   0  0  0  0  0  0  0  0  0  0  0  0
   -2.0660    3.3282   -2.3179 C   0  0  2  0  0  0  0  0  0  0  0  0
   -2.5969    2.1567   -2.9593 O   0  0  0  0  0  0  0  0  0  0  0  0
   -1.4528    4.2241   -3.4169 C   0  0  1  0  0  0  0  0  0  0  0  0
   -2.4958    4.4755   -4.3818 O   0  0  0  0  0  0  0  0  0  0  0  0
   -0.8910    5.5564   -2.8378 C   0  0  2  0  0  0  0  0  0  0  0  0
   -1.3919    6.6804   -3.5711 O   0  0  0  0  0  0  0  0  0  0  0  0
    0.6541    5.5879   -2.8530 C   0  0  2  0  0  0  0  0  0  0  0  0
    1.2445    4.7786   -1.8370 O   0  0  0  0  0  0  0  0  0  0  0  0
    1.1235    7.0075   -2.5977 C   0  0  0  0  0  0  0  0  0  0  0  0
    1.8913    7.5457   -3.5630 O   0  0  0  0  0  0  0  0  0  0  0  0
    0.8434    7.6028   -1.5579 O   0  0  0  0  0  0  0  0  0  0  0  0
  1  2  1  0
  3  5  1  0
  3  4  1  6
  3  2  1  0
  5  6  1  6
  7  8  1  6
  7  5  1  0
  9 11  1  0
  9 10  1  1
  9  7  1  0
 11 12  1  0
 11 13  2  0
M  END
>  <DRUGBANK_ID>  (1) 
DB04304

>  <SECONDARY_ACCESSION_NUMBERS>  (1) 
EXPT01560

>  <COMMON_NAME>  (1) 
L-Gluconic Acid

>  <CAS_NUMBER>  (1) 
526-97-6

>  <UNII>  (1) 
0IK55ZPI0I

>  <SYNONYMS>  (1) 
Xylosecarboxylic acid

$$$$
