65B
     RDKit          3D

 28 30  0  0  0  0  0  0  0  0999 V2000
    1.9176    0.0680    0.0159 C   0  0  0  0  0  0  0  0  0  0  0  0
    3.3154   -0.0101    0.0665 O   0  0  0  0  0  0  0  0  0  0  0  0
    1.1527    1.2563   -0.0245 C   0  0  0  0  0  0  0  0  0  0  0  0
    1.7164    2.6381   -0.0617 C   0  0  0  0  0  0  0  0  0  0  0  0
   -0.2569    1.2103    0.0054 C   0  0  0  0  0  0  0  0  0  0  0  0
   -0.9470    0.0089    0.0222 C   0  0  0  0  0  0  0  0  0  0  0  0
   -0.2218   -1.1752    0.0222 C   0  0  0  0  0  0  0  0  0  0  0  0
    1.1987   -1.1678    0.0141 C   0  0  0  0  0  0  0  0  0  0  0  0
    1.8322   -2.5376   -0.0154 C   0  0  0  0  0  0  0  0  0  0  0  0
    4.1330    1.1348    0.0005 C   0  0  0  0  0  0  0  0  0  0  0  0
    4.1640    1.9909    1.0659 N   0  0  0  0  0  0  0  0  0  0  0  0
    4.7786    3.1864    0.8858 C   0  0  0  0  0  0  0  0  0  0  0  0
    4.5995    4.2067    1.8405 N   0  0  0  0  0  0  0  0  0  0  0  0
    5.4901    3.4708   -0.2154 N   0  0  0  0  0  0  0  0  0  0  0  0
    5.5734    2.5529   -1.1896 C   0  0  0  0  0  0  0  0  0  0  0  0
    6.3224    2.9235   -2.2923 N   0  0  0  0  0  0  0  0  0  0  0  0
    4.8731    1.3561   -1.1453 C   0  0  0  0  0  0  0  0  0  0  0  0
    5.2425    5.4600    1.8738 C   0  0  0  0  0  0  0  0  0  0  0  0
    5.0906    6.3863    0.8307 C   0  0  0  0  0  0  0  0  0  0  0  0
    5.8291    7.5803    0.7971 C   0  0  0  0  0  0  0  0  0  0  0  0
    6.7437    7.8681    1.8124 C   0  0  0  0  0  0  0  0  0  0  0  0
    6.8890    6.9661    2.8704 C   0  0  0  0  0  0  0  0  0  0  0  0
    6.1338    5.7812    2.9070 C   0  0  0  0  0  0  0  0  0  0  0  0
    7.5306    9.0658    1.7748 C   0  0  0  0  0  0  0  0  0  0  0  0
    8.1760   10.0361    1.7591 N   0  0  0  0  0  0  0  0  0  0  0  0
   -2.3805    0.0070    0.0083 C   0  0  0  0  0  0  0  0  0  0  0  0
   -3.5395    0.0212   -0.0188 N   0  0  0  0  0  0  0  0  0  0  0  0
    4.9532    0.1257   -2.5815 Br  0  0  0  0  0  0  0  0  0  0  0  0
  1  2  1  0
  1  3  2  0
  1  8  1  0
  2 10  1  0
  3  4  1  0
  3  5  1  0
  5  6  2  0
  6  7  1  0
  6 26  1  0
  7  8  2  0
  8  9  1  0
 10 11  2  0
 10 17  1  0
 11 12  1  0
 12 13  1  0
 12 14  2  0
 13 18  1  0
 14 15  1  0
 15 16  1  0
 15 17  2  0
 17 28  1  0
 18 19  2  0
 18 23  1  0
 19 20  1  0
 20 21  2  0
 21 22  1  0
 21 24  1  0
 22 23  2  0
 24 25  3  0
 26 27  3  0
M  END
>  <DRUGBANK_ID>  (1) 
DB06414

>  <SECONDARY_ACCESSION_NUMBERS>  (1) 
DB07191

>  <COMMON_NAME>  (1) 
Etravirine

>  <CAS_NUMBER>  (1) 
269055-15-4

>  <UNII>  (1) 
0C50HW4FO1

>  <SYNONYMS>  (1) 
Etravirina; Etravirine

$$$$
