114
     RDKit          3D

 16 16  0  0  0  0  0  0  0  0999 V2000
    0.9654   -0.0641   -0.0685 P   0  0  0  0  0  0  0  0  0  0  0  0
    0.8362    1.2297    0.9309 O   0  0  0  0  0  0  0  0  0  0  0  0
   -3.8784    0.3147    3.4806 O   0  0  0  0  0  0  0  0  0  0  0  0
    0.8829    0.6285   -1.5367 O   0  0  0  0  0  0  0  0  0  0  0  0
   -0.7646   -0.0641   -0.0685 O   0  0  0  0  0  0  0  0  0  0  0  0
   -0.7569    2.9551    2.7271 O   0  0  0  0  0  0  0  0  0  0  0  0
    2.5137   -0.0641   -0.0685 O   0  0  0  0  0  0  0  0  0  0  0  0
   -1.2506   -2.1020    2.8925 N   0  0  0  0  0  0  0  0  0  0  0  0
   -0.2343    0.0982    2.7707 C   0  0  0  0  0  0  0  0  0  0  0  0
   -1.4915    0.6876    3.0357 C   0  0  0  0  0  0  0  0  0  0  0  0
    0.9800    0.8779    2.3110 C   0  0  0  0  0  0  0  0  0  0  0  0
   -2.6108   -0.1396    3.2440 C   0  0  0  0  0  0  0  0  0  0  0  0
   -2.4440   -1.5277    3.1774 C   0  0  0  0  0  0  0  0  0  0  0  0
   -0.1870   -1.2970    2.7098 C   0  0  0  0  0  0  0  0  0  0  0  0
   -3.5708   -2.4873    3.4439 C   0  0  0  0  0  0  0  0  0  0  0  0
   -1.6640    2.1652    2.9760 C   0  0  0  0  0  0  0  0  0  0  0  0
  1  2  1  0
  1  4  1  0
  1  5  1  0
  1  7  2  0
  2 11  1  0
  3 12  1  0
  6 16  2  0
  8 13  2  0
  8 14  1  0
  9 10  1  0
  9 11  1  0
  9 14  2  0
 10 12  2  0
 10 16  1  0
 12 13  1  0
 13 15  1  0
M  END
>  <DRUGBANK_ID>  (1) 
DB00114

>  <SECONDARY_ACCESSION_NUMBERS>  (1) 
NUTR00045

>  <COMMON_NAME>  (1) 
Pyridoxal phosphate

>  <CAS_NUMBER>  (1) 
54-47-7

>  <UNII>  (1) 
F06SGE49M6

>  <SYNONYMS>  (1) 
3-hydroxy-2-methyl-5-((phosphonooxy)methyl)-4-pyridinecarboxaldehyde; 3-hydroxy-5-(hydroxymethyl)-2-methylisonicotinaldehyde 5-phosphate; Codecarboxylase; PLP; Pyridoxal 5-monophosphoric acid ester; Pyridoxal 5-phosphate; Pyridoxal 5'-phosphate; Pyridoxal P; Pyridoxal phosphate anhydrous; Pyridoxal-5P; Pyridoxal-P

$$$$
