XXZ
     RDKit          3D

 27 30  0  0  0  0  0  0  0  0999 V2000
    0.9411   -0.1112   -0.0414 F   0  0  0  0  0  0  0  0  0  0  0  0
    2.2828   -0.0769   -0.0132 C   0  0  0  0  0  0  0  0  0  0  0  0
    2.9776   -1.2723   -0.1625 C   0  0  0  0  0  0  0  0  0  0  0  0
    4.3713   -1.2649   -0.1390 C   0  0  0  0  0  0  0  0  0  0  0  0
    5.0624   -0.0654    0.0641 C   0  0  0  0  0  0  0  0  0  0  0  0
    4.3668    1.1355    0.2267 C   0  0  0  0  0  0  0  0  0  0  0  0
    2.9719    1.1237    0.1488 C   0  0  0  0  0  0  0  0  0  0  0  0
    2.2981    2.4438    0.2709 C   0  0  0  0  0  0  0  0  0  0  0  0
    2.9259    3.5675    0.0858 N   0  0  0  0  0  0  0  0  0  0  0  0
    0.9736    2.4720    0.6081 N   0  0  0  0  0  0  0  0  0  0  0  0
    5.0344    2.3437    0.3209 N   0  0  0  0  0  0  0  0  0  0  0  0
    4.3622    3.4921   -0.2721 C   0  0  0  0  0  0  0  0  0  0  0  0
    5.0308    4.8103    0.1788 C   0  0  0  0  0  0  0  0  0  0  0  0
    6.4864    4.9124   -0.2847 C   0  0  0  0  0  0  0  0  0  0  0  0
    6.5984    4.7484   -1.7355 N   0  0  0  0  0  0  0  0  0  0  0  0
    5.9791    3.5188   -2.2416 C   0  0  0  0  0  0  0  0  0  0  0  0
    4.5074    3.4256   -1.8156 C   0  0  0  0  0  0  0  0  0  0  0  0
    7.1858    5.6640   -2.6202 C   0  0  0  0  0  0  0  0  0  0  0  0
    7.1945    5.5132   -3.8474 O   0  0  0  0  0  0  0  0  0  0  0  0
    7.3821    8.1635   -2.4088 C   0  0  0  0  0  0  0  0  0  0  0  0
   10.0727   11.3146   -1.4105 N   0  0  0  0  0  0  0  0  0  0  0  0
    9.6979   10.3906   -0.3444 C   0  0  0  0  0  0  0  0  0  0  0  0
    9.0194    9.1642   -0.9085 C   0  0  0  0  0  0  0  0  0  0  0  0
    9.5490    7.8882   -0.6757 C   0  0  0  0  0  0  0  0  0  0  0  0
    8.9341    6.7536   -1.2133 C   0  0  0  0  0  0  0  0  0  0  0  0
    7.8850    9.2801   -1.7269 C   0  0  0  0  0  0  0  0  0  0  0  0
    7.8416    6.8850   -2.0751 C   0  0  0  0  0  0  0  0  0  0  0  0
  1  2  1  0
  2  3  2  0
  2  7  1  0
  3  4  1  0
  4  5  2  0
  5  6  1  0
  6  7  2  0
  6 11  1  0
  7  8  1  0
  8  9  2  0
  8 10  1  0
  9 12  1  0
 11 12  1  0
 12 13  1  0
 12 17  1  0
 13 14  1  0
 14 15  1  0
 15 16  1  0
 15 18  1  0
 16 17  1  0
 18 19  2  0
 18 27  1  0
 20 26  2  0
 20 27  1  0
 21 22  1  0
 22 23  1  0
 23 24  2  0
 23 26  1  0
 24 25  1  0
 25 27  2  0
M  END
>  <DRUGBANK_ID>  (1) 
DB08750

>  <COMMON_NAME>  (1) 
1-[4-(AMINOMETHYL)BENZOYL]-5'-FLUORO-1'H-SPIRO[PIPERIDINE-4,2'-QUINAZOLIN]-4'-AMINE

$$$$
