
     RDKit          3D

 20 21  0  0  0  0  0  0  0  0999 V2000
    1.3229    0.0331    0.5661 C   0  0  0  0  0  0  0  0  0  0  0  0
    0.8724   -3.0355   -3.5826 C   0  0  0  0  0  0  0  0  0  0  0  0
   -5.7027    1.5281   -3.4908 C   0  0  0  0  0  0  0  0  0  0  0  0
   -4.8002    2.8688   -5.4240 C   0  0  0  0  0  0  0  0  0  0  0  0
    0.8578   -1.2298   -0.1913 C   0  0  0  0  0  0  0  0  0  0  0  0
    0.6890   -3.3393   -2.0004 C   0  0  0  0  0  0  0  0  0  0  0  0
   -0.2497   -0.6918   -2.3903 C   0  0  0  0  0  0  0  0  0  0  0  0
   -1.4813   -0.2536   -2.0121 C   0  0  0  0  0  0  0  0  0  0  0  0
    2.7353   -2.3092   -1.0680 C   0  0  0  0  0  0  0  0  0  0  0  0
    3.0047   -1.4991   -2.3829 C   0  0  0  0  0  0  0  0  0  0  0  0
    0.4481    0.9991   -3.7734 C   0  0  0  0  0  0  0  0  0  0  0  0
    0.8489   -0.0580   -3.0002 C   0  0  0  0  0  0  0  0  0  0  0  0
   -1.8488    0.7089   -2.8711 C   0  0  0  0  0  0  0  0  0  0  0  0
   -0.9456    1.2689   -3.7796 C   0  0  0  0  0  0  0  0  0  0  0  0
   -3.3424    1.7129   -3.9774 C   0  0  0  0  0  0  0  0  0  0  0  0
   -3.1354    1.0036   -2.9003 N   0  0  0  0  0  0  0  0  0  0  0  0
   -4.5947    1.9992   -4.3088 N   0  0  0  0  0  0  0  0  0  0  0  0
    1.3470   -2.5706   -0.7403 N   0  0  0  0  0  0  0  0  0  0  0  0
    2.2026   -0.3559   -2.9025 O   0  0  0  0  0  0  0  0  0  0  0  0
   -1.9072    2.1982   -4.8293 S   0  0  0  0  0  0  0  0  0  0  0  0
  5  1  1  0
  6  2  1  0
  8  7  2  0
 10  9  1  0
 12  7  1  0
 12 11  2  0
 13  8  1  0
 14 11  1  0
 14 13  2  0
 16 13  1  0
 16 15  2  0
 17  3  1  0
 17  4  1  0
 17 15  1  0
 18  5  1  0
 18  6  1  0
 18  9  1  0
 19 10  1  0
 19 12  1  0
 20 14  1  0
 20 15  1  0
M  END
>  <DRUGBANK_ID>  (1) 
DB13858

>  <COMMON_NAME>  (1) 
Dimazole

>  <CAS_NUMBER>  (1) 
95-27-2

>  <UNII>  (1) 
2KL01R8ZV1

>  <SYNONYMS>  (1) 
Diamthazole; Dimazole

$$$$
