
     RDKit          3D

 11 10  0  0  1  0  0  0  0  0999 V2000
    0.9933    0.5129    0.3522 N   0  0  0  0  0  0  0  0  0  0  0  0
    0.5097    1.4417   -0.6677 C   0  0  1  0  0  0  0  0  0  0  0  0
    1.1597    1.3033   -2.0658 C   0  0  0  0  0  0  0  0  0  0  0  0
    1.0382   -0.1481   -3.1698 S   0  0  0  0  0  0  0  0  0  0  0  0
    1.0822   -1.9834   -2.2277 P   0  0  0  0  0  0  0  0  0  0  0  0
    1.1667   -1.7296   -0.6581 O   0  0  0  0  0  0  0  0  0  0  0  0
   -0.3602   -2.6467   -2.4040 O   0  0  0  0  0  0  0  0  0  0  0  0
    2.2044   -2.8758   -2.6428 O   0  0  0  0  0  0  0  0  0  0  0  0
   -1.0239    1.3568   -0.7129 C   0  0  0  0  0  0  0  0  0  0  0  0
   -1.6467    2.3314    0.0016 O   0  0  0  0  0  0  0  0  0  0  0  0
   -1.6343    0.4715   -1.2731 O   0  0  0  0  0  0  0  0  0  0  0  0
  2  1  1  1
  2  3  1  0
  2  9  1  0
  3  4  1  0
  4  5  1  0
  5  6  1  0
  5  7  1  0
  5  8  2  0
  9 10  1  0
  9 11  2  0
M  END
>  <DRUGBANK_ID>  (1) 
DB03544

>  <SECONDARY_ACCESSION_NUMBERS>  (1) 
EXPT01036

>  <COMMON_NAME>  (1) 
S-Phosphocysteine

>  <UNII>  (1) 
71TL25Z12V

$$$$
