68740
     RDKit          3D

 16 16  0  0  0  0  0  0  0  0999 V2000
    0.9010    0.0120   -0.0072 P   0  0  0  0  0  0  0  0  0  0  0  0
    3.3410   -1.0161   -1.3928 P   0  0  0  0  0  0  0  0  0  0  0  0
    3.1656    1.4015   -0.2630 O   0  0  0  0  0  0  0  0  0  0  0  0
    2.4003   -0.0261   -2.3217 O   0  0  0  0  0  0  0  0  0  0  0  0
    4.7310   -0.1219   -1.3963 O   0  0  0  0  0  0  0  0  0  0  0  0
    1.0036   -1.2901    0.9803 O   0  0  0  0  0  0  0  0  0  0  0  0
    0.9382    1.3024    0.9927 O   0  0  0  0  0  0  0  0  0  0  0  0
    3.8571   -1.8860   -2.5651 O   0  0  0  0  0  0  0  0  0  0  0  0
   -0.6474    0.0120   -0.0072 O   0  0  0  0  0  0  0  0  0  0  0  0
    2.9742    0.2889    2.5285 N   0  0  0  0  0  0  0  0  0  0  0  0
    2.6746    2.0594    3.8430 N   0  0  0  0  0  0  0  0  0  0  0  0
    2.7310    0.0120   -0.0072 C   0  0  0  0  0  0  0  0  0  0  0  0
    3.3607   -0.4732    1.3448 C   0  0  0  0  0  0  0  0  0  0  0  0
    2.3147   -0.1676    3.6382 C   0  0  0  0  0  0  0  0  0  0  0  0
    3.1793    1.6303    2.6977 C   0  0  0  0  0  0  0  0  0  0  0  0
    2.1400    0.9485    4.4298 C   0  0  0  0  0  0  0  0  0  0  0  0
  1  6  1  0
  1  7  1  0
  1  9  2  0
  1 12  1  0
  2  4  1  0
  2  5  1  0
  2  8  2  0
  2 12  1  0
  3 12  1  0
 10 13  1  0
 10 14  1  0
 10 15  1  0
 11 15  2  0
 11 16  1  0
 12 13  1  0
 14 16  2  0
M  END
>  <DRUGBANK_ID>  (1) 
DB00399

>  <SECONDARY_ACCESSION_NUMBERS>  (1) 
APRD01294; DB06286

>  <COMMON_NAME>  (1) 
Zoledronic acid

>  <CAS_NUMBER>  (1) 
118072-93-8

>  <UNII>  (1) 
70HZ18PH24

>  <SYNONYMS>  (1) 
(1-hydroxy-2-(1H-imidazol-1-yl)ethylidene)bisphosphonic acid; (1-hydroxy-2-imidazol-1-ylethylidene)diphosphonic acid; ácido zoledrónico; Anhydrous Zoledronic Acid; Nanoparticles containing Zoledronic acid; Zol; Zoledronate; Zoledronic acid; Zoledronic Acid Anhydrous; Zoledronic Acid, Anhydrous

$$$$
