
     RDKit          3D

 24 25  0  0  0  0  0  0  0  0999 V2000
    0.6451    5.5034    0.0102 P   0  0  0  0  0  0  0  0  0  0  0  0
    1.5909    3.6813    2.1814 P   0  0  0  0  0  0  0  0  0  0  0  0
    0.1285    0.2639    0.0238 F   0  0  0  0  0  0  0  0  0  0  0  0
   -0.7897    3.1319    1.4974 O   0  0  0  0  0  0  0  0  0  0  0  0
    0.0026    4.4558   -1.0791 O   0  0  0  0  0  0  0  0  0  0  0  0
   -3.1772    2.2893    0.0522 O   0  0  0  0  0  0  0  0  0  0  0  0
    0.6687    4.8556    1.5074 O   0  0  0  0  0  0  0  0  0  0  0  0
    1.9571    4.3788   -0.0731 O   0  0  0  0  0  0  0  0  0  0  0  0
   -0.5291    6.5099    0.0848 O   0  0  0  0  0  0  0  0  0  0  0  0
   -6.4638    4.4630    2.0030 O   0  0  0  0  0  0  0  0  0  0  0  0
    2.8750    4.3861    2.7870 O   0  0  0  0  0  0  0  0  0  0  0  0
    0.6743    3.5265    3.4709 O   0  0  0  0  0  0  0  0  0  0  0  0
    1.8842    2.3633    1.5280 O   0  0  0  0  0  0  0  0  0  0  0  0
   -2.8739    2.7632    2.3066 N   0  0  0  0  0  0  0  0  0  0  0  0
   -4.7004    3.4446    1.0448 N   0  0  0  0  0  0  0  0  0  0  0  0
   -0.5326    2.5262    0.2032 C   0  0  1  0  0  0  0  0  0  0  0  0
   -0.9199    1.0660    0.3719 C   0  0  2  0  0  0  0  0  0  0  0  0
   -1.5254    2.2663    2.3374 C   0  0  1  0  0  0  0  0  0  0  0  0
   -1.1555    0.9017    1.8637 C   0  0  0  0  0  0  0  0  0  0  0  0
   -1.0760    3.5814   -0.7592 C   0  0  0  0  0  0  0  0  0  0  0  0
   -3.5308    2.7888    1.0963 C   0  0  0  0  0  0  0  0  0  0  0  0
   -3.4012    3.3866    3.4257 C   0  0  0  0  0  0  0  0  0  0  0  0
   -4.5976    3.9840    3.3750 C   0  0  0  0  0  0  0  0  0  0  0  0
   -5.3268    3.9965    2.0972 C   0  0  0  0  0  0  0  0  0  0  0  0
  1  8  1  0
  1  9  2  0
  1  7  1  0
  1  5  1  0
  2  7  1  0
  2 11  1  0
  2 12  1  0
  2 13  2  0
  4 16  1  0
  4 18  1  0
  5 20  1  0
  6 21  2  0
 10 24  2  0
 14 21  1  0
 14 22  1  0
 15 21  1  0
 15 24  1  0
 16 17  1  0
 16 20  1  6
 17 19  1  0
 17  3  1  1
 18 19  1  0
 18 14  1  6
 22 23  2  0
 23 24  1  0
M  END
>  <DRUGBANK_ID>  (1) 
DB04068

>  <SECONDARY_ACCESSION_NUMBERS>  (1) 
EXPT01512

>  <COMMON_NAME>  (1) 
2',3'-dideoxy-3'-fluoro-urididine-5'-diphosphate

>  <SYNONYMS>  (1) 
FUDP

$$$$
