
     RDKit          3D

 32 35  0  0  1  0  0  0  0  0999 V2000
    0.8848   -0.0540   -0.2734 C   0  0  0  0  0  0  0  0  0  0  0  0
    0.5119   -1.4629    0.1668 C   0  0  1  0  0  0  0  0  0  0  0  0
    1.0580   -2.0646    1.4635 C   0  0  0  0  0  0  0  0  0  0  0  0
    0.8641   -3.4594    1.6396 C   0  0  0  0  0  0  0  0  0  0  0  0
    1.1696   -4.0664    2.8481 C   0  0  0  0  0  0  0  0  0  0  0  0
    1.6734   -3.3073    3.8999 C   0  0  0  0  0  0  0  0  0  0  0  0
    1.8943   -1.9218    3.7593 C   0  0  0  0  0  0  0  0  0  0  0  0
    1.6095   -1.2888    2.5317 C   0  0  0  0  0  0  0  0  0  0  0  0
    1.8714    0.1032    2.4803 C   0  0  0  0  0  0  0  0  0  0  0  0
    2.3157    0.8680    3.5405 C   0  0  0  0  0  0  0  0  0  0  0  0
    2.5893    0.2381    4.7251 C   0  0  0  0  0  0  0  0  0  0  0  0
    2.3889   -1.1432    4.8319 C   0  0  0  0  0  0  0  0  0  0  0  0
    0.8966   -5.7562    3.0478 Cl  0  0  0  0  0  0  0  0  0  0  0  0
   -0.9448   -1.6123    0.1236 N   0  0  0  0  0  0  0  0  0  0  0  0
   -1.3669   -2.6663   -0.8107 C   0  0  0  0  0  0  0  0  0  0  0  0
   -1.6746   -0.8972    1.0905 C   0  0  0  0  0  0  0  0  0  0  0  0
   -1.1096   -0.2486    2.0022 O   0  0  0  0  0  0  0  0  0  0  0  0
   -3.1844   -0.8225    1.1308 C   0  0  0  0  0  0  0  0  0  0  0  0
   -3.8464   -0.0882   -0.0731 C   0  0  0  0  0  0  0  0  0  0  0  0
   -5.3724    0.0409    0.1246 C   0  0  0  0  0  0  0  0  0  0  0  0
   -6.0425   -1.3430    0.2397 C   0  0  0  0  0  0  0  0  0  0  0  0
   -5.7547   -2.2105   -0.9183 N   0  0  0  0  0  0  0  0  0  0  0  0
   -4.3209   -2.3310   -1.1356 C   0  0  0  0  0  0  0  0  0  0  0  0
   -3.7360   -0.9401   -1.3244 C   0  0  0  0  0  0  0  0  0  0  0  0
   -6.3065   -3.5487   -0.7113 C   0  0  0  0  0  0  0  0  0  0  0  0
   -3.1679    1.2787   -0.3126 C   0  0  0  0  0  0  0  0  0  0  0  0
   -3.2500    2.2819    0.6613 C   0  0  0  0  0  0  0  0  0  0  0  0
   -2.6273    3.5156    0.4603 C   0  0  0  0  0  0  0  0  0  0  0  0
   -1.8944    3.7489   -0.6980 C   0  0  0  0  0  0  0  0  0  0  0  0
   -1.7607    2.7712   -1.6628 C   0  0  0  0  0  0  0  0  0  0  0  0
   -2.3983    1.5520   -1.4718 C   0  0  0  0  0  0  0  0  0  0  0  0
   -1.3085    4.9365   -0.8888 F   0  0  0  0  0  0  0  0  0  0  0  0
  2  1  1  1
  2  3  1  0
  2 14  1  0
  3  4  2  0
  3  8  1  0
  4  5  1  0
  5  6  2  0
  5 13  1  0
  6  7  1  0
  7  8  2  0
  7 12  1  0
  8  9  1  0
  9 10  2  0
 10 11  1  0
 11 12  2  0
 14 15  1  0
 14 16  1  0
 16 17  2  0
 16 18  1  0
 18 19  1  0
 19 20  1  0
 19 24  1  0
 19 26  1  0
 20 21  1  0
 21 22  1  0
 22 23  1  0
 22 25  1  0
 23 24  1  0
 26 27  2  0
 26 31  1  0
 27 28  1  0
 28 29  2  0
 29 30  1  0
 29 32  1  0
 30 31  2  0
M  END
>  <DRUGBANK_ID>  (1) 
DB12219

>  <COMMON_NAME>  (1) 
GSK-424887

>  <UNII>  (1) 
IYI99KCF2T

$$$$
