
     RDKit          3D

 24 23  0  0  0  0  0  0  0  0999 V2000
    0.9208   -0.0604    0.0089 H   0  0  0  0  0  0  0  0  0  0  0  0
    1.9908   -0.0604    0.0089 C   0  0  0  0  0  0  0  0  0  0  0  0
    2.3475   -1.0665   -0.0646 H   0  0  0  0  0  0  0  0  0  0  0  0
    2.4975    0.7447   -1.1767 C   0  0  0  0  0  0  0  0  0  0  0  0
    3.2796    1.8387   -0.9716 C   0  0  0  0  0  0  0  0  0  0  0  0
    3.6468    2.2560    0.4432 C   0  0  0  0  0  0  0  0  0  0  0  0
    5.1583    2.2323    0.6022 C   0  0  0  0  0  0  0  0  0  0  0  0
    5.7873    3.1968   -0.3900 C   0  0  0  0  0  0  0  0  0  0  0  0
    5.2721    4.6024   -0.1265 C   0  0  0  0  0  0  0  0  0  0  0  0
    5.6393    5.0197    1.2882 C   0  0  0  0  0  0  0  0  0  0  0  0
    2.4975    0.5638    1.2989 C   0  0  0  0  0  0  0  0  0  0  0  0
    1.6134    1.0141    2.2297 C   0  0  0  0  0  0  0  0  0  0  0  0
    0.1190    0.8932    1.9796 C   0  0  0  0  0  0  0  0  0  0  0  0
   -0.5100    0.0425    3.0710 C   0  0  0  0  0  0  0  0  0  0  0  0
   -0.2738    0.6965    4.4226 C   0  0  0  0  0  0  0  0  0  0  0  0
   -0.9029    2.0802    4.4329 C   0  0  0  0  0  0  0  0  0  0  0  0
   -2.3973    1.9592    4.1828 C   0  0  0  0  0  0  0  0  0  0  0  0
   -3.0263    1.1086    5.2742 C   0  0  0  0  0  0  0  0  0  0  0  0
   -2.7901    1.7626    6.6258 C   0  0  0  0  0  0  0  0  0  0  0  0
   -3.4191    3.1463    6.6360 C   0  0  0  0  0  0  0  0  0  0  0  0
   -4.3263    3.4256    7.4811 O   0  0  0  0  0  0  0  0  0  0  0  0
   -2.9932    4.1268    5.7014 O   0  0  0  0  0  0  0  0  0  0  0  0
   -3.5809    5.4194    5.7109 C   0  0  0  0  0  0  0  0  0  0  0  0
   -5.0753    5.2984    5.4609 C   0  0  0  0  0  0  0  0  0  0  0  0
  1  2  1  0
  2  3  1  0
  2  4  1  0
  2 11  1  0
  4  5  2  0
  5  6  1  0
  6  7  1  0
  7  8  1  0
  8  9  1  0
  9 10  1  0
 11 12  2  0
 12 13  1  0
 13 14  1  0
 14 15  1  0
 15 16  1  0
 16 17  1  0
 17 18  1  0
 18 19  1  0
 19 20  1  0
 20 21  2  0
 20 22  1  0
 22 23  1  0
 23 24  1  0
M  ISO  2   1   2   3   2
M  END
>  <DRUGBANK_ID>  (1) 
DB16949

>  <COMMON_NAME>  (1) 
Deulinoleate ethyl

>  <CAS_NUMBER>  (1) 
1404475-07-5

>  <UNII>  (1) 
24B102R86P

>  <SYNONYMS>  (1) 
9-cis, 12-cis-11,11-d2-linoleic acid ethyl ester; 9-cis,12-cis-11,11-D2-linoleic acid ethyl ester; 9,12-octadecadienoic-11,11-d2 acid, ethyl ester, (9z,12z)-; Di-deuterated linoleic acid; ethyl (9Z,12Z)-octadeca-9,12-dienoate-11,11-d2

$$$$
