1024
     RDKit          3D

 23 24  0  0  0  0  0  0  0  0999 V2000
   -2.3959    0.0045   -0.0524 O   0  0  0  0  0  0  0  0  0  0  0  0
    3.3249    1.5017   -0.1023 O   0  0  0  0  0  0  0  0  0  0  0  0
    0.7661   -2.7484   -0.0210 O   0  0  0  0  0  0  0  0  0  0  0  0
   -2.0676   -2.2378    0.3039 O   0  0  0  0  0  0  0  0  0  0  0  0
    2.8782   -7.8448    1.2938 O   0  0  0  0  0  0  0  0  0  0  0  0
    2.0503   -6.2206    0.0033 O   0  0  0  0  0  0  0  0  0  0  0  0
   -0.2151    0.7123    0.0529 C   0  0  0  0  0  0  0  0  0  0  0  0
    2.1857   -0.7324   -0.0305 C   0  0  0  0  0  0  0  0  0  0  0  0
   -0.2416   -0.6592    0.0609 C   0  0  0  0  0  0  0  0  0  0  0  0
    0.9965    1.4102    0.0053 C   0  0  0  0  0  0  0  0  0  0  0  0
    2.2200    0.6843   -0.0424 C   0  0  0  0  0  0  0  0  0  0  0  0
    0.9222   -1.3934    0.0105 C   0  0  0  0  0  0  0  0  0  0  0  0
    3.4054   -1.5973   -0.1095 C   0  0  0  0  0  0  0  0  0  0  0  0
   -1.6100    1.1970    0.1232 C   0  0  0  0  0  0  0  0  0  0  0  0
   -1.6308   -1.1145    0.1174 C   0  0  0  0  0  0  0  0  0  0  0  0
    3.6012   -2.4384    1.1082 C   0  0  0  0  0  0  0  0  0  0  0  0
    0.9663    2.9140    0.0025 C   0  0  0  0  0  0  0  0  0  0  0  0
    3.8168   -3.7554    0.9791 C   0  0  0  0  0  0  0  0  0  0  0  0
    3.8744   -4.6636    2.1726 C   0  0  0  0  0  0  0  0  0  0  0  0
    2.6907   -5.6339    2.2637 C   0  0  0  0  0  0  0  0  0  0  0  0
    3.9812   -4.3412   -0.4034 C   0  0  0  0  0  0  0  0  0  0  0  0
    4.6392    0.9805   -0.1730 C   0  0  0  0  0  0  0  0  0  0  0  0
    2.5070   -6.5671    1.0830 C   0  0  0  0  0  0  0  0  0  0  0  0
  1 14  1  0
  1 15  1  0
  2 11  1  0
  2 22  1  0
  3 12  1  0
  4 15  2  0
  5 23  1  0
  6 23  2  0
  7  9  2  0
  7 10  1  0
  7 14  1  0
  8 11  1  0
  8 12  2  0
  8 13  1  0
  9 12  1  0
  9 15  1  0
 10 11  2  0
 10 17  1  0
 13 16  1  0
 16 18  2  0
 18 19  1  0
 18 21  1  0
 19 20  1  0
 20 23  1  0
M  END
>  <DRUGBANK_ID>  (1) 
DB01024

>  <SECONDARY_ACCESSION_NUMBERS>  (1) 
APRD01603; EXPT02208

>  <COMMON_NAME>  (1) 
Mycophenolic acid

>  <CAS_NUMBER>  (1) 
24280-93-1

>  <UNII>  (1) 
HU9DX48N0T

>  <SYNONYMS>  (1) 
(e)-6-(4-Hydroxy-6-methoxy-7-methyl-3-oxo-5-phthalanyl)-4-methyl-4-hexenoic acid; Acide mycophenolique; Acido micofenolico; Acidum mycophenolicum; Micofenolico acido; Mycophenolate; Mycophenolic acid; Mycophenols√§ure

$$$$
