
     RDKit          3D

 17 18  0  0  1  0  0  0  0  0999 V2000
    0.8996   -2.2233    1.0023 C   0  0  0  0  0  0  0  0  0  0  0  0
    0.3942   -1.3731   -0.1554 C   0  0  2  0  0  0  0  0  0  0  0  0
    0.9250   -0.0529   -0.0778 O   0  0  0  0  0  0  0  0  0  0  0  0
   -1.1403   -1.3882   -0.1784 C   0  0  0  0  0  0  0  0  0  0  0  0
   -1.7894   -1.8047   -1.1309 O   0  0  0  0  0  0  0  0  0  0  0  0
   -1.8615   -0.8389    1.0513 C   0  0  0  0  0  0  0  0  0  0  0  0
   -2.8066   -1.5406    1.6143 N   0  0  0  0  0  0  0  0  0  0  0  0
   -3.4160   -0.9871    2.7451 C   0  0  0  0  0  0  0  0  0  0  0  0
   -3.0538    0.1906    3.3190 C   0  0  0  0  0  0  0  0  0  0  0  0
   -2.0345    0.9248    2.7574 N   0  0  0  0  0  0  0  0  0  0  0  0
   -1.3763    0.5149    1.5304 C   0  0  0  0  0  0  0  0  0  0  0  0
   -3.6948    0.6267    4.4480 N   0  0  0  0  0  0  0  0  0  0  0  0
   -4.6908   -0.0867    5.0220 C   0  0  0  0  0  0  0  0  0  0  0  0
   -5.2230    0.4427    6.1437 N   0  0  0  0  0  0  0  0  0  0  0  0
   -5.1315   -1.2120    4.5680 N   0  0  0  0  0  0  0  0  0  0  0  0
   -4.5585   -1.7409    3.4249 C   0  0  0  0  0  0  0  0  0  0  0  0
   -4.9461   -2.8122    2.9572 O   0  0  0  0  0  0  0  0  0  0  0  0
  2  4  1  0
  2  3  1  0
  2  1  1  1
  4  5  2  0
  4  6  1  0
  6  7  2  0
  6 11  1  0
  7  8  1  0
  8  9  2  0
  8 16  1  0
  9 10  1  0
  9 12  1  0
 10 11  1  0
 12 13  1  0
 13 14  1  0
 13 15  2  0
 15 16  1  0
 16 17  2  0
M  END
>  <DRUGBANK_ID>  (1) 
DB16326

>  <COMMON_NAME>  (1) 
Sepiapterin

>  <CAS_NUMBER>  (1) 
17094-01-8

>  <UNII>  (1) 
CJQ26KO7HP

>  <SYNONYMS>  (1) 
L-sepiapterin; Sepiapterine

$$$$
