Sarcosine.mol
     RDKit          3D

  6  5  0  0  0  0  0  0  0  0999 V2000
    0.9175   -0.0124    0.0075 C   0  0  0  0  0  0  0  0  0  0  0  0
   -0.6542   -1.8847   -0.3224 N   0  0  0  0  0  0  0  0  0  0  0  0
    0.2028   -0.9089   -1.0087 C   0  0  0  0  0  0  0  0  0  0  0  0
   -1.3993   -2.6992   -1.2677 C   0  0  0  0  0  0  0  0  0  0  0  0
    0.3475    0.7005    0.8236 O   0  0  0  0  0  0  0  0  0  0  0  0
    2.2707   -0.0608   -0.0566 O   0  0  0  0  0  0  0  0  0  0  0  0
  1  3  1  0
  1  5  2  0
  1  6  1  0
  2  3  1  0
  2  4  1  0
M  END
>  <DRUGBANK_ID>  (1) 
DB12519

>  <COMMON_NAME>  (1) 
Sarcosine

>  <CAS_NUMBER>  (1) 
107-97-1

>  <UNII>  (1) 
Z711V88R5F

$$$$
