
     RDKit          3D

 11 11  0  0  0  0  0  0  0  0999 V2000
    1.2545    0.8177    0.1275 O   0  0  0  0  0  0  0  0  0  0  0  0
    2.3929    0.3502    0.1177 C   0  0  0  0  0  0  0  0  0  0  0  0
    3.3011    0.9206    0.9248 O   0  0  0  0  0  0  0  0  0  0  0  0
    2.9221   -0.7895   -0.7930 C   0  0  0  0  0  0  0  0  0  0  0  0
    2.5279   -2.2667   -0.5026 C   0  0  0  0  0  0  0  0  0  0  0  0
    1.0403   -2.6346   -0.7527 C   0  0  0  0  0  0  0  0  0  0  0  0
    0.1648   -1.5240   -0.2217 C   0  0  0  0  0  0  0  0  0  0  0  0
   -1.3205   -1.7142   -0.1919 C   0  0  0  0  0  0  0  0  0  0  0  0
   -1.6561   -3.0103    0.4988 C   0  0  0  0  0  0  0  0  0  0  0  0
   -0.8882   -4.1638   -0.1460 C   0  0  0  0  0  0  0  0  0  0  0  0
    0.6341   -3.9620   -0.1046 C   0  0  0  0  0  0  0  0  0  0  0  0
  1  2  2  0
  2  3  1  0
  2  4  1  0
  4  5  1  0
  5  6  1  0
  6  7  1  0
  7  8  1  0
  8  9  1  0
  9 10  1  0
 10 11  1  0
 11  6  1  0
M  END
>  <DRUGBANK_ID>  (1) 
DB02242

>  <SECONDARY_ACCESSION_NUMBERS>  (1) 
EXPT01069

>  <COMMON_NAME>  (1) 
Cyclohexanepropanoic acid

>  <CAS_NUMBER>  (1) 
701-97-3

>  <UNII>  (1) 
U36W9HNV6D

>  <SYNONYMS>  (1) 
3-Cyclohexanepropionic acid; 3-Cyclohexylpropanoic acid; 3-Cyclohexylpropionic acid

$$$$
