
     RDKit          3D

 35 42  0  0  1  0  0  0  0  0999 V2000
    2.1214   -0.8345   11.4131 C   0  0  0  0  0  0  0  0  0  0  0  0
   -1.8062   -3.1657   13.8511 C   0  0  0  0  0  0  0  0  0  0  0  0
    0.0580   -0.1662   14.6521 C   0  0  0  0  0  0  0  0  0  0  0  0
   -1.1944   -4.7422    7.4795 C   0  0  0  0  0  0  0  0  0  0  0  0
    5.3290    2.3035   10.1362 C   0  0  0  0  0  0  0  0  0  0  0  0
   -1.2598   -5.3893    8.6922 C   0  0  0  0  0  0  0  0  0  0  0  0
    6.5342    1.8290    9.7732 C   0  0  0  0  0  0  0  0  0  0  0  0
   -0.2022   -3.7947    7.2938 C   0  0  0  0  0  0  0  0  0  0  0  0
    4.2569    1.4152    9.9028 C   0  0  0  0  0  0  0  0  0  0  0  0
   -0.3202   -5.1084    9.7302 C   0  0  0  0  0  0  0  0  0  0  0  0
    6.6053    0.3863    9.8668 C   0  0  0  0  0  0  0  0  0  0  0  0
    0.9061   -3.8846   12.7600 C   0  0  0  0  0  0  0  0  0  0  0  0
    3.4244    0.1488    6.2946 C   0  0  0  0  0  0  0  0  0  0  0  0
    0.7983   -3.4866    8.2564 C   0  0  0  0  0  0  0  0  0  0  0  0
    4.4833    0.1398    9.2052 C   0  0  0  0  0  0  0  0  0  0  0  0
    3.2767   -0.8877    7.3146 C   0  0  0  0  0  0  0  0  0  0  0  0
    0.4560   -2.4495   12.8861 C   0  0  2  0  0  0  0  0  0  0  0  0
    0.7745   -4.1786    9.5340 C   0  0  0  0  0  0  0  0  0  0  0  0
    5.3792   -0.5863   10.0797 C   0  0  0  0  0  0  0  0  0  0  0  0
    2.1594   -3.9222   11.8074 C   0  0  1  0  0  0  0  0  0  0  0  0
    3.8494   -0.9831    8.5852 C   0  0  0  0  0  0  0  0  0  0  0  0
    1.9265   -2.6314    8.1977 C   0  0  0  0  0  0  0  0  0  0  0  0
    2.1175   -1.6600    7.1828 C   0  0  0  0  0  0  0  0  0  0  0  0
    2.6082   -2.9074    9.4080 C   0  0  0  0  0  0  0  0  0  0  0  0
    3.6958   -1.9176    9.6362 C   0  0  0  0  0  0  0  0  0  0  0  0
    1.7820   -1.4295   13.3535 C   0  0  1  0  0  0  0  0  0  0  0  0
    1.3243   -1.1033    6.0960 C   0  0  0  0  0  0  0  0  0  0  0  0
    3.2585   -1.5425   12.2177 C   0  0  0  0  0  0  0  0  0  0  0  0
   -0.9909   -2.1688   13.1776 N   0  0  0  0  0  0  0  0  0  0  0  0
    2.1259   -0.0140    5.6755 N   0  0  0  0  0  0  0  0  0  0  0  0
    1.9296   -3.7491   10.3397 N   0  0  0  0  0  0  0  0  0  0  0  0
    4.2152   -1.4097   10.8693 N   0  0  0  0  0  0  0  0  0  0  0  0
    0.2690   -1.3223    5.6115 O   0  0  0  0  0  0  0  0  0  0  0  0
    1.4325   -0.5275   14.4617 O   0  0  0  0  0  0  0  0  0  0  0  0
    3.2671   -3.0880   12.2806 O   0  0  0  0  0  0  0  0  0  0  0  0
  6  4  2  0
  7  5  2  0
  8  4  1  0
  9  5  1  0
 10  6  1  0
 11  7  1  0
 14  8  2  0
 15  9  2  0
 16 13  1  0
 17 12  1  0
 17 29  1  1
 18 10  2  0
 18 14  1  0
 19 11  2  0
 19 15  1  0
 20 12  1  1
 21 15  1  0
 21 16  2  0
 22 14  1  0
 23 16  1  0
 23 22  2  0
 24 22  1  0
 25 21  1  0
 25 24  2  0
 26 17  1  0
 26 34  1  6
 27 23  1  0
 28 26  1  0
 28  1  1  0
 29  2  1  0
 30 13  1  0
 30 27  1  0
 31 18  1  0
 31 20  1  0
 31 24  1  0
 32 19  1  0
 32 25  1  0
 32 28  1  0
 33 27  2  0
 34  3  1  0
 35 20  1  0
 35 28  1  0
M  END
>  <DRUGBANK_ID>  (1) 
DB02010

>  <SECONDARY_ACCESSION_NUMBERS>  (1) 
EXPT02970; EXPT02972

>  <COMMON_NAME>  (1) 
Staurosporine

>  <CAS_NUMBER>  (1) 
62996-74-1

>  <UNII>  (1) 
H88EPA0A3N

$$$$
