
     RDKit          3D

 34 38  0  0  1  0  0  0  0  0999 V2000
    0.9331    0.0091   -0.0961 C   0  0  0  0  0  0  0  0  0  0  0  0
    0.4490    1.3674    0.4270 C   0  0  0  0  0  0  0  0  0  0  0  0
    0.9465    2.4625   -0.5248 C   0  0  0  0  0  0  0  0  0  0  0  0
   -0.9832    1.3947    0.4207 O   0  0  0  0  0  0  0  0  0  0  0  0
    0.9237    1.5975    1.8548 C   0  0  0  0  0  0  0  0  0  0  0  0
    1.3152    0.5255    2.5973 N   0  0  0  0  0  0  0  0  0  0  0  0
    1.7726    0.7900    3.8417 C   0  0  0  0  0  0  0  0  0  0  0  0
    1.8071    2.0706    4.3647 C   0  0  0  0  0  0  0  0  0  0  0  0
    1.3431    3.1353    3.6723 N   0  0  0  0  0  0  0  0  0  0  0  0
    0.9460    2.8761    2.4053 C   0  0  0  0  0  0  0  0  0  0  0  0
    2.1902    2.2750    5.6786 N   0  0  0  0  0  0  0  0  0  0  0  0
    1.3347    2.9383    6.5697 C   0  0  0  0  0  0  0  0  0  0  0  0
    2.1049    2.9456    7.8779 C   0  0  2  0  0  0  0  0  0  0  0  0
    1.6241    1.8956    8.8928 C   0  0  0  0  0  0  0  0  0  0  0  0
    0.2369    2.2164    9.4332 C   0  0  0  0  0  0  0  0  0  0  0  0
    0.2299    3.5904   10.1029 C   0  0  0  0  0  0  0  0  0  0  0  0
    0.6653    4.7119    9.1264 C   0  0  2  0  0  0  0  0  0  0  0  0
    0.8722    6.0374    9.8822 C   0  0  0  0  0  0  0  0  0  0  0  0
   -0.4271    4.9231    8.0350 C   0  0  0  0  0  0  0  0  0  0  0  0
   -1.7430    5.2566    8.5409 N   0  0  0  0  0  0  0  0  0  0  0  0
   -2.0705    6.3737    9.2519 C   0  0  0  0  0  0  0  0  0  0  0  0
   -3.3122    6.3478    9.6620 N   0  0  0  0  0  0  0  0  0  0  0  0
   -3.8263    5.1920    9.1494 C   0  0  0  0  0  0  0  0  0  0  0  0
   -2.8687    4.4737    8.4387 C   0  0  0  0  0  0  0  0  0  0  0  0
   -3.1474    3.2440    7.8224 C   0  0  0  0  0  0  0  0  0  0  0  0
   -4.4601    2.7607    7.9281 C   0  0  0  0  0  0  0  0  0  0  0  0
   -5.4349    3.4821    8.6269 C   0  0  0  0  0  0  0  0  0  0  0  0
   -5.1275    4.6960    9.2506 C   0  0  0  0  0  0  0  0  0  0  0  0
   -4.8054    1.5174    7.3092 C   0  0  0  0  0  0  0  0  0  0  0  0
   -5.0800    0.5022    6.8062 N   0  0  0  0  0  0  0  0  0  0  0  0
    2.0495    4.3369    8.5189 C   0  0  0  0  0  0  0  0  0  0  0  0
    3.4440    2.5736    7.4884 O   0  0  0  0  0  0  0  0  0  0  0  0
    3.3834    1.9654    6.2540 C   0  0  0  0  0  0  0  0  0  0  0  0
    4.2862    1.3000    5.7773 O   0  0  0  0  0  0  0  0  0  0  0  0
  1  2  1  0
  2  3  1  0
  2  4  1  0
  2  5  1  0
  5  6  2  0
  5 10  1  0
  6  7  1  0
  7  8  2  0
  8  9  1  0
  8 11  1  0
  9 10  2  0
 11 12  1  0
 11 33  1  0
 13 12  1  6
 13 14  1  0
 13 31  1  0
 13 32  1  0
 14 15  1  0
 15 16  1  0
 17 16  1  0
 17 31  1  0
 17 19  1  0
 17 18  1  1
 19 20  1  0
 20 21  1  0
 20 24  1  0
 21 22  2  0
 22 23  1  0
 23 24  2  0
 23 28  1  0
 24 25  1  0
 25 26  2  0
 26 27  1  0
 26 29  1  0
 27 28  2  0
 29 30  3  0
 32 33  1  0
 33 34  2  0
M  END
>  <DRUGBANK_ID>  (1) 
DB16033

>  <COMMON_NAME>  (1) 
GSK2798745

>  <CAS_NUMBER>  (1) 
1419609-94-1

>  <UNII>  (1) 
63FJ7LF55O

$$$$
