AB3
     RDKit          3D

 21 23  0  0  0  0  0  0  0  0999 V2000
    0.9995   -0.0712    0.0179 C   0  0  0  0  0  0  0  0  0  0  0  0
    0.4947   -0.7524   -1.2742 C   0  0  0  0  0  0  0  0  0  0  0  0
    0.9742   -2.2180   -1.2329 C   0  0  0  0  0  0  0  0  0  0  0  0
   -1.0475   -0.7554   -1.2507 C   0  0  0  0  0  0  0  0  0  0  0  0
    0.9636   -0.0161   -2.4673 N   0  0  0  0  0  0  0  0  0  0  0  0
    0.7831    1.3365   -2.5156 N   0  0  0  0  0  0  0  0  0  0  0  0
    1.5101   -0.5152   -3.6320 C   0  0  0  0  0  0  0  0  0  0  0  0
    1.8445   -1.7837   -3.9243 N   0  0  0  0  0  0  0  0  0  0  0  0
    2.3312   -1.9072   -5.1705 C   0  0  0  0  0  0  0  0  0  0  0  0
    2.4982   -0.9429   -6.0948 N   0  0  0  0  0  0  0  0  0  0  0  0
    2.1532    0.3165   -5.7695 C   0  0  0  0  0  0  0  0  0  0  0  0
    2.3127    1.2856   -6.7353 N   0  0  0  0  0  0  0  0  0  0  0  0
    1.6388    0.5649   -4.4908 C   0  0  0  0  0  0  0  0  0  0  0  0
    1.1569    1.6806   -3.7573 C   0  0  0  0  0  0  0  0  0  0  0  0
    1.0568    3.0500   -4.2533 C   0  0  0  0  0  0  0  0  0  0  0  0
    1.7920    4.0834   -3.6611 C   0  0  0  0  0  0  0  0  0  0  0  0
    0.3054    3.3079   -5.4127 C   0  0  0  0  0  0  0  0  0  0  0  0
    0.3207    4.5715   -6.0010 C   0  0  0  0  0  0  0  0  0  0  0  0
    1.0551    5.5957   -5.4107 C   0  0  0  0  0  0  0  0  0  0  0  0
    1.7774    5.3489   -4.2463 C   0  0  0  0  0  0  0  0  0  0  0  0
    2.4840    6.3911   -3.7209 O   0  0  0  0  0  0  0  0  0  0  0  0
  1  2  1  0
  2  3  1  0
  2  4  1  0
  2  5  1  0
  5  6  1  0
  5  7  1  0
  6 14  2  0
  7  8  2  0
  7 13  1  0
  8  9  1  0
  9 10  2  0
 10 11  1  0
 11 12  1  0
 11 13  2  0
 13 14  1  0
 14 15  1  0
 15 16  2  0
 15 17  1  0
 16 20  1  0
 17 18  2  0
 18 19  1  0
 19 20  2  0
 20 21  1  0
M  END
>  <DRUGBANK_ID>  (1) 
DB04463

>  <SECONDARY_ACCESSION_NUMBERS>  (1) 
EXPT00389

>  <COMMON_NAME>  (1) 
3-(4-Amino-1-Tert-Butyl-1h-Pyrazolo[3,4-D]Pyrimidin-3-Yl)Phenol

$$$$
