
     RDKit          3D

 33 36  0  0  0  0  0  0  0  0999 V2000
    2.1196   -0.2566    3.9198 C   0  0  1  0  0  0  0  0  0  0  0  0
    3.4442   -0.1035    4.3690 O   0  0  0  0  0  0  0  0  0  0  0  0
    4.1951    0.9511    3.9578 C   0  0  0  0  0  0  0  0  0  0  0  0
    3.7249    2.3451    3.0604 C   0  0  2  0  0  0  0  0  0  0  0  0
    5.2873    3.4890    3.6023 C   0  0  0  0  0  0  0  0  0  0  0  0
    5.1206    5.0029    4.4653 O   0  0  0  0  0  0  0  0  0  0  0  0
    1.9015    3.1216    2.8425 C   0  0  0  0  0  0  0  0  0  0  0  0
    1.2388    3.9395    3.9760 C   0  0  0  0  0  0  0  0  0  0  0  0
    0.0803    4.6765    4.3224 C   0  0  0  0  0  0  0  0  0  0  0  0
   -0.6442    4.9088    3.2530 C   0  0  0  0  0  0  0  0  0  0  0  0
    0.0307    4.6672    2.0250 C   0  0  0  0  0  0  0  0  0  0  0  0
    1.2406    3.7627    1.7786 C   0  0  0  0  0  0  0  0  0  0  0  0
    5.3869    0.8606    4.2946 O   0  0  0  0  0  0  0  0  0  0  0  0
    2.1778   -0.0181    2.3891 C   0  0  0  0  0  0  0  0  0  0  0  0
    1.6589   -1.1882    1.6904 C   0  0  1  0  0  0  0  0  0  0  0  0
    2.6168   -2.2817    2.1291 C   0  0  0  0  0  0  0  0  0  0  0  0
    1.9357   -2.9386    3.3153 C   0  0  0  0  0  0  0  0  0  0  0  0
    0.6348   -2.1699    3.5878 C   0  0  1  0  0  0  0  0  0  0  0  0
    1.0991   -1.1932    4.6058 C   0  0  0  0  0  0  0  0  0  0  0  0
    0.2619   -1.4670    2.2627 N   0  0  2  0  0  0  0  0  0  0  0  0
   -0.3692   -2.4170    1.2714 C   0  0  0  0  0  0  0  0  0  0  0  0
   -0.9254   -0.2752    2.3410 C   0  0  0  0  0  0  0  0  0  0  0  0
   -0.9810    0.7209    3.4391 C   0  0  0  0  0  0  0  0  0  0  0  0
    0.0782    1.5565    3.4363 C   0  0  0  0  0  0  0  0  0  0  0  0
    0.6690    1.8547    4.7081 C   0  0  0  0  0  0  0  0  0  0  0  0
    0.2472    2.3559    5.8784 C   0  0  0  0  0  0  0  0  0  0  0  0
   -1.0853    2.0182    5.7264 C   0  0  0  0  0  0  0  0  0  0  0  0
   -1.6135    1.0584    4.6035 C   0  0  0  0  0  0  0  0  0  0  0  0
    0.9370    3.3018    6.7438 O   0  0  0  0  0  0  0  0  0  0  0  0
    2.2371    4.4243    6.5956 C   0  0  0  0  0  0  0  0  0  0  0  0
    3.5669    3.7600    6.4408 C   0  0  0  0  0  0  0  0  0  0  0  0
    3.5553    3.3013    5.0285 C   0  0  0  0  0  0  0  0  0  0  0  0
    3.4229    4.4476    3.3659 C   0  0  0  0  0  0  0  0  0  0  0  0
  1 14  1  0
  1 19  1  0
  1  2  1  6
  2  3  1  0
  3 13  2  0
  4  7  1  0
  4  5  1  1
  4  3  1  0
  5  6  1  0
  7 12  1  0
  8  7  2  0
  9  8  1  0
 10  9  2  0
 11 10  1  0
 12 11  2  0
 15 14  1  1
 15 16  1  0
 15 20  1  0
 17 16  1  0
 18 17  1  6
 18 20  1  0
 19 18  1  0
 20 21  1  6
 20 22  1  0
 22 23  1  0
 23 24  2  0
 24 25  1  0
 25 26  2  0
 26 27  1  0
 26 29  1  0
 27 28  2  0
 28 23  1  0
 29 30  1  0
 30 31  1  0
 31 32  1  0
 32 33  1  0
M  CHG  1  20   1
M  END
>  <DRUGBANK_ID>  (1) 
DB15968

>  <COMMON_NAME>  (1) 
Butropium

>  <CAS_NUMBER>  (1) 
107080-63-7

>  <UNII>  (1) 
7WSK03KXXW

$$$$
