
     RDKit          3D

 32 36  0  0  1  0  0  0  0  0999 V2000
    1.0691    0.0292    0.1999 C   0  0  0  0  0  0  0  0  0  0  0  0
    0.7894   -0.7745   -1.0388 C   0  0  0  0  0  0  0  0  0  0  0  0
    1.8381   -1.8915   -1.3932 C   0  0  2  0  0  0  0  0  0  0  0  0
    3.3098   -1.5504   -2.2044 C   0  0  0  0  0  0  0  0  0  0  0  0
    4.1971   -0.3359   -2.3012 C   0  0  0  0  0  0  0  0  0  0  0  0
    3.6126    0.7439   -2.8225 C   0  0  0  0  0  0  0  0  0  0  0  0
    2.3795    0.4693   -3.3761 N   0  0  0  0  0  0  0  0  0  0  0  0
    2.0234   -0.8147   -3.8278 C   0  0  0  0  0  0  0  0  0  0  0  0
    0.8876   -1.0685   -4.2512 O   0  0  0  0  0  0  0  0  0  0  0  0
    3.0367   -1.9557   -3.4524 C   0  0  0  0  0  0  0  0  0  0  0  0
    2.7452   -3.4386   -3.3788 C   0  0  0  0  0  0  0  0  0  0  0  0
    1.3793   -3.6911   -3.2247 O   0  0  0  0  0  0  0  0  0  0  0  0
    0.8139   -2.9529   -2.2316 C   0  0  0  0  0  0  0  0  0  0  0  0
   -0.3900   -3.0931   -2.0167 O   0  0  0  0  0  0  0  0  0  0  0  0
    1.5499    1.6631   -3.2756 C   0  0  0  0  0  0  0  0  0  0  0  0
    2.5717    2.7433   -3.1570 C   0  0  0  0  0  0  0  0  0  0  0  0
    3.8441    2.2016   -2.9661 C   0  0  0  0  0  0  0  0  0  0  0  0
    4.9639    2.9360   -2.8490 N   0  0  0  0  0  0  0  0  0  0  0  0
    4.8063    4.2920   -2.9857 C   0  0  0  0  0  0  0  0  0  0  0  0
    5.8908    5.1741   -2.8820 C   0  0  0  0  0  0  0  0  0  0  0  0
    5.7497    6.5762   -2.9019 C   0  0  0  0  0  0  0  0  0  0  0  0
    4.5147    7.1391   -3.1385 C   0  0  0  0  0  0  0  0  0  0  0  0
    3.4558    6.2949   -3.4106 C   0  0  0  0  0  0  0  0  0  0  0  0
    3.5369    4.9009   -3.2038 C   0  0  0  0  0  0  0  0  0  0  0  0
    2.3710    4.1076   -3.1671 C   0  0  0  0  0  0  0  0  0  0  0  0
    0.9561    4.6674   -3.0934 C   0  0  0  0  0  0  0  0  0  0  0  0
    0.6017    5.4430   -1.7907 C   0  0  0  0  0  0  0  0  0  0  0  0
    1.4986    6.5704   -1.5708 N   0  0  0  0  0  0  0  0  0  0  0  0
    1.2910    7.4332   -0.4273 C   0  0  0  0  0  0  0  0  0  0  0  0
    1.5278    6.6047    0.8262 C   0  0  0  0  0  0  0  0  0  0  0  0
    2.3431    8.5555   -0.5095 C   0  0  0  0  0  0  0  0  0  0  0  0
    2.2475   -2.5360   -0.1889 O   0  0  0  0  0  0  0  0  0  0  0  0
  1  2  1  0
  3  2  1  0
  3  4  1  0
  3 13  1  0
  3 32  1  1
  4  5  1  0
  4 10  2  0
  5  6  2  0
  6  7  1  0
  6 17  1  0
  7  8  1  0
  7 15  1  0
  8  9  2  0
  8 10  1  0
 10 11  1  0
 11 12  1  0
 12 13  1  0
 13 14  2  0
 15 16  1  0
 16 17  2  0
 16 25  1  0
 17 18  1  0
 18 19  2  0
 19 20  1  0
 19 24  1  0
 20 21  2  0
 21 22  1  0
 22 23  2  0
 23 24  1  0
 24 25  2  0
 25 26  1  0
 26 27  1  0
 27 28  1  0
 28 29  1  0
 29 30  1  0
 29 31  1  0
M  END
>  <DRUGBANK_ID>  (1) 
DB12459

>  <COMMON_NAME>  (1) 
Belotecan

>  <CAS_NUMBER>  (1) 
256411-32-2

>  <UNII>  (1) 
27Z82M2G1N

>  <SYNONYMS>  (1) 
Belotecan

$$$$
