
     RDKit          3D

 21 23  0  0  0  0  0  0  0  0999 V2000
    1.0784   -0.0704    0.0746 C   0  0  0  0  0  0  0  0  0  0  0  0
   -0.1743    1.4280   -2.1689 C   0  0  0  0  0  0  0  0  0  0  0  0
   -1.6957   -2.0120   -8.0887 C   0  0  0  0  0  0  0  0  0  0  0  0
   -1.9070   -0.6394   -7.9454 C   0  0  0  0  0  0  0  0  0  0  0  0
   -1.1768   -2.7452   -7.0317 C   0  0  0  0  0  0  0  0  0  0  0  0
    0.8131   -2.1495   -1.2541 C   0  0  0  0  0  0  0  0  0  0  0  0
    0.4978   -2.8419   -2.4117 C   0  0  0  0  0  0  0  0  0  0  0  0
   -1.8692    1.5030   -6.6177 C   0  0  0  0  0  0  0  0  0  0  0  0
    0.6117   -0.7612   -1.1762 C   0  0  0  0  0  0  0  0  0  0  0  0
    0.0631   -0.0566   -2.2745 C   0  0  0  0  0  0  0  0  0  0  0  0
   -1.6040    0.0196   -6.7396 C   0  0  0  0  0  0  0  0  0  0  0  0
   -0.8646   -2.0968   -5.8380 C   0  0  0  0  0  0  0  0  0  0  0  0
   -0.0220   -2.1441   -3.4986 C   0  0  0  0  0  0  0  0  0  0  0  0
   -2.8400    1.8527   -5.5185 C   0  0  0  0  0  0  0  0  0  0  0  0
   -0.3250   -2.8742   -4.7263 C   0  0  0  0  0  0  0  0  0  0  0  0
   -0.2496   -0.7670   -3.4479 C   0  0  0  0  0  0  0  0  0  0  0  0
   -1.0641   -0.7261   -5.6775 C   0  0  0  0  0  0  0  0  0  0  0  0
   -2.6245    2.6032   -4.5793 O   0  0  0  0  0  0  0  0  0  0  0  0
   -4.0484    1.2728   -5.6692 O   0  0  0  0  0  0  0  0  0  0  0  0
   -0.1354   -4.0825   -4.8206 O   0  0  0  0  0  0  0  0  0  0  0  0
   -0.7594   -0.0587   -4.5139 O   0  0  0  0  0  0  0  0  0  0  0  0
  4  3  2  0
  5  3  1  0
  7  6  1  0
  9  1  1  0
  9  6  2  0
 10  2  1  0
 10  9  1  0
 11  4  1  0
 11  8  1  0
 12  5  2  0
 13  7  2  0
 14  8  1  0
 15 12  1  0
 15 13  1  0
 16 10  2  0
 16 13  1  0
 17 11  2  0
 17 12  1  0
 18 14  2  0
 19 14  1  0
 20 15  2  0
 21 16  1  0
 21 17  1  0
M  END
>  <DRUGBANK_ID>  (1) 
DB06235

>  <SECONDARY_ACCESSION_NUMBERS>  (1) 
DB13081

>  <COMMON_NAME>  (1) 
Vadimezan

>  <CAS_NUMBER>  (1) 
117570-53-3

>  <UNII>  (1) 
0829J8133H

>  <SYNONYMS>  (1) 
(5,6-dimethyl-9-oxoxanthen-4-yl)acetic acid; 5,6-Dimethyl-9-oxo-9H-xanthene-4-acetic acid; 5,6-Dimethylxanthenone-4-acetic acid; 5,6-Dimethylxanthenoneacetic acid; 5,6-MeXAA; Dimethyloxoxanthene acetic acid; DMXAA; Vadim√©zan; Vadimezan; Vadimezanum

$$$$
