AT6
     RDKit          3D

 21 22  0  0  0  0  0  0  0  0999 V2000
   -0.7538    1.1907    0.0464 C   0  0  0  0  0  0  0  0  0  0  0  0
   -1.4207   -0.0274   -0.0067 C   0  0  0  0  0  0  0  0  0  0  0  0
   -0.6911   -1.2130   -0.0052 C   0  0  0  0  0  0  0  0  0  0  0  0
    0.6578   -1.2320   -0.0082 N   0  0  0  0  0  0  0  0  0  0  0  0
    1.2996   -0.0389    0.0541 C   0  0  0  0  0  0  0  0  0  0  0  0
    0.6242    1.1704    0.1315 C   0  0  0  0  0  0  0  0  0  0  0  0
    2.8012   -0.0123    0.0061 C   0  0  0  0  0  0  0  0  0  0  0  0
    3.3362    0.6761   -1.2514 C   0  0  0  0  0  0  0  0  0  0  0  0
    3.0533    2.1113   -1.3745 N   0  0  0  0  0  0  0  0  0  0  0  0
    3.9041    3.1878   -1.3131 C   0  0  0  0  0  0  0  0  0  0  0  0
    3.4597    4.3279   -1.2325 O   0  0  0  0  0  0  0  0  0  0  0  0
    5.3649    2.9418   -1.3318 C   0  0  0  0  0  0  0  0  0  0  0  0
    5.9055    1.9717   -2.1830 C   0  0  0  0  0  0  0  0  0  0  0  0
    7.2091    1.5233   -1.9913 C   0  0  0  0  0  0  0  0  0  0  0  0
    8.0483    2.2019   -1.1078 C   0  0  0  0  0  0  0  0  0  0  0  0
    7.5646    3.3249   -0.4225 C   0  0  0  0  0  0  0  0  0  0  0  0
    6.2040    3.6502   -0.4735 C   0  0  0  0  0  0  0  0  0  0  0  0
    9.3829    1.7311   -0.8987 C   0  0  0  0  0  0  0  0  0  0  0  0
   10.4570    1.3137   -0.7226 N   0  0  0  0  0  0  0  0  0  0  0  0
   -1.3512   -2.4201   -0.0364 N   0  0  0  0  0  0  0  0  0  0  0  0
   -1.4516    2.5104    0.0172 C   0  0  0  0  0  0  0  0  0  0  0  0
  1  2  2  0
  1  6  1  0
  1 21  1  0
  2  3  1  0
  3  4  2  0
  3 20  1  0
  4  5  1  0
  5  6  2  0
  5  7  1  0
  7  8  1  0
  8  9  1  0
  9 10  1  0
 10 11  2  0
 10 12  1  0
 12 13  2  0
 12 17  1  0
 13 14  1  0
 14 15  2  0
 15 16  1  0
 15 18  1  0
 16 17  2  0
 18 19  3  0
M  END
>  <DRUGBANK_ID>  (1) 
DB07389

>  <COMMON_NAME>  (1) 
N-[2-(6-AMINO-4-METHYLPYRIDIN-2-YL)ETHYL]-4-CYANOBENZAMIDE

$$$$
