
     RDKit          3D

 12  9  0  0  1  0  0  0  0  0999 V2000
    1.0827   -0.8171   -2.5521 C   0  0  2  0  0  0  0  0  0  0  0  0
    0.6051   -0.0577   -1.3276 C   0  0  2  0  0  0  0  0  0  0  0  0
    1.0296   -0.3475    0.1631 C   0  0  0  0  0  0  0  0  0  0  0  0
    2.2516   -0.5088    0.4196 O   0  0  0  0  0  0  0  0  0  0  0  0
    0.2045    0.1639    0.9996 O   0  0  0  0  0  0  0  0  0  0  0  0
   -0.8537    0.1167   -1.3878 O   0  0  0  0  0  0  0  0  0  0  0  0
    2.1659   -1.7728   -2.0242 C   0  0  0  0  0  0  0  0  0  0  0  0
    3.3429   -1.3641   -2.2075 O   0  0  0  0  0  0  0  0  0  0  0  0
    1.6855   -2.7737   -1.4022 O   0  0  0  0  0  0  0  0  0  0  0  0
    1.6055    0.1546   -3.5007 O   0  0  0  0  0  0  0  0  0  0  0  0
   -1.3405    1.2787    0.4018 Na  0  0  0  0  0 15  0  0  0  0  0  0
    3.1034    1.2341    0.3810 Na  0  0  0  0  0 15  0  0  0  0  0  0
  1  7  1  0
  1 10  1  6
  2  6  1  1
  2  3  1  0
  2  1  1  0
  3  4  2  0
  3  5  1  0
  7  8  2  0
  7  9  1  0
M  CHG  4   5  -1   9  -1  11   1  12   1
M  END
>  <DRUGBANK_ID>  (1) 
DB13707

>  <COMMON_NAME>  (1) 
Sodium tartrate

>  <CAS_NUMBER>  (1) 
868-18-8

>  <UNII>  (1) 
QTO9JB4MDD

>  <SYNONYMS>  (1) 
Bisodium tartrate; Disodium L-(+)-tartrate; disodium tartrate; sodium L-tartrate; Tartaric acid, disodium salt

$$$$
