
     RDKit          3D

 25 27  0  0  0  0  0  0  0  0999 V2000
    1.2763   -0.0906   -0.9824 C   0  0  0  0  0  0  0  0  0  0  0  0
   -0.8527    1.2050   -1.0496 C   0  0  0  0  0  0  0  0  0  0  0  0
    3.3635    0.5413    2.6630 C   0  0  0  0  0  0  0  0  0  0  0  0
   -1.4029    4.6204    5.7616 C   0  0  0  0  0  0  0  0  0  0  0  0
    3.3250   -0.5669    3.4712 C   0  0  0  0  0  0  0  0  0  0  0  0
   -1.3479    3.9048    6.9604 C   0  0  0  0  0  0  0  0  0  0  0  0
    2.4510    1.5925    2.9300 C   0  0  0  0  0  0  0  0  0  0  0  0
   -1.0269    3.9823    4.6166 C   0  0  0  0  0  0  0  0  0  0  0  0
    2.3749   -0.6074    4.5124 C   0  0  0  0  0  0  0  0  0  0  0  0
   -0.9379    2.5569    7.0284 C   0  0  0  0  0  0  0  0  0  0  0  0
    1.1485    2.2686   -0.2306 C   0  0  0  0  0  0  0  0  0  0  0  0
    0.5488    2.0103    1.0851 C   0  0  0  0  0  0  0  0  0  0  0  0
   -0.0141   -0.4131    1.6957 C   0  0  0  0  0  0  0  0  0  0  0  0
   -1.4462   -0.4188    2.0920 C   0  0  0  0  0  0  0  0  0  0  0  0
    1.2338    1.3944    3.7596 C   0  0  0  0  0  0  0  0  0  0  0  0
   -0.5963    2.6506    4.7230 C   0  0  0  0  0  0  0  0  0  0  0  0
    1.3355    0.3534    4.6682 C   0  0  0  0  0  0  0  0  0  0  0  0
   -0.5530    1.9008    5.8896 C   0  0  0  0  0  0  0  0  0  0  0  0
   -1.3993    1.9605    2.6782 C   0  0  0  0  0  0  0  0  0  0  0  0
    0.6270    1.2282   -1.1288 N   0  0  0  0  0  0  0  0  0  0  0  0
   -0.2275    2.0036    3.5711 N   0  0  0  0  0  0  0  0  0  0  0  0
   -1.9587    3.0342    2.2807 O   0  0  0  0  0  0  0  0  0  0  0  0
    0.8314    0.6952    1.5564 O   0  0  0  0  0  0  0  0  0  0  0  0
   -2.0132    0.8597    2.1782 O   0  0  0  0  0  0  0  0  0  0  0  0
    0.0327    0.1927    5.8893 S   0  0  0  0  0  0  0  0  0  0  0  0
  5  3  2  0
  6  4  2  0
  7  3  1  0
  8  4  1  0
  9  5  1  0
 10  6  1  0
 12 11  1  0
 14 13  1  0
 15  7  2  0
 16  8  2  0
 17  9  2  0
 17 15  1  0
 18 10  2  0
 18 16  1  0
 20  1  1  0
 20  2  1  0
 20 11  1  0
 21 15  1  0
 21 16  1  0
 21 19  1  0
 22 19  2  0
 23 12  1  0
 23 13  1  0
 24 14  1  0
 24 19  1  0
 25 17  1  0
 25 18  1  0
M  END
>  <DRUGBANK_ID>  (1) 
DB13794

>  <COMMON_NAME>  (1) 
Dimethoxanate

>  <CAS_NUMBER>  (1) 
477-93-0

>  <UNII>  (1) 
1E3KG5FWDB

>  <SYNONYMS>  (1) 
Dimethoxanate

$$$$
