
     RDKit          3D

 23 23  0  0  0  0  0  0  0  0999 V2000
    0.0765   -1.0228    0.0251 C   0  0  0  0  0  0  0  0  0  0  0  0
    1.2627   -0.2837    0.0031 C   0  0  0  0  0  0  0  0  0  0  0  0
   -1.1353   -0.3354    0.0765 C   0  0  0  0  0  0  0  0  0  0  0  0
    0.1079   -2.5222   -0.0099 C   0  0  0  0  0  0  0  0  0  0  0  0
   -0.6091   -3.1189    1.1721 C   0  0  0  0  0  0  0  0  0  0  0  0
   -1.1446    1.0400    0.1932 C   0  0  0  0  0  0  0  0  0  0  0  0
    1.2494    1.1090   -0.0014 C   0  0  0  0  0  0  0  0  0  0  0  0
    0.0331    1.7888    0.0711 C   0  0  0  0  0  0  0  0  0  0  0  0
   -1.6933   -3.9075    1.0507 C   0  0  0  0  0  0  0  0  0  0  0  0
   -5.8131   -5.1343    1.2869 C   0  0  0  0  0  0  0  0  0  0  0  0
   -4.7982   -4.2485    1.2102 C   0  0  0  0  0  0  0  0  0  0  0  0
    2.4524   -0.9551   -0.0279 O   0  0  0  0  0  0  0  0  0  0  0  0
   -2.3272   -1.0000   -0.0007 O   0  0  0  0  0  0  0  0  0  0  0  0
   -3.9147   -3.7975    2.3410 C   0  0  0  0  0  0  0  0  0  0  0  0
   -2.4787   -4.3541    2.2607 C   0  0  0  0  0  0  0  0  0  0  0  0
   -2.1686   -4.3203   -0.3175 C   0  0  0  0  0  0  0  0  0  0  0  0
   -6.4845   -5.6439    0.0446 C   0  0  0  0  0  0  0  0  0  0  0  0
   -6.3029   -5.6258    2.6092 C   0  0  0  0  0  0  0  0  0  0  0  0
   -0.0059    3.2939   -0.0176 C   0  0  0  0  0  0  0  0  0  0  0  0
   -0.7588    3.8054   -1.2612 C   0  0  0  0  0  0  0  0  0  0  0  0
   -2.9964    3.8974   -0.0260 C   0  0  0  0  0  0  0  0  0  0  0  0
   -2.2574    3.4636   -1.2995 C   0  0  0  0  0  0  0  0  0  0  0  0
   -3.0228    5.4085    0.0793 C   0  0  0  0  0  0  0  0  0  0  0  0
  2  1  2  0
  3  1  1  0
  4  1  1  0
  5  4  1  0
  6  3  2  0
  6  8  1  0
  7  2  1  0
  8  7  2  0
  9  5  2  0
 10 11  2  3
 11 14  1  0
 12  2  1  0
 13  3  1  0
 14 15  1  0
 15  9  1  0
 16  9  1  0
 17 10  1  0
 18 10  1  0
 19  8  1  0
 20 19  1  0
 21 22  1  0
 22 20  1  0
 23 21  1  0
M  END
>  <DRUGBANK_ID>  (1) 
DB14734

>  <COMMON_NAME>  (1) 
Cannabigerol

>  <CAS_NUMBER>  (1) 
25654-31-3

>  <UNII>  (1) 
J1K406072N

$$$$
