
     RDKit          3D

 34 35  0  0  1  0  0  0  0  0999 V2000
   -4.3583    5.4246    1.6520 C   0  0  0  0  0  0  0  0  0  0  0  0
   -3.7360    3.9923    1.5724 C   0  0  0  0  0  0  0  0  0  0  0  0
   -2.4269    3.0380    1.1415 C   0  0  0  0  0  0  0  0  0  0  0  0
   -2.0819    0.9450    1.0644 C   0  0  0  0  0  0  0  0  0  0  0  0
   -3.6728    1.5850    1.7815 N   0  0  0  0  0  0  0  0  0  0  0  0
   -4.4887    2.9704    1.9704 O   0  0  0  0  0  0  0  0  0  0  0  0
   -0.9292   -0.9275    0.4849 C   0  0  0  0  0  0  0  0  0  0  0  0
   -0.3481   -2.8857   -0.0062 C   0  0  0  0  0  0  0  0  0  0  0  0
   -1.9455   -1.7330    1.1871 C   0  0  0  0  0  0  0  0  0  0  0  0
    0.9998   -5.0538   -0.7765 C   0  0  2  0  0  0  0  0  0  0  0  0
    2.3536   -7.1452   -1.6754 C   0  0  0  0  0  0  0  0  0  0  0  0
    3.5760   -9.2368   -2.2968 C   0  0  0  0  0  0  0  0  0  0  0  0
    3.9087  -10.9568   -1.9148 C   0  0  0  0  0  0  0  0  0  0  0  0
    2.5174   -9.9133   -2.4536 C   0  0  0  0  0  0  0  0  0  0  0  0
    2.1933   -9.8180   -0.7655 C   0  0  0  0  0  0  0  0  0  0  0  0
    2.5317   -8.8117   -0.0648 C   0  0  0  0  0  0  0  0  0  0  0  0
    2.1752   -8.5437    1.2239 C   0  0  1  0  0  0  0  0  0  0  0  0
    3.3512   -8.0058    1.9881 C   0  0  1  0  0  0  0  0  0  0  0  0
    3.8332   -6.6516    1.5023 C   0  0  2  0  0  0  0  0  0  0  0  0
    2.7849   -5.6271    1.6744 C   0  0  0  0  0  0  0  0  0  0  0  0
    1.7266   -5.6557    1.1234 O   0  0  0  0  0  0  0  0  0  0  0  0
    2.8831   -4.4188    2.4830 C   0  0  0  0  0  0  0  0  0  0  0  0
    2.7979   -3.1845    1.6584 C   0  0  2  0  0  0  0  0  0  0  0  0
    1.5336   -3.0982    1.1353 C   0  0  0  0  0  0  0  0  0  0  0  0
    0.2904   -3.2915    2.0091 C   0  0  0  0  0  0  0  0  0  0  0  0
   -0.3964   -3.9727    2.7585 O   0  0  0  0  0  0  0  0  0  0  0  0
    0.0572   -4.2082    0.6768 O   0  0  0  0  0  0  0  0  0  0  0  0
    3.6678   -3.1710    0.5417 O   0  0  0  0  0  0  0  0  0  0  0  0
    4.1809   -4.3861    3.1051 C   0  0  0  0  0  0  0  0  0  0  0  0
    1.8977   -4.4508    3.5899 C   0  0  0  0  0  0  0  0  0  0  0  0
    4.3951   -6.6922    0.1313 C   0  0  0  0  0  0  0  0  0  0  0  0
    2.9589   -7.9199    3.3437 O   0  0  0  0  0  0  0  0  0  0  0  0
    0.9988   -7.6643    1.2468 C   0  0  0  0  0  0  0  0  0  0  0  0
    5.5472  -10.6723   -1.5918 C   0  0  0  0  0  0  0  0  0  0  0  0
  1  2  1  0
  2  3  2  0
  2  6  1  0
  3  4  1  0
  4  5  2  0
  4  7  1  0
  5  6  1  0
  7  8  2  0
  8  9  1  0
 10 11  1  0
 10 27  1  0
 10  8  1  6
 11 12  1  0
 12 13  2  0
 13 14  1  0
 13 34  1  0
 14 15  1  0
 15 16  2  0
 16 17  1  0
 17 18  1  0
 17 33  1  6
 18 19  1  0
 18 32  1  1
 19 20  1  0
 19 31  1  6
 20 21  2  0
 20 22  1  0
 22 23  1  0
 22 29  1  0
 22 30  1  0
 23 24  1  0
 23 28  1  6
 24 25  1  0
 25 26  2  0
 25 27  1  0
M  END
>  <DRUGBANK_ID>  (1) 
DB13078

>  <COMMON_NAME>  (1) 
KOSN-1724

>  <CAS_NUMBER>  (1) 
693272-98-9

>  <UNII>  (1) 
6MUO20693U

>  <SYNONYMS>  (1) 
ISO-Fludelone

$$$$
