953
     RDKit          3D

 20 22  0  0  0  0  0  0  0  0999 V2000
   -1.4336    1.1228   -0.2606 N   0  0  0  0  0  0  0  0  0  0  0  0
   -4.2372   -2.0277    1.3226 N   0  0  0  0  0  0  0  0  0  0  0  0
    3.6612   -2.3111    1.1736 N   0  0  0  0  0  0  0  0  0  0  0  0
    4.7322   -2.1802    1.9853 N   0  0  0  0  0  0  0  0  0  0  0  0
    3.3840   -3.8872    2.6703 N   0  0  0  0  0  0  0  0  0  0  0  0
   -1.5251   -1.0958   -0.2986 C   0  0  0  0  0  0  0  0  0  0  0  0
   -0.1773   -0.6762   -0.1358 C   0  0  0  0  0  0  0  0  0  0  0  0
   -2.0965   -2.4980   -0.1114 C   0  0  0  0  0  0  0  0  0  0  0  0
   -0.1365    0.7114   -0.1112 C   0  0  0  0  0  0  0  0  0  0  0  0
   -2.9658   -2.7836    1.1794 C   0  0  0  0  0  0  0  0  0  0  0  0
    1.0225   -1.3746   -0.0446 C   0  0  0  0  0  0  0  0  0  0  0  0
   -2.1487    0.0576   -0.7674 C   0  0  0  0  0  0  0  0  0  0  0  0
    2.2354   -0.6778    0.0172 C   0  0  0  0  0  0  0  0  0  0  0  0
    1.0370    1.4532    0.0155 C   0  0  0  0  0  0  0  0  0  0  0  0
    2.2312    0.7247    0.0270 C   0  0  0  0  0  0  0  0  0  0  0  0
    3.5176   -1.4645    0.0015 C   0  0  0  0  0  0  0  0  0  0  0  0
   -5.0669   -2.4520    2.4466 C   0  0  0  0  0  0  0  0  0  0  0  0
   -3.9723   -0.6259    1.5867 C   0  0  0  0  0  0  0  0  0  0  0  0
    2.8885   -3.3548    1.5917 C   0  0  0  0  0  0  0  0  0  0  0  0
    4.5115   -3.1456    2.8765 C   0  0  0  0  0  0  0  0  0  0  0  0
  1  9  1  0
  1 12  1  0
  2 10  1  0
  2 17  1  0
  2 18  1  0
  3  4  1  0
  3 16  1  0
  3 19  1  0
  4 20  2  0
  5 19  2  0
  5 20  1  0
  6  7  1  0
  6  8  1  0
  6 12  2  0
  7  9  2  0
  7 11  1  0
  8 10  1  0
  9 14  1  0
 11 13  2  0
 13 15  1  0
 13 16  1  0
 14 15  2  0
M  END
>  <DRUGBANK_ID>  (1) 
DB00953

>  <SECONDARY_ACCESSION_NUMBERS>  (1) 
APRD00008

>  <COMMON_NAME>  (1) 
Rizatriptan

>  <CAS_NUMBER>  (1) 
144034-80-0

>  <UNII>  (1) 
51086HBW8G

>  <SYNONYMS>  (1) 
N,N-Dimethyl-2-[5-(1,2,4-triazol-1-ylmethyl)-1H-indol-3-yl]-ethanamine; N,N-Dimethyl-5-(1H-1,2,4-triazol-1-ylmethyl)-1H-indole-3-ethanamine; Risatriptan; Rizatript√°n; Rizatriptan; Rizatriptanum

$$$$
