
     RDKit          3D

 10  9  0  0  0  0  0  0  0  0999 V2000
    1.0822    0.0430   -0.0899 O   0  0  0  0  0  0  0  0  0  0  0  0
    0.6853    0.1043   -3.5768 C   0  0  0  0  0  0  0  0  0  0  0  0
   -0.8085    0.1839   -3.9433 C   0  0  0  0  0  0  0  0  0  0  0  0
   -1.2992    1.5722   -4.3713 C   0  0  0  0  0  0  0  0  0  0  0  0
   -0.4984    2.1400   -5.5428 C   0  0  0  0  0  0  0  0  0  0  0  0
   -0.7526    1.3353   -6.7281 N   0  0  0  0  0  0  0  0  0  0  0  0
    0.3289    0.5164   -1.1080 C   0  0  0  0  0  0  0  0  0  0  0  0
   -0.8827    0.6140   -1.0102 O   0  0  0  0  0  0  0  0  0  0  0  0
    1.1369    0.9322   -2.3578 C   0  0  2  0  0  0  0  0  0  0  0  0
    1.0716    2.3945   -2.5201 N   0  0  0  0  0  0  0  0  0  0  0  0
  1  7  1  0
  2  9  1  0
  3  2  1  0
  4  3  1  0
  5  4  1  0
  6  5  1  0
  7  8  2  0
  9  7  1  0
  9 10  1  6
M  END
>  <DRUGBANK_ID>  (1) 
DB03252

>  <SECONDARY_ACCESSION_NUMBERS>  (1) 
EXPT01219

>  <COMMON_NAME>  (1) 
D-Lysine

>  <CAS_NUMBER>  (1) 
923-27-3

>  <UNII>  (1) 
3HQ6U6424Q

>  <SYNONYMS>  (1) 
(R)-2,6-diaminohexanoic acid; D-2,6-Diaminohexanoic acid; D-Lysin

$$$$
