
     RDKit          3D

  7  6  0  0  1  0  0  0  0  0999 V2000
    0.9541   -0.0616   -0.0733 C   0  0  0  0  0  0  0  0  0  0  0  0
    0.4579   -1.4960   -0.2158 C   0  0  0  0  0  0  0  0  0  0  0  0
    0.9447   -2.4164    0.9140 C   0  0  1  0  0  0  0  0  0  0  0  0
    0.4919   -1.9151    2.2221 N   0  0  0  0  0  0  0  0  0  0  0  0
    0.3918   -3.8397    0.6842 C   0  0  0  0  0  0  0  0  0  0  0  0
    1.3424   -4.7966    0.5485 O   0  0  0  0  0  0  0  0  0  0  0  0
   -0.7995   -4.1228    0.6318 O   0  0  0  0  0  0  0  0  0  0  0  0
  1  2  1  0
  2  3  1  0
  3  4  1  1
  3  5  1  0
  5  6  1  0
  5  7  2  0
M  END
>  <DRUGBANK_ID>  (1) 
DB04454

>  <SECONDARY_ACCESSION_NUMBERS>  (1) 
EXPT00390

>  <COMMON_NAME>  (1) 
Alpha-Aminobutyric Acid

$$$$
