268
     RDKit          3D

 19 20  0  0  0  0  0  0  0  0999 V2000
    3.2259    0.0378    0.0420 O   0  0  0  0  0  0  0  0  0  0  0  0
   -3.7587   -2.9111    1.4646 N   0  0  0  0  0  0  0  0  0  0  0  0
    1.1590    1.0708   -0.0094 N   0  0  0  0  0  0  0  0  0  0  0  0
   -2.4682   -3.5090    1.0751 C   0  0  0  0  0  0  0  0  0  0  0  0
   -1.6522   -2.8849   -0.2216 C   0  0  0  0  0  0  0  0  0  0  0  0
   -1.4259   -1.3629   -0.5564 C   0  0  0  0  0  0  0  0  0  0  0  0
   -4.4460   -3.3297    2.6847 C   0  0  0  0  0  0  0  0  0  0  0  0
   -3.6272   -1.4839    1.4679 C   0  0  0  0  0  0  0  0  0  0  0  0
   -0.2107   -0.7263   -0.3585 C   0  0  0  0  0  0  0  0  0  0  0  0
    1.1674   -1.2886   -0.1404 C   0  0  0  0  0  0  0  0  0  0  0  0
   -0.1488    0.6763   -0.2013 C   0  0  0  0  0  0  0  0  0  0  0  0
   -3.8849   -2.8211    4.0409 C   0  0  0  0  0  0  0  0  0  0  0  0
   -2.4534   -0.8282    2.2221 C   0  0  0  0  0  0  0  0  0  0  0  0
   -2.4763   -0.4625   -0.9050 C   0  0  0  0  0  0  0  0  0  0  0  0
    2.0329   -0.0176   -0.0285 C   0  0  0  0  0  0  0  0  0  0  0  0
   -1.2540    1.4968   -0.1718 C   0  0  0  0  0  0  0  0  0  0  0  0
   -2.4529    0.8962   -0.4977 C   0  0  0  0  0  0  0  0  0  0  0  0
   -4.1140   -1.3156    4.4774 C   0  0  0  0  0  0  0  0  0  0  0  0
   -1.0472   -1.2277    2.6116 C   0  0  0  0  0  0  0  0  0  0  0  0
  1 15  2  0
  2  4  1  0
  2  7  1  0
  2  8  1  0
  3 11  1  0
  3 15  1  0
  4  5  1  0
  5  6  1  0
  6  9  1  0
  6 14  2  0
  7 12  1  0
  8 13  1  0
  9 10  1  0
  9 11  2  0
 10 15  1  0
 11 16  1  0
 12 18  1  0
 13 19  1  0
 14 17  1  0
 16 17  2  0
M  END
>  <DRUGBANK_ID>  (1) 
DB00268

>  <SECONDARY_ACCESSION_NUMBERS>  (1) 
APRD00302

>  <COMMON_NAME>  (1) 
Ropinirole

>  <CAS_NUMBER>  (1) 
91374-21-9

>  <UNII>  (1) 
030PYR8953

>  <SYNONYMS>  (1) 
Ropinirol; Ropinirole; Ropinirolum

$$$$
