
     RDKit          3D

 28 31  0  0  0  0  0  0  0  0999 V2000
   -2.1704   -0.6863    0.0024 C   0  0  0  0  0  0  0  0  0  0  0  0
   -2.1659    0.7030   -0.0004 C   0  0  0  0  0  0  0  0  0  0  0  0
   -0.9674    1.4315   -0.0006 C   0  0  0  0  0  0  0  0  0  0  0  0
    0.2426    0.7201   -0.0138 C   0  0  0  0  0  0  0  0  0  0  0  0
    0.2550   -0.6806   -0.0117 C   0  0  0  0  0  0  0  0  0  0  0  0
   -0.9683   -1.3853    0.0040 C   0  0  0  0  0  0  0  0  0  0  0  0
    1.6159   -1.1075   -0.0223 C   0  0  0  0  0  0  0  0  0  0  0  0
    2.3727    0.0278   -0.1302 C   0  0  0  0  0  0  0  0  0  0  0  0
    1.5638    1.1289   -0.0234 N   0  0  0  0  0  0  0  0  0  0  0  0
    2.0768    2.5024    0.0083 C   0  0  0  0  0  0  0  0  0  0  0  0
    2.9344    2.7645    1.2330 C   0  0  0  0  0  0  0  0  0  0  0  0
    4.1008    2.0225    1.4908 C   0  0  0  0  0  0  0  0  0  0  0  0
    4.7364    2.0759    2.7263 C   0  0  0  0  0  0  0  0  0  0  0  0
    4.3407    3.0323    3.6453 C   0  0  0  0  0  0  0  0  0  0  0  0
    3.3163    3.9230    3.3303 C   0  0  0  0  0  0  0  0  0  0  0  0
    2.5726    3.7499    2.1578 C   0  0  0  0  0  0  0  0  0  0  0  0
    5.1214    3.1107    5.1732 Cl  0  0  0  0  0  0  0  0  0  0  0  0
    2.0994   -2.4688    0.0781 C   0  0  0  0  0  0  0  0  0  0  0  0
    1.2689   -3.3423    0.3378 O   0  0  0  0  0  0  0  0  0  0  0  0
    3.6147   -2.8405   -0.0527 C   0  0  0  0  0  0  0  0  0  0  0  0
    4.4823   -1.9701   -0.0186 O   0  0  0  0  0  0  0  0  0  0  0  0
    4.0188   -4.1728   -0.0961 N   0  0  0  0  0  0  0  0  0  0  0  0
    3.1845   -5.2994   -0.1247 C   0  0  0  0  0  0  0  0  0  0  0  0
    2.0810   -5.3448   -0.9685 C   0  0  0  0  0  0  0  0  0  0  0  0
    1.1232   -6.3075   -0.7311 C   0  0  0  0  0  0  0  0  0  0  0  0
    1.3043   -7.3367    0.1172 N   0  0  0  0  0  0  0  0  0  0  0  0
    2.4751   -7.3654    0.7916 C   0  0  0  0  0  0  0  0  0  0  0  0
    3.4279   -6.3597    0.7379 C   0  0  0  0  0  0  0  0  0  0  0  0
  1  2  2  0
  1  6  1  0
  2  3  1  0
  3  4  2  0
  4  5  1  0
  4  9  1  0
  5  6  2  0
  5  7  1  0
  7  8  2  0
  7 18  1  0
  8  9  1  0
  9 10  1  0
 10 11  1  0
 11 12  2  0
 11 16  1  0
 12 13  1  0
 13 14  2  0
 14 15  1  0
 14 17  1  0
 15 16  2  0
 18 19  2  0
 18 20  1  0
 20 21  2  0
 20 22  1  0
 22 23  1  0
 23 24  2  0
 23 28  1  0
 24 25  1  0
 25 26  2  0
 26 27  1  0
 27 28  2  0
M  END
>  <DRUGBANK_ID>  (1) 
DB06169

>  <COMMON_NAME>  (1) 
Indibulin

>  <CAS_NUMBER>  (1) 
204205-90-3

>  <UNII>  (1) 
80K4H2RB8P

>  <SYNONYMS>  (1) 
Indibulin

$$$$
