547
     RDKit          3D

 27 30  0  0  1  0  0  0  0  0999 V2000
    6.2897   -1.7304    7.3626 F   0  0  0  0  0  0  0  0  0  0  0  0
    4.1852   -2.1688    5.4993 O   0  0  0  0  0  0  0  0  0  0  0  0
    4.0258    1.8298   10.6812 O   0  0  0  0  0  0  0  0  0  0  0  0
    6.7021    3.2911    9.1604 O   0  0  0  0  0  0  0  0  0  0  0  0
    5.3994   -2.6360    0.9805 O   0  0  0  0  0  0  0  0  0  0  0  0
    4.8544    0.7751    6.8641 C   0  0  2  0  0  0  0  0  0  0  0  0
    6.1000    1.3716    7.1658 C   0  0  1  0  0  0  0  0  0  0  0  0
    7.1456   -0.0066    6.2596 C   0  0  2  0  0  0  0  0  0  0  0  0
    6.3367   -1.3102    6.0008 C   0  0  2  0  0  0  0  0  0  0  0  0
    4.2224    1.1982    8.3798 C   0  0  2  0  0  0  0  0  0  0  0  0
    4.4075    2.4621    6.9727 C   0  0  0  0  0  0  0  0  0  0  0  0
    4.3168   -0.5860    6.8439 C   0  0  0  0  0  0  0  0  0  0  0  0
    3.1117    1.8732    7.7650 C   0  0  1  0  0  0  0  0  0  0  0  0
    4.9367   -1.0294    5.6789 C   0  0  2  0  0  0  0  0  0  0  0  0
    6.8021   -2.7191    5.1058 C   0  0  1  0  0  0  0  0  0  0  0  0
    8.4815   -0.8883    6.6055 C   0  0  0  0  0  0  0  0  0  0  0  0
    5.3536    1.6041    5.2097 C   0  0  0  0  0  0  0  0  0  0  0  0
    9.0472   -1.7150    5.1307 C   0  0  0  0  0  0  0  0  0  0  0  0
    7.9291   -2.3313    4.0547 C   0  0  0  0  0  0  0  0  0  0  0  0
    4.5641    2.1229    9.5993 C   0  0  0  0  0  0  0  0  0  0  0  0
    2.0339    0.9203    7.1546 C   0  0  0  0  0  0  0  0  0  0  0  0
    6.7004   -3.7759    6.2988 C   0  0  0  0  0  0  0  0  0  0  0  0
    5.8898   -3.3977    4.0330 C   0  0  0  0  0  0  0  0  0  0  0  0
    7.6856   -2.4840    2.5745 C   0  0  0  0  0  0  0  0  0  0  0  0
    5.3498    3.4337    9.5289 C   0  0  0  0  0  0  0  0  0  0  0  0
    5.3346   -2.5071    3.1631 C   0  0  0  0  0  0  0  0  0  0  0  0
    6.0558   -2.5116    1.9438 C   0  0  0  0  0  0  0  0  0  0  0  0
  3 20  2  0
  4 25  1  0
  5 27  2  0
  6  7  1  0
  6 10  1  0
  6 12  1  0
  6 17  1  6
  7  8  1  0
  7 11  1  6
  8  9  1  0
  8 16  1  1
  9 14  1  0
  9 15  1  0
  9  1  1  1
 10 13  1  0
 10 20  1  6
 11 13  1  0
 12 14  1  0
 13 21  1  6
 14  2  1  1
 15 19  1  0
 15 23  1  0
 15 22  1  1
 16 18  1  0
 18 19  1  0
 19 24  2  0
 20 25  1  0
 23 26  2  0
 24 27  1  0
 26 27  1  0
M  END
>  <DRUGBANK_ID>  (1) 
DB00547

>  <SECONDARY_ACCESSION_NUMBERS>  (1) 
APRD00910

>  <COMMON_NAME>  (1) 
Desoximetasone

>  <CAS_NUMBER>  (1) 
382-67-2

>  <UNII>  (1) 
4E07GXB7AU

>  <SYNONYMS>  (1) 
(11β,16α)-9-fluoro-11,21-dihydroxy-16-methylpregna-1,4-diene-3,20-dione; 9alpha-fluoro-16alpha-methyl-delta(1)-corticosterone; Deoxymethasone; Desoximetason; Desoximetasona; Désoximétasone; Desoximetasone; Desoximetasonum; Desoxymethasone

$$$$
