KU8
     RDKit          3D

 28 31  0  0  0  0  0  0  0  0999 V2000
   -0.8519    1.2576   -0.4661 C   0  0  0  0  0  0  0  0  0  0  0  0
    0.5020    1.6324    0.1170 C   0  0  0  0  0  0  0  0  0  0  0  0
    1.5206    0.5143    0.3314 C   0  0  0  0  0  0  0  0  0  0  0  0
    1.2895   -0.7361   -0.3786 N   0  0  0  0  0  0  0  0  0  0  0  0
    0.2442   -1.5357    0.2809 C   0  0  0  0  0  0  0  0  0  0  0  0
   -1.2041   -1.1534   -0.0831 C   0  0  0  0  0  0  0  0  0  0  0  0
   -1.5681    0.2270    0.2738 N   0  0  0  0  0  0  0  0  0  0  0  0
   -2.5257    0.4556    1.2718 C   0  0  0  0  0  0  0  0  0  0  0  0
   -3.0578   -0.4545    1.9081 O   0  0  0  0  0  0  0  0  0  0  0  0
   -2.9144    1.8407    1.6494 C   0  0  0  0  0  0  0  0  0  0  0  0
   -2.7969    2.2470    2.9902 C   0  0  0  0  0  0  0  0  0  0  0  0
   -3.4722    2.7232    0.7243 C   0  0  0  0  0  0  0  0  0  0  0  0
   -3.6674    2.3568   -0.5503 F   0  0  0  0  0  0  0  0  0  0  0  0
   -3.8301    4.0171    1.0903 C   0  0  0  0  0  0  0  0  0  0  0  0
   -3.6896    4.4241    2.4107 C   0  0  0  0  0  0  0  0  0  0  0  0
   -3.1735    3.5489    3.3764 C   0  0  0  0  0  0  0  0  0  0  0  0
   -3.0327    4.0234    4.8072 C   0  0  0  0  0  0  0  0  0  0  0  0
   -2.0557    5.1942    4.9403 C   0  0  0  0  0  0  0  0  0  0  0  0
   -0.8124    5.0299    5.7259 C   0  0  0  0  0  0  0  0  0  0  0  0
   -0.5514    3.9154    6.5308 C   0  0  0  0  0  0  0  0  0  0  0  0
    0.6346    3.8399    7.2586 C   0  0  0  0  0  0  0  0  0  0  0  0
    1.5722    4.8656    7.1744 C   0  0  0  0  0  0  0  0  0  0  0  0
    1.3167    5.9823    6.3794 C   0  0  0  0  0  0  0  0  0  0  0  0
    0.1141    6.0700    5.6717 C   0  0  0  0  0  0  0  0  0  0  0  0
   -0.2113    7.2884    4.9123 C   0  0  0  0  0  0  0  0  0  0  0  0
    0.5857    8.2188    4.8134 O   0  0  0  0  0  0  0  0  0  0  0  0
   -1.4645    7.3325    4.3588 N   0  0  0  0  0  0  0  0  0  0  0  0
   -2.3585    6.3102    4.3396 N   0  0  0  0  0  0  0  0  0  0  0  0
  1  2  1  0
  1  7  1  0
  2  3  1  0
  3  4  1  0
  4  5  1  0
  5  6  1  0
  6  7  1  0
  7  8  1  0
  8  9  2  0
  8 10  1  0
 10 11  2  0
 10 12  1  0
 11 16  1  0
 12 13  1  0
 12 14  2  0
 14 15  1  0
 15 16  2  0
 16 17  1  0
 17 18  1  0
 18 19  1  0
 18 28  2  0
 19 20  2  0
 19 24  1  0
 20 21  1  0
 21 22  2  0
 22 23  1  0
 23 24  2  0
 24 25  1  0
 25 26  2  0
 25 27  1  0
 27 28  1  0
M  END
>  <DRUGBANK_ID>  (1) 
DB08058

>  <COMMON_NAME>  (1) 
4-[3-(1,4-diazepan-1-ylcarbonyl)-4-fluorobenzyl]phthalazin-1(2H)-one

$$$$
