TI1
     RDKit          3D

 26 26  0  0  0  0  0  0  0  0999 V2000
    0.7236   -0.0859   -0.2617 S   0  0  0  0  0  0  0  0  0  0  0  0
    0.3745    0.7591    1.3201 C   0  0  1  0  0  0  0  0  0  0  0  0
    0.7017   -0.1281    2.6059 C   0  0  0  0  0  0  0  0  0  0  0  0
    2.1610   -0.1943    3.0048 C   0  0  0  0  0  0  0  0  0  0  0  0
    2.3742    1.2450    3.4095 C   0  0  0  0  0  0  0  0  0  0  0  0
    2.0877    2.0349    4.5980 C   0  0  0  0  0  0  0  0  0  0  0  0
    2.8129    1.2694    5.6313 C   0  0  0  0  0  0  0  0  0  0  0  0
    0.9123    2.2565    1.1902 C   0  0  0  0  0  0  0  0  0  0  0  0
    0.1754    3.2006    1.5262 O   0  0  0  0  0  0  0  0  0  0  0  0
    2.3039    2.5382    1.0122 N   0  0  0  0  0  0  0  0  0  0  0  0
    3.6611    1.6010    1.0972 C   0  0  1  0  0  0  0  0  0  0  0  0
    4.4249    1.5704   -0.2104 C   0  0  0  0  0  0  0  0  0  0  0  0
    5.2819    2.8395   -0.4438 C   0  0  0  0  0  0  0  0  0  0  0  0
    4.5450    4.1281   -0.5722 C   0  0  0  0  0  0  0  0  0  0  0  0
    6.7364    2.8346   -0.1611 C   0  0  0  0  0  0  0  0  0  0  0  0
    5.1920    5.4263   -0.3674 C   0  0  0  0  0  0  0  0  0  0  0  0
    7.4720    4.1450   -0.0447 C   0  0  0  0  0  0  0  0  0  0  0  0
    6.6689    5.4793   -0.1283 C   0  0  0  0  0  0  0  0  0  0  0  0
    4.8319    1.3192    2.4458 C   0  0  0  0  0  0  0  0  0  0  0  0
    5.1021    0.1966    2.8909 O   0  0  0  0  0  0  0  0  0  0  0  0
    5.1039    2.4010    3.3144 N   0  0  0  0  0  0  0  0  0  0  0  0
    4.7470    3.6814    2.9092 C   0  0  1  0  0  0  0  0  0  0  0  0
    4.3484    5.0206    3.4138 C   0  0  0  0  0  0  0  0  0  0  0  0
    6.0894    4.0094    2.5982 C   0  0  0  0  0  0  0  0  0  0  0  0
    6.0018    4.3006    1.5098 O   0  0  0  0  0  0  0  0  0  0  0  0
    7.1965    4.1439    3.3038 O   0  0  0  0  0  0  0  0  0  0  0  0
  2  1  1  6
  2  3  1  0
  2  8  1  0
  3  4  1  0
  4  5  1  0
  5  6  1  0
  6  7  1  0
  8  9  2  0
  8 10  1  0
 11 10  1  0
 11 12  1  6
 11 19  1  0
 12 13  1  0
 13 14  2  0
 13 15  1  0
 14 16  1  0
 15 17  2  0
 16 18  2  0
 17 18  1  0
 19 20  2  0
 19 21  1  0
 21 22  1  0
 22 23  1  1
 22 24  1  0
 24 25  2  0
 24 26  1  0
M  END
>  <DRUGBANK_ID>  (1) 
DB02597

>  <SECONDARY_ACCESSION_NUMBERS>  (1) 
EXPT03060

>  <COMMON_NAME>  (1) 
[2(R,S)-2-Sulfanylheptanoyl]-Phe-Ala

$$$$
