
     RDKit          3D

 43 45  0  0  1  0  0  0  0  0999 V2000
   -8.6109   -1.6095   12.3658 F   0  0  0  0  0  0  0  0  0  0  0  0
   -7.9100    4.6627    7.7941 O   0  0  0  0  0  0  0  0  0  0  0  0
  -12.3288   -0.2359    6.0737 O   0  0  0  0  0  0  0  0  0  0  0  0
   -8.9761   -2.1189    3.4884 O   0  0  0  0  0  0  0  0  0  0  0  0
  -11.7055   -2.3406   12.5896 O   0  0  0  0  0  0  0  0  0  0  0  0
  -12.8530    2.1202    3.1588 O   0  0  0  0  0  0  0  0  0  0  0  0
  -11.7198   -0.0943   12.7272 O   0  0  0  0  0  0  0  0  0  0  0  0
  -12.0801    2.5379    7.2851 O   0  0  0  0  0  0  0  0  0  0  0  0
  -10.0433    4.7518    8.9516 N   0  0  0  0  0  0  0  0  0  0  0  0
  -11.0473    0.1612    7.7961 N   0  0  0  0  0  0  0  0  0  0  0  0
  -10.9945    0.8980    3.4196 N   0  0  0  0  0  0  0  0  0  0  0  0
  -12.7997    2.3501    6.1250 N   0  0  0  0  0  0  0  0  0  0  0  0
   -8.3550    3.0248    9.7973 C   0  0  2  0  0  0  0  0  0  0  0  0
   -8.3442    1.4245    9.1992 C   0  0  0  0  0  0  0  0  0  0  0  0
   -9.6243    3.1896   10.6957 C   0  0  0  0  0  0  0  0  0  0  0  0
   -9.9878    0.4462    8.9535 C   0  0  1  0  0  0  0  0  0  0  0  0
  -10.7744    3.7530    9.8301 C   0  0  0  0  0  0  0  0  0  0  0  0
   -8.5567    4.3977    8.8154 C   0  0  0  0  0  0  0  0  0  0  0  0
  -10.9286   -2.0608    6.3477 C   0  0  2  0  0  0  0  0  0  0  0  0
  -11.0043   -2.0860    4.7441 C   0  0  0  0  0  0  0  0  0  0  0  0
  -11.3953   -0.6686    6.7756 C   0  0  0  0  0  0  0  0  0  0  0  0
   -9.7622    0.1227    3.8335 C   0  0  1  0  0  0  0  0  0  0  0  0
   -9.7096   -2.9055    6.8821 C   0  0  0  0  0  0  0  0  0  0  0  0
   -9.0696    0.6559    5.0581 C   0  0  0  0  0  0  0  0  0  0  0  0
   -9.8848   -1.4142    3.9506 C   0  0  0  0  0  0  0  0  0  0  0  0
  -10.8965    0.1881   10.1002 C   0  0  0  0  0  0  0  0  0  0  0  0
   -9.2327   -2.8919    8.3483 C   0  0  0  0  0  0  0  0  0  0  0  0
   -7.8860   -0.0401    5.6964 C   0  0  0  0  0  0  0  0  0  0  0  0
   -8.5624    2.0349    4.7429 C   0  0  0  0  0  0  0  0  0  0  0  0
  -11.2649   -0.9932   10.6153 C   0  0  0  0  0  0  0  0  0  0  0  0
   -9.0196   -3.7873    9.3574 C   0  0  0  0  0  0  0  0  0  0  0  0
   -8.7277   -1.7078    8.7542 C   0  0  0  0  0  0  0  0  0  0  0  0
  -11.9272    1.8272    3.9015 C   0  0  0  0  0  0  0  0  0  0  0  0
  -11.6144   -1.1057   12.0392 C   0  0  0  0  0  0  0  0  0  0  0  0
   -8.5932   -3.3868   10.7064 C   0  0  0  0  0  0  0  0  0  0  0  0
   -8.4513   -1.2499   10.0968 C   0  0  0  0  0  0  0  0  0  0  0  0
  -11.8456    2.5172    5.1712 C   0  0  0  0  0  0  0  0  0  0  0  0
   -8.4566   -2.0921   11.1187 C   0  0  0  0  0  0  0  0  0  0  0  0
  -10.9162    3.4654    5.6124 C   0  0  0  0  0  0  0  0  0  0  0  0
  -10.8696    2.8965    6.8587 C   0  0  0  0  0  0  0  0  0  0  0  0
  -11.3548   -3.6422   12.0575 C   0  0  0  0  0  0  0  0  0  0  0  0
   -9.7493    2.4266    7.4770 C   0  0  0  0  0  0  0  0  0  0  0  0
  -11.9843   -4.0172   10.7276 C   0  0  0  0  0  0  0  0  0  0  0  0
  1 38  1  0
  2 18  2  0
  3 21  2  0
  4 25  2  0
  5 34  1  0
  5 41  1  0
  6 33  2  0
  7 34  2  0
  8 12  1  0
  8 40  1  0
  9 17  1  0
  9 18  1  0
 10 21  1  0
 11 33  1  0
 12 37  2  0
 13 15  1  0
 13 18  1  0
 13 14  1  6
 16 14  1  1
 15 17  1  0
 16 10  1  0
 16 26  1  0
 19 23  1  6
 19 21  1  0
 19 20  1  0
 20 25  1  0
 22 11  1  1
 22 24  1  0
 22 25  1  0
 23 27  1  0
 24 28  1  0
 24 29  1  0
 26 30  2  0
 27 31  2  0
 27 32  1  0
 30 34  1  0
 31 35  1  0
 32 36  2  0
 33 37  1  0
 35 38  2  0
 36 38  1  0
 37 39  1  0
 39 40  2  0
 40 42  1  0
 41 43  1  0
M  END
>  <DRUGBANK_ID>  (1) 
DB05102

>  <COMMON_NAME>  (1) 
Rupintrivir

>  <CAS_NUMBER>  (1) 
223537-30-2

>  <UNII>  (1) 
RGE5K1Q5QW

>  <SYNONYMS>  (1) 
Rupintrivir

$$$$
