
     RDKit          3D

 24 26  0  0  0  0  0  0  0  0999 V2000
   -0.3415   -0.4609    0.2315 C   0  0  0  0  0  0  0  0  0  0  0  0
   -1.7269   -0.9783    0.1553 N   0  0  0  0  0  0  0  0  0  0  0  0
   -0.3612    0.8515    0.0917 C   0  0  0  0  0  0  0  0  0  0  0  0
    0.8594   -1.1562    0.2967 N   0  0  0  0  0  0  0  0  0  0  0  0
   -2.4471   -2.4021    0.1285 C   0  0  2  0  0  0  0  0  0  0  0  0
   -2.5156    0.1693    0.0257 C   0  0  0  0  0  0  0  0  0  0  0  0
   -1.6521    1.2740    0.0019 N   0  0  0  0  0  0  0  0  0  0  0  0
    0.9178    1.5907    0.0245 C   0  0  0  0  0  0  0  0  0  0  0  0
    1.9983   -0.5535    0.1114 C   0  0  0  0  0  0  0  0  0  0  0  0
   -1.9257   -3.1662    1.2657 O   0  0  0  0  0  0  0  0  0  0  0  0
   -2.4945   -3.4294   -1.1692 C   0  0  0  0  0  0  0  0  0  0  0  0
    2.0500    0.8007   -0.0025 N   0  0  0  0  0  0  0  0  0  0  0  0
    0.9781    2.8112   -0.0166 O   0  0  0  0  0  0  0  0  0  0  0  0
    3.1855   -1.2296    0.0024 N   0  0  0  0  0  0  0  0  0  0  0  0
   -1.4164   -4.4728    0.8678 C   0  0  1  0  0  0  0  0  0  0  0  0
   -2.0428   -4.7768   -0.5391 C   0  0  1  0  0  0  0  0  0  0  0  0
    0.1534   -4.5052    1.1295 C   0  0  0  0  0  0  0  0  0  0  0  0
   -3.2329   -5.5494   -0.3657 O   0  0  0  0  0  0  0  0  0  0  0  0
    0.9232   -3.4970    0.3902 O   0  0  0  0  0  0  0  0  0  0  0  0
    0.5230   -3.5505   -1.2920 P   0  0  0  0  0  0  0  0  0  0  0  0
    0.5641   -5.1516   -1.1568 O   0  0  0  0  0  0  0  0  0  0  0  0
   -0.5452   -2.6494   -0.7782 O   0  0  0  0  0  0  0  0  0  0  0  0
    0.1649   -3.5983   -2.7976 O   0  0  0  0  0  0  0  0  0  0  0  0
   -3.7495    0.2084   -0.0467 O   0  0  0  0  0  0  0  0  0  0  0  0
  1  2  1  0
  1  3  2  0
  1  4  1  0
  2  6  1  0
  3  7  1  0
  3  8  1  0
  4  9  2  0
  5  2  1  6
  5 10  1  0
  5 11  1  0
  6  7  1  0
  6 24  2  0
  8 12  1  0
  8 13  2  0
  9 14  1  0
  9 12  1  0
 10 15  1  0
 11 16  1  0
 15 16  1  0
 15 17  1  6
 16 18  1  1
 17 19  1  0
 19 20  1  0
 20 21  1  0
 20 22  1  0
 20 23  2  0
M  END
>  <DRUGBANK_ID>  (1) 
DB02023

>  <SECONDARY_ACCESSION_NUMBERS>  (1) 
EXPT01532

>  <COMMON_NAME>  (1) 
8-oxo-dGMP

>  <CAS_NUMBER>  (1) 
127027-50-3

>  <SYNONYMS>  (1) 
2'-deoxy-7,8-dihydro-8-oxo-5'-guanylic acid; 2'-deoxy-7,8-dihydro-8-oxoguanosine 5'-monophosphate; 8-hydroxydeoxyguanosine 5'-monophosphate; 8-OH-Dgmp; 8-oxo-2'-deoxyguanosine-5'-monophosphate

$$$$
