1146
     RDKit          3D

 21 23  0  0  0  0  0  0  0  0999 V2000
    1.0899   -0.1470   -0.1047 O   0  0  0  0  0  0  0  0  0  0  0  0
   -1.4755   -1.5265   -2.1207 N   0  0  0  0  0  0  0  0  0  0  0  0
    0.5040    0.5212   -1.2451 C   0  0  0  0  0  0  0  0  0  0  0  0
   -1.0094    0.6734   -1.0057 C   0  0  0  0  0  0  0  0  0  0  0  0
    0.5969   -0.2773   -2.5477 C   0  0  0  0  0  0  0  0  0  0  0  0
   -1.7017   -0.6995   -0.9146 C   0  0  0  0  0  0  0  0  0  0  0  0
   -0.0373   -1.6481   -2.3540 C   0  0  0  0  0  0  0  0  0  0  0  0
    2.5367   -0.1820   -0.0139 C   0  0  0  0  0  0  0  0  0  0  0  0
   -2.0095   -2.8779   -1.9161 C   0  0  0  0  0  0  0  0  0  0  0  0
    2.8990   -0.7682    1.3645 C   0  0  0  0  0  0  0  0  0  0  0  0
    3.1560   -0.9687   -1.1645 C   0  0  0  0  0  0  0  0  0  0  0  0
    3.1954    0.0631    2.4437 C   0  0  0  0  0  0  0  0  0  0  0  0
    3.9347   -0.3474   -2.1436 C   0  0  0  0  0  0  0  0  0  0  0  0
    2.8966   -2.1568    1.6243 C   0  0  0  0  0  0  0  0  0  0  0  0
    2.7925   -2.3137   -1.3789 C   0  0  0  0  0  0  0  0  0  0  0  0
    3.4368   -0.4823    3.7176 C   0  0  0  0  0  0  0  0  0  0  0  0
    4.2909   -1.0624   -3.2958 C   0  0  0  0  0  0  0  0  0  0  0  0
    3.0655   -2.6988    2.8905 C   0  0  0  0  0  0  0  0  0  0  0  0
    3.2094   -3.0512   -2.4703 C   0  0  0  0  0  0  0  0  0  0  0  0
    3.3469   -1.8608    3.9364 C   0  0  0  0  0  0  0  0  0  0  0  0
    3.9366   -2.4090   -3.4493 C   0  0  0  0  0  0  0  0  0  0  0  0
  1  3  1  0
  1  8  1  0
  2  6  1  0
  2  7  1  0
  2  9  1  0
  3  4  1  0
  3  5  1  0
  4  6  1  0
  5  7  1  0
  8 10  1  0
  8 11  1  0
 10 12  2  0
 10 14  1  0
 11 13  2  0
 11 15  1  0
 12 16  1  0
 13 17  1  0
 14 18  2  0
 15 19  2  0
 16 20  2  0
 17 21  2  0
 18 20  1  0
 19 21  1  0
M  END
>  <DRUGBANK_ID>  (1) 
DB01146

>  <SECONDARY_ACCESSION_NUMBERS>  (1) 
APRD00719

>  <COMMON_NAME>  (1) 
Diphenylpyraline

>  <CAS_NUMBER>  (1) 
147-20-6

>  <UNII>  (1) 
33361OE3AV

>  <SYNONYMS>  (1) 
1-methyl-4-hydroxypiperidine benzhydryl ether; 1-methyl-4-piperidyl benzhydryl ether; 4-(benzhydryloxy)-1-methylpiperidine; 4-(benzhydryloxy)-N-methylpiperidine; Difenilpiralina; Diphenylpyralamine; Diphenylpyraline; Diphenylpyralinum

$$$$
