
     RDKit          3D

 13 14  0  0  1  0  0  0  0  0999 V2000
    0.9578   -0.0685   -0.0690 C   0  0  0  0  0  0  0  0  0  0  0  0
    0.3135   -3.4691   -3.5882 C   0  0  0  0  0  0  0  0  0  0  0  0
    0.7315   -1.9920   -1.6397 C   0  0  0  0  0  0  0  0  0  0  0  0
   -0.0658   -0.0697   -2.3880 C   0  0  0  0  0  0  0  0  0  0  0  0
   -0.1930   -0.9984   -3.3874 C   0  0  0  0  0  0  0  0  0  0  0  0
   -0.6252    1.2934   -2.5359 C   0  0  1  0  0  0  0  0  0  0  0  0
   -1.6902    0.3527   -4.6148 C   0  0  2  0  0  0  0  0  0  0  0  0
   -2.8538   -0.0473   -3.9032 N   0  0  0  0  0  0  0  0  0  0  0  0
   -0.8054   -0.7753   -4.5923 N   0  0  0  0  0  0  0  0  0  0  0  0
   -1.1206    1.4650   -3.8954 N   0  0  0  0  0  0  0  0  0  0  0  0
    0.5304   -0.7016   -1.3102 N   0  0  0  0  0  0  0  0  0  0  0  0
    0.2893   -2.1853   -2.9005 N   0  0  0  0  0  0  0  0  0  0  0  0
   -1.7777    1.4636   -1.7326 O   0  0  0  0  0  0  0  0  0  0  0  0
  5  4  2  0
  6  4  1  0
  6 13  1  1
  7  8  1  1
  9  5  1  0
  9  7  1  0
 10  6  1  0
 10  7  1  0
 11  1  1  0
 11  3  2  0
 11  4  1  0
 12  2  1  0
 12  3  1  0
 12  5  1  0
M  CHG  1  11   1
M  END
>  <DRUGBANK_ID>  (1) 
DB01978

>  <SECONDARY_ACCESSION_NUMBERS>  (1) 
EXPT02320

>  <COMMON_NAME>  (1) 
7,9-Dimethylguanine

>  <CAS_NUMBER>  (1) 
55235-22-8

$$$$
