774
     RDKit          3D

 20 21  0  0  0  0  0  0  0  0999 V2000
    1.2759   -0.5246   -0.0572 S   0  0  0  0  0  0  0  0  0  0  0  0
   -3.6873   -2.8722    0.3159 S   0  0  0  0  0  0  0  0  0  0  0  0
   -5.1644    0.9179    0.8614 F   0  0  0  0  0  0  0  0  0  0  0  0
   -5.0719    0.7019   -1.2958 F   0  0  0  0  0  0  0  0  0  0  0  0
   -5.5510   -0.9995   -0.0537 F   0  0  0  0  0  0  0  0  0  0  0  0
    1.6747   -1.6574    0.7424 O   0  0  0  0  0  0  0  0  0  0  0  0
    1.7360   -0.3586   -1.4210 O   0  0  0  0  0  0  0  0  0  0  0  0
   -4.3255   -2.7216    1.6009 O   0  0  0  0  0  0  0  0  0  0  0  0
   -4.4040   -3.1148   -0.9131 O   0  0  0  0  0  0  0  0  0  0  0  0
   -0.2537    2.0283    0.0916 N   0  0  0  0  0  0  0  0  0  0  0  0
    1.7103    0.8517    0.7913 N   0  0  0  0  0  0  0  0  0  0  0  0
   -2.6460   -4.1778    0.5018 N   0  0  0  0  0  0  0  0  0  0  0  0
   -0.4732   -0.4028   -0.0358 C   0  0  0  0  0  0  0  0  0  0  0  0
   -1.0106    0.8819   -0.0579 C   0  0  0  0  0  0  0  0  0  0  0  0
   -2.6584   -1.4398    0.0684 C   0  0  0  0  0  0  0  0  0  0  0  0
   -3.2507   -0.1685   -0.0484 C   0  0  0  0  0  0  0  0  0  0  0  0
   -1.2637   -1.5606    0.0545 C   0  0  0  0  0  0  0  0  0  0  0  0
    1.1862    2.0534    0.1815 C   0  0  0  0  0  0  0  0  0  0  0  0
   -2.4067    0.9734   -0.0992 C   0  0  0  0  0  0  0  0  0  0  0  0
   -4.7428    0.0807   -0.1274 C   0  0  0  0  0  0  0  0  0  0  0  0
  1  6  2  0
  1  7  2  0
  1 11  1  0
  1 13  1  0
  2  8  2  0
  2  9  2  0
  2 12  1  0
  2 15  1  0
  3 20  1  0
  4 20  1  0
  5 20  1  0
 10 14  1  0
 10 18  1  0
 11 18  1  0
 13 14  2  0
 13 17  1  0
 14 19  1  0
 15 16  1  0
 15 17  2  0
 16 19  2  0
 16 20  1  0
M  END
>  <DRUGBANK_ID>  (1) 
DB00774

>  <SECONDARY_ACCESSION_NUMBERS>  (1) 
APRD01020

>  <COMMON_NAME>  (1) 
Hydroflumethiazide

>  <CAS_NUMBER>  (1) 
135-09-1

>  <UNII>  (1) 
501CFL162R

>  <SYNONYMS>  (1) 
Dihydroflumethazide; Hidroflumetiazid; Hidroflumetiazida; Hydroflum√©thiazide; Hydroflumethiazide; Hydroflumethiazidum; Idroflumetiazide; Metforylthiadiazin

$$$$
