
     RDKit          3D

 31 34  0  0  0  0  0  0  0  0999 V2000
    1.3360   -0.6968    2.4415 C   0  0  2  0  0  0  0  0  0  0  0  0
    4.9294    1.2858    0.4317 C   0  0  1  0  0  0  0  0  0  0  0  0
    0.3266   -0.9939    1.1660 C   0  0  0  0  0  0  0  0  0  0  0  0
    3.5014    1.7960    0.4455 C   0  0  1  0  0  0  0  0  0  0  0  0
    5.2463    2.8694   -0.2980 C   0  0  2  0  0  0  0  0  0  0  0  0
    2.4227    0.8129    0.7367 C   0  0  1  0  0  0  0  0  0  0  0  0
    2.4705    0.3649    2.1716 C   0  0  2  0  0  0  0  0  0  0  0  0
    2.0380   -1.9985    2.3388 C   0  0  0  0  0  0  0  0  0  0  0  0
    5.0674    0.8406    2.0507 C   0  0  0  0  0  0  0  0  0  0  0  0
    3.9420   -0.0805    2.5689 C   0  0  2  0  0  0  0  0  0  0  0  0
    5.1225    3.5996    0.9852 C   0  0  1  0  0  0  0  0  0  0  0  0
    3.6976    3.0771    1.3226 C   0  0  0  0  0  0  0  0  0  0  0  0
    1.0909    1.4112    0.3442 C   0  0  0  0  0  0  0  0  0  0  0  0
   -0.0104    0.3292    0.3896 C   0  0  2  0  0  0  0  0  0  0  0  0
    0.2794   -2.3306    0.6546 C   0  0  0  0  0  0  0  0  0  0  0  0
    5.4385    2.4280   -1.7267 C   0  0  0  0  0  0  0  0  0  0  0  0
    1.4056   -3.1059    2.7330 C   0  0  0  0  0  0  0  0  0  0  0  0
    0.9237   -3.5533    1.4548 C   0  0  0  0  0  0  0  0  0  0  0  0
    5.6424    3.3642   -4.3860 C   0  0  0  0  0  0  0  0  0  0  0  0
    4.2844    2.5332   -2.7239 C   0  0  0  0  0  0  0  0  0  0  0  0
    6.4669    1.7922   -2.0304 O   0  0  0  0  0  0  0  0  0  0  0  0
    4.7939    2.3602   -4.0424 O   0  0  0  0  0  0  0  0  0  0  0  0
    5.7643    4.4236   -3.7682 O   0  0  0  0  0  0  0  0  0  0  0  0
    1.0648   -4.7594    1.1375 O   0  0  0  0  0  0  0  0  0  0  0  0
    6.3032    3.8147   -0.7646 O   0  0  0  0  0  0  0  0  0  0  0  0
    1.0179   -0.5797    3.9642 C   0  0  0  0  0  0  0  0  0  0  0  0
    5.1533   -0.0420   -0.3478 C   0  0  0  0  0  0  0  0  0  0  0  0
   -1.1172    0.9621    0.8786 F   0  0  0  0  0  0  0  0  0  0  0  0
    4.3903   -1.3695    2.1540 O   0  0  0  0  0  0  0  0  0  0  0  0
    6.5321    3.1465    1.5851 C   0  0  0  0  0  0  0  0  0  0  0  0
    6.3830    3.0189   -5.6274 C   0  0  0  0  0  0  0  0  0  0  0  0
  1 26  1  1
  2  9  1  0
  2 27  1  6
  3  1  1  0
  4  6  1  0
  4  2  1  0
  5  2  1  0
  5 11  1  0
  5 25  1  1
  5 16  1  0
  6  7  1  0
  7  1  1  0
  8  1  1  0
  9 10  1  0
  7 10  1  6
 10 29  1  6
 11 12  1  0
 11 30  1  1
  4 12  1  1
  6 13  1  1
 13 14  1  0
 14  3  1  0
 14 28  1  1
 15  3  2  0
 17  8  2  0
 18 17  1  0
 18 15  1  0
 19 22  1  0
 20 16  1  0
 21 16  2  0
 22 20  1  0
 23 19  2  0
 24 18  2  0
 31 19  1  0
M  END
>  <DRUGBANK_ID>  (1) 
DB14657

>  <SECONDARY_ACCESSION_NUMBERS>  (1) 
DBSALT001420

>  <COMMON_NAME>  (1) 
Paramethasone acetate

>  <CAS_NUMBER>  (1) 
1597-82-6

>  <UNII>  (1) 
8X50N88ZDP

>  <SYNONYMS>  (1) 
Haldrone; Paramethasone 21-acetate; Paramethasone acetate

$$$$
