
     RDKit          3D

 35 33  0  0  0  0  0  0  0  0999 V2000
    2.3102    0.6169   -1.1801 O   0  0  0  0  0  0  0  0  0  0  0  0
    4.5657   -0.0139   -1.2593 O   0  0  0  0  0  0  0  0  0  0  0  0
    0.5075   -0.6934    0.6804 O   0  0  0  0  0  0  0  0  0  0  0  0
    3.1285    1.6729    2.2313 N   0  0  0  0  0  0  0  0  0  0  0  0
    1.7689   -0.5607    0.2163 N   0  0  0  0  0  0  0  0  0  0  0  0
    1.3489    1.4471    2.5759 C   0  0  0  0  0  0  0  0  0  0  0  0
    0.9650    0.1902    3.2926 C   0  0  0  0  0  0  0  0  0  0  0  0
    1.6737    0.1788    4.5860 C   0  0  0  0  0  0  0  0  0  0  0  0
    3.8713    0.4066    1.2484 C   0  0  0  0  0  0  0  0  0  0  0  0
    1.4097    1.5368    5.2246 C   0  0  0  0  0  0  0  0  0  0  0  0
    3.9663    1.6681    3.4234 C   0  0  0  0  0  0  0  0  0  0  0  0
    3.5046    3.1754    1.5212 C   0  0  0  0  0  0  0  0  0  0  0  0
   -0.0951    1.5970    5.4434 C   0  0  0  0  0  0  0  0  0  0  0  0
   -0.4651    0.3840    6.2905 C   0  0  0  0  0  0  0  0  0  0  0  0
    0.3348    0.4491    7.5918 C   0  0  0  0  0  0  0  0  0  0  0  0
   -0.0201    1.7487    8.3107 C   0  0  0  0  0  0  0  0  0  0  0  0
    4.5364    2.1390   -2.3503 C   0  0  0  0  0  0  0  0  0  0  0  0
    2.9957    1.9591   -2.5481 C   0  0  0  0  0  0  0  0  0  0  0  0
    5.0408    1.5201   -3.6138 C   0  0  0  0  0  0  0  0  0  0  0  0
    3.5605    0.3135   -0.6613 C   0  0  0  0  0  0  0  0  0  0  0  0
    2.3369    0.1911   -2.9509 C   0  0  0  0  0  0  0  0  0  0  0  0
    4.4960    2.4279   -4.6954 C   0  0  0  0  0  0  0  0  0  0  0  0
    2.3352   -1.2075   -1.5753 C   0  0  0  0  0  0  0  0  0  0  0  0
    4.9686    3.8507   -4.3775 C   0  0  0  0  0  0  0  0  0  0  0  0
   -1.5251    1.7742    8.5856 C   0  0  0  0  0  0  0  0  0  0  0  0
    6.4956    3.8412   -4.3315 C   0  0  0  0  0  0  0  0  0  0  0  0
    7.0138    3.3503   -5.6829 C   0  0  0  0  0  0  0  0  0  0  0  0
   -1.9148    0.5875    9.4702 C   0  0  0  0  0  0  0  0  0  0  0  0
    6.5203    4.2821   -6.7919 C   0  0  0  0  0  0  0  0  0  0  0  0
    2.0725    1.4607    0.4278 C   0  0  0  0  0  0  0  0  0  0  0  0
    2.5858   -1.6162    1.0277 C   0  0  0  0  0  0  0  0  0  0  0  0
   -1.1556    0.6372   10.7940 C   0  0  0  0  0  0  0  0  0  0  0  0
    7.0054    5.7077   -6.5413 C   0  0  0  0  0  0  0  0  0  0  0  0
   -1.4850    1.9245   11.5288 C   0  0  0  0  0  0  0  0  0  0  0  0
    8.5230    5.7355   -6.5119 C   0  0  0  0  0  0  0  0  0  0  0  0
  1 20  1  0
  2 20  2  0
  3  5  1  0
  4  6  1  0
  4  9  1  0
  4 11  1  0
  4 12  1  0
  5 23  1  0
  5 30  1  0
  5 31  1  0
  6  7  1  0
  7  8  1  0
  8 10  1  0
  9 20  1  0
 10 13  1  0
 13 14  1  0
 14 15  1  0
 15 16  1  0
 16 25  1  0
 17 18  1  0
 17 19  1  0
 18 21  1  0
 19 22  1  0
 21 23  1  0
 22 24  1  0
 24 26  1  0
 25 28  1  0
 26 27  1  0
 27 29  1  0
 28 32  1  0
 29 33  1  0
 32 34  1  0
 33 35  1  0
M  CHG  4   1  -1   3  -1   4   1   5   1
M  END
>  <DRUGBANK_ID>  (1) 
DB05398

>  <COMMON_NAME>  (1) 
C31G

$$$$
