
     RDKit          3D

 16 17  0  0  0  0  0  0  0  0999 V2000
    0.9038   -0.0296   -0.0487 C   0  0  0  0  0  0  0  0  0  0  0  0
    0.3851   -0.2800    1.3738 C   0  0  0  0  0  0  0  0  0  0  0  0
    0.7148    0.9175    2.2719 C   0  0  0  0  0  0  0  0  0  0  0  0
   -1.0562   -0.3192    1.3088 O   0  0  0  0  0  0  0  0  0  0  0  0
    0.9159   -1.6367    1.8662 C   0  0  0  0  0  0  0  0  0  0  0  0
    0.1533   -2.7198    1.4941 N   0  0  0  0  0  0  0  0  0  0  0  0
    0.5274   -3.9592    1.8537 C   0  0  0  0  0  0  0  0  0  0  0  0
    1.6625   -4.1790    2.6399 C   0  0  0  0  0  0  0  0  0  0  0  0
    2.0443   -5.4711    3.0233 C   0  0  0  0  0  0  0  0  0  0  0  0
    1.3808   -6.5629    2.4822 C   0  0  0  0  0  0  0  0  0  0  0  0
    1.8921   -8.1513    2.8902 Cl  0  0  0  0  0  0  0  0  0  0  0  0
    0.3042   -6.3690    1.6278 C   0  0  0  0  0  0  0  0  0  0  0  0
   -0.1790   -5.0729    1.4078 C   0  0  0  0  0  0  0  0  0  0  0  0
    2.4363   -3.0825    3.0125 C   0  0  0  0  0  0  0  0  0  0  0  0
    2.1179   -1.7934    2.5830 C   0  0  0  0  0  0  0  0  0  0  0  0
    2.9365   -0.7614    3.0642 N   0  0  0  0  0  0  0  0  0  0  0  0
  1  2  1  0
  2  3  1  0
  2  4  1  0
  2  5  1  0
  5  6  2  0
  5 15  1  0
  6  7  1  0
  7  8  2  0
  7 13  1  0
  8  9  1  0
  8 14  1  0
  9 10  2  0
 10 11  1  0
 10 12  1  0
 12 13  2  0
 14 15  2  0
 15 16  1  0
M  END
>  <DRUGBANK_ID>  (1) 
DB16688

>  <COMMON_NAME>  (1) 
Reproxalap

>  <CAS_NUMBER>  (1) 
916056-79-6

>  <UNII>  (1) 
F0GIZ22IJH

>  <SYNONYMS>  (1) 
ADX 102; ADX102; ALD-102; NS-2; Reproxalap

$$$$
