
     RDKit          3D

 29 31  0  0  0  0  0  0  0  0999 V2000
    1.3845   -0.2396    0.0238 C   0  0  0  0  0  0  0  0  0  0  0  0
    0.4986   -1.3195    0.0323 C   0  0  0  0  0  0  0  0  0  0  0  0
   -0.8758   -1.0944    0.0107 C   0  0  0  0  0  0  0  0  0  0  0  0
   -1.3653    0.2095    0.0306 C   0  0  0  0  0  0  0  0  0  0  0  0
   -0.4776    1.2893    0.0479 C   0  0  0  0  0  0  0  0  0  0  0  0
    0.9114    1.0811   -0.0124 C   0  0  0  0  0  0  0  0  0  0  0  0
    1.8290    2.2037   -0.2693 C   0  0  0  0  0  0  0  0  0  0  0  0
    1.8892    3.3330    0.5606 C   0  0  0  0  0  0  0  0  0  0  0  0
    2.5811    2.2159   -1.4585 C   0  0  0  0  0  0  0  0  0  0  0  0
    3.3672    3.3107   -1.8103 C   0  0  0  0  0  0  0  0  0  0  0  0
    3.3912    4.4299   -0.9905 C   0  0  0  0  0  0  0  0  0  0  0  0
    2.6212    4.4779    0.1778 C   0  0  0  0  0  0  0  0  0  0  0  0
    2.4710    5.7588    0.8818 C   0  0  0  0  0  0  0  0  0  0  0  0
    1.9936    6.8946    0.1739 C   0  0  0  0  0  0  0  0  0  0  0  0
    2.6184    5.8469    2.2663 C   0  0  0  0  0  0  0  0  0  0  0  0
    2.3128    7.0370    2.9197 C   0  0  0  0  0  0  0  0  0  0  0  0
    1.9187    8.1722    2.2021 C   0  0  0  0  0  0  0  0  0  0  0  0
    1.6358    8.0856    0.8388 C   0  0  0  0  0  0  0  0  0  0  0  0
    0.7096    9.1068    0.1840 C   0  0  0  0  0  0  0  0  0  0  0  0
   -0.8165    9.1184    0.6516 C   0  0  0  0  0  0  0  0  0  0  0  0
   -1.2725    9.6082    2.4757 P   0  0  0  0  0  0  0  0  0  0  0  0
   -0.7346    8.2453    2.8530 O   0  0  0  0  0  0  0  0  0  0  0  0
   -0.5438   11.0311    2.0463 O   0  0  0  0  0  0  0  0  0  0  0  0
   -0.5188   10.1694    3.8066 O   0  0  0  0  0  0  0  0  0  0  0  0
   -1.4038    7.4016    0.0803 P   0  0  0  0  0  0  0  0  0  0  0  0
   -1.2527    7.1825   -1.4129 O   0  0  0  0  0  0  0  0  0  0  0  0
   -0.5327    6.3873    0.9462 O   0  0  0  0  0  0  0  0  0  0  0  0
   -2.7641    6.7866    0.6263 O   0  0  0  0  0  0  0  0  0  0  0  0
   -1.5795   10.0815   -0.1479 O   0  0  0  0  0  0  0  0  0  0  0  0
  1  6  2  0
  2  1  1  0
  3  2  2  0
  3  4  1  0
  4  5  2  0
  5  6  1  0
  6  7  1  0
  8  7  2  0
  8 12  1  0
  9  7  1  0
 10  9  2  0
 10 11  1  0
 11 12  2  0
 13 12  1  0
 14 13  2  0
 14 18  1  0
 15 13  1  0
 16 15  2  0
 16 17  1  0
 17 18  2  0
 19 18  1  0
 19 20  1  0
 20 21  1  0
 20 29  1  0
 20 25  1  0
 22 21  2  0
 23 21  1  0
 24 21  1  0
 26 25  2  0
 27 25  1  0
 28 25  1  0
M  END
>  <DRUGBANK_ID>  (1) 
DB07404

>  <COMMON_NAME>  (1) 
BPH-608

>  <SYNONYMS>  (1) 
(1-hydroxy-1-phosphono-2-[1,1';3',1'']terphenyl-3-yl-ethyl)-phosphonic acid

$$$$
