
     RDKit          3D

 31 33  0  0  1  0  0  0  0  0999 V2000
    0.5403    0.0319   -0.1327 C   0  0  0  0  0  0  0  0  0  0  0  0
    1.2028    3.5316   -0.6097 C   0  0  0  0  0  0  0  0  0  0  0  0
    3.2597    2.0508   -4.1744 C   0  0  0  0  0  0  0  0  0  0  0  0
    3.9755   -2.9355   -0.8791 C   0  0  0  0  0  0  0  0  0  0  0  0
    0.1595   -0.4895   -1.6680 C   0  0  2  0  0  0  0  0  0  0  0  0
    3.0106    3.4948   -2.6000 C   0  0  0  0  0  0  0  0  0  0  0  0
    0.9862   -1.5944   -2.4169 C   0  0  2  0  0  0  0  0  0  0  0  0
    2.1022   -0.8114   -3.1298 C   0  0  2  0  0  0  0  0  0  0  0  0
    3.0208    4.5266   -1.6467 C   0  0  0  0  0  0  0  0  0  0  0  0
    2.0224    2.5572   -2.4291 C   0  0  0  0  0  0  0  0  0  0  0  0
    1.3675    0.4420   -3.5571 C   0  0  2  0  0  0  0  0  0  0  0  0
    3.9335    5.5501   -1.6499 N   0  0  0  0  0  0  0  0  0  0  0  0
    2.1059    4.5179   -0.6444 N   0  0  0  0  0  0  0  0  0  0  0  0
    1.0980    2.5282   -1.4680 N   0  0  0  0  0  0  0  0  0  0  0  0
    3.7859    3.1699   -3.6998 N   0  0  0  0  0  0  0  0  0  0  0  0
    2.1815    1.6432   -3.4265 N   0  0  0  0  0  0  0  0  0  0  0  0
    0.2484   -2.3513   -3.3970 O   0  0  0  0  0  0  0  0  0  0  0  0
    2.6806   -1.5545   -4.2034 O   0  0  0  0  0  0  0  0  0  0  0  0
    3.4014   -2.8793    1.5153 O   0  0  0  0  0  0  0  0  0  0  0  0
    4.0996   -0.5680    1.1087 O   0  0  0  0  0  0  0  0  0  0  0  0
    2.4818   -1.2465   -0.4732 O   0  0  0  0  0  0  0  0  0  0  0  0
    3.1803   -5.2260    1.3618 O   0  0  0  0  0  0  0  0  0  0  0  0
    4.7553   -4.6669    0.1377 O   0  0  0  0  0  0  0  0  0  0  0  0
    1.6526   -2.3074    2.1644 O   0  0  0  0  0  0  0  0  0  0  0  0
   -0.2463   -3.2275    1.1465 O   0  0  0  0  0  0  0  0  0  0  0  0
    0.4345   -0.9667    0.9769 O   0  0  0  0  0  0  0  0  0  0  0  0
    0.1744    0.5472   -2.7058 O   0  0  0  0  0  0  0  0  0  0  0  0
    1.5878   -4.1313    0.1852 O   0  0  0  0  0  0  0  0  0  0  0  0
    3.5633   -1.8262    0.2975 P   0  0  0  0  0  0  0  0  0  0  0  0
    3.2613   -4.7371   -0.2233 P   0  0  2  0  0  0  0  0  0  0  0  0
    1.0112   -2.5490    0.5810 P   0  0  1  0  0  0  0  0  0  0  0  0
  5  1  1  1
  7  5  1  0
  7 17  1  6
  8  7  1  0
  8 18  1  6
  9  6  2  0
 10  6  1  0
 11  8  1  0
 11 16  1  1
 12  9  1  0
 13  2  2  0
 13  9  1  0
 14  2  1  0
 14 10  2  0
 15  3  2  0
 15  6  1  0
 16  3  1  0
 16 10  1  0
 26  1  1  0
 27  5  1  0
 27 11  1  0
 29  4  1  0
 29 19  1  0
 29 20  1  0
 29 21  2  0
 30  4  1  0
 30 22  1  1
 30 23  2  0
 30 28  1  0
 31 24  1  1
 31 25  2  0
 31 26  1  0
 31 28  1  0
M  END
>  <DRUGBANK_ID>  (1) 
DB03909

>  <SECONDARY_ACCESSION_NUMBERS>  (1) 
EXPT00416

>  <COMMON_NAME>  (1) 
Adenosine-5'-[Beta, Gamma-Methylene]Triphosphate

$$$$
