577
     RDKit          3D

 23 24  0  0  1  0  0  0  0  0999 V2000
    1.0432   -0.1453   -0.0511 O   0  0  0  0  0  0  0  0  0  0  0  0
    2.4565    2.4535    0.0289 O   0  0  0  0  0  0  0  0  0  0  0  0
    1.0008   -2.0826    1.1380 O   0  0  0  0  0  0  0  0  0  0  0  0
   -0.8267    4.0696   -5.4316 O   0  0  0  0  0  0  0  0  0  0  0  0
    0.5267    2.6563   -1.3336 N   0  0  0  0  0  0  0  0  0  0  0  0
   -1.5828    0.1673    1.3087 N   0  0  0  0  0  0  0  0  0  0  0  0
    0.5126    5.0586   -1.7420 N   0  0  0  0  0  0  0  0  0  0  0  0
   -0.1782    2.0181   -3.3714 N   0  0  0  0  0  0  0  0  0  0  0  0
   -0.2172    5.7052   -3.9188 N   0  0  0  0  0  0  0  0  0  0  0  0
    0.4068    7.2504   -2.3401 N   0  0  0  0  0  0  0  0  0  0  0  0
   -1.7223   -0.9782   -0.8995 C   0  0  0  0  0  0  0  0  0  0  0  0
   -1.1417   -1.0223    0.5334 C   0  0  1  0  0  0  0  0  0  0  0  0
   -1.2059   -2.1534   -1.7299 C   0  0  0  0  0  0  0  0  0  0  0  0
   -3.2546   -0.9654   -0.9325 C   0  0  0  0  0  0  0  0  0  0  0  0
    0.4136   -1.1653    0.5806 C   0  0  0  0  0  0  0  0  0  0  0  0
    0.3274    3.7757   -2.0647 C   0  0  0  0  0  0  0  0  0  0  0  0
    1.0311    2.5844    0.0204 C   0  0  0  0  0  0  0  0  0  0  0  0
    2.4846   -0.0424   -0.0041 C   0  0  0  0  0  0  0  0  0  0  0  0
   -0.1164    3.3804   -3.2991 C   0  0  0  0  0  0  0  0  0  0  0  0
    2.9564    1.2841   -0.6385 C   0  0  0  0  0  0  0  0  0  0  0  0
    0.2411    1.6215   -2.1915 C   0  0  0  0  0  0  0  0  0  0  0  0
   -0.4197    4.3808   -4.3121 C   0  0  0  0  0  0  0  0  0  0  0  0
    0.2198    5.9718   -2.7204 C   0  0  0  0  0  0  0  0  0  0  0  0
  1 15  1  0
  1 18  1  0
  2 17  1  0
  2 20  1  0
  3 15  2  0
  4 22  2  0
  5 16  1  0
  5 17  1  0
  5 21  1  0
  7 16  1  0
  7 23  1  0
  8 19  1  0
  8 21  2  0
  9 22  1  0
  9 23  2  0
 10 23  1  0
 11 12  1  0
 11 13  1  0
 11 14  1  0
 12  6  1  6
 12 15  1  0
 16 19  2  0
 18 20  1  0
 19 22  1  0
M  END
>  <DRUGBANK_ID>  (1) 
DB00577

>  <SECONDARY_ACCESSION_NUMBERS>  (1) 
APRD00697

>  <COMMON_NAME>  (1) 
Valaciclovir

>  <CAS_NUMBER>  (1) 
124832-26-4

>  <UNII>  (1) 
MZ1IW7Q79D

>  <SYNONYMS>  (1) 
L-Valine ester with 9-((2-hydroxyethoxy)methyl)guanine; L-Valine, 2-((2-amino-1,6-dihydro-6-oxo-9H-purin-9-yl)methoxy)ethyl ester; Valaciclovir; Valaciclovirum; Valacyclovir

$$$$
