
     RDKit          3D

 11 10  0  0  1  0  0  0  0  0999 V2000
   -0.0952    2.0107    0.9245 C   0  0  0  0  0  0  0  0  0  0  0  0
   -2.1735   -0.1706    2.2587 C   0  0  0  0  0  0  0  0  0  0  0  0
    0.8044    1.8151    2.1161 C   0  0  1  0  0  0  0  0  0  0  0  0
   -1.1531   -0.8021    1.2078 C   0  0  2  0  0  0  0  0  0  0  0  0
    1.1255    0.2980    2.3490 C   0  0  2  0  0  0  0  0  0  0  0  0
    0.4352   -0.7273    1.3698 C   0  0  1  0  0  0  0  0  0  0  0  0
   -2.2880    1.2271    2.5140 O   0  0  0  0  0  0  0  0  0  0  0  0
    1.9608    2.6099    1.8600 O   0  0  0  0  0  0  0  0  0  0  0  0
   -1.5164   -0.4923   -0.1717 O   0  0  0  0  0  0  0  0  0  0  0  0
    0.8241   -0.0365    3.7201 O   0  0  0  0  0  0  0  0  0  0  0  0
    0.8821   -2.0594    1.7223 O   0  0  0  0  0  0  0  0  0  0  0  0
  3  1  1  6
  3  8  1  0
  4  2  1  0
  4  9  1  6
  5 10  1  1
  5  6  1  0
  5  3  1  0
  6 11  1  1
  6  4  1  0
  7  2  1  0
M  END
>  <DRUGBANK_ID>  (1) 
DB03815

>  <SECONDARY_ACCESSION_NUMBERS>  (1) 
EXPT01465

>  <COMMON_NAME>  (1) 
Fucitol

>  <CAS_NUMBER>  (1) 
13074-06-1

>  <UNII>  (1) 
961570X3WO

>  <SYNONYMS>  (1) 
L-Fucitol

$$$$
