1466
     RDKit          3D

 23 27  0  0  1  0  0  0  0  0999 V2000
   -2.0276    0.2030    1.3051 O   0  0  0  0  0  0  0  0  0  0  0  0
   -3.4418   -1.9724   -0.0737 O   0  0  0  0  0  0  0  0  0  0  0  0
   -2.9493    3.0688    0.7318 O   0  0  0  0  0  0  0  0  0  0  0  0
    2.9071   -1.0242    0.2805 N   0  0  0  0  0  0  0  0  0  0  0  0
    0.0971   -0.6688    0.5982 C   0  0  1  0  0  0  0  0  0  0  0  0
    0.6819   -1.3259   -0.6674 C   0  0  2  0  0  0  0  0  0  0  0  0
    2.0676   -0.6522   -0.8942 C   0  0  1  0  0  0  0  0  0  0  0  0
   -1.3528   -1.0381    0.9429 C   0  0  2  0  0  0  0  0  0  0  0  0
    1.0024   -0.8312    1.8224 C   0  0  0  0  0  0  0  0  0  0  0  0
   -0.0809    0.7842    0.2872 C   0  0  0  0  0  0  0  0  0  0  0  0
    1.9498    0.8934   -1.1601 C   0  0  0  0  0  0  0  0  0  0  0  0
    2.4406   -0.4153    1.5309 C   0  0  0  0  0  0  0  0  0  0  0  0
    0.7691    1.5564   -0.4928 C   0  0  0  0  0  0  0  0  0  0  0  0
   -2.0352   -1.8532   -0.1959 C   0  0  2  0  0  0  0  0  0  0  0  0
   -0.3141   -1.2245   -1.8224 C   0  0  0  0  0  0  0  0  0  0  0  0
   -1.3066    1.2249    0.7305 C   0  0  0  0  0  0  0  0  0  0  0  0
   -1.6178   -1.4230   -1.5793 C   0  0  0  0  0  0  0  0  0  0  0  0
    0.4094    2.8865   -0.7015 C   0  0  0  0  0  0  0  0  0  0  0  0
    4.3235   -0.7618    0.0660 C   0  0  0  0  0  0  0  0  0  0  0  0
   -1.7214    2.5221    0.4719 C   0  0  0  0  0  0  0  0  0  0  0  0
   -0.8247    3.3642   -0.2137 C   0  0  0  0  0  0  0  0  0  0  0  0
   -3.9330    2.2251    1.3380 C   0  0  0  0  0  0  0  0  0  0  0  0
   -4.4579    1.1682    0.3770 C   0  0  0  0  0  0  0  0  0  0  0  0
  8  1  1  6
  1 16  1  0
  3 20  1  0
  3 22  1  0
  4  7  1  0
  4 12  1  0
  4 19  1  0
  5  6  1  0
  5  8  1  0
  5  9  1  1
  5 10  1  0
  6  7  1  0
  6 15  1  6
  7 11  1  1
  8 14  1  0
  9 12  1  0
 10 13  2  0
 10 16  1  0
 11 13  1  0
 13 18  1  0
 14  2  1  6
 14 17  1  0
 15 17  2  0
 16 20  2  0
 18 21  2  0
 20 21  1  0
 22 23  1  0
M  END
>  <DRUGBANK_ID>  (1) 
DB01466

>  <COMMON_NAME>  (1) 
Ethylmorphine

>  <CAS_NUMBER>  (1) 
76-58-4

>  <UNII>  (1) 
RWO67D87EU

>  <SYNONYMS>  (1) 
3-ethoxymorphine; 3-O-Ethylmorphine; Dionine; Ethylmorphine

$$$$
