
     RDKit          3D

 22 25  0  0  0  0  0  0  0  0999 V2000
    1.2058   -0.5622    0.5262 C   0  0  0  0  0  0  0  0  0  0  0  0
    0.2767   -1.6377    1.5629 C   0  0  2  0  0  0  0  0  0  0  0  0
    0.4036   -3.2290    2.6462 C   0  0  0  0  0  0  0  0  0  0  0  0
    1.6191   -2.8337    3.5062 C   0  0  0  0  0  0  0  0  0  0  0  0
    2.5728   -2.4625    2.4039 C   0  0  1  0  0  0  0  0  0  0  0  0
    1.9691   -3.0316    0.8994 C   0  0  0  0  0  0  0  0  0  0  0  0
    0.7158   -2.5868    0.5027 C   0  0  0  0  0  0  0  0  0  0  0  0
   -0.3045   -2.8344   -0.6024 C   0  0  0  0  0  0  0  0  0  0  0  0
   -1.8148   -2.2264   -0.4018 C   0  0  0  0  0  0  0  0  0  0  0  0
   -1.8775   -0.6585   -0.0682 C   0  0  2  0  0  0  0  0  0  0  0  0
   -1.1462   -0.7061    1.4318 C   0  0  2  0  0  0  0  0  0  0  0  0
   -0.9717    0.8116    1.7693 C   0  0  0  0  0  0  0  0  0  0  0  0
   -2.3470    1.3698    1.9175 C   0  0  0  0  0  0  0  0  0  0  0  0
   -3.0518    1.3123    0.5870 C   0  0  1  0  0  0  0  0  0  0  0  0
   -3.2876    0.5833   -0.5326 C   0  0  1  0  0  0  0  0  0  0  0  0
   -3.9958    2.4582   -0.3846 C   0  0  0  0  0  0  0  0  0  0  0  0
   -4.8936    2.7164    0.8599 C   0  0  0  0  0  0  0  0  0  0  0  0
   -4.8454    1.2802    0.7574 C   0  0  1  0  0  0  0  0  0  0  0  0
   -5.8334    0.9647   -0.6079 C   0  0  0  0  0  0  0  0  0  0  0  0
   -5.3789    0.6404    1.8810 O   0  0  0  0  0  0  0  0  0  0  0  0
   -1.9489    1.9748   -0.8018 C   0  0  0  0  0  0  0  0  0  0  0  0
    2.6508   -1.0462    2.6153 O   0  0  0  0  0  0  0  0  0  0  0  0
  2  1  1  1
  2  3  1  0
  2  7  1  0
  2 11  1  0
  3  4  1  0
  4  5  1  0
  5  6  1  0
  5 22  1  6
  6  7  2  0
  7  8  1  0
  8  9  1  0
 10  9  1  1
 10 11  1  0
 10 15  1  0
 11 12  1  6
 12 13  1  0
 13 14  1  0
 14 15  1  0
 14 18  1  0
 14 21  1  6
 15 16  1  6
 16 17  1  0
 17 18  1  0
 18 19  1  6
 18 20  1  0
M  END
>  <DRUGBANK_ID>  (1) 
DB01474

>  <COMMON_NAME>  (1) 
17alpha-methyl-3beta,17beta-dihydroxyandrost-4-ene

>  <CAS_NUMBER>  (1) 
571-03-9

>  <UNII>  (1) 
83255K3MTP

>  <SYNONYMS>  (1) 
17-Methylandrost-4-ene-3beta,17beta-diol

$$$$
