MD7
     RDKit          3D

 23 25  0  0  0  0  0  0  0  0999 V2000
    0.0071    0.8354   -0.0951 C   0  0  0  0  0  0  0  0  0  0  0  0
    0.8653   -0.3944    0.0124 C   0  0  0  0  0  0  0  0  0  0  0  0
   -0.6120   -0.5430   -0.1842 C   0  0  0  0  0  0  0  0  0  0  0  0
   -1.3721   -1.1311    0.9306 C   0  0  0  0  0  0  0  0  0  0  0  0
   -1.6942   -0.1786    1.8559 O   0  0  0  0  0  0  0  0  0  0  0  0
   -1.7049   -2.4506    1.0221 C   0  0  0  0  0  0  0  0  0  0  0  0
   -0.8780   -3.3134    0.2309 C   0  0  0  0  0  0  0  0  0  0  0  0
   -0.0834   -3.8889   -0.4104 N   0  0  0  0  0  0  0  0  0  0  0  0
   -2.7064   -3.1624    1.9326 C   0  0  0  0  0  0  0  0  0  0  0  0
   -2.6475   -4.3917    2.0474 O   0  0  0  0  0  0  0  0  0  0  0  0
   -3.6914   -2.5216    2.6659 N   0  0  0  0  0  0  0  0  0  0  0  0
   -4.2191   -1.2229    2.5466 C   0  0  0  0  0  0  0  0  0  0  0  0
   -4.3222   -0.6296    1.2872 C   0  0  0  0  0  0  0  0  0  0  0  0
   -4.2953    0.7643    1.1663 C   0  0  0  0  0  0  0  0  0  0  0  0
   -4.2670   -0.4148    3.6963 C   0  0  0  0  0  0  0  0  0  0  0  0
   -4.3682    0.9812    3.5592 C   0  0  0  0  0  0  0  0  0  0  0  0
   -4.3010    1.5941    2.2966 C   0  0  0  0  0  0  0  0  0  0  0  0
   -4.2846    3.0585    2.1553 C   0  0  0  0  0  0  0  0  0  0  0  0
   -5.2649    3.6558    1.3514 C   0  0  0  0  0  0  0  0  0  0  0  0
   -5.4153    5.0381    1.2976 C   0  0  0  0  0  0  0  0  0  0  0  0
   -4.5796    5.8555    2.0499 C   0  0  0  0  0  0  0  0  0  0  0  0
   -3.5890    5.2874    2.8490 C   0  0  0  0  0  0  0  0  0  0  0  0
   -3.3996    3.8992    2.8543 C   0  0  0  0  0  0  0  0  0  0  0  0
  1  2  1  0
  1  3  1  0
  2  3  1  0
  3  4  1  0
  4  5  1  0
  4  6  2  0
  6  7  1  0
  6  9  1  0
  7  8  3  0
  9 10  2  0
  9 11  1  0
 11 12  1  0
 12 13  2  0
 12 15  1  0
 13 14  1  0
 14 17  2  0
 15 16  2  0
 16 17  1  0
 17 18  1  0
 18 19  2  0
 18 23  1  0
 19 20  1  0
 20 21  2  0
 21 22  1  0
 22 23  2  0
M  END
>  <DRUGBANK_ID>  (1) 
DB08169

>  <COMMON_NAME>  (1) 
(2Z)-N-biphenyl-4-yl-2-cyano-3-cyclopropyl-3-hydroxyprop-2-enamide

$$$$
