
     RDKit          3D

  8  7  0  0  0  0  0  0  0  0999 V2000
    1.1978   -0.2408   -0.0672 C   0  0  0  0  0  0  0  0  0  0  0  0
    0.6941   -1.2007    1.0030 C   0  0  0  0  0  0  0  0  0  0  0  0
    1.0318   -0.7535    2.4256 C   0  0  0  0  0  0  0  0  0  0  0  0
    0.4543    0.6082    2.8385 C   0  0  0  0  0  0  0  0  0  0  0  0
   -1.3757    0.6082    2.8385 P   0  0  0  0  0  0  0  0  0  0  0  0
   -1.2296    2.0473    3.6223 O   0  0  0  0  0  0  0  0  0  0  0  0
   -1.2779    1.2072    1.3093 O   0  0  0  0  0  0  0  0  0  0  0  0
   -2.9241    0.6082    2.8385 O   0  0  0  0  0  0  0  0  0  0  0  0
  1  2  1  0
  2  3  1  0
  3  4  1  0
  4  5  1  0
  5  6  1  0
  5  7  1  0
  5  8  2  0
M  END
>  <DRUGBANK_ID>  (1) 
DB03999

>  <SECONDARY_ACCESSION_NUMBERS>  (1) 
EXPT00862

>  <COMMON_NAME>  (1) 
Butylphosphonate

>  <UNII>  (1) 
HKC30FCB7P

$$$$
