
     RDKit          3D

 29 32  0  0  0  0  0  0  0  0999 V2000
    2.4212    0.0023    0.0541 C   0  0  0  0  0  0  0  0  0  0  0  0
   -9.8758    2.1893    2.9153 C   0  0  0  0  0  0  0  0  0  0  0  0
  -10.8483    0.7561    1.0648 C   0  0  0  0  0  0  0  0  0  0  0  0
   -8.6526    2.6034    2.3776 C   0  0  0  0  0  0  0  0  0  0  0  0
   -9.5822    0.9137    0.6440 C   0  0  0  0  0  0  0  0  0  0  0  0
    0.3066   -1.1729    0.2564 C   0  0  0  0  0  0  0  0  0  0  0  0
    0.3064    1.1940    0.2387 C   0  0  0  0  0  0  0  0  0  0  0  0
   -1.1812   -1.2199   -0.1961 C   0  0  0  0  0  0  0  0  0  0  0  0
   -1.1911    1.2738   -0.2041 C   0  0  0  0  0  0  0  0  0  0  0  0
   -4.1623   -0.8432    2.8387 C   0  0  0  0  0  0  0  0  0  0  0  0
   -4.3477    0.8220    0.5626 C   0  0  0  0  0  0  0  0  0  0  0  0
   -7.7220   -0.0024    1.8173 C   0  0  0  0  0  0  0  0  0  0  0  0
  -10.9262    1.3685    2.2753 C   0  0  0  0  0  0  0  0  0  0  0  0
   -8.3585    1.8735    1.2689 C   0  0  0  0  0  0  0  0  0  0  0  0
   -5.2959   -0.2846    2.3156 C   0  0  0  0  0  0  0  0  0  0  0  0
   -7.4413   -0.7942    0.7785 C   0  0  0  0  0  0  0  0  0  0  0  0
   -3.0469   -0.6553    2.0890 C   0  0  0  0  0  0  0  0  0  0  0  0
   -5.4921    0.7716    1.4328 C   0  0  0  0  0  0  0  0  0  0  0  0
   -3.0932    0.0680    0.8768 C   0  0  0  0  0  0  0  0  0  0  0  0
   -6.4957   -1.0973    2.2731 C   0  0  0  0  0  0  0  0  0  0  0  0
   -7.2747    0.4482   -0.6084 C   0  0  0  0  0  0  0  0  0  0  0  0
  -11.9891    1.0464    3.0086 F   0  0  0  0  0  0  0  0  0  0  0  0
   -1.9208   -1.2365    2.5183 F   0  0  0  0  0  0  0  0  0  0  0  0
    1.0018    0.0052   -0.2980 N   0  0  0  0  0  0  0  0  0  0  0  0
   -1.9558    0.0388    0.0478 N   0  0  0  0  0  0  0  0  0  0  0  0
   -7.0283    1.1691    1.6285 N   0  0  0  0  0  0  0  0  0  0  0  0
   -6.8590   -1.4564    3.4106 O   0  0  0  0  0  0  0  0  0  0  0  0
   -6.2056    0.9259   -1.1426 O   0  0  0  0  0  0  0  0  0  0  0  0
   -8.3626    1.2279   -1.1419 O   0  0  0  0  0  0  0  0  0  0  0  0
  4  2  2  0
  5  3  1  0
  8  6  1  0
  9  7  1  0
 13  2  1  0
 13  3  2  0
 14  4  1  0
 14  5  2  0
 15 10  2  0
 16 12  2  0
 17 10  1  0
 18 11  2  0
 18 15  1  0
 19 11  1  0
 19 17  2  0
 20 15  1  0
 20 16  1  0
 21 16  1  0
 22 13  1  0
 23 17  1  0
 24  1  1  0
 24  6  1  0
 24  7  1  0
 25  8  1  0
 25  9  1  0
 25 19  1  0
 26 12  1  0
 26 14  1  0
 26 18  1  0
 27 20  2  0
 28 21  2  0
 29 21  1  0
M  END
>  <DRUGBANK_ID>  (1) 
DB11511

>  <COMMON_NAME>  (1) 
Difloxacin

>  <CAS_NUMBER>  (1) 
98106-17-3

>  <UNII>  (1) 
5Z7OO9FNFD

>  <SYNONYMS>  (1) 
Difloxacin; difloxacino

$$$$
