HUX
     RDKit          3D

 21 24  0  0  0  0  0  0  0  0999 V2000
   42.4599  -17.5743   -9.9339 Cl  0  0  0  0  0  0  0  0  0  0  0  0
   42.5796  -16.2879   -8.8081 C   0  0  0  0  0  0  0  0  0  0  0  0
   43.7148  -12.7991   -8.6912 N   0  0  0  0  0  0  0  0  0  0  0  0
   43.1949  -14.0075   -8.3322 C   0  0  0  0  0  0  0  0  0  0  0  0
   43.5884  -11.8206   -7.7975 C   0  0  0  0  0  0  0  0  0  0  0  0
   42.4052  -13.3765   -4.7376 N   0  0  0  0  0  0  0  0  0  0  0  0
   42.7120  -13.2555   -6.1129 C   0  0  0  0  0  0  0  0  0  0  0  0
   43.1029  -15.0491   -9.2071 C   0  0  0  0  0  0  0  0  0  0  0  0
   42.1480  -16.5100   -7.4977 C   0  0  0  0  0  0  0  0  0  0  0  0
   42.7304  -14.2618   -6.9935 C   0  0  0  0  0  0  0  0  0  0  0  0
   44.4623  -10.5332   -7.7474 C   0  0  0  0  0  0  0  0  0  0  0  0
   42.8276  -11.9931   -6.6492 C   0  0  0  0  0  0  0  0  0  0  0  0
   44.5759   -9.7818   -6.1007 C   0  0  2  0  0  0  0  0  0  0  0  0
   44.0437   -9.6224   -4.3411 C   0  0  0  0  0  0  0  0  0  0  0  0
   43.1676   -9.5289   -6.5751 C   0  0  0  0  0  0  0  0  0  0  0  0
   42.7102   -9.3117   -4.0959 C   0  0  0  0  0  0  0  0  0  0  0  0
   41.7728  -10.3821   -4.7629 C   0  0  0  0  0  0  0  0  0  0  0  0
   42.4665   -7.8008   -4.2676 C   0  0  0  0  0  0  0  0  0  0  0  0
   42.7650  -10.8382   -5.7899 C   0  0  1  0  0  0  0  0  0  0  0  0
   43.8659   -7.1225   -4.2094 C   0  0  0  0  0  0  0  0  0  0  0  0
   42.2391  -15.5000   -6.5887 C   0  0  0  0  0  0  0  0  0  0  0  0
  1  2  1  0
  2  8  2  0
  2  9  1  0
  3  4  2  0
  3  5  1  0
  4  8  1  0
  4 10  1  0
  5 11  1  0
  5 12  2  0
  6  7  1  0
  7 10  2  0
  7 12  1  0
  9 21  2  0
 10 21  1  0
 13 11  1  1
 12 19  1  0
 13 14  1  0
 13 15  1  0
 14 16  2  0
 15 19  1  0
 16 17  1  0
 16 18  1  0
 19 17  1  6
 18 20  1  0
M  END
>  <DRUGBANK_ID>  (1) 
DB04114

>  <SECONDARY_ACCESSION_NUMBERS>  (1) 
EXPT01796

>  <COMMON_NAME>  (1) 
3-Chloro-9-Ethyl-6,7,8,9,10,11-Hexahydro-7,11-Methanocycloocta[B]Quinolin-12-Amine

$$$$
