
     RDKit          3D

  1  0  0  0  0  0  0  0  0  0999 V2000
    1.0905   -0.0266   -0.0332 He  0  0  0  0  0 15  0  0  0  0  0  0
M  ISO  1   1   3
M  END
>  <DRUGBANK_ID>  (1) 
DB12940

>  <COMMON_NAME>  (1) 
Helium He-3

>  <CAS_NUMBER>  (1) 
14762-55-1

>  <UNII>  (1) 
I83W8ELB18

>  <SYNONYMS>  (1) 
Helium-3; Helium, He-3

$$$$
