
     RDKit          3D

 23 24  0  0  0  0  0  0  0  0999 V2000
    1.6199   -1.0457    0.0034 N   0  0  0  0  0  0  0  0  0  0  0  0
    1.8274    1.5295   -0.0580 S   0  0  0  0  0  0  0  0  0  0  0  0
    2.4870   -0.0606   -0.0785 C   0  0  0  0  0  0  0  0  0  0  0  0
    0.3463   -0.5100    0.1075 C   0  0  0  0  0  0  0  0  0  0  0  0
    0.2761    0.8562    0.0446 C   0  0  0  0  0  0  0  0  0  0  0  0
   -0.9543    1.5842    0.1132 C   0  0  0  0  0  0  0  0  0  0  0  0
   -2.2021    0.7469   -0.0976 C   0  0  0  0  0  0  0  0  0  0  0  0
   -2.1415   -0.6033   -0.0356 C   0  0  0  0  0  0  0  0  0  0  0  0
   -0.8416   -1.2754    0.3761 C   0  0  0  0  0  0  0  0  0  0  0  0
   -0.7775   -2.3697    0.9332 O   0  0  0  0  0  0  0  0  0  0  0  0
   -1.0441    2.7971    0.2970 O   0  0  0  0  0  0  0  0  0  0  0  0
   -3.3601    1.4533   -0.3819 O   0  0  0  0  0  0  0  0  0  0  0  0
   -3.3245   -1.4930   -0.3470 C   0  0  0  0  0  0  0  0  0  0  0  0
   -3.1130   -2.3234   -1.6202 C   0  0  0  0  0  0  0  0  0  0  0  0
   -2.0138   -3.3654   -1.4481 C   0  0  0  0  0  0  0  0  0  0  0  0
   -2.3181   -4.2513   -0.2250 C   0  0  0  0  0  0  0  0  0  0  0  0
   -3.5936   -5.0441   -0.4544 C   0  0  0  0  0  0  0  0  0  0  0  0
   -3.4038   -5.9278   -1.6794 C   0  0  0  0  0  0  0  0  0  0  0  0
   -2.2150   -6.8699   -1.4533 C   0  0  0  0  0  0  0  0  0  0  0  0
   -2.4758   -7.7573   -0.2306 C   0  0  0  0  0  0  0  0  0  0  0  0
   -3.7417   -8.5948   -0.4410 C   0  0  0  0  0  0  0  0  0  0  0  0
   -3.6199   -9.4723   -1.6876 C   0  0  0  0  0  0  0  0  0  0  0  0
   -2.4452  -10.4263   -1.5469 C   0  0  0  0  0  0  0  0  0  0  0  0
  1  3  2  0
  1  4  1  0
  2  3  1  0
  2  5  1  0
  4  5  2  0
  4  9  1  0
  5  6  1  0
  6  7  1  0
  6 11  2  0
  7  8  2  0
  7 12  1  0
  8  9  1  0
  8 13  1  0
  9 10  2  0
 13 14  1  0
 14 15  1  0
 15 16  1  0
 16 17  1  0
 17 18  1  0
 18 19  1  0
 19 20  1  0
 20 21  1  0
 21 22  1  0
 22 23  1  0
M  END
>  <DRUGBANK_ID>  (1) 
DB04799

>  <COMMON_NAME>  (1) 
6-Hydroxy-5-undecyl-4,7-benzothiazoledione

>  <CAS_NUMBER>  (1) 
43152-58-5

>  <SYNONYMS>  (1) 
5-n-undecyl-6-hydroxy-4,7-dioxobenzothiazole; 6-hydroxy-5-undecyl-1,3-benzothiazole-4,7-dione; 6-Hydroxy-5-undecyl-4,7-benzothiazoledione; UHDBT

$$$$
