
     RDKit          3D

 19 21  0  0  1  0  0  0  0  0999 V2000
    2.2303   -0.0981    0.0692 O   0  0  0  0  0  0  0  0  0  0  0  0
    0.9532   -0.1994    0.5569 C   0  0  0  0  0  0  0  0  0  0  0  0
    0.2228   -1.3895    0.5082 C   0  0  0  0  0  0  0  0  0  0  0  0
   -1.1804   -1.3353    0.7501 C   0  0  0  0  0  0  0  0  0  0  0  0
   -1.8533   -0.0391    0.8925 C   0  0  0  0  0  0  0  0  0  0  0  0
   -1.0585    1.0876    1.1904 C   0  0  0  0  0  0  0  0  0  0  0  0
    0.3318    1.0065    0.9264 C   0  0  0  0  0  0  0  0  0  0  0  0
   -2.8912    0.1546   -0.3452 C   0  0  2  0  0  0  0  0  0  0  0  0
   -1.8251    0.2089   -1.4434 C   0  0  0  0  0  0  0  0  0  0  0  0
   -1.3279    1.6035   -1.6357 C   0  0  0  0  0  0  0  0  0  0  0  0
   -0.1366    1.8944   -1.8894 O   0  0  0  0  0  0  0  0  0  0  0  0
   -2.2815    2.6584   -1.4833 C   0  0  0  0  0  0  0  0  0  0  0  0
   -1.9035    3.9888   -1.6257 C   0  0  0  0  0  0  0  0  0  0  0  0
   -2.8816    4.9000   -1.9581 C   0  0  0  0  0  0  0  0  0  0  0  0
   -4.1846    4.4312   -2.1557 C   0  0  0  0  0  0  0  0  0  0  0  0
   -5.1555    5.2653   -2.6210 O   0  0  0  0  0  0  0  0  0  0  0  0
   -4.5564    3.1160   -1.8475 C   0  0  0  0  0  0  0  0  0  0  0  0
   -3.5938    2.2503   -1.3634 C   0  0  0  0  0  0  0  0  0  0  0  0
   -3.9376    1.1009   -0.7009 O   0  0  0  0  0  0  0  0  0  0  0  0
  1  2  1  0
  2  3  2  0
  2  7  1  0
  3  4  1  0
  4  5  2  0
  5  6  1  0
  6  7  2  0
  8  5  1  1
  8  9  1  0
  8 19  1  0
  9 10  1  0
 10 11  2  0
 10 12  1  0
 12 13  2  0
 12 18  1  0
 13 14  1  0
 14 15  2  0
 15 16  1  0
 15 17  1  0
 17 18  2  0
 18 19  1  0
M  END
>  <DRUGBANK_ID>  (1) 
DB03601

>  <SECONDARY_ACCESSION_NUMBERS>  (1) 
EXPT01172

>  <COMMON_NAME>  (1) 
5-deoxyflavanone

>  <CAS_NUMBER>  (1) 
578-86-9

>  <UNII>  (1) 
T194LKP9W6

$$$$
