
     RDKit          3D

 34 34  0  0  1  0  0  0  0  0999 V2000
   -2.8917   -6.6498    0.0927 C   0  0  0  0  0  0  0  0  0  0  0  0
   -3.8829   -5.5745    0.6024 C   0  0  0  0  0  0  0  0  0  0  0  0
   -5.1613   -6.1571    1.2123 C   0  0  0  0  0  0  0  0  0  0  0  0
   -3.4117   -4.2654    1.2138 C   0  0  0  0  0  0  0  0  0  0  0  0
   -2.4069   -3.5452    0.3200 C   0  0  1  0  0  0  0  0  0  0  0  0
   -2.6544   -2.8938   -1.1264 C   0  0  0  0  0  0  0  0  0  0  0  0
   -2.3824   -1.6967   -1.3005 O   0  0  0  0  0  0  0  0  0  0  0  0
   -3.0249   -3.5882   -2.2764 N   0  0  0  0  0  0  0  0  0  0  0  0
   -3.8149   -4.8437   -2.4422 C   0  0  2  0  0  0  0  0  0  0  0  0
   -3.4892   -5.9293   -3.5817 C   0  0  0  0  0  0  0  0  0  0  0  0
   -2.3105   -6.0728   -3.9389 O   0  0  0  0  0  0  0  0  0  0  0  0
   -4.3641   -6.8778   -4.0685 N   0  0  0  0  0  0  0  0  0  0  0  0
   -5.8040   -7.0618   -4.0105 C   0  0  0  0  0  0  0  0  0  0  0  0
   -5.3444   -4.5601   -2.1390 C   0  0  0  0  0  0  0  0  0  0  0  0
   -6.0685   -5.8285   -1.5903 C   0  0  0  0  0  0  0  0  0  0  0  0
   -5.7157   -3.4723   -1.0602 C   0  0  0  0  0  0  0  0  0  0  0  0
   -5.8425   -3.9101   -3.4305 C   0  0  0  0  0  0  0  0  0  0  0  0
   -1.6160   -2.6528    1.2047 N   0  0  0  0  0  0  0  0  0  0  0  0
   -0.3892   -2.7942    1.8096 C   0  0  0  0  0  0  0  0  0  0  0  0
   -0.0493   -1.9090    2.6027 O   0  0  0  0  0  0  0  0  0  0  0  0
    0.4998   -4.0456    1.6236 C   0  0  2  0  0  0  0  0  0  0  0  0
    2.0200   -3.7575    1.7397 C   0  0  0  0  0  0  0  0  0  0  0  0
    3.0187   -4.6297    0.8743 C   0  0  0  0  0  0  0  0  0  0  0  0
    2.9891   -4.4542   -0.6301 N   0  0  0  0  0  0  0  0  0  0  0  0
    2.8809   -5.5512   -1.4682 C   0  0  0  0  0  0  0  0  0  0  0  0
    3.3525   -6.6636   -1.2616 O   0  0  0  0  0  0  0  0  0  0  0  0
    2.0294   -5.1660   -2.7059 C   0  0  0  0  0  0  0  0  0  0  0  0
    1.6768   -3.7904   -2.3609 N   0  0  0  0  0  0  0  0  0  0  0  0
    2.4764   -3.3488   -1.2829 C   0  0  0  0  0  0  0  0  0  0  0  0
    2.5128   -2.1796   -0.8631 O   0  0  0  0  0  0  0  0  0  0  0  0
    0.4501   -3.1379   -2.8629 C   0  0  0  0  0  0  0  0  0  0  0  0
    2.8624   -5.0818   -3.9698 C   0  0  0  0  0  0  0  0  0  0  0  0
    0.8874   -6.1757   -2.9214 C   0  0  0  0  0  0  0  0  0  0  0  0
    0.2537   -4.8199    0.0771 S   0  0  0  0  0  0  0  0  0  0  0  0
  1  2  1  0
  2  3  1  0
  2  4  1  0
  5  4  1  1
  5  6  1  0
  5 18  1  0
  6  7  2  0
  6  8  1  0
  9 14  1  0
  9 10  1  0
  9  8  1  6
 10 11  2  0
 10 12  1  0
 12 13  1  0
 14 15  1  0
 14 16  1  0
 14 17  1  0
 18 19  1  0
 19 20  2  0
 21 34  1  6
 21 22  1  0
 21 19  1  0
 22 23  1  0
 23 24  1  0
 24 25  1  0
 24 29  1  0
 25 26  2  0
 25 27  1  0
 27 28  1  0
 27 32  1  0
 27 33  1  0
 28 29  1  0
 28 31  1  0
 29 30  2  0
M  END
>  <DRUGBANK_ID>  (1) 
DB06573

>  <COMMON_NAME>  (1) 
Rebimastat

>  <CAS_NUMBER>  (1) 
259188-38-0

>  <UNII>  (1) 
1B47R6ZX4K

>  <SYNONYMS>  (1) 
Rebimastat

$$$$
