
     RDKit          3D

 32 36  0  0  1  0  0  0  0  0999 V2000
   -7.4889    1.4226   -4.3163 C   0  0  0  0  0  0  0  0  0  0  0  0
   -5.0362    1.6874   -4.8247 C   0  0  0  0  0  0  0  0  0  0  0  0
   -7.8277    1.7988   -5.7674 C   0  0  0  0  0  0  0  0  0  0  0  0
   -5.3844    2.0813   -6.2604 C   0  0  0  0  0  0  0  0  0  0  0  0
   -9.1701   -2.2805    0.2325 C   0  0  0  0  0  0  0  0  0  0  0  0
  -10.1702   -2.4996    1.3774 C   0  0  0  0  0  0  0  0  0  0  0  0
   -9.9608   -5.9011    2.3445 C   0  0  0  0  0  0  0  0  0  0  0  0
   -8.4395   -5.7005    4.2053 C   0  0  0  0  0  0  0  0  0  0  0  0
   -4.3214   -2.7481   -2.3492 C   0  0  0  0  0  0  0  0  0  0  0  0
   -8.1560   -3.2596    2.0288 C   0  0  0  0  0  0  0  0  0  0  0  0
   -9.7293   -5.6413    3.6916 C   0  0  0  0  0  0  0  0  0  0  0  0
   -6.0929    0.7640   -4.1908 C   0  0  1  0  0  0  0  0  0  0  0  0
   -7.7852   -2.4533    0.8685 C   0  0  1  0  0  0  0  0  0  0  0  0
   -6.7652    2.7249   -6.3551 C   0  0  1  0  0  0  0  0  0  0  0  0
   -8.8736   -6.1269    1.4741 C   0  0  0  0  0  0  0  0  0  0  0  0
   -7.3509   -5.9202    3.3344 C   0  0  0  0  0  0  0  0  0  0  0  0
   -5.1179   -3.2712   -1.3320 C   0  0  0  0  0  0  0  0  0  0  0  0
   -7.5291   -6.0038    1.9236 C   0  0  0  0  0  0  0  0  0  0  0  0
   -6.0998   -2.4416   -0.8835 C   0  0  0  0  0  0  0  0  0  0  0  0
   -5.5872   -0.7702   -2.3189 C   0  0  0  0  0  0  0  0  0  0  0  0
   -6.1821   -4.4630    0.1950 C   0  0  0  0  0  0  0  0  0  0  0  0
  -10.7210   -5.1402    4.4464 F   0  0  0  0  0  0  0  0  0  0  0  0
   -9.1250   -6.0299    0.1582 F   0  0  0  0  0  0  0  0  0  0  0  0
   -6.1211   -5.7540    3.8447 F   0  0  0  0  0  0  0  0  0  0  0  0
   -4.6079   -1.5082   -2.8634 N   0  0  0  0  0  0  0  0  0  0  0  0
   -5.7278    0.5428   -2.7878 N   0  0  0  0  0  0  0  0  0  0  0  0
   -5.1421   -4.4806   -0.6416 N   0  0  0  0  0  0  0  0  0  0  0  0
   -6.4574   -5.5791    1.0197 N   0  0  0  0  0  0  0  0  0  0  0  0
   -6.3564   -1.1587   -1.2905 N   0  0  0  0  0  0  0  0  0  0  0  0
   -6.7768   -3.1616    0.0911 N   0  0  0  0  0  0  0  0  0  0  0  0
   -7.0724    3.0261   -7.7117 O   0  0  0  0  0  0  0  0  0  0  0  0
   -9.4291   -2.9325    2.5170 O   0  0  0  0  0  0  0  0  0  0  0  0
  3  1  1  0
  4  2  1  0
  6  5  1  0
 11  7  2  0
 11  8  1  0
 12  1  1  0
 12  2  1  0
 12 26  1  1
 13  5  1  0
 13 10  1  0
 13 30  1  6
 14  3  1  0
 14  4  1  0
 14 31  1  6
 15  7  1  0
 16  8  2  0
 17  9  2  0
 18 15  2  0
 18 16  1  0
 19 17  1  0
 22 11  1  0
 23 15  1  0
 24 16  1  0
 25  9  1  0
 25 20  2  0
 26 20  1  0
 27 17  1  0
 27 21  2  0
 28 18  1  0
 28 21  1  0
 29 19  2  0
 29 20  1  0
 30 19  1  0
 30 21  1  0
 32  6  1  0
 32 10  1  0
M  END
>  <DRUGBANK_ID>  (1) 
DB11798

>  <COMMON_NAME>  (1) 
Tanzisertib

>  <CAS_NUMBER>  (1) 
899805-25-5

>  <UNII>  (1) 
M5O06306UO

>  <SYNONYMS>  (1) 
4-[[9-(3S)-tetrahydro-3-furanyl]-8-[(2,4,6-trifluorophenyl)amino]-9H-purin-2-yl]amino]-trans-cyclohexanol; CYCLOHEXANOL, 4-((9-((3S)-TETRAHYDRO-3-FURANYL)-8-((2,4,6-TRIFLUOROPHENYL)AMINO)-9H-PURIN-2-YL)AMINO)-, TRANS-; Tanzisertib; TRANS-4-((9-((3S)-TETRAHYDROFURAN-3-YL)-8-((2,4,6-TRIFLUOROPHENYL)AMINO)-9H-PURIN-2- YL)AMINO)CYCLOHEXANOL

$$$$
