B33
     RDKit          3D

 14 13  0  0  0  0  0  0  0  0999 V2000
    0.9369    0.0135    0.0287 C   0  0  0  0  0  0  0  0  0  0  0  0
   -1.1703    0.0359    1.4600 C   0  0  0  0  0  0  0  0  0  0  0  0
   -2.0272   -1.1412    0.9337 C   0  0  0  0  0  0  0  0  0  0  0  0
    2.4979    0.0496    4.3227 C   0  0  0  0  0  0  0  0  0  0  0  0
    3.0458   -1.1981    5.0077 C   0  0  0  0  0  0  0  0  0  0  0  0
    2.6374   -2.4511    4.3764 N   0  0  0  0  0  0  0  0  0  0  0  0
    3.2647   -2.6255    3.0600 C   0  0  0  0  0  0  0  0  0  0  0  0
    2.7852   -3.9115    2.3505 C   0  0  0  0  0  0  0  0  0  0  0  0
    1.3114   -3.8215    2.0323 C   0  0  0  0  0  0  0  0  0  0  0  0
    1.2480   -2.5940    1.2888 N   0  0  0  0  0  0  0  0  0  0  0  0
    1.2734   -2.5809   -0.1362 C   0  0  0  0  0  0  0  0  0  0  0  0
    0.7607   -1.2808   -0.7734 C   0  0  0  0  0  0  0  0  0  0  0  0
    0.2739    0.0983    1.3180 N   0  0  0  0  0  0  0  0  0  0  0  0
   -1.8045   -2.4888    1.5854 C   0  0  0  0  0  0  0  0  0  0  0  0
  1 12  1  0
  1 13  1  0
  2  3  1  0
  2 13  1  0
  3 14  1  0
  4  5  1  0
  5  6  1  0
  6  7  1  0
  7  8  1  0
  8  9  1  0
  9 10  1  0
 10 11  1  0
 11 12  1  0
M  END
>  <DRUGBANK_ID>  (1) 
DB04633

>  <COMMON_NAME>  (1) 
N-ethyl-N-[3-(propylamino)propyl]propane-1,3-diamine

$$$$
