
     RDKit          3D

 29 32  0  0  0  0  0  0  0  0999 V2000
    0.8798    0.0917   -0.3656 O   0  0  0  0  0  0  0  0  0  0  0  0
    6.5937   -2.2709   -2.5091 O   0  0  0  0  0  0  0  0  0  0  0  0
    2.7242   -0.1452   -1.6856 N   0  0  0  0  0  0  0  0  0  0  0  0
    4.8934   -1.3002   -0.5039 N   0  0  0  0  0  0  0  0  0  0  0  0
    2.9336    0.2814    1.1659 C   0  0  0  0  0  0  0  0  0  0  0  0
    2.0773    0.0184   -0.3851 C   0  0  0  0  0  0  0  0  0  0  0  0
    2.4407    1.7339    1.7132 C   0  0  0  0  0  0  0  0  0  0  0  0
    2.6143   -0.8928    2.2298 C   0  0  0  0  0  0  0  0  0  0  0  0
    4.5459    0.3639    1.2055 C   0  0  1  0  0  0  0  0  0  0  0  0
    2.4644   -2.2057    1.7796 C   0  0  0  0  0  0  0  0  0  0  0  0
    2.0760    1.9795    3.0457 C   0  0  0  0  0  0  0  0  0  0  0  0
    2.5792    2.8965    0.9440 C   0  0  0  0  0  0  0  0  0  0  0  0
    2.7558   -0.7664    3.6462 C   0  0  0  0  0  0  0  0  0  0  0  0
    5.2667   -0.9561    0.8245 C   0  0  0  0  0  0  0  0  0  0  0  0
    5.0385    1.5768    0.4093 C   0  0  0  0  0  0  0  0  0  0  0  0
    2.2904    0.5668   -2.8876 C   0  0  0  0  0  0  0  0  0  0  0  0
    3.0141   -1.4482   -2.2774 C   0  0  0  0  0  0  0  0  0  0  0  0
    2.4868   -3.2942    2.6723 C   0  0  0  0  0  0  0  0  0  0  0  0
    2.2123    3.2138    3.6811 C   0  0  0  0  0  0  0  0  0  0  0  0
    2.6426   -1.8268    4.5465 C   0  0  0  0  0  0  0  0  0  0  0  0
    2.6616    4.1665    1.5455 C   0  0  0  0  0  0  0  0  0  0  0  0
    3.5167   -1.3619   -3.7189 C   0  0  0  0  0  0  0  0  0  0  0  0
    2.4491   -0.4350   -4.1156 C   0  0  0  0  0  0  0  0  0  0  0  0
    2.4999    4.3234    2.9190 C   0  0  0  0  0  0  0  0  0  0  0  0
    2.5340   -3.1060    4.0527 C   0  0  0  0  0  0  0  0  0  0  0  0
    5.5117   -0.3822   -1.5438 C   0  0  0  0  0  0  0  0  0  0  0  0
    4.9172   -2.7964   -0.7777 C   0  0  0  0  0  0  0  0  0  0  0  0
    6.2261   -3.1485   -1.4276 C   0  0  0  0  0  0  0  0  0  0  0  0
    6.7693   -0.9147   -2.1126 C   0  0  0  0  0  0  0  0  0  0  0  0
  1  6  2  0
  2 28  1  0
  2 29  1  0
  3  6  1  0
  3 16  1  0
  3 17  1  0
  4 14  1  0
  4 26  1  0
  4 27  1  0
  5  6  1  0
  5  7  1  0
  5  8  1  0
  5  9  1  0
  7 11  2  0
  7 12  1  0
  8 10  2  0
  8 13  1  0
  9 14  1  0
  9 15  1  6
 10 18  1  0
 11 19  1  0
 12 21  2  0
 13 20  2  0
 16 23  1  0
 17 22  1  0
 18 25  2  0
 19 24  2  0
 20 25  1  0
 21 24  1  0
 22 23  1  0
 26 29  1  0
 27 28  1  0
M  END
>  <DRUGBANK_ID>  (1) 
DB01529

>  <COMMON_NAME>  (1) 
Dextromoramide

>  <CAS_NUMBER>  (1) 
357-56-2

>  <UNII>  (1) 
9S4S6CIY83

>  <SYNONYMS>  (1) 
(+)-1-(3-methyl-4-morpholino-2,2-diphenylbutyryl)pyrrolidine; (+)-4-(2-methyl-4-oxo-3,3-diphenyl-4-(1-pyrrolidinyl)butyl)morpholine; 1-((3S)-3-methyl-4-(4-morpholinyl)-1-oxo-2,2-diphenylbutyl)pyrrolidine; 4-(2-methyl-4-oxo-3,3-diphenyl-4-(1-pyrrolidinyl)butyl)morpholine; D-2,2-diphenyl-3-methyl-4-morpholinobutyrylpyrrolidine; dextromoramida; Dextromoramide; dextromoramidum; palphium; Pyrrolamidol

$$$$
