
     RDKit          3D

 26 29  0  0  0  0  0  0  0  0999 V2000
    0.9215    0.2627   -0.1211 S   0  0  0  0  0  0  0  0  0  0  0  0
    2.5571   -0.0724    0.1329 C   0  0  0  0  0  0  0  0  0  0  0  0
    3.4899    0.9380   -0.0972 N   0  0  0  0  0  0  0  0  0  0  0  0
    4.9116    1.0907   -0.1564 N   0  0  0  0  0  0  0  0  0  0  0  0
    5.8289    0.1357   -0.3482 C   0  0  0  0  0  0  0  0  0  0  0  0
    5.5381   -1.2718   -0.5544 C   0  0  0  0  0  0  0  0  0  0  0  0
    6.1559   -1.9205    0.6754 C   0  0  0  0  0  0  0  0  0  0  0  0
    7.5678   -2.2245    0.5334 C   0  0  0  0  0  0  0  0  0  0  0  0
    8.0955   -0.8873    0.1643 C   0  0  0  0  0  0  0  0  0  0  0  0
    7.3154    0.2637   -0.2354 C   0  0  0  0  0  0  0  0  0  0  0  0
    7.8766    1.4064   -0.6208 N   0  0  0  0  0  0  0  0  0  0  0  0
    9.2235    1.3705   -0.6423 C   0  0  0  0  0  0  0  0  0  0  0  0
   10.0376    0.3040   -0.2419 C   0  0  0  0  0  0  0  0  0  0  0  0
    9.4560   -0.8436    0.2163 C   0  0  0  0  0  0  0  0  0  0  0  0
    2.8991   -1.2811    0.7184 N   0  0  0  0  0  0  0  0  0  0  0  0
    2.8158   -2.5716   -0.0820 C   0  0  0  0  0  0  0  0  0  0  0  0
    3.0123   -3.8536    0.7366 C   0  0  0  0  0  0  0  0  0  0  0  0
    4.1686   -3.8199    1.6356 N   0  0  0  0  0  0  0  0  0  0  0  0
    4.1707   -2.6139    2.5593 C   0  0  0  0  0  0  0  0  0  0  0  0
    3.7865   -1.2290    1.8782 C   0  0  0  0  0  0  0  0  0  0  0  0
    5.1897   -4.7998    1.4981 C   0  0  0  0  0  0  0  0  0  0  0  0
    5.7480   -5.3784    2.6284 C   0  0  0  0  0  0  0  0  0  0  0  0
    6.5780   -6.5116    2.5309 C   0  0  0  0  0  0  0  0  0  0  0  0
    7.1084   -6.8889    1.3119 C   0  0  0  0  0  0  0  0  0  0  0  0
    6.7017   -6.1422    0.2270 C   0  0  0  0  0  0  0  0  0  0  0  0
    5.7059   -5.1832    0.2811 N   0  0  0  0  0  0  0  0  0  0  0  0
  1  2  2  0
  2  3  1  0
  2 15  1  0
  3  4  1  0
  4  5  2  0
  5  6  1  0
  5 10  1  0
  6  7  1  0
  7  8  1  0
  8  9  1  0
  9 10  2  0
  9 14  1  0
 10 11  1  0
 11 12  2  0
 12 13  1  0
 13 14  2  0
 15 16  1  0
 15 20  1  0
 16 17  1  0
 17 18  1  0
 18 19  1  0
 18 21  1  0
 19 20  1  0
 21 22  2  0
 21 26  1  0
 22 23  1  0
 23 24  2  0
 24 25  1  0
 25 26  2  0
M  END
>  <DRUGBANK_ID>  (1) 
DB17507

>  <COMMON_NAME>  (1) 
COTI-2

>  <CAS_NUMBER>  (1) 
1039455-84-9

>  <UNII>  (1) 
2BTA1O65BR

>  <SYNONYMS>  (1) 
1-piperazinecarbothioic acid, 4-(2-pyridinyl)-, 2-(6,7-dihydro-8(5h)-quinolinylidene)hydrazide

$$$$
