
     RDKit          3D

 21 23  0  0  0  0  0  0  0  0999 V2000
    1.0304    0.0640    0.0292 C   0  0  0  0  0  0  0  0  0  0  0  0
    0.4926   -1.2450    0.1692 O   0  0  0  0  0  0  0  0  0  0  0  0
    0.8432   -2.1082   -0.8280 C   0  0  0  0  0  0  0  0  0  0  0  0
    2.1360   -2.2882   -1.2989 C   0  0  0  0  0  0  0  0  0  0  0  0
    2.3924   -3.2557   -2.2826 C   0  0  0  0  0  0  0  0  0  0  0  0
    1.3818   -4.0882   -2.8059 C   0  0  0  0  0  0  0  0  0  0  0  0
    0.1037   -3.9176   -2.2525 C   0  0  0  0  0  0  0  0  0  0  0  0
   -0.1701   -2.9262   -1.3045 C   0  0  0  0  0  0  0  0  0  0  0  0
    1.6567   -5.0025   -3.8421 N   0  0  0  0  0  0  0  0  0  0  0  0
    0.5924   -5.7921   -4.4696 C   0  0  0  0  0  0  0  0  0  0  0  0
    2.8980   -5.1158   -4.5095 C   0  0  0  0  0  0  0  0  0  0  0  0
    3.0662   -4.7618   -5.8556 C   0  0  0  0  0  0  0  0  0  0  0  0
    2.2276   -4.2581   -6.8755 C   0  0  0  0  0  0  0  0  0  0  0  0
    3.0065   -4.1204   -7.9999 C   0  0  0  0  0  0  0  0  0  0  0  0
    2.6197   -3.6745   -9.3534 C   0  0  0  0  0  0  0  0  0  0  0  0
    4.2999   -4.4634   -7.7172 O   0  0  0  0  0  0  0  0  0  0  0  0
    4.3407   -4.8450   -6.3898 C   0  0  0  0  0  0  0  0  0  0  0  0
    5.4586   -5.2258   -5.7445 N   0  0  0  0  0  0  0  0  0  0  0  0
    5.2142   -5.5332   -4.4537 C   0  0  0  0  0  0  0  0  0  0  0  0
    6.3745   -5.9641   -3.5964 C   0  0  0  0  0  0  0  0  0  0  0  0
    4.0143   -5.4917   -3.8311 N   0  0  0  0  0  0  0  0  0  0  0  0
  1  2  1  0
  2  3  1  0
  3  4  2  0
  3  8  1  0
  4  5  1  0
  5  6  2  0
  6  7  1  0
  6  9  1  0
  7  8  2  0
  9 10  1  0
  9 11  1  0
 11 12  2  0
 11 21  1  0
 12 13  1  0
 12 17  1  0
 13 14  2  0
 14 15  1  0
 14 16  1  0
 16 17  1  0
 17 18  2  0
 18 19  1  0
 19 20  1  0
 19 21  2  0
M  END
>  <DRUGBANK_ID>  (1) 
DB17199

>  <COMMON_NAME>  (1) 
AAG-1

>  <CAS_NUMBER>  (1) 
1204408-18-3

>  <UNII>  (1) 
LB2951OCS5

>  <SYNONYMS>  (1) 
Flag-003 free base; Furo(2,3-d)pyrimidin-4-amine, n-(4-methoxyphenyl)-n,2,6-trimethyl-; N-(4-methoxyphenyl)-n,2,6-trimethylfuro(2,3-d) pyrimidin-4-amine

$$$$
