
     RDKit          3D

 19 20  0  0  0  0  0  0  0  0999 V2000
    1.1351    0.0832    0.1567 C   0  0  0  0  0  0  0  0  0  0  0  0
    0.5380    0.8691   -1.0195 C   0  0  0  0  0  0  0  0  0  0  0  0
    0.8731    0.1865   -2.3883 C   0  0  0  0  0  0  0  0  0  0  0  0
    0.3099   -1.2584   -2.7775 C   0  0  0  0  0  0  0  0  0  0  0  0
   -1.2225   -1.4663   -3.0447 C   0  0  0  0  0  0  0  0  0  0  0  0
   -1.8955   -2.6398   -2.6674 C   0  0  0  0  0  0  0  0  0  0  0  0
   -3.2857   -2.6666   -2.4648 C   0  0  0  0  0  0  0  0  0  0  0  0
   -4.0055   -1.4720   -2.5457 C   0  0  0  0  0  0  0  0  0  0  0  0
   -3.3643   -0.3353   -2.9735 C   0  0  0  0  0  0  0  0  0  0  0  0
   -2.0181   -0.3644   -3.3790 C   0  0  0  0  0  0  0  0  0  0  0  0
    1.0545   -1.8521   -3.9552 C   0  0  0  0  0  0  0  0  0  0  0  0
    1.7359   -1.0653   -4.8915 C   0  0  0  0  0  0  0  0  0  0  0  0
    2.1937   -1.6372   -6.0663 C   0  0  0  0  0  0  0  0  0  0  0  0
    1.9819   -2.9924   -6.3167 C   0  0  0  0  0  0  0  0  0  0  0  0
    1.3666   -3.7972   -5.3621 C   0  0  0  0  0  0  0  0  0  0  0  0
    0.9293   -3.2309   -4.1838 C   0  0  0  0  0  0  0  0  0  0  0  0
   -0.8739    1.1844   -0.7539 N   0  0  0  0  0  0  0  0  0  0  0  0
   -1.4067    2.1255   -1.7477 C   0  0  0  0  0  0  0  0  0  0  0  0
   -1.6021   -0.0322   -0.4019 C   0  0  0  0  0  0  0  0  0  0  0  0
  1  2  1  0
  2  3  1  0
  2 17  1  0
  3  4  1  0
  4  5  1  0
  4 11  1  0
  5  6  2  0
  5 10  1  0
  6  7  1  0
  7  8  2  0
  8  9  1  0
  9 10  2  0
 11 12  2  0
 11 16  1  0
 12 13  1  0
 13 14  2  0
 14 15  1  0
 15 16  2  0
 17 18  1  0
 17 19  1  0
M  END
>  <DRUGBANK_ID>  (1) 
DB13361

>  <COMMON_NAME>  (1) 
Trimethyldiphenylpropylamine

>  <CAS_NUMBER>  (1) 
13957-55-6

>  <UNII>  (1) 
P4X899446U

$$$$
