252
     RDKit          3D

 18 17  0  0  0  0  0  0  0  0999 V2000
    1.0605   -0.2379    0.1302 C   0  0  0  0  0  0  0  0  0  0  0  0
    0.7238    0.9699    0.9922 C   0  0  0  0  0  0  0  0  0  0  0  0
    1.3487    2.2450    0.4142 C   0  0  0  0  0  0  0  0  0  0  0  0
    0.8659    2.5114   -1.0048 C   0  0  0  0  0  0  0  0  0  0  0  0
   -0.6497    2.5884   -1.0291 C   0  0  0  0  0  0  0  0  0  0  0  0
   -1.1569    3.7620   -0.1812 C   0  0  0  0  0  0  0  0  0  0  0  0
   -0.9173    5.0881   -0.8975 C   0  0  0  0  0  0  0  0  0  0  0  0
   -1.5033    5.1639   -2.3235 C   0  0  0  0  0  0  0  0  0  0  0  0
   -3.0538    5.1320   -2.3279 C   0  0  0  0  0  0  0  0  0  0  0  0
   -3.6638    6.5305   -1.3176 P   0  0  0  0  0  0  0  0  0  0  0  0
   -5.1710    6.3309   -1.9590 O   0  0  0  0  0  0  0  0  0  0  0  0
   -4.2405    7.8527   -0.3624 O   0  0  0  0  0  0  0  0  0  0  0  0
   -2.9478    7.5229   -2.2421 O   0  0  0  0  0  0  0  0  0  0  0  0
   -3.6638    3.5577   -1.6219 P   0  0  0  0  0  0  0  0  0  0  0  0
   -4.2404    2.0695   -0.9544 O   0  0  0  0  0  0  0  0  0  0  0  0
   -3.2740    2.6148   -2.7222 O   0  0  0  0  0  0  0  0  0  0  0  0
   -4.6566    4.1200   -0.5328 O   0  0  0  0  0  0  0  0  0  0  0  0
   -3.5679    5.3045   -3.6760 O   0  0  0  0  0  0  0  0  0  0  0  0
  1  2  1  0
  2  3  1  0
  3  4  1  0
  4  5  1  0
  5  6  1  0
  6  7  1  0
  7  8  1  0
  8  9  1  0
  9 10  1  0
  9 18  1  0
  9 14  1  0
 10 13  2  0
 10 11  1  0
 10 12  1  0
 14 16  2  0
 14 17  1  0
 14 15  1  0
M  END
>  <DRUGBANK_ID>  (1) 
DB06931

>  <COMMON_NAME>  (1) 
(1-HYDROXYNONANE-1,1-DIYL)BIS(PHOSPHONIC ACID)

$$$$
