
     RDKit          3D

  8  7  0  0  0  0  0  0  0  0999 V2000
    0.9729    0.1286   -0.0435 C   0  0  0  0  0  0  0  0  0  0  0  0
    0.4445    1.5401   -0.2409 C   0  0  0  0  0  0  0  0  0  0  0  0
    0.5003   -0.8031   -1.0568 N   0  0  0  0  0  0  0  0  0  0  0  0
   -0.3215   -1.8759   -0.8828 C   0  0  0  0  0  0  0  0  0  0  0  0
   -0.2967    1.9606   -1.1151 O   0  0  0  0  0  0  0  0  0  0  0  0
   -0.7201   -2.5929   -1.7942 O   0  0  0  0  0  0  0  0  0  0  0  0
    0.8776    2.3795    0.7288 O   0  0  0  0  0  0  0  0  0  0  0  0
    0.9293   -0.5141   -2.3681 O   0  0  0  0  0  0  0  0  0  0  0  0
  2  1  1  0
  3  1  1  0
  4  3  1  0
  5  2  2  0
  6  4  2  0
  7  2  1  0
  8  3  1  0
M  END
>  <DRUGBANK_ID>  (1) 
DB02109

>  <SECONDARY_ACCESSION_NUMBERS>  (1) 
EXPT01711

>  <COMMON_NAME>  (1) 
Hadacidin

>  <CAS_NUMBER>  (1) 
689-13-4

>  <UNII>  (1) 
BFO5P1010A

>  <SYNONYMS>  (1) 
Hadacidine; N-formyl hydroxyaminoacetic acid; N-formyl-N- hydroxyaminoacetic acid; N-hydroxyformamidoacetic acid

$$$$
