
     RDKit          3D

 27 27  0  0  0  0  0  0  0  0999 V2000
    1.5412   -0.0588   -0.2165 C   0  0  0  0  0  0  0  0  0  0  0  0
    0.6078   -1.0636   -0.3565 C   0  0  0  0  0  0  0  0  0  0  0  0
    1.0972    1.3310   -0.1196 C   0  0  0  0  0  0  0  0  0  0  0  0
    2.8447   -0.2215    0.1854 O   0  0  0  0  0  0  0  0  0  0  0  0
    1.1112   -2.7276   -1.0597 C   0  0  0  0  0  0  0  0  0  0  0  0
   -0.2660    1.7662   -0.1000 C   0  0  0  0  0  0  0  0  0  0  0  0
    3.3313   -1.5312    0.4907 C   0  0  0  0  0  0  0  0  0  0  0  0
   -1.2352    0.8344   -0.0983 C   0  0  0  0  0  0  0  0  0  0  0  0
    0.7912   -4.5738   -0.9084 C   0  0  0  0  0  0  0  0  0  0  0  0
    2.1450   -2.6701   -1.7542 O   0  0  0  0  0  0  0  0  0  0  0  0
    2.6762   -2.3354    1.6893 C   0  0  0  0  0  0  0  0  0  0  0  0
   -2.6758    0.9201   -0.1045 N   0  0  0  0  0  0  0  0  0  0  0  0
    1.0377   -2.3980    1.9735 C   0  0  0  0  0  0  0  0  0  0  0  0
    3.2217   -3.6775    1.7221 O   0  0  0  0  0  0  0  0  0  0  0  0
   -3.3337    2.1301   -0.2334 C   0  0  0  0  0  0  0  0  0  0  0  0
    0.3280   -3.3494    1.0754 N   0  0  0  0  0  0  0  0  0  0  0  0
   -4.7280    2.0881   -0.4064 N   0  0  0  0  0  0  0  0  0  0  0  0
   -2.7438    3.1532   -0.1956 O   0  0  0  0  0  0  0  0  0  0  0  0
   -1.1232   -3.5542    0.2206 C   0  0  0  0  0  0  0  0  0  0  0  0
   -5.3349    3.4263   -0.4744 C   0  0  0  0  0  0  0  0  0  0  0  0
   -5.9957    3.7075   -1.8095 C   0  0  0  0  0  0  0  0  0  0  0  0
   -1.7964   -2.3496   -0.2789 C   0  0  0  0  0  0  0  0  0  0  0  0
   -5.6340    0.9356   -0.5419 C   0  0  0  0  0  0  0  0  0  0  0  0
   -0.6687   -0.3984    0.1295 C   0  0  0  0  0  0  0  0  0  0  0  0
   -5.3605    0.1122   -1.7939 C   0  0  0  0  0  0  0  0  0  0  0  0
   -1.6064   -4.1386   -1.3767 C   0  0  0  0  0  0  0  0  0  0  0  0
   -1.8325   -4.0793    1.4410 C   0  0  0  0  0  0  0  0  0  0  0  0
  1  2  2  0
  1  3  1  0
  1  4  1  0
  2 24  1  0
  2  5  1  0
  3  6  2  0
  4  7  1  0
  5  9  1  0
  5 10  2  0
  6  8  1  0
  7 11  1  0
  8 12  1  0
 11 13  1  0
 11 14  1  0
 12 15  1  0
 13 16  1  0
 15 17  1  0
 15 18  2  0
 16 19  1  0
 17 20  1  0
 17 23  1  0
 19 22  1  0
 19 26  1  0
 19 27  1  0
 20 21  1  0
 23 25  1  0
 24  8  2  0
M  END
>  <DRUGBANK_ID>  (1) 
DB04846

>  <COMMON_NAME>  (1) 
Celiprolol

>  <CAS_NUMBER>  (1) 
56980-93-9

>  <UNII>  (1) 
DRB57K47QC

>  <SYNONYMS>  (1) 
Celiprolol; Celiprololum; RS)-N'-{3-acetyl-4-[3-(tert-butylamino)-2-hydroxypropoxy]phenyl}-N,N-diethylurea

$$$$
