
     RDKit          3D

 22 23  0  0  0  0  0  0  0  0999 V2000
   -1.2206   -1.1357   -0.0064 C   0  0  0  0  0  0  0  0  0  0  0  0
   -1.2337    0.2770   -0.0051 C   0  0  0  0  0  0  0  0  0  0  0  0
   -0.0169    0.9981   -0.0064 C   0  0  0  0  0  0  0  0  0  0  0  0
    1.2165    0.3351    0.0001 C   0  0  0  0  0  0  0  0  0  0  0  0
    2.5132    1.0892    0.0081 C   0  0  0  0  0  0  0  0  0  0  0  0
    1.2244   -1.0568    0.0044 C   0  0  0  0  0  0  0  0  0  0  0  0
    0.0274   -1.7748   -0.0005 C   0  0  0  0  0  0  0  0  0  0  0  0
   -2.5274    1.0529   -0.0059 C   0  0  0  0  0  0  0  0  0  0  0  0
   -2.4550   -1.8213   -0.0127 N   0  0  0  0  0  0  0  0  0  0  0  0
   -2.5373   -3.1124   -0.0272 C   0  0  0  0  0  0  0  0  0  0  0  0
   -3.6970   -3.8730   -0.0329 N   0  0  0  0  0  0  0  0  0  0  0  0
   -3.7699   -5.2576   -0.0480 C   0  0  0  0  0  0  0  0  0  0  0  0
   -4.8508   -5.9659   -0.0151 N   0  0  0  0  0  0  0  0  0  0  0  0
   -4.7820   -7.3673   -0.0631 C   0  0  0  0  0  0  0  0  0  0  0  0
   -5.6512   -8.0699   -0.9189 C   0  0  0  0  0  0  0  0  0  0  0  0
   -5.6509   -9.4799   -0.9114 C   0  0  0  0  0  0  0  0  0  0  0  0
   -4.7938  -10.1963   -0.0645 C   0  0  0  0  0  0  0  0  0  0  0  0
   -4.7904  -11.6978   -0.0633 C   0  0  0  0  0  0  0  0  0  0  0  0
   -3.9413   -9.4887    0.7861 C   0  0  0  0  0  0  0  0  0  0  0  0
   -3.9447   -8.0918    0.7928 C   0  0  0  0  0  0  0  0  0  0  0  0
   -6.5978   -7.3417   -1.8370 C   0  0  0  0  0  0  0  0  0  0  0  0
   -4.9578   -3.1273   -0.0346 C   0  0  0  0  0  0  0  0  0  0  0  0
  1  2  2  0
  1  7  1  0
  1  9  1  0
  2  3  1  0
  2  8  1  0
  3  4  2  0
  4  5  1  0
  4  6  1  0
  6  7  2  0
  9 10  2  0
 10 11  1  0
 11 12  1  0
 11 22  1  0
 12 13  2  0
 13 14  1  0
 14 15  2  0
 14 20  1  0
 15 16  1  0
 15 21  1  0
 16 17  2  0
 17 18  1  0
 17 19  1  0
 19 20  2  0
M  END
>  <DRUGBANK_ID>  (1) 
DB11373

>  <COMMON_NAME>  (1) 
Amitraz

>  <CAS_NUMBER>  (1) 
33089-61-1

>  <UNII>  (1) 
33IAH5017S

>  <SYNONYMS>  (1) 
1,5-di(2,4-dimethylphenyl)-3-methyl-1,3,5-triazapenta-1,4-diene; Amitraz; Amitraze; Amitrazum; N,N'-(methyliminodimethylidyne)bis-2,4-xylidine

$$$$
