
     RDKit          3D

 27 29  0  0  1  0  0  0  0  0999 V2000
    8.9456   -3.8603    5.4049 C   0  0  0  0  0  0  0  0  0  0  0  0
    7.6395   -4.2147    5.8352 O   0  0  0  0  0  0  0  0  0  0  0  0
    6.5216   -3.5422    5.4017 C   0  0  0  0  0  0  0  0  0  0  0  0
    5.9990   -3.4633    4.1016 C   0  0  0  0  0  0  0  0  0  0  0  0
    6.5562   -3.7461    2.8854 O   0  0  0  0  0  0  0  0  0  0  0  0
    7.8376   -4.2802    2.8131 C   0  0  0  0  0  0  0  0  0  0  0  0
    4.6328   -3.1064    3.9127 C   0  0  0  0  0  0  0  0  0  0  0  0
    3.8202   -2.7636    5.0044 C   0  0  0  0  0  0  0  0  0  0  0  0
    4.3481   -2.7862    6.2831 C   0  0  0  0  0  0  0  0  0  0  0  0
    5.6840   -3.1579    6.4720 C   0  0  0  0  0  0  0  0  0  0  0  0
    4.0210   -3.3457    2.5290 C   0  0  2  0  0  0  0  0  0  0  0  0
    2.7190   -2.7639    2.5059 O   0  0  0  0  0  0  0  0  0  0  0  0
    4.0740   -4.9029    2.2484 C   0  0  0  0  0  0  0  0  0  0  0  0
    3.6850   -5.3390    0.8512 C   0  0  0  0  0  0  0  0  0  0  0  0
    2.1924   -5.3285    0.7388 C   0  0  0  0  0  0  0  0  0  0  0  0
    1.3345   -5.9232    1.7565 N   0  0  0  0  0  0  0  0  0  0  0  0
   -0.0965   -5.5743    1.5160 C   0  0  0  0  0  0  0  0  0  0  0  0
   -0.5596   -4.0742    1.5378 C   0  0  0  0  0  0  0  0  0  0  0  0
   -0.0870   -3.1394    0.4281 C   0  0  0  0  0  0  0  0  0  0  0  0
   -0.1848   -1.7499    0.5858 C   0  0  0  0  0  0  0  0  0  0  0  0
    0.4910   -0.9028   -0.2915 C   0  0  0  0  0  0  0  0  0  0  0  0
    1.3925   -1.4186   -1.2156 C   0  0  0  0  0  0  0  0  0  0  0  0
    2.1195   -0.6201   -1.9895 F   0  0  0  0  0  0  0  0  0  0  0  0
    1.4946   -2.7931   -1.3756 C   0  0  0  0  0  0  0  0  0  0  0  0
    0.5756   -3.5950   -0.7173 C   0  0  0  0  0  0  0  0  0  0  0  0
    1.7595   -5.5233    3.1011 C   0  0  0  0  0  0  0  0  0  0  0  0
    3.2606   -5.7244    3.2633 C   0  0  0  0  0  0  0  0  0  0  0  0
  1  2  1  0
  2  3  1  0
  3  4  2  0
  3 10  1  0
  4  5  1  0
  4  7  1  0
  5  6  1  0
  7  8  2  0
  8  9  1  0
  9 10  2  0
 11 13  1  0
 11 12  1  1
 11  7  1  0
 13 14  1  0
 13 27  1  0
 14 15  1  0
 15 16  1  0
 16 17  1  0
 16 26  1  0
 17 18  1  0
 18 19  1  0
 19 20  2  0
 19 25  1  0
 20 21  1  0
 21 22  2  0
 22 23  1  0
 22 24  1  0
 24 25  2  0
 26 27  1  0
M  END
>  <DRUGBANK_ID>  (1) 
DB16351

>  <COMMON_NAME>  (1) 
Volinanserin

>  <CAS_NUMBER>  (1) 
139290-65-6

>  <UNII>  (1) 
EW71EE171J

>  <SYNONYMS>  (1) 
Volinanserin

$$$$
