
     RDKit          3D

 10 10  0  0  0  0  0  0  0  0999 V2000
    2.2510    0.0078    0.0094 O   0  0  0  0  0  0  0  0  0  0  0  0
    0.8883   -0.0213    0.0117 C   0  0  0  0  0  0  0  0  0  0  0  0
    0.1744   -1.2179    0.0104 C   0  0  0  0  0  0  0  0  0  0  0  0
   -1.2257   -1.1846   -0.0021 C   0  0  0  0  0  0  0  0  0  0  0  0
   -1.8910    0.0517   -0.0123 C   0  0  0  0  0  0  0  0  0  0  0  0
   -1.1650    1.2492    0.0001 C   0  0  0  0  0  0  0  0  0  0  0  0
    0.2298    1.2051    0.0133 C   0  0  0  0  0  0  0  0  0  0  0  0
   -3.3596    0.0955   -0.0398 N   0  0  0  0  0  0  0  0  0  0  0  0
   -3.9032    1.2104   -0.0513 O   0  0  0  0  0  0  0  0  0  0  0  0
   -3.9693   -0.9825   -0.0523 O   0  0  0  0  0  0  0  0  0  0  0  0
  1  2  1  0
  2  3  2  0
  2  7  1  0
  3  4  1  0
  4  5  2  0
  5  6  1  0
  5  8  1  0
  6  7  2  0
  8  9  1  0
  8 10  2  0
M  CHG  2   8   1   9  -1
M  END
>  <DRUGBANK_ID>  (1) 
DB04417

>  <SECONDARY_ACCESSION_NUMBERS>  (1) 
EXPT02385

>  <COMMON_NAME>  (1) 
P-Nitrophenol

>  <CAS_NUMBER>  (1) 
100-02-7

>  <UNII>  (1) 
Y92ZL45L4R

$$$$
