
     RDKit          3D

 19 20  0  0  0  0  0  0  0  0999 V2000
   -1.5328    0.9618    0.0410 O   0  0  0  0  0  0  0  0  0  0  0  0
   -2.2760   -0.1809    0.0964 C   0  0  0  0  0  0  0  0  0  0  0  0
   -0.2186    0.5797    0.0488 C   0  0  0  0  0  0  0  0  0  0  0  0
   -1.4469   -1.2749    0.1964 C   0  0  0  0  0  0  0  0  0  0  0  0
   -0.1278   -0.8077    0.0936 C   0  0  0  0  0  0  0  0  0  0  0  0
   -3.7578   -0.0647   -0.0108 C   0  0  0  0  0  0  0  0  0  0  0  0
   -3.8909   -2.1752   -1.4103 N   0  0  0  0  0  0  0  0  0  0  0  0
    0.8892    1.4299    0.0009 C   0  0  0  0  0  0  0  0  0  0  0  0
   -4.2825   -0.7439   -1.3033 C   0  0  0  0  0  0  0  0  0  0  0  0
   -4.3226   -2.8560   -2.6416 C   0  0  0  0  0  0  0  0  0  0  0  0
   -4.3083   -0.7250    1.1294 O   0  0  0  0  0  0  0  0  0  0  0  0
    1.1244   -1.4244    0.0446 C   0  0  0  0  0  0  0  0  0  0  0  0
    2.2571   -0.6149   -0.0038 C   0  0  0  0  0  0  0  0  0  0  0  0
    2.1409    0.7804   -0.0153 C   0  0  0  0  0  0  0  0  0  0  0  0
    0.7821    2.9280   -0.0055 C   0  0  0  0  0  0  0  0  0  0  0  0
   -3.7139   -2.1769   -3.8792 C   0  0  0  0  0  0  0  0  0  0  0  0
   -3.7766   -4.2981   -2.5686 C   0  0  0  0  0  0  0  0  0  0  0  0
   -5.8492   -2.9031   -2.7132 C   0  0  0  0  0  0  0  0  0  0  0  0
    0.0323    3.4353   -1.2280 C   0  0  0  0  0  0  0  0  0  0  0  0
  2  1  1  0
  3  1  1  0
  4  2  2  0
  4  5  1  0
  5  3  2  0
  6  2  1  0
  7  9  1  0
  8  3  1  0
  9  6  1  0
 10  7  1  0
 11  6  1  0
 12  5  1  0
 12 13  2  0
 13 14  1  0
 14  8  2  0
 15  8  1  0
 16 10  1  0
 17 10  1  0
 18 10  1  0
 19 15  1  0
M  END
>  <DRUGBANK_ID>  (1) 
DB06726

>  <COMMON_NAME>  (1) 
Bufuralol

>  <CAS_NUMBER>  (1) 
54340-62-4

>  <UNII>  (1) 
891H89GFT4

>  <SYNONYMS>  (1) 
Bufuralol; Bufuralolum

$$$$
