OAL
     RDKit          3D

 22 24  0  0  0  0  0  0  0  0999 V2000
    3.7022    1.0901    0.0236 C   0  0  0  0  0  0  0  0  0  0  0  0
    2.4837    1.7641    0.0274 C   0  0  0  0  0  0  0  0  0  0  0  0
    1.2814    1.0422    0.0086 C   0  0  0  0  0  0  0  0  0  0  0  0
    1.2914   -0.3556   -0.0061 C   0  0  0  0  0  0  0  0  0  0  0  0
    2.5265   -1.0215   -0.0115 C   0  0  0  0  0  0  0  0  0  0  0  0
    3.7244   -0.3028    0.0037 C   0  0  0  0  0  0  0  0  0  0  0  0
    0.0029   -1.0913   -0.0014 C   0  0  0  0  0  0  0  0  0  0  0  0
   -1.2679   -0.3409    0.0082 C   0  0  0  0  0  0  0  0  0  0  0  0
   -1.2617    1.0511   -0.0102 C   0  0  0  0  0  0  0  0  0  0  0  0
    0.0103    1.7911    0.0069 C   0  0  0  0  0  0  0  0  0  0  0  0
   -2.4956   -1.0174    0.0237 C   0  0  0  0  0  0  0  0  0  0  0  0
   -3.7066   -0.3132   -0.0257 C   0  0  0  0  0  0  0  0  0  0  0  0
   -3.6823    1.0864   -0.0450 C   0  0  0  0  0  0  0  0  0  0  0  0
   -2.4659    1.7666   -0.0324 C   0  0  0  0  0  0  0  0  0  0  0  0
   -5.0191   -1.0567   -0.0756 C   0  0  0  0  0  0  0  0  0  0  0  0
   -5.1301   -1.9648   -1.2759 C   0  0  0  0  0  0  0  0  0  0  0  0
    2.5849   -2.3853   -0.0299 O   0  0  0  0  0  0  0  0  0  0  0  0
   -0.0637   -2.3168   -0.0065 O   0  0  0  0  0  0  0  0  0  0  0  0
   -2.5849   -2.3846    0.0896 O   0  0  0  0  0  0  0  0  0  0  0  0
   -5.3414   -3.1690   -1.2620 O   0  0  0  0  0  0  0  0  0  0  0  0
   -5.0243   -1.3061   -2.4511 O   0  0  0  0  0  0  0  0  0  0  0  0
    0.0111    3.0166    0.0247 O   0  0  0  0  0  0  0  0  0  0  0  0
  1  2  2  0
  1  6  1  0
  2  3  1  0
  3  4  2  0
  3 10  1  0
  4  5  1  0
  4  7  1  0
  5  6  2  0
  5 17  1  0
  7  8  1  0
  7 18  2  0
  8  9  2  0
  8 11  1  0
  9 10  1  0
  9 14  1  0
 10 22  2  0
 11 12  2  0
 11 19  1  0
 12 13  1  0
 12 15  1  0
 13 14  2  0
 15 16  1  0
 16 20  2  0
 16 21  1  0
M  END
>  <DRUGBANK_ID>  (1) 
DB03037

>  <SECONDARY_ACCESSION_NUMBERS>  (1) 
EXPT02410

>  <COMMON_NAME>  (1) 
Oxidized Acetyl Dithranol

$$$$
