
     RDKit          3D

 12 11  0  0  1  0  0  0  0  0999 V2000
    0.9457   -0.1327   -0.1107 C   0  0  0  0  0  0  0  0  0  0  0  0
    0.4488   -0.5534    1.2652 C   0  0  0  0  0  0  0  0  0  0  0  0
    0.8987    0.4257    2.3431 C   0  0  0  0  0  0  0  0  0  0  0  0
    0.3781    1.8588    2.1265 C   0  0  1  0  0  0  0  0  0  0  0  0
   -1.1454    1.9125    2.0984 C   0  0  0  0  0  0  0  0  0  0  0  0
    0.9378    2.8061    3.2016 C   0  0  0  0  0  0  0  0  0  0  0  0
    2.4732    2.9263    3.1238 C   0  0  1  0  0  0  0  0  0  0  0  0
    2.9814    3.3701    1.7407 C   0  0  0  0  0  0  0  0  0  0  0  0
    2.5213    4.7505    1.3544 C   0  0  0  0  0  0  0  0  0  0  0  0
    3.2482    5.7271    1.2237 O   0  0  0  0  0  0  0  0  0  0  0  0
    1.1920    4.8658    1.1921 O   0  0  0  0  0  0  0  0  0  0  0  0
    2.9599    3.7958    4.1973 N   0  0  0  0  0  0  0  0  0  0  0  0
  1  2  1  0
  2  3  1  0
  3  4  1  0
  4  5  1  1
  4  6  1  0
  6  7  1  0
  7  8  1  0
  7 12  1  1
  8  9  1  0
  9 10  2  0
  9 11  1  0
M  END
>  <DRUGBANK_ID>  (1) 
DB12105

>  <COMMON_NAME>  (1) 
Imagabalin

>  <CAS_NUMBER>  (1) 
610300-07-7

>  <UNII>  (1) 
NDG6931B7H

>  <SYNONYMS>  (1) 
Imagabalin

$$$$
