
     RDKit          3D

  1  0  0  0  0  0  0  0  0  0999 V2000
    1.0235    0.0338    0.0911 I   0  0  0  0  0  0  0  0  0  0  0  0
M  CHG  1   1  -1
M  ISO  1   1 131
M  END
>  <DRUGBANK_ID>  (1) 
DB09293

>  <SECONDARY_ACCESSION_NUMBERS>  (1) 
DB12217

>  <COMMON_NAME>  (1) 
Iodide I-131

>  <CAS_NUMBER>  (1) 
14914-30-8

>  <UNII>  (1) 
4GC1FOQ22U

>  <SYNONYMS>  (1) 
Iodide I-131; Iodide I-131 ion; Iodide ion I 131; Iodide ion, I-131; Iodide-131; iodine I-131; Radioiodine

$$$$
