
     RDKit          3D

 16 17  0  0  1  0  0  0  0  0999 V2000
    0.7725   -0.3260   -0.4198 N   0  0  0  0  0  0  0  0  0  0  0  0
    0.3253   -1.5390    0.2780 C   0  0  1  0  0  0  0  0  0  0  0  0
    0.9314   -1.7793    1.6785 C   0  0  0  0  0  0  0  0  0  0  0  0
    0.5978   -0.7699    2.7416 C   0  0  0  0  0  0  0  0  0  0  0  0
   -0.0811   -1.0412    3.9173 C   0  0  0  0  0  0  0  0  0  0  0  0
   -0.2334    0.1306    4.6110 N   0  0  0  0  0  0  0  0  0  0  0  0
    0.3104    1.1781    3.9034 C   0  0  0  0  0  0  0  0  0  0  0  0
    0.8788    0.6409    2.7470 C   0  0  0  0  0  0  0  0  0  0  0  0
    1.5450    1.5418    1.8867 C   0  0  0  0  0  0  0  0  0  0  0  0
    2.2502    1.1075    0.8350 F   0  0  0  0  0  0  0  0  0  0  0  0
    1.5045    2.9135    2.0867 C   0  0  0  0  0  0  0  0  0  0  0  0
    0.9484    3.4115    3.2514 C   0  0  0  0  0  0  0  0  0  0  0  0
    0.3700    2.5512    4.1960 C   0  0  0  0  0  0  0  0  0  0  0  0
   -1.2112   -1.4981    0.3279 C   0  0  0  0  0  0  0  0  0  0  0  0
   -1.8128   -2.3306   -0.5514 O   0  0  0  0  0  0  0  0  0  0  0  0
   -1.8665   -0.7324    1.0311 O   0  0  0  0  0  0  0  0  0  0  0  0
  2  1  1  1
  2  3  1  0
  2 14  1  0
  3  4  1  0
  4  5  2  0
  4  8  1  0
  5  6  1  0
  6  7  1  0
  7  8  2  0
  7 13  1  0
  8  9  1  0
  9 10  1  0
  9 11  2  0
 11 12  1  0
 12 13  2  0
 14 15  1  0
 14 16  2  0
M  END
>  <DRUGBANK_ID>  (1) 
DB03386

>  <SECONDARY_ACCESSION_NUMBERS>  (1) 
EXPT00213

>  <COMMON_NAME>  (1) 
4-Fluorotryptophane

$$$$
