
     RDKit          3D

 23 25  0  0  1  0  0  0  0  0999 V2000
    1.2665   -0.8600   -0.7669 C   0  0  0  0  0  0  0  0  0  0  0  0
   -1.4517   -3.4230   -0.2689 C   0  0  0  0  0  0  0  0  0  0  0  0
    1.6839    0.0747    2.4963 C   0  0  0  0  0  0  0  0  0  0  0  0
   -1.2936    2.0234   -0.0105 C   0  0  0  0  0  0  0  0  0  0  0  0
   -2.5428   -2.5182    0.5734 C   0  0  2  0  0  0  0  0  0  0  0  0
    0.6491    1.9134    0.8714 C   0  0  0  0  0  0  0  0  0  0  0  0
   -3.5024   -1.9672   -0.4759 C   0  0  2  0  0  0  0  0  0  0  0  0
   -2.9395   -0.5492   -0.7074 C   0  0  2  0  0  0  0  0  0  0  0  0
    2.0616    1.8626    1.0870 C   0  0  0  0  0  0  0  0  0  0  0  0
   -0.1448    0.9814    1.5505 C   0  0  0  0  0  0  0  0  0  0  0  0
   -2.4687   -0.0872    0.7027 C   0  0  2  0  0  0  0  0  0  0  0  0
    2.9925    2.6071    0.3757 N   0  0  0  0  0  0  0  0  0  0  0  0
    2.5634    0.8572    1.8417 N   0  0  0  0  0  0  0  0  0  0  0  0
    0.3346    0.1989    2.5405 N   0  0  0  0  0  0  0  0  0  0  0  0
   -0.1149    2.6141   -0.0309 N   0  0  0  0  0  0  0  0  0  0  0  0
   -1.3282    0.8883    0.7935 N   0  0  0  0  0  0  0  0  0  0  0  0
   -4.8491   -1.8960    0.0085 O   0  0  0  0  0  0  0  0  0  0  0  0
   -3.9623    0.2931   -1.2424 O   0  0  0  0  0  0  0  0  0  0  0  0
    2.0819   -2.7655    0.9255 O   0  0  0  0  0  0  0  0  0  0  0  0
   -0.1231   -1.7703    1.3984 O   0  0  0  0  0  0  0  0  0  0  0  0
   -0.0204   -3.3973   -0.3631 O   0  0  0  0  0  0  0  0  0  0  0  0
   -2.3192   -1.3382    1.4156 O   0  0  0  0  0  0  0  0  0  0  0  0
    0.7233   -2.1698    0.3106 P   0  0  1  0  0  0  0  0  0  0  0  0
  5  2  1  6
  7  5  1  0
  7 17  1  1
  8  7  1  0
  8 18  1  1
  9  6  2  0
 10  6  1  0
 11  8  1  0
 11 16  1  6
 12  9  1  0
 13  3  2  0
 13  9  1  0
 14  3  1  0
 14 10  2  0
 15  4  2  0
 15  6  1  0
 16  4  1  0
 16 10  1  0
 21  2  1  0
 22  5  1  0
 22 11  1  0
 23  1  1  6
 23 19  1  0
 23 20  2  0
 23 21  1  0
M  END
>  <DRUGBANK_ID>  (1) 
DB02798

>  <SECONDARY_ACCESSION_NUMBERS>  (1) 
EXPT00399

>  <COMMON_NAME>  (1) 
Alpha-Methylene Adenosine Monophosphate

$$$$
