TF3
     RDKit          3D

 25 26  0  0  0  0  0  0  0  0999 V2000
    0.2876    1.1615    0.3709 C   0  0  0  0  0  0  0  0  0  0  0  0
   -0.2954   -0.0775    0.6910 C   0  0  0  0  0  0  0  0  0  0  0  0
    1.6651    1.1885    0.1002 C   0  0  0  0  0  0  0  0  0  0  0  0
   -0.3250    2.3693    0.1341 O   0  0  0  0  0  0  0  0  0  0  0  0
    0.3859   -1.2467    0.3400 C   0  0  0  0  0  0  0  0  0  0  0  0
   -1.9021   -0.3543    1.2921 Cl  0  0  0  0  0  0  0  0  0  0  0  0
    2.4074    0.0030    0.0299 C   0  0  0  0  0  0  0  0  0  0  0  0
   -1.7294    2.4217   -0.1671 C   0  0  0  0  0  0  0  0  0  0  0  0
    1.7560   -1.2297    0.0855 C   0  0  0  0  0  0  0  0  0  0  0  0
   -2.1882    1.7454   -1.4545 C   0  0  0  0  0  0  0  0  0  0  0  0
    2.4881   -2.5491    0.0371 C   0  0  0  0  0  0  0  0  0  0  0  0
   -1.8152    0.4327   -1.7540 C   0  0  0  0  0  0  0  0  0  0  0  0
   -3.0755    2.3296   -2.3487 C   0  0  0  0  0  0  0  0  0  0  0  0
    2.1787   -3.3441    1.3112 C   0  0  0  0  0  0  0  0  0  0  0  0
   -2.3813   -0.3761   -2.6975 C   0  0  0  0  0  0  0  0  0  0  0  0
   -3.5597    1.5753   -3.4307 C   0  0  0  0  0  0  0  0  0  0  0  0
    1.5793   -4.5737    1.1186 N   0  0  0  0  0  0  0  0  0  0  0  0
    2.3833   -2.8793    2.4201 O   0  0  0  0  0  0  0  0  0  0  0  0
   -3.1908    0.2264   -3.6139 C   0  0  0  0  0  0  0  0  0  0  0  0
    1.1765   -5.3954    2.2554 C   0  0  0  0  0  0  0  0  0  0  0  0
   -3.4634   -0.5713   -4.8535 C   0  0  0  0  0  0  0  0  0  0  0  0
   -0.3219   -5.7235    2.2265 C   0  0  0  0  0  0  0  0  0  0  0  0
   -4.9554   -0.7360   -5.0227 C   0  0  0  0  0  0  0  0  0  0  0  0
   -2.7693    0.1143   -6.0243 C   0  0  0  0  0  0  0  0  0  0  0  0
   -0.6758   -6.5025    1.0350 N   0  0  0  0  0  0  0  0  0  0  0  0
  1  2  2  0
  1  3  1  0
  1  4  1  0
  2  5  1  0
  2  6  1  0
  3  7  2  0
  4  8  1  0
  5  9  2  0
  7  9  1  0
  8 10  1  0
  9 11  1  0
 10 12  2  0
 10 13  1  0
 11 14  1  0
 12 15  1  0
 13 16  2  0
 14 17  1  0
 14 18  2  0
 15 19  2  0
 16 19  1  0
 17 20  1  0
 19 21  1  0
 20 22  1  0
 21 23  1  0
 21 24  1  0
 22 25  1  0
M  END
>  <DRUGBANK_ID>  (1) 
DB08610

>  <COMMON_NAME>  (1) 
N-(2-AMINOETHYL)-2-{3-CHLORO-4-[(4-ISOPROPYLBENZYL)OXY]PHENYL} ACETAMIDE

$$$$
