Untitled Document-1
     RDKit          3D

 10  9  0  0  0  0  0  0  0  0999 V2000
    0.8978    0.1161   -0.0008 C   0  0  1  0  0  0  0  0  0  0  0  0
    0.5963   -0.7314    1.1788 N   0  0  0  0  0  0  0  0  0  0  0  0
    0.3311   -0.4447   -1.3270 C   0  0  0  0  0  0  0  0  0  0  0  0
   -1.0551   -0.1301   -1.5998 O   0  0  0  0  0  0  0  0  0  0  0  0
   -1.9820   -0.5982   -0.7209 C   0  0  0  0  0  0  0  0  0  0  0  0
   -1.7522   -1.3656    0.2072 O   0  0  0  0  0  0  0  0  0  0  0  0
   -3.3422   -0.0381   -0.9861 C   0  0  0  0  0  0  0  0  0  0  0  0
    0.4544    1.5631    0.2285 C   0  0  0  0  0  0  0  0  0  0  0  0
    1.1944    2.5378    0.2930 O   0  0  0  0  0  0  0  0  0  0  0  0
   -0.8820    1.7299    0.3394 O   0  0  0  0  0  0  0  0  0  0  0  0
  1  8  1  0
  1  3  1  0
  1  2  1  1
  3  4  1  0
  4  5  1  0
  5  6  2  0
  5  7  1  0
  8  9  2  0
  8 10  1  0
M  END
>  <DRUGBANK_ID>  (1) 
DB01837

>  <SECONDARY_ACCESSION_NUMBERS>  (1) 
EXPT02411

>  <COMMON_NAME>  (1) 
O-acetyl-L-serine

>  <CAS_NUMBER>  (1) 
5147-00-2

>  <UNII>  (1) 
G05L7T7ZEQ

>  <SYNONYMS>  (1) 
L-Serine, acetate (ester); O3-acetyl-L-serine

$$$$
