
     RDKit          3D

 23 26  0  0  1  0  0  0  0  0999 V2000
    1.3382    1.6306    4.2735 C   0  0  0  0  0  0  0  0  0  0  0  0
    2.3920    1.4770    5.0990 N   0  0  0  0  0  0  0  0  0  0  0  0
    3.6314    1.3906    4.5610 C   0  0  0  0  0  0  0  0  0  0  0  0
    3.7687    1.4637    3.1660 C   0  0  0  0  0  0  0  0  0  0  0  0
    2.5990    1.5529    2.4385 C   0  0  0  0  0  0  0  0  0  0  0  0
    1.3430    1.6620    2.9245 N   0  0  0  0  0  0  0  0  0  0  0  0
    3.0029    1.7643    1.1219 N   0  0  0  0  0  0  0  0  0  0  0  0
    4.3657    1.7338    1.1360 C   0  0  0  0  0  0  0  0  0  0  0  0
    4.8659    1.5324    2.3341 N   0  0  0  0  0  0  0  0  0  0  0  0
    5.3040    2.0362   -0.2505 Cl  0  0  0  0  0  0  0  0  0  0  0  0
    2.0696    2.4617    0.2399 C   0  0  1  0  0  0  0  0  0  0  0  0
    1.7457    3.7794    0.9751 C   0  0  1  0  0  0  0  0  0  0  0  0
    2.5246    4.7369    0.1231 C   0  0  1  0  0  0  0  0  0  0  0  0
    2.2174    4.2136   -1.2474 C   0  0  2  0  0  0  0  0  0  0  0  0
    2.5735    2.8223   -1.0904 O   0  0  0  0  0  0  0  0  0  0  0  0
    3.0238    5.0225   -2.2389 C   0  0  0  0  0  0  0  0  0  0  0  0
    2.7453    6.4029   -2.1324 O   0  0  0  0  0  0  0  0  0  0  0  0
    2.1069    7.0794   -0.8253 P   0  0  1  0  0  0  0  0  0  0  0  0
    0.7262    7.5994   -1.0352 O   0  0  0  0  0  0  0  0  0  0  0  0
    2.3116    6.0765    0.3898 O   0  0  0  0  0  0  0  0  0  0  0  0
    3.2755    8.1459   -0.6009 O   0  0  0  0  0  0  0  0  0  0  0  0
    0.3382    3.9338    1.0757 O   0  0  0  0  0  0  0  0  0  0  0  0
    4.7155    1.2913    5.4082 N   0  0  0  0  0  0  0  0  0  0  0  0
  1  2  2  0
  1  6  1  0
  2  3  1  0
  3  4  2  0
  3 23  1  0
  4  5  1  0
  4  9  1  0
  5  6  2  0
  5  7  1  0
  7  8  1  0
  8  9  2  0
  8 10  1  0
 11 12  1  0
 11 15  1  0
 11  7  1  1
 12 13  1  0
 12 22  1  6
 13 14  1  0
 13 20  1  6
 14 15  1  0
 14 16  1  6
 16 17  1  0
 17 18  1  0
 18 19  2  0
 18 20  1  0
 18 21  1  1
M  END
>  <DRUGBANK_ID>  (1) 
DB13046

>  <COMMON_NAME>  (1) 
Tocladesine

>  <CAS_NUMBER>  (1) 
41941-56-4

>  <UNII>  (1) 
BQ94Z7E5OR

>  <SYNONYMS>  (1) 
Tocladesine

$$$$
