
     RDKit          3D

 15 14  0  0  1  0  0  0  0  0999 V2000
    0.9958   -2.3257   -0.4938 C   0  0  0  0  0  0  0  0  0  0  0  0
    0.4342   -0.9858   -0.9818 C   0  0  2  0  0  0  0  0  0  0  0  0
    0.9501    0.3232   -0.2956 C   0  0  2  0  0  0  0  0  0  0  0  0
    2.4241    0.6360   -0.5626 C   0  0  1  0  0  0  0  0  0  0  0  0
    2.5952    2.1242   -0.3566 C   0  0  0  0  0  0  0  0  0  0  0  0
   -1.0044   -1.0667   -0.9185 O   0  0  0  0  0  0  0  0  0  0  0  0
    0.9666    0.2718    1.1295 O   0  0  0  0  0  0  0  0  0  0  0  0
    3.2330   -0.0518    0.4416 O   0  0  0  0  0  0  0  0  0  0  0  0
    3.2651    2.6429    0.5364 O   0  0  0  0  0  0  0  0  0  0  0  0
    1.8811    2.8618   -1.2175 O   0  0  0  0  0  0  0  0  0  0  0  0
   -0.0422   -3.3410    1.9857 O   0  0  0  0  0  0  0  0  0  0  0  0
    1.5539   -1.8481    3.0590 O   0  0  0  0  0  0  0  0  0  0  0  0
   -0.7464   -1.3521    3.0180 O   0  0  0  0  0  0  0  0  0  0  0  0
    1.5281   -2.1830    0.8081 O   0  0  0  0  0  0  0  0  0  0  0  0
    0.3278   -1.7445    1.9743 P   0  0  0  0  0  0  0  0  0  0  0  0
  2  6  1  1
  2  3  1  0
  2  1  1  0
  3  7  1  1
  3  4  1  0
  4  8  1  1
  5  4  1  0
  9  5  2  0
 10  5  1  0
 14  1  1  0
 15 11  1  0
 15 12  1  0
 15 13  2  0
 15 14  1  0
M  END
>  <DRUGBANK_ID>  (1) 
DB03042

>  <SECONDARY_ACCESSION_NUMBERS>  (1) 
EXPT02485

>  <COMMON_NAME>  (1) 
5-Phosphoarabinonic Acid

$$$$
