
     RDKit          3D

 11 10  0  0  0  0  0  0  0  0999 V2000
    1.1208   -0.0861   -0.0485 C   0  0  0  0  0  0  0  0  0  0  0  0
    0.2902    0.9283    0.7113 C   0  0  0  0  0  0  0  0  0  0  0  0
   -0.6443    1.7704   -0.1749 C   0  0  0  0  0  0  0  0  0  0  0  0
   -1.7408    0.9646   -0.8942 C   0  0  0  0  0  0  0  0  0  0  0  0
   -2.6320    0.1969    0.0543 C   0  0  0  0  0  0  0  0  0  0  0  0
    2.3423   -0.0344   -0.0882 O   0  0  0  0  0  0  0  0  0  0  0  0
    0.4525   -1.0665   -0.6902 O   0  0  0  0  0  0  0  0  0  0  0  0
   -1.9677   -0.7171    0.7909 O   0  0  0  0  0  0  0  0  0  0  0  0
   -3.8363    0.3441    0.1993 O   0  0  0  0  0  0  0  0  0  0  0  0
   -1.2763    2.7818    0.6289 O   0  0  0  0  0  0  0  0  0  0  0  0
    0.2063    2.5426   -1.1982 C   0  0  0  0  0  0  0  0  0  0  0  0
  2  1  1  0
  3  2  1  0
  3 10  1  0
  3 11  1  0
  4  3  1  0
  5  4  1  0
  6  1  2  0
  7  1  1  0
  8  5  1  0
  9  5  2  0
M  END
>  <DRUGBANK_ID>  (1) 
DB04377

>  <SECONDARY_ACCESSION_NUMBERS>  (1) 
EXPT02109

>  <COMMON_NAME>  (1) 
Meglutol

>  <CAS_NUMBER>  (1) 
503-49-1

>  <UNII>  (1) 
CLA99KCD53

>  <SYNONYMS>  (1) 
3-hydroxy-3-methylglutaric acid; Dicrotalic acid; Meglutol

$$$$
