
     RDKit          3D

 12 13  0  0  0  0  0  0  0  0999 V2000
   -0.0192    0.7034    0.0958 C   0  0  0  0  0  0  0  0  0  0  0  0
   -0.0282   -0.7149    0.0672 C   0  0  0  0  0  0  0  0  0  0  0  0
    1.2135    1.3916    0.0774 C   0  0  0  0  0  0  0  0  0  0  0  0
   -1.2649    1.3561    0.0653 C   0  0  0  0  0  0  0  0  0  0  0  0
    1.2086   -1.3738    0.0039 C   0  0  0  0  0  0  0  0  0  0  0  0
   -1.1869   -1.4092    0.0496 N   0  0  0  0  0  0  0  0  0  0  0  0
    2.4208    0.7030   -0.0191 C   0  0  0  0  0  0  0  0  0  0  0  0
    1.2994    3.1250    0.0760 Cl  0  0  0  0  0  0  0  0  0  0  0  0
   -2.4307    0.6363   -0.1301 C   0  0  0  0  0  0  0  0  0  0  0  0
    2.4216   -0.6869   -0.0576 C   0  0  0  0  0  0  0  0  0  0  0  0
    1.2255   -2.7505   -0.0452 O   0  0  0  0  0  0  0  0  0  0  0  0
   -2.3487   -0.7380   -0.0777 C   0  0  0  0  0  0  0  0  0  0  0  0
  1  2  1  0
  1  3  2  0
  1  4  1  0
  2  5  2  0
  2  6  1  0
  3  7  1  0
  3  8  1  0
  4  9  2  0
  5 10  1  0
  5 11  1  0
  6 12  2  0
  7 10  2  0
  9 12  1  0
M  END
>  <DRUGBANK_ID>  (1) 
DB15933

>  <COMMON_NAME>  (1) 
Cloxyquin

>  <CAS_NUMBER>  (1) 
130-16-5

>  <UNII>  (1) 
BPF36H1G6S

>  <SYNONYMS>  (1) 
5-Chloro-8-hydroxyquinoline; Cloxiquina; Cloxiquine; Cloxiquinum; Cloxyquin

$$$$
