
     RDKit          3D

 33 35  0  0  0  0  0  0  0  0999 V2000
   -4.0838   -1.3111   -1.3108 O   0  0  0  0  0  0  0  0  0  0  0  0
   -4.5065   -3.5702   -1.9735 O   0  0  0  0  0  0  0  0  0  0  0  0
   -2.8235   -2.5049    2.3950 O   0  0  0  0  0  0  0  0  0  0  0  0
   -4.7823    1.0739   -1.9257 O   0  0  0  0  0  0  0  0  0  0  0  0
   -1.8720    2.3701   -0.1015 O   0  0  0  0  0  0  0  0  0  0  0  0
   -1.2134   -3.4865   -1.5573 O   0  0  0  0  0  0  0  0  0  0  0  0
   -2.1153   -2.3795   -3.2603 O   0  0  0  0  0  0  0  0  0  0  0  0
   -3.1525    4.7968   -1.0876 O   0  0  0  0  0  0  0  0  0  0  0  0
    0.3043    0.1374    1.8793 O   0  0  0  0  0  0  0  0  0  0  0  0
   -8.6533   -1.3687   -0.9838 O   0  0  0  0  0  0  0  0  0  0  0  0
  -10.6225   -0.3155   -0.4952 O   0  0  0  0  0  0  0  0  0  0  0  0
   -1.8846    0.0668    1.3486 N   0  0  0  0  0  0  0  0  0  0  0  0
   -2.9467   -0.7122    0.7476 C   0  0  1  0  0  0  0  0  0  0  0  0
   -3.2040   -0.3273   -0.7289 C   0  0  2  0  0  0  0  0  0  0  0  0
   -2.6370   -2.2074    1.0070 C   0  0  2  0  0  0  0  0  0  0  0  0
   -3.4731   -3.1398    0.1684 C   0  0  0  0  0  0  0  0  0  0  0  0
   -3.5905   -2.6639   -1.2850 C   0  0  2  0  0  0  0  0  0  0  0  0
   -3.8584    1.0867   -0.8319 C   0  0  1  0  0  0  0  0  0  0  0  0
   -2.9529    2.3362   -1.0287 C   0  0  1  0  0  0  0  0  0  0  0  0
   -2.2626   -2.8459   -2.1332 C   0  0  0  0  0  0  0  0  0  0  0  0
   -3.8554    3.5798   -0.8546 C   0  0  0  0  0  0  0  0  0  0  0  0
   -0.5604   -0.0831    1.0263 C   0  0  0  0  0  0  0  0  0  0  0  0
   -5.7978   -3.5907   -1.5154 C   0  0  0  0  0  0  0  0  0  0  0  0
   -0.1996   -0.5629   -0.3615 C   0  0  0  0  0  0  0  0  0  0  0  0
   -6.6178   -2.4702   -1.5013 C   0  0  0  0  0  0  0  0  0  0  0  0
   -6.3115   -4.8142   -1.0869 C   0  0  0  0  0  0  0  0  0  0  0  0
   -7.9138   -2.5660   -0.9999 C   0  0  0  0  0  0  0  0  0  0  0  0
   -8.4492   -3.7692   -0.5464 C   0  0  0  0  0  0  0  0  0  0  0  0
   -7.6247   -4.9011   -0.5963 C   0  0  0  0  0  0  0  0  0  0  0  0
   -9.8423   -3.7792   -0.0801 C   0  0  0  0  0  0  0  0  0  0  0  0
  -10.5291   -2.6266   -0.0922 C   0  0  0  0  0  0  0  0  0  0  0  0
   -9.9594   -1.3441   -0.5332 C   0  0  0  0  0  0  0  0  0  0  0  0
  -10.4777   -5.0575    0.3759 C   0  0  0  0  0  0  0  0  0  0  0  0
 14  1  1  1
  1 17  1  0
  2 23  1  0
  6 20  1  0
  7 20  2  0
  8 21  1  0
  9 22  2  0
 10 27  1  0
 10 32  1  0
 11 32  2  0
 12 22  1  0
 13 14  1  0
 13 15  1  0
 13 12  1  6
 15 16  1  0
 15  3  1  1
 16 17  1  0
 17  2  1  6
 17 20  1  0
 18 14  1  0
 18  4  1  6
 19 21  1  0
 19 18  1  0
 19  5  1  1
 22 24  1  0
 23 25  1  0
 23 26  2  0
 25 27  2  0
 26 29  1  0
 27 28  1  0
 28 29  2  0
 28 30  1  0
 30 31  2  0
 30 33  1  0
 31 32  1  0
M  END
>  <DRUGBANK_ID>  (1) 
DB01768

>  <SECONDARY_ACCESSION_NUMBERS>  (1) 
EXPT02257

>  <COMMON_NAME>  (1) 
Methylumbelliferyl sialic acid

>  <CAS_NUMBER>  (1) 
59322-44-0

$$$$
