
     RDKit          3D

 18 19  0  0  0  0  0  0  0  0999 V2000
   -0.9870    1.1545    0.0510 C   0  0  0  0  0  0  0  0  0  0  0  0
    0.3904    1.1852    0.0413 C   0  0  0  0  0  0  0  0  0  0  0  0
    1.0914   -0.0193    0.0265 C   0  0  0  0  0  0  0  0  0  0  0  0
    0.4101   -1.2450    0.0356 C   0  0  0  0  0  0  0  0  0  0  0  0
   -0.9730   -1.2802    0.0367 C   0  0  0  0  0  0  0  0  0  0  0  0
   -1.6659   -0.0782    0.0237 C   0  0  0  0  0  0  0  0  0  0  0  0
    2.5807   -0.0097   -0.0112 C   0  0  0  0  0  0  0  0  0  0  0  0
   -3.0998   -0.0249   -0.2238 C   0  0  0  0  0  0  0  0  0  0  0  0
   -4.0189   -1.2536   -0.1218 C   0  0  0  0  0  0  0  0  0  0  0  0
   -3.4587    1.0829   -0.6673 O   0  0  0  0  0  0  0  0  0  0  0  0
   -4.9925   -1.2822    1.0985 C   0  0  0  0  0  0  0  0  0  0  0  0
   -6.0905   -0.2915    1.2173 N   0  0  0  0  0  0  0  0  0  0  0  0
   -5.5432    1.0502    1.0270 C   0  0  0  0  0  0  0  0  0  0  0  0
   -6.4955    2.2161    1.0612 C   0  0  0  0  0  0  0  0  0  0  0  0
   -7.5459    1.9736   -0.0141 C   0  0  0  0  0  0  0  0  0  0  0  0
   -8.1879    0.5962    0.1753 C   0  0  0  0  0  0  0  0  0  0  0  0
   -7.1565   -0.5294    0.2327 C   0  0  0  0  0  0  0  0  0  0  0  0
   -4.6961   -1.4187   -1.4801 C   0  0  0  0  0  0  0  0  0  0  0  0
  1  2  2  0
  1  6  1  0
  2  3  1  0
  3  4  2  0
  3  7  1  0
  4  5  1  0
  5  6  2  0
  6  8  1  0
  8  9  1  0
  8 10  2  0
  9 11  1  0
  9 18  1  0
 11 12  1  0
 12 13  1  0
 13 14  1  0
 14 15  1  0
 15 16  1  0
 16 17  1  0
 17 12  1  0
M  END
>  <DRUGBANK_ID>  (1) 
DB06264

>  <COMMON_NAME>  (1) 
Tolperisone

>  <CAS_NUMBER>  (1) 
728-88-1

>  <UNII>  (1) 
F5EOM0LD8E

>  <SYNONYMS>  (1) 
Tolperisone

$$$$
