
     RDKit          3D

 34 36  0  0  1  0  0  0  0  0999 V2000
    0.7760    0.0581   -0.0739 C   0  0  0  0  0  0  0  0  0  0  0  0
    0.4531   -0.4595   -1.3702 O   0  0  0  0  0  0  0  0  0  0  0  0
    0.8525    0.3243   -2.4251 C   0  0  0  0  0  0  0  0  0  0  0  0
    2.1765    0.7163   -2.6994 C   0  0  0  0  0  0  0  0  0  0  0  0
    2.3213    1.6004   -3.7785 C   0  0  0  0  0  0  0  0  0  0  0  0
    1.2942    1.9663   -4.6298 C   0  0  0  0  0  0  0  0  0  0  0  0
    1.5830    2.7756   -5.6580 F   0  0  0  0  0  0  0  0  0  0  0  0
    0.0264    1.5015   -4.4253 C   0  0  0  0  0  0  0  0  0  0  0  0
   -0.1966    0.6868   -3.3136 C   0  0  0  0  0  0  0  0  0  0  0  0
    3.3515    0.1479   -1.9240 C   0  0  0  0  0  0  0  0  0  0  0  0
    3.2236   -0.8378   -1.1954 O   0  0  0  0  0  0  0  0  0  0  0  0
    4.6273    0.6514   -1.9638 N   0  0  0  0  0  0  0  0  0  0  0  0
    5.3163    1.4967   -2.9112 C   0  0  0  0  0  0  0  0  0  0  0  0
    5.6761    2.8370   -2.3342 C   0  0  0  0  0  0  0  0  0  0  0  0
    5.2477    4.0410   -2.9155 C   0  0  0  0  0  0  0  0  0  0  0  0
    5.6077    5.2893   -2.3554 C   0  0  0  0  0  0  0  0  0  0  0  0
    6.4195    5.3685   -1.2080 C   0  0  0  0  0  0  0  0  0  0  0  0
    6.7458    4.1561   -0.5819 C   0  0  0  0  0  0  0  0  0  0  0  0
    6.4336    2.9143   -1.1656 C   0  0  0  0  0  0  0  0  0  0  0  0
    6.9441    6.6709   -0.6923 C   0  0  0  0  0  0  0  0  0  0  0  0
    6.0906    7.6279   -0.2755 N   0  0  0  0  0  0  0  0  0  0  0  0
    6.8692    8.6710    0.0960 N   0  0  0  0  0  0  0  0  0  0  0  0
    6.2307    9.8820    0.6205 C   0  0  1  0  0  0  0  0  0  0  0  0
    6.6445   10.2027    2.0662 C   0  0  0  0  0  0  0  0  0  0  0  0
    6.4752   11.0794   -0.2842 C   0  0  0  0  0  0  0  0  0  0  0  0
    6.0512   10.8793   -1.5487 F   0  0  0  0  0  0  0  0  0  0  0  0
    5.8150   12.1711    0.1831 F   0  0  0  0  0  0  0  0  0  0  0  0
    7.7813   11.4388   -0.3365 F   0  0  0  0  0  0  0  0  0  0  0  0
    8.2242    8.4303   -0.0499 C   0  0  0  0  0  0  0  0  0  0  0  0
    9.1305    9.3831    0.3021 N   0  0  0  0  0  0  0  0  0  0  0  0
    8.3295    7.1369   -0.5660 C   0  0  0  0  0  0  0  0  0  0  0  0
    9.5402    6.3846   -0.9337 C   0  0  0  0  0  0  0  0  0  0  0  0
   10.7644    7.0020   -0.7972 N   0  0  0  0  0  0  0  0  0  0  0  0
    9.5324    5.2451   -1.3566 O   0  0  0  0  0  0  0  0  0  0  0  0
  1  2  1  0
  2  3  1  0
  3  4  2  0
  3  9  1  0
  4  5  1  0
  4 10  1  0
  5  6  2  0
  6  7  1  0
  6  8  1  0
  8  9  2  0
 10 11  2  0
 10 12  1  0
 12 13  1  0
 13 14  1  0
 14 15  2  0
 14 19  1  0
 15 16  1  0
 16 17  2  0
 17 18  1  0
 17 20  1  0
 18 19  2  0
 20 21  2  0
 20 31  1  0
 21 22  1  0
 22 29  1  0
 23 22  1  0
 23 24  1  1
 23 25  1  0
 25 26  1  0
 25 27  1  0
 25 28  1  0
 29 30  1  0
 29 31  2  0
 31 32  1  0
 32 33  1  0
 32 34  2  0
M  END
>  <DRUGBANK_ID>  (1) 
DB17472

>  <COMMON_NAME>  (1) 
Pirtobrutinib

>  <CAS_NUMBER>  (1) 
2101700-15-4

>  <UNII>  (1) 
JNA39I7ZVB

>  <SYNONYMS>  (1) 
(s)-5-amino-3-(4-((5-fluoro-2-methoxybenzamido)methyl)phenyl)-1-(1,1,1-trifluoropropan-2-yl)-1h-pyrazole-4-carboxamide; 1h-pyrazole-4-carboxamide, 5-amino-3-(4-(((5-fluoro-2-methoxybenzoyl)amino)methyl)phenyl)-1-((1s)-2,2,2-trifluoro-1-methylethyl)-; 5-amino-3-(4-((5-fluoro-2-methoxybenzamido)methyl)phenyl)-1-((2s)-1,1,1-trifluoropropan-2-yl)-1h-pyrazole-4-carboxamide

$$$$
