
     RDKit          3D

 18 18  0  0  0  0  0  0  0  0999 V2000
    1.6188    0.1412    0.1693 C   0  0  0  0  0  0  0  0  0  0  0  0
    0.7608   -0.9313    0.2882 C   0  0  0  0  0  0  0  0  0  0  0  0
   -0.6478   -0.4558    0.1540 C   0  0  0  0  0  0  0  0  0  0  0  0
   -1.1995    0.8064    0.0933 C   0  0  0  0  0  0  0  0  0  0  0  0
   -0.2929    1.7955    0.1006 C   0  0  0  0  0  0  0  0  0  0  0  0
    1.0821    1.4629    0.0664 C   0  0  0  0  0  0  0  0  0  0  0  0
    1.4459   -2.4963    0.1900 C   0  0  0  0  0  0  0  0  0  0  0  0
    1.0271   -3.6449    1.1713 N   0  0  0  0  0  0  0  0  0  0  0  0
    0.1846   -4.8210    1.0423 C   0  0  0  0  0  0  0  0  0  0  0  0
   -0.3295   -5.2650    2.0826 O   0  0  0  0  0  0  0  0  0  0  0  0
   -0.4812   -5.3144   -0.4538 C   0  0  1  0  0  0  0  0  0  0  0  0
   -1.6955   -4.6270   -1.2938 C   0  0  0  0  0  0  0  0  0  0  0  0
   -1.7134   -3.2452   -1.4506 O   0  0  0  0  0  0  0  0  0  0  0  0
   -1.3325   -2.8278   -0.2248 C   0  0  0  0  0  0  0  0  0  0  0  0
    0.6371   -5.5820   -1.3145 N   0  0  0  0  0  0  0  0  0  0  0  0
    0.9560   -6.8250   -1.8024 C   0  0  0  0  0  0  0  0  0  0  0  0
    1.9794   -7.0032   -2.3910 O   0  0  0  0  0  0  0  0  0  0  0  0
   -0.0776   -7.9079   -1.5506 C   0  0  0  0  0  0  0  0  0  0  0  0
  1  2  2  0
  1  6  1  0
  2  3  1  0
  2  7  1  0
  3  4  2  0
  4  5  1  0
  5  6  2  0
  7  8  1  0
  8  9  1  0
  9 10  2  0
  9 11  1  0
 11 12  1  6
 11 15  1  0
 12 13  1  0
 13 14  1  0
 15 16  1  0
 16 17  2  0
 16 18  1  0
M  END
>  <DRUGBANK_ID>  (1) 
DB06218

>  <COMMON_NAME>  (1) 
Lacosamide

>  <CAS_NUMBER>  (1) 
175481-36-4

>  <UNII>  (1) 
563KS2PQY5

>  <SYNONYMS>  (1) 
(+)-(2R)-2-(ACETYLAMINO)-N-BENZYL-3-METHOXYPROPANAMIDE; (2R)-2-(Acetylamino)-3-methoxy-N-(phenylmethyl)propanamide; (R)-2-acetamido-N-benzyl-3- methoxypropionamide; (R)-LACOSAMIDE 1; Erlosamide; Harkoseride; Lacosamida; Lacosamide; Propanamide, 2-(acetylamino)-3-methoxy-N-(phenylmethyl)-, (2R)-

$$$$
