
     RDKit          3D

 27 30  0  0  0  0  0  0  0  0999 V2000
    3.8130   -0.6295    0.3522 C   0  0  1  0  0  0  0  0  0  0  0  0
    1.3212   -0.8347   -0.0493 C   0  0  0  0  0  0  0  0  0  0  0  0
    6.3061   -0.4652   -0.6496 C   0  0  0  0  0  0  0  0  0  0  0  0
    2.5258   -1.4575    0.1318 C   0  0  0  0  0  0  0  0  0  0  0  0
    5.3519   -1.0431    0.3391 C   0  0  0  0  0  0  0  0  0  0  0  0
   -0.0051   -1.5667    0.0430 C   0  0  0  0  0  0  0  0  0  0  0  0
    6.1250    0.8717   -0.7574 C   0  0  0  0  0  0  0  0  0  0  0  0
   -1.2739   -0.7743    0.0068 C   0  0  0  0  0  0  0  0  0  0  0  0
    3.6924    0.7419   -0.3436 C   0  0  2  0  0  0  0  0  0  0  0  0
    1.2152    0.6648   -0.2996 C   0  0  2  0  0  0  0  0  0  0  0  0
   -1.2572    0.6241    0.0896 C   0  0  0  0  0  0  0  0  0  0  0  0
    7.5897   -1.1395   -1.0478 C   0  0  0  0  0  0  0  0  0  0  0  0
    4.9504    1.5725   -0.1040 C   0  0  0  0  0  0  0  0  0  0  0  0
    2.4476    1.4411    0.1737 C   0  0  0  0  0  0  0  0  0  0  0  0
    0.0143    1.3597    0.3301 C   0  0  0  0  0  0  0  0  0  0  0  0
    5.8738   -1.4805    1.3788 O   0  0  0  0  0  0  0  0  0  0  0  0
   -0.1084   -2.7867    0.1494 O   0  0  0  0  0  0  0  0  0  0  0  0
   -2.5150   -1.4213   -0.1029 C   0  0  0  0  0  0  0  0  0  0  0  0
    8.4898   -0.5985   -1.6974 O   0  0  0  0  0  0  0  0  0  0  0  0
    2.5734   -2.8274    0.3380 O   0  0  0  0  0  0  0  0  0  0  0  0
    7.0334    1.6900   -1.3943 O   0  0  0  0  0  0  0  0  0  0  0  0
    7.7885   -2.4273   -0.6462 N   0  0  0  0  0  0  0  0  0  0  0  0
   -2.4546    1.3560    0.0362 C   0  0  0  0  0  0  0  0  0  0  0  0
   -2.6443   -2.7841   -0.1643 O   0  0  0  0  0  0  0  0  0  0  0  0
   -3.6724    0.7002   -0.0966 C   0  0  0  0  0  0  0  0  0  0  0  0
   -3.7031   -0.6906   -0.1576 C   0  0  0  0  0  0  0  0  0  0  0  0
    3.6748   -0.4097    1.8019 O   0  0  0  0  0  0  0  0  0  0  0  0
  1 27  1  1
  2 10  1  0
  2  4  2  0
  3  5  1  0
  4  1  1  0
  5  1  1  0
  6  2  1  0
  7 13  1  0
  7  3  2  0
  8  6  1  0
  8 11  2  0
  9  1  1  0
 10 14  1  1
 11 15  1  0
 12  3  1  0
  9 13  1  1
 14  9  1  0
 15 10  1  0
 16  5  2  0
 17  6  2  0
 18  8  1  0
 19 12  2  0
 20  4  1  0
 21  7  1  0
 22 12  1  0
 23 11  1  0
 24 18  1  0
 25 23  2  0
 26 18  2  0
 26 25  1  0
M  END
>  <DRUGBANK_ID>  (1) 
DB11647

>  <COMMON_NAME>  (1) 
Incyclinide

>  <CAS_NUMBER>  (1) 
15866-90-7

>  <UNII>  (1) 
21G64WZQ4I

>  <SYNONYMS>  (1) 
Incyclinide

$$$$
