1416
     RDKit          3D

 28 30  0  0  1  0  0  0  0  0999 V2000
    1.5399    0.9478    0.5984 S   0  0  0  0  0  0  0  0  0  0  0  0
   -5.0426    6.5501   -3.3113 S   0  0  0  0  0  0  0  0  0  0  0  0
   -2.7147   -0.4143    0.6689 O   0  0  0  0  0  0  0  0  0  0  0  0
    1.6410   -3.6639    1.4810 O   0  0  0  0  0  0  0  0  0  0  0  0
   -2.1784   -2.8387   -0.3672 O   0  0  0  0  0  0  0  0  0  0  0  0
   -0.4200   -4.1200    0.0018 O   0  0  0  0  0  0  0  0  0  0  0  0
   -2.1983    4.8438    0.4859 O   0  0  0  0  0  0  0  0  0  0  0  0
   -2.1791    1.6170   -2.3520 O   0  0  0  0  0  0  0  0  0  0  0  0
   -0.5753   -0.4757   -0.2293 N   0  0  0  0  0  0  0  0  0  0  0  0
   -1.3391    2.7855    0.5329 N   0  0  0  0  0  0  0  0  0  0  0  0
   -2.8497    2.7747   -2.6183 N   0  0  0  0  0  0  0  0  0  0  0  0
   -2.8571    6.2433   -1.9968 N   0  0  0  0  0  0  0  0  0  0  0  0
   -3.3110    8.4510   -2.6334 N   0  0  0  0  0  0  0  0  0  0  0  0
    0.1385    0.7850   -0.4827 C   0  0  1  0  0  0  0  0  0  0  0  0
   -1.1125    1.4609    0.0267 C   0  0  1  0  0  0  0  0  0  0  0  0
   -1.6892    0.0902    0.3161 C   0  0  0  0  0  0  0  0  0  0  0  0
   -0.0098   -1.7134   -0.1316 C   0  0  0  0  0  0  0  0  0  0  0  0
    1.3437   -1.7792   -0.0209 C   0  0  0  0  0  0  0  0  0  0  0  0
    2.2781   -0.5813   -0.0023 C   0  0  0  0  0  0  0  0  0  0  0  0
    2.0820   -3.0677    0.2639 C   0  0  0  0  0  0  0  0  0  0  0  0
   -0.8640   -2.9869   -0.1025 C   0  0  0  0  0  0  0  0  0  0  0  0
   -2.0570    3.8060   -0.1679 C   0  0  0  0  0  0  0  0  0  0  0  0
   -2.7425    3.7244   -1.6816 C   0  0  0  0  0  0  0  0  0  0  0  0
   -3.4205    4.9713   -2.1313 C   0  0  0  0  0  0  0  0  0  0  0  0
    1.7644   -2.8412    2.6263 C   0  0  0  0  0  0  0  0  0  0  0  0
   -4.6277    4.9699   -2.8117 C   0  0  0  0  0  0  0  0  0  0  0  0
   -3.6111    7.1481   -2.5770 C   0  0  0  0  0  0  0  0  0  0  0  0
   -2.1667    0.4487   -3.1146 C   0  0  0  0  0  0  0  0  0  0  0  0
 14  1  1  1
  1 19  1  0
  2 26  1  0
  2 27  1  0
  3 16  2  0
  4 20  1  0
  4 25  1  0
  5 21  1  0
  6 21  2  0
  7 22  2  0
  8 11  1  0
  8 28  1  0
  9 14  1  0
  9 16  1  0
  9 17  1  0
 10 22  1  0
 11 23  2  0
 12 24  1  0
 12 27  2  0
 13 27  1  0
 14 15  1  0
 15 10  1  1
 15 16  1  0
 17 18  2  0
 17 21  1  0
 18 19  1  0
 18 20  1  0
 22 23  1  0
 23 24  1  0
 24 26  2  0
M  END
>  <DRUGBANK_ID>  (1) 
DB01416

>  <COMMON_NAME>  (1) 
Cefpodoxime

>  <CAS_NUMBER>  (1) 
80210-62-4

>  <UNII>  (1) 
7R4F94TVGY

>  <SYNONYMS>  (1) 
Cefpodoxima; Cefpodoxime; Cefpodoximum

$$$$
