BRC
     RDKit          3D

 15 14  0  0  0  0  0  0  0  0999 V2000
    0.9038    0.0735    0.0839 C   0  0  0  0  0  0  0  0  0  0  0  0
    0.1388   -0.2720    0.9753 O   0  0  0  0  0  0  0  0  0  0  0  0
    0.4046    0.5256   -1.0756 O   0  0  0  0  0  0  0  0  0  0  0  0
    2.4078    0.0640    0.1108 C   0  0  0  0  0  0  0  0  0  0  0  0
    2.9140   -0.6072    1.3879 C   0  0  0  0  0  0  0  0  0  0  0  0
    2.4726   -2.0750    1.4656 C   0  0  0  0  0  0  0  0  0  0  0  0
    3.0119   -2.8774    0.2805 C   0  0  0  0  0  0  0  0  0  0  0  0
    4.5417   -2.8795    0.2957 C   0  0  0  0  0  0  0  0  0  0  0  0
    5.0524   -3.5188    1.5915 C   0  0  0  0  0  0  0  0  0  0  0  0
    4.5485   -4.9619    1.7003 C   0  0  0  0  0  0  0  0  0  0  0  0
    5.0477   -5.7849    0.5087 C   0  0  0  0  0  0  0  0  0  0  0  0
    6.5790   -5.8152    0.4796 C   0  0  0  0  0  0  0  0  0  0  0  0
    7.1453   -6.4638    1.7483 C   0  0  0  0  0  0  0  0  0  0  0  0
    6.6386   -7.8851    1.9459 C   0  0  0  0  0  0  0  0  0  0  0  0
    7.2414   -9.0399    0.4969 Br  0  0  0  0  0  0  0  0  0  0  0  0
  1  2  2  0
  1  3  1  0
  1  4  1  0
  4  5  1  0
  5  6  1  0
  6  7  1  0
  7  8  1  0
  8  9  1  0
  9 10  1  0
 10 11  1  0
 11 12  1  0
 12 13  1  0
 13 14  1  0
 14 15  1  0
M  END
>  <DRUGBANK_ID>  (1) 
DB02405

>  <SECONDARY_ACCESSION_NUMBERS>  (1) 
EXPT00749

>  <COMMON_NAME>  (1) 
12-Bromododecanoic Acid

>  <CAS_NUMBER>  (1) 
73367-80-3

>  <UNII>  (1) 
RP072ZQ00E

$$$$
