678
     RDKit          3D

 30 33  0  0  0  0  0  0  0  0999 V2000
    1.4008   -0.2740   -0.0489 Cl  0  0  0  0  0  0  0  0  0  0  0  0
    2.9762   -3.0811    0.9796 O   0  0  0  0  0  0  0  0  0  0  0  0
    5.2690   -0.5815   -0.0075 N   0  0  0  0  0  0  0  0  0  0  0  0
    3.7288    1.0148    0.1266 N   0  0  0  0  0  0  0  0  0  0  0  0
    8.4830   -6.1708    1.4392 N   0  0  0  0  0  0  0  0  0  0  0  0
    6.8320   -7.4253    2.3438 N   0  0  0  0  0  0  0  0  0  0  0  0
    7.6705   -6.7384    0.5359 N   0  0  0  0  0  0  0  0  0  0  0  0
    6.6918   -7.5065    1.0267 N   0  0  0  0  0  0  0  0  0  0  0  0
    5.0189    0.7867    0.0263 C   0  0  0  0  0  0  0  0  0  0  0  0
    6.0261    1.9026   -0.0361 C   0  0  0  0  0  0  0  0  0  0  0  0
    6.6415   -1.1110   -0.0391 C   0  0  0  0  0  0  0  0  0  0  0  0
    5.8068    2.8099   -1.2583 C   0  0  0  0  0  0  0  0  0  0  0  0
    4.0101   -1.2182   -0.0747 C   0  0  0  0  0  0  0  0  0  0  0  0
    7.0314   -1.8916    1.1820 C   0  0  0  0  0  0  0  0  0  0  0  0
    4.4303    3.4822   -1.3111 C   0  0  0  0  0  0  0  0  0  0  0  0
    3.1016   -0.1778    0.0086 C   0  0  0  0  0  0  0  0  0  0  0  0
    3.6036   -2.6500   -0.2302 C   0  0  0  0  0  0  0  0  0  0  0  0
    6.2981   -3.0312    1.4550 C   0  0  0  0  0  0  0  0  0  0  0  0
    8.1471   -1.6438    1.9899 C   0  0  0  0  0  0  0  0  0  0  0  0
    7.6815   -3.6990    3.2443 C   0  0  0  0  0  0  0  0  0  0  0  0
    6.5389   -3.8848    2.4879 C   0  0  0  0  0  0  0  0  0  0  0  0
    8.4885   -2.5760    2.9790 C   0  0  0  0  0  0  0  0  0  0  0  0
    4.1493    4.3085   -0.0647 C   0  0  0  0  0  0  0  0  0  0  0  0
    8.0459   -4.7013    4.2325 C   0  0  0  0  0  0  0  0  0  0  0  0
    8.2095   -6.0738    3.9119 C   0  0  0  0  0  0  0  0  0  0  0  0
    8.2495   -4.2682    5.5531 C   0  0  0  0  0  0  0  0  0  0  0  0
    8.6477   -6.9542    4.9029 C   0  0  0  0  0  0  0  0  0  0  0  0
    8.7360   -5.1415    6.5114 C   0  0  0  0  0  0  0  0  0  0  0  0
    7.9042   -6.5901    2.5783 C   0  0  0  0  0  0  0  0  0  0  0  0
    8.9381   -6.4810    6.1876 C   0  0  0  0  0  0  0  0  0  0  0  0
  1 16  1  0
  2 17  1  0
  3  9  1  0
  3 11  1  0
  3 13  1  0
  4  9  2  0
  4 16  1  0
  5  7  1  0
  5 29  2  0
  6  8  2  0
  6 29  1  0
  7  8  1  0
  9 10  1  0
 10 12  1  0
 11 14  1  0
 12 15  1  0
 13 16  2  0
 13 17  1  0
 14 18  2  0
 14 19  1  0
 15 23  1  0
 18 21  1  0
 19 22  2  0
 20 21  2  0
 20 22  1  0
 20 24  1  0
 24 25  1  0
 24 26  2  0
 25 27  2  0
 25 29  1  0
 26 28  1  0
 27 30  1  0
 28 30  2  0
M  END
>  <DRUGBANK_ID>  (1) 
DB00678

>  <SECONDARY_ACCESSION_NUMBERS>  (1) 
APRD00052

>  <COMMON_NAME>  (1) 
Losartan

>  <CAS_NUMBER>  (1) 
114798-26-4

>  <UNII>  (1) 
JMS50MPO89

>  <SYNONYMS>  (1) 
(2-butyl-4-chloro-1-{[2'-(1H-tetrazol-5-yl)biphenyl-4-yl]methyl}-1H-imidazol-5-yl)methanol; 2-n-butyl-4-chloro-5-hydroxymethyl-1-[(2'-(1H-tetrazol-5-yl)biphenyl-4-yl)methyl]imidazole; Losartan

$$$$
