
     RDKit          3D

 33 34  0  0  0  0  0  0  0  0999 V2000
    5.3649   -3.0361    1.3051 N   0  0  0  0  0  0  0  0  0  0  0  0
    3.9929   -3.3594    0.9889 C   0  0  0  0  0  0  0  0  0  0  0  0
    3.6923   -4.6219    0.5401 N   0  0  0  0  0  0  0  0  0  0  0  0
    4.3198   -5.5772    1.1103 C   0  0  0  0  0  0  0  0  0  0  0  0
    5.5499   -5.3348    1.8922 C   0  0  0  0  0  0  0  0  0  0  0  0
    6.1048   -4.1193    1.7548 C   0  0  0  0  0  0  0  0  0  0  0  0
    6.4125   -0.6311    0.4021 C   0  0  1  0  0  0  0  0  0  0  0  0
    6.0065   -1.5965    1.5979 C   0  0  1  0  0  0  0  0  0  0  0  0
    5.1624   -0.8244    2.5396 O   0  0  0  0  0  0  0  0  0  0  0  0
    4.9201    0.5394    2.0240 C   0  0  1  0  0  0  0  0  0  0  0  0
    5.9486    0.7748    0.8739 C   0  0  1  0  0  0  0  0  0  0  0  0
    3.3651    0.8146    1.6608 C   0  0  0  0  0  0  0  0  0  0  0  0
    2.6632   -0.1179    0.7470 O   0  0  0  0  0  0  0  0  0  0  0  0
    3.2433   -0.3550   -0.7847 P   0  0  1  0  0  0  0  0  0  0  0  0
    4.4701   -1.2951   -1.6826 O   0  0  0  0  0  0  0  0  0  0  0  0
    3.3487   -1.7322   -2.9253 P   0  0  1  0  0  0  0  0  0  0  0  0
    4.5223   -2.6794   -3.5602 O   0  0  0  0  0  0  0  0  0  0  0  0
    3.5417    1.0531   -1.2061 O   0  0  0  0  0  0  0  0  0  0  0  0
    2.4507   -2.5209   -1.9853 O   0  0  0  0  0  0  0  0  0  0  0  0
    2.2273   -2.1693   -4.1680 O   0  0  0  0  0  0  0  0  0  0  0  0
    4.1913   -0.9525    0.3048 O   0  0  0  0  0  0  0  0  0  0  0  0
    3.7866   -6.8116    0.9274 N   0  0  0  0  0  0  0  0  0  0  0  0
    3.0481   -2.6457    1.2037 O   0  0  0  0  0  0  0  0  0  0  0  0
    7.0942    1.4846    1.3484 O   0  0  0  0  0  0  0  0  0  0  0  0
    7.6914   -0.7930   -0.1963 O   0  0  0  0  0  0  0  0  0  0  0  0
    5.3968   -2.1191   -4.5698 C   0  0  0  0  0  0  0  0  0  0  0  0
    4.7190   -1.7426   -5.9725 C   0  0  2  0  0  0  0  0  0  0  0  0
    3.2220   -1.8187   -5.9173 C   0  0  1  0  0  0  0  0  0  0  0  0
    2.7620   -0.2764   -5.2194 C   0  0  0  0  0  0  0  0  0  0  0  0
    2.7205    0.7383   -6.2068 O   0  0  0  0  0  0  0  0  0  0  0  0
    5.0547   -2.7452   -6.9296 O   0  0  0  0  0  0  0  0  0  0  0  0
    2.0347   -2.2092   -6.7709 C   0  0  0  0  0  0  0  0  0  0  0  0
    3.3180   -3.3472   -5.4112 O   0  0  0  0  0  0  0  0  0  0  0  0
  1  2  1  0
  2 23  2  0
  2  3  1  0
  3  4  2  0
  4  5  1  0
  4 22  1  0
  5  6  2  0
  6  1  1  0
  7  8  1  0
  7 25  1  1
  8  9  1  0
  8  1  1  6
  9 10  1  0
 10 11  1  0
 10 12  1  6
 11  7  1  0
 11 24  1  1
 12 13  1  0
 13 14  1  0
 14 18  2  0
 14 21  1  1
 14 15  1  0
 15 16  1  0
 16 17  1  0
 16 19  2  0
 16 20  1  6
 17 26  1  0
 27 31  1  6
 27 28  1  0
 27 26  1  0
 28 29  1  0
 28 32  1  6
 28 33  1  0
 29 30  1  0
M  END
>  <DRUGBANK_ID>  (1) 
DB03687

>  <SECONDARY_ACCESSION_NUMBERS>  (1) 
EXPT00873

>  <COMMON_NAME>  (1) 
4-(Cytidine 5'-diphospho)-2-C-methyl-D-erythritol

>  <CAS_NUMBER>  (1) 
263016-94-0

>  <UNII>  (1) 
FB44VKC5JD

>  <SYNONYMS>  (1) 
4-CDP-2-C-methyl-D-erythritol; 4-Diphosphocytidyl-2-C-methyl-D-erythritol

$$$$
