715
     RDKit          3D

 24 27  0  0  1  0  0  0  0  0999 V2000
   -5.4559   -5.4814    0.2563 F   0  0  0  0  0  0  0  0  0  0  0  0
   -2.6062   -1.2123   -2.6107 O   0  0  0  0  0  0  0  0  0  0  0  0
   -1.2913   -5.4760   -0.6477 O   0  0  0  0  0  0  0  0  0  0  0  0
   -1.7851   -4.6595    1.5509 O   0  0  0  0  0  0  0  0  0  0  0  0
   -4.2588    2.9716    0.0363 N   0  0  0  0  0  0  0  0  0  0  0  0
   -4.1888    0.1652    0.0273 C   0  0  1  0  0  0  0  0  0  0  0  0
   -4.0757    0.8436   -1.3363 C   0  0  1  0  0  0  0  0  0  0  0  0
   -4.3375    0.9293    1.3476 C   0  0  0  0  0  0  0  0  0  0  0  0
   -3.6846    2.3397   -1.1580 C   0  0  0  0  0  0  0  0  0  0  0  0
   -3.7543    2.3373    1.2514 C   0  0  0  0  0  0  0  0  0  0  0  0
   -2.9987    0.2111   -2.3959 C   0  0  0  0  0  0  0  0  0  0  0  0
   -4.9185   -1.3107   -0.0799 C   0  0  0  0  0  0  0  0  0  0  0  0
   -4.8747   -2.2117   -1.2177 C   0  0  0  0  0  0  0  0  0  0  0  0
   -5.3545   -1.9156    1.1007 C   0  0  0  0  0  0  0  0  0  0  0  0
   -4.9628   -3.6226   -1.0926 C   0  0  0  0  0  0  0  0  0  0  0  0
   -5.6136   -3.3025    1.1763 C   0  0  0  0  0  0  0  0  0  0  0  0
   -1.9238   -2.0145   -1.6756 C   0  0  0  0  0  0  0  0  0  0  0  0
   -5.3598   -4.1524    0.1079 C   0  0  0  0  0  0  0  0  0  0  0  0
   -1.7212   -3.3520   -1.8537 C   0  0  0  0  0  0  0  0  0  0  0  0
   -2.0053   -1.6665   -0.3379 C   0  0  0  0  0  0  0  0  0  0  0  0
   -1.5770   -4.1496   -0.6935 C   0  0  0  0  0  0  0  0  0  0  0  0
   -1.7952   -3.6784    0.6082 C   0  0  0  0  0  0  0  0  0  0  0  0
   -2.0480   -2.4183    0.8393 C   0  0  0  0  0  0  0  0  0  0  0  0
   -1.0613   -5.6153    0.7792 C   0  0  0  0  0  0  0  0  0  0  0  0
  1 18  1  0
  2 11  1  0
  2 17  1  0
  3 21  1  0
  3 24  1  0
  4 22  1  0
  4 24  1  0
  5  9  1  0
  5 10  1  0
  6  7  1  0
  6  8  1  0
  6 12  1  6
  7  9  1  0
  7 11  1  6
  8 10  1  0
 12 13  2  0
 12 14  1  0
 13 15  1  0
 14 16  2  0
 15 18  2  0
 16 18  1  0
 17 19  1  0
 17 20  2  0
 19 21  2  0
 20 23  1  0
 21 22  1  0
 22 23  2  0
M  END
>  <DRUGBANK_ID>  (1) 
DB00715

>  <COMMON_NAME>  (1) 
Paroxetine

>  <CAS_NUMBER>  (1) 
61869-08-7

>  <UNII>  (1) 
41VRH5220H

>  <SYNONYMS>  (1) 
(âˆ’)-(3S,4R)-4-(p-fluorophenyl)-3-((3,4-(methylenedioxy)phenoxy)methyl)piperidine; (3S-trans)-3-((1,3-benzodioxol-5-yloxy)methyl)-4-(4-fluorophenyl)piperidine; Paroxetina; Paroxetine; Paroxetinum

$$$$
