
     RDKit          3D

 12 12  0  0  0  0  0  0  0  0999 V2000
    0.6934    1.3059   -0.2352 C   0  0  1  0  0  0  0  0  0  0  0  0
    1.4375    0.0398    0.2121 C   0  0  1  0  0  0  0  0  0  0  0  0
   -0.7480    1.2654    0.2752 C   0  0  2  0  0  0  0  0  0  0  0  0
    0.7170   -1.2377   -0.2446 C   0  0  2  0  0  0  0  0  0  0  0  0
   -1.4835    0.0142   -0.2141 C   0  0  1  0  0  0  0  0  0  0  0  0
   -0.7477   -1.2635    0.2262 C   0  0  1  0  0  0  0  0  0  0  0  0
   -1.4716    2.4246   -0.1576 O   0  0  0  0  0  0  0  0  0  0  0  0
    1.3148    2.4959    0.2707 O   0  0  0  0  0  0  0  0  0  0  0  0
    2.7840    0.0055   -0.2801 O   0  0  0  0  0  0  0  0  0  0  0  0
    1.4287   -2.3654    0.2806 O   0  0  0  0  0  0  0  0  0  0  0  0
   -1.4099   -2.4324   -0.2732 O   0  0  0  0  0  0  0  0  0  0  0  0
   -2.8088    0.0280    0.3289 O   0  0  0  0  0  0  0  0  0  0  0  0
  1  8  1  1
  2  1  1  0
  2  9  1  6
  3  1  1  0
  3  7  1  6
  4  2  1  0
  4 10  1  1
  5  3  1  0
  5 12  1  1
  6  4  1  0
  6  5  1  0
  6 11  1  6
M  END
>  <DRUGBANK_ID>  (1) 
DB03106

>  <SECONDARY_ACCESSION_NUMBERS>  (1) 
EXPT01892; DB05987; DB11931

>  <COMMON_NAME>  (1) 
scyllo-inositol

>  <CAS_NUMBER>  (1) 
488-59-5

>  <UNII>  (1) 
1VS4X81277

>  <SYNONYMS>  (1) 
1,3,5/2,4,6-cyclohexanehexol; Cocositol; Quercinitol; Scyllitol

$$$$
