1115
     RDKit          3D

 25 26  0  0  0  0  0  0  0  0999 V2000
    1.0191   -0.0085    0.0797 O   0  0  0  0  0  0  0  0  0  0  0  0
   -5.4291    0.6322    3.9835 O   0  0  0  0  0  0  0  0  0  0  0  0
    1.0323   -0.7787    2.2379 O   0  0  0  0  0  0  0  0  0  0  0  0
   -3.7619    2.0494    3.9584 O   0  0  0  0  0  0  0  0  0  0  0  0
    2.1561    2.1804    2.6474 O   0  0  0  0  0  0  0  0  0  0  0  0
    0.2995    2.4610    1.5329 O   0  0  0  0  0  0  0  0  0  0  0  0
   -3.0165   -0.8504    0.2324 N   0  0  0  0  0  0  0  0  0  0  0  0
    0.9223    2.1051    2.5430 N   0  0  0  0  0  0  0  0  0  0  0  0
   -1.8409    0.7532    2.2156 C   0  0  0  0  0  0  0  0  0  0  0  0
   -1.0306   -0.1645    1.2186 C   0  0  0  0  0  0  0  0  0  0  0  0
   -3.4178    0.3558    2.2883 C   0  0  0  0  0  0  0  0  0  0  0  0
   -1.1040    0.9043    3.5582 C   0  0  0  0  0  0  0  0  0  0  0  0
   -1.6648   -0.9079    0.3013 C   0  0  0  0  0  0  0  0  0  0  0  0
   -3.8133   -0.4618    1.2667 C   0  0  0  0  0  0  0  0  0  0  0  0
    0.1664    1.5319    3.6820 C   0  0  0  0  0  0  0  0  0  0  0  0
   -1.6862    0.4258    4.7516 C   0  0  0  0  0  0  0  0  0  0  0  0
    0.4432   -0.3828    1.2654 C   0  0  0  0  0  0  0  0  0  0  0  0
   -4.2507    1.0532    3.4150 C   0  0  0  0  0  0  0  0  0  0  0  0
   -1.0811   -1.8971   -0.6614 C   0  0  0  0  0  0  0  0  0  0  0  0
   -5.1109   -1.1115    1.0643 C   0  0  0  0  0  0  0  0  0  0  0  0
    0.8162    1.5815    4.9242 C   0  0  0  0  0  0  0  0  0  0  0  0
   -1.1422    0.7107    5.9985 C   0  0  0  0  0  0  0  0  0  0  0  0
    0.1436    1.2109    6.0819 C   0  0  0  0  0  0  0  0  0  0  0  0
    2.4518   -0.0499    0.0563 C   0  0  0  0  0  0  0  0  0  0  0  0
   -6.4683   -0.1886    3.4439 C   0  0  0  0  0  0  0  0  0  0  0  0
  1 17  1  0
  1 24  1  0
  2 18  1  0
  2 25  1  0
  3 17  2  0
  4 18  2  0
  5  8  1  0
  6  8  2  0
  7 13  1  0
  7 14  1  0
  8 15  1  0
  9 10  1  0
  9 11  1  0
  9 12  1  0
 10 13  2  0
 10 17  1  0
 11 14  2  0
 11 18  1  0
 12 15  2  0
 12 16  1  0
 13 19  1  0
 14 20  1  0
 15 21  1  0
 16 22  2  0
 21 23  2  0
 22 23  1  0
M  CHG  2   5  -1   8   1
M  END
>  <DRUGBANK_ID>  (1) 
DB01115

>  <SECONDARY_ACCESSION_NUMBERS>  (1) 
APRD00590

>  <COMMON_NAME>  (1) 
Nifedipine

>  <CAS_NUMBER>  (1) 
21829-25-4

>  <UNII>  (1) 
I9ZF7L6G2L

>  <SYNONYMS>  (1) 
4-(2'-Nitrophenyl)-2,6-dimethyl-1,4-dihydropyridin-3,5-dicarbons√§uredimethylester; Nifedipine; Nifedipino; Nifedipinum

$$$$
