357
     RDKit          3D

 17 18  0  0  1  0  0  0  0  0999 V2000
   -2.1112   -1.1151   -0.1197 O   0  0  0  0  0  0  0  0  0  0  0  0
    2.3493   -0.9447   -0.0534 O   0  0  0  0  0  0  0  0  0  0  0  0
    0.1001   -0.9135   -0.1472 N   0  0  0  0  0  0  0  0  0  0  0  0
   -0.5725    2.0237    6.0519 N   0  0  0  0  0  0  0  0  0  0  0  0
   -1.2204    1.1290    0.3931 C   0  0  0  0  0  0  0  0  0  0  0  0
   -0.0543    1.8375   -0.3607 C   0  0  0  0  0  0  0  0  0  0  0  0
   -2.5688    1.7138   -0.1559 C   0  0  0  0  0  0  0  0  0  0  0  0
   -1.0690    1.3516    1.9171 C   0  0  0  0  0  0  0  0  0  0  0  0
    1.3173    1.2273   -0.0719 C   0  0  0  0  0  0  0  0  0  0  0  0
   -1.1483   -0.3690    0.0130 C   0  0  0  0  0  0  0  0  0  0  0  0
    1.3174   -0.2879   -0.1220 C   0  0  0  0  0  0  0  0  0  0  0  0
   -3.8505    1.1019    0.4343 C   0  0  0  0  0  0  0  0  0  0  0  0
   -0.0303    0.7579    2.6514 C   0  0  0  0  0  0  0  0  0  0  0  0
   -1.9360    2.1832    2.6437 C   0  0  0  0  0  0  0  0  0  0  0  0
    0.1599    1.0140    4.0056 C   0  0  0  0  0  0  0  0  0  0  0  0
   -1.8204    2.3392    4.0240 C   0  0  0  0  0  0  0  0  0  0  0  0
   -0.7556    1.7764    4.7107 C   0  0  0  0  0  0  0  0  0  0  0  0
  1 10  2  0
  2 11  2  0
  3 10  1  0
  3 11  1  0
  4 17  1  0
  5  6  1  0
  5  7  1  0
  5  8  1  0
  5 10  1  0
  6  9  1  0
  7 12  1  0
  8 13  2  0
  8 14  1  0
  9 11  1  0
 13 15  1  0
 14 16  2  0
 15 17  2  0
 16 17  1  0
M  END
>  <DRUGBANK_ID>  (1) 
DB00357

>  <SECONDARY_ACCESSION_NUMBERS>  (1) 
APRD00592

>  <COMMON_NAME>  (1) 
Aminoglutethimide

>  <CAS_NUMBER>  (1) 
125-84-8

>  <UNII>  (1) 
0O54ZQ14I9

>  <SYNONYMS>  (1) 
2-(p-Aminophenyl)-2-ethylglutarimide; 3-Ethyl-3-(p-aminophenyl)-2,6-dioxopiperidine; Aminoglutethimid; Aminoglutéthimide; Aminoglutethimide; Aminoglutethimidum; Aminoglutetimida; Aminoglutetimide; DL-Aminoglutethimide; p-Aminoglutethimide; α-(p-Aminophenyl)-α-ethylglutarimide

$$$$
