
     RDKit          3D

 28 32  0  0  0  0  0  0  0  0999 V2000
   -1.2880    1.0231   -1.8504 C   0  0  0  0  0  0  0  0  0  0  0  0
   -0.5969    0.6382   -0.7049 N   0  0  0  0  0  0  0  0  0  0  0  0
   -0.0983    2.0339   -0.3846 C   0  0  1  0  0  0  0  0  0  0  0  0
    0.5645    3.0777   -1.8847 C   0  0  0  0  0  0  0  0  0  0  0  0
   -0.4606    3.2336   -3.2318 C   0  0  0  0  0  0  0  0  0  0  0  0
   -1.9642    3.4420   -2.4306 C   0  0  1  0  0  0  0  0  0  0  0  0
   -2.7461    4.5636   -2.8624 O   0  0  0  0  0  0  0  0  0  0  0  0
   -3.8662    4.7408   -1.9456 C   0  0  0  0  0  0  0  0  0  0  0  0
   -4.8903    3.5802   -1.7323 C   0  0  0  0  0  0  0  0  0  0  0  0
   -4.4398    2.2220   -2.0921 C   0  0  0  0  0  0  0  0  0  0  0  0
   -3.2218    2.1469   -2.7490 C   0  0  0  0  0  0  0  0  0  0  0  0
   -3.2117    0.7145   -3.1134 N   0  0  0  0  0  0  0  0  0  0  0  0
   -4.0171   -0.0419   -2.2391 C   0  0  0  0  0  0  0  0  0  0  0  0
   -4.9714    0.8714   -1.8295 C   0  0  0  0  0  0  0  0  0  0  0  0
   -6.1214    0.2768   -1.2702 C   0  0  0  0  0  0  0  0  0  0  0  0
   -6.1956   -1.1309   -1.0895 C   0  0  0  0  0  0  0  0  0  0  0  0
   -5.1063   -1.9675   -1.2532 C   0  0  0  0  0  0  0  0  0  0  0  0
   -3.9721   -1.4237   -1.8338 C   0  0  0  0  0  0  0  0  0  0  0  0
   -7.3785   -1.6916   -0.8032 F   0  0  0  0  0  0  0  0  0  0  0  0
   -1.5088    3.9667   -0.7568 C   0  0  0  0  0  0  0  0  0  0  0  0
   -1.2308    2.8954    0.2746 C   0  0  0  0  0  0  0  0  0  0  0  0
    1.0352    1.6113    0.5017 C   0  0  0  0  0  0  0  0  0  0  0  0
    1.7819    2.6905    0.8638 C   0  0  0  0  0  0  0  0  0  0  0  0
    3.0581    2.6111    0.3903 C   0  0  0  0  0  0  0  0  0  0  0  0
    3.6271    1.3708    0.0481 C   0  0  0  0  0  0  0  0  0  0  0  0
    2.9219    0.1797    0.1490 C   0  0  0  0  0  0  0  0  0  0  0  0
    1.5786    0.2975    0.3531 C   0  0  0  0  0  0  0  0  0  0  0  0
   -1.6875   -0.1316   -0.1090 C   0  0  0  0  0  0  0  0  0  0  0  0
  1  2  1  0
  2 28  1  0
  3  4  1  0
  3 21  1  0
  3 22  1  0
  3  2  1  6
  4  5  1  0
  6  5  1  6
  6  7  1  0
  6 11  1  0
  6 20  1  0
  7  8  1  0
  8  9  1  0
  9 10  1  0
 10 11  2  0
 10 14  1  0
 11 12  1  0
 12 13  1  0
 13 14  2  0
 13 18  1  0
 14 15  1  0
 15 16  2  0
 16 17  1  0
 16 19  1  0
 17 18  2  0
 20 21  1  0
 22 23  2  0
 22 27  1  0
 23 24  1  0
 24 25  2  0
 25 26  1  0
 26 27  2  0
M  END
>  <DRUGBANK_ID>  (1) 
DB12830

>  <COMMON_NAME>  (1) 
Cebranopadol

>  <CAS_NUMBER>  (1) 
863513-91-1

>  <UNII>  (1) 
7GDW9S3GN3

>  <SYNONYMS>  (1) 
Cebranopadol

$$$$
