
     RDKit          3D

 20 21  0  0  0  0  0  0  0  0999 V2000
    1.0311    1.4438    0.0289 C   0  0  0  0  0  0  0  0  0  0  0  0
   -0.1402    0.7031   -0.0801 C   0  0  0  0  0  0  0  0  0  0  0  0
    1.0227   -1.3884   -0.0578 C   0  0  0  0  0  0  0  0  0  0  0  0
   -0.1747   -0.6885   -0.1226 C   0  0  0  0  0  0  0  0  0  0  0  0
    2.2222    0.7141    0.0248 C   0  0  0  0  0  0  0  0  0  0  0  0
    2.2293   -0.6907    0.0138 C   0  0  0  0  0  0  0  0  0  0  0  0
   -2.1474    0.0573   -0.7364 C   0  0  0  0  0  0  0  0  0  0  0  0
   -1.4352    1.1122   -0.2117 N   0  0  0  0  0  0  0  0  0  0  0  0
   -1.5181   -1.1064   -0.2869 C   0  0  0  0  0  0  0  0  0  0  0  0
    3.5103   -1.4687   -0.0185 C   0  0  0  0  0  0  0  0  0  0  0  0
    2.4385   -3.5383    1.5508 N   0  0  0  0  0  0  0  0  0  0  0  0
    2.5141   -4.4610    2.7042 C   0  0  0  0  0  0  0  0  0  0  0  0
   -2.9644   -2.8062    1.1828 C   0  0  0  0  0  0  0  0  0  0  0  0
   -5.0665   -2.4290    2.4411 C   0  0  0  0  0  0  0  0  0  0  0  0
   -4.2326   -2.0420    1.3155 N   0  0  0  0  0  0  0  0  0  0  0  0
   -3.9527   -0.6431    1.5630 C   0  0  0  0  0  0  0  0  0  0  0  0
   -2.0836   -2.5159   -0.1033 C   0  0  0  0  0  0  0  0  0  0  0  0
    3.7325   -2.4313    1.4975 S   0  0  0  0  0  0  0  0  0  0  0  0
    4.9351   -3.2064    1.3555 O   0  0  0  0  0  0  0  0  0  0  0  0
    3.5404   -1.5611    2.6512 O   0  0  0  0  0  0  0  0  0  0  0  0
  1  2  2  0
  2  8  1  0
  3  4  2  0
  3  6  1  0
  4  2  1  0
  5  1  1  0
  6  5  2  0
  6 10  1  0
  8  7  1  0
  9  4  1  0
  9  7  2  0
  9 17  1  0
 10 18  1  0
 11 12  1  0
 13 15  1  0
 15 14  1  0
 15 16  1  0
 17 13  1  0
 18 11  1  0
 18 19  2  0
 18 20  2  0
M  END
>  <DRUGBANK_ID>  (1) 
DB00669

>  <SECONDARY_ACCESSION_NUMBERS>  (1) 
APRD00379

>  <COMMON_NAME>  (1) 
Sumatriptan

>  <CAS_NUMBER>  (1) 
103628-46-2

>  <UNII>  (1) 
8R78F6L9VO

>  <SYNONYMS>  (1) 
(3-[2-(dimethylamino)ethyl]-1H-indol-5-yl)-N-methylmethanesulfonamide; 1-[3-(2-dimethylaminoethyl)-1H-indol-5-yl]-N-methyl-methanesulfonamide; 3-(2-(dimethylamino)ethyl)-N-methyl-1H-indole-5-methanesulfonamide; 3-[2-(dimethylamino)ethyl]-N-methylindole-5-methanesulfonamide; Sumatriptan; Sumatript√°n; Sumatriptanum

$$$$
