
     RDKit          3D

 33 36  0  0  0  0  0  0  0  0999 V2000
    2.4517   -0.0377   -0.4006 Cl  0  0  0  0  0  0  0  0  0  0  0  0
    0.6635   -2.3989   -0.0795 F   0  0  0  0  0  0  0  0  0  0  0  0
   -0.3376    1.0178   -5.3405 O   0  0  0  0  0  0  0  0  0  0  0  0
    1.4016    5.8597   -4.2442 O   0  0  0  0  0  0  0  0  0  0  0  0
   -2.6531    1.4967    0.7543 N   0  0  0  0  0  0  0  0  0  0  0  0
   -0.0845    2.9803   -4.3424 N   0  0  0  0  0  0  0  0  0  0  0  0
   -2.2677    2.8206   -0.7933 N   0  0  0  0  0  0  0  0  0  0  0  0
   -0.9610    6.6204    0.0324 N   0  0  0  0  0  0  0  0  0  0  0  0
   -2.6951    5.0457    0.4903 N   0  0  0  0  0  0  0  0  0  0  0  0
    0.5865    1.4779    2.2432 C   0  0  0  0  0  0  0  0  0  0  0  0
   -0.3681    0.3046    2.2648 C   0  0  0  0  0  0  0  0  0  0  0  0
   -0.2160    2.7037    2.1262 C   0  0  0  0  0  0  0  0  0  0  0  0
   -1.2095    2.6493    1.0429 C   0  0  0  0  0  0  0  0  0  0  0  0
   -1.6270    0.3246    1.3627 C   0  0  0  0  0  0  0  0  0  0  0  0
   -3.5654    1.3637   -0.9406 C   0  0  0  0  0  0  0  0  0  0  0  0
   -2.8559    1.7477   -2.7094 C   0  0  0  0  0  0  0  0  0  0  0  0
   -1.9419    1.1503   -3.5540 C   0  0  0  0  0  0  0  0  0  0  0  0
   -0.7735    1.7620   -4.4430 C   0  0  0  0  0  0  0  0  0  0  0  0
   -0.1119    4.1203   -3.4602 C   0  0  0  0  0  0  0  0  0  0  0  0
   -1.3139    4.8300   -1.4479 C   0  0  0  0  0  0  0  0  0  0  0  0
   -0.8469    3.9519   -2.4125 C   0  0  0  0  0  0  0  0  0  0  0  0
    0.5033    5.3576   -3.3510 C   0  0  0  0  0  0  0  0  0  0  0  0
   -0.6893    5.9919   -1.1674 C   0  0  0  0  0  0  0  0  0  0  0  0
   -2.2152    4.3564   -0.6239 C   0  0  0  0  0  0  0  0  0  0  0  0
    0.2417    6.2372   -2.1812 C   0  0  0  0  0  0  0  0  0  0  0  0
   -1.2872    1.2711   -1.0486 C   0  0  0  0  0  0  0  0  0  0  0  0
   -1.9439    6.1251    0.8170 C   0  0  0  0  0  0  0  0  0  0  0  0
    0.1425    1.2204   -1.0323 C   0  0  0  0  0  0  0  0  0  0  0  0
   -2.0431   -0.2925   -0.9406 C   0  0  0  0  0  0  0  0  0  0  0  0
    1.6151    5.0004   -5.3536 C   0  0  0  0  0  0  0  0  0  0  0  0
    0.7450   -0.0904   -0.8628 C   0  0  0  0  0  0  0  0  0  0  0  0
   -1.3873   -1.5189   -0.7468 C   0  0  0  0  0  0  0  0  0  0  0  0
    0.0129   -1.3846   -0.6842 C   0  0  0  0  0  0  0  0  0  0  0  0
  1 31  1  0
  2 33  1  0
  3 18  2  0
  4 22  1  0
  4 30  1  0
  5 13  1  0
  5 14  1  0
  5 15  1  0
  6 18  1  0
  6 19  1  0
  7 24  1  0
  7 26  1  0
  8 23  2  0
  8 27  1  0
  9 24  1  0
  9 27  2  0
 10 11  1  0
 10 12  1  0
 11 14  1  0
 12 13  1  0
 15 16  1  0
 16 17  2  0
 17 18  1  0
 19 21  2  0
 19 22  1  0
 20 21  1  0
 20 23  1  0
 20 24  2  0
 22 25  2  0
 23 25  1  0
 26 28  2  0
 26 29  1  0
 28 31  1  0
 29 32  2  0
 31 33  2  0
 32 33  1  0
M  END
>  <DRUGBANK_ID>  (1) 
DB11963

>  <COMMON_NAME>  (1) 
Dacomitinib

>  <CAS_NUMBER>  (1) 
1110813-31-4

>  <UNII>  (1) 
2XJX250C20

>  <SYNONYMS>  (1) 
Dacomitinib; Dacomitinib anhydrous; Dacomitinibum

$$$$
