
     RDKit          3D

 24 27  0  0  0  0  0  0  0  0999 V2000
    1.4180   -0.0341    0.2305 N   0  0  0  0  0  0  0  0  0  0  0  0
   -4.1241    1.3263   -4.2557 N   0  0  0  0  0  0  0  0  0  0  0  0
   -1.4674    0.0198   -0.1317 C   0  0  0  0  0  0  0  0  0  0  0  0
   -0.6577    1.2684    0.2418 C   0  0  0  0  0  0  0  0  0  0  0  0
   -0.7206   -1.2579    0.2577 C   0  0  0  0  0  0  0  0  0  0  0  0
   -2.8649    0.0501    0.5168 C   0  0  0  0  0  0  0  0  0  0  0  0
    0.7727    1.1791   -0.2653 C   0  0  0  0  0  0  0  0  0  0  0  0
    0.7177   -1.2251   -0.2524 C   0  0  0  0  0  0  0  0  0  0  0  0
   -3.6974    1.2558    0.0522 C   0  0  0  0  0  0  0  0  0  0  0  0
   -3.8915    1.3315   -1.4508 C   0  0  0  0  0  0  0  0  0  0  0  0
   -3.9277    2.5495   -2.1598 C   0  0  0  0  0  0  0  0  0  0  0  0
   -4.0327    0.1447   -2.1765 C   0  0  0  0  0  0  0  0  0  0  0  0
   -4.0491    2.4830   -3.5745 C   0  0  0  0  0  0  0  0  0  0  0  0
   -4.1298    0.1729   -3.5596 C   0  0  0  0  0  0  0  0  0  0  0  0
   -3.8465    3.8182   -1.5433 C   0  0  0  0  0  0  0  0  0  0  0  0
   -4.0916    3.6678   -4.2904 C   0  0  0  0  0  0  0  0  0  0  0  0
   -4.1540   -1.0859   -4.3097 C   0  0  0  0  0  0  0  0  0  0  0  0
   -3.8984    4.9907   -2.2885 C   0  0  0  0  0  0  0  0  0  0  0  0
   -4.0243    4.9164   -3.6680 C   0  0  0  0  0  0  0  0  0  0  0  0
   -3.1615   -1.3671   -5.2597 C   0  0  0  0  0  0  0  0  0  0  0  0
   -5.0975   -2.0868   -4.0139 C   0  0  0  0  0  0  0  0  0  0  0  0
   -3.1067   -2.6128   -5.8878 C   0  0  0  0  0  0  0  0  0  0  0  0
   -5.0242   -3.3429   -4.6172 C   0  0  0  0  0  0  0  0  0  0  0  0
   -4.0369   -3.5994   -5.5650 C   0  0  0  0  0  0  0  0  0  0  0  0
  1  7  1  0
  1  8  1  0
  2 13  2  0
  2 14  1  0
  3  4  1  0
  3  5  1  0
  3  6  1  0
  4  7  1  0
  5  8  1  0
  6  9  1  0
  9 10  1  0
 10 11  2  0
 10 12  1  0
 11 13  1  0
 11 15  1  0
 12 14  2  0
 13 16  1  0
 14 17  1  0
 15 18  2  0
 16 19  2  0
 17 20  2  0
 17 21  1  0
 18 19  1  0
 20 22  1  0
 21 23  2  0
 22 24  2  0
 23 24  1  0
M  END
>  <DRUGBANK_ID>  (1) 
DB13991

>  <COMMON_NAME>  (1) 
Pipequaline

>  <CAS_NUMBER>  (1) 
77472-98-1

>  <UNII>  (1) 
J3S205V4I2

>  <SYNONYMS>  (1) 
2-Phenyl-4-(2-(4-piperidyl)ethyl)quinoline; Pipequalina; Pipequaline; Pipequalinum

$$$$
