
     RDKit          3D

 18 19  0  0  0  0  0  0  0  0999 V2000
    1.3659    0.1526   -0.5635 S   0  0  0  0  0  0  0  0  0  0  0  0
    3.2328    0.0763    0.3481 S   0  0  0  0  0  0  0  0  0  0  0  0
    3.7890   -1.6285    0.2049 C   0  0  0  0  0  0  0  0  0  0  0  0
    5.1897   -1.7874    0.1489 N   0  0  0  0  0  0  0  0  0  0  0  0
    2.7273   -2.9383    0.1680 S   0  0  0  0  0  0  0  0  0  0  0  0
    0.6505    1.7507   -0.2442 C   0  0  0  0  0  0  0  0  0  0  0  0
    1.4947    2.8730   -0.1681 N   0  0  0  0  0  0  0  0  0  0  0  0
   -1.0300    1.8676   -0.1505 S   0  0  0  0  0  0  0  0  0  0  0  0
    1.1729    4.0172    0.6951 C   0  0  0  0  0  0  0  0  0  0  0  0
    0.9792    5.2999   -0.1118 C   0  0  0  0  0  0  0  0  0  0  0  0
    2.1889    5.5688   -0.9990 C   0  0  0  0  0  0  0  0  0  0  0  0
    2.5002    4.3583   -1.8760 C   0  0  0  0  0  0  0  0  0  0  0  0
    2.6345    3.0670   -1.0581 C   0  0  0  0  0  0  0  0  0  0  0  0
    5.8417   -2.9163   -0.5414 C   0  0  0  0  0  0  0  0  0  0  0  0
    6.5506   -3.8574    0.4323 C   0  0  0  0  0  0  0  0  0  0  0  0
    7.5138   -3.0901    1.3362 C   0  0  0  0  0  0  0  0  0  0  0  0
    6.8121   -1.9089    2.0052 C   0  0  0  0  0  0  0  0  0  0  0  0
    6.1121   -1.0056    0.9822 C   0  0  0  0  0  0  0  0  0  0  0  0
  1  6  1  0
  1  2  1  0
  2  3  1  0
  3  5  2  0
  3  4  1  0
  4 14  1  0
  4 18  1  0
  6  7  1  0
  6  8  2  0
  7 13  1  0
  7  9  1  0
  9 10  1  0
 10 11  1  0
 11 12  1  0
 12 13  1  0
 14 15  1  0
 15 16  1  0
 16 17  1  0
 17 18  1  0
M  END
>  <DRUGBANK_ID>  (1) 
DB14174

>  <COMMON_NAME>  (1) 
Dipentamethylenethiuram disulfide

>  <CAS_NUMBER>  (1) 
94-37-1

>  <UNII>  (1) 
CR113982E5

>  <SYNONYMS>  (1) 
1-Piperidinethiocarbonyl disulfide; 1,1'-(Dithiodicarbonothioyl)bispiperidine; Bis(1-piperidylthiocarbonyl) disulfide; Bis(1-piperidylthiocarbonyl)disulfide; Bis(pentamethylene)thiuram disulfide; Bis(piperidinothiocarbonyl)disulfide

$$$$
