
     RDKit          3D

 21 23  0  0  0  0  0  0  0  0999 V2000
   -0.8238   -1.4085   -0.0050 C   0  0  0  0  0  0  0  0  0  0  0  0
    0.4172   -0.7763   -0.0035 C   0  0  0  0  0  0  0  0  0  0  0  0
    0.4943    0.6143   -0.0035 C   0  0  0  0  0  0  0  0  0  0  0  0
   -0.6551    1.3893    0.0004 C   0  0  0  0  0  0  0  0  0  0  0  0
   -1.9106    0.7732    0.0112 C   0  0  0  0  0  0  0  0  0  0  0  0
   -1.9849   -0.6303    0.0032 C   0  0  0  0  0  0  0  0  0  0  0  0
   -3.1211    1.5846    0.0433 C   0  0  0  0  0  0  0  0  0  0  0  0
   -3.3864    2.5009   -0.9807 C   0  0  0  0  0  0  0  0  0  0  0  0
   -5.1946    2.2209    1.1445 C   0  0  0  0  0  0  0  0  0  0  0  0
   -4.0322    1.4507    1.0987 C   0  0  0  0  0  0  0  0  0  0  0  0
   -5.4767    3.1229    0.1002 C   0  0  0  0  0  0  0  0  0  0  0  0
   -4.5655    3.2470   -0.9776 C   0  0  0  0  0  0  0  0  0  0  0  0
   -4.8792    4.0612   -2.0698 C   0  0  0  0  0  0  0  0  0  0  0  0
   -6.1636    4.5805   -2.1920 C   0  0  0  0  0  0  0  0  0  0  0  0
   -6.9965    4.5781   -1.0843 C   0  0  0  0  0  0  0  0  0  0  0  0
   -6.6441    3.8977    0.0692 C   0  0  0  0  0  0  0  0  0  0  0  0
   -8.1822    5.2453   -1.0683 O   0  0  0  0  0  0  0  0  0  0  0  0
    1.5847   -1.4834   -0.0021 O   0  0  0  0  0  0  0  0  0  0  0  0
    1.6849    1.2290   -0.0029 F   0  0  0  0  0  0  0  0  0  0  0  0
   -6.0991    2.0324    2.2397 C   0  0  0  0  0  0  0  0  0  0  0  0
   -6.8418    1.8854    3.1270 N   0  0  0  0  0  0  0  0  0  0  0  0
  1  2  2  0
  2  3  1  0
  2 18  1  0
  3  4  2  0
  3 19  1  0
  4  5  1  0
  5  7  1  0
  5  6  2  0
  6  1  1  0
  7  8  2  0
  8 12  1  0
  9 20  1  0
  9 10  2  0
 10  7  1  0
 11 12  2  0
 11  9  1  0
 12 13  1  0
 13 14  2  0
 14 15  1  0
 15 16  2  0
 15 17  1  0
 16 11  1  0
 20 21  3  0
M  END
>  <DRUGBANK_ID>  (1) 
DB06875

>  <COMMON_NAME>  (1) 
ERB-196

>  <CAS_NUMBER>  (1) 
550997-55-2

>  <UNII>  (1) 
470CL5L4AC

$$$$
