
     RDKit          3D

 23 24  0  0  0  0  0  0  0  0999 V2000
    0.8186    0.0032   -0.1126 C   0  0  0  0  0  0  0  0  0  0  0  0
    3.2729    1.2371    3.1804 C   0  0  0  0  0  0  0  0  0  0  0  0
   -0.7710   -2.6791    1.6336 C   0  0  0  0  0  0  0  0  0  0  0  0
    2.0614   -1.0687    5.1356 C   0  0  0  0  0  0  0  0  0  0  0  0
    1.6956   -1.4573    6.4143 C   0  0  0  0  0  0  0  0  0  0  0  0
    0.5368   -2.0119    1.3962 C   0  0  0  0  0  0  0  0  0  0  0  0
   -1.5745   -1.5212    2.1448 C   0  0  0  0  0  0  0  0  0  0  0  0
    2.5898   -3.3353    4.5444 C   0  0  0  0  0  0  0  0  0  0  0  0
    1.0998    0.3073    2.3312 C   0  0  0  0  0  0  0  0  0  0  0  0
    2.6109   -1.9725    4.2221 C   0  0  0  0  0  0  0  0  0  0  0  0
    1.7875   -2.7878    6.7947 C   0  0  0  0  0  0  0  0  0  0  0  0
    2.1787   -3.7407    5.8455 C   0  0  0  0  0  0  0  0  0  0  0  0
    0.3468   -0.5155    1.2490 C   0  0  0  0  0  0  0  0  0  0  0  0
    1.4073   -3.0669    8.4506 Cl  0  0  0  0  0  0  0  0  0  0  0  0
    1.1890   -6.2017    5.2469 N   0  0  0  0  0  0  0  0  0  0  0  0
    2.6137    0.1484    2.4029 N   0  0  0  0  0  0  0  0  0  0  0  0
    3.6173   -5.9121    5.8743 O   0  0  0  0  0  0  0  0  0  0  0  0
    1.7760   -5.7246    7.5833 O   0  0  0  0  0  0  0  0  0  0  0  0
    3.0542   -2.3085    1.6121 O   0  0  0  0  0  0  0  0  0  0  0  0
    4.7739   -1.1584    2.9679 O   0  0  0  0  0  0  0  0  0  0  0  0
   -1.0891   -0.3598    1.4293 O   0  0  0  0  0  0  0  0  0  0  0  0
    2.3067   -5.4565    6.2699 S   0  0  0  0  0  0  0  0  0  0  0  0
    3.3695   -1.3927    2.6730 S   0  0  0  0  0  0  0  0  0  0  0  0
  5  4  2  0
  6  3  1  0
  7  3  1  0
 10  4  1  0
 10  8  2  0
 11  5  1  0
 12  8  1  0
 12 11  2  0
 13  1  1  0
 13  6  1  0
 13  9  1  0
 14 11  1  0
 16  2  1  0
 16  9  1  0
 21  7  1  0
 21 13  1  0
 22 12  1  0
 22 15  1  0
 22 17  2  0
 22 18  2  0
 23 10  1  0
 23 16  1  0
 23 19  2  0
 23 20  2  0
M  END
>  <DRUGBANK_ID>  (1) 
DB13405

>  <COMMON_NAME>  (1) 
Mefruside

>  <CAS_NUMBER>  (1) 
7195-27-9

>  <UNII>  (1) 
X1NS9SNS92

>  <SYNONYMS>  (1) 
Mefruside

$$$$
