B18
     RDKit          3D

 31 34  0  0  0  0  0  0  0  0999 V2000
    3.0365   -1.1198   -0.1485 C   0  0  0  0  0  0  0  0  0  0  0  0
    1.6901   -1.4764   -0.0156 C   0  0  0  0  0  0  0  0  0  0  0  0
    0.6952   -0.4611    0.0367 C   0  0  0  0  0  0  0  0  0  0  0  0
    1.0673    0.8819    0.0483 C   0  0  0  0  0  0  0  0  0  0  0  0
    2.3805    1.2692   -0.0890 C   0  0  0  0  0  0  0  0  0  0  0  0
    3.2892    0.2382   -0.3278 C   0  0  0  0  0  0  0  0  0  0  0  0
   -0.7173   -0.4549    0.0911 C   0  0  0  0  0  0  0  0  0  0  0  0
   -1.1613    0.8510    0.1229 C   0  0  0  0  0  0  0  0  0  0  0  0
   -0.0653    1.6596    0.1421 N   0  0  0  0  0  0  0  0  0  0  0  0
   -1.6579   -1.6083    0.1293 C   0  0  2  0  0  0  0  0  0  0  0  0
   -3.1249   -1.1125    0.1416 C   0  0  0  0  0  0  0  0  0  0  0  0
   -3.3061    0.2074   -0.4429 N   0  0  0  0  0  0  0  0  0  0  0  0
   -2.5403    1.2592    0.0357 C   0  0  0  0  0  0  0  0  0  0  0  0
   -2.9636    2.3736    0.2410 O   0  0  0  0  0  0  0  0  0  0  0  0
    4.1215   -2.1900   -0.1541 C   0  0  0  0  0  0  0  0  0  0  0  0
    3.7726   -3.3735   -0.1343 O   0  0  0  0  0  0  0  0  0  0  0  0
    5.4876   -1.9259   -0.2207 N   0  0  0  0  0  0  0  0  0  0  0  0
    6.0930   -0.7223   -0.0591 C   0  0  0  0  0  0  0  0  0  0  0  0
    5.8575    0.0486    1.4421 S   0  0  0  0  0  0  0  0  0  0  0  0
    6.1049    1.5020    0.5725 C   0  0  0  0  0  0  0  0  0  0  0  0
    6.9214    1.2755   -0.5221 C   0  0  0  0  0  0  0  0  0  0  0  0
    6.8760   -0.0861   -0.8987 N   0  0  0  0  0  0  0  0  0  0  0  0
    7.6844    2.2582   -1.3059 C   0  0  0  0  0  0  0  0  0  0  0  0
    7.6076    3.5976   -1.0354 N   0  0  0  0  0  0  0  0  0  0  0  0
    8.4379    1.9356   -2.2279 O   0  0  0  0  0  0  0  0  0  0  0  0
    6.9401    4.3949   -0.0121 C   0  0  0  0  0  0  0  0  0  0  0  0
    7.8130    4.8904    1.1481 C   0  0  0  0  0  0  0  0  0  0  0  0
    8.6310    6.0435    0.7570 N   0  0  0  0  0  0  0  0  0  0  0  0
    9.5949    5.6866   -0.2793 C   0  0  0  0  0  0  0  0  0  0  0  0
    9.3482    6.5656    1.9146 C   0  0  0  0  0  0  0  0  0  0  0  0
   -1.3851   -2.3916    1.4104 C   0  0  0  0  0  0  0  0  0  0  0  0
  1 15  1  0
  1  6  1  0
  1  2  2  0
  2  3  1  0
  3  4  2  0
  3  7  1  0
  4  5  1  0
  4  9  1  0
  5  6  2  0
  7 10  1  0
  7  8  2  0
  8  9  1  0
  8 13  1  0
 10 31  1  1
 10 11  1  0
 11 12  1  0
 12 13  1  0
 13 14  2  0
 15 16  2  0
 15 17  1  0
 17 18  1  0
 18 19  1  0
 18 22  2  0
 19 20  1  0
 20 21  2  0
 21 23  1  0
 21 22  1  0
 23 25  2  0
 23 24  1  0
 24 26  1  0
 26 27  1  0
 27 28  1  0
 28 30  1  0
 28 29  1  0
M  END
>  <DRUGBANK_ID>  (1) 
DB07406

>  <COMMON_NAME>  (1) 
(4R)-N-[4-({[2-(DIMETHYLAMINO)ETHYL]AMINO}CARBONYL)-1,3-THIAZOL-2-YL]-4-METHYL-1-OXO-2,3,4,9-TETRAHYDRO-1H-BETA-CARBOLINE-6-CARBOXAMIDE

$$$$
