
     RDKit          3D

 17 18  0  0  0  0  0  0  0  0999 V2000
   -0.3151    1.0902    0.1097 N   0  0  0  0  0  0  0  0  0  0  0  0
   -0.6916    2.4655    0.4796 C   0  0  0  0  0  0  0  0  0  0  0  0
   -1.2150    0.0420   -0.0860 C   0  0  0  0  0  0  0  0  0  0  0  0
    1.0108    0.6801    0.0348 N   0  0  0  0  0  0  0  0  0  0  0  0
   -0.1437    2.8550    1.8586 C   0  0  0  0  0  0  0  0  0  0  0  0
   -0.2363    3.4970   -0.5547 C   0  0  0  0  0  0  0  0  0  0  0  0
   -0.3803   -1.1950    0.0614 C   0  0  0  0  0  0  0  0  0  0  0  0
   -2.4222    0.0844   -0.2705 O   0  0  0  0  0  0  0  0  0  0  0  0
    1.0009   -0.6151   -0.0455 C   0  0  0  0  0  0  0  0  0  0  0  0
    1.2460    2.8753    2.0839 C   0  0  0  0  0  0  0  0  0  0  0  0
   -0.9879    3.2380    2.9116 C   0  0  0  0  0  0  0  0  0  0  0  0
    2.0999   -1.4018   -0.1820 N   0  0  0  0  0  0  0  0  0  0  0  0
    1.7847    3.2252    3.3225 C   0  0  0  0  0  0  0  0  0  0  0  0
   -0.4513    3.5853    4.1603 C   0  0  0  0  0  0  0  0  0  0  0  0
    0.9319    3.5682    4.3706 C   0  0  0  0  0  0  0  0  0  0  0  0
    3.5054    3.2224    3.4751 Cl  0  0  0  0  0  0  0  0  0  0  0  0
    1.5229    3.9783    5.9410 Cl  0  0  0  0  0  0  0  0  0  0  0  0
  1  2  1  0
  1  3  1  0
  1  4  1  0
  2  5  1  0
  2  6  1  0
  3  7  1  0
  3  8  2  0
  4  9  2  0
  5 10  2  0
  5 11  1  0
  7  9  1  0
  9 12  1  0
 10 13  1  0
 11 14  2  0
 13 15  2  0
 13 16  1  0
 14 15  1  0
 15 17  1  0
M  END
>  <DRUGBANK_ID>  (1) 
DB13801

>  <COMMON_NAME>  (1) 
Muzolimine

>  <CAS_NUMBER>  (1) 
55294-15-0

>  <UNII>  (1) 
07Z36289ZX

>  <SYNONYMS>  (1) 
Muzolimina; Muzolimine; Muzoliminum

$$$$
