
     RDKit          3D

 30 32  0  0  1  0  0  0  0  0999 V2000
    2.4377   -0.0903    0.0005 C   0  0  0  0  0  0  0  0  0  0  0  0
    1.6208    1.0496   -0.0008 N   0  0  0  0  0  0  0  0  0  0  0  0
    1.5789   -1.1883    0.0491 C   0  0  0  0  0  0  0  0  0  0  0  0
    0.2753    0.6710   -0.0010 C   0  0  0  0  0  0  0  0  0  0  0  0
    0.2450   -0.7230    0.0109 C   0  0  0  0  0  0  0  0  0  0  0  0
    3.8615    0.0350   -0.0150 C   0  0  0  0  0  0  0  0  0  0  0  0
    8.2563   -4.0513   -0.0630 C   0  0  0  0  0  0  0  0  0  0  0  0
    1.9819   -2.5851    0.0996 C   0  0  0  0  0  0  0  0  0  0  0  0
    6.7552   -4.1155    0.0823 C   0  0  0  0  0  0  0  0  0  0  0  0
    4.6825   -1.0101   -0.1313 C   0  0  0  0  0  0  0  0  0  0  0  0
    2.0793    2.4506   -0.0018 C   0  0  0  0  0  0  0  0  0  0  0  0
    8.8525   -5.2631   -0.0525 O   0  0  0  0  0  0  0  0  0  0  0  0
    8.9067   -3.0314   -0.1295 O   0  0  0  0  0  0  0  0  0  0  0  0
    6.3244   -3.2177    1.2371 C   0  0  0  0  0  0  0  0  0  0  0  0
    6.6771   -1.7296    1.2213 C   0  0  0  0  0  0  0  0  0  0  0  0
    2.7020   -3.0756    1.1941 C   0  0  0  0  0  0  0  0  0  0  0  0
    1.7214   -3.4279   -0.9895 C   0  0  0  0  0  0  0  0  0  0  0  0
    3.1408   -5.1074   -0.0272 C   0  0  0  0  0  0  0  0  0  0  0  0
    6.1693   -0.9594   -0.0151 C   0  0  0  0  0  0  0  0  0  0  0  0
   -0.9289    1.4042   -0.0045 C   0  0  0  0  0  0  0  0  0  0  0  0
   -0.9853   -1.4086    0.0076 C   0  0  0  0  0  0  0  0  0  0  0  0
    3.2982   -4.3377    1.1139 C   0  0  0  0  0  0  0  0  0  0  0  0
    2.2777   -4.7069   -1.0343 C   0  0  0  0  0  0  0  0  0  0  0  0
    3.8856   -6.2097   -0.1845 F   0  0  0  0  0  0  0  0  0  0  0  0
    6.6652   -3.8453    2.4741 O   0  0  0  0  0  0  0  0  0  0  0  0
    6.6906   -1.4838   -1.2244 O   0  0  0  0  0  0  0  0  0  0  0  0
    2.8470    2.8102    1.2786 C   0  0  0  0  0  0  0  0  0  0  0  0
    2.8510    2.8049   -1.2799 C   0  0  0  0  0  0  0  0  0  0  0  0
   -2.1741   -0.6924   -0.0018 C   0  0  0  0  0  0  0  0  0  0  0  0
   -2.1436    0.6965   -0.0050 C   0  0  0  0  0  0  0  0  0  0  0  0
  2  1  1  0
  3  1  2  0
  4  2  1  0
  5  3  1  0
  5  4  2  0
  6  1  1  0
  7  9  1  0
  8  3  1  0
  9 14  1  0
 10  6  2  0
 11  2  1  0
 12  7  1  0
 13  7  2  0
 14 15  1  0
 14 25  1  0
 15 19  1  0
 16  8  2  0
 17  8  1  0
 18 22  2  0
 19 10  1  0
 19 26  1  0
 20  4  1  0
 21  5  1  0
 22 16  1  0
 23 17  2  0
 23 18  1  0
 24 18  1  0
 27 11  1  0
 28 11  1  0
 29 21  2  0
 29 30  1  0
 30 20  2  0
M  END
>  <DRUGBANK_ID>  (1) 
DB01095

>  <SECONDARY_ACCESSION_NUMBERS>  (1) 
APRD00346

>  <COMMON_NAME>  (1) 
Fluvastatin

>  <CAS_NUMBER>  (1) 
93957-54-1

>  <UNII>  (1) 
4L066368AS

>  <SYNONYMS>  (1) 
Fluvastatin; fluvastatina; fluvastatine; fluvastatinum

$$$$
