T3S
     RDKit          3D

 22 24  0  0  0  0  0  0  0  0999 V2000
    0.7725    1.3743    0.2651 C   0  0  0  0  0  0  0  0  0  0  0  0
   -0.7366    1.4149    0.5471 C   0  0  0  0  0  0  0  0  0  0  0  0
   -1.4418    0.1232    0.2104 C   0  0  0  0  0  0  0  0  0  0  0  0
   -0.6128   -0.9790    0.8850 C   0  0  0  0  0  0  0  0  0  0  0  0
    0.8321   -1.0398    0.4071 C   0  0  0  0  0  0  0  0  0  0  0  0
    1.5621    0.1798    0.5988 N   0  0  0  0  0  0  0  0  0  0  0  0
    2.8093    0.0481   -0.2183 C   0  0  0  0  0  0  0  0  0  0  0  0
    2.7657   -0.0454   -1.8129 C   0  0  1  0  0  0  0  0  0  0  0  0
    2.0540   -1.2357   -2.3275 O   0  0  0  0  0  0  0  0  0  0  0  0
    2.1268    1.1567   -2.5072 C   0  0  1  0  0  0  0  0  0  0  0  0
    2.8477    1.5358   -3.6806 O   0  0  0  0  0  0  0  0  0  0  0  0
    0.7276    0.6628   -2.9182 C   0  0  0  0  0  0  0  0  0  0  0  0
    0.9296   -0.8309   -3.1754 C   0  0  2  0  0  0  0  0  0  0  0  0
   -0.3230   -1.7170   -3.0836 N   0  0  0  0  0  0  0  0  0  0  0  0
   -0.9385   -2.1447   -1.9223 C   0  0  0  0  0  0  0  0  0  0  0  0
   -2.0533   -2.8549   -1.6831 C   0  0  0  0  0  0  0  0  0  0  0  0
   -2.7231   -3.2991   -0.3656 C   0  0  0  0  0  0  0  0  0  0  0  0
   -2.7957   -3.1076   -2.9179 C   0  0  0  0  0  0  0  0  0  0  0  0
   -3.8415   -3.7368   -2.8970 O   0  0  0  0  0  0  0  0  0  0  0  0
   -2.2681   -2.5461   -4.0581 N   0  0  0  0  0  0  0  0  0  0  0  0
   -1.0212   -1.9624   -4.2513 C   0  0  0  0  0  0  0  0  0  0  0  0
   -0.6161   -1.6735   -5.3521 O   0  0  0  0  0  0  0  0  0  0  0  0
  1  2  1  0
  1  6  1  0
  2  3  1  0
  3  4  1  0
  4  5  1  0
  5  6  1  0
  6  7  1  0
  8  7  1  1
  8  9  1  0
  8 10  1  0
  9 13  1  0
 10 11  1  6
 10 12  1  0
 12 13  1  0
 13 14  1  1
 14 15  1  0
 14 21  1  0
 15 16  2  0
 16 17  1  0
 16 18  1  0
 18 19  2  0
 18 20  1  0
 20 21  1  0
 21 22  2  0
M  END
>  <DRUGBANK_ID>  (1) 
DB08596

>  <COMMON_NAME>  (1) 
5'-deoxy-5'-piperidin-1-ylthymidine

$$$$
