
     RDKit          3D

 33 36  0  0  0  0  0  0  0  0999 V2000
    0.8446   -0.1919    0.0159 C   0  0  0  0  0  0  0  0  0  0  0  0
    0.2499    0.1172   -1.6810 S   0  0  0  0  0  0  0  0  0  0  0  0
    0.8661   -0.7746   -2.6307 O   0  0  0  0  0  0  0  0  0  0  0  0
   -1.1690    0.3904   -1.6368 O   0  0  0  0  0  0  0  0  0  0  0  0
    0.9627    1.5081   -2.0868 N   0  0  0  0  0  0  0  0  0  0  0  0
    1.5850    2.0681   -0.9939 C   0  0  0  0  0  0  0  0  0  0  0  0
    2.9443    1.5259   -0.0771 C   0  0  0  0  0  0  0  0  0  0  0  0
    3.9957    2.5998    0.8272 C   0  0  0  0  0  0  0  0  0  0  0  0
    3.8114    4.3339    0.6997 C   0  0  0  0  0  0  0  0  0  0  0  0
    2.5596    5.0070   -0.3253 C   0  0  0  0  0  0  0  0  0  0  0  0
    1.3086    3.6161   -1.1247 C   0  0  0  0  0  0  0  0  0  0  0  0
    2.4461    6.4084    0.4173 C   0  0  0  0  0  0  0  0  0  0  0  0
    1.5042    7.5227    0.3762 C   0  0  0  0  0  0  0  0  0  0  0  0
    1.6780    8.5477    1.3199 C   0  0  0  0  0  0  0  0  0  0  0  0
    2.6225    8.4671    2.3570 C   0  0  0  0  0  0  0  0  0  0  0  0
    3.4124    7.3269    2.5503 C   0  0  0  0  0  0  0  0  0  0  0  0
    3.2932    6.3267    1.5699 C   0  0  0  0  0  0  0  0  0  0  0  0
    3.9817    5.1753    1.7174 O   0  0  0  0  0  0  0  0  0  0  0  0
    4.2903    7.3234    3.6310 O   0  0  0  0  0  0  0  0  0  0  0  0
    5.0905    6.1490    3.8569 C   0  0  0  0  0  0  0  0  0  0  0  0
    4.2941    5.0902    4.1518 F   0  0  0  0  0  0  0  0  0  0  0  0
    5.8619    5.8653    2.7776 F   0  0  0  0  0  0  0  0  0  0  0  0
    0.2684    7.6778   -0.5695 C   0  0  0  0  0  0  0  0  0  0  0  0
   -0.3550    8.7266   -0.6710 O   0  0  0  0  0  0  0  0  0  0  0  0
   -0.1611    6.6130   -1.3135 N   0  0  0  0  0  0  0  0  0  0  0  0
    0.5966    5.5296   -1.1601 C   0  0  0  0  0  0  0  0  0  0  0  0
    1.6889    5.1369   -2.5583 C   0  0  0  0  0  0  0  0  0  0  0  0
    2.9203    3.9943   -2.3804 C   0  0  0  0  0  0  0  0  0  0  0  0
    3.0964    3.3166   -0.8268 N   0  0  0  0  0  0  0  0  0  0  0  0
    1.8317    3.5123    0.6869 C   0  0  0  0  0  0  0  0  0  0  0  0
    0.5753    4.7112    0.4802 C   0  0  0  0  0  0  0  0  0  0  0  0
   -0.1675    5.2588    1.9341 Cl  0  0  0  0  0  0  0  0  0  0  0  0
    0.8944    4.9757   -4.1445 Cl  0  0  0  0  0  0  0  0  0  0  0  0
  1  2  1  0
  2  3  2  0
  2  4  2  0
  2  5  1  0
  5  6  1  0
  6  7  2  0
  6 11  1  0
  7  8  1  0
  8  9  2  0
  9 10  1  0
  9 18  1  0
 10 11  2  0
 10 12  1  0
 12 13  2  0
 12 17  1  0
 13 14  1  0
 13 23  1  0
 14 15  2  0
 15 16  1  0
 16 17  2  0
 16 19  1  0
 17 18  1  0
 19 20  1  0
 20 21  1  0
 20 22  1  0
 23 24  2  0
 23 25  1  0
 25 26  1  0
 26 27  2  0
 26 31  1  0
 27 28  1  0
 27 33  1  0
 28 29  2  0
 29 30  1  0
 30 31  2  0
 31 32  1  0
M  END
>  <DRUGBANK_ID>  (1) 
DB12375

>  <COMMON_NAME>  (1) 
Oglemilast

>  <CAS_NUMBER>  (1) 
778576-62-8

>  <UNII>  (1) 
67GXQ6WCC6

>  <SYNONYMS>  (1) 
Oglemilast

$$$$
