C0R
     RDKit          3D

 25 28  0  0  0  0  0  0  0  0999 V2000
    0.1006    0.2890   -0.7285 C   0  0  0  0  0  0  0  0  0  0  0  0
    1.7087    0.4714   -1.3940 C   0  0  0  0  0  0  0  0  0  0  0  0
    2.2519   -0.9202   -1.1513 C   0  0  0  0  0  0  0  0  0  0  0  0
    2.1242   -1.2560    0.2628 C   0  0  0  0  0  0  0  0  0  0  0  0
    0.8243   -1.5150    0.4761 C   0  0  0  0  0  0  0  0  0  0  0  0
    0.2588   -1.6053    1.8925 C   0  0  0  0  0  0  0  0  0  0  0  0
   -0.4220   -3.0229    1.9846 C   0  0  0  0  0  0  0  0  0  0  0  0
   -1.8069   -3.0680    1.1800 C   0  0  1  0  0  0  0  0  0  0  0  0
   -1.2865   -2.5507   -0.3723 C   0  0  2  0  0  0  0  0  0  0  0  0
   -0.2562   -1.3101   -0.6515 C   0  0  1  0  0  0  0  0  0  0  0  0
   -2.5104   -2.6979   -1.3149 C   0  0  2  0  0  0  0  0  0  0  0  0
   -2.7173   -4.1671   -1.2524 C   0  0  0  0  0  0  0  0  0  0  0  0
   -3.3523   -4.4703    0.0360 C   0  0  2  0  0  0  0  0  0  0  0  0
   -3.1156   -4.4562    1.4286 C   0  0  2  0  0  0  0  0  0  0  0  0
   -4.8929   -5.1375    0.8184 C   0  0  0  0  0  0  0  0  0  0  0  0
   -4.7811   -6.0876   -0.4969 C   0  0  0  0  0  0  0  0  0  0  0  0
   -3.4702   -6.2261    0.0461 C   0  0  2  0  0  0  0  0  0  0  0  0
   -4.3917   -2.9980    0.5166 C   0  0  0  0  0  0  0  0  0  0  0  0
   -0.4084   -1.3424   -2.2264 C   0  0  0  0  0  0  0  0  0  0  0  0
   -3.6860   -7.4601    1.0841 C   0  0  0  0  0  0  0  0  0  0  0  0
   -5.0986   -8.1271    1.3197 C   0  0  0  0  0  0  0  0  0  0  0  0
    2.3981   -1.7532   -1.9827 O   0  0  0  0  0  0  0  0  0  0  0  0
   -2.7732   -2.4526   -2.6827 O   0  0  0  0  0  0  0  0  0  0  0  0
   -2.6912   -8.0668    1.5019 O   0  0  0  0  0  0  0  0  0  0  0  0
   -5.2931   -9.2847    0.5152 O   0  0  0  0  0  0  0  0  0  0  0  0
  1  2  1  0
  1 10  1  0
  2  3  1  0
  3  4  1  0
  3 22  2  0
  4  5  2  0
  5  6  1  0
  5 10  1  0
  6  7  1  0
  8  7  1  1
  8  9  1  0
  8 14  1  0
  9 10  1  0
  9 11  1  6
 10 19  1  6
 11 12  1  0
 11 23  1  6
 12 13  1  0
 13 14  1  0
 13 17  1  0
 13 18  1  1
 14 15  1  1
 15 16  1  0
 16 17  1  0
 17 20  1  1
 20 21  1  0
 20 24  2  0
 21 25  1  0
M  END
>  <DRUGBANK_ID>  (1) 
DB04652

>  <COMMON_NAME>  (1) 
Corticosterone

>  <CAS_NUMBER>  (1) 
50-22-6

>  <UNII>  (1) 
W980KJ009P

>  <SYNONYMS>  (1) 
(11β)-11,21-dihydroxypregn-4-ene-3,20-dione; 11beta,21-Dihydroxy-4-pregnene-3,20-dione; 11β,21-dihydroxyprogesterone; 17-deoxycortisol; Kendall's compound B; Reichstein's substance H

$$$$
