3B9
     RDKit          3D

 32 35  0  0  0  0  0  0  0  0999 V2000
    1.3712   -0.2754    0.0511 C   0  0  0  0  0  0  0  0  0  0  0  0
   -6.1280    2.8494    1.3153 C   0  0  0  0  0  0  0  0  0  0  0  0
   -8.0665    1.6832    1.5607 C   0  0  0  0  0  0  0  0  0  0  0  0
   -5.9704    0.5749    1.4182 C   0  0  0  0  0  0  0  0  0  0  0  0
   -5.0096   -3.0536    1.3469 C   0  0  0  0  0  0  0  0  0  0  0  0
   -7.3541    0.4948    1.5426 C   0  0  0  0  0  0  0  0  0  0  0  0
   -7.9770   -0.7531    1.5525 C   0  0  0  0  0  0  0  0  0  0  0  0
   -7.2375   -1.8686    1.2663 C   0  0  0  0  0  0  0  0  0  0  0  0
   -5.8592   -1.7722    1.3027 C   0  0  0  0  0  0  0  0  0  0  0  0
   -4.1308   -3.1571    0.0819 C   0  0  0  0  0  0  0  0  0  0  0  0
   -7.4580    2.8629    1.4389 N   0  0  0  0  0  0  0  0  0  0  0  0
   -5.3630    1.7541    1.3174 N   0  0  0  0  0  0  0  0  0  0  0  0
   -5.2369   -0.5560    1.3666 N   0  0  0  0  0  0  0  0  0  0  0  0
   -5.5155    4.0598    1.1503 N   0  0  0  0  0  0  0  0  0  0  0  0
   -9.4479    1.6960    1.6091 N   0  0  0  0  0  0  0  0  0  0  0  0
   -5.8995   -4.3246    1.4199 C   0  0  0  0  0  0  0  0  0  0  0  0
   -4.1343   -3.0556    2.6170 C   0  0  0  0  0  0  0  0  0  0  0  0
   -3.1766   -2.0695   -0.0446 N   0  0  0  0  0  0  0  0  0  0  0  0
   -1.8205   -2.2770    0.0068 C   0  0  0  0  0  0  0  0  0  0  0  0
   -1.3296   -3.4097    0.0737 O   0  0  0  0  0  0  0  0  0  0  0  0
   -0.9198   -1.0873   -0.0028 C   0  0  0  0  0  0  0  0  0  0  0  0
    0.4597   -1.3290    0.0301 C   0  0  0  0  0  0  0  0  0  0  0  0
    0.9291    1.0434   -0.0183 C   0  0  0  0  0  0  0  0  0  0  0  0
   -0.4470    1.2975    0.0124 C   0  0  0  0  0  0  0  0  0  0  0  0
   -1.3702    0.2392   -0.0071 C   0  0  0  0  0  0  0  0  0  0  0  0
    1.7655    2.1373   -0.0872 O   0  0  0  0  0  0  0  0  0  0  0  0
    3.1001    1.9602   -0.3931 C   0  0  0  0  0  0  0  0  0  0  0  0
    3.5627    1.2057   -1.4789 C   0  0  0  0  0  0  0  0  0  0  0  0
    4.9361    1.0682   -1.7032 C   0  0  0  0  0  0  0  0  0  0  0  0
    5.8457    1.7479   -0.8946 C   0  0  0  0  0  0  0  0  0  0  0  0
    5.3828    2.5646    0.1364 C   0  0  0  0  0  0  0  0  0  0  0  0
    4.0151    2.6432    0.4084 C   0  0  0  0  0  0  0  0  0  0  0  0
  1 22  2  0
  1 23  1  0
  2 11  2  0
  2 12  1  0
  2 14  1  0
  3  6  2  0
  3 11  1  0
  3 15  1  0
  4  6  1  0
  4 12  2  0
  4 13  1  0
  5  9  1  0
  5 10  1  0
  5 16  1  0
  5 17  1  0
  6  7  1  0
  7  8  2  0
  8  9  1  0
  9 13  2  0
 10 18  1  0
 18 19  1  0
 19 20  2  0
 19 21  1  0
 21 22  1  0
 21 25  2  0
 23 24  2  0
 23 26  1  0
 24 25  1  0
 26 27  1  0
 27 28  2  0
 27 32  1  0
 28 29  1  0
 29 30  2  0
 30 31  1  0
 31 32  2  0
M  END
>  <DRUGBANK_ID>  (1) 
DB07041

>  <COMMON_NAME>  (1) 
N-[2-(2,4-diaminopyrido[2,3-d]pyrimidin-7-yl)-2-methylpropyl]-4-phenoxybenzamide

$$$$
