
     RDKit          3D

 28 31  0  0  1  0  0  0  0  0999 V2000
   -3.2278    0.9236    2.6429 C   0  0  0  0  0  0  0  0  0  0  0  0
   -2.5214    0.2448    3.8418 C   0  0  2  0  0  0  0  0  0  0  0  0
   -2.2231    1.2165    4.9680 C   0  0  0  0  0  0  0  0  0  0  0  0
   -2.6422    0.8709    6.2712 C   0  0  0  0  0  0  0  0  0  0  0  0
   -2.4924    1.7653    7.3217 C   0  0  0  0  0  0  0  0  0  0  0  0
   -1.9196    3.0120    7.0813 C   0  0  0  0  0  0  0  0  0  0  0  0
   -1.4462    3.3645    5.8029 C   0  0  0  0  0  0  0  0  0  0  0  0
   -1.5726    2.4564    4.7329 C   0  0  0  0  0  0  0  0  0  0  0  0
   -1.0542    2.8419    3.4704 C   0  0  0  0  0  0  0  0  0  0  0  0
   -0.5054    4.0925    3.2386 C   0  0  0  0  0  0  0  0  0  0  0  0
   -0.3888    4.9757    4.2946 C   0  0  0  0  0  0  0  0  0  0  0  0
   -0.8420    4.6112    5.5665 C   0  0  0  0  0  0  0  0  0  0  0  0
   -1.3231   -0.5268    3.4836 N   0  0  0  0  0  0  0  0  0  0  0  0
   -1.5298   -1.4993    2.3990 C   0  0  1  0  0  0  0  0  0  0  0  0
   -0.7457   -2.7867    2.6627 C   0  0  0  0  0  0  0  0  0  0  0  0
   -1.4756   -3.8321    1.8241 C   0  0  0  0  0  0  0  0  0  0  0  0
   -2.8639   -3.4223    1.8347 N   0  0  0  0  0  0  0  0  0  0  0  0
   -2.9795   -2.0012    2.1122 C   0  0  0  0  0  0  0  0  0  0  0  0
   -3.9514   -4.2219    2.0975 C   0  0  0  0  0  0  0  0  0  0  0  0
   -3.9850   -5.1971    3.0985 C   0  0  0  0  0  0  0  0  0  0  0  0
   -5.1334   -5.9790    3.3173 C   0  0  0  0  0  0  0  0  0  0  0  0
   -6.2805   -5.7963    2.5365 C   0  0  0  0  0  0  0  0  0  0  0  0
   -6.2701   -4.7945    1.5633 C   0  0  0  0  0  0  0  0  0  0  0  0
   -5.1157   -4.0417    1.3382 C   0  0  0  0  0  0  0  0  0  0  0  0
   -7.4855   -6.6931    2.6822 C   0  0  0  0  0  0  0  0  0  0  0  0
   -8.7518   -5.9532    3.0108 C   0  0  0  0  0  0  0  0  0  0  0  0
   -9.7642   -5.9167    2.3165 O   0  0  0  0  0  0  0  0  0  0  0  0
   -8.7067   -5.3056    4.1897 O   0  0  0  0  0  0  0  0  0  0  0  0
  2 13  1  0
  2  3  1  0
  2  1  1  6
  3  4  2  0
  3  8  1  0
  4  5  1  0
  5  6  2  0
  6  7  1  0
  7  8  2  0
  7 12  1  0
  8  9  1  0
  9 10  2  0
 10 11  1  0
 11 12  2  0
 14 15  1  0
 14 18  1  0
 14 13  1  1
 15 16  1  0
 16 17  1  0
 17 18  1  0
 17 19  1  0
 19 20  2  0
 19 24  1  0
 20 21  1  0
 21 22  2  0
 22 23  1  0
 22 25  1  0
 23 24  2  0
 25 26  1  0
 26 27  2  0
 26 28  1  0
M  END
>  <DRUGBANK_ID>  (1) 
DB12388

>  <COMMON_NAME>  (1) 
Evocalcet

>  <CAS_NUMBER>  (1) 
870964-67-3

>  <UNII>  (1) 
E58MLH082P

>  <SYNONYMS>  (1) 
Evocalcet

$$$$
