
     RDKit          3D

 27 30  0  0  0  0  0  0  0  0999 V2000
    1.4071   -0.4960   -0.4930 C   0  0  0  0  0  0  0  0  0  0  0  0
    0.4974   -1.5225   -0.2259 C   0  0  0  0  0  0  0  0  0  0  0  0
   -0.8837   -1.2953   -0.2241 C   0  0  0  0  0  0  0  0  0  0  0  0
   -1.3786   -0.0371   -0.5162 C   0  0  0  0  0  0  0  0  0  0  0  0
   -0.4748    0.9710   -0.8835 C   0  0  0  0  0  0  0  0  0  0  0  0
    0.9360    0.7525   -0.8807 C   0  0  0  0  0  0  0  0  0  0  0  0
    2.2256    1.9984   -1.0211 S   0  0  0  0  0  0  0  0  0  0  0  0
    1.5594    3.2911   -2.0938 C   0  0  0  0  0  0  0  0  0  0  0  0
    0.1907    4.0277   -1.8482 C   0  0  0  0  0  0  0  0  0  0  0  0
    0.1978    5.0914   -0.7331 C   0  0  0  0  0  0  0  0  0  0  0  0
    1.1377    4.9837    0.2570 C   0  0  0  0  0  0  0  0  0  0  0  0
   -0.5429    6.2084   -0.4550 C   0  0  0  0  0  0  0  0  0  0  0  0
   -0.0468    7.1996    0.6077 C   0  0  0  0  0  0  0  0  0  0  0  0
    0.8301    6.8054    1.6915 C   0  0  0  0  0  0  0  0  0  0  0  0
    1.1124    5.5077    1.5665 C   0  0  0  0  0  0  0  0  0  0  0  0
    1.4872    5.1339    2.9049 C   0  0  0  0  0  0  0  0  0  0  0  0
    1.9822    6.9845    2.6505 N   0  0  0  0  0  0  0  0  0  0  0  0
    1.2408    6.2419    3.7698 C   0  0  0  0  0  0  0  0  0  0  0  0
    2.3247    3.9055    3.0355 C   0  0  0  0  0  0  0  0  0  0  0  0
    1.3934    2.7111    3.1182 C   0  0  2  0  0  0  0  0  0  0  0  0
    0.7122    0.5539    2.6108 C   0  0  0  0  0  0  0  0  0  0  0  0
    1.9041    1.3895    2.7277 N   0  0  0  0  0  0  0  0  0  0  0  0
    0.1648    2.8773    2.2408 C   0  0  0  0  0  0  0  0  0  0  0  0
   -0.2427    1.4963    1.9628 C   0  0  0  0  0  0  0  0  0  0  0  0
    2.8373    0.8200    3.6613 C   0  0  0  0  0  0  0  0  0  0  0  0
    2.5115    2.5162    0.3579 O   0  0  0  0  0  0  0  0  0  0  0  0
    3.3389    1.4231   -1.6445 O   0  0  0  0  0  0  0  0  0  0  0  0
  1  2  2  0
  1  6  1  0
  2  3  1  0
  3  4  2  0
  4  5  1  0
  5  6  2  0
  6  7  1  0
  7  8  1  0
  7 26  2  0
  7 27  2  0
  8  9  1  0
  9 10  1  0
 10 12  1  0
 11 10  2  0
 11 15  1  0
 12 13  2  0
 13 14  1  0
 14 17  1  0
 14 15  2  0
 16 15  1  0
 16 18  2  0
 16 19  1  0
 17 18  1  0
 20 19  1  6
 20 23  1  0
 21 22  1  0
 21 24  1  0
 22 20  1  0
 22 25  1  0
 23 24  1  0
M  END
>  <DRUGBANK_ID>  (1) 
DB00216

>  <SECONDARY_ACCESSION_NUMBERS>  (1) 
APRD00945

>  <COMMON_NAME>  (1) 
Eletriptan

>  <CAS_NUMBER>  (1) 
143322-58-1

>  <UNII>  (1) 
22QOO9B8KI

>  <SYNONYMS>  (1) 
Eletriptan; élétriptan; Eletriptán; Eletriptanum

$$$$
