
     RDKit          3D

 10  9  0  0  1  0  0  0  0  0999 V2000
    0.9443   -0.0709   -0.0433 C   0  0  0  0  0  0  0  0  0  0  0  0
   -1.6557    1.7337    0.3079 C   0  0  0  0  0  0  0  0  0  0  0  0
    0.4377    4.0959    2.6309 C   0  0  0  0  0  0  0  0  0  0  0  0
    0.9443    5.0363    1.5495 C   0  0  1  0  0  0  0  0  0  0  0  0
    0.4376    4.5701    0.1944 C   0  0  0  0  0  0  0  0  0  0  0  0
    0.2943    1.7338    0.3079 As  0  0  0  0  0  3  0  0  0  0  0  0
    0.4543    6.3967    1.8143 N   0  0  0  0  0  0  0  0  0  0  0  0
   -0.2930    5.3362   -0.5087 O   0  0  0  0  0  0  0  0  0  0  0  0
    0.7807    3.2786   -0.2859 O   0  0  0  0  0  0  0  0  0  0  0  0
    1.0410    2.4209    2.3049 S   0  0  0  0  0  0  0  0  0  0  0  0
  4  3  1  0
  4  7  1  1
  5  4  1  0
  6  1  1  0
  6  2  1  0
  8  5  2  0
  9  5  1  0
 10  3  1  0
 10  6  1  0
M  END
>  <DRUGBANK_ID>  (1) 
DB03963

>  <SECONDARY_ACCESSION_NUMBERS>  (1) 
EXPT00832

>  <COMMON_NAME>  (1) 
S-(Dimethylarsenic)Cysteine

$$$$
