1496
     RDKit          3D

 25 27  0  0  0  0  0  0  0  0999 V2000
    1.1550    0.1648   -0.4577 S   0  0  0  0  0  0  0  0  0  0  0  0
   11.4309    2.7926   -2.5168 F   0  0  0  0  0  0  0  0  0  0  0  0
   11.8139    3.6938   -0.5744 F   0  0  0  0  0  0  0  0  0  0  0  0
   10.3871    2.0826   -0.7782 F   0  0  0  0  0  0  0  0  0  0  0  0
    7.1096    2.2253   -0.8462 O   0  0  0  0  0  0  0  0  0  0  0  0
    4.5101    2.2254    1.8563 O   0  0  0  0  0  0  0  0  0  0  0  0
    4.3900   -2.1410    1.7418 O   0  0  0  0  0  0  0  0  0  0  0  0
    3.5104    1.2691    0.0412 N   0  0  0  0  0  0  0  0  0  0  0  0
    3.4675   -1.0504   -0.0370 N   0  0  0  0  0  0  0  0  0  0  0  0
    5.2439    0.0334    1.1362 C   0  0  0  0  0  0  0  0  0  0  0  0
    6.1880    0.0569   -0.0820 C   0  0  0  0  0  0  0  0  0  0  0  0
    7.1230    1.1959    0.0622 C   0  0  0  0  0  0  0  0  0  0  0  0
    4.4136    1.2847    1.0705 C   0  0  0  0  0  0  0  0  0  0  0  0
    4.3578   -1.1616    0.9938 C   0  0  0  0  0  0  0  0  0  0  0  0
    8.0129    3.1469   -0.3749 C   0  0  0  0  0  0  0  0  0  0  0  0
    8.0044    1.4530    1.0828 C   0  0  0  0  0  0  0  0  0  0  0  0
    8.4457    4.2441   -1.2338 C   0  0  0  0  0  0  0  0  0  0  0  0
    8.5266    2.7268    0.8359 C   0  0  0  0  0  0  0  0  0  0  0  0
    9.7903    4.2995   -1.6630 C   0  0  0  0  0  0  0  0  0  0  0  0
    2.7842    0.1280   -0.1432 C   0  0  0  0  0  0  0  0  0  0  0  0
    7.5991    5.3285   -1.5247 C   0  0  0  0  0  0  0  0  0  0  0  0
   10.2528    5.4398   -2.3568 C   0  0  0  0  0  0  0  0  0  0  0  0
   10.8164    3.2219   -1.3784 C   0  0  0  0  0  0  0  0  0  0  0  0
    8.0672    6.4299   -2.2594 C   0  0  0  0  0  0  0  0  0  0  0  0
    9.4007    6.4988   -2.6499 C   0  0  0  0  0  0  0  0  0  0  0  0
  1 20  2  0
  2 23  1  0
  3 23  1  0
  4 23  1  0
  5 12  1  0
  5 15  1  0
  6 13  2  0
  7 14  2  0
  8 13  1  0
  8 20  1  0
  9 14  1  0
  9 20  1  0
 10 11  1  0
 10 13  1  0
 10 14  1  0
 11 12  1  0
 12 16  2  0
 15 17  1  0
 15 18  2  0
 16 18  1  0
 17 19  2  0
 17 21  1  0
 19 22  1  0
 19 23  1  0
 21 24  2  0
 22 25  2  0
 24 25  1  0
M  END
>  <DRUGBANK_ID>  (1) 
DB01496

>  <COMMON_NAME>  (1) 
Dihydro-2-thioxo-5-((5-(2-(trifluoromethyl)phenyl)-2-furanyl)methyl)-4,6(1H,5H)-pyrimidinedione

>  <CAS_NUMBER>  (1) 
959343-20-5

>  <UNII>  (1) 
R1JI58032B

$$$$
