22M
     RDKit          3D

 19 21  0  0  0  0  0  0  0  0999 V2000
    2.1803   -0.6933   -0.0148 C   0  0  0  0  0  0  0  0  0  0  0  0
    2.1692    0.7091   -0.0307 C   0  0  0  0  0  0  0  0  0  0  0  0
    3.4836    1.4382   -0.0994 C   0  0  0  0  0  0  0  0  0  0  0  0
    3.5932    2.7329   -0.1244 N   0  0  0  0  0  0  0  0  0  0  0  0
    4.6648    0.7709   -0.1434 N   0  0  0  0  0  0  0  0  0  0  0  0
    0.9386    1.3964    0.0102 C   0  0  0  0  0  0  0  0  0  0  0  0
   -0.2415    0.6300    0.0449 C   0  0  0  0  0  0  0  0  0  0  0  0
   -0.2267   -0.7625    0.0445 C   0  0  0  0  0  0  0  0  0  0  0  0
    0.9989   -1.4355    0.0258 C   0  0  0  0  0  0  0  0  0  0  0  0
   -1.5670   -1.2076    0.0357 C   0  0  0  0  0  0  0  0  0  0  0  0
   -2.3863   -0.1002    0.0089 C   0  0  0  0  0  0  0  0  0  0  0  0
   -3.8381   -0.0541   -0.1142 C   0  0  0  0  0  0  0  0  0  0  0  0
   -4.6075   -0.7096    0.8616 C   0  0  0  0  0  0  0  0  0  0  0  0
   -5.9977   -0.7522    0.7682 C   0  0  0  0  0  0  0  0  0  0  0  0
   -6.6340   -0.1536   -0.3134 C   0  0  0  0  0  0  0  0  0  0  0  0
   -5.8799    0.4830   -1.3013 C   0  0  0  0  0  0  0  0  0  0  0  0
   -4.4767    0.5396   -1.2186 C   0  0  0  0  0  0  0  0  0  0  0  0
   -3.7271    1.2083   -2.3396 C   0  0  0  0  0  0  0  0  0  0  0  0
   -1.5688    1.0086    0.0711 N   0  0  0  0  0  0  0  0  0  0  0  0
  1  2  2  0
  1  9  1  0
  2  3  1  0
  2  6  1  0
  3  4  2  0
  3  5  1  0
  6  7  2  0
  7  8  1  0
  7 19  1  0
  8  9  2  0
  8 10  1  0
 10 11  2  0
 11 12  1  0
 11 19  1  0
 12 13  2  0
 12 17  1  0
 13 14  1  0
 14 15  2  0
 15 16  1  0
 16 17  2  0
 17 18  1  0
M  END
>  <DRUGBANK_ID>  (1) 
DB06918

>  <COMMON_NAME>  (1) 
2-(2-METHYLPHENYL)-1H-INDOLE-6-CARBOXIMIDAMIDE

$$$$
