
     RDKit          3D

 21 23  0  0  0  0  0  0  0  0999 V2000
   -0.9765   -2.0320    0.0534 C   0  0  0  0  0  0  0  0  0  0  0  0
    0.1268   -1.1722    0.0405 C   0  0  0  0  0  0  0  0  0  0  0  0
   -0.0894    0.2048   -0.0135 C   0  0  0  0  0  0  0  0  0  0  0  0
    1.0613    1.1060    0.0237 C   0  0  0  0  0  0  0  0  0  0  0  0
   -1.3872    0.7183   -0.0460 C   0  0  0  0  0  0  0  0  0  0  0  0
    1.3690   -1.7483    0.1445 O   0  0  0  0  0  0  0  0  0  0  0  0
    2.3875    0.4874    0.2627 C   0  0  0  0  0  0  0  0  0  0  0  0
   -2.4791   -0.1391   -0.0461 C   0  0  0  0  0  0  0  0  0  0  0  0
    2.4554   -0.9231   -0.3106 C   0  0  1  0  0  0  0  0  0  0  0  0
   -2.2827   -1.5198    0.0051 C   0  0  0  0  0  0  0  0  0  0  0  0
    0.9032    2.3257   -0.0429 O   0  0  0  0  0  0  0  0  0  0  0  0
   -1.6655    2.0593   -0.0541 O   0  0  0  0  0  0  0  0  0  0  0  0
    3.7889   -1.5926    0.0341 C   0  0  0  0  0  0  0  0  0  0  0  0
    4.0611   -2.9000   -0.4010 C   0  0  0  0  0  0  0  0  0  0  0  0
    4.8147   -0.8997    0.7080 C   0  0  0  0  0  0  0  0  0  0  0  0
    5.3374   -3.4580   -0.2356 C   0  0  0  0  0  0  0  0  0  0  0  0
    6.0807   -1.4504    0.8713 C   0  0  0  0  0  0  0  0  0  0  0  0
    6.3419   -2.7148    0.3778 C   0  0  0  0  0  0  0  0  0  0  0  0
    7.6165   -3.1751    0.5142 O   0  0  0  0  0  0  0  0  0  0  0  0
   -3.2879   -2.4509    0.0217 O   0  0  0  0  0  0  0  0  0  0  0  0
   -4.6197   -1.9392   -0.0095 C   0  0  0  0  0  0  0  0  0  0  0  0
  1 10  2  0
  2  1  1  0
  2  6  1  0
  3  2  2  0
  3  4  1  0
  3  5  1  0
  4 11  2  0
  4  7  1  0
  5 12  1  0
  5  8  2  0
  6  9  1  0
  7  9  1  0
  8 10  1  0
  9 13  1  1
 10 20  1  0
 13 14  2  0
 13 15  1  0
 14 16  1  0
 15 17  2  0
 16 18  2  0
 17 18  1  0
 18 19  1  0
 20 21  1  0
M  END
>  <DRUGBANK_ID>  (1) 
DB08517

>  <COMMON_NAME>  (1) 
Sakuranetin

>  <CAS_NUMBER>  (1) 
2957-21-3

>  <UNII>  (1) 
3O38P61299

>  <SYNONYMS>  (1) 
(2S)-sakuranetin; (S)-(âˆ’)-4',5-dihydroxy-7-methoxyflavanone; 4',5-dihydroxy-7-methoxyflavanone; 5-hydroxy-2-(4-hydroxyphenyl)-7-methoxy-chroman-4-one; 5,4'-Dihydroxy-7-methoxyflavanone; Naringenin 7-methyl ether

$$$$
