IIE
     RDKit          3D

 32 35  0  0  0  0  0  0  0  0999 V2000
    2.1292   -0.7047   -0.0068 C   0  0  0  0  0  0  0  0  0  0  0  0
    0.9175   -1.4169   -0.0069 C   0  0  0  0  0  0  0  0  0  0  0  0
   -0.2824   -0.6821   -0.0048 C   0  0  0  0  0  0  0  0  0  0  0  0
   -0.2566    0.7188   -0.0185 C   0  0  0  0  0  0  0  0  0  0  0  0
    0.9671    1.4067   -0.0133 C   0  0  0  0  0  0  0  0  0  0  0  0
    2.1560    0.6865   -0.0049 C   0  0  0  0  0  0  0  0  0  0  0  0
   -1.6207   -1.0576    0.0367 N   0  0  0  0  0  0  0  0  0  0  0  0
   -2.4169    0.0968    0.0399 C   0  0  0  0  0  0  0  0  0  0  0  0
   -1.5843    1.1861   -0.0184 C   0  0  0  0  0  0  0  0  0  0  0  0
   -3.8382    0.0644    0.1494 C   0  0  0  0  0  0  0  0  0  0  0  0
   -4.5869    1.2120    0.0248 N   0  0  0  0  0  0  0  0  0  0  0  0
   -6.0722    1.2381    0.0066 C   0  0  0  0  0  0  0  0  0  0  0  0
   -6.7450   -0.1306    0.1335 C   0  0  0  0  0  0  0  0  0  0  0  0
   -6.4930   -0.9577   -1.1258 C   0  0  0  0  0  0  0  0  0  0  0  0
   -6.9525   -0.3260   -2.3646 N   0  0  0  0  0  0  0  0  0  0  0  0
   -6.3482    1.0180   -2.4943 C   0  0  0  0  0  0  0  0  0  0  0  0
   -6.6093    1.8976   -1.2726 C   0  0  0  0  0  0  0  0  0  0  0  0
   -6.5885   -1.1821   -3.5284 C   0  0  0  0  0  0  0  0  0  0  0  0
   -5.0713   -1.3412   -3.7765 C   0  0  0  0  0  0  0  0  0  0  0  0
   -7.2182   -2.5775   -3.3847 C   0  0  0  0  0  0  0  0  0  0  0  0
   -2.1474   -2.4465    0.0740 C   0  0  0  0  0  0  0  0  0  0  0  0
   -2.8983   -2.7819    1.3787 C   0  0  0  0  0  0  0  0  0  0  0  0
   -5.1431   -2.4477    3.3646 C   0  0  0  0  0  0  0  0  0  0  0  0
   -6.0927   -2.5452    4.3896 C   0  0  0  0  0  0  0  0  0  0  0  0
   -5.0990   -3.4024    2.3384 C   0  0  0  0  0  0  0  0  0  0  0  0
   -6.9099   -3.6679    4.4610 C   0  0  0  0  0  0  0  0  0  0  0  0
   -6.8147   -4.6630    3.4905 C   0  0  0  0  0  0  0  0  0  0  0  0
   -5.9860   -4.4789    2.3769 C   0  0  0  0  0  0  0  0  0  0  0  0
   -4.1802   -3.3294    1.2570 N   0  0  0  0  0  0  0  0  0  0  0  0
   -2.3509   -2.6098    2.4692 O   0  0  0  0  0  0  0  0  0  0  0  0
   -8.0555   -3.8213    5.7361 Cl  0  0  0  0  0  0  0  0  0  0  0  0
   -4.3593   -1.0257    0.3402 O   0  0  0  0  0  0  0  0  0  0  0  0
  1  2  2  0
  1  6  1  0
  2  3  1  0
  3  4  2  0
  3  7  1  0
  4  5  1  0
  4  9  1  0
  5  6  2  0
  7  8  1  0
  7 21  1  0
  8  9  2  0
  8 10  1  0
 10 11  1  0
 10 32  2  0
 11 12  1  0
 12 13  1  0
 12 17  1  0
 13 14  1  0
 14 15  1  0
 15 16  1  0
 15 18  1  0
 16 17  1  0
 18 19  1  0
 18 20  1  0
 21 22  1  0
 22 29  1  0
 22 30  2  0
 23 24  2  0
 23 25  1  0
 24 26  1  0
 25 28  2  0
 25 29  1  0
 26 27  2  0
 26 31  1  0
 27 28  1  0
M  END
>  <DRUGBANK_ID>  (1) 
DB07974

>  <COMMON_NAME>  (1) 
1-{2-[(4-CHLOROPHENYL)AMINO]-2-OXOETHYL}-N-(1-ISOPROPYLPIPERIDIN-4-YL)-1H-INDOLE-2-CARBOXAMIDE

$$$$
