826
     RDKit          3D

 30 34  0  0  0  0  0  0  0  0999 V2000
    2.2230    0.0286    0.0172 O   0  0  0  0  0  0  0  0  0  0  0  0
    0.8686    0.0132   -0.1534 C   0  0  0  0  0  0  0  0  0  0  0  0
    0.1731   -1.1734   -0.3301 C   0  0  0  0  0  0  0  0  0  0  0  0
   -1.2351   -1.1679   -0.3435 C   0  0  0  0  0  0  0  0  0  0  0  0
   -1.9744    0.0158   -0.1787 C   0  0  0  0  0  0  0  0  0  0  0  0
   -1.2407    1.2128   -0.0611 C   0  0  0  0  0  0  0  0  0  0  0  0
    0.1720    1.2095   -0.0471 C   0  0  0  0  0  0  0  0  0  0  0  0
   -3.5141    0.0402   -0.1624 C   0  0  0  0  0  0  0  0  0  0  0  0
   -4.1004    1.0995   -0.2650 O   0  0  0  0  0  0  0  0  0  0  0  0
   -4.1906   -1.1923   -0.0646 N   0  0  0  0  0  0  0  0  0  0  0  0
   -5.4556   -1.4897   -0.7484 C   0  0  0  0  0  0  0  0  0  0  0  0
   -5.3455   -2.9019   -1.3740 C   0  0  0  0  0  0  0  0  0  0  0  0
   -4.7468   -3.8664   -0.3900 C   0  0  0  0  0  0  0  0  0  0  0  0
   -4.0937   -3.4521    0.7535 C   0  0  0  0  0  0  0  0  0  0  0  0
   -3.9700   -2.0149    1.1113 C   0  0  0  0  0  0  0  0  0  0  0  0
   -3.5978   -4.5703    1.4167 N   0  0  0  0  0  0  0  0  0  0  0  0
   -4.0006   -5.7095    0.7011 C   0  0  0  0  0  0  0  0  0  0  0  0
   -4.6922   -5.2701   -0.4375 C   0  0  0  0  0  0  0  0  0  0  0  0
   -5.1866   -6.1976   -1.3716 C   0  0  0  0  0  0  0  0  0  0  0  0
   -5.0055   -7.5583   -1.1527 C   0  0  0  0  0  0  0  0  0  0  0  0
   -4.3375   -7.9964   -0.0149 C   0  0  0  0  0  0  0  0  0  0  0  0
   -3.8251   -7.0899    0.9293 C   0  0  0  0  0  0  0  0  0  0  0  0
   -2.8810   -4.6159    2.7147 C   0  0  0  0  0  0  0  0  0  0  0  0
   -1.5203   -3.9452    2.7395 C   0  0  0  0  0  0  0  0  0  0  0  0
   -1.4284   -2.5561    2.7920 C   0  0  0  0  0  0  0  0  0  0  0  0
   -0.2376   -1.8687    2.5900 C   0  0  0  0  0  0  0  0  0  0  0  0
    0.9410   -2.5786    2.5308 C   0  0  0  0  0  0  0  0  0  0  0  0
    2.1269   -1.9512    2.2930 O   0  0  0  0  0  0  0  0  0  0  0  0
    0.9171   -3.9535    2.7178 C   0  0  0  0  0  0  0  0  0  0  0  0
   -0.3098   -4.6404    2.8021 C   0  0  0  0  0  0  0  0  0  0  0  0
  1  2  1  0
  2  3  2  0
  2  7  1  0
  3  4  1  0
  4  5  2  0
  5  6  1  0
  5  8  1  0
  6  7  2  0
  8  9  2  0
  8 10  1  0
 10 11  1  0
 10 15  1  0
 11 12  1  0
 12 13  1  0
 13 14  2  0
 13 18  1  0
 14 15  1  0
 14 16  1  0
 16 17  1  0
 16 23  1  0
 17 18  2  0
 17 22  1  0
 18 19  1  0
 19 20  2  0
 20 21  1  0
 21 22  2  0
 23 24  1  0
 24 25  2  0
 24 30  1  0
 25 26  1  0
 26 27  2  0
 27 28  1  0
 27 29  1  0
 29 30  2  0
M  END
>  <DRUGBANK_ID>  (1) 
DB04030

>  <SECONDARY_ACCESSION_NUMBERS>  (1) 
EXPT00323

>  <COMMON_NAME>  (1) 
1,3,4,9-Tetrahydro-2-(Hydroxybenzoyl)-9-[(4-Hydroxyphenyl)Methyl]-6-Methoxy-2h-Pyrido[3,4-B]Indole

$$$$
