EPN
     RDKit          3D

 14 14  0  0  0  0  0  0  0  0999 V2000
    1.2869   -0.3262   -0.3553 C   0  0  0  0  0  0  0  0  0  0  0  0
    0.5972    0.0699   -1.5294 O   0  0  0  0  0  0  0  0  0  0  0  0
    0.4943   -1.3697    0.4327 C   0  0  0  0  0  0  0  0  0  0  0  0
    0.9089   -1.4726    1.9165 C   0  0  0  0  0  0  0  0  0  0  0  0
    0.2782   -0.5544    2.8687 O   0  0  0  0  0  0  0  0  0  0  0  0
    1.8798    2.7018    3.4777 C   0  0  0  0  0  0  0  0  0  0  0  0
    1.7871    3.2313    2.1879 C   0  0  0  0  0  0  0  0  0  0  0  0
    2.4611    4.4750    1.8015 N   0  0  0  0  0  0  0  0  0  0  0  0
    2.4431    4.8003    0.6124 O   0  0  0  0  0  0  0  0  0  0  0  0
    2.9991    5.1384    2.7098 O   0  0  0  0  0  0  0  0  0  0  0  0
    0.9551    2.6146    1.2621 C   0  0  0  0  0  0  0  0  0  0  0  0
    0.2144    1.4933    1.6479 C   0  0  0  0  0  0  0  0  0  0  0  0
    0.6073    0.7690    2.7577 C   0  0  0  0  0  0  0  0  0  0  0  0
    1.2947    1.4498    3.7579 C   0  0  0  0  0  0  0  0  0  0  0  0
  1  2  1  0
  1  3  1  0
  3  4  1  0
  4  5  1  0
  5 13  1  0
  6  7  2  0
  6 14  1  0
  7  8  1  0
  7 11  1  0
  8  9  1  0
  8 10  2  0
 11 12  2  0
 12 13  1  0
 13 14  2  0
M  CHG  2   8   1   9  -1
M  END
>  <DRUGBANK_ID>  (1) 
DB07722

>  <COMMON_NAME>  (1) 
3-(4-NITRO-PHENOXY)-PROPAN-1-OL

>  <UNII>  (1) 
7A445P9WZN

$$$$
