53R
     RDKit          3D

 27 29  0  0  0  0  0  0  0  0999 V2000
    1.3805   -0.2252    0.0394 C   0  0  0  0  0  0  0  0  0  0  0  0
    0.5006   -1.3104    0.0345 C   0  0  0  0  0  0  0  0  0  0  0  0
   -0.8750   -1.0922    0.0100 C   0  0  0  0  0  0  0  0  0  0  0  0
   -1.3720    0.2086    0.0330 C   0  0  0  0  0  0  0  0  0  0  0  0
   -0.4921    1.2924    0.0650 C   0  0  0  0  0  0  0  0  0  0  0  0
    0.8973    1.0935    0.0194 C   0  0  0  0  0  0  0  0  0  0  0  0
    1.7956    2.2316   -0.2262 C   0  0  0  0  0  0  0  0  0  0  0  0
    2.5402    2.2499   -1.4177 C   0  0  0  0  0  0  0  0  0  0  0  0
    1.8328    3.3666    0.6040 C   0  0  0  0  0  0  0  0  0  0  0  0
    2.5551    4.5057    0.2329 C   0  0  0  0  0  0  0  0  0  0  0  0
    2.4155    5.6207    1.0175 O   0  0  0  0  0  0  0  0  0  0  0  0
    2.9697    6.8241    0.4775 C   0  0  0  0  0  0  0  0  0  0  0  0
    3.3238    4.4711   -0.9219 C   0  0  0  0  0  0  0  0  0  0  0  0
    3.2953    3.3662   -1.7759 C   0  0  0  0  0  0  0  0  0  0  0  0
    4.0285    3.4233   -3.0872 C   0  0  1  0  0  0  0  0  0  0  0  0
    3.5171    4.5721   -3.9634 C   0  0  0  0  0  0  0  0  0  0  0  0
    5.5148    3.6035   -2.8252 C   0  0  0  0  0  0  0  0  0  0  0  0
    6.7898    3.7582   -2.6005 C   0  0  0  0  0  0  0  0  0  0  0  0
    8.1953    3.9437   -2.3487 C   0  0  0  0  0  0  0  0  0  0  0  0
    9.0733    2.8824   -2.2056 C   0  0  0  0  0  0  0  0  0  0  0  0
    8.6144    1.4546   -2.3035 C   0  0  0  0  0  0  0  0  0  0  0  0
   10.4009    3.0637   -1.9698 N   0  0  0  0  0  0  0  0  0  0  0  0
   10.8411    4.3226   -1.8811 C   0  0  0  0  0  0  0  0  0  0  0  0
   12.1763    4.5220   -1.6464 N   0  0  0  0  0  0  0  0  0  0  0  0
   10.0730    5.4059   -2.0091 N   0  0  0  0  0  0  0  0  0  0  0  0
    8.7600    5.2090   -2.2417 C   0  0  0  0  0  0  0  0  0  0  0  0
    7.9939    6.3550   -2.3336 N   0  0  0  0  0  0  0  0  0  0  0  0
  1  2  2  0
  1  6  1  0
  2  3  1  0
  3  4  2  0
  4  5  1  0
  5  6  2  0
  6  7  1  0
  7  8  2  0
  7  9  1  0
  8 14  1  0
  9 10  2  0
 10 11  1  0
 10 13  1  0
 11 12  1  0
 13 14  2  0
 14 15  1  0
 15 16  1  6
 15 17  1  0
 17 18  3  0
 18 19  1  0
 19 20  2  0
 19 26  1  0
 20 21  1  0
 20 22  1  0
 22 23  2  0
 23 24  1  0
 23 25  1  0
 25 26  2  0
 26 27  1  0
M  END
>  <DRUGBANK_ID>  (1) 
DB07140

>  <COMMON_NAME>  (1) 
5-[(3R)-3-(5-methoxybiphenyl-3-yl)but-1-yn-1-yl]-6-methylpyrimidine-2,4-diamine

$$$$
