1319
     RDKit          3D

 39 41  0  0  1  0  0  0  0  0999 V2000
    1.2554   -0.0027    0.2301 S   0  0  0  0  0  0  0  0  0  0  0  0
   -1.6621    0.8800   -1.0808 P   0  0  0  0  0  0  0  0  0  0  0  0
   -1.0855    1.7026   -2.4893 O   0  0  0  0  0  0  0  0  0  0  0  0
    4.4141    1.8201   -4.8345 O   0  0  0  0  0  0  0  0  0  0  0  0
    4.7046    2.9671   -1.6045 O   0  0  0  0  0  0  0  0  0  0  0  0
    1.2384   -0.7748   -1.0566 O   0  0  0  0  0  0  0  0  0  0  0  0
    0.6624   -0.6443    1.3810 O   0  0  0  0  0  0  0  0  0  0  0  0
   -2.8394   -0.0929   -2.7668 O   0  0  0  0  0  0  0  0  0  0  0  0
   -0.3388    0.4626   -0.7300 O   0  0  0  0  0  0  0  0  0  0  0  0
    2.5621    1.2225   -5.8293 O   0  0  0  0  0  0  0  0  0  0  0  0
   -2.1782    0.1439    0.1798 O   0  0  0  0  0  0  0  0  0  0  0  0
    0.2955    2.1264    0.0320 N   0  0  0  0  0  0  0  0  0  0  0  0
    2.3242    2.4110   -3.8563 N   0  0  0  0  0  0  0  0  0  0  0  0
    6.9350    0.0460   -0.0579 N   0  0  0  0  0  0  0  0  0  0  0  0
    0.3690    1.8066   -2.5701 C   0  0  1  0  0  0  0  0  0  0  0  0
    0.8617    2.4398   -3.8293 C   0  0  2  0  0  0  0  0  0  0  0  0
    0.9265    2.6663   -1.3849 C   0  0  0  0  0  0  0  0  0  0  0  0
   -1.7388    2.4682   -0.2722 C   0  0  0  0  0  0  0  0  0  0  0  0
    0.2776    1.7316   -5.0254 C   0  0  0  0  0  0  0  0  0  0  0  0
   -2.9227    1.3963   -1.8769 C   0  0  0  0  0  0  0  0  0  0  0  0
   -1.1959    1.7413   -5.0961 C   0  0  0  0  0  0  0  0  0  0  0  0
    5.1464    2.4416   -3.8053 C   0  0  1  0  0  0  0  0  0  0  0  0
    2.9094    0.0656    0.1937 C   0  0  0  0  0  0  0  0  0  0  0  0
   -1.6517   -0.6559   -1.8515 C   0  0  0  0  0  0  0  0  0  0  0  0
   -4.1748    1.1740   -1.2503 C   0  0  0  0  0  0  0  0  0  0  0  0
    4.8134    3.9082   -3.6757 C   0  0  0  0  0  0  0  0  0  0  0  0
    3.0573    1.7891   -4.8696 C   0  0  0  0  0  0  0  0  0  0  0  0
    4.7586    1.8548   -2.5038 C   0  0  0  0  0  0  0  0  0  0  0  0
    4.9829    4.1953   -2.2239 C   0  0  0  0  0  0  0  0  0  0  0  0
   -1.8603    0.5249   -5.0636 C   0  0  0  0  0  0  0  0  0  0  0  0
   -1.9071    2.9343   -5.0487 C   0  0  0  0  0  0  0  0  0  0  0  0
    3.5171    1.2594    0.1481 C   0  0  0  0  0  0  0  0  0  0  0  0
    3.5299   -1.1739    0.0077 C   0  0  0  0  0  0  0  0  0  0  0  0
   -3.2481    0.5053   -4.9607 C   0  0  0  0  0  0  0  0  0  0  0  0
   -3.2700    2.8957   -4.7914 C   0  0  0  0  0  0  0  0  0  0  0  0
    4.8770    1.2064    0.1531 C   0  0  0  0  0  0  0  0  0  0  0  0
    4.8858   -1.1839   -0.0379 C   0  0  0  0  0  0  0  0  0  0  0  0
   -3.9568    1.6887   -4.8162 C   0  0  0  0  0  0  0  0  0  0  0  0
    5.5705    0.0122    0.0418 C   0  0  0  0  0  0  0  0  0  0  0  0
  1  6  2  0
  1  7  2  0
  1 12  1  0
  1 23  1  0
  2  3  1  0
  2  8  1  0
  2  9  1  0
  2 11  2  0
  4 27  1  0
  5 28  1  0
  5 29  1  0
 10 27  2  0
 12 17  1  0
 12 18  1  0
 13 27  1  0
 14 39  1  0
 15  3  1  0
 15 16  1  0
 15 17  1  1
 16 13  1  0
 16 19  1  6
 18 20  1  0
 19 21  1  0
 20 24  1  0
 20 25  1  0
 21 30  2  0
 21 31  1  0
 22  4  1  6
 22 26  1  0
 22 28  1  0
 23 32  2  0
 23 33  1  0
 26 29  1  0
 30 34  1  0
 31 35  2  0
 32 36  1  0
 33 37  2  0
 34 38  2  0
 35 38  1  0
 36 39  2  0
 37 39  1  0
M  END
>  <DRUGBANK_ID>  (1) 
DB01319

>  <COMMON_NAME>  (1) 
Fosamprenavir

>  <CAS_NUMBER>  (1) 
226700-79-4

>  <UNII>  (1) 
WOU1621EEG

>  <SYNONYMS>  (1) 
FOS-APV; Fosamprenavir

$$$$
