787
     RDKit          3D

 16 17  0  0  0  0  0  0  0  0999 V2000
    1.0084   -0.0773    0.0909 O   0  0  0  0  0  0  0  0  0  0  0  0
    1.3009   -5.6801    3.3027 O   0  0  0  0  0  0  0  0  0  0  0  0
    2.4384    1.1620   -2.0325 O   0  0  0  0  0  0  0  0  0  0  0  0
    0.8847   -1.3164    2.0876 N   0  0  0  0  0  0  0  0  0  0  0  0
   -0.2214   -2.9919    0.6951 N   0  0  0  0  0  0  0  0  0  0  0  0
    1.8488   -2.7097    3.5377 N   0  0  0  0  0  0  0  0  0  0  0  0
    0.0441   -5.2449    1.4185 N   0  0  0  0  0  0  0  0  0  0  0  0
   -1.1974   -4.7131   -0.4435 N   0  0  0  0  0  0  0  0  0  0  0  0
    0.5315   -2.5722    1.7207 C   0  0  0  0  0  0  0  0  0  0  0  0
    0.5149   -0.0815    1.4354 C   0  0  0  0  0  0  0  0  0  0  0  0
    1.0971   -3.4264    2.6272 C   0  0  0  0  0  0  0  0  0  0  0  0
    1.7076   -1.4468    3.1792 C   0  0  0  0  0  0  0  0  0  0  0  0
    0.8453   -4.8662    2.5040 C   0  0  0  0  0  0  0  0  0  0  0  0
   -0.4243   -4.3455    0.6008 C   0  0  0  0  0  0  0  0  0  0  0  0
    2.4448   -0.0418    0.0597 C   0  0  0  0  0  0  0  0  0  0  0  0
    2.9171   -0.0115   -1.3849 C   0  0  0  0  0  0  0  0  0  0  0  0
  1 10  1  0
  1 15  1  0
  2 13  2  0
  3 16  1  0
  4  9  1  0
  4 10  1  0
  4 12  1  0
  5  9  1  0
  5 14  1  0
  6 11  1  0
  6 12  2  0
  7 13  1  0
  7 14  2  0
  8 14  1  0
  9 11  2  0
 11 13  1  0
 15 16  1  0
M  END
>  <DRUGBANK_ID>  (1) 
DB00787

>  <SECONDARY_ACCESSION_NUMBERS>  (1) 
APRD00567; EXPT00406; DB05347

>  <COMMON_NAME>  (1) 
Acyclovir

>  <CAS_NUMBER>  (1) 
59277-89-3

>  <UNII>  (1) 
X4HES1O11F

>  <SYNONYMS>  (1) 
Aciclovir; Aciclovirum; Acycloguanosine; Acyclovir

$$$$
