
     RDKit          3D

 27 30  0  0  0  0  0  0  0  0999 V2000
   -2.4086   -1.1989    0.0256 O   0  0  0  0  0  0  0  0  0  0  0  0
   -1.1510   -3.8426   -0.1552 O   0  0  0  0  0  0  0  0  0  0  0  0
    5.8396   -4.7905    0.0966 N   0  0  0  0  0  0  0  0  0  0  0  0
    1.0569   -4.1063   -0.0765 N   0  0  0  0  0  0  0  0  0  0  0  0
   -0.6754    0.4177    0.0183 N   0  0  0  0  0  0  0  0  0  0  0  0
    3.2816   -3.8986    1.2412 C   0  0  0  0  0  0  0  0  0  0  0  0
    4.5874   -3.0496    1.3834 C   0  0  0  0  0  0  0  0  0  0  0  0
    3.6797   -5.3508    1.1912 C   0  0  0  0  0  0  0  0  0  0  0  0
    5.5528   -3.3678    0.2642 C   0  0  0  0  0  0  0  0  0  0  0  0
    4.6180   -5.5985    0.0112 C   0  0  0  0  0  0  0  0  0  0  0  0
    2.4085   -3.6628   -0.0034 C   0  0  0  0  0  0  0  0  0  0  0  0
    6.7091   -5.0654   -1.0624 C   0  0  0  0  0  0  0  0  0  0  0  0
    6.1476   -4.7171   -2.4652 C   0  0  0  0  0  0  0  0  0  0  0  0
    0.0452   -1.7257   -0.0891 C   0  0  0  0  0  0  0  0  0  0  0  0
   -0.0495   -3.2499   -0.1153 C   0  0  0  0  0  0  0  0  0  0  0  0
   -1.0932   -0.8976    0.0015 C   0  0  0  0  0  0  0  0  0  0  0  0
   -1.5833    1.5519    0.0354 C   0  0  0  0  0  0  0  0  0  0  0  0
    5.9003   -3.2344   -2.7729 C   0  0  0  0  0  0  0  0  0  0  0  0
    1.1932   -0.7552   -0.1206 C   0  0  0  0  0  0  0  0  0  0  0  0
    0.6882    0.5335    0.0180 C   0  0  0  0  0  0  0  0  0  0  0  0
   -2.9770    1.1374   -0.3872 C   0  0  0  0  0  0  0  0  0  0  0  0
   -3.3099   -0.1320    0.3797 C   0  0  0  0  0  0  0  0  0  0  0  0
    2.6234   -0.7682   -0.2519 C   0  0  0  0  0  0  0  0  0  0  0  0
    1.5337    1.6705    0.0781 C   0  0  0  0  0  0  0  0  0  0  0  0
    7.1213   -2.3817   -2.4620 C   0  0  0  0  0  0  0  0  0  0  0  0
    3.4818    0.2939   -0.0614 C   0  0  0  0  0  0  0  0  0  0  0  0
    2.9277    1.5274    0.0730 C   0  0  0  0  0  0  0  0  0  0  0  0
  1 16  1  0
  1 22  1  0
  2 15  2  0
  3  9  1  0
  3 10  1  0
  3 12  1  0
  4 11  1  0
  4 15  1  0
  5 16  1  0
  5 17  1  0
  5 20  1  0
  6  7  1  0
  6  8  1  0
  6 11  1  0
  7  9  1  0
  8 10  1  0
 12 13  1  0
 13 18  1  0
 14 15  1  0
 14 16  2  0
 14 19  1  0
 17 21  1  0
 18 25  1  0
 19 20  2  0
 19 23  1  0
 20 24  1  0
 21 22  1  0
 23 26  2  0
 24 27  2  0
 26 27  1  0
M  END
>  <DRUGBANK_ID>  (1) 
DB04873

>  <COMMON_NAME>  (1) 
Piboserod

>  <CAS_NUMBER>  (1) 
152811-62-6

>  <UNII>  (1) 
4UQ3S81B25

>  <SYNONYMS>  (1) 
Piboserod

$$$$
