SG1
     RDKit          3D

 19 20  0  0  0  0  0  0  0  0999 V2000
    0.9404    0.0569   -0.0284 S   0  0  0  0  0  0  0  0  0  0  0  0
    0.3794    1.1918    1.2233 C   0  0  0  0  0  0  0  0  0  0  0  0
    0.0379    0.6944    2.4787 C   0  0  0  0  0  0  0  0  0  0  0  0
   -0.1695    1.5837    3.5404 C   0  0  0  0  0  0  0  0  0  0  0  0
   -0.0646    2.9761    3.3594 C   0  0  0  0  0  0  0  0  0  0  0  0
   -0.3665    3.8048    4.4588 N   0  0  0  0  0  0  0  0  0  0  0  0
    0.3402    3.7871    5.6588 C   0  0  0  0  0  0  0  0  0  0  0  0
    1.3558    3.1600    5.9120 O   0  0  0  0  0  0  0  0  0  0  0  0
   -0.4061    4.6674    6.6287 C   0  0  0  0  0  0  0  0  0  0  0  0
   -1.2062    5.5863    5.7158 C   0  0  0  0  0  0  0  0  0  0  0  0
   -1.4642    4.7446    4.4772 C   0  0  0  0  0  0  0  0  0  0  0  0
    0.3061    3.4576    2.0919 C   0  0  0  0  0  0  0  0  0  0  0  0
    0.8028    4.8371    1.9090 N   0  0  0  0  0  0  0  0  0  0  0  0
    1.1316    5.1704    0.7611 O   0  0  0  0  0  0  0  0  0  0  0  0
    0.9014    5.5841    2.8909 O   0  0  0  0  0  0  0  0  0  0  0  0
    0.4565    2.5715    1.0036 C   0  0  0  0  0  0  0  0  0  0  0  0
    0.2844    0.7067   -1.4064 N   0  0  0  0  0  0  0  0  0  0  0  0
    0.2809   -1.2133    0.1868 O   0  0  0  0  0  0  0  0  0  0  0  0
    2.3696    0.2019   -0.1124 O   0  0  0  0  0  0  0  0  0  0  0  0
  1  2  1  0
  1 17  1  0
  1 18  2  0
  1 19  2  0
  2  3  2  0
  2 16  1  0
  3  4  1  0
  4  5  2  0
  5  6  1  0
  5 12  1  0
  6  7  1  0
  6 11  1  0
  7  8  2  0
  7  9  1  0
  9 10  1  0
 10 11  1  0
 12 13  1  0
 12 16  2  0
 13 14  1  0
 13 15  2  0
M  CHG  2  13   1  14  -1
M  END
>  <DRUGBANK_ID>  (1) 
DB04394

>  <SECONDARY_ACCESSION_NUMBERS>  (1) 
EXPT02892

>  <COMMON_NAME>  (1) 
3-Nitro-4-(2-Oxo-Pyrrolidin-1-Yl)-Benzenesulfonamide

$$$$
