NAB
     RDKit          3D

 22 24  0  0  0  0  0  0  0  0999 V2000
    1.4865   -0.2948    0.0088 C   0  0  0  0  0  0  0  0  0  0  0  0
    0.5501   -1.3728   -0.0088 C   0  0  0  0  0  0  0  0  0  0  0  0
   -0.8394   -1.0998   -0.0140 C   0  0  0  0  0  0  0  0  0  0  0  0
   -1.3401    0.1982   -0.0040 C   0  0  0  0  0  0  0  0  0  0  0  0
   -0.4527    1.2590    0.0420 C   0  0  0  0  0  0  0  0  0  0  0  0
    0.9326    1.0159   -0.0049 C   0  0  0  0  0  0  0  0  0  0  0  0
    4.7047   -1.7898    0.1943 C   0  0  0  0  0  0  0  0  0  0  0  0
    5.4979   -1.2102    1.1566 C   0  0  0  0  0  0  0  0  0  0  0  0
    6.7568   -1.7239    1.2305 C   0  0  0  0  0  0  0  0  0  0  0  0
    7.2339   -2.6838    0.2050 C   0  0  0  0  0  0  0  0  0  0  0  0
    6.4599   -3.3404   -1.0535 C   0  0  0  0  0  0  0  0  0  0  0  0
    6.2964   -4.3108   -2.5018 C   0  0  0  0  0  0  0  0  0  0  0  0
    5.0920   -4.9502   -2.8708 C   0  0  0  0  0  0  0  0  0  0  0  0
    4.6613   -5.1057   -1.6370 C   0  0  0  0  0  0  0  0  0  0  0  0
    4.2704   -3.8217   -1.2523 C   0  0  0  0  0  0  0  0  0  0  0  0
    5.1796   -2.9301   -0.7175 C   0  0  0  0  0  0  0  0  0  0  0  0
    0.7979   -2.8641   -0.0578 C   0  0  0  0  0  0  0  0  0  0  0  0
    2.9297   -0.3612   -0.0117 N   0  0  0  0  0  0  0  0  0  0  0  0
    3.3405   -1.4727    0.3681 N   0  0  0  0  0  0  0  0  0  0  0  0
   -0.0153   -3.7296   -0.0163 O   0  0  0  0  0  0  0  0  0  0  0  0
    2.0814   -3.1756   -0.1732 O   0  0  0  0  0  0  0  0  0  0  0  0
    8.5440   -3.0604    0.5155 O   0  0  0  0  0  0  0  0  0  0  0  0
  1  2  2  0
  1  6  1  0
  1 18  1  0
  2  3  1  0
  2 17  1  0
  3  4  2  0
  4  5  1  0
  5  6  2  0
  7  8  2  0
  7 16  1  0
  7 19  1  0
  8  9  1  0
  9 10  2  0
 10 11  1  0
 10 22  1  0
 11 12  1  0
 11 16  2  0
 12 13  2  0
 13 14  1  0
 14 15  2  0
 15 16  1  0
 17 20  2  0
 17 21  1  0
 18 19  2  0
M  END
>  <DRUGBANK_ID>  (1) 
DB08252

>  <COMMON_NAME>  (1) 
2-((4'-HYDROXYNAPHTHYL)-AZO)BENZOIC ACID

$$$$
