
     RDKit          3D

 36 39  0  0  1  0  0  0  0  0999 V2000
    1.1264    0.1851   -0.0990 S   0  0  0  0  0  0  0  0  0  0  0  0
    0.8736    1.0569    1.0284 O   0  0  0  0  0  0  0  0  0  0  0  0
    0.6125    0.5119   -1.4077 O   0  0  0  0  0  0  0  0  0  0  0  0
    6.9564    0.4040    0.1247 O   0  0  0  0  0  0  0  0  0  0  0  0
    5.9127   -5.3383   -2.6675 O   0  0  0  0  0  0  0  0  0  0  0  0
   -1.7134   -2.3039    1.7852 N   0  0  0  0  0  0  0  0  0  0  0  0
    0.6221   -1.3746    0.2677 N   0  0  0  0  0  0  0  0  0  0  0  0
    6.5091   -3.1869    0.4930 N   0  0  0  0  0  0  0  0  0  0  0  0
    7.8367   -6.0225   -0.3088 N   0  0  0  0  0  0  0  0  0  0  0  0
    8.5606   -5.9122    0.8575 N   0  0  0  0  0  0  0  0  0  0  0  0
    5.4889   -3.3543   -1.5744 N   0  0  0  0  0  0  0  0  0  0  0  0
   -1.1406   -1.3053    2.7013 C   0  0  0  0  0  0  0  0  0  0  0  0
   -1.7532    0.0017    2.1836 C   0  0  0  0  0  0  0  0  0  0  0  0
   -3.0405   -0.3887    1.4802 C   0  0  0  0  0  0  0  0  0  0  0  0
   -3.1057   -1.9009    1.5910 C   0  0  0  0  0  0  0  0  0  0  0  0
    0.3934   -1.3208    2.7339 C   0  0  0  0  0  0  0  0  0  0  0  0
    1.0332   -1.9982    1.5311 C   0  0  0  0  0  0  0  0  0  0  0  0
   -1.6019   -3.6741    2.2747 C   0  0  0  0  0  0  0  0  0  0  0  0
    2.8889    0.0836   -0.2143 C   0  0  0  0  0  0  0  0  0  0  0  0
    3.6039   -1.1343   -0.2848 C   0  0  0  0  0  0  0  0  0  0  0  0
    5.0074   -1.1545   -0.3527 C   0  0  0  0  0  0  0  0  0  0  0  0
    3.5414    1.3036   -0.0726 C   0  0  0  0  0  0  0  0  0  0  0  0
    7.2063   -4.2619    0.4689 C   0  0  0  0  0  0  0  0  0  0  0  0
    5.7051   -2.6466   -0.4975 C   0  0  0  0  0  0  0  0  0  0  0  0
    5.6281    0.1101   -0.0423 C   0  0  0  0  0  0  0  0  0  0  0  0
    8.0805   -4.8053    1.4412 C   0  0  0  0  0  0  0  0  0  0  0  0
    7.0096   -5.0020   -0.6181 C   0  0  0  0  0  0  0  0  0  0  0  0
    4.8889    1.2901    0.1874 C   0  0  0  0  0  0  0  0  0  0  0  0
    8.5331   -4.2862    2.8417 C   0  0  0  0  0  0  0  0  0  0  0  0
    6.1161   -4.6057   -1.6796 C   0  0  0  0  0  0  0  0  0  0  0  0
    8.2000   -5.1934    4.0283 C   0  0  0  0  0  0  0  0  0  0  0  0
    8.0155   -7.1381   -1.1766 C   0  0  0  0  0  0  0  0  0  0  0  0
    7.6921   -0.7528    0.3338 C   0  0  0  0  0  0  0  0  0  0  0  0
    8.8624   -6.5356    3.8391 C   0  0  0  0  0  0  0  0  0  0  0  0
    7.3112   -1.3241    1.7587 C   0  0  0  0  0  0  0  0  0  0  0  0
    5.6366   -1.7503    2.2760 C   0  0  0  0  0  0  0  0  0  0  0  0
  1  2  2  0
  1  3  2  0
  1  7  1  0
  1 19  1  0
  4 25  1  0
  4 33  1  0
  5 30  2  0
  6 12  1  0
  6 15  1  0
  6 18  1  0
  7 17  1  0
  8 23  1  0
  8 24  1  0
  9 10  1  0
  9 27  1  0
  9 32  1  0
 10 26  2  0
 11 24  2  0
 11 30  1  0
 12 13  1  0
 12 16  1  0
 13 14  1  0
 14 15  1  0
 16 17  1  0
 19 20  2  0
 19 22  1  0
 20 21  1  0
 21 24  1  0
 21 25  2  0
 22 28  2  0
 23 26  1  0
 23 27  2  0
 25 28  1  0
 26 29  1  0
 27 30  1  0
 29 31  1  0
 31 34  1  0
 33 35  1  0
 35 36  1  0
M  END
>  <DRUGBANK_ID>  (1) 
DB06267

>  <COMMON_NAME>  (1) 
Udenafil

>  <CAS_NUMBER>  (1) 
268203-93-6

>  <UNII>  (1) 
L5IB4XLY36

>  <SYNONYMS>  (1) 
Udenafil

$$$$
