
     RDKit          3D

 12 11  0  0  1  0  0  0  0  0999 V2000
    0.9179   -0.3935   -0.0581 C   0  0  0  0  0  0  0  0  0  0  0  0
   -1.0653    0.0370   -1.3251 C   0  0  0  0  0  0  0  0  0  0  0  0
    0.9231    2.5632    0.4844 C   0  0  0  0  0  0  0  0  0  0  0  0
    0.4071    2.5743   -0.9565 C   0  0  0  0  0  0  0  0  0  0  0  0
    2.4521    2.5370    0.5319 C   0  0  0  0  0  0  0  0  0  0  0  0
    0.8745    1.3714   -1.7994 C   0  0  0  0  0  0  0  0  0  0  0  0
    3.0160    3.8312   -0.0521 C   0  0  1  0  0  0  0  0  0  0  0  0
    2.5785    5.0486    0.7903 C   0  0  0  0  0  0  0  0  0  0  0  0
    4.4864    3.7213   -0.0932 N   0  0  0  0  0  0  0  0  0  0  0  0
    0.3953    0.0533   -1.3485 N   0  0  0  0  0  0  0  0  0  0  0  0
    3.2937    5.7188    1.5015 O   0  0  0  0  0  0  0  0  0  0  0  0
    1.2538    5.3141    0.7079 O   0  0  0  0  0  0  0  0  0  0  0  0
  4  3  1  0
  5  3  1  0
  6  4  1  0
  7  5  1  0
  7  9  1  1
  8  7  1  0
 10  1  1  0
 10  2  1  0
 10  6  1  0
 11  8  2  0
 12  8  1  0
M  END
>  <DRUGBANK_ID>  (1) 
DB03362

>  <SECONDARY_ACCESSION_NUMBERS>  (1) 
EXPT02189

>  <COMMON_NAME>  (1) 
N-Dimethyl-Lysine

$$$$
