
     RDKit          3D

  7  6  0  0  0  0  0  0  0  0999 V2000
    0.9458   -0.0500    0.0769 C   0  0  0  0  0  0  0  0  0  0  0  0
    0.4754    0.4232    1.4441 C   0  0  0  0  0  0  0  0  0  0  0  0
    0.8857    1.8731    1.7253 C   0  0  0  0  0  0  0  0  0  0  0  0
    0.3473    2.8818    0.7053 C   0  0  0  0  0  0  0  0  0  0  0  0
   -1.1666    2.8777    0.6316 C   0  0  0  0  0  0  0  0  0  0  0  0
   -1.7478    4.0575    0.9256 O   0  0  0  0  0  0  0  0  0  0  0  0
   -1.8381    1.9035    0.3168 O   0  0  0  0  0  0  0  0  0  0  0  0
  1  2  1  0
  2  3  1  0
  3  4  1  0
  4  5  1  0
  5  6  1  0
  5  7  2  0
M  END
>  <DRUGBANK_ID>  (1) 
DB02406

>  <SECONDARY_ACCESSION_NUMBERS>  (1) 
EXPT02547; DB04344

>  <COMMON_NAME>  (1) 
N-Valeric Acid

>  <CAS_NUMBER>  (1) 
109-52-4

>  <UNII>  (1) 
GZK92PJM7B

$$$$
