
     RDKit          3D

 26 28  0  0  0  0  0  0  0  0999 V2000
    0.8808   -0.0001    0.0695 C   0  0  0  0  0  0  0  0  0  0  0  0
    0.4233   -1.2103   -0.6978 C   0  0  0  0  0  0  0  0  0  0  0  0
   -0.4590   -2.2010    0.0007 C   0  0  0  0  0  0  0  0  0  0  0  0
    0.7886   -1.3868   -1.9830 C   0  0  0  0  0  0  0  0  0  0  0  0
    1.6106   -0.4378   -2.7407 C   0  0  0  0  0  0  0  0  0  0  0  0
    3.1154   -0.4410   -2.6186 C   0  0  0  0  0  0  0  0  0  0  0  0
    3.8474   -1.2018   -1.5759 C   0  0  0  0  0  0  0  0  0  0  0  0
    4.4926   -0.5370   -0.7669 O   0  0  0  0  0  0  0  0  0  0  0  0
    3.7962   -2.5625   -1.5966 O   0  0  0  0  0  0  0  0  0  0  0  0
    4.6553   -3.2584   -0.6509 C   0  0  0  0  0  0  0  0  0  0  0  0
    6.0832   -3.3637   -1.1582 C   0  0  0  0  0  0  0  0  0  0  0  0
    6.8275   -2.1850   -1.3279 C   0  0  0  0  0  0  0  0  0  0  0  0
    8.1085   -2.1728   -1.8394 C   0  0  0  0  0  0  0  0  0  0  0  0
    8.7218   -3.3690   -2.1122 C   0  0  0  0  0  0  0  0  0  0  0  0
    8.0889   -4.5743   -1.7958 C   0  0  0  0  0  0  0  0  0  0  0  0
    8.7614   -5.7791   -1.8320 O   0  0  0  0  0  0  0  0  0  0  0  0
   10.1428   -5.7519   -1.9132 C   0  0  0  0  0  0  0  0  0  0  0  0
   10.9710   -5.0043   -1.0587 C   0  0  0  0  0  0  0  0  0  0  0  0
   12.3555   -5.0043   -1.2486 C   0  0  0  0  0  0  0  0  0  0  0  0
   12.9174   -5.8148   -2.2330 C   0  0  0  0  0  0  0  0  0  0  0  0
   12.0969   -6.6059   -3.0386 C   0  0  0  0  0  0  0  0  0  0  0  0
   10.7100   -6.5392   -2.9100 C   0  0  0  0  0  0  0  0  0  0  0  0
    6.7362   -4.5822   -1.4041 C   0  0  0  0  0  0  0  0  0  0  0  0
    2.4691   -0.8454   -3.9233 C   0  0  0  0  0  0  0  0  0  0  0  0
    2.4460   -2.2651   -4.4085 C   0  0  0  0  0  0  0  0  0  0  0  0
    2.5665    0.1807   -5.0413 C   0  0  0  0  0  0  0  0  0  0  0  0
  1  2  1  0
  2  3  1  0
  2  4  2  3
  4  5  1  0
  5  6  1  0
  5 24  1  0
  6  7  1  0
  6 24  1  0
  7  8  2  0
  7  9  1  0
  9 10  1  0
 10 11  1  0
 11 12  2  0
 11 23  1  0
 12 13  1  0
 13 14  2  0
 14 15  1  0
 15 16  1  0
 15 23  2  0
 16 17  1  0
 17 18  2  0
 17 22  1  0
 18 19  1  0
 19 20  2  0
 20 21  1  0
 21 22  2  0
 24 25  1  0
 24 26  1  0
M  END
>  <DRUGBANK_ID>  (1) 
DB13717

>  <COMMON_NAME>  (1) 
Phenothrin

>  <CAS_NUMBER>  (1) 
26002-80-2

>  <UNII>  (1) 
707484X33X

>  <SYNONYMS>  (1) 
Phenothrin

$$$$
