
     RDKit          3D

 18 19  0  0  0  0  0  0  0  0999 V2000
    1.4696    0.0246    0.0027 C   0  0  0  0  0  0  0  0  0  0  0  0
    0.7388    1.2116    0.0068 C   0  0  0  0  0  0  0  0  0  0  0  0
   -0.6350    1.1277    0.0334 C   0  0  0  0  0  0  0  0  0  0  0  0
   -1.2934   -0.0417    0.0874 N   0  0  0  0  0  0  0  0  0  0  0  0
   -0.5939   -1.2102    0.0770 C   0  0  0  0  0  0  0  0  0  0  0  0
    0.8043   -1.2115    0.0242 C   0  0  0  0  0  0  0  0  0  0  0  0
   -3.4096   -3.1384    1.0894 C   0  0  0  0  0  0  0  0  0  0  0  0
   -2.7443   -2.4990    0.0290 C   0  0  0  0  0  0  0  0  0  0  0  0
   -1.3438   -2.3969    0.0923 N   0  0  0  0  0  0  0  0  0  0  0  0
   -4.8018   -3.1862    1.1372 C   0  0  0  0  0  0  0  0  0  0  0  0
   -5.5447   -2.6088    0.1127 C   0  0  0  0  0  0  0  0  0  0  0  0
   -4.8968   -1.9916   -0.9612 C   0  0  0  0  0  0  0  0  0  0  0  0
   -3.4930   -1.9363   -1.0292 C   0  0  0  0  0  0  0  0  0  0  0  0
    1.5472   -2.4931   -0.0104 C   0  0  0  0  0  0  0  0  0  0  0  0
    1.0476   -3.6084   -0.0133 O   0  0  0  0  0  0  0  0  0  0  0  0
    2.8834   -2.3378   -0.0335 O   0  0  0  0  0  0  0  0  0  0  0  0
   -2.8202   -1.2904   -2.2156 C   0  0  0  0  0  0  0  0  0  0  0  0
   -5.8898   -1.2911   -2.1942 Cl  0  0  0  0  0  0  0  0  0  0  0  0
  1  2  2  0
  1  6  1  0
  2  3  1  0
  3  4  2  0
  4  5  1  0
  5  6  2  0
  5  9  1  0
  6 14  1  0
  7  8  2  0
  7 10  1  0
  8  9  1  0
  8 13  1  0
 10 11  2  0
 11 12  1  0
 12 13  2  0
 12 18  1  0
 13 17  1  0
 14 15  2  0
 14 16  1  0
M  END
>  <DRUGBANK_ID>  (1) 
DB09218

>  <COMMON_NAME>  (1) 
Clonixin

>  <CAS_NUMBER>  (1) 
17737-65-4

>  <UNII>  (1) 
V7DXN0M42R

>  <SYNONYMS>  (1) 
Clonixin; clonixino

$$$$
