MNX
     RDKit          3D

 20 22  0  0  0  0  0  0  0  0999 V2000
   -2.4841    1.4249   -0.0014 C   0  0  0  0  0  0  0  0  0  0  0  0
   -1.2588    0.7549   -0.0017 C   0  0  0  0  0  0  0  0  0  0  0  0
   -1.1998   -0.6383   -0.0011 C   0  0  0  0  0  0  0  0  0  0  0  0
   -2.3881   -1.3695   -0.0011 C   0  0  0  0  0  0  0  0  0  0  0  0
   -3.6166   -0.6994    0.0003 C   0  0  0  0  0  0  0  0  0  0  0  0
   -3.6657    0.6977    0.0017 C   0  0  0  0  0  0  0  0  0  0  0  0
   -0.0273   -1.3566   -0.0005 O   0  0  0  0  0  0  0  0  0  0  0  0
    1.1744   -0.6862    0.0001 C   0  0  0  0  0  0  0  0  0  0  0  0
    1.2368    0.7143   -0.0005 C   0  0  0  0  0  0  0  0  0  0  0  0
    0.0008    1.4881   -0.0015 C   0  0  0  0  0  0  0  0  0  0  0  0
    2.4571    1.4000   -0.0002 C   0  0  0  0  0  0  0  0  0  0  0  0
    3.6449    0.6959   -0.0000 C   0  0  0  0  0  0  0  0  0  0  0  0
    3.6166   -0.6989    0.0004 C   0  0  0  0  0  0  0  0  0  0  0  0
    2.3880   -1.3965    0.0009 C   0  0  0  0  0  0  0  0  0  0  0  0
    0.0758    2.7148   -0.0017 O   0  0  0  0  0  0  0  0  0  0  0  0
   -2.5177    2.7883   -0.0043 O   0  0  0  0  0  0  0  0  0  0  0  0
    2.5544    2.7656   -0.0001 O   0  0  0  0  0  0  0  0  0  0  0  0
    2.4406   -2.8714    0.0027 N   0  0  0  0  0  0  0  0  0  0  0  0
    1.3824   -3.5120    0.0036 O   0  0  0  0  0  0  0  0  0  0  0  0
    3.5636   -3.3988    0.0034 O   0  0  0  0  0  0  0  0  0  0  0  0
  1  2  2  0
  1  6  1  0
  1 16  1  0
  2  3  1  0
  2 10  1  0
  3  4  2  0
  3  7  1  0
  4  5  1  0
  5  6  2  0
  7  8  1  0
  8  9  2  0
  8 14  1  0
  9 10  1  0
  9 11  1  0
 10 15  2  0
 11 12  2  0
 11 17  1  0
 12 13  1  0
 13 14  2  0
 14 18  1  0
 18 19  1  0
 18 20  2  0
M  CHG  2  18   1  19  -1
M  END
>  <DRUGBANK_ID>  (1) 
DB02170

>  <SECONDARY_ACCESSION_NUMBERS>  (1) 
EXPT02205

>  <COMMON_NAME>  (1) 
1,8-Di-Hydroxy-4-Nitro-Xanthen-9-One

$$$$
