
     RDKit          3D

 24 26  0  0  0  0  0  0  0  0999 V2000
    0.7829    0.1581    0.1214 C   0  0  0  0  0  0  0  0  0  0  0  0
    0.4863    0.2321   -1.3674 C   0  0  0  0  0  0  0  0  0  0  0  0
    4.3118   -1.6891    9.0997 C   0  0  0  0  0  0  0  0  0  0  0  0
    4.3926   -0.6720    8.1491 C   0  0  0  0  0  0  0  0  0  0  0  0
    3.8889   -2.9546    8.7111 C   0  0  0  0  0  0  0  0  0  0  0  0
    4.0356   -0.9125    6.8101 C   0  0  0  0  0  0  0  0  0  0  0  0
    3.5756   -3.2046    7.3692 C   0  0  0  0  0  0  0  0  0  0  0  0
    2.4853   -2.4985    0.1101 C   0  0  0  0  0  0  0  0  0  0  0  0
    1.8109   -3.0963    1.1540 C   0  0  0  0  0  0  0  0  0  0  0  0
    4.1451   -1.6084    1.6220 C   0  0  0  0  0  0  0  0  0  0  0  0
    1.9414   -3.0303    4.8108 C   0  0  0  0  0  0  0  0  0  0  0  0
    3.3860   -0.2900   -1.6219 C   0  0  0  0  0  0  0  0  0  0  0  0
    3.5969   -2.1777    6.4022 C   0  0  0  0  0  0  0  0  0  0  0  0
    3.6064   -1.6900    0.3268 C   0  0  0  0  0  0  0  0  0  0  0  0
    2.3363   -2.9796    2.4227 C   0  0  0  0  0  0  0  0  0  0  0  0
    1.6085   -3.5866    3.5112 C   0  0  0  0  0  0  0  0  0  0  0  0
    3.1523   -2.4834    5.0202 C   0  0  0  0  0  0  0  0  0  0  0  0
    3.4858   -2.2302    2.6864 C   0  0  0  0  0  0  0  0  0  0  0  0
    2.3421   -1.0822   -2.4054 C   0  0  0  0  0  0  0  0  0  0  0  0
    0.6894   -4.3947    3.3521 O   0  0  0  0  0  0  0  0  0  0  0  0
    2.6715   -2.0116   -3.1434 O   0  0  0  0  0  0  0  0  0  0  0  0
    1.0262   -0.8543   -2.1513 O   0  0  0  0  0  0  0  0  0  0  0  0
    4.2175   -0.9616   -0.6628 O   0  0  0  0  0  0  0  0  0  0  0  0
    3.9725   -2.0633    3.9724 O   0  0  0  0  0  0  0  0  0  0  0  0
  2  1  1  0
  4  3  2  0
  5  3  1  0
  6  4  1  0
  7  5  2  0
  9  8  2  0
 13  6  2  0
 13  7  1  0
 14  8  1  0
 14 10  2  0
 15  9  1  0
 16 11  1  0
 16 15  1  0
 17 11  2  0
 17 13  1  0
 18 10  1  0
 18 15  2  0
 19 12  1  0
 20 16  2  0
 21 19  2  0
 22  2  1  0
 22 19  1  0
 23 12  1  0
 23 14  1  0
 24 17  1  0
 24 18  1  0
M  END
>  <DRUGBANK_ID>  (1) 
DB13333

>  <COMMON_NAME>  (1) 
Efloxate

>  <CAS_NUMBER>  (1) 
119-41-5

>  <UNII>  (1) 
CZU6V3902K

>  <SYNONYMS>  (1) 
Efloxate

$$$$
