
     RDKit          3D

  6  4  0  0  0  0  0  0  0  0999 V2000
    0.6631    0.1519    0.7902 C   0  0  0  0  0  0  0  0  0  0  0  0
    0.0281    1.0655    0.0231 N   0  0  0  0  0  0  0  0  0  0  0  0
   -0.0042   -0.9924    0.9820 N   0  0  0  0  0  0  0  0  0  0  0  0
    1.8731    0.2001    1.0154 O   0  0  0  0  0  0  0  0  0  0  0  0
    1.9828    0.3851   -1.6401 O   0  0  0  0  0  0  0  0  0  0  0  0
    0.8454   -0.3935   -2.1409 O   0  0  0  0  0  0  0  0  0  0  0  0
  1  2  1  0
  1  3  1  0
  1  4  2  0
  5  6  1  0
M  END
>  <DRUGBANK_ID>  (1) 
DB11129

>  <COMMON_NAME>  (1) 
Carbamide peroxide

>  <CAS_NUMBER>  (1) 
124-43-6

>  <UNII>  (1) 
31PZ2VAU81

>  <SYNONYMS>  (1) 
Carbamide peroxide; Hydrogen peroxide carbamide; Urea dioxide; Urea hydrogen peroxide; Urea peroxide

$$$$
