491
     RDKit          3D

 14 14  0  0  1  0  0  0  0  0999 V2000
    2.4034    0.7931   -0.1087 O   0  0  0  0  0  0  0  0  0  0  0  0
    0.0041    2.1700    0.2989 O   0  0  0  0  0  0  0  0  0  0  0  0
   -2.4561    0.6639   -0.1996 O   0  0  0  0  0  0  0  0  0  0  0  0
    2.9301   -3.3028    0.0249 O   0  0  0  0  0  0  0  0  0  0  0  0
    1.3001   -3.4655   -2.2578 O   0  0  0  0  0  0  0  0  0  0  0  0
    0.0193   -2.0950    0.2877 N   0  0  0  0  0  0  0  0  0  0  0  0
    1.2936   -1.3877   -0.0394 C   0  0  1  0  0  0  0  0  0  0  0  0
    1.2487    0.1043    0.3955 C   0  0  2  0  0  0  0  0  0  0  0  0
   -0.0030    0.8084   -0.1517 C   0  0  1  0  0  0  0  0  0  0  0  0
   -1.2603    0.0532    0.2904 C   0  0  2  0  0  0  0  0  0  0  0  0
   -1.1616   -1.3804   -0.2287 C   0  0  0  0  0  0  0  0  0  0  0  0
    2.6013   -2.0178    0.5337 C   0  0  0  0  0  0  0  0  0  0  0  0
   -0.0642   -3.5044   -0.1527 C   0  0  0  0  0  0  0  0  0  0  0  0
    0.0668   -3.8172   -1.6614 C   0  0  0  0  0  0  0  0  0  0  0  0
  4 12  1  0
  5 14  1  0
  6  7  1  0
  6 11  1  0
  6 13  1  0
  7  8  1  0
  7 12  1  1
  8  1  1  6
  8  9  1  0
  9  2  1  1
  9 10  1  0
 10  3  1  6
 10 11  1  0
 13 14  1  0
M  END
>  <DRUGBANK_ID>  (1) 
DB00491

>  <SECONDARY_ACCESSION_NUMBERS>  (1) 
APRD01117

>  <COMMON_NAME>  (1) 
Miglitol

>  <CAS_NUMBER>  (1) 
72432-03-2

>  <UNII>  (1) 
0V5436JAQW

>  <SYNONYMS>  (1) 
Miglitol; Miglitolum

$$$$
