
     RDKit          3D

 29 31  0  0  0  0  0  0  0  0999 V2000
    1.1008   -0.5372    0.2009 C   0  0  0  0  0  0  0  0  0  0  0  0
    0.9122    0.8092   -0.4055 C   0  0  0  0  0  0  0  0  0  0  0  0
    1.3476    0.9984   -1.7704 O   0  0  0  0  0  0  0  0  0  0  0  0
    2.5655    1.6566   -1.8177 C   0  0  0  0  0  0  0  0  0  0  0  0
    3.5279    0.7260   -1.4459 C   0  0  0  0  0  0  0  0  0  0  0  0
    4.8716    0.9235   -1.5741 C   0  0  0  0  0  0  0  0  0  0  0  0
    5.2599    2.1126   -2.1829 C   0  0  0  0  0  0  0  0  0  0  0  0
    4.3148    3.1152   -2.5218 C   0  0  0  0  0  0  0  0  0  0  0  0
    2.9186    2.9319   -2.3356 C   0  0  0  0  0  0  0  0  0  0  0  0
    2.0768    4.1668   -2.7834 C   0  0  0  0  0  0  0  0  0  0  0  0
    2.6260    5.1520   -3.2304 O   0  0  0  0  0  0  0  0  0  0  0  0
    0.6897    4.2601   -2.6825 N   0  0  0  0  0  0  0  0  0  0  0  0
   -0.1285    3.3767   -1.9476 C   0  0  0  0  0  0  0  0  0  0  0  0
   -0.5735    3.7119   -0.5414 C   0  0  0  0  0  0  0  0  0  0  0  0
   -0.2402    5.0842   -0.0527 C   0  0  0  0  0  0  0  0  0  0  0  0
   -0.8776    5.2881    1.2707 N   0  0  0  0  0  0  0  0  0  0  0  0
   -0.2783    4.3525    2.2513 C   0  0  0  0  0  0  0  0  0  0  0  0
   -0.3560    2.9290    1.7607 C   0  0  0  0  0  0  0  0  0  0  0  0
    0.0514    2.8509    0.4168 O   0  0  0  0  0  0  0  0  0  0  0  0
   -2.3835    5.2889    1.2119 C   0  0  0  0  0  0  0  0  0  0  0  0
   -3.2356    4.0154    0.9190 C   0  0  0  0  0  0  0  0  0  0  0  0
   -3.3212    2.9617    1.8468 C   0  0  0  0  0  0  0  0  0  0  0  0
   -3.4654    1.6335    1.3855 C   0  0  0  0  0  0  0  0  0  0  0  0
   -3.8621    1.3904    0.0831 C   0  0  0  0  0  0  0  0  0  0  0  0
   -4.0943    2.4544   -0.7757 C   0  0  0  0  0  0  0  0  0  0  0  0
   -3.7665    3.7651   -0.3698 C   0  0  0  0  0  0  0  0  0  0  0  0
   -3.9775    0.1283   -0.3537 F   0  0  0  0  0  0  0  0  0  0  0  0
    6.9218    2.3386   -2.5881 Cl  0  0  0  0  0  0  0  0  0  0  0  0
    5.6476   -0.2143   -1.3616 N   0  0  0  0  0  0  0  0  0  0  0  0
  1  2  1  0
  2  3  1  0
  3  4  1  0
  4  5  2  0
  4  9  1  0
  5  6  1  0
  6  7  2  0
  6 29  1  0
  7  8  1  0
  7 28  1  0
  8  9  2  0
  9 10  1  0
 10 11  2  0
 10 12  1  0
 12 13  1  0
 13 14  1  0
 14 15  1  0
 14 19  1  0
 15 16  1  0
 16 17  1  0
 16 20  1  0
 17 18  1  0
 18 19  1  0
 20 21  1  0
 21 22  2  0
 21 26  1  0
 22 23  1  0
 23 24  2  0
 24 25  1  0
 24 27  1  0
 25 26  2  0
M  END
>  <DRUGBANK_ID>  (1) 
DB11675

>  <COMMON_NAME>  (1) 
Mosapride

>  <CAS_NUMBER>  (1) 
112885-41-3

>  <UNII>  (1) 
I8MFJ1C0BY

>  <SYNONYMS>  (1) 
Mosapride

$$$$
