
     RDKit          3D

 33 34  0  0  1  0  0  0  0  0999 V2000
    2.2324   -9.0060   -8.6157 C   0  0  2  0  0  0  0  0  0  0  0  0
    1.8991   -7.7228   -9.1827 O   0  0  0  0  0  0  0  0  0  0  0  0
    2.0752   -7.7448  -10.6049 C   0  0  2  0  0  0  0  0  0  0  0  0
    1.5372   -8.9526  -11.1419 O   0  0  0  0  0  0  0  0  0  0  0  0
    1.5685   -9.1831  -12.5425 C   0  0  2  0  0  0  0  0  0  0  0  0
    1.2286  -10.6604  -12.9171 C   0  0  0  0  0  0  0  0  0  0  0  0
    2.2723  -11.2577  -13.6554 O   0  0  0  0  0  0  0  0  0  0  0  0
    2.7403   -8.3800  -13.2517 C   0  0  2  0  0  0  0  0  0  0  0  0
    3.9416   -9.1248  -13.3618 O   0  0  0  0  0  0  0  0  0  0  0  0
    3.1555   -6.9569  -12.6945 C   0  0  2  0  0  0  0  0  0  0  0  0
    4.1673   -6.2419  -13.3834 O   0  0  0  0  0  0  0  0  0  0  0  0
    3.0513   -6.7143  -11.1944 C   0  0  1  0  0  0  0  0  0  0  0  0
    2.5594   -5.3364  -10.8340 O   0  0  0  0  0  0  0  0  0  0  0  0
    1.2307   -4.7447  -11.2017 C   0  0  2  0  0  0  0  0  0  0  0  0
   -0.0087   -5.0458  -10.4263 O   0  0  0  0  0  0  0  0  0  0  0  0
   -0.4605   -6.3828  -10.5947 C   0  0  1  0  0  0  0  0  0  0  0  0
   -1.1345   -7.3833   -9.6370 C   0  0  0  0  0  0  0  0  0  0  0  0
   -0.6343   -6.8027  -12.1016 C   0  0  1  0  0  0  0  0  0  0  0  0
   -1.9267   -6.5611  -12.5835 O   0  0  0  0  0  0  0  0  0  0  0  0
    0.3381   -6.1652  -13.1247 C   0  0  1  0  0  0  0  0  0  0  0  0
    0.3354   -6.4219  -14.5297 O   0  0  0  0  0  0  0  0  0  0  0  0
    0.8705   -4.7626  -12.7127 C   0  0  2  0  0  0  0  0  0  0  0  0
    1.9008   -4.1774  -13.5301 O   0  0  0  0  0  0  0  0  0  0  0  0
    1.9445   -9.1749   -7.1087 C   0  0  2  0  0  0  0  0  0  0  0  0
    0.7376   -9.9156   -6.7982 O   0  0  0  0  0  0  0  0  0  0  0  0
    1.8410   -7.8505   -6.3798 C   0  0  0  0  0  0  0  0  0  0  0  0
    1.7721   -8.1032   -4.9766 O   0  0  0  0  0  0  0  0  0  0  0  0
    3.7569   -9.1827   -8.8704 C   0  0  2  0  0  0  0  0  0  0  0  0
    4.4132   -7.9341   -8.6109 O   0  0  0  0  0  0  0  0  0  0  0  0
    4.0255   -9.7755  -10.2533 C   0  0  1  0  0  0  0  0  0  0  0  0
    5.3251   -9.5997  -10.7647 O   0  0  0  0  0  0  0  0  0  0  0  0
    3.4627  -11.1887  -10.2693 C   0  0  0  0  0  0  0  0  0  0  0  0
    2.4496  -11.5212  -10.8070 O   0  0  0  0  0  0  0  0  0  0  0  0
  1  2  1  1
  3  2  1  1
  3  4  1  0
  5  4  1  0
  5  6  1  1
  6  7  1  0
  8  5  1  0
  8  9  1  1
  8 10  1  0
 10 11  1  1
 10 12  1  0
 12  3  1  0
 12 13  1  6
 14 15  1  0
 14 13  1  6
 16 15  1  0
 16 17  1  1
 18 16  1  0
 18 19  1  6
 18 20  1  0
 20 21  1  6
 20 22  1  0
 22 14  1  0
 22 23  1  6
 24 26  1  0
 24 25  1  6
 24  1  1  0
 26 27  1  0
 28 30  1  0
 28 29  1  6
 28  1  1  0
 30 31  1  1
 30 32  1  0
 32 33  2  0
M  END
>  <DRUGBANK_ID>  (1) 
DB16052

>  <COMMON_NAME>  (1) 
2'-Fucosyllactose

>  <CAS_NUMBER>  (1) 
41263-94-9

>  <UNII>  (1) 
XO2533XO8R

$$$$
