
     RDKit          3D

 31 33  0  0  1  0  0  0  0  0999 V2000
    0.8948   -0.0458   -0.0728 C   0  0  0  0  0  0  0  0  0  0  0  0
    0.2381   -0.4107    1.1779 N   0  0  0  0  0  0  0  0  0  0  0  0
   -0.6742    0.6611    1.6831 C   0  0  0  0  0  0  0  0  0  0  0  0
    0.6629   -1.6586    1.7507 C   0  0  0  0  0  0  0  0  0  0  0  0
    1.3769   -2.4100    1.0177 O   0  0  0  0  0  0  0  0  0  0  0  0
    0.4044   -2.2327    3.2988 C   0  0  0  0  0  0  0  0  0  0  0  0
    1.1860   -2.1892    4.5493 O   0  0  0  0  0  0  0  0  0  0  0  0
    2.4971   -1.7681    4.6538 C   0  0  0  0  0  0  0  0  0  0  0  0
    2.9938   -1.3145    5.8987 C   0  0  0  0  0  0  0  0  0  0  0  0
    4.2752   -0.6922    6.0167 C   0  0  0  0  0  0  0  0  0  0  0  0
    5.1240   -0.6009    4.9088 C   0  0  0  0  0  0  0  0  0  0  0  0
    4.6156   -1.0105    3.6785 C   0  0  0  0  0  0  0  0  0  0  0  0
    3.3275   -1.5802    3.5691 C   0  0  0  0  0  0  0  0  0  0  0  0
    5.3530   -0.7845    2.3868 C   0  0  0  0  0  0  0  0  0  0  0  0
    6.6717    0.0013    2.4393 C   0  0  2  0  0  0  0  0  0  0  0  0
    7.3496   -0.4776    3.7366 C   0  0  0  0  0  0  0  0  0  0  0  0
    6.5447   -0.0949    4.9970 C   0  0  0  0  0  0  0  0  0  0  0  0
    6.6153    1.4782    2.3589 N   0  0  0  0  0  0  0  0  0  0  0  0
    6.0615    2.0497    1.1077 C   0  0  0  0  0  0  0  0  0  0  0  0
    4.5177    1.9569    0.8857 C   0  0  1  0  0  0  0  0  0  0  0  0
    3.7687    2.5295    2.0940 C   0  0  0  0  0  0  0  0  0  0  0  0
    3.8887    3.8560    2.4919 C   0  0  0  0  0  0  0  0  0  0  0  0
    3.2778    4.3401    3.6675 C   0  0  0  0  0  0  0  0  0  0  0  0
    2.5257    3.5152    4.4773 C   0  0  0  0  0  0  0  0  0  0  0  0
    2.3738    2.1999    4.1399 C   0  0  0  0  0  0  0  0  0  0  0  0
    3.0263    1.7233    2.9563 C   0  0  0  0  0  0  0  0  0  0  0  0
    1.6043    1.3741    5.1511 C   0  0  0  0  0  0  0  0  0  0  0  0
    0.4091    0.6636    4.6315 C   0  0  0  0  0  0  0  0  0  0  0  0
    0.8768   -0.0122    3.5260 O   0  0  0  0  0  0  0  0  0  0  0  0
    1.9273    3.9146    5.6319 O   0  0  0  0  0  0  0  0  0  0  0  0
    4.1251    2.5834   -0.3366 O   0  0  0  0  0  0  0  0  0  0  0  0
  1  2  1  0
  2  3  1  0
  2  4  1  0
  4  5  2  0
  4  6  1  0
  6  7  1  0
  7  8  1  0
  8  9  2  0
  8 13  1  0
  9 10  1  0
 10 11  2  0
 11 12  1  0
 11 17  1  0
 12 13  2  0
 12 14  1  0
 14 15  1  0
 15 16  1  0
 15 18  1  1
 16 17  1  0
 18 19  1  0
 19 20  1  0
 20 21  1  0
 20 31  1  6
 21 22  2  0
 21 26  1  0
 22 23  1  0
 23 24  2  0
 24 25  1  0
 24 30  1  0
 25 26  2  0
 25 27  1  0
 27 28  1  0
 28 29  1  0
M  END
>  <DRUGBANK_ID>  (1) 
DB05590

>  <COMMON_NAME>  (1) 
Bedoradrine

>  <CAS_NUMBER>  (1) 
194785-19-8

>  <UNII>  (1) 
4EAR229231

>  <SYNONYMS>  (1) 
Bedoradrine

$$$$
