
     RDKit          3D

 30 33  0  0  0  0  0  0  0  0999 V2000
    0.3719    1.6490   -0.7242 C   0  0  0  0  0  0  0  0  0  0  0  0
    0.6854    1.2384    1.0744 C   0  0  0  0  0  0  0  0  0  0  0  0
    0.6049    3.4184    0.7229 C   0  0  0  0  0  0  0  0  0  0  0  0
   -1.8793    1.4168   -0.3533 C   0  0  1  0  0  0  0  0  0  0  0  0
   -0.8476    3.1693   -1.0442 C   0  0  1  0  0  0  0  0  0  0  0  0
   -2.9947    5.4052   -1.3699 C   0  0  0  0  0  0  0  0  0  0  0  0
   -4.4815    5.6735   -1.6192 C   0  0  0  0  0  0  0  0  0  0  0  0
   -6.2563    4.5239   -3.9334 C   0  0  0  0  0  0  0  0  0  0  0  0
   -7.3013    5.3297   -3.1044 C   0  0  0  0  0  0  0  0  0  0  0  0
   -0.2600    4.1766   -1.9639 C   0  0  0  0  0  0  0  0  0  0  0  0
   -2.6129    3.8592   -1.0647 C   0  0  1  0  0  0  0  0  0  0  0  0
   -3.5717    2.8704   -1.8587 C   0  0  2  0  0  0  0  0  0  0  0  0
   -5.1577    3.2632   -2.8546 C   0  0  1  0  0  0  0  0  0  0  0  0
   -5.1317    4.5899   -2.4013 C   0  0  2  0  0  0  0  0  0  0  0  0
   -4.0136    4.6315   -3.8640 C   0  0  0  0  0  0  0  0  0  0  0  0
   -5.5415    4.0041    0.6970 C   0  0  0  0  0  0  0  0  0  0  0  0
   -6.8535    3.4317    0.2047 C   0  0  0  0  0  0  0  0  0  0  0  0
   -7.9558    5.6801   -0.3373 C   0  0  0  0  0  0  0  0  0  0  0  0
   -7.6018    4.3002   -0.7967 C   0  0  1  0  0  0  0  0  0  0  0  0
   -6.8652    4.3814   -2.1152 C   0  0  1  0  0  0  0  0  0  0  0  0
    1.2599    2.4738    1.6663 C   0  0  2  0  0  0  0  0  0  0  0  0
    2.6657    2.4070    1.5589 O   0  0  0  0  0  0  0  0  0  0  0  0
   -3.3927    1.6289   -0.8138 C   0  0  2  0  0  0  0  0  0  0  0  0
   -4.0309    1.7094    0.4433 O   0  0  0  0  0  0  0  0  0  0  0  0
   -0.9763    2.8917    0.3716 C   0  0  2  0  0  0  0  0  0  0  0  0
   -5.3511    5.3652    1.3895 C   0  0  0  0  0  0  0  0  0  0  0  0
   -5.8088    6.4786    1.0773 O   0  0  0  0  0  0  0  0  0  0  0  0
   -4.4388    5.3377    2.3705 O   0  0  0  0  0  0  0  0  0  0  0  0
   -1.6316    0.0540    0.3241 C   0  0  0  0  0  0  0  0  0  0  0  0
   -1.8570   -1.1475   -0.5453 C   0  0  0  0  0  0  0  0  0  0  0  0
  2  1  1  0
  4 23  1  0
  4 29  1  1
  5 11  1  0
  5 10  1  1
  5  1  1  0
  6  7  1  0
  9  8  1  0
 11  6  1  6
 11 12  1  0
 12 13  1  0
 12 23  1  1
 13 14  1  0
 13  8  1  6
 14 20  1  0
 14  7  1  0
 14 15  1  6
 16 17  1  0
 16 26  1  0
 19 17  1  0
 19 18  1  1
 20  9  1  6
 20 19  1  0
 21  3  1  0
 21  2  1  0
 21 22  1  6
 23 24  1  1
 25  5  1  0
 25  3  1  6
 25  4  1  0
 26 28  1  0
 26 27  2  0
 29 30  1  0
M  END
>  <DRUGBANK_ID>  (1) 
DB05990

>  <COMMON_NAME>  (1) 
Obeticholic acid

>  <CAS_NUMBER>  (1) 
459789-99-2

>  <UNII>  (1) 
0462Z4S4OZ

>  <SYNONYMS>  (1) 
(3α,5β,6α,7α)-6-ethyl-3,7-dihydroxycholan-24-oic acid; 6-alpha-ethylchenodeoxycholic acid; 6-ECDCA; 6-Ethyl-CDCA; 6-ethylchenodeoxycholic acid; 6alpha-Ethyl-chenodeoxycholic acid; 6α-ethylchenodeoxycholic acid; Obeticholic acid

$$$$
