
     RDKit          3D

 20 21  0  0  0  0  0  0  0  0999 V2000
    0.9121   -0.0098    0.0832 C   0  0  0  0  0  0  0  0  0  0  0  0
   -1.2800    7.0379   -4.8626 C   0  0  0  0  0  0  0  0  0  0  0  0
    0.4326    1.4039   -0.2842 C   0  0  0  0  0  0  0  0  0  0  0  0
    0.0039    6.9889   -4.0655 C   0  0  0  0  0  0  0  0  0  0  0  0
    5.8428    0.7183   -4.8744 C   0  0  0  0  0  0  0  0  0  0  0  0
    5.6475    2.0916   -4.2538 C   0  0  0  0  0  0  0  0  0  0  0  0
    4.6475    0.3371   -5.7430 C   0  0  0  0  0  0  0  0  0  0  0  0
    4.3286    2.1453   -3.5060 C   0  0  0  0  0  0  0  0  0  0  0  0
    3.3489    0.4569   -4.9626 C   0  0  0  0  0  0  0  0  0  0  0  0
   -0.3991    4.0798   -1.6990 C   0  0  0  0  0  0  0  0  0  0  0  0
    0.5817    3.2334   -2.0518 C   0  0  0  0  0  0  0  0  0  0  0  0
   -0.7008    5.4176   -2.3253 C   0  0  0  0  0  0  0  0  0  0  0  0
    1.6708    1.1788   -2.4724 C   0  0  0  0  0  0  0  0  0  0  0  0
    1.9126    1.9585   -3.7720 C   0  0  0  0  0  0  0  0  0  0  0  0
    3.2179    1.7976   -4.4021 N   0  0  0  0  0  0  0  0  0  0  0  0
    0.8631    1.9387   -1.5897 N   0  0  0  0  0  0  0  0  0  0  0  0
   -1.6371    6.1039   -1.9278 O   0  0  0  0  0  0  0  0  0  0  0  0
    2.0676    0.0327   -2.2883 O   0  0  0  0  0  0  0  0  0  0  0  0
    0.1147    5.7507   -3.3466 O   0  0  0  0  0  0  0  0  0  0  0  0
    1.6832    3.6517   -3.3091 S   0  0  0  0  0  0  0  0  0  0  0  0
  3  1  1  0
  4  2  1  0
  6  5  1  0
  7  5  1  0
  8  6  1  0
  9  7  1  0
 11 10  2  0
 12 10  1  0
 14 13  1  0
 15  8  1  0
 15  9  1  0
 15 14  1  0
 16  3  1  0
 16 11  1  0
 16 13  1  0
 17 12  2  0
 18 13  2  0
 19  4  1  0
 19 12  1  0
 20 11  1  0
 20 14  1  0
M  END
>  <DRUGBANK_ID>  (1) 
DB13202

>  <COMMON_NAME>  (1) 
Piprozolin

>  <CAS_NUMBER>  (1) 
17243-64-0

>  <UNII>  (1) 
7786W0VV8M

>  <SYNONYMS>  (1) 
(+-)-Piprozolin; Piprozolin; Piprozolina; Piprozoline; Piprozolinum

$$$$
