
     RDKit          3D

 10  8  0  0  0  0  0  0  0  0999 V2000
    1.3099   -0.0610    0.0812 C   0  0  0  0  0  0  0  0  0  0  0  0
    1.1666    1.9306    1.6198 C   0  0  0  0  0  0  0  0  0  0  0  0
    0.8326   -1.4602   -0.3025 C   0  0  0  0  0  0  0  0  0  0  0  0
    0.6689    0.5060    1.3575 C   0  0  0  0  0  0  0  0  0  0  0  0
    0.0547   -2.0380    0.4968 O   0  0  0  0  0  0  0  0  0  0  0  0
    0.4254    2.9083    1.7715 O   0  0  0  0  0  0  0  0  0  0  0  0
    0.9623   -1.7090   -1.5363 O   0  0  0  0  0  0  0  0  0  0  0  0
   -0.8433    0.5876    1.3543 N   0  0  0  0  0  0  0  0  0  0  0  0
    2.4944    2.0707    1.6687 O   0  0  0  0  0  0  0  0  0  0  0  0
   -1.4078   -0.2447   -1.2381 K   0  0  0  0  0 15  0  0  0  0  0  0
  2  4  1  0
  3  1  1  0
  4  1  1  0
  5  3  1  0
  6  2  2  0
  7  3  2  0
  8  4  1  0
  9  2  1  0
M  CHG  2   5  -1  10   1
M  END
>  <DRUGBANK_ID>  (1) 
DB15998

>  <COMMON_NAME>  (1) 
Potassium hydrogen DL-aspartate

>  <CAS_NUMBER>  (1) 
923-09-1

>  <UNII>  (1) 
5UW00M8KR0

$$$$
