
     RDKit          3D

 34 36  0  0  0  0  0  0  0  0999 V2000
    0.9779    0.0806    0.0549 In  0  0  0  0  0 15  0  0  0  0  0  0
    1.6480    2.0100   -0.0210 O   0  0  0  0  0  0  0  0  0  0  0  0
    1.6480    2.0100   -0.0210 O   0  0  0  0  0  0  0  0  0  0  0  0
    1.6480    2.0100   -0.0210 O   0  0  0  0  0  0  0  0  0  0  0  0
   -0.9620    1.3620    0.0250 N   0  0  0  0  0  0  0  0  0  0  0  0
   -0.9620    1.3620    0.0250 N   0  0  0  0  0  0  0  0  0  0  0  0
   -0.9620    1.3620    0.0250 N   0  0  0  0  0  0  0  0  0  0  0  0
   -0.0550    0.3430    0.0120 C   0  0  0  0  0  0  0  0  0  0  0  0
   -0.0550    0.3430    0.0120 C   0  0  0  0  0  0  0  0  0  0  0  0
   -0.0550    0.3430    0.0120 C   0  0  0  0  0  0  0  0  0  0  0  0
   -0.4270   -1.0280   -0.0040 C   0  0  0  0  0  0  0  0  0  0  0  0
   -0.4270   -1.0280   -0.0040 C   0  0  0  0  0  0  0  0  0  0  0  0
   -0.4270   -1.0280   -0.0040 C   0  0  0  0  0  0  0  0  0  0  0  0
    1.3420    0.7760   -0.0060 C   0  0  0  0  0  0  0  0  0  0  0  0
    1.3420    0.7760   -0.0060 C   0  0  0  0  0  0  0  0  0  0  0  0
    1.3420    0.7760   -0.0060 C   0  0  0  0  0  0  0  0  0  0  0  0
    0.6140   -2.0130    0.0050 C   0  0  0  0  0  0  0  0  0  0  0  0
    0.6140   -2.0130    0.0050 C   0  0  0  0  0  0  0  0  0  0  0  0
    0.6140   -2.0130    0.0050 C   0  0  0  0  0  0  0  0  0  0  0  0
   -1.8260   -1.2870   -0.0180 C   0  0  0  0  0  0  0  0  0  0  0  0
   -1.8260   -1.2870   -0.0180 C   0  0  0  0  0  0  0  0  0  0  0  0
   -1.8260   -1.2870   -0.0180 C   0  0  0  0  0  0  0  0  0  0  0  0
    2.3010   -0.2630    0.0020 C   0  0  0  0  0  0  0  0  0  0  0  0
    2.3010   -0.2630    0.0020 C   0  0  0  0  0  0  0  0  0  0  0  0
    2.3010   -0.2630    0.0020 C   0  0  0  0  0  0  0  0  0  0  0  0
    1.9370   -1.6170    0.0120 C   0  0  0  0  0  0  0  0  0  0  0  0
    1.9370   -1.6170    0.0120 C   0  0  0  0  0  0  0  0  0  0  0  0
    1.9370   -1.6170    0.0120 C   0  0  0  0  0  0  0  0  0  0  0  0
   -2.2440    1.0760    0.0150 C   0  0  0  0  0  0  0  0  0  0  0  0
   -2.2440    1.0760    0.0150 C   0  0  0  0  0  0  0  0  0  0  0  0
   -2.2440    1.0760    0.0150 C   0  0  0  0  0  0  0  0  0  0  0  0
   -2.7170   -0.2540   -0.0190 C   0  0  0  0  0  0  0  0  0  0  0  0
   -2.7170   -0.2540   -0.0190 C   0  0  0  0  0  0  0  0  0  0  0  0
   -2.7170   -0.2540   -0.0190 C   0  0  0  0  0  0  0  0  0  0  0  0
  2 14  1  0
  3 15  1  0
  4 16  1  0
  5  8  2  0
  5 29  1  0
  6  9  2  0
  6 30  1  0
  7 10  2  0
  7 31  1  0
  8 11  1  0
  8 14  1  0
  9 12  1  0
  9 15  1  0
 10 13  1  0
 10 16  1  0
 11 17  1  0
 11 20  2  0
 12 18  1  0
 12 21  2  0
 13 19  1  0
 13 22  2  0
 14 23  2  0
 15 24  2  0
 16 25  2  0
 17 26  2  0
 18 27  2  0
 19 28  2  0
 20 32  1  0
 21 33  1  0
 22 34  1  0
 23 26  1  0
 24 27  1  0
 25 28  1  0
 29 32  2  0
 30 33  2  0
 31 34  2  0
M  CHG  4   1   3   2  -1   3  -1   4  -1
M  ISO  1   1 111
M  END
>  <DRUGBANK_ID>  (1) 
DB09473

>  <COMMON_NAME>  (1) 
Indium In-111 oxyquinoline

>  <CAS_NUMBER>  (1) 
65389-08-4

>  <UNII>  (1) 
LGX9OL562T

>  <SYNONYMS>  (1) 
In-111 oxyquinoline; Indium (111 In) oxyquinoline; Indium (In111) oxine; Indium (In111) oxyquinoline; Indium 111In oxyquinoline; Indium In-111 oxine; Indium In111 oxine; Indium-111 oxine; Indium-111 oxyquinoline

$$$$
