
     RDKit          3D

 22 22  0  0  0  0  0  0  0  0999 V2000
   -0.9135   -0.3988    1.4327 C   0  0  0  0  0  0  0  0  0  0  0  0
    0.5639   -0.7331    1.1639 C   0  0  1  0  0  0  0  0  0  0  0  0
    1.3720   -0.5756    2.4563 C   0  0  0  0  0  0  0  0  0  0  0  0
    1.5170   -1.8553    3.2290 C   0  0  0  0  0  0  0  0  0  0  0  0
    0.8471   -2.8457    2.3156 C   0  0  0  0  0  0  0  0  0  0  0  0
    0.7938   -2.1921    0.9912 N   0  0  0  0  0  0  0  0  0  0  0  0
    0.7613   -2.9653   -0.1568 C   0  0  0  0  0  0  0  0  0  0  0  0
    0.9318   -4.1886   -0.1006 O   0  0  0  0  0  0  0  0  0  0  0  0
    0.6064   -2.3031   -1.5324 C   0  0  0  0  0  0  0  0  0  0  0  0
   -0.7259   -1.7191   -1.6645 N   0  0  0  0  0  0  0  0  0  0  0  0
    1.0476    0.3182    0.0674 C   0  0  0  0  0  0  0  0  0  0  0  0
    0.4758    0.4848   -1.0163 O   0  0  0  0  0  0  0  0  0  0  0  0
    2.1318    1.1194    0.1676 N   0  0  0  0  0  0  0  0  0  0  0  0
    2.8945    1.5975    1.3080 C   0  0  1  0  0  0  0  0  0  0  0  0
    4.3685    1.3020    1.0692 C   0  0  0  0  0  0  0  0  0  0  0  0
    4.9824    2.0938   -0.0701 C   0  0  0  0  0  0  0  0  0  0  0  0
    5.0912    3.5614    0.2376 C   0  0  0  0  0  0  0  0  0  0  0  0
    5.9698    4.1026    0.8554 O   0  0  0  0  0  0  0  0  0  0  0  0
    4.0035    4.2457   -0.1540 O   0  0  0  0  0  0  0  0  0  0  0  0
    2.4010    2.8874    1.9381 C   0  0  0  0  0  0  0  0  0  0  0  0
    2.4368    3.1242    3.1366 O   0  0  0  0  0  0  0  0  0  0  0  0
    1.9752    3.8282    1.0945 O   0  0  0  0  0  0  0  0  0  0  0  0
  2  3  1  0
  2  6  1  0
  2 11  1  0
  2  1  1  1
  3  4  1  0
  4  5  1  0
  5  6  1  0
  6  7  1  0
  7  8  2  0
  7  9  1  0
  9 10  1  0
 11 12  2  0
 11 13  1  0
 14 13  1  0
 14 15  1  6
 14 20  1  0
 15 16  1  0
 16 17  1  0
 17 18  2  0
 17 19  1  0
 20 21  2  0
 20 22  1  0
M  END
>  <DRUGBANK_ID>  (1) 
DB06045

>  <COMMON_NAME>  (1) 
Trofinetide

>  <CAS_NUMBER>  (1) 
853400-76-7

>  <UNII>  (1) 
Z2ME8F52QL

>  <SYNONYMS>  (1) 
glycyl-L-2-methylprolyl-L-glutamic acid; Trofinetide

$$$$
