
     RDKit          3D

 12 12  0  0  0  0  0  0  0  0999 V2000
    0.7026    1.2854   -0.2482 C   0  0  1  0  0  0  0  0  0  0  0  0
    1.3582    2.4637    0.2320 O   0  0  0  0  0  0  0  0  0  0  0  0
    1.4490    0.0242    0.2109 C   0  0  2  0  0  0  0  0  0  0  0  0
    2.7784   -0.0131   -0.3113 O   0  0  0  0  0  0  0  0  0  0  0  0
    0.6766   -1.2470   -0.1934 C   0  0  2  0  0  0  0  0  0  0  0  0
   -1.3829   -0.0670   -0.2293 C   0  0  2  0  0  0  0  0  0  0  0  0
   -2.7326   -0.1361    0.1836 O   0  0  0  0  0  0  0  0  0  0  0  0
   -0.6774   -1.2007    0.2887 O   0  0  0  0  0  0  0  0  0  0  0  0
   -0.7401    1.2424    0.2385 C   0  0  1  0  0  0  0  0  0  0  0  0
    1.4614   -2.4862    0.2998 C   0  0  0  0  0  0  0  0  0  0  0  0
    0.6550   -3.4757    0.9183 O   0  0  0  0  0  0  0  0  0  0  0  0
   -0.7121    1.2662    1.6099 F   0  0  0  0  0  0  0  0  0  0  0  0
  1  3  1  0
  1  2  1  1
  3  5  1  0
  3  4  1  6
  5  8  1  0
  5 10  1  1
  6  8  1  0
  6  9  1  0
  6  7  1  1
  9  1  1  0
  9 12  1  1
 10 11  1  0
M  END
>  <DRUGBANK_ID>  (1) 
DB04483

>  <SECONDARY_ACCESSION_NUMBERS>  (1) 
EXPT02121

>  <COMMON_NAME>  (1) 
2-deoxy-2-fluoro-Î²-D-mannose

>  <CAS_NUMBER>  (1) 
55449-80-4

>  <SYNONYMS>  (1) 
2-deoxy-2-fluoro-beta-D-mannose

$$$$
