
     RDKit          3D

 22 24  0  0  1  0  0  0  0  0999 V2000
   -0.8530   -1.4626    0.0201 C   0  0  0  0  0  0  0  0  0  0  0  0
   -0.0714    4.6540    1.0310 C   0  0  0  0  0  0  0  0  0  0  0  0
   -1.9238    0.5783    0.0616 C   0  0  0  0  0  0  0  0  0  0  0  0
    2.3952   -0.1415    0.0562 C   0  0  0  0  0  0  0  0  0  0  0  0
    0.3682   -0.7914    0.0444 C   0  0  0  0  0  0  0  0  0  0  0  0
    1.4353    4.4486    0.7115 C   0  0  2  0  0  0  0  0  0  0  0  0
    1.9407    4.5408   -0.7483 C   0  0  2  0  0  0  0  0  0  0  0  0
    2.0215    3.0766   -1.2191 C   0  0  2  0  0  0  0  0  0  0  0  0
    0.3193    0.5971    0.0587 C   0  0  0  0  0  0  0  0  0  0  0  0
    2.2415    2.3236    0.0794 C   0  0  2  0  0  0  0  0  0  0  0  0
   -2.0123   -0.7622    0.0383 N   0  0  0  0  0  0  0  0  0  0  0  0
   -0.7979    1.3288    0.0189 N   0  0  0  0  0  0  0  0  0  0  0  0
    1.6618   -1.2352    0.0369 N   0  0  0  0  0  0  0  0  0  0  0  0
    1.6345    0.9993    0.1041 N   0  0  0  0  0  0  0  0  0  0  0  0
    3.2377    5.1375   -0.8463 O   0  0  0  0  0  0  0  0  0  0  0  0
    3.0264    2.8294   -2.1900 O   0  0  0  0  0  0  0  0  0  0  0  0
   -2.1017    3.1614   -1.6141 O   0  0  0  0  0  0  0  0  0  0  0  0
   -1.4254    5.4217   -1.3572 O   0  0  0  0  0  0  0  0  0  0  0  0
   -0.4122    4.0547   -2.9459 O   0  0  0  0  0  0  0  0  0  0  0  0
   -0.9835    3.8503    0.2758 O   0  0  0  0  0  0  0  0  0  0  0  0
    1.7740    3.1237    1.1728 O   0  0  0  0  0  0  0  0  0  0  0  0
   -0.6821    3.9582   -1.4243 P   0  0  0  0  0  0  0  0  0  0  0  0
  5  1  2  0
  6  2  1  6
  7  6  1  0
  7 15  1  1
  8  7  1  0
  8 16  1  6
  9  5  1  0
 10  8  1  0
 10 14  1  6
 11  1  1  0
 11  3  2  0
 12  3  1  0
 12  9  2  0
 13  4  2  0
 13  5  1  0
 14  4  1  0
 14  9  1  0
 20  2  1  0
 21  6  1  0
 21 10  1  0
 22 17  1  0
 22 18  1  0
 22 19  2  0
 22 20  1  0
M  END
>  <DRUGBANK_ID>  (1) 
DB03726

>  <SECONDARY_ACCESSION_NUMBERS>  (1) 
EXPT02482

>  <COMMON_NAME>  (1) 
Purine Riboside-5'-Monophosphate

$$$$
