
     RDKit          3D

 28 31  0  0  0  0  0  0  0  0999 V2000
    0.9199   -0.0701   -0.0016 F   0  0  0  0  0  0  0  0  0  0  0  0
    2.2778   -0.0043   -0.0863 C   0  0  0  0  0  0  0  0  0  0  0  0
    2.7088    0.3428    1.1597 F   0  0  0  0  0  0  0  0  0  0  0  0
    2.7096   -1.2750   -0.2959 F   0  0  0  0  0  0  0  0  0  0  0  0
    2.7362    0.9768   -1.1251 C   0  0  0  0  0  0  0  0  0  0  0  0
    2.2897    2.2915   -1.0014 C   0  0  0  0  0  0  0  0  0  0  0  0
    2.6927    3.2686   -1.9046 C   0  0  0  0  0  0  0  0  0  0  0  0
    3.5571    2.9403   -2.9508 C   0  0  0  0  0  0  0  0  0  0  0  0
    4.0427    1.6369   -3.0614 C   0  0  0  0  0  0  0  0  0  0  0  0
    3.6057    0.6491   -2.1734 C   0  0  0  0  0  0  0  0  0  0  0  0
    2.1683    4.6073   -1.6908 C   0  0  0  0  0  0  0  0  0  0  0  0
    1.2913    5.1358   -2.5501 C   0  0  0  0  0  0  0  0  0  0  0  0
    0.6615    6.4771   -2.3496 C   0  0  0  0  0  0  0  0  0  0  0  0
    1.1705    7.2741   -1.2246 N   0  0  0  0  0  0  0  0  0  0  0  0
    1.2557    8.7033   -1.5764 C   0  0  0  0  0  0  0  0  0  0  0  0
    2.3910    9.1344   -2.5688 C   0  0  0  0  0  0  0  0  0  0  0  0
    2.3463    8.5579   -3.9860 C   0  0  0  0  0  0  0  0  0  0  0  0
    2.8042    7.2434   -4.3227 C   0  0  0  0  0  0  0  0  0  0  0  0
    2.3306    6.6671   -5.5817 C   0  0  0  0  0  0  0  0  0  0  0  0
    2.1033    7.5333   -6.5648 C   0  0  0  0  0  0  0  0  0  0  0  0
    2.1426    6.9947   -7.8574 C   0  0  0  0  0  0  0  0  0  0  0  0
    0.9869    6.3412   -7.9767 C   0  0  0  0  0  0  0  0  0  0  0  0
    0.8946    5.3267   -7.1068 N   0  0  0  0  0  0  0  0  0  0  0  0
    1.7725    5.3983   -6.0018 C   0  0  0  0  0  0  0  0  0  0  0  0
    1.3657    8.6724   -6.1869 C   0  0  0  0  0  0  0  0  0  0  0  0
    1.5571    9.2198   -4.9218 C   0  0  0  0  0  0  0  0  0  0  0  0
    2.4349    6.8279   -0.6204 C   0  0  0  0  0  0  0  0  0  0  0  0
    2.5372    5.3211   -0.4268 C   0  0  0  0  0  0  0  0  0  0  0  0
  1  2  1  0
  2  3  1  0
  2  4  1  0
  2  5  1  0
  5  6  2  0
  5 10  1  0
  6  7  1  0
  7  8  2  0
  7 11  1  0
  8  9  1  0
  9 10  2  0
 11 12  2  0
 11 28  1  0
 12 13  1  0
 13 14  1  0
 14 15  1  0
 14 27  1  0
 15 16  1  0
 16 17  1  0
 17 18  2  0
 17 26  1  0
 18 19  1  0
 19 20  2  0
 19 24  1  0
 20 21  1  0
 20 25  1  0
 21 22  2  0
 22 23  1  0
 23 24  2  0
 25 26  2  0
 27 28  1  0
M  END
>  <DRUGBANK_ID>  (1) 
DB16204

>  <COMMON_NAME>  (1) 
Isoquinoline, 7-(2-(3,6-dihydro-4-(3-(trifluoromethyl)phenyl)-1(2h)-pyridinyl)ethyl)-

>  <CAS_NUMBER>  (1) 
335267-09-9

>  <UNII>  (1) 
5WX0OAF07I

$$$$
