55E
     RDKit          3D

 21 23  0  0  0  0  0  0  0  0999 V2000
    1.0354    0.0212   -0.0768 O   0  0  0  0  0  0  0  0  0  0  0  0
    2.2628    0.0252   -0.0605 C   0  0  0  0  0  0  0  0  0  0  0  0
    2.9196    1.2364   -0.0581 N   0  0  0  0  0  0  0  0  0  0  0  0
    4.1744    1.2645    0.2500 C   0  0  0  0  0  0  0  0  0  0  0  0
    4.9028    2.5637    0.2465 C   0  0  0  0  0  0  0  0  0  0  0  0
    6.0264    2.7421   -0.5719 C   0  0  0  0  0  0  0  0  0  0  0  0
    6.7130    3.9723   -0.5932 C   0  0  0  0  0  0  0  0  0  0  0  0
    7.9036    4.1533   -1.4891 C   0  0  0  0  0  0  0  0  0  0  0  0
    6.2566    5.0087    0.2291 C   0  0  0  0  0  0  0  0  0  0  0  0
    6.8705    6.2283    0.2872 O   0  0  0  0  0  0  0  0  0  0  0  0
    5.1331    4.8390    1.0365 C   0  0  0  0  0  0  0  0  0  0  0  0
    4.4448    3.6209    1.0379 C   0  0  0  0  0  0  0  0  0  0  0  0
    4.9229    0.0267    0.6645 C   0  0  0  0  0  0  0  0  0  0  0  0
    4.1666   -1.2116    0.2714 C   0  0  0  0  0  0  0  0  0  0  0  0
    2.9245   -1.1820   -0.0808 N   0  0  0  0  0  0  0  0  0  0  0  0
    4.9087   -2.4965    0.2527 C   0  0  0  0  0  0  0  0  0  0  0  0
    5.5606   -2.9742    1.3934 C   0  0  0  0  0  0  0  0  0  0  0  0
    6.3681   -4.1128    1.3005 C   0  0  0  0  0  0  0  0  0  0  0  0
    6.4594   -4.8127    0.0962 C   0  0  0  0  0  0  0  0  0  0  0  0
    5.7768   -4.3543   -1.0305 C   0  0  0  0  0  0  0  0  0  0  0  0
    5.0018   -3.1950   -0.9547 C   0  0  0  0  0  0  0  0  0  0  0  0
  1  2  2  0
  2 15  1  0
  3  2  1  0
  3  4  2  0
  4 13  1  0
  5  4  1  0
  5  6  2  0
  7  6  1  0
  7  8  1  0
  9  7  2  0
 10  9  1  0
 11  9  1  0
 11 12  2  0
 12  5  1  0
 13 14  1  0
 14 16  1  0
 15 14  2  0
 16 21  1  0
 16 17  2  0
 17 18  1  0
 18 19  2  0
 20 19  1  0
 21 20  2  0
M  END
>  <DRUGBANK_ID>  (1) 
DB07151

>  <COMMON_NAME>  (1) 
4-(4-hydroxy-3-methylphenyl)-6-phenylpyrimidin-2(5H)-one

$$$$
