
     RDKit          3D

 23 25  0  0  1  0  0  0  0  0999 V2000
    1.1366    1.7856    3.7641 C   0  0  0  0  0  0  0  0  0  0  0  0
    0.9954    0.2276    3.7045 C   0  0  2  0  0  0  0  0  0  0  0  0
   -0.5173   -0.0869    3.8684 C   0  0  0  0  0  0  0  0  0  0  0  0
   -0.9773    0.2700    5.2538 C   0  0  0  0  0  0  0  0  0  0  0  0
   -0.1526   -0.4383    6.3249 C   0  0  1  0  0  0  0  0  0  0  0  0
    1.3288    0.0176    6.3453 C   0  0  0  0  0  0  0  0  0  0  0  0
    2.0208   -0.1525    5.0041 C   0  0  2  0  0  0  0  0  0  0  0  0
    3.7683    0.3629    4.8010 C   0  0  0  0  0  0  0  0  0  0  0  0
    4.8563    0.3415    3.4960 O   0  0  0  0  0  0  0  0  0  0  0  0
   -0.6716   -0.0658    7.5932 O   0  0  0  0  0  0  0  0  0  0  0  0
    1.3994   -0.3408    2.2133 C   0  0  1  0  0  0  0  0  0  0  0  0
    2.8761   -0.1860    2.2941 C   0  0  0  0  0  0  0  0  0  0  0  0
    3.4729   -1.4080    3.2451 C   0  0  0  0  0  0  0  0  0  0  0  0
    3.2396   -2.7516    3.2969 C   0  0  1  0  0  0  0  0  0  0  0  0
    1.5797   -2.9019    2.7134 C   0  0  2  0  0  0  0  0  0  0  0  0
    1.0355   -1.8236    1.8195 C   0  0  2  0  0  0  0  0  0  0  0  0
    0.9270   -2.5624    0.4275 C   0  0  0  0  0  0  0  0  0  0  0  0
   -0.3886   -2.2644   -0.0991 N   0  0  0  0  0  0  0  0  0  0  0  0
    0.8710   -3.0803    3.9327 C   0  0  0  0  0  0  0  0  0  0  0  0
    2.0693   -3.9959    4.0398 C   0  0  0  0  0  0  0  0  0  0  0  0
    3.3010   -3.8823    2.4610 C   0  0  0  0  0  0  0  0  0  0  0  0
    3.6456   -3.0669    1.3161 C   0  0  0  0  0  0  0  0  0  0  0  0
    4.3164   -3.5666    4.3738 C   0  0  0  0  0  0  0  0  0  0  0  0
  2  1  1  6
  2  3  1  0
  2  7  1  0
  3  4  1  0
  4  5  1  0
  5  6  1  0
  5 10  1  1
  6  7  1  0
  7  8  1  1
  8  9  1  0
 11 12  1  1
 11 16  1  0
 11  2  1  0
 12 13  1  0
 13 14  1  0
 14 15  1  0
 14 21  1  0
 14 23  1  1
 15 16  1  0
 15 19  1  1
 16 17  1  6
 17 18  1  0
 19 20  1  0
 20 21  1  0
 21 22  2  0
M  END
>  <DRUGBANK_ID>  (1) 
DB13012

>  <COMMON_NAME>  (1) 
AQX-1125

>  <CAS_NUMBER>  (1) 
782487-28-9

>  <UNII>  (1) 
6R5034F862

$$$$
