
     RDKit          3D

 33 36  0  0  0  0  0  0  0  0999 V2000
    1.4640   -0.1185    0.0397 C   0  0  0  0  0  0  0  0  0  0  0  0
    2.7385   -0.6444    0.1527 O   0  0  0  0  0  0  0  0  0  0  0  0
    3.1752   -2.0141    0.3201 C   0  0  0  0  0  0  0  0  0  0  0  0
    2.3170   -3.1770    0.3189 N   0  0  0  0  0  0  0  0  0  0  0  0
    2.9669   -4.4481    0.4008 C   0  0  0  0  0  0  0  0  0  0  0  0
   -1.2888    0.4180   -0.0075 C   0  0  0  0  0  0  0  0  0  0  0  0
   -0.2357    1.3891    0.0476 C   0  0  0  0  0  0  0  0  0  0  0  0
    1.1208    1.1581   -0.0626 C   0  0  0  0  0  0  0  0  0  0  0  0
    0.4635   -0.9777   -0.2385 C   0  0  0  0  0  0  0  0  0  0  0  0
   -0.9008   -0.8602   -0.1363 C   0  0  0  0  0  0  0  0  0  0  0  0
   -0.7962    4.7964    3.3395 N   0  0  0  0  0  0  0  0  0  0  0  0
   -0.3292    5.6083    2.2333 C   0  0  0  0  0  0  0  0  0  0  0  0
   -0.5861    5.0879    0.8102 C   0  0  0  0  0  0  0  0  0  0  0  0
    0.1967    3.8089    0.5692 C   0  0  0  0  0  0  0  0  0  0  0  0
   -0.5914    2.6382    0.4296 N   0  0  0  0  0  0  0  0  0  0  0  0
   -1.9524    4.6154    0.4436 C   0  0  0  0  0  0  0  0  0  0  0  0
   -1.9002    4.3275   -1.1776 C   0  0  0  0  0  0  0  0  0  0  0  0
   -1.7094    5.5802   -1.8746 N   0  0  0  0  0  0  0  0  0  0  0  0
   -0.4764    6.2827   -1.5503 C   0  0  0  0  0  0  0  0  0  0  0  0
   -0.4173    6.4030   -0.0311 C   0  0  0  0  0  0  0  0  0  0  0  0
   -4.9004    6.5308   -3.5094 C   0  0  0  0  0  0  0  0  0  0  0  0
   -6.1940    6.4955   -3.0415 N   0  0  0  0  0  0  0  0  0  0  0  0
   -6.2380    6.0185   -1.7715 C   0  0  0  0  0  0  0  0  0  0  0  0
   -4.9502    5.7540   -1.4241 C   0  0  0  0  0  0  0  0  0  0  0  0
   -4.0621    6.0511   -2.5215 C   0  0  0  0  0  0  0  0  0  0  0  0
   -2.2511    6.5157   -3.9838 N   0  0  0  0  0  0  0  0  0  0  0  0
   -3.1931    6.9169   -4.8691 C   0  0  0  0  0  0  0  0  0  0  0  0
   -4.5326    6.9688   -4.7191 N   0  0  0  0  0  0  0  0  0  0  0  0
   -2.6512    6.0398   -2.7746 C   0  0  0  0  0  0  0  0  0  0  0  0
    1.4449    3.8730    0.4741 O   0  0  0  0  0  0  0  0  0  0  0  0
    4.3996   -2.1466    0.4379 O   0  0  0  0  0  0  0  0  0  0  0  0
    0.8606   -3.4250    0.2538 C   0  0  0  0  0  0  0  0  0  0  0  0
   -4.5629    5.3418   -0.1029 C   0  0  0  0  0  0  0  0  0  0  0  0
  1  9  2  0
  1  2  1  0
  2  3  1  0
  3  4  1  0
  3 31  2  0
  4  5  1  0
  4 32  1  0
  6  7  1  0
  7  8  2  0
  8  1  1  0
  9 10  1  0
 10  6  2  0
 11 12  1  0
 12 13  1  0
 13 14  1  0
 14 15  1  0
 14 30  2  0
 15  7  1  0
 16 13  1  0
 16 17  1  0
 17 18  1  0
 18 19  1  0
 19 20  1  0
 20 13  1  0
 21 22  1  0
 22 23  1  0
 23 24  2  0
 24 25  1  0
 24 33  1  0
 25 21  2  0
 25 29  1  0
 26 27  1  0
 27 28  2  0
 28 21  1  0
 29 26  2  0
 29 18  1  0
M  END
>  <DRUGBANK_ID>  (1) 
DB16009

>  <COMMON_NAME>  (1) 
LX-7101

>  <CAS_NUMBER>  (1) 
1192189-69-7

>  <UNII>  (1) 
74B3C4ZT96

$$$$
