
     RDKit          3D

 27 29  0  0  0  0  0  0  0  0999 V2000
   -2.4277   -0.0035   -0.1201 C   0  0  0  0  0  0  0  0  0  0  0  0
   -1.0252   -0.0341    0.2839 N   0  0  0  0  0  0  0  0  0  0  0  0
   -0.3789   -1.2361   -0.2563 C   0  0  0  0  0  0  0  0  0  0  0  0
    1.0714   -1.2890    0.1869 C   0  0  0  0  0  0  0  0  0  0  0  0
    1.8568   -0.0498   -0.2173 C   0  0  0  0  0  0  0  0  0  0  0  0
    1.0996    1.1924    0.2615 C   0  0  0  0  0  0  0  0  0  0  0  0
   -0.3554    1.1758   -0.1872 C   0  0  0  0  0  0  0  0  0  0  0  0
    3.3237   -0.1341    0.2381 C   0  0  0  0  0  0  0  0  0  0  0  0
    4.2387   -0.0664   -0.5854 O   0  0  0  0  0  0  0  0  0  0  0  0
    3.6680   -0.2357    1.6926 C   0  0  0  0  0  0  0  0  0  0  0  0
    3.1818   -1.2189    2.5239 C   0  0  0  0  0  0  0  0  0  0  0  0
    3.4217   -1.1067    3.8889 C   0  0  0  0  0  0  0  0  0  0  0  0
    4.1588   -0.0269    4.3775 C   0  0  0  0  0  0  0  0  0  0  0  0
    4.6675    0.8876    3.4672 C   0  0  0  0  0  0  0  0  0  0  0  0
    4.4791    0.7375    2.1479 N   0  0  0  0  0  0  0  0  0  0  0  0
    5.3483    2.0255    3.9250 N   0  0  0  0  0  0  0  0  0  0  0  0
    5.8200    3.0965    3.1824 C   0  0  0  0  0  0  0  0  0  0  0  0
    6.4873    3.9729    3.7442 O   0  0  0  0  0  0  0  0  0  0  0  0
    5.5401    3.2433    1.7392 C   0  0  0  0  0  0  0  0  0  0  0  0
    6.5821    3.4288    0.8269 C   0  0  0  0  0  0  0  0  0  0  0  0
    6.3499    3.4223   -0.5511 C   0  0  0  0  0  0  0  0  0  0  0  0
    5.0670    3.2143   -1.0150 C   0  0  0  0  0  0  0  0  0  0  0  0
    4.0178    3.1135   -0.1276 C   0  0  0  0  0  0  0  0  0  0  0  0
    4.2408    3.1719    1.2431 C   0  0  0  0  0  0  0  0  0  0  0  0
    3.1864    3.0445    2.0672 F   0  0  0  0  0  0  0  0  0  0  0  0
    4.8157    3.1337   -2.3274 F   0  0  0  0  0  0  0  0  0  0  0  0
    7.8425    3.6032    1.2463 F   0  0  0  0  0  0  0  0  0  0  0  0
  1  2  1  0
  2  3  1  0
  2  7  1  0
  3  4  1  0
  4  5  1  0
  5  6  1  0
  5  8  1  0
  6  7  1  0
  8  9  2  0
  8 10  1  0
 10 11  2  0
 10 15  1  0
 11 12  1  0
 12 13  2  0
 13 14  1  0
 14 15  2  0
 14 16  1  0
 16 17  1  0
 17 18  2  0
 17 19  1  0
 19 20  2  0
 19 24  1  0
 20 21  1  0
 20 27  1  0
 21 22  2  0
 22 23  1  0
 22 26  1  0
 23 24  2  0
 24 25  1  0
M  END
>  <DRUGBANK_ID>  (1) 
DB11732

>  <COMMON_NAME>  (1) 
Lasmiditan

>  <CAS_NUMBER>  (1) 
439239-90-4

>  <UNII>  (1) 
760I9WM792

>  <SYNONYMS>  (1) 
Lasmiditan

$$$$
