
     RDKit          3D

 23 23  0  0  1  0  0  0  0  0999 V2000
   -1.3854   -5.0149    2.2934 C   0  0  0  0  0  0  0  0  0  0  0  0
   -1.5811   -3.9221    1.2564 C   0  0  0  0  0  0  0  0  0  0  0  0
   -0.9539   -2.5945    1.6816 C   0  0  0  0  0  0  0  0  0  0  0  0
    0.5858   -2.5444    1.6621 C   0  0  2  0  0  0  0  0  0  0  0  0
    1.0293   -2.5349    0.2674 N   0  0  0  0  0  0  0  0  0  0  0  0
    2.4221   -2.1766    0.1444 C   0  0  0  0  0  0  0  0  0  0  0  0
    2.8689   -2.1055   -1.2829 C   0  0  0  0  0  0  0  0  0  0  0  0
    3.9713   -2.8742   -1.6990 C   0  0  0  0  0  0  0  0  0  0  0  0
    4.6575   -3.7282   -0.8773 O   0  0  0  0  0  0  0  0  0  0  0  0
    4.4352   -2.7444   -3.0067 C   0  0  0  0  0  0  0  0  0  0  0  0
    5.6080   -3.5324   -3.5068 C   0  0  0  0  0  0  0  0  0  0  0  0
    3.8680   -1.9028   -3.9049 N   0  0  0  0  0  0  0  0  0  0  0  0
    2.8047   -1.1865   -3.5026 C   0  0  0  0  0  0  0  0  0  0  0  0
    2.2593   -1.2332   -2.2234 C   0  0  0  0  0  0  0  0  0  0  0  0
    1.1095   -0.2938   -1.9623 C   0  0  0  0  0  0  0  0  0  0  0  0
    1.5256    1.0594   -1.9027 O   0  0  0  0  0  0  0  0  0  0  0  0
    2.9080    1.3903   -0.9167 P   0  0  0  0  0  0  0  0  0  0  0  0
    2.3287    2.9263   -0.9043 O   0  0  0  0  0  0  0  0  0  0  0  0
    1.9771    1.0075    0.3873 O   0  0  0  0  0  0  0  0  0  0  0  0
    4.1453    1.6865   -0.0342 O   0  0  0  0  0  0  0  0  0  0  0  0
    1.3714   -3.7098    2.3373 C   0  0  0  0  0  0  0  0  0  0  0  0
    1.8629   -3.4237    3.5636 O   0  0  0  0  0  0  0  0  0  0  0  0
    1.6622   -4.7516    1.7806 O   0  0  0  0  0  0  0  0  0  0  0  0
  1  2  1  0
  2  3  1  0
  4 21  1  0
  4  5  1  0
  4  3  1  6
  5  6  1  0
  6  7  1  0
  7  8  2  0
  7 14  1  0
  8  9  1  0
  8 10  1  0
 10 11  1  0
 10 12  2  0
 12 13  1  0
 13 14  2  0
 14 15  1  0
 15 16  1  0
 16 17  1  0
 17 18  1  0
 17 19  1  0
 17 20  2  0
 21 22  1  0
 21 23  2  0
M  END
>  <DRUGBANK_ID>  (1) 
DB03662

>  <SECONDARY_ACCESSION_NUMBERS>  (1) 
EXPT02714

>  <COMMON_NAME>  (1) 
Vitamin B6 Complexed with 2-Amino-Pentanoic Acid

$$$$
