WAI
     RDKit          3D

 30 33  0  0  0  0  0  0  0  0999 V2000
    1.5480   -0.0061   -0.0572 C   0  0  0  0  0  0  0  0  0  0  0  0
    0.8761    1.1970   -0.1368 C   0  0  0  0  0  0  0  0  0  0  0  0
   -0.4958    1.2106   -0.1114 C   0  0  0  0  0  0  0  0  0  0  0  0
   -1.2282    0.0718   -0.0666 N   0  0  0  0  0  0  0  0  0  0  0  0
   -0.5609   -1.1043   -0.0556 C   0  0  0  0  0  0  0  0  0  0  0  0
    0.8186   -1.1929   -0.0510 C   0  0  0  0  0  0  0  0  0  0  0  0
    2.9907    0.0379    0.0457 C   0  0  0  0  0  0  0  0  0  0  0  0
    3.6338    0.7032    1.0645 C   0  0  0  0  0  0  0  0  0  0  0  0
    5.0017    0.7245    0.9631 C   0  0  0  0  0  0  0  0  0  0  0  0
    5.6844    0.1559   -0.0505 N   0  0  0  0  0  0  0  0  0  0  0  0
    4.9641   -0.4485   -1.0094 C   0  0  0  0  0  0  0  0  0  0  0  0
    3.6270   -0.5257   -0.9762 N   0  0  0  0  0  0  0  0  0  0  0  0
    5.6151   -1.0495   -2.0782 N   0  0  0  0  0  0  0  0  0  0  0  0
    4.9775   -1.6653   -3.1631 C   0  0  0  0  0  0  0  0  0  0  0  0
    5.0808   -3.0371   -3.3981 C   0  0  0  0  0  0  0  0  0  0  0  0
    4.2941   -3.6465   -4.3891 C   0  0  0  0  0  0  0  0  0  0  0  0
    3.4136   -2.8927   -5.1836 C   0  0  0  0  0  0  0  0  0  0  0  0
    3.3359   -1.5143   -4.9614 C   0  0  0  0  0  0  0  0  0  0  0  0
    4.1022   -0.9163   -3.9614 C   0  0  0  0  0  0  0  0  0  0  0  0
    2.5500   -3.5138   -6.2452 C   0  0  0  0  0  0  0  0  0  0  0  0
    4.4105   -5.3626   -4.5740 Cl  0  0  0  0  0  0  0  0  0  0  0  0
   -1.0194    2.4582    0.2067 N   0  0  0  0  0  0  0  0  0  0  0  0
   -1.1788    3.4475   -0.8704 C   0  0  0  0  0  0  0  0  0  0  0  0
   -1.5182    4.8055   -0.1985 C   0  0  0  0  0  0  0  0  0  0  0  0
   -2.6556    4.7860    0.7554 N   0  0  0  0  0  0  0  0  0  0  0  0
   -2.4601    3.6945    1.7280 C   0  0  0  0  0  0  0  0  0  0  0  0
   -2.1556    2.3315    1.0892 C   0  0  0  0  0  0  0  0  0  0  0  0
   -3.9968    4.8149    0.1395 C   0  0  0  0  0  0  0  0  0  0  0  0
   -4.5596    3.6185   -0.6772 C   0  0  0  0  0  0  0  0  0  0  0  0
   -5.0281    2.4722    0.1083 N   0  0  0  0  0  0  0  0  0  0  0  0
  1  2  2  0
  1  6  1  0
  1  7  1  0
  2  3  1  0
  3  4  2  0
  3 22  1  0
  4  5  1  0
  5  6  2  0
  7  8  2  0
  7 12  1  0
  8  9  1  0
  9 10  2  0
 10 11  1  0
 11 12  2  0
 11 13  1  0
 13 14  1  0
 14 15  2  0
 14 19  1  0
 15 16  1  0
 16 17  2  0
 16 21  1  0
 17 18  1  0
 17 20  1  0
 18 19  2  0
 22 23  1  0
 22 27  1  0
 23 24  1  0
 24 25  1  0
 25 26  1  0
 25 28  1  0
 26 27  1  0
 28 29  1  0
 29 30  1  0
M  END
>  <DRUGBANK_ID>  (1) 
DB03916

>  <SECONDARY_ACCESSION_NUMBERS>  (1) 
EXPT03239

>  <COMMON_NAME>  (1) 
4-{2-[4-(2-Aminoethyl)Piperazin-1-Yl]Pyridin-4-Yl}-N-(3-Chloro-4-Methylphenyl)Pyrimidin-2-Amine

$$$$
