
     RDKit          3D

 27 30  0  0  0  0  0  0  0  0999 V2000
    1.0015    0.0747    0.0716 S   0  0  0  0  0  0  0  0  0  0  0  0
   -5.9876   -4.1834   10.6627 F   0  0  0  0  0  0  0  0  0  0  0  0
    0.5664   -0.8794   -1.0019 O   0  0  0  0  0  0  0  0  0  0  0  0
    0.1558   -3.0300    6.2123 N   0  0  0  0  0  0  0  0  0  0  0  0
   -1.9890   -2.7012    5.7717 N   0  0  0  0  0  0  0  0  0  0  0  0
    1.0592   -4.7065   11.1006 N   0  0  0  0  0  0  0  0  0  0  0  0
   -0.5088   -3.3690    7.3719 C   0  0  0  0  0  0  0  0  0  0  0  0
   -1.8428   -3.1671    7.0606 C   0  0  0  0  0  0  0  0  0  0  0  0
   -0.7697   -2.6012    5.2775 C   0  0  0  0  0  0  0  0  0  0  0  0
   -0.3718   -2.0057    3.9947 C   0  0  0  0  0  0  0  0  0  0  0  0
   -2.9468   -3.3959    7.9788 C   0  0  0  0  0  0  0  0  0  0  0  0
    0.1207   -3.8501    8.5991 C   0  0  0  0  0  0  0  0  0  0  0  0
   -0.6537   -0.6566    3.7440 C   0  0  0  0  0  0  0  0  0  0  0  0
    0.3367   -2.7264    3.0238 C   0  0  0  0  0  0  0  0  0  0  0  0
   -3.9427   -4.3281    7.6624 C   0  0  0  0  0  0  0  0  0  0  0  0
   -2.9951   -2.7321    9.2169 C   0  0  0  0  0  0  0  0  0  0  0  0
    0.5538   -0.7378    1.6294 C   0  0  0  0  0  0  0  0  0  0  0  0
   -0.1940   -0.0271    2.5755 C   0  0  0  0  0  0  0  0  0  0  0  0
    0.8127   -2.0931    1.8599 C   0  0  0  0  0  0  0  0  0  0  0  0
   -0.2231   -5.1079    9.1014 C   0  0  0  0  0  0  0  0  0  0  0  0
    0.9500   -3.0289    9.3626 C   0  0  0  0  0  0  0  0  0  0  0  0
   -4.9708   -4.5941    8.5728 C   0  0  0  0  0  0  0  0  0  0  0  0
   -4.0217   -3.0001   10.1253 C   0  0  0  0  0  0  0  0  0  0  0  0
   -5.0010   -3.9272    9.7933 C   0  0  0  0  0  0  0  0  0  0  0  0
    0.2635   -5.4864   10.3410 C   0  0  0  0  0  0  0  0  0  0  0  0
    1.3798   -3.4952   10.5976 C   0  0  0  0  0  0  0  0  0  0  0  0
    2.8072   -0.0258    0.1459 C   0  0  0  0  0  0  0  0  0  0  0  0
  1  3  2  0
  1 17  1  0
  1 27  1  0
  2 24  1  0
  4  7  1  0
  4  9  1  0
  5  8  1  0
  5  9  2  0
  6 25  2  0
  6 26  1  0
  7  8  2  0
  7 12  1  0
  8 11  1  0
  9 10  1  0
 10 13  2  0
 10 14  1  0
 11 15  2  0
 11 16  1  0
 12 20  2  0
 12 21  1  0
 13 18  1  0
 14 19  2  0
 15 22  1  0
 16 23  2  0
 17 18  2  0
 17 19  1  0
 20 25  1  0
 21 26  2  0
 22 24  2  0
 23 24  1  0
M  END
>  <DRUGBANK_ID>  (1) 
DB08521

>  <COMMON_NAME>  (1) 
4-[4-(4-Fluorophenyl)-2-[4-[(R)-methylsulfinyl]phenyl]-1H-imidazol-5-yl]pyridine

>  <CAS_NUMBER>  (1) 
652162-77-1

>  <UNII>  (1) 
WS78QR6DSV

$$$$
