
     RDKit          3D

 10 10  0  0  0  0  0  0  0  0999 V2000
   -0.0991   -1.0805    0.0301 N   0  0  0  0  0  0  0  0  0  0  0  0
    0.7214    0.0297    0.0561 C   0  0  0  0  0  0  0  0  0  0  0  0
   -1.5017   -0.7416    0.0700 C   0  0  0  0  0  0  0  0  0  0  0  0
    0.3767   -2.4558    0.0339 C   0  0  0  0  0  0  0  0  0  0  0  0
   -0.1591    1.2404    0.2229 C   0  0  0  0  0  0  0  0  0  0  0  0
    1.9412    0.0349    0.0170 O   0  0  0  0  0  0  0  0  0  0  0  0
   -1.5129    0.7393   -0.2658 C   0  0  0  0  0  0  0  0  0  0  0  0
   -0.0904   -3.2253    1.2691 C   0  0  0  0  0  0  0  0  0  0  0  0
   -0.7520   -4.2574    1.2038 O   0  0  0  0  0  0  0  0  0  0  0  0
    0.3006   -2.7287    2.4796 N   0  0  0  0  0  0  0  0  0  0  0  0
  1  2  1  0
  1  3  1  0
  1  4  1  0
  2  5  1  0
  2  6  2  0
  3  7  1  0
  4  8  1  0
  5  7  1  0
  8  9  2  0
  8 10  1  0
M  END
>  <DRUGBANK_ID>  (1) 
DB09210

>  <COMMON_NAME>  (1) 
Piracetam

>  <CAS_NUMBER>  (1) 
7491-74-9

>  <UNII>  (1) 
ZH516LNZ10

>  <SYNONYMS>  (1) 
Piracetam; Piracetamum

$$$$
