
     RDKit          3D

 16 16  0  0  1  0  0  0  0  0999 V2000
    0.9222    0.0962    0.1399 C   0  0  0  0  0  0  0  0  0  0  0  0
    0.5344    0.6989   -1.2129 C   0  0  0  0  0  0  0  0  0  0  0  0
    1.2787   -0.1385   -2.2598 C   0  0  0  0  0  0  0  0  0  0  0  0
   -0.9302    0.7421   -1.2967 N   0  0  0  0  0  0  0  0  0  0  0  0
   -1.5041    1.3565   -2.5020 C   0  0  0  0  0  0  0  0  0  0  0  0
   -1.2408    0.6290   -3.8381 C   0  0  1  0  0  0  0  0  0  0  0  0
   -1.6457   -0.8462   -3.7570 C   0  0  0  0  0  0  0  0  0  0  0  0
   -3.0649   -0.8728   -3.6607 O   0  0  0  0  0  0  0  0  0  0  0  0
   -3.6534   -2.0990   -3.6090 C   0  0  0  0  0  0  0  0  0  0  0  0
   -3.0093   -3.3330   -3.5810 C   0  0  0  0  0  0  0  0  0  0  0  0
   -3.7597   -4.5120   -3.5868 C   0  0  0  0  0  0  0  0  0  0  0  0
   -5.1528   -4.4313   -3.6115 C   0  0  0  0  0  0  0  0  0  0  0  0
   -5.7973   -3.2067   -3.6096 C   0  0  0  0  0  0  0  0  0  0  0  0
   -5.0489   -2.0356   -3.6020 C   0  0  0  0  0  0  0  0  0  0  0  0
   -5.9261   -5.5532   -3.6415 O   0  0  0  0  0  0  0  0  0  0  0  0
   -1.8954    1.2899   -4.9265 O   0  0  0  0  0  0  0  0  0  0  0  0
  1  2  1  0
  2  3  1  0
  2  4  1  0
  4  5  1  0
  5  6  1  0
  6  7  1  0
  6 16  1  6
  7  8  1  0
  8  9  1  0
  9 10  2  0
  9 14  1  0
 10 11  1  0
 11 12  2  0
 12 13  1  0
 12 15  1  0
 13 14  2  0
M  END
>  <DRUGBANK_ID>  (1) 
DB13777

>  <COMMON_NAME>  (1) 
Prenalterol

>  <CAS_NUMBER>  (1) 
57526-81-5

>  <UNII>  (1) 
M4G34404CX

>  <SYNONYMS>  (1) 
Prenalterol

$$$$
