
     RDKit          3D

 17 19  0  0  0  0  0  0  0  0999 V2000
   -0.4943   -1.8836    0.0344 O   0  0  0  0  0  0  0  0  0  0  0  0
   -1.7766    1.9817    0.0199 O   0  0  0  0  0  0  0  0  0  0  0  0
   -1.8399   -1.5547    0.0001 C   0  0  0  0  0  0  0  0  0  0  0  0
    0.4221   -0.8606    0.0232 C   0  0  0  0  0  0  0  0  0  0  0  0
   -1.3763    0.8225    0.0254 C   0  0  0  0  0  0  0  0  0  0  0  0
   -2.7414   -2.7094   -0.1293 C   0  0  0  0  0  0  0  0  0  0  0  0
    0.0536    0.4831    0.0140 C   0  0  0  0  0  0  0  0  0  0  0  0
   -2.3208   -0.3036    0.0169 C   0  0  0  0  0  0  0  0  0  0  0  0
    1.7735   -1.2081    0.0166 C   0  0  0  0  0  0  0  0  0  0  0  0
   -3.5811   -2.8165   -1.2483 C   0  0  0  0  0  0  0  0  0  0  0  0
   -2.7248   -3.7499    0.8076 C   0  0  0  0  0  0  0  0  0  0  0  0
    1.0264    1.4872   -0.0091 C   0  0  0  0  0  0  0  0  0  0  0  0
    2.7498   -0.2080   -0.0027 C   0  0  0  0  0  0  0  0  0  0  0  0
   -4.3845   -3.9429   -1.4304 C   0  0  0  0  0  0  0  0  0  0  0  0
   -3.4971   -4.8969    0.6004 C   0  0  0  0  0  0  0  0  0  0  0  0
    2.3770    1.1378   -0.0176 C   0  0  0  0  0  0  0  0  0  0  0  0
   -4.3414   -4.9834   -0.5060 C   0  0  0  0  0  0  0  0  0  0  0  0
  1  3  1  0
  1  4  1  0
  2  5  2  0
  3  6  1  0
  3  8  2  0
  4  7  2  0
  4  9  1  0
  5  7  1  0
  5  8  1  0
  6 10  2  0
  6 11  1  0
  7 12  1  0
  9 13  2  0
 10 14  1  0
 11 15  2  0
 12 16  2  0
 13 16  1  0
 14 17  2  0
 15 17  1  0
M  END
>  <DRUGBANK_ID>  (1) 
DB07776

>  <SECONDARY_ACCESSION_NUMBERS>  (1) 
DB11139

>  <COMMON_NAME>  (1) 
Flavone

>  <CAS_NUMBER>  (1) 
525-82-6

>  <UNII>  (1) 
S2V45N7G3B

>  <SYNONYMS>  (1) 
2-Phenyl-4-benzopyron; 2-Phenyl-4-chromone; 2-phenyl-4H-1-benzopyran-4-one; 2-phenyl-4H-benzopyran-4-one; 2-phenyl-Î³-benzopyrone; 2-Phenylbenzopyran-4-one; 2-phenylchromone; Flavon

$$$$
