
     RDKit          3D

 22 25  0  0  0  0  0  0  0  0999 V2000
    1.8329    0.0866   -0.0205 C   0  0  0  0  0  0  0  0  0  0  0  0
    1.0001   -0.9819    0.0584 C   0  0  0  0  0  0  0  0  0  0  0  0
   -0.3569   -0.6858    0.1010 C   0  0  0  0  0  0  0  0  0  0  0  0
   -0.9671    0.6292   -0.0801 C   0  0  0  0  0  0  0  0  0  0  0  0
   -0.0839    1.6603   -0.0504 C   0  0  0  0  0  0  0  0  0  0  0  0
    1.2937    1.3896   -0.0388 C   0  0  0  0  0  0  0  0  0  0  0  0
   -2.4896    1.0312   -0.1758 C   0  0  0  0  0  0  0  0  0  0  0  0
   -3.2222    0.2990    0.8159 N   0  0  0  0  0  0  0  0  0  0  0  0
   -3.1710   -1.0529    0.3672 C   0  0  0  0  0  0  0  0  0  0  0  0
   -2.7352   -1.5687   -0.9660 C   0  0  0  0  0  0  0  0  0  0  0  0
   -2.4677   -2.9117   -1.1234 C   0  0  0  0  0  0  0  0  0  0  0  0
   -2.7470   -3.6765   -0.0291 C   0  0  0  0  0  0  0  0  0  0  0  0
   -2.9488   -3.1530    1.3029 C   0  0  0  0  0  0  0  0  0  0  0  0
   -3.0881   -1.7484    1.5089 C   0  0  0  0  0  0  0  0  0  0  0  0
   -3.1237   -0.9216    2.6556 N   0  0  0  0  0  0  0  0  0  0  0  0
   -3.3140    0.3329    2.2375 C   0  0  0  0  0  0  0  0  0  0  0  0
   -3.5373    1.4776    3.0467 N   0  0  0  0  0  0  0  0  0  0  0  0
   -4.9243    2.0458    3.2289 C   0  0  0  0  0  0  0  0  0  0  0  0
   -4.8091    3.5609    3.6354 C   0  0  0  0  0  0  0  0  0  0  0  0
   -4.0514    3.8134    4.8844 N   0  0  0  0  0  0  0  0  0  0  0  0
   -2.7614    3.0878    4.8004 C   0  0  0  0  0  0  0  0  0  0  0  0
   -2.9038    1.5705    4.4195 C   0  0  0  0  0  0  0  0  0  0  0  0
  1  2  2  0
  1  6  1  0
  2  3  1  0
  3  4  2  0
  4  5  1  0
  4  7  1  0
  5  6  2  0
  7  8  1  0
  8  9  1  0
  8 16  1  0
  9 10  2  0
  9 14  1  0
 10 11  1  0
 11 12  2  0
 12 13  1  0
 13 14  2  0
 14 15  1  0
 15 16  2  0
 16 17  1  0
 17 18  1  0
 17 22  1  0
 18 19  1  0
 19 20  1  0
 20 21  1  0
 21 22  1  0
M  END
>  <DRUGBANK_ID>  (1) 
DB12964

>  <COMMON_NAME>  (1) 
Lerisetron

>  <CAS_NUMBER>  (1) 
143257-98-1

>  <UNII>  (1) 
Q36R82SXRG

>  <SYNONYMS>  (1) 
Lerisetron

$$$$
