
     RDKit          3D

 21 22  0  0  0  0  0  0  0  0999 V2000
    2.1914    1.5966   -0.1771 C   0  0  0  0  0  0  0  0  0  0  0  0
    1.0851    0.8129   -0.8552 C   0  0  0  0  0  0  0  0  0  0  0  0
   -0.0553    1.5177   -1.1192 C   0  0  0  0  0  0  0  0  0  0  0  0
   -1.2484    0.7743   -1.3941 C   0  0  0  0  0  0  0  0  0  0  0  0
   -1.4928   -0.7680   -1.3452 C   0  0  0  0  0  0  0  0  0  0  0  0
   -0.2143   -1.4040   -1.1258 C   0  0  0  0  0  0  0  0  0  0  0  0
    1.0296   -0.6288   -0.8944 C   0  0  0  0  0  0  0  0  0  0  0  0
    2.0674   -1.3100   -0.2033 N   0  0  0  0  0  0  0  0  0  0  0  0
   -3.4458   -1.8339   -0.9376 S   0  0  0  0  0  0  0  0  0  0  0  0
   -3.8125   -2.6095   -2.1779 O   0  0  0  0  0  0  0  0  0  0  0  0
   -3.5382   -2.6937    0.2341 O   0  0  0  0  0  0  0  0  0  0  0  0
   -4.8115   -0.5488   -0.4977 N   0  0  0  0  0  0  0  0  0  0  0  0
   -4.7953    0.8011    0.0853 C   0  0  0  0  0  0  0  0  0  0  0  0
   -5.8398    1.4837    0.0066 O   0  0  0  0  0  0  0  0  0  0  0  0
   -3.7168    1.4233    0.7489 N   0  0  0  0  0  0  0  0  0  0  0  0
   -2.4873    0.6601    0.8972 C   0  0  0  0  0  0  0  0  0  0  0  0
   -2.5546   -0.7307    1.4751 C   0  0  0  0  0  0  0  0  0  0  0  0
   -1.5016   -1.9043    1.3292 C   0  0  0  0  0  0  0  0  0  0  0  0
   -0.3097   -1.4168    2.0453 C   0  0  0  0  0  0  0  0  0  0  0  0
   -0.0665    0.0871    1.8961 C   0  0  0  0  0  0  0  0  0  0  0  0
   -1.2611    1.1104    1.6499 C   0  0  0  0  0  0  0  0  0  0  0  0
  1  2  1  0
  2  3  2  0
  2  7  1  0
  3  4  1  0
  4  5  2  0
  5  6  1  0
  5  9  1  0
  6  7  2  0
  7  8  1  0
  9 10  2  0
  9 11  2  0
  9 12  1  0
 12 13  1  0
 13 14  2  0
 13 15  1  0
 15 16  1  0
 16 17  1  0
 16 21  1  0
 17 18  1  0
 18 19  1  0
 19 20  1  0
 20 21  1  0
M  END
>  <DRUGBANK_ID>  (1) 
DB13675

>  <COMMON_NAME>  (1) 
Metahexamide

>  <CAS_NUMBER>  (1) 
565-33-3

>  <UNII>  (1) 
T3U6F5D722

>  <SYNONYMS>  (1) 
Metahexamide

$$$$
