
     RDKit          3D

 24 28  0  0  0  0  0  0  0  0999 V2000
   -2.6394   -0.3149    0.3828 C   0  0  0  0  0  0  0  0  0  0  0  0
   -4.1569   -1.1303    1.0225 C   0  0  0  0  0  0  0  0  0  0  0  0
   -4.1597   -1.6841    2.2720 C   0  0  0  0  0  0  0  0  0  0  0  0
   -3.2182   -1.2270    3.2105 C   0  0  1  0  0  0  0  0  0  0  0  0
   -1.6338   -1.4990    2.3449 C   0  0  2  0  0  0  0  0  0  0  0  0
   -0.9865   -0.6166    1.2397 C   0  0  1  0  0  0  0  0  0  0  0  0
    0.3287   -1.6561    0.6473 C   0  0  1  0  0  0  0  0  0  0  0  0
   -1.9616   -2.7377    1.2395 C   0  0  0  0  0  0  0  0  0  0  0  0
   -0.8629   -3.7342    0.8608 C   0  0  0  0  0  0  0  0  0  0  0  0
   -0.0330   -2.9969   -0.2745 C   0  0  2  0  0  0  0  0  0  0  0  0
    2.5544   -1.8502   -0.3103 C   0  0  0  0  0  0  0  0  0  0  0  0
    1.4437   -0.8904    0.0046 C   0  0  0  0  0  0  0  0  0  0  0  0
    1.0956   -3.9014   -1.4661 C   0  0  2  0  0  0  0  0  0  0  0  0
    2.0747   -2.8936   -1.2565 C   0  0  2  0  0  0  0  0  0  0  0  0
    3.2369   -4.2451   -1.1264 C   0  0  2  0  0  0  0  0  0  0  0  0
    2.5036   -3.7597   -2.8729 C   0  0  0  0  0  0  0  0  0  0  0  0
    3.9693   -3.6915   -2.2192 C   0  0  0  0  0  0  0  0  0  0  0  0
   -4.4864   -3.0345    2.4775 O   0  0  0  0  0  0  0  0  0  0  0  0
   -5.5730   -1.2801    0.6463 C   0  0  0  0  0  0  0  0  0  0  0  0
   -6.6728   -1.5575    0.8279 N   0  0  0  0  0  0  0  0  0  0  0  0
   -2.3099   -0.3356    2.8495 O   0  0  0  0  0  0  0  0  0  0  0  0
   -0.1963    0.5239    2.0288 C   0  0  0  0  0  0  0  0  0  0  0  0
    1.0723   -2.0591   -2.5398 C   0  0  0  0  0  0  0  0  0  0  0  0
    3.0603   -5.6327   -1.6410 O   0  0  0  0  0  0  0  0  0  0  0  0
  1  2  1  0
  1  6  1  0
  2  3  2  0
  2 19  1  0
  3  4  1  0
  3 18  1  0
  4  5  1  0
  4 21  1  6
  5  8  1  6
  5 21  1  0
  6  5  1  0
  6 22  1  1
  7  6  1  0
  7 10  1  0
  8  9  1  0
 10  9  1  1
 10 13  1  0
 11 12  1  0
 11 14  1  0
  7 12  1  6
 13 16  1  1
 14 13  1  0
 14 23  1  6
 15 14  1  0
 15 17  1  0
 15 24  1  6
 16 17  1  0
 19 20  3  0
M  END
>  <DRUGBANK_ID>  (1) 
DB01108

>  <SECONDARY_ACCESSION_NUMBERS>  (1) 
APRD01276

>  <COMMON_NAME>  (1) 
Trilostane

>  <CAS_NUMBER>  (1) 
13647-35-3

>  <UNII>  (1) 
L0FPV48Q5R

>  <SYNONYMS>  (1) 
Trilostane; Trilostano; Trilostanum

$$$$
