
     RDKit          3D

 27 30  0  0  0  0  0  0  0  0999 V2000
   -0.6244   -0.8060   -0.0746 C   0  0  0  0  0  0  0  0  0  0  0  0
   -1.4184    0.2504   -0.0534 N   0  0  0  0  0  0  0  0  0  0  0  0
   -0.8187    1.4998   -0.0108 C   0  0  0  0  0  0  0  0  0  0  0  0
    0.5559    1.7671    0.0427 C   0  0  0  0  0  0  0  0  0  0  0  0
    1.3879    0.7328    0.0201 C   0  0  0  0  0  0  0  0  0  0  0  0
    0.7738   -0.4958   -0.0475 C   0  0  0  0  0  0  0  0  0  0  0  0
    0.7935   -2.9956   -1.3368 C   0  0  0  0  0  0  0  0  0  0  0  0
    1.4481   -3.9892   -2.3294 C   0  0  0  0  0  0  0  0  0  0  0  0
    1.7161   -3.2480   -3.6569 C   0  0  0  0  0  0  0  0  0  0  0  0
    1.8240   -1.8011   -3.3028 C   0  0  0  0  0  0  0  0  0  0  0  0
    0.6859   -1.7070   -2.3461 C   0  0  0  0  0  0  0  0  0  0  0  0
   -0.5453   -2.7712    1.4174 C   0  0  0  0  0  0  0  0  0  0  0  0
    0.9851   -2.7099    1.3024 C   0  0  0  0  0  0  0  0  0  0  0  0
    1.5450   -3.1146   -0.0337 O   0  0  0  0  0  0  0  0  0  0  0  0
   -0.6090   -3.3619   -0.9831 C   0  0  0  0  0  0  0  0  0  0  0  0
   -1.1554   -2.3368    0.0555 C   0  0  2  0  0  0  0  0  0  0  0  0
   -2.6936   -2.6660   -0.0955 C   0  0  0  0  0  0  0  0  0  0  0  0
   -3.6178   -2.1739    0.9774 C   0  0  0  0  0  0  0  0  0  0  0  0
   -3.6111   -0.7455    0.9859 N   0  0  0  0  0  0  0  0  0  0  0  0
   -4.3247   -0.1142    2.0636 C   0  0  0  0  0  0  0  0  0  0  0  0
   -3.7781   -0.3781    3.4424 C   0  0  0  0  0  0  0  0  0  0  0  0
   -4.0686   -1.9539    4.1327 S   0  0  0  0  0  0  0  0  0  0  0  0
   -3.1500   -1.6272    5.5126 C   0  0  0  0  0  0  0  0  0  0  0  0
   -2.8282   -0.2952    5.5782 C   0  0  0  0  0  0  0  0  0  0  0  0
   -3.1601    0.4327    4.3876 C   0  0  0  0  0  0  0  0  0  0  0  0
   -2.8725    1.7629    4.3437 O   0  0  0  0  0  0  0  0  0  0  0  0
   -3.1772    2.4650    3.1542 C   0  0  0  0  0  0  0  0  0  0  0  0
  1  2  2  0
  2  3  1  0
  3  4  2  0
  4  5  1  0
  5  6  2  0
  6  1  1  0
  7 15  1  0
  7  8  1  0
  8  9  1  0
  9 10  1  0
 10 11  1  0
 11  7  1  0
 12 16  1  0
 12 13  1  0
 13 14  1  0
 14  7  1  0
 15 16  1  0
 16 17  1  1
 16  1  1  0
 17 18  1  0
 18 19  1  0
 19 20  1  0
 20 21  1  0
 21 22  1  0
 22 23  1  0
 23 24  2  0
 24 25  1  0
 25 21  2  0
 25 26  1  0
 26 27  1  0
M  END
>  <DRUGBANK_ID>  (1) 
DB14881

>  <COMMON_NAME>  (1) 
Oliceridine

>  <CAS_NUMBER>  (1) 
1401028-24-7

>  <UNII>  (1) 
MCN858TCP0

>  <SYNONYMS>  (1) 
Oliceridine

$$$$
