224
     RDKit          3D

 20 22  0  0  0  0  0  0  0  0999 V2000
   -1.2607    0.1846   -0.0527 C   0  0  0  0  0  0  0  0  0  0  0  0
   -0.4975   -0.9345   -0.2307 N   0  0  0  0  0  0  0  0  0  0  0  0
   -0.3729    1.2121    0.0251 C   0  0  0  0  0  0  0  0  0  0  0  0
    0.9153    0.7449    0.0618 N   0  0  0  0  0  0  0  0  0  0  0  0
    0.8004   -0.5523   -0.0257 C   0  0  0  0  0  0  0  0  0  0  0  0
   -1.0579   -2.2324   -0.4867 C   0  0  0  0  0  0  0  0  0  0  0  0
   -0.3032   -3.1632   -1.4343 C   0  0  0  0  0  0  0  0  0  0  0  0
   -0.7075   -2.7605   -2.7533 O   0  0  0  0  0  0  0  0  0  0  0  0
    1.1279   -3.1219   -1.3358 O   0  0  0  0  0  0  0  0  0  0  0  0
    1.5950   -2.5077   -2.5368 C   0  0  0  0  0  0  0  0  0  0  0  0
    0.4861   -2.7281   -3.5262 C   0  0  0  0  0  0  0  0  0  0  0  0
   -0.7105   -4.6263   -1.1355 C   0  0  0  0  0  0  0  0  0  0  0  0
   -0.1164   -5.2831    0.1704 C   0  0  0  0  0  0  0  0  0  0  0  0
   -0.3880   -4.6773    1.5489 C   0  0  0  0  0  0  0  0  0  0  0  0
   -1.1883   -5.3013    2.5084 C   0  0  0  0  0  0  0  0  0  0  0  0
    0.1347   -3.4238    1.8970 C   0  0  0  0  0  0  0  0  0  0  0  0
   -0.4885   -2.6367    2.8730 C   0  0  0  0  0  0  0  0  0  0  0  0
   -1.5706   -4.6101    3.6741 C   0  0  0  0  0  0  0  0  0  0  0  0
   -1.2934   -3.2520    3.8074 C   0  0  0  0  0  0  0  0  0  0  0  0
   -1.8453   -2.3513    5.1622 Cl  0  0  0  0  0  0  0  0  0  0  0  0
  1  2  1  0
  1  3  2  0
  2  5  1  0
  2  6  1  0
  3  4  1  0
  4  5  2  0
  6  7  1  0
  7  9  1  0
  7 12  1  0
  7  8  1  0
  8 11  1  0
  9 10  1  0
 10 11  1  0
 12 13  1  0
 13 14  1  0
 14 15  2  0
 14 16  1  0
 15 18  1  0
 16 17  2  0
 17 19  1  0
 18 19  2  0
 19 20  1  0
M  END
>  <DRUGBANK_ID>  (1) 
DB06914

>  <COMMON_NAME>  (1) 
1-({2-[2-(4-CHLOROPHENYL)ETHYL]-1,3-DIOXOLAN-2-YL}METHYL)-1H-IMIDAZOLE

$$$$
