AUR
     RDKit          3D

 33 35  0  0  0  0  0  0  0  0999 V2000
   -0.2390    0.3928   -2.1259 C   0  0  0  0  0  0  0  0  0  0  0  0
   -0.6285    1.8097   -1.9787 C   0  0  0  0  0  0  0  0  0  0  0  0
   -0.6057    2.3612   -0.5927 C   0  0  2  0  0  0  0  0  0  0  0  0
   -1.4959    3.4131   -0.1078 C   0  0  2  0  0  0  0  0  0  0  0  0
   -0.1125    4.8712    0.0732 C   0  0  2  0  0  0  0  0  0  0  0  0
   -0.6310    4.7994   -1.2592 C   0  0  1  0  0  0  0  0  0  0  0  0
   -2.1370    5.5328   -0.5026 C   0  0  2  0  0  0  0  0  0  0  0  0
   -3.1195    4.8888   -1.3781 C   0  0  1  0  0  0  0  0  0  0  0  0
   -2.6760    2.5652    0.6662 C   0  0  0  0  0  0  0  0  0  0  0  0
   -0.4617    4.6882   -2.7663 C   0  0  0  0  0  0  0  0  0  0  0  0
    2.9605    4.6251    0.7671 C   0  0  0  0  0  0  0  0  0  0  0  0
    2.5706    5.6419   -0.2475 C   0  0  0  0  0  0  0  0  0  0  0  0
    0.2655    3.4120   -0.8675 O   0  0  0  0  0  0  0  0  0  0  0  0
   -2.4712    3.6229   -1.3754 O   0  0  0  0  0  0  0  0  0  0  0  0
    1.3179    5.3298   -0.7382 O   0  0  0  0  0  0  0  0  0  0  0  0
   -2.1489    6.9415   -0.3355 O   0  0  0  0  0  0  0  0  0  0  0  0
    3.3115    6.4905   -0.6366 O   0  0  0  0  0  0  0  0  0  0  0  0
   -4.5076    4.4666   -1.5387 C   0  0  0  0  0  0  0  0  0  0  0  0
   -5.5695    4.7609   -0.8019 C   0  0  0  0  0  0  0  0  0  0  0  0
   -6.8709    4.3192   -1.2109 C   0  0  0  0  0  0  0  0  0  0  0  0
   -7.9459    4.7020   -0.5161 C   0  0  0  0  0  0  0  0  0  0  0  0
   -9.2732    4.3429   -0.9133 C   0  0  0  0  0  0  0  0  0  0  0  0
  -10.3704    4.5758   -0.1744 C   0  0  0  0  0  0  0  0  0  0  0  0
  -11.6634    3.9975   -0.5019 C   0  0  0  0  0  0  0  0  0  0  0  0
  -11.8530    2.6958   -0.8189 C   0  0  0  0  0  0  0  0  0  0  0  0
  -13.2100    2.2601   -1.1567 C   0  0  0  0  0  0  0  0  0  0  0  0
  -14.2113    3.1482   -1.1031 C   0  0  0  0  0  0  0  0  0  0  0  0
  -13.9990    4.5470   -0.7109 C   0  0  0  0  0  0  0  0  0  0  0  0
  -10.6929    1.7387   -0.8170 C   0  0  0  0  0  0  0  0  0  0  0  0
  -12.5936   -0.0718   -1.6669 C   0  0  0  0  0  0  0  0  0  0  0  0
  -12.7226    4.9239   -0.4106 O   0  0  0  0  0  0  0  0  0  0  0  0
  -13.5474    0.9708   -1.5489 O   0  0  0  0  0  0  0  0  0  0  0  0
  -14.9458    5.3258   -0.6619 O   0  0  0  0  0  0  0  0  0  0  0  0
  1  2  1  0
  3  4  1  0
  3 13  1  0
  3  2  1  6
  4  5  1  0
  4 14  1  0
  4  9  1  1
  5  6  1  0
  5 15  1  6
  6  7  1  0
  6 13  1  0
  6 10  1  6
  7  8  1  0
  7 16  1  6
  8 14  1  0
  8 18  1  1
 11 12  1  0
 12 15  1  0
 12 17  2  0
 18 19  2  0
 19 20  1  0
 20 21  2  0
 21 22  1  0
 22 23  2  0
 23 24  1  0
 24 25  2  0
 24 31  1  0
 25 26  1  0
 25 29  1  0
 26 27  2  0
 26 32  1  0
 27 28  1  0
 28 31  1  0
 28 33  2  0
 30 32  1  0
M  END
>  <DRUGBANK_ID>  (1) 
DB07394

>  <COMMON_NAME>  (1) 
AUROVERTIN B

$$$$
