753
     RDKit          3D

 10  9  0  0  1  0  0  0  0  0999 V2000
    0.9848   -0.0466    0.1544 Cl  0  0  0  0  0  0  0  0  0  0  0  0
    2.9966   -0.8418    2.2207 F   0  0  0  0  0  0  0  0  0  0  0  0
    4.7200    0.1980    1.3985 F   0  0  0  0  0  0  0  0  0  0  0  0
    2.9820    1.3372    2.0632 F   0  0  0  0  0  0  0  0  0  0  0  0
    3.3328   -0.1209   -2.5616 F   0  0  0  0  0  0  0  0  0  0  0  0
    1.5340    1.1035   -2.3472 F   0  0  0  0  0  0  0  0  0  0  0  0
    3.1348    1.2276   -0.7647 O   0  0  0  0  0  0  0  0  0  0  0  0
    2.7685    0.0851    0.0210 C   0  0  0  0  0  0  0  0  0  0  0  0
    3.3643    0.2002    1.4360 C   0  0  0  0  0  0  0  0  0  0  0  0
    2.8687    1.0745   -2.1426 C   0  0  0  0  0  0  0  0  0  0  0  0
  1  8  1  0
  2  9  1  0
  3  9  1  0
  4  9  1  0
  5 10  1  0
  6 10  1  0
  7  8  1  0
  7 10  1  0
  8  9  1  0
M  END
>  <DRUGBANK_ID>  (1) 
DB00753

>  <SECONDARY_ACCESSION_NUMBERS>  (1) 
APRD00212

>  <COMMON_NAME>  (1) 
Isoflurane

>  <CAS_NUMBER>  (1) 
26675-46-7

>  <UNII>  (1) 
CYS9AKD70P

>  <SYNONYMS>  (1) 
1-chloro-2,2,2-trifluoroethyl difluoromethyl ether; Isoflurane; Isoflurano; Isofluranum

$$$$
