
     RDKit          3D

 22 24  0  0  0  0  0  0  0  0999 V2000
   -2.2421    0.6075    0.5623 Cl  0  0  0  0  0  0  0  0  0  0  0  0
   -0.5650    0.1944    0.5472 C   0  0  0  0  0  0  0  0  0  0  0  0
    0.2741    1.2410    0.1124 C   0  0  0  0  0  0  0  0  0  0  0  0
    1.6483    1.0927    0.0314 C   0  0  0  0  0  0  0  0  0  0  0  0
    2.1687   -0.1836    0.1821 C   0  0  0  0  0  0  0  0  0  0  0  0
    1.3154   -1.2725    0.5709 C   0  0  0  0  0  0  0  0  0  0  0  0
   -0.0682   -1.0667    0.9168 C   0  0  0  0  0  0  0  0  0  0  0  0
   -1.1217   -2.1501    1.5103 C   0  0  0  0  0  0  0  0  0  0  0  0
   -1.1166   -2.5593    2.8125 N   0  0  0  0  0  0  0  0  0  0  0  0
   -1.8948   -3.8182    3.8577 C   0  0  0  0  0  0  0  0  0  0  0  0
   -1.8243   -5.5754    3.9872 O   0  0  0  0  0  0  0  0  0  0  0  0
   -2.7345   -4.4977    2.8766 C   0  0  0  0  0  0  0  0  0  0  0  0
   -3.9345   -4.8250    3.1368 O   0  0  0  0  0  0  0  0  0  0  0  0
   -2.0585   -4.6204    1.6750 N   0  0  0  0  0  0  0  0  0  0  0  0
   -2.7510   -3.7323    0.7944 C   0  0  0  0  0  0  0  0  0  0  0  0
   -2.0102   -2.7218    0.3111 C   0  0  0  0  0  0  0  0  0  0  0  0
   -2.5148   -2.0646   -0.8431 C   0  0  0  0  0  0  0  0  0  0  0  0
   -3.9032   -2.0401   -1.0849 C   0  0  0  0  0  0  0  0  0  0  0  0
   -4.6055   -1.1431   -2.3766 Cl  0  0  0  0  0  0  0  0  0  0  0  0
   -4.7402   -2.6532   -0.1838 C   0  0  0  0  0  0  0  0  0  0  0  0
   -4.1545   -3.5040    0.7476 C   0  0  0  0  0  0  0  0  0  0  0  0
   -0.4095   -4.6618    1.7037 C   0  0  0  0  0  0  0  0  0  0  0  0
  1  2  1  0
  2  3  2  0
  2  7  1  0
  3  4  1  0
  4  5  2  0
  5  6  1  0
  6  7  2  0
  7  8  1  0
  8  9  2  0
  8 16  1  0
  9 10  1  0
 10 11  1  0
 10 12  1  0
 12 13  2  0
 12 14  1  0
 14 15  1  0
 14 22  1  0
 15 16  2  0
 15 21  1  0
 16 17  1  0
 17 18  2  0
 18 19  1  0
 18 20  1  0
 20 21  2  0
M  END
>  <DRUGBANK_ID>  (1) 
DB13872

>  <COMMON_NAME>  (1) 
Lormetazepam

>  <CAS_NUMBER>  (1) 
848-75-9

>  <UNII>  (1) 
GU56C842ZA

>  <SYNONYMS>  (1) 
(Â±)-Lormetazepam; (RS)-Lormetazepam; 7-Chloro-1,3-dihydro-5-(o-chlorophenyl)-3-hydroxy-1-methyl-2H-1,4-benzodiazepin-2-one; 7-Chloro-5-(2-chlorophenyl)-1,3-dihydro-3-hydroxy-1-methyl-2H-1,4-benzodiazepin-2-one; Lormetazepam; Methyllorazepam; N-Methyllorazepam

$$$$
