
     RDKit          3D

 34 38  0  0  0  0  0  0  0  0999 V2000
    1.0036    0.1100   -0.0210 C   0  0  0  0  0  0  0  0  0  0  0  0
    0.5372    0.4433   -1.4385 C   0  0  0  0  0  0  0  0  0  0  0  0
    1.0435   -0.5279   -2.5169 C   0  0  0  0  0  0  0  0  0  0  0  0
    0.5188   -1.9615   -2.4676 C   0  0  0  0  0  0  0  0  0  0  0  0
   -0.9753   -2.0096   -2.2554 C   0  0  0  0  0  0  0  0  0  0  0  0
   -1.6893   -1.5472   -3.4315 N   0  0  0  0  0  0  0  0  0  0  0  0
   -2.4539   -2.5001   -4.1081 C   0  0  0  0  0  0  0  0  0  0  0  0
   -3.4828   -3.1552   -3.4057 C   0  0  0  0  0  0  0  0  0  0  0  0
   -3.8880   -2.7550   -2.0021 C   0  0  0  0  0  0  0  0  0  0  0  0
   -4.5062   -3.9121   -1.2412 C   0  0  0  0  0  0  0  0  0  0  0  0
   -5.7046   -4.4014   -2.0248 C   0  0  0  0  0  0  0  0  0  0  0  0
   -5.2755   -4.9344   -3.3902 C   0  0  0  0  0  0  0  0  0  0  0  0
   -4.2088   -4.1274   -4.0846 C   0  0  0  0  0  0  0  0  0  0  0  0
   -3.9583   -4.4835   -5.3668 N   0  0  0  0  0  0  0  0  0  0  0  0
   -2.9565   -3.8822   -6.0250 C   0  0  0  0  0  0  0  0  0  0  0  0
   -2.6969   -4.3012   -7.3253 C   0  0  0  0  0  0  0  0  0  0  0  0
   -1.6457   -3.7729   -8.0769 C   0  0  0  0  0  0  0  0  0  0  0  0
   -0.8420   -2.7876   -7.5264 C   0  0  0  0  0  0  0  0  0  0  0  0
   -1.0942   -2.3396   -6.2269 C   0  0  0  0  0  0  0  0  0  0  0  0
   -2.1544   -2.8811   -5.4489 C   0  0  0  0  0  0  0  0  0  0  0  0
    0.5204   -1.2446    0.4959 C   0  0  0  0  0  0  0  0  0  0  0  0
    0.9748   -1.6165    1.8783 C   0  0  0  0  0  0  0  0  0  0  0  0
    0.4485   -0.6471    2.8870 C   0  0  0  0  0  0  0  0  0  0  0  0
   -1.0042   -0.6291    2.8699 N   0  0  0  0  0  0  0  0  0  0  0  0
   -1.7269   -0.9080    4.0149 C   0  0  0  0  0  0  0  0  0  0  0  0
   -2.7846   -1.8165    3.9335 C   0  0  0  0  0  0  0  0  0  0  0  0
   -3.4395   -2.1636    5.0939 C   0  0  0  0  0  0  0  0  0  0  0  0
   -3.1246   -1.6745    6.3122 N   0  0  0  0  0  0  0  0  0  0  0  0
   -2.1058   -0.7922    6.3924 C   0  0  0  0  0  0  0  0  0  0  0  0
   -1.7617   -0.2601    7.6334 C   0  0  0  0  0  0  0  0  0  0  0  0
   -0.7052    0.6493    7.7910 C   0  0  0  0  0  0  0  0  0  0  0  0
    0.0164    1.0676    6.6949 C   0  0  0  0  0  0  0  0  0  0  0  0
   -0.3457    0.5919    5.4475 C   0  0  0  0  0  0  0  0  0  0  0  0
   -1.3763   -0.3725    5.2782 C   0  0  0  0  0  0  0  0  0  0  0  0
  1  2  1  0
  1 21  1  0
  2  3  1  0
  3  4  1  0
  4  5  1  0
  5  6  1  0
  6  7  1  0
  7  8  1  0
  7 20  2  0
  8  9  1  0
  8 13  2  0
  9 10  1  0
 10 11  1  0
 11 12  1  0
 12 13  1  0
 13 14  1  0
 14 15  2  0
 15 16  1  0
 15 20  1  0
 16 17  2  0
 17 18  1  0
 18 19  2  0
 19 20  1  0
 21 22  1  0
 22 23  1  0
 23 24  1  0
 24 25  1  0
 25 26  2  0
 25 34  1  0
 26 27  1  0
 27 28  2  0
 28 29  1  0
 29 30  1  0
 29 34  2  0
 30 31  2  0
 31 32  1  0
 32 33  2  0
 33 34  1  0
M  END
>  <DRUGBANK_ID>  (1) 
DB04616

>  <COMMON_NAME>  (1) 
TACRINE(8)-4-AMINOQUINOLINE

$$$$
