
     RDKit          3D

 31 34  0  0  1  0  0  0  0  0999 V2000
    2.1057    0.0953    0.0333 C   0  0  0  0  0  0  0  0  0  0  0  0
    0.6716   -0.0036    0.0005 N   0  0  0  0  0  0  0  0  0  0  0  0
   -0.1194    1.0799   -0.0315 N   0  0  0  0  0  0  0  0  0  0  0  0
   -1.3537    0.5936   -0.0262 N   0  0  0  0  0  0  0  0  0  0  0  0
   -1.2401   -0.7796    0.0235 C   0  0  0  0  0  0  0  0  0  0  0  0
    0.0431   -1.1902    0.0129 N   0  0  0  0  0  0  0  0  0  0  0  0
   -2.4030   -1.6582    0.0321 C   0  0  0  0  0  0  0  0  0  0  0  0
   -3.3411   -1.5809   -0.9931 C   0  0  0  0  0  0  0  0  0  0  0  0
   -4.4436   -2.4339   -0.9584 C   0  0  0  0  0  0  0  0  0  0  0  0
   -4.5980   -3.3364    0.0984 C   0  0  0  0  0  0  0  0  0  0  0  0
   -3.6015   -3.3396    1.0723 C   0  0  0  0  0  0  0  0  0  0  0  0
   -2.5174   -2.5286    1.0685 N   0  0  0  0  0  0  0  0  0  0  0  0
   -5.7288   -4.2587    0.1629 C   0  0  0  0  0  0  0  0  0  0  0  0
   -6.6312   -4.2317    1.2387 C   0  0  0  0  0  0  0  0  0  0  0  0
   -7.7006   -5.1307    1.2789 C   0  0  0  0  0  0  0  0  0  0  0  0
   -7.8188   -6.1155    0.2807 C   0  0  0  0  0  0  0  0  0  0  0  0
   -6.9568   -6.1287   -0.7980 C   0  0  0  0  0  0  0  0  0  0  0  0
   -5.9317   -5.2049   -0.8531 C   0  0  0  0  0  0  0  0  0  0  0  0
   -5.1166   -5.2458   -1.9162 F   0  0  0  0  0  0  0  0  0  0  0  0
   -8.8861   -7.0062    0.2308 N   0  0  0  0  0  0  0  0  0  0  0  0
  -10.1834   -6.5229    0.2157 C   0  0  0  0  0  0  0  0  0  0  0  0
  -11.0774   -7.7482    0.0207 C   0  0  2  0  0  0  0  0  0  0  0  0
  -12.3863   -7.9323    0.8459 C   0  0  0  0  0  0  0  0  0  0  0  0
  -13.3271   -6.8278    0.7082 O   0  0  0  0  0  0  0  0  0  0  0  0
  -12.5499   -5.3390    1.1235 P   0  0  0  0  0  0  0  0  0  0  0  0
  -11.7993   -5.9831    2.2653 O   0  0  0  0  0  0  0  0  0  0  0  0
  -12.1553   -5.1671   -0.4197 O   0  0  0  0  0  0  0  0  0  0  0  0
  -11.7728   -3.8502    1.5387 O   0  0  0  0  0  0  0  0  0  0  0  0
  -10.1774   -8.8474    0.2320 O   0  0  0  0  0  0  0  0  0  0  0  0
   -8.8805   -8.3717    0.2846 C   0  0  0  0  0  0  0  0  0  0  0  0
   -7.9107   -9.0890    0.3901 O   0  0  0  0  0  0  0  0  0  0  0  0
  1  2  1  0
  2  3  1  0
  2  6  1  0
  3  4  2  0
  4  5  1  0
  5  6  2  0
  5  7  1  0
  7  8  2  0
  7 12  1  0
  8  9  1  0
  9 10  2  0
 10 11  1  0
 10 13  1  0
 11 12  2  0
 13 14  2  0
 13 18  1  0
 14 15  1  0
 15 16  2  0
 16 17  1  0
 16 20  1  0
 17 18  2  0
 18 19  1  0
 20 21  1  0
 20 30  1  0
 21 22  1  0
 22 23  1  1
 22 29  1  0
 23 24  1  0
 24 25  1  0
 25 26  2  0
 25 27  1  0
 25 28  1  0
 29 30  1  0
 30 31  2  0
M  END
>  <DRUGBANK_ID>  (1) 
DB09042

>  <COMMON_NAME>  (1) 
Tedizolid phosphate

>  <CAS_NUMBER>  (1) 
856867-55-5

>  <UNII>  (1) 
O7DRJ6R4DW

>  <SYNONYMS>  (1) 
[(5R)-3-{3-fluoro-4-[6-(2-methyl-2H-tetrazol-5-yl)pyridin-3-yl]phenyl}-2-oxo-1,3-oxazolidin-5-yl]methyl dihydrogen phosphate; Tedizolid phosphate; Torezolid phosphate

$$$$
