
     RDKit          3D

 29 31  0  0  0  0  0  0  0  0999 V2000
    0.7660   -0.6114   -0.0129 C   0  0  0  0  0  0  0  0  0  0  0  0
    2.1703   -0.8733   -0.0272 C   0  0  0  0  0  0  0  0  0  0  0  0
    3.0794    0.2124   -0.0068 C   0  0  0  0  0  0  0  0  0  0  0  0
    2.6641    1.5349    0.0172 C   0  0  0  0  0  0  0  0  0  0  0  0
    1.3146    1.8062    0.0149 C   0  0  0  0  0  0  0  0  0  0  0  0
    0.3759    0.7622    0.0063 C   0  0  0  0  0  0  0  0  0  0  0  0
   -0.3773   -1.5881    0.0011 C   0  0  0  0  0  0  0  0  0  0  0  0
   -1.6864   -1.2588    0.0273 C   0  0  0  0  0  0  0  0  0  0  0  0
   -1.9836    0.1842   -0.0064 C   0  0  0  0  0  0  0  0  0  0  0  0
   -0.9919    1.1129    0.0159 N   0  0  0  0  0  0  0  0  0  0  0  0
   -2.6624   -2.4379    0.0515 C   0  0  0  0  0  0  0  0  0  0  0  0
   -4.0304   -2.2985    0.0154 N   0  0  0  0  0  0  0  0  0  0  0  0
   -4.8867   -3.4179    0.0717 C   0  0  0  0  0  0  0  0  0  0  0  0
   -4.7223   -1.0415    0.0325 C   0  0  0  0  0  0  0  0  0  0  0  0
   -4.6543   -4.4650    0.9636 C   0  0  0  0  0  0  0  0  0  0  0  0
   -5.6025   -5.4675    1.0971 C   0  0  0  0  0  0  0  0  0  0  0  0
   -6.7828   -5.4239    0.3417 C   0  0  0  0  0  0  0  0  0  0  0  0
   -7.0231   -4.3501   -0.5230 C   0  0  0  0  0  0  0  0  0  0  0  0
   -6.0515   -3.3871   -0.6997 C   0  0  0  0  0  0  0  0  0  0  0  0
   -7.7637   -6.5569    0.3811 C   0  0  0  0  0  0  0  0  0  0  0  0
   -9.0025   -6.1642    0.7798 F   0  0  0  0  0  0  0  0  0  0  0  0
   -7.9220   -7.1228   -0.8474 F   0  0  0  0  0  0  0  0  0  0  0  0
   -7.3930   -7.5654    1.2146 F   0  0  0  0  0  0  0  0  0  0  0  0
   -2.1939   -3.5906    0.0605 O   0  0  0  0  0  0  0  0  0  0  0  0
   -3.1277    0.6459   -0.0662 O   0  0  0  0  0  0  0  0  0  0  0  0
   -0.0187   -2.9034   -0.0226 O   0  0  0  0  0  0  0  0  0  0  0  0
    2.9132   -2.0363   -0.0552 O   0  0  0  0  0  0  0  0  0  0  0  0
    2.2675   -3.2865   -0.0844 C   0  0  0  0  0  0  0  0  0  0  0  0
   -1.4342    2.5064    0.0111 C   0  0  0  0  0  0  0  0  0  0  0  0
  1  2  2  0
  1  7  1  0
  2  3  1  0
  2 27  1  0
  3  4  2  0
  4  5  1  0
  5  6  2  0
  6  1  1  0
  7  8  2  0
  7 26  1  0
  8  9  1  0
  8 11  1  0
  9 10  1  0
  9 25  2  0
 10  6  1  0
 10 29  1  0
 11 12  1  0
 11 24  2  0
 12 13  1  0
 12 14  1  0
 13 15  2  0
 13 19  1  0
 15 16  1  0
 16 17  2  0
 17 18  1  0
 17 20  1  0
 18 19  2  0
 20 21  1  0
 20 22  1  0
 20 23  1  0
 27 28  1  0
M  END
>  <DRUGBANK_ID>  (1) 
DB05861

>  <COMMON_NAME>  (1) 
Tasquinimod

>  <CAS_NUMBER>  (1) 
254964-60-8

>  <UNII>  (1) 
756U07KN1R

>  <SYNONYMS>  (1) 
TASQ; Tasquinimod

$$$$
