
     RDKit          3D

 32 37  0  0  0  0  0  0  0  0999 V2000
   -1.2422    1.7950   -0.1078 O   0  0  0  0  0  0  0  0  0  0  0  0
   -2.2081   -4.0455   -1.3324 O   0  0  0  0  0  0  0  0  0  0  0  0
    2.9590   -3.8552   -0.2128 O   0  0  0  0  0  0  0  0  0  0  0  0
   -0.9132   -1.0842    0.3337 N   0  0  0  0  0  0  0  0  0  0  0  0
   -3.0946   -1.6625   -2.4416 N   0  0  0  0  0  0  0  0  0  0  0  0
   -2.2807   -0.5188   -0.0199 C   0  0  2  0  0  0  0  0  0  0  0  0
   -2.8192   -0.4830   -1.5615 C   0  0  0  0  0  0  0  0  0  0  0  0
    0.1244   -0.2235    0.1256 C   0  0  0  0  0  0  0  0  0  0  0  0
   -2.2912    0.9771    0.4562 C   0  0  0  0  0  0  0  0  0  0  0  0
   -0.3184   -2.3709    0.6396 C   0  0  0  0  0  0  0  0  0  0  0  0
    1.3036   -0.9966    0.0608 C   0  0  0  0  0  0  0  0  0  0  0  0
    0.9514   -2.4722    0.0565 C   0  0  0  0  0  0  0  0  0  0  0  0
   -0.0079    1.1707   -0.0262 C   0  0  0  0  0  0  0  0  0  0  0  0
   -4.0003   -2.6938   -1.8389 C   0  0  0  0  0  0  0  0  0  0  0  0
   -1.8306   -2.2494   -2.9543 C   0  0  0  0  0  0  0  0  0  0  0  0
   -1.0132   -3.6205    0.8613 C   0  0  0  0  0  0  0  0  0  0  0  0
   -3.3969   -3.4955   -0.7413 C   0  0  0  0  0  0  0  0  0  0  0  0
   -1.2889   -3.1036   -1.8898 C   0  0  0  0  0  0  0  0  0  0  0  0
    2.4660   -0.1996    0.0072 C   0  0  0  0  0  0  0  0  0  0  0  0
    1.1575    1.9092   -0.0723 C   0  0  0  0  0  0  0  0  0  0  0  0
    1.7345   -3.9454   -0.3647 C   0  0  0  0  0  0  0  0  0  0  0  0
    2.3778    1.2267   -0.0084 C   0  0  0  0  0  0  0  0  0  0  0  0
    1.1830   -5.6776   -0.4599 C   0  0  0  0  0  0  0  0  0  0  0  0
    0.5036   -6.8545   -1.5553 C   0  0  0  0  0  0  0  0  0  0  0  0
    1.2374   -5.9923    0.9031 C   0  0  0  0  0  0  0  0  0  0  0  0
   -0.6406   -6.8063   -0.8950 C   0  0  0  0  0  0  0  0  0  0  0  0
   -0.0739   -8.2548   -2.5297 C   0  0  0  0  0  0  0  0  0  0  0  0
    0.3518   -6.9347    1.3457 C   0  0  0  0  0  0  0  0  0  0  0  0
   -0.5361   -7.4176    0.3997 C   0  0  0  0  0  0  0  0  0  0  0  0
   -1.6858   -6.7198   -1.8280 C   0  0  0  0  0  0  0  0  0  0  0  0
   -1.4014   -8.4245   -3.0940 C   0  0  0  0  0  0  0  0  0  0  0  0
   -2.2023   -7.9518   -2.1190 C   0  0  0  0  0  0  0  0  0  0  0  0
  1  9  1  0
  1 13  1  0
  2 17  1  0
  2 18  1  0
  3 21  2  0
  4  6  1  0
  4  8  1  0
  4 10  1  0
  5  7  1  0
  5 14  1  0
  5 15  1  0
  6  9  1  0
  6  7  1  6
  8 11  1  0
  8 13  2  0
 10 12  2  0
 10 16  1  0
 11 12  1  0
 11 19  2  0
 12 21  1  0
 13 20  1  0
 14 17  1  0
 15 18  1  0
 19 22  1  0
 20 22  2  0
 21 23  1  0
 23 24  1  0
 23 25  2  0
 24 26  2  0
 24 27  1  0
 25 28  1  0
 26 29  1  0
 26 30  1  0
 27 31  2  0
 28 29  2  0
 30 32  2  0
 31 32  1  0
M  END
>  <DRUGBANK_ID>  (1) 
DB13950

>  <COMMON_NAME>  (1) 
WIN 55212-2

>  <CAS_NUMBER>  (1) 
131543-22-1

>  <UNII>  (1) 
5H31GI9502

>  <SYNONYMS>  (1) 
(2,3-Dihydro-5-methyl-3-((4-morpholinyl)methyl)pyrrolo-(1,2,3-de)-1,4-benzoxazin-6-yl)(1-naphthalenyl)methanone monomethanesulfonate

$$$$
