
     RDKit          3D

 32 35  0  0  1  0  0  0  0  0999 V2000
    2.4946    1.1431   -1.1286 C   0  0  0  0  0  0  0  0  0  0  0  0
    1.5947    0.6238   -0.0296 C   0  0  0  0  0  0  0  0  0  0  0  0
    0.3044    1.5002    0.1007 C   0  0  1  0  0  0  0  0  0  0  0  0
   -0.7916    0.6062    0.3980 N   0  0  0  0  0  0  0  0  0  0  0  0
   -0.4559   -0.7981    0.3392 C   0  0  2  0  0  0  0  0  0  0  0  0
    1.0001   -1.0002   -0.6678 S   0  0  0  0  0  0  0  0  0  0  0  0
   -1.8226   -1.0672   -0.2448 C   0  0  1  0  0  0  0  0  0  0  0  0
   -1.9450    0.4458   -0.3036 C   0  0  0  0  0  0  0  0  0  0  0  0
   -2.7984    1.2411   -0.6560 O   0  0  0  0  0  0  0  0  0  0  0  0
   -1.9484   -2.0092   -1.3674 N   0  0  0  0  0  0  0  0  0  0  0  0
   -2.1973   -3.3673   -1.2974 C   0  0  0  0  0  0  0  0  0  0  0  0
   -2.2256   -3.9694   -2.3798 O   0  0  0  0  0  0  0  0  0  0  0  0
   -2.4677   -4.1486    0.0306 C   0  0  1  0  0  0  0  0  0  0  0  0
   -1.3044   -4.1875    1.0462 C   0  0  0  0  0  0  0  0  0  0  0  0
   -0.4635   -5.2877    1.2468 C   0  0  0  0  0  0  0  0  0  0  0  0
    0.6856   -5.1912    2.0710 C   0  0  0  0  0  0  0  0  0  0  0  0
    1.0751   -3.9820    2.6272 C   0  0  0  0  0  0  0  0  0  0  0  0
    0.2208   -2.9251    2.4990 C   0  0  0  0  0  0  0  0  0  0  0  0
   -1.0126   -3.0978    1.8543 C   0  0  0  0  0  0  0  0  0  0  0  0
   -3.8393   -3.8593    0.6380 C   0  0  0  0  0  0  0  0  0  0  0  0
   -4.7053   -4.6992    0.8457 O   0  0  0  0  0  0  0  0  0  0  0  0
   -3.9697   -2.5132    0.9640 O   0  0  0  0  0  0  0  0  0  0  0  0
   -4.9669   -1.9199    1.7589 C   0  0  0  0  0  0  0  0  0  0  0  0
   -5.4770   -2.5994    2.8521 C   0  0  0  0  0  0  0  0  0  0  0  0
   -6.4772   -2.0015    3.6053 C   0  0  0  0  0  0  0  0  0  0  0  0
   -6.9012   -0.7052    3.3043 C   0  0  0  0  0  0  0  0  0  0  0  0
   -6.2947    0.0161    2.2740 C   0  0  0  0  0  0  0  0  0  0  0  0
   -5.3373   -0.6021    1.4725 C   0  0  0  0  0  0  0  0  0  0  0  0
    0.3553    2.6660    1.0946 C   0  0  0  0  0  0  0  0  0  0  0  0
   -0.3648    3.6515    1.0720 O   0  0  0  0  0  0  0  0  0  0  0  0
    1.2450    2.5250    2.0947 O   0  0  0  0  0  0  0  0  0  0  0  0
    2.3885    0.3442    1.2621 C   0  0  0  0  0  0  0  0  0  0  0  0
  1  2  1  0
  2  3  1  0
  2  6  1  0
  2 32  1  0
  3  4  1  0
  3 29  1  1
  4  8  1  0
  5  4  1  0
  5  6  1  6
  5  7  1  0
  7  8  1  0
  7 10  1  6
  8  9  2  0
 10 11  1  0
 11 12  2  0
 13 11  1  6
 13 14  1  0
 13 20  1  0
 14 15  2  0
 14 19  1  0
 15 16  1  0
 16 17  2  0
 17 18  1  0
 18 19  2  0
 20 21  2  0
 20 22  1  0
 22 23  1  0
 23 24  2  0
 23 28  1  0
 24 25  1  0
 25 26  2  0
 26 27  1  0
 27 28  2  0
 29 30  2  0
 29 31  1  0
M  END
>  <DRUGBANK_ID>  (1) 
DB13506

>  <COMMON_NAME>  (1) 
Carfecillin

>  <CAS_NUMBER>  (1) 
27025-49-6

>  <UNII>  (1) 
9UU4XDB74X

>  <SYNONYMS>  (1) 
Carbenicillin phenyl; Carfecilina; Carfecillin; Carfecilline; Carfecillinum

$$$$
