1059
     RDKit          3D

 23 25  0  0  0  0  0  0  0  0999 V2000
    0.8785   -0.1198   -0.0794 F   0  0  0  0  0  0  0  0  0  0  0  0
    4.4084   -3.6517    0.1867 O   0  0  0  0  0  0  0  0  0  0  0  0
    6.5317   -4.9510    0.7298 O   0  0  0  0  0  0  0  0  0  0  0  0
    8.4274   -3.7949    1.1097 O   0  0  0  0  0  0  0  0  0  0  0  0
    2.2196    2.3579    0.1578 N   0  0  0  0  0  0  0  0  0  0  0  0
    0.5187    4.6595   -0.2836 N   0  0  0  0  0  0  0  0  0  0  0  0
    6.4083   -0.1221    0.5230 N   0  0  0  0  0  0  0  0  0  0  0  0
    1.2616    2.7356    1.2030 C   0  0  0  0  0  0  0  0  0  0  0  0
    2.7247    3.4872   -0.6276 C   0  0  0  0  0  0  0  0  0  0  0  0
    0.0882    3.4979    0.5385 C   0  0  0  0  0  0  0  0  0  0  0  0
    1.5148    4.1940   -1.2770 C   0  0  0  0  0  0  0  0  0  0  0  0
    2.8733    1.1450    0.1688 C   0  0  0  0  0  0  0  0  0  0  0  0
    5.0099   -0.0892    0.3175 C   0  0  0  0  0  0  0  0  0  0  0  0
    4.2659    1.1030    0.2790 C   0  0  0  0  0  0  0  0  0  0  0  0
    4.2960   -1.2871    0.1633 C   0  0  0  0  0  0  0  0  0  0  0  0
    2.2154   -0.0822    0.0259 C   0  0  0  0  0  0  0  0  0  0  0  0
    2.9145   -1.2850   -0.0403 C   0  0  0  0  0  0  0  0  0  0  0  0
    7.1320    1.1601    0.6559 C   0  0  0  0  0  0  0  0  0  0  0  0
    5.0035   -2.5807    0.2940 C   0  0  0  0  0  0  0  0  0  0  0  0
    7.0305   -1.3561    0.7066 C   0  0  0  0  0  0  0  0  0  0  0  0
    6.4457   -2.5644    0.6167 C   0  0  0  0  0  0  0  0  0  0  0  0
    7.1581    1.9446   -0.6579 C   0  0  0  0  0  0  0  0  0  0  0  0
    7.2296   -3.7995    0.8410 C   0  0  0  0  0  0  0  0  0  0  0  0
  1 16  1  0
  2 19  2  0
  3 23  1  0
  4 23  2  0
  5  8  1  0
  5  9  1  0
  5 12  1  0
  6 10  1  0
  6 11  1  0
  7 13  1  0
  7 18  1  0
  7 20  1  0
  8 10  1  0
  9 11  1  0
 12 14  1  0
 12 16  2  0
 13 14  2  0
 13 15  1  0
 15 17  2  0
 15 19  1  0
 16 17  1  0
 18 22  1  0
 19 21  1  0
 20 21  2  0
 21 23  1  0
M  END
>  <DRUGBANK_ID>  (1) 
DB01059

>  <SECONDARY_ACCESSION_NUMBERS>  (1) 
APRD00469

>  <COMMON_NAME>  (1) 
Norfloxacin

>  <CAS_NUMBER>  (1) 
70458-96-7

>  <UNII>  (1) 
N0F8P22L1P

>  <SYNONYMS>  (1) 
1-Ethyl-6-fluor-1,4-dihydro-4-oxo-7-(1-piperazinyl)-3-chinolincarbons√§ure; 1-Ethyl-6-fluoro-1,4-dihydro-4-oxo-7-(1-piperazinyl)-3-quinolinecarboxylic acid; 1,4-Dihydro-1-ethyl-6-fluoro-4-oxo-7-(1-piperazinyl)-3-quinolinecarboxylic acid; NFLX; Norfloxacin; Norfloxacine; Norfloxacino; Norfloxacinum

$$$$
