LGB
     RDKit          3D

 24 26  0  0  0  0  0  0  0  0999 V2000
   -3.2520   -0.4717   -0.1836 C   0  0  0  0  0  0  0  0  0  0  0  0
   -2.1281    0.2581    0.3394 N   0  0  0  0  0  0  0  0  0  0  0  0
   -1.5385   -0.3373    1.4961 C   0  0  1  0  0  0  0  0  0  0  0  0
   -2.2298   -1.6626    1.7310 C   0  0  2  0  0  0  0  0  0  0  0  0
   -3.3503   -1.7353    0.6977 C   0  0  0  0  0  0  0  0  0  0  0  0
   -1.2770    1.1945   -0.1722 C   0  0  0  0  0  0  0  0  0  0  0  0
    0.0106    0.7949    0.1797 O   0  0  0  0  0  0  0  0  0  0  0  0
   -0.0851   -0.3768    1.0982 C   0  0  1  0  0  0  0  0  0  0  0  0
   -1.6125    2.3117   -0.7518 N   0  0  0  0  0  0  0  0  0  0  0  0
   -0.6837    3.3117   -1.1543 C   0  0  0  0  0  0  0  0  0  0  0  0
    0.1742    3.1317   -2.2500 C   0  0  0  0  0  0  0  0  0  0  0  0
    1.0716    4.1583   -2.6513 C   0  0  0  0  0  0  0  0  0  0  0  0
    1.2273    5.3145   -1.8816 C   0  0  0  0  0  0  0  0  0  0  0  0
    0.3897    5.4843   -0.7781 C   0  0  0  0  0  0  0  0  0  0  0  0
   -0.6646    4.5783   -0.5431 C   0  0  0  0  0  0  0  0  0  0  0  0
    0.1631    1.8218   -2.9743 C   0  0  0  0  0  0  0  0  0  0  0  0
    2.0083    3.9606   -4.1053 Cl  0  0  0  0  0  0  0  0  0  0  0  0
   -2.7915   -1.6961    3.0414 O   0  0  0  0  0  0  0  0  0  0  0  0
    2.1776    6.3297   -2.2337 C   0  0  0  0  0  0  0  0  0  0  0  0
    2.9359    7.1624   -2.5504 N   0  0  0  0  0  0  0  0  0  0  0  0
    0.7242   -0.2549    2.3887 C   0  0  0  0  0  0  0  0  0  0  0  0
    0.9436    1.0330    2.7240 F   0  0  0  0  0  0  0  0  0  0  0  0
    1.9199   -0.8773    2.3003 F   0  0  0  0  0  0  0  0  0  0  0  0
    0.0754   -0.8286    3.4340 F   0  0  0  0  0  0  0  0  0  0  0  0
  1  2  1  0
  3  2  1  6
  3  8  1  0
  4  3  1  0
  4 18  1  1
  5  1  1  0
  5  4  1  0
  6  2  1  0
  6  7  1  0
  7  8  1  0
  8 21  1  1
  9  6  2  0
 10  9  1  0
 10 11  2  0
 11 16  1  0
 12 11  1  0
 12 17  1  0
 13 12  2  0
 14 13  1  0
 14 15  2  0
 15 10  1  0
 19 13  1  0
 20 19  3  0
 21 22  1  0
 21 24  1  0
 21 23  1  0
M  END
>  <DRUGBANK_ID>  (1) 
DB08088

>  <COMMON_NAME>  (1) 
2-chloro-4-{[(1R,3Z,7S,7aS)-7-hydroxy-1-(trifluoromethyl)tetrahydro-1H-pyrrolo[1,2-c][1,3]oxazol-3-ylidene]amino}-3-methylbenzonitrile

$$$$
