51U
     RDKit          3D

 27 29  0  0  0  0  0  0  0  0999 V2000
    2.3863    0.0332    0.0441 C   0  0  0  0  0  0  0  0  0  0  0  0
    2.6754   -2.1904    1.2695 N   0  0  0  0  0  0  0  0  0  0  0  0
    3.0929   -0.7672    1.1503 C   0  0  1  0  0  0  0  0  0  0  0  0
    4.6519   -0.7501    1.0897 C   0  0  0  0  0  0  0  0  0  0  0  0
    5.2886   -0.4308    2.1032 O   0  0  0  0  0  0  0  0  0  0  0  0
    5.3097   -1.2562   -0.0128 N   0  0  0  0  0  0  0  0  0  0  0  0
    4.9282   -1.1744   -1.4030 C   0  0  0  0  0  0  0  0  0  0  0  0
    5.3323   -2.4956   -1.9920 C   0  0  0  0  0  0  0  0  0  0  0  0
    6.6472   -2.7617   -1.2975 C   0  0  0  0  0  0  0  0  0  0  0  0
    6.5445   -2.0556    0.0851 C   0  0  1  0  0  0  0  0  0  0  0  0
    7.8702   -1.2927    0.3212 C   0  0  0  0  0  0  0  0  0  0  0  0
    7.8931   -0.3549    1.3163 N   0  0  0  0  0  0  0  0  0  0  0  0
    9.1240    0.3153    1.6941 C   0  0  0  0  0  0  0  0  0  0  0  0
    9.4154    0.2921    3.1754 C   0  0  0  0  0  0  0  0  0  0  0  0
    8.5712   -0.3575    4.0836 C   0  0  0  0  0  0  0  0  0  0  0  0
    8.8572   -0.3924    5.4509 C   0  0  0  0  0  0  0  0  0  0  0  0
    7.9133   -1.0853    6.3847 C   0  0  0  0  0  0  0  0  0  0  0  0
   10.0202    0.2215    5.9214 C   0  0  0  0  0  0  0  0  0  0  0  0
   10.8774    0.8718    5.0336 C   0  0  0  0  0  0  0  0  0  0  0  0
   10.5769    0.9092    3.6690 C   0  0  0  0  0  0  0  0  0  0  0  0
    8.9077   -1.6135   -0.2718 O   0  0  0  0  0  0  0  0  0  0  0  0
    0.8841    0.0398    0.0594 C   0  0  0  0  0  0  0  0  0  0  0  0
    0.1982    1.2510    0.0609 C   0  0  0  0  0  0  0  0  0  0  0  0
   -1.1919    1.2514    0.0230 C   0  0  0  0  0  0  0  0  0  0  0  0
   -1.8987    0.0468    0.0016 C   0  0  0  0  0  0  0  0  0  0  0  0
   -1.2209   -1.1641   -0.0448 C   0  0  0  0  0  0  0  0  0  0  0  0
    0.1635   -1.1591   -0.0775 C   0  0  0  0  0  0  0  0  0  0  0  0
  1  3  1  0
  1 22  1  0
  3  2  1  6
  3  4  1  0
  4  5  2  0
  4  6  1  0
  6  7  1  0
  6 10  1  0
  7  8  1  0
  8  9  1  0
  9 10  1  0
 10 11  1  6
 11 12  1  0
 11 21  2  0
 12 13  1  0
 13 14  1  0
 14 15  2  0
 14 20  1  0
 15 16  1  0
 16 17  1  0
 16 18  2  0
 18 19  1  0
 19 20  2  0
 22 23  2  0
 22 27  1  0
 23 24  1  0
 24 25  2  0
 25 26  1  0
 26 27  2  0
M  END
>  <DRUGBANK_ID>  (1) 
DB07133

>  <COMMON_NAME>  (1) 
D-phenylalanyl-N-(3-methylbenzyl)-L-prolinamide

$$$$
