
     RDKit          3D

 10 10  0  0  1  0  0  0  0  0999 V2000
    1.4300    0.1787    0.1734 C   0  0  0  0  0  0  0  0  0  0  0  0
   -0.4266    1.1099   -1.1745 C   0  0  0  0  0  0  0  0  0  0  0  0
    0.4374    1.3490    0.0542 C   0  0  2  0  0  0  0  0  0  0  0  0
    0.2657    1.6612   -2.4194 C   0  0  1  0  0  0  0  0  0  0  0  0
    0.4151    3.1667   -2.2482 C   0  0  2  0  0  0  0  0  0  0  0  0
    1.3005    3.4398   -1.0166 C   0  0  1  0  0  0  0  0  0  0  0  0
    1.5433    1.0502   -2.6557 O   0  0  0  0  0  0  0  0  0  0  0  0
   -0.8704    3.8020   -2.0869 O   0  0  0  0  0  0  0  0  0  0  0  0
    1.2141    4.8305   -0.6975 O   0  0  0  0  0  0  0  0  0  0  0  0
    0.9727    2.6764    0.1485 O   0  0  0  0  0  0  0  0  0  0  0  0
  3  1  1  6
  3  2  1  0
  4  2  1  0
  4  7  1  1
  5  4  1  0
  5  8  1  1
  6  5  1  0
  6  9  1  1
 10  3  1  0
 10  6  1  0
M  END
>  <DRUGBANK_ID>  (1) 
DB01841

>  <SECONDARY_ACCESSION_NUMBERS>  (1) 
EXPT01604

>  <COMMON_NAME>  (1) 
4,6-Dideoxyglucose

$$$$
