
     RDKit          3D

 26 27  0  0  0  0  0  0  0  0999 V2000
   -2.1120    0.6202    0.0048 C   0  0  0  0  0  0  0  0  0  0  0  0
   -2.0086   -0.8271    0.0060 C   0  0  0  0  0  0  0  0  0  0  0  0
   -1.0099    1.3837    0.0091 C   0  0  0  0  0  0  0  0  0  0  0  0
    5.2158   -4.6828    0.0463 C   0  0  0  0  0  0  0  0  0  0  0  0
    5.7273   -5.9213    0.0241 C   0  0  0  0  0  0  0  0  0  0  0  0
   -0.7913   -1.4126   -0.0282 C   0  0  0  0  0  0  0  0  0  0  0  0
    1.5169    1.3144   -0.0159 C   0  0  0  0  0  0  0  0  0  0  0  0
    3.8546    0.6262   -0.3799 C   0  0  0  0  0  0  0  0  0  0  0  0
    2.7260   -5.2871   -0.0069 C   0  0  0  0  0  0  0  0  0  0  0  0
    3.7987   -4.2112    0.0011 C   0  0  0  0  0  0  0  0  0  0  0  0
    2.4564    0.2754   -0.2019 C   0  0  0  0  0  0  0  0  0  0  0  0
    0.2711    0.7703   -0.0184 C   0  0  0  0  0  0  0  0  0  0  0  0
    7.1804   -6.1828    0.0039 C   0  0  0  0  0  0  0  0  0  0  0  0
    3.4669   -2.8775   -0.0565 C   0  0  0  0  0  0  0  0  0  0  0  0
    1.7729   -0.9561   -0.1767 C   0  0  0  0  0  0  0  0  0  0  0  0
    4.5576   -1.9988    0.4439 C   0  0  0  0  0  0  0  0  0  0  0  0
    7.7426   -7.3303   -0.0084 N   0  0  0  0  0  0  0  0  0  0  0  0
    2.1824   -2.2879   -0.2218 N   0  0  0  0  0  0  0  0  0  0  0  0
    0.3802   -0.6202   -0.0671 N   0  0  0  0  0  0  0  0  0  0  0  0
    4.3406    1.7005   -0.0265 O   0  0  0  0  0  0  0  0  0  0  0  0
    7.9873   -5.1207   -0.0060 O   0  0  0  0  0  0  0  0  0  0  0  0
    4.4910   -1.3530    1.4795 O   0  0  0  0  0  0  0  0  0  0  0  0
    5.6304   -1.9068   -0.3630 O   0  0  0  0  0  0  0  0  0  0  0  0
    1.0369   -3.9165    1.5172 O   0  0  0  0  0  0  0  0  0  0  0  0
    0.9373   -6.4158    1.5581 O   0  0  0  0  0  0  0  0  0  0  0  0
    1.7179   -5.1965    1.4815 S   0  0  0  0  0  0  0  0  0  0  0  0
  2  1  1  0
  3  1  2  0
  5  4  2  0
  6  2  2  0
 10  4  1  0
 10  9  1  0
 11  7  1  0
 11  8  1  0
 12  3  1  0
 12  7  2  0
 13  5  1  0
 14 10  2  0
 15 11  2  0
 16 14  1  0
 17 13  2  0
 18 14  1  0
 18 15  1  0
 19  6  1  0
 19 12  1  0
 19 15  1  0
 20  8  2  0
 21 13  1  0
 22 16  2  0
 23 16  1  0
 26  9  1  0
 26 24  2  0
 26 25  2  0
M  END
>  <DRUGBANK_ID>  (1) 
DB02876

>  <SECONDARY_ACCESSION_NUMBERS>  (1) 
EXPT01303

>  <COMMON_NAME>  (1) 
3-(4-carbamoyl-1-carboxy-2-methylsulfonyl-buta-1,3-dienylamino)-indolizine-2-carboxylic acid

$$$$
