
     RDKit          3D

 24 26  0  0  0  0  0  0  0  0999 V2000
    2.3927    0.0015   -0.0575 F   0  0  0  0  0  0  0  0  0  0  0  0
   -3.5874    0.2647   -1.4542 O   0  0  0  0  0  0  0  0  0  0  0  0
   -3.7434    3.9077   -1.2519 O   0  0  0  0  0  0  0  0  0  0  0  0
   -2.5871   -0.1400    1.2419 O   0  0  0  0  0  0  0  0  0  0  0  0
   -1.8463    2.4415   -5.4686 O   0  0  0  0  0  0  0  0  0  0  0  0
   -6.2230    0.2132   -0.3578 N   0  0  0  0  0  0  0  0  0  0  0  0
   -3.0082    2.6608   -1.3094 C   0  0  1  0  0  0  0  0  0  0  0  0
   -4.2454    1.5308   -1.4107 C   0  0  2  0  0  0  0  0  0  0  0  0
   -2.0947    2.6054   -2.6124 C   0  0  0  0  0  0  0  0  0  0  0  0
   -1.8205    2.6212   -0.1248 C   0  0  0  0  0  0  0  0  0  0  0  0
   -1.0081    1.3081    0.0285 C   0  0  0  0  0  0  0  0  0  0  0  0
   -5.5056    1.5377   -0.4272 C   0  0  0  0  0  0  0  0  0  0  0  0
   -2.2801    3.8194   -3.5072 C   0  0  0  0  0  0  0  0  0  0  0  0
   -2.2019    1.2958   -3.4003 C   0  0  0  0  0  0  0  0  0  0  0  0
   -1.5875    0.0611    0.3438 C   0  0  0  0  0  0  0  0  0  0  0  0
    0.3736    1.2574   -0.0888 C   0  0  0  0  0  0  0  0  0  0  0  0
   -4.3340   -0.9303   -1.4640 C   0  0  0  0  0  0  0  0  0  0  0  0
    1.0708    0.0199   -0.0829 C   0  0  0  0  0  0  0  0  0  0  0  0
   -5.3241   -0.9760   -0.3164 C   0  0  0  0  0  0  0  0  0  0  0  0
   -0.9642   -1.1690    0.0777 C   0  0  0  0  0  0  0  0  0  0  0  0
   -1.4655    1.3016   -4.7097 C   0  0  0  0  0  0  0  0  0  0  0  0
   -1.5093    3.6575   -4.8053 C   0  0  0  0  0  0  0  0  0  0  0  0
    0.3783   -1.1997   -0.0814 C   0  0  0  0  0  0  0  0  0  0  0  0
   -3.4586    0.9169    1.4423 C   0  0  0  0  0  0  0  0  0  0  0  0
  1 18  1  0
  2  8  1  0
  2 17  1  0
  4 15  1  0
  4 24  1  0
  5 21  1  0
  5 22  1  0
  6 12  1  0
  6 19  1  0
  7  9  1  0
  7 10  1  0
  7  8  1  0
  7  3  1  6
  8 12  1  1
  9 13  1  0
  9 14  1  0
 10 11  1  0
 11 15  2  0
 11 16  1  0
 13 22  1  0
 14 21  1  0
 15 20  1  0
 16 18  2  0
 17 19  1  0
 18 23  1  0
 20 23  2  0
M  END
>  <DRUGBANK_ID>  (1) 
DB09184

>  <COMMON_NAME>  (1) 
Edivoxetine

>  <CAS_NUMBER>  (1) 
1194508-25-2

>  <UNII>  (1) 
3W9N3F4JOO

>  <SYNONYMS>  (1) 
Edivoxetine

$$$$
