LZE
     RDKit          3D

 25 27  0  0  0  0  0  0  0  0999 V2000
    0.9284    1.3688   -0.3086 C   0  0  0  0  0  0  0  0  0  0  0  0
   -0.5078    1.5053    0.1422 C   0  0  0  0  0  0  0  0  0  0  0  0
   -1.2661    0.3387   -0.4215 C   0  0  0  0  0  0  0  0  0  0  0  0
   -2.6925    0.6422   -0.0814 N   0  0  0  0  0  0  0  0  0  0  0  0
   -3.8270    0.8140   -0.8277 C   0  0  0  0  0  0  0  0  0  0  0  0
   -4.8360    1.3754   -0.3400 O   0  0  0  0  0  0  0  0  0  0  0  0
   -3.8445    0.2963   -2.1440 C   0  0  0  0  0  0  0  0  0  0  0  0
   -4.5274    0.9575   -3.0875 N   0  0  0  0  0  0  0  0  0  0  0  0
   -4.1306    0.3928   -4.2118 N   0  0  0  0  0  0  0  0  0  0  0  0
   -3.2179   -0.6203   -4.0000 C   0  0  0  0  0  0  0  0  0  0  0  0
   -3.1733   -0.8508   -2.6243 C   0  0  0  0  0  0  0  0  0  0  0  0
   -2.5524   -1.9307   -1.9403 N   0  0  0  0  0  0  0  0  0  0  0  0
   -2.5797   -2.4729   -0.5383 C   0  0  0  0  0  0  0  0  0  0  0  0
   -1.9559   -3.5352   -0.3876 O   0  0  0  0  0  0  0  0  0  0  0  0
   -3.2372   -1.7987    0.7753 C   0  0  0  0  0  0  0  0  0  0  0  0
   -2.6961   -1.0987    2.0118 C   0  0  0  0  0  0  0  0  0  0  0  0
   -3.4565   -0.0929    2.6692 C   0  0  0  0  0  0  0  0  0  0  0  0
   -4.7570    0.1221    2.2920 C   0  0  0  0  0  0  0  0  0  0  0  0
   -5.3374   -0.7140    1.3342 C   0  0  0  0  0  0  0  0  0  0  0  0
   -4.6082   -1.6521    0.5792 C   0  0  0  0  0  0  0  0  0  0  0  0
   -0.4804   -0.9875   -0.0790 C   0  0  0  0  0  0  0  0  0  0  0  0
    1.5840    0.1681    0.2073 N   0  0  0  0  0  0  0  0  0  0  0  0
    0.9817   -1.0115   -0.3493 C   0  0  0  0  0  0  0  0  0  0  0  0
   -5.4598   -2.3720   -0.7553 Cl  0  0  0  0  0  0  0  0  0  0  0  0
   -1.1236   -1.0126    2.8595 Cl  0  0  0  0  0  0  0  0  0  0  0  0
  1  2  1  0
  1 22  1  0
  2  3  1  0
  3  4  1  0
  3 21  1  0
  4  5  1  0
  5  6  2  0
  5  7  1  0
  7  8  2  0
  7 11  1  0
  8  9  1  0
  9 10  1  0
 10 11  2  0
 11 12  1  0
 12 13  1  0
 13 14  2  0
 13 15  1  0
 15 16  2  0
 15 20  1  0
 16 17  1  0
 16 25  1  0
 17 18  2  0
 18 19  1  0
 19 20  2  0
 20 24  1  0
 21 23  1  0
 22 23  1  0
M  END
>  <DRUGBANK_ID>  (1) 
DB08142

>  <SECONDARY_ACCESSION_NUMBERS>  (1) 
DB05037

>  <COMMON_NAME>  (1) 
AT-7519

>  <CAS_NUMBER>  (1) 
844442-38-2

>  <UNII>  (1) 
X1BF92PW9T

>  <SYNONYMS>  (1) 
4-{[(2,6-dichlorophenyl)carbonyl]amino}-N-piperidin-4-yl-1H-pyrazole-3-carboxamide

$$$$
