
     RDKit          3D

 13 12  0  0  1  0  0  0  0  0999 V2000
    5.0861    1.1687   -1.6805 O   0  0  0  0  0  0  0  0  0  0  0  0
    6.1030   -1.0821   -2.3927 O   0  0  0  0  0  0  0  0  0  0  0  0
    2.4400   -0.3577   -2.3345 O   0  0  0  0  0  0  0  0  0  0  0  0
    6.4017   -1.9414   -4.9597 O   0  0  0  0  0  0  0  0  0  0  0  0
    1.0031    1.0231   -4.2570 O   0  0  0  0  0  0  0  0  0  0  0  0
    4.9182    0.7854   -6.4777 O   0  0  0  0  0  0  0  0  0  0  0  0
    3.9181   -1.2044   -6.1607 O   0  0  0  0  0  0  0  0  0  0  0  0
    4.5654    0.7698   -2.9637 C   0  0  1  0  0  0  0  0  0  0  0  0
    5.1292   -0.6276   -3.3605 C   0  0  1  0  0  0  0  0  0  0  0  0
    3.0168    0.8248   -2.9188 C   0  0  1  0  0  0  0  0  0  0  0  0
    5.8153   -0.6507   -4.7444 C   0  0  2  0  0  0  0  0  0  0  0  0
    2.4210    0.9780   -4.3176 C   0  0  0  0  0  0  0  0  0  0  0  0
    4.8132   -0.4168   -5.8660 C   0  0  0  0  0  0  0  0  0  0  0  0
  5 12  1  0
  6 13  1  0
  7 13  2  0
  8  1  1  1
  9 11  1  0
  9  8  1  0
  9  2  1  1
 10 12  1  0
 10  8  1  0
 10  3  1  6
 11  4  1  6
 11 13  1  0
M  END
>  <DRUGBANK_ID>  (1) 
DB13180

>  <SECONDARY_ACCESSION_NUMBERS>  (1) 
DB09408

>  <COMMON_NAME>  (1) 
Gluconic Acid

>  <CAS_NUMBER>  (1) 
526-95-4

>  <UNII>  (1) 
R4R8J0Q44B

>  <SYNONYMS>  (1) 
D-Gluconic Acid; Dextronic acid; Maltonic acid

$$$$
