
     RDKit          3D

 32 36  0  0  0  0  0  0  0  0999 V2000
   -2.0905   -0.0544   -0.0558 C   0  0  0  0  0  0  0  0  0  0  0  0
   -0.6490   -0.0846    0.0096 N   0  0  0  0  0  0  0  0  0  0  0  0
    0.1560   -1.1900   -0.0089 C   0  0  0  0  0  0  0  0  0  0  0  0
    1.4491   -0.7190   -0.0818 C   0  0  0  0  0  0  0  0  0  0  0  0
    1.3108    0.6873   -0.0269 C   0  0  0  0  0  0  0  0  0  0  0  0
    0.0333    1.0751    0.0191 N   0  0  0  0  0  0  0  0  0  0  0  0
    2.6385   -1.5379   -0.1794 C   0  0  0  0  0  0  0  0  0  0  0  0
    3.6716   -1.3525    0.7254 C   0  0  0  0  0  0  0  0  0  0  0  0
    4.8661   -2.0822    0.6077 C   0  0  0  0  0  0  0  0  0  0  0  0
    5.0484   -3.0616   -0.3570 C   0  0  0  0  0  0  0  0  0  0  0  0
    4.0186   -3.2080   -1.3094 C   0  0  0  0  0  0  0  0  0  0  0  0
    2.8318   -2.4502   -1.2191 C   0  0  0  0  0  0  0  0  0  0  0  0
    6.2750   -3.7605   -0.2945 C   0  0  0  0  0  0  0  0  0  0  0  0
    7.2159   -3.6171    0.6954 N   0  0  0  0  0  0  0  0  0  0  0  0
    6.9931   -2.6466    1.6003 C   0  0  0  0  0  0  0  0  0  0  0  0
    7.8471   -2.5183    2.7114 N   0  0  0  0  0  0  0  0  0  0  0  0
    7.7311   -1.7453    3.8714 C   0  0  0  0  0  0  0  0  0  0  0  0
    8.6686   -1.6547    4.6505 O   0  0  0  0  0  0  0  0  0  0  0  0
    6.4787   -0.9918    4.2051 C   0  0  0  0  0  0  0  0  0  0  0  0
    5.2250   -1.6030    4.1728 C   0  0  0  0  0  0  0  0  0  0  0  0
    4.1166   -0.7740    4.1652 C   0  0  0  0  0  0  0  0  0  0  0  0
    4.1745    0.5675    4.3224 N   0  0  0  0  0  0  0  0  0  0  0  0
    5.3843    1.1470    4.4718 C   0  0  0  0  0  0  0  0  0  0  0  0
    6.5560    0.3945    4.3889 C   0  0  0  0  0  0  0  0  0  0  0  0
    5.4527    2.4812    4.7768 N   0  0  0  0  0  0  0  0  0  0  0  0
    6.0737    3.4757    3.9038 C   0  0  0  0  0  0  0  0  0  0  0  0
    6.9100    4.4505    4.7683 C   0  0  0  0  0  0  0  0  0  0  0  0
    6.0847    5.0826    5.8259 N   0  0  0  0  0  0  0  0  0  0  0  0
    6.8709    6.0304    6.6067 C   0  0  0  0  0  0  0  0  0  0  0  0
    5.5291    4.0085    6.6868 C   0  0  0  0  0  0  0  0  0  0  0  0
    4.6517    3.0119    5.8799 C   0  0  0  0  0  0  0  0  0  0  0  0
    5.9210   -1.7964    1.4474 C   0  0  0  0  0  0  0  0  0  0  0  0
  1  2  1  0
  2  3  1  0
  2  6  1  0
  3  4  2  0
  4  5  1  0
  4  7  1  0
  5  6  2  0
  7  8  2  0
  7 12  1  0
  8  9  1  0
  9 10  2  0
  9 32  1  0
 10 11  1  0
 10 13  1  0
 11 12  2  0
 13 14  2  0
 14 15  1  0
 15 16  1  0
 15 32  2  0
 16 17  1  0
 17 18  2  0
 17 19  1  0
 19 20  2  0
 19 24  1  0
 20 21  1  0
 21 22  2  0
 22 23  1  0
 23 24  2  0
 23 25  1  0
 25 26  1  0
 25 31  1  0
 26 27  1  0
 27 28  1  0
 28 29  1  0
 28 30  1  0
 30 31  1  0
M  END
>  <DRUGBANK_ID>  (1) 
DB17269

>  <COMMON_NAME>  (1) 
Cirtuvivint

>  <CAS_NUMBER>  (1) 
2143917-62-6

>  <UNII>  (1) 
7T1PY32ZPH

>  <SYNONYMS>  (1) 
4-pyridinecarboxamide, 2-(4-methyl-1-piperazinyl)-n-(6-(1-methyl-1h-pyrazol-4-yl)-3-isoquinolinyl)-; CDC-like kinase inhibitor of the Wnt Pathway

$$$$
