735
     RDKit          3D

 22 24  0  0  1  0  0  0  0  0999 V2000
    0.9762    0.0011   -0.2518 N   0  0  0  0  0  0  0  0  0  0  0  0
    0.5160    1.4120   -0.3654 C   0  0  0  0  0  0  0  0  0  0  0  0
    0.9815    2.2120   -1.5659 C   0  0  0  0  0  0  0  0  0  0  0  0
    0.7667    3.5351   -1.8731 C   0  0  0  0  0  0  0  0  0  0  0  0
    1.1431    4.0419   -3.1721 C   0  0  0  0  0  0  0  0  0  0  0  0
    0.3969   -1.0295   -1.1638 C   0  0  0  0  0  0  0  0  0  0  0  0
    1.6186    1.5634   -2.5766 C   0  0  0  0  0  0  0  0  0  0  0  0
    2.4074   -0.0898    0.0299 C   0  0  0  0  0  0  0  0  0  0  0  0
    0.2203    4.4209   -0.9578 C   0  0  0  0  0  0  0  0  0  0  0  0
    1.4989    3.1975   -4.1896 C   0  0  0  0  0  0  0  0  0  0  0  0
    1.3676    1.9129   -3.8817 C   0  0  0  0  0  0  0  0  0  0  0  0
    1.0455    5.3489   -3.5239 C   0  0  0  0  0  0  0  0  0  0  0  0
    0.6523   -0.9604   -2.6824 C   0  0  0  0  0  0  0  0  0  0  0  0
    0.0993    5.7507   -1.3302 C   0  0  0  0  0  0  0  0  0  0  0  0
    0.5086    6.2128   -2.5913 C   0  0  0  0  0  0  0  0  0  0  0  0
    1.7357   -1.4911   -3.3210 C   0  0  0  0  0  0  0  0  0  0  0  0
    2.4140   -1.0093   -4.5893 C   0  0  0  0  0  0  0  0  0  0  0  0
    3.3146    0.0949   -4.6368 C   0  0  0  0  0  0  0  0  0  0  0  0
    2.1563   -1.6155   -5.8091 C   0  0  0  0  0  0  0  0  0  0  0  0
    3.6035    0.7724   -5.8399 C   0  0  0  0  0  0  0  0  0  0  0  0
    2.6799   -1.0846   -7.0058 C   0  0  0  0  0  0  0  0  0  0  0  0
    3.2933    0.1664   -7.0379 C   0  0  0  0  0  0  0  0  0  0  0  0
  1  2  1  0
  1  6  1  0
  1  8  1  0
  2  3  1  0
  3  4  1  0
  3  7  2  0
  4  5  2  0
  4  9  1  0
  5 10  1  0
  5 12  1  0
  6 13  1  0
  7 11  1  0
  9 14  2  0
 10 11  2  0
 12 15  2  0
 13 16  2  3
 14 15  1  0
 16 17  1  0
 17 18  2  0
 17 19  1  0
 18 20  1  0
 19 21  2  0
 20 22  2  0
 21 22  1  0
M  END
>  <DRUGBANK_ID>  (1) 
DB00735

>  <SECONDARY_ACCESSION_NUMBERS>  (1) 
APRD01131

>  <COMMON_NAME>  (1) 
Naftifine

>  <CAS_NUMBER>  (1) 
65472-88-0

>  <UNII>  (1) 
4FB1TON47A

>  <SYNONYMS>  (1) 
Naftifin; Naftifina; Naftifine; Naftifinum

$$$$
