
     RDKit          3D

 29 31  0  0  1  0  0  0  0  0999 V2000
    1.1063   -0.9200   -0.1470 C   0  0  0  0  0  0  0  0  0  0  0  0
    1.5956   -2.3042   -0.5669 C   0  0  0  0  0  0  0  0  0  0  0  0
    0.1452   -0.8089    0.9857 C   0  0  0  0  0  0  0  0  0  0  0  0
    0.5581   -0.8195    2.3499 C   0  0  0  0  0  0  0  0  0  0  0  0
    2.9899   -2.2464   -0.3752 C   0  0  0  0  0  0  0  0  0  0  0  0
   -0.0838   -1.7437    3.2011 C   0  0  0  0  0  0  0  0  0  0  0  0
    1.7140    0.2370   -0.3682 C   0  0  0  0  0  0  0  0  0  0  0  0
   -1.0612   -1.3669    0.5285 C   0  0  0  0  0  0  0  0  0  0  0  0
    4.2169   -0.9502   -0.5020 C   0  0  0  0  0  0  0  0  0  0  0  0
    0.1501   -3.4428   -0.8262 C   0  0  2  0  0  0  0  0  0  0  0  0
   -1.1588   -2.5150    2.6954 C   0  0  0  0  0  0  0  0  0  0  0  0
    2.6816    0.8182   -1.2498 C   0  0  0  0  0  0  0  0  0  0  0  0
    3.9517    0.4212   -1.2442 C   0  0  0  0  0  0  0  0  0  0  0  0
   -1.6919   -2.2530    1.4101 C   0  0  0  0  0  0  0  0  0  0  0  0
   -0.5043   -6.1014   -0.9455 C   0  0  0  0  0  0  0  0  0  0  0  0
   -0.1163   -4.8621   -1.5142 N   0  0  0  0  0  0  0  0  0  0  0  0
   -1.3088   -1.3686   -1.0052 C   0  0  0  0  0  0  0  0  0  0  0  0
    5.2639   -1.0715    0.1287 O   0  0  0  0  0  0  0  0  0  0  0  0
   -0.6414   -2.5310   -1.7700 C   0  0  0  0  0  0  0  0  0  0  0  0
   -0.8884   -7.0375   -1.6086 O   0  0  0  0  0  0  0  0  0  0  0  0
    1.6397   -0.1830    2.9024 O   0  0  0  0  0  0  0  0  0  0  0  0
    0.3105   -2.0344    4.4838 O   0  0  0  0  0  0  0  0  0  0  0  0
   -0.5018   -6.1794    0.5558 C   0  0  0  0  0  0  0  0  0  0  0  0
   -1.7426   -3.6163    3.2896 O   0  0  0  0  0  0  0  0  0  0  0  0
    5.0077    1.2798   -1.6898 O   0  0  0  0  0  0  0  0  0  0  0  0
    2.2572    1.0056    2.4394 C   0  0  0  0  0  0  0  0  0  0  0  0
    1.2705   -1.2413    5.1578 C   0  0  0  0  0  0  0  0  0  0  0  0
   -1.4602   -3.8570    4.6645 C   0  0  0  0  0  0  0  0  0  0  0  0
    4.6181    2.3898   -2.5535 C   0  0  0  0  0  0  0  0  0  0  0  0
  2  1  1  0
  3  1  1  0
  4  3  2  0
  5  2  2  0
  6  4  1  0
  6 11  2  0
  7  1  2  0
  8  3  1  0
  9  5  1  0
 10  2  1  0
 10 16  1  6
 11 14  1  0
 12  7  1  0
 13 12  2  0
 13  9  1  0
 14  8  2  0
 15 16  1  0
 17  8  1  0
 18  9  2  0
 19 10  1  0
 19 17  1  0
 20 15  2  0
 21  4  1  0
 22  6  1  0
 23 15  1  0
 24 11  1  0
 25 13  1  0
 26 21  1  0
 27 22  1  0
 28 24  1  0
 29 25  1  0
M  END
>  <DRUGBANK_ID>  (1) 
DB01394

>  <COMMON_NAME>  (1) 
Colchicine

>  <CAS_NUMBER>  (1) 
64-86-8

>  <UNII>  (1) 
SML2Y3J35T

>  <SYNONYMS>  (1) 
Colchicin; Colchicina; Colchicine; Colchicinum

$$$$
