4RB
     RDKit          3D

 24 26  0  0  0  0  0  0  0  0999 V2000
   -0.5726   -1.3290   -1.6643 C   0  0  0  0  0  0  0  0  0  0  0  0
   -0.0004   -1.6741   -0.4313 C   0  0  0  0  0  0  0  0  0  0  0  0
    0.1659   -3.0200   -0.0588 C   0  0  0  0  0  0  0  0  0  0  0  0
    0.7874   -3.3064    1.2676 C   0  0  0  0  0  0  0  0  0  0  0  0
    0.9256   -4.5962    1.6223 O   0  0  0  0  0  0  0  0  0  0  0  0
    1.1462   -2.3992    2.0233 O   0  0  0  0  0  0  0  0  0  0  0  0
   -0.2906   -4.0127   -0.9323 C   0  0  0  0  0  0  0  0  0  0  0  0
   -0.9014   -3.6616   -2.1441 C   0  0  0  0  0  0  0  0  0  0  0  0
   -0.9834   -2.3244   -2.5527 C   0  0  0  0  0  0  0  0  0  0  0  0
   -1.4787   -2.0054   -3.8885 C   0  0  0  0  0  0  0  0  0  0  0  0
   -2.6829   -2.3262   -4.4872 C   0  0  0  0  0  0  0  0  0  0  0  0
   -2.7368   -1.9153   -5.7925 N   0  0  0  0  0  0  0  0  0  0  0  0
   -1.5694   -1.3546   -6.0177 C   0  0  0  0  0  0  0  0  0  0  0  0
   -1.0426   -0.7714   -7.1880 C   0  0  0  0  0  0  0  0  0  0  0  0
    0.2041   -0.2891   -7.1759 C   0  0  0  0  0  0  0  0  0  0  0  0
   -0.7560   -1.3821   -4.8965 N   0  0  0  0  0  0  0  0  0  0  0  0
    0.5217   -0.9127   -4.8098 N   0  0  0  0  0  0  0  0  0  0  0  0
    0.9916   -0.3787   -5.9056 C   0  0  0  0  0  0  0  0  0  0  0  0
    2.2639    0.1393   -5.9066 N   0  0  0  0  0  0  0  0  0  0  0  0
    3.1753    0.0290   -4.7696 C   0  0  2  0  0  0  0  0  0  0  0  0
    3.9251    1.3907   -4.6439 C   0  0  0  0  0  0  0  0  0  0  0  0
    5.3438    1.0951   -4.2614 C   0  0  0  0  0  0  0  0  0  0  0  0
    4.0579   -1.2758   -4.9430 C   0  0  0  0  0  0  0  0  0  0  0  0
    4.8939   -1.6528   -3.8385 O   0  0  0  0  0  0  0  0  0  0  0  0
  1  2  2  0
  1  9  1  0
  2  3  1  0
  3  4  1  0
  3  7  2  0
  4  5  1  0
  4  6  2  0
  7  8  1  0
  8  9  2  0
  9 10  1  0
 10 11  2  0
 10 16  1  0
 11 12  1  0
 12 13  2  0
 13 14  1  0
 13 16  1  0
 14 15  2  0
 15 18  1  0
 16 17  1  0
 17 18  2  0
 18 19  1  0
 20 23  1  6
 20 21  1  0
 20 19  1  0
 21 22  1  0
 23 24  1  0
M  END
>  <DRUGBANK_ID>  (1) 
DB07125

>  <COMMON_NAME>  (1) 
4-(6-{[(1R)-1-(hydroxymethyl)propyl]amino}imidazo[1,2-b]pyridazin-3-yl)benzoic acid

$$$$
