
     RDKit          3D

 20 20  0  0  1  0  0  0  0  0999 V2000
    0.9294    2.1234   -1.1743 C   0  0  0  0  0  0  0  0  0  0  0  0
    0.4228    1.4062    0.0664 C   0  0  2  0  0  0  0  0  0  0  0  0
    0.9128    0.0203    0.0656 N   0  0  0  0  0  0  0  0  0  0  0  0
   -1.0972    1.4062    0.0664 C   0  0  0  0  0  0  0  0  0  0  0  0
   -1.7327    1.9560    1.0198 O   0  0  0  0  0  0  0  0  0  0  0  0
   -1.8322    0.7703   -1.0365 N   0  0  0  0  0  0  0  0  0  0  0  0
   -1.5565   -0.6011   -1.6870 C   0  0  0  0  0  0  0  0  0  0  0  0
   -2.9065   -1.1165   -2.2161 C   0  0  2  0  0  0  0  0  0  0  0  0
   -2.8500   -1.3636   -3.7148 C   0  0  0  0  0  0  0  0  0  0  0  0
   -1.7943   -2.4150   -4.0155 C   0  0  0  0  0  0  0  0  0  0  0  0
   -2.1501   -3.7090   -3.3017 C   0  0  0  0  0  0  0  0  0  0  0  0
   -3.5765   -4.2244   -3.8114 B   0  0  0  0  0  0  0  0  0  0  0  0
   -3.6975   -5.5670   -4.4692 O   0  0  0  0  0  0  0  0  0  0  0  0
   -4.7926   -3.3650   -3.6315 O   0  0  0  0  0  0  0  0  0  0  0  0
   -3.9557   -0.0397   -1.8685 C   0  0  1  0  0  0  0  0  0  0  0  0
   -4.6401   -0.3661   -0.6092 N   0  0  0  0  0  0  0  0  0  0  0  0
   -3.1288    1.2655   -1.7232 C   0  0  0  0  0  0  0  0  0  0  0  0
   -5.0435    0.0751   -2.9240 C   0  0  0  0  0  0  0  0  0  0  0  0
   -6.2754    0.7057   -2.6062 O   0  0  0  0  0  0  0  0  0  0  0  0
   -4.8516   -0.3936   -4.0897 O   0  0  0  0  0  0  0  0  0  0  0  0
  2  4  1  0
  2  3  1  0
  2  1  1  6
  4  5  2  0
  4  6  1  0
  6  7  1  0
  6 17  1  0
  8  7  1  0
  8  9  1  6
  8 15  1  0
  9 10  1  0
 10 11  1  0
 11 12  1  0
 12 13  1  0
 12 14  1  0
 15 17  1  0
 15 18  1  0
 15 16  1  1
 18 19  1  0
 18 20  2  0
M  END
>  <DRUGBANK_ID>  (1) 
DB15286

>  <COMMON_NAME>  (1) 
CB-1158

>  <CAS_NUMBER>  (1) 
2095732-06-0

>  <UNII>  (1) 
IFD73D535A

>  <SYNONYMS>  (1) 
INCB001158

$$$$
