
     RDKit          3D

 29 31  0  0  1  0  0  0  0  0999 V2000
    2.1562   -0.1000    0.0193 C   0  0  1  0  0  0  0  0  0  0  0  0
    2.6324    1.2926    0.4034 C   0  0  0  0  0  0  0  0  0  0  0  0
    4.0278    1.4171   -0.1948 C   0  0  1  0  0  0  0  0  0  0  0  0
    5.0081    1.1866    0.8142 O   0  0  0  0  0  0  0  0  0  0  0  0
    4.1487    0.3504   -1.2924 C   0  0  2  0  0  0  0  0  0  0  0  0
    4.4318    0.9610   -2.6259 C   0  0  0  0  0  0  0  0  0  0  0  0
    5.5344    0.6520   -3.3137 C   0  0  0  0  0  0  0  0  0  0  0  0
    5.8385    1.2343   -4.6428 C   0  0  1  0  0  0  0  0  0  0  0  0
    7.0787    1.8942   -4.4481 O   0  0  0  0  0  0  0  0  0  0  0  0
    5.9116    0.1362   -5.7273 C   0  0  1  0  0  0  0  0  0  0  0  0
    4.5987   -0.6519   -5.8128 C   0  0  0  0  0  0  0  0  0  0  0  0
    6.2063    0.7462   -7.1005 C   0  0  0  0  0  0  0  0  0  0  0  0
    7.5239    1.5024   -7.0495 C   0  0  0  0  0  0  0  0  0  0  0  0
    8.6541    2.1511   -7.0058 C   0  0  0  0  0  0  0  0  0  0  0  0
    9.9218    2.8781   -6.9532 C   0  0  0  0  0  0  0  0  0  0  0  0
    2.8155   -0.4054   -1.3261 C   0  0  1  0  0  0  0  0  0  0  0  0
    3.0240   -1.8626   -1.1565 C   0  0  0  0  0  0  0  0  0  0  0  0
    3.3727   -2.8116   -2.1038 C   0  0  0  0  0  0  0  0  0  0  0  0
    3.6597   -4.0903   -1.6600 C   0  0  0  0  0  0  0  0  0  0  0  0
    3.6267   -4.3685   -0.2918 C   0  0  0  0  0  0  0  0  0  0  0  0
    3.1899   -3.4369    0.6682 C   0  0  0  0  0  0  0  0  0  0  0  0
    3.0131   -3.7967    2.1195 C   0  0  0  0  0  0  0  0  0  0  0  0
    1.9546   -4.8944    2.3479 C   0  0  0  0  0  0  0  0  0  0  0  0
    2.2586   -6.2558    1.7123 C   0  0  0  0  0  0  0  0  0  0  0  0
    3.6108   -6.8063    2.1426 C   0  0  0  0  0  0  0  0  0  0  0  0
    3.5718   -8.0595    2.6272 O   0  0  0  0  0  0  0  0  0  0  0  0
    4.6783   -6.2106    2.0514 O   0  0  0  0  0  0  0  0  0  0  0  0
    2.9220   -2.1715    0.1955 C   0  0  0  0  0  0  0  0  0  0  0  0
    2.6049   -1.0855    0.9773 O   0  0  0  0  0  0  0  0  0  0  0  0
  1  2  1  1
  1 29  1  0
  3  2  1  0
  3  4  1  1
  5  3  1  0
  5  6  1  6
  5 16  1  0
  6  7  2  0
  8  7  1  0
  8  9  1  1
  8 10  1  0
 10 11  1  6
 10 12  1  0
 12 13  1  0
 13 14  3  0
 14 15  1  0
 16  1  1  0
 16 17  1  1
 17 18  2  0
 17 28  1  0
 18 19  1  0
 19 20  2  0
 20 21  1  0
 21 22  1  0
 21 28  2  0
 22 23  1  0
 23 24  1  0
 24 25  1  0
 25 26  1  0
 25 27  2  0
 28 29  1  0
M  END
>  <DRUGBANK_ID>  (1) 
DB18464

>  <COMMON_NAME>  (1) 
Esuberaprost

>  <CAS_NUMBER>  (1) 
94132-88-4

>  <UNII>  (1) 
1JSN1I7582

>  <SYNONYMS>  (1) 
(+)-4-((1r,2r,3as,8bs)-2-hydroxy-1-((1e,3s,4s)-3-hydroxy-4-methyl-oct-1-en-6-yn-1-yl)-2,3,3a,8b-tetrahydro-1h-cyclopenta(b)(1)benzofuran-5-yl)butanoic acid; 1h-cyclopenta(b)benzofuran-5-butanoic acid, 2,3,3a,8b-tetrahydro-2-hydroxy-1-((1e,3s,4s)-3-hydroxy-4-methyl-1-octen-6-ynyl)-, (1r,2r,3as,8bs)-; Aps-314d free acid; Beraprost, (+)-

$$$$
