
     RDKit          3D

  9  9  0  0  0  0  0  0  0  0999 V2000
    3.6901   -0.0585   -2.0620 I   0  0  0  0  0  0  0  0  0  0  0  0
    3.0409    2.0851    1.0779 O   0  0  0  0  0  0  0  0  0  0  0  0
    6.5320    0.0436    2.1940 O   0  0  0  0  0  0  0  0  0  0  0  0
    5.0754   -1.1978    0.9586 N   0  0  0  0  0  0  0  0  0  0  0  0
    5.0652    1.0845    0.7950 N   0  0  0  0  0  0  0  0  0  0  0  0
    3.0904   -0.0941    0.0284 C   0  0  1  0  0  0  0  0  0  0  0  0
    3.6507   -1.3115    0.7451 C   0  0  0  0  0  0  0  0  0  0  0  0
    3.7022    1.1360    0.6683 C   0  0  0  0  0  0  0  0  0  0  0  0
    5.6142   -0.0170    1.3769 C   0  0  0  0  0  0  0  0  0  0  0  0
  2  8  2  0
  3  9  2  0
  4  7  1  0
  4  9  1  0
  5  8  1  0
  5  9  1  0
  6  7  1  0
  6  8  1  0
  6  1  1  6
M  END
>  <DRUGBANK_ID>  (1) 
DB02303

>  <SECONDARY_ACCESSION_NUMBERS>  (1) 
EXPT01839

>  <COMMON_NAME>  (1) 
(5S)-5-Iododihydro-2,4(1H,3H)-pyrimidinedione

$$$$
