F16
     RDKit          3D

 15 16  0  0  0  0  0  0  0  0999 V2000
    1.1078   -0.6403   -0.0667 C   0  0  0  0  0  0  0  0  0  0  0  0
    1.0233    0.6960   -0.0255 C   0  0  0  0  0  0  0  0  0  0  0  0
   -0.3861    1.1364    0.0772 C   0  0  0  0  0  0  0  0  0  0  0  0
   -1.2341    0.0472   -0.0986 N   0  0  0  0  0  0  0  0  0  0  0  0
   -0.4269   -1.3864    0.1363 S   0  0  0  0  0  0  0  0  0  0  0  0
   -0.6291   -1.7498    1.5202 O   0  0  0  0  0  0  0  0  0  0  0  0
   -0.7833   -2.2640   -0.9543 O   0  0  0  0  0  0  0  0  0  0  0  0
   -0.7498    2.2871    0.2427 O   0  0  0  0  0  0  0  0  0  0  0  0
    2.2505   -1.5134   -0.2156 C   0  0  0  0  0  0  0  0  0  0  0  0
    3.3157   -1.4122    0.6871 C   0  0  0  0  0  0  0  0  0  0  0  0
    4.4561   -2.1998    0.5220 C   0  0  0  0  0  0  0  0  0  0  0  0
    4.5424   -3.0966   -0.5449 C   0  0  0  0  0  0  0  0  0  0  0  0
    3.4830   -3.1964   -1.4394 C   0  0  0  0  0  0  0  0  0  0  0  0
    2.3487   -2.4077   -1.2883 C   0  0  0  0  0  0  0  0  0  0  0  0
    3.5052   -4.0531   -2.4994 O   0  0  0  0  0  0  0  0  0  0  0  0
  1  2  2  0
  1  5  1  0
  1  9  1  0
  2  3  1  0
  3  4  1  0
  3  8  2  0
  4  5  1  0
  5  6  2  0
  5  7  2  0
  9 10  2  0
  9 14  1  0
 10 11  1  0
 11 12  2  0
 12 13  1  0
 13 14  2  0
 13 15  1  0
M  END
>  <DRUGBANK_ID>  (1) 
DB07730

>  <COMMON_NAME>  (1) 
5-(3-HYDROXYPHENYL)ISOTHIAZOL-3(2H)-ONE 1,1-DIOXIDE

>  <UNII>  (1) 
832C81WLO3

$$$$
