
     RDKit          3D

 29 34  0  0  0  0  0  0  0  0999 V2000
    4.4971   -0.7473    0.0677 C   0  0  0  0  0  0  0  0  0  0  0  0
    0.5646    3.0128   -0.8498 C   0  0  0  0  0  0  0  0  0  0  0  0
    0.1268   -1.2308   -1.9862 C   0  0  0  0  0  0  0  0  0  0  0  0
   -1.1240   -1.7286   -1.6907 C   0  0  0  0  0  0  0  0  0  0  0  0
   -0.6972    3.4552   -0.3337 C   0  0  0  0  0  0  0  0  0  0  0  0
    1.2411   -0.7505    1.7518 C   0  0  0  0  0  0  0  0  0  0  0  0
    2.6478   -0.3567    1.5123 C   0  0  0  0  0  0  0  0  0  0  0  0
   -3.7780   -0.4748   -0.9451 C   0  0  0  0  0  0  0  0  0  0  0  0
   -3.7184   -0.5792    1.7950 C   0  0  0  0  0  0  0  0  0  0  0  0
   -4.5993    1.2941    0.4957 C   0  0  0  0  0  0  0  0  0  0  0  0
   -4.3081   -2.0195   -0.8887 C   0  0  0  0  0  0  0  0  0  0  0  0
   -4.1816   -2.0438    1.7933 C   0  0  0  0  0  0  0  0  0  0  0  0
   -3.8567    2.3748    1.3038 C   0  0  0  0  0  0  0  0  0  0  0  0
    2.1830    0.9839   -1.2941 C   0  0  0  0  0  0  0  0  0  0  0  0
    1.0064    1.6953   -0.6691 C   0  0  0  0  0  0  0  0  0  0  0  0
    1.0440   -1.2477   -0.7825 C   0  0  1  0  0  0  0  0  0  0  0  0
    2.3582   -0.5698   -0.9810 C   0  0  2  0  0  0  0  0  0  0  0  0
   -1.2069   -2.0258   -0.2386 C   0  0  1  0  0  0  0  0  0  0  0  0
   -1.5606    2.5821    0.3488 C   0  0  0  0  0  0  0  0  0  0  0  0
    0.2252    0.9187    0.1228 C   0  0  0  0  0  0  0  0  0  0  0  0
   -1.0090    1.3261    0.5716 C   0  0  0  0  0  0  0  0  0  0  0  0
   -0.7875   -0.9900    0.8109 C   0  0  1  0  0  0  0  0  0  0  0  0
    0.5133   -0.5126    0.4487 C   0  0  2  0  0  0  0  0  0  0  0  0
    3.0955   -0.9688    0.2548 N   0  0  0  0  0  0  0  0  0  0  0  0
   -3.8059    0.1094    0.4239 N   0  0  0  0  0  0  0  0  0  0  0  0
   -2.4364   -2.2059    0.2760 O   0  0  0  0  0  0  0  0  0  0  0  0
   -4.4749   -2.7047    0.4859 O   0  0  0  0  0  0  0  0  0  0  0  0
   -2.8121    3.0888    0.6084 O   0  0  0  0  0  0  0  0  0  0  0  0
   -1.5186    0.2364    1.1675 O   0  0  0  0  0  0  0  0  0  0  0  0
  4  3  2  0
  5  2  2  0
  7  6  1  0
 11  8  1  0
 12  9  1  0
 13 10  1  0
 15  2  1  0
 15 14  1  0
 16  3  1  6
 17 14  1  1
 17 16  1  0
 18  4  1  0
 18 26  1  1
 19  5  1  0
 20 15  2  0
 21 19  2  0
 21 20  1  0
 22 18  1  0
 23  6  1  1
 23 16  1  0
 23 20  1  0
 23 22  1  0
 24  1  1  0
 24  7  1  0
 24 17  1  0
 25  8  1  0
 25  9  1  0
 25 10  1  0
 27 11  1  0
 27 12  1  0
 28 13  1  0
 28 19  1  0
 29 21  1  0
 22 29  1  6
M  END
>  <DRUGBANK_ID>  (1) 
DB09209

>  <COMMON_NAME>  (1) 
Pholcodine

>  <CAS_NUMBER>  (1) 
509-67-1

>  <UNII>  (1) 
LPP64AWZ7L

>  <SYNONYMS>  (1) 
folcodina; Pholcodine

$$$$
