
     RDKit          3D

 22 24  0  0  0  0  0  0  0  0999 V2000
   -0.6259    1.7898   -1.0298 C   0  0  0  0  0  0  0  0  0  0  0  0
   -1.5421    0.7046   -0.4856 C   0  0  0  0  0  0  0  0  0  0  0  0
   -1.3357   -0.6552   -0.7992 C   0  0  0  0  0  0  0  0  0  0  0  0
   -0.0429   -1.2469   -1.8855 S   0  0  0  0  0  0  0  0  0  0  0  0
    0.7183    1.6597   -1.1476 C   0  0  0  0  0  0  0  0  0  0  0  0
    1.3293   -0.7661   -0.8628 C   0  0  0  0  0  0  0  0  0  0  0  0
    1.5955    0.5789   -0.6121 C   0  0  0  0  0  0  0  0  0  0  0  0
   -2.1494   -1.6598   -0.2508 C   0  0  0  0  0  0  0  0  0  0  0  0
   -3.2292   -1.3436    0.5612 C   0  0  0  0  0  0  0  0  0  0  0  0
   -3.4738   -0.0127    0.8704 C   0  0  0  0  0  0  0  0  0  0  0  0
   -2.6366    1.0015    0.3732 C   0  0  0  0  0  0  0  0  0  0  0  0
    2.7180    0.8860    0.1930 C   0  0  0  0  0  0  0  0  0  0  0  0
    3.5131   -0.1085    0.7728 C   0  0  0  0  0  0  0  0  0  0  0  0
    3.2251   -1.4418    0.5112 C   0  0  0  0  0  0  0  0  0  0  0  0
    2.1346   -1.7609   -0.2956 C   0  0  0  0  0  0  0  0  0  0  0  0
   -4.8335    0.3637    1.8618 Cl  0  0  0  0  0  0  0  0  0  0  0  0
   -1.2777    3.0299   -1.1323 O   0  0  0  0  0  0  0  0  0  0  0  0
   -0.4900    4.2386   -1.1899 C   0  0  0  0  0  0  0  0  0  0  0  0
    0.2577    4.7089    0.1190 C   0  0  0  0  0  0  0  0  0  0  0  0
    1.1130    3.7276    0.8102 N   0  0  0  0  0  0  0  0  0  0  0  0
    2.1286    4.2816    1.6958 C   0  0  0  0  0  0  0  0  0  0  0  0
    0.3164    2.7901    1.6079 C   0  0  0  0  0  0  0  0  0  0  0  0
  1  5  2  0
  1  2  1  0
  1 17  1  0
  2  3  2  0
  2 11  1  0
  3  4  1  0
  3  8  1  0
  4  6  1  0
  5  7  1  0
  6  7  2  0
  6 15  1  0
  7 12  1  0
  8  9  2  0
  9 10  1  0
 10 11  2  0
 10 16  1  0
 12 13  2  0
 13 14  1  0
 14 15  2  0
 17 18  1  0
 18 19  1  0
 19 20  1  0
 20 21  1  0
 20 22  1  0
M  END
>  <DRUGBANK_ID>  (1) 
DB09225

>  <COMMON_NAME>  (1) 
Zotepine

>  <CAS_NUMBER>  (1) 
26615-21-4

>  <UNII>  (1) 
U29O83JAZW

>  <SYNONYMS>  (1) 
Zotepina; Zotepine

$$$$
