
     RDKit          3D

 23 26  0  0  0  0  0  0  0  0999 V2000
   -1.9820    2.8324   -1.1253 C   0  0  0  0  0  0  0  0  0  0  0  0
   -3.1133    3.2758   -0.1880 C   0  0  2  0  0  0  0  0  0  0  0  0
   -0.9847    4.2793   -0.9326 C   0  0  0  0  0  0  0  0  0  0  0  0
   -1.4448    1.5329   -1.1128 C   0  0  0  0  0  0  0  0  0  0  0  0
   -3.7681    2.1651    0.5044 C   0  0  0  0  0  0  0  0  0  0  0  0
   -1.8616    4.7812   -1.8931 C   0  0  0  0  0  0  0  0  0  0  0  0
   -0.8315    1.7666    0.1850 C   0  0  0  0  0  0  0  0  0  0  0  0
   -0.0434    0.5134   -1.3755 C   0  0  0  0  0  0  0  0  0  0  0  0
   -2.3557    1.3944    0.9391 C   0  0  0  0  0  0  0  0  0  0  0  0
    0.1382    2.5404   -0.5086 C   0  0  0  0  0  0  0  0  0  0  0  0
    1.4992    1.0986   -0.4162 C   0  0  0  0  0  0  0  0  0  0  0  0
    1.4851    2.6667   -0.2710 C   0  0  0  0  0  0  0  0  0  0  0  0
    1.9194    3.7033   -0.7796 O   0  0  0  0  0  0  0  0  0  0  0  0
   -2.5761    6.8668   -1.5734 C   0  0  0  0  0  0  0  0  0  0  0  0
   -2.7585    5.5222    1.3527 C   0  0  1  0  0  0  0  0  0  0  0  0
   -2.6043    5.5290   -0.6398 C   0  0  2  0  0  0  0  0  0  0  0  0
   -3.8004    4.5505   -0.7441 C   0  0  2  0  0  0  0  0  0  0  0  0
   -4.8571    5.2622    0.0472 C   0  0  0  0  0  0  0  0  0  0  0  0
   -4.1055    6.1512    0.9933 C   0  0  0  0  0  0  0  0  0  0  0  0
   -2.4764    4.1962    2.5900 C   0  0  0  0  0  0  0  0  0  0  0  0
   -3.5415    3.2848    3.2542 C   0  0  0  0  0  0  0  0  0  0  0  0
   -4.1350    2.5096    3.7942 N   0  0  0  0  0  0  0  0  0  0  0  0
   -2.7334    6.5901    2.4169 O   0  0  0  0  0  0  0  0  0  0  0  0
  1  2  1  0
  1  3  1  0
  1  4  2  0
  2  5  1  6
  2 17  1  0
  3  6  1  0
  4  7  1  0
  4  8  1  0
  5  9  1  0
  6 16  1  0
  7 10  2  0
  7  9  1  0
  8 11  1  0
 10 12  1  0
 11 12  1  0
 12 13  2  0
 15 16  1  0
 15 19  1  0
 15 23  1  1
 15 20  1  0
 16 17  1  0
 16 14  1  6
 17 18  1  1
 18 19  1  0
 20 21  1  0
 21 22  3  0
M  END
>  <DRUGBANK_ID>  (1) 
DB09123

>  <COMMON_NAME>  (1) 
Dienogest

>  <CAS_NUMBER>  (1) 
65928-58-7

>  <UNII>  (1) 
46M3EV8HHE

>  <SYNONYMS>  (1) 
17-alpha-Cyanomethyl-17-beta-hydroxy-estra-4,9(10)-dien-3-one; 17alpha-17-Hydroxy-3-oxo-19-norpregna-4,9-diene-21-nitrile; Dienogest; Dienogestril; Dienogestum; Endometrion

$$$$
