
     RDKit          3D

 33 37  0  0  1  0  0  0  0  0999 V2000
    1.0441   -0.2345    0.0625 C   0  0  0  0  0  0  0  0  0  0  0  0
    0.4053   -0.9406   -1.0779 N   0  0  0  0  0  0  0  0  0  0  0  0
   -1.0634   -1.1631   -0.8869 C   0  0  0  0  0  0  0  0  0  0  0  0
   -1.8583   -0.5453   -2.0593 C   0  0  1  0  0  0  0  0  0  0  0  0
   -3.0547    0.3449   -1.5198 C   0  0  0  0  0  0  0  0  0  0  0  0
   -2.4828    1.7469   -1.2328 C   0  0  2  0  0  0  0  0  0  0  0  0
   -1.0686    1.4092   -1.5343 C   0  0  0  0  0  0  0  0  0  0  0  0
   -0.8248    0.3946   -2.5839 C   0  0  1  0  0  0  0  0  0  0  0  0
    0.5594   -0.2108   -2.3488 C   0  0  0  0  0  0  0  0  0  0  0  0
   -2.2953    2.6287    0.0785 C   0  0  0  0  0  0  0  0  0  0  0  0
   -1.4403    3.9096   -0.0447 O   0  0  0  0  0  0  0  0  0  0  0  0
   -0.0847    3.9935   -0.3813 C   0  0  0  0  0  0  0  0  0  0  0  0
    0.7862    4.5256    0.5845 C   0  0  0  0  0  0  0  0  0  0  0  0
    2.1802    4.5736    0.3802 C   0  0  0  0  0  0  0  0  0  0  0  0
    2.7452    3.9732   -0.7349 C   0  0  0  0  0  0  0  0  0  0  0  0
    1.8829    3.4932   -1.7318 C   0  0  0  0  0  0  0  0  0  0  0  0
    0.5244    3.8138   -1.6455 C   0  0  0  0  0  0  0  0  0  0  0  0
   -0.0479    3.7703   -2.9183 O   0  0  0  0  0  0  0  0  0  0  0  0
   -1.4598    3.7781   -2.9776 C   0  0  0  0  0  0  0  0  0  0  0  0
    4.1341    3.9952   -0.9032 C   0  0  0  0  0  0  0  0  0  0  0  0
    4.8999    4.6632   -0.0094 N   0  0  0  0  0  0  0  0  0  0  0  0
    4.2699    5.2332    1.0175 C   0  0  0  0  0  0  0  0  0  0  0  0
    2.9586    5.2176    1.2797 N   0  0  0  0  0  0  0  0  0  0  0  0
    4.7697    3.4267   -2.0267 N   0  0  0  0  0  0  0  0  0  0  0  0
    6.1498    3.4313   -2.2657 C   0  0  0  0  0  0  0  0  0  0  0  0
    6.6692    4.1005   -3.3767 C   0  0  0  0  0  0  0  0  0  0  0  0
    8.0336    4.3837   -3.4225 C   0  0  0  0  0  0  0  0  0  0  0  0
    8.9100    3.7567   -2.5298 C   0  0  0  0  0  0  0  0  0  0  0  0
    8.4095    2.9471   -1.5088 C   0  0  0  0  0  0  0  0  0  0  0  0
    7.0334    2.8633   -1.3370 C   0  0  0  0  0  0  0  0  0  0  0  0
    6.5268    2.1959   -0.2859 F   0  0  0  0  0  0  0  0  0  0  0  0
    9.4293    2.0314   -0.4593 Cl  0  0  0  0  0  0  0  0  0  0  0  0
   10.6025    3.9830   -2.7833 Cl  0  0  0  0  0  0  0  0  0  0  0  0
  1  2  1  0
  2  3  1  0
  2  9  1  0
  4  3  1  1
  4  5  1  0
  4  8  1  0
  5  6  1  0
  6  7  1  0
  6 10  1  1
  8  7  1  1
  8  9  1  0
 10 11  1  0
 11 12  1  0
 12 13  2  0
 12 17  1  0
 13 14  1  0
 14 15  2  0
 14 23  1  0
 15 16  1  0
 15 20  1  0
 16 17  2  0
 17 18  1  0
 18 19  1  0
 20 21  2  0
 20 24  1  0
 21 22  1  0
 22 23  2  0
 24 25  1  0
 25 26  2  0
 25 30  1  0
 26 27  1  0
 27 28  2  0
 28 29  1  0
 28 33  1  0
 29 30  2  0
 29 32  1  0
 30 31  1  0
M  END
>  <DRUGBANK_ID>  (1) 
DB11973

>  <SECONDARY_ACCESSION_NUMBERS>  (1) 
DB05007

>  <COMMON_NAME>  (1) 
Tesevatinib

>  <CAS_NUMBER>  (1) 
781613-23-8

>  <UNII>  (1) 
F6XM2TN5A1

>  <SYNONYMS>  (1) 
Tesevatinib

$$$$
