
     RDKit          3D

 17 17  0  0  0  0  0  0  0  0999 V2000
   -0.2771    1.2106   -0.0174 N   0  0  0  0  0  0  0  0  0  0  0  0
   -0.2092   -1.1873   -0.0265 N   0  0  0  0  0  0  0  0  0  0  0  0
   -2.2133   -0.0538    0.0047 N   0  0  0  0  0  0  0  0  0  0  0  0
   -1.5205   -1.1766   -0.0123 C   0  0  0  0  0  0  0  0  0  0  0  0
   -1.5888    1.1114   -0.0003 C   0  0  0  0  0  0  0  0  0  0  0  0
   -2.3323    2.2666    0.0066 N   0  0  0  0  0  0  0  0  0  0  0  0
   -4.2229    3.1268    1.3425 C   0  0  0  0  0  0  0  0  0  0  0  0
   -3.7464    4.5774    1.3613 C   0  0  0  0  0  0  0  0  0  0  0  0
   -4.3299    3.0603   -1.1733 C   0  0  0  0  0  0  0  0  0  0  0  0
    0.3285    0.0240   -0.0239 C   0  0  0  0  0  0  0  0  0  0  0  0
    2.0386    0.0425    0.0011 Cl  0  0  0  0  0  0  0  0  0  0  0  0
   -2.2452   -2.3392   -0.0060 N   0  0  0  0  0  0  0  0  0  0  0  0
   -1.6226   -3.6364   -0.0813 C   0  0  0  0  0  0  0  0  0  0  0  0
   -1.9939   -4.4742    1.1296 C   0  0  0  0  0  0  0  0  0  0  0  0
   -3.8074    2.3259    0.0771 C   0  0  1  0  0  0  0  0  0  0  0  0
   -4.5128    1.0018    0.1317 C   0  0  0  0  0  0  0  0  0  0  0  0
   -5.0485   -0.0365    0.1630 N   0  0  0  0  0  0  0  0  0  0  0  0
  1  5  2  0
  1 10  1  0
  2 10  2  0
  3  4  2  0
  4  2  1  0
  4 12  1  0
  5  3  1  0
  5  6  1  0
  7  8  1  0
 10 11  1  0
 12 13  1  0
 13 14  1  0
 15  6  1  0
 15  7  1  0
 15  9  1  6
 15 16  1  0
 16 17  3  0
M  END
>  <DRUGBANK_ID>  (1) 
DB07552

>  <COMMON_NAME>  (1) 
(2R)-2-{[4-chloro-6-(ethylamino)-1,3,5-triazin-2-yl]amino}-2-methylbutanenitrile

$$$$
