
     RDKit          3D

 19 20  0  0  0  0  0  0  0  0999 V2000
   -2.4428   -0.7588   -0.0508 C   0  0  0  0  0  0  0  0  0  0  0  0
   -2.4589    0.6284   -0.1455 C   0  0  0  0  0  0  0  0  0  0  0  0
   -1.2952    1.3440    0.0785 C   0  0  0  0  0  0  0  0  0  0  0  0
   -0.0675    0.6672    0.1094 C   0  0  0  0  0  0  0  0  0  0  0  0
   -0.0281   -0.7499    0.0963 C   0  0  0  0  0  0  0  0  0  0  0  0
   -1.2418   -1.4426    0.1210 C   0  0  0  0  0  0  0  0  0  0  0  0
    1.2051   -1.4203    0.0235 C   0  0  0  0  0  0  0  0  0  0  0  0
    2.3539   -0.6459   -0.0385 C   0  0  0  0  0  0  0  0  0  0  0  0
    2.3231    0.7000   -0.0026 N   0  0  0  0  0  0  0  0  0  0  0  0
    1.1478    1.3265    0.0842 C   0  0  0  0  0  0  0  0  0  0  0  0
    1.3269    3.0409    0.0594 Cl  0  0  0  0  0  0  0  0  0  0  0  0
    3.7049   -1.2732   -0.1603 C   0  0  0  0  0  0  0  0  0  0  0  0
    3.7905   -2.5038   -0.2069 O   0  0  0  0  0  0  0  0  0  0  0  0
    4.8506   -0.5170   -0.2397 N   0  0  0  0  0  0  0  0  0  0  0  0
    5.0419    0.9346   -0.2012 C   0  0  0  0  0  0  0  0  0  0  0  0
    5.7807    1.4115    1.0258 C   0  0  0  0  0  0  0  0  0  0  0  0
    6.6726    2.2564    1.0285 O   0  0  0  0  0  0  0  0  0  0  0  0
    5.2774    0.9459    2.1862 O   0  0  0  0  0  0  0  0  0  0  0  0
    1.2154   -2.7924   -0.0309 O   0  0  0  0  0  0  0  0  0  0  0  0
  1  2  2  0
  1  6  1  0
  2  3  1  0
  3  4  2  0
  4  5  1  0
  4 10  1  0
  5  6  2  0
  5  7  1  0
  7  8  2  0
  7 19  1  0
  8  9  1  0
  8 12  1  0
  9 10  2  0
 10 11  1  0
 12 13  2  0
 12 14  1  0
 14 15  1  0
 15 16  1  0
 16 17  2  0
 16 18  1  0
M  END
>  <DRUGBANK_ID>  (1) 
DB08687

>  <SECONDARY_ACCESSION_NUMBERS>  (1) 
DB05577

>  <COMMON_NAME>  (1) 
FG-2216

>  <CAS_NUMBER>  (1) 
223387-75-5

>  <UNII>  (1) 
RU921DS4Z5

>  <SYNONYMS>  (1) 
(((1-Chloro-4-hydroxyisoquinolin-3-yl)carbonyl)amino)acetic acid; 1-Chloro-N- (hydroxyformylmethyl-4-hydroxyisoquinoline-3-carboxamide; 1-Chloro-N-(hydroxyformylmethyl-4-hydroxyisoquinoline-3-carboxamide

$$$$
