
     RDKit          3D

 30 34  0  0  0  0  0  0  0  0999 V2000
    1.1219   -1.9099    0.0267 C   0  0  2  0  0  0  0  0  0  0  0  0
   -0.1458   -1.1502   -0.0351 C   0  0  0  0  0  0  0  0  0  0  0  0
    2.4841   -1.8162    0.6253 C   0  0  2  0  0  0  0  0  0  0  0  0
    1.1938   -3.0926   -1.0045 C   0  0  0  0  0  0  0  0  0  0  0  0
   -0.0243    0.1931   -0.0544 C   0  0  0  0  0  0  0  0  0  0  0  0
   -1.4331   -1.6546    0.1921 C   0  0  0  0  0  0  0  0  0  0  0  0
    2.1632   -3.4031    1.3348 N   0  0  0  0  0  0  0  0  0  0  0  0
    2.4938    0.0249    0.6549 C   0  0  0  0  0  0  0  0  0  0  0  0
    0.2749   -4.0689   -0.3433 C   0  0  2  0  0  0  0  0  0  0  0  0
    1.1678    0.8797    0.1775 C   0  0  0  0  0  0  0  0  0  0  0  0
   -1.1465    0.9888   -0.1067 C   0  0  0  0  0  0  0  0  0  0  0  0
   -2.5509   -0.8967    0.0007 C   0  0  0  0  0  0  0  0  0  0  0  0
    0.7047   -4.0187    1.1479 C   0  0  0  0  0  0  0  0  0  0  0  0
    2.7260   -4.2624    2.3801 C   0  0  0  0  0  0  0  0  0  0  0  0
    0.7515    2.2139    0.0401 C   0  0  0  0  0  0  0  0  0  0  0  0
   -0.6501    2.2588   -0.0942 N   0  0  0  0  0  0  0  0  0  0  0  0
   -2.4416    0.4629   -0.1427 C   0  0  0  0  0  0  0  0  0  0  0  0
   -0.5674   -5.2621   -0.7780 C   0  0  0  0  0  0  0  0  0  0  0  0
   -2.0146   -4.8994   -0.6931 N   0  0  0  0  0  0  0  0  0  0  0  0
   -2.7698   -4.6420   -1.8278 C   0  0  0  0  0  0  0  0  0  0  0  0
   -4.0253   -4.1175   -1.6420 O   0  0  0  0  0  0  0  0  0  0  0  0
   -4.6877   -3.8392   -0.3993 C   0  0  0  0  0  0  0  0  0  0  0  0
   -2.3680   -4.8656   -2.9397 O   0  0  0  0  0  0  0  0  0  0  0  0
   -4.7255   -4.9830    0.5576 C   0  0  0  0  0  0  0  0  0  0  0  0
   -4.8798   -6.2811    0.0736 C   0  0  0  0  0  0  0  0  0  0  0  0
   -4.8357   -7.3469    0.9547 C   0  0  0  0  0  0  0  0  0  0  0  0
   -4.8436   -7.1044    2.3266 C   0  0  0  0  0  0  0  0  0  0  0  0
   -4.7894   -5.8006    2.8154 C   0  0  0  0  0  0  0  0  0  0  0  0
   -4.5975   -4.7500    1.9323 C   0  0  0  0  0  0  0  0  0  0  0  0
   -1.5395    3.4043   -0.1202 C   0  0  0  0  0  0  0  0  0  0  0  0
  1  2  1  0
  1  3  1  0
  1  4  1  6
  2  5  2  0
  2  6  1  0
  3  7  1  0
  3  8  1  1
  4  9  1  0
  5 10  1  0
  5 11  1  0
  6 12  2  0
  7 13  1  0
  7 14  1  0
  8 10  1  0
  9 13  1  0
  9 18  1  6
 10 15  2  0
 11 16  1  0
 11 17  2  0
 12 17  1  0
 15 16  1  0
 16 30  1  0
 18 19  1  0
 19 20  1  0
 20 21  1  0
 20 23  2  0
 21 22  1  0
 22 24  1  0
 24 25  2  0
 24 29  1  0
 25 26  1  0
 26 27  2  0
 27 28  1  0
 28 29  2  0
M  END
>  <DRUGBANK_ID>  (1) 
DB13520

>  <COMMON_NAME>  (1) 
Metergoline

>  <CAS_NUMBER>  (1) 
17692-51-2

>  <UNII>  (1) 
1501393LY5

>  <SYNONYMS>  (1) 
Metergolina; Metergoline; Metergolinum

$$$$
