
     RDKit          3D

 25 27  0  0  0  0  0  0  0  0999 V2000
   -1.2018    0.3693   -0.3045 O   0  0  0  0  0  0  0  0  0  0  0  0
    0.0528    0.9258   -0.1267 N   0  0  0  0  0  0  0  0  0  0  0  0
    0.8784   -0.1209   -0.0283 C   0  0  0  0  0  0  0  0  0  0  0  0
    0.1870   -1.3413   -0.0324 C   0  0  0  0  0  0  0  0  0  0  0  0
   -1.1150   -0.9884   -0.2037 C   0  0  0  0  0  0  0  0  0  0  0  0
    2.3348    0.0532    0.0156 C   0  0  0  0  0  0  0  0  0  0  0  0
   -2.3454   -1.8028   -0.2363 C   0  0  0  0  0  0  0  0  0  0  0  0
   -3.1755   -1.5148    0.9710 C   0  0  0  0  0  0  0  0  0  0  0  0
   -3.6098   -0.0774    0.8978 C   0  0  0  0  0  0  0  0  0  0  0  0
   -4.6281    0.3682   -0.1324 C   0  0  0  0  0  0  0  0  0  0  0  0
   -5.9619   -0.3299    0.1545 C   0  0  0  0  0  0  0  0  0  0  0  0
   -6.6854    0.1987    1.3244 O   0  0  0  0  0  0  0  0  0  0  0  0
   -6.2296   -0.0371    2.6107 C   0  0  0  0  0  0  0  0  0  0  0  0
   -6.8374   -0.9852    3.4382 C   0  0  0  0  0  0  0  0  0  0  0  0
   -6.2788   -1.3136    4.6900 C   0  0  0  0  0  0  0  0  0  0  0  0
   -5.0317   -0.8049    5.0573 C   0  0  0  0  0  0  0  0  0  0  0  0
   -4.4558    0.1767    4.2716 C   0  0  0  0  0  0  0  0  0  0  0  0
   -5.2115    0.7245    3.2266 C   0  0  0  0  0  0  0  0  0  0  0  0
   -3.9513   -0.1064    7.0311 O   0  0  0  0  0  0  0  0  0  0  0  0
   -4.4121   -1.1634    6.3280 C   0  0  0  0  0  0  0  0  0  0  0  0
   -4.3383   -2.3642    6.8409 N   0  0  0  0  0  0  0  0  0  0  0  0
   -3.8117   -2.1080    8.1872 C   0  0  0  0  0  0  0  0  0  0  0  0
   -3.3453   -0.6679    8.1862 C   0  0  0  0  0  0  0  0  0  0  0  0
   -4.6826    2.2707    2.6378 Cl  0  0  0  0  0  0  0  0  0  0  0  0
   -8.3627   -1.6768    3.0271 Cl  0  0  0  0  0  0  0  0  0  0  0  0
  1  2  1  0
  1  5  1  0
  2  3  2  0
  3  4  1  0
  3  6  1  0
  4  5  2  0
  5  7  1  0
  7  8  1  0
  8  9  1  0
  9 10  1  0
 10 11  1  0
 11 12  1  0
 12 13  1  0
 13 14  2  0
 13 18  1  0
 14 15  1  0
 14 25  1  0
 15 16  2  0
 16 17  1  0
 16 20  1  0
 17 18  2  0
 18 24  1  0
 19 20  1  0
 19 23  1  0
 20 21  2  0
 21 22  1  0
 22 23  1  0
M  END
>  <DRUGBANK_ID>  (1) 
DB08723

>  <COMMON_NAME>  (1) 
WIN-54954

>  <CAS_NUMBER>  (1) 
107355-45-3

>  <UNII>  (1) 
IY9RJD7JGI

$$$$
