
     RDKit          3D

 33 35  0  0  0  0  0  0  0  0999 V2000
   -0.8179   -0.8460    1.0169 C   0  0  0  0  0  0  0  0  0  0  0  0
   -0.7572    0.8415    0.9978 C   0  0  0  0  0  0  0  0  0  0  0  0
    0.8086   -1.8309    0.9349 C   0  0  0  0  0  0  0  0  0  0  0  0
   -2.1144   -1.2885    0.8278 N   0  0  0  0  0  0  0  0  0  0  0  0
    0.8826    1.8050    0.7235 N   0  0  0  0  0  0  0  0  0  0  0  0
   -2.1808    1.0235    0.8273 N   0  0  0  0  0  0  0  0  0  0  0  0
    2.3907   -0.9097    0.4803 N   0  0  0  0  0  0  0  0  0  0  0  0
    0.6436   -3.0408    1.2381 O   0  0  0  0  0  0  0  0  0  0  0  0
   -2.8424   -0.1990    0.7313 C   0  0  0  0  0  0  0  0  0  0  0  0
    2.5764    0.9077    0.2140 C   0  0  0  0  0  0  0  0  0  0  0  0
    0.9934    3.2101    0.2119 C   0  0  0  0  0  0  0  0  0  0  0  0
    3.6605   -1.5557    0.1548 C   0  0  0  0  0  0  0  0  0  0  0  0
   -4.4704   -0.1287    0.1310 Cl  0  0  0  0  0  0  0  0  0  0  0  0
    3.5772    1.5407   -0.1013 O   0  0  0  0  0  0  0  0  0  0  0  0
    0.7468    0.0658    0.0956 C   0  0  0  0  0  0  0  0  0  0  0  0
    0.5391   -0.8653   -1.0163 C   0  0  0  0  0  0  0  0  0  0  0  0
    0.9271   -0.0990    2.1436 C   0  0  0  0  0  0  0  0  0  0  0  0
    0.6029    1.2365   -1.0911 O   0  0  0  0  0  0  0  0  0  0  0  0
    0.3222   -0.3127   -2.8137 C   0  0  0  0  0  0  0  0  0  0  0  0
    0.6262   -2.7556   -0.8518 C   0  0  0  0  0  0  0  0  0  0  0  0
    0.4405    0.9440    2.9337 C   0  0  0  0  0  0  0  0  0  0  0  0
    1.0714   -1.3991    2.9543 C   0  0  0  0  0  0  0  0  0  0  0  0
   -0.8155    1.5939   -1.1819 C   0  0  0  0  0  0  0  0  0  0  0  0
    0.0922   -1.7789   -3.8834 C   0  0  0  0  0  0  0  0  0  0  0  0
    0.6134   -3.8758   -1.8360 C   0  0  0  0  0  0  0  0  0  0  0  0
   -0.2860    0.5583    4.0169 C   0  0  0  0  0  0  0  0  0  0  0  0
    0.0718   -1.8373    3.7505 C   0  0  0  0  0  0  0  0  0  0  0  0
   -1.5694    0.0659   -1.7423 C   0  0  0  0  0  0  0  0  0  0  0  0
    0.2895   -3.4415   -3.2565 C   0  0  0  0  0  0  0  0  0  0  0  0
   -0.4519   -0.7882    4.4090 C   0  0  0  0  0  0  0  0  0  0  0  0
   -0.6971   -1.6135   -1.9905 N   0  0  0  0  0  0  0  0  0  0  0  0
   -1.8411   -2.5842   -1.9106 C   0  0  0  0  0  0  0  0  0  0  0  0
    1.3480   -1.7517   -2.3297 C   0  0  0  0  0  0  0  0  0  0  0  0
  1  2  2  0
  1  3  1  0
  1  4  1  0
  2  5  1  0
  2  6  1  0
  3  7  1  0
  3  8  2  0
  4  9  2  0
  5 10  1  0
  5 11  1  0
  6  9  1  0
  7 12  1  0
  7 10  1  0
  9 13  1  0
 10 14  2  0
 15 16  1  0
 15 17  1  0
 15 18  1  0
 16 19  2  0
 16 20  1  0
 17 21  2  0
 17 22  1  0
 18 23  1  0
 19 24  1  0
 20 25  2  0
 21 26  1  0
 22 27  2  0
 23 28  1  0
 24 29  2  0
 25 29  1  0
 26 30  2  0
 27 30  1  0
 28 31  1  0
 31 32  1  0
 31 33  1  0
M  END
>  <DRUGBANK_ID>  (1) 
DB00985

>  <SECONDARY_ACCESSION_NUMBERS>  (1) 
APRD00924

>  <COMMON_NAME>  (1) 
Dimenhydrinate

>  <CAS_NUMBER>  (1) 
523-87-5

>  <UNII>  (1) 
JB937PER5C

>  <SYNONYMS>  (1) 
(O-benzhydryl(dimethylamino)ethanol) 8-chlorotheophyllinate; 8-chloro-1,3-dimethyl-3,7-dihydro-1H-purine-2,6-dione - 2-(diphenylmethoxy)-N,N-dimethylethanamine (1:1); Benzhydryl-β-dimethylaminoethylether 8-chlorotheophylline; Dimenhidrinato; Dimenhydrinate; Dimenhydrinatum; diphenhydramine 8-chlorotheophyllinate; diphenhydramine 8-chlorotheophylline; Diphenhydramine theoclate; N,N-dimethyl-2-diphenylmethoxyethylamine 8-chlorotheophyllinate; O-benzhydryldimethylaminoethanol 8-chlorotheophyllinate; β-dimethylaminoethyl benzhydryl ether 1,3-dimethyl-8-chloroxanthine

$$$$
