PTG
     RDKit          3D

 23 23  0  0  0  0  0  0  0  0999 V2000
    1.0731    0.0518    0.0383 C   0  0  0  0  0  0  0  0  0  0  0  0
    0.6048    1.4487   -0.3326 C   0  0  0  0  0  0  0  0  0  0  0  0
    1.0724    1.8319   -1.7357 C   0  0  0  0  0  0  0  0  0  0  0  0
    0.5099    0.8997   -2.8226 C   0  0  0  0  0  0  0  0  0  0  0  0
   -1.0287    0.8180   -2.8413 C   0  0  0  0  0  0  0  0  0  0  0  0
   -1.6503    2.1447   -3.1447 C   0  0  0  0  0  0  0  0  0  0  0  0
   -2.2954    2.4203   -4.2893 C   0  0  0  0  0  0  0  0  0  0  0  0
   -2.6293    3.7717   -4.6801 C   0  0  0  0  0  0  0  0  0  0  0  0
   -1.7944    4.8259   -4.5895 C   0  0  0  0  0  0  0  0  0  0  0  0
   -0.3570    4.7500   -4.1921 C   0  0  0  0  0  0  0  0  0  0  0  0
    0.3909    3.7856   -4.2302 O   0  0  0  0  0  0  0  0  0  0  0  0
    0.1048    6.0779   -3.7966 C   0  0  0  0  0  0  0  0  0  0  0  0
   -0.8650    6.9477   -4.0887 C   0  0  0  0  0  0  0  0  0  0  0  0
   -2.1231    6.3052   -4.6297 C   0  0  2  0  0  0  0  0  0  0  0  0
   -3.3562    6.7526   -3.8018 C   0  0  0  0  0  0  0  0  0  0  0  0
   -3.7187    5.8148   -2.6905 C   0  0  0  0  0  0  0  0  0  0  0  0
   -3.6996    6.1054   -1.3924 C   0  0  0  0  0  0  0  0  0  0  0  0
   -3.9170    5.0344   -0.3632 C   0  0  0  0  0  0  0  0  0  0  0  0
   -2.7630    5.0014    0.6390 C   0  0  0  0  0  0  0  0  0  0  0  0
   -2.5326    6.3421    1.3400 C   0  0  0  0  0  0  0  0  0  0  0  0
   -3.7199    6.7919    2.1557 C   0  0  0  0  0  0  0  0  0  0  0  0
   -3.7387    6.9315    3.3669 O   0  0  0  0  0  0  0  0  0  0  0  0
   -4.8181    7.0527    1.4214 O   0  0  0  0  0  0  0  0  0  0  0  0
  1  2  1  0
  2  3  1  0
  3  4  1  0
  4  5  1  0
  5  6  1  0
  6  7  2  0
  7  8  1  0
  8  9  2  0
  9 10  1  0
  9 14  1  0
 10 11  2  0
 12 13  2  0
 12 10  1  0
 13 14  1  0
 14 15  1  1
 15 16  1  0
 16 17  2  0
 17 18  1  0
 18 19  1  0
 19 20  1  0
 20 21  1  0
 21 22  2  0
 21 23  1  0
M  END
>  <DRUGBANK_ID>  (1) 
DB08435

>  <COMMON_NAME>  (1) 
(5E,14E)-11-oxoprosta-5,9,12,14-tetraen-1-oic acid

$$$$
