
     RDKit          3D

 15 16  0  0  0  0  0  0  0  0999 V2000
    1.3700   -0.2098    0.0189 C   0  0  0  0  0  0  0  0  0  0  0  0
    0.4850   -1.2839    0.0271 C   0  0  0  0  0  0  0  0  0  0  0  0
    0.8778    1.0936    0.0105 C   0  0  0  0  0  0  0  0  0  0  0  0
   -0.8929   -1.0508    0.0056 C   0  0  0  0  0  0  0  0  0  0  0  0
   -0.5002    1.3256    0.0337 C   0  0  0  0  0  0  0  0  0  0  0  0
   -3.7930   -0.0462    0.7028 C   0  0  0  0  0  0  0  0  0  0  0  0
   -3.3198    1.1662   -1.3311 C   0  0  0  0  0  0  0  0  0  0  0  0
   -5.1625    0.0192    0.4240 C   0  0  0  0  0  0  0  0  0  0  0  0
   -4.6831    1.2103   -1.6379 C   0  0  0  0  0  0  0  0  0  0  0  0
   -1.4082    0.2591   -0.0105 C   0  0  0  0  0  0  0  0  0  0  0  0
   -2.8506    0.4888   -0.1889 C   0  0  0  0  0  0  0  0  0  0  0  0
   -5.6015    0.6340   -0.7545 C   0  0  0  0  0  0  0  0  0  0  0  0
   -7.0372    0.7031   -1.0521 N   0  0  0  0  0  0  0  0  0  0  0  0
   -7.3854    1.2565   -2.1017 O   0  0  0  0  0  0  0  0  0  0  0  0
   -7.8199    0.2071   -0.2246 O   0  0  0  0  0  0  0  0  0  0  0  0
  2  1  2  0
  3  1  1  0
  4  2  1  0
  5  3  2  0
  8  6  2  0
  9  7  1  0
 10  4  2  0
 10  5  1  0
 11  6  1  0
 11  7  2  0
 11 10  1  0
 12  8  1  0
 12  9  2  0
 13 12  1  0
 14 13  1  0
 15 13  2  0
M  CHG  2  13   1  14  -1
M  END
>  <DRUGBANK_ID>  (1) 
DB12300

>  <COMMON_NAME>  (1) 
P-nitrobiphenyl

>  <CAS_NUMBER>  (1) 
92-93-3

>  <UNII>  (1) 
QM80NUW6WZ

>  <SYNONYMS>  (1) 
PNB

$$$$
