843
     RDKit          3D

 28 31  0  0  1  0  0  0  0  0999 V2000
   -1.2772   -1.2764   -1.1237 O   0  0  0  0  0  0  0  0  0  0  0  0
    4.1364    0.3931    0.0682 O   0  0  0  0  0  0  0  0  0  0  0  0
    3.0938   -2.3688    0.0269 O   0  0  0  0  0  0  0  0  0  0  0  0
   -4.1898   -0.9772    1.6384 N   0  0  0  0  0  0  0  0  0  0  0  0
   -4.2442    0.4809   -1.1093 C   0  0  0  0  0  0  0  0  0  0  0  0
   -3.0051    1.5161   -1.2018 C   0  0  0  0  0  0  0  0  0  0  0  0
   -1.7750    1.1846   -0.3154 C   0  0  0  0  0  0  0  0  0  0  0  0
   -5.4060    0.4262   -0.1063 C   0  0  0  0  0  0  0  0  0  0  0  0
   -3.6524   -0.8947   -0.8989 C   0  0  0  0  0  0  0  0  0  0  0  0
   -4.9651    0.2354    1.3370 C   0  0  0  0  0  0  0  0  0  0  0  0
   -3.1713   -1.1148    0.6171 C   0  0  0  0  0  0  0  0  0  0  0  0
   -0.5216    2.0767   -0.1748 C   0  0  0  0  0  0  0  0  0  0  0  0
   -1.0460   -0.1865   -0.5746 C   0  0  0  0  0  0  0  0  0  0  0  0
    0.6165    1.0926    0.0050 C   0  0  0  0  0  0  0  0  0  0  0  0
    0.2189   -0.2152   -0.0176 C   0  0  0  0  0  0  0  0  0  0  0  0
   -3.4982   -0.9581    2.9863 C   0  0  0  0  0  0  0  0  0  0  0  0
    1.9677    1.2343    0.0733 C   0  0  0  0  0  0  0  0  0  0  0  0
    0.9402   -1.4000    0.0657 C   0  0  0  0  0  0  0  0  0  0  0  0
   -2.7404    0.3114    3.4053 C   0  0  0  0  0  0  0  0  0  0  0  0
    2.8039    0.0647    0.0852 C   0  0  0  0  0  0  0  0  0  0  0  0
    2.2861   -1.2683    0.0807 C   0  0  0  0  0  0  0  0  0  0  0  0
   -3.4403    1.5228    3.5148 C   0  0  0  0  0  0  0  0  0  0  0  0
   -1.3773    0.3295    3.7434 C   0  0  0  0  0  0  0  0  0  0  0  0
   -2.8205    2.7261    3.8112 C   0  0  0  0  0  0  0  0  0  0  0  0
   -0.7922    1.5118    4.2299 C   0  0  0  0  0  0  0  0  0  0  0  0
   -1.5015    2.7145    4.2215 C   0  0  0  0  0  0  0  0  0  0  0  0
    5.0200   -0.7153    0.0724 C   0  0  0  0  0  0  0  0  0  0  0  0
    2.5181   -3.6735   -0.0180 C   0  0  0  0  0  0  0  0  0  0  0  0
  1 13  2  0
  2 20  1  0
  2 27  1  0
  3 21  1  0
  3 28  1  0
  4 10  1  0
  4 11  1  0
  4 16  1  0
  5  6  1  0
  5  8  1  0
  5  9  1  0
  6  7  1  0
  7 12  1  0
  7 13  1  0
  8 10  1  0
  9 11  1  0
 12 14  1  0
 13 15  1  0
 14 15  2  0
 14 17  1  0
 15 18  1  0
 16 19  1  0
 17 20  2  0
 18 21  2  0
 19 22  2  0
 19 23  1  0
 20 21  1  0
 22 24  1  0
 23 25  2  0
 24 26  2  0
 25 26  1  0
M  END
>  <DRUGBANK_ID>  (1) 
DB00843

>  <SECONDARY_ACCESSION_NUMBERS>  (1) 
APRD00039

>  <COMMON_NAME>  (1) 
Donepezil

>  <CAS_NUMBER>  (1) 
120014-06-4

>  <UNII>  (1) 
8SSC91326P

>  <SYNONYMS>  (1) 
Domepezil; Donepezil; Donepezilo; Donepezilum

$$$$
