2S3
     RDKit          3D

 16 17  0  0  0  0  0  0  0  0999 V2000
    0.8998    0.1704    0.2156 O   0  0  0  0  0  0  0  0  0  0  0  0
    0.2324    1.1306   -0.4511 C   0  0  0  0  0  0  0  0  0  0  0  0
    0.8706    1.9671   -1.1005 O   0  0  0  0  0  0  0  0  0  0  0  0
   -1.2931    1.0072   -0.4118 C   0  0  1  0  0  0  0  0  0  0  0  0
   -1.7350   -0.2486   -1.2131 C   0  0  0  0  0  0  0  0  0  0  0  0
   -1.1751   -1.6284   -0.7737 C   0  0  0  0  0  0  0  0  0  0  0  0
   -1.4969   -1.9733    0.6510 C   0  0  0  0  0  0  0  0  0  0  0  0
   -1.8800    1.1722    1.0010 C   0  0  0  0  0  0  0  0  0  0  0  0
   -2.0144    2.3906    1.7495 C   0  0  0  0  0  0  0  0  0  0  0  0
   -1.8627    3.7459    1.4368 C   0  0  0  0  0  0  0  0  0  0  0  0
   -2.2680    4.6839    2.3951 C   0  0  0  0  0  0  0  0  0  0  0  0
   -2.7500    4.2981    3.6518 C   0  0  0  0  0  0  0  0  0  0  0  0
   -2.8308    2.9649    4.0140 C   0  0  0  0  0  0  0  0  0  0  0  0
   -2.4699    2.0631    3.0325 C   0  0  0  0  0  0  0  0  0  0  0  0
   -2.5303    0.7131    3.0928 N   0  0  0  0  0  0  0  0  0  0  0  0
   -2.5989    0.2980    1.8004 C   0  0  0  0  0  0  0  0  0  0  0  0
  1  2  1  0
  2  3  2  0
  2  4  1  0
  4  5  1  1
  4  8  1  0
  5  6  1  0
  6  7  1  0
  8  9  1  0
  8 16  2  0
  9 10  2  0
  9 14  1  0
 10 11  1  0
 11 12  2  0
 12 13  1  0
 13 14  2  0
 14 15  1  0
 15 16  1  0
M  END
>  <DRUGBANK_ID>  (1) 
DB06981

>  <COMMON_NAME>  (1) 
(2S)-2-(1H-indol-3-yl)pentanoic acid

$$$$
