
     RDKit          3D

  8  8  0  0  0  0  0  0  0  0999 V2000
   -0.0119    1.8059    0.0018 C   0  0  0  0  0  0  0  0  0  0  0  0
    1.2041    1.1173   -0.0115 C   0  0  0  0  0  0  0  0  0  0  0  0
    1.2019   -0.2753   -0.0104 C   0  0  0  0  0  0  0  0  0  0  0  0
    0.0068   -0.9856   -0.0072 C   0  0  0  0  0  0  0  0  0  0  0  0
   -1.2184    1.1011    0.0137 C   0  0  0  0  0  0  0  0  0  0  0  0
    2.3643   -0.9894   -0.0108 O   0  0  0  0  0  0  0  0  0  0  0  0
   -1.1975   -0.2911    0.0043 C   0  0  0  0  0  0  0  0  0  0  0  0
   -2.3514   -1.0188    0.0063 O   0  0  0  0  0  0  0  0  0  0  0  0
  2  1  2  0
  2  3  1  0
  3  4  2  0
  4  7  1  0
  5  1  1  0
  6  3  1  0
  7  5  2  0
  7  8  1  0
M  END
>  <DRUGBANK_ID>  (1) 
DB11085

>  <COMMON_NAME>  (1) 
Resorcinol

>  <CAS_NUMBER>  (1) 
108-46-3

>  <UNII>  (1) 
YUL4LO94HK

>  <SYNONYMS>  (1) 
1,3-Benzenediol; 1,3-Dihydroxybenzene; 1,3-Dihydroxybenzol; m-Hydroquinone; m-hydroxyphenol; Resorcinol; Resorzin

$$$$
