
     RDKit          3D

 12 12  0  0  0  0  0  0  0  0999 V2000
   -0.9891   -1.7498   -0.6028 C   0  0  0  0  0  0  0  0  0  0  0  0
    0.1526   -0.7635   -1.0537 C   0  0  2  0  0  0  0  0  0  0  0  0
   -1.0889   -2.3708    0.4565 O   0  0  0  0  0  0  0  0  0  0  0  0
    1.0420   -0.1668    0.0717 C   0  0  0  0  0  0  0  0  0  0  0  0
   -1.9745   -2.0179   -1.4984 N   0  0  0  0  0  0  0  0  0  0  0  0
   -0.4946    0.3509   -1.7929 N   0  0  0  0  0  0  0  0  0  0  0  0
    1.5090   -1.1337    1.1380 C   0  0  0  0  0  0  0  0  0  0  0  0
    1.8063   -0.6604    2.4201 C   0  0  0  0  0  0  0  0  0  0  0  0
    1.4605   -2.5158    0.9316 C   0  0  0  0  0  0  0  0  0  0  0  0
    1.3232   -3.3702    2.0183 C   0  0  0  0  0  0  0  0  0  0  0  0
    1.8706   -1.5533    3.4918 C   0  0  0  0  0  0  0  0  0  0  0  0
    1.5680   -2.9002    3.2986 C   0  0  0  0  0  0  0  0  0  0  0  0
  2  6  1  1
  2  4  1  0
  2  1  1  0
  3  1  2  0
  5  1  1  0
  7  4  1  0
  8  7  2  0
  9  7  1  0
 10  9  2  0
 11  8  1  0
 11 12  2  0
 12 10  1  0
M  END
>  <DRUGBANK_ID>  (1) 
DB04029

>  <SECONDARY_ACCESSION_NUMBERS>  (1) 
EXPT02329

>  <COMMON_NAME>  (1) 
Phenylalanylamide

>  <CAS_NUMBER>  (1) 
5241-58-7

>  <UNII>  (1) 
PV9T9B2S11

>  <SYNONYMS>  (1) 
(S)-2-amino-3-phenylpropanamide; L-phenylalanine amide; Phenylalaninamide; Phenylalanine amide

$$$$
