
     RDKit          3D

 29 31  0  0  1  0  0  0  0  0999 V2000
   11.6365    7.1537    4.4560 C   0  0  0  0  0  0  0  0  0  0  0  0
    9.6885   10.0272   -1.1471 C   0  0  0  0  0  0  0  0  0  0  0  0
   11.1847    8.4817   -2.4572 C   0  0  0  0  0  0  0  0  0  0  0  0
    5.9303    4.2218   -2.1341 C   0  0  0  0  0  0  0  0  0  0  0  0
    3.9544    5.2519   -1.0886 C   0  0  0  0  0  0  0  0  0  0  0  0
   12.2731    6.9309    3.1142 C   0  0  0  0  0  0  0  0  0  0  0  0
   11.1706    6.8641    2.1156 C   0  0  0  0  0  0  0  0  0  0  0  0
   10.2688    8.0814    1.9701 C   0  0  0  0  0  0  0  0  0  0  0  0
   11.0804    9.2251    1.4052 C   0  0  0  0  0  0  0  0  0  0  0  0
    6.0351    3.2687    2.7616 C   0  0  0  0  0  0  0  0  0  0  0  0
    5.1836    4.2614    1.9833 C   0  0  0  0  0  0  0  0  0  0  0  0
   11.6125    8.9256   -0.0111 C   0  0  0  0  0  0  0  0  0  0  0  0
    8.0893    3.0126    1.6681 C   0  0  0  0  0  0  0  0  0  0  0  0
   10.2496    6.2514   -0.6147 C   0  0  0  0  0  0  0  0  0  0  0  0
    8.2162    7.4075   -1.0938 C   0  0  0  0  0  0  0  0  0  0  0  0
    7.2313    3.7748    2.5440 C   0  0  0  0  0  0  0  0  0  0  0  0
    9.6123    7.4558   -0.9479 C   0  0  0  0  0  0  0  0  0  0  0  0
    7.4451    3.7725    0.3401 C   0  0  1  0  0  0  0  0  0  0  0  0
    5.7839    4.1044    0.4174 C   0  0  2  0  0  0  0  0  0  0  0  0
    9.5532    5.1186   -0.2076 C   0  0  0  0  0  0  0  0  0  0  0  0
    7.5018    6.2186   -0.7529 C   0  0  0  0  0  0  0  0  0  0  0  0
    8.1678    5.0584   -0.2439 C   0  0  0  0  0  0  0  0  0  0  0  0
    7.8400    5.1169    2.6364 C   0  0  0  0  0  0  0  0  0  0  0  0
   10.4933    8.7165   -1.1077 C   0  0  0  0  0  0  0  0  0  0  0  0
    5.4626    5.0220   -0.8674 C   0  0  0  0  0  0  0  0  0  0  0  0
   10.2205    4.1082    0.4355 O   0  0  0  0  0  0  0  0  0  0  0  0
    7.4798    6.2127    2.2074 O   0  0  0  0  0  0  0  0  0  0  0  0
    9.1120    4.8312    2.9415 O   0  0  0  0  0  0  0  0  0  0  0  0
    6.1294    6.2959   -0.8793 O   0  0  0  0  0  0  0  0  0  0  0  0
  6  1  1  0
  7  6  1  0
  8  7  1  0
  9  8  1  0
 11 10  1  0
 12  9  1  0
 16 10  2  0
 16 13  1  0
 17 14  2  0
 17 15  1  0
 18 13  1  1
 19 11  1  1
 19 18  1  0
 20 14  1  0
 21 15  2  0
 22 18  1  0
 22 20  2  0
 22 21  1  0
 23 16  1  0
 24  2  1  0
 24  3  1  0
 24 12  1  0
 24 17  1  0
 25  4  1  0
 25  5  1  0
 25 19  1  0
 26 20  1  0
 27 23  2  0
 28 23  1  0
 29 21  1  0
 29 25  1  0
M  END
>  <DRUGBANK_ID>  (1) 
DB12193

>  <COMMON_NAME>  (1) 
Lenabasum

>  <CAS_NUMBER>  (1) 
137945-48-3

>  <UNII>  (1) 
OGN7X90BT8

>  <SYNONYMS>  (1) 
(6aR,10aR)-1-hydroxy-6,6-dimethyl-3-(2-methyloctan-2-yl)-6a,7,10,10a-tetrahydrobenzo[c]chromene-9-carboxylic acid; Ajulemic acid; Anabasum; JBT-101; Lenabasum

$$$$
