
     RDKit          3D

 27 30  0  0  1  0  0  0  0  0999 V2000
    0.3250    1.8740    1.8865 C   0  0  0  0  0  0  0  0  0  0  0  0
    0.1152    1.6306    0.3774 C   0  0  1  0  0  0  0  0  0  0  0  0
   -0.9032    0.8571   -0.4924 C   0  0  0  0  0  0  0  0  0  0  0  0
   -0.4756    0.8072   -2.0448 C   0  0  1  0  0  0  0  0  0  0  0  0
   -0.1827    2.2538   -2.5460 C   0  0  0  0  0  0  0  0  0  0  0  0
    0.8432    2.8348   -1.6926 N   0  0  0  0  0  0  0  0  0  0  0  0
    0.4664    2.9951   -0.2976 C   0  0  0  0  0  0  0  0  0  0  0  0
    2.0549    3.3223   -2.1630 C   0  0  0  0  0  0  0  0  0  0  0  0
    2.0373    4.4284   -3.0237 C   0  0  0  0  0  0  0  0  0  0  0  0
    3.2155    5.1041   -3.3360 C   0  0  0  0  0  0  0  0  0  0  0  0
    4.4488    4.5046   -3.0723 C   0  0  0  0  0  0  0  0  0  0  0  0
    4.5372    3.3170   -2.3532 C   0  0  0  0  0  0  0  0  0  0  0  0
    3.3456    2.8270   -1.7946 C   0  0  0  0  0  0  0  0  0  0  0  0
    3.6938    1.8577   -0.9076 O   0  0  0  0  0  0  0  0  0  0  0  0
    2.7415    1.2514   -0.1586 C   0  0  0  0  0  0  0  0  0  0  0  0
    5.8059    2.6494   -2.1971 N   0  0  0  0  0  0  0  0  0  0  0  0
    6.9067    3.2189   -2.7877 C   0  0  0  0  0  0  0  0  0  0  0  0
    6.9383    4.3627   -3.4799 C   0  0  0  0  0  0  0  0  0  0  0  0
    5.6681    5.1018   -3.6430 C   0  0  0  0  0  0  0  0  0  0  0  0
    5.5841    6.1558   -4.2605 O   0  0  0  0  0  0  0  0  0  0  0  0
    8.1960    4.8514   -4.0689 C   0  0  0  0  0  0  0  0  0  0  0  0
    8.3562    5.8523   -4.7127 O   0  0  0  0  0  0  0  0  0  0  0  0
    9.2468    4.0358   -3.8156 O   0  0  0  0  0  0  0  0  0  0  0  0
    5.9388    1.2914   -1.5697 C   0  0  0  0  0  0  0  0  0  0  0  0
    6.6427    1.1372   -0.2354 C   0  0  0  0  0  0  0  0  0  0  0  0
    7.1626    0.4434   -1.4625 C   0  0  0  0  0  0  0  0  0  0  0  0
    0.5806   -0.1634   -2.4630 N   0  0  0  0  0  0  0  0  0  0  0  0
  2  3  1  0
  2  7  1  0
  2  1  1  1
  3  4  1  0
  4  5  1  0
  4 27  1  1
  5  6  1  0
  6  7  1  0
  6  8  1  0
  8  9  2  0
  8 13  1  0
  9 10  1  0
 10 11  2  0
 11 12  1  0
 11 19  1  0
 12 13  2  0
 12 16  1  0
 13 14  1  0
 14 15  1  0
 16 17  1  0
 16 24  1  0
 17 18  2  0
 18 19  1  0
 18 21  1  0
 19 20  2  0
 21 22  2  0
 21 23  1  0
 24 25  1  0
 24 26  1  0
 25 26  1  0
M  END
>  <DRUGBANK_ID>  (1) 
DB06600

>  <COMMON_NAME>  (1) 
Nemonoxacin

>  <CAS_NUMBER>  (1) 
378746-64-6

>  <UNII>  (1) 
P94L0PVO94

>  <SYNONYMS>  (1) 
Nemonoxacin

$$$$
