
     RDKit          3D

 30 33  0  0  1  0  0  0  0  0999 V2000
    2.8993    0.5399   -1.1765 C   0  0  0  0  0  0  0  0  0  0  0  0
    2.2709   -0.1106   -2.2900 O   0  0  0  0  0  0  0  0  0  0  0  0
    0.8283   -0.2165   -2.2509 C   0  0  1  0  0  0  0  0  0  0  0  0
    0.2905    1.0965   -2.6748 C   0  0  0  0  0  0  0  0  0  0  0  0
    0.3781    1.0873   -4.1052 N   0  0  0  0  0  0  0  0  0  0  0  0
    0.1490   -0.2645   -4.6066 C   0  0  0  0  0  0  0  0  0  0  0  0
    0.1587   -1.1238   -3.3425 C   0  0  2  0  0  0  0  0  0  0  0  0
   -1.1495   -1.7387   -2.9013 C   0  0  0  0  0  0  0  0  0  0  0  0
   -1.1680   -1.8518   -1.4944 O   0  0  0  0  0  0  0  0  0  0  0  0
   -0.2482   -2.7001   -0.8776 C   0  0  0  0  0  0  0  0  0  0  0  0
    1.1812   -2.8915   -1.0947 C   0  0  0  0  0  0  0  0  0  0  0  0
    2.3688   -2.7624   -1.9990 C   0  0  0  0  0  0  0  0  0  0  0  0
    2.7721   -2.5263   -3.6748 Cl  0  0  0  0  0  0  0  0  0  0  0  0
    3.5030   -2.8015   -1.2201 C   0  0  0  0  0  0  0  0  0  0  0  0
    3.1435   -3.3763   -0.0632 N   0  0  0  0  0  0  0  0  0  0  0  0
    1.7904   -3.3953    0.0489 C   0  0  0  0  0  0  0  0  0  0  0  0
    1.2302   -3.8498    1.1595 N   0  0  0  0  0  0  0  0  0  0  0  0
   -0.0899   -3.7670    1.2169 C   0  0  0  0  0  0  0  0  0  0  0  0
   -0.7415   -4.4029    2.2894 N   0  0  0  0  0  0  0  0  0  0  0  0
   -0.1167   -5.2234    3.1664 C   0  0  0  0  0  0  0  0  0  0  0  0
    0.9489   -4.8637    3.9534 C   0  0  0  0  0  0  0  0  0  0  0  0
    1.3241   -5.9854    4.6243 N   0  0  0  0  0  0  0  0  0  0  0  0
    2.4508   -6.1080    5.5171 C   0  0  0  0  0  0  0  0  0  0  0  0
    0.5523   -7.0573    4.3506 N   0  0  0  0  0  0  0  0  0  0  0  0
   -0.3258   -6.5885    3.4507 C   0  0  0  0  0  0  0  0  0  0  0  0
   -0.8194   -3.1513    0.2866 N   0  0  0  0  0  0  0  0  0  0  0  0
    0.8926    2.0934   -4.8898 C   0  0  0  0  0  0  0  0  0  0  0  0
    1.0591    1.9657   -6.0869 O   0  0  0  0  0  0  0  0  0  0  0  0
    1.2807    3.4108   -4.2496 C   0  0  0  0  0  0  0  0  0  0  0  0
    1.1855    3.9061   -3.0062 C   0  0  0  0  0  0  0  0  0  0  0  0
  1  2  1  0
  3  4  1  0
  3  7  1  0
  3  2  1  6
  4  5  1  0
  5  6  1  0
  5 27  1  0
  7  6  1  0
  7  8  1  1
  8  9  1  0
  9 10  1  0
 10 11  2  0
 10 26  1  0
 11 12  1  0
 11 16  1  0
 12 13  1  0
 12 14  2  0
 14 15  1  0
 15 16  1  0
 16 17  2  0
 17 18  1  0
 18 19  1  0
 18 26  2  0
 19 20  1  0
 20 21  2  0
 20 25  1  0
 21 22  1  0
 22 23  1  0
 22 24  1  0
 24 25  2  0
 27 28  2  0
 27 29  1  0
 29 30  2  0
M  END
>  <DRUGBANK_ID>  (1) 
DB14768

>  <COMMON_NAME>  (1) 
PF-06459988

>  <CAS_NUMBER>  (1) 
1428774-45-1

>  <UNII>  (1) 
5IE92SK9EB

$$$$
