
     RDKit          3D

 24 26  0  0  0  0  0  0  0  0999 V2000
   -0.5552   -1.4604    0.0645 N   0  0  0  0  0  0  0  0  0  0  0  0
   -1.4175   -0.5140   -0.0221 C   0  0  0  0  0  0  0  0  0  0  0  0
   -2.7226   -0.7632    0.0149 O   0  0  0  0  0  0  0  0  0  0  0  0
   -1.1793    0.7788   -0.1557 N   0  0  0  0  0  0  0  0  0  0  0  0
    0.0461    1.2819   -0.3710 C   0  0  0  0  0  0  0  0  0  0  0  0
    0.0549    2.4392   -0.7898 O   0  0  0  0  0  0  0  0  0  0  0  0
    1.2722    0.3634   -0.1233 C   0  0  2  0  0  0  0  0  0  0  0  0
    0.7896   -1.1475    0.0513 C   0  0  0  0  0  0  0  0  0  0  0  0
    1.6131   -2.0615    0.1862 O   0  0  0  0  0  0  0  0  0  0  0  0
    2.0766    0.6820    1.1533 N   0  0  0  0  0  0  0  0  0  0  0  0
    1.3452    0.4825    2.4103 C   0  0  0  0  0  0  0  0  0  0  0  0
    0.2548    1.5166    2.5708 C   0  0  0  0  0  0  0  0  0  0  0  0
    0.7474    2.9623    2.3363 C   0  0  0  0  0  0  0  0  0  0  0  0
    1.8638    3.1603    1.2959 C   0  0  0  0  0  0  0  0  0  0  0  0
    2.7964    1.9569    1.2451 C   0  0  0  0  0  0  0  0  0  0  0  0
   -0.4572    3.8829    2.0668 C   0  0  0  0  0  0  0  0  0  0  0  0
   -1.4730    3.8176    3.2011 C   0  0  0  0  0  0  0  0  0  0  0  0
   -0.8644    4.1761    4.4324 O   0  0  0  0  0  0  0  0  0  0  0  0
    2.0930    0.4958   -1.4209 C   0  0  0  0  0  0  0  0  0  0  0  0
    2.6612    1.7303   -1.7925 C   0  0  0  0  0  0  0  0  0  0  0  0
    2.1642   -0.5423   -2.3530 C   0  0  0  0  0  0  0  0  0  0  0  0
    3.3794    1.8985   -2.9591 C   0  0  0  0  0  0  0  0  0  0  0  0
    2.9206   -0.3971   -3.5081 C   0  0  0  0  0  0  0  0  0  0  0  0
    3.5152    0.8236   -3.8155 C   0  0  0  0  0  0  0  0  0  0  0  0
  2  1  2  0
  2  3  1  0
  2  4  1  0
  5  4  1  0
  5  6  2  0
  5  7  1  0
  7  8  1  0
  7 19  1  6
  7 10  1  0
  8  1  1  0
  8  9  2  0
 11 10  1  0
 11 12  1  0
 12 13  1  0
 13 14  1  0
 13 16  1  0
 14 15  1  0
 15 10  1  0
 16 17  1  0
 17 18  1  0
 20 19  2  0
 20 22  1  0
 21 19  1  0
 21 23  2  0
 22 24  2  0
 23 24  1  0
M  END
>  <DRUGBANK_ID>  (1) 
DB03622

>  <SECONDARY_ACCESSION_NUMBERS>  (1) 
EXPT00635

>  <COMMON_NAME>  (1) 
5-[4-(2-Hydroxyethyl)-1-piperidinyl]-5-phenyl-2,4,6(1H,3H,5H)-pyrimidinetrione

$$$$
