PY9
     RDKit          3D

 22 24  0  0  0  0  0  0  0  0999 V2000
   -1.0464    0.5713    0.1184 N   0  0  0  0  0  0  0  0  0  0  0  0
   -2.7570    5.1756    1.6556 C   0  0  0  0  0  0  0  0  0  0  0  0
   -3.0188    4.1807    2.5915 C   0  0  0  0  0  0  0  0  0  0  0  0
   -2.8367    2.8395    2.2474 C   0  0  0  0  0  0  0  0  0  0  0  0
   -2.2539    1.0544    0.5898 C   0  0  0  0  0  0  0  0  0  0  0  0
   -0.8441   -0.8501   -0.2246 C   0  0  1  0  0  0  0  0  0  0  0  0
    1.2926    0.2342   -0.1002 C   0  0  0  0  0  0  0  0  0  0  0  0
   -1.4690   -0.1184   -2.5866 C   0  0  0  0  0  0  0  0  0  0  0  0
   -1.3730   -1.5788   -4.4904 C   0  0  0  0  0  0  0  0  0  0  0  0
   -0.7273   -2.4077   -2.2860 C   0  0  0  0  0  0  0  0  0  0  0  0
   -1.6549   -0.3348   -3.9494 C   0  0  0  0  0  0  0  0  0  0  0  0
   -2.1337    3.5001    0.0302 C   0  0  0  0  0  0  0  0  0  0  0  0
   -0.9097   -2.6035   -3.6678 C   0  0  0  0  0  0  0  0  0  0  0  0
   -2.3105    4.8475    0.3781 C   0  0  0  0  0  0  0  0  0  0  0  0
   -2.3836    2.4865    0.9672 C   0  0  0  0  0  0  0  0  0  0  0  0
   -0.9981   -1.1344   -1.7249 C   0  0  0  0  0  0  0  0  0  0  0  0
    0.5886   -1.0567    0.2839 C   0  0  0  0  0  0  0  0  0  0  0  0
    0.2151    1.2993    0.0424 C   0  0  0  0  0  0  0  0  0  0  0  0
   -0.2765   -3.5938   -1.4727 C   0  0  0  0  0  0  0  0  0  0  0  0
   -3.2373    0.3353    0.7815 O   0  0  0  0  0  0  0  0  0  0  0  0
   -2.9575    6.4708    2.0353 O   0  0  0  0  0  0  0  0  0  0  0  0
   -3.1037    1.9202    3.2273 O   0  0  0  0  0  0  0  0  0  0  0  0
  1 18  1  0
  1  6  1  0
  2 14  2  0
  3  2  1  0
  3  4  2  0
  4 15  1  0
  5  1  1  0
  6 16  1  6
  6 17  1  0
  7 17  1  0
  8 16  2  0
  8 11  1  0
  9 13  1  0
 10 13  2  0
 10 19  1  0
 11  9  2  0
 14 12  1  0
 15  5  1  0
 15 12  2  0
 16 10  1  0
 18  7  1  0
 20  5  2  0
 21  2  1  0
 22  4  1  0
M  END
>  <DRUGBANK_ID>  (1) 
DB08442

>  <COMMON_NAME>  (1) 
4-{[(2R)-2-(2-methylphenyl)pyrrolidin-1-yl]carbonyl}benzene-1,3-diol

$$$$
