
     RDKit          3D

 31 35  0  0  0  0  0  0  0  0999 V2000
    0.1407    1.3464    0.1695 C   0  0  0  0  0  0  0  0  0  0  0  0
   -0.6769    0.1376   -0.1970 C   0  0  1  0  0  0  0  0  0  0  0  0
    0.1321   -0.9575    0.4509 C   0  0  0  0  0  0  0  0  0  0  0  0
    1.4789   -0.6444    0.0795 N   0  0  0  0  0  0  0  0  0  0  0  0
    1.5872    0.8197    0.0366 C   0  0  0  0  0  0  0  0  0  0  0  0
   -2.0225    0.1733    0.2341 O   0  0  0  0  0  0  0  0  0  0  0  0
    2.5117   -1.4814   -0.2756 C   0  0  0  0  0  0  0  0  0  0  0  0
    3.6443   -1.0389   -0.4434 O   0  0  0  0  0  0  0  0  0  0  0  0
    2.3524   -2.8467   -0.3380 N   0  0  0  0  0  0  0  0  0  0  0  0
    1.2203   -3.6488   -0.3561 C   0  0  0  0  0  0  0  0  0  0  0  0
    0.0607   -3.5040   -1.1146 C   0  0  0  0  0  0  0  0  0  0  0  0
    0.9628   -4.7529    0.4884 C   0  0  0  0  0  0  0  0  0  0  0  0
   -0.3157   -5.1399    0.4467 N   0  0  0  0  0  0  0  0  0  0  0  0
   -0.8910   -4.2803   -0.4364 N   0  0  0  0  0  0  0  0  0  0  0  0
   -1.5785   -2.2068   -2.1243 C   0  0  0  0  0  0  0  0  0  0  0  0
   -0.3080   -2.5637   -2.0646 N   0  0  0  0  0  0  0  0  0  0  0  0
   -2.2444   -4.0206   -0.6090 C   0  0  0  0  0  0  0  0  0  0  0  0
   -2.6410   -2.9900   -1.3680 C   0  0  0  0  0  0  0  0  0  0  0  0
   -2.0043   -1.1937   -2.9868 N   0  0  0  0  0  0  0  0  0  0  0  0
   -2.9938   -0.1663   -2.6641 C   0  0  0  0  0  0  0  0  0  0  0  0
   -3.6298    0.1262   -4.0080 C   0  0  0  0  0  0  0  0  0  0  0  0
   -2.4345    0.0985   -4.9505 C   0  0  0  0  0  0  0  0  0  0  0  0
   -1.4532   -0.9424   -4.3351 C   0  0  2  0  0  0  0  0  0  0  0  0
   -1.3932   -2.1887   -5.1945 C   0  0  0  0  0  0  0  0  0  0  0  0
   -1.7141   -4.5856   -5.5047 C   0  0  0  0  0  0  0  0  0  0  0  0
   -1.2636   -4.5072   -6.8038 C   0  0  0  0  0  0  0  0  0  0  0  0
   -0.8730   -3.2678   -7.3134 C   0  0  0  0  0  0  0  0  0  0  0  0
   -0.9198   -2.1274   -6.5063 C   0  0  0  0  0  0  0  0  0  0  0  0
   -1.8053   -3.4469   -4.7346 C   0  0  0  0  0  0  0  0  0  0  0  0
   -0.5358   -0.9527   -7.0278 F   0  0  0  0  0  0  0  0  0  0  0  0
   -2.0927   -5.7532   -4.9717 F   0  0  0  0  0  0  0  0  0  0  0  0
  1  2  1  0
  1  5  1  0
  2  3  1  0
  2  6  1  1
  3  4  1  0
  4  5  1  0
  4  7  1  0
  7  8  2  0
  7  9  1  0
  9 10  1  0
 10 12  1  0
 11 14  1  0
 11 10  2  0
 12 13  2  0
 13 14  1  0
 14 17  1  0
 15 16  2  0
 15 18  1  0
 15 19  1  0
 16 11  1  0
 17 18  2  0
 19 20  1  0
 19 23  1  0
 20 21  1  0
 21 22  1  0
 22 23  1  0
 23 24  1  6
 24 29  2  0
 25 26  2  0
 25 29  1  0
 25 31  1  0
 26 27  1  0
 27 28  2  0
 28 24  1  0
 28 30  1  0
M  END
>  <DRUGBANK_ID>  (1) 
DB14723

>  <COMMON_NAME>  (1) 
Larotrectinib

>  <CAS_NUMBER>  (1) 
1223403-58-4

>  <UNII>  (1) 
PF9462I9HX

>  <SYNONYMS>  (1) 
Larotrectinib

$$$$
