JEN
     RDKit          3D

 21 23  0  0  0  0  0  0  0  0999 V2000
    1.0165    0.0559   -0.0122 C   0  0  0  0  0  0  0  0  0  0  0  0
    0.5392   -0.7280   -1.1038 O   0  0  0  0  0  0  0  0  0  0  0  0
    0.9212   -0.2551   -2.3336 C   0  0  0  0  0  0  0  0  0  0  0  0
   -0.0453   -0.1618   -3.2625 N   0  0  0  0  0  0  0  0  0  0  0  0
    0.2559    0.2932   -4.5576 N   0  0  0  0  0  0  0  0  0  0  0  0
    1.5187    0.5873   -4.9178 C   0  0  0  0  0  0  0  0  0  0  0  0
    2.5196    0.4630   -3.9615 C   0  0  0  0  0  0  0  0  0  0  0  0
    2.2268    0.0419   -2.6567 C   0  0  0  0  0  0  0  0  0  0  0  0
    1.8283    1.0760   -6.1692 N   0  0  0  0  0  0  0  0  0  0  0  0
    2.7500    0.3864   -7.0815 C   0  0  0  0  0  0  0  0  0  0  0  0
    3.7416    1.4153   -7.6793 C   0  0  0  0  0  0  0  0  0  0  0  0
    3.0192    2.5617   -8.2594 N   0  0  0  0  0  0  0  0  0  0  0  0
    2.0455    3.2155   -7.3639 C   0  0  0  0  0  0  0  0  0  0  0  0
    1.0486    2.1533   -6.7914 C   0  0  0  0  0  0  0  0  0  0  0  0
    3.2576    2.9798   -9.5498 C   0  0  0  0  0  0  0  0  0  0  0  0
    3.0357    2.1204  -10.6384 C   0  0  0  0  0  0  0  0  0  0  0  0
    3.3073    2.5042  -11.9653 C   0  0  0  0  0  0  0  0  0  0  0  0
    3.8283    3.7763  -12.2105 C   0  0  0  0  0  0  0  0  0  0  0  0
    4.0520    4.6492  -11.1479 C   0  0  0  0  0  0  0  0  0  0  0  0
    3.7561    4.2566   -9.8338 C   0  0  0  0  0  0  0  0  0  0  0  0
    3.0601    1.5647  -13.1095 C   0  0  0  0  0  0  0  0  0  0  0  0
  1  2  1  0
  2  3  1  0
  3  4  2  0
  3  8  1  0
  4  5  1  0
  5  6  2  0
  6  7  1  0
  6  9  1  0
  7  8  2  0
  9 10  1  0
  9 14  1  0
 10 11  1  0
 11 12  1  0
 12 13  1  0
 12 15  1  0
 13 14  1  0
 15 16  2  0
 15 20  1  0
 16 17  1  0
 17 18  2  0
 17 21  1  0
 18 19  1  0
 19 20  2  0
M  END
>  <DRUGBANK_ID>  (1) 
DB08017

>  <COMMON_NAME>  (1) 
3-METHOXY-6-[4-(3-METHYLPHENYL)-1-PIPERAZINYL]PYRIDAZINE

>  <UNII>  (1) 
HK76HE61AQ

$$$$
