
     RDKit          3D

 10  9  0  0  1  0  0  0  0  0999 V2000
   -1.0869   -0.2971   -6.2719 C   0  0  0  0  0  0  0  0  0  0  0  0
   -0.6303    0.4542   -5.0236 C   0  0  0  0  0  0  0  0  0  0  0  0
   -1.0159    1.9296   -5.1667 C   0  0  0  0  0  0  0  0  0  0  0  0
   -1.1444   -0.2382   -3.7254 C   0  0  2  0  0  0  0  0  0  0  0  0
   -2.1239   -1.2424   -4.0042 O   0  0  0  0  0  0  0  0  0  0  0  0
   -1.6989    0.7332   -2.6387 C   0  0  2  0  0  0  0  0  0  0  0  0
   -1.1719    0.4052   -1.2923 N   0  0  0  0  0  0  0  0  0  0  0  0
   -3.2479    0.7411   -2.6269 C   0  0  0  0  0  0  0  0  0  0  0  0
   -3.8057    1.9027   -3.0574 O   0  0  0  0  0  0  0  0  0  0  0  0
   -3.9582   -0.1900   -2.2572 O   0  0  0  0  0  0  0  0  0  0  0  0
  1  2  1  0
  2  3  1  0
  4  5  1  6
  4  2  1  0
  6  8  1  0
  6  7  1  1
  6  4  1  0
  8  9  1  0
  8 10  2  0
M  END
>  <DRUGBANK_ID>  (1) 
DB02978

>  <SECONDARY_ACCESSION_NUMBERS>  (1) 
EXPT01755

>  <COMMON_NAME>  (1) 
Beta-Hydroxyleucine

$$$$
