950
     RDKit          3D

 25 27  0  0  0  0  0  0  0  0999 V2000
    2.1213   -0.7254    0.0031 C   0  0  0  0  0  0  0  0  0  0  0  0
    2.1052    0.6820    0.0082 C   0  0  0  0  0  0  0  0  0  0  0  0
    3.2746    1.3465    0.0101 F   0  0  0  0  0  0  0  0  0  0  0  0
    0.9333    1.4463    0.0040 C   0  0  0  0  0  0  0  0  0  0  0  0
   -0.2672    0.7432   -0.0293 C   0  0  0  0  0  0  0  0  0  0  0  0
   -0.3343   -0.6411   -0.0590 C   0  0  0  0  0  0  0  0  0  0  0  0
    0.8700   -1.3870   -0.0176 C   0  0  0  0  0  0  0  0  0  0  0  0
    3.4168   -1.4579   -0.0014 C   0  0  0  0  0  0  0  0  0  0  0  0
    3.4639   -2.7766   -0.0106 N   0  0  0  0  0  0  0  0  0  0  0  0
    4.5631   -0.8021   -0.0074 N   0  0  0  0  0  0  0  0  0  0  0  0
   -1.5776    1.1483   -0.0221 N   0  0  0  0  0  0  0  0  0  0  0  0
   -1.6415   -1.0567   -0.1557 N   0  0  0  0  0  0  0  0  0  0  0  0
   -2.3886    0.0485   -0.1035 C   0  0  0  0  0  0  0  0  0  0  0  0
   -3.8669    0.1928   -0.0516 C   0  0  0  0  0  0  0  0  0  0  0  0
   -4.5930    0.4496   -1.2195 C   0  0  0  0  0  0  0  0  0  0  0  0
   -5.9683    0.2287   -1.2699 C   0  0  0  0  0  0  0  0  0  0  0  0
   -6.6166   -0.2145   -0.1249 C   0  0  0  0  0  0  0  0  0  0  0  0
   -5.9115   -0.2971    1.0877 C   0  0  0  0  0  0  0  0  0  0  0  0
   -4.5412    0.1261    1.1986 C   0  0  0  0  0  0  0  0  0  0  0  0
   -3.9377    0.4382    2.2785 O   0  0  0  0  0  0  0  0  0  0  0  0
   -6.6581   -0.8875    2.0944 O   0  0  0  0  0  0  0  0  0  0  0  0
   -5.9554   -1.3655    3.2480 C   0  0  0  0  0  0  0  0  0  0  0  0
   -5.1121   -2.6628    3.0606 C   0  0  0  0  0  0  0  0  0  0  0  0
   -4.0425   -2.6846    1.9637 C   0  0  0  0  0  0  0  0  0  0  0  0
   -4.3879   -2.9878    4.3681 C   0  0  0  0  0  0  0  0  0  0  0  0
  1  2  2  0
  1  7  1  0
  1  8  1  0
  2  3  1  0
  2  4  1  0
  4  5  2  0
  5  6  1  0
  5 11  1  0
  6  7  2  0
  6 12  1  0
  8  9  1  0
  8 10  2  0
 11 13  1  0
 12 13  2  0
 13 14  1  0
 14 15  2  0
 14 19  1  0
 15 16  1  0
 16 17  2  0
 17 18  1  0
 18 19  2  0
 18 21  1  0
 19 20  1  0
 21 22  1  0
 22 23  1  0
 23 24  1  0
 23 25  1  0
M  CHG  2  10   1  20  -1
M  END
>  <DRUGBANK_ID>  (1) 
DB06855

>  <SECONDARY_ACCESSION_NUMBERS>  (1) 
EXPT00343; DB03494

>  <COMMON_NAME>  (1) 
6-fluoro-2-(2-hydroxy-3-isobutoxy-phenyl)-1H-benzoimidazole-5-carboxamidine

$$$$
