
     RDKit          3D

 24 23  0  0  0  0  0  0  0  0999 V2000
    2.5911   -2.3048   -3.2885 C   0  0  0  0  0  0  0  0  0  0  0  0
    1.8238   -1.4558   -2.5767 C   0  0  0  0  0  0  0  0  0  0  0  0
    1.8686    0.0181   -2.8938 C   0  0  0  0  0  0  0  0  0  0  0  0
    0.9313   -1.9548   -1.4444 C   0  0  2  0  0  0  0  0  0  0  0  0
    0.0485   -0.9298   -0.6710 C   0  0  0  0  0  0  0  0  0  0  0  0
   -0.0536    0.2697   -0.8611 O   0  0  0  0  0  0  0  0  0  0  0  0
   -0.6317   -1.4630    0.3698 O   0  0  0  0  0  0  0  0  0  0  0  0
    1.7136   -2.7374   -0.4895 N   0  0  0  0  0  0  0  0  0  0  0  0
    2.6050   -2.2181    0.2653 C   0  0  0  0  0  0  0  0  0  0  0  0
    3.0645   -0.7324    0.2943 C   0  0  1  0  0  0  0  0  0  0  0  0
    2.6595    0.1942    1.4692 C   0  0  0  0  0  0  0  0  0  0  0  0
    3.2423    0.0786    3.2055 S   0  0  0  0  0  0  0  0  0  0  0  0
    4.3566   -0.4325   -0.3988 N   0  0  0  0  0  0  0  0  0  0  0  0
    5.4596   -0.6856    0.1865 C   0  0  0  0  0  0  0  0  0  0  0  0
    5.5246   -1.3285    1.5088 C   0  0  0  0  0  0  0  0  0  0  0  0
    6.0125   -2.7529    1.5450 C   0  0  0  0  0  0  0  0  0  0  0  0
    7.5092   -2.7371    1.5102 C   0  0  0  0  0  0  0  0  0  0  0  0
    8.0627   -1.8029    2.5923 C   0  0  1  0  0  0  0  0  0  0  0  0
    7.8321   -2.3660    4.0089 C   0  0  0  0  0  0  0  0  0  0  0  0
    8.6869   -2.7486    4.7711 O   0  0  0  0  0  0  0  0  0  0  0  0
    6.5215   -2.4008    4.3622 O   0  0  0  0  0  0  0  0  0  0  0  0
    9.4788   -1.6068    2.2811 N   0  0  0  0  0  0  0  0  0  0  0  0
    6.6254   -0.3136   -0.3593 O   0  0  0  0  0  0  0  0  0  0  0  0
    3.1002   -3.1350    1.1007 O   0  0  0  0  0  0  0  0  0  0  0  0
  1  2  2  0
  2  3  1  0
  4  8  1  1
  4  5  1  0
  4  2  1  0
  5  6  2  0
  5  7  1  0
  8  9  2  3
  9 10  1  0
  9 24  1  0
 10 11  1  1
 10 13  1  0
 11 12  1  0
 13 14  2  3
 14 15  1  0
 14 23  1  0
 15 16  1  0
 16 17  1  0
 17 18  1  0
 18 19  1  0
 18 22  1  6
 19 20  2  0
 19 21  1  0
M  END
>  <DRUGBANK_ID>  (1) 
DB02582

>  <SECONDARY_ACCESSION_NUMBERS>  (1) 
EXPT00870

>  <COMMON_NAME>  (1) 
(6Z)-6-{[(1Z)-1-{[(1R)-1-Carboxy-2-methyl-2-propen-1-yl]imino}-1-hydroxy-3-sulfanyl-2-propanyl]imino}-6-hydroxynorleucine

$$$$
