
     RDKit          3D

 23 25  0  0  0  0  0  0  0  0999 V2000
    1.0119   -0.0711    0.1629 C   0  0  0  0  0  0  0  0  0  0  0  0
    0.3313    0.9395   -0.8463 C   0  0  0  0  0  0  0  0  0  0  0  0
   -3.3632   -0.5025    2.1607 N   0  0  0  0  0  0  0  0  0  0  0  0
    0.1870   -0.8283    0.9815 O   0  0  0  0  0  0  0  0  0  0  0  0
    2.2226   -0.1776    0.2695 O   0  0  0  0  0  0  0  0  0  0  0  0
   -1.2671   -0.9059    1.0033 C   0  0  0  0  0  0  0  0  0  0  0  0
   -0.5260    0.1500   -1.8495 C   0  0  0  0  0  0  0  0  0  0  0  0
   -1.9929    0.0476    1.9506 C   0  0  0  0  0  0  0  0  0  0  0  0
   -3.0737   -2.0082    2.2289 C   0  0  0  0  0  0  0  0  0  0  0  0
   -0.4150    1.9945    0.0355 C   0  0  0  0  0  0  0  0  0  0  0  0
   -1.7006   -2.2437    1.5675 C   0  0  0  0  0  0  0  0  0  0  0  0
    1.2800    1.6368   -1.6476 O   0  0  0  0  0  0  0  0  0  0  0  0
   -3.9524    0.1253    3.4223 C   0  0  0  0  0  0  0  0  0  0  0  0
   -4.2900   -0.0970    1.0105 C   0  0  0  0  0  0  0  0  0  0  0  0
   -0.2856   -1.2358   -2.0184 C   0  0  0  0  0  0  0  0  0  0  0  0
   -1.5840    0.7217   -2.5711 C   0  0  0  0  0  0  0  0  0  0  0  0
   -0.2985    3.4889   -0.3042 C   0  0  0  0  0  0  0  0  0  0  0  0
    0.0810    2.0382    1.5042 C   0  0  0  0  0  0  0  0  0  0  0  0
   -1.1329   -2.0404   -2.7670 C   0  0  0  0  0  0  0  0  0  0  0  0
   -2.4305   -0.0904   -3.3358 C   0  0  0  0  0  0  0  0  0  0  0  0
   -0.6593    3.2024    2.1032 C   0  0  0  0  0  0  0  0  0  0  0  0
   -0.4348    4.2458    1.0332 C   0  0  0  0  0  0  0  0  0  0  0  0
   -2.2001   -1.4638   -3.4370 C   0  0  0  0  0  0  0  0  0  0  0  0
  2  1  1  0
  3  8  1  0
  3  9  1  0
  4  1  1  0
  5  1  2  0
  6  4  1  0
  7  2  1  0
  8  6  1  0
  9 11  1  0
 10  2  1  0
 11  6  1  0
 12  2  1  0
 13  3  1  0
 14  3  1  0
 15  7  2  0
 16  7  1  0
 17 10  1  0
 18 10  1  0
 19 15  1  0
 20 16  2  0
 20 23  1  0
 21 18  1  0
 22 17  1  0
 22 21  1  0
 23 19  2  0
M  CHG  1   3   1
M  END
>  <DRUGBANK_ID>  (1) 
DB00986

>  <SECONDARY_ACCESSION_NUMBERS>  (1) 
APRD01000; DB06583

>  <COMMON_NAME>  (1) 
Glycopyrronium

>  <CAS_NUMBER>  (1) 
740028-90-4

>  <UNII>  (1) 
A14FB57V1D

>  <SYNONYMS>  (1) 
Glicopirronio; Glycopyrrolate; Glycopyrrolate cation; Glycopyrrolate ion; Glycopyrronium; Glycopyrronium cation; Glycopyrronium ion

$$$$
