521
     RDKit          3D

 21 22  0  0  1  0  0  0  0  0999 V2000
    1.1013   -0.0174    0.0175 O   0  0  0  0  0  0  0  0  0  0  0  0
    1.6853   -2.2073   -1.9221 O   0  0  0  0  0  0  0  0  0  0  0  0
    5.5201   -4.7572    0.1641 O   0  0  0  0  0  0  0  0  0  0  0  0
   -1.6448   -3.2957   -1.0098 N   0  0  0  0  0  0  0  0  0  0  0  0
    5.3533   -2.4827    0.2628 N   0  0  0  0  0  0  0  0  0  0  0  0
   -2.3120   -4.5916   -0.8873 C   0  0  0  0  0  0  0  0  0  0  0  0
   -0.2008   -3.3925   -1.1188 C   0  0  0  0  0  0  0  0  0  0  0  0
    0.3945   -1.9966   -1.3457 C   0  0  0  0  0  0  0  0  0  0  0  0
   -1.9559   -5.2813    0.4389 C   0  0  0  0  0  0  0  0  0  0  0  0
   -3.8096   -4.2665   -0.9037 C   0  0  0  0  0  0  0  0  0  0  0  0
   -1.9720   -5.4925   -2.0817 C   0  0  0  0  0  0  0  0  0  0  0  0
    3.1995   -1.3650    0.3508 C   0  0  0  0  0  0  0  0  0  0  0  0
    0.2806   -1.1676   -0.0262 C   0  0  0  0  0  0  0  0  0  0  0  0
    2.6951   -2.7636    0.6228 C   0  0  0  0  0  0  0  0  0  0  0  0
    2.4519   -0.1752    0.1816 C   0  0  0  0  0  0  0  0  0  0  0  0
    4.5978   -1.2950    0.2387 C   0  0  0  0  0  0  0  0  0  0  0  0
    3.3873   -3.7952   -0.2503 C   0  0  0  0  0  0  0  0  0  0  0  0
    4.8353   -3.7533    0.1066 C   0  0  0  0  0  0  0  0  0  0  0  0
    3.1176    1.0500    0.0085 C   0  0  0  0  0  0  0  0  0  0  0  0
    5.2458   -0.0726    0.0674 C   0  0  0  0  0  0  0  0  0  0  0  0
    4.5066    1.1037   -0.0364 C   0  0  0  0  0  0  0  0  0  0  0  0
  1 13  1  0
  1 15  1  0
  2  8  1  0
  3 18  2  0
  4  6  1  0
  4  7  1  0
  5 16  1  0
  5 18  1  0
  6  9  1  0
  6 10  1  0
  6 11  1  0
  7  8  1  0
  8 13  1  0
 12 14  1  0
 12 15  2  0
 12 16  1  0
 14 17  1  0
 15 19  1  0
 16 20  2  0
 17 18  1  0
 19 21  2  0
 20 21  1  0
M  END
>  <DRUGBANK_ID>  (1) 
DB00521

>  <SECONDARY_ACCESSION_NUMBERS>  (1) 
APRD00195

>  <COMMON_NAME>  (1) 
Carteolol

>  <CAS_NUMBER>  (1) 
51781-06-7

>  <UNII>  (1) 
8NF31401XG

>  <SYNONYMS>  (1) 
Carteolol; CartÃ©olol; Carteololum

$$$$
