
     RDKit          3D

 37 40  0  0  1  0  0  0  0  0999 V2000
   -3.1524   12.0771    2.1909 C   0  0  0  0  0  0  0  0  0  0  0  0
   -3.1869   10.7075    2.7406 O   0  0  0  0  0  0  0  0  0  0  0  0
   -4.3079    9.9455    3.1325 C   0  0  0  0  0  0  0  0  0  0  0  0
   -5.3928   10.3874    3.2273 O   0  0  0  0  0  0  0  0  0  0  0  0
   -3.7974    8.3152    2.8535 C   0  0  0  0  0  0  0  0  0  0  0  0
   -2.3072    8.1704    3.0974 C   0  0  0  0  0  0  0  0  0  0  0  0
   -1.3061    8.6661    1.8988 C   0  0  0  0  0  0  0  0  0  0  0  0
   -1.4148    8.0322    0.5594 N   0  0  0  0  0  0  0  0  0  0  0  0
   -2.6889    8.1338    0.0336 C   0  0  0  0  0  0  0  0  0  0  0  0
   -3.7028    7.4494    1.5480 C   0  0  0  0  0  0  0  0  0  0  0  0
   -0.5522    7.0779    0.0376 C   0  0  0  0  0  0  0  0  0  0  0  0
    0.4992    6.8241    0.6215 O   0  0  0  0  0  0  0  0  0  0  0  0
   -0.9448    6.2856   -1.2992 C   0  0  2  0  0  0  0  0  0  0  0  0
   -1.6332    4.8432   -1.0673 C   0  0  0  0  0  0  0  0  0  0  0  0
   -3.1996    4.9695   -1.0570 C   0  0  0  0  0  0  0  0  0  0  0  0
   -4.2813    4.2115   -1.2977 C   0  0  0  0  0  0  0  0  0  0  0  0
   -5.6206    4.7360   -0.9525 C   0  0  0  0  0  0  0  0  0  0  0  0
   -5.9683    6.0945   -0.5470 C   0  0  0  0  0  0  0  0  0  0  0  0
   -4.9917    7.0278   -0.5366 C   0  0  0  0  0  0  0  0  0  0  0  0
   -3.7111    6.1653   -0.6074 C   0  0  0  0  0  0  0  0  0  0  0  0
   -5.2875    8.6358    0.3288 C   0  0  0  0  0  0  0  0  0  0  0  0
   -4.3017    9.6588    0.5648 N   0  0  0  0  0  0  0  0  0  0  0  0
   -6.3291    8.6332    1.1126 N   0  0  0  0  0  0  0  0  0  0  0  0
    0.2037    6.3060   -2.2463 N   0  0  0  0  0  0  0  0  0  0  0  0
    0.7024    7.8981   -2.7949 S   0  0  0  0  0  0  0  0  0  0  0  0
    0.9256    8.7072   -1.5746 O   0  0  0  0  0  0  0  0  0  0  0  0
    1.7412    7.6837   -3.7242 O   0  0  0  0  0  0  0  0  0  0  0  0
   -0.7145    8.6900   -3.6363 C   0  0  0  0  0  0  0  0  0  0  0  0
   -1.7396    7.8861   -4.1023 C   0  0  0  0  0  0  0  0  0  0  0  0
   -2.8257    8.4784   -4.7446 C   0  0  0  0  0  0  0  0  0  0  0  0
   -2.8874    9.8621   -5.0121 C   0  0  0  0  0  0  0  0  0  0  0  0
   -3.7427   10.3725   -5.9972 C   0  0  0  0  0  0  0  0  0  0  0  0
   -3.6534   11.7119   -6.3930 C   0  0  0  0  0  0  0  0  0  0  0  0
   -3.9285   12.4968   -5.3512 C   0  0  0  0  0  0  0  0  0  0  0  0
   -2.9450   12.1368   -4.3638 C   0  0  0  0  0  0  0  0  0  0  0  0
   -2.1476   10.7790   -4.3100 C   0  0  0  0  0  0  0  0  0  0  0  0
   -0.9001   10.1177   -3.7191 C   0  0  0  0  0  0  0  0  0  0  0  0
  1  2  1  0
  2  3  1  0
  3  4  2  0
  3  5  1  0
  5  6  1  0
  5 10  1  0
  6  7  1  0
  7  8  1  0
  8  9  1  0
  8 11  1  0
  9 10  1  0
 11 12  2  0
 13 24  1  0
 13 14  1  1
 13 11  1  0
 14 15  1  0
 15 16  2  0
 15 20  1  0
 16 17  1  0
 17 18  2  0
 18 19  1  0
 19 20  2  0
 19 21  1  0
 21 22  1  0
 21 23  2  0
 24 25  1  0
 25 26  2  0
 25 27  2  0
 25 28  1  0
 28 29  2  0
 28 37  1  0
 29 30  1  0
 30 31  2  0
 31 32  1  0
 31 36  1  0
 32 33  2  0
 33 34  1  0
 34 35  2  0
 35 36  1  0
 36 37  2  0
M  END
>  <DRUGBANK_ID>  (1) 
DB01745

>  <SECONDARY_ACCESSION_NUMBERS>  (1) 
EXPT01410

>  <COMMON_NAME>  (1) 
N-Alpha-(2-Naphthylsulfonyl)-N(3-Amidino-L-Phenylalaninyl)Isopipecolinic Acid Methyl Ester

$$$$
