HMDB02269.mol
     RDKit          3D

 27 28  0  0  0  0  0  0  0  0999 V2000
    0.1600   -1.2361    0.0095 C   0  0  0  0  0  0  0  0  0  0  0  0
    0.9341   -0.0756    0.0116 C   0  0  0  0  0  0  0  0  0  0  0  0
    0.3165    1.1767    0.0178 C   0  0  0  0  0  0  0  0  0  0  0  0
   -1.0870    1.2408    0.0033 C   0  0  0  0  0  0  0  0  0  0  0  0
   -1.8916    0.0892   -0.0113 C   0  0  0  0  0  0  0  0  0  0  0  0
   -1.2412   -1.1540   -0.0017 C   0  0  0  0  0  0  0  0  0  0  0  0
    2.2963   -0.1890    0.0066 O   0  0  0  0  0  0  0  0  0  0  0  0
    0.9203    2.4092    0.0379 O   0  0  0  0  0  0  0  0  0  0  0  0
   -3.3733    0.1484   -0.0379 C   0  0  0  0  0  0  0  0  0  0  0  0
   -4.0986    1.2817   -0.0589 C   0  0  0  0  0  0  0  0  0  0  0  0
   -5.5923    1.2762   -0.0959 C   0  0  0  0  0  0  0  0  0  0  0  0
   -6.2978    2.6120   -0.1481 C   0  0  0  0  0  0  0  0  0  0  0  0
   -6.2287    0.2208   -0.0599 O   0  0  0  0  0  0  0  0  0  0  0  0
   -7.1265    2.7603   -1.4015 C   0  0  0  0  0  0  0  0  0  0  0  0
   -8.6015    2.9504   -1.2511 C   0  0  0  0  0  0  0  0  0  0  0  0
   -6.5963    2.7525   -2.5139 O   0  0  0  0  0  0  0  0  0  0  0  0
   -9.3995    3.0521   -2.3285 C   0  0  0  0  0  0  0  0  0  0  0  0
  -10.8596    3.2285   -2.2373 C   0  0  0  0  0  0  0  0  0  0  0  0
  -11.4243    4.1645   -1.3555 C   0  0  0  0  0  0  0  0  0  0  0  0
  -12.8118    4.3300   -1.2685 C   0  0  0  0  0  0  0  0  0  0  0  0
  -13.6361    3.5444   -2.0796 C   0  0  0  0  0  0  0  0  0  0  0  0
  -13.0971    2.6309   -2.9772 C   0  0  0  0  0  0  0  0  0  0  0  0
  -11.7090    2.4822   -3.0647 C   0  0  0  0  0  0  0  0  0  0  0  0
  -13.4560    5.2135   -0.4384 O   0  0  0  0  0  0  0  0  0  0  0  0
  -14.9994    3.6495   -2.0172 O   0  0  0  0  0  0  0  0  0  0  0  0
    2.3424    2.4300    0.0646 C   0  0  0  0  0  0  0  0  0  0  0  0
  -12.6154    6.0350    0.3682 C   0  0  0  0  0  0  0  0  0  0  0  0
  1  2  2  0
  1  6  1  0
  2  3  1  0
  2  7  1  0
  3  4  2  0
  3  8  1  0
  4  5  1  0
  5  6  2  0
  5  9  1  0
  8 26  1  0
  9 10  2  0
 10 11  1  0
 11 12  1  0
 11 13  2  0
 12 14  1  0
 14 15  1  0
 14 16  2  0
 15 17  2  0
 17 18  1  0
 18 19  2  0
 18 23  1  0
 19 20  1  0
 20 21  2  0
 20 24  1  0
 21 22  1  0
 21 25  1  0
 22 23  2  0
 24 27  1  0
M  END
>  <DRUGBANK_ID>  (1) 
DB11672

>  <COMMON_NAME>  (1) 
Curcumin

>  <CAS_NUMBER>  (1) 
458-37-7

>  <UNII>  (1) 
IT942ZTH98

>  <SYNONYMS>  (1) 
Curcumin; Diferuloylmethane

$$$$
