
     RDKit          3D

 16 17  0  0  0  0  0  0  0  0999 V2000
    1.0986   -0.0086    0.1063 C   0  0  0  0  0  0  0  0  0  0  0  0
    0.3081    1.0275   -0.3333 N   0  0  0  0  0  0  0  0  0  0  0  0
   -3.2053    0.6123    0.7368 C   0  0  0  0  0  0  0  0  0  0  0  0
    0.4592   -1.1827    0.4353 N   0  0  0  0  0  0  0  0  0  0  0  0
   -1.0901    1.1123   -0.3217 C   0  0  0  0  0  0  0  0  0  0  0  0
   -3.8760    1.0797   -0.3895 C   0  0  0  0  0  0  0  0  0  0  0  0
    1.0850   -2.3427    0.9310 C   0  0  0  0  0  0  0  0  0  0  0  0
   -1.7596    1.6383   -1.4286 C   0  0  0  0  0  0  0  0  0  0  0  0
    2.1907   -4.6649    2.0420 C   0  0  0  0  0  0  0  0  0  0  0  0
    0.5474   -3.5984    0.6222 C   0  0  0  0  0  0  0  0  0  0  0  0
    2.7281   -3.4167    2.3481 C   0  0  0  0  0  0  0  0  0  0  0  0
   -1.8165    0.6426    0.7734 C   0  0  0  0  0  0  0  0  0  0  0  0
    2.3253    0.1415    0.0764 O   0  0  0  0  0  0  0  0  0  0  0  0
    2.1799   -2.2608    1.7905 C   0  0  0  0  0  0  0  0  0  0  0  0
    1.0922   -4.7563    1.1888 C   0  0  0  0  0  0  0  0  0  0  0  0
   -3.1552    1.5718   -1.4796 C   0  0  0  0  0  0  0  0  0  0  0  0
  2  1  1  0
  4  1  1  0
  5  2  1  0
  5 12  2  0
  6  3  2  0
  7  4  1  0
  8  5  1  0
  8 16  2  0
 10  7  1  0
 11  9  2  0
 11 14  1  0
 12  3  1  0
 13  1  2  0
 14  7  2  0
 15  9  1  0
 15 10  2  0
 16  6  1  0
M  END
>  <DRUGBANK_ID>  (1) 
DB07496

>  <COMMON_NAME>  (1) 
1,3-diphenylurea

>  <CAS_NUMBER>  (1) 
102-07-8

>  <UNII>  (1) 
94YD8RMX5B

>  <SYNONYMS>  (1) 
Carbanilide; Diphenylcarbamide; Diphenylurea; N-phenyl-N'-phenylurea; N,N'-diphenylurea; s-diphenylurea; sym-diphenylurea

$$$$
