
     RDKit          3D

 15 16  0  0  0  0  0  0  0  0999 V2000
    1.1827   -0.1662   -0.3739 O   0  0  0  0  0  0  0  0  0  0  0  0
    4.6008   -3.1798    1.4186 O   0  0  0  0  0  0  0  0  0  0  0  0
    3.9402    1.4678    0.9715 N   0  0  0  0  0  0  0  0  0  0  0  0
    3.1819   -1.1016    0.2694 N   0  0  0  0  0  0  0  0  0  0  0  0
    5.4524    0.5005    2.6053 N   0  0  0  0  0  0  0  0  0  0  0  0
    5.8545   -1.8105    2.7737 N   0  0  0  0  0  0  0  0  0  0  0  0
    7.0150   -0.3205    4.0652 N   0  0  0  0  0  0  0  0  0  0  0  0
    3.2033    1.2583   -0.2945 C   0  0  0  0  0  0  0  0  0  0  0  0
    2.3806   -0.0485   -0.1436 C   0  0  0  0  0  0  0  0  0  0  0  0
    4.5263    0.3772    1.6049 C   0  0  0  0  0  0  0  0  0  0  0  0
    4.2381    1.0073   -1.4167 C   0  0  0  0  0  0  0  0  0  0  0  0
    2.3392    2.4448   -0.6977 C   0  0  0  0  0  0  0  0  0  0  0  0
    4.1949   -0.8753    1.1957 C   0  0  0  0  0  0  0  0  0  0  0  0
    4.8997   -2.0467    1.8104 C   0  0  0  0  0  0  0  0  0  0  0  0
    6.0863   -0.5842    3.1231 C   0  0  0  0  0  0  0  0  0  0  0  0
  1  9  2  0
  2 14  2  0
  3  8  1  0
  3 10  1  0
  4  9  1  0
  4 13  1  0
  5 10  1  0
  5 15  1  0
  6 14  1  0
  6 15  2  0
  7 15  1  0
  8  9  1  0
  8 11  1  0
  8 12  1  0
 10 13  2  0
 13 14  1  0
M  END
>  <DRUGBANK_ID>  (1) 
DB02278

>  <SECONDARY_ACCESSION_NUMBERS>  (1) 
EXPT02803

>  <COMMON_NAME>  (1) 
7,8-dihydro-7,7-dimethyl-6-hydroxypterin

$$$$
