
     RDKit          3D

 15 16  0  0  0  0  0  0  0  0999 V2000
    0.8199    0.0080    0.0720 O   0  0  0  0  0  0  0  0  0  0  0  0
    0.2665    0.7641   -0.8978 C   0  0  0  0  0  0  0  0  0  0  0  0
    0.9461    1.3665   -1.7093 O   0  0  0  0  0  0  0  0  0  0  0  0
   -1.2101    0.7267   -0.8515 C   0  0  0  0  0  0  0  0  0  0  0  0
   -1.9194    0.7729    0.3499 C   0  0  0  0  0  0  0  0  0  0  0  0
   -1.3202    0.8258    1.5799 O   0  0  0  0  0  0  0  0  0  0  0  0
   -3.3160    0.8027    0.3393 C   0  0  0  0  0  0  0  0  0  0  0  0
   -4.0349    0.7699   -0.8708 C   0  0  0  0  0  0  0  0  0  0  0  0
   -5.4439    0.7896   -0.8969 C   0  0  0  0  0  0  0  0  0  0  0  0
   -6.1477    0.7578   -2.1059 C   0  0  0  0  0  0  0  0  0  0  0  0
   -5.4408    0.7101   -3.2993 C   0  0  0  0  0  0  0  0  0  0  0  0
   -6.0739    0.6872   -4.5082 O   0  0  0  0  0  0  0  0  0  0  0  0
   -4.0473    0.6858   -3.2997 C   0  0  0  0  0  0  0  0  0  0  0  0
   -3.3240    0.7176   -2.0921 C   0  0  0  0  0  0  0  0  0  0  0  0
   -1.9138    0.7060   -2.0666 C   0  0  0  0  0  0  0  0  0  0  0  0
  1  2  1  0
  2  3  2  0
  2  4  1  0
  4  5  2  0
  4 15  1  0
  5  6  1  0
  5  7  1  0
  7  8  2  0
  8  9  1  0
  8 14  1  0
  9 10  2  0
 10 11  1  0
 11 12  1  0
 11 13  2  0
 13 14  1  0
 14 15  2  0
M  END
>  <DRUGBANK_ID>  (1) 
DB04641

>  <COMMON_NAME>  (1) 
3,7-DIHYDROXYNAPHTHALENE-2-CARBOXYLIC ACID

$$$$
