
     RDKit          3D

 11 10  0  0  1  0  0  0  0  0999 V2000
    0.7403   -0.8420    0.2393 C   0  0  0  0  0  0  0  0  0  0  0  0
    2.5235   -0.8708    0.1182 S   0  0  1  0  0  0  0  0  0  0  0  0
    2.9770   -0.0320    1.2122 O   0  0  0  0  0  0  0  0  0  0  0  0
    2.9590   -2.3374   -0.0485 N   0  0  0  0  0  0  0  0  0  0  0  0
    2.9978   -0.0070   -1.3965 C   0  0  0  0  0  0  0  0  0  0  0  0
    2.5269   -0.6371   -2.7114 C   0  0  0  0  0  0  0  0  0  0  0  0
    1.0026   -0.5742   -2.8609 C   0  0  2  0  0  0  0  0  0  0  0  0
    0.4182   -1.9192   -2.7454 N   0  0  0  0  0  0  0  0  0  0  0  0
    0.5320    0.0643   -4.1651 C   0  0  0  0  0  0  0  0  0  0  0  0
   -0.2554    1.1504   -3.9942 O   0  0  0  0  0  0  0  0  0  0  0  0
    0.7641   -0.4088   -5.2741 O   0  0  0  0  0  0  0  0  0  0  0  0
  2  1  1  6
  2  3  1  0
  2  4  2  0
  2  5  1  0
  5  6  1  0
  7  9  1  0
  7  8  1  6
  7  6  1  0
  9 10  1  0
  9 11  2  0
M  CHG  2   2   1   3  -1
M  END
>  <DRUGBANK_ID>  (1) 
DB18529

>  <COMMON_NAME>  (1) 
Methionine sulfoximine, (S)-

>  <CAS_NUMBER>  (1) 
21752-32-9

>  <UNII>  (1) 
DE3D2PZ3TT

>  <SYNONYMS>  (1) 
(2s)-2-amino-4-((s(s))-s-methylsulfonimidoyl)butanoic acid; Butanoic acid, 2-amino-4-((s(s))-s-methylsulfonimidoyl)-, (2s)-; L-methionine-(s)-sulfoximine; L-S-(3-Amino-3-carboxypropyl)-S-methylsulfoximine

$$$$
