
     RDKit          3D

 34 38  0  0  1  0  0  0  0  0999 V2000
   -5.7892    3.5087   -2.9657 C   0  0  0  0  0  0  0  0  0  0  0  0
   -6.0597    2.1432   -2.8560 C   0  0  0  0  0  0  0  0  0  0  0  0
   -5.2953    4.1717   -1.8663 C   0  0  0  0  0  0  0  0  0  0  0  0
   -5.7273    1.4165   -1.6859 C   0  0  0  0  0  0  0  0  0  0  0  0
   -5.0949    3.4605   -0.6861 C   0  0  0  0  0  0  0  0  0  0  0  0
   -1.5928    3.6484   -1.7580 C   0  0  0  0  0  0  0  0  0  0  0  0
    0.4771    4.8561   -1.6020 C   0  0  0  0  0  0  0  0  0  0  0  0
   -0.7453    0.2098    5.3774 C   0  0  0  0  0  0  0  0  0  0  0  0
   -0.8935   -1.4082    3.5994 C   0  0  0  0  0  0  0  0  0  0  0  0
   -0.9671    2.5974   -2.4096 C   0  0  0  0  0  0  0  0  0  0  0  0
    1.1141    3.8129   -2.2771 C   0  0  0  0  0  0  0  0  0  0  0  0
   -0.0229   -0.7073    6.1619 C   0  0  0  0  0  0  0  0  0  0  0  0
   -0.1424   -2.3089    4.3649 C   0  0  0  0  0  0  0  0  0  0  0  0
   -4.7627    1.3969    0.7478 C   0  0  0  0  0  0  0  0  0  0  0  0
   -1.5008    5.6763   -0.2532 C   0  0  0  0  0  0  0  0  0  0  0  0
   -0.9683    1.9808    2.8954 C   0  0  0  0  0  0  0  0  0  0  0  0
   -5.1736    2.0685   -0.5769 C   0  0  0  0  0  0  0  0  0  0  0  0
   -0.8678    4.7337   -1.2545 C   0  0  0  0  0  0  0  0  0  0  0  0
   -1.1746   -0.1213    4.0735 C   0  0  0  0  0  0  0  0  0  0  0  0
    0.3930    2.6809   -2.6596 C   0  0  0  0  0  0  0  0  0  0  0  0
    0.2779   -1.9603    5.6422 C   0  0  0  0  0  0  0  0  0  0  0  0
   -3.2368    1.4247    1.1731 C   0  0  1  0  0  0  0  0  0  0  0  0
   -1.7246    0.8867    3.1292 C   0  0  0  0  0  0  0  0  0  0  0  0
   -2.5481    2.8257    1.3180 C   0  0  0  0  0  0  0  0  0  0  0  0
   -0.8662    4.2012    1.8272 C   0  0  0  0  0  0  0  0  0  0  0  0
   -1.9661    4.9960    1.0741 C   0  0  2  0  0  0  0  0  0  0  0  0
    1.2466    1.2688   -3.5743 Br  0  0  0  0  0  0  0  0  0  0  0  0
   -2.9319    0.6820    2.4449 N   0  0  0  0  0  0  0  0  0  0  0  0
   -2.9145    3.9106    0.7320 N   0  0  0  0  0  0  0  0  0  0  0  0
   -1.4188    2.9487    2.0423 N   0  0  0  0  0  0  0  0  0  0  0  0
    0.9763   -2.8917    6.3529 O   0  0  0  0  0  0  0  0  0  0  0  0
    0.2289    4.5995    2.1713 O   0  0  0  0  0  0  0  0  0  0  0  0
   -1.9277    7.2193    1.8853 O   0  0  0  0  0  0  0  0  0  0  0  0
   -2.6046    5.9334    1.9638 O   0  0  0  0  0  0  0  0  0  0  0  0
  2  1  2  0
  3  1  1  0
  4  2  1  0
  5  3  2  0
 10  6  2  0
 11  7  1  0
 12  8  2  0
 13  9  1  0
 17  4  2  0
 17  5  1  0
 17 14  1  0
 18  6  1  0
 18  7  2  0
 18 15  1  0
 19  8  1  0
 19  9  2  0
 20 10  1  0
 20 11  2  0
 21 12  1  0
 21 13  2  0
 22 14  1  1
 23 16  2  0
 23 19  1  0
 24 22  1  0
 26 25  1  0
 26 34  1  0
 26 15  1  6
 27 20  1  0
 28 22  1  0
 28 23  1  0
 29 24  2  0
 29 26  1  0
 30 16  1  0
 30 24  1  0
 30 25  1  0
 31 21  1  0
 32 25  2  0
 34 33  1  0
M  END
>  <DRUGBANK_ID>  (1) 
DB02006

>  <SECONDARY_ACCESSION_NUMBERS>  (1) 
EXPT01084

>  <COMMON_NAME>  (1) 
Br-Coeleneterazine

$$$$
