
     RDKit          3D

  8  7  0  0  0  0  0  0  0  0999 V2000
    2.5134   -0.1055   -0.0552 P   0  0  0  0  0  0  0  0  0  0  0  0
    3.9018   -0.1902   -0.6361 O   0  0  0  0  0  0  0  0  0  0  0  0
    2.3839    1.1494    0.9735 O   0  0  0  0  0  0  0  0  0  0  0  0
    2.3275    2.4451    0.3697 C   0  0  0  0  0  0  0  0  0  0  0  0
    2.2469   -1.4011    0.8741 O   0  0  0  0  0  0  0  0  0  0  0  0
    0.9557   -1.9790    0.8108 C   0  0  0  0  0  0  0  0  0  0  0  0
    3.5340    2.7174   -0.5149 C   0  0  0  0  0  0  0  0  0  0  0  0
    0.0967   -1.2020    1.7744 C   0  0  0  0  0  0  0  0  0  0  0  0
  1  5  1  0
  1  2  2  0
  3  1  1  0
  3  4  1  0
  4  7  1  0
  5  6  1  0
  6  8  1  0
M  END
>  <DRUGBANK_ID>  (1) 
DB02811

>  <SECONDARY_ACCESSION_NUMBERS>  (1) 
EXPT01161

>  <COMMON_NAME>  (1) 
Diethyl phosphonate

>  <CAS_NUMBER>  (1) 
762-04-9

>  <UNII>  (1) 
U9X9YBA22W

>  <SYNONYMS>  (1) 
Diethyl acid phosphite; Diethyl hydrogen phosphite; Diethyl phosphite; Hydrogen diethyl phosphite; O,O-Diethyl phosphonate; Phosphonic acid diethyl ester; Phosphorous acid, diethyl ester

$$$$
