
     RDKit          3D

 25 31  0  0  0  0  0  0  0  0999 V2000
    0.6334   -0.8414    0.2281 C   0  0  1  0  0  0  0  0  0  0  0  0
   -0.1568    0.4966    0.3599 C   0  0  2  0  0  0  0  0  0  0  0  0
    0.0934   -1.8470   -0.8195 C   0  0  1  0  0  0  0  0  0  0  0  0
    2.0289   -0.3304   -0.0115 C   0  0  0  0  0  0  0  0  0  0  0  0
    0.6437   -1.6434    1.5566 C   0  0  0  0  0  0  0  0  0  0  0  0
   -1.0600    0.8521   -0.8188 C   0  0  1  0  0  0  0  0  0  0  0  0
    0.8248    1.5697    0.4578 N   0  0  0  0  0  0  0  0  0  0  0  0
   -0.6598   -2.8327   -0.0199 N   0  0  0  0  0  0  0  0  0  0  0  0
   -0.7935   -1.2947   -1.9214 C   0  0  0  0  0  0  0  0  0  0  0  0
    2.1057    1.0461    0.2226 C   0  0  0  0  0  0  0  0  0  0  0  0
    3.1586   -1.0818   -0.3124 C   0  0  0  0  0  0  0  0  0  0  0  0
    0.2108   -3.0443    1.1476 C   0  0  0  0  0  0  0  0  0  0  0  0
   -1.8300   -0.3874   -1.2904 C   0  0  1  0  0  0  0  0  0  0  0  0
   -1.8872    2.0839   -0.4298 C   0  0  2  0  0  0  0  0  0  0  0  0
    0.4569    2.8924    0.5258 C   0  0  0  0  0  0  0  0  0  0  0  0
   -2.0043   -2.3929    0.4002 C   0  0  0  0  0  0  0  0  0  0  0  0
    3.3177    1.7025    0.1497 C   0  0  0  0  0  0  0  0  0  0  0  0
    4.3851   -0.4307   -0.3728 C   0  0  0  0  0  0  0  0  0  0  0  0
   -2.5372   -1.0852   -0.1475 C   0  0  0  0  0  0  0  0  0  0  0  0
   -0.9744    3.2250    0.0741 C   0  0  0  0  0  0  0  0  0  0  0  0
   -2.8895    1.8312    0.5675 O   0  0  0  0  0  0  0  0  0  0  0  0
    1.2259    3.8103    0.8300 O   0  0  0  0  0  0  0  0  0  0  0  0
    4.4638    0.9502   -0.1383 C   0  0  0  0  0  0  0  0  0  0  0  0
   -3.5272   -0.4390    0.4983 C   0  0  0  0  0  0  0  0  0  0  0  0
   -3.9321    0.9517    0.1394 C   0  0  0  0  0  0  0  0  0  0  0  0
  1  2  1  0
  1  3  1  0
  1  4  1  0
  1  5  1  1
  2  6  1  0
  2  7  1  6
  3  8  1  0
  3  9  1  6
  4 10  2  0
  4 11  1  0
  5 12  1  0
  6 13  1  0
  6 14  1  1
  7 15  1  0
  7 10  1  0
  8 16  1  0
  8 12  1  0
 13  9  1  1
 10 17  1  0
 11 18  2  0
 13 19  1  0
 14 20  1  1
 14 21  1  0
 15 22  2  0
 15 20  1  0
 16 19  1  0
 17 23  2  0
 18 23  1  0
 19 24  2  0
 21 25  1  0
 24 25  1  0
M  END
>  <DRUGBANK_ID>  (1) 
DB15954

>  <COMMON_NAME>  (1) 
Strychnine

>  <CAS_NUMBER>  (1) 
57-24-9

>  <UNII>  (1) 
H9Y79VD43J

>  <SYNONYMS>  (1) 
Stricnina; Strychnidin-10-one; Strychnin

$$$$
