454
     RDKit          3D

 18 19  0  0  0  0  0  0  0  0999 V2000
    0.9123    0.0896   -0.0210 O   0  0  0  0  0  0  0  0  0  0  0  0
    0.9870    2.2953   -0.6167 O   0  0  0  0  0  0  0  0  0  0  0  0
   -1.7683    2.0129    2.4932 N   0  0  0  0  0  0  0  0  0  0  0  0
   -1.2210    1.2480   -0.2933 C   0  0  0  0  0  0  0  0  0  0  0  0
   -1.7402    2.6526    0.1090 C   0  0  0  0  0  0  0  0  0  0  0  0
   -1.7159    0.2562    0.7823 C   0  0  0  0  0  0  0  0  0  0  0  0
   -1.3068    3.0151    1.5262 C   0  0  0  0  0  0  0  0  0  0  0  0
   -1.2750    0.6703    2.1747 C   0  0  0  0  0  0  0  0  0  0  0  0
   -1.7599    0.9027   -1.6862 C   0  0  0  0  0  0  0  0  0  0  0  0
    0.3355    1.2883   -0.3323 C   0  0  0  0  0  0  0  0  0  0  0  0
   -1.3190    2.3824    3.8334 C   0  0  0  0  0  0  0  0  0  0  0  0
   -1.4042    1.7083   -2.7808 C   0  0  0  0  0  0  0  0  0  0  0  0
   -2.5895   -0.2066   -1.9228 C   0  0  0  0  0  0  0  0  0  0  0  0
   -1.8321    1.3940   -4.0669 C   0  0  0  0  0  0  0  0  0  0  0  0
   -2.9700   -0.5519   -3.2158 C   0  0  0  0  0  0  0  0  0  0  0  0
   -2.6076    0.2594   -4.2843 C   0  0  0  0  0  0  0  0  0  0  0  0
    2.3500    0.1113    0.0063 C   0  0  0  0  0  0  0  0  0  0  0  0
    2.8670   -1.2642    0.3903 C   0  0  0  0  0  0  0  0  0  0  0  0
  1 10  1  0
  1 17  1  0
  2 10  2  0
  3  7  1  0
  3  8  1  0
  3 11  1  0
  4  5  1  0
  4  6  1  0
  4  9  1  0
  4 10  1  0
  5  7  1  0
  6  8  1  0
  9 12  2  0
  9 13  1  0
 12 14  1  0
 13 15  2  0
 14 16  2  0
 15 16  1  0
 17 18  1  0
M  END
>  <DRUGBANK_ID>  (1) 
DB00454

>  <SECONDARY_ACCESSION_NUMBERS>  (1) 
APRD00074

>  <COMMON_NAME>  (1) 
Meperidine

>  <CAS_NUMBER>  (1) 
57-42-1

>  <UNII>  (1) 
9E338QE28F

>  <SYNONYMS>  (1) 
Isonipecaïne; Meperidina; Pethidin; Pethidine; Péthidine; Pethidinum; Petidina; Petydyna

$$$$
