
     RDKit          3D

 16 15  0  0  1  0  0  0  0  0999 V2000
    0.9770    0.0914   -0.0487 C   0  0  2  0  0  0  0  0  0  0  0  0
    0.5361    1.0425    1.0046 N   0  0  0  0  0  0  0  0  0  0  0  0
    0.6869    0.5450   -1.5106 C   0  0  0  0  0  0  0  0  0  0  0  0
    0.5478   -1.3510    0.2597 C   0  0  0  0  0  0  0  0  0  0  0  0
   -0.3816    2.0318    0.7479 C   0  0  0  0  0  0  0  0  0  0  0  0
   -0.1960   -0.2108   -2.2125 O   0  0  0  0  0  0  0  0  0  0  0  0
    1.2059    1.5346   -2.0160 O   0  0  0  0  0  0  0  0  0  0  0  0
    1.2136   -2.6199   -0.8929 S   0  0  0  0  0  0  0  0  0  0  0  0
   -0.7097    2.9988    1.8655 C   0  0  0  0  0  0  0  0  0  0  0  0
   -0.9253    2.1453   -0.3445 O   0  0  0  0  0  0  0  0  0  0  0  0
   -0.2978    4.4446    1.5274 C   0  0  0  0  0  0  0  0  0  0  0  0
   -0.8541    4.9951    0.1927 C   0  0  1  0  0  0  0  0  0  0  0  0
   -2.4042    4.9633    0.1570 C   0  0  0  0  0  0  0  0  0  0  0  0
   -0.3334    6.3667   -0.0261 N   0  0  0  0  0  0  0  0  0  0  0  0
   -2.9929    6.1660   -0.0456 O   0  0  0  0  0  0  0  0  0  0  0  0
   -3.0943    3.9637    0.3326 O   0  0  0  0  0  0  0  0  0  0  0  0
  1  2  1  0
  1  3  1  0
  1  4  1  1
  2  5  1  0
  3  6  1  0
  3  7  2  0
  4  8  1  0
  5  9  1  0
  5 10  2  0
  9 11  1  0
 11 12  1  0
 12 13  1  0
 12 14  1  1
 13 15  1  0
 13 16  2  0
M  END
>  <DRUGBANK_ID>  (1) 
DB03408

>  <SECONDARY_ACCESSION_NUMBERS>  (1) 
EXPT00168

>  <COMMON_NAME>  (1) 
gamma-Glutamylcysteine

>  <CAS_NUMBER>  (1) 
636-58-8

>  <UNII>  (1) 
M984VJS48P

>  <SYNONYMS>  (1) 
5-L-Glutamyl-L-cysteine; gamma-Glu-Cys; gamma-L-Glutamyl-L-cysteine; Glu(-Cys); L-gamma-glutamyl-L-cysteine; L-gamma-Glutamylcysteine; Î³GluCys

$$$$
