
     RDKit          3D

 16 15  0  0  0  0  0  0  0  0999 V2000
    1.0671   -0.0610    0.0421 H   0  0  0  0  0  0  0  0  0  0  0  0
    2.1371   -0.0610    0.0421 C   0  0  0  0  0  0  0  0  0  0  0  0
    2.4938    0.1182    1.0348 H   0  0  0  0  0  0  0  0  0  0  0  0
    2.4938   -1.0103   -0.2991 H   0  0  0  0  0  0  0  0  0  0  0  0
    2.6271    0.9971   -0.8530 N   0  0  0  0  0  0  0  0  0  0  0  0
    2.1371    0.7509   -2.2169 C   0  0  0  0  0  0  0  0  0  0  0  0
    0.6171    0.7509   -2.2169 C   0  0  0  0  0  0  0  0  0  0  0  0
    0.1438    2.0108   -1.7641 O   0  0  0  0  0  0  0  0  0  0  0  0
    2.1371    2.3013   -0.3843 C   0  0  0  0  0  0  0  0  0  0  0  0
    2.4938    2.4805    0.6085 H   0  0  0  0  0  0  0  0  0  0  0  0
    2.4938    3.0715   -1.0358 H   0  0  0  0  0  0  0  0  0  0  0  0
    1.0671    2.3013   -0.3843 H   0  0  0  0  0  0  0  0  0  0  0  0
    4.0971    0.9971   -0.8530 C   0  0  0  0  0  0  0  0  0  0  0  0
    4.4538    1.1763    0.1397 H   0  0  0  0  0  0  0  0  0  0  0  0
    4.4538    0.0477   -1.1943 H   0  0  0  0  0  0  0  0  0  0  0  0
    4.4538    1.7673   -1.5046 H   0  0  0  0  0  0  0  0  0  0  0  0
  1  2  1  0
  2  3  1  0
  2  4  1  0
  2  5  1  0
  5  6  1  0
  5  9  1  0
  5 13  1  0
  6  7  1  0
  7  8  1  0
  9 10  1  0
  9 11  1  0
  9 12  1  0
 13 14  1  0
 13 15  1  0
 13 16  1  0
M  ISO  8   1   2   3   2   4   2  10   2  11   2  12   2  14   2  15   2
M  CHG  1   5   1
M  ISO  1  16   2
M  END
>  <DRUGBANK_ID>  (1) 
DB12628

>  <COMMON_NAME>  (1) 
Methyl-D9-choline

>  <CAS_NUMBER>  (1) 
50673-41-1

>  <UNII>  (1) 
Y1HDI47S6K

$$$$
