
     RDKit          3D

 30 33  0  0  0  0  0  0  0  0999 V2000
    1.4959    0.2934   -0.1011 C   0  0  0  0  0  0  0  0  0  0  0  0
    0.6403    1.8415   -0.3322 C   0  0  0  0  0  0  0  0  0  0  0  0
   -1.0728    1.8590    0.1157 C   0  0  0  0  0  0  0  0  0  0  0  0
   -1.9189    0.4494    0.7819 N   0  0  0  0  0  0  0  0  0  0  0  0
   -1.1264   -1.1080    1.0430 C   0  0  0  0  0  0  0  0  0  0  0  0
    0.5681   -1.3646    0.7322 C   0  0  0  0  0  0  0  0  0  0  0  0
   -1.7953   -2.2709    0.7231 N   0  0  0  0  0  0  0  0  0  0  0  0
   -3.0708   -2.3491    0.2789 C   0  0  0  0  0  0  0  0  0  0  0  0
   -3.6070   -1.9206   -0.9242 C   0  0  0  0  0  0  0  0  0  0  0  0
   -4.9489   -2.0977   -1.1000 C   0  0  0  0  0  0  0  0  0  0  0  0
   -5.6411   -2.7821   -0.1144 C   0  0  0  0  0  0  0  0  0  0  0  0
   -4.9844   -3.4125    0.9428 C   0  0  0  0  0  0  0  0  0  0  0  0
   -3.6870   -3.1638    1.1655 C   0  0  0  0  0  0  0  0  0  0  0  0
   -5.6001   -4.3877    1.8433 C   0  0  0  0  0  0  0  0  0  0  0  0
   -4.9887   -5.6004    1.7421 F   0  0  0  0  0  0  0  0  0  0  0  0
   -5.5074   -4.0157    3.1443 F   0  0  0  0  0  0  0  0  0  0  0  0
   -6.9031   -4.5681    1.5489 F   0  0  0  0  0  0  0  0  0  0  0  0
    1.5477   -3.0856    0.8027 C   0  0  0  0  0  0  0  0  0  0  0  0
    1.0949   -4.1684    0.0579 O   0  0  0  0  0  0  0  0  0  0  0  0
    2.7884   -3.3107    0.6635 O   0  0  0  0  0  0  0  0  0  0  0  0
    0.6109   -3.2287   -0.7642 C   0  0  0  0  0  0  0  0  0  0  0  0
    1.8576   -1.7456   -0.7884 C   0  0  0  0  0  0  0  0  0  0  0  0
    0.4890   -1.0559   -1.5044 C   0  0  0  0  0  0  0  0  0  0  0  0
   -0.4902   -1.8615   -2.1761 C   0  0  0  0  0  0  0  0  0  0  0  0
   -0.4294   -3.1319   -1.7321 O   0  0  0  0  0  0  0  0  0  0  0  0
    2.5619   -1.1268    0.9135 C   0  0  0  0  0  0  0  0  0  0  0  0
    1.6727   -0.0039    1.9991 C   0  0  0  0  0  0  0  0  0  0  0  0
    0.1937    0.5477    1.3208 C   0  0  0  0  0  0  0  0  0  0  0  0
   -0.3541   -0.0296   -0.5386 C   0  0  0  0  0  0  0  0  0  0  0  0
   -1.3283   -1.3245   -2.8746 O   0  0  0  0  0  0  0  0  0  0  0  0
  1  2  2  0
  1  6  1  0
  2  3  1  0
  3  4  2  0
  4  5  1  0
  5  6  2  0
  5  7  1  0
  6 18  1  0
  7  8  1  0
  8  9  2  0
  8 13  1  0
  9 10  1  0
 10 11  2  0
 11 12  1  0
 12 13  2  0
 12 14  1  0
 14 15  1  0
 14 16  1  0
 14 17  1  0
 18 19  1  0
 18 20  2  0
 19 21  1  0
 21 22  1  0
 21 25  1  0
 22 23  2  0
 22 26  1  0
 23 24  1  0
 23 29  1  0
 24 25  1  0
 24 30  2  0
 26 27  2  0
 27 28  1  0
 28 29  2  0
M  END
>  <DRUGBANK_ID>  (1) 
DB09295

>  <COMMON_NAME>  (1) 
Talniflumate

>  <CAS_NUMBER>  (1) 
66898-62-2

>  <UNII>  (1) 
JFK78S0U9S

>  <SYNONYMS>  (1) 
Talniflumate; Talniflumato; Talniflumatum

$$$$
