
     RDKit          3D

  5  5  0  0  0  0  0  0  0  0999 V2000
   -0.3236    1.0397    0.0031 C   0  0  0  0  0  0  0  0  0  0  0  0
   -1.1698    0.0357    0.0007 N   0  0  0  0  0  0  0  0  0  0  0  0
   -0.3920   -1.0932   -0.0006 C   0  0  0  0  0  0  0  0  0  0  0  0
    0.9427   -0.7642    0.0025 C   0  0  0  0  0  0  0  0  0  0  0  0
    0.9707    0.6030   -0.0014 N   0  0  0  0  0  0  0  0  0  0  0  0
  1  2  2  0
  2  3  1  0
  3  4  2  0
  4  5  1  0
  5  1  1  0
M  END
>  <DRUGBANK_ID>  (1) 
DB03366

>  <SECONDARY_ACCESSION_NUMBERS>  (1) 
EXPT01865

>  <COMMON_NAME>  (1) 
Imidazole

>  <CAS_NUMBER>  (1) 
288-32-4

>  <UNII>  (1) 
7GBN705NH1

$$$$
