557
     RDKit          3D

 26 28  0  0  1  0  0  0  0  0999 V2000
   -2.2286    0.0428    0.1626 Cl  0  0  0  0  0  0  0  0  0  0  0  0
    4.5644   -1.3738    4.9417 O   0  0  0  0  0  0  0  0  0  0  0  0
    5.1867   -3.0894    2.2766 O   0  0  0  0  0  0  0  0  0  0  0  0
    3.7618   -0.2674    0.7497 N   0  0  0  0  0  0  0  0  0  0  0  0
    1.9564   -1.3677    2.8575 N   0  0  0  0  0  0  0  0  0  0  0  0
    3.3584   -1.6831    0.7705 C   0  0  0  0  0  0  0  0  0  0  0  0
    3.3893    0.6551    1.8192 C   0  0  0  0  0  0  0  0  0  0  0  0
    2.1871   -2.0739    1.6265 C   0  0  0  0  0  0  0  0  0  0  0  0
    2.1428    0.1224    2.6659 C   0  0  0  0  0  0  0  0  0  0  0  0
    3.6969    0.2679   -0.5638 C   0  0  0  0  0  0  0  0  0  0  0  0
    2.3054   -2.1491    4.0702 C   0  0  0  0  0  0  0  0  0  0  0  0
    2.1646    0.2968   -0.8491 C   0  0  0  0  0  0  0  0  0  0  0  0
    4.5559   -0.5458   -1.5133 C   0  0  0  0  0  0  0  0  0  0  0  0
    3.7384   -2.4766    4.6294 C   0  0  0  0  0  0  0  0  0  0  0  0
    1.4794    1.4392   -0.4427 C   0  0  0  0  0  0  0  0  0  0  0  0
    1.4138   -0.9003   -1.0442 C   0  0  0  0  0  0  0  0  0  0  0  0
    4.2861   -0.1955   -2.8512 C   0  0  0  0  0  0  0  0  0  0  0  0
    5.4520   -1.6249   -1.2850 C   0  0  0  0  0  0  0  0  0  0  0  0
    0.1083    1.3673   -0.1959 C   0  0  0  0  0  0  0  0  0  0  0  0
    0.0998   -1.0082   -0.5874 C   0  0  0  0  0  0  0  0  0  0  0  0
    4.7635   -0.9784   -3.8439 C   0  0  0  0  0  0  0  0  0  0  0  0
    5.8923   -2.4471   -2.2888 C   0  0  0  0  0  0  0  0  0  0  0  0
   -0.5633    0.1416   -0.2255 C   0  0  0  0  0  0  0  0  0  0  0  0
    5.5194   -2.1209   -3.6136 C   0  0  0  0  0  0  0  0  0  0  0  0
    4.8910   -0.8055    3.6909 C   0  0  0  0  0  0  0  0  0  0  0  0
    5.5585   -1.6730    2.5169 C   0  0  0  0  0  0  0  0  0  0  0  0
  1 23  1  0
  2 14  1  0
  2 25  1  0
  3 26  1  0
  4  6  1  0
  4  7  1  0
  4 10  1  0
  5  8  1  0
  5  9  1  0
  5 11  1  0
  6  8  1  0
  7  9  1  0
 10 12  1  0
 10 13  1  0
 11 14  1  0
 12 15  2  0
 12 16  1  0
 13 17  2  0
 13 18  1  0
 15 19  1  0
 16 20  2  0
 17 21  1  0
 18 22  2  0
 19 23  2  0
 20 23  1  0
 21 24  2  0
 22 24  1  0
 25 26  1  0
M  END
>  <DRUGBANK_ID>  (1) 
DB00557

>  <SECONDARY_ACCESSION_NUMBERS>  (1) 
APRD00688

>  <COMMON_NAME>  (1) 
Hydroxyzine

>  <CAS_NUMBER>  (1) 
68-88-2

>  <UNII>  (1) 
30S50YM8OG

>  <SYNONYMS>  (1) 
Hidroxizina; Hychotine; Hydroksyzyny; Hydroxine; Hydroxizine; Hydroxizinum; Hydroxycine; Hydroxyzin; Hydroxyzine; Hydroxyzinum; Idrossizina

$$$$
