
     RDKit          3D

 39 42  0  0  0  0  0  0  0  0999 V2000
   -3.2401   -1.9921    6.6992 C   0  0  0  0  0  0  0  0  0  0  0  0
   -3.3276   -3.3249    6.8353 C   0  0  0  0  0  0  0  0  0  0  0  0
   -3.2471   -4.1660    5.7721 N   0  0  0  0  0  0  0  0  0  0  0  0
   -3.1135   -3.5879    4.5446 C   0  0  0  0  0  0  0  0  0  0  0  0
   -3.0426   -2.2828    4.3552 N   0  0  0  0  0  0  0  0  0  0  0  0
   -3.1042   -1.4922    5.4292 C   0  0  0  0  0  0  0  0  0  0  0  0
   -2.8899   -0.1429    5.2630 N   0  0  0  0  0  0  0  0  0  0  0  0
   -3.0309   -4.4131    3.4291 N   0  0  0  0  0  0  0  0  0  0  0  0
   -2.6061   -3.9196    2.1192 C   0  0  0  0  0  0  0  0  0  0  0  0
   -1.2551   -4.4337    1.5645 C   0  0  1  0  0  0  0  0  0  0  0  0
   -0.0579   -4.0939    2.4515 C   0  0  0  0  0  0  0  0  0  0  0  0
   -0.0240   -4.9475    3.7127 C   0  0  0  0  0  0  0  0  0  0  0  0
   -0.1076   -6.4599    3.4108 C   0  0  1  0  0  0  0  0  0  0  0  0
   -1.2407   -6.8342    2.4285 C   0  0  0  0  0  0  0  0  0  0  0  0
   -1.2803   -5.9258    1.2020 C   0  0  0  0  0  0  0  0  0  0  0  0
    1.1939   -6.9626    2.7840 C   0  0  0  0  0  0  0  0  0  0  0  0
    2.3602   -6.7298    3.6264 N   0  0  0  0  0  0  0  0  0  0  0  0
    3.5857   -7.0903    2.9126 C   0  0  0  0  0  0  0  0  0  0  0  0
    3.8398   -6.2872    1.6285 C   0  0  0  0  0  0  0  0  0  0  0  0
    3.8624   -4.7873    1.8657 C   0  0  0  0  0  0  0  0  0  0  0  0
    4.8998   -4.3875    2.8129 N   0  0  0  0  0  0  0  0  0  0  0  0
    4.9274   -2.9420    3.0645 C   0  0  0  0  0  0  0  0  0  0  0  0
    3.5765   -2.2295    2.8626 C   0  0  0  0  0  0  0  0  0  0  0  0
    3.6802   -0.7280    3.0339 C   0  0  0  0  0  0  0  0  0  0  0  0
    4.7498   -0.1635    2.1067 C   0  0  0  0  0  0  0  0  0  0  0  0
    6.1028   -0.8247    2.3511 C   0  0  0  0  0  0  0  0  0  0  0  0
    6.0267   -2.3383    2.1859 C   0  0  0  0  0  0  0  0  0  0  0  0
   -3.2846   -3.7592    8.1639 N   0  0  0  0  0  0  0  0  0  0  0  0
   -4.3966   -3.6556    9.1031 C   0  0  0  0  0  0  0  0  0  0  0  0
   -3.8664   -3.7644   10.5722 C   0  0  0  0  0  0  0  0  0  0  0  0
   -2.8795   -4.8173   10.9098 N   0  0  0  0  0  0  0  0  0  0  0  0
   -1.6404   -4.5828   10.0968 C   0  0  0  0  0  0  0  0  0  0  0  0
   -1.9434   -4.1097    8.6468 C   0  0  0  0  0  0  0  0  0  0  0  0
   -3.4777   -6.1790   10.8405 C   0  0  0  0  0  0  0  0  0  0  0  0
   -4.1330   -6.6514    9.5205 C   0  0  0  0  0  0  0  0  0  0  0  0
   -2.8501   -6.6922    8.2161 P   0  0  0  0  0  0  0  0  0  0  0  0
   -2.0692   -7.7752    8.9690 O   0  0  0  0  0  0  0  0  0  0  0  0
   -3.8490   -7.5036    7.1979 O   0  0  0  0  0  0  0  0  0  0  0  0
   -1.6373   -6.7306    6.9830 O   0  0  0  0  0  0  0  0  0  0  0  0
  1  2  2  0
  1  6  1  0
  2  3  1  0
  2 28  1  0
  3  4  2  0
  4  5  1  0
  4  8  1  0
  5  6  2  0
  6  7  1  0
  8  9  1  0
 10 11  1  0
 10 15  1  0
 10  9  1  1
 11 12  1  0
 12 13  1  0
 13 14  1  0
 13 16  1  6
 14 15  1  0
 16 17  1  0
 17 18  1  0
 18 19  1  0
 19 20  1  0
 20 21  1  0
 21 22  1  0
 22 23  1  0
 22 27  1  0
 23 24  1  0
 24 25  1  0
 25 26  1  0
 26 27  1  0
 28 29  1  0
 28 33  1  0
 29 30  1  0
 30 31  1  0
 31 32  1  0
 31 34  1  0
 32 33  1  0
 34 35  1  0
 35 36  1  0
 36 37  2  0
 36 38  1  0
 36 39  1  0
M  END
>  <DRUGBANK_ID>  (1) 
DB11970

>  <COMMON_NAME>  (1) 
Burixafor

>  <CAS_NUMBER>  (1) 
1191448-17-5

>  <UNII>  (1) 
2G17Y0Q20G

>  <SYNONYMS>  (1) 
Burixafor

$$$$
