
     RDKit          3D

 31 34  0  0  0  0  0  0  0  0999 V2000
    1.2350    0.9580   -0.0198 N   0  0  0  0  0  0  0  0  0  0  0  0
    0.0862    1.6515   -0.0438 C   0  0  0  0  0  0  0  0  0  0  0  0
   -1.1302    1.1195   -0.0181 N   0  0  0  0  0  0  0  0  0  0  0  0
   -1.2067   -0.2082   -0.0012 C   0  0  0  0  0  0  0  0  0  0  0  0
   -0.1031   -1.0765   -0.0011 C   0  0  0  0  0  0  0  0  0  0  0  0
    1.1292   -0.3902   -0.0056 C   0  0  0  0  0  0  0  0  0  0  0  0
    2.3573   -1.0201   -0.0534 N   0  0  0  0  0  0  0  0  0  0  0  0
   -0.1426   -2.5291   -0.0019 N   0  0  0  0  0  0  0  0  0  0  0  0
   -2.5036   -0.6033    0.1814 N   0  0  0  0  0  0  0  0  0  0  0  0
    0.0882    3.1047    0.0612 C   0  0  0  0  0  0  0  0  0  0  0  0
    0.3694    5.1626   -0.4231 N   0  0  0  0  0  0  0  0  0  0  0  0
   -0.2927    5.1906    0.7805 C   0  0  0  0  0  0  0  0  0  0  0  0
   -0.5034    3.8558    1.1122 C   0  0  0  0  0  0  0  0  0  0  0  0
    0.5278    3.9120   -0.9105 N   0  0  0  0  0  0  0  0  0  0  0  0
   -0.6672    6.2699    1.5069 N   0  0  0  0  0  0  0  0  0  0  0  0
   -1.3137    5.9211    2.6558 C   0  0  0  0  0  0  0  0  0  0  0  0
   -1.5890    4.6269    3.0770 C   0  0  0  0  0  0  0  0  0  0  0  0
   -1.1870    3.5550    2.2999 C   0  0  0  0  0  0  0  0  0  0  0  0
    0.8464    6.2950   -1.2080 C   0  0  0  0  0  0  0  0  0  0  0  0
    2.3454    6.2714   -1.3977 C   0  0  0  0  0  0  0  0  0  0  0  0
    2.9856    5.2370   -2.0972 C   0  0  0  0  0  0  0  0  0  0  0  0
    4.3690    5.1822   -2.2157 C   0  0  0  0  0  0  0  0  0  0  0  0
    5.1445    6.2044   -1.6827 C   0  0  0  0  0  0  0  0  0  0  0  0
    4.5292    7.2721   -1.0295 C   0  0  0  0  0  0  0  0  0  0  0  0
    3.1397    7.3045   -0.8800 C   0  0  0  0  0  0  0  0  0  0  0  0
   -2.2331    4.4053    4.2300 F   0  0  0  0  0  0  0  0  0  0  0  0
    2.2817    4.2757   -2.7083 F   0  0  0  0  0  0  0  0  0  0  0  0
   -1.1802   -3.4626   -0.0011 C   0  0  0  0  0  0  0  0  0  0  0  0
   -0.9850   -4.6612   -0.0167 O   0  0  0  0  0  0  0  0  0  0  0  0
   -2.4048   -2.9102    0.0031 O   0  0  0  0  0  0  0  0  0  0  0  0
   -3.6873   -3.5651    0.0107 C   0  0  0  0  0  0  0  0  0  0  0  0
  1  2  2  0
  1  6  1  0
  2  3  1  0
  2 10  1  0
  3  4  2  0
  4  5  1  0
  4  9  1  0
  5  6  2  0
  5  8  1  0
  6  7  1  0
  8 28  1  0
 10 14  2  0
 11 12  1  0
 11 14  1  0
 12 13  2  0
 12 15  1  0
 13 10  1  0
 13 18  1  0
 15 16  2  0
 16 17  1  0
 17 18  2  0
 17 26  1  0
 19 11  1  0
 19 20  1  0
 20 21  2  0
 20 25  1  0
 21 22  1  0
 21 27  1  0
 22 23  2  0
 23 24  1  0
 24 25  2  0
 28 29  2  0
 28 30  1  0
 30 31  1  0
M  END
>  <DRUGBANK_ID>  (1) 
DB15456

>  <COMMON_NAME>  (1) 
Vericiguat

>  <CAS_NUMBER>  (1) 
1350653-20-1

>  <UNII>  (1) 
LV66ADM269

>  <SYNONYMS>  (1) 
Vericiguat; VÃ©riciguat; Vericiguatum

$$$$
