692
     RDKit          3D

 14 15  0  0  0  0  0  0  0  0999 V2000
    1.1539    0.0374    0.0435 C   0  0  0  0  0  0  0  0  0  0  0  0
    0.6103   -0.6530    1.2046 N   0  0  0  0  0  0  0  0  0  0  0  0
   -0.8543   -0.7210    1.1543 C   0  0  0  0  0  0  0  0  0  0  0  0
   -1.3821   -1.4844   -0.0471 C   0  0  0  0  0  0  0  0  0  0  0  0
   -2.0964   -0.7722   -1.0317 C   0  0  0  0  0  0  0  0  0  0  0  0
   -2.5526   -1.4130   -2.1834 C   0  0  0  0  0  0  0  0  0  0  0  0
   -2.2624   -2.7550   -2.3916 C   0  0  0  0  0  0  0  0  0  0  0  0
   -1.5438   -3.4737   -1.4333 C   0  0  0  0  0  0  0  0  0  0  0  0
   -1.1093   -2.8566   -0.2483 C   0  0  0  0  0  0  0  0  0  0  0  0
   -0.3707   -3.6460    0.7482 C   0  0  0  0  0  0  0  0  0  0  0  0
   -0.6556   -3.8200    2.0902 C   0  0  0  0  0  0  0  0  0  0  0  0
    0.3401   -4.5744    2.7701 C   0  0  0  0  0  0  0  0  0  0  0  0
    1.3479   -4.9721    1.9244 C   0  0  0  0  0  0  0  0  0  0  0  0
    1.1108   -4.4045    0.3282 S   0  0  0  0  0  0  0  0  0  0  0  0
  1  2  1  0
  2  3  1  0
  3  4  1  0
  4  9  2  0
  5  4  1  0
  5  6  2  0
  6  7  1  0
  7  8  2  0
  9  8  1  0
  9 10  1  0
 10 14  1  0
 11 10  2  0
 11 12  1  0
 12 13  2  0
 14 13  1  0
M  END
>  <DRUGBANK_ID>  (1) 
DB07196

>  <COMMON_NAME>  (1) 
N-methyl-1-(2-thiophen-2-ylphenyl)methanamine

>  <UNII>  (1) 
JXK7BCF78O

$$$$
