
     RDKit          3D

 24 25  0  0  0  0  0  0  0  0999 V2000
   -2.6383    0.9443   -0.0097 Cl  0  0  0  0  0  0  0  0  0  0  0  0
    2.7332    1.0418   -0.0090 Cl  0  0  0  0  0  0  0  0  0  0  0  0
   -0.7073   -4.6848   -0.4965 O   0  0  0  0  0  0  0  0  0  0  0  0
   -5.0192   -3.7068   -4.0421 C   0  0  0  0  0  0  0  0  0  0  0  0
   -3.9514   -3.9411   -2.9567 C   0  0  0  0  0  0  0  0  0  0  0  0
   -2.5489   -3.1824   -1.0937 C   0  0  0  0  0  0  0  0  0  0  0  0
   -3.6238   -2.9842   -1.9809 C   0  0  0  0  0  0  0  0  0  0  0  0
   -1.7308   -4.2960   -1.2959 C   0  0  0  0  0  0  0  0  0  0  0  0
   -1.1276   -1.3487    0.0310 C   0  0  0  0  0  0  0  0  0  0  0  0
   -4.4136   -3.4129   -5.4999 C   0  0  0  0  0  0  0  0  0  0  0  0
   -2.3768   -2.2115    0.0547 C   0  0  0  0  0  0  0  0  0  0  0  0
   -3.1937   -5.1247   -2.9612 C   0  0  0  0  0  0  0  0  0  0  0  0
   -1.9912   -5.2086   -2.2905 C   0  0  0  0  0  0  0  0  0  0  0  0
   -3.4558   -4.4274   -6.2238 C   0  0  0  0  0  0  0  0  0  0  0  0
   -1.1587    0.0460    0.0035 C   0  0  0  0  0  0  0  0  0  0  0  0
   -5.9936   -4.9019   -4.0082 C   0  0  0  0  0  0  0  0  0  0  0  0
   -5.9129   -2.4789   -3.6977 C   0  0  0  0  0  0  0  0  0  0  0  0
    0.1484   -1.9526    0.0744 C   0  0  0  0  0  0  0  0  0  0  0  0
    0.0318    0.7960   -0.0024 C   0  0  0  0  0  0  0  0  0  0  0  0
    1.2697    0.1440    0.0046 C   0  0  0  0  0  0  0  0  0  0  0  0
    1.3293   -1.2201    0.0352 C   0  0  0  0  0  0  0  0  0  0  0  0
   -4.1135   -5.8138   -6.3536 C   0  0  0  0  0  0  0  0  0  0  0  0
   -3.1177   -4.0029   -7.6683 C   0  0  0  0  0  0  0  0  0  0  0  0
   -2.0624   -4.4257   -5.5788 C   0  0  0  0  0  0  0  0  0  0  0  0
  1 15  1  0
  2 20  1  0
  3  8  1  0
  4  5  1  0
  4 10  1  0
  4 16  1  0
  4 17  1  0
  5  7  2  0
  5 12  1  0
  6  7  1  0
  6  8  2  0
  6 11  1  0
  8 13  1  0
  9 11  1  0
  9 15  2  0
  9 18  1  0
 10 14  1  0
 12 13  2  0
 14 22  1  0
 14 23  1  0
 14 24  1  0
 15 19  1  0
 18 21  2  0
 19 20  2  0
 20 21  1  0
M  END
>  <DRUGBANK_ID>  (1) 
DB13237

>  <COMMON_NAME>  (1) 
Clofoctol

>  <CAS_NUMBER>  (1) 
37693-01-9

>  <UNII>  (1) 
704083NI0R

>  <SYNONYMS>  (1) 
Clofoctol; Clofoctolum; Octofene

$$$$
