
     RDKit          3D

 13 12  0  0  1  0  0  0  0  0999 V2000
    1.0303   -0.0410   -0.0860 C   0  0  0  0  0  0  0  0  0  0  0  0
    0.5237    1.3875    0.0276 C   0  0  0  0  0  0  0  0  0  0  0  0
    2.9370    2.3553   -1.3780 C   0  0  0  0  0  0  0  0  0  0  0  0
    3.4437    2.9711   -0.0840 C   0  0  1  0  0  0  0  0  0  0  0  0
    2.9370    2.1585    1.0964 C   0  0  0  0  0  0  0  0  0  0  0  0
    0.4970   -0.6893   -1.4481 B   0  0  0  0  0  0  0  0  0  0  0  0
    4.9137    2.9711   -0.0840 N   0  0  0  0  0  0  0  0  0  0  0  0
    3.7629    1.6107    1.8920 O   0  0  0  0  0  0  0  0  0  0  0  0
    1.5409    2.0113    1.3101 O   0  0  0  0  0  0  0  0  0  0  0  0
    0.9970   -2.0991   -1.5602 O   0  0  0  0  0  0  0  0  0  0  0  0
   -1.0030   -0.6893   -1.4481 O   0  0  0  0  0  0  0  0  0  0  0  0
    0.9970    0.1127   -2.6129 O   0  0  0  0  0  0  0  0  0  0  0  0
    1.1270    2.3553   -1.3780 S   0  0  0  0  0  0  0  0  0  0  0  0
  2  1  1  0
  4  3  1  0
  4  7  1  6
  5  4  1  0
  6  1  1  0
  8  5  2  0
  9  5  1  0
 10  6  1  0
 11  6  1  0
 12  6  1  0
 13  2  1  0
 13  3  1  0
M  CHG  1   6  -1
M  END
>  <DRUGBANK_ID>  (1) 
DB03731

>  <SECONDARY_ACCESSION_NUMBERS>  (1) 
EXPT02831

>  <COMMON_NAME>  (1) 
S-2-(Boronoethyl)-L-Cysteine

$$$$
