C17
     RDKit          3D

 22 24  0  0  0  0  0  0  0  0999 V2000
   -3.2117    0.4877    0.0831 O   0  0  0  0  0  0  0  0  0  0  0  0
   -2.0568    0.1037   -0.0037 C   0  0  0  0  0  0  0  0  0  0  0  0
   -0.9907    0.9778   -0.0295 O   0  0  0  0  0  0  0  0  0  0  0  0
    0.3215    0.4962    0.0852 C   0  0  0  0  0  0  0  0  0  0  0  0
    0.6260   -0.8586    0.0516 C   0  0  0  0  0  0  0  0  0  0  0  0
   -0.4839   -1.8056   -0.0532 C   0  0  0  0  0  0  0  0  0  0  0  0
   -0.3183   -3.2855   -0.0925 C   0  0  0  0  0  0  0  0  0  0  0  0
    0.7642   -3.8622   -0.0673 O   0  0  0  0  0  0  0  0  0  0  0  0
   -1.7401   -1.3346   -0.0825 C   0  0  0  0  0  0  0  0  0  0  0  0
    1.3036    1.4679    0.2153 C   0  0  0  0  0  0  0  0  0  0  0  0
    2.6491    1.0981    0.2288 C   0  0  0  0  0  0  0  0  0  0  0  0
    2.9824   -0.2519    0.1993 C   0  0  0  0  0  0  0  0  0  0  0  0
    1.9768   -1.2194    0.1255 C   0  0  0  0  0  0  0  0  0  0  0  0
    3.7024    1.9655    0.0967 O   0  0  0  0  0  0  0  0  0  0  0  0
    3.3914    3.3472   -0.1420 C   0  0  0  0  0  0  0  0  0  0  0  0
    2.7396    3.6594   -1.4865 C   0  0  0  0  0  0  0  0  0  0  0  0
    2.5332    4.9895   -1.8681 C   0  0  0  0  0  0  0  0  0  0  0  0
    1.8491    5.2844   -3.0546 C   0  0  0  0  0  0  0  0  0  0  0  0
    1.3012    4.2638   -3.8369 C   0  0  0  0  0  0  0  0  0  0  0  0
    1.4783    2.9461   -3.4572 C   0  0  0  0  0  0  0  0  0  0  0  0
    0.7386    1.6588   -4.3264 Cl  0  0  0  0  0  0  0  0  0  0  0  0
    2.2443    2.6534   -2.3388 C   0  0  0  0  0  0  0  0  0  0  0  0
  1  2  2  0
  2  3  1  0
  2  9  1  0
  3  4  1  0
  4  5  2  0
  4 10  1  0
  5  6  1  0
  5 13  1  0
  6  7  1  0
  6  9  2  0
  7  8  2  0
 10 11  2  0
 11 12  1  0
 11 14  1  0
 12 13  2  0
 14 15  1  0
 15 16  1  0
 16 17  2  0
 16 22  1  0
 17 18  1  0
 18 19  2  0
 19 20  1  0
 20 21  1  0
 20 22  2  0
M  END
>  <DRUGBANK_ID>  (1) 
DB07512

>  <COMMON_NAME>  (1) 
7-[(3-CHLOROBENZYL)OXY]-2-OXO-2H-CHROMENE-4-CARBALDEHYDE

$$$$
