128
     RDKit          3D

  9  8  0  0  1  0  0  0  0  0999 V2000
    0.8930   -0.0515   -0.0944 O   0  0  0  0  0  0  0  0  0  0  0  0
   -2.1514    1.8400   -3.3493 O   0  0  0  0  0  0  0  0  0  0  0  0
    1.0137   -1.3320   -1.9271 O   0  0  0  0  0  0  0  0  0  0  0  0
   -0.0163    1.5665   -2.7205 O   0  0  0  0  0  0  0  0  0  0  0  0
   -1.7292   -1.3277    0.1096 N   0  0  0  0  0  0  0  0  0  0  0  0
   -1.2067   -0.6783   -1.1177 C   0  0  1  0  0  0  0  0  0  0  0  0
   -1.7333    0.7524   -1.2345 C   0  0  0  0  0  0  0  0  0  0  0  0
    0.3274   -0.7223   -1.1187 C   0  0  0  0  0  0  0  0  0  0  0  0
   -1.2071    1.4127   -2.4859 C   0  0  0  0  0  0  0  0  0  0  0  0
  1  8  1  0
  2  9  1  0
  3  8  2  0
  4  9  2  0
  6  5  1  1
  6  7  1  0
  6  8  1  0
  7  9  1  0
M  END
>  <DRUGBANK_ID>  (1) 
DB00128

>  <SECONDARY_ACCESSION_NUMBERS>  (1) 
NUTR00016; EXPT01823

>  <COMMON_NAME>  (1) 
Aspartic acid

>  <CAS_NUMBER>  (1) 
56-84-8

>  <UNII>  (1) 
30KYC7MIAI

>  <SYNONYMS>  (1) 
(S)-2-aminobutanedioic acid; (S)-2-aminosuccinic acid; 2-Aminosuccinic acid; ácido aspártico; Acidum asparticum; Asp; Aspartic acid; D; L-Asp; L-Asparaginsäure; L-Aspartate; L-Aspartic acid

$$$$
