
     RDKit          3D

 27 30  0  0  0  0  0  0  0  0999 V2000
    3.6360   -1.3530   -0.1197 C   0  0  0  0  0  0  0  0  0  0  0  0
    4.1683   -0.1052    0.1665 C   0  0  0  0  0  0  0  0  0  0  0  0
    3.3556    1.0180    0.2016 C   0  0  0  0  0  0  0  0  0  0  0  0
    2.2673   -1.4725   -0.3673 C   0  0  0  0  0  0  0  0  0  0  0  0
    1.4141   -0.3581   -0.2977 C   0  0  0  0  0  0  0  0  0  0  0  0
    1.9786    0.9085   -0.0358 C   0  0  0  0  0  0  0  0  0  0  0  0
    1.1494    2.1634    0.0793 C   0  0  0  0  0  0  0  0  0  0  0  0
   -0.2705    2.0112   -0.4379 C   0  0  0  0  0  0  0  0  0  0  0  0
   -0.0753   -0.4945   -0.5674 C   0  0  2  0  0  0  0  0  0  0  0  0
   -0.8504    0.6904    0.0642 C   0  0  2  0  0  0  0  0  0  0  0  0
   -2.2094   -1.9330   -0.4109 C   0  0  0  0  0  0  0  0  0  0  0  0
   -0.6960   -1.8499   -0.1412 C   0  0  0  0  0  0  0  0  0  0  0  0
   -2.9461   -0.7428    0.2149 C   0  0  1  0  0  0  0  0  0  0  0  0
   -2.3050    0.5542   -0.3152 C   0  0  1  0  0  0  0  0  0  0  0  0
   -3.2341    1.6569    0.1434 C   0  0  0  0  0  0  0  0  0  0  0  0
   -4.5877    1.0103    0.0068 C   0  0  0  0  0  0  0  0  0  0  0  0
   -4.3748   -0.5036   -0.2969 C   0  0  2  0  0  0  0  0  0  0  0  0
   -2.9414   -0.8855    1.7562 C   0  0  0  0  0  0  0  0  0  0  0  0
   -5.3381   -1.3392    0.3529 O   0  0  0  0  0  0  0  0  0  0  0  0
    5.4947    0.0727    0.4232 O   0  0  0  0  0  0  0  0  0  0  0  0
   -6.6683   -1.0806    0.2657 C   0  0  0  0  0  0  0  0  0  0  0  0
   -7.1109   -0.0216   -0.7336 C   0  0  0  0  0  0  0  0  0  0  0  0
   -7.4492   -1.6323    1.0343 O   0  0  0  0  0  0  0  0  0  0  0  0
   -7.9510   -0.4524   -1.8971 C   0  0  0  0  0  0  0  0  0  0  0  0
   -9.2808   -0.9298   -1.4594 C   0  0  0  0  0  0  0  0  0  0  0  0
  -10.3346   -0.3250   -1.6020 O   0  0  0  0  0  0  0  0  0  0  0  0
   -9.2016   -2.1087   -0.8336 O   0  0  0  0  0  0  0  0  0  0  0  0
  1  2  2  0
  2 20  1  0
  2  3  1  0
  3  6  2  0
  4  1  1  0
  5  9  1  0
  5  4  2  0
  5  6  1  0
  6  7  1  0
  7  8  1  0
 10  8  1  6
  9 10  1  0
  9 12  1  1
 10 14  1  0
 11 12  1  0
 13 18  1  1
 13 11  1  0
 13 14  1  0
 14 15  1  1
 15 16  1  0
 16 17  1  0
 17 13  1  0
 17 19  1  1
 19 21  1  0
 21 22  1  0
 21 23  2  0
 22 24  1  0
 24 25  1  0
 25 26  2  0
 25 27  1  0
M  END
>  <DRUGBANK_ID>  (1) 
DB07891

>  <COMMON_NAME>  (1) 
Estradiol hemisuccinate

>  <CAS_NUMBER>  (1) 
7698-93-3

>  <UNII>  (1) 
VQV5064VG6

>  <SYNONYMS>  (1) 
17beta-Estradiol hemisuccinate; beta-Estradiol-17-beta-hemisuccinate; beta-Estradiol-17beta-hemisuccinate

$$$$
