
     RDKit          3D

 10  9  0  0  0  0  0  0  0  0999 V2000
    0.8693   -0.0312   -0.0591 C   0  0  0  0  0  0  0  0  0  0  0  0
    0.3472    0.9920   -1.0627 C   0  0  0  0  0  0  0  0  0  0  0  0
    0.9073    0.6987   -2.4649 C   0  0  0  0  0  0  0  0  0  0  0  0
    0.0059    0.5193   -3.4897 N   0  0  0  0  0  0  0  0  0  0  0  0
    0.4182    0.1626   -4.8406 C   0  0  0  0  0  0  0  0  0  0  0  0
   -0.0625   -1.2333   -5.2341 C   0  0  0  0  0  0  0  0  0  0  0  0
   -0.8163   -1.2791   -6.3590 O   0  0  0  0  0  0  0  0  0  0  0  0
   -1.4817    1.0702   -1.0019 S   0  0  0  0  0  0  0  0  0  0  0  0
    2.1221    0.6575   -2.6606 O   0  0  0  0  0  0  0  0  0  0  0  0
    0.1632   -2.2455   -4.5811 O   0  0  0  0  0  0  0  0  0  0  0  0
  1  2  1  0
  2  3  1  0
  2  8  1  0
  3  4  1  0
  3  9  2  0
  4  5  1  0
  5  6  1  0
  6  7  1  0
  6 10  2  0
M  END
>  <DRUGBANK_ID>  (1) 
DB06823

>  <COMMON_NAME>  (1) 
Tiopronin

>  <CAS_NUMBER>  (1) 
1953-02-2

>  <UNII>  (1) 
C5W04GO61S

>  <SYNONYMS>  (1) 
Tiopronin; Tiopronine; Tiopronino; Tioproninum

$$$$
