
     RDKit          3D

 23 26  0  0  0  0  0  0  0  0999 V2000
    1.0851    0.0367   -0.0574 C   0  0  0  0  0  0  0  0  0  0  0  0
    1.9893    5.4487    2.5399 C   0  0  0  0  0  0  0  0  0  0  0  0
    0.5739   -0.3021    1.3320 C   0  0  0  0  0  0  0  0  0  0  0  0
    4.2769   -1.6963    7.0693 C   0  0  0  0  0  0  0  0  0  0  0  0
    5.4315   -1.6584    6.2874 C   0  0  0  0  0  0  0  0  0  0  0  0
    3.3034   -0.7081    6.9242 C   0  0  0  0  0  0  0  0  0  0  0  0
    5.6225   -0.6271    5.3656 C   0  0  0  0  0  0  0  0  0  0  0  0
    1.5649    0.2929    3.6358 C   0  0  0  0  0  0  0  0  0  0  0  0
    0.9902    3.0002    6.7850 C   0  0  0  0  0  0  0  0  0  0  0  0
    1.6268    5.1291    3.9384 C   0  0  0  0  0  0  0  0  0  0  0  0
    1.0167    0.6438    2.4188 C   0  0  0  0  0  0  0  0  0  0  0  0
    3.4885    0.3188    5.9888 C   0  0  0  0  0  0  0  0  0  0  0  0
    1.7767    1.4097    4.5186 C   0  0  0  0  0  0  0  0  0  0  0  0
    4.6568    0.3704    5.2175 C   0  0  0  0  0  0  0  0  0  0  0  0
    1.2959    4.0894    5.8265 C   0  0  0  0  0  0  0  0  0  0  0  0
    2.4028    1.3175    5.8411 C   0  0  0  0  0  0  0  0  0  0  0  0
    1.4084    2.5839    3.8896 C   0  0  0  0  0  0  0  0  0  0  0  0
    4.9907    1.6429    4.0962 Cl  0  0  0  0  0  0  0  0  0  0  0  0
    2.0676    2.0164    6.8645 N   0  0  0  0  0  0  0  0  0  0  0  0
    1.5662    6.0263    4.9039 N   0  0  0  0  0  0  0  0  0  0  0  0
    1.3506    5.3773    6.0837 N   0  0  0  0  0  0  0  0  0  0  0  0
    1.4418    3.8589    4.4689 N   0  0  0  0  0  0  0  0  0  0  0  0
    0.8347    2.3462    2.3122 S   0  0  0  0  0  0  0  0  0  0  0  0
  3  1  1  0
  5  4  2  0
  6  4  1  0
  7  5  1  0
 10  2  1  0
 11  3  1  0
 11  8  2  0
 12  6  2  0
 13  8  1  0
 14  7  2  0
 14 12  1  0
 15  9  1  0
 16 12  1  0
 16 13  1  0
 17 13  2  0
 18 14  1  0
 19  9  1  0
 19 16  2  0
 20 10  2  0
 21 15  2  0
 21 20  1  0
 22 10  1  0
 22 15  1  0
 22 17  1  0
 23 11  1  0
 23 17  1  0
M  END
>  <DRUGBANK_ID>  (1) 
DB09166

>  <COMMON_NAME>  (1) 
Etizolam

>  <CAS_NUMBER>  (1) 
40054-69-1

>  <UNII>  (1) 
A76XI0HL37

>  <SYNONYMS>  (1) 
4-(o-Chlorophenyl)-2-ethyl-9-methyl-6H-thieno(3,2-f)-s-triazolo(4,3-a)(1,4)diazepine; Etizolam

$$$$
