
     RDKit          3D

  1  0  0  0  0  0  0  0  0  0999 V2000
    1.0626   -0.0377   -0.0683 Cl  0  0  0  0  0  0  0  0  0  0  0  0
M  CHG  1   1  -1
M  END
>  <DRUGBANK_ID>  (1) 
DB14547

>  <COMMON_NAME>  (1) 
Chloride ion

>  <CAS_NUMBER>  (1) 
16887-00-6

>  <UNII>  (1) 
Q32ZN48698

>  <SYNONYMS>  (1) 
Chloride; Chloride (ion); Chloride ions; Chloride(1-); Chlorine anion

$$$$
