FBR
     RDKit          3D

 20 22  0  0  0  0  0  0  0  0999 V2000
    1.5087   -1.3061    0.7256 C   0  0  2  0  0  0  0  0  0  0  0  0
    3.3060   -2.3192    1.1570 C   0  0  0  0  0  0  0  0  0  0  0  0
    4.3351   -3.1216   -0.1389 C   0  0  0  0  0  0  0  0  0  0  0  0
    4.1604   -2.0777   -1.0930 C   0  0  0  0  0  0  0  0  0  0  0  0
    5.0120   -1.2793   -1.3825 O   0  0  0  0  0  0  0  0  0  0  0  0
    2.6537   -1.9890   -1.2112 C   0  0  0  0  0  0  0  0  0  0  0  0
    1.6540   -3.8708   -0.5855 Br  0  0  0  0  0  0  0  0  0  0  0  0
    2.3791   -0.9246   -0.4455 C   0  0  0  0  0  0  0  0  0  0  0  0
    2.8492    0.5141   -0.2357 C   0  0  0  0  0  0  0  0  0  0  0  0
    4.0218    1.1891   -0.1034 C   0  0  0  0  0  0  0  0  0  0  0  0
    4.0243    2.6089   -0.0084 C   0  0  0  0  0  0  0  0  0  0  0  0
    2.8490    3.3669   -0.0122 C   0  0  0  0  0  0  0  0  0  0  0  0
    2.8761    4.7262   -0.0193 O   0  0  0  0  0  0  0  0  0  0  0  0
    1.6540    2.7084    0.0244 C   0  0  0  0  0  0  0  0  0  0  0  0
    1.7774    1.3147    0.0521 C   0  0  0  0  0  0  0  0  0  0  0  0
    0.8235    0.3151    0.4321 C   0  0  0  0  0  0  0  0  0  0  0  0
   -0.2590   -1.6358    0.2237 C   0  0  0  0  0  0  0  0  0  0  0  0
   -1.1466   -1.3018   -1.3094 C   0  0  0  0  0  0  0  0  0  0  0  0
   -0.8266   -2.3960   -2.2809 C   0  0  0  0  0  0  0  0  0  0  0  0
   -1.3264   -3.6777   -1.6454 C   0  0  0  0  0  0  0  0  0  0  0  0
  1  2  1  0
  1  8  1  0
  1 16  1  0
  1 17  1  6
  2  3  1  0
  3  4  1  0
  4  6  1  0
  4  5  2  0
  6  8  2  0
  6  7  1  0
  8  9  1  0
  9 10  2  0
  9 15  1  0
 10 11  1  0
 11 12  2  0
 12 14  1  0
 12 13  1  0
 14 15  2  0
 15 16  1  0
 17 18  1  0
 18 19  1  0
 19 20  1  0
M  END
>  <DRUGBANK_ID>  (1) 
DB07757

>  <COMMON_NAME>  (1) 
(9aS)-4-bromo-9a-butyl-7-hydroxy-1,2,9,9a-tetrahydro-3H-fluoren-3-one

$$$$
