
     RDKit          3D

 17 18  0  0  0  0  0  0  0  0999 V2000
   -1.1248   -1.1986    0.0048 C   0  0  0  0  0  0  0  0  0  0  0  0
    0.2758   -1.2349    0.0161 C   0  0  0  0  0  0  0  0  0  0  0  0
    0.3396    1.1654   -0.0312 C   0  0  0  0  0  0  0  0  0  0  0  0
   -1.0523    1.1922   -0.0923 C   0  0  0  0  0  0  0  0  0  0  0  0
   -1.8314    0.0165   -0.0415 C   0  0  0  0  0  0  0  0  0  0  0  0
   -3.9041    0.8370    1.2282 C   0  0  0  0  0  0  0  0  0  0  0  0
   -4.6165    0.1886    2.2536 C   0  0  0  0  0  0  0  0  0  0  0  0
   -3.6318    2.2070    1.4228 C   0  0  0  0  0  0  0  0  0  0  0  0
   -3.9279    2.8648    2.6167 C   0  0  0  0  0  0  0  0  0  0  0  0
   -4.9699    0.8582    3.4292 C   0  0  0  0  0  0  0  0  0  0  0  0
   -3.8706    0.8148   -1.3151 C   0  0  0  0  0  0  0  0  0  0  0  0
   -3.3881    0.0872   -0.0338 C   0  0  0  0  0  0  0  0  0  0  0  0
   -4.0041   -1.3418   -0.1174 C   0  0  0  0  0  0  0  0  0  0  0  0
    0.9942   -0.0466    0.0082 C   0  0  0  0  0  0  0  0  0  0  0  0
    2.3554   -0.0276    0.0214 O   0  0  0  0  0  0  0  0  0  0  0  0
   -4.6022    2.1799    3.6125 C   0  0  0  0  0  0  0  0  0  0  0  0
   -4.9333    2.7843    4.7864 O   0  0  0  0  0  0  0  0  0  0  0  0
  1  2  2  0
  1  5  1  0
  2 14  1  0
  3  4  1  0
  4  5  2  0
  5 12  1  0
  6  8  1  0
  7  6  2  0
  7 10  1  0
  8  9  2  0
  9 16  1  0
 12  6  1  0
 12 11  1  0
 12 13  1  0
 14  3  2  0
 14 15  1  0
 16 10  2  0
 16 17  1  0
M  END
>  <DRUGBANK_ID>  (1) 
DB06973

>  <COMMON_NAME>  (1) 
Bisphenol A

>  <CAS_NUMBER>  (1) 
80-05-7

>  <UNII>  (1) 
MLT3645I99

>  <SYNONYMS>  (1) 
4,4'-Bisphenol A; 4,4'-Isopropylidenediphenol; Bisphenol-A; BPA; Dianin's compound

$$$$
