
     RDKit          3D

 15 14  0  0  0  0  0  0  0  0999 V2000
    0.9877    0.2311    0.0994 S   0  0  0  0  0  0  0  0  0  0  0  0
    0.0443    0.2466   -3.5223 O   0  0  0  0  0  0  0  0  0  0  0  0
    3.0656    3.4470   -2.1191 O   0  0  0  0  0  0  0  0  0  0  0  0
    2.2076    0.5010   -2.9988 O   0  0  0  0  0  0  0  0  0  0  0  0
    3.1645    2.7249   -0.0187 O   0  0  0  0  0  0  0  0  0  0  0  0
    2.7552   -2.4476    0.9020 N   0  0  0  0  0  0  0  0  0  0  0  0
    0.5324   -1.9640    1.6325 N   0  0  0  0  0  0  0  0  0  0  0  0
    1.0452   -3.9047    0.7096 N   0  0  0  0  0  0  0  0  0  0  0  0
    0.5872    1.2060   -1.3549 C   0  0  1  0  0  0  0  0  0  0  0  0
    1.0135    2.6448   -1.1221 C   0  0  0  0  0  0  0  0  0  0  0  0
    2.8172   -0.1208    0.0762 C   0  0  0  0  0  0  0  0  0  0  0  0
    3.2395   -1.1029    1.1819 C   0  0  0  0  0  0  0  0  0  0  0  0
    1.0365    0.6049   -2.6690 C   0  0  0  0  0  0  0  0  0  0  0  0
    2.4990    2.8981   -1.0387 C   0  0  0  0  0  0  0  0  0  0  0  0
    1.5226   -2.7224    1.1041 C   0  0  0  0  0  0  0  0  0  0  0  0
  1  9  1  0
  1 11  1  0
  2 13  1  0
  3 14  1  0
  4 13  2  0
  5 14  2  0
  6 12  1  0
  6 15  2  3
  7 15  1  0
  8 15  1  0
  9 10  1  1
  9 13  1  0
 10 14  1  0
 11 12  1  0
M  END
>  <DRUGBANK_ID>  (1) 
DB04489

>  <SECONDARY_ACCESSION_NUMBERS>  (1) 
EXPT01581

>  <COMMON_NAME>  (1) 
Guanidinoethylmercaptosuccinic acid

>  <CAS_NUMBER>  (1) 
77482-44-1

>  <SYNONYMS>  (1) 
GEMSA

$$$$
