
     RDKit          3D

 28 28  0  0  0  0  0  0  0  0999 V2000
    0.7619    2.0237    0.1559 C   0  0  2  0  0  0  0  0  0  0  0  0
    1.4984    0.3410    0.8472 C   0  0  1  0  0  0  0  0  0  0  0  0
    0.5264   -1.4185   -0.1227 C   0  0  1  0  0  0  0  0  0  0  0  0
   -1.7817    0.0449   -0.0984 C   0  0  1  0  0  0  0  0  0  0  0  0
   -1.0242   -1.3304    0.3158 C   0  0  2  0  0  0  0  0  0  0  0  0
   -1.0235    1.6500    0.6738 C   0  0  1  0  0  0  0  0  0  0  0  0
    3.0478    0.4188    0.5171 O   0  0  0  0  0  0  0  0  0  0  0  0
   -0.9561    1.4567    2.0830 O   0  0  0  0  0  0  0  0  0  0  0  0
    0.7121    1.2809   -1.6746 O   0  0  0  0  0  0  0  0  0  0  0  0
    0.7136   -1.2863   -1.6744 O   0  0  0  0  0  0  0  0  0  0  0  0
   -0.7519   -1.2196    1.6668 O   0  0  0  0  0  0  0  0  0  0  0  0
   -1.2549   -0.0001   -1.6316 O   0  0  0  0  0  0  0  0  0  0  0  0
    1.7603   -0.0506   -4.2450 O   0  0  0  0  0  0  0  0  0  0  0  0
    1.8519    2.7414   -3.5130 O   0  0  0  0  0  0  0  0  0  0  0  0
    2.0504    1.1633   -2.7646 P   0  0  0  0  0  0  0  0  0  0  0  0
    3.3887    1.0457   -3.8545 O   0  0  0  0  0  0  0  0  0  0  0  0
   -0.9836   -1.0382   -3.2275 O   0  0  0  0  0  0  0  0  0  0  0  0
   -0.0116    0.4065   -0.3097 O   0  0  0  0  0  0  0  0  0  0  0  0
   -0.0643    0.1284   -2.2959 P   0  0  0  0  0  0  0  0  0  0  0  0
   -0.8422    1.5432   -2.9173 O   0  0  0  0  0  0  0  0  0  0  0  0
    0.1137   -3.4299    1.5157 O   0  0  0  0  0  0  0  0  0  0  0  0
    2.0234   -1.5676    1.1054 O   0  0  0  0  0  0  0  0  0  0  0  0
    0.7394   -2.0849    1.8090 P   0  0  0  0  0  0  0  0  0  0  0  0
    2.2307   -2.9501    1.9511 O   0  0  0  0  0  0  0  0  0  0  0  0
    0.4320    1.0517   -3.8237 O   0  0  0  0  0  0  0  0  0  0  0  0
    1.9814    0.0241   -1.0810 O   0  0  0  0  0  0  0  0  0  0  0  0
    0.4166   -0.0007   -2.0777 P   0  0  0  0  0  0  0  0  0  0  0  0
    2.0881   -0.0013   -2.5238 O   0  0  0  0  0  0  0  0  0  0  0  0
  1  2  1  0
  1  6  1  0
  1  9  1  6
  2  3  1  0
  2  7  1  6
  3  5  1  0
  3 10  1  6
  4  6  1  0
  4 12  1  6
  5  4  1  0
  5 11  1  1
  6  8  1  1
  9 15  1  0
 10 19  1  0
 11 23  1  0
 12 27  1  0
 15 13  2  0
 15 14  1  0
 15 16  1  0
 19 17  2  0
 19 18  1  0
 19 20  1  0
 23 21  2  0
 23 22  1  0
 23 24  1  0
 27 25  2  0
 27 26  1  0
 27 28  1  0
M  END
>  <DRUGBANK_ID>  (1) 
DB01863

>  <SECONDARY_ACCESSION_NUMBERS>  (1) 
EXPT01943; DB03265

>  <COMMON_NAME>  (1) 
Inositol 1,3,4,5-Tetrakisphosphate

>  <UNII>  (1) 
XK67P86535

$$$$
