
     RDKit          3D

 28 31  0  0  0  0  0  0  0  0999 V2000
    1.0333   -1.0071    0.7224 C   0  0  0  0  0  0  0  0  0  0  0  0
    1.8128    0.1422    0.8060 C   0  0  0  0  0  0  0  0  0  0  0  0
    1.4671    1.3044    0.1765 C   0  0  0  0  0  0  0  0  0  0  0  0
    0.0996    1.4231   -0.0933 C   0  0  0  0  0  0  0  0  0  0  0  0
   -0.7192    0.2610   -0.1049 C   0  0  0  0  0  0  0  0  0  0  0  0
   -0.1893   -0.9920    0.1198 C   0  0  0  0  0  0  0  0  0  0  0  0
   -2.4309    0.3421   -0.2430 Cl  0  0  0  0  0  0  0  0  0  0  0  0
    2.4580    2.2960   -0.0562 N   0  0  0  0  0  0  0  0  0  0  0  0
    3.8334    2.2626   -0.0710 C   0  0  0  0  0  0  0  0  0  0  0  0
    4.4211    3.3707   -0.0294 O   0  0  0  0  0  0  0  0  0  0  0  0
    4.6263    1.1603   -0.0227 N   0  0  0  0  0  0  0  0  0  0  0  0
    4.3652   -0.1209   -0.4532 C   0  0  0  0  0  0  0  0  0  0  0  0
    3.6018   -0.5072   -1.4388 N   0  0  0  0  0  0  0  0  0  0  0  0
    3.1391   -1.7911   -1.1927 C   0  0  0  0  0  0  0  0  0  0  0  0
    3.5790   -2.3942   -0.0261 C   0  0  0  0  0  0  0  0  0  0  0  0
    4.8308   -1.3743    0.6470 S   0  0  0  0  0  0  0  0  0  0  0  0
    3.0234   -3.6621    0.6365 C   0  0  0  0  0  0  0  0  0  0  0  0
    4.0377   -4.7853    0.5301 C   0  0  0  0  0  0  0  0  0  0  0  0
    5.2253   -4.3705    1.2505 N   0  0  0  0  0  0  0  0  0  0  0  0
    5.6732   -5.1006    2.3210 C   0  0  0  0  0  0  0  0  0  0  0  0
    6.0714   -4.5174    3.5307 C   0  0  0  0  0  0  0  0  0  0  0  0
    6.7746   -5.2962    4.4412 C   0  0  0  0  0  0  0  0  0  0  0  0
    7.1420   -4.5641    5.6082 C   0  0  0  0  0  0  0  0  0  0  0  0
    6.6788   -3.2682    5.5885 C   0  0  0  0  0  0  0  0  0  0  0  0
    5.8475   -2.9165    4.1357 S   0  0  0  0  0  0  0  0  0  0  0  0
    7.0820   -6.5940    4.2050 N   0  0  0  0  0  0  0  0  0  0  0  0
    6.5995   -7.0665    3.0519 C   0  0  0  0  0  0  0  0  0  0  0  0
    5.8897   -6.4089    2.1327 N   0  0  0  0  0  0  0  0  0  0  0  0
  1  2  2  0
  1  6  1  0
  2  3  1  0
  3  4  2  0
  3  8  1  0
  4  5  1  0
  5  6  2  0
  5  7  1  0
  8  9  1  0
  9 10  2  0
  9 11  1  0
 11 12  1  0
 12 13  2  0
 12 16  1  0
 13 14  1  0
 14 15  2  0
 15 16  1  0
 15 17  1  0
 17 18  1  0
 18 19  1  0
 19 20  1  0
 20 21  1  0
 20 28  2  0
 21 22  2  0
 21 25  1  0
 22 23  1  0
 22 26  1  0
 23 24  2  0
 24 25  1  0
 26 27  2  0
 27 28  1  0
M  END
>  <DRUGBANK_ID>  (1) 
DB06134

>  <SECONDARY_ACCESSION_NUMBERS>  (1) 
DB07361

>  <COMMON_NAME>  (1) 
SNS-314

>  <CAS_NUMBER>  (1) 
1057249-41-8

>  <UNII>  (1) 
802IFJ0Z8X

>  <SYNONYMS>  (1) 
1-(3-chlorophenyl)-3-{5-[2-(thieno[3,2-d]pyrimidin-4-ylamino)ethyl]-1,3-thiazol-2-yl}urea

$$$$
