
     RDKit          3D

 26 29  0  0  0  0  0  0  0  0999 V2000
    1.5127   -0.2579    0.0181 C   0  0  0  0  0  0  0  0  0  0  0  0
    0.6353   -1.3312    0.0098 C   0  0  0  0  0  0  0  0  0  0  0  0
   -0.7431   -1.1114   -0.0418 C   0  0  0  0  0  0  0  0  0  0  0  0
   -1.2968    0.1861   -0.0610 C   0  0  0  0  0  0  0  0  0  0  0  0
   -0.3665    1.2472   -0.0818 C   0  0  0  0  0  0  0  0  0  0  0  0
    1.0122    1.0334   -0.0372 C   0  0  0  0  0  0  0  0  0  0  0  0
   -2.8526    0.4720   -0.1645 C   0  0  0  0  0  0  0  0  0  0  0  0
   -3.4003    1.2174    1.1268 C   0  0  0  0  0  0  0  0  0  0  0  0
   -2.8532    2.4554    1.5477 C   0  0  0  0  0  0  0  0  0  0  0  0
   -3.5322    3.3078    2.4211 C   0  0  0  0  0  0  0  0  0  0  0  0
   -4.7474    2.9141    2.9462 C   0  0  0  0  0  0  0  0  0  0  0  0
   -5.2856    1.6803    2.6277 C   0  0  0  0  0  0  0  0  0  0  0  0
   -4.6141    0.8360    1.7428 C   0  0  0  0  0  0  0  0  0  0  0  0
   -5.4291    3.7521    3.7346 F   0  0  0  0  0  0  0  0  0  0  0  0
   -3.1046    1.3389   -1.4656 C   0  0  0  0  0  0  0  0  0  0  0  0
   -2.6614    0.8692   -2.7234 C   0  0  0  0  0  0  0  0  0  0  0  0
   -2.9121    1.5828   -3.9040 C   0  0  0  0  0  0  0  0  0  0  0  0
   -3.5655    2.8109   -3.8602 C   0  0  0  0  0  0  0  0  0  0  0  0
   -3.9887    3.3088   -2.6455 C   0  0  0  0  0  0  0  0  0  0  0  0
   -3.7650    2.5867   -1.4768 C   0  0  0  0  0  0  0  0  0  0  0  0
   -4.2247    3.1835   -0.3799 F   0  0  0  0  0  0  0  0  0  0  0  0
   -3.5877   -0.8474   -0.2950 N   0  0  0  0  0  0  0  0  0  0  0  0
   -3.6227   -1.8617    0.6559 C   0  0  0  0  0  0  0  0  0  0  0  0
   -4.4020   -2.8607    0.1215 C   0  0  0  0  0  0  0  0  0  0  0  0
   -4.8622   -2.4977   -1.1075 N   0  0  0  0  0  0  0  0  0  0  0  0
   -4.3885   -1.2879   -1.3220 C   0  0  0  0  0  0  0  0  0  0  0  0
  1  2  2  0
  1  6  1  0
  2  3  1  0
  3  4  2  0
  4  5  1  0
  4  7  1  0
  5  6  2  0
  7  8  1  0
  7 15  1  0
  7 22  1  0
  8  9  2  0
  8 13  1  0
  9 10  1  0
 10 11  2  0
 11 12  1  0
 11 14  1  0
 12 13  2  0
 15 16  2  0
 15 20  1  0
 16 17  1  0
 17 18  2  0
 18 19  1  0
 19 20  2  0
 20 21  1  0
 22 23  1  0
 22 26  1  0
 23 24  2  0
 24 25  1  0
 25 26  2  0
M  END
>  <DRUGBANK_ID>  (1) 
DB13425

>  <COMMON_NAME>  (1) 
Flutrimazole

>  <CAS_NUMBER>  (1) 
119006-77-8

>  <UNII>  (1) 
776S0UP252

>  <SYNONYMS>  (1) 
flutrimazol; Flutrimazole

$$$$
