
     RDKit          3D

  7  6  0  0  0  0  0  0  0  0999 V2000
    0.9865    0.1053    0.0903 C   0  0  0  0  0  0  0  0  0  0  0  0
    0.5739   -0.6217   -1.1744 C   0  0  0  0  0  0  0  0  0  0  0  0
    1.0400   -2.0562   -1.1971 C   0  0  0  0  0  0  0  0  0  0  0  0
    0.2324   -2.9816   -1.2276 O   0  0  0  0  0  0  0  0  0  0  0  0
    2.5617   -2.3662   -1.2217 C   0  0  0  0  0  0  0  0  0  0  0  0
    3.4116   -1.3338   -1.2781 O   0  0  0  0  0  0  0  0  0  0  0  0
    2.9608   -3.5209   -1.1960 O   0  0  0  0  0  0  0  0  0  0  0  0
  1  2  1  0
  2  3  1  0
  3  4  2  0
  3  5  1  0
  5  6  1  0
  5  7  2  0
M  END
>  <DRUGBANK_ID>  (1) 
DB04553

>  <SECONDARY_ACCESSION_NUMBERS>  (1) 
EXPT00126

>  <COMMON_NAME>  (1) 
2-Oxobutanoic Acid

>  <CAS_NUMBER>  (1) 
600-18-0

>  <UNII>  (1) 
B92RB6HY1A

$$$$
