
     RDKit          3D

  9  9  0  0  1  0  0  0  0  0999 V2000
   -1.7461   -0.0772    0.2167 C   0  0  0  0  0  0  0  0  0  0  0  0
   -1.2774    1.3334   -0.1044 C   0  0  2  0  0  0  0  0  0  0  0  0
    0.1545    1.3819    0.0985 N   0  0  0  0  0  0  0  0  0  0  0  0
    0.8342    0.2046    0.0336 C   0  0  0  0  0  0  0  0  0  0  0  0
    2.0443    0.0872    0.0492 O   0  0  0  0  0  0  0  0  0  0  0  0
   -0.2932   -1.1244   -0.0883 S   0  0  0  0  0  0  0  0  0  0  0  0
   -1.9881    2.3633    0.7633 C   0  0  0  0  0  0  0  0  0  0  0  0
   -2.7468    3.2303    0.3594 O   0  0  0  0  0  0  0  0  0  0  0  0
   -1.7304    2.2362    2.0817 O   0  0  0  0  0  0  0  0  0  0  0  0
  1  2  1  0
  1  6  1  0
  2  3  1  0
  2  7  1  1
  3  4  1  0
  4  5  2  0
  4  6  1  0
  7  8  2  0
  7  9  1  0
M  END
>  <DRUGBANK_ID>  (1) 
DB12224

>  <COMMON_NAME>  (1) 
Oxothiazolidinecarboxylic acid

>  <CAS_NUMBER>  (1) 
19771-63-2

>  <UNII>  (1) 
X7063P804E

>  <SYNONYMS>  (1) 
(-)-2-OXO-4-THIAZOLIDINECARBOXYLIC ACID; (R)-2-OXOTHIAZOLIDINE-4-CARBOXYLIC ACID; 2-OXO-4-THIAZOLIDINECARBOXYLIC ACID, L-; 2-OXO-L-THIAZOLIDINE-4-CARBOXYLIC ACID; 4-THIAZOLIDINECARBOXYLIC ACID, 2-OXO-, (R)-; L-2-OXO-4-THIAZOLIDINECARBOXYLIC ACI; L-2-oxothiazolidine-4-carboxylic acid; Procysteine

$$$$
