
     RDKit          3D

 11 10  0  0  0  0  0  0  0  0999 V2000
    0.9418   -0.0684   -0.0096 C   0  0  0  0  0  0  0  0  0  0  0  0
    0.4653   -0.6969   -1.3224 C   0  0  0  0  0  0  0  0  0  0  0  0
    0.9842   -2.3906   -1.4477 Cl  0  0  0  0  0  0  0  0  0  0  0  0
    0.4122   -0.7250    1.1966 N   0  0  0  0  0  0  0  0  0  0  0  0
   -1.3678   -0.7250    1.1966 P   0  0  0  0  0  0  0  0  0  0  0  0
   -1.3490   -1.9631    2.0769 O   0  0  0  0  0  0  0  0  0  0  0  0
   -1.3709    0.7098    2.0516 N   0  0  0  0  0  0  0  0  0  0  0  0
   -1.9595    0.7719    3.4007 C   0  0  0  0  0  0  0  0  0  0  0  0
   -1.2681   -0.1142    4.4321 C   0  0  0  0  0  0  0  0  0  0  0  0
    0.4168    0.4001    4.6760 Cl  0  0  0  0  0  0  0  0  0  0  0  0
   -3.0978   -0.7250    1.1966 O   0  0  0  0  0  0  0  0  0  0  0  0
  1  2  1  0
  1  4  1  0
  2  3  1  0
  4  5  1  0
  5  6  2  0
  5  7  1  0
  5 11  1  0
  7  8  1  0
  8  9  1  0
  9 10  1  0
M  END
>  <DRUGBANK_ID>  (1) 
DB05668

>  <COMMON_NAME>  (1) 
Palifosfamide

>  <CAS_NUMBER>  (1) 
31645-39-3

>  <UNII>  (1) 
6A4U6NN813

>  <SYNONYMS>  (1) 
Ifosfamide mustard; Ifosforamide mustard; Isophosphamide mustard; Isophosphoramide mustard; Palifosfamide

$$$$
