1546
     RDKit          3D

 14 15  0  0  1  0  0  0  0  0999 V2000
   -1.5201    1.0982   -0.0322 N   0  0  0  0  0  0  0  0  0  0  0  0
   -4.2055   -2.0847    1.2146 N   0  0  0  0  0  0  0  0  0  0  0  0
   -2.9690   -2.8867    1.1802 C   0  0  0  0  0  0  0  0  0  0  0  0
   -2.0821   -2.5415   -0.0403 C   0  0  0  0  0  0  0  0  0  0  0  0
   -1.5847   -1.1291   -0.0460 C   0  0  0  0  0  0  0  0  0  0  0  0
   -3.3823   -4.3652    1.1742 C   0  0  0  0  0  0  0  0  0  0  0  0
   -0.2182   -0.7119    0.0012 C   0  0  0  0  0  0  0  0  0  0  0  0
   -0.2102    0.6812   -0.0041 C   0  0  0  0  0  0  0  0  0  0  0  0
   -2.3448    0.0172   -0.1577 C   0  0  0  0  0  0  0  0  0  0  0  0
   -2.1953   -5.3141    1.2523 C   0  0  0  0  0  0  0  0  0  0  0  0
    1.0141   -1.3965    0.0245 C   0  0  0  0  0  0  0  0  0  0  0  0
    0.9691    1.4311    0.0039 C   0  0  0  0  0  0  0  0  0  0  0  0
    2.2036   -0.6638   -0.0047 C   0  0  0  0  0  0  0  0  0  0  0  0
    2.1776    0.7283   -0.0182 C   0  0  0  0  0  0  0  0  0  0  0  0
  1  8  1  0
  1  9  1  0
  2  3  1  0
  3  4  1  0
  3  6  1  0
  4  5  1  0
  5  7  1  0
  5  9  2  0
  6 10  1  0
  7  8  2  0
  7 11  1  0
  8 12  1  0
 11 13  2  0
 12 14  2  0
 13 14  1  0
M  END
>  <DRUGBANK_ID>  (1) 
DB01546

>  <COMMON_NAME>  (1) 
Etryptamine

>  <CAS_NUMBER>  (1) 
2235-90-7

>  <UNII>  (1) 
GR181O3R32

>  <SYNONYMS>  (1) 
3-(2-aminobutyl)indole; alpha-ethyltryptamine; Etryptamine; α-ethyltryptamine; αET

$$$$
