A94
     RDKit          3D

 27 29  0  0  0  0  0  0  0  0999 V2000
   -1.2226   -0.2125    0.0086 C   0  0  0  0  0  0  0  0  0  0  0  0
   -0.1181   -0.9825   -0.0022 N   0  0  0  0  0  0  0  0  0  0  0  0
    1.0632   -0.3611    0.0028 C   0  0  0  0  0  0  0  0  0  0  0  0
    1.2272    0.9638    0.0049 N   0  0  0  0  0  0  0  0  0  0  0  0
    0.1120    1.7263    0.0056 C   0  0  0  0  0  0  0  0  0  0  0  0
   -1.1550    1.1670    0.0191 C   0  0  0  0  0  0  0  0  0  0  0  0
   -2.5342   -0.9379    0.0157 C   0  0  0  0  0  0  0  0  0  0  0  0
    2.1789   -1.1416    0.0217 N   0  0  0  0  0  0  0  0  0  0  0  0
    0.2959    3.2321   -0.0455 C   0  0  0  0  0  0  0  0  0  0  0  0
    1.0460    3.7779    1.1229 N   0  0  0  0  0  0  0  0  0  0  0  0
    1.2498    5.4538    1.0187 S   0  0  0  0  0  0  0  0  0  0  0  0
   -0.0835    5.9877    1.1992 O   0  0  0  0  0  0  0  0  0  0  0  0
    2.0289    5.7558   -0.1605 O   0  0  0  0  0  0  0  0  0  0  0  0
   -0.6894    9.1216    1.1674 C   0  0  0  0  0  0  0  0  0  0  0  0
   -0.2148    8.9620    2.5858 C   0  0  0  0  0  0  0  0  0  0  0  0
    0.8179   10.0219    2.6800 C   0  0  0  0  0  0  0  0  0  0  0  0
    0.5571   10.9990    1.6086 C   0  0  0  0  0  0  0  0  0  0  0  0
   -0.3721   10.4603    0.7721 O   0  0  0  0  0  0  0  0  0  0  0  0
    1.0973   12.0834    1.4653 O   0  0  0  0  0  0  0  0  0  0  0  0
    1.8813   10.1021    3.4941 C   0  0  0  0  0  0  0  0  0  0  0  0
    2.3725    9.1287    4.3393 N   0  0  0  0  0  0  0  0  0  0  0  0
    2.6023    7.7782    3.9915 C   0  0  0  0  0  0  0  0  0  0  0  0
    2.9467    6.8430    4.9688 C   0  0  0  0  0  0  0  0  0  0  0  0
    2.9874    5.4736    4.6610 C   0  0  0  0  0  0  0  0  0  0  0  0
    2.5939    5.0081    3.4036 C   0  0  0  0  0  0  0  0  0  0  0  0
    2.2028    5.9265    2.4451 C   0  0  0  0  0  0  0  0  0  0  0  0
    2.3561    7.2927    2.6956 C   0  0  0  0  0  0  0  0  0  0  0  0
  1  2  2  0
  1  6  1  0
  1  7  1  0
  2  3  1  0
  3  8  1  0
  3  4  2  0
  4  5  1  0
  5  9  1  0
  5  6  2  0
  9 10  1  0
 10 11  1  0
 11 12  2  0
 11 26  1  0
 11 13  2  0
 14 18  1  0
 14 15  1  0
 15 16  1  0
 16 20  2  0
 16 17  1  0
 17 19  2  0
 17 18  1  0
 20 21  1  0
 21 22  1  0
 22 23  2  0
 22 27  1  0
 23 24  1  0
 24 25  2  0
 25 26  1  0
 26 27  2  0
M  END
>  <DRUGBANK_ID>  (1) 
DB07325

>  <COMMON_NAME>  (1) 
N-[(2-AMINO-6-METHYLPYRIMIDIN-4-YL)METHYL]-3-{[(E)-(2-OXODIHYDROFURAN-3(2H)-YLIDENE)METHYL]AMINO}BENZENESULFONAMIDE

$$$$
