
     RDKit          3D

 22 23  0  0  1  0  0  0  0  0999 V2000
  -12.1202   -0.1056    3.9888 C   0  0  0  0  0  0  0  0  0  0  0  0
  -12.8222    1.2973    2.1546 C   0  0  0  0  0  0  0  0  0  0  0  0
  -13.2456   -0.9186    3.8122 C   0  0  0  0  0  0  0  0  0  0  0  0
  -13.9464    0.4844    1.9759 C   0  0  0  0  0  0  0  0  0  0  0  0
  -10.6962    1.8412    3.3281 C   0  0  0  0  0  0  0  0  0  0  0  0
   -5.8188    1.5624    3.2070 C   0  0  0  0  0  0  0  0  0  0  0  0
   -5.7384   -1.3358    2.0186 C   0  0  0  0  0  0  0  0  0  0  0  0
  -11.8950    1.0056    3.1601 C   0  0  0  0  0  0  0  0  0  0  0  0
  -14.1542   -0.6113    2.8064 C   0  0  0  0  0  0  0  0  0  0  0  0
   -7.1490   -1.3585    2.6060 C   0  0  1  0  0  0  0  0  0  0  0  0
   -9.4589    1.3393    3.2160 C   0  0  0  0  0  0  0  0  0  0  0  0
   -5.0442    0.7679    4.2540 C   0  0  0  0  0  0  0  0  0  0  0  0
   -7.8328    0.0071    2.8694 C   0  0  0  0  0  0  0  0  0  0  0  0
   -8.2059    2.1152    3.3996 C   0  0  0  0  0  0  0  0  0  0  0  0
   -7.9988   -2.1693    1.6853 N   0  0  0  0  0  0  0  0  0  0  0  0
   -9.1369    0.0419    2.9013 N   0  0  0  0  0  0  0  0  0  0  0  0
   -7.2283    1.1764    3.1954 N   0  0  0  0  0  0  0  0  0  0  0  0
   -5.7197   -1.5100    0.6054 O   0  0  0  0  0  0  0  0  0  0  0  0
  -15.2743   -1.3591    2.5911 O   0  0  0  0  0  0  0  0  0  0  0  0
   -4.0718    0.0557    4.0545 O   0  0  0  0  0  0  0  0  0  0  0  0
   -5.5425    0.8678    5.4978 O   0  0  0  0  0  0  0  0  0  0  0  0
   -8.0937    3.3072    3.6394 O   0  0  0  0  0  0  0  0  0  0  0  0
  3  1  2  0
  4  2  1  0
  8  1  1  0
  8  2  2  0
  8  5  1  0
  9  3  1  0
  9  4  2  0
 10 15  1  6
 10 13  1  0
 10  7  1  0
 11  5  2  0
 12  6  1  0
 14 11  1  0
 16 11  1  0
 16 13  2  0
 17  6  1  0
 17 13  1  0
 17 14  1  0
 18  7  1  0
 19  9  1  0
 20 12  2  0
 21 12  1  0
 22 14  2  0
M  END
>  <DRUGBANK_ID>  (1) 
DB03537

>  <SECONDARY_ACCESSION_NUMBERS>  (1) 
EXPT01042

>  <COMMON_NAME>  (1) 
[4-(4-Hydroxy-Benzyl)-2-(2-Hydroxy-1-Methyl-Ethyl)-5-Oxo-Imidazolidin-1-Yl]-Acetic Acid

$$$$
