
     RDKit          3D

 11 12  0  0  0  0  0  0  0  0999 V2000
   -0.4034   -0.5868   -0.0250 C   0  0  0  0  0  0  0  0  0  0  0  0
   -0.1372    0.8021   -0.0857 C   0  0  0  0  0  0  0  0  0  0  0  0
   -1.7584   -0.8235    0.0531 O   0  0  0  0  0  0  0  0  0  0  0  0
    0.5922   -1.4808   -0.0692 C   0  0  0  0  0  0  0  0  0  0  0  0
   -1.2768    1.4721   -0.0422 C   0  0  0  0  0  0  0  0  0  0  0  0
    1.2681    1.2714   -0.1545 C   0  0  0  0  0  0  0  0  0  0  0  0
   -2.3100    0.4418    0.0350 C   0  0  0  0  0  0  0  0  0  0  0  0
    2.0090   -0.9799   -0.1804 C   0  0  0  0  0  0  0  0  0  0  0  0
    2.1364    0.3102    0.4367 O   0  0  0  0  0  0  0  0  0  0  0  0
    1.3960    2.4998    0.5376 O   0  0  0  0  0  0  0  0  0  0  0  0
   -3.5038    0.7030    0.0752 O   0  0  0  0  0  0  0  0  0  0  0  0
  1  2  1  0
  1  3  1  0
  1  4  2  0
  2  5  2  0
  2  6  1  0
  3  7  1  0
  4  8  1  0
  5  7  1  0
  6  9  1  0
  6 10  1  0
  7 11  2  0
  8  9  1  0
M  END
>  <DRUGBANK_ID>  (1) 
DB15586

>  <COMMON_NAME>  (1) 
Patulin

>  <CAS_NUMBER>  (1) 
149-29-1

>  <UNII>  (1) 
95X2BV4W8R

>  <SYNONYMS>  (1) 
Clavacin; Clavatin; Claviformin; Expansine; Mycoin C3; Patulin; Patuline

$$$$
