M77
     RDKit          3D

 20 22  0  0  0  0  0  0  0  0999 V2000
    0.8394    0.0013   -0.2069 O   0  0  0  0  0  0  0  0  0  0  0  0
    2.2382   -0.0857    0.1284 S   0  0  0  0  0  0  0  0  0  0  0  0
    2.6656   -1.1605    1.0126 O   0  0  0  0  0  0  0  0  0  0  0  0
    3.1630   -0.1625   -1.3510 N   0  0  0  0  0  0  0  0  0  0  0  0
    3.9037   -1.4205   -1.6975 C   0  0  0  0  0  0  0  0  0  0  0  0
    4.9872   -1.7801   -0.6717 C   0  0  0  0  0  0  0  0  0  0  0  0
    6.0666   -0.7721   -0.4767 N   0  0  0  0  0  0  0  0  0  0  0  0
    5.5344    0.5014   -0.0105 C   0  0  0  0  0  0  0  0  0  0  0  0
    5.0062    1.4966   -1.0451 C   0  0  0  0  0  0  0  0  0  0  0  0
    3.8782    1.0014   -1.9345 C   0  0  0  0  0  0  0  0  0  0  0  0
    2.6918    1.4731    0.9593 C   0  0  0  0  0  0  0  0  0  0  0  0
    3.5531    1.4708    2.0886 C   0  0  0  0  0  0  0  0  0  0  0  0
    4.0564    2.6673    2.6055 C   0  0  0  0  0  0  0  0  0  0  0  0
    3.6152    3.8758    2.0769 C   0  0  0  0  0  0  0  0  0  0  0  0
    2.7259    3.8968    0.9825 C   0  0  0  0  0  0  0  0  0  0  0  0
    2.2652    2.6962    0.3961 C   0  0  0  0  0  0  0  0  0  0  0  0
    1.4762    2.7991   -0.7636 C   0  0  0  0  0  0  0  0  0  0  0  0
    2.3070    5.0921    0.3963 C   0  0  0  0  0  0  0  0  0  0  0  0
    1.5374    5.1860   -0.7139 N   0  0  0  0  0  0  0  0  0  0  0  0
    1.1489    4.0328   -1.2755 C   0  0  0  0  0  0  0  0  0  0  0  0
  1  2  2  0
  2  3  2  0
  2  4  1  0
  2 11  1  0
  4  5  1  0
  4 10  1  0
  5  6  1  0
  6  7  1  0
  7  8  1  0
  8  9  1  0
  9 10  1  0
 11 12  2  0
 11 16  1  0
 12 13  1  0
 13 14  2  0
 14 15  1  0
 15 16  2  0
 15 18  1  0
 16 17  1  0
 17 20  2  0
 18 19  2  0
 19 20  1  0
M  END
>  <DRUGBANK_ID>  (1) 
DB08162

>  <SECONDARY_ACCESSION_NUMBERS>  (1) 
DB12469

>  <COMMON_NAME>  (1) 
Fasudil

>  <CAS_NUMBER>  (1) 
103745-39-7

>  <UNII>  (1) 
Q0CH43PGXS

>  <SYNONYMS>  (1) 
Fasudil

$$$$
