ANS
     RDKit          3D

 17 18  0  0  0  0  0  0  0  0999 V2000
    1.2454   -1.4760    0.0040 C   0  0  0  0  0  0  0  0  0  0  0  0
    2.4920   -0.8436   -0.0308 C   0  0  0  0  0  0  0  0  0  0  0  0
    2.5405    0.5235   -0.0143 C   0  0  0  0  0  0  0  0  0  0  0  0
    1.3510    1.2357    0.0327 C   0  0  0  0  0  0  0  0  0  0  0  0
    0.0410    0.6810    0.0138 C   0  0  0  0  0  0  0  0  0  0  0  0
   -1.1993    1.4521   -0.0068 C   0  0  0  0  0  0  0  0  0  0  0  0
   -2.3962    0.6974   -0.0109 C   0  0  0  0  0  0  0  0  0  0  0  0
   -2.4254   -0.6916   -0.0016 C   0  0  0  0  0  0  0  0  0  0  0  0
   -1.2403   -1.4012    0.0144 C   0  0  0  0  0  0  0  0  0  0  0  0
    0.0117   -0.7520    0.0129 C   0  0  0  0  0  0  0  0  0  0  0  0
   -1.2783    2.8539   -0.0378 N   0  0  0  0  0  0  0  0  0  0  0  0
   -2.5299    3.6077   -0.0756 C   0  0  0  0  0  0  0  0  0  0  0  0
   -0.1192    3.7354   -0.0503 C   0  0  0  0  0  0  0  0  0  0  0  0
    1.2570   -3.2493    0.0484 S   0  0  0  0  0  0  0  0  0  0  0  0
    0.7427   -3.6740    1.3290 O   0  0  0  0  0  0  0  0  0  0  0  0
    0.6966   -3.7375   -1.1954 O   0  0  0  0  0  0  0  0  0  0  0  0
    2.8103   -3.6915    0.0300 O   0  0  0  0  0  0  0  0  0  0  0  0
  1  2  2  0
  1 10  1  0
  1 14  1  0
  2  3  1  0
  3  4  2  0
  4  5  1  0
  5  6  1  0
  5 10  2  0
  6  7  2  0
  6 11  1  0
  7  8  1  0
  8  9  2  0
  9 10  1  0
 11 12  1  0
 11 13  1  0
 14 15  2  0
 14 16  2  0
 14 17  1  0
M  END
>  <DRUGBANK_ID>  (1) 
DB07376

>  <COMMON_NAME>  (1) 
5-(DIMETHYLAMINO)-1-NAPHTHALENESULFONIC ACID(DANSYL ACID)

$$$$
