
     RDKit          3D

 24 26  0  0  0  0  0  0  0  0999 V2000
    0.8713    0.2820   -0.1287 C   0  0  0  0  0  0  0  0  0  0  0  0
    0.3469    1.6789   -0.3208 C   0  0  0  0  0  0  0  0  0  0  0  0
    1.1811    2.6899   -0.0282 N   0  0  0  0  0  0  0  0  0  0  0  0
    0.4970    3.8043   -0.3276 N   0  0  0  0  0  0  0  0  0  0  0  0
    1.1236    5.1068   -0.1333 C   0  0  0  0  0  0  0  0  0  0  0  0
    1.4158    5.9350   -1.3981 C   0  0  0  0  0  0  0  0  0  0  0  0
    0.2860    6.2206   -2.3574 C   0  0  0  0  0  0  0  0  0  0  0  0
   -0.2989    7.4331   -2.2584 O   0  0  0  0  0  0  0  0  0  0  0  0
   -0.1157    5.4010   -3.1801 O   0  0  0  0  0  0  0  0  0  0  0  0
   -0.8053    3.5651   -0.6825 C   0  0  0  0  0  0  0  0  0  0  0  0
   -1.7234    4.7161   -0.9299 C   0  0  0  0  0  0  0  0  0  0  0  0
   -0.9421    2.1686   -0.7831 C   0  0  0  0  0  0  0  0  0  0  0  0
   -2.1030    1.3404   -1.3482 C   0  0  0  0  0  0  0  0  0  0  0  0
   -3.3889    1.5976   -0.5776 C   0  0  0  0  0  0  0  0  0  0  0  0
   -4.0077    2.8670   -0.6460 C   0  0  0  0  0  0  0  0  0  0  0  0
   -5.0722    3.2982    0.1675 C   0  0  0  0  0  0  0  0  0  0  0  0
   -5.4847    4.7415    0.2155 C   0  0  0  0  0  0  0  0  0  0  0  0
   -5.7095    2.3310    0.9121 C   0  0  0  0  0  0  0  0  0  0  0  0
   -6.8094    2.5853    1.6737 O   0  0  0  0  0  0  0  0  0  0  0  0
   -5.2472    1.0254    0.8519 C   0  0  0  0  0  0  0  0  0  0  0  0
   -4.1014    0.6405    0.1360 C   0  0  0  0  0  0  0  0  0  0  0  0
   -3.9091   -0.8458    0.2347 C   0  0  0  0  0  0  0  0  0  0  0  0
   -5.0712   -1.3152    1.1387 C   0  0  0  0  0  0  0  0  0  0  0  0
   -5.9073   -0.1079    1.5457 C   0  0  0  0  0  0  0  0  0  0  0  0
  1  2  1  0
  2  3  2  0
  2 12  1  0
  3  4  1  0
  4  5  1  0
  4 10  1  0
  5  6  1  0
  6  7  1  0
  7  8  1  0
  7  9  2  0
 10 11  1  0
 10 12  2  0
 12 13  1  0
 13 14  1  0
 14 15  2  0
 14 21  1  0
 15 16  1  0
 16 17  1  0
 16 18  2  0
 18 19  1  0
 18 20  1  0
 20 21  2  0
 20 24  1  0
 21 22  1  0
 22 23  1  0
 23 24  1  0
M  END
>  <DRUGBANK_ID>  (1) 
DB16046

>  <COMMON_NAME>  (1) 
TRC150094

>  <CAS_NUMBER>  (1) 
1092551-88-6

>  <UNII>  (1) 
B93608MTGW

$$$$
