
     RDKit          3D

  7  6  0  0  0  0  0  0  0  0999 V2000
    0.9598   -0.0159    0.0113 C   0  0  0  0  0  0  0  0  0  0  0  0
    0.3839    0.7081   -1.2086 C   0  0  0  0  0  0  0  0  0  0  0  0
    0.8839   -0.0050   -2.4704 C   0  0  0  0  0  0  0  0  0  0  0  0
   -1.1548    0.7550   -1.1847 C   0  0  0  0  0  0  0  0  0  0  0  0
   -1.7109    1.4490    0.0453 C   0  0  0  0  0  0  0  0  0  0  0  0
   -2.4406    2.5553   -0.2036 O   0  0  0  0  0  0  0  0  0  0  0  0
   -1.5457    1.0481    1.1900 O   0  0  0  0  0  0  0  0  0  0  0  0
  1  2  1  0
  2  3  1  0
  2  4  1  0
  4  5  1  0
  5  6  1  0
  5  7  2  0
M  END
>  <DRUGBANK_ID>  (1) 
DB03750

>  <SECONDARY_ACCESSION_NUMBERS>  (1) 
EXPT01947

>  <COMMON_NAME>  (1) 
Isovaleric Acid

>  <CAS_NUMBER>  (1) 
503-74-2

>  <UNII>  (1) 
1BR7X184L5

$$$$
