
     RDKit          3D

 28 29  0  0  1  0  0  0  0  0999 V2000
    2.5470   -0.0375    0.0016 C   0  0  0  0  0  0  0  0  0  0  0  0
    0.3926    1.1889   -0.0203 C   0  0  0  0  0  0  0  0  0  0  0  0
    0.3115   -1.2085   -0.0203 C   0  0  0  0  0  0  0  0  0  0  0  0
   -0.9839    1.2179   -0.1454 C   0  0  0  0  0  0  0  0  0  0  0  0
   -1.0814   -1.1575   -0.1312 C   0  0  0  0  0  0  0  0  0  0  0  0
   -3.1424    3.2969    1.0943 C   0  0  0  0  0  0  0  0  0  0  0  0
   -2.7997    4.0249   -0.1755 C   0  0  0  0  0  0  0  0  0  0  0  0
   -4.1558   -3.3463    1.2294 C   0  0  0  0  0  0  0  0  0  0  0  0
   -4.0241   -0.9781    2.0692 C   0  0  0  0  0  0  0  0  0  0  0  0
   -6.2367   -1.2284    3.6363 C   0  0  0  0  0  0  0  0  0  0  0  0
   -3.9016    1.2212   -0.1113 C   0  0  0  0  0  0  0  0  0  0  0  0
    1.0556   -0.0269    0.0064 C   0  0  0  0  0  0  0  0  0  0  0  0
   -4.7185   -2.1974    2.0364 C   0  0  0  0  0  0  0  0  0  0  0  0
   -3.6239    2.0291    1.1840 C   0  0  0  0  0  0  0  0  0  0  0  0
   -1.7453    0.0687   -0.2143 C   0  0  0  0  0  0  0  0  0  0  0  0
   -3.5054   -4.4766    2.0594 C   0  0  1  0  0  0  0  0  0  0  0  0
   -4.4850    0.1778    2.7051 C   0  0  0  0  0  0  0  0  0  0  0  0
   -5.8836   -2.2715    2.7863 C   0  0  0  0  0  0  0  0  0  0  0  0
   -5.5631   -0.0064    3.5715 C   0  0  0  0  0  0  0  0  0  0  0  0
   -4.5052   -5.1525    3.0068 C   0  0  0  0  0  0  0  0  0  0  0  0
   -2.9893   -5.5045    1.1159 N   0  0  0  0  0  0  0  0  0  0  0  0
   -3.9286    1.4515    2.4386 N   0  0  0  0  0  0  0  0  0  0  0  0
   -2.2232    5.0925   -0.1757 O   0  0  0  0  0  0  0  0  0  0  0  0
   -6.7010   -3.3674    2.7968 O   0  0  0  0  0  0  0  0  0  0  0  0
   -6.0447    0.9987    4.3626 O   0  0  0  0  0  0  0  0  0  0  0  0
   -5.2015   -6.1164    2.7172 O   0  0  0  0  0  0  0  0  0  0  0  0
   -4.7087   -4.4666    4.1459 O   0  0  0  0  0  0  0  0  0  0  0  0
   -3.1057    0.0406   -0.3393 O   0  0  0  0  0  0  0  0  0  0  0  0
  4  2  2  0
  5  3  1  0
  7  6  1  0
 12  1  1  0
 12  2  1  0
 12  3  2  0
 13  8  1  0
 13  9  2  0
 14  6  2  0
 14 11  1  0
 15  4  1  0
 15  5  2  0
 16  8  1  0
 16 21  1  6
 17  9  1  0
 18 10  2  0
 18 13  1  0
 19 10  1  0
 19 17  2  0
 20 16  1  0
 22 14  1  0
 22 17  1  0
 23  7  2  0
 24 18  1  0
 25 19  1  0
 26 20  2  0
 27 20  1  0
 28 11  1  0
 28 15  1  0
M  END
>  <DRUGBANK_ID>  (1) 
DB02537

>  <SECONDARY_ACCESSION_NUMBERS>  (1) 
EXPT02126

>  <COMMON_NAME>  (1) 
2-Hydroxy-5-({1-[(4-Methylphenoxy)Methyl]-3-Oxoprop-1-Enyl}Amino)-L-Tyrosine

$$$$
