
     RDKit          3D

 23 25  0  0  0  0  0  0  0  0999 V2000
    0.8164   -0.4059   -0.0231 C   0  0  0  0  0  0  0  0  0  0  0  0
   -0.6516   -0.4358    0.0154 C   0  0  0  0  0  0  0  0  0  0  0  0
    1.4596    0.8291   -0.0258 C   0  0  0  0  0  0  0  0  0  0  0  0
    1.6243   -1.5533   -0.0223 C   0  0  0  0  0  0  0  0  0  0  0  0
   -1.3617    0.7782   -0.0058 C   0  0  0  0  0  0  0  0  0  0  0  0
   -1.4108   -1.6006    0.1026 C   0  0  0  0  0  0  0  0  0  0  0  0
    0.6442    2.1117    0.0110 C   0  0  0  0  0  0  0  0  0  0  0  0
    2.8715    0.8886   -0.0150 C   0  0  0  0  0  0  0  0  0  0  0  0
    3.0203   -1.5001   -0.0120 C   0  0  0  0  0  0  0  0  0  0  0  0
   -0.7870    2.0090   -0.0598 O   0  0  0  0  0  0  0  0  0  0  0  0
   -2.7633    0.8256    0.0056 C   0  0  0  0  0  0  0  0  0  0  0  0
   -2.7924   -1.5434    0.2135 C   0  0  0  0  0  0  0  0  0  0  0  0
   -0.8586   -2.8536    0.0747 O   0  0  0  0  0  0  0  0  0  0  0  0
    0.9230    2.8159    1.3465 C   0  0  0  0  0  0  0  0  0  0  0  0
    1.0029    2.9644   -1.2137 C   0  0  0  0  0  0  0  0  0  0  0  0
    3.6434   -0.2662   -0.0085 C   0  0  0  0  0  0  0  0  0  0  0  0
    3.7788   -2.7877    0.0043 C   0  0  0  0  0  0  0  0  0  0  0  0
   -3.4947   -0.3448    0.0842 C   0  0  0  0  0  0  0  0  0  0  0  0
   -4.9970   -0.3254   -0.0141 C   0  0  0  0  0  0  0  0  0  0  0  0
   -5.5129   -1.0416   -1.2767 C   0  0  0  0  0  0  0  0  0  0  0  0
   -5.2031   -2.5467   -1.3447 C   0  0  0  0  0  0  0  0  0  0  0  0
   -5.6474   -3.3039   -0.0851 C   0  0  0  0  0  0  0  0  0  0  0  0
   -7.1564   -3.3023    0.0302 C   0  0  0  0  0  0  0  0  0  0  0  0
  1  2  1  0
  1  3  1  0
  1  4  2  0
  2  5  2  0
  2  6  1  0
  3  7  1  0
  3  8  2  0
  4  9  1  0
  5 10  1  0
  5 11  1  0
  6 12  2  0
  6 13  1  0
  7 14  1  0
  7 15  1  0
  7 10  1  0
  8 16  1  0
  9 17  1  0
  9 16  2  0
 11 18  2  0
 12 18  1  0
 18 19  1  0
 19 20  1  0
 20 21  1  0
 21 22  1  0
 22 23  1  0
M  END
>  <DRUGBANK_ID>  (1) 
DB14737

>  <COMMON_NAME>  (1) 
Cannabinol

>  <CAS_NUMBER>  (1) 
521-35-7

>  <UNII>  (1) 
7UYP6MC9GH

>  <SYNONYMS>  (1) 
6,6,9-Trimethyl-3-pentyl-6H-dibenzo(b,d)pyran-1-ol; Cannabinol; Cannabinolo; Cannabinolum; CBN

$$$$
