
     RDKit          3D

 13 13  0  0  1  0  0  0  0  0999 V2000
    3.2148   -1.1736    3.3819 O   0  0  0  0  0  0  0  0  0  0  0  0
    2.6109   -0.5861    2.4897 C   0  0  0  0  0  0  0  0  0  0  0  0
    1.6354    0.3178    2.7613 O   0  0  0  0  0  0  0  0  0  0  0  0
    2.8884   -0.7795    0.9958 C   0  0  2  0  0  0  0  0  0  0  0  0
    2.0729    0.1681    0.2224 N   0  0  0  0  0  0  0  0  0  0  0  0
    2.6283   -2.2472    0.5668 C   0  0  0  0  0  0  0  0  0  0  0  0
    2.9953   -2.5808   -0.8751 C   0  0  0  0  0  0  0  0  0  0  0  0
    3.3518   -1.5850   -1.7989 C   0  0  0  0  0  0  0  0  0  0  0  0
    2.9416   -3.9053   -1.3370 C   0  0  0  0  0  0  0  0  0  0  0  0
    3.2006   -4.2010   -2.6863 C   0  0  0  0  0  0  0  0  0  0  0  0
    3.5757   -1.8671   -3.1385 C   0  0  0  0  0  0  0  0  0  0  0  0
    3.4957   -3.1719   -3.5775 C   0  0  0  0  0  0  0  0  0  0  0  0
    3.7235   -3.3790   -4.9035 O   0  0  0  0  0  0  0  0  0  0  0  0
  2  1  2  0
  3  2  1  0
  4  5  1  6
  4  2  1  0
  6  4  1  0
  7  6  1  0
  8  7  2  0
  9  7  1  0
 10  9  2  0
 11  8  1  0
 11 12  2  0
 12 10  1  0
 13 12  1  0
M  END
>  <DRUGBANK_ID>  (1) 
DB03839

>  <SECONDARY_ACCESSION_NUMBERS>  (1) 
EXPT01295

>  <COMMON_NAME>  (1) 
D-Tyrosine

>  <CAS_NUMBER>  (1) 
556-02-5

>  <UNII>  (1) 
WQ5G9JQ7GC

>  <SYNONYMS>  (1) 
(R)-2-Amino-3-(p-hydroxyphenyl)propionic acid; (R)-3-(p-Hydroxyphenyl)alanine; D-Tyr; D-Tyrosin

$$$$
