
     RDKit          3D

 32 34  0  0  1  0  0  0  0  0999 V2000
    2.8170    0.7668   -4.4542 Cl  0  0  0  0  0  0  0  0  0  0  0  0
   -3.2663    4.7340   -0.7637 Cl  0  0  0  0  0  0  0  0  0  0  0  0
    3.4637    4.2824    0.1896 F   0  0  0  0  0  0  0  0  0  0  0  0
    1.2253    4.3154    0.5874 F   0  0  0  0  0  0  0  0  0  0  0  0
    2.7041    5.1458    1.9550 F   0  0  0  0  0  0  0  0  0  0  0  0
    5.0975    6.5652    1.4116 O   0  0  0  0  0  0  0  0  0  0  0  0
    3.2092    7.7505    1.5538 O   0  0  0  0  0  0  0  0  0  0  0  0
    1.9895   -0.7041    0.5944 O   0  0  0  0  0  0  0  0  0  0  0  0
    2.4309    0.6491   -1.2057 N   0  0  0  0  0  0  0  0  0  0  0  0
    1.1437    6.9917   -1.0252 C   0  0  0  0  0  0  0  0  0  0  0  0
   -0.3413    6.7000   -1.0106 C   0  0  0  0  0  0  0  0  0  0  0  0
    0.3500    7.1103   -2.2720 C   0  0  0  0  0  0  0  0  0  0  0  0
    2.2486    5.9715   -0.8433 C   0  0  2  0  0  0  0  0  0  0  0  0
    3.6498    6.6306   -0.5836 C   0  0  0  0  0  0  0  0  0  0  0  0
    2.3258    4.5627   -1.7832 C   0  0  0  0  0  0  0  0  0  0  0  0
    2.4738    3.1315   -1.3935 C   0  0  0  0  0  0  0  0  0  0  0  0
    2.5513    4.6609   -3.1120 C   0  0  0  0  0  0  0  0  0  0  0  0
    3.9308    7.0539    0.8906 C   0  0  0  0  0  0  0  0  0  0  0  0
    2.6042    1.8843   -2.0183 C   0  0  0  0  0  0  0  0  0  0  0  0
    2.7302    3.4544   -3.8744 C   0  0  0  0  0  0  0  0  0  0  0  0
    2.7219    2.0866   -3.3629 C   0  0  0  0  0  0  0  0  0  0  0  0
    1.5891    1.6339    1.1395 C   0  0  2  0  0  0  0  0  0  0  0  0
    2.5415    2.8237    1.7301 C   0  0  2  0  0  0  0  0  0  0  0  0
    2.0756    0.4770    0.1552 C   0  0  0  0  0  0  0  0  0  0  0  0
    0.1724    2.1027    0.6369 C   0  0  0  0  0  0  0  0  0  0  0  0
    2.4492    4.1482    1.1064 C   0  0  0  0  0  0  0  0  0  0  0  0
    4.0759    2.7084    1.6854 C   0  0  0  0  0  0  0  0  0  0  0  0
   -0.0841    2.4480   -0.7104 C   0  0  0  0  0  0  0  0  0  0  0  0
   -0.8290    2.4519    1.5254 C   0  0  0  0  0  0  0  0  0  0  0  0
   -1.0038    3.3909   -1.1143 C   0  0  0  0  0  0  0  0  0  0  0  0
   -1.9294    3.2072    1.0665 C   0  0  0  0  0  0  0  0  0  0  0  0
   -1.9911    3.7157   -0.2327 C   0  0  0  0  0  0  0  0  0  0  0  0
  1 21  1  0
  2 32  1  0
  3 26  1  0
  4 26  1  0
  5 26  1  0
  6 18  1  0
  7 18  2  0
  8 24  2  0
  9 19  1  0
  9 24  1  0
 10 11  1  0
 10 12  1  0
 11 12  1  0
 13 15  1  0
 13 14  1  6
 13 10  1  0
 14 18  1  0
 15 16  2  0
 15 17  1  0
 16 19  1  0
 17 20  2  0
 19 21  2  0
 20 21  1  0
 22 24  1  6
 22 25  1  0
 23 27  1  6
 23 26  1  0
 23 22  1  0
 25 28  2  0
 25 29  1  0
 28 30  1  0
 29 31  2  0
 30 32  2  0
 31 32  1  0
M  END
>  <DRUGBANK_ID>  (1) 
DB16700

>  <COMMON_NAME>  (1) 
Runcaciguat

>  <CAS_NUMBER>  (1) 
1402936-61-1

>  <UNII>  (1) 
5EZ01YDT5S

>  <SYNONYMS>  (1) 
Cyclopropylpropanoic acid; Runcaciguat

$$$$
