
     RDKit          3D

  8  8  0  0  0  0  0  0  0  0999 V2000
    0.8872    0.1097    0.1741 S   0  0  0  0  0  0  0  0  0  0  0  0
    0.3697   -1.5703   -0.2775 C   0  0  0  0  0  0  0  0  0  0  0  0
    0.8374   -2.0876   -1.6133 C   0  0  0  0  0  0  0  0  0  0  0  0
    1.3426   -1.2903   -2.6440 C   0  0  0  0  0  0  0  0  0  0  0  0
    1.7031   -1.8608   -3.8627 C   0  0  0  0  0  0  0  0  0  0  0  0
    1.5345   -3.2236   -4.0249 C   0  0  0  0  0  0  0  0  0  0  0  0
    1.0418   -4.0328   -3.0665 N   0  0  0  0  0  0  0  0  0  0  0  0
    0.7030   -3.4494   -1.8920 C   0  0  0  0  0  0  0  0  0  0  0  0
  1  2  1  0
  2  3  1  0
  3  4  2  0
  3  8  1  0
  4  5  1  0
  5  6  2  0
  6  7  1  0
  7  8  2  0
M  END
>  <DRUGBANK_ID>  (1) 
DB04490

>  <SECONDARY_ACCESSION_NUMBERS>  (1) 
EXPT02713

>  <COMMON_NAME>  (1) 
3-(Mercaptomethylene)Pyridine

>  <UNII>  (1) 
YGR16Z02P2

$$$$
