592
     RDKit          3D

  6  6  0  0  0  0  0  0  0  0999 V2000
   -1.4717    0.0702    0.1773 N   0  0  0  0  0  0  0  0  0  0  0  0
    1.4712   -0.0703   -0.1769 N   0  0  0  0  0  0  0  0  0  0  0  0
   -0.7875   -1.1671   -0.2413 C   0  0  0  0  0  0  0  0  0  0  0  0
   -0.6732    1.2324   -0.2538 C   0  0  0  0  0  0  0  0  0  0  0  0
    0.6733   -1.2330    0.2541 C   0  0  0  0  0  0  0  0  0  0  0  0
    0.7869    1.1663    0.2433 C   0  0  0  0  0  0  0  0  0  0  0  0
  1  3  1  0
  1  4  1  0
  2  5  1  0
  2  6  1  0
  3  5  1  0
  4  6  1  0
M  END
>  <DRUGBANK_ID>  (1) 
DB00592

>  <SECONDARY_ACCESSION_NUMBERS>  (1) 
APRD00225; DB11514

>  <COMMON_NAME>  (1) 
Piperazine

>  <CAS_NUMBER>  (1) 
110-85-0

>  <UNII>  (1) 
1RTM4PAL0V

>  <SYNONYMS>  (1) 
Diethylenediamine; Piperazidine; Piperazin; Piperazina; Piperazine

$$$$
