
     RDKit          3D

  3  2  0  0  0  0  0  0  0  0999 V2000
    0.8548   -0.0364   -0.0079 O   0  0  0  0  0  0  0  0  0  0  0  0
   -0.9214    1.0336    0.5873 O   0  0  0  0  0  0  0  0  0  0  0  0
    0.3115    1.0765    0.6112 N   0  0  0  0  0  0  0  0  0  0  0  0
  1  3  1  0
  2  3  2  0
M  END
>  <DRUGBANK_ID>  (1) 
DB09112

>  <COMMON_NAME>  (1) 
Nitrous acid

>  <CAS_NUMBER>  (1) 
7782-77-6

>  <UNII>  (1) 
T2I5UM75DN

>  <SYNONYMS>  (1) 
dioxonitric acid; hydroxidooxidonitrogen; nitrosyl hydroxide

$$$$
