II2
     RDKit          3D

 26 29  0  0  0  0  0  0  0  0999 V2000
    1.0691    0.2122    0.0143 O   0  0  0  0  0  0  0  0  0  0  0  0
    2.2939    0.1598    0.0290 C   0  0  0  0  0  0  0  0  0  0  0  0
    2.9896   -1.1173   -0.0184 C   0  0  0  0  0  0  0  0  0  0  0  0
    2.4235   -2.3896   -0.0294 C   0  0  0  0  0  0  0  0  0  0  0  0
    3.2521   -3.5098   -0.0452 C   0  0  0  0  0  0  0  0  0  0  0  0
    2.6946   -4.7766   -0.0164 N   0  0  0  0  0  0  0  0  0  0  0  0
    4.6438   -3.3014   -0.0389 C   0  0  0  0  0  0  0  0  0  0  0  0
    5.2039   -1.9885   -0.0482 C   0  0  0  0  0  0  0  0  0  0  0  0
    4.3447   -0.8843   -0.0486 C   0  0  0  0  0  0  0  0  0  0  0  0
    3.2261    1.1654    0.0257 N   0  0  0  0  0  0  0  0  0  0  0  0
    4.5050    0.6146   -0.0618 C   0  0  0  0  0  0  0  0  0  0  0  0
    5.5910    1.1615   -0.0938 O   0  0  0  0  0  0  0  0  0  0  0  0
    2.8116    2.5517    0.0382 C   0  0  0  0  0  0  0  0  0  0  0  0
    1.8764    3.0079    0.9920 C   0  0  0  0  0  0  0  0  0  0  0  0
    1.2387    4.2749    0.8983 C   0  0  0  0  0  0  0  0  0  0  0  0
    1.5555    5.1731   -0.1246 C   0  0  0  0  0  0  0  0  0  0  0  0
    2.5723    4.7747   -1.0004 C   0  0  0  0  0  0  0  0  0  0  0  0
    3.1567    3.4734   -0.9557 C   0  0  0  0  0  0  0  0  0  0  0  0
    0.6233    6.7195   -0.2418 S   0  0  0  0  0  0  0  0  0  0  0  0
    1.2706    7.5727   -1.6733 C   0  0  0  0  0  0  0  0  0  0  0  0
    1.2004    7.0038   -2.9455 C   0  0  0  0  0  0  0  0  0  0  0  0
    1.9956    7.5075   -3.9821 C   0  0  0  0  0  0  0  0  0  0  0  0
    2.7515    8.6686   -3.8110 C   0  0  0  0  0  0  0  0  0  0  0  0
    3.4541    9.2139   -4.8877 N   0  0  0  0  0  0  0  0  0  0  0  0
    2.5960    9.3777   -2.6189 C   0  0  0  0  0  0  0  0  0  0  0  0
    1.9164    8.8048   -1.5326 C   0  0  0  0  0  0  0  0  0  0  0  0
  1  2  2  0
  2  3  1  0
  2 10  1  0
  3  4  2  0
  3  9  1  0
  4  5  1  0
  5  6  1  0
  5  7  2  0
  7  8  1  0
  8  9  2  0
  9 11  1  0
 10 11  1  0
 10 13  1  0
 11 12  2  0
 13 14  2  0
 13 18  1  0
 14 15  1  0
 15 16  2  0
 16 17  1  0
 16 19  1  0
 17 18  2  0
 19 20  1  0
 20 21  2  0
 20 26  1  0
 21 22  1  0
 22 23  2  0
 23 24  1  0
 23 25  1  0
 25 26  2  0
M  END
>  <DRUGBANK_ID>  (1) 
DB07971

>  <COMMON_NAME>  (1) 
5-AMINO-2-{4-[(4-AMINOPHENYL)SULFANYL]PHENYL}-1H-ISOINDOLE-1,3(2H)-DIONE

$$$$
