
     RDKit          3D

 37 41  0  0  1  0  0  0  0  0999 V2000
    3.3806    7.0566   18.2562 C   0  0  0  0  0  0  0  0  0  0  0  0
    3.3437    7.5425   16.8164 C   0  0  0  0  0  0  0  0  0  0  0  0
    3.3120    7.9594   15.5814 C   0  0  0  0  0  0  0  0  0  0  0  0
    3.3228    8.3982   14.1617 C   0  0  1  0  0  0  0  0  0  0  0  0
    4.7346    8.4578   13.5841 C   0  0  0  0  0  0  0  0  0  0  0  0
    5.3953    7.0969   13.6523 C   0  0  0  0  0  0  0  0  0  0  0  0
    5.7689    6.5661   12.4686 O   0  0  0  0  0  0  0  0  0  0  0  0
    5.5900    6.4857   14.6931 O   0  0  0  0  0  0  0  0  0  0  0  0
    2.4168    7.5282   13.3238 C   0  0  0  0  0  0  0  0  0  0  0  0
    1.9978    6.3055   13.8431 C   0  0  0  0  0  0  0  0  0  0  0  0
    0.9607    5.6131   13.2541 C   0  0  0  0  0  0  0  0  0  0  0  0
    0.4818    6.0011   12.0008 C   0  0  0  0  0  0  0  0  0  0  0  0
   -0.2170    5.1742   11.1507 O   0  0  0  0  0  0  0  0  0  0  0  0
   -0.4157    3.8020   11.5502 C   0  0  0  0  0  0  0  0  0  0  0  0
    0.8174    2.9329   11.6978 C   0  0  0  0  0  0  0  0  0  0  0  0
    0.7322    1.5434   11.7364 C   0  0  0  0  0  0  0  0  0  0  0  0
    1.8853    0.7742   11.9185 C   0  0  0  0  0  0  0  0  0  0  0  0
    3.0889    1.3777   12.2881 C   0  0  0  0  0  0  0  0  0  0  0  0
    4.3807    0.6063   12.2687 C   0  0  0  0  0  0  0  0  0  0  0  0
    5.2422    0.8779   11.1278 N   0  0  0  0  0  0  0  0  0  0  0  0
    5.5862    2.4360   11.2198 C   0  0  0  0  0  0  0  0  0  0  0  0
    4.7244    3.1589   10.2236 C   0  0  0  0  0  0  0  0  0  0  0  0
    4.8406    2.1964    9.0340 C   0  0  0  0  0  0  0  0  0  0  0  0
    3.6793    1.2312    9.1364 C   0  0  0  0  0  0  0  0  0  0  0  0
    4.4887    0.1882    9.8096 C   0  0  0  0  0  0  0  0  0  0  0  0
    6.4149    1.1833    8.9701 C   0  0  0  0  0  0  0  0  0  0  0  0
    7.2130    2.1609    8.5717 C   0  0  0  0  0  0  0  0  0  0  0  0
    6.3560    2.7215    7.5999 C   0  0  0  0  0  0  0  0  0  0  0  0
    5.0272    3.0394    7.8449 C   0  0  0  0  0  0  0  0  0  0  0  0
    4.4245    3.9854    7.0535 C   0  0  0  0  0  0  0  0  0  0  0  0
    5.2659    4.4768    6.0306 C   0  0  0  0  0  0  0  0  0  0  0  0
    6.6037    4.0315    5.8435 C   0  0  0  0  0  0  0  0  0  0  0  0
    7.1075    3.0143    6.5542 C   0  0  0  0  0  0  0  0  0  0  0  0
    3.1037    2.7528   12.4663 C   0  0  0  0  0  0  0  0  0  0  0  0
    2.0602    3.4869   11.9564 C   0  0  0  0  0  0  0  0  0  0  0  0
    0.9191    7.2067   11.4500 C   0  0  0  0  0  0  0  0  0  0  0  0
    1.9133    7.9532   12.0889 C   0  0  0  0  0  0  0  0  0  0  0  0
  1  2  1  0
  2  3  3  0
  4  3  1  1
  4  5  1  0
  4  9  1  0
  5  6  1  0
  6  7  1  0
  6  8  2  0
  9 10  2  0
  9 37  1  0
 10 11  1  0
 11 12  2  0
 12 13  1  0
 12 36  1  0
 13 14  1  0
 14 15  1  0
 15 16  2  0
 15 35  1  0
 16 17  1  0
 17 18  2  0
 18 19  1  0
 18 34  1  0
 19 20  1  0
 20 21  1  0
 20 25  1  0
 21 22  1  0
 22 23  1  0
 23 24  1  0
 23 26  1  0
 23 29  1  0
 24 25  1  0
 26 27  2  0
 27 28  1  0
 28 29  2  0
 28 33  1  0
 29 30  1  0
 30 31  2  0
 31 32  1  0
 32 33  2  0
 34 35  2  0
 36 37  2  0
M  END
>  <DRUGBANK_ID>  (1) 
DB15046

>  <COMMON_NAME>  (1) 
LY-2881835

>  <CAS_NUMBER>  (1) 
1292290-38-0

>  <UNII>  (1) 
LAD0ZG7FFO

$$$$
