
     RDKit          3D

 19 20  0  0  0  0  0  0  0  0999 V2000
    0.6973    1.3063   -0.2383 C   0  0  2  0  0  0  0  0  0  0  0  0
    1.4346    0.1954    0.5314 C   0  0  1  0  0  0  0  0  0  0  0  0
   -0.8005    1.3353    0.2206 C   0  0  0  0  0  0  0  0  0  0  0  0
    0.8043    0.9413   -1.7209 O   0  0  0  0  0  0  0  0  0  0  0  0
   -0.8576   -1.1025    0.5174 N   0  0  0  0  0  0  0  0  0  0  0  0
    0.5577   -1.0933    0.1508 C   0  0  0  0  0  0  0  0  0  0  0  0
    1.3558    0.0164   -2.5583 C   0  0  0  0  0  0  0  0  0  0  0  0
    1.3432    2.6988   -0.0765 C   0  0  0  0  0  0  0  0  0  0  0  0
   -1.5348    0.0431   -0.1016 C   0  0  0  0  0  0  0  0  0  0  0  0
    1.2358    0.2824   -3.7888 O   0  0  0  0  0  0  0  0  0  0  0  0
    3.0052    0.3662    0.3103 C   0  0  0  0  0  0  0  0  0  0  0  0
   -0.9302   -1.2198    1.9525 C   0  0  0  0  0  0  0  0  0  0  0  0
    1.9751   -1.4275   -2.2410 C   0  0  0  0  0  0  0  0  0  0  0  0
    2.5813    2.8747   -0.7152 C   0  0  0  0  0  0  0  0  0  0  0  0
    0.8428    3.8207    0.5852 C   0  0  0  0  0  0  0  0  0  0  0  0
    3.1274   -1.7508   -1.2950 C   0  0  0  0  0  0  0  0  0  0  0  0
    3.4262    3.9394   -0.5295 C   0  0  0  0  0  0  0  0  0  0  0  0
    1.5518    5.0341    0.4719 C   0  0  0  0  0  0  0  0  0  0  0  0
    2.8600    5.0790   -0.0308 C   0  0  0  0  0  0  0  0  0  0  0  0
  1  8  1  0
  1  4  1  6
  2  1  1  0
  2 11  1  6
  3  1  1  0
  5  9  1  0
  5  6  1  0
  6  2  1  0
  7  4  1  0
  9  3  1  0
 10  7  2  0
 12  5  1  0
 13  7  1  0
 14  8  2  0
 15  8  1  0
 16 13  1  0
 17 14  1  0
 18 15  2  0
 18 19  1  0
 19 17  2  0
M  END
>  <DRUGBANK_ID>  (1) 
DB13160

>  <COMMON_NAME>  (1) 
Alphaprodine

>  <CAS_NUMBER>  (1) 
77-20-3

>  <UNII>  (1) 
001O2254AC

>  <SYNONYMS>  (1) 
Alphaprodine; dl-alpha-prodine

$$$$
