
     RDKit          3D

 28 31  0  0  0  0  0  0  0  0999 V2000
   -1.7751   -0.0028    0.7173 O   0  0  0  0  0  0  0  0  0  0  0  0
   -1.0358    0.0242   -0.5174 C   0  0  0  0  0  0  0  0  0  0  0  0
   -2.0528    0.0161   -1.6952 C   0  0  0  0  0  0  0  0  0  0  0  0
   -1.4442   -0.0095   -3.0795 C   0  0  0  0  0  0  0  0  0  0  0  0
   -0.7580   -1.1491   -3.5141 C   0  0  0  0  0  0  0  0  0  0  0  0
   -0.1327   -1.1845   -4.7449 C   0  0  0  0  0  0  0  0  0  0  0  0
   -0.2367   -0.0970   -5.6049 C   0  0  0  0  0  0  0  0  0  0  0  0
   -0.9889    1.0114   -5.2313 C   0  0  0  0  0  0  0  0  0  0  0  0
   -1.5566    1.0765   -3.9563 C   0  0  0  0  0  0  0  0  0  0  0  0
   -0.2002    1.3100   -0.5599 C   0  0  0  0  0  0  0  0  0  0  0  0
    0.9469    1.2710    0.4388 C   0  0  0  0  0  0  0  0  0  0  0  0
    1.7674    0.0747    0.2704 N   0  0  0  0  0  0  0  0  0  0  0  0
    1.0238   -1.1731    0.4696 C   0  0  0  0  0  0  0  0  0  0  0  0
   -0.1272   -1.2209   -0.5177 C   0  0  0  0  0  0  0  0  0  0  0  0
    3.0672    0.0420   -0.2412 C   0  0  0  0  0  0  0  0  0  0  0  0
    3.6675   -1.0095   -0.4915 O   0  0  0  0  0  0  0  0  0  0  0  0
    3.7875    1.3155   -0.4854 C   0  0  0  0  0  0  0  0  0  0  0  0
    3.9767    2.2136    0.5718 C   0  0  0  0  0  0  0  0  0  0  0  0
    4.6363    3.4181    0.3476 C   0  0  0  0  0  0  0  0  0  0  0  0
    5.1289    3.6687   -0.9194 C   0  0  0  0  0  0  0  0  0  0  0  0
    5.0060    2.8067   -1.9501 N   0  0  0  0  0  0  0  0  0  0  0  0
    4.3426    1.6326   -1.7301 C   0  0  0  0  0  0  0  0  0  0  0  0
    4.2323    0.7927   -2.9258 C   0  0  0  0  0  0  0  0  0  0  0  0
    2.9934    0.4040   -3.4155 C   0  0  0  0  0  0  0  0  0  0  0  0
    2.9787   -0.3580   -4.5655 C   0  0  0  0  0  0  0  0  0  0  0  0
    4.0468   -0.7914   -5.2526 N   0  0  0  0  0  0  0  0  0  0  0  0
    5.2306   -0.4139   -4.7643 C   0  0  0  0  0  0  0  0  0  0  0  0
    5.3713    0.3783   -3.6352 C   0  0  0  0  0  0  0  0  0  0  0  0
  1  2  1  0
  2  3  1  0
  2 10  1  0
  2 14  1  0
  3  4  1  0
  4  5  2  0
  4  9  1  0
  5  6  1  0
  6  7  2  0
  7  8  1  0
  8  9  2  0
 10 11  1  0
 11 12  1  0
 12 13  1  0
 12 15  1  0
 13 14  1  0
 15 16  2  0
 15 17  1  0
 17 18  2  0
 17 22  1  0
 18 19  1  0
 19 20  2  0
 20 21  1  0
 21 22  2  0
 22 23  1  0
 23 24  2  0
 23 28  1  0
 24 25  1  0
 25 26  2  0
 26 27  1  0
 27 28  2  0
M  END
>  <DRUGBANK_ID>  (1) 
DB16987

>  <COMMON_NAME>  (1) 
Soticlestat

>  <CAS_NUMBER>  (1) 
1429505-03-2

>  <UNII>  (1) 
1766MU795L

$$$$
