
     RDKit          3D

 17 18  0  0  1  0  0  0  0  0999 V2000
    1.0973   -0.3877   -2.0053 C   0  0  0  0  0  0  0  0  0  0  0  0
    0.9060    1.1250   -1.8706 C   0  0  0  0  0  0  0  0  0  0  0  0
   -2.9265   -2.0747   -1.6342 C   0  0  0  0  0  0  0  0  0  0  0  0
   -0.0025   -1.9985   -0.2729 C   0  0  0  0  0  0  0  0  0  0  0  0
    1.0523   -0.9971   -0.6279 C   0  0  1  0  0  0  0  0  0  0  0  0
   -2.4825   -0.5818   -1.4207 C   0  0  2  0  0  0  0  0  0  0  0  0
   -3.6731    0.2443   -0.9380 C   0  0  2  0  0  0  0  0  0  0  0  0
   -3.3212    1.7397   -0.8718 C   0  0  1  0  0  0  0  0  0  0  0  0
   -2.6221    2.2028   -2.1598 C   0  0  2  0  0  0  0  0  0  0  0  0
   -1.4192    1.2948   -2.4719 C   0  0  1  0  0  0  0  0  0  0  0  0
   -2.0198   -2.9850   -2.2773 O   0  0  0  0  0  0  0  0  0  0  0  0
   -4.0974   -0.2372    0.3452 O   0  0  0  0  0  0  0  0  0  0  0  0
   -4.5241    2.4914   -0.6595 O   0  0  0  0  0  0  0  0  0  0  0  0
   -2.2179    3.5741   -2.0624 O   0  0  0  0  0  0  0  0  0  0  0  0
   -0.4230    1.4648   -1.4498 O   0  0  0  0  0  0  0  0  0  0  0  0
    1.3295   -2.4164   -0.5669 O   0  0  0  0  0  0  0  0  0  0  0  0
   -1.8712   -0.0617   -2.6062 O   0  0  0  0  0  0  0  0  0  0  0  0
  2  1  1  0
  5  4  1  0
  5  1  1  6
  6  3  1  6
  7  6  1  0
  7 12  1  1
  8  7  1  0
  8 13  1  6
  9  8  1  0
  9 14  1  1
 10  9  1  0
 10 15  1  1
 11  3  1  0
 15  2  1  0
 16  4  1  0
 16  5  1  0
 17  6  1  0
 17 10  1  0
M  END
>  <DRUGBANK_ID>  (1) 
DB02645

>  <SECONDARY_ACCESSION_NUMBERS>  (1) 
EXPT01323

>  <COMMON_NAME>  (1) 
3,4-Epoxybutyl-Alpha-D-Glucopyranoside

$$$$
