
     RDKit          3D

 28 30  0  0  0  0  0  0  0  0999 V2000
    0.5681    7.8524   -4.2693 C   0  0  0  0  0  0  0  0  0  0  0  0
    0.2900    2.0888   -3.6630 C   0  0  0  0  0  0  0  0  0  0  0  0
   -4.3400    5.9130    3.1897 C   0  0  0  0  0  0  0  0  0  0  0  0
   -5.2645    3.6959    3.0182 C   0  0  0  0  0  0  0  0  0  0  0  0
   -3.7329    5.7507    1.9383 C   0  0  0  0  0  0  0  0  0  0  0  0
   -4.8834    3.6548    1.6738 C   0  0  0  0  0  0  0  0  0  0  0  0
    3.3154    4.6003   -4.1221 C   0  0  0  0  0  0  0  0  0  0  0  0
    2.1446    4.5417   -3.3731 C   0  0  0  0  0  0  0  0  0  0  0  0
   -5.6808    5.0211    5.0421 C   0  0  0  0  0  0  0  0  0  0  0  0
    5.1161    5.9568   -5.0177 C   0  0  0  0  0  0  0  0  0  0  0  0
    1.5834    6.7742   -3.9932 C   0  0  0  0  0  0  0  0  0  0  0  0
   -0.8816    3.0501   -3.5169 C   0  0  1  0  0  0  0  0  0  0  0  0
   -5.0749    4.8666    3.7540 C   0  0  0  0  0  0  0  0  0  0  0  0
   -4.0175    4.6264    1.1577 C   0  0  0  0  0  0  0  0  0  0  0  0
    3.7717    5.8361   -4.5514 C   0  0  0  0  0  0  0  0  0  0  0  0
    1.1836    5.5499   -3.4191 C   0  0  0  0  0  0  0  0  0  0  0  0
    2.9201    6.9385   -4.4413 C   0  0  0  0  0  0  0  0  0  0  0  0
   -0.6643    4.1113   -2.3708 C   0  0  2  0  0  0  0  0  0  0  0  0
   -3.4819    4.4916   -0.1840 C   0  0  0  0  0  0  0  0  0  0  0  0
   -2.0145    4.2976   -1.7127 C   0  0  0  0  0  0  0  0  0  0  0  0
    3.5237    8.5165   -4.8472 Cl  0  0  0  0  0  0  0  0  0  0  0  0
   -6.1997    5.1698    6.0756 N   0  0  0  0  0  0  0  0  0  0  0  0
    6.2299    6.0579   -5.3549 N   0  0  0  0  0  0  0  0  0  0  0  0
   -0.0821    5.3778   -2.8820 N   0  0  0  0  0  0  0  0  0  0  0  0
   -4.1343    4.3989   -1.3202 N   0  0  0  0  0  0  0  0  0  0  0  0
   -3.1900    4.3168   -2.3068 N   0  0  0  0  0  0  0  0  0  0  0  0
   -1.1247    3.6606   -4.7931 O   0  0  0  0  0  0  0  0  0  0  0  0
   -2.1126    4.4144   -0.3423 O   0  0  0  0  0  0  0  0  0  0  0  0
  5  3  2  0
  6  4  1  0
  8  7  2  0
 11  1  1  0
 12 27  1  0
 12 18  1  0
 12  2  1  6
 13  3  1  0
 13  4  2  0
 13  9  1  0
 14  5  1  0
 14  6  2  0
 15  7  1  0
 15 10  1  0
 16  8  1  0
 16 11  2  0
 17 11  1  0
 17 15  2  0
 18 24  1  6
 18 20  1  0
 19 14  1  0
 21 17  1  0
 22  9  3  0
 23 10  3  0
 24 16  1  0
 25 19  2  0
 26 20  2  0
 26 25  1  0
 28 19  1  0
 28 20  1  0
M  END
>  <DRUGBANK_ID>  (1) 
DB13939

>  <COMMON_NAME>  (1) 
RAD-140

>  <CAS_NUMBER>  (1) 
1182367-47-0

>  <UNII>  (1) 
4O87Q44KNC

>  <SYNONYMS>  (1) 
2-Chloro-4-(((1R,2S)-1-(5-(4-cyanophenyl)-1,3,4-oxadiazol-2-yl)-2-hydroxypropyl)amino)-3-methylbenzonitrile

$$$$
