
     RDKit          3D

 15 17  0  0  0  0  0  0  0  0999 V2000
   -0.9170   -1.4530   -0.2600 C   0  0  0  0  0  0  0  0  0  0  0  0
   -0.9140    1.4560    0.2840 C   0  0  0  0  0  0  0  0  0  0  0  0
   -2.1880    0.7370   -0.2030 C   0  0  0  0  0  0  0  0  0  0  0  0
   -2.1900   -0.7380    0.1830 C   0  0  0  0  0  0  0  0  0  0  0  0
    0.2520    0.7090   -0.3250 C   0  0  2  0  0  0  0  0  0  0  0  0
    0.2530   -0.7040    0.3330 C   0  0  2  0  0  0  0  0  0  0  0  0
    1.6480   -1.1390    0.0180 N   0  0  0  0  0  0  0  0  0  0  0  0
    1.6540    1.1360   -0.0190 N   0  0  0  0  0  0  0  0  0  0  0  0
    4.4268   -1.1227   -1.9041 C   0  0  0  0  0  0  0  0  0  0  0  0
    5.2919   -1.1451   -3.1538 C   0  0  0  0  0  0  0  0  0  0  0  0
    2.3980   -0.0030   -0.0080 Pt  0  0  0  0  0  4  0  0  0  0  0  0
    3.5476   -0.0328   -1.6687 O   0  0  0  0  0  0  0  0  0  0  0  0
    3.5008    0.0219    1.6842 O   0  0  0  0  0  0  0  0  0  0  0  0
    6.0788   -2.1205   -3.3645 O   0  0  0  0  0  0  0  0  0  0  0  0
    4.4905   -2.0794   -1.0700 O   0  0  0  0  0  0  0  0  0  0  0  0
  6  1  1  6
  1  4  1  0
  2  3  1  0
  3  4  1  0
  5  2  1  1
  5  8  1  0
  5  6  1  0
  6  7  1  0
  7 11  1  0
  9 15  2  0
  9 12  1  0
  9 10  1  0
 10 13  1  0
 11  8  1  0
 11 12  1  0
 13 11  1  0
 14 10  2  0
M  END
>  <DRUGBANK_ID>  (1) 
DB00526

>  <SECONDARY_ACCESSION_NUMBERS>  (1) 
APRD00186

>  <COMMON_NAME>  (1) 
Oxaliplatin

>  <CAS_NUMBER>  (1) 
61825-94-3

>  <UNII>  (1) 
04ZR38536J

>  <SYNONYMS>  (1) 
Diaminocyclohexane Oxalatoplatinum; L-OHP; Oxalatoplatin; Oxalatoplatinum; Oxaliplatin; oxaliplatine; oxaliplatino; oxaliplatinum

$$$$
