
     RDKit          3D

 23 24  0  0  1  0  0  0  0  0999 V2000
    0.9865    1.1557   -0.0811 C   0  0  1  0  0  0  0  0  0  0  0  0
    0.9349    1.5071   -1.4791 O   0  0  0  0  0  0  0  0  0  0  0  0
   -0.1657    1.4970    0.7502 O   0  0  0  0  0  0  0  0  0  0  0  0
    1.2104   -0.3164    0.1800 C   0  0  1  0  0  0  0  0  0  0  0  0
    1.1963    2.8661   -1.9492 C   0  0  1  0  0  0  0  0  0  0  0  0
   -1.4233    1.1188    0.1306 C   0  0  1  0  0  0  0  0  0  0  0  0
   -0.0556   -1.0633   -0.2324 C   0  0  2  0  0  0  0  0  0  0  0  0
    2.4163   -0.7847   -0.4308 O   0  0  0  0  0  0  0  0  0  0  0  0
    0.1584    3.8340   -1.7510 O   0  0  0  0  0  0  0  0  0  0  0  0
    2.4895    3.5864   -1.5113 C   0  0  1  0  0  0  0  0  0  0  0  0
   -1.3756   -0.4066    0.2764 C   0  0  2  0  0  0  0  0  0  0  0  0
   -2.7767    1.6230    0.8579 C   0  0  0  0  0  0  0  0  0  0  0  0
    0.0272   -2.3892    0.3046 O   0  0  0  0  0  0  0  0  0  0  0  0
    0.0064    4.0445   -0.3561 C   0  0  1  0  0  0  0  0  0  0  0  0
    2.5241    3.8966    0.0021 C   0  0  2  0  0  0  0  0  0  0  0  0
    3.6401    2.8921   -1.9707 O   0  0  0  0  0  0  0  0  0  0  0  0
   -2.5089   -0.9998   -0.3451 O   0  0  0  0  0  0  0  0  0  0  0  0
   -3.3269    2.9396    0.9411 O   0  0  0  0  0  0  0  0  0  0  0  0
    1.1895    4.5040    0.4966 C   0  0  2  0  0  0  0  0  0  0  0  0
   -1.3726    4.5078   -0.0062 C   0  0  0  0  0  0  0  0  0  0  0  0
    3.6025    4.7788    0.3320 O   0  0  0  0  0  0  0  0  0  0  0  0
    0.9866    4.1714    1.8868 O   0  0  0  0  0  0  0  0  0  0  0  0
   -2.2902    3.8414   -0.9106 O   0  0  0  0  0  0  0  0  0  0  0  0
  1  3  1  0
  1  4  1  0
  1  2  1  6
  3  6  1  0
  4  7  1  0
  4  8  1  6
  5  2  1  1
  5  9  1  0
  5 10  1  0
  6 11  1  0
  6 12  1  1
  7 13  1  1
  7 11  1  0
  9 14  1  0
 10 15  1  0
 10 16  1  1
 11 17  1  6
 12 18  1  0
 14 19  1  0
 14 20  1  6
 15 21  1  6
 15 19  1  0
 19 22  1  1
 20 23  1  0
M  END
>  <DRUGBANK_ID>  (1) 
DB12310

>  <COMMON_NAME>  (1) 
Trehalose

>  <CAS_NUMBER>  (1) 
99-20-7

>  <UNII>  (1) 
B8WCK70T7I

>  <SYNONYMS>  (1) 
Cabaletta

$$$$
