
     RDKit          3D

 24 26  0  0  0  0  0  0  0  0999 V2000
    1.1279    0.0994    0.3222 C   0  0  0  0  0  0  0  0  0  0  0  0
    0.6840    1.1441   -0.6210 C   0  0  0  0  0  0  0  0  0  0  0  0
    0.9378    2.5198   -0.5288 C   0  0  0  0  0  0  0  0  0  0  0  0
    0.5690    3.4471   -1.5484 C   0  0  0  0  0  0  0  0  0  0  0  0
   -0.0875    3.0407   -2.7250 C   0  0  0  0  0  0  0  0  0  0  0  0
   -0.3570    1.6771   -2.6555 C   0  0  0  0  0  0  0  0  0  0  0  0
   -0.0240    0.7228   -1.7095 C   0  0  0  0  0  0  0  0  0  0  0  0
   -0.4818   -0.5728   -2.1007 C   0  0  0  0  0  0  0  0  0  0  0  0
   -1.1187   -0.3792   -3.2549 C   0  0  0  0  0  0  0  0  0  0  0  0
   -0.9881    0.9078   -3.5214 N   0  0  0  0  0  0  0  0  0  0  0  0
   -0.4426   -1.9112   -1.6556 C   0  0  0  0  0  0  0  0  0  0  0  0
   -0.5101   -3.0657   -1.4611 N   0  0  0  0  0  0  0  0  0  0  0  0
   -0.4461    3.9739   -3.7849 N   0  0  0  0  0  0  0  0  0  0  0  0
   -1.1866    3.8737   -5.3357 S   0  0  0  0  0  0  0  0  0  0  0  0
   -2.4018    4.6575   -5.2311 O   0  0  0  0  0  0  0  0  0  0  0  0
   -0.1744    4.2598   -6.2978 O   0  0  0  0  0  0  0  0  0  0  0  0
   -1.7458    2.2146   -5.8708 C   0  0  0  0  0  0  0  0  0  0  0  0
   -0.7814    1.2888   -6.3791 C   0  0  0  0  0  0  0  0  0  0  0  0
   -1.0252   -0.0977   -6.2243 C   0  0  0  0  0  0  0  0  0  0  0  0
   -2.3119   -0.5671   -5.8671 C   0  0  0  0  0  0  0  0  0  0  0  0
   -3.2912    0.3437   -5.4032 C   0  0  0  0  0  0  0  0  0  0  0  0
   -2.9859    1.7280   -5.3471 C   0  0  0  0  0  0  0  0  0  0  0  0
   -4.4749   -0.1712   -4.7573 C   0  0  0  0  0  0  0  0  0  0  0  0
   -5.4357   -0.5984   -4.2651 N   0  0  0  0  0  0  0  0  0  0  0  0
  1  2  1  0
  2  3  2  0
  2  7  1  0
  3  4  1  0
  4  5  2  0
  5  6  1  0
  5 13  1  0
  6  7  2  0
  6 10  1  0
  7  8  1  0
  8  9  2  0
  8 11  1  0
  9 10  1  0
 11 12  3  0
 13 14  1  0
 14 15  2  0
 14 16  2  0
 14 17  1  0
 17 18  2  0
 17 22  1  0
 18 19  1  0
 19 20  2  0
 20 21  1  0
 21 22  2  0
 21 23  1  0
 23 24  3  0
M  END
>  <DRUGBANK_ID>  (1) 
DB12505

>  <COMMON_NAME>  (1) 
E-7820

>  <CAS_NUMBER>  (1) 
289483-69-8

>  <UNII>  (1) 
TVH5K7949N

$$$$
