
     RDKit          3D

 33 36  0  0  0  0  0  0  0  0999 V2000
   -3.7733   -0.3531   -0.1863 C   0  0  1  0  0  0  0  0  0  0  0  0
   -3.9000    1.1307   -0.3753 C   0  0  1  0  0  0  0  0  0  0  0  0
   -4.9927   -1.3588   -0.1397 C   0  0  2  0  0  0  0  0  0  0  0  0
   -2.1731   -1.0607   -0.7535 C   0  0  2  0  0  0  0  0  0  0  0  0
   -2.4154    1.6585   -0.4718 C   0  0  0  0  0  0  0  0  0  0  0  0
   -5.4178    1.1120   -0.8608 C   0  0  0  0  0  0  0  0  0  0  0  0
   -4.4345    2.0172    0.6945 O   0  0  0  0  0  0  0  0  0  0  0  0
   -6.1339   -0.7639    0.5937 C   0  0  0  0  0  0  0  0  0  0  0  0
   -4.1632   -2.5388   -0.0423 N   0  0  0  0  0  0  0  0  0  0  0  0
   -0.9899   -0.4380   -0.0829 C   0  0  2  0  0  0  0  0  0  0  0  0
   -1.8293   -1.5146   -2.0833 O   0  0  0  0  0  0  0  0  0  0  0  0
   -1.2084    1.0169   -0.2323 C   0  0  0  0  0  0  0  0  0  0  0  0
   -2.3990    3.0213   -0.6531 O   0  0  0  0  0  0  0  0  0  0  0  0
   -6.4348    0.4988    0.2069 C   0  0  0  0  0  0  0  0  0  0  0  0
   -5.7630    1.2641   -2.0223 O   0  0  0  0  0  0  0  0  0  0  0  0
   -6.9410   -1.5903    1.3490 O   0  0  0  0  0  0  0  0  0  0  0  0
   -3.0145   -2.2060    1.2397 C   0  0  0  0  0  0  0  0  0  0  0  0
   -3.9844   -2.3783   -1.7996 C   0  0  0  0  0  0  0  0  0  0  0  0
    0.2711   -1.0171   -0.6928 C   0  0  0  0  0  0  0  0  0  0  0  0
    0.1149    1.6936    0.1636 C   0  0  0  0  0  0  0  0  0  0  0  0
   -7.6196    1.1763    0.8175 C   0  0  0  0  0  0  0  0  0  0  0  0
    1.4432   -0.5045   -0.0386 C   0  0  0  0  0  0  0  0  0  0  0  0
    0.5652   -1.0346   -2.0128 C   0  0  0  0  0  0  0  0  0  0  0  0
    1.4305    0.8986    0.0985 C   0  0  0  0  0  0  0  0  0  0  0  0
    0.0957    2.7671    0.7073 O   0  0  0  0  0  0  0  0  0  0  0  0
   -8.3799    1.9423   -0.0288 N   0  0  0  0  0  0  0  0  0  0  0  0
   -7.9394    1.0515    1.9678 O   0  0  0  0  0  0  0  0  0  0  0  0
    2.5897   -1.3119    0.0565 C   0  0  0  0  0  0  0  0  0  0  0  0
    2.6741    1.4988    0.1588 C   0  0  0  0  0  0  0  0  0  0  0  0
    3.8069   -0.6830    0.1601 C   0  0  0  0  0  0  0  0  0  0  0  0
    2.5165   -3.0421   -0.0512 Cl  0  0  0  0  0  0  0  0  0  0  0  0
    3.8419    0.7171    0.1853 C   0  0  0  0  0  0  0  0  0  0  0  0
    2.8587    2.8473    0.1517 O   0  0  0  0  0  0  0  0  0  0  0  0
  1  2  1  0
  1  3  1  6
  1  4  1  0
  2  5  1  0
  2  6  1  0
  2  7  1  1
  3  8  1  0
  3  9  1  1
  4 10  1  0
  4 11  1  6
  5 12  2  0
  5 13  1  0
  6 14  1  0
  6 15  2  0
  8 14  2  0
  8 16  1  0
  9 17  1  0
  9 18  1  0
 10 19  1  6
 10 12  1  0
 12 20  1  0
 14 21  1  0
 19 22  1  0
 19 23  2  0
 20 24  1  0
 20 25  2  0
 21 26  1  0
 21 27  2  0
 22 28  2  0
 22 24  1  0
 24 29  2  0
 28 30  1  0
 28 31  1  0
 29 32  1  0
 29 33  1  0
 30 32  2  0
M  END
>  <DRUGBANK_ID>  (1) 
DB13092

>  <SECONDARY_ACCESSION_NUMBERS>  (1) 
DB06798; DB05709

>  <COMMON_NAME>  (1) 
Meclocycline

>  <CAS_NUMBER>  (1) 
2013-58-3

>  <UNII>  (1) 
23Q8M2HE6S

>  <SYNONYMS>  (1) 
Meclociclina; Meclocycline; Meclocyclinum

$$$$
