R18
     RDKit          3D

 21 24  0  0  0  0  0  0  0  0999 V2000
   -0.1800    0.6649    0.5833 C   0  0  0  0  0  0  0  0  0  0  0  0
    0.3401    1.9888    1.4444 C   0  0  0  0  0  0  0  0  0  0  0  0
   -0.4873    2.8795    0.6589 C   0  0  0  0  0  0  0  0  0  0  0  0
   -0.0658    3.2456   -0.6643 C   0  0  0  0  0  0  0  0  0  0  0  0
   -0.2381    2.2101   -1.5110 C   0  0  0  0  0  0  0  0  0  0  0  0
   -0.8429    2.4275   -2.8819 C   0  0  0  0  0  0  0  0  0  0  0  0
    0.1055    1.8078   -3.8984 C   0  0  0  0  0  0  0  0  0  0  0  0
    0.1227    0.2701   -3.8162 C   0  0  1  0  0  0  0  0  0  0  0  0
   -0.2252   -0.1301   -2.1944 C   0  0  0  0  0  0  0  0  0  0  0  0
   -0.1662    0.7782   -1.1168 C   0  0  0  0  0  0  0  0  0  0  0  0
   -0.5395   -1.5526   -2.0680 C   0  0  0  0  0  0  0  0  0  0  0  0
   -0.5557   -2.4275   -3.0980 C   0  0  0  0  0  0  0  0  0  0  0  0
   -0.2259   -2.1743   -4.5672 C   0  0  1  0  0  0  0  0  0  0  0  0
   -0.4200   -0.7554   -5.1441 C   0  0  2  0  0  0  0  0  0  0  0  0
    0.3879   -1.2709   -6.5785 C   0  0  0  0  0  0  0  0  0  0  0  0
    1.7802   -1.3074   -6.0766 C   0  0  0  0  0  0  0  0  0  0  0  0
    1.4765   -2.2821   -4.8598 C   0  0  1  0  0  0  0  0  0  0  0  0
   -1.2898   -3.0444   -5.3358 C   0  0  0  0  0  0  0  0  0  0  0  0
    2.2266   -1.9473   -3.5554 C   0  0  0  0  0  0  0  0  0  0  0  0
   -1.7000    3.0777    1.0046 O   0  0  0  0  0  0  0  0  0  0  0  0
    1.9254   -3.5743   -5.2753 O   0  0  0  0  0  0  0  0  0  0  0  0
  1  2  1  0
  1 10  1  0
  2  3  1  0
  3  4  1  0
  3 20  2  0
  4  5  2  0
  5  6  1  0
  5 10  1  0
  6  7  1  0
  8  7  1  6
  8  9  1  0
  8 14  1  0
  9 10  2  0
  9 11  1  0
 11 12  2  0
 12 13  1  0
 13 14  1  0
 13 17  1  0
 13 18  1  6
 14 15  1  6
 15 16  1  0
 16 17  1  0
 17 21  1  0
 17 19  1  1
M  END
>  <DRUGBANK_ID>  (1) 
DB02998

>  <SECONDARY_ACCESSION_NUMBERS>  (1) 
EXPT02741

>  <COMMON_NAME>  (1) 
Metribolone

>  <CAS_NUMBER>  (1) 
965-93-5

>  <UNII>  (1) 
2C323EGI97

>  <SYNONYMS>  (1) 
17-beta-Hydroxy-17-methylestra-4,9,11-trien-3-one; 17alpha-Methyltrienolone; Methyltrienolone; Metribolona; Metribolone; Metribolonum

$$$$
