
     RDKit          3D

 22 22  0  0  0  0  0  0  0  0999 V2000
    1.0592   -0.0926   -0.2435 C   0  0  0  0  0  0  0  0  0  0  0  0
    0.9732    4.0931    6.2147 C   0  0  0  0  0  0  0  0  0  0  0  0
    0.6853    2.1358    4.4795 C   0  0  0  0  0  0  0  0  0  0  0  0
    0.6994    0.9633    2.1690 C   0  0  0  0  0  0  0  0  0  0  0  0
    0.3730    0.6147    7.9415 C   0  0  0  0  0  0  0  0  0  0  0  0
    0.5518   -0.9679    0.9089 C   0  0  0  0  0  0  0  0  0  0  0  0
    0.5013    3.0224    7.2061 C   0  0  0  0  0  0  0  0  0  0  0  0
    0.2267    1.3522    5.6285 C   0  0  0  0  0  0  0  0  0  0  0  0
    1.8210   -5.3906    2.7598 C   0  0  0  0  0  0  0  0  0  0  0  0
    0.7752   -5.1379    3.6515 C   0  0  0  0  0  0  0  0  0  0  0  0
    2.5272   -4.3560    2.1629 C   0  0  0  0  0  0  0  0  0  0  0  0
    0.3667   -3.8387    3.8740 C   0  0  0  0  0  0  0  0  0  0  0  0
    2.2137   -3.0680    2.4967 C   0  0  0  0  0  0  0  0  0  0  0  0
    2.4753    1.3014    6.7567 C   0  0  0  0  0  0  0  0  0  0  0  0
    2.8946   -0.1832    6.3999 C   0  0  0  0  0  0  0  0  0  0  0  0
    1.1207   -0.4744    2.2487 C   0  0  0  0  0  0  0  0  0  0  0  0
    1.0603   -2.8058    3.2386 C   0  0  0  0  0  0  0  0  0  0  0  0
    0.6955   -1.3783    3.5065 C   0  0  0  0  0  0  0  0  0  0  0  0
    1.2714   -1.2856    4.9580 C   0  0  0  0  0  0  0  0  0  0  0  0
    0.9337    1.5852    6.8767 N   0  0  0  0  0  0  0  0  0  0  0  0
    0.5631   -1.6101    5.9476 O   0  0  0  0  0  0  0  0  0  0  0  0
    2.4636   -0.6466    5.0788 O   0  0  0  0  0  0  0  0  0  0  0  0
  6  1  1  0
  7  2  1  0
  8  3  1  0
 10  9  2  0
 11  9  1  0
 12 10  1  0
 13 11  2  0
 15 14  1  0
 16  4  1  0
 16  6  1  0
 17 12  2  0
 17 13  1  0
 18 16  1  0
 18 17  1  0
 19 18  1  0
 20  5  1  0
 20  7  1  0
 20  8  1  0
 20 14  1  0
 21 19  2  0
 22 15  1  0
 22 19  1  0
M  CHG  1  20   1
M  END
>  <DRUGBANK_ID>  (1) 
DB13497

>  <COMMON_NAME>  (1) 
Valethamate

>  <CAS_NUMBER>  (1) 
16376-74-2

>  <UNII>  (1) 
D64S64QVX7

$$$$
