
     RDKit          3D

 24 27  0  0  0  0  0  0  0  0999 V2000
    2.4105    0.7327   -0.0285 C   0  0  0  0  0  0  0  0  0  0  0  0
    1.1676    1.3683   -0.0246 C   0  0  0  0  0  0  0  0  0  0  0  0
   -0.0215    0.6531   -0.0102 C   0  0  0  0  0  0  0  0  0  0  0  0
    0.0331   -0.7598   -0.0141 C   0  0  0  0  0  0  0  0  0  0  0  0
    1.3016   -1.3910   -0.0261 C   0  0  0  0  0  0  0  0  0  0  0  0
    2.4840   -0.6559   -0.0002 C   0  0  0  0  0  0  0  0  0  0  0  0
    3.7677   -1.3552    0.0741 C   0  0  0  0  0  0  0  0  0  0  0  0
    4.6540   -1.1981    1.0660 C   0  0  0  0  0  0  0  0  0  0  0  0
    5.9620   -1.8989    1.0777 C   0  0  0  0  0  0  0  0  0  0  0  0
    6.3240   -2.7341    0.2653 O   0  0  0  0  0  0  0  0  0  0  0  0
    6.7032   -1.4657    2.1361 N   0  0  0  0  0  0  0  0  0  0  0  0
    6.1373   -0.5833    2.9989 C   0  0  0  0  0  0  0  0  0  0  0  0
    6.6573   -0.1241    3.9989 O   0  0  0  0  0  0  0  0  0  0  0  0
    4.5194   -0.1952    2.4657 S   0  0  0  0  0  0  0  0  0  0  0  0
   -1.1973   -1.4710   -0.0098 C   0  0  0  0  0  0  0  0  0  0  0  0
   -2.3899   -0.7385   -0.0047 C   0  0  0  0  0  0  0  0  0  0  0  0
   -2.3273    0.6405    0.0035 C   0  0  0  0  0  0  0  0  0  0  0  0
   -1.1751    1.3381    0.0003 N   0  0  0  0  0  0  0  0  0  0  0  0
   -1.2614   -2.9454   -0.0159 C   0  0  0  0  0  0  0  0  0  0  0  0
   -0.6986   -3.7017    1.0206 C   0  0  0  0  0  0  0  0  0  0  0  0
   -0.7429   -5.0837    0.9466 C   0  0  0  0  0  0  0  0  0  0  0  0
   -1.3140   -5.7593   -0.0704 N   0  0  0  0  0  0  0  0  0  0  0  0
   -1.8650   -5.0200   -1.0555 C   0  0  0  0  0  0  0  0  0  0  0  0
   -1.8664   -3.6343   -1.0724 C   0  0  0  0  0  0  0  0  0  0  0  0
  1  2  2  0
  1  6  1  0
  2  3  1  0
  3  4  2  0
  3 18  1  0
  4  5  1  0
  4 15  1  0
  5  6  2  0
  6  7  1  0
  7  8  2  0
  8  9  1  0
  8 14  1  0
  9 10  2  0
  9 11  1  0
 11 12  1  0
 12 13  2  0
 12 14  1  0
 15 16  2  0
 15 19  1  0
 16 17  1  0
 17 18  2  0
 19 20  2  0
 19 24  1  0
 20 21  1  0
 21 22  2  0
 22 23  1  0
 23 24  2  0
M  END
>  <DRUGBANK_ID>  (1) 
DB11962

>  <COMMON_NAME>  (1) 
GSK-1059615

>  <CAS_NUMBER>  (1) 
958852-01-2

>  <UNII>  (1) 
07YMO87363

$$$$
