
     RDKit          3D

 10 10  0  0  1  0  0  0  0  0999 V2000
    0.1206    0.9010   -1.9647 O   0  0  0  0  0  0  0  0  0  0  0  0
    0.4801    1.1985   -0.6165 C   0  0  1  0  0  0  0  0  0  0  0  0
    1.2189    2.5334   -0.5834 C   0  0  0  0  0  0  0  0  0  0  0  0
    1.5759    2.9101    0.7446 O   0  0  0  0  0  0  0  0  0  0  0  0
    0.4389    3.0654    1.5864 C   0  0  2  0  0  0  0  0  0  0  0  0
    0.9031    3.4990    2.8568 O   0  0  0  0  0  0  0  0  0  0  0  0
   -0.3283    1.7322    1.7011 C   0  0  1  0  0  0  0  0  0  0  0  0
   -1.4934    1.8519    2.5258 O   0  0  0  0  0  0  0  0  0  0  0  0
   -0.7462    1.2569    0.3020 C   0  0  2  0  0  0  0  0  0  0  0  0
   -1.3176   -0.0603    0.3885 O   0  0  0  0  0  0  0  0  0  0  0  0
  2  3  1  0
  2  9  1  0
  2  1  1  6
  3  4  1  0
  4  5  1  0
  5  6  1  1
  5  7  1  0
  7  9  1  0
  7  8  1  1
  9 10  1  1
M  END
>  <DRUGBANK_ID>  (1) 
DB03911

>  <SECONDARY_ACCESSION_NUMBERS>  (1) 
EXPT02070

>  <COMMON_NAME>  (1) 
L-Xylopyranose

$$$$
