1569
     RDKit          3D

 25 28  0  0  1  0  0  0  0  0999 V2000
   -0.0416   -2.6872   -0.3244 C   0  0  0  0  0  0  0  0  0  0  0  0
    0.2268   -1.1633   -0.3449 C   0  0  2  0  0  0  0  0  0  0  0  0
   -1.0733   -0.4372   -0.7700 C   0  0  1  0  0  0  0  0  0  0  0  0
    1.5538   -1.1235   -1.1202 C   0  0  0  0  0  0  0  0  0  0  0  0
    0.6148   -0.2497    0.7654 C   0  0  0  0  0  0  0  0  0  0  0  0
   -1.7989   -0.9865   -1.9677 C   0  0  1  0  0  0  0  0  0  0  0  0
   -2.0143   -0.1290    0.4164 C   0  0  2  0  0  0  0  0  0  0  0  0
    0.8862   -1.5265   -2.6375 C   0  0  0  0  0  0  0  0  0  0  0  0
    2.7791   -0.9621   -0.3136 C   0  0  0  0  0  0  0  0  0  0  0  0
    1.3032   -0.7458    1.8002 C   0  0  0  0  0  0  0  0  0  0  0  0
   -3.0723   -0.1492   -2.3586 C   0  0  1  0  0  0  0  0  0  0  0  0
   -0.6762   -0.9477   -3.0563 C   0  0  0  0  0  0  0  0  0  0  0  0
   -2.3311   -1.0521    1.4605 O   0  0  0  0  0  0  0  0  0  0  0  0
   -3.1652    0.8601   -0.0313 C   0  0  0  0  0  0  0  0  0  0  0  0
    2.5124   -0.2007    1.1804 C   0  0  0  0  0  0  0  0  0  0  0  0
    1.2699   -2.2307    2.1241 C   0  0  0  0  0  0  0  0  0  0  0  0
   -4.1978    0.2151   -1.3333 C   0  0  2  0  0  0  0  0  0  0  0  0
   -2.7251    1.3544   -2.7944 C   0  0  0  0  0  0  0  0  0  0  0  0
    3.1518    0.7872    1.6917 O   0  0  0  0  0  0  0  0  0  0  0  0
    1.8423   -3.1106    1.4919 O   0  0  0  0  0  0  0  0  0  0  0  0
   -4.8609   -0.8329   -0.2940 C   0  0  0  0  0  0  0  0  0  0  0  0
   -5.0845    1.1775   -2.7376 C   0  0  1  0  0  0  0  0  0  0  0  0
   -3.9719    2.1871   -2.5818 C   0  0  0  0  0  0  0  0  0  0  0  0
   -5.3420    0.8125   -4.4919 C   0  0  0  0  0  0  0  0  0  0  0  0
   -6.1815    2.1026   -2.6705 O   0  0  0  0  0  0  0  0  0  0  0  0
  2  4  1  0
  2  5  1  0
  2  1  1  1
  3  2  1  0
  3  7  1  1
  4  8  1  0
  4  9  2  0
  5 10  2  0
  6  3  1  0
  6 12  1  6
  7 14  1  0
  7 13  1  6
  8 12  1  0
  9 15  1  0
 10 15  1  0
 10 16  1  0
 11  6  1  0
 11 17  1  0
 11 18  1  1
 15 19  2  0
 16 20  2  0
 17 14  1  0
 17 22  1  0
 17 21  1  1
 18 23  1  0
 22 23  1  0
 22 25  1  0
 22 24  1  6
M  END
>  <DRUGBANK_ID>  (1) 
DB01569

>  <COMMON_NAME>  (1) 
Formebolone

>  <CAS_NUMBER>  (1) 
2454-11-7

>  <UNII>  (1) 
Z2MMV08KUQ

>  <SYNONYMS>  (1) 
11-alpha,17-beta-Dihydroxy-17-methyl-3-oxoandrosta-1,4-diene-2-carboxaldehyde; 2-Formyl-11-alpha-hydroxy-delta(sup 1)-methyltestosterone; 2-formyl-11α-hydroxy-17α-methyl-δ1-testosterone; 2-Formyl-17-alpha-methylandrosta-1,4-diene-11-alpha,17-beta-diol-3-one; Esiclene; Formebolona; Formebolone; Formebolonum; Formyldienolone

$$$$
