
     RDKit          3D

  9  0  0  0  0  0  0  0  0  0999 V2000
    1.0513   -0.0858   -0.0038 S   0  0  0  0  0  0  0  0  0  0  0  0
    0.9738   -0.0121    0.0958 S   0  0  0  0  0  0  0  0  0  0  0  0
    0.9188    0.0484    0.0327 S   0  0  0  0  0  0  0  0  0  0  0  0
    0.9242    0.0117    0.0642 S   0  0  0  0  0  0  0  0  0  0  0  0
    1.0185    0.0289    0.0939 S   0  0  0  0  0  0  0  0  0  0  0  0
    0.9952   -0.0516    0.0855 S   0  0  0  0  0  0  0  0  0  0  0  0
    1.0669   -0.0613   -0.0420 S   0  0  0  0  0  0  0  0  0  0  0  0
    1.0280    0.0948   -0.0149 Re  0  0  0  0  0 15  0  0  0  0  0  0
    0.9285   -0.0196   -0.0671 Re  0  0  0  0  0 15  0  0  0  0  0  0
M  CHG  7   1  -2   2  -2   3  -2   4  -2   5  -2   6  -2   7  -2
M  ISO  2   8 186   9 186
M  END
>  <DRUGBANK_ID>  (1) 
DB13847

>  <COMMON_NAME>  (1) 
Rhenium Re-186 sulfide

>  <UNII>  (1) 
9OT21X1WE1

>  <SYNONYMS>  (1) 
Rhenium (186Re) sulfide colloid

$$$$
