643
     RDKit          3D

 22 24  0  0  0  0  0  0  0  0999 V2000
    0.9779    0.0351    0.0199 O   0  0  0  0  0  0  0  0  0  0  0  0
    8.0876    0.5437    7.6060 O   0  0  0  0  0  0  0  0  0  0  0  0
    6.3718   -0.7875    7.1685 O   0  0  0  0  0  0  0  0  0  0  0  0
    5.7679    1.0723    3.4592 N   0  0  0  0  0  0  0  0  0  0  0  0
    5.0638   -0.4977    4.8327 N   0  0  0  0  0  0  0  0  0  0  0  0
    6.9570    0.8052    5.5679 N   0  0  0  0  0  0  0  0  0  0  0  0
    4.6914    0.4828    2.8254 C   0  0  0  0  0  0  0  0  0  0  0  0
    4.2782   -0.4983    3.7169 C   0  0  0  0  0  0  0  0  0  0  0  0
    2.9565   -0.1373    1.2894 C   0  0  0  0  0  0  0  0  0  0  0  0
    4.0506    0.7024    1.5959 C   0  0  0  0  0  0  0  0  0  0  0  0
    3.1854   -1.3185    3.3990 C   0  0  0  0  0  0  0  0  0  0  0  0
    2.5261   -1.1276    2.1788 C   0  0  0  0  0  0  0  0  0  0  0  0
    5.9579    0.4499    4.6775 C   0  0  0  0  0  0  0  0  0  0  0  0
    2.2038    0.0337    0.0165 C   0  0  0  0  0  0  0  0  0  0  0  0
    2.9436    0.2426   -1.2494 C   0  0  0  0  0  0  0  0  0  0  0  0
    2.5251    1.2534   -2.1196 C   0  0  0  0  0  0  0  0  0  0  0  0
    4.0737   -0.5253   -1.5499 C   0  0  0  0  0  0  0  0  0  0  0  0
    3.2690    1.5282   -3.2679 C   0  0  0  0  0  0  0  0  0  0  0  0
    4.8378   -0.2159   -2.6750 C   0  0  0  0  0  0  0  0  0  0  0  0
    4.4252    0.7961   -3.5426 C   0  0  0  0  0  0  0  0  0  0  0  0
    7.0802    0.1358    6.7755 C   0  0  0  0  0  0  0  0  0  0  0  0
    9.0151    1.5956    7.3304 C   0  0  0  0  0  0  0  0  0  0  0  0
  1 14  2  0
  2 21  1  0
  2 22  1  0
  3 21  2  0
  4  7  1  0
  4 13  1  0
  5  8  1  0
  5 13  2  0
  6 13  1  0
  6 21  1  0
  7  8  2  0
  7 10  1  0
  8 11  1  0
  9 10  2  0
  9 12  1  0
  9 14  1  0
 11 12  2  0
 14 15  1  0
 15 16  2  0
 15 17  1  0
 16 18  1  0
 17 19  2  0
 18 20  2  0
 19 20  1  0
M  END
>  <DRUGBANK_ID>  (1) 
DB00643

>  <SECONDARY_ACCESSION_NUMBERS>  (1) 
APRD01086

>  <COMMON_NAME>  (1) 
Mebendazole

>  <CAS_NUMBER>  (1) 
31431-39-7

>  <UNII>  (1) 
81G6I5V05I

>  <SYNONYMS>  (1) 
(5-benzoyl-1H-benzimidazol-2-yl)-carbamic acid methyl ester; MBDZ; Mebendazol; MÃ©bendazole; Mebendazole; Mebendazolum

$$$$
