1566
     RDKit          3D

 15 16  0  0  1  0  0  0  0  0999 V2000
   -1.4770   -1.1503   -0.0718 O   0  0  0  0  0  0  0  0  0  0  0  0
   -1.4646    1.2596    0.0342 O   0  0  0  0  0  0  0  0  0  0  0  0
    2.5574   -3.3983    1.2823 N   0  0  0  0  0  0  0  0  0  0  0  0
    3.6361   -2.3948    1.1685 C   0  0  0  0  0  0  0  0  0  0  0  0
    3.4595   -1.4842   -0.0817 C   0  0  0  0  0  0  0  0  0  0  0  0
    2.1654   -0.6895   -0.1027 C   0  0  0  0  0  0  0  0  0  0  0  0
    5.0009   -3.0851    1.1173 C   0  0  0  0  0  0  0  0  0  0  0  0
    0.9341   -1.3552   -0.2180 C   0  0  0  0  0  0  0  0  0  0  0  0
    2.5980   -4.2429    2.4716 C   0  0  0  0  0  0  0  0  0  0  0  0
    2.1756    0.7178   -0.0062 C   0  0  0  0  0  0  0  0  0  0  0  0
   -0.2265   -0.6258   -0.1050 C   0  0  0  0  0  0  0  0  0  0  0  0
   -0.2080    0.7384   -0.0132 C   0  0  0  0  0  0  0  0  0  0  0  0
    0.9753    1.4452    0.0113 C   0  0  0  0  0  0  0  0  0  0  0  0
    2.4878   -3.4152    3.7420 C   0  0  0  0  0  0  0  0  0  0  0  0
   -2.2564    0.0514    0.0758 C   0  0  0  0  0  0  0  0  0  0  0  0
  1 11  1  0
  1 15  1  0
  2 12  1  0
  2 15  1  0
  3  4  1  0
  3  9  1  0
  4  5  1  0
  4  7  1  0
  5  6  1  0
  6  8  1  0
  6 10  2  0
  8 11  2  0
  9 14  1  0
 10 13  1  0
 11 12  1  0
 12 13  2  0
M  END
>  <DRUGBANK_ID>  (1) 
DB01566

>  <COMMON_NAME>  (1) 
Methylenedioxyethamphetamine

>  <CAS_NUMBER>  (1) 
82801-81-8

>  <UNII>  (1) 
ML1I4KK67B

>  <SYNONYMS>  (1) 
(+/-)-MDE; 3,4-methylenedioxy-N-ethylamphetamine; MDE; n-ethyl MDA

$$$$
