
     RDKit          3D

 19 19  0  0  0  0  0  0  0  0999 V2000
    1.5017    0.2603   -0.0127 C   0  0  0  0  0  0  0  0  0  0  0  0
    0.4666   -0.5740   -0.0648 C   0  0  0  0  0  0  0  0  0  0  0  0
    1.0529    1.5709   -0.0453 C   0  0  0  0  0  0  0  0  0  0  0  0
    2.7768   -0.2014    0.1478 O   0  0  0  0  0  0  0  0  0  0  0  0
   -0.7829   -0.1781    0.4111 C   0  0  0  0  0  0  0  0  0  0  0  0
   -0.3747    1.8984   -0.1189 C   0  0  0  0  0  0  0  0  0  0  0  0
    3.1140   -1.6403    0.2893 C   0  0  0  0  0  0  0  0  0  0  0  0
   -1.3365    0.9224   -0.0871 C   0  0  0  0  0  0  0  0  0  0  0  0
    2.5997   -2.5079    1.5045 C   0  0  1  0  0  0  0  0  0  0  0  0
   -2.8395    0.8566   -0.1989 C   0  0  0  0  0  0  0  0  0  0  0  0
    1.0875   -2.9002    1.4986 C   0  0  0  0  0  0  0  0  0  0  0  0
    3.3065   -3.7672    1.5142 O   0  0  0  0  0  0  0  0  0  0  0  0
   -3.4927    1.4076    1.0253 C   0  0  0  0  0  0  0  0  0  0  0  0
    0.7222   -3.7404    0.2822 N   0  0  0  0  0  0  0  0  0  0  0  0
   -4.0901    2.6019    0.8259 N   0  0  0  0  0  0  0  0  0  0  0  0
   -3.4536    0.8642    2.1423 O   0  0  0  0  0  0  0  0  0  0  0  0
   -0.7277   -3.8863   -0.0660 C   0  0  0  0  0  0  0  0  0  0  0  0
   -1.4335   -2.6073   -0.3284 C   0  0  0  0  0  0  0  0  0  0  0  0
   -1.0475   -4.5299   -1.3948 C   0  0  0  0  0  0  0  0  0  0  0  0
  1  2  2  0
  1  3  1  0
  1  4  1  0
  2  5  1  0
  3  6  2  0
  4  7  1  0
  5  8  2  0
  6  8  1  0
  7  9  1  0
  8 10  1  0
  9 11  1  0
  9 12  1  6
 10 13  1  0
 11 14  1  0
 13 15  1  0
 13 16  2  0
 14 17  1  0
 17 18  1  0
 17 19  1  0
M  END
>  <DRUGBANK_ID>  (1) 
DB06987

>  <COMMON_NAME>  (1) 
(R)-Atenolol

>  <CAS_NUMBER>  (1) 
56715-13-0

>  <UNII>  (1) 
YG132I00WY

>  <SYNONYMS>  (1) 
(+)-Atenolol; (R)-(+)-Atenolol

$$$$
