
     RDKit          3D

 15 16  0  0  1  0  0  0  0  0999 V2000
   -5.4988    2.0442    4.8044 C   0  0  0  0  0  0  0  0  0  0  0  0
   -5.4982    0.6336    5.4485 C   0  0  0  0  0  0  0  0  0  0  0  0
   -6.6814    0.6118    6.4177 C   0  0  0  0  0  0  0  0  0  0  0  0
   -5.5386   -0.5288    4.4467 C   0  0  0  0  0  0  0  0  0  0  0  0
   -6.3191   -1.6763    4.6518 C   0  0  0  0  0  0  0  0  0  0  0  0
   -6.3219   -2.7085    3.7213 C   0  0  0  0  0  0  0  0  0  0  0  0
   -5.5532   -2.5959    2.5595 C   0  0  0  0  0  0  0  0  0  0  0  0
   -4.7394   -1.4641    2.2974 C   0  0  0  0  0  0  0  0  0  0  0  0
   -3.9466   -1.4420    0.9778 C   0  0  2  0  0  0  0  0  0  0  0  0
   -2.8925   -0.3361    0.7770 C   0  0  0  0  0  0  0  0  0  0  0  0
   -4.9120   -1.4963   -0.2066 C   0  0  0  0  0  0  0  0  0  0  0  0
   -4.3980   -1.5342   -1.6286 C   0  0  0  0  0  0  0  0  0  0  0  0
   -5.1245   -0.3150   -1.1235 C   0  0  0  0  0  0  0  0  0  0  0  0
   -4.7039   -0.4879    3.3079 C   0  0  0  0  0  0  0  0  0  0  0  0
   -3.7784    0.5040    3.3837 O   0  0  0  0  0  0  0  0  0  0  0  0
  1  2  1  0
  2  3  1  0
  2  4  1  0
  4  5  2  0
  4 14  1  0
  5  6  1  0
  6  7  2  0
  7  8  1  0
  8 14  2  0
  9 11  1  0
  9 10  1  6
  9  8  1  0
 11 12  1  0
 11 13  1  0
 12 13  1  0
 14 15  1  0
M  END
>  <DRUGBANK_ID>  (1) 
DB16295

>  <COMMON_NAME>  (1) 
HSK-3486

>  <CAS_NUMBER>  (1) 
1637741-58-2

>  <UNII>  (1) 
M3WGS532VY

$$$$
