
     RDKit          3D

 25 27  0  0  1  0  0  0  0  0999 V2000
    1.0016    0.0138   -0.0214 C   0  0  0  0  0  0  0  0  0  0  0  0
    0.4518    0.8727   -1.1238 C   0  0  0  0  0  0  0  0  0  0  0  0
   -1.8239    2.1389   -4.8661 C   0  0  0  0  0  0  0  0  0  0  0  0
   -0.4286   -1.1795   -6.9049 C   0  0  0  0  0  0  0  0  0  0  0  0
    1.1977    2.4530   -8.7248 C   0  0  0  0  0  0  0  0  0  0  0  0
   -1.1825    3.5180   -4.8861 C   0  0  2  0  0  0  0  0  0  0  0  0
    0.7082    0.3914   -8.7185 C   0  0  0  0  0  0  0  0  0  0  0  0
   -1.3657    4.7232   -5.7995 C   0  0  2  0  0  0  0  0  0  0  0  0
   -0.6378    4.3477   -7.0922 C   0  0  2  0  0  0  0  0  0  0  0  0
    0.5190   -0.9766   -8.9897 C   0  0  0  0  0  0  0  0  0  0  0  0
    0.2314    0.8826   -7.5090 C   0  0  0  0  0  0  0  0  0  0  0  0
    0.4260    3.3738   -6.6287 C   0  0  2  0  0  0  0  0  0  0  0  0
    0.8702   -1.5420  -10.1935 N   0  0  0  0  0  0  0  0  0  0  0  0
   -0.0235   -1.7668   -8.0433 N   0  0  0  0  0  0  0  0  0  0  0  0
   -0.4210    0.1336   -6.6010 N   0  0  0  0  0  0  0  0  0  0  0  0
    1.2736    1.3872   -9.4781 N   0  0  0  0  0  0  0  0  0  0  0  0
    0.8826    0.2990   -2.3944 N   0  0  0  0  0  0  0  0  0  0  0  0
    0.5839    2.2162   -7.5075 N   0  0  0  0  0  0  0  0  0  0  0  0
   -0.6225    5.8289   -5.2012 O   0  0  0  0  0  0  0  0  0  0  0  0
   -0.0047    5.4573   -7.7348 O   0  0  0  0  0  0  0  0  0  0  0  0
    0.9830    2.5888   -3.1672 O   0  0  0  0  0  0  0  0  0  0  0  0
    1.2428    0.6594   -4.7582 O   0  0  0  0  0  0  0  0  0  0  0  0
   -1.1259    1.2887   -3.8690 O   0  0  0  0  0  0  0  0  0  0  0  0
    0.1466    3.1373   -5.2778 O   0  0  0  0  0  0  0  0  0  0  0  0
    0.5336    1.3088   -3.6720 S   0  0  0  0  0  0  0  0  0  0  0  0
  2  1  1  0
  6  3  1  6
  8  6  1  0
  8 19  1  1
  9  8  1  0
  9 20  1  1
 10  7  2  0
 11  7  1  0
 12  9  1  0
 12 18  1  6
 13 10  1  0
 14  4  2  0
 14 10  1  0
 15  4  1  0
 15 11  2  0
 16  5  2  0
 16  7  1  0
 17  2  1  0
 18  5  1  0
 18 11  1  0
 23  3  1  0
 24  6  1  0
 24 12  1  0
 25 17  1  0
 25 21  2  0
 25 22  2  0
 25 23  1  0
M  END
>  <DRUGBANK_ID>  (1) 
DB02162

>  <SECONDARY_ACCESSION_NUMBERS>  (1) 
EXPT00240

>  <COMMON_NAME>  (1) 
5'-O-(N-Ethyl-Sulfamoyl)Adenosine

$$$$
