
     RDKit          3D

 24 27  0  0  1  0  0  0  0  0999 V2000
    1.1528   -0.0580    0.4698 C   0  0  0  0  0  0  0  0  0  0  0  0
    0.8256   -0.5770   -1.3897 C   0  0  2  0  0  0  0  0  0  0  0  0
    1.9564   -0.5545   -2.3759 C   0  0  0  0  0  0  0  0  0  0  0  0
    2.7884    0.6952   -2.3594 C   0  0  1  0  0  0  0  0  0  0  0  0
    1.8558    1.7949   -2.8309 C   0  0  2  0  0  0  0  0  0  0  0  0
    2.6803    3.1123   -2.8816 C   0  0  0  0  0  0  0  0  0  0  0  0
    4.0785    3.0790   -3.1381 C   0  0  0  0  0  0  0  0  0  0  0  0
    4.8954    4.2042   -3.0586 C   0  0  0  0  0  0  0  0  0  0  0  0
    4.3256    5.4233   -2.7665 C   0  0  0  0  0  0  0  0  0  0  0  0
    2.9445    5.5111   -2.5492 C   0  0  0  0  0  0  0  0  0  0  0  0
    2.1061    4.3527   -2.6132 C   0  0  0  0  0  0  0  0  0  0  0  0
    0.6206    4.4420   -2.3356 C   0  0  0  0  0  0  0  0  0  0  0  0
   -0.2651    3.0955   -2.5664 C   0  0  0  0  0  0  0  0  0  0  0  0
    0.4448    1.7528   -1.9593 C   0  0  1  0  0  0  0  0  0  0  0  0
   -0.1372    0.2186   -0.9269 C   0  0  2  0  0  0  0  0  0  0  0  0
    0.3976   -1.7071   -0.3835 C   0  0  0  0  0  0  0  0  0  0  0  0
    0.1923   -2.7947   -1.4176 C   0  0  0  0  0  0  0  0  0  0  0  0
   -0.5642   -1.6525   -1.8562 C   0  0  1  0  0  0  0  0  0  0  0  0
   -1.8845   -1.5929   -0.9389 C   0  0  0  0  0  0  0  0  0  0  0  0
   -2.6934   -1.3600   -0.0381 C   0  0  0  0  0  0  0  0  0  0  0  0
   -0.9177   -1.7387   -3.1932 O   0  0  0  0  0  0  0  0  0  0  0  0
    5.1692    6.4954   -2.7136 O   0  0  0  0  0  0  0  0  0  0  0  0
    3.5104    1.0384   -1.1307 O   0  0  0  0  0  0  0  0  0  0  0  0
    2.7751    1.7947   -0.1818 C   0  0  0  0  0  0  0  0  0  0  0  0
  2  1  1  1
  2  3  1  0
  2 15  1  0
  2 18  1  0
  3  4  1  0
  4  5  1  0
  4 23  1  1
  5  6  1  1
  5 14  1  0
  6  7  2  0
  6 11  1  0
  7  8  1  0
  8  9  2  0
  9 10  1  0
  9 22  1  0
 10 11  2  0
 11 12  1  0
 12 13  1  0
 14 13  1  6
 14 15  1  0
 15 16  1  1
 16 17  1  0
 17 18  1  0
 18 19  1  0
 18 21  1  6
 19 20  3  0
 23 24  1  0
M  END
>  <DRUGBANK_ID>  (1) 
DB13418

>  <COMMON_NAME>  (1) 
Moxestrol

>  <CAS_NUMBER>  (1) 
34816-55-2

>  <UNII>  (1) 
6923NT44OW

>  <SYNONYMS>  (1) 
Moxestrol

$$$$
