
     RDKit          3D

 12 12  0  0  1  0  0  0  0  0999 V2000
    1.2375    0.1874    0.1238 C   0  0  0  0  0  0  0  0  0  0  0  0
    0.5427   -0.8852    0.9937 C   0  0  2  0  0  0  0  0  0  0  0  0
    0.8266   -2.3554    0.5692 C   0  0  2  0  0  0  0  0  0  0  0  0
    0.1135   -2.6702   -0.7773 C   0  0  1  0  0  0  0  0  0  0  0  0
   -1.3747   -2.2724   -0.7072 C   0  0  2  0  0  0  0  0  0  0  0  0
   -1.5262   -0.8206   -0.2067 C   0  0  1  0  0  0  0  0  0  0  0  0
    0.3883   -3.2881    1.6415 N   0  0  0  0  0  0  0  0  0  0  0  0
    0.8235    1.5036    0.4884 O   0  0  0  0  0  0  0  0  0  0  0  0
    0.8322   -2.0747   -1.8592 O   0  0  0  0  0  0  0  0  0  0  0  0
   -2.0326   -3.1594    0.2245 O   0  0  0  0  0  0  0  0  0  0  0  0
   -2.8932   -0.5159   -0.0075 O   0  0  0  0  0  0  0  0  0  0  0  0
   -0.8871   -0.6723    1.0601 O   0  0  0  0  0  0  0  0  0  0  0  0
  2  1  1  6
  3  2  1  0
  3  7  1  1
  4  3  1  0
  4  9  1  6
  5  4  1  0
  5 10  1  1
  6  5  1  0
  6 11  1  1
  8  1  1  0
 12  2  1  0
 12  6  1  0
M  END
>  <DRUGBANK_ID>  (1) 
DB03291

>  <SECONDARY_ACCESSION_NUMBERS>  (1) 
EXPT01568

>  <COMMON_NAME>  (1) 
4-Deoxy-4-Amino-Beta-D-Glucose

$$$$
