
     RDKit          3D

 30 33  0  0  0  0  0  0  0  0999 V2000
   -2.7557    0.8094    0.1017 Cl  0  0  0  0  0  0  0  0  0  0  0  0
   -0.3625   -5.1113    6.1639 Cl  0  0  0  0  0  0  0  0  0  0  0  0
    2.5883    0.7362   -0.0199 Cl  0  0  0  0  0  0  0  0  0  0  0  0
   -6.6542   -3.6383   -1.4966 O   0  0  0  0  0  0  0  0  0  0  0  0
   -4.6062   -1.3443   -3.2151 N   0  0  0  0  0  0  0  0  0  0  0  0
   -5.6484   -2.1643   -2.8192 N   0  0  0  0  0  0  0  0  0  0  0  0
   -2.6004   -2.3117    0.2000 N   0  0  0  0  0  0  0  0  0  0  0  0
   -3.4270   -2.1091   -0.8459 N   0  0  0  0  0  0  0  0  0  0  0  0
   -2.9426    0.3780   -4.8188 C   0  0  0  0  0  0  0  0  0  0  0  0
   -2.5956   -1.0884   -4.5772 C   0  0  0  0  0  0  0  0  0  0  0  0
   -3.8268    0.9211   -3.7004 C   0  0  0  0  0  0  0  0  0  0  0  0
   -3.8532   -1.9151   -4.3286 C   0  0  0  0  0  0  0  0  0  0  0  0
   -5.0409    0.0267   -3.4644 C   0  0  0  0  0  0  0  0  0  0  0  0
   -5.6488   -2.9252   -1.6607 C   0  0  0  0  0  0  0  0  0  0  0  0
   -4.5028   -2.8945   -0.6877 C   0  0  0  0  0  0  0  0  0  0  0  0
   -4.3720   -3.6572    0.5273 C   0  0  0  0  0  0  0  0  0  0  0  0
   -3.1110   -3.3079    1.0710 C   0  0  0  0  0  0  0  0  0  0  0  0
   -2.4723   -3.7523    2.3440 C   0  0  0  0  0  0  0  0  0  0  0  0
   -5.4344   -4.5899    1.0494 C   0  0  0  0  0  0  0  0  0  0  0  0
   -1.3505   -1.5790    0.1823 C   0  0  0  0  0  0  0  0  0  0  0  0
   -2.1840   -2.8506    3.3853 C   0  0  0  0  0  0  0  0  0  0  0  0
   -2.1558   -5.1056    2.5685 C   0  0  0  0  0  0  0  0  0  0  0  0
   -1.3274   -0.1679    0.0620 C   0  0  0  0  0  0  0  0  0  0  0  0
   -0.1149   -2.2503    0.1424 C   0  0  0  0  0  0  0  0  0  0  0  0
   -1.5451   -3.2715    4.5710 C   0  0  0  0  0  0  0  0  0  0  0  0
   -1.5126   -5.5290    3.7509 C   0  0  0  0  0  0  0  0  0  0  0  0
   -0.1090    0.5466    0.0005 C   0  0  0  0  0  0  0  0  0  0  0  0
    1.0999   -1.5279    0.0538 C   0  0  0  0  0  0  0  0  0  0  0  0
   -1.1933   -4.6063    4.7409 C   0  0  0  0  0  0  0  0  0  0  0  0
    1.0999   -0.1355    0.0092 C   0  0  0  0  0  0  0  0  0  0  0  0
  1 23  1  0
  2 29  1  0
  3 30  1  0
  4 14  2  0
  5  6  1  0
  5 12  1  0
  5 13  1  0
  6 14  1  0
  7  8  1  0
  7 17  1  0
  7 20  1  0
  8 15  2  0
  9 10  1  0
  9 11  1  0
 10 12  1  0
 11 13  1  0
 14 15  1  0
 15 16  1  0
 16 17  2  0
 16 19  1  0
 17 18  1  0
 18 21  2  0
 18 22  1  0
 20 23  2  0
 20 24  1  0
 21 25  1  0
 22 26  2  0
 23 27  1  0
 24 28  2  0
 25 29  2  0
 26 29  1  0
 27 30  2  0
 28 30  1  0
M  END
>  <DRUGBANK_ID>  (1) 
DB06155

>  <COMMON_NAME>  (1) 
Rimonabant

>  <CAS_NUMBER>  (1) 
168273-06-1

>  <UNII>  (1) 
RML78EN3XE

>  <SYNONYMS>  (1) 
Rimonabant

$$$$
