PMD
     RDKit          3D

 28 32  0  0  0  0  0  0  0  0999 V2000
    0.8924   -0.6931   -6.0384 C   0  0  0  0  0  0  0  0  0  0  0  0
   -0.7210   -1.8555   -4.8968 C   0  0  0  0  0  0  0  0  0  0  0  0
   -1.6203   -0.7582   -4.8273 C   0  0  0  0  0  0  0  0  0  0  0  0
   -3.3405    0.5215   -3.8999 C   0  0  0  0  0  0  0  0  0  0  0  0
   -2.8980    1.6498   -4.5152 C   0  0  0  0  0  0  0  0  0  0  0  0
   -1.1445    0.3727   -5.4678 C   0  0  0  0  0  0  0  0  0  0  0  0
   -3.7643    0.8669   -2.5109 C   0  0  0  0  0  0  0  0  0  0  0  0
   -0.7982    1.6021   -2.4272 C   0  0  0  0  0  0  0  0  0  0  0  0
   -0.0074    2.2348   -3.6014 C   0  0  0  0  0  0  0  0  0  0  0  0
    1.4447    1.7590   -4.1941 C   0  0  0  0  0  0  0  0  0  0  0  0
    2.1158    0.6449   -3.7360 C   0  0  0  0  0  0  0  0  0  0  0  0
    1.4115    0.0881   -2.7346 C   0  0  0  0  0  0  0  0  0  0  0  0
    0.1173    0.5542   -2.0797 C   0  0  0  0  0  0  0  0  0  0  0  0
   -0.2314   -0.6981   -1.5508 C   0  0  0  0  0  0  0  0  0  0  0  0
   -1.5793   -0.8702   -1.3221 C   0  0  0  0  0  0  0  0  0  0  0  0
   -1.9167   -0.2428   -0.1745 C   0  0  0  0  0  0  0  0  0  0  0  0
   -1.4130   -0.6735    1.0374 C   0  0  0  0  0  0  0  0  0  0  0  0
   -2.0398   -0.3149    2.1583 C   0  0  0  0  0  0  0  0  0  0  0  0
   -3.3610    0.1032    2.0102 C   0  0  0  0  0  0  0  0  0  0  0  0
   -3.7958    0.6650    0.7292 C   0  0  0  0  0  0  0  0  0  0  0  0
   -2.8033    0.7976   -0.2948 C   0  0  0  0  0  0  0  0  0  0  0  0
    0.0653    0.3704   -6.0889 N   0  0  0  0  0  0  0  0  0  0  0  0
    2.2324   -0.5539   -6.4683 N   0  0  0  0  0  0  0  0  0  0  0  0
    0.5210   -1.8336   -5.4618 N   0  0  0  0  0  0  0  0  0  0  0  0
   -1.0261   -3.0224   -4.1605 N   0  0  0  0  0  0  0  0  0  0  0  0
   -2.8249   -0.7252   -4.1515 N   0  0  0  0  0  0  0  0  0  0  0  0
   -1.8698    1.5432   -5.3780 N   0  0  0  0  0  0  0  0  0  0  0  0
   -2.4494    1.5977   -1.7335 N   0  0  0  0  0  0  0  0  0  0  0  0
  1 22  2  0
  1 23  1  0
  1 24  1  0
  2  3  1  0
  2 24  2  0
  2 25  1  0
  3  6  2  0
  3 26  1  0
  4  5  1  0
  4  7  1  0
  4 26  2  0
  5 27  2  0
  6 22  1  0
  6 27  1  0
  7 28  1  0
  8  9  2  0
  8 13  1  0
  8 28  1  0
  9 10  1  0
 10 11  2  0
 11 12  1  0
 12 13  2  0
 13 14  1  0
 14 15  2  0
 15 16  1  0
 16 17  1  0
 16 21  2  0
 17 18  2  0
 18 19  1  0
 19 20  2  0
 20 21  1  0
 21 28  1  0
M  END
>  <DRUGBANK_ID>  (1) 
DB08406

>  <COMMON_NAME>  (1) 
[N-(2,4-DIAMINOPTERIDIN-6-YL)-METHYL]-DIBENZ[B,F]AZEPINE

$$$$
