
     RDKit          3D

 32 31  0  0  1  0  0  0  0  0999 V2000
    4.6211  -13.2523   -4.2407 C   0  0  0  0  0  0  0  0  0  0  0  0
    4.6675  -13.0701   -5.7489 C   0  0  0  0  0  0  0  0  0  0  0  0
    3.2663  -13.2194   -6.3425 C   0  0  0  0  0  0  0  0  0  0  0  0
    2.3087  -12.1716   -5.7648 C   0  0  0  0  0  0  0  0  0  0  0  0
    2.8244  -10.7583   -6.0546 C   0  0  0  0  0  0  0  0  0  0  0  0
    2.9182  -10.5431   -7.5678 C   0  0  0  0  0  0  0  0  0  0  0  0
    1.5306  -10.7163   -8.1930 C   0  0  0  0  0  0  0  0  0  0  0  0
    0.5779   -9.6913   -7.5770 C   0  0  0  0  0  0  0  0  0  0  0  0
    1.1448   -8.2926   -7.8390 C   0  0  0  0  0  0  0  0  0  0  0  0
    1.2703   -8.0813   -9.3579 C   0  0  0  0  0  0  0  0  0  0  0  0
   -0.1083   -8.2238   -9.9839 C   0  0  0  0  0  0  0  0  0  0  0  0
   -0.9587   -7.1735   -9.3119 C   0  0  0  0  0  0  0  0  0  0  0  0
   -0.4214   -5.7788   -9.5967 C   0  0  0  0  0  0  0  0  0  0  0  0
   -0.1581   -5.4298  -11.0709 C   0  0  0  0  0  0  0  0  0  0  0  0
   -1.3423   -5.3953  -11.9516 C   0  0  0  0  0  0  0  0  0  0  0  0
   -4.0509   -7.6779  -10.4607 C   0  0  0  0  0  0  0  0  0  0  0  0
   -3.5532   -3.5546   -9.1774 C   0  0  0  0  0  0  0  0  0  0  0  0
   -5.7694   -6.0713   -9.6450 C   0  0  0  0  0  0  0  0  0  0  0  0
   -3.5465   -1.8438  -10.9459 C   0  0  0  0  0  0  0  0  0  0  0  0
   -4.3330   -6.4673   -9.5792 C   0  0  1  0  0  0  0  0  0  0  0  0
   -3.4956   -2.0842   -9.4463 C   0  0  1  0  0  0  0  0  0  0  0  0
   -2.4246   -4.5223  -11.4095 C   0  0  0  0  0  0  0  0  0  0  0  0
   -3.0490   -7.3740  -11.4112 O   0  0  0  0  0  0  0  0  0  0  0  0
   -3.7433   -6.3685   -8.2939 O   0  0  0  0  0  0  0  0  0  0  0  0
   -4.5533   -1.3767   -8.8056 O   0  0  0  0  0  0  0  0  0  0  0  0
   -3.1166   -4.0985  -12.2814 O   0  0  0  0  0  0  0  0  0  0  0  0
   -6.4845   -3.3380  -10.4545 O   0  0  0  0  0  0  0  0  0  0  0  0
   -5.5664   -4.1943  -12.7608 O   0  0  0  0  0  0  0  0  0  0  0  0
   -2.5339   -4.2704  -10.0509 O   0  0  0  0  0  0  0  0  0  0  0  0
   -5.8955   -5.5385  -10.9595 O   0  0  0  0  0  0  0  0  0  0  0  0
   -4.7422   -2.3343  -11.5712 O   0  0  0  0  0  0  0  0  0  0  0  0
   -5.3189   -3.9364  -11.2653 P   0  0  2  0  0  0  0  0  0  0  0  0
  2  1  1  0
  3  2  1  0
  4  3  1  0
  5  4  1  0
  6  5  1  0
  7  6  1  0
  8  7  1  0
  9  8  1  0
 10  9  1  0
 11 10  1  0
 12 11  1  0
 13 12  1  0
 14 13  1  0
 15 14  1  0
 20 24  1  1
 20 18  1  0
 20 16  1  0
 21 17  1  0
 21 19  1  0
 21 25  1  1
 22 15  1  0
 23 16  1  0
 26 22  2  0
 29 17  1  0
 29 22  1  0
 30 18  1  0
 31 19  1  0
 32 27  1  1
 32 28  2  0
 32 30  1  0
 32 31  1  0
M  CHG  1  27  -1
M  END
>  <DRUGBANK_ID>  (1) 
DB03438

>  <SECONDARY_ACCESSION_NUMBERS>  (1) 
EXPT02571

>  <COMMON_NAME>  (1) 
Lysophosphatidylglycerol

$$$$
