391
     RDKit          3D

 23 24  0  0  1  0  0  0  0  0999 V2000
    0.9477    0.2033    0.0466 S   0  0  0  0  0  0  0  0  0  0  0  0
    6.4886   -2.9193    0.5085 O   0  0  0  0  0  0  0  0  0  0  0  0
    6.9184    0.1864    0.0418 O   0  0  0  0  0  0  0  0  0  0  0  0
    0.5202    0.7363    1.3206 O   0  0  0  0  0  0  0  0  0  0  0  0
    0.4648    0.7007   -1.2154 O   0  0  0  0  0  0  0  0  0  0  0  0
    3.1388   -6.0401   -0.6251 N   0  0  0  0  0  0  0  0  0  0  0  0
    4.5146   -3.6444    0.4834 N   0  0  0  0  0  0  0  0  0  0  0  0
    0.4851   -1.4335    0.1151 N   0  0  0  0  0  0  0  0  0  0  0  0
    2.7409   -4.6228   -0.7825 C   0  0  0  0  0  0  0  0  0  0  0  0
    1.2734   -4.6370   -1.1786 C   0  0  0  0  0  0  0  0  0  0  0  0
    1.1767   -5.8920   -2.0283 C   0  0  0  0  0  0  0  0  0  0  0  0
    2.3342   -6.7915   -1.5943 C   0  0  0  0  0  0  0  0  0  0  0  0
    3.1004   -3.8231    0.4675 C   0  0  0  0  0  0  0  0  0  0  0  0
    2.9664   -6.5462    0.7543 C   0  0  0  0  0  0  0  0  0  0  0  0
    1.5543   -6.3788    1.3323 C   0  0  0  0  0  0  0  0  0  0  0  0
    5.3398   -2.5797    0.3438 C   0  0  0  0  0  0  0  0  0  0  0  0
    4.8037   -1.1708    0.0994 C   0  0  0  0  0  0  0  0  0  0  0  0
    3.4233   -0.9912   -0.1396 C   0  0  0  0  0  0  0  0  0  0  0  0
    5.5611    0.0031    0.1330 C   0  0  0  0  0  0  0  0  0  0  0  0
    2.7297    0.2037    0.0008 C   0  0  0  0  0  0  0  0  0  0  0  0
    4.8706    1.2493    0.1747 C   0  0  0  0  0  0  0  0  0  0  0  0
    3.4670    1.3580    0.1357 C   0  0  0  0  0  0  0  0  0  0  0  0
    7.7647   -0.9318   -0.1887 C   0  0  0  0  0  0  0  0  0  0  0  0
  1  4  2  0
  1  5  2  0
  1  8  1  0
  1 20  1  0
  2 16  2  0
  3 19  1  0
  3 23  1  0
  6  9  1  0
  6 12  1  0
  6 14  1  0
  7 13  1  0
  7 16  1  0
  9 10  1  0
  9 13  1  0
 10 11  1  0
 11 12  1  0
 14 15  1  0
 16 17  1  0
 17 18  2  0
 17 19  1  0
 18 20  1  0
 19 21  2  0
 20 22  2  0
 21 22  1  0
M  END
>  <DRUGBANK_ID>  (1) 
DB00391

>  <SECONDARY_ACCESSION_NUMBERS>  (1) 
APRD00032

>  <COMMON_NAME>  (1) 
Sulpiride

>  <CAS_NUMBER>  (1) 
15676-16-1

>  <UNII>  (1) 
7MNE9M8287

>  <SYNONYMS>  (1) 
(Â±)-sulpiride; 5-(Aminosulfonyl)-N-((1-ethyl-2-pyrrolidinyl)methyl)-2-methoxybenzamide; N-((1-Ethyl-2-pyrrolidinyl)methyl)-2-methoxy-5-sulfamoylbenzamide; N-((1-Ethyl-2-pyrrolidinyl)methyl)-5-sulfamoyl-o-anisamide; Sulpirid; Sulpirida; Sulpiride; Sulpiridum; Sulpyrid

$$$$
