
     RDKit          3D

 38 45  0  0  0  0  0  0  0  0999 V2000
   -1.8022    0.2965    0.0644 C   0  0  0  0  0  0  0  0  0  0  0  0
   -2.3931   -0.9966    0.1190 C   0  0  0  0  0  0  0  0  0  0  0  0
   -1.5249   -2.2463    0.2010 C   0  0  0  0  0  0  0  0  0  0  0  0
   -0.1121   -2.1075    0.4705 C   0  0  0  0  0  0  0  0  0  0  0  0
    0.4527   -0.7638    0.3118 C   0  0  0  0  0  0  0  0  0  0  0  0
   -0.3588    0.4908    0.1394 C   0  0  0  0  0  0  0  0  0  0  0  0
    0.1515    1.9290    0.1238 C   0  0  0  0  0  0  0  0  0  0  0  0
    1.8604   -0.6068    0.2485 C   0  0  0  0  0  0  0  0  0  0  0  0
    2.3278    0.9135    0.2043 C   0  0  0  0  0  0  0  0  0  0  0  0
    1.5589    2.3828    0.2915 C   0  0  0  0  0  0  0  0  0  0  0  0
   -1.9596   -3.6477   -0.0597 C   0  0  0  0  0  0  0  0  0  0  0  0
   -3.8869   -0.9663    0.1423 C   0  0  0  0  0  0  0  0  0  0  0  0
   -4.7191   -2.1525    0.4591 C   0  0  0  0  0  0  0  0  0  0  0  0
   -3.3346   -4.0744   -0.4367 C   0  0  0  0  0  0  0  0  0  0  0  0
    3.7253    0.9449    0.0561 C   0  0  0  0  0  0  0  0  0  0  0  0
    2.0057    4.0206    0.4264 C   0  0  0  0  0  0  0  0  0  0  0  0
    1.6155    5.6755    0.3523 O   0  0  0  0  0  0  0  0  0  0  0  0
    4.2633    2.2061   -0.0196 O   0  0  0  0  0  0  0  0  0  0  0  0
    4.1277   -1.6001    0.0845 C   0  0  0  0  0  0  0  0  0  0  0  0
    4.5523   -0.2317    0.0049 C   0  0  0  0  0  0  0  0  0  0  0  0
    2.7627   -1.8681    0.2484 C   0  0  0  0  0  0  0  0  0  0  0  0
    2.1646   -3.3982    0.4896 C   0  0  0  0  0  0  0  0  0  0  0  0
    0.6569   -3.3531    0.6244 C   0  0  0  0  0  0  0  0  0  0  0  0
    0.1930   -4.3932   -0.1678 C   0  0  0  0  0  0  0  0  0  0  0  0
   -1.1201   -4.7333   -0.1164 C   0  0  0  0  0  0  0  0  0  0  0  0
    0.9424    4.4848   -0.3106 C   0  0  0  0  0  0  0  0  0  0  0  0
   -0.4080    4.2896   -0.0482 C   0  0  0  0  0  0  0  0  0  0  0  0
   -0.7707    3.0000    0.0311 C   0  0  0  0  0  0  0  0  0  0  0  0
   -2.2212    2.7816    0.0061 C   0  0  0  0  0  0  0  0  0  0  0  0
   -2.7259    1.4251   -0.0074 C   0  0  0  0  0  0  0  0  0  0  0  0
   -4.1412    1.3395   -0.0354 C   0  0  0  0  0  0  0  0  0  0  0  0
   -4.7191    0.1307   -0.0001 C   0  0  0  0  0  0  0  0  0  0  0  0
    5.0999   -2.5697    0.0386 O   0  0  0  0  0  0  0  0  0  0  0  0
    0.4971   -3.7834   -1.5360 O   0  0  0  0  0  0  0  0  0  0  0  0
   -1.1952    5.4093    0.0045 O   0  0  0  0  0  0  0  0  0  0  0  0
   -4.9873    2.4117   -0.0297 O   0  0  0  0  0  0  0  0  0  0  0  0
   -2.9797    3.7386   -0.0031 O   0  0  0  0  0  0  0  0  0  0  0  0
    2.6663   -4.5237    0.3490 O   0  0  0  0  0  0  0  0  0  0  0  0
  1 30  1  0
  2  1  2  0
  2 12  1  0
  3  2  1  0
  3 11  2  0
  4  3  1  0
  5  4  1  0
  5  6  2  0
  6  1  1  0
  6  7  1  0
  8  5  1  0
  8 21  2  0
  9 10  1  0
  9  8  1  0
 10 16  1  0
 10  7  2  0
 11 14  1  0
 11 25  1  0
 12 13  1  0
 15  9  2  0
 15 18  1  0
 16 17  1  0
 16 26  2  0
 19 21  1  0
 19 20  2  0
 19 33  1  0
 20 15  1  0
 22 21  1  0
 22 23  1  0
 22 38  2  0
 23  4  2  0
 24 23  1  0
 24 25  2  0
 24 34  1  0
 26 27  1  0
 27 28  2  0
 27 35  1  0
 28  7  1  0
 28 29  1  0
 29 30  1  0
 29 37  2  0
 30 31  2  0
 31 32  1  0
 31 36  1  0
 32 12  2  0
M  END
>  <DRUGBANK_ID>  (1) 
DB13014

>  <COMMON_NAME>  (1) 
Hypericin

>  <CAS_NUMBER>  (1) 
548-04-9

>  <UNII>  (1) 
7V2F1075HD

>  <SYNONYMS>  (1) 
Hipericina; Hypericin; Hyp√©ricine; Hypericum red; Hyperizin

$$$$
