
     RDKit          3D

 21 24  0  0  1  0  0  0  0  0999 V2000
   -0.7294    0.5529   -0.3952 C   0  0  1  0  0  0  0  0  0  0  0  0
   -1.3870   -0.8549   -0.3712 C   0  0  1  0  0  0  0  0  0  0  0  0
    0.8068    0.4936   -0.0469 C   0  0  0  0  0  0  0  0  0  0  0  0
   -1.0120    1.0215   -1.8667 C   0  0  0  0  0  0  0  0  0  0  0  0
   -1.3719    1.5805    0.5478 C   0  0  0  0  0  0  0  0  0  0  0  0
   -0.3348   -1.8117   -1.0296 C   0  0  1  0  0  0  0  0  0  0  0  0
   -2.6908   -0.9613    0.4580 C   0  0  0  0  0  0  0  0  0  0  0  0
    1.5444   -0.7136    0.1082 C   0  0  0  0  0  0  0  0  0  0  0  0
    1.5533    1.6761   -0.0511 C   0  0  0  0  0  0  0  0  0  0  0  0
   -0.9077   -0.1411   -2.8617 C   0  0  0  0  0  0  0  0  0  0  0  0
   -2.8905    1.6276    0.5044 C   0  0  0  0  0  0  0  0  0  0  0  0
    0.0199   -1.1227   -2.3544 N   0  0  0  0  0  0  0  0  0  0  0  0
    0.9435   -2.0427   -0.2359 C   0  0  0  0  0  0  0  0  0  0  0  0
   -3.5513    0.3083    0.1093 C   0  0  0  0  0  0  0  0  0  0  0  0
    2.9481   -0.7193    0.2574 C   0  0  0  0  0  0  0  0  0  0  0  0
    2.9431    1.6488    0.0338 C   0  0  0  0  0  0  0  0  0  0  0  0
    1.2276   -1.2014   -3.1534 C   0  0  0  0  0  0  0  0  0  0  0  0
    3.6537    0.4670    0.1732 C   0  0  0  0  0  0  0  0  0  0  0  0
    3.6018    2.8338   -0.0965 O   0  0  0  0  0  0  0  0  0  0  0  0
    1.1689   -2.5738   -3.7191 C   0  0  0  0  0  0  0  0  0  0  0  0
    0.7023   -2.8664   -4.9143 C   0  0  0  0  0  0  0  0  0  0  0  0
  1  2  1  0
  1  3  1  0
  1  4  1  6
  1  5  1  0
  2  6  1  0
  2  7  1  1
  3  8  2  0
  3  9  1  0
  4 10  1  0
  5 11  1  0
  6 12  1  0
  6 13  1  1
  7 14  1  0
  8 15  1  0
  8 13  1  0
  9 16  2  0
 10 12  1  0
 11 14  1  0
 12 17  1  0
 15 18  2  0
 16 18  1  0
 16 19  1  0
 17 20  1  0
 20 21  2  0
M  END
>  <DRUGBANK_ID>  (1) 
DB00504

>  <SECONDARY_ACCESSION_NUMBERS>  (1) 
APRD00733

>  <COMMON_NAME>  (1) 
Levallorphan

>  <CAS_NUMBER>  (1) 
152-02-3

>  <UNII>  (1) 
353613BU4U

>  <SYNONYMS>  (1) 
Levallofano; Levallorphan; LÃ©vallorphane; Levallorphanum; Levalorfano

$$$$
