J78
     RDKit          3D

 28 30  0  0  0  0  0  0  0  0999 V2000
    1.0747    0.0513    0.0094 C   0  0  0  0  0  0  0  0  0  0  0  0
    0.5529    0.0439   -1.3934 C   0  0  0  0  0  0  0  0  0  0  0  0
    0.2945   -1.1448   -2.0474 C   0  0  0  0  0  0  0  0  0  0  0  0
   -0.4297   -1.1079   -3.2364 C   0  0  0  0  0  0  0  0  0  0  0  0
   -0.6323    0.1047   -3.8773 C   0  0  0  0  0  0  0  0  0  0  0  0
   -0.2332    1.2399   -3.2697 N   0  0  0  0  0  0  0  0  0  0  0  0
    0.2923    1.2202   -1.9915 N   0  0  0  0  0  0  0  0  0  0  0  0
   -1.1522    0.1659   -5.1437 N   0  0  0  0  0  0  0  0  0  0  0  0
   -2.4799   -0.3039   -5.4715 C   0  0  0  0  0  0  0  0  0  0  0  0
   -2.3795   -1.4892   -6.3925 C   0  0  0  0  0  0  0  0  0  0  0  0
   -1.5175   -1.1495   -7.5803 C   0  0  0  0  0  0  0  0  0  0  0  0
   -0.1476   -0.5327   -7.2050 C   0  0  0  0  0  0  0  0  0  0  0  0
   -0.3149    0.6256   -6.2341 C   0  0  0  0  0  0  0  0  0  0  0  0
   -1.3261   -2.4558   -8.3088 C   0  0  0  0  0  0  0  0  0  0  0  0
   -2.4948   -2.9954   -9.1243 C   0  0  0  0  0  0  0  0  0  0  0  0
   -3.0583   -1.9718  -10.1267 C   0  0  0  0  0  0  0  0  0  0  0  0
   -2.2691   -1.7597  -11.3416 O   0  0  0  0  0  0  0  0  0  0  0  0
   -1.0383   -1.1605  -11.2417 C   0  0  0  0  0  0  0  0  0  0  0  0
    0.0855   -1.8494  -10.7954 C   0  0  0  0  0  0  0  0  0  0  0  0
    1.2142   -1.1537  -10.3167 C   0  0  0  0  0  0  0  0  0  0  0  0
    1.3581    0.2021  -10.5794 C   0  0  0  0  0  0  0  0  0  0  0  0
    0.3329    0.8391  -11.2948 C   0  0  0  0  0  0  0  0  0  0  0  0
   -0.8331    0.1391  -11.6749 C   0  0  0  0  0  0  0  0  0  0  0  0
    2.6095    0.9541  -10.2432 C   0  0  0  0  0  0  0  0  0  0  0  0
    2.7954    2.0895  -10.6076 O   0  0  0  0  0  0  0  0  0  0  0  0
    3.5106    0.1689   -9.5757 O   0  0  0  0  0  0  0  0  0  0  0  0
    4.8210    0.7428   -9.3731 C   0  0  0  0  0  0  0  0  0  0  0  0
    5.5684    0.9216  -10.6872 C   0  0  0  0  0  0  0  0  0  0  0  0
  1  2  1  0
  2  3  2  0
  2  7  1  0
  3  4  1  0
  4  5  2  0
  5  6  1  0
  5  8  1  0
  6  7  2  0
  8  9  1  0
  8 13  1  0
  9 10  1  0
 10 11  1  0
 11 12  1  0
 11 14  1  0
 12 13  1  0
 14 15  1  0
 15 16  1  0
 16 17  1  0
 17 18  1  0
 18 19  2  0
 18 23  1  0
 19 20  1  0
 20 21  2  0
 21 22  1  0
 21 24  1  0
 22 23  2  0
 24 25  2  0
 24 26  1  0
 26 27  1  0
 27 28  1  0
M  END
>  <DRUGBANK_ID>  (1) 
DB08013

>  <COMMON_NAME>  (1) 
(METHYLPYRIDAZINE PIPERIDINE PROPYLOXYPHENYL)ETHYLACETATE

>  <UNII>  (1) 
3GR7JE5BNH

$$$$
