
     RDKit          3D

 10  9  0  0  0  0  0  0  0  0999 V2000
    1.1431    0.0396    2.3088 O   0  0  0  0  0  0  0  0  0  0  0  0
    0.6097    0.7433    1.1743 C   0  0  2  0  0  0  0  0  0  0  0  0
    1.0816    0.0555   -0.1222 C   0  0  2  0  0  0  0  0  0  0  0  0
    2.3407    0.5213   -0.6094 O   0  0  0  0  0  0  0  0  0  0  0  0
    0.0014    0.1742   -1.1818 C   0  0  0  0  0  0  0  0  0  0  0  0
   -0.4498    1.2203   -1.6220 O   0  0  0  0  0  0  0  0  0  0  0  0
   -0.4181   -1.0179   -1.6525 O   0  0  0  0  0  0  0  0  0  0  0  0
    1.0416    2.2063    1.2570 C   0  0  0  0  0  0  0  0  0  0  0  0
    0.3211    3.1932    1.2617 O   0  0  0  0  0  0  0  0  0  0  0  0
    2.3889    2.3435    1.3032 O   0  0  0  0  0  0  0  0  0  0  0  0
  2  8  1  0
  2  3  1  0
  2  1  1  1
  3  5  1  0
  3  4  1  6
  5  6  2  0
  5  7  1  0
  8  9  2  0
  8 10  1  0
M  END
>  <DRUGBANK_ID>  (1) 
DB14756

>  <COMMON_NAME>  (1) 
meso-Tartaric acid

>  <CAS_NUMBER>  (1) 
147-73-9

>  <UNII>  (1) 
JQO211TF1A

>  <SYNONYMS>  (1) 
(2R,3S)-2,3-dihydroxysuccinic acid; (2R,3S)-tartaric acid; (R,S)-Tartaric acid; Erythraric acid; i-Tartaric acid; m-tartaric acid; mesotartaric acid; Mesoweins√§ure

$$$$
