SCF
     RDKit          3D

 24 27  0  0  0  0  0  0  0  0999 V2000
    1.4259   -1.3542   -0.0129 C   0  0  0  0  0  0  0  0  0  0  0  0
    0.1590   -0.8154    0.0225 C   0  0  0  0  0  0  0  0  0  0  0  0
    0.3235    0.5766    0.0077 N   0  0  0  0  0  0  0  0  0  0  0  0
    1.6520    0.8936    0.0040 N   0  0  0  0  0  0  0  0  0  0  0  0
    2.2967   -0.2633   -0.0090 C   0  0  0  0  0  0  0  0  0  0  0  0
   -1.0719   -1.4072    0.0717 N   0  0  0  0  0  0  0  0  0  0  0  0
   -2.0996   -0.6099    0.0431 C   0  0  0  0  0  0  0  0  0  0  0  0
   -2.0273    0.8920   -0.0210 C   0  0  0  0  0  0  0  0  0  0  0  0
   -0.7954    1.4589   -0.0070 C   0  0  0  0  0  0  0  0  0  0  0  0
   -0.6133    2.8465   -0.0104 N   0  0  0  0  0  0  0  0  0  0  0  0
   -3.4599   -1.2029    0.1360 C   0  0  0  0  0  0  0  0  0  0  0  0
    0.6311    3.6043    0.0213 C   0  0  0  0  0  0  0  0  0  0  0  0
    0.7533    4.4480   -1.2164 C   0  0  0  0  0  0  0  0  0  0  0  0
    0.9580    3.8615   -2.4706 C   0  0  0  0  0  0  0  0  0  0  0  0
    1.0330    4.6859   -3.5804 C   0  0  0  0  0  0  0  0  0  0  0  0
    0.9430    6.0325   -3.5211 N   0  0  0  0  0  0  0  0  0  0  0  0
    0.7825    6.5761   -2.2957 C   0  0  0  0  0  0  0  0  0  0  0  0
    0.6866    5.8378   -1.1296 C   0  0  0  0  0  0  0  0  0  0  0  0
   -3.7768   -2.0337    1.2203 C   0  0  0  0  0  0  0  0  0  0  0  0
   -5.0504   -2.6087    1.3159 C   0  0  0  0  0  0  0  0  0  0  0  0
   -6.0007   -2.3777    0.3200 C   0  0  0  0  0  0  0  0  0  0  0  0
   -5.6774   -1.5719   -0.7727 C   0  0  0  0  0  0  0  0  0  0  0  0
   -4.4127   -0.9864   -0.8575 C   0  0  0  0  0  0  0  0  0  0  0  0
   -4.1292   -0.2237   -1.9228 F   0  0  0  0  0  0  0  0  0  0  0  0
  1  2  2  0
  2  6  1  0
  3  9  1  0
  3  2  1  0
  4  5  2  0
  4  3  1  0
  5  1  1  0
  7  6  2  0
  7 11  1  0
  8  7  1  0
  9  8  2  0
 10 12  1  0
 10  9  1  0
 11 23  1  0
 13 14  2  0
 13 12  1  0
 15 14  1  0
 16 15  2  0
 17 16  1  0
 17 18  2  0
 18 13  1  0
 19 11  2  0
 19 20  1  0
 20 21  2  0
 21 22  1  0
 23 24  1  0
 23 22  2  0
M  END
>  <DRUGBANK_ID>  (1) 
DB08534

>  <COMMON_NAME>  (1) 
5-(2-fluorophenyl)-N-(pyridin-4-ylmethyl)pyrazolo[1,5-a]pyrimidin-7-amine

$$$$
