
     RDKit          3D

 18 19  0  0  0  0  0  0  0  0999 V2000
   -0.9546   -7.4207    3.3919 N   0  0  0  0  0  0  0  0  0  0  0  0
    0.3708   -7.3392    3.2434 C   0  0  0  0  0  0  0  0  0  0  0  0
    1.0792   -8.3014    2.7669 N   0  0  0  0  0  0  0  0  0  0  0  0
    0.9893   -6.2123    3.6337 N   0  0  0  0  0  0  0  0  0  0  0  0
    0.4606   -4.9681    4.1298 C   0  0  0  0  0  0  0  0  0  0  0  0
    1.0753   -4.6024    5.5038 C   0  0  0  0  0  0  0  0  0  0  0  0
    2.5975   -4.2281    5.5420 C   0  0  0  0  0  0  0  0  0  0  0  0
    2.9000   -3.2566    4.4092 C   0  0  2  0  0  0  0  0  0  0  0  0
    3.1944   -4.1162    3.2589 N   0  0  0  0  0  0  0  0  0  0  0  0
    3.1153   -3.6636    1.9782 C   0  0  0  0  0  0  0  0  0  0  0  0
    2.7894   -2.1894    1.9350 C   0  0  1  0  0  0  0  0  0  0  0  0
    3.6843   -1.5266    2.9045 N   0  0  0  0  0  0  0  0  0  0  0  0
    3.8606   -2.0357    4.2199 C   0  0  0  0  0  0  0  0  0  0  0  0
    3.0900   -1.5493    0.6002 C   0  0  0  0  0  0  0  0  0  0  0  0
    3.5423   -0.1522    1.0024 C   0  0  0  0  0  0  0  0  0  0  0  0
    4.3110   -0.3621    2.3144 C   0  0  0  0  0  0  0  0  0  0  0  0
    3.2119   -4.4262    1.0215 O   0  0  0  0  0  0  0  0  0  0  0  0
    4.5437   -1.5032    5.0838 O   0  0  0  0  0  0  0  0  0  0  0  0
  1  2  1  0
  2  3  2  0
  2  4  1  0
  4  5  1  0
  5  6  1  0
  6  7  1  0
  8 13  1  0
  8  7  1  1
  9 10  1  0
  9  8  1  0
 10 11  1  0
 10 17  2  0
 11 14  1  6
 11 12  1  0
 12 13  1  0
 12 16  1  0
 13 18  2  0
 14 15  1  0
 15 16  1  0
M  END
>  <DRUGBANK_ID>  (1) 
DB04433

>  <SECONDARY_ACCESSION_NUMBERS>  (1) 
EXPT00499

>  <COMMON_NAME>  (1) 
Verpacamide A

>  <SYNONYMS>  (1) 
Cyclo-(L-arginine-L-proline) inhibitor

$$$$
