IHI
     RDKit          3D

 32 36  0  0  0  0  0  0  0  0999 V2000
    2.4291   -0.2396    0.1819 C   0  0  0  0  0  0  0  0  0  0  0  0
    1.8317    0.8061    0.6641 N   0  0  0  0  0  0  0  0  0  0  0  0
    0.5562    0.3715    0.8700 C   0  0  0  0  0  0  0  0  0  0  0  0
    0.3430   -0.9411    0.5358 C   0  0  0  0  0  0  0  0  0  0  0  0
    1.5990   -1.3230    0.1755 N   0  0  0  0  0  0  0  0  0  0  0  0
   -0.5477    1.1205    1.1220 C   0  0  0  0  0  0  0  0  0  0  0  0
   -0.8179   -1.6271    0.5098 N   0  0  0  0  0  0  0  0  0  0  0  0
   -1.7929    0.4911    1.1823 N   0  0  0  0  0  0  0  0  0  0  0  0
   -1.8658   -0.8456    0.8548 C   0  0  0  0  0  0  0  0  0  0  0  0
   -0.4096    2.5139    0.9528 N   0  0  0  0  0  0  0  0  0  0  0  0
    2.0653   -2.6502   -0.0200 C   0  0  0  0  0  0  0  0  0  0  0  0
    1.5480   -3.3130   -1.2787 C   0  0  0  0  0  0  0  0  0  0  0  0
    1.8347   -4.7867   -1.0277 C   0  0  0  0  0  0  0  0  0  0  0  0
    2.0407   -4.9444    0.4852 C   0  0  0  0  0  0  0  0  0  0  0  0
    1.6744   -3.6067    1.0947 C   0  0  0  0  0  0  0  0  0  0  0  0
   -4.1659   -1.9167    0.1141 N   0  0  0  0  0  0  0  0  0  0  0  0
    0.5637    3.5186    0.5397 C   0  0  0  0  0  0  0  0  0  0  0  0
    1.3225    3.7044   -0.7042 C   0  0  0  0  0  0  0  0  0  0  0  0
    2.4185    4.5276   -0.8618 C   0  0  0  0  0  0  0  0  0  0  0  0
    2.6680    5.3650    0.1800 C   0  0  0  0  0  0  0  0  0  0  0  0
    1.7156    5.4863    1.2185 C   0  0  0  0  0  0  0  0  0  0  0  0
    0.5962    4.6407    1.3394 C   0  0  0  0  0  0  0  0  0  0  0  0
   -0.4028    4.9733    2.2253 O   0  0  0  0  0  0  0  0  0  0  0  0
   -1.6797    4.2905    2.1267 C   0  0  0  0  0  0  0  0  0  0  0  0
   -3.1636   -1.4246    0.5053 C   0  0  0  0  0  0  0  0  0  0  0  0
   -2.4789    4.4191    0.7225 C   0  0  0  0  0  0  0  0  0  0  0  0
   -1.8778    4.0772   -0.8263 C   0  0  0  0  0  0  0  0  0  0  0  0
   -1.6538    2.6781   -1.3991 N   0  0  0  0  0  0  0  0  0  0  0  0
   -0.5318    1.8989   -1.6892 C   0  0  0  0  0  0  0  0  0  0  0  0
   -0.7400    0.7034   -2.1638 N   0  0  0  0  0  0  0  0  0  0  0  0
   -2.0218    0.5209   -1.8421 C   0  0  0  0  0  0  0  0  0  0  0  0
   -2.6095    1.6840   -1.3695 C   0  0  0  0  0  0  0  0  0  0  0  0
  1  2  2  0
  1  5  1  0
  2  3  1  0
  3  4  2  0
  3  6  1  0
  4  5  1  0
  4  7  1  0
  5 11  1  0
  6  8  2  0
  6 10  1  0
  7  9  2  0
  8  9  1  0
  9 25  1  0
 10 17  1  0
 11 12  1  0
 11 15  1  0
 12 13  1  0
 13 14  1  0
 14 15  1  0
 16 25  3  0
 17 18  2  0
 17 22  1  0
 18 19  1  0
 19 20  2  0
 20 21  1  0
 21 22  2  0
 22 23  1  0
 23 24  1  0
 24 26  1  0
 26 27  1  0
 27 28  1  0
 28 29  1  0
 28 32  1  0
 29 30  2  0
 30 31  1  0
 31 32  2  0
M  END
>  <DRUGBANK_ID>  (1) 
DB07967

>  <COMMON_NAME>  (1) 
9-CYCLOPENTYL-6-[2-(3-IMIDAZOL-1-YL-PROPOXY)-PHENYLAMINO]-9H-PURINE-2-CARBONITRILE

$$$$
