
     RDKit          3D

 32 35  0  0  1  0  0  0  0  0999 V2000
    0.6040   -0.0680   -0.3050 C   0  0  0  0  0  0  0  0  0  0  0  0
    0.2788   -0.6524    0.9518 O   0  0  0  0  0  0  0  0  0  0  0  0
    0.8769   -1.8440    1.2521 C   0  0  0  0  0  0  0  0  0  0  0  0
    2.2364   -2.1476    1.1503 C   0  0  0  0  0  0  0  0  0  0  0  0
    3.2380   -1.2207    0.7098 O   0  0  0  0  0  0  0  0  0  0  0  0
    3.1493    0.1277    1.1139 C   0  0  0  0  0  0  0  0  0  0  0  0
    2.4722    0.4864    2.0822 O   0  0  0  0  0  0  0  0  0  0  0  0
    3.7664    1.0655    0.2741 N   0  0  0  0  0  0  0  0  0  0  0  0
    4.7902    0.7979   -0.7562 C   0  0  0  0  0  0  0  0  0  0  0  0
    6.1829    1.3208   -0.2982 C   0  0  0  0  0  0  0  0  0  0  0  0
    6.1903    2.7183    0.2065 N   0  0  0  0  0  0  0  0  0  0  0  0
    6.0918    3.6891   -0.8826 C   0  0  0  0  0  0  0  0  0  0  0  0
    5.1072    2.8775    1.2030 C   0  0  0  0  0  0  0  0  0  0  0  0
    3.7000    2.4728    0.7064 C   0  0  1  0  0  0  0  0  0  0  0  0
    3.0862    3.4018   -0.3498 C   0  0  0  0  0  0  0  0  0  0  0  0
    2.6438   -3.4704    1.4099 C   0  0  0  0  0  0  0  0  0  0  0  0
    1.7080   -4.4905    1.8109 C   0  0  0  0  0  0  0  0  0  0  0  0
    1.9758   -5.8627    2.0512 C   0  0  0  0  0  0  0  0  0  0  0  0
    3.2882   -6.3751    2.0306 N   0  0  0  0  0  0  0  0  0  0  0  0
    3.6273   -7.7423    2.1339 C   0  0  0  0  0  0  0  0  0  0  0  0
    3.0385   -8.7323    1.3276 C   0  0  0  0  0  0  0  0  0  0  0  0
    2.2084   -8.3729    0.3329 F   0  0  0  0  0  0  0  0  0  0  0  0
    3.3189  -10.0836    1.5324 C   0  0  0  0  0  0  0  0  0  0  0  0
    2.5607  -11.2932    0.5670 Cl  0  0  0  0  0  0  0  0  0  0  0  0
    4.2094  -10.4693    2.5334 C   0  0  0  0  0  0  0  0  0  0  0  0
    4.8337   -9.4962    3.3150 C   0  0  0  0  0  0  0  0  0  0  0  0
    4.5580   -8.1405    3.1037 C   0  0  0  0  0  0  0  0  0  0  0  0
    1.0081   -6.7355    2.4096 N   0  0  0  0  0  0  0  0  0  0  0  0
   -0.2297   -6.2679    2.5295 C   0  0  0  0  0  0  0  0  0  0  0  0
   -0.5950   -4.9976    2.3533 N   0  0  0  0  0  0  0  0  0  0  0  0
    0.3626   -4.1321    1.9908 C   0  0  0  0  0  0  0  0  0  0  0  0
   -0.0115   -2.8163    1.7472 C   0  0  0  0  0  0  0  0  0  0  0  0
  1  2  1  0
  2  3  1  0
  3  4  2  0
  3 32  1  0
  4  5  1  0
  4 16  1  0
  5  6  1  0
  6  7  2  0
  6  8  1  0
  8  9  1  0
  9 10  1  0
 10 11  1  0
 11 12  1  0
 11 13  1  0
 14 13  1  0
 14  8  1  0
 14 15  1  6
 16 17  2  0
 17 18  1  0
 17 31  1  0
 18 19  1  0
 18 28  2  0
 19 20  1  0
 20 21  2  0
 20 27  1  0
 21 22  1  0
 21 23  1  0
 23 24  1  0
 23 25  2  0
 25 26  1  0
 26 27  2  0
 28 29  1  0
 29 30  2  0
 30 31  1  0
 31 32  2  0
M  END
>  <DRUGBANK_ID>  (1) 
DB14795

>  <COMMON_NAME>  (1) 
AZD-3759

>  <CAS_NUMBER>  (1) 
1626387-80-1

>  <UNII>  (1) 
67SX9H68W2

$$$$
