WH6
     RDKit          3D

 30 33  0  0  0  0  0  0  0  0999 V2000
   -4.9869   -3.1558    3.4881 C   0  0  0  0  0  0  0  0  0  0  0  0
   -5.1045   -1.7679    3.6511 C   0  0  0  0  0  0  0  0  0  0  0  0
   -5.8664   -1.2664    4.6932 C   0  0  0  0  0  0  0  0  0  0  0  0
   -6.4920   -2.1387    5.5821 C   0  0  0  0  0  0  0  0  0  0  0  0
   -6.3812   -3.5169    5.4403 C   0  0  0  0  0  0  0  0  0  0  0  0
   -5.6551   -4.0432    4.3960 C   0  0  0  0  0  0  0  0  0  0  0  0
   -5.6227   -5.4404    4.2738 C   0  0  0  0  0  0  0  0  0  0  0  0
   -4.9754   -5.9885    3.2187 C   0  0  0  0  0  0  0  0  0  0  0  0
   -4.4325   -5.1020    2.3259 C   0  0  0  0  0  0  0  0  0  0  0  0
   -4.2821   -3.7185    2.4427 C   0  0  0  0  0  0  0  0  0  0  0  0
   -3.5114   -2.9732    1.3708 C   0  0  0  0  0  0  0  0  0  0  0  0
   -2.0397   -3.4713    1.1333 C   0  0  2  0  0  0  0  0  0  0  0  0
   -1.3371   -2.8488   -0.0790 C   0  0  0  0  0  0  0  0  0  0  0  0
   -2.2630   -2.1403   -1.0236 C   0  0  0  0  0  0  0  0  0  0  0  0
   -2.2865   -0.9387   -1.2233 O   0  0  0  0  0  0  0  0  0  0  0  0
   -3.1558   -2.9627   -1.5927 O   0  0  0  0  0  0  0  0  0  0  0  0
   -1.8957   -4.9349    1.0055 N   0  0  0  0  0  0  0  0  0  0  0  0
   -2.6523   -5.7154    0.1603 C   0  0  0  0  0  0  0  0  0  0  0  0
   -3.5165   -5.4046   -0.6346 O   0  0  0  0  0  0  0  0  0  0  0  0
   -2.4675   -7.0971    0.5952 C   0  0  0  0  0  0  0  0  0  0  0  0
   -3.2197   -8.2280    0.3153 C   0  0  0  0  0  0  0  0  0  0  0  0
   -2.7505   -9.4549    0.8102 C   0  0  0  0  0  0  0  0  0  0  0  0
   -3.4647  -10.6924    0.3664 C   0  0  0  0  0  0  0  0  0  0  0  0
   -2.9198  -11.8710    0.7262 O   0  0  0  0  0  0  0  0  0  0  0  0
   -4.4757  -10.6397   -0.3156 O   0  0  0  0  0  0  0  0  0  0  0  0
   -1.6082   -9.4653    1.6472 C   0  0  0  0  0  0  0  0  0  0  0  0
   -0.9813   -8.2751    2.0521 C   0  0  0  0  0  0  0  0  0  0  0  0
   -1.4474   -7.0966    1.5200 C   0  0  0  0  0  0  0  0  0  0  0  0
   -1.0962   -5.7048    1.7983 C   0  0  0  0  0  0  0  0  0  0  0  0
   -0.2522   -5.3640    2.6206 O   0  0  0  0  0  0  0  0  0  0  0  0
  1  2  2  0
  1  6  1  0
  1 10  1  0
  2  3  1  0
  3  4  2  0
  4  5  1  0
  5  6  2  0
  6  7  1  0
  7  8  2  0
  8  9  1  0
  9 10  2  0
 10 11  1  0
 12 17  1  0
 12 13  1  6
 12 11  1  0
 13 14  1  0
 14 15  2  0
 14 16  1  0
 17 18  1  0
 17 29  1  0
 18 19  2  0
 18 20  1  0
 20 21  1  0
 20 28  2  0
 21 22  2  0
 22 23  1  0
 22 26  1  0
 23 24  1  0
 23 25  2  0
 26 27  2  0
 27 28  1  0
 28 29  1  0
 29 30  2  0
M  END
>  <DRUGBANK_ID>  (1) 
DB08731

>  <COMMON_NAME>  (1) 
2-[(1R)-2-carboxy-1-(naphthalen-1-ylmethyl)ethyl]-1,3-dioxo-2,3-dihydro-1H-isoindole-5-carboxylic acid

$$$$
