
     RDKit          3D

 38 41  0  0  0  0  0  0  0  0999 V2000
   -1.5653    1.1796    0.2499 N   0  0  0  0  0  0  0  0  0  0  0  0
   -2.1556   -0.0112    0.4133 C   0  0  0  0  0  0  0  0  0  0  0  0
   -0.2255    1.1497    0.0881 C   0  0  0  0  0  0  0  0  0  0  0  0
   -1.4986   -1.1680    0.4750 N   0  0  0  0  0  0  0  0  0  0  0  0
    0.5294   -0.0056    0.1206 C   0  0  0  0  0  0  0  0  0  0  0  0
   -0.1740   -1.1828    0.2998 C   0  0  0  0  0  0  0  0  0  0  0  0
   -3.5385   -0.0600    0.3610 N   0  0  0  0  0  0  0  0  0  0  0  0
    0.4279   -2.4542    0.3061 N   0  0  0  0  0  0  0  0  0  0  0  0
   -0.2642   -3.6681    0.0842 C   0  0  0  0  0  0  0  0  0  0  0  0
   -1.0773   -4.0063   -1.0145 C   0  0  0  0  0  0  0  0  0  0  0  0
   -0.0792   -4.6517    1.0709 C   0  0  0  0  0  0  0  0  0  0  0  0
   -1.7754   -5.2337   -1.0225 C   0  0  0  0  0  0  0  0  0  0  0  0
   -0.6761   -5.9122    0.9873 C   0  0  0  0  0  0  0  0  0  0  0  0
   -1.5525   -6.1955   -0.0468 C   0  0  0  0  0  0  0  0  0  0  0  0
    2.2353    0.0471   -0.0468 Cl  0  0  0  0  0  0  0  0  0  0  0  0
   -4.3380   -1.2013    0.1811 C   0  0  0  0  0  0  0  0  0  0  0  0
   -4.2365   -2.1710    1.1920 C   0  0  0  0  0  0  0  0  0  0  0  0
   -5.2408   -1.4246   -0.8755 C   0  0  0  0  0  0  0  0  0  0  0  0
   -5.0040   -3.3377    1.2333 C   0  0  0  0  0  0  0  0  0  0  0  0
   -6.0554   -2.5691   -0.7947 C   0  0  0  0  0  0  0  0  0  0  0  0
   -5.9335   -3.5584    0.2381 C   0  0  0  0  0  0  0  0  0  0  0  0
   -6.8459   -4.7691    0.1118 C   0  0  0  0  0  0  0  0  0  0  0  0
   -7.6064   -5.7165    1.0671 C   0  0  0  0  0  0  0  0  0  0  0  0
   -6.4023   -5.5685   -1.1308 C   0  0  0  0  0  0  0  0  0  0  0  0
   -7.0600   -7.1294    1.2286 C   0  0  0  0  0  0  0  0  0  0  0  0
   -5.8500   -6.9639   -0.8168 C   0  0  0  0  0  0  0  0  0  0  0  0
   -6.8125   -7.7597   -0.0647 N   0  0  0  0  0  0  0  0  0  0  0  0
   -5.4151   -0.7318   -2.0588 O   0  0  0  0  0  0  0  0  0  0  0  0
   -4.5641    0.3663   -2.4305 C   0  0  0  0  0  0  0  0  0  0  0  0
   -4.8439   -4.2577    2.3856 C   0  0  0  0  0  0  0  0  0  0  0  0
   -4.8888    1.5546   -1.5419 C   0  0  0  0  0  0  0  0  0  0  0  0
   -3.1006   -0.0098   -2.5793 C   0  0  0  0  0  0  0  0  0  0  0  0
   -1.4792   -2.8807   -2.3221 S   0  0  0  0  0  0  0  0  0  0  0  0
   -0.9952   -3.5053   -3.8923 C   0  0  0  0  0  0  0  0  0  0  0  0
   -2.9438   -2.8691   -2.3567 O   0  0  0  0  0  0  0  0  0  0  0  0
   -0.6798   -1.6889   -2.2200 O   0  0  0  0  0  0  0  0  0  0  0  0
   -1.7464   -4.7592   -4.2742 C   0  0  0  0  0  0  0  0  0  0  0  0
   -1.2593   -2.4158   -4.9493 C   0  0  0  0  0  0  0  0  0  0  0  0
  2  1  2  0
  2  7  1  0
  3  1  1  0
  4  2  1  0
  5  3  2  0
  5 15  1  0
  6  4  2  0
  6  5  1  0
  6  8  1  0
  7 16  1  0
  8  9  1  0
 10  9  2  0
 10 33  1  0
 11  9  1  0
 12 10  1  0
 13 11  2  0
 14 12  2  0
 14 13  1  0
 17 16  2  0
 18 16  1  0
 18 28  1  0
 19 17  1  0
 19 30  1  0
 20 18  2  0
 21 19  2  0
 21 20  1  0
 21 22  1  0
 23 22  1  0
 24 22  1  0
 25 23  1  0
 26 24  1  0
 27 25  1  0
 27 26  1  0
 28 29  1  0
 29 31  1  0
 29 32  1  0
 33 34  1  0
 33 35  2  0
 33 36  2  0
 34 37  1  0
 34 38  1  0
M  END
>  <DRUGBANK_ID>  (1) 
DB09063

>  <COMMON_NAME>  (1) 
Ceritinib

>  <CAS_NUMBER>  (1) 
1032900-25-6

>  <UNII>  (1) 
K418KG2GET

>  <SYNONYMS>  (1) 
Ceritinib; CÃ©ritinib; Ceritinibum; N-{2-[(5-chloro-2-{[2-isopropoxy-5-methyl-4-(piperidin-4-yl)phenyl]amino}pyrimidin-4-yl)amino]phenyl}propane-2-sulfonamide

$$$$
