
     RDKit          3D

 23 25  0  0  0  0  0  0  0  0999 V2000
    0.0012   -1.2821    0.6970 N   0  0  0  0  0  0  0  0  0  0  0  0
    0.0041    1.7422    0.3184 S   0  0  0  0  0  0  0  0  0  0  0  0
    3.5320   -1.0741   -0.4425 C   0  0  0  0  0  0  0  0  0  0  0  0
    3.6411    0.2858   -0.7198 C   0  0  0  0  0  0  0  0  0  0  0  0
    2.5784    1.1446   -0.4495 C   0  0  0  0  0  0  0  0  0  0  0  0
    1.3852    0.6334    0.0685 C   0  0  0  0  0  0  0  0  0  0  0  0
    1.2580   -0.7416    0.3518 C   0  0  0  0  0  0  0  0  0  0  0  0
    2.3512   -1.5850    0.1035 C   0  0  0  0  0  0  0  0  0  0  0  0
   -2.2687   -1.6214   -0.1509 C   0  0  0  0  0  0  0  0  0  0  0  0
   -1.1880   -0.7740    0.1457 C   0  0  0  0  0  0  0  0  0  0  0  0
   -1.3284    0.6145   -0.0793 C   0  0  0  0  0  0  0  0  0  0  0  0
   -2.5437    1.1322   -0.5243 C   0  0  0  0  0  0  0  0  0  0  0  0
   -3.6192    0.2790   -0.7733 C   0  0  0  0  0  0  0  0  0  0  0  0
   -3.4814   -1.0961   -0.5884 C   0  0  0  0  0  0  0  0  0  0  0  0
   -0.0842   -2.1845    1.8534 C   0  0  0  0  0  0  0  0  0  0  0  0
   -0.8353   -1.5974    3.1151 C   0  0  0  0  0  0  0  0  0  0  0  0
   -2.2977   -1.1927    2.8895 C   0  0  0  0  0  0  0  0  0  0  0  0
   -0.7857   -2.6262    4.3395 N   0  0  0  0  0  0  0  0  0  0  0  0
    0.6868   -2.9074    4.7942 C   0  0  0  0  0  0  0  0  0  0  0  0
   -1.5945   -2.0993    5.5440 C   0  0  0  0  0  0  0  0  0  0  0  0
   -1.4256   -3.9693    3.9608 C   0  0  0  0  0  0  0  0  0  0  0  0
    1.4668   -1.6519    5.2171 C   0  0  0  0  0  0  0  0  0  0  0  0
    0.9081   -1.1055    6.4050 O   0  0  0  0  0  0  0  0  0  0  0  0
  1  7  1  0
  1 10  1  0
  1 15  1  0
  2 11  1  0
  3  4  2  0
  4  5  1  0
  5  6  2  0
  6  7  1  0
  6  2  1  0
  7  8  2  0
  8  3  1  0
  9 10  2  0
 10 11  1  0
 11 12  2  0
 12 13  1  0
 13 14  2  0
 14  9  1  0
 15 16  1  0
 16 17  1  0
 16 18  1  0
 18 19  1  0
 18 20  1  0
 18 21  1  0
 19 22  1  0
 22 23  1  0
M  CHG  1  18   1
M  END
>  <DRUGBANK_ID>  (1) 
DB13840

>  <COMMON_NAME>  (1) 
Hydroxyethylpromethazine

>  <CAS_NUMBER>  (1) 
7647-63-4

>  <UNII>  (1) 
571559SLAJ

>  <SYNONYMS>  (1) 
Promethazine hydroxyethyl

$$$$
