
     RDKit          3D

 11 12  0  0  0  0  0  0  0  0999 V2000
    2.3893    0.6662   -0.1207 C   0  0  0  0  0  0  0  0  0  0  0  0
    0.8689    1.0240    1.7999 C   0  0  0  0  0  0  0  0  0  0  0  0
   -0.4662    1.9595   -0.9394 C   0  0  0  0  0  0  0  0  0  0  0  0
    0.7636   -1.6497   -0.9798 C   0  0  0  0  0  0  0  0  0  0  0  0
    0.1276   -0.4354   -1.6973 C   0  0  0  0  0  0  0  0  0  0  0  0
   -0.7342   -1.3469    0.9881 C   0  0  0  0  0  0  0  0  0  0  0  0
    0.7362   -1.2339    0.5130 C   0  0  2  0  0  0  0  0  0  0  0  0
   -1.3047   -0.1630    0.2309 C   0  0  0  0  0  0  0  0  0  0  0  0
    1.0057    0.2949    0.4498 C   0  0  0  0  0  0  0  0  0  0  0  0
   -0.1732    0.5343   -0.5316 C   0  0  2  0  0  0  0  0  0  0  0  0
   -2.4833    0.1531    0.2140 O   0  0  0  0  0  0  0  0  0  0  0  0
  5  4  1  0
  7  4  1  6
  7  6  1  0
  8  6  1  0
  9  1  1  0
  9  2  1  0
  9  7  1  0
 10  3  1  6
 10  5  1  0
 10  8  1  0
 10  9  1  0
 11  8  2  0
M  END
>  <DRUGBANK_ID>  (1) 
DB01744

>  <SECONDARY_ACCESSION_NUMBERS>  (1) 
EXPT00827

>  <COMMON_NAME>  (1) 
Camphor

>  <CAS_NUMBER>  (1) 
464-49-3

>  <UNII>  (1) 
N20HL7Q941

>  <SYNONYMS>  (1) 
(+)-bornan-2-one; (+)-Camphor; (1R,4R)-camphor; (1R)-(+)-camphor; (R)-(+)-camphor; (R)-camphor; Camphor (natural); Camphor D-form; Camphor oil; Camphor(D); Camphora; D-Camphor; Dextrocamphor; Natural camphor

$$$$
