
     RDKit          3D

 13 14  0  0  0  0  0  0  0  0999 V2000
   -3.3350   -0.4165    0.0474 C   0  0  0  0  0  0  0  0  0  0  0  0
   -2.1054    0.3338    0.0097 N   0  0  0  0  0  0  0  0  0  0  0  0
   -2.0008    1.7002   -0.0123 C   0  0  0  0  0  0  0  0  0  0  0  0
   -0.7434    2.0942   -0.0157 N   0  0  0  0  0  0  0  0  0  0  0  0
   -0.0249    0.9387   -0.0035 C   0  0  0  0  0  0  0  0  0  0  0  0
   -0.8339   -0.1632    0.0009 C   0  0  0  0  0  0  0  0  0  0  0  0
   -0.3217   -1.4883   -0.0050 C   0  0  0  0  0  0  0  0  0  0  0  0
   -1.0037   -2.5071   -0.0256 O   0  0  0  0  0  0  0  0  0  0  0  0
    1.0561   -1.5196    0.0083 N   0  0  0  0  0  0  0  0  0  0  0  0
    1.9195   -0.4381    0.0094 C   0  0  0  0  0  0  0  0  0  0  0  0
    3.1345   -0.6381    0.0156 O   0  0  0  0  0  0  0  0  0  0  0  0
    1.3481    0.8304   -0.0010 N   0  0  0  0  0  0  0  0  0  0  0  0
    2.2080    1.9950   -0.0219 C   0  0  0  0  0  0  0  0  0  0  0  0
  1  2  1  0
  2  3  1  0
  2  6  1  0
  3  4  2  0
  4  5  1  0
  5  6  2  0
  5 12  1  0
  6  7  1  0
  7  8  2  0
  7  9  1  0
  9 10  1  0
 10 11  2  0
 10 12  1  0
 12 13  1  0
M  END
>  <DRUGBANK_ID>  (1) 
DB01412

>  <COMMON_NAME>  (1) 
Theobromine

>  <CAS_NUMBER>  (1) 
83-67-0

>  <UNII>  (1) 
OBD445WZ5P

>  <SYNONYMS>  (1) 
3,7-dihydro-3,7-dimethyl-1H-purine-2,6-dione; 3,7-dimethylpurine-2,6-dione; 3,7-dimethylxanthine; Theobromin; Th√©obromine; Theobromine

$$$$
