
     RDKit          3D

 19 19  0  0  0  0  0  0  0  0999 V2000
    0.6785   -0.0152   -0.0049 F   0  0  0  0  0  0  0  0  0  0  0  0
    3.9875    1.2620    0.6580 O   0  0  0  0  0  0  0  0  0  0  0  0
    4.6184   -1.2595   -0.8017 O   0  0  0  0  0  0  0  0  0  0  0  0
    2.1006   -1.5853    1.8325 O   0  0  0  0  0  0  0  0  0  0  0  0
    2.2294    2.3909   -0.2264 O   0  0  0  0  0  0  0  0  0  0  0  0
    5.1522    1.1970    3.3894 O   0  0  0  0  0  0  0  0  0  0  0  0
    5.2406   -1.0654    4.8477 O   0  0  0  0  0  0  0  0  0  0  0  0
    0.9423    0.7135    2.4173 O   0  0  0  0  0  0  0  0  0  0  0  0
    7.3276   -0.6846    2.6795 O   0  0  0  0  0  0  0  0  0  0  0  0
    2.3690    2.3971    2.7989 O   0  0  0  0  0  0  0  0  0  0  0  0
    4.5950    0.0857    1.2333 C   0  0  2  0  0  0  0  0  0  0  0  0
    4.1062   -1.1988    0.5341 C   0  0  1  0  0  0  0  0  0  0  0  0
    2.5903   -1.2630    0.5290 C   0  0  2  0  0  0  0  0  0  0  0  0
    2.0385    0.0279   -0.0665 C   0  0  2  0  0  0  0  0  0  0  0  0
    2.5619    1.2915    0.6260 C   0  0  1  0  0  0  0  0  0  0  0  0
    4.5310    0.0483    2.7971 C   0  0  1  0  0  0  0  0  0  0  0  0
    5.0694   -1.2515    3.4375 C   0  0  1  0  0  0  0  0  0  0  0  0
    1.9359    1.5613    2.0367 C   0  0  0  0  0  0  0  0  0  0  0  0
    6.3990   -1.7475    2.8633 C   0  0  0  0  0  0  0  0  0  0  0  0
 14  1  1  1
 11  2  1  6
  2 15  1  0
  8 18  1  0
  9 19  1  0
 10 18  2  0
 11 12  1  0
 11 16  1  0
 12  3  1  6
 12 13  1  0
 13 14  1  0
 13  4  1  1
 14 15  1  0
 15 18  1  0
 15  5  1  6
 16 17  1  0
 16  6  1  1
 17 19  1  0
 17  7  1  1
M  END
>  <DRUGBANK_ID>  (1) 
DB04694

>  <COMMON_NAME>  (1) 
2,6-anhydro-3-deoxy-3-fluoronononic acid

>  <SYNONYMS>  (1) 
3-deoxy-3-fluoro-D-erythro-Î±-L-manno-non-2-ulopyranosonic acid

$$$$
