
     RDKit          3D

 26 28  0  0  0  0  0  0  0  0999 V2000
    1.0546   -0.0120   -0.0857 C   0  0  0  0  0  0  0  0  0  0  0  0
    0.4975   -1.2979    0.1695 O   0  0  0  0  0  0  0  0  0  0  0  0
    0.9706   -2.3217   -0.6057 C   0  0  0  0  0  0  0  0  0  0  0  0
    0.0646   -3.3566   -0.8750 C   0  0  0  0  0  0  0  0  0  0  0  0
    0.4705   -4.5191   -1.5574 C   0  0  0  0  0  0  0  0  0  0  0  0
   -0.3971   -5.5973   -1.8187 C   0  0  0  0  0  0  0  0  0  0  0  0
    0.0667   -6.7574   -2.4508 C   0  0  0  0  0  0  0  0  0  0  0  0
    1.4048   -6.8581   -2.8477 C   0  0  0  0  0  0  0  0  0  0  0  0
    2.2572   -5.7699   -2.6173 C   0  0  0  0  0  0  0  0  0  0  0  0
    1.8112   -4.6135   -1.9777 C   0  0  0  0  0  0  0  0  0  0  0  0
    2.7007   -3.5616   -1.7395 C   0  0  0  0  0  0  0  0  0  0  0  0
    2.2873   -2.4272   -1.0454 C   0  0  0  0  0  0  0  0  0  0  0  0
    1.9253   -8.1066   -3.5331 C   0  0  0  0  0  0  0  0  0  0  0  0
    2.4393   -7.7881   -4.9384 C   0  0  0  0  0  0  0  0  0  0  0  0
    2.9478   -8.8684   -2.6953 C   0  0  0  0  0  0  0  0  0  0  0  0
    2.7675  -10.0272   -2.3213 O   0  0  0  0  0  0  0  0  0  0  0  0
    4.0807   -8.0982   -2.4198 O   0  0  0  0  0  0  0  0  0  0  0  0
    5.1759   -8.6711   -1.7427 C   0  0  0  0  0  0  0  0  0  0  0  0
    5.6267   -9.9514   -2.0379 C   0  0  0  0  0  0  0  0  0  0  0  0
    6.7543  -10.4603   -1.3882 C   0  0  0  0  0  0  0  0  0  0  0  0
    7.4759   -9.6866   -0.4633 C   0  0  0  0  0  0  0  0  0  0  0  0
    7.0488   -8.3656   -0.2411 C   0  0  0  0  0  0  0  0  0  0  0  0
    5.8798   -7.8723   -0.8434 C   0  0  0  0  0  0  0  0  0  0  0  0
    8.6322  -10.2824    0.2933 C   0  0  0  0  0  0  0  0  0  0  0  0
    9.2934   -9.4954    1.2046 N   0  0  0  0  0  0  0  0  0  0  0  0
    9.1785  -11.8644    0.1672 S   0  0  0  0  0  0  0  0  0  0  0  0
  1  2  1  0
  2  3  1  0
  3  4  2  0
  3 12  1  0
  4  5  1  0
  5  6  2  0
  5 10  1  0
  6  7  1  0
  7  8  2  0
  8  9  1  0
  8 13  1  0
  9 10  2  0
 10 11  1  0
 11 12  2  0
 13 14  1  0
 13 15  1  0
 15 16  2  0
 15 17  1  0
 17 18  1  0
 18 19  2  0
 18 23  1  0
 19 20  1  0
 20 21  2  0
 21 22  1  0
 21 24  1  0
 22 23  2  0
 24 25  1  0
 24 26  2  0
M  END
>  <DRUGBANK_ID>  (1) 
DB15377

>  <COMMON_NAME>  (1) 
ATB-346

>  <CAS_NUMBER>  (1) 
1226895-20-0

>  <UNII>  (1) 
3096O7WP53

$$$$
