IOF
     RDKit          3D

 23 24  0  0  0  0  0  0  0  0999 V2000
    1.2143   -0.3112    0.2095 C   0  0  0  0  0  0  0  0  0  0  0  0
    0.3470   -1.3741    0.0625 C   0  0  0  0  0  0  0  0  0  0  0  0
   -1.0008   -1.1186   -0.0219 C   0  0  0  0  0  0  0  0  0  0  0  0
   -1.4598    0.2024   -0.0180 C   0  0  0  0  0  0  0  0  0  0  0  0
   -0.5332    1.2694   -0.0033 C   0  0  0  0  0  0  0  0  0  0  0  0
    0.8462    1.0201    0.0138 C   0  0  0  0  0  0  0  0  0  0  0  0
    1.8102    2.1630   -0.2130 C   0  0  0  0  0  0  0  0  0  0  0  0
    1.3744    3.3117   -0.3088 O   0  0  0  0  0  0  0  0  0  0  0  0
    3.1680    1.9917   -0.3908 N   0  0  0  0  0  0  0  0  0  0  0  0
    3.9797    0.8018   -0.4024 C   0  0  0  0  0  0  0  0  0  0  0  0
   -2.0682   -2.5208   -0.0064 S   0  0  0  0  0  0  0  0  0  0  0  0
   -2.9179   -2.3269    1.4326 N   0  0  0  0  0  0  0  0  0  0  0  0
   -2.9864   -2.4148   -1.1023 O   0  0  0  0  0  0  0  0  0  0  0  0
   -1.2554   -3.7057    0.2140 O   0  0  0  0  0  0  0  0  0  0  0  0
    4.6012    0.4309   -1.7036 C   0  0  0  0  0  0  0  0  0  0  0  0
    5.2591    1.3899   -2.4584 C   0  0  0  0  0  0  0  0  0  0  0  0
    5.9287    1.0022   -3.6056 C   0  0  0  0  0  0  0  0  0  0  0  0
    5.9673   -0.3314   -3.9988 C   0  0  0  0  0  0  0  0  0  0  0  0
    5.3267   -1.2962   -3.2382 C   0  0  0  0  0  0  0  0  0  0  0  0
    4.6002   -0.9217   -2.1195 C   0  0  0  0  0  0  0  0  0  0  0  0
    6.5773    1.9390   -4.3059 F   0  0  0  0  0  0  0  0  0  0  0  0
    6.6231   -0.6825   -5.1112 F   0  0  0  0  0  0  0  0  0  0  0  0
    5.4422   -2.5968   -3.5399 F   0  0  0  0  0  0  0  0  0  0  0  0
  1  2  2  0
  1  6  1  0
  2  3  1  0
  3  4  2  0
  3 11  1  0
  4  5  1  0
  5  6  2  0
  6  7  1  0
  7  8  2  0
  7  9  1  0
  9 10  1  0
 10 15  1  0
 11 12  1  0
 11 13  2  0
 11 14  2  0
 15 16  2  0
 15 20  1  0
 16 17  1  0
 17 18  2  0
 17 21  1  0
 18 19  1  0
 18 22  1  0
 19 20  2  0
 19 23  1  0
M  END
>  <DRUGBANK_ID>  (1) 
DB02861

>  <SECONDARY_ACCESSION_NUMBERS>  (1) 
EXPT01904

>  <COMMON_NAME>  (1) 
4-(Aminosulfonyl)-N-[(3,4,5-Trifluorophenyl)Methyl]-Benzamide

$$$$
