1493
     RDKit          3D

 21 24  0  0  1  0  0  0  0  0999 V2000
   -2.9117    2.5660    3.5703 O   0  0  0  0  0  0  0  0  0  0  0  0
    0.2494    1.4571    2.9705 C   0  0  2  0  0  0  0  0  0  0  0  0
   -0.5763    0.8534    3.8605 C   0  0  2  0  0  0  0  0  0  0  0  0
   -1.4122   -0.0113    2.1594 C   0  0  1  0  0  0  0  0  0  0  0  0
   -1.1114   -1.2067    1.1976 C   0  0  2  0  0  0  0  0  0  0  0  0
   -1.3435    2.5637    2.7962 C   0  0  2  0  0  0  0  0  0  0  0  0
    0.9359   -0.1907    2.7809 C   0  0  0  0  0  0  0  0  0  0  0  0
   -0.9813    2.3851    4.7425 C   0  0  0  0  0  0  0  0  0  0  0  0
    0.5408   -0.8757    1.3569 C   0  0  0  0  0  0  0  0  0  0  0  0
   -1.1172    3.5688    3.7428 C   0  0  0  0  0  0  0  0  0  0  0  0
   -2.3249   -1.4066   -0.3530 C   0  0  2  0  0  0  0  0  0  0  0  0
   -3.4209    0.0183    2.0945 C   0  0  0  0  0  0  0  0  0  0  0  0
    1.3697    2.3468    2.6966 C   0  0  0  0  0  0  0  0  0  0  0  0
   -2.3409    1.6783    2.3069 C   0  0  0  0  0  0  0  0  0  0  0  0
   -4.0582    0.0967    0.7959 C   0  0  0  0  0  0  0  0  0  0  0  0
   -3.4251   -1.2244    0.6067 C   0  0  0  0  0  0  0  0  0  0  0  0
   -3.8993   -2.2206   -1.2545 C   0  0  0  0  0  0  0  0  0  0  0  0
   -5.4895   -1.8404   -0.7156 C   0  0  0  0  0  0  0  0  0  0  0  0
   -4.0489   -2.3249    1.0596 C   0  0  0  0  0  0  0  0  0  0  0  0
   -2.4429    0.2340    3.7557 C   0  0  0  0  0  0  0  0  0  0  0  0
   -5.4876   -2.0849    0.7858 C   0  0  0  0  0  0  0  0  0  0  0  0
  2  3  1  0
  2  6  1  0
  2  7  1  0
  2 13  1  1
  3  4  1  0
  3  8  1  6
  4  5  1  0
  4 12  1  1
  5  9  1  6
  5 11  1  0
  6  1  1  1
  6 10  1  0
  6 14  1  0
  7  9  1  0
  8 10  1  0
 11 16  1  0
 11 17  1  1
 12 15  1  0
 14 20  1  0
 15 16  1  0
 16 19  2  0
 17 18  1  0
 18 21  1  0
 19 21  1  0
M  END
>  <DRUGBANK_ID>  (1) 
DB01493

>  <COMMON_NAME>  (1) 
Ethylestrenol

>  <CAS_NUMBER>  (1) 
965-90-2

>  <UNII>  (1) 
ADC79EK5Q8

>  <SYNONYMS>  (1) 
Ethylestrenol; etilestrenol

$$$$
