922
     RDKit          3D

 21 22  0  0  1  0  0  0  0  0999 V2000
    2.2794   -0.4985    0.1714 O   0  0  0  0  0  0  0  0  0  0  0  0
   -0.6104    1.5547    0.1018 N   0  0  0  0  0  0  0  0  0  0  0  0
    0.6695    1.1086    0.2601 N   0  0  0  0  0  0  0  0  0  0  0  0
   -6.6670    2.9886   -0.9240 N   0  0  0  0  0  0  0  0  0  0  0  0
   -6.8653    3.9512   -1.9296 N   0  0  0  0  0  0  0  0  0  0  0  0
   -3.5425    4.2502   -3.4065 N   0  0  0  0  0  0  0  0  0  0  0  0
   -6.7430    6.4233   -4.3777 N   0  0  0  0  0  0  0  0  0  0  0  0
   -1.2652   -0.7801   -0.3928 C   0  0  2  0  0  0  0  0  0  0  0  0
    0.1655   -0.9938   -0.8474 C   0  0  0  0  0  0  0  0  0  0  0  0
   -1.5277    0.6812   -0.2017 C   0  0  0  0  0  0  0  0  0  0  0  0
   -1.5418   -1.5027    0.9153 C   0  0  0  0  0  0  0  0  0  0  0  0
   -2.9289    1.1129   -0.3684 C   0  0  0  0  0  0  0  0  0  0  0  0
    1.1319   -0.1375   -0.0761 C   0  0  0  0  0  0  0  0  0  0  0  0
   -4.0100    0.7109    0.4332 C   0  0  0  0  0  0  0  0  0  0  0  0
   -3.1209    2.1169   -1.2557 C   0  0  0  0  0  0  0  0  0  0  0  0
   -5.3055    1.2673    0.2707 C   0  0  0  0  0  0  0  0  0  0  0  0
   -4.2980    2.8050   -1.0793 C   0  0  0  0  0  0  0  0  0  0  0  0
   -5.4841    2.3104   -0.6148 C   0  0  0  0  0  0  0  0  0  0  0  0
   -6.0646    4.4692   -2.8305 C   0  0  0  0  0  0  0  0  0  0  0  0
   -4.6804    4.2525   -3.1554 C   0  0  0  0  0  0  0  0  0  0  0  0
   -6.5789    5.5331   -3.6334 C   0  0  0  0  0  0  0  0  0  0  0  0
  1 13  2  0
  2  3  1  0
  2 10  2  0
  3 13  1  0
  4  5  1  0
  4 18  1  0
  5 19  2  3
  6 20  3  0
  7 21  3  0
  8  9  1  0
  8 10  1  0
  8 11  1  1
  9 13  1  0
 10 12  1  0
 12 14  2  0
 12 15  1  0
 14 16  1  0
 15 17  2  0
 16 18  2  0
 17 18  1  0
 19 20  1  0
 19 21  1  0
M  END
>  <DRUGBANK_ID>  (1) 
DB00922

>  <SECONDARY_ACCESSION_NUMBERS>  (1) 
APRD01296

>  <COMMON_NAME>  (1) 
Levosimendan

>  <CAS_NUMBER>  (1) 
141505-33-1

>  <UNII>  (1) 
C6T4514L4E

>  <SYNONYMS>  (1) 
Lévosimendan; Levosimendan; Levosimendán; Levosimendanum

$$$$
