
     RDKit          3D

 19 18  0  0  0  0  0  0  0  0999 V2000
    0.9816    0.1226   -0.0682 C   0  0  0  0  0  0  0  0  0  0  0  0
   -5.2425   -8.6172    7.6338 C   0  0  0  0  0  0  0  0  0  0  0  0
   -7.3365   -7.9181    6.3720 C   0  0  0  0  0  0  0  0  0  0  0  0
    0.5344   -1.3297   -0.0372 C   0  0  0  0  0  0  0  0  0  0  0  0
    1.0325   -2.0120    1.2376 C   0  0  0  0  0  0  0  0  0  0  0  0
    0.4800   -1.3207    2.4890 C   0  0  0  0  0  0  0  0  0  0  0  0
   -1.0528   -1.3412    2.4859 C   0  0  0  0  0  0  0  0  0  0  0  0
   -1.5584   -2.7867    2.4891 C   0  0  0  0  0  0  0  0  0  0  0  0
   -1.0511   -3.5076    3.7414 C   0  0  0  0  0  0  0  0  0  0  0  0
   -1.5607   -2.7847    4.9928 C   0  0  0  0  0  0  0  0  0  0  0  0
   -3.0920   -2.7882    5.0011 C   0  0  0  0  0  0  0  0  0  0  0  0
   -3.5990   -4.2324    4.9931 C   0  0  0  0  0  0  0  0  0  0  0  0
   -3.0742   -4.9697    6.2305 C   0  0  0  0  0  0  0  0  0  0  0  0
   -3.6229   -4.3301    7.5080 C   0  0  0  0  0  0  0  0  0  0  0  0
   -5.1480   -4.2913    7.5161 C   0  0  0  0  0  0  0  0  0  0  0  0
   -5.8251   -7.8216    6.4683 C   0  0  0  0  0  0  0  0  0  0  0  0
   -5.7424   -5.6700    7.5894 C   0  0  0  0  0  0  0  0  0  0  0  0
   -6.4211   -6.0328    8.5473 O   0  0  0  0  0  0  0  0  0  0  0  0
   -5.4411   -6.4294    6.5034 O   0  0  0  0  0  0  0  0  0  0  0  0
  4  1  1  0
  5  4  1  0
  6  5  1  0
  7  6  1  0
  8  7  1  0
  9  8  1  0
 10  9  1  0
 11 10  1  0
 12 11  1  0
 13 12  1  0
 14 13  1  0
 15 14  1  0
 16  2  1  0
 16  3  1  0
 17 15  1  0
 18 17  2  0
 19 16  1  0
 19 17  1  0
M  END
>  <DRUGBANK_ID>  (1) 
DB13966

>  <COMMON_NAME>  (1) 
Isopropyl myristate

>  <CAS_NUMBER>  (1) 
110-27-0

>  <UNII>  (1) 
0RE8K4LNJS

>  <SYNONYMS>  (1) 
1-Methylethyl tetradecanoate; Isopropyl myristate; Isopropyl tetradecanoate

$$$$
