TYB
     RDKit          3D

 12 12  0  0  0  0  0  0  0  0999 V2000
    0.9369    2.5391   -0.3559 N   0  0  0  0  0  0  0  0  0  0  0  0
    0.5077    1.4055    0.4933 C   0  0  2  0  0  0  0  0  0  0  0  0
    1.2732    0.1818   -0.0313 C   0  0  0  0  0  0  0  0  0  0  0  0
    2.5005    0.1661   -0.1773 O   0  0  0  0  0  0  0  0  0  0  0  0
   -1.0400    1.3164    0.5168 C   0  0  0  0  0  0  0  0  0  0  0  0
   -1.5593    0.2336    1.4400 C   0  0  0  0  0  0  0  0  0  0  0  0
   -2.2465    0.5125    2.6293 C   0  0  0  0  0  0  0  0  0  0  0  0
   -1.3096   -1.1061    1.1259 C   0  0  0  0  0  0  0  0  0  0  0  0
   -2.5750   -0.5290    3.5131 C   0  0  0  0  0  0  0  0  0  0  0  0
   -1.5252   -2.1207    2.0428 C   0  0  0  0  0  0  0  0  0  0  0  0
   -2.1742   -1.8318    3.2252 C   0  0  0  0  0  0  0  0  0  0  0  0
   -2.4227   -2.8865    4.0487 O   0  0  0  0  0  0  0  0  0  0  0  0
  2  5  1  0
  2  3  1  0
  2  1  1  6
  3  4  2  0
  5  6  1  0
  6  7  2  0
  6  8  1  0
  7  9  1  0
  8 10  2  0
  9 11  2  0
 10 11  1  0
 11 12  1  0
M  END
>  <DRUGBANK_ID>  (1) 
DB03978

>  <SECONDARY_ACCESSION_NUMBERS>  (1) 
EXPT03134

>  <COMMON_NAME>  (1) 
Tyrosinal

$$$$
