
     RDKit          3D

 28 31  0  0  1  0  0  0  0  0999 V2000
   -3.3986   -0.1455   -0.5249 C   0  0  2  0  0  0  0  0  0  0  0  0
   -2.2193    0.5317   -0.9321 C   0  0  1  0  0  0  0  0  0  0  0  0
   -1.7229   -2.3757    0.5106 C   0  0  2  0  0  0  0  0  0  0  0  0
   -1.1708   -1.0162   -0.5787 C   0  0  2  0  0  0  0  0  0  0  0  0
   -0.8652   -3.8821    0.4168 C   0  0  2  0  0  0  0  0  0  0  0  0
   -3.9232    1.3395    0.3439 C   0  0  2  0  0  0  0  0  0  0  0  0
   -3.8805   -1.2311    0.4080 C   0  0  0  0  0  0  0  0  0  0  0  0
   -3.1812   -2.4623    0.0496 C   0  0  0  0  0  0  0  0  0  0  0  0
   -3.9899    1.2032   -1.5633 C   0  0  0  0  0  0  0  0  0  0  0  0
   -5.1097    1.1924   -0.4442 C   0  0  0  0  0  0  0  0  0  0  0  0
    0.3089   -1.0829   -0.0310 C   0  0  1  0  0  0  0  0  0  0  0  0
    0.5622   -3.6778    0.0683 C   0  0  2  0  0  0  0  0  0  0  0  0
    0.9542   -2.4183   -0.6207 C   0  0  0  0  0  0  0  0  0  0  0  0
   -3.7047    2.9296    0.5014 C   0  0  1  0  0  0  0  0  0  0  0  0
   -3.3113   -0.7345   -2.3081 C   0  0  0  0  0  0  0  0  0  0  0  0
   -1.6858   -4.4301   -0.9283 C   0  0  0  0  0  0  0  0  0  0  0  0
   -0.0662   -4.9784    1.7695 C   0  0  0  0  0  0  0  0  0  0  0  0
   -2.5134    3.8106   -1.7006 C   0  0  0  0  0  0  0  0  0  0  0  0
   -2.5295    3.6675   -0.1663 C   0  0  0  0  0  0  0  0  0  0  0  0
    0.9330   -5.1493   -0.5423 C   0  0  0  0  0  0  0  0  0  0  0  0
   -4.9948    3.7632    0.2986 C   0  0  0  0  0  0  0  0  0  0  0  0
   -3.5918    4.6857   -2.3826 C   0  0  0  0  0  0  0  0  0  0  0  0
   -0.5903   -6.3259    1.4980 C   0  0  0  0  0  0  0  0  0  0  0  0
   -0.0775   -6.5086    0.0209 C   0  0  1  0  0  0  0  0  0  0  0  0
   -3.4793    5.8372   -2.6292 O   0  0  0  0  0  0  0  0  0  0  0  0
   -4.7630    4.0358   -2.6546 O   0  0  0  0  0  0  0  0  0  0  0  0
   -1.2748   -6.8178   -0.6719 O   0  0  0  0  0  0  0  0  0  0  0  0
    1.3987   -0.1897   -0.0125 O   0  0  0  0  0  0  0  0  0  0  0  0
  1 15  1  6
  2  1  1  0
  4  2  1  0
  4  3  1  0
  5  3  1  0
  5 16  1  6
  6  1  1  0
  7  1  1  0
  3  8  1  6
  8  7  1  0
  2  9  1  6
  6 10  1  6
 10  9  1  0
  4 11  1  1
 11 28  1  6
 12  5  1  0
 13 11  1  0
 12 13  1  6
 14 21  1  6
 14  6  1  0
 17  5  1  0
 19 14  1  0
 19 18  1  0
 20 12  1  0
 22 18  1  0
 23 17  1  0
 24 20  1  0
 24 23  1  0
 24 27  1  6
 25 22  2  0
 26 22  1  0
M  END
>  <DRUGBANK_ID>  (1) 
DB06777

>  <COMMON_NAME>  (1) 
Chenodeoxycholic acid

>  <CAS_NUMBER>  (1) 
474-25-9

>  <UNII>  (1) 
0GEI24LG0J

>  <SYNONYMS>  (1) 
3alpha,7alpha-Dihydroxy-5beta-cholanic acid; 7Î±-hydroxylithocholic acid; Acide chenodeoxycholique; Acido chenodeoxicholico; Acidum chenodeoxycholicum; Anthropodeoxycholic acid; Anthropodesoxycholic acid; CDCA; Chenic acid; Chenocholic acid; Chenodeoxycholate; Chenodeoxycholic acid; Chenodesoxycholic acid; Chenodiol; Gallodesoxycholic acid

$$$$
