Daidzein
     RDKit          3D

 19 21  0  0  0  0  0  0  0  0999 V2000
    2.1416    0.1306    0.1323 O   0  0  0  0  0  0  0  0  0  0  0  0
    0.7890    0.0301   -0.0132 C   0  0  0  0  0  0  0  0  0  0  0  0
    0.1923   -1.1909   -0.1871 C   0  0  0  0  0  0  0  0  0  0  0  0
   -1.1631   -1.2592   -0.5672 C   0  0  0  0  0  0  0  0  0  0  0  0
   -2.0783   -0.1978   -0.5902 C   0  0  0  0  0  0  0  0  0  0  0  0
   -1.4530    1.0460   -0.2684 C   0  0  0  0  0  0  0  0  0  0  0  0
   -0.0221    1.1570   -0.0442 C   0  0  0  0  0  0  0  0  0  0  0  0
   -3.6147   -0.5566   -0.8167 C   0  0  0  0  0  0  0  0  0  0  0  0
   -4.1934   -1.2913   -1.8441 C   0  0  0  0  0  0  0  0  0  0  0  0
   -4.3873   -2.7675   -1.8239 O   0  0  0  0  0  0  0  0  0  0  0  0
   -3.8542   -3.4252   -0.7236 C   0  0  0  0  0  0  0  0  0  0  0  0
   -3.6917   -2.6662    0.4346 C   0  0  0  0  0  0  0  0  0  0  0  0
   -2.6538   -2.9575    1.3116 C   0  0  0  0  0  0  0  0  0  0  0  0
   -1.8796   -4.1013    1.0842 C   0  0  0  0  0  0  0  0  0  0  0  0
   -2.2375   -4.9935    0.0674 C   0  0  0  0  0  0  0  0  0  0  0  0
   -1.5382   -6.1515   -0.1155 O   0  0  0  0  0  0  0  0  0  0  0  0
   -3.2447   -4.6749   -0.8467 C   0  0  0  0  0  0  0  0  0  0  0  0
   -4.2651   -1.3182    0.3154 C   0  0  0  0  0  0  0  0  0  0  0  0
   -5.3697   -1.0448    0.7947 O   0  0  0  0  0  0  0  0  0  0  0  0
  1  2  1  0
  2  3  2  0
  2  7  1  0
  3  4  1  0
  4  5  2  0
  5  6  1  0
  5  8  1  0
  6  7  2  0
  8  9  2  0
  8 18  1  0
  9 10  1  0
 10 11  1  0
 11 12  2  0
 11 17  1  0
 12 13  1  0
 12 18  1  0
 13 14  2  0
 14 15  1  0
 15 16  1  0
 15 17  2  0
 18 19  2  0
M  END
>  <DRUGBANK_ID>  (1) 
DB13182

>  <COMMON_NAME>  (1) 
Daidzein

>  <CAS_NUMBER>  (1) 
486-66-8

>  <UNII>  (1) 
6287WC5J2L

>  <SYNONYMS>  (1) 
4',7-dihydroxyisoflavone; 7-Hydroxy-3-(4-hydroxyphenyl)-4-benzopyrone; 7-hydroxy-3-(4-hydroxyphenyl)-4H-1-benzopyran-4-one; 7,4'-dihydroxyisoflavone; Daidzeol; Isoaurostatin

$$$$
