
     RDKit          3D

 29 32  0  0  0  0  0  0  0  0999 V2000
    0.3076   -5.7269    0.8604 C   0  0  1  0  0  0  0  0  0  0  0  0
    4.6211   -6.3246    0.7724 C   0  0  2  0  0  0  0  0  0  0  0  0
    1.8428   -5.7512    0.7894 C   0  0  1  0  0  0  0  0  0  0  0  0
   -0.3749   -5.2579   -0.4639 C   0  0  0  0  0  0  0  0  0  0  0  0
    3.9719   -5.4855   -0.4036 C   0  0  2  0  0  0  0  0  0  0  0  0
    2.6619   -4.6775    0.0900 C   0  0  1  0  0  0  0  0  0  0  0  0
    5.7610   -7.0310    0.0057 C   0  0  2  0  0  0  0  0  0  0  0  0
    2.4740   -6.6062    2.0025 C   0  0  2  0  0  0  0  0  0  0  0  0
    0.1586   -7.2579    0.7146 C   0  0  0  0  0  0  0  0  0  0  0  0
    3.6172   -7.3640    1.3448 C   0  0  0  0  0  0  0  0  0  0  0  0
    5.1191   -7.6160   -1.3075 C   0  0  2  0  0  0  0  0  0  0  0  0
    3.9357   -6.5800   -1.5740 C   0  0  0  0  0  0  0  0  0  0  0  0
    1.8346   -4.1086   -1.1280 C   0  0  0  0  0  0  0  0  0  0  0  0
    0.3196   -3.9195   -0.8657 C   0  0  2  0  0  0  0  0  0  0  0  0
   -1.0715   -6.2657   -1.1443 C   0  0  0  0  0  0  0  0  0  0  0  0
    7.1232   -7.3833    0.6498 C   0  0  0  0  0  0  0  0  0  0  0  0
   -0.9908   -7.8413    0.9436 C   0  0  0  0  0  0  0  0  0  0  0  0
   -1.6251   -7.6141   -0.3938 C   0  0  0  0  0  0  0  0  0  0  0  0
    2.0039   -6.5954   -0.3294 F   0  0  0  0  0  0  0  0  0  0  0  0
    7.7083   -6.5577    1.3784 O   0  0  0  0  0  0  0  0  0  0  0  0
   -2.3504   -8.4305   -0.8347 O   0  0  0  0  0  0  0  0  0  0  0  0
    6.5009   -5.8146   -0.5851 O   0  0  0  0  0  0  0  0  0  0  0  0
   -0.1494   -5.0619    2.1951 C   0  0  0  0  0  0  0  0  0  0  0  0
    5.0679   -5.3297    1.8618 C   0  0  0  0  0  0  0  0  0  0  0  0
    1.6195   -7.5703    2.6514 O   0  0  0  0  0  0  0  0  0  0  0  0
    0.2290   -3.0445    0.1918 F   0  0  0  0  0  0  0  0  0  0  0  0
    7.8845   -8.5856    0.2032 C   0  0  0  0  0  0  0  0  0  0  0  0
    7.1720   -9.9873    0.9872 Cl  0  0  0  0  0  0  0  0  0  0  0  0
    4.7496   -9.0727   -1.7995 C   0  0  0  0  0  0  0  0  0  0  0  0
  1 23  1  1
  2 10  1  0
  2  5  1  0
  2 24  1  1
  3  1  1  0
  3 19  1  6
  4  1  1  0
  5  6  1  0
  6  3  1  0
  6 13  1  6
  7  2  1  0
  7 11  1  0
  7 16  1  0
  7 22  1  6
  8  3  1  0
  8 25  1  6
  9  1  1  0
 10  8  1  0
 11 12  1  0
 11 29  1  1
  5 12  1  6
 13 14  1  0
 14  4  1  0
 14 26  1  1
 15  4  2  0
 15 18  1  0
 17  9  2  0
 18 17  1  0
 20 16  2  0
 21 18  2  0
 27 16  1  0
 28 27  1  0
M  END
>  <DRUGBANK_ID>  (1) 
DB00596

>  <SECONDARY_ACCESSION_NUMBERS>  (1) 
APRD01010

>  <COMMON_NAME>  (1) 
Ulobetasol

>  <CAS_NUMBER>  (1) 
98651-66-2

>  <UNII>  (1) 
9P6159HM7T

>  <SYNONYMS>  (1) 
21-chloro diflorasone; Halobetasol; Ulobetasol; Ulob√©tasol; Ulobetasolum

$$$$
