
     RDKit          3D

 27 28  0  0  0  0  0  0  0  0999 V2000
   -2.0190   -0.9959   -0.1325 C   0  0  1  0  0  0  0  0  0  0  0  0
   -2.3033    0.5154    0.0459 C   0  0  0  0  0  0  0  0  0  0  0  0
   -1.0863    1.4220   -0.1762 C   0  0  0  0  0  0  0  0  0  0  0  0
   -0.7044   -1.3666    0.2769 O   0  0  0  0  0  0  0  0  0  0  0  0
    0.2978   -0.5854   -0.3027 C   0  0  1  0  0  0  0  0  0  0  0  0
    0.1829    0.7722    0.3616 C   0  0  1  0  0  0  0  0  0  0  0  0
    1.4886    1.4101   -0.0492 C   0  0  2  0  0  0  0  0  0  0  0  0
    2.4347    0.2165    0.0145 C   0  0  0  0  0  0  0  0  0  0  0  0
    1.6985   -1.0832   -0.0082 C   0  0  0  0  0  0  0  0  0  0  0  0
    3.6570    0.2725    0.0401 O   0  0  0  0  0  0  0  0  0  0  0  0
   -3.0507   -1.8309    0.6805 C   0  0  0  0  0  0  0  0  0  0  0  0
   -2.7022   -3.3182    0.8125 C   0  0  0  0  0  0  0  0  0  0  0  0
   -3.2316   -1.2895    1.9172 F   0  0  0  0  0  0  0  0  0  0  0  0
   -4.2690   -1.7121    0.0711 F   0  0  0  0  0  0  0  0  0  0  0  0
   -1.4093   -3.6392    1.5915 C   0  0  0  0  0  0  0  0  0  0  0  0
   -2.1380   -1.3095   -1.5282 O   0  0  0  0  0  0  0  0  0  0  0  0
   -1.3703   -3.0117    2.9869 C   0  0  0  0  0  0  0  0  0  0  0  0
   -2.4861   -3.5842    3.8447 C   0  0  0  0  0  0  0  0  0  0  0  0
    1.9278    2.5739    0.8197 C   0  0  0  0  0  0  0  0  0  0  0  0
    3.2138    3.1844    0.2534 C   0  0  0  0  0  0  0  0  0  0  0  0
    3.0276    3.6180   -1.2054 C   0  0  0  0  0  0  0  0  0  0  0  0
    1.9348    4.6874   -1.3099 C   0  0  0  0  0  0  0  0  0  0  0  0
    2.3510    5.9604   -0.5671 C   0  0  0  0  0  0  0  0  0  0  0  0
    3.6778    6.5229   -1.0806 C   0  0  0  0  0  0  0  0  0  0  0  0
    3.5862    6.9690   -2.5155 C   0  0  0  0  0  0  0  0  0  0  0  0
    3.6840    8.1251   -2.9086 O   0  0  0  0  0  0  0  0  0  0  0  0
    3.3623    5.9704   -3.3884 O   0  0  0  0  0  0  0  0  0  0  0  0
  1  2  1  0
  1  4  1  0
  1 11  1  0
  1 16  1  6
  2  3  1  0
  6  3  1  6
  5  4  1  0
  5  6  1  0
  6  7  1  0
  7  8  1  0
  7 19  1  1
  8  9  1  0
  8 10  2  0
  5  9  1  1
 11 14  1  0
 11 12  1  0
 11 13  1  0
 12 15  1  0
 15 17  1  0
 17 18  1  0
 19 20  1  0
 20 21  1  0
 21 22  1  0
 22 23  1  0
 23 24  1  0
 24 25  1  0
 25 26  2  0
 25 27  1  0
M  END
>  <DRUGBANK_ID>  (1) 
DB01046

>  <SECONDARY_ACCESSION_NUMBERS>  (1) 
APRD01298

>  <COMMON_NAME>  (1) 
Lubiprostone

>  <CAS_NUMBER>  (1) 
136790-76-6

>  <UNII>  (1) 
7662KG2R6K

>  <SYNONYMS>  (1) 
Lubiprostone

$$$$
