
     RDKit          3D

 22 21  0  0  0  0  0  0  0  0999 V2000
   -5.9473    1.2267    5.2839 N   0  0  0  0  0  0  0  0  0  0  0  0
   -5.3212    0.3740    4.2568 C   0  0  2  0  0  0  0  0  0  0  0  0
   -4.8677    1.3456    3.1165 C   0  0  0  0  0  0  0  0  0  0  0  0
   -6.2762   -0.7877    3.8971 C   0  0  0  0  0  0  0  0  0  0  0  0
   -7.6021   -0.3611    3.3311 C   0  0  0  0  0  0  0  0  0  0  0  0
   -7.4580    0.3806    2.0537 C   0  0  0  0  0  0  0  0  0  0  0  0
   -6.9096   -0.2923    0.9268 N   0  0  0  0  0  0  0  0  0  0  0  0
   -7.5510   -0.2802   -0.2640 C   0  0  0  0  0  0  0  0  0  0  0  0
   -7.0477   -1.0281   -1.2083 N   0  0  0  0  0  0  0  0  0  0  0  0
   -8.7140    0.3638   -0.5691 N   0  0  0  0  0  0  0  0  0  0  0  0
   -9.5734    1.2732   -0.0249 N   0  0  0  0  0  0  0  0  0  0  0  0
  -10.5485    1.4674   -0.7332 O   0  0  0  0  0  0  0  0  0  0  0  0
   -9.3906    1.8570    1.0577 O   0  0  0  0  0  0  0  0  0  0  0  0
   -5.5504    2.3240    2.8336 O   0  0  0  0  0  0  0  0  0  0  0  0
   -3.6624    1.1259    2.5052 N   0  0  0  0  0  0  0  0  0  0  0  0
   -3.1742    1.9690    1.3691 C   0  0  2  0  0  0  0  0  0  0  0  0
   -1.6219    1.9458    1.3552 C   0  0  0  0  0  0  0  0  0  0  0  0
   -1.0009    0.9117    1.9940 N   0  0  0  0  0  0  0  0  0  0  0  0
   -0.9064    2.7337    0.7446 O   0  0  0  0  0  0  0  0  0  0  0  0
   -3.6673    3.4434    1.3166 C   0  0  0  0  0  0  0  0  0  0  0  0
   -3.2559    4.2512    0.0840 C   0  0  0  0  0  0  0  0  0  0  0  0
   -3.7496    3.6296   -1.1423 N   0  0  0  0  0  0  0  0  0  0  0  0
  2  1  1  1
  2  4  1  0
  2  3  1  0
  3 15  1  0
  3 14  2  0
  4  5  1  0
  5  6  1  0
  6  7  1  0
  7  8  1  0
  8  9  2  0
  8 10  1  0
 10 11  1  0
 11 12  1  0
 11 13  2  0
 16 20  1  1
 16 17  1  0
 16 15  1  0
 17 18  1  0
 17 19  2  0
 20 21  1  0
 21 22  1  0
M  CHG  2  11   1  12  -1
M  END
>  <DRUGBANK_ID>  (1) 
DB01821

>  <SECONDARY_ACCESSION_NUMBERS>  (1) 
EXPT01252

>  <COMMON_NAME>  (1) 
L-N(omega)-Nitroarginine-2,4-L-diaminobutyric amide

$$$$
