
     RDKit          3D

 29 31  0  0  0  0  0  0  0  0999 V2000
    1.6617   -0.0159   -0.0980 Br  0  0  0  0  0  0  0  0  0  0  0  0
   -7.3439   -4.4941    0.7006 O   0  0  0  0  0  0  0  0  0  0  0  0
   -4.4605   -5.2785    1.5048 O   0  0  0  0  0  0  0  0  0  0  0  0
   -6.1343   -8.4028    2.6395 N   0  0  0  0  0  0  0  0  0  0  0  0
   -4.3077   -0.0201    0.0347 N   0  0  0  0  0  0  0  0  0  0  0  0
   -0.3666    2.4253   -0.3043 N   0  0  0  0  0  0  0  0  0  0  0  0
   -2.3187    1.1487    0.0285 N   0  0  0  0  0  0  0  0  0  0  0  0
   -2.2713   -1.2059    0.0074 N   0  0  0  0  0  0  0  0  0  0  0  0
   -5.5918   -6.1651    1.4914 C   0  0  1  0  0  0  0  0  0  0  0  0
   -5.3154   -7.1757    2.6311 C   0  0  0  0  0  0  0  0  0  0  0  0
   -6.9596   -5.4503    1.6764 C   0  0  0  0  0  0  0  0  0  0  0  0
   -5.6442   -9.3143    3.6728 C   0  0  0  0  0  0  0  0  0  0  0  0
   -7.5528   -8.1709    2.8923 C   0  0  0  0  0  0  0  0  0  0  0  0
   -6.7380   -3.2867    0.7585 C   0  0  0  0  0  0  0  0  0  0  0  0
   -5.8133   -2.9150    1.7275 C   0  0  0  0  0  0  0  0  0  0  0  0
   -6.9854   -2.4816   -0.3446 C   0  0  0  0  0  0  0  0  0  0  0  0
   -5.1299   -1.0993    0.3149 C   0  0  0  0  0  0  0  0  0  0  0  0
   -4.9507   -1.8735    1.4623 C   0  0  0  0  0  0  0  0  0  0  0  0
   -6.1837   -1.3770   -0.5590 C   0  0  0  0  0  0  0  0  0  0  0  0
   -2.9170   -0.0343    0.0502 C   0  0  0  0  0  0  0  0  0  0  0  0
   -0.9691    1.1808   -0.0575 C   0  0  0  0  0  0  0  0  0  0  0  0
   -0.9779    3.6809   -0.1496 C   0  0  0  0  0  0  0  0  0  0  0  0
   -0.2236    0.0137   -0.0731 C   0  0  0  0  0  0  0  0  0  0  0  0
   -1.7411    4.0080    0.9786 C   0  0  0  0  0  0  0  0  0  0  0  0
   -0.7875    4.6481   -1.1395 C   0  0  0  0  0  0  0  0  0  0  0  0
   -0.9295   -1.1595   -0.0499 C   0  0  0  0  0  0  0  0  0  0  0  0
   -2.3424    5.2626    1.0909 C   0  0  0  0  0  0  0  0  0  0  0  0
   -1.3673    5.9113   -1.0187 C   0  0  0  0  0  0  0  0  0  0  0  0
   -2.1593    6.2118    0.0881 C   0  0  0  0  0  0  0  0  0  0  0  0
  1 23  1  0
  2 11  1  0
  2 14  1  0
  4 10  1  0
  4 12  1  0
  4 13  1  0
  5 17  1  0
  5 20  1  0
  6 21  1  0
  6 22  1  0
  7 20  2  0
  7 21  1  0
  8 20  1  0
  8 26  2  0
  9  3  1  1
  9 10  1  0
  9 11  1  0
 14 15  2  0
 14 16  1  0
 15 18  1  0
 16 19  2  0
 17 18  2  0
 17 19  1  0
 21 23  2  0
 22 24  2  0
 22 25  1  0
 23 26  1  0
 24 27  1  0
 25 28  2  0
 27 29  2  0
 28 29  1  0
M  END
>  <DRUGBANK_ID>  (1) 
DB07501

>  <COMMON_NAME>  (1) 
(2S)-1-{4-[(4-Anilino-5-bromo-2-pyrimidinyl)amino]phenoxy}-3-(dimethylamino)-2-propanol

$$$$
