
     RDKit          3D

 22 23  0  0  0  0  0  0  0  0999 V2000
    1.0670    0.0391   -0.0631 C   0  0  0  0  0  0  0  0  0  0  0  0
   -3.8273    5.9227    0.8409 C   0  0  0  0  0  0  0  0  0  0  0  0
   -0.2369    0.0391   -0.0631 C   0  0  0  0  0  0  0  0  0  0  0  0
   -4.2435    4.8092    1.7451 C   0  0  0  0  0  0  0  0  0  0  0  0
   -2.5917   -2.3306    4.3619 C   0  0  0  0  0  0  0  0  0  0  0  0
   -3.0781   -1.4679    3.3923 C   0  0  0  0  0  0  0  0  0  0  0  0
   -4.1194    2.0593    3.2918 C   0  0  0  0  0  0  0  0  0  0  0  0
   -3.5496    2.5760    4.4400 C   0  0  0  0  0  0  0  0  0  0  0  0
   -1.7569    0.0391   -0.0631 C   0  0  0  0  0  0  0  0  0  0  0  0
   -2.2355   -1.8026    5.5840 C   0  0  0  0  0  0  0  0  0  0  0  0
   -4.3014    0.5090    1.3593 C   0  0  0  0  0  0  0  0  0  0  0  0
   -3.8396    0.7953    2.7854 C   0  0  0  0  0  0  0  0  0  0  0  0
   -3.2240   -0.1019    3.6765 C   0  0  0  0  0  0  0  0  0  0  0  0
   -3.6990    1.4320    0.2486 C   0  0  0  0  0  0  0  0  0  0  0  0
   -2.9188    1.7014    5.2917 C   0  0  0  0  0  0  0  0  0  0  0  0
   -2.7966    0.3488    4.9664 C   0  0  0  0  0  0  0  0  0  0  0  0
   -4.2225    2.8884    0.3142 C   0  0  0  0  0  0  0  0  0  0  0  0
   -2.2219    1.3918    0.2009 N   0  0  0  0  0  0  0  0  0  0  0  0
   -2.3102   -0.4967    5.8886 N   0  0  0  0  0  0  0  0  0  0  0  0
   -2.5019    2.1746    6.5122 O   0  0  0  0  0  0  0  0  0  0  0  0
   -5.1882    3.2850   -0.3112 O   0  0  0  0  0  0  0  0  0  0  0  0
   -3.5637    3.6277    1.2622 O   0  0  0  0  0  0  0  0  0  0  0  0
  3  1  3  0
  4  2  1  0
  6  5  2  0
  8  7  2  0
  9  3  1  0
 10  5  1  0
 12  7  1  0
 12 11  1  0
 13  6  1  0
 13 12  2  0
 14 11  1  0
 15  8  1  0
 16 13  1  0
 16 15  2  0
 17 14  1  0
 18  9  1  0
 18 14  1  0
 19 10  2  0
 19 16  1  0
 20 15  1  0
 21 17  2  0
 22  4  1  0
 22 17  1  0
M  END
>  <DRUGBANK_ID>  (1) 
DB14701

>  <COMMON_NAME>  (1) 
Ethyl 8-hydroxy-alpha-(2-propynylamino)-5-quinolinepropanoate

>  <CAS_NUMBER>  (1) 
686723-15-9

>  <UNII>  (1) 
R333AH7MH1

>  <SYNONYMS>  (1) 
5-Quinolinepropanoic acid, 8-hydroxy-alpha-(2-propyn-1-ylamino)-, ethyl ester; Ethyl 8-hydroxy-alpha-(2-propynylamino)-5-quinolinepropanoate

$$$$
