
     RDKit          3D

 13 13  0  0  0  0  0  0  0  0999 V2000
    0.9380    0.0822    0.0287 O   0  0  0  0  0  0  0  0  0  0  0  0
    0.3614   -1.1470    0.1444 C   0  0  0  0  0  0  0  0  0  0  0  0
    0.9862   -2.2001    0.2626 O   0  0  0  0  0  0  0  0  0  0  0  0
   -1.1756   -1.0773    0.1439 C   0  0  1  0  0  0  0  0  0  0  0  0
   -1.6823   -0.3103    1.3065 N   0  0  0  0  0  0  0  0  0  0  0  0
   -1.7178   -0.4899   -1.1691 C   0  0  0  0  0  0  0  0  0  0  0  0
   -1.2999   -1.3084   -2.3662 C   0  0  0  0  0  0  0  0  0  0  0  0
   -0.4919   -0.7473   -3.3620 C   0  0  0  0  0  0  0  0  0  0  0  0
   -1.6636   -2.6591   -2.4586 C   0  0  0  0  0  0  0  0  0  0  0  0
   -1.1709   -3.4517   -3.4912 C   0  0  0  0  0  0  0  0  0  0  0  0
   -0.0521   -1.5290   -4.4296 C   0  0  0  0  0  0  0  0  0  0  0  0
   -0.3917   -2.8797   -4.4933 C   0  0  0  0  0  0  0  0  0  0  0  0
    2.3674    0.0626    0.0327 C   0  0  0  0  0  0  0  0  0  0  0  0
  1 13  1  0
  2  1  1  0
  3  2  2  0
  4  2  1  0
  4  5  1  1
  6  4  1  0
  7  6  1  0
  8  7  2  0
  9  7  1  0
 10  9  2  0
 11  8  1  0
 11 12  2  0
 12 10  1  0
M  END
>  <DRUGBANK_ID>  (1) 
DB06838

>  <COMMON_NAME>  (1) 
methyl L-phenylalaninate

>  <CAS_NUMBER>  (1) 
2577-90-4

>  <UNII>  (1) 
10AT497I17

>  <SYNONYMS>  (1) 
(S)-phenylalanine methyl ester; Methyl 3-phenyl-L-alaninate; Phenylalanine methyl ester

$$$$
