
     RDKit          3D

 28 30  0  0  0  0  0  0  0  0999 V2000
    0.7191   -0.0509    0.2540 C   0  0  0  0  0  0  0  0  0  0  0  0
    6.6708   -0.8808   -4.0512 C   0  0  0  0  0  0  0  0  0  0  0  0
    2.8916   -3.9799   -4.1246 C   0  0  0  0  0  0  0  0  0  0  0  0
    0.1811    0.2199   -1.1505 C   0  0  0  0  0  0  0  0  0  0  0  0
    3.8166    5.9141   -0.7810 C   0  0  0  0  0  0  0  0  0  0  0  0
    4.7678    5.2960   -1.5904 C   0  0  0  0  0  0  0  0  0  0  0  0
    2.4666    5.6924   -1.0300 C   0  0  0  0  0  0  0  0  0  0  0  0
    4.3834    4.4608   -2.6503 C   0  0  0  0  0  0  0  0  0  0  0  0
    2.0785    4.8585   -2.1022 C   0  0  0  0  0  0  0  0  0  0  0  0
    0.2880   -0.1368   -3.5258 C   0  0  0  0  0  0  0  0  0  0  0  0
    0.8991    1.0386   -4.2953 C   0  0  0  0  0  0  0  0  0  0  0  0
    2.2927   -0.6747   -1.8670 C   0  0  0  0  0  0  0  0  0  0  0  0
    3.0557    0.6569   -1.8212 C   0  0  0  0  0  0  0  0  0  0  0  0
    2.6838    3.4538   -4.2323 C   0  0  0  0  0  0  0  0  0  0  0  0
    3.0414    4.2140   -2.9363 C   0  0  0  0  0  0  0  0  0  0  0  0
    3.2232    1.9644   -4.5571 C   0  0  0  0  0  0  0  0  0  0  0  0
    3.0072   -0.3178   -4.8122 C   0  0  0  0  0  0  0  0  0  0  0  0
    4.3176   -0.0024   -4.5591 C   0  0  0  0  0  0  0  0  0  0  0  0
    2.5366   -1.7024   -4.7844 C   0  0  0  0  0  0  0  0  0  0  0  0
    4.8042   -2.4006   -4.1721 C   0  0  0  0  0  0  0  0  0  0  0  0
    4.4562    1.4081   -4.4592 N   0  0  0  0  0  0  0  0  0  0  0  0
    5.2422   -1.0499   -4.2638 N   0  0  0  0  0  0  0  0  0  0  0  0
    3.4687   -2.6552   -4.3822 N   0  0  0  0  0  0  0  0  0  0  0  0
    0.8322   -0.5855   -2.1929 N   0  0  0  0  0  0  0  0  0  0  0  0
    2.2905    0.8950   -4.7508 N   0  0  0  0  0  0  0  0  0  0  0  0
    2.6078    1.7019   -0.9845 O   0  0  0  0  0  0  0  0  0  0  0  0
    1.4145   -2.0804   -5.0071 O   0  0  0  0  0  0  0  0  0  0  0  0
    5.5662   -3.3390   -3.9093 O   0  0  0  0  0  0  0  0  0  0  0  0
  4  1  1  0
  6  5  2  0
  7  5  1  0
  8  6  1  0
  9  7  2  0
 11 10  1  0
 13 12  1  0
 15  8  2  0
 15  9  1  0
 15 14  1  0
 16 14  1  0
 18 17  2  0
 19 17  1  0
 21 16  2  0
 21 18  1  0
 22  2  1  0
 22 18  1  0
 22 20  1  0
 23  3  1  0
 23 19  1  0
 23 20  1  0
 24  4  1  0
 24 10  1  0
 24 12  1  0
 25 11  1  0
 25 16  1  0
 25 17  1  0
 26 13  1  0
 27 19  2  0
 28 20  2  0
M  END
>  <DRUGBANK_ID>  (1) 
DB13203

>  <COMMON_NAME>  (1) 
Bamifylline

>  <CAS_NUMBER>  (1) 
2016-63-9

>  <UNII>  (1) 
ZTY15D026H

>  <SYNONYMS>  (1) 
Bamifilina; Bamifylline; Bamifyllinum

$$$$
