
     RDKit          3D

 23 26  0  0  0  0  0  0  0  0999 V2000
    0.7152   -0.4975   -0.4462 O   0  0  0  0  0  0  0  0  0  0  0  0
   -0.5638   -0.0285  -10.5208 O   0  0  0  0  0  0  0  0  0  0  0  0
   -0.4513   -0.2409   -3.0645 C   0  0  1  0  0  0  0  0  0  0  0  0
   -0.6877    1.1947   -2.1964 C   0  0  2  0  0  0  0  0  0  0  0  0
   -1.2679   -0.3405   -4.3482 C   0  0  1  0  0  0  0  0  0  0  0  0
    0.1800    0.5975   -1.1291 C   0  0  2  0  0  0  0  0  0  0  0  0
   -0.9995    0.8566   -5.2209 C   0  0  0  0  0  0  0  0  0  0  0  0
    1.0274   -0.4510   -3.1456 C   0  0  0  0  0  0  0  0  0  0  0  0
   -0.9476    2.2866   -3.2044 C   0  0  0  0  0  0  0  0  0  0  0  0
    1.3424    0.7238   -2.3034 C   0  0  0  0  0  0  0  0  0  0  0  0
   -0.9413    0.6436   -6.5462 C   0  0  0  0  0  0  0  0  0  0  0  0
   -1.1529   -1.7388   -5.0106 C   0  0  0  0  0  0  0  0  0  0  0  0
   -1.0418    2.1396   -4.5389 C   0  0  0  0  0  0  0  0  0  0  0  0
   -0.0712    2.3400   -0.8353 C   0  0  0  0  0  0  0  0  0  0  0  0
   -0.4380   -0.6532   -7.0486 C   0  0  0  0  0  0  0  0  0  0  0  0
   -1.5868    0.5903   -0.5882 C   0  0  0  0  0  0  0  0  0  0  0  0
   -0.0557   -1.7165   -6.0428 C   0  0  0  0  0  0  0  0  0  0  0  0
   -1.5134    1.5879   -7.5853 C   0  0  0  0  0  0  0  0  0  0  0  0
   -0.3125   -0.8932   -8.3592 C   0  0  0  0  0  0  0  0  0  0  0  0
   -2.4246   -0.5493   -1.0463 C   0  0  0  0  0  0  0  0  0  0  0  0
   -0.5067    0.2172   -9.3202 C   0  0  0  0  0  0  0  0  0  0  0  0
   -0.5722    1.6246   -8.7622 C   0  0  0  0  0  0  0  0  0  0  0  0
   -2.7159   -1.5205   -0.2516 C   0  0  0  0  0  0  0  0  0  0  0  0
  2 21  2  0
  3  4  1  0
  3  5  1  0
  3  8  1  6
  4  6  1  0
  4  9  1  0
  4 14  1  1
  5  7  1  0
  5 12  1  6
  6  1  1  6
  6 10  1  0
  6 16  1  0
  7 11  2  0
  7 13  1  0
  8 10  1  0
  9 13  2  0
 11 15  1  0
 11 18  1  0
 12 17  1  0
 15 17  1  0
 15 19  2  0
 16 20  1  0
 18 22  1  0
 19 21  1  0
 20 23  2  0
 21 22  1  0
M  END
>  <DRUGBANK_ID>  (1) 
DB11372

>  <COMMON_NAME>  (1) 
Altrenogest

>  <CAS_NUMBER>  (1) 
850-52-2

>  <UNII>  (1) 
2U0X0JA2NB

>  <SYNONYMS>  (1) 
17-alpha-Allyl-estratriene-4,9,11,17-beta-ol-3-one; Allyl trenbolone; Allyltrenbolone; Altrenogest; Altrenogestum

$$$$
