
     RDKit          3D

 28 29  0  0  0  0  0  0  0  0999 V2000
    1.0654    0.4605    0.0931 C   0  0  0  0  0  0  0  0  0  0  0  0
    1.0672   -0.7095    2.4194 C   0  0  0  0  0  0  0  0  0  0  0  0
    6.0405   -4.4517   -8.0565 C   0  0  0  0  0  0  0  0  0  0  0  0
    3.8862   -5.6063   -7.6711 C   0  0  0  0  0  0  0  0  0  0  0  0
    2.6416   -3.1677   -0.1551 C   0  0  0  0  0  0  0  0  0  0  0  0
    2.2179   -3.3631   -2.4670 C   0  0  0  0  0  0  0  0  0  0  0  0
    7.2471   -4.8954   -4.8012 C   0  0  0  0  0  0  0  0  0  0  0  0
    7.7700   -6.6902   -3.3511 C   0  0  0  0  0  0  0  0  0  0  0  0
    1.2457   -3.2991    0.0547 C   0  0  0  0  0  0  0  0  0  0  0  0
    0.8297   -3.2947   -2.2704 C   0  0  0  0  0  0  0  0  0  0  0  0
    7.6822   -5.7010   -5.8457 C   0  0  0  0  0  0  0  0  0  0  0  0
    7.9807   -7.5491   -4.4815 C   0  0  0  0  0  0  0  0  0  0  0  0
   -0.9728   -1.0028    0.9009 C   0  0  0  0  0  0  0  0  0  0  0  0
    5.9347   -6.9863   -8.4810 C   0  0  0  0  0  0  0  0  0  0  0  0
   -1.3605   -1.4873   -0.5091 C   0  0  0  0  0  0  0  0  0  0  0  0
    7.4361   -7.3185   -8.2040 C   0  0  0  0  0  0  0  0  0  0  0  0
    0.5040   -0.6048    1.0121 C   0  0  0  0  0  0  0  0  0  0  0  0
    5.3913   -5.8032   -7.6667 C   0  0  0  0  0  0  0  0  0  0  0  0
    3.1602   -3.3562   -1.4269 C   0  0  0  0  0  0  0  0  0  0  0  0
    7.2303   -5.4126   -3.5125 C   0  0  0  0  0  0  0  0  0  0  0  0
    0.3397   -3.1442   -0.9978 C   0  0  0  0  0  0  0  0  0  0  0  0
    7.8219   -7.0554   -5.7797 C   0  0  0  0  0  0  0  0  0  0  0  0
    5.1260   -4.4497   -2.6225 C   0  0  0  0  0  0  0  0  0  0  0  0
    4.5700   -3.6450   -1.5965 N   0  0  0  0  0  0  0  0  0  0  0  0
    6.5336   -4.6587   -2.5018 N   0  0  0  0  0  0  0  0  0  0  0  0
   -0.9879   -2.8709   -0.7959 O   0  0  0  0  0  0  0  0  0  0  0  0
    7.7735   -7.8721   -6.8854 O   0  0  0  0  0  0  0  0  0  0  0  0
    4.2337   -5.1949   -3.8551 S   0  0  0  0  0  0  0  0  0  0  0  0
  9  5  2  0
 10  6  1  0
 11  7  2  0
 12  8  1  0
 15 13  1  0
 16 14  1  0
 17  1  1  0
 17  2  1  0
 17 13  1  0
 18  3  1  0
 18  4  1  0
 18 14  1  0
 19  5  1  0
 19  6  2  0
 20  7  1  0
 20  8  2  0
 21  9  1  0
 21 10  2  0
 22 11  1  0
 22 12  2  0
 24 19  1  0
 24 23  1  0
 25 20  1  0
 25 23  1  0
 26 15  1  0
 26 21  1  0
 27 16  1  0
 27 22  1  0
 28 23  2  0
M  END
>  <DRUGBANK_ID>  (1) 
DB13608

>  <COMMON_NAME>  (1) 
Tiocarlide

>  <CAS_NUMBER>  (1) 
910-86-1

>  <UNII>  (1) 
43M23X81Y2

>  <SYNONYMS>  (1) 
Tiocarlide

$$$$
