
     RDKit          3D

  4  0  0  0  0  0  0  0  0  0999 V2000
    0.8246   -0.3376    0.0977 Fe  0  0  0  0  0 15  0  0  0  0  0  0
    0.7355    0.9566   -1.1920 O   0  0  0  0  0  0  0  0  0  0  0  0
    1.7470   -1.8029   -0.4626 O   0  0  0  0  0  0  0  0  0  0  0  0
    0.8884    0.3514    1.7802 O   0  0  0  0  0  0  0  0  0  0  0  0
M  CHG  4   1   3   2  -1   3  -1   4  -1
M  END
>  <DRUGBANK_ID>  (1) 
DB13423

>  <COMMON_NAME>  (1) 
Ferric hydroxide

>  <CAS_NUMBER>  (1) 
1309-33-7

>  <UNII>  (1) 
2UA751211N

$$$$
