
     RDKit          3D

 20 21  0  0  0  0  0  0  0  0999 V2000
    2.5797   -0.0063   -0.2805 C   0  0  0  0  0  0  0  0  0  0  0  0
    1.1374   -0.0072    0.1786 C   0  0  0  0  0  0  0  0  0  0  0  0
    0.3719    1.2790   -0.2436 C   0  0  0  0  0  0  0  0  0  0  0  0
   -1.1563    1.3402    0.0090 C   0  0  0  0  0  0  0  0  0  0  0  0
   -1.8627    0.0200   -0.3065 C   0  0  0  0  0  0  0  0  0  0  0  0
   -1.0790   -1.1494    0.3338 C   0  0  0  0  0  0  0  0  0  0  0  0
    0.3526   -1.2446   -0.2053 C   0  0  0  0  0  0  0  0  0  0  0  0
   -1.1436   -1.1398    1.8054 O   0  0  0  0  0  0  0  0  0  0  0  0
   -0.6642   -0.1468    2.5948 C   0  0  0  0  0  0  0  0  0  0  0  0
   -0.0492    0.8877    2.3302 O   0  0  0  0  0  0  0  0  0  0  0  0
   -0.9132   -0.2825    4.0000 C   0  0  0  0  0  0  0  0  0  0  0  0
   -1.2443    0.9252    4.6534 C   0  0  0  0  0  0  0  0  0  0  0  0
   -1.2663    0.9740    6.0284 C   0  0  0  0  0  0  0  0  0  0  0  0
   -0.9490   -0.1825    6.7318 C   0  0  0  0  0  0  0  0  0  0  0  0
   -0.5795   -1.3675    6.0637 C   0  0  0  0  0  0  0  0  0  0  0  0
   -0.5632   -1.4492    4.6734 C   0  0  0  0  0  0  0  0  0  0  0  0
    0.0737   -2.5195    4.0306 N   0  0  0  0  0  0  0  0  0  0  0  0
   -3.3504    0.0289    0.1466 C   0  0  0  0  0  0  0  0  0  0  0  0
   -4.0887    1.2725   -0.3555 C   0  0  0  0  0  0  0  0  0  0  0  0
   -4.0909   -1.2191   -0.3494 C   0  0  0  0  0  0  0  0  0  0  0  0
  1  2  1  0
  2  3  1  0
  2  7  1  0
  3  4  1  0
  4  5  1  0
  5  6  1  0
  5 18  1  0
  6  7  1  0
  6  8  1  0
  8  9  1  0
  9 10  2  0
  9 11  1  0
 11 12  2  0
 11 16  1  0
 12 13  1  0
 13 14  2  0
 14 15  1  0
 15 16  2  0
 16 17  1  0
 18 19  1  0
 18 20  1  0
M  END
>  <DRUGBANK_ID>  (1) 
DB11096

>  <COMMON_NAME>  (1) 
Meradimate

>  <CAS_NUMBER>  (1) 
134-09-8

>  <UNII>  (1) 
J9QGD60OUZ

>  <SYNONYMS>  (1) 
Menthyl anthranilate; Menthyl-O-aminobenzoate; Meradimate

$$$$
