
     RDKit          3D

 23 24  0  0  0  0  0  0  0  0999 V2000
    3.0536   -0.5801   -1.2319 N   0  0  0  0  0  0  0  0  0  0  0  0
    2.2533   -1.0113   -2.1304 N   0  0  0  0  0  0  0  0  0  0  0  0
    1.5458   -1.3730   -2.9422 N   0  0  0  0  0  0  0  0  0  0  0  0
    1.7046   -1.5108    2.8947 N   0  0  0  0  0  0  0  0  0  0  0  0
    0.8760   -0.6074    3.5554 C   0  0  0  0  0  0  0  0  0  0  0  0
    1.3166   -2.8311    2.7323 C   0  0  0  0  0  0  0  0  0  0  0  0
   -0.2684   -1.1419    4.0843 N   0  0  0  0  0  0  0  0  0  0  0  0
    1.0432    0.5996    3.6915 O   0  0  0  0  0  0  0  0  0  0  0  0
    0.0963   -3.2711    3.0425 C   0  0  0  0  0  0  0  0  0  0  0  0
   -0.8086   -2.3456    3.7502 C   0  0  0  0  0  0  0  0  0  0  0  0
   -0.4185   -4.6251    2.7003 C   0  0  0  0  0  0  0  0  0  0  0  0
   -1.9629   -2.6450    4.0199 O   0  0  0  0  0  0  0  0  0  0  0  0
    3.0098   -1.1385    2.3184 C   0  0  2  0  0  0  0  0  0  0  0  0
    3.2435    0.2633    2.3945 O   0  0  0  0  0  0  0  0  0  0  0  0
    3.1319   -1.5606    0.8707 C   0  0  0  0  0  0  0  0  0  0  0  0
    3.0232    0.8256    1.0943 C   0  0  1  0  0  0  0  0  0  0  0  0
    2.5695   -0.3938    0.1803 C   0  0  1  0  0  0  0  0  0  0  0  0
    2.0094    2.0606    1.2370 C   0  0  0  0  0  0  0  0  0  0  0  0
    0.8395    1.9068    0.4078 O   0  0  0  0  0  0  0  0  0  0  0  0
    1.2573    1.6638   -1.2533 P   0  0  0  0  0  0  0  0  0  0  0  0
    2.8220    1.8148   -0.9407 O   0  0  0  0  0  0  0  0  0  0  0  0
    0.4213    0.3018   -1.0576 O   0  0  0  0  0  0  0  0  0  0  0  0
    1.6312    1.4462   -2.7399 O   0  0  0  0  0  0  0  0  0  0  0  0
  1  2  2  0
  2  3  2  0
  4  5  1  0
  4  6  1  0
  5  7  1  0
  5  8  2  0
  6  9  2  0
  7 10  1  0
  9 11  1  0
  9 10  1  0
 10 12  2  0
 13  4  1  6
 13 14  1  0
 13 15  1  0
 14 16  1  0
 15 17  1  0
 16 17  1  0
 16 18  1  1
 17  1  1  6
 18 19  1  0
 19 20  1  0
 20 21  1  0
 20 22  1  0
 20 23  2  0
M  CHG  2   2   1   3  -1
M  END
>  <DRUGBANK_ID>  (1) 
DB03666

>  <SECONDARY_ACCESSION_NUMBERS>  (1) 
EXPT00583

>  <COMMON_NAME>  (1) 
Zidovudine monophosphate

>  <CAS_NUMBER>  (1) 
29706-85-2

>  <UNII>  (1) 
97YMU05VPJ

>  <SYNONYMS>  (1) 
3'-Azido-2',3'-deoxythymidine 5'-monophosphate; 3'-Azido-3'-deoxythymidine 5'-phosphate; AZTMP; Zdv 5'-monophosphate; ZDVMP; Zidovudine 5'-monophosphate

$$$$
