IPP
     RDKit          3D

 15 15  0  0  0  0  0  0  0  0999 V2000
    0.9664    0.0779    0.0530 P   0  0  0  0  0  0  0  0  0  0  0  0
    1.0436    0.8503    1.5101 O   0  0  0  0  0  0  0  0  0  0  0  0
    1.0582   -1.3944    0.4593 O   0  0  0  0  0  0  0  0  0  0  0  0
   -0.8636    0.0779    0.0530 C   0  0  0  0  0  0  0  0  0  0  0  0
   -1.4364    0.7456   -1.1103 N   0  0  0  0  0  0  0  0  0  0  0  0
   -2.2068    0.1621   -2.0820 C   0  0  0  0  0  0  0  0  0  0  0  0
   -2.6000    0.8569   -3.0260 O   0  0  0  0  0  0  0  0  0  0  0  0
   -2.5130   -1.3294   -1.9904 C   0  0  0  0  0  0  0  0  0  0  0  0
   -1.2904   -2.2255   -2.1085 C   0  0  0  0  0  0  0  0  0  0  0  0
   -1.3995   -3.6093   -1.9305 C   0  0  0  0  0  0  0  0  0  0  0  0
   -0.2497   -4.4133   -1.9034 C   0  0  0  0  0  0  0  0  0  0  0  0
    1.0156   -3.8373   -2.0102 C   0  0  0  0  0  0  0  0  0  0  0  0
    2.7352   -4.9872   -1.8701 I   0  0  0  0  0  0  0  0  0  0  0  0
    1.1380   -2.4733   -2.2100 C   0  0  0  0  0  0  0  0  0  0  0  0
   -0.0093   -1.6931   -2.3208 C   0  0  0  0  0  0  0  0  0  0  0  0
  1  4  1  0
  1  3  2  0
  1  2  1  0
  4  5  1  0
  5  6  1  0
  6  7  2  0
  6  8  1  0
  8  9  1  0
  9 10  2  0
  9 15  1  0
 10 11  1  0
 11 12  2  0
 12 13  1  0
 12 14  1  0
 14 15  2  0
M  END
>  <DRUGBANK_ID>  (1) 
DB04123

>  <SECONDARY_ACCESSION_NUMBERS>  (1) 
EXPT01921

>  <COMMON_NAME>  (1) 
(P-Iodophenylacetylamino)Methylphosphinic Acid

$$$$
