
     RDKit          3D

 14 14  0  0  0  0  0  0  0  0999 V2000
    0.9384    0.3005    0.0862 N   0  0  0  0  0  0  0  0  0  0  0  0
    0.4539    0.9729   -1.1316 C   0  0  1  0  0  0  0  0  0  0  0  0
    0.8991    0.4528   -2.5222 C   0  0  0  0  0  0  0  0  0  0  0  0
    0.4870   -1.2758   -3.0478 S   0  0  0  0  0  0  0  0  0  0  0  0
   -1.0800    0.9607   -1.0908 C   0  0  0  0  0  0  0  0  0  0  0  0
   -1.6527    2.1654   -0.8902 O   0  0  0  0  0  0  0  0  0  0  0  0
   -1.7549   -0.0627   -1.1854 O   0  0  0  0  0  0  0  0  0  0  0  0
    1.1316   -2.3729   -1.7286 C   0  0  0  0  0  0  0  0  0  0  0  0
    2.6356   -2.3866   -1.6011 C   0  0  0  0  0  0  0  0  0  0  0  0
    3.3878   -1.2134   -1.4714 C   0  0  0  0  0  0  0  0  0  0  0  0
    4.7658   -1.1912   -1.3556 C   0  0  0  0  0  0  0  0  0  0  0  0
    5.4393   -2.3896   -1.2862 C   0  0  0  0  0  0  0  0  0  0  0  0
    4.7220   -3.5864   -1.3339 C   0  0  0  0  0  0  0  0  0  0  0  0
    3.3350   -3.5909   -1.5293 C   0  0  0  0  0  0  0  0  0  0  0  0
  2  1  1  1
  2  3  1  0
  2  5  1  0
  3  4  1  0
  4  8  1  0
  5  6  1  0
  5  7  2  0
  8  9  1  0
  9 10  2  0
  9 14  1  0
 10 11  1  0
 11 12  2  0
 12 13  1  0
 13 14  2  0
M  END
>  <DRUGBANK_ID>  (1) 
DB04531

>  <SECONDARY_ACCESSION_NUMBERS>  (1) 
EXPT00643

>  <COMMON_NAME>  (1) 
S-Benzylcysteine

>  <CAS_NUMBER>  (1) 
3054-01-1

>  <UNII>  (1) 
9VRE13M548

>  <SYNONYMS>  (1) 
(R)-S-Benzylcysteine; 3-Benzylthioalanine; L-S-Benzylcysteine

$$$$
