
     RDKit          3D

 36 39  0  0  1  0  0  0  0  0999 V2000
    2.6438   -1.9360   -4.3310 C   0  0  0  0  0  0  0  0  0  0  0  0
    1.4745   -2.4537   -3.6593 O   0  0  0  0  0  0  0  0  0  0  0  0
    1.3959   -2.0524   -2.2589 C   0  0  2  0  0  0  0  0  0  0  0  0
    2.8591   -2.4371   -1.6285 N   0  0  0  0  0  0  0  0  0  0  0  0
    3.7884   -1.8554   -0.7702 C   0  0  0  0  0  0  0  0  0  0  0  0
    4.8408   -2.4385   -0.4962 O   0  0  0  0  0  0  0  0  0  0  0  0
    3.4928   -0.5740   -0.0346 C   0  0  2  0  0  0  0  0  0  0  0  0
    2.3321   -0.9111    0.7970 C   0  0  0  0  0  0  0  0  0  0  0  0
    1.6438   -1.7251    0.1017 O   0  0  0  0  0  0  0  0  0  0  0  0
    1.7699   -0.5322    1.7332 O   0  0  0  0  0  0  0  0  0  0  0  0
    3.4334    0.7074   -0.8981 C   0  0  0  0  0  0  0  0  0  0  0  0
    3.3638    0.5906   -2.2797 C   0  0  0  0  0  0  0  0  0  0  0  0
    3.1683    1.6555   -3.1789 C   0  0  0  0  0  0  0  0  0  0  0  0
    3.1792    2.9430   -2.7075 C   0  0  0  0  0  0  0  0  0  0  0  0
    3.0023    4.0289   -3.4945 O   0  0  0  0  0  0  0  0  0  0  0  0
    3.3371    3.1433   -1.3653 C   0  0  0  0  0  0  0  0  0  0  0  0
    3.4136    2.0493   -0.4945 C   0  0  0  0  0  0  0  0  0  0  0  0
   -0.1101   -2.2950   -1.2822 C   0  0  1  0  0  0  0  0  0  0  0  0
   -0.0581   -3.0267   -0.0202 O   0  0  0  0  0  0  0  0  0  0  0  0
   -0.4814   -2.3655    1.2094 C   0  0  0  0  0  0  0  0  0  0  0  0
   -0.6872   -0.8159    1.2224 C   0  0  0  0  0  0  0  0  0  0  0  0
   -0.8609   -0.3061    2.7167 C   0  0  0  0  0  0  0  0  0  0  0  0
    0.2951    0.8395    3.6538 S   0  0  0  0  0  0  0  0  0  0  0  0
    1.8359    0.0865    4.0359 C   0  0  0  0  0  0  0  0  0  0  0  0
    2.0976   -0.8729    4.8946 N   0  0  0  0  0  0  0  0  0  0  0  0
    3.4133   -1.2522    4.6675 N   0  0  0  0  0  0  0  0  0  0  0  0
    3.9575   -0.5407    3.6938 N   0  0  0  0  0  0  0  0  0  0  0  0
    3.0407    0.4176    3.4357 N   0  0  0  0  0  0  0  0  0  0  0  0
    3.2795    1.3031    2.3524 C   0  0  0  0  0  0  0  0  0  0  0  0
   -0.5869   -0.0717    0.0701 C   0  0  0  0  0  0  0  0  0  0  0  0
   -0.2413   -0.7705   -1.1478 N   0  0  0  0  0  0  0  0  0  0  0  0
    0.5932   -0.4065   -2.1775 C   0  0  0  0  0  0  0  0  0  0  0  0
    0.6935    0.7377   -2.5586 O   0  0  0  0  0  0  0  0  0  0  0  0
   -0.5136    1.4745    0.2772 C   0  0  0  0  0  0  0  0  0  0  0  0
    0.0613    2.2510   -0.6566 O   0  0  0  0  0  0  0  0  0  0  0  0
   -0.9100    2.0370    1.2905 O   0  0  0  0  0  0  0  0  0  0  0  0
  1  2  1  0
  3 18  1  0
  3 32  1  0
  3  4  1  1
  3  2  1  0
  4  5  1  0
  5  6  2  0
  7 11  1  0
  7  8  1  6
  7  5  1  0
  8  9  1  0
  8 10  2  0
 11 12  2  0
 11 17  1  0
 12 13  1  0
 13 14  2  0
 14 15  1  0
 14 16  1  0
 16 17  2  0
 18 19  1  1
 18 31  1  0
 19 20  1  0
 20 21  1  0
 21 22  1  0
 21 30  2  0
 22 23  1  0
 23 24  1  0
 24 25  2  0
 24 28  1  0
 25 26  1  0
 26 27  2  0
 27 28  1  0
 28 29  1  0
 30 31  1  0
 30 34  1  0
 31 32  1  0
 32 33  2  0
 34 35  1  0
 34 36  2  0
M  END
>  <DRUGBANK_ID>  (1) 
DB04342

>  <SECONDARY_ACCESSION_NUMBERS>  (1) 
EXPT02261

>  <COMMON_NAME>  (1) 
7-((Carboxy(4-Hydroxyphenyl)Acetyl)Amino)-7-Methoxy-(3-((1-Methyl-1h-Tetrazol-5-Yl)Thio)Methyl)-8-Oxo-5-Oxa-1-Azabicyclo[4.2.0]Oct-2-Ene-2-Carboxylic Acid

$$$$
