
     RDKit          3D

  1  0  0  0  0  0  0  0  0  0999 V2000
    0.9426    0.0779   -0.0253 Sm  0  0  0  0  0 15  0  0  0  0  0  0
M  END
>  <DRUGBANK_ID>  (1) 
DB12403

>  <COMMON_NAME>  (1) 
Samarium

>  <CAS_NUMBER>  (1) 
7440-19-9

>  <UNII>  (1) 
42OD65L39F

>  <SYNONYMS>  (1) 
samario

$$$$
