
     RDKit          3D

 14 13  0  0  1  0  0  0  0  0999 V2000
   -0.6436   -1.5884   -0.5251 C   0  0  0  0  0  0  0  0  0  0  0  0
   -1.3512   -1.2990    0.7912 C   0  0  0  0  0  0  0  0  0  0  0  0
   -1.1771   -2.4648    1.7676 C   0  0  0  0  0  0  0  0  0  0  0  0
   -0.8454    0.0308    1.3718 C   0  0  2  0  0  0  0  0  0  0  0  0
    0.6203    0.1712    1.4957 N   0  0  0  0  0  0  0  0  0  0  0  0
   -1.5454    0.2414    2.6889 C   0  0  0  0  0  0  0  0  0  0  0  0
   -2.5324    0.9736    2.7209 O   0  0  0  0  0  0  0  0  0  0  0  0
   -0.9788   -0.4521    3.7164 O   0  0  0  0  0  0  0  0  0  0  0  0
   -1.5370   -0.4500    5.0459 C   0  0  0  0  0  0  0  0  0  0  0  0
   -1.1298    0.8310    5.7658 C   0  0  0  0  0  0  0  0  0  0  0  0
   -1.6779    2.0864    5.0925 C   0  0  0  0  0  0  0  0  0  0  0  0
   -3.2149    2.0638    5.0567 C   0  0  0  0  0  0  0  0  0  0  0  0
   -3.7752    3.2380    5.4058 O   0  0  0  0  0  0  0  0  0  0  0  0
   -3.9288    1.1029    4.8138 O   0  0  0  0  0  0  0  0  0  0  0  0
  1  2  1  0
  2  3  1  0
  4  6  1  0
  4  5  1  1
  4  2  1  0
  6  7  2  0
  6  8  1  0
  8  9  1  0
  9 10  1  0
 10 11  1  0
 11 12  1  0
 12 13  1  0
 12 14  2  0
M  END
>  <DRUGBANK_ID>  (1) 
DB16937

>  <COMMON_NAME>  (1) 
Valiloxibic acid

>  <CAS_NUMBER>  (1) 
238401-16-6

>  <UNII>  (1) 
9B8NWP8K91

>  <SYNONYMS>  (1) 
4-((l-valyl)oxy)butanoic acid; L-valine, 3-carboxypropyl ester; Valiloxybate

$$$$
