
     RDKit          3D

 18 19  0  0  0  0  0  0  0  0999 V2000
    0.8327   -0.1920    0.1360 N   0  0  0  0  0  0  0  0  0  0  0  0
   -0.0007   -0.9025   -0.7164 C   0  0  0  0  0  0  0  0  0  0  0  0
    0.1977    0.5525    1.2171 C   0  0  0  0  0  0  0  0  0  0  0  0
    2.3058   -0.0439    0.0230 C   0  0  0  0  0  0  0  0  0  0  0  0
    0.3734   -2.1435   -1.2078 C   0  0  0  0  0  0  0  0  0  0  0  0
   -1.0433   -0.2289   -1.2719 N   0  0  0  0  0  0  0  0  0  0  0  0
    0.4760   -0.0796    2.5577 C   0  0  0  0  0  0  0  0  0  0  0  0
    3.0198   -0.4955   -1.2801 C   0  0  0  0  0  0  0  0  0  0  0  0
   -0.1490   -2.6033   -2.4235 C   0  0  0  0  0  0  0  0  0  0  0  0
   -1.5419   -0.6867   -2.4544 C   0  0  0  0  0  0  0  0  0  0  0  0
    0.9383    0.5891    3.7347 C   0  0  0  0  0  0  0  0  0  0  0  0
    0.3758   -1.4441    2.7726 C   0  0  0  0  0  0  0  0  0  0  0  0
    2.8090    0.2790   -2.5339 N   0  0  0  0  0  0  0  0  0  0  0  0
   -1.1042   -1.8354   -3.0812 C   0  0  0  0  0  0  0  0  0  0  0  0
    1.1095   -0.2795    4.7908 C   0  0  0  0  0  0  0  0  0  0  0  0
    0.7732   -1.8996    4.3627 S   0  0  0  0  0  0  0  0  0  0  0  0
    3.1908   -0.5565   -3.6810 C   0  0  0  0  0  0  0  0  0  0  0  0
    1.4182    0.6500   -2.7439 C   0  0  0  0  0  0  0  0  0  0  0  0
  1  2  1  0
  1  3  1  0
  1  4  1  0
  2  5  2  0
  2  6  1  0
  3  7  1  0
  4  8  1  0
  5  9  1  0
  6 10  2  0
  7 11  1  0
  7 12  2  0
  8 13  1  0
  9 14  2  0
 10 14  1  0
 11 15  2  0
 12 16  1  0
 13 17  1  0
 13 18  1  0
 15 16  1  0
M  END
>  <DRUGBANK_ID>  (1) 
DB16022

>  <COMMON_NAME>  (1) 
Thenyldiamine

>  <CAS_NUMBER>  (1) 
91-79-2

>  <UNII>  (1) 
E4U52363JE

>  <SYNONYMS>  (1) 
Tenildiamina; Thenyldiamine; Thenyldiaminum

$$$$
