Daidzin
     RDKit          3D

 30 33  0  0  1  0  0  0  0  0999 V2000
   -1.4044   -1.7928    2.3117 O   0  0  0  0  0  0  0  0  0  0  0  0
   -0.0739   -2.2130    2.6217 C   0  0  0  0  0  0  0  0  0  0  0  0
    0.9266   -1.2364    1.9915 C   0  0  1  0  0  0  0  0  0  0  0  0
    1.7669   -0.6961    3.0222 O   0  0  0  0  0  0  0  0  0  0  0  0
    2.6394    0.3294    2.5315 C   0  0  1  0  0  0  0  0  0  0  0  0
    3.4105    0.9366    3.6021 O   0  0  0  0  0  0  0  0  0  0  0  0
    4.2912    0.1033    4.2380 C   0  0  0  0  0  0  0  0  0  0  0  0
    4.1213   -0.1474    5.5990 C   0  0  0  0  0  0  0  0  0  0  0  0
    5.0110   -1.0076    6.2531 C   0  0  0  0  0  0  0  0  0  0  0  0
    6.0303   -1.6340    5.5365 C   0  0  0  0  0  0  0  0  0  0  0  0
    6.2280   -1.3512    4.1933 C   0  0  0  0  0  0  0  0  0  0  0  0
    5.4102   -0.4160    3.5831 C   0  0  0  0  0  0  0  0  0  0  0  0
    6.9437   -2.5556    6.2138 C   0  0  0  0  0  0  0  0  0  0  0  0
    7.8399   -3.1202    5.5892 O   0  0  0  0  0  0  0  0  0  0  0  0
    6.7341   -2.7420    7.6682 C   0  0  0  0  0  0  0  0  0  0  0  0
    5.7365   -2.0459    8.2381 C   0  0  0  0  0  0  0  0  0  0  0  0
    4.8522   -1.1989    7.6035 O   0  0  0  0  0  0  0  0  0  0  0  0
    7.6115   -3.6319    8.4413 C   0  0  0  0  0  0  0  0  0  0  0  0
    8.9920   -3.3838    8.4889 C   0  0  0  0  0  0  0  0  0  0  0  0
    9.8524   -4.2560    9.1622 C   0  0  0  0  0  0  0  0  0  0  0  0
    9.3268   -5.3795    9.7901 C   0  0  0  0  0  0  0  0  0  0  0  0
   10.1170   -6.2640   10.4627 O   0  0  0  0  0  0  0  0  0  0  0  0
    7.9626   -5.6437    9.7485 C   0  0  0  0  0  0  0  0  0  0  0  0
    7.1025   -4.7705    9.0785 C   0  0  0  0  0  0  0  0  0  0  0  0
    3.4974   -0.1762    1.3474 C   0  0  2  0  0  0  0  0  0  0  0  0
    4.3050    0.8657    0.7914 O   0  0  0  0  0  0  0  0  0  0  0  0
    2.6976   -0.8881    0.2666 C   0  0  1  0  0  0  0  0  0  0  0  0
    3.6032   -1.5307   -0.6461 O   0  0  0  0  0  0  0  0  0  0  0  0
    1.7721   -1.9251    0.9105 C   0  0  2  0  0  0  0  0  0  0  0  0
    0.9585   -2.5360   -0.0872 O   0  0  0  0  0  0  0  0  0  0  0  0
  1  2  1  0
  3  4  1  0
  3 29  1  0
  3  2  1  1
  4  5  1  0
  5  6  1  1
  5 25  1  0
  6  7  1  0
  7  8  2  0
  7 12  1  0
  8  9  1  0
  9 10  2  0
  9 17  1  0
 10 11  1  0
 10 13  1  0
 11 12  2  0
 13 14  2  0
 13 15  1  0
 15 16  2  0
 15 18  1  0
 16 17  1  0
 18 19  2  0
 18 24  1  0
 19 20  1  0
 20 21  2  0
 21 22  1  0
 21 23  1  0
 23 24  2  0
 25 26  1  6
 25 27  1  0
 27 28  1  6
 27 29  1  0
 29 30  1  6
M  END
>  <DRUGBANK_ID>  (1) 
DB02115

>  <SECONDARY_ACCESSION_NUMBERS>  (1) 
EXPT01311

>  <COMMON_NAME>  (1) 
Daidzin

>  <CAS_NUMBER>  (1) 
552-66-9

>  <UNII>  (1) 
4R2X91A5M5

>  <SYNONYMS>  (1) 
7-(beta-D-glucopyranosyloxy)-3-(4-hydroxyphenyl)-4H-chromen-4-one; Daidzein 7-glucoside; daidzein 7-O-beta-D-glucoside; Daidzein 7-O-glucoside; daidzein 7-O-Î²-D-glucoside; Daidzoside

$$$$
