202
     RDKit          3D

 20 19  0  0  0  0  0  0  0  0999 V2000
    1.1073   -0.3117    0.0491 O   0  0  0  0  0  0  0  0  0  0  0  0
    1.0017    1.9538   -3.7865 O   0  0  0  0  0  0  0  0  0  0  0  0
    2.8534   -1.5884    0.7388 O   0  0  0  0  0  0  0  0  0  0  0  0
    0.2500   -0.1861   -3.0927 O   0  0  0  0  0  0  0  0  0  0  0  0
    1.6680    2.9673    0.7809 N   0  0  0  0  0  0  0  0  0  0  0  0
    3.6041    2.9850   -2.1687 N   0  0  0  0  0  0  0  0  0  0  0  0
    0.2320    2.3324    0.6996 C   0  0  0  0  0  0  0  0  0  0  0  0
    2.8099    4.1233   -3.0525 C   0  0  0  0  0  0  0  0  0  0  0  0
    1.8573    3.8803   -0.4130 C   0  0  0  0  0  0  0  0  0  0  0  0
    2.0887    4.2284    1.5250 C   0  0  0  0  0  0  0  0  0  0  0  0
    2.6347    1.8689    1.4604 C   0  0  0  0  0  0  0  0  0  0  0  0
    4.6645    2.3930   -3.1410 C   0  0  0  0  0  0  0  0  0  0  0  0
    4.6792    3.6801   -1.0491 C   0  0  0  0  0  0  0  0  0  0  0  0
    2.4014    1.8803   -1.5898 C   0  0  0  0  0  0  0  0  0  0  0  0
    0.0533    0.8996   -0.1416 C   0  0  0  0  0  0  0  0  0  0  0  0
    1.7875    3.3515   -4.0322 C   0  0  0  0  0  0  0  0  0  0  0  0
    3.5188   -0.2117   -1.1756 C   0  0  0  0  0  0  0  0  0  0  0  0
    2.8463   -0.0174   -2.8348 C   0  0  0  0  0  0  0  0  0  0  0  0
    2.4359   -0.8631   -0.1011 C   0  0  0  0  0  0  0  0  0  0  0  0
    1.2608    0.4906   -3.4266 C   0  0  0  0  0  0  0  0  0  0  0  0
  1 15  1  0
  1 19  1  0
  2 16  1  0
  2 20  1  0
  3 19  2  0
  4 20  2  0
  5  7  1  0
  5  9  1  0
  5 10  1  0
  5 11  1  0
  6  8  1  0
  6 12  1  0
  6 13  1  0
  6 14  1  0
  7 15  1  0
  8 16  1  0
 17 18  1  0
 17 19  1  0
 18 20  1  0
M  CHG  2   5   1   6   1
M  END
>  <DRUGBANK_ID>  (1) 
DB00202

>  <SECONDARY_ACCESSION_NUMBERS>  (1) 
APRD00159

>  <COMMON_NAME>  (1) 
Succinylcholine

>  <CAS_NUMBER>  (1) 
306-40-1

>  <UNII>  (1) 
J2R869A8YF

>  <SYNONYMS>  (1) 
2,2'-[(1,4-dioxobutane-1,4-diyl)bis(oxy)]bis(N,N,N-trimethylethanaminium); Dicholine succinate; Succinocholine; Succinoylcholine; Succinylbischoline; Succinyldicholine; Suxamethonium

$$$$
