
     RDKit          3D

 12 13  0  0  0  0  0  0  0  0999 V2000
    0.0160   -0.7436    0.0881 C   0  0  0  0  0  0  0  0  0  0  0  0
   -0.0206    0.6763    0.0860 C   0  0  0  0  0  0  0  0  0  0  0  0
    1.2591   -1.3913    0.0234 C   0  0  0  0  0  0  0  0  0  0  0  0
    1.1823    1.3935    0.0651 C   0  0  0  0  0  0  0  0  0  0  0  0
   -1.2583    1.3339    0.0449 C   0  0  0  0  0  0  0  0  0  0  0  0
    2.4432   -0.6626   -0.0555 C   0  0  0  0  0  0  0  0  0  0  0  0
    2.4055    0.7300   -0.0247 C   0  0  0  0  0  0  0  0  0  0  0  0
   -2.4423    0.6146   -0.1172 C   0  0  0  0  0  0  0  0  0  0  0  0
   -1.1967   -1.4416    0.1196 C   0  0  0  0  0  0  0  0  0  0  0  0
   -1.2049   -2.8064    0.2779 O   0  0  0  0  0  0  0  0  0  0  0  0
   -2.4092   -0.7716   -0.0201 C   0  0  0  0  0  0  0  0  0  0  0  0
   -3.5563   -1.5155   -0.0503 O   0  0  0  0  0  0  0  0  0  0  0  0
  1  2  1  0
  1  3  2  0
  1  9  1  0
  2  4  2  0
  2  5  1  0
  3  6  1  0
  4  7  1  0
  5  8  2  0
  6  7  2  0
  9 11  2  0
  9 10  1  0
 11  8  1  0
 11 12  1  0
M  END
>  <DRUGBANK_ID>  (1) 
DB07610

>  <COMMON_NAME>  (1) 
1,2-Dihydroxynaphthalene

>  <CAS_NUMBER>  (1) 
574-00-5

>  <UNII>  (1) 
2R5017T335

>  <SYNONYMS>  (1) 
1,2-Naphthalenediol; 1,2-naphthohydroquinone; beta-Naphthohydroquinone; Naphthalene-1,2-diol; Î²-naphthohydroquinone

$$$$
