WRA
     RDKit          3D

 24 25  0  0  0  0  0  0  0  0999 V2000
    0.3330   -0.6541   -0.4494 C   0  0  0  0  0  0  0  0  0  0  0  0
    1.3529    0.2907   -0.2973 N   0  0  0  0  0  0  0  0  0  0  0  0
    0.8957    1.4853   -0.0509 C   0  0  0  0  0  0  0  0  0  0  0  0
   -0.4362    1.7819    0.0139 N   0  0  0  0  0  0  0  0  0  0  0  0
   -1.3510    0.8416   -0.1258 C   0  0  0  0  0  0  0  0  0  0  0  0
   -1.0732   -0.4647   -0.4186 N   0  0  0  0  0  0  0  0  0  0  0  0
   -2.1366   -1.5176   -0.6063 O   0  0  0  0  0  0  0  0  0  0  0  0
   -1.8877   -2.9627   -0.2899 C   0  0  0  0  0  0  0  0  0  0  0  0
   -0.9797   -3.8293   -1.2228 C   0  0  0  0  0  0  0  0  0  0  0  0
    0.4792   -3.5637   -0.8147 C   0  0  0  0  0  0  0  0  0  0  0  0
    1.3560   -3.7485    0.4093 O   0  0  0  0  0  0  0  0  0  0  0  0
    1.0146   -3.5868    1.7956 C   0  0  0  0  0  0  0  0  0  0  0  0
   -0.2045   -4.0977    2.2087 C   0  0  0  0  0  0  0  0  0  0  0  0
   -0.9438   -3.3970    3.1798 C   0  0  0  0  0  0  0  0  0  0  0  0
   -0.3567   -2.4551    4.0413 C   0  0  0  0  0  0  0  0  0  0  0  0
    0.9680   -2.0667    3.8529 C   0  0  0  0  0  0  0  0  0  0  0  0
    1.6701   -2.6101    2.7294 C   0  0  0  0  0  0  0  0  0  0  0  0
    0.4993   -1.1375    0.9580 C   0  0  0  0  0  0  0  0  0  0  0  0
    0.8163   -1.1150   -1.8569 C   0  0  0  0  0  0  0  0  0  0  0  0
    1.9912    2.2157    0.1279 N   0  0  0  0  0  0  0  0  0  0  0  0
   -2.6694    1.0698   -0.0071 N   0  0  0  0  0  0  0  0  0  0  0  0
   -0.9156   -5.4713    1.4464 Cl  0  0  0  0  0  0  0  0  0  0  0  0
   -1.3173   -1.9109    5.3723 Cl  0  0  0  0  0  0  0  0  0  0  0  0
    1.6430   -0.7458    4.7822 Cl  0  0  0  0  0  0  0  0  0  0  0  0
  1  2  1  0
  1  6  1  0
  1 18  1  0
  1 19  1  0
  2  3  2  0
  3  4  1  0
  3 20  1  0
  4  5  2  0
  5  6  1  0
  5 21  1  0
  6  7  1  0
  7  8  1  0
  8  9  1  0
  9 10  1  0
 10 11  1  0
 11 12  1  0
 12 13  2  0
 12 17  1  0
 13 14  1  0
 13 22  1  0
 14 15  2  0
 15 16  1  0
 15 23  1  0
 16 17  2  0
 16 24  1  0
M  END
>  <DRUGBANK_ID>  (1) 
DB08734

>  <COMMON_NAME>  (1) 
6,6-DIMETHYL-1-[3-(2,4,5-TRICHLOROPHENOXY)PROPOXY]-1,6-DIHYDRO-1,3,5-TRIAZINE-2,4-DIAMINE

$$$$
