G44
     RDKit          3D

 26 28  0  0  0  0  0  0  0  0999 V2000
    2.4750    0.0116   -0.0114 C   0  0  0  0  0  0  0  0  0  0  0  0
    0.9734    0.0161    0.0070 C   0  0  0  0  0  0  0  0  0  0  0  0
    0.2804   -1.2003    0.0076 C   0  0  0  0  0  0  0  0  0  0  0  0
   -1.1116   -1.2165   -0.0074 C   0  0  0  0  0  0  0  0  0  0  0  0
   -1.8259   -0.0189   -0.0270 C   0  0  0  0  0  0  0  0  0  0  0  0
   -1.1588    1.2119    0.0035 C   0  0  0  0  0  0  0  0  0  0  0  0
    0.2468    1.2198    0.0117 C   0  0  0  0  0  0  0  0  0  0  0  0
   -1.9044    2.5117   -0.0051 C   0  0  0  0  0  0  0  0  0  0  0  0
   -1.2989    3.5818   -0.0513 O   0  0  0  0  0  0  0  0  0  0  0  0
   -3.3865    2.5509    0.0245 C   0  0  0  0  0  0  0  0  0  0  0  0
   -4.0811    1.9707    1.0786 C   0  0  0  0  0  0  0  0  0  0  0  0
   -5.4566    2.0040    1.0187 C   0  0  0  0  0  0  0  0  0  0  0  0
   -6.1512    2.5634    0.0046 N   0  0  0  0  0  0  0  0  0  0  0  0
   -5.4788    3.1460   -1.0092 C   0  0  0  0  0  0  0  0  0  0  0  0
   -6.1814    3.5898   -2.1182 N   0  0  0  0  0  0  0  0  0  0  0  0
   -7.6313    3.7412   -2.0641 C   0  0  0  0  0  0  0  0  0  0  0  0
   -8.1154    5.1832   -2.0574 C   0  0  0  0  0  0  0  0  0  0  0  0
   -9.4994    5.4436   -2.0497 C   0  0  0  0  0  0  0  0  0  0  0  0
   -9.9919    6.7574   -2.0523 C   0  0  0  0  0  0  0  0  0  0  0  0
   -9.1098    7.8421   -2.0700 C   0  0  0  0  0  0  0  0  0  0  0  0
   -7.7344    7.5901   -2.0705 C   0  0  0  0  0  0  0  0  0  0  0  0
   -7.2457    6.2799   -2.0609 C   0  0  0  0  0  0  0  0  0  0  0  0
   -9.5904    9.2627   -2.0929 C   0  0  0  0  0  0  0  0  0  0  0  0
  -10.9171    9.5618   -2.0965 N   0  0  0  0  0  0  0  0  0  0  0  0
   -8.7188   10.2197   -2.1151 N   0  0  0  0  0  0  0  0  0  0  0  0
   -4.0855    3.1632   -1.0214 C   0  0  0  0  0  0  0  0  0  0  0  0
  1  2  1  0
  2  7  2  0
  2  3  1  0
  3  4  2  0
  4  5  1  0
  5  6  2  0
  6  8  1  0
  6  7  1  0
  8 10  1  0
  8  9  2  0
 10 11  2  0
 10 26  1  0
 11 12  1  0
 12 13  2  0
 13 14  1  0
 14 15  1  0
 14 26  2  0
 15 16  1  0
 16 17  1  0
 17 22  1  0
 17 18  2  0
 18 19  1  0
 19 20  2  0
 20 21  1  0
 20 23  1  0
 21 22  2  0
 23 24  1  0
 23 25  2  0
M  END
>  <DRUGBANK_ID>  (1) 
DB07809

>  <COMMON_NAME>  (1) 
4-({[4-(3-METHYLBENZOYL)PYRIDIN-2-YL]AMINO}METHYL)BENZENECARBOXIMIDAMIDE

$$$$
