TSC
     RDKit          3D

 13 14  0  0  0  0  0  0  0  0999 V2000
    1.0665   -1.7241   -1.8921 O   0  0  0  0  0  0  0  0  0  0  0  0
    0.5828   -1.3101   -0.6312 C   0  0  2  0  0  0  0  0  0  0  0  0
    1.0593    0.0340   -0.5064 N   0  0  0  0  0  0  0  0  0  0  0  0
    1.0829   -2.2404    0.5084 C   0  0  0  0  0  0  0  0  0  0  0  0
    0.6216   -1.9001    1.9124 C   0  0  0  0  0  0  0  0  0  0  0  0
    0.1117   -2.8016    2.8385 C   0  0  0  0  0  0  0  0  0  0  0  0
   -0.1682   -2.1247    3.9970 N   0  0  0  0  0  0  0  0  0  0  0  0
    0.0818   -0.7842    3.8505 C   0  0  0  0  0  0  0  0  0  0  0  0
    0.6309   -0.6184    2.5766 C   0  0  0  0  0  0  0  0  0  0  0  0
   -0.1036    0.2963    4.7309 C   0  0  0  0  0  0  0  0  0  0  0  0
    0.2036    1.5887    4.2851 C   0  0  0  0  0  0  0  0  0  0  0  0
    0.7613    1.7876    3.0392 C   0  0  0  0  0  0  0  0  0  0  0  0
    1.0429    0.6879    2.2416 C   0  0  0  0  0  0  0  0  0  0  0  0
  2  4  1  0
  2  3  1  1
  2  1  1  0
  4  5  1  0
  5  6  2  0
  5  9  1  0
  6  7  1  0
  7  8  1  0
  8  9  2  0
  8 10  1  0
  9 13  1  0
 10 11  2  0
 11 12  1  0
 12 13  2  0
M  END
>  <DRUGBANK_ID>  (1) 
DB08649

>  <COMMON_NAME>  (1) 
(1S)-1-AMINO-2-(1H-INDOL-3-YL)ETHANOL

$$$$
