
     RDKit          3D

 14 15  0  0  0  0  0  0  0  0999 V2000
   -0.2559   -0.6583    0.0001 C   0  0  0  0  0  0  0  0  0  0  0  0
   -0.2431    0.7028   -0.0010 C   0  0  0  0  0  0  0  0  0  0  0  0
    0.9189   -1.3788   -0.0001 N   0  0  0  0  0  0  0  0  0  0  0  0
    2.0997    0.7089    0.0038 N   0  0  0  0  0  0  0  0  0  0  0  0
    2.1422   -0.6976   -0.0009 C   0  0  0  0  0  0  0  0  0  0  0  0
    0.9381    1.4822   -0.0010 C   0  0  0  0  0  0  0  0  0  0  0  0
   -1.5317   -1.1446    0.0013 N   0  0  0  0  0  0  0  0  0  0  0  0
   -1.5514    1.0836   -0.0007 N   0  0  0  0  0  0  0  0  0  0  0  0
   -2.2951   -0.0669    0.0008 C   0  0  0  0  0  0  0  0  0  0  0  0
    3.2173   -1.3037   -0.0053 O   0  0  0  0  0  0  0  0  0  0  0  0
    0.9159    2.7106   -0.0045 O   0  0  0  0  0  0  0  0  0  0  0  0
    0.9170   -2.8309    0.0015 C   0  0  0  0  0  0  0  0  0  0  0  0
   -4.1635   -0.0849    0.0022 Br  0  0  0  0  0  0  0  0  0  0  0  0
    3.3581    1.4312    0.0122 C   0  0  0  0  0  0  0  0  0  0  0  0
  2  1  2  0
  3  1  1  0
  4  5  1  0
  5  3  1  0
  6  2  1  0
  6  4  1  0
  7  1  1  0
  8  2  1  0
  8  9  1  0
  9  7  2  0
 10  5  2  0
 11  6  2  0
 12  3  1  0
 13  9  1  0
 14  4  1  0
M  END
>  <DRUGBANK_ID>  (1) 
DB14018

>  <COMMON_NAME>  (1) 
Bromotheophylline

>  <CAS_NUMBER>  (1) 
10381-75-6

>  <UNII>  (1) 
FZG87K1MQ6

>  <SYNONYMS>  (1) 
8-Bromotheophylline

$$$$
