
     RDKit          3D

 43 46  0  0  0  0  0  0  0  0999 V2000
    1.8401    0.2317   -1.2989 O   0  0  0  0  0  0  0  0  0  0  0  0
    3.1303    2.7196    2.1357 O   0  0  0  0  0  0  0  0  0  0  0  0
   -1.4086    0.8897    4.5367 O   0  0  0  0  0  0  0  0  0  0  0  0
    6.7676    0.6414   -1.5811 O   0  0  0  0  0  0  0  0  0  0  0  0
    5.0849    1.9694   -0.9860 O   0  0  0  0  0  0  0  0  0  0  0  0
    7.8301   -4.0740   -0.4168 O   0  0  0  0  0  0  0  0  0  0  0  0
    7.9934   -2.0925    0.6480 O   0  0  0  0  0  0  0  0  0  0  0  0
    0.4065   -1.2894   -0.3228 N   0  0  0  0  0  0  0  0  0  0  0  0
    1.3213    2.1792    0.8840 N   0  0  0  0  0  0  0  0  0  0  0  0
    0.7060    0.9880    3.7985 N   0  0  0  0  0  0  0  0  0  0  0  0
    0.3433    1.1976    0.3828 C   0  0  1  0  0  0  0  0  0  0  0  0
   -0.8440    1.7379   -0.3815 C   0  0  0  0  0  0  0  0  0  0  0  0
   -2.0721    0.8434   -0.1393 C   0  0  0  0  0  0  0  0  0  0  0  0
   -1.9961   -0.5883   -0.6552 C   0  0  0  0  0  0  0  0  0  0  0  0
   -0.9936   -1.5271   -0.0534 C   0  0  0  0  0  0  0  0  0  0  0  0
    0.9306    0.0122   -0.4975 C   0  0  0  0  0  0  0  0  0  0  0  0
    1.2037   -2.4880   -0.7326 C   0  0  0  0  0  0  0  0  0  0  0  0
    1.9228    0.8004    2.9759 C   0  0  2  0  0  0  0  0  0  0  0  0
    2.1427    1.9914    1.9897 C   0  0  0  0  0  0  0  0  0  0  0  0
    1.2230   -3.6943    0.2385 C   0  0  0  0  0  0  0  0  0  0  0  0
    2.0402   -0.5296    2.2830 C   0  0  0  0  0  0  0  0  0  0  0  0
    3.2713   -0.7963    1.4808 C   0  0  0  0  0  0  0  0  0  0  0  0
    0.0966   -4.1790    0.9035 C   0  0  0  0  0  0  0  0  0  0  0  0
    2.3944   -4.4372    0.4673 C   0  0  0  0  0  0  0  0  0  0  0  0
    0.1596   -5.1918    1.8539 C   0  0  0  0  0  0  0  0  0  0  0  0
    2.5094   -5.3579    1.5191 C   0  0  0  0  0  0  0  0  0  0  0  0
    3.9130    0.0784    0.5986 C   0  0  0  0  0  0  0  0  0  0  0  0
    1.3781   -5.7363    2.2261 C   0  0  0  0  0  0  0  0  0  0  0  0
    3.7272   -2.0839    1.5336 C   0  0  0  0  0  0  0  0  0  0  0  0
   -0.5030    0.3638    3.8922 C   0  0  0  0  0  0  0  0  0  0  0  0
    4.9852   -0.2891   -0.2244 C   0  0  0  0  0  0  0  0  0  0  0  0
    5.3431   -1.6337   -0.2395 C   0  0  0  0  0  0  0  0  0  0  0  0
    4.7474   -2.4935    0.7003 C   0  0  0  0  0  0  0  0  0  0  0  0
    1.4436   -6.8048    3.1995 C   0  0  0  0  0  0  0  0  0  0  0  0
    6.3607   -2.3002   -1.1137 C   0  0  0  0  0  0  0  0  0  0  0  0
   -0.7874   -0.8781    3.1244 C   0  0  0  0  0  0  0  0  0  0  0  0
    5.5851    0.8802   -0.9653 C   0  0  0  0  0  0  0  0  0  0  0  0
    0.8198   -8.0171    2.8801 C   0  0  0  0  0  0  0  0  0  0  0  0
    2.1806   -6.6852    4.3827 C   0  0  0  0  0  0  0  0  0  0  0  0
    7.4821   -2.7878   -0.2193 C   0  0  0  0  0  0  0  0  0  0  0  0
    0.9445   -9.1098    3.7199 C   0  0  0  0  0  0  0  0  0  0  0  0
    2.3480   -7.7983    5.1993 C   0  0  0  0  0  0  0  0  0  0  0  0
    1.7110   -8.9991    4.8777 C   0  0  0  0  0  0  0  0  0  0  0  0
  1 16  2  0
  2 19  2  0
  3 30  2  0
  4 37  1  0
  5 37  2  0
  6 40  1  0
  7 40  2  0
  8 15  1  0
  8 16  1  0
  8 17  1  0
  9 19  1  0
 10 30  1  0
 11 12  1  0
 11 16  1  0
 11  9  1  6
 12 13  1  0
 13 14  1  0
 14 15  1  0
 17 20  1  0
 18 10  1  0
 18 19  1  0
 18 21  1  6
 20 23  2  0
 20 24  1  0
 21 22  1  0
 22 27  2  0
 22 29  1  0
 23 25  1  0
 24 26  2  0
 25 28  2  0
 26 28  1  0
 27 31  1  0
 28 34  1  0
 29 33  2  0
 30 36  1  0
 31 32  2  0
 31 37  1  0
 32 33  1  0
 32 35  1  0
 34 38  2  0
 34 39  1  0
 35 40  1  0
 38 41  1  0
 39 42  2  0
 41 43  2  0
 42 43  1  0
M  END
>  <DRUGBANK_ID>  (1) 
DB03712

>  <SECONDARY_ACCESSION_NUMBERS>  (1) 
EXPT00326

>  <COMMON_NAME>  (1) 
RU85053

>  <SYNONYMS>  (1) 
5-[(2S)-2-Acetamido-3-oxo-3-[[(3S)-2-oxo-1-[(4-phenylphenyl)methyl]azepan-3-yl]amino]propyl]-2-(carboxymethyl)benzoic acid

$$$$
