
     RDKit          3D

 34 37  0  0  0  0  0  0  0  0999 V2000
    1.5278   -0.1053   -0.1019 C   0  0  0  0  0  0  0  0  0  0  0  0
    0.7121   -0.8250   -1.0838 N   0  0  0  0  0  0  0  0  0  0  0  0
   -0.2186   -1.8454   -0.8094 C   0  0  0  0  0  0  0  0  0  0  0  0
   -0.7142   -2.5524   -1.6949 O   0  0  0  0  0  0  0  0  0  0  0  0
   -0.4972   -2.2355    0.5000 N   0  0  0  0  0  0  0  0  0  0  0  0
   -0.3816   -1.5560    1.7247 C   0  0  0  0  0  0  0  0  0  0  0  0
   -0.6747   -0.2121    1.7329 C   0  0  0  0  0  0  0  0  0  0  0  0
   -0.1182    0.6742    2.6473 C   0  0  0  0  0  0  0  0  0  0  0  0
   -0.0519    2.0571    2.3573 N   0  0  0  0  0  0  0  0  0  0  0  0
   -0.4484    2.7416    1.1037 C   0  0  0  0  0  0  0  0  0  0  0  0
   -1.8509    2.6723    0.5570 C   0  0  0  0  0  0  0  0  0  0  0  0
   -0.7201    2.1266   -0.2521 C   0  0  0  0  0  0  0  0  0  0  0  0
    0.4796    0.0913    3.7672 C   0  0  0  0  0  0  0  0  0  0  0  0
    0.5290   -1.3074    3.8227 C   0  0  0  0  0  0  0  0  0  0  0  0
    0.1475   -2.1461    2.8072 N   0  0  0  0  0  0  0  0  0  0  0  0
    0.9722    0.8872    4.8387 C   0  0  0  0  0  0  0  0  0  0  0  0
    1.3340    1.6072    5.6912 N   0  0  0  0  0  0  0  0  0  0  0  0
    0.9663   -0.4025   -2.4408 C   0  0  0  0  0  0  0  0  0  0  0  0
    2.2611   -0.0035   -2.7960 C   0  0  0  0  0  0  0  0  0  0  0  0
    2.5575    0.4812   -4.0713 C   0  0  0  0  0  0  0  0  0  0  0  0
    1.5365    0.6046   -5.0089 C   0  0  0  0  0  0  0  0  0  0  0  0
    1.8249    1.0664   -6.4253 C   0  0  0  0  0  0  0  0  0  0  0  0
    1.5539    0.0441   -7.4447 N   0  0  0  0  0  0  0  0  0  0  0  0
    0.2742   -0.6205   -7.7041 C   0  0  0  0  0  0  0  0  0  0  0  0
    0.3780   -2.1310   -7.5202 C   0  0  0  0  0  0  0  0  0  0  0  0
    1.4036   -2.6706   -8.4208 N   0  0  0  0  0  0  0  0  0  0  0  0
    1.0171   -2.4308   -9.8160 C   0  0  0  0  0  0  0  0  0  0  0  0
    2.6880   -1.9907   -8.1208 C   0  0  0  0  0  0  0  0  0  0  0  0
    2.5927   -0.4587   -8.2323 C   0  0  0  0  0  0  0  0  0  0  0  0
    3.3751    0.2360   -8.8691 O   0  0  0  0  0  0  0  0  0  0  0  0
    0.2557    0.2825   -4.5392 C   0  0  0  0  0  0  0  0  0  0  0  0
   -0.9331    0.6220   -5.3579 C   0  0  0  0  0  0  0  0  0  0  0  0
   -2.0186    0.0611   -5.2801 O   0  0  0  0  0  0  0  0  0  0  0  0
   -0.0375   -0.2510   -3.3168 N   0  0  0  0  0  0  0  0  0  0  0  0
  1  2  1  0
  2  3  1  0
  2 18  1  0
  3  4  2  0
  3  5  1  0
  5  6  1  0
  6  7  2  0
  6 15  1  0
  7  8  1  0
  8  9  1  0
  8 13  2  0
  9 10  1  0
 10 11  1  0
 10 12  1  0
 11 12  1  0
 13 14  1  0
 13 16  1  0
 14 15  2  0
 16 17  3  0
 18 19  2  0
 18 34  1  0
 19 20  1  0
 20 21  2  0
 21 22  1  0
 21 31  1  0
 22 23  1  0
 23 24  1  0
 23 29  1  0
 24 25  1  0
 25 26  1  0
 26 27  1  0
 26 28  1  0
 28 29  1  0
 29 30  2  0
 31 32  1  0
 31 34  2  0
 32 33  2  0
M  END
>  <DRUGBANK_ID>  (1) 
DB18035

>  <COMMON_NAME>  (1) 
ABSK-012

>  <CAS_NUMBER>  (1) 
2271209-99-3

>  <UNII>  (1) 
8XDP7T5XLU

>  <SYNONYMS>  (1) 
3-(5-cyano-4-(cyclopropylamino)pyridin-2-yl)-1-(6-formyl-5-((4-methyl-2-oxopiperazin-1-yl)methyl)pyridin-2-yl)-1-methylurea; N′-[5-Cyano-4-(cyclopropylamino)-2-pyridinyl]-N-[6-formyl-5-[(4-methyl-2-oxo-1-piperazinyl)methyl]-2-pyridinyl]-N-methylurea; Urea, N′-[5-cyano-4-(cyclopropylamino)-2-pyridinyl]-N-[6-formyl-5-[(4-methyl-2-oxo-1-piperazinyl)methyl]-2-pyridinyl]-N-methyl-

$$$$
