
     RDKit          3D

 12 12  0  0  1  0  0  0  0  0999 V2000
    0.3327   -0.1356   -0.1441 O   0  0  0  0  0  0  0  0  0  0  0  0
    0.0660    1.0574   -0.8949 C   0  0  0  0  0  0  0  0  0  0  0  0
    1.1352    2.1964   -0.7511 C   0  0  2  0  0  0  0  0  0  0  0  0
    0.9316    2.8658    0.4885 O   0  0  0  0  0  0  0  0  0  0  0  0
    1.0222    3.2219   -1.7415 O   0  0  0  0  0  0  0  0  0  0  0  0
    1.2493    2.7927   -3.0813 C   0  0  0  0  0  0  0  0  0  0  0  0
    2.5300    1.9624   -3.2807 C   0  0  2  0  0  0  0  0  0  0  0  0
    2.4903    1.3618   -4.5781 O   0  0  0  0  0  0  0  0  0  0  0  0
    2.7019    0.9109   -2.1713 C   0  0  1  0  0  0  0  0  0  0  0  0
    3.9634    0.2413   -2.2255 O   0  0  0  0  0  0  0  0  0  0  0  0
    2.5599    1.5909   -0.8012 C   0  0  2  0  0  0  0  0  0  0  0  0
    2.7462    0.6107    0.2382 O   0  0  0  0  0  0  0  0  0  0  0  0
  1  2  1  0
  3  2  1  0
  3  4  1  1
  3  5  1  0
  3 11  1  0
  5  6  1  0
  6  7  1  0
  7  8  1  6
  7  9  1  0
  9 11  1  0
  9 10  1  1
 11 12  1  1
M  END
>  <DRUGBANK_ID>  (1) 
DB02561

>  <SECONDARY_ACCESSION_NUMBERS>  (1) 
EXPT00649

>  <COMMON_NAME>  (1) 
Beta-D-Fructopyranose

>  <CAS_NUMBER>  (1) 
7660-25-5

>  <UNII>  (1) 
0LJG9X2ZUL

$$$$
