
     RDKit          3D

 39 41  0  0  0  0  0  0  0  0999 V2000
    1.0844    0.2055   -0.0340 O   0  0  0  0  0  0  0  0  0  0  0  0
    2.5372   -0.1495    0.1534 C   0  0  0  0  0  0  0  0  0  0  0  0
    0.1257    1.3538   -0.2780 C   0  0  0  0  0  0  0  0  0  0  0  0
   -1.0808    1.1578   -0.0166 O   0  0  0  0  0  0  0  0  0  0  0  0
    0.5617    2.8322   -0.6367 C   0  0  0  0  0  0  0  0  0  0  0  0
    3.1034   -1.4012    0.0725 C   0  0  0  0  0  0  0  0  0  0  0  0
    4.7407    0.9480    0.1998 C   0  0  0  0  0  0  0  0  0  0  0  0
    3.3915    0.9170    0.4117 C   0  0  0  0  0  0  0  0  0  0  0  0
    2.7832    2.1505    0.8044 C   0  0  0  0  0  0  0  0  0  0  0  0
    5.4209    2.2754    0.1085 C   0  0  0  0  0  0  0  0  0  0  0  0
    2.3119   -2.6644    0.1452 C   0  0  0  0  0  0  0  0  0  0  0  0
    5.3277   -0.2731    0.1108 C   0  0  0  0  0  0  0  0  0  0  0  0
    4.5322   -1.4485    0.0701 C   0  0  0  0  0  0  0  0  0  0  0  0
    5.2344   -2.7713    0.1251 C   0  0  0  0  0  0  0  0  0  0  0  0
    6.6847   -2.5940   -0.2377 C   0  0  0  0  0  0  0  0  0  0  0  0
    7.3029   -1.4633    0.5843 C   0  0  2  0  0  0  0  0  0  0  0  0
    6.6858   -0.2369    0.2177 O   0  0  0  0  0  0  0  0  0  0  0  0
    8.8098   -1.4087    0.2632 C   0  0  0  0  0  0  0  0  0  0  0  0
    9.0992   -1.1946   -1.2308 C   0  0  0  0  0  0  0  0  0  0  0  0
    8.5498    0.1419   -1.7460 C   0  0  0  0  0  0  0  0  0  0  0  0
    9.1488    1.3166   -0.9520 C   0  0  1  0  0  0  0  0  0  0  0  0
   10.6693    1.3244   -1.1883 C   0  0  0  0  0  0  0  0  0  0  0  0
   11.0136    1.4582   -2.6793 C   0  0  0  0  0  0  0  0  0  0  0  0
   10.5214    2.7756   -3.2781 C   0  0  0  0  0  0  0  0  0  0  0  0
   11.0169    3.9659   -2.4357 C   0  0  1  0  0  0  0  0  0  0  0  0
   12.5365    4.0168   -2.6443 C   0  0  0  0  0  0  0  0  0  0  0  0
   12.9136    4.1420   -4.1271 C   0  0  0  0  0  0  0  0  0  0  0  0
   12.4361    5.4544   -4.7446 C   0  0  0  0  0  0  0  0  0  0  0  0
   12.9093    6.6466   -3.9028 C   0  0  0  0  0  0  0  0  0  0  0  0
   14.4239    6.7029   -4.0241 C   0  0  0  0  0  0  0  0  0  0  0  0
    7.1284   -1.5786    2.1007 C   0  0  0  0  0  0  0  0  0  0  0  0
    8.4378    2.6230   -1.2707 C   0  0  0  0  0  0  0  0  0  0  0  0
   10.1962    5.2363   -2.6728 C   0  0  0  0  0  0  0  0  0  0  0  0
   12.2388    7.9387   -4.3290 C   0  0  0  0  0  0  0  0  0  0  0  0
    1.5811    3.1800   -1.5925 C   0  0  0  0  0  0  0  0  0  0  0  0
    2.4386    4.2984   -1.3599 C   0  0  0  0  0  0  0  0  0  0  0  0
    2.1896    5.1180   -0.2671 C   0  0  0  0  0  0  0  0  0  0  0  0
    1.1730    4.8884    0.5976 N   0  0  0  0  0  0  0  0  0  0  0  0
    0.3969    3.7653    0.4053 C   0  0  0  0  0  0  0  0  0  0  0  0
  1  3  1  0
  1  2  1  0
  2  6  2  0
  3  5  1  0
  3  4  2  0
  5 35  2  0
  5 39  1  0
  6 11  1  0
  6 13  1  0
  7 10  1  0
  7  8  2  0
  8  9  1  0
  8  2  1  0
 12 13  2  0
 12  7  1  0
 12 17  1  0
 13 14  1  0
 14 15  1  0
 15 16  1  0
 16 31  1  1
 16 17  1  0
 16 18  1  0
 18 19  1  0
 19 20  1  0
 20 21  1  0
 21 22  1  0
 21 32  1  6
 22 23  1  0
 23 24  1  0
 24 25  1  0
 25 26  1  0
 25 33  1  6
 26 27  1  0
 27 28  1  0
 28 29  1  0
 29 30  1  0
 29 34  1  0
 35 36  1  0
 36 37  2  0
 37 38  1  0
 38 39  2  0
M  END
>  <DRUGBANK_ID>  (1) 
DB15921

>  <COMMON_NAME>  (1) 
Tocopheryl nicotinate

>  <CAS_NUMBER>  (1) 
43119-47-7

>  <UNII>  (1) 
WI1J5UCY5C

>  <SYNONYMS>  (1) 
Alpha-tocopheryl nicotinate; Tocoferil nicotinate; Tocopherol nicotinate; Vitamin E nicotinate; Vitamin E nicotinic acid ester

$$$$
