
     RDKit          3D

 33 36  0  0  1  0  0  0  0  0999 V2000
    1.0378    0.0076    0.1010 C   0  0  0  0  0  0  0  0  0  0  0  0
    0.5925    0.2519   -1.3316 C   0  0  0  0  0  0  0  0  0  0  0  0
    1.0913   -0.8720   -2.2405 C   0  0  0  0  0  0  0  0  0  0  0  0
    0.5374   -2.2290   -1.7937 C   0  0  0  0  0  0  0  0  0  0  0  0
   -0.9956   -2.2139   -1.8103 C   0  0  0  0  0  0  0  0  0  0  0  0
   -1.4980   -1.9469   -3.2320 C   0  0  0  0  0  0  0  0  0  0  0  0
   -0.9823   -3.0458   -4.1623 C   0  0  0  0  0  0  0  0  0  0  0  0
   -1.4850   -4.4014   -3.6546 C   0  0  0  0  0  0  0  0  0  0  0  0
   -3.0205   -4.4114   -3.6412 C   0  0  0  0  0  0  0  0  0  0  0  0
   -3.5405   -4.1286   -5.0391 C   0  0  0  0  0  0  0  0  0  0  0  0
   -3.1361   -5.3686   -5.7428 C   0  0  0  0  0  0  0  0  0  0  0  0
   -3.8377   -6.3761   -5.6321 O   0  0  0  0  0  0  0  0  0  0  0  0
   -1.9216   -5.2774   -6.3540 O   0  0  0  0  0  0  0  0  0  0  0  0
   -1.3974   -6.3766   -7.1287 C   0  0  1  0  0  0  0  0  0  0  0  0
   -1.4232   -7.7802   -6.4766 C   0  0  0  0  0  0  0  0  0  0  0  0
   -1.9523   -8.7344   -7.5598 C   0  0  0  0  0  0  0  0  0  0  0  0
   -1.8395   -7.9409   -8.8650 C   0  0  2  0  0  0  0  0  0  0  0  0
   -2.1592   -6.5028   -8.4607 C   0  0  2  0  0  0  0  0  0  0  0  0
   -1.6874   -5.5590   -9.5650 C   0  0  0  0  0  0  0  0  0  0  0  0
   -2.4658   -5.8575  -10.8565 C   0  0  0  0  0  0  0  0  0  0  0  0
   -2.4921   -7.3696  -11.2352 C   0  0  1  0  0  0  0  0  0  0  0  0
   -2.7372   -8.3400  -10.0317 C   0  0  1  0  0  0  0  0  0  0  0  0
   -2.4933   -9.7874  -10.4390 C   0  0  0  0  0  0  0  0  0  0  0  0
   -3.3150  -10.1844  -11.6545 C   0  0  0  0  0  0  0  0  0  0  0  0
   -3.2384   -9.1878  -12.7862 C   0  0  0  0  0  0  0  0  0  0  0  0
   -3.0148   -9.6280  -14.0362 C   0  0  0  0  0  0  0  0  0  0  0  0
   -3.1558   -8.7278  -15.2028 C   0  0  0  0  0  0  0  0  0  0  0  0
   -2.9578   -9.1664  -16.3326 O   0  0  0  0  0  0  0  0  0  0  0  0
   -3.6676   -7.3334  -14.9534 C   0  0  0  0  0  0  0  0  0  0  0  0
   -3.1040   -6.8064  -13.6416 C   0  0  0  0  0  0  0  0  0  0  0  0
   -3.4543   -7.7118  -12.4290 C   0  0  2  0  0  0  0  0  0  0  0  0
   -4.9419   -7.4959  -12.0606 C   0  0  0  0  0  0  0  0  0  0  0  0
   -3.6736   -6.2623   -8.2793 C   0  0  0  0  0  0  0  0  0  0  0  0
  1  2  1  0
  2  3  1  0
  3  4  1  0
  4  5  1  0
  5  6  1  0
  6  7  1  0
  7  8  1  0
  8  9  1  0
  9 10  1  0
 10 11  1  0
 11 12  2  0
 11 13  1  0
 14 13  1  1
 14 15  1  0
 14 18  1  0
 15 16  1  0
 17 16  1  1
 17 18  1  0
 17 22  1  0
 18 19  1  0
 18 33  1  1
 19 20  1  0
 21 20  1  1
 21 22  1  0
 21 31  1  0
 22 23  1  6
 23 24  1  0
 24 25  1  0
 25 26  2  0
 25 31  1  0
 26 27  1  0
 27 28  2  0
 27 29  1  0
 29 30  1  0
 30 31  1  0
 31 32  1  1
M  END
>  <DRUGBANK_ID>  (1) 
DB13946

>  <SECONDARY_ACCESSION_NUMBERS>  (1) 
DBSALT001033

>  <COMMON_NAME>  (1) 
Testosterone undecanoate

>  <CAS_NUMBER>  (1) 
5949-44-0

>  <UNII>  (1) 
H16A5VCT9C

>  <SYNONYMS>  (1) 
Testosterone undecanoate; Testosterone undeconate; Testosterone undecylate

$$$$
