
     RDKit          3D

 26 26  0  0  0  0  0  0  0  0999 V2000
    1.3440   -0.2250    0.0360 C   0  0  0  0  0  0  0  0  0  0  0  0
    0.5020   -1.2510   -0.0040 C   0  0  0  0  0  0  0  0  0  0  0  0
   -0.8560   -1.0420    0.0030 C   0  0  0  0  0  0  0  0  0  0  0  0
   -1.3730    0.2230   -0.0410 C   0  0  0  0  0  0  0  0  0  0  0  0
   -0.5090    1.2150    0.0750 C   0  0  0  0  0  0  0  0  0  0  0  0
    0.8920    1.0800   -0.0700 C   0  0  0  0  0  0  0  0  0  0  0  0
    1.9334    2.7595    0.0551 C   0  0  0  0  0  0  0  0  0  0  0  0
    1.7325    3.6711   -1.1681 N   0  0  0  0  0  0  0  0  0  0  0  0
   -1.9766   -2.4617    0.0715 S   0  0  0  0  0  0  0  0  0  0  0  0
   -2.8450   -2.3661    1.3281 O   0  0  0  0  0  0  0  0  0  0  0  0
   -2.8730   -2.4644   -1.1690 O   0  0  0  0  0  0  0  0  0  0  0  0
   -1.0369   -3.9491    0.1195 N   0  0  0  0  0  0  0  0  0  0  0  0
    1.3440   -0.2250    0.0360 C   0  0  0  0  0  0  0  0  0  0  0  0
    0.5020   -1.2510   -0.0040 C   0  0  0  0  0  0  0  0  0  0  0  0
   -0.8560   -1.0420    0.0030 C   0  0  0  0  0  0  0  0  0  0  0  0
   -1.3730    0.2230   -0.0410 C   0  0  0  0  0  0  0  0  0  0  0  0
   -0.5090    1.2150    0.0750 C   0  0  0  0  0  0  0  0  0  0  0  0
    0.8920    1.0800   -0.0700 C   0  0  0  0  0  0  0  0  0  0  0  0
    1.4324    1.3490   -1.8581 N   0  0  0  0  0  0  0  0  0  0  0  0
   -1.9766   -2.4617    0.0715 S   0  0  0  0  0  0  0  0  0  0  0  0
   -2.8450   -2.3661    1.3281 O   0  0  0  0  0  0  0  0  0  0  0  0
   -2.8730   -2.4644   -1.1690 O   0  0  0  0  0  0  0  0  0  0  0  0
   -1.0369   -3.9491    0.1195 N   0  0  0  0  0  0  0  0  0  0  0  0
    0.7501   -4.5758    0.0595 C   0  0  0  0  0  0  0  0  0  0  0  0
    1.0916   -6.1428   -0.4495 S   0  0  0  0  0  0  0  0  0  0  0  0
    1.6659   -3.9565    0.8552 N   0  0  0  0  0  0  0  0  0  0  0  0
  1  2  2  0
  1  6  1  0
  2  3  1  0
  3  4  2  0
  3  9  1  0
  4  5  1  0
  5  6  2  0
  6  7  1  0
  7  8  1  0
  9 10  2  0
  9 11  2  0
  9 12  1  0
 13 14  2  0
 13 18  1  0
 14 15  1  0
 15 16  2  0
 15 20  1  0
 16 17  1  0
 17 18  2  0
 18 19  1  0
 20 21  2  0
 20 22  2  0
 20 23  1  0
 23 24  1  0
 24 25  2  0
 24 26  1  0
M  END
>  <DRUGBANK_ID>  (1) 
DB13547

>  <COMMON_NAME>  (1) 
Sulfatolamide

>  <CAS_NUMBER>  (1) 
1161-88-2

>  <UNII>  (1) 
3OLH2HAK9F

>  <SYNONYMS>  (1) 
Sulfatolamide

$$$$
