
     RDKit          3D

 12 12  0  0  0  0  0  0  0  0999 V2000
    1.0476   -0.0917   -0.0186 O   0  0  0  0  0  0  0  0  0  0  0  0
    1.9880    2.2116    1.7473 N   0  0  0  0  0  0  0  0  0  0  0  0
    2.3158    3.0720    2.8385 N   0  0  0  0  0  0  0  0  0  0  0  0
    0.5599    1.9465    1.4955 C   0  0  0  0  0  0  0  0  0  0  0  0
    0.3531    1.1644    0.1371 C   0  0  0  0  0  0  0  0  0  0  0  0
   -0.2403    3.2524    1.4166 C   0  0  0  0  0  0  0  0  0  0  0  0
    2.4103   -0.0738   -0.1887 C   0  0  0  0  0  0  0  0  0  0  0  0
    3.1681    1.0828   -0.3936 C   0  0  0  0  0  0  0  0  0  0  0  0
    3.0719   -1.2773    0.0356 C   0  0  0  0  0  0  0  0  0  0  0  0
    4.5247    1.0912   -0.0625 C   0  0  0  0  0  0  0  0  0  0  0  0
    4.4559   -1.2913    0.2476 C   0  0  0  0  0  0  0  0  0  0  0  0
    5.1711   -0.0920    0.2524 C   0  0  0  0  0  0  0  0  0  0  0  0
  1  5  1  0
  1  7  1  0
  2  3  1  0
  2  4  1  0
  4  5  1  0
  4  6  1  0
  7  8  2  0
  7  9  1  0
  8 10  1  0
  9 11  2  0
 10 12  2  0
 11 12  1  0
M  END
>  <DRUGBANK_ID>  (1) 
DB09251

>  <COMMON_NAME>  (1) 
Phenoxypropazine

>  <CAS_NUMBER>  (1) 
3818-37-9

>  <UNII>  (1) 
8E92V52324

$$$$
