
     RDKit          3D

 17 15  0  0  0  0  0  0  0  0999 V2000
   -0.8810   -1.3992    1.1090 Cu  0  0  0  0  0 15  0  0  0  0  0  0
    1.2700    0.3983    0.0611 C   0  0  0  0  0  0  0  0  0  0  0  0
    0.5696   -0.0482    1.2714 N   0  0  0  0  0  0  0  0  0  0  0  0
   -0.2599    0.8426    1.9084 C   0  0  0  0  0  0  0  0  0  0  0  0
   -0.8317   -0.0430    3.2168 S   0  0  0  0  0  0  0  0  0  0  0  0
   -0.6765    1.9698    1.3981 N   0  0  0  0  0  0  0  0  0  0  0  0
   -1.5136    2.8236    2.1108 N   0  0  0  0  0  0  0  0  0  0  0  0
   -1.7610    3.9564    1.4781 C   0  0  0  0  0  0  0  0  0  0  0  0
   -1.2712    4.2730    0.0775 C   0  0  0  0  0  0  0  0  0  0  0  0
   -2.6305    5.0436    2.1368 C   0  0  0  0  0  0  0  0  0  0  0  0
   -3.1270    4.8129    3.5398 C   0  0  0  0  0  0  0  0  0  0  0  0
   -2.9056    6.1106    1.4392 N   0  0  0  0  0  0  0  0  0  0  0  0
   -3.7141    7.0337    2.1271 N   0  0  0  0  0  0  0  0  0  0  0  0
   -4.0670    8.1529    1.5518 C   0  0  0  0  0  0  0  0  0  0  0  0
   -3.6032    8.5981   -0.0430 S   0  0  0  0  0  0  0  0  0  0  0  0
   -4.8498    9.0934    2.1560 N   0  0  0  0  0  0  0  0  0  0  0  0
   -5.3897    9.0037    3.4778 C   0  0  0  0  0  0  0  0  0  0  0  0
  2  3  1  0
  3  4  1  0
  4  5  1  0
  4  6  2  0
  6  7  1  0
  7  8  2  0
  8  9  1  0
  8 10  1  0
 10 11  1  0
 10 12  2  0
 12 13  1  0
 13 14  2  0
 14 15  1  0
 14 16  1  0
 16 17  1  0
M  CHG  3   1   2   5  -1  15  -1
M  END
>  <DRUGBANK_ID>  (1) 
DB16963

>  <COMMON_NAME>  (1) 
Copper(II) dithiosemicarbazone

>  <CAS_NUMBER>  (1) 
68341-09-3

>  <UNII>  (1) 
0YDK1H9L3A

>  <SYNONYMS>  (1) 
Atsm copper (ii); Copper, ((2,2'-(1,2-dimethyl-1,2-ethanediylidene)bis(n-methylhydrazinecarbothioamidato-.kappa.n2,.kappa.s))(2-))-, (sp-4-2)-; Copper(ii) diacetyl-di(n4-methyl)thiosemicarbazone; Cu-atsm; Cu(ii)atsm; Diacetyl(n(4)-methylthiosemicarbazonato) copper (ii)

$$$$
