
     RDKit          3D

 26 26  0  0  0  0  0  0  0  0999 V2000
    1.5926   -2.5136  -10.2314 O   0  0  0  0  0  0  0  0  0  0  0  0
    3.9048   -0.3755   -8.4560 O   0  0  0  0  0  0  0  0  0  0  0  0
    3.1141   -5.7331  -10.2692 O   0  0  0  0  0  0  0  0  0  0  0  0
   -0.7861   -5.4504   -6.7357 O   0  0  0  0  0  0  0  0  0  0  0  0
    2.0838   -3.1934   -5.7004 O   0  0  0  0  0  0  0  0  0  0  0  0
    3.9837   -0.7376  -10.6984 O   0  0  0  0  0  0  0  0  0  0  0  0
   -1.0994   -7.5067   -5.1928 O   0  0  0  0  0  0  0  0  0  0  0  0
    0.0174   -7.0453   -3.3475 O   0  0  0  0  0  0  0  0  0  0  0  0
    2.3969   -4.8810   -8.3354 N   0  0  0  0  0  0  0  0  0  0  0  0
    1.8502   -5.3652   -5.2558 N   0  0  0  0  0  0  0  0  0  0  0  0
    2.7052   -3.4217  -10.3332 C   0  0  1  0  0  0  0  0  0  0  0  0
    2.7400   -2.2576   -9.4004 C   0  0  1  0  0  0  0  0  0  0  0  0
    1.1906   -4.4238   -7.6151 C   0  0  1  0  0  0  0  0  0  0  0  0
    2.4179   -7.8502   -5.4005 C   0  0  2  0  0  0  0  0  0  0  0  0
    2.6800   -4.7457   -9.6727 C   0  0  0  0  0  0  0  0  0  0  0  0
    1.3503   -6.7309   -5.4360 C   0  0  1  0  0  0  0  0  0  0  0  0
   -0.0472   -5.2852   -7.9260 C   0  0  1  0  0  0  0  0  0  0  0  0
    1.6667   -4.2856   -6.1050 C   0  0  0  0  0  0  0  0  0  0  0  0
    2.2336   -8.9369   -6.5156 C   0  0  0  0  0  0  0  0  0  0  0  0
    3.5724   -1.0611   -9.6083 C   0  0  0  0  0  0  0  0  0  0  0  0
    2.3664   -8.5050   -4.0372 C   0  0  0  0  0  0  0  0  0  0  0  0
    0.0369   -7.1012   -4.5724 C   0  0  0  0  0  0  0  0  0  0  0  0
    0.2995   -6.5679   -8.7139 C   0  0  0  0  0  0  0  0  0  0  0  0
    0.8193   -9.1010   -7.0553 C   0  0  0  0  0  0  0  0  0  0  0  0
    3.4077   -0.7371   -7.1385 C   0  0  0  0  0  0  0  0  0  0  0  0
    1.9073   -0.4774   -7.0327 C   0  0  0  0  0  0  0  0  0  0  0  0
  1 11  1  0
  1 12  1  0
  2 20  1  0
  2 25  1  0
  3 15  2  0
  5 18  2  0
  6 20  2  0
  7 22  1  0
  8 22  2  0
  9 15  1  0
 10 18  1  0
 11 12  1  0
 11 15  1  1
 12 20  1  6
 13  9  1  6
 13 18  1  0
 14 21  1  1
 14 19  1  0
 14 16  1  0
 16 10  1  1
 16 22  1  0
 17 23  1  1
 17 13  1  0
 17  4  1  0
 19 24  1  0
 25 26  1  0
M  END
>  <DRUGBANK_ID>  (1) 
DB04579

>  <COMMON_NAME>  (1) 
N-{[(2S,3S)-3-(Ethoxycarbonyl)-2-oxiranyl]carbonyl}-L-threonyl-L-isoleucine

$$$$
