
     RDKit          3D

 16 17  0  0  0  0  0  0  0  0999 V2000
    1.1049   -0.0190   -0.0167 C   0  0  0  0  0  0  0  0  0  0  0  0
    1.7260    4.4637    4.1490 C   0  0  0  0  0  0  0  0  0  0  0  0
   -1.1222   -1.8245    4.2770 C   0  0  0  0  0  0  0  0  0  0  0  0
   -0.7439   -0.5207    4.5543 C   0  0  0  0  0  0  0  0  0  0  0  0
    0.0260   -1.6857    2.1482 C   0  0  0  0  0  0  0  0  0  0  0  0
    0.7601    1.9084    1.5075 C   0  0  0  0  0  0  0  0  0  0  0  0
   -0.6726   -2.4147    3.1079 C   0  0  0  0  0  0  0  0  0  0  0  0
   -0.1549    0.2506    3.5440 C   0  0  0  0  0  0  0  0  0  0  0  0
    0.2053   -0.3046    2.2943 C   0  0  0  0  0  0  0  0  0  0  0  0
    0.4789    2.5339    2.6602 C   0  0  0  0  0  0  0  0  0  0  0  0
   -0.0013    1.7033    3.7829 C   0  0  0  0  0  0  0  0  0  0  0  0
   -0.9043   -3.7162    2.8972 F   0  0  0  0  0  0  0  0  0  0  0  0
    0.6751    0.5407    1.2686 N   0  0  0  0  0  0  0  0  0  0  0  0
   -0.3135    2.1951    4.8695 O   0  0  0  0  0  0  0  0  0  0  0  0
    1.1701    4.8253    1.5441 O   0  0  0  0  0  0  0  0  0  0  0  0
    0.5346    4.3004    2.7982 S   0  0  0  0  0  0  0  0  0  0  0  0
  4  3  2  0
  7  3  1  0
  7  5  2  0
  8  4  1  0
  9  5  1  0
  9  8  2  0
 10  6  2  0
 11  8  1  0
 11 10  1  0
 12  7  1  0
 13  1  1  0
 13  6  1  0
 13  9  1  0
 14 11  2  0
 16  2  1  0
 16 10  1  0
 16 15  2  0
M  END
>  <DRUGBANK_ID>  (1) 
DB13228

>  <COMMON_NAME>  (1) 
Flosequinan

>  <CAS_NUMBER>  (1) 
76568-02-0

>  <UNII>  (1) 
6NB119DLU7

>  <SYNONYMS>  (1) 
Flosequinan

$$$$
