
     RDKit          3D

 35 37  0  0  0  0  0  0  0  0999 V2000
   -2.5500    2.8179    0.1362 O   0  0  0  0  0  0  0  0  0  0  0  0
   -2.5936    1.5633   -0.5493 C   0  0  1  0  0  0  0  0  0  0  0  0
   -1.3362    2.8054   -0.6006 C   0  0  2  0  0  0  0  0  0  0  0  0
    1.3071   -2.1992   -0.1204 C   0  0  0  0  0  0  0  0  0  0  0  0
    2.7424   -2.1849   -0.7639 C   0  0  0  0  0  0  0  0  0  0  0  0
    0.6043   -3.5286    0.0457 C   0  0  1  0  0  0  0  0  0  0  0  0
    4.1273    4.9005   -3.3053 N   0  0  0  0  0  0  0  0  0  0  0  0
    2.2903    2.4134    0.5882 N   0  0  0  0  0  0  0  0  0  0  0  0
    3.3243    1.5487    0.2313 C   0  0  0  0  0  0  0  0  0  0  0  0
    1.3028    2.8320   -0.4233 C   0  0  1  0  0  0  0  0  0  0  0  0
    2.8736    4.4169   -3.6226 C   0  0  0  0  0  0  0  0  0  0  0  0
    3.6457   -1.0044   -0.2348 C   0  0  2  0  0  0  0  0  0  0  0  0
   -0.0796    3.2535    0.2219 C   0  0  0  0  0  0  0  0  0  0  0  0
    2.8170    0.1450    0.3025 C   0  0  0  0  0  0  0  0  0  0  0  0
    2.1875    3.5694   -2.6886 C   0  0  0  0  0  0  0  0  0  0  0  0
    2.0182    3.8323   -1.3659 C   0  0  0  0  0  0  0  0  0  0  0  0
   -0.7392   -3.3734    0.7849 C   0  0  2  0  0  0  0  0  0  0  0  0
    4.4809    5.8389   -4.1562 C   0  0  0  0  0  0  0  0  0  0  0  0
    3.3907    6.0851   -5.4634 S   0  0  0  0  0  0  0  0  0  0  0  0
    2.3490    4.8789   -4.8097 C   0  0  0  0  0  0  0  0  0  0  0  0
    0.6774   -1.1875    0.2089 O   0  0  0  0  0  0  0  0  0  0  0  0
    4.3747    1.8649   -0.2584 O   0  0  0  0  0  0  0  0  0  0  0  0
   -1.8478   -2.8944   -0.1633 C   0  0  2  0  0  0  0  0  0  0  0  0
   -3.0473    0.4666    0.4489 C   0  0  0  0  0  0  0  0  0  0  0  0
   -0.5718   -2.5099    1.9191 O   0  0  0  0  0  0  0  0  0  0  0  0
    4.4998   -0.5888   -1.3068 O   0  0  0  0  0  0  0  0  0  0  0  0
   -3.5784    1.4732   -1.7316 C   0  0  0  0  0  0  0  0  0  0  0  0
    3.4583   -3.5085   -0.3962 C   0  0  0  0  0  0  0  0  0  0  0  0
    2.6291   -2.0206   -2.3133 C   0  0  0  0  0  0  0  0  0  0  0  0
    0.4587   -4.1172   -1.3481 C   0  0  0  0  0  0  0  0  0  0  0  0
    2.6072    5.0865   -0.7467 C   0  0  0  0  0  0  0  0  0  0  0  0
    5.7082    6.6722   -4.0152 C   0  0  0  0  0  0  0  0  0  0  0  0
   -3.2838   -0.8958   -0.2838 C   0  0  0  0  0  0  0  0  0  0  0  0
   -2.9297   -2.1010    0.5619 C   0  0  0  0  0  0  0  0  0  0  0  0
   -2.4964   -4.0658   -0.9312 C   0  0  0  0  0  0  0  0  0  0  0  0
  2  1  1  0
  2 27  1  6
  2  3  1  0
  3  1  1  0
  4  6  1  0
  5 12  1  0
  5  4  1  0
  6 17  1  0
  6 30  1  6
  7 11  1  0
  8 10  1  0
  9  8  1  0
 10 13  1  0
 10 16  1  1
 11 15  1  0
 12 14  1  0
 12 26  1  6
  3 13  1  1
 14  9  1  0
 15 16  2  0
 17 23  1  0
 17 25  1  1
 18  7  2  0
 18 19  1  0
 19 20  1  0
 20 11  2  0
 21  4  2  0
 22  9  2  0
 23 34  1  0
 23 35  1  1
 24  2  1  0
 28  5  1  0
 29  5  1  0
 31 16  1  0
 32 18  1  0
 33 24  1  0
 34 33  1  0
M  END
>  <DRUGBANK_ID>  (1) 
DB04845

>  <COMMON_NAME>  (1) 
Ixabepilone

>  <CAS_NUMBER>  (1) 
219989-84-1

>  <UNII>  (1) 
K27005NP0A

>  <SYNONYMS>  (1) 
Aza-epothilone B; Azaepothilone B; Ixabepilone

$$$$
