
     RDKit          3D

 31 34  0  0  0  0  0  0  0  0999 V2000
   -0.2448   -1.1233    0.0149 C   0  0  0  0  0  0  0  0  0  0  0  0
    1.1120   -0.6163   -0.0049 C   0  0  0  0  0  0  0  0  0  0  0  0
    2.4033   -1.4030    0.0435 C   0  0  0  0  0  0  0  0  0  0  0  0
    3.2648   -1.2614   -1.1968 C   0  0  0  0  0  0  0  0  0  0  0  0
   -1.7720   -3.2317    0.0309 N   0  0  0  0  0  0  0  0  0  0  0  0
   -0.5020   -2.6511   -0.0173 C   0  0  0  0  0  0  0  0  0  0  0  0
   -0.3255    1.0980   -0.0438 N   0  0  0  0  0  0  0  0  0  0  0  0
    1.0219    0.7674   -0.0263 C   0  0  0  0  0  0  0  0  0  0  0  0
   -1.1231   -0.0640    0.0898 N   0  0  0  0  0  0  0  0  0  0  0  0
   -1.1146   -5.5592    0.8142 C   0  0  0  0  0  0  0  0  0  0  0  0
   -2.0073   -4.7146   -0.0264 N   0  0  0  0  0  0  0  0  0  0  0  0
   -1.9936   -5.2509   -1.4037 C   0  0  0  0  0  0  0  0  0  0  0  0
   -2.5254   -6.6978   -1.4395 C   0  0  0  0  0  0  0  0  0  0  0  0
   -1.7172   -7.6256   -0.5380 C   0  0  0  0  0  0  0  0  0  0  0  0
   -1.5977   -7.0257    0.8607 C   0  0  0  0  0  0  0  0  0  0  0  0
    0.4684   -3.4228   -0.1098 O   0  0  0  0  0  0  0  0  0  0  0  0
   -0.7959    2.4882   -0.0976 C   0  0  0  0  0  0  0  0  0  0  0  0
   -1.7423    4.4652    1.0294 C   0  0  0  0  0  0  0  0  0  0  0  0
   -1.4859    3.0657    0.9873 C   0  0  0  0  0  0  0  0  0  0  0  0
   -1.3015    5.3091    0.0112 C   0  0  0  0  0  0  0  0  0  0  0  0
   -0.3544    3.3828   -1.1128 C   0  0  0  0  0  0  0  0  0  0  0  0
   -0.5906    4.7746   -1.0492 C   0  0  0  0  0  0  0  0  0  0  0  0
    2.1294    1.7277   -0.0300 C   0  0  0  0  0  0  0  0  0  0  0  0
    3.5633    3.3434    1.0431 C   0  0  0  0  0  0  0  0  0  0  0  0
    2.4176    2.5400    1.0647 C   0  0  0  0  0  0  0  0  0  0  0  0
    4.4516    3.2754   -0.0334 C   0  0  0  0  0  0  0  0  0  0  0  0
    2.9712    1.7757   -1.1479 C   0  0  0  0  0  0  0  0  0  0  0  0
    4.1722    2.4699   -1.1243 C   0  0  0  0  0  0  0  0  0  0  0  0
    0.3781    2.8631   -2.5932 Cl  0  0  0  0  0  0  0  0  0  0  0  0
   -1.6600    6.9960    0.0399 Cl  0  0  0  0  0  0  0  0  0  0  0  0
    6.0265    4.3144   -0.0449 Br  0  0  0  0  0  0  0  0  0  0  0  0
  1  2  1  0
  1  6  1  0
  1  9  2  0
  2  3  1  0
  2  8  2  0
  3  4  1  0
  5  6  1  0
  5 11  1  0
  6 16  2  0
  7  8  1  0
  7 17  1  0
  9  7  1  0
 10 11  1  0
 10 15  1  0
 11 12  1  0
 12 13  1  0
 13 14  1  0
 14 15  1  0
 17 21  2  0
 18 19  2  0
 19 17  1  0
 20 18  1  0
 20 30  1  0
 21 22  1  0
 21 29  1  0
 22 20  2  0
 23 27  2  0
 23  8  1  0
 24 25  2  0
 25 23  1  0
 26 24  1  0
 26 31  1  0
 27 28  1  0
 28 26  2  0
M  END
>  <DRUGBANK_ID>  (1) 
DB13070

>  <COMMON_NAME>  (1) 
Surinabant

>  <CAS_NUMBER>  (1) 
288104-79-0

>  <UNII>  (1) 
SF8R9VCB0X

>  <SYNONYMS>  (1) 
Surinabant

$$$$
