
     RDKit          3D

 18 20  0  0  1  0  0  0  0  0999 V2000
    0.7260    0.0551    0.0144 O   0  0  0  0  0  0  0  0  0  0  0  0
    2.2350    0.1012    2.5897 O   0  0  0  0  0  0  0  0  0  0  0  0
    1.3373    6.8512    2.4738 O   0  0  0  0  0  0  0  0  0  0  0  0
   -0.4607    2.0527    0.8253 C   0  0  0  0  0  0  0  0  0  0  0  0
   -1.7064    2.5317    1.7090 C   0  0  0  0  0  0  0  0  0  0  0  0
   -1.8388    1.9215    0.3263 C   0  0  0  0  0  0  0  0  0  0  0  0
    0.3330    0.7492    1.2051 C   0  0  2  0  0  0  0  0  0  0  0  0
    0.3654    3.2785    0.5911 C   0  0  0  0  0  0  0  0  0  0  0  0
    1.4115    3.4846    1.4137 C   0  0  0  0  0  0  0  0  0  0  0  0
    1.5742    1.0098    2.0620 C   0  0  0  0  0  0  0  0  0  0  0  0
   -0.5395   -0.1211    2.1056 C   0  0  0  0  0  0  0  0  0  0  0  0
    1.9715    2.4001    2.1993 C   0  0  0  0  0  0  0  0  0  0  0  0
   -0.2167    4.3252   -0.3246 C   0  0  0  0  0  0  0  0  0  0  0  0
    2.1025    4.6920    1.8135 C   0  0  0  0  0  0  0  0  0  0  0  0
    2.9105    2.8919    3.0158 C   0  0  0  0  0  0  0  0  0  0  0  0
    2.9737    4.3252    2.7839 C   0  0  0  0  0  0  0  0  0  0  0  0
    1.8058    6.0783    1.3752 C   0  0  0  0  0  0  0  0  0  0  0  0
    3.8740    5.1887    3.5775 C   0  0  0  0  0  0  0  0  0  0  0  0
  2 10  2  0
  3 17  1  0
  4  5  1  0
  4  6  1  0
  4  7  1  0
  4  8  1  0
  5  6  1  0
  7  1  1  0
  7 10  1  0
  7 11  1  1
  8  9  2  0
  8 13  1  0
  9 12  1  0
  9 14  1  0
 10 12  1  0
 12 15  2  0
 14 16  2  0
 14 17  1  0
 15 16  1  0
 16 18  1  0
M  END
>  <DRUGBANK_ID>  (1) 
DB05786

>  <SECONDARY_ACCESSION_NUMBERS>  (1) 
DB11733

>  <COMMON_NAME>  (1) 
Irofulven

>  <CAS_NUMBER>  (1) 
158440-71-2

>  <UNII>  (1) 
6B799IH05A

>  <SYNONYMS>  (1) 
6-hydroxymethylacylfulvene; HMAF; Irofulven

$$$$
