3FP
     RDKit          3D

 33 35  0  0  0  0  0  0  0  0999 V2000
    1.1833   -0.7686    0.0385 C   0  0  0  0  0  0  0  0  0  0  0  0
   -1.0753    0.7204   -0.0288 N   0  0  0  0  0  0  0  0  0  0  0  0
   -0.0207   -1.4208   -0.0094 C   0  0  0  0  0  0  0  0  0  0  0  0
    6.1294    0.3239    0.0643 C   0  0  0  0  0  0  0  0  0  0  0  0
    5.2302    0.5479    1.1038 C   0  0  0  0  0  0  0  0  0  0  0  0
    3.9986   -0.0891    1.0879 C   0  0  0  0  0  0  0  0  0  0  0  0
    3.6403   -0.9535    0.0423 C   0  0  0  0  0  0  0  0  0  0  0  0
   -1.1283   -0.6184   -0.1110 C   0  0  0  0  0  0  0  0  0  0  0  0
   -3.8163    0.5028   -1.5330 C   0  0  0  0  0  0  0  0  0  0  0  0
   -3.4999   -0.4434   -0.5527 C   0  0  0  0  0  0  0  0  0  0  0  0
    4.5628   -1.2047   -0.9748 C   0  0  0  0  0  0  0  0  0  0  0  0
    5.8062   -0.5550   -0.9826 C   0  0  0  0  0  0  0  0  0  0  0  0
   -5.0210    1.2849   -1.5296 C   0  0  0  0  0  0  0  0  0  0  0  0
   -7.9418    1.8722    0.8147 C   0  0  0  0  0  0  0  0  0  0  0  0
   -5.4457    0.3141    0.4400 C   0  0  0  0  0  0  0  0  0  0  0  0
   -5.9088    1.1785   -0.4831 C   0  0  0  0  0  0  0  0  0  0  0  0
   -4.3072   -0.4513    0.5353 C   0  0  0  0  0  0  0  0  0  0  0  0
    0.1309    1.2617    0.0256 C   0  0  0  0  0  0  0  0  0  0  0  0
    1.2668    0.5765    0.0254 N   0  0  0  0  0  0  0  0  0  0  0  0
    2.3619   -1.5133   -0.0558 N   0  0  0  0  0  0  0  0  0  0  0  0
    3.1545    0.1310    2.1090 F   0  0  0  0  0  0  0  0  0  0  0  0
   -2.3443   -1.2213   -0.4918 N   0  0  0  0  0  0  0  0  0  0  0  0
   -7.1015    1.8405   -0.3920 O   0  0  0  0  0  0  0  0  0  0  0  0
    6.7631   -0.7938   -2.1206 C   0  0  0  0  0  0  0  0  0  0  0  0
    7.1066   -2.1062   -2.2348 F   0  0  0  0  0  0  0  0  0  0  0  0
    6.2451   -0.4345   -3.3267 F   0  0  0  0  0  0  0  0  0  0  0  0
    7.9330   -0.1094   -1.9947 F   0  0  0  0  0  0  0  0  0  0  0  0
   -8.7226    0.5901    1.2452 C   0  0  1  0  0  0  0  0  0  0  0  0
   -7.8983   -0.6339    1.6785 C   0  0  0  0  0  0  0  0  0  0  0  0
   -6.1315   -1.6377    2.9953 C   0  0  0  0  0  0  0  0  0  0  0  0
   -6.2481    0.8013    3.2355 C   0  0  0  0  0  0  0  0  0  0  0  0
   -7.0290   -0.4669    2.9453 N   0  0  0  0  0  0  0  0  0  0  0  0
   -9.5838    0.8637    2.3639 O   0  0  0  0  0  0  0  0  0  0  0  0
  1  3  2  0
  1 19  1  0
  1 20  1  0
  2  8  2  0
  2 18  1  0
  3  8  1  0
  4  5  2  0
  4 12  1  0
  5  6  1  0
  6  7  2  0
  6 21  1  0
  7 11  1  0
  7 20  1  0
  8 22  1  0
  9 10  2  0
  9 13  1  0
 10 17  1  0
 10 22  1  0
 11 12  2  0
 12 24  1  0
 13 16  2  0
 14 23  1  0
 14 28  1  0
 15 16  1  0
 15 17  2  0
 16 23  1  0
 18 19  2  0
 24 25  1  0
 24 26  1  0
 24 27  1  0
 28 29  1  0
 28 33  1  1
 29 32  1  0
 30 32  1  0
 31 32  1  0
M  END
>  <DRUGBANK_ID>  (1) 
DB07054

>  <COMMON_NAME>  (1) 
(2R)-1-(DIMETHYLAMINO)-3-{4-[(6-{[2-FLUORO-5-(TRIFLUOROMETHYL)PHENYL]AMINO}PYRIMIDIN-4-YL)AMINO]PHENOXY}PROPAN-2-OL

$$$$
