MDY
     RDKit          3D

 24 25  0  0  0  0  0  0  0  0999 V2000
    0.9257    0.0269   -0.0301 C   0  0  0  0  0  0  0  0  0  0  0  0
    0.3745   -0.1000    1.2686 O   0  0  0  0  0  0  0  0  0  0  0  0
    0.8171   -1.1532    2.0239 C   0  0  0  0  0  0  0  0  0  0  0  0
    2.1328   -1.6105    2.0463 C   0  0  0  0  0  0  0  0  0  0  0  0
    2.5416   -2.5508    2.9984 C   0  0  0  0  0  0  0  0  0  0  0  0
    1.6515   -3.0138    3.9593 C   0  0  0  0  0  0  0  0  0  0  0  0
    0.3411   -2.5544    3.9448 C   0  0  0  0  0  0  0  0  0  0  0  0
   -0.1115   -1.6977    2.9160 C   0  0  0  0  0  0  0  0  0  0  0  0
   -1.5509   -1.4983    2.7413 C   0  0  0  0  0  0  0  0  0  0  0  0
   -2.2447   -1.8994    1.5806 C   0  0  0  0  0  0  0  0  0  0  0  0
   -3.6496   -1.8150    1.5015 C   0  0  0  0  0  0  0  0  0  0  0  0
   -4.4314   -2.3337    0.0539 Cl  0  0  0  0  0  0  0  0  0  0  0  0
   -2.2925   -1.1005    3.8238 C   0  0  0  0  0  0  0  0  0  0  0  0
   -3.6569   -1.3081    3.7989 C   0  0  0  0  0  0  0  0  0  0  0  0
   -4.3781   -1.4126    2.6206 C   0  0  0  0  0  0  0  0  0  0  0  0
   -5.7615   -1.0730    2.5872 N   0  0  0  0  0  0  0  0  0  0  0  0
   -6.5495   -0.3955    3.5157 C   0  0  0  0  0  0  0  0  0  0  0  0
   -7.7608   -0.2846    3.3076 O   0  0  0  0  0  0  0  0  0  0  0  0
   -5.9881    0.1429    4.8058 C   0  0  0  0  0  0  0  0  0  0  0  0
   -6.6104   -0.3242    6.0090 C   0  0  0  0  0  0  0  0  0  0  0  0
   -7.0302   -0.6753    7.0249 N   0  0  0  0  0  0  0  0  0  0  0  0
   -4.8834    0.9290    4.8476 C   0  0  0  0  0  0  0  0  0  0  0  0
   -4.0387    1.1536    6.0833 C   0  0  0  0  0  0  0  0  0  0  0  0
   -4.3052    1.4136    3.6788 O   0  0  0  0  0  0  0  0  0  0  0  0
  1  2  1  0
  2  3  1  0
  3  4  2  0
  3  8  1  0
  4  5  1  0
  5  6  2  0
  6  7  1  0
  7  8  2  0
  8  9  1  0
  9 10  2  0
  9 13  1  0
 10 11  1  0
 11 12  1  0
 11 15  2  0
 13 14  2  0
 14 15  1  0
 15 16  1  0
 16 17  1  0
 17 18  2  0
 17 19  1  0
 19 20  1  0
 19 22  2  0
 20 21  3  0
 22 23  1  0
 22 24  1  0
M  END
>  <DRUGBANK_ID>  (1) 
DB08172

>  <COMMON_NAME>  (1) 
(2Z)-N-(3-chloro-2'-methoxybiphenyl-4-yl)-2-cyano-3-hydroxybut-2-enamide

$$$$
