
     RDKit          3D

 29 33  0  0  1  0  0  0  0  0999 V2000
   -1.1404    0.3038    0.4490 C   0  0  0  0  0  0  0  0  0  0  0  0
   -2.3105    0.4876   -0.2627 C   0  0  0  0  0  0  0  0  0  0  0  0
   -3.2499   -0.5307   -0.3612 C   0  0  0  0  0  0  0  0  0  0  0  0
   -4.3987   -0.1521   -1.0124 O   0  0  0  0  0  0  0  0  0  0  0  0
   -4.3137    1.3051   -1.0505 C   0  0  2  0  0  0  0  0  0  0  0  0
   -2.8123    1.6745   -0.9984 C   0  0  0  0  0  0  0  0  0  0  0  0
   -5.1858    1.8795    0.0742 C   0  0  0  0  0  0  0  0  0  0  0  0
   -4.7133    2.6315    1.0859 C   0  0  0  0  0  0  0  0  0  0  0  0
   -6.6584    1.5624    0.0196 C   0  0  0  0  0  0  0  0  0  0  0  0
   -3.0445   -1.7794    0.1916 C   0  0  0  0  0  0  0  0  0  0  0  0
   -1.8610   -1.9892    0.9011 C   0  0  0  0  0  0  0  0  0  0  0  0
   -0.9259   -0.9455    1.0314 C   0  0  0  0  0  0  0  0  0  0  0  0
    0.3259   -1.1760    1.7750 C   0  0  0  0  0  0  0  0  0  0  0  0
    0.4747   -2.1648    2.4691 O   0  0  0  0  0  0  0  0  0  0  0  0
    1.4153   -0.1570    1.5531 C   0  0  2  0  0  0  0  0  0  0  0  0
    0.7701    1.2239    1.5114 C   0  0  2  0  0  0  0  0  0  0  0  0
   -0.2832    1.3582    0.5380 O   0  0  0  0  0  0  0  0  0  0  0  0
    1.8752    2.2135    1.1404 C   0  0  0  0  0  0  0  0  0  0  0  0
    2.4027    1.9752   -0.1751 O   0  0  0  0  0  0  0  0  0  0  0  0
    2.6476    0.6619   -0.4758 C   0  0  0  0  0  0  0  0  0  0  0  0
    2.2206   -0.4011    0.3031 C   0  0  0  0  0  0  0  0  0  0  0  0
    2.5587   -1.6985   -0.1006 C   0  0  0  0  0  0  0  0  0  0  0  0
    3.2684   -1.9893   -1.2899 C   0  0  0  0  0  0  0  0  0  0  0  0
    3.6685   -0.9036   -2.0969 C   0  0  0  0  0  0  0  0  0  0  0  0
    3.3375    0.4064   -1.6591 C   0  0  0  0  0  0  0  0  0  0  0  0
    4.3491   -0.7672   -3.2824 O   0  0  0  0  0  0  0  0  0  0  0  0
    4.8580   -1.8800   -3.9625 C   0  0  0  0  0  0  0  0  0  0  0  0
    3.3756   -3.3559   -1.3412 O   0  0  0  0  0  0  0  0  0  0  0  0
    4.0153   -4.0106   -2.3979 C   0  0  0  0  0  0  0  0  0  0  0  0
  1  2  1  0
  1 12  2  0
  1 17  1  0
  2  3  2  0
  2  6  1  0
  3  4  1  0
  3 10  1  0
  4  5  1  0
  5  6  1  0
  5  7  1  1
  7  8  2  0
  7  9  1  0
 10 11  2  0
 11 12  1  0
 12 13  1  0
 13 14  2  0
 15 13  1  6
 15 16  1  0
 15 21  1  0
 16 17  1  0
 16 18  1  6
 18 19  1  0
 19 20  1  0
 20 21  2  0
 20 25  1  0
 21 22  1  0
 22 23  2  0
 23 24  1  0
 23 28  1  0
 24 25  2  0
 24 26  1  0
 26 27  1  0
 28 29  1  0
M  END
>  <DRUGBANK_ID>  (1) 
DB11457

>  <COMMON_NAME>  (1) 
Rotenone

>  <CAS_NUMBER>  (1) 
83-79-4

>  <UNII>  (1) 
03L9OT429T

>  <SYNONYMS>  (1) 
(−)-cis-rotenone; (−)-rotenone; (12aS,6aS,2R)-8,9-dimethoxy-2-(1-methylvinyl)-1,2-dihydrochromano[3,4-b]furano [2,3-h]chroman-6-one; [2R-(2α,6aα,12aα)]-1,2,12,12a-tetrahydro-8,9-dimethoxy-2-(1-methylethenyl)[1]benzopyrano[3,4-b]furo[2,3-H][1]benzopyran-6(6aH)-one; 5'β-rotenone; Dactinol; Tubatoxin

$$$$
