
     RDKit          3D

 31 34  0  0  0  0  0  0  0  0999 V2000
    1.3312   -0.2299    0.0309 C   0  0  0  0  0  0  0  0  0  0  0  0
    0.3922   -1.4577    0.2304 C   0  0  0  0  0  0  0  0  0  0  0  0
    0.3008   -2.3470   -1.0073 C   0  0  0  0  0  0  0  0  0  0  0  0
    0.2018   -1.9845   -2.3807 C   0  0  0  0  0  0  0  0  0  0  0  0
    0.1047   -2.9395   -3.4155 C   0  0  0  0  0  0  0  0  0  0  0  0
    0.0127   -4.2408   -3.0719 C   0  0  0  0  0  0  0  0  0  0  0  0
    0.0695   -4.5676   -1.7452 C   0  0  0  0  0  0  0  0  0  0  0  0
    0.3245   -3.6998   -0.6652 C   0  0  0  0  0  0  0  0  0  0  0  0
    0.5787   -3.9188    0.7679 N   0  0  0  0  0  0  0  0  0  0  0  0
    0.6799   -2.5756    1.3573 C   0  0  0  0  0  0  0  0  0  0  0  0
    0.8411   -2.2952    2.5370 O   0  0  0  0  0  0  0  0  0  0  0  0
    0.7377   -5.1146    1.5676 C   0  0  0  0  0  0  0  0  0  0  0  0
    0.8553   -5.0905    2.8231 O   0  0  0  0  0  0  0  0  0  0  0  0
    0.7731   -6.4239    1.0781 N   0  0  0  0  0  0  0  0  0  0  0  0
    0.7587   -6.8526   -0.2859 C   0  0  0  0  0  0  0  0  0  0  0  0
    1.9993   -7.2184   -1.1601 C   0  0  0  0  0  0  0  0  0  0  0  0
    1.8582   -7.3498   -2.7246 C   0  0  0  0  0  0  0  0  0  0  0  0
    0.8637   -8.4173   -3.1413 C   0  0  0  0  0  0  0  0  0  0  0  0
    1.2443   -9.7086   -2.5517 N   0  0  0  0  0  0  0  0  0  0  0  0
    1.5021   -9.6024   -1.1152 C   0  0  0  0  0  0  0  0  0  0  0  0
    2.4906   -8.5480   -0.6553 C   0  0  0  0  0  0  0  0  0  0  0  0
    0.2311  -10.7534   -2.8701 C   0  0  0  0  0  0  0  0  0  0  0  0
   -1.2572  -10.4845   -2.4409 C   0  0  0  0  0  0  0  0  0  0  0  0
   -1.4005  -10.2977   -0.9222 C   0  0  0  0  0  0  0  0  0  0  0  0
   -2.8125  -10.1167   -0.4547 C   0  0  0  0  0  0  0  0  0  0  0  0
   -3.6033  -11.1995   -0.8879 O   0  0  0  0  0  0  0  0  0  0  0  0
   -3.5883  -11.3476   -2.3085 C   0  0  0  0  0  0  0  0  0  0  0  0
   -2.1812  -11.6301   -2.8467 C   0  0  0  0  0  0  0  0  0  0  0  0
   -1.7293   -9.3465   -3.1826 O   0  0  0  0  0  0  0  0  0  0  0  0
   -0.1806   -5.2278   -3.9599 F   0  0  0  0  0  0  0  0  0  0  0  0
   -0.8994   -0.6974    0.6498 C   0  0  0  0  0  0  0  0  0  0  0  0
  1  2  1  0
  2  3  1  0
  2 10  1  0
  2 31  1  0
  3  4  2  0
  3  8  1  0
  4  5  1  0
  5  6  2  0
  6  7  1  0
  6 30  1  0
  7  8  2  0
  8  9  1  0
  9 10  1  0
  9 12  1  0
 10 11  2  0
 12 13  2  0
 12 14  1  0
 14 15  1  0
 15 16  1  0
 16 17  1  0
 16 21  1  0
 17 18  1  0
 18 19  1  0
 19 20  1  0
 19 22  1  0
 20 21  1  0
 22 23  1  0
 23 24  1  0
 23 28  1  0
 23 29  1  0
 24 25  1  0
 25 26  1  0
 26 27  1  0
 27 28  1  0
M  END
>  <DRUGBANK_ID>  (1) 
DB12949

>  <COMMON_NAME>  (1) 
PF-03382792

>  <CAS_NUMBER>  (1) 
1400811-63-3

>  <UNII>  (1) 
QPE81T4KH0

$$$$
