L0I
     RDKit          3D

 28 32  0  0  0  0  0  0  0  0999 V2000
    1.0659    0.0424    0.1328 O   0  0  0  0  0  0  0  0  0  0  0  0
    2.2945   -0.0698    0.0700 C   0  0  0  0  0  0  0  0  0  0  0  0
    2.9258   -1.1019   -0.5814 N   0  0  0  0  0  0  0  0  0  0  0  0
    2.2091   -2.0442   -1.3856 C   0  0  0  0  0  0  0  0  0  0  0  0
    2.2582   -3.5200   -1.0944 C   0  0  0  0  0  0  0  0  0  0  0  0
    2.8800   -2.9854   -2.3509 C   0  0  0  0  0  0  0  0  0  0  0  0
    3.0647    0.8032    0.7836 N   0  0  0  0  0  0  0  0  0  0  0  0
    4.4404    0.8951    0.8165 C   0  0  0  0  0  0  0  0  0  0  0  0
    5.2893    0.7810   -0.2566 C   0  0  0  0  0  0  0  0  0  0  0  0
    6.5485    0.9416    0.2374 N   0  0  0  0  0  0  0  0  0  0  0  0
    6.5754    1.2298    1.5469 N   0  0  0  0  0  0  0  0  0  0  0  0
    5.2851    1.2506    1.9002 C   0  0  0  0  0  0  0  0  0  0  0  0
    4.8554    1.4764    3.3071 C   0  0  0  0  0  0  0  0  0  0  0  0
    5.1360    2.5339    4.0440 N   0  0  0  0  0  0  0  0  0  0  0  0
    4.5034    2.3328    5.2398 C   0  0  0  0  0  0  0  0  0  0  0  0
    4.4084    3.1524    6.3741 C   0  0  0  0  0  0  0  0  0  0  0  0
    3.6615    2.7036    7.4754 C   0  0  0  0  0  0  0  0  0  0  0  0
    3.0652    1.4329    7.4688 C   0  0  0  0  0  0  0  0  0  0  0  0
    2.0982    1.0217    8.5512 C   0  0  0  0  0  0  0  0  0  0  0  0
    0.6495    0.8775    8.0629 N   0  0  0  0  0  0  0  0  0  0  0  0
    0.1026    2.1867    7.4778 C   0  0  0  0  0  0  0  0  0  0  0  0
   -1.3035    1.9655    6.9051 C   0  0  0  0  0  0  0  0  0  0  0  0
   -1.3161    0.9105    5.9395 O   0  0  0  0  0  0  0  0  0  0  0  0
   -0.9851   -0.3397    6.5497 C   0  0  0  0  0  0  0  0  0  0  0  0
    0.4390   -0.2775    7.0808 C   0  0  0  0  0  0  0  0  0  0  0  0
    3.2902    0.5617    6.3887 C   0  0  0  0  0  0  0  0  0  0  0  0
    3.9082    1.0831    5.2643 C   0  0  0  0  0  0  0  0  0  0  0  0
    4.0953    0.5776    4.0067 N   0  0  0  0  0  0  0  0  0  0  0  0
  2  1  2  0
  2  7  1  0
  3  2  1  0
  4  3  1  0
  5  4  1  0
  5  6  1  0
  6  4  1  0
  7  8  1  0
  8  9  2  0
  9 10  1  0
 11 10  1  0
 12  8  1  0
 12 11  2  0
 13 12  1  0
 13 28  1  0
 14 13  2  0
 15 14  1  0
 15 27  2  0
 16 15  1  0
 17 16  2  0
 17 18  1  0
 18 26  2  0
 19 18  1  0
 20 19  1  0
 20 21  1  0
 22 21  1  0
 23 22  1  0
 24 23  1  0
 24 25  1  0
 25 20  1  0
 26 27  1  0
 27 28  1  0
M  CHG  1  20   1
M  END
>  <DRUGBANK_ID>  (1) 
DB08067

>  <COMMON_NAME>  (1) 
4-[(2-{4-[(CYCLOPROPYLCARBAMOYL)AMINO]-1H-PYRAZOL-3-YL}-1H-BENZIMIDAZOL-6-YL)METHYL]MORPHOLIN-4-IUM

$$$$
