TFI
     RDKit          3D

 33 34  0  0  0  0  0  0  0  0999 V2000
   -2.7786    0.5473    1.2325 C   0  0  0  0  0  0  0  0  0  0  0  0
   -1.7535    1.0204    2.2422 C   0  0  0  0  0  0  0  0  0  0  0  0
   -0.4011    1.4437    1.6709 C   0  0  2  0  0  0  0  0  0  0  0  0
    0.5138    0.2320    1.3560 C   0  0  0  0  0  0  0  0  0  0  0  0
    1.9944    0.6060    1.4443 C   0  0  0  0  0  0  0  0  0  0  0  0
    0.2596   -0.9639    2.2782 C   0  0  0  0  0  0  0  0  0  0  0  0
    0.6057    3.6231    2.3003 C   0  0  0  0  0  0  0  0  0  0  0  0
    1.3304    4.3796    3.4005 C   0  0  0  0  0  0  0  0  0  0  0  0
    3.6110    4.0347    2.6093 C   0  0  0  0  0  0  0  0  0  0  0  0
    4.8877    4.6047    2.0678 C   0  0  0  0  0  0  0  0  0  0  0  0
    4.9213    5.9332    1.9624 C   0  0  0  0  0  0  0  0  0  0  0  0
    2.7991    6.3009    2.7455 C   0  0  0  0  0  0  0  0  0  0  0  0
    1.7470    7.2740    3.1488 C   0  0  0  0  0  0  0  0  0  0  0  0
    1.2657    8.1941    2.2182 C   0  0  0  0  0  0  0  0  0  0  0  0
    0.3897    9.2044    2.6351 C   0  0  0  0  0  0  0  0  0  0  0  0
   -0.0746    9.2593    3.9539 C   0  0  0  0  0  0  0  0  0  0  0  0
    0.2929    8.2356    4.8287 C   0  0  0  0  0  0  0  0  0  0  0  0
    1.2786    7.3139    4.4664 C   0  0  0  0  0  0  0  0  0  0  0  0
    8.6795    3.5927    2.1166 C   0  0  0  0  0  0  0  0  0  0  0  0
    0.2114    2.3514    2.6429 N   0  0  0  0  0  0  0  0  0  0  0  0
    2.5909    4.9389    2.9065 N   0  0  0  0  0  0  0  0  0  0  0  0
    3.9051    6.7900    2.2845 N   0  0  0  0  0  0  0  0  0  0  0  0
    6.0125    3.7399    1.8118 N   0  0  0  0  0  0  0  0  0  0  0  0
   -1.0597   10.1820    4.3185 N   0  0  0  0  0  0  0  0  0  0  0  0
   -1.9464    0.9892    3.4659 O   0  0  0  0  0  0  0  0  0  0  0  0
    0.3819    4.1182    1.1991 O   0  0  0  0  0  0  0  0  0  0  0  0
    3.5251    2.8213    2.7985 O   0  0  0  0  0  0  0  0  0  0  0  0
    7.5020    3.4189   -0.2037 O   0  0  0  0  0  0  0  0  0  0  0  0
    7.5962    5.6314    0.9848 O   0  0  0  0  0  0  0  0  0  0  0  0
   -2.3452    0.6376   -0.0544 F   0  0  0  0  0  0  0  0  0  0  0  0
   -3.9342    1.2591    1.3015 F   0  0  0  0  0  0  0  0  0  0  0  0
   -3.1148   -0.7588    1.4220 F   0  0  0  0  0  0  0  0  0  0  0  0
    7.4209    4.1928    1.0097 S   0  0  0  0  0  0  0  0  0  0  0  0
  1  2  1  0
  1 30  1  0
  1 31  1  0
  1 32  1  0
  2 25  2  0
  3 20  1  1
  3  4  1  0
  3  2  1  0
  4  5  1  0
  4  6  1  0
  7  8  1  0
  7 20  1  0
  7 26  2  0
  8 21  1  0
  9 10  1  0
  9 21  1  0
  9 27  2  0
 10 11  2  0
 10 23  1  0
 11 22  1  0
 12 13  1  0
 12 21  1  0
 12 22  2  0
 13 14  2  0
 13 18  1  0
 14 15  1  0
 15 16  2  0
 16 17  1  0
 16 24  1  0
 17 18  2  0
 19 33  1  0
 23 33  1  0
 28 33  2  0
 29 33  2  0
M  END
>  <DRUGBANK_ID>  (1) 
DB03202

>  <SECONDARY_ACCESSION_NUMBERS>  (1) 
EXPT03043

>  <COMMON_NAME>  (1) 
2-[5-Methanesulfonylamino-2-(4-Aminophenyl)-6-Oxo-1,6-Dihydro-1-Pyrimidinyl]-N-(3,3,3-Trifluoro-1-Isopropyl-2-Oxopropyl)Acetamide

$$$$
