
     RDKit          3D

 24 24  0  0  0  0  0  0  0  0999 V2000
    1.0258    0.2601   -0.2172 C   0  0  0  0  0  0  0  0  0  0  0  0
    0.5649   -1.0906   -0.6716 C   0  0  0  0  0  0  0  0  0  0  0  0
    1.0532   -2.3074    0.1583 C   0  0  0  0  0  0  0  0  0  0  0  0
    0.5271   -2.5928    1.4583 N   0  0  0  0  0  0  0  0  0  0  0  0
   -0.3062   -3.6980    1.7840 C   0  0  0  0  0  0  0  0  0  0  0  0
   -0.6641   -4.8801    0.7412 C   0  0  0  0  0  0  0  0  0  0  0  0
   -1.4734   -4.5170   -0.5490 C   0  0  0  0  0  0  0  0  0  0  0  0
   -0.7887   -3.6448   -1.5897 C   0  0  0  0  0  0  0  0  0  0  0  0
    0.5866   -4.0691   -2.2331 C   0  0  0  0  0  0  0  0  0  0  0  0
    1.5367   -4.5918   -1.4211 O   0  0  0  0  0  0  0  0  0  0  0  0
    0.9766   -1.6797    2.4869 C   0  0  0  0  0  0  0  0  0  0  0  0
    2.5196   -1.5611    2.5768 C   0  0  0  0  0  0  0  0  0  0  0  0
    3.3863   -1.0852    1.4005 C   0  0  0  0  0  0  0  0  0  0  0  0
   -0.7435   -3.8106    2.9382 O   0  0  0  0  0  0  0  0  0  0  0  0
    0.5387   -5.6701    0.4677 N   0  0  0  0  0  0  0  0  0  0  0  0
    0.6642   -7.0344    0.4759 C   0  0  0  0  0  0  0  0  0  0  0  0
    1.9500   -7.5877   -0.0802 C   0  0  0  0  0  0  0  0  0  0  0  0
   -0.2025   -7.7966    0.8858 O   0  0  0  0  0  0  0  0  0  0  0  0
    0.9107   -3.8364   -3.4036 O   0  0  0  0  0  0  0  0  0  0  0  0
    3.1956   -6.9702    0.1213 C   0  0  0  0  0  0  0  0  0  0  0  0
    4.3766   -7.6095   -0.2863 C   0  0  0  0  0  0  0  0  0  0  0  0
    4.3238   -8.8698   -0.8815 C   0  0  0  0  0  0  0  0  0  0  0  0
    3.0908   -9.4836   -1.0908 C   0  0  0  0  0  0  0  0  0  0  0  0
    1.9082   -8.8252   -0.7362 C   0  0  0  0  0  0  0  0  0  0  0  0
  1  2  1  0
  2  3  1  0
  3  4  1  0
  4  5  1  0
  4 11  1  0
  5 14  2  0
  5  6  1  0
  6  7  1  0
  6 15  1  0
  7  8  1  0
  8  9  1  0
  9 19  2  0
  9 10  1  0
 11 12  1  0
 12 13  1  0
 15 16  1  0
 16 17  1  0
 16 18  2  0
 17 20  2  0
 20 21  1  0
 21 22  2  0
 22 23  1  0
 23 24  2  0
 24 17  1  0
M  END
>  <DRUGBANK_ID>  (1) 
DB13431

>  <COMMON_NAME>  (1) 
Proglumide

>  <CAS_NUMBER>  (1) 
6620-60-6

>  <UNII>  (1) 
EPL8W5565D

>  <SYNONYMS>  (1) 
proglumida; Proglumide

$$$$
