2BL
     RDKit          3D

 21 21  0  0  0  0  0  0  0  0999 V2000
    1.0920   -0.0032    0.1366 C   0  0  0  0  0  0  0  0  0  0  0  0
    0.2815    0.3816   -1.1018 C   0  0  1  0  0  0  0  0  0  0  0  0
   -0.6253   -0.8121   -1.5283 C   0  0  1  0  0  0  0  0  0  0  0  0
   -1.5294   -1.1275   -0.3545 C   0  0  0  0  0  0  0  0  0  0  0  0
   -0.5442    1.6487   -0.7699 C   0  0  0  0  0  0  0  0  0  0  0  0
    0.2965    2.8094   -0.2790 C   0  0  0  0  0  0  0  0  0  0  0  0
   -3.6406   -2.1183   -2.2987 C   0  0  0  0  0  0  0  0  0  0  0  0
   -3.7014   -3.4499   -1.8814 C   0  0  0  0  0  0  0  0  0  0  0  0
   -4.4805   -1.1616   -1.7162 C   0  0  0  0  0  0  0  0  0  0  0  0
   -4.5703   -3.8177   -0.8506 C   0  0  0  0  0  0  0  0  0  0  0  0
   -5.3043   -1.5278   -0.6418 C   0  0  0  0  0  0  0  0  0  0  0  0
   -5.3684   -2.8602   -0.2130 C   0  0  0  0  0  0  0  0  0  0  0  0
   -6.2807   -3.2502    0.9144 C   0  0  0  0  0  0  0  0  0  0  0  0
   -2.5129   -0.4695   -0.0442 O   0  0  0  0  0  0  0  0  0  0  0  0
   -1.1134   -2.1138    0.4430 O   0  0  0  0  0  0  0  0  0  0  0  0
   -3.0901   -0.9871   -4.5760 O   0  0  0  0  0  0  0  0  0  0  0  0
   -1.5222   -2.7662   -3.7017 O   0  0  0  0  0  0  0  0  0  0  0  0
   -2.3995   -1.6390   -3.4838 S   0  0  0  0  0  0  0  0  0  0  0  0
   -1.4561   -0.4412   -2.7287 N   0  0  0  0  0  0  0  0  0  0  0  0
    0.5971   -0.1989    1.2381 O   0  0  0  0  0  0  0  0  0  0  0  0
    2.4284   -0.0383   -0.0356 O   0  0  0  0  0  0  0  0  0  0  0  0
  1  2  1  0
  1 20  2  0
  1 21  1  0
  2  3  1  0
  2  5  1  1
  3  4  1  0
  3 19  1  6
  4 14  2  0
  4 15  1  0
  5  6  1  0
  7  8  2  0
  7  9  1  0
  7 18  1  0
  8 10  1  0
  9 11  2  0
 10 12  2  0
 11 12  1  0
 12 13  1  0
 16 18  2  0
 17 18  2  0
 18 19  1  0
M  END
>  <DRUGBANK_ID>  (1) 
DB06951

>  <COMMON_NAME>  (1) 
(3R)-3-ethyl-N-[(4-methylphenyl)sulfonyl]-L-aspartic acid

$$$$
