1436
     RDKit          3D

 29 31  0  0  1  0  0  0  0  0999 V2000
   -1.9343    1.5744   -1.9945 O   0  0  0  0  0  0  0  0  0  0  0  0
    1.3264   -1.1145   -2.8327 O   0  0  0  0  0  0  0  0  0  0  0  0
    4.1861    4.6476   -2.0773 C   0  0  2  0  0  0  0  0  0  0  0  0
    5.7046    4.9970   -2.1056 C   0  0  2  0  0  0  0  0  0  0  0  0
    4.2052    3.4807   -1.0619 C   0  0  1  0  0  0  0  0  0  0  0  0
    6.1876    4.7745   -0.6471 C   0  0  0  0  0  0  0  0  0  0  0  0
    5.0859    3.9935    0.0724 C   0  0  0  0  0  0  0  0  0  0  0  0
    3.6278    4.0733   -3.3988 C   0  0  0  0  0  0  0  0  0  0  0  0
    6.2287    6.3434   -2.6742 C   0  0  1  0  0  0  0  0  0  0  0  0
    2.7984    3.0224   -0.8459 C   0  0  0  0  0  0  0  0  0  0  0  0
    3.2560    5.7641   -1.5339 C   0  0  0  0  0  0  0  0  0  0  0  0
    2.2128    3.5896   -3.2817 C   0  0  0  0  0  0  0  0  0  0  0  0
    2.1337    2.6161   -2.1466 C   0  0  0  0  0  0  0  0  0  0  0  0
    6.6930    6.1780   -4.1380 C   0  0  0  0  0  0  0  0  0  0  0  0
    5.3534    7.5770   -2.4605 C   0  0  0  0  0  0  0  0  0  0  0  0
    2.1668    2.9581    0.3520 C   0  0  0  0  0  0  0  0  0  0  0  0
    5.6511    5.6976   -5.1516 C   0  0  0  0  0  0  0  0  0  0  0  0
    4.4330    6.6196   -5.3628 C   0  0  0  0  0  0  0  0  0  0  0  0
    0.8485    2.3874    0.5169 C   0  0  0  0  0  0  0  0  0  0  0  0
    4.8592    8.0435   -5.7132 C   0  0  0  0  0  0  0  0  0  0  0  0
    0.4088    1.2035    0.0157 C   0  0  0  0  0  0  0  0  0  0  0  0
   -1.0495    0.8272    0.1392 C   0  0  0  0  0  0  0  0  0  0  0  0
    1.2084    0.2621   -0.7995 C   0  0  0  0  0  0  0  0  0  0  0  0
    5.4646    8.0045   -7.1040 C   0  0  0  0  0  0  0  0  0  0  0  0
    3.6997    9.0251   -5.5999 C   0  0  0  0  0  0  0  0  0  0  0  0
   -1.6955    0.4132   -1.1950 C   0  0  2  0  0  0  0  0  0  0  0  0
    0.5748   -0.1159   -2.1427 C   0  0  2  0  0  0  0  0  0  0  0  0
   -0.8527   -0.6019   -1.9640 C   0  0  0  0  0  0  0  0  0  0  0  0
    2.4568   -0.1104   -0.4468 C   0  0  0  0  0  0  0  0  0  0  0  0
  3  4  1  0
  3  5  1  0
  3  8  1  0
  3 11  1  1
  4  6  1  1
  4  9  1  0
  5  7  1  1
  5 10  1  0
  6  7  1  0
  8 12  1  0
  9 14  1  0
  9 15  1  6
 10 13  1  0
 10 16  2  0
 12 13  1  0
 14 17  1  0
 16 19  1  0
 17 18  1  0
 18 20  1  0
 19 21  2  0
 20 24  1  0
 20 25  1  0
 21 22  1  0
 21 23  1  0
 22 26  1  0
 23 27  1  0
 23 29  2  0
 26  1  1  6
 26 28  1  0
 27  2  1  1
 27 28  1  0
M  END
>  <DRUGBANK_ID>  (1) 
DB01436

>  <COMMON_NAME>  (1) 
Alfacalcidol

>  <CAS_NUMBER>  (1) 
41294-56-8

>  <UNII>  (1) 
URQ2517572

>  <SYNONYMS>  (1) 
(5Z,7E)-9,10-seco-5,7,10(19)-cholestatrien-1α,3β-diol; 1-hydroxycholecalciferol; 1alpha-hydroxycholecalciferol; 1α-hydroxy-vitamin D3; 1α-hydroxycholecalciferol; 1α-hydroxyvitamin D3; 9,10-secocholesta-5,7,10(19)-triene-1α,3β-diol; Alfacalcidol; Alfacalcidolum

$$$$
