XCF
     RDKit          3D

 26 29  0  0  0  0  0  0  0  0999 V2000
   -2.2380    1.3173   -0.1057 N   0  0  0  0  0  0  0  0  0  0  0  0
   -1.0911    0.5821   -0.0583 C   0  0  0  0  0  0  0  0  0  0  0  0
    0.1231    1.1439   -0.0418 N   0  0  0  0  0  0  0  0  0  0  0  0
   -1.3043   -0.7098   -0.0411 N   0  0  0  0  0  0  0  0  0  0  0  0
   -0.2072   -1.4637    0.0380 C   0  0  0  0  0  0  0  0  0  0  0  0
    1.1139   -1.0443    0.0747 C   0  0  0  0  0  0  0  0  0  0  0  0
    1.2090    0.3305    0.0033 C   0  0  0  0  0  0  0  0  0  0  0  0
    2.4206    0.9852    0.1143 N   0  0  0  0  0  0  0  0  0  0  0  0
    2.3068   -1.9921    0.1431 C   0  0  0  0  0  0  0  0  0  0  0  0
    2.3496   -2.9182    1.3514 C   0  0  0  0  0  0  0  0  0  0  0  0
    1.4038   -3.9377    1.5080 C   0  0  0  0  0  0  0  0  0  0  0  0
    0.4657   -4.3103    0.4396 C   0  0  0  0  0  0  0  0  0  0  0  0
   -0.5619   -5.0887    0.7219 C   0  0  0  0  0  0  0  0  0  0  0  0
   -0.4161   -6.0093    1.8778 C   0  0  1  0  0  0  0  0  0  0  0  0
    0.3562   -7.2749    1.5590 C   0  0  0  0  0  0  0  0  0  0  0  0
    1.7488   -7.3693    0.9452 C   0  0  0  0  0  0  0  0  0  0  0  0
    0.5476   -7.7393    0.1252 C   0  0  0  0  0  0  0  0  0  0  0  0
    0.1770   -5.3621    2.9989 O   0  0  0  0  0  0  0  0  0  0  0  0
    1.2827   -4.5905    2.7454 C   0  0  0  0  0  0  0  0  0  0  0  0
    2.2257   -4.4166    3.7682 C   0  0  0  0  0  0  0  0  0  0  0  0
    2.2026   -5.0979    4.9562 O   0  0  0  0  0  0  0  0  0  0  0  0
    1.1953   -6.0601    5.2142 C   0  0  0  0  0  0  0  0  0  0  0  0
    3.2830   -3.5118    3.5550 C   0  0  0  0  0  0  0  0  0  0  0  0
    3.3141   -2.7470    2.3676 C   0  0  0  0  0  0  0  0  0  0  0  0
    4.3360   -3.2511    4.4070 O   0  0  0  0  0  0  0  0  0  0  0  0
    4.3912   -3.9849    5.6295 C   0  0  0  0  0  0  0  0  0  0  0  0
  1  2  1  0
  2  3  2  0
  2  4  1  0
  3  7  1  0
  4  5  2  0
  5  6  1  0
  6  7  2  0
  6  9  1  0
  7  8  1  0
  9 10  1  0
 10 11  1  0
 10 24  2  0
 11 12  1  0
 11 19  2  0
 12 13  2  0
 13 14  1  0
 14 18  1  0
 14 15  1  6
 15 16  1  0
 15 17  1  0
 16 17  1  0
 18 19  1  0
 19 20  1  0
 20 21  1  0
 20 23  2  0
 21 22  1  0
 23 24  1  0
 23 25  1  0
 25 26  1  0
M  END
>  <DRUGBANK_ID>  (1) 
DB08741

>  <COMMON_NAME>  (1) 
5-[[(2R)-2-cyclopropyl-7,8-dimethoxy-2H-chromen-5-yl]methyl]pyrimidine-2,4-diamine

>  <UNII>  (1) 
RG4NWL6NKS

$$$$
