642
     RDKit          3D

 35 40  0  0  0  0  0  0  0  0999 V2000
    1.7856   -0.1837    0.8942 C   0  0  2  0  0  0  0  0  0  0  0  0
    0.5502   -0.0206    0.0065 C   0  0  2  0  0  0  0  0  0  0  0  0
    1.9175    0.1560   -0.5944 C   0  0  0  0  0  0  0  0  0  0  0  0
    2.3624   -1.4940    1.3463 C   0  0  0  0  0  0  0  0  0  0  0  0
    3.1883   -2.0938    0.6951 O   0  0  0  0  0  0  0  0  0  0  0  0
    1.9306   -1.9574    2.5511 O   0  0  0  0  0  0  0  0  0  0  0  0
   -0.3729    1.1563    0.0726 C   0  0  0  0  0  0  0  0  0  0  0  0
   -1.6414    0.6836   -0.0962 N   0  0  0  0  0  0  0  0  0  0  0  0
   -0.0242    2.3378    0.1955 O   0  0  0  0  0  0  0  0  0  0  0  0
   -1.6902   -0.7349    0.1453 C   0  0  1  0  0  0  0  0  0  0  0  0
   -0.3159   -1.2106   -0.3682 C   0  0  0  0  0  0  0  0  0  0  0  0
   -1.9538   -0.9967    1.6039 C   0  0  0  0  0  0  0  0  0  0  0  0
   -1.1190   -1.8313    2.3433 C   0  0  0  0  0  0  0  0  0  0  0  0
   -1.4746   -2.2617    3.5905 C   0  0  0  0  0  0  0  0  0  0  0  0
   -2.6515   -1.7471    4.1157 C   0  0  0  0  0  0  0  0  0  0  0  0
   -3.4993   -0.9315    3.4185 C   0  0  0  0  0  0  0  0  0  0  0  0
   -3.1359   -0.5212    2.1744 C   0  0  0  0  0  0  0  0  0  0  0  0
   -3.0179   -1.9462    5.3830 O   0  0  0  0  0  0  0  0  0  0  0  0
   -3.2032   -0.6884    6.1077 C   0  0  0  0  0  0  0  0  0  0  0  0
   -2.1493    0.8772    6.1580 C   0  0  0  0  0  0  0  0  0  0  0  0
   -0.6577    0.7714    8.5975 N   0  0  0  0  0  0  0  0  0  0  0  0
   -1.5509   -0.0361    8.0921 C   0  0  0  0  0  0  0  0  0  0  0  0
   -2.5916    0.5751    7.3879 C   0  0  0  0  0  0  0  0  0  0  0  0
   -0.8291    1.9673    8.1352 C   0  0  0  0  0  0  0  0  0  0  0  0
   -1.0533    2.0733    6.7952 C   0  0  0  0  0  0  0  0  0  0  0  0
   -0.3658    3.5433    6.7683 C   0  0  0  0  0  0  0  0  0  0  0  0
   -0.8704    4.6249    7.5957 C   0  0  0  0  0  0  0  0  0  0  0  0
   -1.8127    4.2037    8.4760 C   0  0  0  0  0  0  0  0  0  0  0  0
   -1.6913    2.8667    8.8042 C   0  0  0  0  0  0  0  0  0  0  0  0
   -1.1193   -1.4445    7.9501 C   0  0  0  0  0  0  0  0  0  0  0  0
   -0.9659   -2.1405    6.7497 C   0  0  0  0  0  0  0  0  0  0  0  0
   -1.2120   -3.5253    6.6687 C   0  0  0  0  0  0  0  0  0  0  0  0
   -1.0939   -4.2609    7.8128 C   0  0  0  0  0  0  0  0  0  0  0  0
   -0.8012   -3.5779    8.9852 C   0  0  0  0  0  0  0  0  0  0  0  0
   -0.9520   -2.1957    9.0799 C   0  0  0  0  0  0  0  0  0  0  0  0
  1  4  1  6
  2  1  1  0
  2  7  1  0
  2 11  1  6
  3  1  1  0
  3  2  1  0
  4  6  1  0
  5  4  2  0
  7  8  1  0
  8 10  1  0
  9  7  2  0
 10 12  1  1
 11 10  1  0
 12 17  1  0
 12 13  2  0
 13 14  1  0
 14 15  2  0
 15 18  1  0
 16 15  1  0
 17 16  2  0
 18 19  1  0
 19 20  1  0
 20 25  2  0
 21 24  2  0
 22 21  1  0
 23 20  1  0
 23 22  2  0
 24 29  1  0
 25 24  1  0
 25 26  1  0
 26 27  2  0
 27 28  1  0
 29 28  2  0
 30 22  1  0
 31 30  2  0
 32 31  1  0
 33 32  2  0
 34 33  1  0
 34 35  2  0
 35 30  1  0
M  END
>  <DRUGBANK_ID>  (1) 
DB07189

>  <COMMON_NAME>  (1) 
(1S,3R,6S)-4-oxo-6-{4-[(2-phenylquinolin-4-yl)methoxy]phenyl}-5-azaspiro[2.4]heptane-1-carboxylic acid

$$$$
