
     RDKit          3D

 22 21  0  0  0  0  0  0  0  0999 V2000
    1.0270    0.0888    0.1092 C   0  0  0  0  0  0  0  0  0  0  0  0
    0.3198   -0.2874   -0.9580 C   0  0  0  0  0  0  0  0  0  0  0  0
   -1.1783   -0.2284   -1.0021 C   0  0  0  0  0  0  0  0  0  0  0  0
   -1.6411    0.7235   -2.1068 C   0  0  0  0  0  0  0  0  0  0  0  0
   -1.1746    0.2536   -3.4906 C   0  0  0  0  0  0  0  0  0  0  0  0
   -1.7131   -1.1461   -3.8087 C   0  0  0  0  0  0  0  0  0  0  0  0
   -3.2441   -1.1465   -3.8202 C   0  0  0  0  0  0  0  0  0  0  0  0
   -3.7720   -0.1823   -4.8884 C   0  0  0  0  0  0  0  0  0  0  0  0
   -3.3487   -0.6237   -6.2957 C   0  0  0  0  0  0  0  0  0  0  0  0
   -3.8335   -2.0351   -6.6399 C   0  0  0  0  0  0  0  0  0  0  0  0
   -5.3448   -2.1287   -6.5587 C   0  0  0  0  0  0  0  0  0  0  0  0
   -5.9810   -2.4562   -7.7268 N   0  0  0  0  0  0  0  0  0  0  0  0
   -7.4433   -2.5359   -7.7594 C   0  0  1  0  0  0  0  0  0  0  0  0
   -5.9650   -1.9179   -5.5223 O   0  0  0  0  0  0  0  0  0  0  0  0
   -7.9815   -1.5459   -8.8331 C   0  0  0  0  0  0  0  0  0  0  0  0
   -8.0221   -3.9944   -7.7825 C   0  0  0  0  0  0  0  0  0  0  0  0
   -9.0781   -4.3089   -7.2675 O   0  0  0  0  0  0  0  0  0  0  0  0
   -7.2969   -4.8460   -8.5769 O   0  0  0  0  0  0  0  0  0  0  0  0
   -8.0511   -5.8852   -9.2535 C   0  0  0  0  0  0  0  0  0  0  0  0
   -7.5076   -1.7969  -10.2830 C   0  0  0  0  0  0  0  0  0  0  0  0
   -7.9717   -3.1372  -10.7973 C   0  0  0  0  0  0  0  0  0  0  0  0
   -8.0069   -0.7661  -11.2789 C   0  0  0  0  0  0  0  0  0  0  0  0
  1  2  2  0
  2  3  1  0
  3  4  1  0
  4  5  1  0
  5  6  1  0
  6  7  1  0
  7  8  1  0
  8  9  1  0
  9 10  1  0
 10 11  1  0
 11 12  1  0
 11 14  2  0
 12 13  1  0
 13 15  1  6
 13 16  1  0
 15 20  1  0
 16 17  2  0
 16 18  1  0
 18 19  1  0
 20 21  1  0
 20 22  1  0
M  END
>  <DRUGBANK_ID>  (1) 
DB11272

>  <COMMON_NAME>  (1) 
Methyl undecenoyl leucinate

>  <CAS_NUMBER>  (1) 
1246371-29-8

>  <UNII>  (1) 
D7PH6N3IEI

$$$$
