
     RDKit          3D

 12 11  0  0  0  0  0  0  0  0999 V2000
    0.5265    0.8356   -0.2434 C   0  0  0  0  0  0  0  0  0  0  0  0
   -0.1878   -0.0232   -1.3209 C   0  0  0  0  0  0  0  0  0  0  0  0
   -1.1811   -0.6742   -1.0225 O   0  0  0  0  0  0  0  0  0  0  0  0
    0.5021   -0.2912   -2.5274 N   0  0  0  0  0  0  0  0  0  0  0  0
    1.8965    0.8771   -3.1040 Br  0  0  0  0  0  0  0  0  0  0  0  0
    0.1161   -1.3992   -3.4891 C   0  0  0  0  0  0  0  0  0  0  0  0
    0.6357   -2.8655   -3.2508 C   0  0  0  0  0  0  0  0  0  0  0  0
    0.3718   -3.3875   -1.9430 O   0  0  0  0  0  0  0  0  0  0  0  0
    0.9485   -2.3300   -0.7012 P   0  0  0  0  0  0  0  0  0  0  0  0
    1.5522   -3.6898   -0.0085 O   0  0  0  0  0  0  0  0  0  0  0  0
    2.3284   -2.0844   -1.5767 O   0  0  0  0  0  0  0  0  0  0  0  0
    1.4646   -1.3835    0.4102 O   0  0  0  0  0  0  0  0  0  0  0  0
  1  2  1  0
  2  3  2  0
  2  4  1  0
  4  5  1  0
  4  6  1  0
  6  7  1  0
  7  8  1  0
  8  9  1  0
  9 10  1  0
  9 11  1  0
  9 12  2  0
M  END
>  <DRUGBANK_ID>  (1) 
DB02257

>  <SECONDARY_ACCESSION_NUMBERS>  (1) 
EXPT00655

>  <COMMON_NAME>  (1) 
N-Bromoacetyl-Aminoethyl Phosphate

$$$$
