
     RDKit          3D

 25 29  0  0  1  0  0  0  0  0999 V2000
   -2.6222   -0.0763   -0.2202 C   0  0  0  0  0  0  0  0  0  0  0  0
   -1.2670    0.8407   -0.1510 N   0  0  0  0  0  0  0  0  0  0  0  0
   -0.0291    0.7715    0.6999 C   0  0  2  0  0  0  0  0  0  0  0  0
    0.7397    2.1335    0.4267 C   0  0  0  0  0  0  0  0  0  0  0  0
    0.6625    2.0346   -0.9598 C   0  0  0  0  0  0  0  0  0  0  0  0
   -0.0188    0.5637   -0.8428 C   0  0  1  0  0  0  0  0  0  0  0  0
    1.0687   -1.3362   -0.7772 C   0  0  0  0  0  0  0  0  0  0  0  0
    1.8161   -1.7205    0.3248 C   0  0  2  0  0  0  0  0  0  0  0  0
    0.9153   -1.0202    1.2260 C   0  0  0  0  0  0  0  0  0  0  0  0
    3.0062   -1.0529    0.1607 O   0  0  0  0  0  0  0  0  0  0  0  0
    2.4842    0.2753   -0.0605 C   0  0  0  0  0  0  0  0  0  0  0  0
    1.9744    0.7885    1.8091 C   0  0  0  0  0  0  0  0  0  0  0  0
    2.6465    1.9907    2.2839 C   0  0  0  0  0  0  0  0  0  0  0  0
    1.9532    2.8954    3.1722 C   0  0  0  0  0  0  0  0  0  0  0  0
    0.6197    2.6776    3.6718 C   0  0  0  0  0  0  0  0  0  0  0  0
   -0.1533    1.5083    3.4205 C   0  0  0  0  0  0  0  0  0  0  0  0
    0.4076    0.4402    2.6414 C   0  0  0  0  0  0  0  0  0  0  0  0
   -1.0345   -0.6217    1.6808 C   0  0  0  0  0  0  0  0  0  0  0  0
   -0.8425   -1.3509   -0.2784 C   0  0  0  0  0  0  0  0  0  0  0  0
   -0.0130   -0.7842   -2.1364 C   0  0  0  0  0  0  0  0  0  0  0  0
    1.6593    0.1437   -1.9028 C   0  0  0  0  0  0  0  0  0  0  0  0
    2.0437    1.0088   -2.9160 C   0  0  0  0  0  0  0  0  0  0  0  0
    1.0182    1.0890   -3.9144 C   0  0  0  0  0  0  0  0  0  0  0  0
   -0.2758    0.2754   -4.0554 C   0  0  0  0  0  0  0  0  0  0  0  0
   -0.8043   -0.6942   -3.1896 C   0  0  0  0  0  0  0  0  0  0  0  0
  1  2  1  0
  3  2  1  0
  3  4  1  6
  3  9  1  0
  4  5  1  0
  6  5  1  1
  6  2  1  0
  6  7  1  0
  7  8  1  0
  8  9  1  0
  8 10  1  6
 10 11  1  0
 11 12  1  0
 11 21  1  0
 12 13  2  0
 12 17  1  0
 13 14  1  0
 14 15  2  0
 15 16  1  0
 16 17  2  0
 17 18  1  0
 18 19  1  0
 19 20  1  0
 20 21  2  0
 20 25  1  0
 21 22  1  0
 22 23  2  0
 23 24  1  0
 24 25  2  0
M  END
>  <DRUGBANK_ID>  (1) 
DB13466

>  <COMMON_NAME>  (1) 
Deptropine

>  <CAS_NUMBER>  (1) 
604-51-3

>  <UNII>  (1) 
AY31301GKG

>  <SYNONYMS>  (1) 
deptropina; Deptropine

$$$$
