TXS
     RDKit          3D

 21 23  0  0  0  0  0  0  0  0999 V2000
    0.9341    0.2152    5.3595 C   0  0  0  0  0  0  0  0  0  0  0  0
    1.8346   -0.4800    4.4472 C   0  0  0  0  0  0  0  0  0  0  0  0
    1.4799   -1.9209    4.5449 C   0  0  0  0  0  0  0  0  0  0  0  0
    0.0269   -1.9572    4.8988 C   0  0  0  0  0  0  0  0  0  0  0  0
   -0.3213   -0.5331    5.0690 N   0  0  0  0  0  0  0  0  0  0  0  0
   -0.9462   -0.0504    3.7624 C   0  0  0  0  0  0  0  0  0  0  0  0
   -0.2992   -0.1871    2.1992 C   0  0  2  0  0  0  0  0  0  0  0  0
    0.0040   -1.5783    1.7743 O   0  0  0  0  0  0  0  0  0  0  0  0
    0.9856    0.6154    1.7941 C   0  0  2  0  0  0  0  0  0  0  0  0
    0.8250    1.2437    0.5258 O   0  0  0  0  0  0  0  0  0  0  0  0
    2.1201   -0.4388    1.6014 C   0  0  0  0  0  0  0  0  0  0  0  0
    1.4090   -1.7509    1.2645 C   0  0  1  0  0  0  0  0  0  0  0  0
    2.0436   -3.1067    1.8110 N   0  0  0  0  0  0  0  0  0  0  0  0
    1.2453   -4.2587    1.7259 C   0  0  0  0  0  0  0  0  0  0  0  0
    1.4527   -5.3718    2.4500 C   0  0  0  0  0  0  0  0  0  0  0  0
    0.6831   -6.6477    2.3545 C   0  0  0  0  0  0  0  0  0  0  0  0
    2.5283   -5.3984    3.4730 C   0  0  0  0  0  0  0  0  0  0  0  0
    2.6996   -6.3118    4.2351 O   0  0  0  0  0  0  0  0  0  0  0  0
    3.3249   -4.2858    3.4507 N   0  0  0  0  0  0  0  0  0  0  0  0
    3.2092   -3.1734    2.6403 C   0  0  0  0  0  0  0  0  0  0  0  0
    4.0466   -2.2852    2.8140 O   0  0  0  0  0  0  0  0  0  0  0  0
  1  2  1  0
  1  5  1  0
  2  3  1  0
  3  4  1  0
  4  5  1  0
  5  6  1  0
  7  8  1  0
  7  9  1  0
  7  6  1  1
  8 12  1  0
  9 10  1  6
  9 11  1  0
 11 12  1  0
 12 13  1  1
 13 14  1  0
 13 20  1  0
 14 15  2  0
 15 16  1  0
 15 17  1  0
 17 18  2  0
 17 19  1  0
 19 20  1  0
 20 21  2  0
M  END
>  <DRUGBANK_ID>  (1) 
DB08661

>  <COMMON_NAME>  (1) 
1-(2,5-dideoxy-5-pyrrolidin-1-yl-beta-L-erythro-pentofuranosyl)-5-methylpyrimidine-2,4(1H,3H)-dione

$$$$
