
     RDKit          3D

 37 40  0  0  0  0  0  0  0  0999 V2000
    1.1219    0.1908    0.1435 O   0  0  0  0  0  0  0  0  0  0  0  0
   10.6762   -2.8056   -1.8656 O   0  0  0  0  0  0  0  0  0  0  0  0
    8.6911   -3.8756   -1.7734 O   0  0  0  0  0  0  0  0  0  0  0  0
    3.1146    1.0650   -0.6168 N   0  0  0  0  0  0  0  0  0  0  0  0
   -2.9724   -3.1041   -8.2489 N   0  0  0  0  0  0  0  0  0  0  0  0
    4.5321    1.0523   -0.7588 C   0  0  0  0  0  0  0  0  0  0  0  0
    2.3580    0.1389    0.1160 C   0  0  0  0  0  0  0  0  0  0  0  0
    2.3716    2.0140   -1.4933 C   0  0  0  0  0  0  0  0  0  0  0  0
    1.5654    1.3187   -2.5825 C   0  0  0  0  0  0  0  0  0  0  0  0
    3.0532   -0.9544    0.9289 C   0  0  0  0  0  0  0  0  0  0  0  0
   -0.0501   -0.0886   -4.4079 C   0  0  0  0  0  0  0  0  0  0  0  0
   -0.8277   -0.8336   -5.3832 C   0  0  0  0  0  0  0  0  0  0  0  0
    5.2471   -0.1312   -1.0084 C   0  0  0  0  0  0  0  0  0  0  0  0
    5.2333    2.2595   -0.6963 C   0  0  0  0  0  0  0  0  0  0  0  0
    6.6439   -0.1423   -1.0982 C   0  0  0  0  0  0  0  0  0  0  0  0
    1.7442   -0.0522   -2.8185 C   0  0  0  0  0  0  0  0  0  0  0  0
    0.5889    1.9985   -3.3236 C   0  0  0  0  0  0  0  0  0  0  0  0
    0.9302   -0.7549   -3.6827 C   0  0  0  0  0  0  0  0  0  0  0  0
   -0.2352    1.2877   -4.2042 C   0  0  0  0  0  0  0  0  0  0  0  0
   -1.6161   -1.9134   -4.9919 C   0  0  0  0  0  0  0  0  0  0  0  0
   -0.7664   -0.5099   -6.7352 C   0  0  0  0  0  0  0  0  0  0  0  0
    2.5507   -2.3442    0.4981 C   0  0  0  0  0  0  0  0  0  0  0  0
    2.8092   -0.6875    2.4081 C   0  0  0  0  0  0  0  0  0  0  0  0
    6.6117    2.2789   -0.8703 C   0  0  0  0  0  0  0  0  0  0  0  0
    7.3115    1.0846   -1.0191 C   0  0  0  0  0  0  0  0  0  0  0  0
   -2.2947   -2.3398   -7.3103 C   0  0  0  0  0  0  0  0  0  0  0  0
   -2.3310   -2.6490   -5.9393 C   0  0  0  0  0  0  0  0  0  0  0  0
   -1.5322   -1.2157   -7.6634 C   0  0  0  0  0  0  0  0  0  0  0  0
    7.3406   -1.4270   -1.3024 C   0  0  0  0  0  0  0  0  0  0  0  0
    3.1464   -3.4449    1.3723 C   0  0  0  0  0  0  0  0  0  0  0  0
    3.4059   -1.7973    3.2646 C   0  0  0  0  0  0  0  0  0  0  0  0
    2.8811   -3.1687    2.8491 C   0  0  0  0  0  0  0  0  0  0  0  0
    8.6699   -1.5307   -1.4640 C   0  0  0  0  0  0  0  0  0  0  0  0
    9.3297   -2.8243   -1.7083 C   0  0  0  0  0  0  0  0  0  0  0  0
   -2.8717   -2.8741   -9.6844 C   0  0  0  0  0  0  0  0  0  0  0  0
   -3.6542   -4.3297   -7.8420 C   0  0  0  0  0  0  0  0  0  0  0  0
   11.4711   -1.6080   -1.8016 C   0  0  0  0  0  0  0  0  0  0  0  0
  1  7  2  0
  2 34  1  0
  2 37  1  0
  3 34  2  0
  4  6  1  0
  4  7  1  0
  4  8  1  0
  5 26  1  0
  5 35  1  0
  5 36  1  0
  6 13  2  0
  6 14  1  0
  7 10  1  0
  8  9  1  0
  9 16  2  0
  9 17  1  0
 10 22  1  0
 10 23  1  0
 11 12  1  0
 11 18  2  0
 11 19  1  0
 12 20  2  0
 12 21  1  0
 13 15  1  0
 14 24  2  0
 15 25  2  0
 15 29  1  0
 16 18  1  0
 17 19  2  0
 20 27  1  0
 21 28  2  0
 22 30  1  0
 23 31  1  0
 24 25  1  0
 26 27  2  0
 26 28  1  0
 29 33  2  0
 30 32  1  0
 31 32  1  0
 33 34  1  0
M  END
>  <DRUGBANK_ID>  (1) 
DB02545

>  <SECONDARY_ACCESSION_NUMBERS>  (1) 
EXPT01424

>  <COMMON_NAME>  (1) 
Fexaramine

>  <CAS_NUMBER>  (1) 
574013-66-4

>  <UNII>  (1) 
WTG9GFA65U

$$$$
