INV
     RDKit          3D

 21 22  0  0  0  0  0  0  0  0999 V2000
    1.2143   -0.3109    0.2097 C   0  0  0  0  0  0  0  0  0  0  0  0
    0.3470   -1.3738    0.0632 C   0  0  0  0  0  0  0  0  0  0  0  0
   -1.0008   -1.1185   -0.0216 C   0  0  0  0  0  0  0  0  0  0  0  0
   -1.4599    0.2024   -0.0178 C   0  0  0  0  0  0  0  0  0  0  0  0
   -0.5333    1.2694   -0.0032 C   0  0  0  0  0  0  0  0  0  0  0  0
    0.8463    1.0204    0.0138 C   0  0  0  0  0  0  0  0  0  0  0  0
    1.8101    2.1639   -0.2125 C   0  0  0  0  0  0  0  0  0  0  0  0
    1.3723    3.3121   -0.3086 O   0  0  0  0  0  0  0  0  0  0  0  0
    3.1683    1.9935   -0.3854 N   0  0  0  0  0  0  0  0  0  0  0  0
    3.9813    0.8030   -0.4033 C   0  0  0  0  0  0  0  0  0  0  0  0
   -2.0679   -2.5207   -0.0066 S   0  0  0  0  0  0  0  0  0  0  0  0
   -2.9180   -2.3272    1.4325 N   0  0  0  0  0  0  0  0  0  0  0  0
   -2.9870   -2.4153   -1.1020 O   0  0  0  0  0  0  0  0  0  0  0  0
   -1.2561   -3.7062    0.2139 O   0  0  0  0  0  0  0  0  0  0  0  0
    4.6075    0.4316   -1.7030 C   0  0  0  0  0  0  0  0  0  0  0  0
    5.2655    1.3921   -2.4565 C   0  0  0  0  0  0  0  0  0  0  0  0
    5.9360    1.0084   -3.6061 C   0  0  0  0  0  0  0  0  0  0  0  0
    5.9635   -0.3326   -3.9821 C   0  0  0  0  0  0  0  0  0  0  0  0
    5.3232   -1.3108   -3.2350 C   0  0  0  0  0  0  0  0  0  0  0  0
    4.6015   -0.9234   -2.1162 C   0  0  0  0  0  0  0  0  0  0  0  0
    6.6112   -0.6837   -5.0983 F   0  0  0  0  0  0  0  0  0  0  0  0
  1  2  2  0
  1  6  1  0
  2  3  1  0
  3  4  2  0
  3 11  1  0
  4  5  1  0
  5  6  2  0
  6  7  1  0
  7  8  2  0
  7  9  1  0
  9 10  1  0
 10 15  1  0
 11 12  1  0
 11 13  2  0
 11 14  2  0
 15 16  2  0
 15 20  1  0
 16 17  1  0
 17 18  2  0
 18 19  1  0
 18 21  1  0
 19 20  2  0
M  END
>  <DRUGBANK_ID>  (1) 
DB02429

>  <SECONDARY_ACCESSION_NUMBERS>  (1) 
EXPT01895

>  <COMMON_NAME>  (1) 
4-(Aminosulfonyl)-N-[(4-Fluorophenyl)Methyl]-Benzamide

$$$$
