
     RDKit          3D

 31 34  0  0  1  0  0  0  0  0999 V2000
   -0.3733    3.7710    0.0839 C   0  0  0  0  0  0  0  0  0  0  0  0
   -0.8705    2.4499   -0.0815 O   0  0  0  0  0  0  0  0  0  0  0  0
   -2.0539    2.3245   -0.7592 C   0  0  0  0  0  0  0  0  0  0  0  0
   -2.3272    2.9928   -1.9533 C   0  0  0  0  0  0  0  0  0  0  0  0
   -3.5008    2.7265   -2.6733 C   0  0  0  0  0  0  0  0  0  0  0  0
   -4.3887    1.7500   -2.2196 C   0  0  0  0  0  0  0  0  0  0  0  0
   -4.1070    1.0607   -1.0409 C   0  0  0  0  0  0  0  0  0  0  0  0
   -2.9642    1.3757   -0.2723 C   0  0  0  0  0  0  0  0  0  0  0  0
   -2.7692    0.7621    1.0973 C   0  0  0  0  0  0  0  0  0  0  0  0
   -3.8511    1.1977    1.9822 N   0  0  0  0  0  0  0  0  0  0  0  0
   -3.7804    0.5600    3.3042 C   0  0  1  0  0  0  0  0  0  0  0  0
   -4.4828    1.4426    4.3509 C   0  0  0  0  0  0  0  0  0  0  0  0
   -4.3482    0.8245    5.7438 C   0  0  0  0  0  0  0  0  0  0  0  0
   -4.7899   -0.6301    5.7583 C   0  0  0  0  0  0  0  0  0  0  0  0
   -4.1162   -1.4278    4.7295 N   0  0  0  0  0  0  0  0  0  0  0  0
   -4.3665   -0.9072    3.3654 C   0  0  1  0  0  0  0  0  0  0  0  0
   -5.8290   -1.0697    2.9048 C   0  0  0  0  0  0  0  0  0  0  0  0
   -6.2448   -0.5462    1.6785 C   0  0  0  0  0  0  0  0  0  0  0  0
   -7.5731   -0.5850    1.2505 C   0  0  0  0  0  0  0  0  0  0  0  0
   -8.5285   -1.1724    2.0618 C   0  0  0  0  0  0  0  0  0  0  0  0
   -8.1483   -1.7566    3.2583 C   0  0  0  0  0  0  0  0  0  0  0  0
   -6.8081   -1.7369    3.6557 C   0  0  0  0  0  0  0  0  0  0  0  0
   -5.5729    1.4557   -2.9328 N   0  0  0  0  0  0  0  0  0  0  0  0
   -5.7730    1.1747   -4.2616 C   0  0  0  0  0  0  0  0  0  0  0  0
   -7.0779    1.1026   -4.4825 N   0  0  0  0  0  0  0  0  0  0  0  0
   -7.6807    1.3088   -3.2743 N   0  0  0  0  0  0  0  0  0  0  0  0
   -6.7789    1.4644   -2.3153 N   0  0  0  0  0  0  0  0  0  0  0  0
   -4.6940    0.8560   -5.2026 C   0  0  0  0  0  0  0  0  0  0  0  0
   -4.7986   -0.4108   -5.6826 F   0  0  0  0  0  0  0  0  0  0  0  0
   -4.7069    1.6866   -6.2763 F   0  0  0  0  0  0  0  0  0  0  0  0
   -3.4471    0.9432   -4.6757 F   0  0  0  0  0  0  0  0  0  0  0  0
  1  2  1  0
  2  3  1  0
  3  4  2  0
  3  8  1  0
  4  5  1  0
  5  6  2  0
  6  7  1  0
  6 23  1  0
  7  8  2  0
  8  9  1  0
  9 10  1  0
 11 12  1  0
 11 16  1  0
 11 10  1  6
 12 13  1  0
 13 14  1  0
 14 15  1  0
 15 16  1  0
 16 17  1  1
 17 18  2  0
 17 22  1  0
 18 19  1  0
 19 20  2  0
 20 21  1  0
 21 22  2  0
 23 24  1  0
 23 27  1  0
 24 25  2  0
 24 28  1  0
 25 26  1  0
 26 27  2  0
 28 29  1  0
 28 30  1  0
 28 31  1  0
M  END
>  <DRUGBANK_ID>  (1) 
DB12436

>  <COMMON_NAME>  (1) 
Vofopitant

>  <CAS_NUMBER>  (1) 
168266-90-8

>  <UNII>  (1) 
K08BK043YS

>  <SYNONYMS>  (1) 
Vofopitant

$$$$
