
     RDKit          3D

 32 35  0  0  0  0  0  0  0  0999 V2000
    2.9399    1.3356   -0.5817 O   0  0  0  0  0  0  0  0  0  0  0  0
    3.0104    2.7009    0.3246 S   0  0  0  0  0  0  0  0  0  0  0  0
    1.5648    2.7256    1.0472 O   0  0  0  0  0  0  0  0  0  0  0  0
    4.0205    2.5601    1.3353 O   0  0  0  0  0  0  0  0  0  0  0  0
    3.0126    3.8435   -0.5776 O   0  0  0  0  0  0  0  0  0  0  0  0
    2.5061   -2.4118   -0.0866 C   0  0  0  0  0  0  0  0  0  0  0  0
    2.9753   -1.1123   -0.7661 C   0  0  0  0  0  0  0  0  0  0  0  0
    2.4838    0.1176    0.0187 C   0  0  1  0  0  0  0  0  0  0  0  0
    2.9907    0.0077    1.4522 C   0  0  0  0  0  0  0  0  0  0  0  0
    2.5551   -1.2145    2.1485 C   0  0  0  0  0  0  0  0  0  0  0  0
    1.9370   -1.0865    3.3369 C   0  0  0  0  0  0  0  0  0  0  0  0
    2.8507   -2.5119    1.4389 C   0  0  2  0  0  0  0  0  0  0  0  0
    2.1949   -4.9515    1.6183 C   0  0  0  0  0  0  0  0  0  0  0  0
    1.3904   -6.0388    2.3387 C   0  0  0  0  0  0  0  0  0  0  0  0
    1.6862   -6.0097    3.8653 C   0  0  1  0  0  0  0  0  0  0  0  0
    1.1060   -4.6654    4.2726 C   0  0  1  0  0  0  0  0  0  0  0  0
    0.9967   -4.8467    5.7755 C   0  0  0  0  0  0  0  0  0  0  0  0
    0.5234   -6.3108    5.9494 C   0  0  0  0  0  0  0  0  0  0  0  0
    0.7789   -7.0574    4.6201 C   0  0  2  0  0  0  0  0  0  0  0  0
    3.1976   -5.9031    4.4098 C   0  0  0  0  0  0  0  0  0  0  0  0
    4.3809   -2.7941    1.5510 C   0  0  0  0  0  0  0  0  0  0  0  0
    1.9073   -3.5650    2.1150 C   0  0  1  0  0  0  0  0  0  0  0  0
    0.5488   -9.4039    5.8436 C   0  0  0  0  0  0  0  0  0  0  0  0
    1.9559   -3.5226    3.6707 C   0  0  1  0  0  0  0  0  0  0  0  0
    1.4459   -2.2053    4.1731 C   0  0  0  0  0  0  0  0  0  0  0  0
    3.7240   -9.1418    4.0849 C   0  0  0  0  0  0  0  0  0  0  0  0
    3.5834   -8.8071    2.5650 C   0  0  0  0  0  0  0  0  0  0  0  0
    4.0885   -7.4524    2.0368 C   0  0  0  0  0  0  0  0  0  0  0  0
    5.4230   -6.9076    2.5356 C   0  0  0  0  0  0  0  0  0  0  0  0
    2.7430   -8.6162    5.1574 C   0  0  0  0  0  0  0  0  0  0  0  0
    1.2732   -8.5640    4.7739 C   0  0  2  0  0  0  0  0  0  0  0  0
    3.8111   -7.1407    0.5592 C   0  0  0  0  0  0  0  0  0  0  0  0
  1  2  1  0
  2  3  1  0
  2  4  2  0
  2  5  2  0
  6 12  1  0
  7  6  1  0
  8  9  1  0
  8  7  1  0
  8  1  1  6
  9 10  1  0
 10 12  1  0
 11 25  1  0
 11 10  2  0
 12 22  1  0
 12 21  1  6
 22 13  1  6
 13 14  1  0
 14 15  1  0
 15 20  1  6
 16 15  1  0
 16 17  1  1
 19 18  1  1
 18 17  1  0
 19 15  1  0
 19 31  1  0
 24 16  1  0
 24 22  1  0
 24 25  1  1
 27 26  1  0
 28 27  1  0
 29 28  1  0
 30 26  1  0
 31 30  1  0
 31 23  1  1
 32 28  1  0
M  END
>  <DRUGBANK_ID>  (1) 
DB01990

>  <SECONDARY_ACCESSION_NUMBERS>  (1) 
EXPT00810; DBSALT002202

>  <COMMON_NAME>  (1) 
Cholesterol sulfate

>  <CAS_NUMBER>  (1) 
1256-86-6

>  <UNII>  (1) 
KU576NT9O9

>  <SYNONYMS>  (1) 
Cholest-5-en-3beta-ol sulfate; Cholesterol 3-sulfate; Cholesterol 3-sulphate; Cholesterol hydrogen sulfate; Cholesterol hydrogen sulphate; Cholesterol sulphate; Cholesterol-Sulfate; Cholesteryl sulphate

$$$$
