
     RDKit          3D

 26 27  0  0  0  0  0  0  0  0999 V2000
    0.9824   -0.1370   -0.0675 O   0  0  0  0  0  0  0  0  0  0  0  0
    5.1204   -0.8016    3.9921 O   0  0  0  0  0  0  0  0  0  0  0  0
   -0.5697    8.8930   -2.5088 O   0  0  0  0  0  0  0  0  0  0  0  0
    0.7401    7.1534   -2.0128 O   0  0  0  0  0  0  0  0  0  0  0  0
    0.1066    1.9348    2.5575 C   0  0  1  0  0  0  0  0  0  0  0  0
   -1.0757    1.6059    1.6463 C   0  0  2  0  0  0  0  0  0  0  0  0
    1.2159    0.9701    2.0891 C   0  0  2  0  0  0  0  0  0  0  0  0
   -0.9768    0.1258    1.3322 C   0  0  0  0  0  0  0  0  0  0  0  0
    0.5253   -0.1552    1.2863 C   0  0  1  0  0  0  0  0  0  0  0  0
    0.4422    3.4093    2.2645 C   0  0  0  0  0  0  0  0  0  0  0  0
   -0.8339    2.4166    0.3976 C   0  0  0  0  0  0  0  0  0  0  0  0
   -0.1784    3.6479    0.9140 C   0  0  0  0  0  0  0  0  0  0  0  0
    1.9935    0.3997    3.2377 C   0  0  0  0  0  0  0  0  0  0  0  0
   -0.1702    4.7790    0.2035 C   0  0  0  0  0  0  0  0  0  0  0  0
    3.3166    0.5657    3.3754 C   0  0  0  0  0  0  0  0  0  0  0  0
   -0.8583    4.8993   -1.1357 C   0  0  0  0  0  0  0  0  0  0  0  0
    4.0888    0.0139    4.5332 C   0  0  2  0  0  0  0  0  0  0  0  0
   -1.9317    5.9855   -1.1121 C   0  0  0  0  0  0  0  0  0  0  0  0
    4.6854    1.1356    5.3997 C   0  0  1  0  0  0  0  0  0  0  0  0
   -1.3567    7.3680   -0.8086 C   0  0  0  0  0  0  0  0  0  0  0  0
    3.5825    2.0569    5.9666 C   0  0  0  0  0  0  0  0  0  0  0  0
    5.5308    0.5522    6.5367 C   0  0  0  0  0  0  0  0  0  0  0  0
   -0.2973    7.7691   -1.8188 C   0  0  0  0  0  0  0  0  0  0  0  0
    2.6277    1.3277    6.8288 C   0  0  0  0  0  0  0  0  0  0  0  0
    1.8819    0.6783    7.5236 C   0  0  0  0  0  0  0  0  0  0  0  0
    0.9924   -0.1201    8.3711 C   0  0  0  0  0  0  0  0  0  0  0  0
  3 23  1  0
  4 23  2  0
  5  6  1  0
  5  7  1  0
  5 10  1  6
  6  8  1  6
  6 11  1  0
  7  9  1  0
  7 13  1  1
  8  9  1  0
  9  1  1  6
 10 12  1  0
 11 12  1  0
 12 14  2  0
 13 15  2  0
 14 16  1  0
 15 17  1  0
 16 18  1  0
 17  2  1  6
 17 19  1  0
 18 20  1  0
 19 21  1  0
 19 22  1  1
 20 23  1  0
 21 24  1  0
 24 25  3  0
 25 26  1  0
M  END
>  <DRUGBANK_ID>  (1) 
DB01088

>  <SECONDARY_ACCESSION_NUMBERS>  (1) 
APRD01027

>  <COMMON_NAME>  (1) 
Iloprost

>  <CAS_NUMBER>  (1) 
78919-13-8

>  <UNII>  (1) 
JED5K35YGL

>  <SYNONYMS>  (1) 
(5E)-[3aS,4R,5R,6aS)-5-Hydroxy-4-[(1E)-(3S,4RS)-3-hydroxy-4-methyloct-1-en-6-ynyl]-hexahydropentalen-2(1H)-ylidene]pentanoic acid; (E)-(3aS, 4R, 5R, 6aS)-hexahydro-5-hydroxy-4-[(E)-(3S,4RS)­ 3-hydroxy-4-methyl-1-octen-6-ynyl]-Δ2(1H),Δ-pentalenevaleric acid; Iloprost; PENTANOIC ACID, 5-((3AS,4R,5R,6AS)-HEXAHYDRO-5-HYDROXY-4-((1E,3S)-3-HYDROXY-4-METHYL-1-OCTEN-6-YNYL)-2(1H)-PENTALENYLIDENE)-, (5E)-

$$$$
