
     RDKit          3D

  9  8  0  0  1  0  0  0  0  0999 V2000
   -4.0402   -3.2403   -3.7234 C   0  0  0  0  0  0  0  0  0  0  0  0
   -2.6802   -3.8981   -3.8348 C   0  0  0  0  0  0  0  0  0  0  0  0
   -1.5638   -2.9229   -4.2352 C   0  0  0  0  0  0  0  0  0  0  0  0
   -1.4179   -1.7084   -3.3081 C   0  0  0  0  0  0  0  0  0  0  0  0
   -0.8665   -1.9992   -1.8919 C   0  0  2  0  0  0  0  0  0  0  0  0
    0.6023   -1.8741   -1.9195 N   0  0  0  0  0  0  0  0  0  0  0  0
   -1.1586   -3.4114   -1.3219 C   0  0  0  0  0  0  0  0  0  0  0  0
   -2.1421   -3.4657   -0.3920 O   0  0  0  0  0  0  0  0  0  0  0  0
   -0.5806   -4.4210   -1.6967 O   0  0  0  0  0  0  0  0  0  0  0  0
  1  2  1  0
  2  3  1  0
  3  4  1  0
  5  7  1  0
  5  6  1  6
  5  4  1  0
  7  8  1  0
  7  9  2  0
M  END
>  <DRUGBANK_ID>  (1) 
DB15458

>  <COMMON_NAME>  (1) 
Norleucine

>  <CAS_NUMBER>  (1) 
327-57-1

>  <UNII>  (1) 
832C8OV84S

>  <SYNONYMS>  (1) 
L-NORLEUCINE

$$$$
