
     RDKit          3D

 19 19  0  0  1  0  0  0  0  0999 V2000
    0.9931    0.0640   -0.0766 Cl  0  0  0  0  0  0  0  0  0  0  0  0
    1.0551   -0.0628    0.0550 S   0  0  0  0  0  0  0  0  0  0  0  0
    1.7328    2.3047    1.4524 O   0  0  0  0  0  0  0  0  0  0  0  0
    1.5460    2.2577   -2.0072 O   0  0  0  0  0  0  0  0  0  0  0  0
    3.7578    3.1586   -0.0026 O   0  0  0  0  0  0  0  0  0  0  0  0
   -0.0775    4.7152   -0.6852 O   0  0  0  0  0  0  0  0  0  0  0  0
   -0.0895    3.3658    3.5421 O   0  0  0  0  0  0  0  0  0  0  0  0
    3.3252    1.0795    0.1176 N   0  0  0  0  0  0  0  0  0  0  0  0
    3.3664   -1.2775   -0.0115 N   0  0  0  0  0  0  0  0  0  0  0  0
    5.3842   -2.6079    0.1742 N   0  0  0  0  0  0  0  0  0  0  0  0
    1.7733    3.1000   -0.8868 C   0  0  2  0  0  0  0  0  0  0  0  0
    2.5998    2.3566    0.1774 C   0  0  1  0  0  0  0  0  0  0  0  0
    0.4325    3.4740   -0.2209 C   0  0  1  0  0  0  0  0  0  0  0  0
    0.7533    3.4940    1.2974 C   0  0  1  0  0  0  0  0  0  0  0  0
   -0.4808    3.3788    2.1771 C   0  0  0  0  0  0  0  0  0  0  0  0
    4.7154    1.0486    0.1256 C   0  0  0  0  0  0  0  0  0  0  0  0
    2.6750   -0.0628    0.0550 C   0  0  0  0  0  0  0  0  0  0  0  0
    5.3178   -0.1498    0.5694 C   0  0  0  0  0  0  0  0  0  0  0  0
    4.6573   -1.3320    0.2397 C   0  0  0  0  0  0  0  0  0  0  0  0
  2 17  2  0
  3 12  1  0
  3 14  1  0
  7 15  1  0
  8 12  1  0
  8 16  1  0
  8 17  1  0
  9 17  1  0
  9 19  2  0
 10 19  1  0
 11 12  1  0
 11 13  1  0
 11  4  1  6
 12  5  1  1
 13  6  1  6
 13 14  1  0
 14 15  1  1
 16 18  2  0
 18 19  1  0
M  END
>  <DRUGBANK_ID>  (1) 
DB05837

>  <COMMON_NAME>  (1) 
OSI-7836

>  <UNII>  (1) 
YCO2764D5Z

$$$$
