
     RDKit          3D

 10  9  0  0  1  0  0  0  0  0999 V2000
    0.9730    0.0521    0.0180 O   0  0  0  0  0  0  0  0  0  0  0  0
    2.1991   -0.0105    0.0240 C   0  0  0  0  0  0  0  0  0  0  0  0
    3.0464    0.7501   -0.9782 C   0  0  0  0  0  0  0  0  0  0  0  0
    3.8561    1.9001   -0.3936 C   0  0  0  0  0  0  0  0  0  0  0  0
    4.9325    1.4674    0.5626 C   0  0  0  0  0  0  0  0  0  0  0  0
    6.0973    1.2602    0.3043 O   0  0  0  0  0  0  0  0  0  0  0  0
    2.9021   -0.9075    1.0661 C   0  0  0  0  0  0  0  0  0  0  0  0
    2.4044   -1.2750    2.1138 O   0  0  0  0  0  0  0  0  0  0  0  0
    4.1741   -1.1975    0.7631 O   0  0  0  0  0  0  0  0  0  0  0  0
    4.4334    1.2101    1.7909 O   0  0  0  0  0  0  0  0  0  0  0  0
  2  3  1  0
  2  7  1  0
  2  1  2  0
  3  4  1  0
  4  5  1  0
  5  6  2  0
  5 10  1  0
  7  8  2  0
  7  9  1  0
M  END
>  <DRUGBANK_ID>  (1) 
DB08845

>  <SECONDARY_ACCESSION_NUMBERS>  (1) 
DB02926; DB03806; EXPT00137

>  <COMMON_NAME>  (1) 
Oxogluric acid

>  <CAS_NUMBER>  (1) 
328-50-7

>  <UNII>  (1) 
8ID597Z82X

>  <SYNONYMS>  (1) 
2-Ketoglutaric acid; 2-oxoglutaric acid; 2-oxopentanedioic acid; alpha-Ketoglutaric acid; Ketoglutaric acid; Oxoglurate; Î±-Ketoglutarate

$$$$
