
     RDKit          3D

 36 39  0  0  0  0  0  0  0  0999 V2000
    1.0809   -2.4888    0.4678 C   0  0  0  0  0  0  0  0  0  0  0  0
    0.5743   -1.4129   -0.4788 C   0  0  2  0  0  0  0  0  0  0  0  0
    1.0809   -0.0551   -0.0204 C   0  0  0  0  0  0  0  0  0  0  0  0
    2.0014   -0.3968    1.6760 Se  0  0  0  0  0  2  0  0  0  0  0  0
    0.6837   -0.8486    3.0548 C   0  0  0  0  0  0  0  0  0  0  0  0
   -0.2853    0.3095    3.2285 C   0  0  0  0  0  0  0  0  0  0  0  0
   -1.5273    0.1351    3.0231 O   0  0  0  0  0  0  0  0  0  0  0  0
    0.2141    1.6313    3.6340 N   0  0  0  0  0  0  0  0  0  0  0  0
    1.6507    1.8330    3.8716 C   0  0  0  0  0  0  0  0  0  0  0  0
    2.1766    2.8974    2.9225 C   0  0  0  0  0  0  0  0  0  0  0  0
    1.2936    4.4511    3.2094 S   0  0  0  0  0  0  0  0  0  0  0  0
    1.5388    4.9563    4.8245 O   0  0  0  0  0  0  0  0  0  0  0  0
    1.8232    5.5228    2.2537 O   0  0  0  0  0  0  0  0  0  0  0  0
   -0.2020    4.2411    2.9620 O   0  0  0  0  0  0  0  0  0  0  0  0
   -0.9457   -1.4129   -0.4788 C   0  0  1  0  0  0  0  0  0  0  0  0
   -1.4980   -2.8467   -0.2536 C   0  0  0  0  0  0  0  0  0  0  0  0
   -2.6499   -2.7450    0.7691 C   0  0  0  0  0  0  0  0  0  0  0  0
   -2.8990   -1.2329    0.8654 C   0  0  1  0  0  0  0  0  0  0  0  0
   -3.7216   -0.7238    2.0363 C   0  0  2  0  0  0  0  0  0  0  0  0
   -5.0671   -1.4637    2.1535 C   0  0  2  0  0  0  0  0  0  0  0  0
   -5.7892   -1.4031    0.9216 O   0  0  0  0  0  0  0  0  0  0  0  0
   -5.9211   -0.8873    3.2732 C   0  0  0  0  0  0  0  0  0  0  0  0
   -6.0820    0.6452    3.2248 C   0  0  2  0  0  0  0  0  0  0  0  0
   -7.0517    1.0473    2.1215 C   0  0  0  0  0  0  0  0  0  0  0  0
   -7.2522    2.5526    2.0193 C   0  0  2  0  0  0  0  0  0  0  0  0
   -8.0854    2.8339    0.8739 O   0  0  0  0  0  0  0  0  0  0  0  0
   -5.9087    3.2522    1.8416 C   0  0  0  0  0  0  0  0  0  0  0  0
   -4.9804    2.8802    3.0009 C   0  0  0  0  0  0  0  0  0  0  0  0
   -4.7001    1.3685    3.1424 C   0  0  1  0  0  0  0  0  0  0  0  0
   -3.9348    1.1792    4.4705 C   0  0  0  0  0  0  0  0  0  0  0  0
   -3.8972    0.8017    1.9388 C   0  0  1  0  0  0  0  0  0  0  0  0
   -2.5369    1.4946    1.7330 C   0  0  0  0  0  0  0  0  0  0  0  0
   -1.6881    0.9148    0.5768 C   0  0  2  0  0  0  0  0  0  0  0  0
   -2.3163    1.2249   -0.6852 O   0  0  0  0  0  0  0  0  0  0  0  0
   -1.5001   -0.6020    0.7316 C   0  0  2  0  0  0  0  0  0  0  0  0
   -0.6220   -0.8812    1.9853 C   0  0  0  0  0  0  0  0  0  0  0  0
  2 15  1  0
  2  3  1  0
  2  1  1  1
  3  4  1  0
  4  5  1  0
  5  6  1  0
  6  7  2  0
  6  8  1  0
  8  9  1  0
  9 10  1  0
 10 11  1  0
 11 12  1  0
 11 13  2  0
 11 14  2  0
 15 16  1  1
 15 35  1  0
 16 17  1  0
 18 17  1  1
 18 19  1  0
 18 35  1  0
 19 20  1  6
 19 31  1  0
 20 21  1  6
 20 22  1  0
 23 22  1  6
 23 24  1  0
 23 29  1  0
 24 25  1  0
 25 26  1  6
 25 27  1  0
 27 28  1  0
 28 29  1  0
 29 30  1  1
 29 31  1  0
 31 32  1  1
 32 33  1  0
 33 34  1  6
 33 35  1  0
 35 36  1  1
M  END
>  <DRUGBANK_ID>  (1) 
DB15973

>  <COMMON_NAME>  (1) 
Tauroselcholic acid

>  <CAS_NUMBER>  (1) 
75018-71-2

>  <UNII>  (1) 
H6630PU5ZJ

>  <SYNONYMS>  (1) 
SeHCAT; Tauroselcholic acid

$$$$
