
     RDKit          3D

 19 20  0  0  0  0  0  0  0  0999 V2000
    1.3571   -0.8526    0.1559 C   0  0  0  0  0  0  0  0  0  0  0  0
    0.5476   -0.9073    1.4465 C   0  0  0  0  0  0  0  0  0  0  0  0
    0.7564    0.1662    2.4749 C   0  0  0  0  0  0  0  0  0  0  0  0
   -0.1414    1.3050    2.0992 C   0  0  0  0  0  0  0  0  0  0  0  0
   -1.5451    1.5926    2.4693 C   0  0  0  0  0  0  0  0  0  0  0  0
   -1.5894    1.8262    3.9538 C   0  0  0  0  0  0  0  0  0  0  0  0
   -0.9628    3.1178    4.2776 O   0  0  0  0  0  0  0  0  0  0  0  0
    0.4222    3.2116    4.4058 C   0  0  0  0  0  0  0  0  0  0  0  0
    0.8597    3.0429    5.6438 N   0  0  0  0  0  0  0  0  0  0  0  0
    2.5197    3.2347    5.5460 S   0  0  0  0  0  0  0  0  0  0  0  0
    2.7492    3.5340    3.9178 N   0  0  0  0  0  0  0  0  0  0  0  0
    1.5130    3.5941    3.3486 C   0  0  0  0  0  0  0  0  0  0  0  0
    1.3819    3.6920    1.8309 C   0  0  0  0  0  0  0  0  0  0  0  0
    2.0337    2.8757    0.9678 C   0  0  0  0  0  0  0  0  0  0  0  0
    1.4662    2.5359   -0.4002 C   0  0  0  0  0  0  0  0  0  0  0  0
    0.2923    3.3149   -0.9572 C   0  0  0  0  0  0  0  0  0  0  0  0
   -0.4209    4.1667   -0.0179 N   0  0  0  0  0  0  0  0  0  0  0  0
   -1.8598    3.9207   -0.0886 C   0  0  0  0  0  0  0  0  0  0  0  0
    0.1603    4.4587    1.3184 C   0  0  0  0  0  0  0  0  0  0  0  0
  1  2  1  0
  2  3  1  0
  3  4  1  0
  4  5  1  0
  5  6  1  0
  6  7  1  0
  7  8  1  0
  8  9  2  0
  8 12  1  0
  9 10  1  0
 10 11  1  0
 11 12  2  0
 12 13  1  0
 13 14  2  0
 13 19  1  0
 14 15  1  0
 15 16  1  0
 16 17  1  0
 17 18  1  0
 17 19  1  0
M  END
>  <DRUGBANK_ID>  (1) 
DB15357

>  <COMMON_NAME>  (1) 
Xanomeline

>  <CAS_NUMBER>  (1) 
131986-45-3

>  <UNII>  (1) 
9ORI6L73CJ

>  <SYNONYMS>  (1) 
Xanomeline

$$$$
