
     RDKit          3D

 22 24  0  0  0  0  0  0  0  0999 V2000
    1.1185    0.5090   -0.3073 C   0  0  0  0  0  0  0  0  0  0  0  0
   -1.0272    1.4097    0.3112 C   0  0  0  0  0  0  0  0  0  0  0  0
    3.0242   -4.3892    1.3382 C   0  0  0  0  0  0  0  0  0  0  0  0
   -1.9324   -4.4474    2.7316 C   0  0  0  0  0  0  0  0  0  0  0  0
   -0.9756   -5.3888    3.1183 C   0  0  0  0  0  0  0  0  0  0  0  0
    4.7245   -1.6830    4.2658 C   0  0  0  0  0  0  0  0  0  0  0  0
    4.1306   -0.4447    4.3829 C   0  0  0  0  0  0  0  0  0  0  0  0
   -1.4922   -3.2531    2.2295 C   0  0  0  0  0  0  0  0  0  0  0  0
    0.4118   -5.1650    2.9531 C   0  0  0  0  0  0  0  0  0  0  0  0
    4.0965   -2.6791    3.5205 C   0  0  0  0  0  0  0  0  0  0  0  0
    2.9031   -0.2203    3.7716 C   0  0  0  0  0  0  0  0  0  0  0  0
    0.8716    1.6237    1.7775 C   0  0  0  0  0  0  0  0  0  0  0  0
    0.3686    0.4680    2.7160 C   0  0  0  0  0  0  0  0  0  0  0  0
   -0.1092   -3.0447    2.1715 C   0  0  0  0  0  0  0  0  0  0  0  0
    0.8796   -3.9615    2.4525 C   0  0  0  0  0  0  0  0  0  0  0  0
    2.8359   -2.4914    2.9065 C   0  0  0  0  0  0  0  0  0  0  0  0
    2.2049   -1.2258    3.0582 C   0  0  0  0  0  0  0  0  0  0  0  0
    0.2712   -1.8019    1.5978 C   0  0  0  0  0  0  0  0  0  0  0  0
    0.4312    1.6090    0.3590 N   0  0  0  0  0  0  0  0  0  0  0  0
    2.2368   -3.6408    2.3334 N   0  0  0  0  0  0  0  0  0  0  0  0
    0.9181   -0.8966    2.4792 N   0  0  0  0  0  0  0  0  0  0  0  0
   -0.1914   -1.7056    0.4830 O   0  0  0  0  0  0  0  0  0  0  0  0
  5  4  2  0
  7  6  2  0
  8  4  1  0
  9  5  1  0
 10  6  1  0
 11  7  1  0
 13 12  1  0
 14  8  2  0
 15  9  2  0
 15 14  1  0
 16 10  2  0
 17 11  2  0
 17 16  1  0
 18 14  1  0
 19  1  1  0
 19  2  1  0
 19 12  1  0
 20  3  1  0
 20 15  1  0
 20 16  1  0
 21 13  1  0
 21 17  1  0
 21 18  1  0
 22 18  2  0
M  END
>  <DRUGBANK_ID>  (1) 
DB13225

>  <COMMON_NAME>  (1) 
Dibenzepin

>  <CAS_NUMBER>  (1) 
4498-32-2

>  <UNII>  (1) 
510SJZ1Y6L

>  <SYNONYMS>  (1) 
Dibenzepin

$$$$
