
     RDKit          3D

 32 34  0  0  0  0  0  0  0  0999 V2000
    1.0753   -0.0896   -0.1331 C   0  0  0  0  0  0  0  0  0  0  0  0
    0.6390   -1.5323   -0.4332 C   0  0  0  0  0  0  0  0  0  0  0  0
    1.0202   -2.4868    0.6868 C   0  0  0  0  0  0  0  0  0  0  0  0
    0.3775   -2.0203    1.9600 C   0  0  0  0  0  0  0  0  0  0  0  0
   -1.0675   -2.0591    1.8426 O   0  0  0  0  0  0  0  0  0  0  0  0
   -1.8387   -1.0623    1.3467 C   0  0  0  0  0  0  0  0  0  0  0  0
   -1.4564   -0.0099    0.8513 O   0  0  0  0  0  0  0  0  0  0  0  0
   -3.1961   -1.3068    1.3212 N   0  0  0  0  0  0  0  0  0  0  0  0
   -4.0473   -2.1838    2.4258 S   0  0  0  0  0  0  0  0  0  0  0  0
   -4.8423   -1.2428    3.1876 O   0  0  0  0  0  0  0  0  0  0  0  0
   -4.7053   -3.2417    1.6902 O   0  0  0  0  0  0  0  0  0  0  0  0
   -2.9145   -2.9162    3.6010 C   0  0  0  0  0  0  0  0  0  0  0  0
   -1.9803   -2.3804    4.4839 C   0  0  0  0  0  0  0  0  0  0  0  0
   -1.1999   -3.3857    5.1190 C   0  0  0  0  0  0  0  0  0  0  0  0
   -1.6104   -4.6540    4.8004 C   0  0  0  0  0  0  0  0  0  0  0  0
   -1.1074   -5.9209    5.4275 C   0  0  0  0  0  0  0  0  0  0  0  0
   -2.1700   -6.6387    6.2800 C   0  0  0  0  0  0  0  0  0  0  0  0
   -3.3413   -7.1367    5.4356 C   0  0  0  0  0  0  0  0  0  0  0  0
   -1.5495   -7.8433    6.9878 C   0  0  0  0  0  0  0  0  0  0  0  0
   -2.7307   -4.6137    3.5069 S   0  0  0  0  0  0  0  0  0  0  0  0
   -1.6817   -0.9662    4.5827 C   0  0  0  0  0  0  0  0  0  0  0  0
   -2.6580   -0.0262    4.8542 C   0  0  0  0  0  0  0  0  0  0  0  0
   -2.3268    1.3276    4.9070 C   0  0  0  0  0  0  0  0  0  0  0  0
   -1.0265    1.7595    4.6133 C   0  0  0  0  0  0  0  0  0  0  0  0
   -0.6502    3.2158    4.6254 C   0  0  0  0  0  0  0  0  0  0  0  0
    0.4161    3.4977    5.5795 N   0  0  0  0  0  0  0  0  0  0  0  0
    1.7126    3.0565    5.5555 C   0  0  0  0  0  0  0  0  0  0  0  0
    2.2943    3.5642    6.6886 C   0  0  0  0  0  0  0  0  0  0  0  0
    1.4135    4.3608    7.3639 N   0  0  0  0  0  0  0  0  0  0  0  0
    0.2961    4.3089    6.6728 C   0  0  0  0  0  0  0  0  0  0  0  0
   -0.0640    0.8013    4.3174 C   0  0  0  0  0  0  0  0  0  0  0  0
   -0.3689   -0.5386    4.4061 C   0  0  0  0  0  0  0  0  0  0  0  0
  1  2  1  0
  2  3  1  0
  3  4  1  0
  4  5  1  0
  5  6  1  0
  6  7  2  0
  6  8  1  0
  8  9  1  0
  9 10  2  0
  9 11  2  0
  9 12  1  0
 12 13  2  0
 12 20  1  0
 13 14  1  0
 13 21  1  0
 14 15  2  0
 15 16  1  0
 15 20  1  0
 16 17  1  0
 17 18  1  0
 17 19  1  0
 21 22  2  0
 21 32  1  0
 22 23  1  0
 23 24  2  0
 24 25  1  0
 24 31  1  0
 25 26  1  0
 26 27  1  0
 26 30  1  0
 27 28  2  0
 28 29  1  0
 29 30  2  0
 31 32  2  0
M  END
>  <DRUGBANK_ID>  (1) 
DB18038

>  <COMMON_NAME>  (1) 
Buloxibutid

>  <CAS_NUMBER>  (1) 
477775-14-7

>  <UNII>  (1) 
RC2V4W0EYC

>  <SYNONYMS>  (1) 
Butyl [3-[4-[(1H-imidazol-1-yl)methyl]phenyl]-5-isobutylthiophen-2-yl]sulfonylcarbamate; butyl [3-{4-[(1H-imidazol-1-yl)methyl]phenyl}-5-(2-methylpropyl)thiophene-2-sulfonyl]carbamate; Carbamic acid, [[3-[4-(1H-imidazol-1-ylmethyl)phenyl]-5-(2-methylpropyl)-2-thienyl]sulfonyl]-, butyl ester; COMPOUND 21; T2 AGONIST COMPOUND 21

$$$$
