622
     RDKit          3D

 35 37  0  0  1  0  0  0  0  0999 V2000
    0.9294    0.0933   -0.1204 O   0  0  0  0  0  0  0  0  0  0  0  0
   -5.5608   -2.1025   -3.3287 O   0  0  0  0  0  0  0  0  0  0  0  0
    0.9843   -0.4362   -2.3196 O   0  0  0  0  0  0  0  0  0  0  0  0
   -3.8941   -3.4024   -2.7631 O   0  0  0  0  0  0  0  0  0  0  0  0
    2.5534   -4.1578   -4.8181 O   0  0  0  0  0  0  0  0  0  0  0  0
    2.5698   -3.6142   -2.6930 O   0  0  0  0  0  0  0  0  0  0  0  0
   -3.1081    0.7319   -0.5047 N   0  0  0  0  0  0  0  0  0  0  0  0
    2.3599   -0.1671    2.4599 N   0  0  0  0  0  0  0  0  0  0  0  0
    2.0114   -3.7105   -3.7966 N   0  0  0  0  0  0  0  0  0  0  0  0
   -1.9804   -1.5538   -1.6777 C   0  0  0  0  0  0  0  0  0  0  0  0
   -1.1293   -0.3421   -1.1290 C   0  0  0  0  0  0  0  0  0  0  0  0
   -3.5498   -1.1986   -1.8763 C   0  0  0  0  0  0  0  0  0  0  0  0
   -1.3026   -2.1722   -2.9072 C   0  0  0  0  0  0  0  0  0  0  0  0
   -1.7523    0.7264   -0.5882 C   0  0  0  0  0  0  0  0  0  0  0  0
   -3.9262   -0.0273   -1.2842 C   0  0  0  0  0  0  0  0  0  0  0  0
    0.3463   -0.2435   -1.2757 C   0  0  0  0  0  0  0  0  0  0  0  0
   -0.0602   -2.8219   -2.7712 C   0  0  0  0  0  0  0  0  0  0  0  0
   -1.8703   -2.1141   -4.1859 C   0  0  0  0  0  0  0  0  0  0  0  0
   -1.1749    2.0280   -0.1113 C   0  0  0  0  0  0  0  0  0  0  0  0
   -4.3824   -2.2737   -2.6450 C   0  0  0  0  0  0  0  0  0  0  0  0
   -5.2212    0.6606   -1.3531 C   0  0  0  0  0  0  0  0  0  0  0  0
    2.8254    0.5942    1.2780 C   0  0  0  0  0  0  0  0  0  0  0  0
    2.3648    0.0440   -0.0729 C   0  0  0  0  0  0  0  0  0  0  0  0
    0.6181   -3.2724   -3.9066 C   0  0  0  0  0  0  0  0  0  0  0  0
   -1.3088   -2.7956   -5.2554 C   0  0  0  0  0  0  0  0  0  0  0  0
    2.9000    0.4093    3.7046 C   0  0  0  0  0  0  0  0  0  0  0  0
   -0.0210   -3.2965   -5.1472 C   0  0  0  0  0  0  0  0  0  0  0  0
    2.4558    1.8298    3.9854 C   0  0  0  0  0  0  0  0  0  0  0  0
    0.8974   -0.2420    2.5437 C   0  0  0  0  0  0  0  0  0  0  0  0
    1.2983    2.0649    4.7403 C   0  0  0  0  0  0  0  0  0  0  0  0
    3.1452    2.9205    3.4356 C   0  0  0  0  0  0  0  0  0  0  0  0
   -6.5870   -1.1213   -3.1640 C   0  0  0  0  0  0  0  0  0  0  0  0
    0.8521    3.3643    4.9585 C   0  0  0  0  0  0  0  0  0  0  0  0
    2.7211    4.2210    3.6878 C   0  0  0  0  0  0  0  0  0  0  0  0
    1.5670    4.4408    4.4365 C   0  0  0  0  0  0  0  0  0  0  0  0
  1 16  1  0
  1 23  1  0
  2 20  1  0
  2 32  1  0
  3 16  2  0
  4 20  2  0
  5  9  1  0
  6  9  2  0
  7 14  1  0
  7 15  1  0
  8 22  1  0
  8 26  1  0
  8 29  1  0
  9 24  1  0
 10 11  1  0
 10 12  1  0
 10 13  1  0
 11 14  2  0
 11 16  1  0
 12 15  2  0
 12 20  1  0
 13 17  2  0
 13 18  1  0
 14 19  1  0
 15 21  1  0
 17 24  1  0
 18 25  2  0
 22 23  1  0
 24 27  2  0
 25 27  1  0
 26 28  1  0
 28 30  2  0
 28 31  1  0
 30 33  1  0
 31 34  2  0
 33 35  2  0
 34 35  1  0
M  CHG  2   5  -1   9   1
M  END
>  <DRUGBANK_ID>  (1) 
DB00622

>  <SECONDARY_ACCESSION_NUMBERS>  (1) 
APRD00088

>  <COMMON_NAME>  (1) 
Nicardipine

>  <CAS_NUMBER>  (1) 
55985-32-5

>  <UNII>  (1) 
CZ5312222S

>  <SYNONYMS>  (1) 
Nicardipine; Nicardipino; Nicardipinum

$$$$
