
     RDKit          3D

 41 47  0  0  1  0  0  0  0  0999 V2000
    2.8898   -2.0924    0.0043 C   0  0  0  0  0  0  0  0  0  0  0  0
    1.6222   -1.5487   -0.0010 C   0  0  0  0  0  0  0  0  0  0  0  0
    1.5468   -0.1668    0.0176 C   0  0  0  0  0  0  0  0  0  0  0  0
    2.6748    0.6236    0.0704 C   0  0  0  0  0  0  0  0  0  0  0  0
    3.9097    0.1406    0.0703 N   0  0  0  0  0  0  0  0  0  0  0  0
    3.9819   -1.2199    0.0290 C   0  0  0  0  0  0  0  0  0  0  0  0
    2.3117    1.9615    0.0262 N   0  0  0  0  0  0  0  0  0  0  0  0
    0.9599    2.0926   -0.2184 C   0  0  0  0  0  0  0  0  0  0  0  0
    0.3980    3.1122   -0.6207 O   0  0  0  0  0  0  0  0  0  0  0  0
    0.3421    0.7123   -0.0302 C   0  0  1  0  0  0  0  0  0  0  0  0
   -0.4871    0.3875   -1.2610 C   0  0  0  0  0  0  0  0  0  0  0  0
   -1.7635    0.0648   -0.6026 C   0  0  0  0  0  0  0  0  0  0  0  0
   -2.8875   -0.2017   -1.2727 C   0  0  0  0  0  0  0  0  0  0  0  0
   -3.9258   -0.5079   -0.4346 C   0  0  0  0  0  0  0  0  0  0  0  0
   -3.9781   -0.6634    0.9380 C   0  0  0  0  0  0  0  0  0  0  0  0
   -2.8689   -0.2392    1.6002 C   0  0  0  0  0  0  0  0  0  0  0  0
   -1.7648    0.0952    0.8051 C   0  0  0  0  0  0  0  0  0  0  0  0
   -0.4258    0.4870    1.2964 C   0  0  0  0  0  0  0  0  0  0  0  0
   -5.1717   -1.0962    1.5593 N   0  0  0  0  0  0  0  0  0  0  0  0
   -6.1251   -1.9795    1.0789 C   0  0  0  0  0  0  0  0  0  0  0  0
   -7.1550   -2.1914    1.7267 O   0  0  0  0  0  0  0  0  0  0  0  0
   -5.8455   -2.7938   -0.1721 C   0  0  0  0  0  0  0  0  0  0  0  0
   -5.7558   -2.2727   -1.5470 N   0  0  0  0  0  0  0  0  0  0  0  0
   -6.3623   -1.0305   -2.2110 C   0  0  1  0  0  0  0  0  0  0  0  0
   -6.7185   -1.3417   -3.6830 C   0  0  0  0  0  0  0  0  0  0  0  0
   -5.6206   -2.0226   -4.3912 N   0  0  0  0  0  0  0  0  0  0  0  0
   -5.1787   -3.2262   -3.6531 C   0  0  0  0  0  0  0  0  0  0  0  0
   -4.7057   -2.8668   -2.2616 C   0  0  0  0  0  0  0  0  0  0  0  0
   -3.6497   -3.2462   -1.7638 O   0  0  0  0  0  0  0  0  0  0  0  0
   -6.3142   -4.2659   -3.4668 C   0  0  0  0  0  0  0  0  0  0  0  0
   -6.0822   -5.2616   -4.5678 C   0  0  0  0  0  0  0  0  0  0  0  0
   -4.5706   -5.3669   -4.6256 C   0  0  0  0  0  0  0  0  0  0  0  0
   -4.0535   -3.9526   -4.4008 C   0  0  0  0  0  0  0  0  0  0  0  0
   -7.3771   -0.2023   -1.4359 C   0  0  0  0  0  0  0  0  0  0  0  0
   -7.1029    0.4719   -0.2301 C   0  0  0  0  0  0  0  0  0  0  0  0
   -8.0884    1.1010    0.5187 C   0  0  0  0  0  0  0  0  0  0  0  0
   -9.3502    1.2506    0.0001 C   0  0  0  0  0  0  0  0  0  0  0  0
   -9.5908    0.7622   -1.2719 C   0  0  0  0  0  0  0  0  0  0  0  0
   -8.6335    0.0419   -1.9775 C   0  0  0  0  0  0  0  0  0  0  0  0
  -10.7761    0.9700   -1.8522 F   0  0  0  0  0  0  0  0  0  0  0  0
   -7.7906    1.5617    1.7417 F   0  0  0  0  0  0  0  0  0  0  0  0
  1  2  2  0
  1  6  1  0
  2  3  1  0
  3  4  2  0
  3 10  1  0
  4  5  1  0
  4  7  1  0
  5  6  2  0
  7  8  1  0
  8  9  2  0
 10  8  1  0
 10 11  1  6
 10 18  1  0
 11 12  1  0
 12 13  1  0
 12 17  2  0
 13 14  2  0
 14 15  1  0
 15 16  2  0
 15 19  1  0
 16 17  1  0
 17 18  1  0
 19 20  1  0
 20 21  2  0
 20 22  1  0
 22 23  1  0
 23 24  1  0
 23 28  1  0
 24 25  1  0
 24 34  1  1
 25 26  1  0
 26 27  1  0
 27 28  1  0
 27 30  1  0
 27 33  1  0
 28 29  2  0
 30 31  1  0
 31 32  1  0
 32 33  1  0
 34 35  2  0
 34 39  1  0
 35 36  1  0
 36 37  2  0
 36 41  1  0
 37 38  1  0
 38 39  2  0
 38 40  1  0
M  END
>  <DRUGBANK_ID>  (1) 
DB12424

>  <COMMON_NAME>  (1) 
MK-3207

>  <CAS_NUMBER>  (1) 
957118-49-9

>  <UNII>  (1) 
5C44M1QYCC

$$$$
