HQL
     RDKit          3D

 28 31  0  0  0  0  0  0  0  0999 V2000
    1.8197    0.3888    0.5211 C   0  0  0  0  0  0  0  0  0  0  0  0
    0.9950   -0.6998    0.5795 C   0  0  0  0  0  0  0  0  0  0  0  0
   -0.2654   -0.4511    0.1056 C   0  0  0  0  0  0  0  0  0  0  0  0
   -0.9859    0.7449   -0.0638 C   0  0  0  0  0  0  0  0  0  0  0  0
   -2.5425    0.7757   -0.2115 C   0  0  0  0  0  0  0  0  0  0  0  0
   -3.2228    1.2073    0.9946 O   0  0  0  0  0  0  0  0  0  0  0  0
   -3.2911    0.3720    2.1854 C   0  0  0  0  0  0  0  0  0  0  0  0
   -1.9608   -0.1877    2.6789 C   0  0  0  0  0  0  0  0  0  0  0  0
   -1.7573   -1.5420    1.9651 C   0  0  0  0  0  0  0  0  0  0  0  0
   -2.6440   -2.5718    1.4106 N   0  0  0  0  0  0  0  0  0  0  0  0
   -2.0720   -3.2749    0.1436 C   0  0  0  0  0  0  0  0  0  0  0  0
   -2.1589   -2.8286   -1.4309 C   0  0  0  0  0  0  0  0  0  0  0  0
   -1.1534   -1.8914   -2.1962 C   0  0  0  0  0  0  0  0  0  0  0  0
    0.3059   -2.2047   -2.1103 C   0  0  0  0  0  0  0  0  0  0  0  0
    1.3131   -1.2534   -2.1832 N   0  0  0  0  0  0  0  0  0  0  0  0
    2.4849   -1.8133   -1.8316 N   0  0  0  0  0  0  0  0  0  0  0  0
    2.1899   -3.0633   -1.5112 N   0  0  0  0  0  0  0  0  0  0  0  0
    0.8543   -3.3244   -1.6972 N   0  0  0  0  0  0  0  0  0  0  0  0
   -3.9775   -1.9941    1.2068 C   0  0  0  0  0  0  0  0  0  0  0  0
   -4.2913   -0.8156    2.1692 C   0  0  0  0  0  0  0  0  0  0  0  0
   -3.0257    1.5378   -1.4573 C   0  0  0  0  0  0  0  0  0  0  0  0
   -2.8580    0.9977   -2.7498 C   0  0  0  0  0  0  0  0  0  0  0  0
   -3.0835    1.7276   -3.9093 C   0  0  0  0  0  0  0  0  0  0  0  0
   -3.6511    2.9807   -3.7986 C   0  0  0  0  0  0  0  0  0  0  0  0
   -4.0080    3.4666   -2.5386 C   0  0  0  0  0  0  0  0  0  0  0  0
   -3.6634    2.7716   -1.3730 C   0  0  0  0  0  0  0  0  0  0  0  0
   -0.1580    1.8415    0.0595 C   0  0  0  0  0  0  0  0  0  0  0  0
    1.2339    1.6239    0.2209 C   0  0  0  0  0  0  0  0  0  0  0  0
  1  2  2  0
  1 28  1  0
  2  3  1  0
  3  4  2  0
  4  5  1  0
  4 27  1  0
  5  6  1  0
  5 21  1  0
  6  7  1  0
  7  8  1  0
  7 20  1  0
  8  9  1  0
  9 10  1  0
 10 11  1  0
 10 19  1  0
 11 12  1  0
 12 13  1  0
 13 14  1  0
 14 15  1  0
 14 18  2  0
 15 16  1  0
 16 17  2  0
 17 18  1  0
 19 20  1  0
 21 22  2  0
 21 26  1  0
 22 23  1  0
 23 24  2  0
 24 25  1  0
 25 26  2  0
 27 28  2  0
M  END
>  <DRUGBANK_ID>  (1) 
DB07917

>  <COMMON_NAME>  (1) 
4-(BENZHYDRYLOXY)-1-[3-(1H-TETRAAZOL-5-YL)PROPYL]PIPERIDINE

$$$$
