
     RDKit          3D

 37 41  0  0  1  0  0  0  0  0999 V2000
    2.3174    1.2082   -0.0204 C   0  0  0  0  0  0  0  0  0  0  0  0
    0.9967    0.4744    0.0689 C   0  0  0  0  0  0  0  0  0  0  0  0
    0.8549   -0.8919    0.3091 C   0  0  0  0  0  0  0  0  0  0  0  0
   -0.2300   -1.7099    0.0863 C   0  0  0  0  0  0  0  0  0  0  0  0
   -0.1637   -3.0683   -0.0533 O   0  0  0  0  0  0  0  0  0  0  0  0
    1.0997   -3.7851   -0.0528 C   0  0  0  0  0  0  0  0  0  0  0  0
    2.0722   -3.5410   -1.2384 C   0  0  0  0  0  0  0  0  0  0  0  0
    2.7306   -2.1530   -1.3046 C   0  0  0  0  0  0  0  0  0  0  0  0
    3.8013   -1.8200    0.3783 S   0  0  0  0  0  0  0  0  0  0  0  0
    5.1622   -2.8301    0.2030 C   0  0  0  0  0  0  0  0  0  0  0  0
    4.4068   -0.5092    0.4434 O   0  0  0  0  0  0  0  0  0  0  0  0
    3.1649   -2.3364    1.5844 O   0  0  0  0  0  0  0  0  0  0  0  0
   -1.4104   -1.0416   -0.0210 C   0  0  0  0  0  0  0  0  0  0  0  0
   -1.3972    0.3763   -0.0110 C   0  0  0  0  0  0  0  0  0  0  0  0
   -2.7098    1.0784   -0.0146 C   0  0  0  0  0  0  0  0  0  0  0  0
   -0.1928    1.1408   -0.0162 C   0  0  0  0  0  0  0  0  0  0  0  0
   -0.1464    2.5963   -0.0178 C   0  0  0  0  0  0  0  0  0  0  0  0
    0.4504    3.2918   -1.0749 C   0  0  0  0  0  0  0  0  0  0  0  0
    0.4755    4.6810   -1.0945 C   0  0  0  0  0  0  0  0  0  0  0  0
    0.9475    5.3687   -2.3425 C   0  0  0  0  0  0  0  0  0  0  0  0
   -0.0881    6.0888   -3.0278 O   0  0  0  0  0  0  0  0  0  0  0  0
   -1.1143    5.3070   -3.5320 C   0  0  0  0  0  0  0  0  0  0  0  0
   -1.5793    5.6273   -4.7932 C   0  0  0  0  0  0  0  0  0  0  0  0
   -2.6480    4.8844   -5.2740 C   0  0  0  0  0  0  0  0  0  0  0  0
   -3.2442    3.8776   -4.4997 C   0  0  0  0  0  0  0  0  0  0  0  0
   -2.7486    3.6751   -3.2378 C   0  0  0  0  0  0  0  0  0  0  0  0
   -1.7002    4.3726   -2.7476 N   0  0  0  0  0  0  0  0  0  0  0  0
   -4.3036    3.1472   -5.2646 C   0  0  1  0  0  0  0  0  0  0  0  0
   -4.3408    3.8483   -6.6146 C   0  0  1  0  0  0  0  0  0  0  0  0
   -3.3079    4.9799   -6.6303 C   0  0  0  0  0  0  0  0  0  0  0  0
   -3.8727    2.4079   -6.5202 C   0  0  2  0  0  0  0  0  0  0  0  0
   -4.6439    1.2532   -7.0616 C   0  0  0  0  0  0  0  0  0  0  0  0
   -3.8288    0.2882   -7.5833 O   0  0  0  0  0  0  0  0  0  0  0  0
   -5.8406    1.1652   -7.0461 O   0  0  0  0  0  0  0  0  0  0  0  0
   -0.1402    5.3787   -0.0551 C   0  0  0  0  0  0  0  0  0  0  0  0
   -0.7320    4.6910    1.0023 C   0  0  0  0  0  0  0  0  0  0  0  0
   -0.6514    3.3094    1.0644 C   0  0  0  0  0  0  0  0  0  0  0  0
  1  2  1  0
  2  3  2  0
  2 16  1  0
  3  4  1  0
  4  5  1  0
  4 13  2  0
  5  6  1  0
  6  7  1  0
  7  8  1  0
  8  9  1  0
  9 10  1  0
  9 11  2  0
  9 12  2  0
 13 14  1  0
 14 15  1  0
 14 16  2  0
 16 17  1  0
 17 18  2  0
 17 37  1  0
 18 19  1  0
 19 20  1  0
 19 35  2  0
 20 21  1  0
 21 22  1  0
 22 23  2  0
 22 27  1  0
 23 24  1  0
 24 25  2  0
 24 30  1  0
 25 26  1  0
 26 27  2  0
 28 25  1  1
 28 29  1  0
 28 31  1  0
 29 30  1  1
 29 31  1  0
 31 32  1  6
 32 33  1  0
 32 34  2  0
 35 36  1  0
 36 37  2  0
M  END
>  <DRUGBANK_ID>  (1) 
DB14937

>  <COMMON_NAME>  (1) 
MK-8666

>  <CAS_NUMBER>  (1) 
1544739-75-4

>  <UNII>  (1) 
11612L5SPI

$$$$
