
     RDKit          3D

 31 36  0  0  0  0  0  0  0  0999 V2000
    1.3559    0.0014   -0.0252 C   0  0  0  0  0  0  0  0  0  0  0  0
    0.9735   -0.0029   -1.4026 O   0  0  0  0  0  0  0  0  0  0  0  0
    1.0285    1.2332   -1.9910 C   0  0  0  0  0  0  0  0  0  0  0  0
    2.2631    1.8666   -2.0526 C   0  0  0  0  0  0  0  0  0  0  0  0
    2.4330    2.9647   -2.8739 C   0  0  0  0  0  0  0  0  0  0  0  0
    1.3620    3.4600   -3.6591 C   0  0  0  0  0  0  0  0  0  0  0  0
    0.0759    2.8298   -3.5641 C   0  0  0  0  0  0  0  0  0  0  0  0
   -0.0922    1.7284   -2.6936 C   0  0  0  0  0  0  0  0  0  0  0  0
   -1.4425    1.4101   -2.7968 C   0  0  0  0  0  0  0  0  0  0  0  0
   -2.1513    2.1321   -3.7124 C   0  0  0  0  0  0  0  0  0  0  0  0
   -1.1883    3.0324   -4.2135 N   0  0  0  0  0  0  0  0  0  0  0  0
   -3.4870    1.8277   -3.8837 C   0  0  0  0  0  0  0  0  0  0  0  0
   -4.2107    1.0214   -2.9548 C   0  0  0  0  0  0  0  0  0  0  0  0
   -5.6283    0.8056   -3.3383 C   0  0  0  0  0  0  0  0  0  0  0  0
   -5.3662    0.5724   -4.8208 C   0  0  0  0  0  0  0  0  0  0  0  0
   -4.5133    2.0041   -5.0195 C   0  0  0  0  0  0  0  0  0  0  0  0
   -3.4400    0.1307   -2.2583 C   0  0  0  0  0  0  0  0  0  0  0  0
   -2.0893    0.3570   -2.1041 C   0  0  0  0  0  0  0  0  0  0  0  0
   -1.7117   -0.6752   -1.1587 C   0  0  0  0  0  0  0  0  0  0  0  0
   -1.0343   -0.7087   -0.1620 O   0  0  0  0  0  0  0  0  0  0  0  0
   -2.6470   -1.6603   -1.3521 N   0  0  0  0  0  0  0  0  0  0  0  0
   -2.4185   -3.0155   -0.8927 C   0  0  0  0  0  0  0  0  0  0  0  0
   -2.7205   -3.8933   -2.0218 N   0  0  0  0  0  0  0  0  0  0  0  0
   -1.9162   -3.5444   -3.2076 C   0  0  0  0  0  0  0  0  0  0  0  0
   -2.4127   -4.3296   -4.4276 C   0  0  0  0  0  0  0  0  0  0  0  0
   -2.3448   -5.7931   -4.2538 N   0  0  0  0  0  0  0  0  0  0  0  0
   -0.9516   -6.2341   -4.2874 C   0  0  0  0  0  0  0  0  0  0  0  0
   -2.9795   -6.1724   -2.9673 C   0  0  0  0  0  0  0  0  0  0  0  0
   -2.5286   -5.3270   -1.7418 C   0  0  0  0  0  0  0  0  0  0  0  0
   -3.8413   -1.0922   -1.6315 C   0  0  0  0  0  0  0  0  0  0  0  0
   -4.9576   -1.5368   -1.3619 O   0  0  0  0  0  0  0  0  0  0  0  0
  1  2  1  0
  2  3  1  0
  3  4  2  0
  3  8  1  0
  4  5  1  0
  5  6  2  0
  6  7  1  0
  7  8  2  0
  7 11  1  0
  8  9  1  0
  9 10  2  0
  9 18  1  0
 10 11  1  0
 10 12  1  0
 12 13  2  0
 12 16  1  0
 13 14  1  0
 13 17  1  0
 14 15  1  0
 15 16  1  0
 17 18  2  0
 17 30  1  0
 18 19  1  0
 19 20  2  0
 19 21  1  0
 21 22  1  0
 21 30  1  0
 22 23  1  0
 23 24  1  0
 23 29  1  0
 24 25  1  0
 25 26  1  0
 26 27  1  0
 26 28  1  0
 28 29  1  0
 30 31  2  0
M  END
>  <DRUGBANK_ID>  (1) 
DB14882

>  <COMMON_NAME>  (1) 
CEP-9722

>  <CAS_NUMBER>  (1) 
916574-83-9

>  <UNII>  (1) 
B68083E4YG

$$$$
