BLN
     RDKit          3D

 29 30  0  0  0  0  0  0  0  0999 V2000
    0.8545    0.0449    0.0927 C   0  0  0  0  0  0  0  0  0  0  0  0
    0.6156    1.0172    2.4107 C   0  0  0  0  0  0  0  0  0  0  0  0
    0.7786    0.2576    3.7261 C   0  0  0  0  0  0  0  0  0  0  0  0
   -0.7854   -1.3847    3.0238 C   0  0  0  0  0  0  0  0  0  0  0  0
   -0.9304   -0.7093    1.6458 C   0  0  0  0  0  0  0  0  0  0  0  0
    0.2252   -0.2148   -0.9244 O   0  0  0  0  0  0  0  0  0  0  0  0
   -0.4348   -0.4467    4.0538 O   0  0  0  0  0  0  0  0  0  0  0  0
    0.2852    0.0621    1.3525 N   0  0  0  0  0  0  0  0  0  0  0  0
    2.2169    0.2555    0.1016 N   0  0  0  0  0  0  0  0  0  0  0  0
    3.0385    0.0291   -1.0946 C   0  0  1  0  0  0  0  0  0  0  0  0
    3.9082    1.3024   -1.4535 C   0  0  0  0  0  0  0  0  0  0  0  0
    5.1661    1.5022   -0.5914 C   0  0  0  0  0  0  0  0  0  0  0  0
    6.1614    0.4556   -1.1570 C   0  0  0  0  0  0  0  0  0  0  0  0
    5.9333    2.7918   -0.5375 C   0  0  0  0  0  0  0  0  0  0  0  0
    3.8511   -1.3018   -0.9852 C   0  0  0  0  0  0  0  0  0  0  0  0
    3.8759   -2.1111   -1.9256 O   0  0  0  0  0  0  0  0  0  0  0  0
    5.1425   -1.2279    2.6900 C   0  0  0  0  0  0  0  0  0  0  0  0
    4.8243   -1.4602    0.0176 N   0  0  0  0  0  0  0  0  0  0  0  0
    5.9493   -2.3853    2.8331 O   0  0  0  0  0  0  0  0  0  0  0  0
    5.8236   -3.3247    1.7563 C   0  0  0  0  0  0  0  0  0  0  0  0
    4.4010   -3.8275    1.6232 C   0  0  0  0  0  0  0  0  0  0  0  0
    4.1862   -5.1885    1.5860 C   0  0  0  0  0  0  0  0  0  0  0  0
    2.8971   -5.7006    1.7553 C   0  0  0  0  0  0  0  0  0  0  0  0
    1.8040   -4.8655    1.9549 C   0  0  0  0  0  0  0  0  0  0  0  0
    1.9988   -3.5185    1.8797 C   0  0  0  0  0  0  0  0  0  0  0  0
    3.2481   -3.0301    1.6160 C   0  0  0  0  0  0  0  0  0  0  0  0
    6.7179   -0.0441    1.4450 C   0  0  0  0  0  0  0  0  0  0  0  0
    7.7405    0.4409    1.5366 N   0  0  0  0  0  0  0  0  0  0  0  0
    5.2948   -0.6249    1.3064 C   0  0  2  0  0  0  0  0  0  0  0  0
  1  6  2  0
  1  8  1  0
  1  9  1  0
  2  3  1  0
  2  8  1  0
  3  7  1  0
  4  5  1  0
  4  7  1  0
  5  8  1  0
 10  9  1  0
 10 11  1  1
 10 15  1  0
 11 12  1  0
 12 13  1  0
 12 14  1  0
 15 16  2  0
 15 18  1  0
 17 19  1  0
 29 17  1  1
 19 20  1  0
 20 21  1  0
 21 22  2  0
 21 26  1  0
 22 23  1  0
 23 24  2  0
 24 25  1  0
 25 26  2  0
 27 28  3  0
 27 29  1  0
 29 18  1  0
M  END
>  <DRUGBANK_ID>  (1) 
DB03767

>  <SECONDARY_ACCESSION_NUMBERS>  (1) 
EXPT00719

>  <COMMON_NAME>  (1) 
Morpholine-4-Carboxylic Acid [1s-(2-Benzyloxy-1r-Cyano-Ethylcarbamoyl)-3-Methyl-Butyl]Amide

$$$$
