
     RDKit          3D

 30 33  0  0  1  0  0  0  0  0999 V2000
    0.8377    0.1030   -0.0991 C   0  0  0  0  0  0  0  0  0  0  0  0
    0.5448   -0.8015   -1.2854 C   0  0  0  0  0  0  0  0  0  0  0  0
    0.9858   -2.1560   -1.1394 O   0  0  0  0  0  0  0  0  0  0  0  0
    2.3349   -2.3749   -1.1460 C   0  0  0  0  0  0  0  0  0  0  0  0
    3.2093   -1.7518   -0.2426 C   0  0  0  0  0  0  0  0  0  0  0  0
    4.5709   -2.0600   -0.2360 C   0  0  0  0  0  0  0  0  0  0  0  0
    5.0684   -3.0517   -1.0501 C   0  0  0  0  0  0  0  0  0  0  0  0
    4.1728   -3.7045   -1.9312 C   0  0  0  0  0  0  0  0  0  0  0  0
    2.8160   -3.3606   -1.9660 C   0  0  0  0  0  0  0  0  0  0  0  0
    6.5443   -3.3960   -0.9722 C   0  0  0  0  0  0  0  0  0  0  0  0
    6.8800   -4.7780   -0.4345 C   0  0  0  0  0  0  0  0  0  0  0  0
    6.3772   -5.9118   -1.1107 C   0  0  0  0  0  0  0  0  0  0  0  0
    6.6453   -7.2993   -0.8642 C   0  0  0  0  0  0  0  0  0  0  0  0
    7.5770   -7.4952    0.1448 C   0  0  0  0  0  0  0  0  0  0  0  0
    8.1222   -6.3738    0.8638 C   0  0  0  0  0  0  0  0  0  0  0  0
    7.7394   -5.0389    0.6161 C   0  0  0  0  0  0  0  0  0  0  0  0
    8.3455   -3.7831    1.6396 Cl  0  0  0  0  0  0  0  0  0  0  0  0
    5.9248   -8.2664   -1.8854 C   0  0  1  0  0  0  0  0  0  0  0  0
    6.6439   -7.8585   -3.2576 C   0  0  1  0  0  0  0  0  0  0  0  0
    6.7917   -9.1055   -4.2066 C   0  0  2  0  0  0  0  0  0  0  0  0
    5.3422   -9.4173   -4.5539 C   0  0  1  0  0  0  0  0  0  0  0  0
    4.3642   -9.2196   -3.3586 C   0  0  1  0  0  0  0  0  0  0  0  0
    5.5812   -9.6257   -2.3018 O   0  0  0  0  0  0  0  0  0  0  0  0
    3.8183   -9.1104   -1.9586 C   0  0  0  0  0  0  0  0  0  0  0  0
    4.5538   -7.9477   -1.5457 O   0  0  0  0  0  0  0  0  0  0  0  0
    3.0072   -9.6507   -4.0091 C   0  0  0  0  0  0  0  0  0  0  0  0
    2.8030  -11.0360   -4.0765 O   0  0  0  0  0  0  0  0  0  0  0  0
    4.9665   -8.5760   -5.6721 O   0  0  0  0  0  0  0  0  0  0  0  0
    7.4235  -10.3123   -3.7447 O   0  0  0  0  0  0  0  0  0  0  0  0
    5.9277   -6.8172   -3.9726 O   0  0  0  0  0  0  0  0  0  0  0  0
  1  2  1  0
  2  3  1  0
  3  4  1  0
  4  5  2  0
  4  9  1  0
  5  6  1  0
  6  7  2  0
  7  8  1  0
  7 10  1  0
  8  9  2  0
 10 11  1  0
 11 12  2  0
 11 16  1  0
 12 13  1  0
 13 14  2  0
 14 15  1  0
 15 16  2  0
 16 17  1  0
 18 13  1  1
 18 19  1  0
 18 23  1  0
 18 25  1  0
 19 20  1  0
 19 30  1  6
 20 21  1  0
 20 29  1  1
 21 22  1  0
 21 28  1  6
 22 23  1  0
 22 24  1  0
 22 26  1  6
 24 25  1  0
 26 27  1  0
M  END
>  <DRUGBANK_ID>  (1) 
DB11827

>  <COMMON_NAME>  (1) 
Ertugliflozin

>  <CAS_NUMBER>  (1) 
1210344-57-2

>  <UNII>  (1) 
6C282481IP

>  <SYNONYMS>  (1) 
(1S,2S,3S,4R,5S)-5-(4-Chloro-3-(4-ethoxybenzyl)phenyl)-1-(hydroxymethyl)-6,8-dioxabicyclo[3.2.1]octane-2,3,4-triol; 1,6-Anhydro-1-C-[4-chloro-3-[(4-ethoxyphenyl)methyl]phenyl]-5-C-(hydroxymethyl)-β-L-idopyranose; Ertugliflozin; β-L-Idopyranose, 1,6-anhydro-1-C-[4-chloro-3-[(4-ethoxyphenyl)methyl]phenyl]-5-C-(hydroxymethyl)-

$$$$
