PB5
     RDKit          3D

 26 28  0  0  0  0  0  0  0  0999 V2000
    1.1199   -0.7898    0.0162 C   0  0  0  0  0  0  0  0  0  0  0  0
   -0.0994   -1.4348    0.0024 C   0  0  0  0  0  0  0  0  0  0  0  0
   -1.2234   -0.6352   -0.0197 C   0  0  0  0  0  0  0  0  0  0  0  0
    1.2443    0.5575    0.0171 N   0  0  0  0  0  0  0  0  0  0  0  0
   -2.5723   -1.3097   -0.0592 C   0  0  0  0  0  0  0  0  0  0  0  0
   -5.0461   -1.0845   -0.1037 C   0  0  0  0  0  0  0  0  0  0  0  0
   -5.8458   -0.6962    1.1100 C   0  0  0  0  0  0  0  0  0  0  0  0
    2.3681   -1.6358    0.0314 C   0  0  0  0  0  0  0  0  0  0  0  0
    5.8885   -0.1529   -1.6446 C   0  0  0  0  0  0  0  0  0  0  0  0
    7.0323   -2.1685   -3.0733 C   0  0  0  0  0  0  0  0  0  0  0  0
   -6.5154   -1.6438    1.8937 C   0  0  0  0  0  0  0  0  0  0  0  0
   -7.1998   -1.2379    3.0384 C   0  0  0  0  0  0  0  0  0  0  0  0
   -7.2087    0.1101    3.3539 C   0  0  0  0  0  0  0  0  0  0  0  0
   -5.9699    0.6355    1.4913 C   0  0  0  0  0  0  0  0  0  0  0  0
   -1.1686    0.7167   -0.0184 N   0  0  0  0  0  0  0  0  0  0  0  0
    0.0774    1.2364    0.0028 C   0  0  0  0  0  0  0  0  0  0  0  0
   -3.7017   -0.5144   -0.0937 N   0  0  0  0  0  0  0  0  0  0  0  0
    3.5920   -0.9956    0.0451 N   0  0  0  0  0  0  0  0  0  0  0  0
    4.8498   -1.7370    0.0240 C   0  0  0  0  0  0  0  0  0  0  0  0
    5.6750   -1.4542   -1.2026 C   0  0  0  0  0  0  0  0  0  0  0  0
    6.5909    0.1782   -2.7516 N   0  0  0  0  0  0  0  0  0  0  0  0
    7.1330   -0.8402   -3.4499 C   0  0  0  0  0  0  0  0  0  0  0  0
    6.2984   -2.4771   -1.9285 C   0  0  0  0  0  0  0  0  0  0  0  0
   -6.6251    1.0604    2.5950 N   0  0  0  0  0  0  0  0  0  0  0  0
    2.2676   -2.8621    0.0346 O   0  0  0  0  0  0  0  0  0  0  0  0
   -2.6337   -2.5383   -0.0670 O   0  0  0  0  0  0  0  0  0  0  0  0
  1  2  2  0
  1  4  1  0
  1  8  1  0
  2  3  1  0
  3  5  1  0
  3 15  2  0
  4 16  2  0
  5 17  1  0
  5 26  2  0
  6  7  1  0
  6 17  1  0
  7 11  2  0
  7 14  1  0
  8 18  1  0
  8 25  2  0
  9 20  2  0
  9 21  1  0
 10 22  1  0
 10 23  2  0
 11 12  1  0
 12 13  2  0
 13 24  1  0
 14 24  2  0
 15 16  1  0
 18 19  1  0
 19 20  1  0
 20 23  1  0
 21 22  2  0
M  END
>  <DRUGBANK_ID>  (1) 
DB04761

>  <COMMON_NAME>  (1) 
PYRIMIDINE-4,6-DICARBOXYLIC ACID BIS-[(PYRIDIN-3-YLMETHYL)-AMIDE]

$$$$
