5F1
     RDKit          3D

 18 20  0  0  0  0  0  0  0  0999 V2000
   -0.0335   -1.2493    0.5239 C   0  0  0  0  0  0  0  0  0  0  0  0
   -0.8933    0.0009    0.5396 C   0  0  2  0  0  0  0  0  0  0  0  0
   -1.7525   -0.0295   -0.6034 O   0  0  0  0  0  0  0  0  0  0  0  0
    0.1163    1.1299    0.4200 C   0  0  1  0  0  0  0  0  0  0  0  0
    0.6291    1.6098    1.7823 C   0  0  0  0  0  0  0  0  0  0  0  0
    0.0676    2.8282    2.0435 F   0  0  0  0  0  0  0  0  0  0  0  0
    1.1532    0.5840   -0.4105 O   0  0  0  0  0  0  0  0  0  0  0  0
    1.1118   -0.8598   -0.4000 C   0  0  1  0  0  0  0  0  0  0  0  0
    2.4184   -1.4025   -0.0629 N   0  0  0  0  0  0  0  0  0  0  0  0
    2.7641   -2.7301    0.0163 C   0  0  0  0  0  0  0  0  0  0  0  0
    4.0592   -2.8925    0.2201 N   0  0  0  0  0  0  0  0  0  0  0  0
    4.5785   -1.6128    0.2604 C   0  0  0  0  0  0  0  0  0  0  0  0
    3.5688   -0.6775    0.1001 C   0  0  0  0  0  0  0  0  0  0  0  0
    3.7015    0.6520    0.0915 N   0  0  0  0  0  0  0  0  0  0  0  0
    4.9726    1.0358    0.2421 C   0  0  0  0  0  0  0  0  0  0  0  0
    6.0517    0.2482    0.4074 N   0  0  0  0  0  0  0  0  0  0  0  0
    5.8757   -1.0940    0.4226 C   0  0  0  0  0  0  0  0  0  0  0  0
    6.9913   -1.8807    0.5973 N   0  0  0  0  0  0  0  0  0  0  0  0
  1  2  1  0
  1  8  1  0
  2  3  1  6
  2  4  1  0
  4  7  1  0
  4  5  1  1
  5  6  1  0
  7  8  1  0
  8  9  1  1
  9 10  1  0
  9 13  1  0
 10 11  2  0
 11 12  1  0
 12 13  2  0
 12 17  1  0
 13 14  1  0
 14 15  2  0
 15 16  1  0
 16 17  2  0
 17 18  1  0
M  END
>  <DRUGBANK_ID>  (1) 
DB07170

>  <COMMON_NAME>  (1) 
5'-FLUORO-2',5'-DIDEOXYADENOSINE

$$$$
