
     RDKit          3D

 29 32  0  0  0  0  0  0  0  0999 V2000
    0.0259   -0.6266    0.0862 C   0  0  0  0  0  0  0  0  0  0  0  0
    0.0035    0.7540    0.0922 C   0  0  0  0  0  0  0  0  0  0  0  0
    1.3515   -1.2819   -0.0194 C   0  0  0  0  0  0  0  0  0  0  0  0
   -1.1934   -1.3365    0.0938 C   0  0  0  0  0  0  0  0  0  0  0  0
    1.2589    1.5445   -0.0074 C   0  0  0  0  0  0  0  0  0  0  0  0
   -1.2316    1.4166    0.0603 C   0  0  0  0  0  0  0  0  0  0  0  0
    2.4690   -0.6064   -0.2148 N   0  0  0  0  0  0  0  0  0  0  0  0
    1.3376   -2.8284   -0.0019 C   0  0  0  0  0  0  0  0  0  0  0  0
   -2.4077   -0.6777   -0.0613 C   0  0  0  0  0  0  0  0  0  0  0  0
    2.4374    0.8304   -0.2728 N   0  0  0  0  0  0  0  0  0  0  0  0
    1.2067    2.7516    0.0771 O   0  0  0  0  0  0  0  0  0  0  0  0
   -2.4149    0.7029   -0.1483 C   0  0  0  0  0  0  0  0  0  0  0  0
    0.7696   -3.4361    1.2714 C   0  0  0  0  0  0  0  0  0  0  0  0
    3.7533    1.6420   -0.5370 C   0  0  0  0  0  0  0  0  0  0  0  0
   -0.2567   -4.3123    1.1047 O   0  0  0  0  0  0  0  0  0  0  0  0
    1.1645   -3.1496    2.3863 O   0  0  0  0  0  0  0  0  0  0  0  0
    3.8569    2.2719   -2.0338 C   0  0  0  0  0  0  0  0  0  0  0  0
    4.4691    3.3301   -2.6553 N   0  0  0  0  0  0  0  0  0  0  0  0
    3.1367    1.2269   -3.1859 S   0  0  0  0  0  0  0  0  0  0  0  0
    4.0085    3.4749   -4.0741 C   0  0  0  0  0  0  0  0  0  0  0  0
    3.1221    2.4490   -4.3591 C   0  0  0  0  0  0  0  0  0  0  0  0
    4.1943    4.4241   -5.1975 C   0  0  0  0  0  0  0  0  0  0  0  0
    2.2998    2.3913   -5.4804 C   0  0  0  0  0  0  0  0  0  0  0  0
    3.2461    4.4404   -6.3051 C   0  0  0  0  0  0  0  0  0  0  0  0
    2.2818    3.4376   -6.3739 C   0  0  0  0  0  0  0  0  0  0  0  0
    3.0891    5.5020   -7.4042 C   0  0  0  0  0  0  0  0  0  0  0  0
    3.0197    4.9591   -8.6622 F   0  0  0  0  0  0  0  0  0  0  0  0
    1.9094    6.1873   -7.2754 F   0  0  0  0  0  0  0  0  0  0  0  0
    4.0622    6.4450   -7.4633 F   0  0  0  0  0  0  0  0  0  0  0  0
  1  2  2  0
  1  3  1  0
  1  4  1  0
  2  5  1  0
  2  6  1  0
  3  7  2  0
  3  8  1  0
  4  9  2  0
  5 10  1  0
  5 11  2  0
  6 12  2  0
  7 10  1  0
  8 13  1  0
  9 12  1  0
 10 14  1  0
 13 15  1  0
 13 16  2  0
 14 17  1  0
 17 18  2  0
 17 19  1  0
 18 20  1  0
 19 21  1  0
 20 22  2  0
 20 21  1  0
 21 23  2  0
 22 24  1  0
 23 25  1  0
 24 26  1  0
 24 25  2  0
 26 27  1  0
 26 28  1  0
 26 29  1  0
M  END
>  <DRUGBANK_ID>  (1) 
DB08772

>  <COMMON_NAME>  (1) 
Zopolrestat

>  <CAS_NUMBER>  (1) 
110703-94-1

>  <UNII>  (1) 
1PV3S9WP3D

>  <SYNONYMS>  (1) 
Zopolrestat; Zopolrestatum

$$$$
