
     RDKit          3D

 12 13  0  0  0  0  0  0  0  0999 V2000
    0.9883    0.0192    0.0759 C   0  0  0  0  0  0  0  0  0  0  0  0
    0.5321   -1.3460    0.3357 N   0  0  0  0  0  0  0  0  0  0  0  0
    1.2027   -2.4832   -0.0348 C   0  0  0  0  0  0  0  0  0  0  0  0
    0.4936   -3.5156    0.5373 C   0  0  0  0  0  0  0  0  0  0  0  0
   -0.6108   -3.0466    1.1904 N   0  0  0  0  0  0  0  0  0  0  0  0
   -0.5986   -1.7438    0.9937 C   0  0  0  0  0  0  0  0  0  0  0  0
    0.6355    1.0516    1.1284 C   0  0  0  0  0  0  0  0  0  0  0  0
    0.3679    0.7091    2.4649 C   0  0  0  0  0  0  0  0  0  0  0  0
    0.1005    1.6749    3.4283 C   0  0  0  0  0  0  0  0  0  0  0  0
    0.2159    3.0173    3.1014 C   0  0  0  0  0  0  0  0  0  0  0  0
    0.5439    3.3878    1.7981 C   0  0  0  0  0  0  0  0  0  0  0  0
    0.7036    2.4161    0.8043 C   0  0  0  0  0  0  0  0  0  0  0  0
  1  2  1  0
  1  7  1  0
  2  3  1  0
  2  6  1  0
  3  4  2  0
  4  5  1  0
  5  6  2  0
  7  8  2  0
  7 12  1  0
  8  9  1  0
  9 10  2  0
 10 11  1  0
 11 12  2  0
M  END
>  <DRUGBANK_ID>  (1) 
DB04581

>  <COMMON_NAME>  (1) 
1-benzylimidazole

>  <CAS_NUMBER>  (1) 
4238-71-5

>  <UNII>  (1) 
W4C9Z5BCV7

>  <SYNONYMS>  (1) 
1-benzyl-1H-imidazole

$$$$
