
     RDKit          3D

 35 38  0  0  0  0  0  0  0  0999 V2000
    1.0354   -0.0350   -0.0793 C   0  0  0  0  0  0  0  0  0  0  0  0
    0.5745   -0.6495    1.1182 O   0  0  0  0  0  0  0  0  0  0  0  0
    0.8681   -1.9811    1.2752 C   0  0  0  0  0  0  0  0  0  0  0  0
    2.1580   -2.5019    1.1234 C   0  0  0  0  0  0  0  0  0  0  0  0
    2.4449   -3.8565    1.4116 C   0  0  0  0  0  0  0  0  0  0  0  0
    3.7706   -4.1693    1.2172 O   0  0  0  0  0  0  0  0  0  0  0  0
    4.2077   -5.4966    1.4871 C   0  0  0  0  0  0  0  0  0  0  0  0
    1.4008   -4.6930    1.8544 C   0  0  0  0  0  0  0  0  0  0  0  0
    1.6009   -6.4142    2.1495 Cl  0  0  0  0  0  0  0  0  0  0  0  0
    0.0937   -4.1731    2.0506 C   0  0  0  0  0  0  0  0  0  0  0  0
   -0.9649   -5.0532    2.5779 C   0  0  0  0  0  0  0  0  0  0  0  0
   -0.8239   -5.6630    3.8378 C   0  0  0  0  0  0  0  0  0  0  0  0
   -1.7790   -6.5530    4.3211 C   0  0  0  0  0  0  0  0  0  0  0  0
   -2.9314   -6.8029    3.6098 C   0  0  0  0  0  0  0  0  0  0  0  0
   -3.8589   -7.5949    4.1519 N   0  0  0  0  0  0  0  0  0  0  0  0
   -4.9745   -7.7813    3.4469 C   0  0  0  0  0  0  0  0  0  0  0  0
   -5.9148   -8.6755    3.9603 N   0  0  0  0  0  0  0  0  0  0  0  0
   -7.1129   -8.9736    3.2986 C   0  0  0  0  0  0  0  0  0  0  0  0
   -7.0615   -9.6066    2.0144 C   0  0  0  0  0  0  0  0  0  0  0  0
   -5.7769  -10.0169    1.3501 C   0  0  0  0  0  0  0  0  0  0  0  0
   -8.2261   -9.8054    1.2640 C   0  0  0  0  0  0  0  0  0  0  0  0
   -9.3743   -9.1809    1.6645 C   0  0  0  0  0  0  0  0  0  0  0  0
   -9.3030   -8.3413    2.7605 C   0  0  0  0  0  0  0  0  0  0  0  0
   -8.3369   -8.4546    3.7344 C   0  0  0  0  0  0  0  0  0  0  0  0
   -8.6082   -7.9474    5.0317 N   0  0  0  0  0  0  0  0  0  0  0  0
   -9.8067   -7.6297    5.6417 C   0  0  0  0  0  0  0  0  0  0  0  0
   -9.7684   -7.0792    6.7614 O   0  0  0  0  0  0  0  0  0  0  0  0
  -11.1828   -7.7910    5.0335 C   0  0  0  0  0  0  0  0  0  0  0  0
  -11.6667   -8.6461    4.1150 C   0  0  0  0  0  0  0  0  0  0  0  0
   -5.2054   -7.2182    2.2422 N   0  0  0  0  0  0  0  0  0  0  0  0
   -4.2465   -6.4646    1.6999 C   0  0  0  0  0  0  0  0  0  0  0  0
   -3.0719   -6.1990    2.3538 C   0  0  0  0  0  0  0  0  0  0  0  0
   -2.0908   -5.3599    1.8165 C   0  0  0  0  0  0  0  0  0  0  0  0
   -0.1547   -2.8135    1.7514 C   0  0  0  0  0  0  0  0  0  0  0  0
   -1.7444   -2.1291    1.9749 Cl  0  0  0  0  0  0  0  0  0  0  0  0
  1  2  1  0
  2  3  1  0
  3  4  2  0
  3 34  1  0
  4  5  1  0
  5  6  1  0
  5  8  2  0
  6  7  1  0
  8  9  1  0
  8 10  1  0
 10 11  1  0
 10 34  2  0
 11 12  2  0
 11 33  1  0
 12 13  1  0
 13 14  2  0
 14 15  1  0
 14 32  1  0
 15 16  2  0
 16 17  1  0
 16 30  1  0
 17 18  1  0
 18 19  2  0
 18 24  1  0
 19 20  1  0
 19 21  1  0
 21 22  2  0
 22 23  1  0
 23 24  2  0
 24 25  1  0
 25 26  1  0
 26 27  2  0
 26 28  1  0
 28 29  2  0
 30 31  2  0
 31 32  1  0
 32 33  2  0
 34 35  1  0
M  END
>  <DRUGBANK_ID>  (1) 
DB17985

>  <COMMON_NAME>  (1) 
BLU-9931

>  <CAS_NUMBER>  (1) 
1538604-68-0

>  <UNII>  (1) 
FQK825B5DX

>  <SYNONYMS>  (1) 
2-propenamide, n-(2-((6-(2,6-dichloro-3,5-dimethoxyphenyl)-2-quinazolinyl)amino)-3-methylphenyl)-; N-(2-((6-(2,6-dichloro-3,5-dimethoxyphenyl)-2-quinazolinyl)amino)-3-methylphenyl)-2-propenamide

$$$$
