
     RDKit          3D

 21 22  0  0  0  0  0  0  0  0999 V2000
    0.9568    0.0653   -0.0621 O   0  0  0  0  0  0  0  0  0  0  0  0
    0.3801    1.4054   -0.9920 P   0  0  0  0  0  0  0  0  0  0  0  0
    1.7081    2.0292   -0.6335 O   0  0  0  0  0  0  0  0  0  0  0  0
    0.4171    0.2388   -2.0388 O   0  0  0  0  0  0  0  0  0  0  0  0
   -0.1965    2.7454   -1.9219 O   0  0  0  0  0  0  0  0  0  0  0  0
   -0.3483    2.3263   -3.3145 C   0  0  0  0  0  0  0  0  0  0  0  0
    0.9477    1.7905   -4.0629 C   0  0  2  0  0  0  0  0  0  0  0  0
    1.2576    0.2657   -4.1661 C   0  0  1  0  0  0  0  0  0  0  0  0
    1.3287   -0.1334   -5.4678 F   0  0  0  0  0  0  0  0  0  0  0  0
    2.6561    0.1231   -3.5338 C   0  0  0  0  0  0  0  0  0  0  0  0
    3.2477    1.5410   -3.6083 C   0  0  2  0  0  0  0  0  0  0  0  0
    4.3433    1.8255   -2.6116 N   0  0  0  0  0  0  0  0  0  0  0  0
    5.4379    0.9578   -2.5815 C   0  0  0  0  0  0  0  0  0  0  0  0
    6.4166    1.0256   -1.6631 C   0  0  0  0  0  0  0  0  0  0  0  0
    7.5035    0.0138   -1.4732 C   0  0  0  0  0  0  0  0  0  0  0  0
    6.4102    2.1692   -0.7346 C   0  0  0  0  0  0  0  0  0  0  0  0
    7.2309    2.2680    0.1870 O   0  0  0  0  0  0  0  0  0  0  0  0
    5.4585    3.1044   -0.9751 N   0  0  0  0  0  0  0  0  0  0  0  0
    4.3544    2.9717   -1.7984 C   0  0  0  0  0  0  0  0  0  0  0  0
    3.5171    3.8674   -1.7586 O   0  0  0  0  0  0  0  0  0  0  0  0
    2.1237    2.4242   -3.5113 O   0  0  0  0  0  0  0  0  0  0  0  0
  1  2  1  0
  2  3  2  0
  2  4  1  0
  2  5  1  0
  5  6  1  0
  7  6  1  1
  7  8  1  0
  8 10  1  0
  8  9  1  6
 10 11  1  0
 11 12  1  1
 12 13  1  0
 13 14  2  0
 14 15  1  0
 14 16  1  0
 16 17  2  0
 18 16  1  0
 18 19  1  0
 19 20  2  0
 19 12  1  0
 21 11  1  0
 21  7  1  0
M  END
>  <DRUGBANK_ID>  (1) 
DB03195

>  <SECONDARY_ACCESSION_NUMBERS>  (1) 
EXPT01414

>  <COMMON_NAME>  (1) 
3'-Fluoro-3'-deoxythymidine 5'-monophosphate

>  <CAS_NUMBER>  (1) 
25520-83-6

>  <UNII>  (1) 
K6W0IAP44B

>  <SYNONYMS>  (1) 
3'-Deoxy-3'-fluorothymidine monophosphate; 3'-Fluoro-3'-deoxythymidine 5'-monophosphate; 3'-Fluoro-3'-deoxythymidine 5'-phosphate; 5'-Thymidylic acid, 3'-deoxy-3'-fluoro-

$$$$
