
     RDKit          3D

 21 23  0  0  1  0  0  0  0  0999 V2000
    0.9191    0.1269    0.0743 C   0  0  0  0  0  0  0  0  0  0  0  0
    0.4238    1.1735   -0.9078 C   0  0  0  0  0  0  0  0  0  0  0  0
    0.8942    0.9365   -2.3596 C   0  0  0  0  0  0  0  0  0  0  0  0
    0.4501   -0.3507   -3.0579 C   0  0  0  0  0  0  0  0  0  0  0  0
    0.8126   -1.6325   -2.6903 C   0  0  0  0  0  0  0  0  0  0  0  0
    0.4733   -2.8500   -3.3774 C   0  0  0  0  0  0  0  0  0  0  0  0
   -0.2628   -2.8193   -4.6061 C   0  0  0  0  0  0  0  0  0  0  0  0
   -0.7576   -1.4579   -4.8686 C   0  0  0  0  0  0  0  0  0  0  0  0
   -0.3822   -0.2634   -4.2077 C   0  0  0  0  0  0  0  0  0  0  0  0
   -1.7668   -1.1610   -5.8526 O   0  0  0  0  0  0  0  0  0  0  0  0
   -2.6604   -2.2664   -5.8309 C   0  0  0  0  0  0  0  0  0  0  0  0
   -1.7150   -3.4101   -6.0895 C   0  0  2  0  0  0  0  0  0  0  0  0
   -0.6875   -4.2196   -5.4098 C   0  0  1  0  0  0  0  0  0  0  0  0
   -0.6307   -5.1095   -7.0352 C   0  0  0  0  0  0  0  0  0  0  0  0
   -1.2821   -4.6545   -8.2083 C   0  0  0  0  0  0  0  0  0  0  0  0
   -1.0656   -3.1399   -8.5301 C   0  0  0  0  0  0  0  0  0  0  0  0
   -0.5440   -2.7982   -7.2019 C   0  0  0  0  0  0  0  0  0  0  0  0
   -2.7412   -5.1967   -8.3298 C   0  0  0  0  0  0  0  0  0  0  0  0
   -3.8060   -2.4744   -6.8992 C   0  0  0  0  0  0  0  0  0  0  0  0
   -3.5787   -1.9214   -4.6682 C   0  0  0  0  0  0  0  0  0  0  0  0
    0.7678   -4.0386   -2.8284 O   0  0  0  0  0  0  0  0  0  0  0  0
  1  2  1  0
  2  3  1  0
  3  4  1  0
  4  5  2  0
  4  9  1  0
  5  6  1  0
  6  7  2  0
  6 21  1  0
  7  8  1  0
  8  9  2  0
  8 10  1  0
 10 11  1  0
 11 12  1  0
 11 19  1  0
 11 20  1  0
 12 13  1  0
 12 17  1  6
 13  7  1  0
 13 14  1  6
 14 15  2  0
 15 16  1  0
 15 18  1  0
 16 17  1  0
M  END
>  <DRUGBANK_ID>  (1) 
DB11755

>  <COMMON_NAME>  (1) 
Tetrahydrocannabivarin

>  <CAS_NUMBER>  (1) 
31262-37-0

>  <UNII>  (1) 
I5YE3I47D8

>  <SYNONYMS>  (1) 
THCV

$$$$
