
     RDKit          3D

 11 11  0  0  0  0  0  0  0  0999 V2000
    0.9446   -0.0176   -0.0607 C   0  0  0  0  0  0  0  0  0  0  0  0
    0.4588   -1.4601   -0.3905 C   0  0  0  0  0  0  0  0  0  0  0  0
    0.4584    0.4097    1.3279 C   0  0  0  0  0  0  0  0  0  0  0  0
    0.4492    1.0078   -1.0900 C   0  0  0  0  0  0  0  0  0  0  0  0
    2.3723    0.0557   -0.0939 O   0  0  0  0  0  0  0  0  0  0  0  0
    0.5439   -1.7587   -1.8949 C   0  0  0  0  0  0  0  0  0  0  0  0
    1.2189   -2.5521    0.4006 C   0  0  0  0  0  0  0  0  0  0  0  0
    0.0140   -3.1376   -2.2484 C   0  0  0  0  0  0  0  0  0  0  0  0
    0.9602   -3.9459   -0.0867 C   0  0  0  0  0  0  0  0  0  0  0  0
    0.4139   -4.2159   -1.2876 C   0  0  0  0  0  0  0  0  0  0  0  0
    0.1615   -5.6057   -1.7751 C   0  0  0  0  0  0  0  0  0  0  0  0
  1  2  1  0
  1  3  1  0
  1  4  1  0
  1  5  1  0
  2  6  1  0
  2  7  1  0
  6  8  1  0
  7  9  1  0
  8 10  1  0
  9 10  2  0
 10 11  1  0
M  END
>  <DRUGBANK_ID>  (1) 
DB15956

>  <COMMON_NAME>  (1) 
Terpineol

>  <CAS_NUMBER>  (1) 
8000-41-7

>  <UNII>  (1) 
21334LVV8W

$$$$
