
     RDKit          3D

  1  0  0  0  0  0  0  0  0  0999 V2000
    1.0910    0.0144   -0.0390 Cd  0  0  0  0  0 15  0  0  0  0  0  0
M  END
>  <DRUGBANK_ID>  (1) 
DB14085

>  <COMMON_NAME>  (1) 
Cadmium

>  <CAS_NUMBER>  (1) 
7440-43-9

>  <UNII>  (1) 
00BH33GNGH

>  <SYNONYMS>  (1) 
cadmio; Cadmium metal; Cadmium metallicum; Cadmium, elemental; Colloidal cadmium; Elemental cadmium; Kadmium

$$$$
