1521
     RDKit          3D

 22 25  0  0  1  0  0  0  0  0999 V2000
    1.8803    0.6947   -1.0331 Cl  0  0  0  0  0  0  0  0  0  0  0  0
    4.7219   -8.1196   -0.5309 O   0  0  0  0  0  0  0  0  0  0  0  0
    2.8804    0.7634    1.7364 O   0  0  0  0  0  0  0  0  0  0  0  0
    5.4419   -5.0260   -2.5341 C   0  0  2  0  0  0  0  0  0  0  0  0
    4.8411   -5.7830   -1.2848 C   0  0  2  0  0  0  0  0  0  0  0  0
    5.2054   -3.4255   -2.1754 C   0  0  1  0  0  0  0  0  0  0  0  0
    5.5017   -2.9101   -0.7159 C   0  0  1  0  0  0  0  0  0  0  0  0
    4.7647   -1.5198   -0.3469 C   0  0  2  0  0  0  0  0  0  0  0  0
    5.3986   -5.3138    0.0690 C   0  0  0  0  0  0  0  0  0  0  0  0
    5.0288   -3.9064    0.3632 C   0  0  0  0  0  0  0  0  0  0  0  0
    5.3103   -7.2302   -1.4619 C   0  0  2  0  0  0  0  0  0  0  0  0
    5.3026   -6.2592   -3.6494 C   0  0  0  0  0  0  0  0  0  0  0  0
    5.6005   -2.2605   -3.0918 C   0  0  0  0  0  0  0  0  0  0  0  0
    4.9025   -7.5408   -2.8758 C   0  0  0  0  0  0  0  0  0  0  0  0
    4.5483   -0.3244   -1.2664 C   0  0  0  0  0  0  0  0  0  0  0  0
    4.9095   -0.7961   -2.7307 C   0  0  0  0  0  0  0  0  0  0  0  0
    3.2836   -5.6886   -1.3298 C   0  0  0  0  0  0  0  0  0  0  0  0
    5.4444   -0.9883    0.9785 C   0  0  0  0  0  0  0  0  0  0  0  0
    3.2665   -1.9805   -0.4199 C   0  0  0  0  0  0  0  0  0  0  0  0
    5.1792    0.4708    1.3190 C   0  0  0  0  0  0  0  0  0  0  0  0
    3.6185    0.5415   -0.6431 C   0  0  0  0  0  0  0  0  0  0  0  0
    3.7540    0.6584    0.9221 C   0  0  0  0  0  0  0  0  0  0  0  0
  1 21  1  0
  3 22  2  0
  4  5  1  0
  4  6  1  0
  4 12  1  6
  5  9  1  0
  5 11  1  0
  5 17  1  1
  6  7  1  0
  6 13  1  6
  7  8  1  0
  7 10  1  1
  8 15  1  0
  8 18  1  0
  8 19  1  1
  9 10  1  0
 11  2  1  1
 11 14  1  0
 12 14  1  0
 13 16  1  0
 15 16  1  0
 15 21  2  0
 18 20  1  0
 20 22  1  0
 21 22  1  0
M  END
>  <DRUGBANK_ID>  (1) 
DB01521

>  <COMMON_NAME>  (1) 
Clostebol

>  <CAS_NUMBER>  (1) 
1093-58-9

>  <UNII>  (1) 
Z7D4G976SH

>  <SYNONYMS>  (1) 
Clostebol

$$$$
