
     RDKit          3D

 39 41  0  0  1  0  0  0  0  0999 V2000
    4.5432    1.9900    5.1991 C   0  0  0  0  0  0  0  0  0  0  0  0
    3.9942    3.0086    4.2162 C   0  0  0  0  0  0  0  0  0  0  0  0
    5.1267    3.6825    3.4421 C   0  0  0  0  0  0  0  0  0  0  0  0
    3.0544    2.2532    3.2607 C   0  0  0  0  0  0  0  0  0  0  0  0
    1.8131    1.5231    4.0556 C   0  0  1  0  0  0  0  0  0  0  0  0
    1.0137    2.6909    4.6863 C   0  0  0  0  0  0  0  0  0  0  0  0
    0.6021    3.8532    3.7225 C   0  0  2  0  0  0  0  0  0  0  0  0
    1.1641    5.0796    4.2239 O   0  0  0  0  0  0  0  0  0  0  0  0
   -0.9432    3.9391    3.5513 C   0  0  2  0  0  0  0  0  0  0  0  0
   -1.5537    3.3442    2.1716 C   0  0  0  0  0  0  0  0  0  0  0  0
   -0.4858    2.7992    1.2383 C   0  0  0  0  0  0  0  0  0  0  0  0
    0.2550    1.8689    1.8035 C   0  0  0  0  0  0  0  0  0  0  0  0
    1.5262    1.1971    1.3642 C   0  0  0  0  0  0  0  0  0  0  0  0
    2.1473    1.4768    0.2367 C   0  0  0  0  0  0  0  0  0  0  0  0
    1.3945    2.4024   -0.4247 C   0  0  0  0  0  0  0  0  0  0  0  0
    0.1600    3.0861    0.0811 C   0  0  0  0  0  0  0  0  0  0  0  0
   -1.2710    5.3265    3.7951 N   0  0  0  0  0  0  0  0  0  0  0  0
   -1.9164    5.8411    4.9111 C   0  0  0  0  0  0  0  0  0  0  0  0
   -2.0672    7.0595    5.0163 O   0  0  0  0  0  0  0  0  0  0  0  0
   -2.6927    4.8268    5.8237 C   0  0  0  0  0  0  0  0  0  0  0  0
   -3.4996    3.7432    5.3236 O   0  0  0  0  0  0  0  0  0  0  0  0
   -4.6883    3.9219    4.6357 C   0  0  0  0  0  0  0  0  0  0  0  0
   -4.9068    4.8155    3.5512 C   0  0  0  0  0  0  0  0  0  0  0  0
   -3.9478    5.8055    3.0644 C   0  0  0  0  0  0  0  0  0  0  0  0
   -6.0621    4.8517    2.7918 C   0  0  0  0  0  0  0  0  0  0  0  0
   -7.0533    3.9531    3.0548 C   0  0  0  0  0  0  0  0  0  0  0  0
   -6.8674    3.0127    4.0677 C   0  0  0  0  0  0  0  0  0  0  0  0
   -5.7243    3.0185    4.9056 C   0  0  0  0  0  0  0  0  0  0  0  0
   -5.7438    2.1319    6.1211 C   0  0  0  0  0  0  0  0  0  0  0  0
    0.7524    0.3395    3.5077 N   0  0  0  0  0  0  0  0  0  0  0  0
    0.6478   -0.9417    3.2516 C   0  0  0  0  0  0  0  0  0  0  0  0
    0.0270   -1.3703    2.2592 O   0  0  0  0  0  0  0  0  0  0  0  0
    1.3119   -1.6541    4.1941 C   0  0  0  0  0  0  0  0  0  0  0  0
    1.2073   -1.1080    5.4776 C   0  0  0  0  0  0  0  0  0  0  0  0
    1.8405   -1.7564    6.4550 C   0  0  0  0  0  0  0  0  0  0  0  0
    2.3791   -2.9881    6.0982 C   0  0  0  0  0  0  0  0  0  0  0  0
    2.3604   -3.5185    4.7750 C   0  0  0  0  0  0  0  0  0  0  0  0
    2.8456   -4.7842    4.4776 N   0  0  0  0  0  0  0  0  0  0  0  0
    1.9807   -2.7402    3.7443 C   0  0  0  0  0  0  0  0  0  0  0  0
  1  2  1  0
  2  3  1  0
  2  4  1  0
  5  4  1  6
  5  6  1  0
  5 30  1  0
  7  8  1  1
  7  6  1  0
  9 17  1  0
  9 10  1  6
  9  7  1  0
 10 11  1  0
 11 12  2  0
 11 16  1  0
 12 13  1  0
 13 14  2  0
 14 15  1  0
 15 16  2  0
 17 18  1  0
 18 19  2  0
 18 20  1  0
 20 21  1  0
 21 22  1  0
 22 23  2  0
 22 28  1  0
 23 24  1  0
 23 25  1  0
 25 26  2  0
 26 27  1  0
 27 28  2  0
 28 29  1  0
 30 31  1  0
 31 32  2  0
 31 33  1  0
 33 34  2  0
 33 39  1  0
 34 35  1  0
 35 36  2  0
 36 37  1  0
 37 38  1  0
 37 39  2  0
M  END
>  <DRUGBANK_ID>  (1) 
DB04373

>  <SECONDARY_ACCESSION_NUMBERS>  (1) 
EXPT02745

>  <COMMON_NAME>  (1) 
4-Amino-N-{4-[2-(2,6-Dimethyl-Phenoxy)-Acetylamino]-3-Hydroxy-1-Isobutyl-5-Phenyl-Pentyl}-Benzamide

$$$$
