
     RDKit          3D

 37 41  0  0  1  0  0  0  0  0999 V2000
    1.4036   -0.4892    0.2938 C   0  0  0  0  0  0  0  0  0  0  0  0
    0.5710   -0.0167    1.4744 C   0  0  0  0  0  0  0  0  0  0  0  0
    0.8650    1.4554    1.6910 C   0  0  0  0  0  0  0  0  0  0  0  0
    0.0985    2.3125    0.7469 O   0  0  0  0  0  0  0  0  0  0  0  0
    0.0947    2.2296   -0.6398 C   0  0  0  0  0  0  0  0  0  0  0  0
    0.0636    1.1528   -1.4931 C   0  0  0  0  0  0  0  0  0  0  0  0
    0.6929    1.1499   -2.8049 C   0  0  0  0  0  0  0  0  0  0  0  0
    1.1500    2.3119   -3.4200 C   0  0  0  0  0  0  0  0  0  0  0  0
    0.9099    3.4719   -2.6919 C   0  0  0  0  0  0  0  0  0  0  0  0
    0.1691    3.3978   -1.3680 C   0  0  0  0  0  0  0  0  0  0  0  0
    1.8505    4.7098   -3.4520 C   0  0  2  0  0  0  0  0  0  0  0  0
    1.6758    4.1608   -4.8826 C   0  0  1  0  0  0  0  0  0  0  0  0
    1.8271    2.6080   -4.7651 C   0  0  1  0  0  0  0  0  0  0  0  0
    3.2816    2.1421   -4.9930 C   0  0  0  0  0  0  0  0  0  0  0  0
    4.4107    2.5809   -4.2737 C   0  0  0  0  0  0  0  0  0  0  0  0
    5.7418    2.2107   -4.4218 C   0  0  0  0  0  0  0  0  0  0  0  0
    5.9523    1.3178   -5.4035 C   0  0  0  0  0  0  0  0  0  0  0  0
    4.9073    0.8678   -6.1845 C   0  0  0  0  0  0  0  0  0  0  0  0
    3.5823    1.2579   -6.0148 C   0  0  0  0  0  0  0  0  0  0  0  0
    5.3438   -0.0083   -7.1251 O   0  0  0  0  0  0  0  0  0  0  0  0
    6.7658    0.0225   -6.8752 C   0  0  0  0  0  0  0  0  0  0  0  0
    7.1488    0.7820   -5.7208 O   0  0  0  0  0  0  0  0  0  0  0  0
    0.2829    4.6065   -5.3328 C   0  0  0  0  0  0  0  0  0  0  0  0
    0.0546    5.3623   -6.2986 O   0  0  0  0  0  0  0  0  0  0  0  0
   -0.7320    4.2297   -4.5433 O   0  0  0  0  0  0  0  0  0  0  0  0
    3.4850    5.1807   -3.1461 C   0  0  0  0  0  0  0  0  0  0  0  0
    4.0190    6.2232   -3.9308 C   0  0  0  0  0  0  0  0  0  0  0  0
    5.3196    6.7659   -3.6750 C   0  0  0  0  0  0  0  0  0  0  0  0
    6.1377    6.3263   -2.6274 C   0  0  0  0  0  0  0  0  0  0  0  0
    5.6518    5.3797   -1.7822 C   0  0  0  0  0  0  0  0  0  0  0  0
    4.4257    4.7910   -2.0629 C   0  0  0  0  0  0  0  0  0  0  0  0
    4.3332    3.7691   -1.1394 O   0  0  0  0  0  0  0  0  0  0  0  0
    3.0131    3.4300   -1.1668 C   0  0  0  0  0  0  0  0  0  0  0  0
    2.2070    4.7763   -0.6874 C   0  0  0  0  0  0  0  0  0  0  0  0
    2.5787    6.1582   -0.7464 O   0  0  0  0  0  0  0  0  0  0  0  0
    7.4134    6.6936   -2.3270 O   0  0  0  0  0  0  0  0  0  0  0  0
    8.0338    7.5564   -3.2557 C   0  0  0  0  0  0  0  0  0  0  0  0
  1  2  1  0
  2  3  1  0
  3  4  1  0
  4  5  1  0
  5  6  2  0
  5 10  1  0
  6  7  1  0
  7  8  2  0
  8  9  1  0
  8 13  1  0
  9 10  2  0
  9 11  1  0
 11 12  1  0
 11 26  1  1
 12 13  1  0
 12 23  1  1
 13 14  1  1
 14 15  2  0
 14 19  1  0
 15 16  1  0
 16 17  2  0
 17 18  1  0
 17 22  1  0
 18 19  2  0
 18 20  1  0
 20 21  1  0
 21 22  1  0
 23 24  2  0
 23 25  1  0
 26 27  2  0
 26 31  1  0
 27 28  1  0
 28 29  2  0
 29 30  1  0
 29 36  1  0
 30 31  2  0
 31 32  1  0
 32 33  1  0
 33 34  1  0
 34 35  1  0
 36 37  1  0
M  END
>  <DRUGBANK_ID>  (1) 
DB06460

>  <COMMON_NAME>  (1) 
Enrasentan

>  <CAS_NUMBER>  (1) 
167256-08-8

>  <UNII>  (1) 
QG16H8A6ZH

>  <SYNONYMS>  (1) 
Enrasentan

$$$$
