
     RDKit          3D

 31 32  0  0  0  0  0  0  0  0999 V2000
    0.8275    1.4843   -0.6029 C   0  0  1  0  0  0  0  0  0  0  0  0
    1.7653    0.1490   -0.4205 C   0  0  2  0  0  0  0  0  0  0  0  0
   -0.8125    1.4870   -0.6427 C   0  0  2  0  0  0  0  0  0  0  0  0
    1.2740    2.4127    0.4535 O   0  0  0  0  0  0  0  0  0  0  0  0
    0.7832   -1.1595   -0.6428 C   0  0  2  0  0  0  0  0  0  0  0  0
    2.4767    0.3705    0.8345 O   0  0  0  0  0  0  0  0  0  0  0  0
   -1.4266    0.0085   -0.8314 C   0  0  1  0  0  0  0  0  0  0  0  0
   -1.6685    2.6386   -1.0711 N   0  0  0  0  0  0  0  0  0  0  0  0
    1.1510    2.2291    1.9724 C   0  0  2  0  0  0  0  0  0  0  0  0
   -0.6417   -1.0915   -0.3203 O   0  0  0  0  0  0  0  0  0  0  0  0
    1.4135   -2.4810   -0.1042 C   0  0  0  0  0  0  0  0  0  0  0  0
    4.0074    0.3893    1.4739 S   0  0  0  0  0  0  0  0  0  0  0  0
   -2.7452   -0.0438   -0.2002 O   0  0  0  0  0  0  0  0  0  0  0  0
   -1.6138    3.8523   -0.3349 C   0  0  0  0  0  0  0  0  0  0  0  0
    1.6656    1.0381    2.7815 O   0  0  0  0  0  0  0  0  0  0  0  0
   -0.2459    2.3197    2.6165 C   0  0  1  0  0  0  0  0  0  0  0  0
    0.4884   -3.3799    0.5219 O   0  0  0  0  0  0  0  0  0  0  0  0
    4.5226   -0.9419    1.0603 O   0  0  0  0  0  0  0  0  0  0  0  0
    4.6780    1.5223    0.8815 O   0  0  0  0  0  0  0  0  0  0  0  0
    3.9237    0.5404    2.9163 O   0  0  0  0  0  0  0  0  0  0  0  0
   -2.9143    4.6127   -0.3219 C   0  0  0  0  0  0  0  0  0  0  0  0
   -0.6558    4.3150    0.2704 O   0  0  0  0  0  0  0  0  0  0  0  0
    1.1227   -0.3953    2.7311 C   0  0  2  0  0  0  0  0  0  0  0  0
   -0.9159    0.9232    2.5281 C   0  0  2  0  0  0  0  0  0  0  0  0
   -0.0978    2.5976    4.0089 O   0  0  0  0  0  0  0  0  0  0  0  0
   -0.3326   -0.3312    3.1607 C   0  0  2  0  0  0  0  0  0  0  0  0
    1.9256   -1.6606    3.2415 C   0  0  0  0  0  0  0  0  0  0  0  0
   -0.5840    0.4372    1.2916 O   0  0  0  0  0  0  0  0  0  0  0  0
   -0.3945   -0.3049    4.5531 O   0  0  0  0  0  0  0  0  0  0  0  0
    1.5380   -2.7607    2.7037 O   0  0  0  0  0  0  0  0  0  0  0  0
    2.6916   -1.5597    4.2271 O   0  0  0  0  0  0  0  0  0  0  0  0
  1  2  1  0
  1  3  1  0
  1  4  1  1
  2  5  1  0
  2  6  1  1
  3  7  1  0
  3  8  1  6
  5 10  1  0
  5 11  1  1
  6 12  1  0
  7 10  1  0
  7 13  1  1
  8 14  1  0
  9  4  1  6
  9 15  1  0
  9 16  1  0
 11 17  1  0
 12 18  2  0
 12 19  2  0
 12 20  1  0
 14 21  1  0
 14 22  2  0
 15 23  1  0
 16 24  1  0
 16 25  1  1
 23 26  1  0
 23 27  1  1
 24 28  1  6
 24 26  1  0
 26 29  1  1
 27 30  2  0
 27 31  1  0
M  CHG  2  20  -1  31  -1
M  END
>  <DRUGBANK_ID>  (1) 
DB15880

>  <COMMON_NAME>  (1) 
Dermatan sulfate

>  <CAS_NUMBER>  (1) 
24967-94-0

>  <UNII>  (1) 
J3OC7JVS54

>  <SYNONYMS>  (1) 
beta-Heparin; Chondroitin sulfate B; Chondroitinsulfuric acid type B; Dermatan 4-sulfate; Dermatan hydrogen sulfate; Dermatan L-iduronate; Dermatan sulfate, low molecular weight; Dermatan sulphate

$$$$
