
     RDKit          3D

 42 47  0  0  1  0  0  0  0  0999 V2000
   12.2487   -5.9274   11.2536 F   0  0  0  0  0  0  0  0  0  0  0  0
   12.0281   -5.6567   12.5491 C   0  0  0  0  0  0  0  0  0  0  0  0
   13.0327   -5.9752   13.4543 C   0  0  0  0  0  0  0  0  0  0  0  0
   12.8223   -5.7234   14.8094 C   0  0  0  0  0  0  0  0  0  0  0  0
   11.6238   -5.1720   15.2572 C   0  0  0  0  0  0  0  0  0  0  0  0
   10.6817   -4.7654   14.3381 C   0  0  0  0  0  0  0  0  0  0  0  0
   10.8419   -5.0450   12.9873 C   0  0  0  0  0  0  0  0  0  0  0  0
    9.7060   -4.8126   12.2649 N   0  0  0  0  0  0  0  0  0  0  0  0
    9.3387   -3.4563   11.8512 C   0  0  0  0  0  0  0  0  0  0  0  0
    7.8000   -3.3965   11.8058 C   0  0  0  0  0  0  0  0  0  0  0  0
    7.1778   -4.3894   10.8971 N   0  0  0  0  0  0  0  0  0  0  0  0
    7.3647   -4.0802    9.4485 C   0  0  0  0  0  0  0  0  0  0  0  0
    8.7606   -4.1473    8.8442 C   0  0  0  0  0  0  0  0  0  0  0  0
    9.3828   -5.3893    8.7292 C   0  0  0  0  0  0  0  0  0  0  0  0
   10.7834   -5.4711    8.7863 C   0  0  0  0  0  0  0  0  0  0  0  0
   11.5525   -4.3687    8.4173 C   0  0  0  0  0  0  0  0  0  0  0  0
   12.9887   -4.6281    8.0013 C   0  0  0  0  0  0  0  0  0  0  0  0
   13.2966   -4.6778    6.5599 O   0  0  0  0  0  0  0  0  0  0  0  0
   12.5533   -5.4585    5.6844 C   0  0  0  0  0  0  0  0  0  0  0  0
   11.1912   -5.6256    5.8498 C   0  0  0  0  0  0  0  0  0  0  0  0
   10.4367   -6.3400    4.9518 C   0  0  0  0  0  0  0  0  0  0  0  0
   10.9625   -6.5256    3.6891 C   0  0  0  0  0  0  0  0  0  0  0  0
   12.1060   -5.8280    3.3214 C   0  0  0  0  0  0  0  0  0  0  0  0
   12.9879   -5.8946    2.0492 C   0  0  0  0  0  0  0  0  0  0  0  0
   13.6766   -5.0490    1.4971 O   0  0  0  0  0  0  0  0  0  0  0  0
   13.5210   -7.1621    2.0814 N   0  0  0  0  0  0  0  0  0  0  0  0
   14.0540   -6.7422    3.7513 C   0  0  0  0  0  0  0  0  0  0  0  0
   12.9819   -5.7783    4.3681 C   0  0  0  0  0  0  0  0  0  0  0  0
   12.3091   -7.8977    0.9982 C   0  0  1  0  0  0  0  0  0  0  0  0
   12.3671   -8.1901   -0.7562 C   0  0  0  0  0  0  0  0  0  0  0  0
   11.5024   -9.4061   -1.3522 C   0  0  0  0  0  0  0  0  0  0  0  0
   11.7168  -10.6018   -0.4947 C   0  0  0  0  0  0  0  0  0  0  0  0
   11.7137  -11.7569   -0.9089 O   0  0  0  0  0  0  0  0  0  0  0  0
   11.8225  -10.3286    0.8455 N   0  0  0  0  0  0  0  0  0  0  0  0
   11.7999   -9.1780    1.5846 C   0  0  0  0  0  0  0  0  0  0  0  0
   11.4088   -9.2581    2.7453 O   0  0  0  0  0  0  0  0  0  0  0  0
   10.8827   -3.1585    8.1823 C   0  0  0  0  0  0  0  0  0  0  0  0
    9.5204   -3.0178    8.5112 C   0  0  0  0  0  0  0  0  0  0  0  0
    7.6028   -5.7486   11.3273 C   0  0  0  0  0  0  0  0  0  0  0  0
    9.1199   -5.9160   11.5460 C   0  0  0  0  0  0  0  0  0  0  0  0
   13.8979   -5.9225   15.7566 C   0  0  0  0  0  0  0  0  0  0  0  0
   14.7578   -6.0090   16.4890 N   0  0  0  0  0  0  0  0  0  0  0  0
  1  2  1  0
  2  3  2  0
  2  7  1  0
  3  4  1  0
  4  5  2  0
  4 41  1  0
  5  6  1  0
  6  7  2  0
  7  8  1  0
  8  9  1  0
  8 40  1  0
  9 10  1  0
 10 11  1  0
 11 12  1  0
 11 39  1  0
 12 13  1  0
 13 14  2  0
 13 38  1  0
 14 15  1  0
 15 16  2  0
 16 17  1  0
 16 37  1  0
 17 18  1  0
 18 19  1  0
 19 20  2  0
 19 28  1  0
 20 21  1  0
 21 22  2  0
 22 23  1  0
 23 24  1  0
 23 28  2  0
 24 25  2  0
 24 26  1  0
 26 27  1  0
 27 28  1  0
 29 30  1  0
 29 35  1  0
 29 26  1  1
 30 31  1  0
 31 32  1  0
 32 33  2  0
 32 34  1  0
 34 35  1  0
 35 36  2  0
 37 38  2  0
 39 40  1  0
 41 42  3  0
M  END
>  <DRUGBANK_ID>  (1) 
DB17584

>  <COMMON_NAME>  (1) 
Mezigdomide

>  <CAS_NUMBER>  (1) 
2259648-80-9

>  <UNII>  (1) 
LA88IH4O02

>  <SYNONYMS>  (1) 
4-(4-((4-(((2-((3s)-2,6-dioxopiperidin-3-yl)-1-oxo-2,3-dihydro-1h-isoindol-4- yl)oxy)methyl)phenyl)methyl)piperazin-1-yl)-3-fluorobenzonitrile; Benzonitrile, 4-(4-((4-(((2-((3s)-2,6-dioxo-3-piperidinyl)-2,3-dihydro-1-oxo-1h-isoindol-4-yl)oxy)methyl)phenyl)methyl)-1-piperazinyl)-3-fluoro-

$$$$
