
     RDKit          3D

 17 18  0  0  0  0  0  0  0  0999 V2000
    1.3795   -0.2129    0.0342 C   0  0  0  0  0  0  0  0  0  0  0  0
    2.7715   -0.4030   -0.0000 N   0  0  0  0  0  0  0  0  0  0  0  0
    3.7506    0.5880    0.2200 C   0  0  0  0  0  0  0  0  0  0  0  0
    3.6559    1.5228    1.2650 C   0  0  0  0  0  0  0  0  0  0  0  0
    4.5917    2.5493    1.3929 C   0  0  0  0  0  0  0  0  0  0  0  0
    5.6667    2.6162    0.5113 C   0  0  0  0  0  0  0  0  0  0  0  0
    5.8026    1.6597   -0.4948 C   0  0  0  0  0  0  0  0  0  0  0  0
    4.8427    0.6583   -0.6457 C   0  0  0  0  0  0  0  0  0  0  0  0
    0.4803   -1.2767    0.0156 C   0  0  0  0  0  0  0  0  0  0  0  0
   -0.9106   -1.0389   -0.0295 C   0  0  0  0  0  0  0  0  0  0  0  0
   -1.4258    0.2676   -0.0594 C   0  0  0  0  0  0  0  0  0  0  0  0
   -2.7941    0.4924   -0.0957 N   0  0  0  0  0  0  0  0  0  0  0  0
   -3.3788    1.8269   -0.2266 C   0  0  0  0  0  0  0  0  0  0  0  0
   -4.0373    2.0202   -1.5862 C   0  0  0  0  0  0  0  0  0  0  0  0
   -4.3628    2.0329    0.9135 C   0  0  0  0  0  0  0  0  0  0  0  0
   -0.5100    1.3059    0.0091 C   0  0  0  0  0  0  0  0  0  0  0  0
    0.8561    1.0765   -0.0273 C   0  0  0  0  0  0  0  0  0  0  0  0
  1  2  1  0
  1  9  2  0
  1 17  1  0
  2  3  1  0
  3  4  2  0
  3  8  1  0
  4  5  1  0
  5  6  2  0
  6  7  1  0
  7  8  2  0
  9 10  1  0
 10 11  2  0
 11 12  1  0
 11 16  1  0
 12 13  1  0
 13 14  1  0
 13 15  1  0
 16 17  2  0
M  END
>  <DRUGBANK_ID>  (1) 
DB14195

>  <COMMON_NAME>  (1) 
4-(Isopropylamino)diphenylamine

>  <CAS_NUMBER>  (1) 
101-72-4

>  <UNII>  (1) 
0M7PSL4100

>  <SYNONYMS>  (1) 
1,4-Benzenediamine, N-(1-methylethyl)-N'-phenyl-; 4-Anilino-N-isopropylaniline; Cyzone; IPPD; N-Fenyl-N'-isopropyl-p-fenylendiamin; N-Isopropyl-N'-phenyl-1,4-phenylenediamine; N-Isopropyl-N'-phenyl-p-phenylenediamine; Nonox ZA; p-Phenylenediamine, N-isopropyl-N'-phenyl

$$$$
