
     RDKit          3D

 32 36  0  0  0  0  0  0  0  0999 V2000
    1.0282   -0.0641    0.1324 N   0  0  0  0  0  0  0  0  0  0  0  0
    0.5605    1.1868   -0.4615 C   0  0  0  0  0  0  0  0  0  0  0  0
    1.0480    1.4026   -1.8746 C   0  0  0  0  0  0  0  0  0  0  0  0
    1.4056    0.3202   -2.6932 C   0  0  0  0  0  0  0  0  0  0  0  0
    1.8536    0.5261   -3.9992 C   0  0  0  0  0  0  0  0  0  0  0  0
    1.9339    1.8069   -4.5090 C   0  0  0  0  0  0  0  0  0  0  0  0
    1.5382    2.9260   -3.7327 C   0  0  0  0  0  0  0  0  0  0  0  0
    1.1004    2.6947   -2.4132 C   0  0  0  0  0  0  0  0  0  0  0  0
    2.4702    1.6263   -5.8011 N   0  0  0  0  0  0  0  0  0  0  0  0
    2.6072    2.8237   -6.6537 C   0  0  0  0  0  0  0  0  0  0  0  0
    3.9924    3.1789   -7.1963 C   0  0  0  0  0  0  0  0  0  0  0  0
    4.4677    2.1067   -8.1298 C   0  0  0  0  0  0  0  0  0  0  0  0
    3.5685    1.7672   -9.3050 C   0  0  0  0  0  0  0  0  0  0  0  0
    3.6664    2.7150  -10.2468 F   0  0  0  0  0  0  0  0  0  0  0  0
    3.8859    0.5854   -9.8682 F   0  0  0  0  0  0  0  0  0  0  0  0
    2.2747    1.6315   -8.9579 F   0  0  0  0  0  0  0  0  0  0  0  0
    2.7801    0.2088   -5.9387 C   0  0  0  0  0  0  0  0  0  0  0  0
    3.6312   -0.6938   -6.9848 C   0  0  0  0  0  0  0  0  0  0  0  0
    5.1701   -1.1590   -6.4835 N   0  0  0  0  0  0  0  0  0  0  0  0
    6.3387   -1.8499   -7.1647 C   0  0  0  0  0  0  0  0  0  0  0  0
    7.2543   -2.4895   -6.7233 O   0  0  0  0  0  0  0  0  0  0  0  0
    6.7671   -0.9558   -8.3009 C   0  0  0  0  0  0  0  0  0  0  0  0
    6.4169   -0.6500   -9.7811 C   0  0  0  0  0  0  0  0  0  0  0  0
    5.7363   -1.7819   -9.2150 C   0  0  0  0  0  0  0  0  0  0  0  0
    6.8379    0.2249   -7.2500 C   0  0  0  0  0  0  0  0  0  0  0  0
    5.8345    0.0573   -6.2701 C   0  0  0  0  0  0  0  0  0  0  0  0
    5.5817    0.8531   -5.1720 C   0  0  0  0  0  0  0  0  0  0  0  0
    6.4882    1.8342   -4.9230 C   0  0  0  0  0  0  0  0  0  0  0  0
    6.2051    2.7613   -4.0030 F   0  0  0  0  0  0  0  0  0  0  0  0
    7.7117    1.7924   -5.5824 C   0  0  0  0  0  0  0  0  0  0  0  0
    7.9083    0.9268   -6.6975 C   0  0  0  0  0  0  0  0  0  0  0  0
    2.2923   -0.4149   -4.8796 N   0  0  0  0  0  0  0  0  0  0  0  0
  1  2  1  0
  2  3  1  0
  3  4  2  0
  3  8  1  0
  4  5  1  0
  5  6  2  0
  5 32  1  0
  6  7  1  0
  6  9  1  0
  7  8  2  0
  9 10  1  0
  9 17  1  0
 10 11  1  0
 11 12  1  0
 12 13  1  0
 13 14  1  0
 13 15  1  0
 13 16  1  0
 17 18  1  0
 17 32  2  0
 18 19  1  0
 19 20  1  0
 19 26  1  0
 20 21  2  0
 20 22  1  0
 22 23  1  0
 22 24  1  0
 22 25  1  0
 23 24  1  0
 25 26  2  0
 25 31  1  0
 26 27  1  0
 27 28  2  0
 28 29  1  0
 28 30  1  0
 30 31  2  0
M  END
>  <DRUGBANK_ID>  (1) 
DB15674

>  <COMMON_NAME>  (1) 
Sisunatovir

>  <CAS_NUMBER>  (1) 
1903763-82-5

>  <UNII>  (1) 
KE63TTO7WK

>  <SYNONYMS>  (1) 
Sisunatovir

$$$$
