
     RDKit          3D

  1  0  0  0  0  0  0  0  0  0999 V2000
    1.0924    0.0054   -0.0378 Si  0  0  0  0  0 15  0  0  0  0  0  0
M  END
>  <DRUGBANK_ID>  (1) 
DB12982

>  <COMMON_NAME>  (1) 
Silicon

>  <CAS_NUMBER>  (1) 
7440-21-3

>  <UNII>  (1) 
Z4152N8IUI

>  <SYNONYMS>  (1) 
silicio

$$$$
