
     RDKit          3D

 22 24  0  0  0  0  0  0  0  0999 V2000
    1.4273   -0.2634    0.0181 C   0  0  0  0  0  0  0  0  0  0  0  0
    0.5207   -1.3242    0.0230 C   0  0  0  0  0  0  0  0  0  0  0  0
   -0.8546   -1.0819   -0.0177 C   0  0  0  0  0  0  0  0  0  0  0  0
   -1.3333    0.2331   -0.0649 C   0  0  0  0  0  0  0  0  0  0  0  0
   -2.8234    0.5096   -0.2009 C   0  0  1  0  0  0  0  0  0  0  0  0
   -3.4252    1.2584    0.9966 C   0  0  0  0  0  0  0  0  0  0  0  0
   -2.8701    2.5517    1.2273 O   0  0  0  0  0  0  0  0  0  0  0  0
   -3.1621    1.2054   -1.5024 C   0  0  0  0  0  0  0  0  0  0  0  0
   -3.8998    0.7283   -2.3632 O   0  0  0  0  0  0  0  0  0  0  0  0
   -2.5328    2.4035   -1.5925 O   0  0  0  0  0  0  0  0  0  0  0  0
   -2.7618    3.1718   -2.7728 C   0  0  2  0  0  0  0  0  0  0  0  0
   -1.3956    3.6620   -3.2860 C   0  0  0  0  0  0  0  0  0  0  0  0
   -1.3014    5.1789   -3.4719 C   0  0  2  0  0  0  0  0  0  0  0  0
   -1.0818    5.8076   -2.0786 C   0  0  2  0  0  0  0  0  0  0  0  0
   -2.4809    6.1790   -1.6083 C   0  0  0  0  0  0  0  0  0  0  0  0
   -3.4116    5.6647   -2.7184 C   0  0  2  0  0  0  0  0  0  0  0  0
   -3.8356    4.2218   -2.4432 C   0  0  0  0  0  0  0  0  0  0  0  0
   -2.5818    5.7540   -3.9250 N   0  0  0  0  0  0  0  0  0  0  0  0
   -3.1511    5.1298   -5.1189 C   0  0  0  0  0  0  0  0  0  0  0  0
   -0.2487    6.9598   -2.1368 O   0  0  0  0  0  0  0  0  0  0  0  0
   -0.3997    1.2844   -0.0464 C   0  0  0  0  0  0  0  0  0  0  0  0
    0.9661    1.0435   -0.0297 C   0  0  0  0  0  0  0  0  0  0  0  0
  1 22  2  0
  2  1  1  0
  2  3  2  0
  3  4  1  0
  4  5  1  0
  5  6  1  1
  5  8  1  0
  7  6  1  0
  8 10  1  0
  9  8  2  0
 11 10  1  1
 11 12  1  0
 13 12  1  1
 13 18  1  0
 14 13  1  0
 14 20  1  6
 15 14  1  0
 16 15  1  1
 16 18  1  0
 17 16  1  0
 17 11  1  0
 19 18  1  0
 21  4  2  0
 22 21  1  0
M  END
>  <DRUGBANK_ID>  (1) 
DB11785

>  <COMMON_NAME>  (1) 
Anisodamine

>  <CAS_NUMBER>  (1) 
55869-99-3

>  <UNII>  (1) 
01343Q8EL8

$$$$
