
     RDKit          3D

 23 25  0  0  0  0  0  0  0  0999 V2000
    0.0328    1.7679    0.4299 S   0  0  0  0  0  0  0  0  0  0  0  0
    4.4971   -3.2356   -0.5340 O   0  0  0  0  0  0  0  0  0  0  0  0
    0.0269   -1.2740    0.6473 N   0  0  0  0  0  0  0  0  0  0  0  0
   -3.0253   -2.6481    2.7050 N   0  0  0  0  0  0  0  0  0  0  0  0
    0.1173   -2.0430    1.9409 C   0  0  0  0  0  0  0  0  0  0  0  0
   -0.7233   -1.5845    3.1500 C   0  0  0  0  0  0  0  0  0  0  0  0
    1.2801   -0.7190    0.3099 C   0  0  0  0  0  0  0  0  0  0  0  0
   -1.1315   -0.7201    0.0603 C   0  0  0  0  0  0  0  0  0  0  0  0
   -2.2319   -1.4110    2.9571 C   0  0  0  0  0  0  0  0  0  0  0  0
    1.3969    0.6615    0.0773 C   0  0  0  0  0  0  0  0  0  0  0  0
   -1.3097    0.6724   -0.0151 C   0  0  0  0  0  0  0  0  0  0  0  0
    2.3576   -1.5784    0.0617 C   0  0  0  0  0  0  0  0  0  0  0  0
   -2.1168   -1.4910   -0.5830 C   0  0  0  0  0  0  0  0  0  0  0  0
    3.5358   -1.0749   -0.4749 C   0  0  0  0  0  0  0  0  0  0  0  0
    2.5746    1.1626   -0.4568 C   0  0  0  0  0  0  0  0  0  0  0  0
   -2.5195    1.2193   -0.4766 C   0  0  0  0  0  0  0  0  0  0  0  0
    3.6339    0.2973   -0.7452 C   0  0  0  0  0  0  0  0  0  0  0  0
   -3.3805   -0.9734   -0.8805 C   0  0  0  0  0  0  0  0  0  0  0  0
   -4.3498   -2.2382    2.2227 C   0  0  0  0  0  0  0  0  0  0  0  0
   -2.4272   -3.5070    1.6945 C   0  0  0  0  0  0  0  0  0  0  0  0
   -3.5858    0.3925   -0.8239 C   0  0  0  0  0  0  0  0  0  0  0  0
    4.6345   -2.0255   -0.7789 C   0  0  0  0  0  0  0  0  0  0  0  0
    5.8983   -1.4904   -1.3776 C   0  0  0  0  0  0  0  0  0  0  0  0
  1 10  1  0
  1 11  1  0
  2 22  2  0
  3  5  1  0
  3  7  1  0
  3  8  1  0
  4  9  1  0
  4 19  1  0
  4 20  1  0
  5  6  1  0
  6  9  1  0
  7 10  2  0
  7 12  1  0
  8 11  2  0
  8 13  1  0
 10 15  1  0
 11 16  1  0
 12 14  2  0
 13 18  2  0
 14 17  1  0
 14 22  1  0
 15 17  2  0
 16 21  2  0
 18 21  1  0
 22 23  1  0
M  END
>  <DRUGBANK_ID>  (1) 
DB01614

>  <COMMON_NAME>  (1) 
Acepromazine

>  <CAS_NUMBER>  (1) 
61-00-7

>  <UNII>  (1) 
54EJ303F0R

>  <SYNONYMS>  (1) 
1-[10-(3-dimethylamino-propyl)-10H-phenothiazin-2-yl]-ethanone; 10-(3-dimethylaminopropyl)phenothiazin-3-yl methyl ketone; 10-(3-dimethylaminopropyl)phenothiazine-3-ethylone; Acepromazina; Acepromazine; Acepromazinum; Acetazine; Acetopromazine; Acetylpromazine

$$$$
