
     RDKit          3D

 24 27  0  0  0  0  0  0  0  0999 V2000
    0.9376   -0.0389   -0.0733 C   0  0  0  0  0  0  0  0  0  0  0  0
    0.5178   -1.1584    0.8276 C   0  0  0  0  0  0  0  0  0  0  0  0
    0.7657   -2.4959    0.5069 C   0  0  0  0  0  0  0  0  0  0  0  0
    0.4372   -3.5460    1.3879 C   0  0  0  0  0  0  0  0  0  0  0  0
   -0.1827   -3.2188    2.6053 C   0  0  0  0  0  0  0  0  0  0  0  0
   -0.4688   -1.8802    2.9110 C   0  0  0  0  0  0  0  0  0  0  0  0
   -0.0992   -0.8497    2.0332 C   0  0  0  0  0  0  0  0  0  0  0  0
   -1.1402   -1.8363    4.1367 C   0  0  0  0  0  0  0  0  0  0  0  0
   -1.3378   -3.1521    4.5185 C   0  0  0  0  0  0  0  0  0  0  0  0
   -0.6257   -3.9803    3.6898 N   0  0  0  0  0  0  0  0  0  0  0  0
   -0.4444   -5.4213    3.8705 C   0  0  0  0  0  0  0  0  0  0  0  0
    0.5324   -5.8802    4.9958 C   0  0  0  0  0  0  0  0  0  0  0  0
    0.1612   -5.5447    6.4278 C   0  0  0  0  0  0  0  0  0  0  0  0
   -0.7104   -6.3422    7.1812 C   0  0  0  0  0  0  0  0  0  0  0  0
   -1.3044   -5.8333    8.3487 C   0  0  0  0  0  0  0  0  0  0  0  0
   -1.0075   -4.5390    8.7607 C   0  0  0  0  0  0  0  0  0  0  0  0
   -0.0433   -3.8149    8.1392 N   0  0  0  0  0  0  0  0  0  0  0  0
    0.5090   -4.3195    6.9935 C   0  0  0  0  0  0  0  0  0  0  0  0
   -1.9136   -3.8328    9.7475 C   0  0  0  0  0  0  0  0  0  0  0  0
   -2.1585   -3.4487    5.7106 C   0  0  0  0  0  0  0  0  0  0  0  0
   -2.0451   -2.2324    6.6526 C   0  0  0  0  0  0  0  0  0  0  0  0
   -2.5568   -1.0362    5.9704 N   0  0  0  0  0  0  0  0  0  0  0  0
   -1.5890   -0.6359    4.9267 C   0  0  0  0  0  0  0  0  0  0  0  0
   -2.7597    0.0173    6.9559 C   0  0  0  0  0  0  0  0  0  0  0  0
  1  2  1  0
  2  3  2  0
  2  7  1  0
  3  4  1  0
  4  5  2  0
  5  6  1  0
  5 10  1  0
  6  7  2  0
  6  8  1  0
  8  9  2  0
  8 23  1  0
  9 10  1  0
  9 20  1  0
 10 11  1  0
 11 12  1  0
 12 13  1  0
 13 14  2  0
 13 18  1  0
 14 15  1  0
 15 16  2  0
 16 17  1  0
 16 19  1  0
 17 18  2  0
 20 21  1  0
 21 22  1  0
 22 23  1  0
 22 24  1  0
M  END
>  <DRUGBANK_ID>  (1) 
DB11725

>  <COMMON_NAME>  (1) 
Latrepirdine

>  <CAS_NUMBER>  (1) 
3613-73-8

>  <UNII>  (1) 
OD9237K1Z6

>  <SYNONYMS>  (1) 
Dimebon; Latrepirdine

$$$$
