
     RDKit          3D

 27 29  0  0  0  0  0  0  0  0999 V2000
    0.6085   -0.0716   -0.0599 O   0  0  0  0  0  0  0  0  0  0  0  0
    5.3211   -1.2552    3.5954 N   0  0  0  0  0  0  0  0  0  0  0  0
    2.4639   -1.2064    0.7408 N   0  0  0  0  0  0  0  0  0  0  0  0
    3.9006   -1.3311    0.7727 C   0  0  0  0  0  0  0  0  0  0  0  0
    4.3311   -0.1099    1.5824 C   0  0  0  0  0  0  0  0  0  0  0  0
    4.9010   -2.5159    2.8604 C   0  0  0  0  0  0  0  0  0  0  0  0
    4.6915   -2.6547    1.2975 C   0  0  0  0  0  0  0  0  0  0  0  0
    4.3800   -0.1415    3.0963 C   0  0  0  0  0  0  0  0  0  0  0  0
    6.9310   -0.9688    3.4753 C   0  0  0  0  0  0  0  0  0  0  0  0
    5.7087   -0.2211    1.3552 C   0  0  0  0  0  0  0  0  0  0  0  0
    5.2623   -3.7782    3.5824 C   0  0  0  0  0  0  0  0  0  0  0  0
    7.9975   -0.8838    1.9340 C   0  0  0  0  0  0  0  0  0  0  0  0
    1.7250   -2.2852    1.2735 C   0  0  0  0  0  0  0  0  0  0  0  0
    1.8114   -0.1723    0.0039 C   0  0  0  0  0  0  0  0  0  0  0  0
    7.9155    0.3848    0.6351 C   0  0  0  0  0  0  0  0  0  0  0  0
    2.6734    0.9315   -0.6687 C   0  0  0  0  0  0  0  0  0  0  0  0
    0.9146   -2.9686    0.4076 C   0  0  0  0  0  0  0  0  0  0  0  0
    1.9317   -2.8313    2.5463 C   0  0  0  0  0  0  0  0  0  0  0  0
    2.4852    1.0875   -2.1590 C   0  0  0  0  0  0  0  0  0  0  0  0
    7.1103    0.3093   -0.6521 C   0  0  0  0  0  0  0  0  0  0  0  0
    7.9470    1.6739    1.1960 C   0  0  0  0  0  0  0  0  0  0  0  0
    0.4056   -4.1960    0.7953 C   0  0  0  0  0  0  0  0  0  0  0  0
    1.7389   -4.1808    2.7881 C   0  0  0  0  0  0  0  0  0  0  0  0
    0.8721   -4.8349    1.9472 C   0  0  0  0  0  0  0  0  0  0  0  0
    6.2144    1.3663   -1.0644 C   0  0  0  0  0  0  0  0  0  0  0  0
    7.0709    2.7055    0.7266 C   0  0  0  0  0  0  0  0  0  0  0  0
    6.1887    2.5556   -0.3556 C   0  0  0  0  0  0  0  0  0  0  0  0
  1 14  2  0
  2  6  1  0
  2  8  1  0
  2  9  1  0
  3  4  1  0
  3 13  1  0
  3 14  1  0
  4  5  1  0
  4  7  1  0
  5  8  1  0
  5 10  1  0
  6  7  1  0
  6 11  1  0
  9 12  1  0
 12 15  1  0
 13 17  2  0
 13 18  1  0
 14 16  1  0
 15 20  2  0
 15 21  1  0
 16 19  1  0
 17 22  1  0
 18 23  2  0
 20 25  1  0
 21 26  2  0
 22 24  2  0
 23 24  1  0
 25 27  2  0
 26 27  1  0
M  END
>  <DRUGBANK_ID>  (1) 
DB09178

>  <COMMON_NAME>  (1) 
Phenaridine

>  <CAS_NUMBER>  (1) 
42045-97-6

>  <UNII>  (1) 
S07S9928YH

>  <SYNONYMS>  (1) 
2,5-Dimethylfentanyl

$$$$
