
     RDKit          3D

 19 21  0  0  0  0  0  0  0  0999 V2000
    1.0002    0.0036    0.0235 C   0  0  0  0  0  0  0  0  0  0  0  0
    0.5397    1.3716    0.4143 C   0  0  0  0  0  0  0  0  0  0  0  0
   -0.5285    1.5815    1.1480 N   0  0  0  0  0  0  0  0  0  0  0  0
   -0.6107    2.9432    1.3295 C   0  0  0  0  0  0  0  0  0  0  0  0
    0.4657    3.6099    0.7311 C   0  0  0  0  0  0  0  0  0  0  0  0
    1.1407    2.5810    0.0617 N   0  0  0  0  0  0  0  0  0  0  0  0
    2.2735    2.6710   -0.8558 C   0  0  0  0  0  0  0  0  0  0  0  0
    1.9975    3.2831   -2.2501 C   0  0  0  0  0  0  0  0  0  0  0  0
    1.5463    4.7215   -2.1670 C   0  0  0  0  0  0  0  0  0  0  0  0
    3.2707    3.3025   -3.0981 C   0  0  0  0  0  0  0  0  0  0  0  0
    0.5425    5.0238    0.8789 C   0  0  0  0  0  0  0  0  0  0  0  0
   -0.5453    5.6612    1.5010 C   0  0  0  0  0  0  0  0  0  0  0  0
   -0.5594    7.0530    1.4766 C   0  0  0  0  0  0  0  0  0  0  0  0
    0.4325    7.7750    0.8135 C   0  0  0  0  0  0  0  0  0  0  0  0
    1.4670    7.0574    0.2570 C   0  0  0  0  0  0  0  0  0  0  0  0
    1.5858    5.7039    0.3407 N   0  0  0  0  0  0  0  0  0  0  0  0
   -1.5698    5.0086    2.0757 N   0  0  0  0  0  0  0  0  0  0  0  0
   -1.6074    3.6615    2.0244 C   0  0  0  0  0  0  0  0  0  0  0  0
   -2.6654    3.0287    2.6424 N   0  0  0  0  0  0  0  0  0  0  0  0
  1  2  1  0
  2  3  2  0
  2  6  1  0
  3  4  1  0
  4  5  2  0
  4 18  1  0
  5  6  1  0
  5 11  1  0
  6  7  1  0
  7  8  1  0
  8  9  1  0
  8 10  1  0
 11 12  2  0
 11 16  1  0
 12 13  1  0
 12 17  1  0
 13 14  2  0
 14 15  1  0
 15 16  2  0
 17 18  2  0
 18 19  1  0
M  END
>  <DRUGBANK_ID>  (1) 
DB05680

>  <COMMON_NAME>  (1) 
Sotirimod

>  <CAS_NUMBER>  (1) 
227318-75-4

>  <UNII>  (1) 
X04FQM7J4M

>  <SYNONYMS>  (1) 
Sotirimod

$$$$
