
     RDKit          3D

 32 35  0  0  1  0  0  0  0  0999 V2000
    1.0762   -0.1205   -0.0808 Cl  0  0  0  0  0  0  0  0  0  0  0  0
    6.5652   -2.5836    1.0272 O   0  0  0  0  0  0  0  0  0  0  0  0
    9.1043    0.2774    0.8243 O   0  0  0  0  0  0  0  0  0  0  0  0
    3.6427    1.3007    7.4779 O   0  0  0  0  0  0  0  0  0  0  0  0
    6.9914    0.0636   -0.1188 N   0  0  0  0  0  0  0  0  0  0  0  0
    5.2076    1.6146    5.8630 N   0  0  0  0  0  0  0  0  0  0  0  0
    6.4987   -2.6713   -1.4556 C   0  0  0  0  0  0  0  0  0  0  0  0
    7.7807   -1.8353   -1.5292 C   0  0  0  0  0  0  0  0  0  0  0  0
    5.7305   -2.5619   -0.1246 C   0  0  2  0  0  0  0  0  0  0  0  0
    7.5250   -0.3364   -1.4176 C   0  0  0  0  0  0  0  0  0  0  0  0
    4.9273   -1.2715   -0.0737 C   0  0  0  0  0  0  0  0  0  0  0  0
    5.5797   -0.0173   -0.0177 C   0  0  0  0  0  0  0  0  0  0  0  0
    7.8714    0.3368    0.9479 C   0  0  0  0  0  0  0  0  0  0  0  0
    3.5194   -1.2928   -0.0729 C   0  0  0  0  0  0  0  0  0  0  0  0
    4.8481    1.1730   -0.0138 C   0  0  0  0  0  0  0  0  0  0  0  0
    7.3406    0.7134    2.2892 C   0  0  0  0  0  0  0  0  0  0  0  0
    2.7983   -0.0930   -0.0604 C   0  0  0  0  0  0  0  0  0  0  0  0
    3.4560    1.1356   -0.0450 C   0  0  0  0  0  0  0  0  0  0  0  0
    7.6152    1.9183    2.9643 C   0  0  0  0  0  0  0  0  0  0  0  0
    6.4563   -0.1472    2.8727 C   0  0  0  0  0  0  0  0  0  0  0  0
    6.9947    2.1966    4.2282 C   0  0  0  0  0  0  0  0  0  0  0  0
    5.9530    1.3877    4.6798 C   0  0  0  0  0  0  0  0  0  0  0  0
    5.6377    0.3367    3.8593 C   0  0  0  0  0  0  0  0  0  0  0  0
    8.4862    2.9560    2.3277 C   0  0  0  0  0  0  0  0  0  0  0  0
    4.2120    0.8390    6.4954 C   0  0  0  0  0  0  0  0  0  0  0  0
    3.7885   -0.5248    5.9893 C   0  0  0  0  0  0  0  0  0  0  0  0
    2.4755   -0.7388    5.5105 C   0  0  0  0  0  0  0  0  0  0  0  0
    4.7697   -1.5091    5.7438 C   0  0  0  0  0  0  0  0  0  0  0  0
    2.2198   -1.8581    4.6859 C   0  0  0  0  0  0  0  0  0  0  0  0
    1.3301    0.2017    5.7615 C   0  0  0  0  0  0  0  0  0  0  0  0
    4.5340   -2.4974    4.7690 C   0  0  0  0  0  0  0  0  0  0  0  0
    3.2632   -2.6604    4.2282 C   0  0  0  0  0  0  0  0  0  0  0  0
  1 17  1  0
  3 13  2  0
  4 25  2  0
  5 10  1  0
  5 12  1  0
  5 13  1  0
  6 22  1  0
  6 25  1  0
  7  8  1  0
  7  9  1  0
  8 10  1  0
  9 11  1  0
  9  2  1  1
 11 12  2  0
 11 14  1  0
 12 15  1  0
 13 16  1  0
 14 17  2  0
 15 18  2  0
 16 19  2  0
 16 20  1  0
 17 18  1  0
 19 21  1  0
 19 24  1  0
 20 23  2  0
 21 22  2  0
 22 23  1  0
 25 26  1  0
 26 27  2  0
 26 28  1  0
 27 29  1  0
 27 30  1  0
 28 31  2  0
 29 32  2  0
 31 32  1  0
M  END
>  <DRUGBANK_ID>  (1) 
DB06212

>  <COMMON_NAME>  (1) 
Tolvaptan

>  <CAS_NUMBER>  (1) 
150683-30-0

>  <UNII>  (1) 
1E2497LPNY

$$$$
