
     RDKit          3D

 12 12  0  0  0  0  0  0  0  0999 V2000
   -0.2538    1.5645    0.1189 C   0  0  0  0  0  0  0  0  0  0  0  0
    1.0867   -0.7331   -0.1068 S   0  0  0  0  0  0  0  0  0  0  0  0
   -1.3137    0.7758   -0.5964 C   0  0  0  0  0  0  0  0  0  0  0  0
   -0.9673   -0.9148   -0.0809 S   0  0  0  0  0  0  0  0  0  0  0  0
    1.1804    1.0901   -0.0710 C   0  0  2  0  0  0  0  0  0  0  0  0
    2.1302    1.6047    1.0342 C   0  0  0  0  0  0  0  0  0  0  0  0
    1.8511    3.0547    1.5053 C   0  0  0  0  0  0  0  0  0  0  0  0
    0.5534    3.2905    2.3189 C   0  0  0  0  0  0  0  0  0  0  0  0
    0.3493    2.2677    3.4393 C   0  0  0  0  0  0  0  0  0  0  0  0
    1.3452    2.5422    4.5288 C   0  0  0  0  0  0  0  0  0  0  0  0
    2.5612    2.4766    4.3719 O   0  0  0  0  0  0  0  0  0  0  0  0
    0.7956    2.9088    5.6991 O   0  0  0  0  0  0  0  0  0  0  0  0
  1  3  1  0
  2  4  1  0
  3  4  1  0
  5  1  1  0
  5  2  1  0
  5  6  1  1
  6  7  1  0
  7  8  1  0
  8  9  1  0
  9 10  1  0
 10 12  1  0
 10 11  2  0
M  END
>  <DRUGBANK_ID>  (1) 
DB00166

>  <SECONDARY_ACCESSION_NUMBERS>  (1) 
NUTR00035

>  <COMMON_NAME>  (1) 
Lipoic acid

>  <CAS_NUMBER>  (1) 
1200-22-2

>  <UNII>  (1) 
VLL71EBS9Z

>  <SYNONYMS>  (1) 
(+)-alpha-Lipoic acid; (R)-(+)-Lipoate; (R)-(+)-lipoic acid; (R)-1,2-Dithiolane-3-pentanoic acid; (R)-1,2-dithiolane-3-valeric acid; (R)-6,8-thioctic acid; (R)-lipoic acid; Alpha lipoic acid; alpha-Lipoic acid; alpha-Liponsäure; D-thioctic acid; Lipoic acid; R-(+)-thioctic acid; R-alpha-lipoic acid; Thioctic acid; Thioctic acid D-form; α-lipoic acid

$$$$
