1545
     RDKit          3D

 25 27  0  0  1  0  0  0  0  0999 V2000
    1.0994   -0.0011   -0.0878 Cl  0  0  0  0  0  0  0  0  0  0  0  0
    5.1410    1.8486    2.8831 F   0  0  0  0  0  0  0  0  0  0  0  0
    6.6260    1.9345   -3.8456 O   0  0  0  0  0  0  0  0  0  0  0  0
    9.0383    0.5055   -0.6562 O   0  0  0  0  0  0  0  0  0  0  0  0
    5.2567    0.9064   -2.4869 O   0  0  0  0  0  0  0  0  0  0  0  0
    7.0050   -0.1007    0.0511 N   0  0  0  0  0  0  0  0  0  0  0  0
    6.5963    2.8807   -0.4914 N   0  0  0  0  0  0  0  0  0  0  0  0
    4.9018    1.1978    0.1561 C   0  0  0  0  0  0  0  0  0  0  0  0
    5.5763    2.5259    0.2180 C   0  0  0  0  0  0  0  0  0  0  0  0
    7.2321    1.8988   -1.4154 C   0  0  0  0  0  0  0  0  0  0  0  0
    5.6100   -0.0140    0.0870 C   0  0  0  0  0  0  0  0  0  0  0  0
    5.0072    3.5061    1.1834 C   0  0  0  0  0  0  0  0  0  0  0  0
    7.8250    0.7396   -0.6398 C   0  0  0  0  0  0  0  0  0  0  0  0
    3.4992    1.1953    0.1073 C   0  0  0  0  0  0  0  0  0  0  0  0
    4.9083   -1.2148   -0.0477 C   0  0  0  0  0  0  0  0  0  0  0  0
    6.3168    1.5311   -2.5975 C   0  0  0  0  0  0  0  0  0  0  0  0
    2.8174   -0.0066   -0.0290 C   0  0  0  0  0  0  0  0  0  0  0  0
    3.5146   -1.2077   -0.1242 C   0  0  0  0  0  0  0  0  0  0  0  0
    4.7874    3.0827    2.4952 C   0  0  0  0  0  0  0  0  0  0  0  0
    4.6486    4.8034    0.8023 C   0  0  0  0  0  0  0  0  0  0  0  0
    4.1953    3.9246    3.4250 C   0  0  0  0  0  0  0  0  0  0  0  0
    4.1532    5.6866    1.7697 C   0  0  0  0  0  0  0  0  0  0  0  0
    3.9275    5.2464    3.0780 C   0  0  0  0  0  0  0  0  0  0  0  0
    7.8102    2.6497   -4.1938 C   0  0  0  0  0  0  0  0  0  0  0  0
    7.7827    4.0599   -3.6380 C   0  0  0  0  0  0  0  0  0  0  0  0
  1 17  1  0
  2 19  1  0
  3 16  1  0
  3 24  1  0
  4 13  2  0
  5 16  2  0
  6 11  1  0
  6 13  1  0
  7  9  2  0
  7 10  1  0
  8  9  1  0
  8 11  2  0
  8 14  1  0
  9 12  1  0
 10 13  1  0
 10 16  1  0
 11 15  1  0
 12 19  2  0
 12 20  1  0
 14 17  2  0
 15 18  2  0
 17 18  1  0
 19 21  1  0
 20 22  2  0
 21 23  2  0
 22 23  1  0
 24 25  1  0
M  END
>  <DRUGBANK_ID>  (1) 
DB01545

>  <COMMON_NAME>  (1) 
Ethyl loflazepate

>  <CAS_NUMBER>  (1) 
29177-84-2

>  <UNII>  (1) 
VJB5FW9W9J

>  <SYNONYMS>  (1) 
Ethyl fluclozepate; Ethyl loflazepate; Ethylis loflazepas; Loflazepate d'ethyle; Loflazepato de etilo

$$$$
