
     RDKit          3D

 12 12  0  0  0  0  0  0  0  0999 V2000
    0.9526   -0.0406    0.0093 F   0  0  0  0  0  0  0  0  0  0  0  0
    2.7547    1.1855   -0.0092 F   0  0  0  0  0  0  0  0  0  0  0  0
    2.7441   -0.7131    1.0613 F   0  0  0  0  0  0  0  0  0  0  0  0
    2.5829   -2.1223   -1.4505 N   0  0  0  0  0  0  0  0  0  0  0  0
    3.3111   -0.0577   -2.3676 N   0  0  0  0  0  0  0  0  0  0  0  0
    2.6472   -4.0940   -2.5171 N   0  0  0  0  0  0  0  0  0  0  0  0
    2.7674   -0.8393   -1.3608 C   0  0  0  0  0  0  0  0  0  0  0  0
    3.4482   -2.0751   -3.6955 C   0  0  0  0  0  0  0  0  0  0  0  0
    2.3127   -0.1031   -0.0788 C   0  0  0  0  0  0  0  0  0  0  0  0
    2.8907   -2.8332   -2.5628 C   0  0  0  0  0  0  0  0  0  0  0  0
    3.6290   -0.6406   -3.4718 C   0  0  0  0  0  0  0  0  0  0  0  0
    3.7742   -2.6269   -4.8722 C   0  0  0  0  0  0  0  0  0  0  0  0
  1  9  1  0
  2  9  1  0
  3  9  1  0
  4  7  2  0
  4 10  1  0
  5  7  1  0
  5 11  2  0
  6 10  2  0
  7  9  1  0
  8 10  1  0
  8 11  1  0
  8 12  2  0
M  END
>  <DRUGBANK_ID>  (1) 
DB02885

>  <SECONDARY_ACCESSION_NUMBERS>  (1) 
EXPT01848

>  <COMMON_NAME>  (1) 
4-Imino-5-methidyl-2-trifluoromethylpyrimidine

>  <CAS_NUMBER>  (1) 
921227-53-4

$$$$
