HBC
     RDKit          3D

 22 25  0  0  0  0  0  0  0  0999 V2000
    5.8027   -1.1131    0.5739 C   0  0  0  0  0  0  0  0  0  0  0  0
    7.1537   -1.2703    0.2145 C   0  0  0  0  0  0  0  0  0  0  0  0
    7.8792   -2.3251    0.7613 C   0  0  0  0  0  0  0  0  0  0  0  0
    7.2503   -3.2002    1.6489 C   0  0  0  0  0  0  0  0  0  0  0  0
    5.8971   -3.0556    1.9576 C   0  0  0  0  0  0  0  0  0  0  0  0
    5.1578   -2.0421    1.3778 C   0  0  0  0  0  0  0  0  0  0  0  0
    2.8110    0.9966    1.4174 C   0  0  2  0  0  0  0  0  0  0  0  0
    1.3425    1.1339    0.8856 C   0  0  0  0  0  0  0  0  0  0  0  0
    1.4123    2.3763   -0.0014 C   0  0  0  0  0  0  0  0  0  0  0  0
    2.8423    2.8691    0.2201 C   0  0  1  0  0  0  0  0  0  0  0  0
    3.1206    2.4603    1.6757 C   0  0  0  0  0  0  0  0  0  0  0  0
    3.8250    1.9745   -0.6084 C   0  0  2  0  0  0  0  0  0  0  0  0
    3.7873    0.6092    0.2389 C   0  0  2  0  0  0  0  0  0  0  0  0
    3.1284   -0.5876   -0.3617 N   0  0  0  0  0  0  0  0  0  0  0  0
    5.2537    0.2546    0.6655 C   0  0  0  0  0  0  0  0  0  0  0  0
    6.0225    1.0362    1.1866 O   0  0  0  0  0  0  0  0  0  0  0  0
    6.2191    2.0339   -1.5136 C   0  0  0  0  0  0  0  0  0  0  0  0
    5.1958    2.6706   -0.7866 C   0  0  0  0  0  0  0  0  0  0  0  0
    5.5473    3.8340   -0.0667 C   0  0  0  0  0  0  0  0  0  0  0  0
    6.8640    4.2886    0.0057 C   0  0  0  0  0  0  0  0  0  0  0  0
    7.8758    3.5585   -0.5975 C   0  0  0  0  0  0  0  0  0  0  0  0
    7.5536    2.4458   -1.3722 C   0  0  0  0  0  0  0  0  0  0  0  0
  1  2  2  0
  1  6  1  0
  1 15  1  0
  2  3  1  0
  3  4  2  0
  4  5  1  0
  5  6  2  0
  7  8  1  6
  7 11  1  0
  7 13  1  0
  8  9  1  0
 10  9  1  6
 10 11  1  0
 10 12  1  0
 12 13  1  0
 12 18  1  1
 13 15  1  0
 13 14  1  6
 15 16  2  0
 17 18  2  0
 17 22  1  0
 18 19  1  0
 19 20  2  0
 20 21  1  0
 21 22  2  0
M  END
>  <DRUGBANK_ID>  (1) 
DB07883

>  <COMMON_NAME>  (1) 
(2-AMINO-3-PHENYL-BICYCLO[2.2.1]HEPT-2-YL)-PHENYL-METHANONE

$$$$
