
     RDKit          3D

 26 27  0  0  1  0  0  0  0  0999 V2000
    2.2786    3.2794   -4.5578 C   0  0  0  0  0  0  0  0  0  0  0  0
    4.4864    7.3287  -11.3067 C   0  0  0  0  0  0  0  0  0  0  0  0
    0.9937    5.5226   -2.3602 C   0  0  0  0  0  0  0  0  0  0  0  0
    0.3890    6.0613   -6.4927 C   0  0  0  0  0  0  0  0  0  0  0  0
    2.3629    5.1109   -3.4319 C   0  0  0  0  0  0  0  0  0  0  0  0
    1.2718    6.2012   -7.5148 C   0  0  0  0  0  0  0  0  0  0  0  0
   -0.3387    5.2486   -2.0615 C   0  0  0  0  0  0  0  0  0  0  0  0
   -0.7491    5.0163   -6.3733 C   0  0  0  0  0  0  0  0  0  0  0  0
    3.2666    6.9781   -8.7939 C   0  0  0  0  0  0  0  0  0  0  0  0
    5.1680    8.1904   -7.8601 C   0  0  0  0  0  0  0  0  0  0  0  0
    2.5717    4.8567   -4.9703 C   0  0  2  0  0  0  0  0  0  0  0  0
    2.6141    6.9190   -7.5521 C   0  0  0  0  0  0  0  0  0  0  0  0
    4.4999    7.6448   -8.9572 C   0  0  0  0  0  0  0  0  0  0  0  0
   -0.9179    5.2660   -3.4346 C   0  0  0  0  0  0  0  0  0  0  0  0
   -0.7500    3.6989   -5.4924 C   0  0  1  0  0  0  0  0  0  0  0  0
    4.6124    8.0728   -6.6062 C   0  0  0  0  0  0  0  0  0  0  0  0
    3.3516    7.4635   -6.4725 C   0  0  0  0  0  0  0  0  0  0  0  0
   -0.3915    3.9948   -4.0824 C   0  0  2  0  0  0  0  0  0  0  0  0
    2.8535    7.4771   -5.1191 C   0  0  0  0  0  0  0  0  0  0  0  0
   -1.4388    6.2076   -3.8978 O   0  0  0  0  0  0  0  0  0  0  0  0
   -1.9972    3.0308   -5.3484 O   0  0  0  0  0  0  0  0  0  0  0  0
    5.3478    8.5657   -5.5539 O   0  0  0  0  0  0  0  0  0  0  0  0
   -0.0131    2.8870   -3.2412 O   0  0  0  0  0  0  0  0  0  0  0  0
    2.9589    8.4439   -4.3939 O   0  0  0  0  0  0  0  0  0  0  0  0
    5.1331    7.8488  -10.1537 O   0  0  0  0  0  0  0  0  0  0  0  0
    2.3358    6.3108   -4.7214 O   0  0  0  0  0  0  0  0  0  0  0  0
  5  3  1  0
  6  4  2  0
  7  3  2  0
  8  4  1  0
 11  5  1  0
 11  1  1  1
 12  6  1  0
 12  9  2  0
 13  9  1  0
 13 10  2  0
 14  7  1  0
 15  8  1  0
 15 21  1  1
 16 10  1  0
 17 12  1  0
 17 16  2  0
 18 14  1  0
 18 15  1  0
 18 23  1  1
 19 17  1  0
 20 14  2  0
 22 16  1  0
 24 19  2  0
 25  2  1  0
 25 13  1  0
 26 11  1  0
 26 19  1  0
M  END
>  <DRUGBANK_ID>  (1) 
DB07788

>  <COMMON_NAME>  (1) 
(3R,5Z,8S,9S,11E)-8,9,16-TRIHYDROXY-14-METHOXY-3-METHYL-3,4,9,10-TETRAHYDRO-1H-2-BENZOXACYCLOTETRADECINE-1,7(8H)-DIONE

$$$$
