
     RDKit          3D

  9  8  0  0  0  0  0  0  0  0999 V2000
    0.8522    2.2326    1.4039 C   0  0  0  0  0  0  0  0  0  0  0  0
    0.3950    1.4599    0.2110 C   0  0  0  0  0  0  0  0  0  0  0  0
   -0.9536    3.3186   -0.8377 C   0  0  0  0  0  0  0  0  0  0  0  0
   -0.3882    4.1257   -2.0077 C   0  0  0  0  0  0  0  0  0  0  0  0
   -0.4467    1.8837   -0.7465 C   0  0  0  0  0  0  0  0  0  0  0  0
   -0.8902    3.6666   -3.3465 C   0  0  0  0  0  0  0  0  0  0  0  0
   -0.9488    0.9783   -1.6687 N   0  0  0  0  0  0  0  0  0  0  0  0
   -1.7037    4.2510   -4.0489 O   0  0  0  0  0  0  0  0  0  0  0  0
   -0.3925    2.4766   -3.7351 O   0  0  0  0  0  0  0  0  0  0  0  0
  2  1  1  0
  4  3  1  0
  5  2  2  0
  5  3  1  0
  6  4  1  0
  7  5  1  0
  8  6  2  0
  9  6  1  0
M  END
>  <DRUGBANK_ID>  (1) 
DB01699

>  <SECONDARY_ACCESSION_NUMBERS>  (1) 
EXPT01579

>  <COMMON_NAME>  (1) 
(4e)-4-Aminohex-4-Enoic Acid

$$$$
