JNH
     RDKit          3D

 24 26  0  0  0  0  0  0  0  0999 V2000
   -1.0914    0.5466    0.1707 N   0  0  0  0  0  0  0  0  0  0  0  0
   -0.9052   -0.8596   -0.2171 C   0  0  1  0  0  0  0  0  0  0  0  0
    0.5438   -1.1248    0.2209 C   0  0  0  0  0  0  0  0  0  0  0  0
    1.2521    0.1784   -0.1338 C   0  0  0  0  0  0  0  0  0  0  0  0
    0.1793    1.2562    0.0446 C   0  0  0  0  0  0  0  0  0  0  0  0
   -2.3147    1.1030    0.5098 C   0  0  0  0  0  0  0  0  0  0  0  0
   -2.3896    2.5770    0.9666 C   0  0  1  0  0  0  0  0  0  0  0  0
   -3.3702    0.4494    0.4990 O   0  0  0  0  0  0  0  0  0  0  0  0
   -3.3920    3.2637    0.1233 N   0  0  0  0  0  0  0  0  0  0  0  0
   -2.8475    2.6447    2.4426 C   0  0  0  0  0  0  0  0  0  0  0  0
    0.0548    0.5694    4.8723 C   0  0  0  0  0  0  0  0  0  0  0  0
   -0.9962   -0.1241    4.2653 C   0  0  0  0  0  0  0  0  0  0  0  0
   -1.9601    0.5587    3.5332 C   0  0  0  0  0  0  0  0  0  0  0  0
   -1.8791    1.9478    3.3666 C   0  0  0  0  0  0  0  0  0  0  0  0
   -0.8418    2.6518    3.9812 C   0  0  0  0  0  0  0  0  0  0  0  0
    0.1355    1.9616    4.6991 C   0  0  0  0  0  0  0  0  0  0  0  0
    2.8712   -1.4846    7.3346 C   0  0  0  0  0  0  0  0  0  0  0  0
    2.7165   -1.8561    6.0002 C   0  0  0  0  0  0  0  0  0  0  0  0
    1.7995   -1.1855    5.1909 C   0  0  0  0  0  0  0  0  0  0  0  0
    1.0164   -0.1458    5.7112 C   0  0  0  0  0  0  0  0  0  0  0  0
    1.1502    0.1829    7.0693 C   0  0  0  0  0  0  0  0  0  0  0  0
    2.0967   -0.4570    7.8676 C   0  0  0  0  0  0  0  0  0  0  0  0
   -1.8935   -1.8988    0.3501 C   0  0  0  0  0  0  0  0  0  0  0  0
   -1.9752   -3.1239   -0.4568 N   0  0  0  0  0  0  0  0  0  0  0  0
  1  2  1  0
  1  5  1  0
  1  6  1  0
  2  3  1  0
  2 23  1  1
  3  4  1  0
  4  5  1  0
  6  7  1  0
  6  8  2  0
  7  9  1  6
  7 10  1  0
 10 14  1  0
 11 12  2  0
 11 16  1  0
 11 20  1  0
 12 13  1  0
 13 14  2  0
 14 15  1  0
 15 16  2  0
 17 18  2  0
 17 22  1  0
 18 19  1  0
 19 20  2  0
 20 21  1  0
 21 22  2  0
 23 24  1  0
M  END
>  <DRUGBANK_ID>  (1) 
DB08024

>  <COMMON_NAME>  (1) 
1-[2-(S)-AMINO-3-BIPHENYL-4-YL-PROPIONYL]-PYRROLIDINE-2-(S)-CARBONITRILE

$$$$
