GG5
     RDKit          3D

 18 20  0  0  0  0  0  0  0  0999 V2000
   -0.6043   -1.1651    0.0169 C   0  0  0  0  0  0  0  0  0  0  0  0
   -1.3484   -0.0390    0.0146 N   0  0  0  0  0  0  0  0  0  0  0  0
   -0.6795    1.1343    0.0230 C   0  0  0  0  0  0  0  0  0  0  0  0
    0.7016    1.2369    0.0406 C   0  0  0  0  0  0  0  0  0  0  0  0
    1.4428    0.0582    0.0403 C   0  0  0  0  0  0  0  0  0  0  0  0
    0.7788   -1.1689    0.0260 C   0  0  0  0  0  0  0  0  0  0  0  0
    2.8889    0.0945   -0.0263 C   0  0  0  0  0  0  0  0  0  0  0  0
    3.7097    0.6697    0.9107 C   0  0  0  0  0  0  0  0  0  0  0  0
    4.9840    0.4450    0.4763 N   0  0  0  0  0  0  0  0  0  0  0  0
    5.0495   -0.2498   -0.6754 N   0  0  0  0  0  0  0  0  0  0  0  0
    3.7676   -0.4502   -1.0103 C   0  0  0  0  0  0  0  0  0  0  0  0
    3.3575   -1.1342   -2.2302 C   0  0  0  0  0  0  0  0  0  0  0  0
    2.5423   -0.4567   -3.1513 C   0  0  0  0  0  0  0  0  0  0  0  0
    1.9767   -1.1401   -4.2262 C   0  0  0  0  0  0  0  0  0  0  0  0
    2.2399   -2.4947   -4.3849 C   0  0  0  0  0  0  0  0  0  0  0  0
    3.0718   -3.1746   -3.4997 C   0  0  0  0  0  0  0  0  0  0  0  0
    3.6389   -2.4929   -2.4192 C   0  0  0  0  0  0  0  0  0  0  0  0
    1.6706   -3.1593   -5.3989 F   0  0  0  0  0  0  0  0  0  0  0  0
  1  6  2  0
  1  2  1  0
  2  3  2  0
  3  4  1  0
  4  5  2  0
  5  6  1  0
  5  7  1  0
  7 11  1  0
  7  8  2  0
  8  9  1  0
  9 10  1  0
 10 11  2  0
 11 12  1  0
 12 13  2  0
 12 17  1  0
 13 14  1  0
 14 15  2  0
 15 18  1  0
 15 16  1  0
 16 17  2  0
M  END
>  <DRUGBANK_ID>  (1) 
DB07829

>  <COMMON_NAME>  (1) 
4-[3-(4-FLUOROPHENYL)-1H-PYRAZOL-4-YL]PYRIDINE

$$$$
