
     RDKit          3D

 27 29  0  0  0  0  0  0  0  0999 V2000
    0.9719   -0.1002    0.1466 C   0  0  0  0  0  0  0  0  0  0  0  0
    0.7004   -2.1515   -1.3279 C   0  0  0  0  0  0  0  0  0  0  0  0
    2.1990    3.6226   -5.0626 C   0  0  0  0  0  0  0  0  0  0  0  0
    0.7035    4.0267   -2.1002 C   0  0  0  0  0  0  0  0  0  0  0  0
   -0.1048    5.0310   -1.6804 C   0  0  0  0  0  0  0  0  0  0  0  0
    1.9509    2.8360   -6.1707 C   0  0  0  0  0  0  0  0  0  0  0  0
    3.0457    3.1350   -4.0772 C   0  0  0  0  0  0  0  0  0  0  0  0
    0.3341    2.6996   -1.9679 C   0  0  0  0  0  0  0  0  0  0  0  0
   -1.2941    4.7058   -1.0521 C   0  0  0  0  0  0  0  0  0  0  0  0
    2.3695    1.4973   -6.1776 C   0  0  0  0  0  0  0  0  0  0  0  0
   -1.1422   -0.4019   -1.2568 C   0  0  0  0  0  0  0  0  0  0  0  0
    4.3831    1.6258   -2.9194 C   0  0  0  0  0  0  0  0  0  0  0  0
   -2.7273    1.4136   -0.4566 C   0  0  0  0  0  0  0  0  0  0  0  0
    2.2941    0.0368   -2.3267 C   0  0  0  0  0  0  0  0  0  0  0  0
    2.6903   -1.3603   -4.2359 C   0  0  0  0  0  0  0  0  0  0  0  0
    3.6048    1.8588   -4.1206 C   0  0  0  0  0  0  0  0  0  0  0  0
   -1.5412    1.0486   -1.0558 C   0  0  0  0  0  0  0  0  0  0  0  0
    3.1812   -1.1161   -2.8217 C   0  0  0  0  0  0  0  0  0  0  0  0
   -0.8679    2.2980   -1.3687 C   0  0  0  0  0  0  0  0  0  0  0  0
   -1.6551    3.3482   -0.9065 C   0  0  0  0  0  0  0  0  0  0  0  0
    3.1091    0.9519   -5.1083 C   0  0  0  0  0  0  0  0  0  0  0  0
    0.3465   -0.6841   -1.1473 C   0  0  0  0  0  0  0  0  0  0  0  0
    4.8220    1.4747   -1.8339 N   0  0  0  0  0  0  0  0  0  0  0  0
   -2.7629    2.7741   -0.3414 N   0  0  0  0  0  0  0  0  0  0  0  0
    0.8882   -0.1407   -2.3367 N   0  0  0  0  0  0  0  0  0  0  0  0
    4.6043   -1.0306   -2.8419 O   0  0  0  0  0  0  0  0  0  0  0  0
    3.3027   -0.4191   -5.1834 O   0  0  0  0  0  0  0  0  0  0  0  0
  5  4  2  0
  6  3  2  0
  7  3  1  0
  8  4  1  0
  9  5  1  0
 10  6  1  0
 16  7  2  0
 16 12  1  0
 17 11  1  0
 17 13  2  0
 18 14  1  0
 18 15  1  0
 19  8  2  0
 19 17  1  0
 20  9  2  0
 20 19  1  0
 21 10  2  0
 21 16  1  0
 22  1  1  0
 22  2  1  0
 22 11  1  0
 23 12  3  0
 24 13  1  0
 24 20  1  0
 25 14  1  0
 25 22  1  0
 26 18  1  0
 27 15  1  0
 27 21  1  0
M  END
>  <DRUGBANK_ID>  (1) 
DB12752

>  <COMMON_NAME>  (1) 
Bucindolol

>  <CAS_NUMBER>  (1) 
71119-11-4

>  <UNII>  (1) 
E9UO06K7CE

>  <SYNONYMS>  (1) 
Bucindolol

$$$$
