
     RDKit          3D

 14 13  0  0  0  0  0  0  0  0999 V2000
    1.0737    0.2626   -0.0964 O   0  0  0  0  0  0  0  0  0  0  0  0
    0.5540    0.2833    1.2353 C   0  0  0  0  0  0  0  0  0  0  0  0
    1.0885   -0.8365    2.1744 C   0  0  0  0  0  0  0  0  0  0  0  0
    2.6241   -0.6682    2.3904 C   0  0  0  0  0  0  0  0  0  0  0  0
    2.9702    0.6087    2.9096 O   0  0  0  0  0  0  0  0  0  0  0  0
    0.4912   -0.6386    3.6112 C   0  0  0  0  0  0  0  0  0  0  0  0
   -0.9299   -0.6690    3.6640 O   0  0  0  0  0  0  0  0  0  0  0  0
    0.6396   -2.1698    1.6689 N   0  0  0  0  0  0  0  0  0  0  0  0
    1.0982   -2.6081    0.3491 C   0  0  0  0  0  0  0  0  0  0  0  0
    2.5959   -2.8019    0.1745 C   0  0  0  0  0  0  0  0  0  0  0  0
    3.2843   -3.9144    1.3990 S   0  0  0  0  0  0  0  0  0  0  0  0
    2.6855   -5.2692    0.7650 O   0  0  0  0  0  0  0  0  0  0  0  0
    4.7154   -3.9097    1.2829 O   0  0  0  0  0  0  0  0  0  0  0  0
    2.6174   -3.7594    2.6812 O   0  0  0  0  0  0  0  0  0  0  0  0
  1  2  1  0
  2  3  1  0
  3  4  1  0
  3  6  1  0
  3  8  1  0
  4  5  1  0
  6  7  1  0
  8  9  1  0
  9 10  1  0
 10 11  1  0
 11 12  1  0
 11 13  2  0
 11 14  2  0
M  END
>  <DRUGBANK_ID>  (1) 
DB02371

>  <SECONDARY_ACCESSION_NUMBERS>  (1) 
EXPT02328

>  <COMMON_NAME>  (1) 
2-(2-Hydroxy-1,1-Dihydroxymethyl-Ethylamino)-Ethanesulfonic Acid

>  <CAS_NUMBER>  (1) 
7365-44-8

>  <UNII>  (1) 
L173DK6289

$$$$
