
     RDKit          3D

 31 34  0  0  0  0  0  0  0  0999 V2000
    1.4062    0.0306    0.0356 C   0  0  0  0  0  0  0  0  0  0  0  0
    0.5633   -1.0197   -0.1684 C   0  0  0  0  0  0  0  0  0  0  0  0
   -0.8244   -0.9686   -0.0385 C   0  0  0  0  0  0  0  0  0  0  0  0
   -1.3879    0.2953    0.0566 C   0  0  0  0  0  0  0  0  0  0  0  0
   -0.5476    1.4192    0.0613 C   0  0  0  0  0  0  0  0  0  0  0  0
    0.8503    1.2782   -0.0176 C   0  0  0  0  0  0  0  0  0  0  0  0
    1.7597    2.3467   -0.3503 C   0  0  0  0  0  0  0  0  0  0  0  0
    2.5494    2.2976   -1.4836 C   0  0  0  0  0  0  0  0  0  0  0  0
    3.3987    3.3542   -1.6496 C   0  0  0  0  0  0  0  0  0  0  0  0
    3.4784    4.3740   -0.7730 N   0  0  0  0  0  0  0  0  0  0  0  0
    2.6773    4.3118    0.3066 C   0  0  0  0  0  0  0  0  0  0  0  0
    1.8239    3.3188    0.5437 N   0  0  0  0  0  0  0  0  0  0  0  0
    2.6668    5.3620    1.2078 N   0  0  0  0  0  0  0  0  0  0  0  0
    1.9971    5.3852    2.4356 C   0  0  0  0  0  0  0  0  0  0  0  0
    2.1662    4.3703    3.3860 C   0  0  0  0  0  0  0  0  0  0  0  0
    1.4835    4.3991    4.6133 C   0  0  0  0  0  0  0  0  0  0  0  0
    0.5860    5.4269    4.9148 C   0  0  0  0  0  0  0  0  0  0  0  0
    0.4370    6.4434    3.9616 C   0  0  0  0  0  0  0  0  0  0  0  0
    1.1102    6.4155    2.7318 C   0  0  0  0  0  0  0  0  0  0  0  0
   -0.1540    5.4539    6.0742 N   0  0  0  0  0  0  0  0  0  0  0  0
    0.4350    5.3358    7.4080 C   0  0  0  0  0  0  0  0  0  0  0  0
   -0.1499    4.1239    8.1478 C   0  0  0  0  0  0  0  0  0  0  0  0
   -1.5885    4.1639    8.1788 O   0  0  0  0  0  0  0  0  0  0  0  0
   -2.1094    4.1657    6.8364 C   0  0  0  0  0  0  0  0  0  0  0  0
   -1.6225    5.3946    6.0424 C   0  0  0  0  0  0  0  0  0  0  0  0
   -1.7117   -2.1744    0.0041 C   0  0  0  0  0  0  0  0  0  0  0  0
   -2.9254   -2.0703    0.0141 O   0  0  0  0  0  0  0  0  0  0  0  0
   -1.1666   -3.4280    0.0788 N   0  0  0  0  0  0  0  0  0  0  0  0
    0.2021   -3.8104    0.1001 C   0  0  0  0  0  0  0  0  0  0  0  0
    0.6145   -4.5430    1.3664 C   0  0  0  0  0  0  0  0  0  0  0  0
    0.9567   -5.1508    2.4170 N   0  0  0  0  0  0  0  0  0  0  0  0
  1  2  2  0
  1  6  1  0
  2  3  1  0
  3  4  2  0
  3 26  1  0
  4  5  1  0
  5  6  2  0
  6  7  1  0
  7  8  2  0
  7 12  1  0
  8  9  1  0
  9 10  2  0
 10 11  1  0
 11 12  2  0
 11 13  1  0
 13 14  1  0
 14 15  2  0
 14 19  1  0
 15 16  1  0
 16 17  2  0
 17 18  1  0
 17 20  1  0
 18 19  2  0
 20 21  1  0
 20 25  1  0
 21 22  1  0
 22 23  1  0
 23 24  1  0
 24 25  1  0
 26 27  2  0
 26 28  1  0
 28 29  1  0
 29 30  1  0
 30 31  3  0
M  END
>  <DRUGBANK_ID>  (1) 
DB11763

>  <COMMON_NAME>  (1) 
Momelotinib

>  <CAS_NUMBER>  (1) 
1056634-68-4

>  <UNII>  (1) 
6O01GMS00P

>  <SYNONYMS>  (1) 
Momelotinib; N-(CYANOMETHYL)-4-(2-(4-MORPHOLINOANILINO)PYRIMIDIN-4-YL)BENZAMIDE

$$$$
