
     RDKit          3D

 12 12  0  0  0  0  0  0  0  0999 V2000
   -1.1669   -1.2070   -0.0211 C   0  0  0  0  0  0  0  0  0  0  0  0
   -1.1449    1.2163   -0.0267 C   0  0  0  0  0  0  0  0  0  0  0  0
    0.2524    1.2065   -0.0146 C   0  0  0  0  0  0  0  0  0  0  0  0
    0.2357   -1.2085   -0.0117 C   0  0  0  0  0  0  0  0  0  0  0  0
    0.9556   -0.0034   -0.0134 C   0  0  0  0  0  0  0  0  0  0  0  0
    2.4591   -0.0095   -0.0145 C   0  0  0  0  0  0  0  0  0  0  0  0
   -1.8534    0.0101   -0.0403 C   0  0  0  0  0  0  0  0  0  0  0  0
   -3.6356    0.0494    0.0216 S   0  0  0  0  0  0  0  0  0  0  0  0
   -4.0994   -0.7440   -1.4158 N   0  0  0  0  0  0  0  0  0  0  0  0
   -5.8209   -0.9018   -1.5661 Cl  0  0  0  0  0  0  0  0  0  0  0  0
   -4.0386   -0.7522    1.1594 O   0  0  0  0  0  0  0  0  0  0  0  0
   -4.0395    1.4314   -0.1221 O   0  0  0  0  0  0  0  0  0  0  0  0
  1  7  2  0
  1  4  1  0
  2  3  2  0
  3  5  1  0
  5  4  2  0
  5  6  1  0
  7  2  1  0
  7  8  1  0
  8  9  1  0
  9 10  1  0
 11  8  2  0
 12  8  2  0
M  END
>  <DRUGBANK_ID>  (1) 
DB14708

>  <COMMON_NAME>  (1) 
Tosylchloramide

>  <CAS_NUMBER>  (1) 
144-86-5

>  <UNII>  (1) 
UF17KA8AC5

>  <SYNONYMS>  (1) 
N-chloro-p-toluenesulfonamide; N-chlorotoluene-p-sulfonamide

$$$$
