
     RDKit          3D

 13 12  0  0  0  0  0  0  0  0999 V2000
    0.4428   -0.6559    2.3056 C   0  0  1  0  0  0  0  0  0  0  0  0
    0.0467    0.8596    2.3324 C   0  0  1  0  0  0  0  0  0  0  0  0
    0.3642   -1.3556    0.9186 C   0  0  1  0  0  0  0  0  0  0  0  0
   -0.6397    1.3206    1.0328 C   0  0  2  0  0  0  0  0  0  0  0  0
    1.7792   -0.8025    2.8240 O   0  0  0  0  0  0  0  0  0  0  0  0
   -0.7693    1.1402    3.4784 O   0  0  0  0  0  0  0  0  0  0  0  0
   -0.1238   -3.5718    1.9100 N   0  0  0  0  0  0  0  0  0  0  0  0
    0.3507    1.7744    0.0897 O   0  0  0  0  0  0  0  0  0  0  0  0
    1.2810   -0.7487   -0.0032 O   0  0  0  0  0  0  0  0  0  0  0  0
    0.6913   -2.8481    0.9334 C   0  0  0  0  0  0  0  0  0  0  0  0
   -2.2988    2.5006   -0.2041 O   0  0  0  0  0  0  0  0  0  0  0  0
   -1.7863    2.3108    1.1206 C   0  0  0  0  0  0  0  0  0  0  0  0
    0.1970   -4.9879    1.8455 C   0  0  0  0  0  0  0  0  0  0  0  0
  1  5  1  6
  1  3  1  0
  1  2  1  0
  2  6  1  1
  3  9  1  6
  4  8  1  6
  4  2  1  0
  7 10  1  0
 10  3  1  0
 11 12  1  0
 12  4  1  0
 13  7  1  0
M  END
>  <DRUGBANK_ID>  (1) 
DB09415

>  <COMMON_NAME>  (1) 
Meglumine

>  <CAS_NUMBER>  (1) 
6284-40-8

>  <UNII>  (1) 
6HG8UB2MUY

>  <SYNONYMS>  (1) 
1-deoxy-1-methylaminosorbitol; Iosulamide; Meglumina; MÃ©glumine; Meglumine; Megluminum; N-methyl-D-glucamine

$$$$
