
     RDKit          3D

 20 20  0  0  1  0  0  0  0  0999 V2000
    0.8932   -0.3680    0.3797 C   0  0  0  0  0  0  0  0  0  0  0  0
    4.6938    2.7073    0.0922 C   0  0  0  0  0  0  0  0  0  0  0  0
    3.6839    3.4167    3.1452 C   0  0  0  0  0  0  0  0  0  0  0  0
    0.2042   -1.0092   -0.5713 C   0  0  0  0  0  0  0  0  0  0  0  0
   -1.2567   -0.7883   -0.7685 C   0  0  0  0  0  0  0  0  0  0  0  0
    2.4915    4.5561    0.4848 C   0  0  0  0  0  0  0  0  0  0  0  0
   -1.1113    3.0470   -1.9121 C   0  0  0  0  0  0  0  0  0  0  0  0
    3.3199    2.1344    0.4475 C   0  0  2  0  0  0  0  0  0  0  0  0
    3.5669    1.9348    2.9900 C   0  0  0  0  0  0  0  0  0  0  0  0
    2.0743    3.0822    0.3456 C   0  0  2  0  0  0  0  0  0  0  0  0
   -0.5694    1.8259   -1.9371 C   0  0  0  0  0  0  0  0  0  0  0  0
    1.3384    3.0045   -1.0100 C   0  0  1  0  0  0  0  0  0  0  0  0
   -1.3243    0.7794   -2.6842 C   0  0  0  0  0  0  0  0  0  0  0  0
    0.6966    1.7284   -1.3413 N   0  0  0  0  0  0  0  0  0  0  0  0
    1.7392    5.5125    0.6564 O   0  0  0  0  0  0  0  0  0  0  0  0
    3.6150    1.2024    3.9616 O   0  0  0  0  0  0  0  0  0  0  0  0
   -1.7957    1.0396   -3.7868 O   0  0  0  0  0  0  0  0  0  0  0  0
   -1.5025   -0.4486   -2.1417 O   0  0  0  0  0  0  0  0  0  0  0  0
    3.3992    1.4344    1.7380 O   0  0  0  0  0  0  0  0  0  0  0  0
   -0.1170    4.1840   -1.0915 S   0  0  0  0  0  0  0  0  0  0  0  0
  4  1  2  0
  5  4  1  0
  8  2  1  1
  9  3  1  0
 10  8  1  0
 10  6  1  6
 11  7  2  0
 12 10  1  0
 13 11  1  0
 14 11  1  0
 12 14  1  1
 15  6  2  0
 16  9  2  0
 17 13  2  0
 18  5  1  0
 18 13  1  0
 19  8  1  0
 19  9  1  0
 20  7  1  0
 20 12  1  0
M  END
>  <DRUGBANK_ID>  (1) 
DB06904

>  <COMMON_NAME>  (1) 
(5S,6S)-6-[(R)ACETOXYETH-2-YL]-PENEM-3-CARBOXYLATEPROPANE

$$$$
