ST1
     RDKit          3D

 17 17  0  0  0  0  0  0  0  0999 V2000
    0.9379   -0.1913    0.0536 C   0  0  0  0  0  0  0  0  0  0  0  0
    0.2632    0.8170    0.0284 O   0  0  0  0  0  0  0  0  0  0  0  0
    0.3814   -1.4074    0.0606 O   0  0  0  0  0  0  0  0  0  0  0  0
    2.4190   -0.2313    0.1338 C   0  0  0  0  0  0  0  0  0  0  0  0
    3.2591   -1.3532    0.1122 C   0  0  0  0  0  0  0  0  0  0  0  0
    4.6875   -1.1948    0.1633 C   0  0  0  0  0  0  0  0  0  0  0  0
    5.4678   -2.3291    0.0803 O   0  0  0  0  0  0  0  0  0  0  0  0
    5.3203    0.0878    0.2348 C   0  0  0  0  0  0  0  0  0  0  0  0
    6.7762    0.2334    0.2060 N   0  0  0  0  0  0  0  0  0  0  0  0
    7.7206    1.2782    0.1986 C   0  0  0  0  0  0  0  0  0  0  0  0
    8.9181    0.9541    0.1462 O   0  0  0  0  0  0  0  0  0  0  0  0
    7.4271    2.7924    0.2561 C   0  0  0  0  0  0  0  0  0  0  0  0
    4.3981    1.1375    0.2324 C   0  0  0  0  0  0  0  0  0  0  0  0
    4.7546    2.3927   -0.3137 N   0  0  0  0  0  0  0  0  0  0  0  0
    5.3502    2.3199   -1.4027 O   0  0  0  0  0  0  0  0  0  0  0  0
    4.3396    3.4119    0.2370 O   0  0  0  0  0  0  0  0  0  0  0  0
    2.9992    1.0110    0.2025 C   0  0  0  0  0  0  0  0  0  0  0  0
  1  2  2  0
  1  3  1  0
  1  4  1  0
  4  5  2  0
  4 17  1  0
  5  6  1  0
  6  7  1  0
  6  8  2  0
  8  9  1  0
  8 13  1  0
  9 10  1  0
 10 11  2  0
 10 12  1  0
 13 14  1  0
 13 17  2  0
 14 15  2  0
 14 16  1  0
M  CHG  2  14   1  16  -1
M  END
>  <DRUGBANK_ID>  (1) 
DB08570

>  <COMMON_NAME>  (1) 
4-(ACETYLAMINO)-3-HYDROXY-5-NITROBENZOIC ACID

$$$$
