
     RDKit          3D

 29 33  0  0  0  0  0  0  0  0999 V2000
    0.4566    0.1102   -0.2293 N   0  0  0  0  0  0  0  0  0  0  0  0
   -4.5714   -0.8584    0.6647 C   0  0  0  0  0  0  0  0  0  0  0  0
   -4.9149   -2.3937    0.4741 C   0  0  0  0  0  0  0  0  0  0  0  0
   -0.7155    0.4966   -1.1446 C   0  0  1  0  0  0  0  0  0  0  0  0
   -0.2344    0.1599    1.1504 C   0  0  2  0  0  0  0  0  0  0  0  0
   -3.3155   -0.4045    0.4656 O   0  0  0  0  0  0  0  0  0  0  0  0
   -2.1406   -1.1526    0.1288 C   0  0  2  0  0  0  0  0  0  0  0  0
   -1.1640   -1.0378    1.2905 C   0  0  0  0  0  0  0  0  0  0  0  0
   -1.6673   -0.6861   -1.2394 C   0  0  0  0  0  0  0  0  0  0  0  0
   -5.4181   -0.0148    0.9984 O   0  0  0  0  0  0  0  0  0  0  0  0
   -1.0269    1.4720    1.0809 C   0  0  0  0  0  0  0  0  0  0  0  0
   -1.3401    1.6878   -0.4062 C   0  0  0  0  0  0  0  0  0  0  0  0
   -5.4037   -2.9451    1.8299 C   0  0  0  0  0  0  0  0  0  0  0  0
   -5.9240   -2.5541   -0.6724 C   0  0  0  0  0  0  0  0  0  0  0  0
   -3.8304   -3.2480    0.1088 O   0  0  0  0  0  0  0  0  0  0  0  0
    1.1886   -1.1874   -0.5809 C   0  0  0  0  0  0  0  0  0  0  0  0
    1.5982    1.1346   -0.3247 C   0  0  0  0  0  0  0  0  0  0  0  0
   -4.6724   -3.9263    2.5299 C   0  0  0  0  0  0  0  0  0  0  0  0
   -6.5313   -2.4051    2.4709 C   0  0  0  0  0  0  0  0  0  0  0  0
   -5.6418   -3.3784   -1.7803 C   0  0  0  0  0  0  0  0  0  0  0  0
   -7.1714   -1.9125   -0.6453 C   0  0  0  0  0  0  0  0  0  0  0  0
    2.8386    0.4024    0.1528 C   0  0  0  0  0  0  0  0  0  0  0  0
    2.4985   -1.0764    0.1662 C   0  0  0  0  0  0  0  0  0  0  0  0
   -8.1531   -2.2087   -1.5806 C   0  0  0  0  0  0  0  0  0  0  0  0
   -5.0449   -4.3246    3.8102 C   0  0  0  0  0  0  0  0  0  0  0  0
   -6.8717   -2.7618    3.7689 C   0  0  0  0  0  0  0  0  0  0  0  0
   -6.5974   -3.6175   -2.7589 C   0  0  0  0  0  0  0  0  0  0  0  0
   -7.8575   -3.0442   -2.6484 C   0  0  0  0  0  0  0  0  0  0  0  0
   -6.1376   -3.7330    4.4320 C   0  0  0  0  0  0  0  0  0  0  0  0
  2  6  1  0
  3  2  1  0
  4  1  1  0
  5  1  1  0
  7  9  1  0
  7  6  1  1
  5  8  1  6
  8  7  1  0
  4  9  1  1
 10  2  2  0
 11  5  1  0
 12  4  1  0
 12 11  1  0
 13  3  1  0
 14  3  1  0
 15  3  1  0
 16  1  1  0
 17  1  1  0
 18 13  2  0
 19 13  1  0
 20 14  2  0
 21 14  1  0
 22 17  1  0
 22 23  1  0
 23 16  1  0
 24 21  2  0
 25 18  1  0
 26 19  2  0
 26 29  1  0
 27 20  1  0
 28 24  1  0
 28 27  2  0
 29 25  2  0
M  CHG  1   1   1
M  END
>  <DRUGBANK_ID>  (1) 
DB00209

>  <SECONDARY_ACCESSION_NUMBERS>  (1) 
APRD00393

>  <COMMON_NAME>  (1) 
Trospium

>  <CAS_NUMBER>  (1) 
47608-32-2

>  <UNII>  (1) 
T4Y8ORK057

$$$$
