4DI
     RDKit          3D

 11 10  0  0  0  0  0  0  0  0999 V2000
    0.6618   -0.0654    0.2208 C   0  0  0  0  0  0  0  0  0  0  0  0
   -0.1333    0.3253   -1.2689 S   0  0  0  0  0  0  0  0  0  0  0  0
    1.0779    0.8159   -2.5515 C   0  0  0  0  0  0  0  0  0  0  0  0
    1.8805    2.0836   -2.2368 C   0  0  0  0  0  0  0  0  0  0  0  0
    3.0238    1.8579   -1.2424 C   0  0  0  0  0  0  0  0  0  0  0  0
    3.9543    0.6442   -1.5231 C   0  0  0  0  0  0  0  0  0  0  0  0
    4.9216    0.7655   -2.6171 N   0  0  0  0  0  0  0  0  0  0  0  0
    5.6710   -0.4976   -2.7027 C   0  0  0  0  0  0  0  0  0  0  0  0
    4.2682    0.9744   -3.9075 C   0  0  0  0  0  0  0  0  0  0  0  0
   -0.0313   -0.0419    1.3609 N   0  0  0  0  0  0  0  0  0  0  0  0
    1.8932   -0.4462    0.3415 N   0  0  0  0  0  0  0  0  0  0  0  0
  1  2  1  0
  1 10  1  0
  1 11  2  0
  2  3  1  0
  3  4  1  0
  4  5  1  0
  5  6  1  0
  6  7  1  0
  7  8  1  0
  7  9  1  0
M  END
>  <DRUGBANK_ID>  (1) 
DB07106

>  <COMMON_NAME>  (1) 
SKF-91488

>  <CAS_NUMBER>  (1) 
68643-23-2

>  <UNII>  (1) 
1I4LVX494H

>  <SYNONYMS>  (1) 
Homodimaprit

$$$$
