
     RDKit          3D

 11 11  0  0  0  0  0  0  0  0999 V2000
    1.0224   -0.0293    0.0444 N   0  0  0  0  0  0  0  0  0  0  0  0
    0.4106   -0.2553    1.5972 S   0  0  0  0  0  0  0  0  0  0  0  0
    1.0725    0.7327    2.4208 O   0  0  0  0  0  0  0  0  0  0  0  0
   -1.0250   -0.3136    1.4768 O   0  0  0  0  0  0  0  0  0  0  0  0
    1.0031   -1.8692    2.0474 C   0  0  0  0  0  0  0  0  0  0  0  0
    2.0332   -2.0083    2.9891 C   0  0  0  0  0  0  0  0  0  0  0  0
    2.4099   -3.2858    3.4172 C   0  0  0  0  0  0  0  0  0  0  0  0
    1.7502   -4.4033    2.9142 C   0  0  0  0  0  0  0  0  0  0  0  0
    2.0985   -5.6240    3.3422 F   0  0  0  0  0  0  0  0  0  0  0  0
    0.7259   -4.2706    1.9817 C   0  0  0  0  0  0  0  0  0  0  0  0
    0.3489   -2.9989    1.5421 C   0  0  0  0  0  0  0  0  0  0  0  0
  1  2  1  0
  2  3  2  0
  2  4  2  0
  2  5  1  0
  5  6  2  0
  5 11  1  0
  6  7  1  0
  7  8  2  0
  8  9  1  0
  8 10  1  0
 10 11  2  0
M  END
>  <DRUGBANK_ID>  (1) 
DB01784

>  <SECONDARY_ACCESSION_NUMBERS>  (1) 
EXPT01396

>  <COMMON_NAME>  (1) 
4-Flourobenzenesulfonamide

>  <UNII>  (1) 
UWB1PR3UR6

$$$$
