
     RDKit          3D

 24 26  0  0  0  0  0  0  0  0999 V2000
    0.9369    1.4326   -0.0253 C   0  0  0  0  0  0  0  0  0  0  0  0
    2.1717    0.7630   -0.0186 C   0  0  0  0  0  0  0  0  0  0  0  0
    2.1432   -0.6506   -0.0016 C   0  0  0  0  0  0  0  0  0  0  0  0
    0.9435   -1.3964    0.0108 C   0  0  0  0  0  0  0  0  0  0  0  0
   -0.2644    0.7169   -0.0445 C   0  0  0  0  0  0  0  0  0  0  0  0
   -0.2480   -0.6651   -0.0080 C   0  0  0  0  0  0  0  0  0  0  0  0
   -2.3308    0.1855    0.0023 C   0  0  0  0  0  0  0  0  0  0  0  0
   -1.5881   -0.9913    0.0172 N   0  0  0  0  0  0  0  0  0  0  0  0
    3.4384    1.5393   -0.0515 C   0  0  0  0  0  0  0  0  0  0  0  0
    4.6065    0.9268   -0.0753 N   0  0  0  0  0  0  0  0  0  0  0  0
    3.4327    2.8582   -0.0740 N   0  0  0  0  0  0  0  0  0  0  0  0
   -3.8081    0.2333    0.0673 C   0  0  0  0  0  0  0  0  0  0  0  0
   -6.5669   -0.0637   -0.0946 C   0  0  0  0  0  0  0  0  0  0  0  0
   -5.8681   -0.4476    1.0681 C   0  0  0  0  0  0  0  0  0  0  0  0
   -4.5092   -0.0740    1.2651 C   0  0  0  0  0  0  0  0  0  0  0  0
   -4.5057    0.6125   -1.0960 C   0  0  0  0  0  0  0  0  0  0  0  0
   -5.8925    0.5518   -1.1386 C   0  0  0  0  0  0  0  0  0  0  0  0
   -3.9221   -0.0173    2.4165 O   0  0  0  0  0  0  0  0  0  0  0  0
   -5.9744   -1.9919    2.9351 C   0  0  0  0  0  0  0  0  0  0  0  0
   -1.5240    1.2212   -0.1256 N   0  0  0  0  0  0  0  0  0  0  0  0
   -6.6298   -1.2626    1.8886 O   0  0  0  0  0  0  0  0  0  0  0  0
   -5.0914   -3.2057    2.5132 C   0  0  0  0  0  0  0  0  0  0  0  0
   -3.9588   -2.9513    1.5223 C   0  0  0  0  0  0  0  0  0  0  0  0
   -4.4400   -3.8231    3.7534 C   0  0  0  0  0  0  0  0  0  0  0  0
  1  2  2  0
  1  5  1  0
  2  3  1  0
  2  9  1  0
  3  4  2  0
  4  6  1  0
  5 20  1  0
  5  6  2  0
  6  8  1  0
  7 20  2  0
  7  8  1  0
  7 12  1  0
  9 11  1  0
  9 10  2  0
 12 15  2  0
 12 16  1  0
 13 14  2  0
 13 17  1  0
 14 15  1  0
 14 21  1  0
 15 18  1  0
 16 17  2  0
 19 21  1  0
 19 22  1  0
 22 23  1  0
 22 24  1  0
M  CHG  2  10   1  18  -1
M  END
>  <DRUGBANK_ID>  (1) 
DB04470

>  <SECONDARY_ACCESSION_NUMBERS>  (1) 
EXPT00271

>  <COMMON_NAME>  (1) 
CRA_10656

$$$$
