227
     RDKit          3D

 29 31  0  0  1  0  0  0  0  0999 V2000
   -1.6501   -3.9047   -0.5339 O   0  0  0  0  0  0  0  0  0  0  0  0
   -4.6851   -6.2496   -0.8759 O   0  0  0  0  0  0  0  0  0  0  0  0
   -7.6812   -6.4790   -0.7491 O   0  0  0  0  0  0  0  0  0  0  0  0
   -2.5629   -3.1109    1.4837 O   0  0  0  0  0  0  0  0  0  0  0  0
   -4.3288   -5.2987    1.1114 O   0  0  0  0  0  0  0  0  0  0  0  0
   -0.7004   -6.0505   -1.5487 C   0  0  1  0  0  0  0  0  0  0  0  0
   -2.1710   -6.4547   -1.6378 C   0  0  2  0  0  0  0  0  0  0  0  0
   -0.5936   -4.5490   -1.6905 C   0  0  2  0  0  0  0  0  0  0  0  0
   -2.2935   -7.9801   -1.5509 C   0  0  2  0  0  0  0  0  0  0  0  0
   -0.0009   -6.5767   -0.2838 C   0  0  0  0  0  0  0  0  0  0  0  0
   -2.8518   -5.7916   -2.8637 C   0  0  0  0  0  0  0  0  0  0  0  0
    1.1127   -4.3278   -1.7859 C   0  0  0  0  0  0  0  0  0  0  0  0
    1.9671   -4.8221   -0.3399 C   0  0  2  0  0  0  0  0  0  0  0  0
    1.1242   -6.0279    0.2537 C   0  0  0  0  0  0  0  0  0  0  0  0
   -4.2087   -6.2988   -3.3052 C   0  0  0  0  0  0  0  0  0  0  0  0
   -1.5934   -8.4656   -0.3054 C   0  0  0  0  0  0  0  0  0  0  0  0
   -0.6034   -7.7837    0.2992 C   0  0  0  0  0  0  0  0  0  0  0  0
   -1.7064   -8.6384   -2.7920 C   0  0  0  0  0  0  0  0  0  0  0  0
   -5.2551   -6.3675   -2.1926 C   0  0  2  0  0  0  0  0  0  0  0  0
    2.4992   -3.7234    0.8675 C   0  0  0  0  0  0  0  0  0  0  0  0
   -6.3606   -5.3698   -2.4336 C   0  0  0  0  0  0  0  0  0  0  0  0
   -7.1477   -5.2167   -1.1531 C   0  0  2  0  0  0  0  0  0  0  0  0
   -1.6205   -3.4889    0.8659 C   0  0  0  0  0  0  0  0  0  0  0  0
   -6.2698   -4.6104   -0.0754 C   0  0  0  0  0  0  0  0  0  0  0  0
   -0.1986   -3.3954    1.4646 C   0  0  2  0  0  0  0  0  0  0  0  0
   -5.0060   -5.3860    0.1130 C   0  0  0  0  0  0  0  0  0  0  0  0
    0.3235   -2.5825    2.7280 C   0  0  0  0  0  0  0  0  0  0  0  0
    0.3184   -2.7903    0.1601 C   0  0  0  0  0  0  0  0  0  0  0  0
    1.3362   -3.2735    3.7586 C   0  0  0  0  0  0  0  0  0  0  0  0
  1 23  1  0
  2 19  1  0
  2 26  1  0
  4 23  2  0
  5 26  2  0
  6  7  1  0
  6  8  1  0
  6 10  1  1
  7  9  1  0
  7 11  1  6
  8 12  1  0
  8  1  1  1
  9 16  1  0
  9 18  1  6
 10 14  2  0
 10 17  1  0
 11 15  1  0
 12 13  1  0
 13 14  1  0
 13 20  1  1
 16 17  2  0
 19 15  1  6
 19 21  1  0
 21 22  1  0
 22  3  1  1
 22 24  1  0
 24 26  1  0
 25 28  1  6
 25 27  1  0
 25 23  1  0
 27 29  1  0
M  END
>  <DRUGBANK_ID>  (1) 
DB00227

>  <SECONDARY_ACCESSION_NUMBERS>  (1) 
APRD00370

>  <COMMON_NAME>  (1) 
Lovastatin

>  <CAS_NUMBER>  (1) 
75330-75-5

>  <UNII>  (1) 
9LHU78OQFD

>  <SYNONYMS>  (1) 
(1S,3R,7S,8S,8aR)-1,2,3,7,8,8a-hexahydro-3,7-dimethyl-8-(2-(2R,4R)-(tetrahydro-4-hydroxy-6-oxo-2H-pyran-2-yl)ethyl)-1-naphthalenyl (S)-2-methyl-butyrate; 2β,6α-dimethyl-8alpha-(2-methyl-1-oxobutoxy)-mevinic acid lactone; 6-alpha-methylcompactin; 6alpha-methylcompactin; 6α-methylcompactin; Lovastatin; Lovastatina; Lovastatine; Lovastatinum; Mevinolin

$$$$
