555
     RDKit          3D

 16 17  0  0  0  0  0  0  0  0999 V2000
    1.4189    1.5373    0.1111 Cl  0  0  0  0  0  0  0  0  0  0  0  0
    1.3361   -1.6513    0.0168 Cl  0  0  0  0  0  0  0  0  0  0  0  0
   -1.9927    3.5441    0.8524 N   0  0  0  0  0  0  0  0  0  0  0  0
   -0.8367    4.9364   -1.2516 N   0  0  0  0  0  0  0  0  0  0  0  0
   -0.2666    2.9555   -2.3303 N   0  0  0  0  0  0  0  0  0  0  0  0
   -2.0461    4.9022    0.7902 N   0  0  0  0  0  0  0  0  0  0  0  0
   -1.5855    6.9136   -0.3123 N   0  0  0  0  0  0  0  0  0  0  0  0
   -1.3200    1.4157   -0.0180 C   0  0  0  0  0  0  0  0  0  0  0  0
   -1.3671    2.8778   -0.1405 C   0  0  0  0  0  0  0  0  0  0  0  0
   -0.1048    0.6929    0.0412 C   0  0  0  0  0  0  0  0  0  0  0  0
   -2.5277    0.6898    0.0048 C   0  0  0  0  0  0  0  0  0  0  0  0
   -0.7937    3.5945   -1.1974 C   0  0  0  0  0  0  0  0  0  0  0  0
   -0.1164   -0.7106    0.0470 C   0  0  0  0  0  0  0  0  0  0  0  0
   -2.5315   -0.7050    0.0463 C   0  0  0  0  0  0  0  0  0  0  0  0
   -1.3275   -1.4035    0.0516 C   0  0  0  0  0  0  0  0  0  0  0  0
   -1.4784    5.5537   -0.2479 C   0  0  0  0  0  0  0  0  0  0  0  0
  1 10  1  0
  2 13  1  0
  3  6  2  0
  3  9  1  0
  4 12  1  0
  4 16  2  0
  5 12  1  0
  6 16  1  0
  7 16  1  0
  8  9  1  0
  8 10  2  0
  8 11  1  0
  9 12  2  0
 10 13  1  0
 11 14  2  0
 13 15  2  0
 14 15  1  0
M  END
>  <DRUGBANK_ID>  (1) 
DB00555

>  <SECONDARY_ACCESSION_NUMBERS>  (1) 
APRD00570

>  <COMMON_NAME>  (1) 
Lamotrigine

>  <CAS_NUMBER>  (1) 
84057-84-1

>  <UNII>  (1) 
U3H27498KS

>  <SYNONYMS>  (1) 
3,5-diamino-6-(2,3-dichlorophenyl)-1,2,4-triazine; Lamotrigina; Lamotrigine; Lamotriginum

$$$$
