
     RDKit          3D

 23 24  0  0  0  0  0  0  0  0999 V2000
    0.9588   -0.1911    0.3179 C   0  0  0  0  0  0  0  0  0  0  0  0
    4.3872    3.6821   -7.0568 C   0  0  0  0  0  0  0  0  0  0  0  0
    6.2981    2.2725   -6.7664 C   0  0  0  0  0  0  0  0  0  0  0  0
    4.8181    3.9863   -8.3559 C   0  0  0  0  0  0  0  0  0  0  0  0
    6.7196    2.6112   -8.0629 C   0  0  0  0  0  0  0  0  0  0  0  0
    0.5461   -1.2243   -2.8080 C   0  0  0  0  0  0  0  0  0  0  0  0
    0.2474    0.3690   -5.7375 C   0  0  0  0  0  0  0  0  0  0  0  0
   -0.0226   -1.1097   -5.6644 C   0  0  0  0  0  0  0  0  0  0  0  0
    1.0126   -2.1464   -1.7154 C   0  0  0  0  0  0  0  0  0  0  0  0
    4.6347    2.3961   -4.9339 C   0  0  0  0  0  0  0  0  0  0  0  0
    5.1192    2.8069   -6.2557 C   0  0  0  0  0  0  0  0  0  0  0  0
    6.0072    3.4822   -8.9083 C   0  0  0  0  0  0  0  0  0  0  0  0
    3.4964    1.7138   -4.7461 C   0  0  0  0  0  0  0  0  0  0  0  0
    0.9043    0.2440   -2.8034 C   0  0  0  0  0  0  0  0  0  0  0  0
    1.8738    0.7456   -3.8176 C   0  0  0  0  0  0  0  0  0  0  0  0
    2.5280    1.2980   -5.8136 C   0  0  0  0  0  0  0  0  0  0  0  0
    3.0135    1.2931   -3.5176 N   0  0  0  0  0  0  0  0  0  0  0  0
    1.5278    0.6958   -5.1261 N   0  0  0  0  0  0  0  0  0  0  0  0
   -1.0889   -1.5780   -5.2709 O   0  0  0  0  0  0  0  0  0  0  0  0
    6.4046    3.7834  -10.0812 O   0  0  0  0  0  0  0  0  0  0  0  0
    0.3059    1.1176   -2.1884 O   0  0  0  0  0  0  0  0  0  0  0  0
    2.5589    1.4473   -7.0238 O   0  0  0  0  0  0  0  0  0  0  0  0
    0.3037   -1.8357   -0.0738 S   0  0  0  0  0  0  0  0  0  0  0  0
  4  2  2  0
  5  3  1  0
  8  7  1  0
  9  6  1  0
 11  2  1  0
 11  3  2  0
 11 10  1  0
 12  4  1  0
 12  5  2  0
 13 10  2  0
 14  6  1  0
 15 14  1  0
 16 13  1  0
 17 13  1  0
 17 15  2  0
 18  7  1  0
 18 15  1  0
 18 16  1  0
 19  8  2  0
 20 12  1  0
 21 14  2  0
 22 16  2  0
 23  1  1  0
 23  9  1  0
M  CHG  1  20  -1
M  END
>  <DRUGBANK_ID>  (1) 
DB02781

>  <SECONDARY_ACCESSION_NUMBERS>  (1) 
EXPT01022

>  <COMMON_NAME>  (1) 
4-{(Z)-[2-[3-(Methylsulfanyl)Propanoyl]-5-Oxo-1-(2-Oxoethyl)-1,5-Dihydro-4h-Imidazol-4-Ylidene]Methyl}Benzenolate

$$$$
