
     RDKit          3D

 23 25  0  0  1  0  0  0  0  0999 V2000
   -1.7275   -7.0577    9.4109 C   0  0  0  0  0  0  0  0  0  0  0  0
   -2.0941   -7.4111    8.1092 C   0  0  0  0  0  0  0  0  0  0  0  0
   -1.1143   -7.7384    7.1733 C   0  0  0  0  0  0  0  0  0  0  0  0
    0.2270   -7.7125    7.5444 C   0  0  0  0  0  0  0  0  0  0  0  0
    0.6177   -7.3322    8.8383 C   0  0  0  0  0  0  0  0  0  0  0  0
   -0.3781   -7.0207    9.7804 C   0  0  0  0  0  0  0  0  0  0  0  0
    2.0775   -7.0473    9.1115 C   0  0  0  0  0  0  0  0  0  0  0  0
    2.4202   -5.7075    9.5178 O   0  0  0  0  0  0  0  0  0  0  0  0
    2.1273   -4.6675    8.6788 C   0  0  0  0  0  0  0  0  0  0  0  0
    0.9534   -4.5577    7.9472 C   0  0  0  0  0  0  0  0  0  0  0  0
    0.6169   -3.4242    7.2373 C   0  0  0  0  0  0  0  0  0  0  0  0
    1.4413   -2.3115    7.2636 C   0  0  0  0  0  0  0  0  0  0  0  0
    2.6413   -2.4056    7.9854 C   0  0  0  0  0  0  0  0  0  0  0  0
    2.9912   -3.5789    8.6752 C   0  0  0  0  0  0  0  0  0  0  0  0
    0.9651   -1.1149    6.4767 C   0  0  1  0  0  0  0  0  0  0  0  0
   -0.4059   -0.6054    6.9285 C   0  0  0  0  0  0  0  0  0  0  0  0
   -0.0605    0.2997    8.0904 C   0  0  0  0  0  0  0  0  0  0  0  0
    1.3233    0.8513    7.7515 C   0  0  2  0  0  0  0  0  0  0  0  0
    1.8253    0.0773    6.5778 N   0  0  0  0  0  0  0  0  0  0  0  0
    2.3042    0.7344    8.9338 C   0  0  0  0  0  0  0  0  0  0  0  0
    2.1133    0.0535    9.9445 O   0  0  0  0  0  0  0  0  0  0  0  0
    3.4578    1.4541    8.8351 N   0  0  0  0  0  0  0  0  0  0  0  0
    1.1556   -7.9004    6.5952 F   0  0  0  0  0  0  0  0  0  0  0  0
  1  2  2  0
  1  6  1  0
  2  3  1  0
  3  4  2  0
  4  5  1  0
  4 23  1  0
  5  6  2  0
  5  7  1  0
  7  8  1  0
  8  9  1  0
  9 10  2  0
  9 14  1  0
 10 11  1  0
 11 12  2  0
 12 13  1  0
 13 14  2  0
 15 16  1  0
 15 19  1  0
 15 12  1  1
 16 17  1  0
 17 18  1  0
 18 19  1  0
 18 20  1  1
 20 21  2  0
 20 22  1  0
M  END
>  <DRUGBANK_ID>  (1) 
DB11706

>  <COMMON_NAME>  (1) 
Vixotrigine

>  <CAS_NUMBER>  (1) 
934240-30-9

>  <UNII>  (1) 
QQS4J85K6Y

>  <SYNONYMS>  (1) 
Raxatrigine; Vixotrigine

$$$$
