
     RDKit          3D

 29 31  0  0  1  0  0  0  0  0999 V2000
    3.7013   -1.7713    5.7491 C   0  0  0  0  0  0  0  0  0  0  0  0
    4.5156   -2.5844    4.7995 C   0  0  0  0  0  0  0  0  0  0  0  0
    5.5522   -1.3278    3.9926 C   0  0  0  0  0  0  0  0  0  0  0  0
    5.6133   -3.5203    5.3666 C   0  0  0  0  0  0  0  0  0  0  0  0
    5.0699   -4.5096    6.3230 C   0  0  0  0  0  0  0  0  0  0  0  0
    5.0147   -4.1275    7.6515 C   0  0  0  0  0  0  0  0  0  0  0  0
    4.3183   -4.9178    8.5364 C   0  0  0  0  0  0  0  0  0  0  0  0
    3.6485   -6.0661    8.0883 C   0  0  0  0  0  0  0  0  0  0  0  0
    2.9157   -6.8410    8.9801 C   0  0  0  0  0  0  0  0  0  0  0  0
    2.2536   -7.9876    8.5435 C   0  0  0  0  0  0  0  0  0  0  0  0
    2.2898   -8.3582    7.2006 C   0  0  0  0  0  0  0  0  0  0  0  0
    3.0080   -7.5915    6.2890 C   0  0  0  0  0  0  0  0  0  0  0  0
    3.7060   -6.4582    6.7328 C   0  0  0  0  0  0  0  0  0  0  0  0
    4.4593   -5.6876    5.8619 C   0  0  0  0  0  0  0  0  0  0  0  0
    3.2155   -3.5220    4.2055 N   0  0  0  0  0  0  0  0  0  0  0  0
    2.2622   -2.8351    3.1543 C   0  0  0  0  0  0  0  0  0  0  0  0
    2.6144   -1.7299    1.7357 C   0  0  2  0  0  0  0  0  0  0  0  0
    2.3322   -2.5038    0.4673 C   0  0  0  0  0  0  0  0  0  0  0  0
    2.7518   -3.9259    0.4634 O   0  0  0  0  0  0  0  0  0  0  0  0
    4.0322   -4.4469    0.4835 C   0  0  0  0  0  0  0  0  0  0  0  0
    4.3907   -5.4119   -0.3845 C   0  0  0  0  0  0  0  0  0  0  0  0
    5.6675   -6.0451   -0.2594 C   0  0  0  0  0  0  0  0  0  0  0  0
    6.6452   -5.7298    0.6969 C   0  0  0  0  0  0  0  0  0  0  0  0
    6.3586   -4.7714    1.5605 C   0  0  0  0  0  0  0  0  0  0  0  0
    5.0687   -4.3178    1.4017 C   0  0  0  0  0  0  0  0  0  0  0  0
    4.8302   -3.4560    2.3570 C   0  0  0  0  0  0  0  0  0  0  0  0
    4.4776   -2.4540    2.5820 N   0  0  0  0  0  0  0  0  0  0  0  0
    7.5791   -4.1795    2.6490 Cl  0  0  0  0  0  0  0  0  0  0  0  0
    3.9131   -1.0821    1.1525 O   0  0  0  0  0  0  0  0  0  0  0  0
  1  2  1  0
  2  3  1  0
  2  4  1  0
  2 15  1  0
  4  5  1  0
  5  6  2  0
  5 14  1  0
  6  7  1  0
  7  8  2  0
  8  9  1  0
  8 13  1  0
  9 10  2  0
 10 11  1  0
 11 12  2  0
 12 13  1  0
 13 14  2  0
 15 16  1  0
 17 29  1  6
 17 18  1  0
 17 16  1  0
 18 19  1  0
 19 20  1  0
 20 21  2  0
 20 25  1  0
 21 22  1  0
 22 23  2  0
 23 24  1  0
 24 25  2  0
 24 28  1  0
 25 26  1  0
 26 27  3  0
M  END
>  <DRUGBANK_ID>  (1) 
DB05695

>  <COMMON_NAME>  (1) 
NPS-2143

>  <CAS_NUMBER>  (1) 
284035-33-2

>  <UNII>  (1) 
Z25PJ77W7V

$$$$
