
     RDKit          3D

  8  8  0  0  0  0  0  0  0  0999 V2000
   -0.7414   -1.2014    0.0102 C   0  0  0  0  0  0  0  0  0  0  0  0
   -0.7336    1.2030    0.0122 C   0  0  0  0  0  0  0  0  0  0  0  0
    0.6590   -1.2121    0.0146 C   0  0  0  0  0  0  0  0  0  0  0  0
    0.6632    1.2003    0.0219 C   0  0  0  0  0  0  0  0  0  0  0  0
   -1.4498    0.0036    0.0046 C   0  0  0  0  0  0  0  0  0  0  0  0
    1.3498   -0.0053    0.0159 C   0  0  0  0  0  0  0  0  0  0  0  0
   -2.8318    0.0162    0.0002 N   0  0  0  0  0  0  0  0  0  0  0  0
    2.7122    0.0442    0.0087 O   0  0  0  0  0  0  0  0  0  0  0  0
  3  1  2  0
  4  2  1  0
  5  1  1  0
  5  2  2  0
  6  3  1  0
  6  4  2  0
  7  5  1  0
  8  6  1  0
M  END
>  <DRUGBANK_ID>  (1) 
DB14144

>  <COMMON_NAME>  (1) 
p-Aminophenol

>  <CAS_NUMBER>  (1) 
123-30-8

>  <UNII>  (1) 
R7P8FRP05V

>  <SYNONYMS>  (1) 
4-Aminobenzenol; 4-Aminophenol; 4-Hydroxyaniline; p-hydroxyaniline

$$$$
