LKM
     RDKit          3D

 34 36  0  0  0  0  0  0  0  0999 V2000
   -3.3854   -0.7082    0.0810 N   0  0  0  0  0  0  0  0  0  0  0  0
   -2.2977   -0.3423   -0.0429 C   0  0  0  0  0  0  0  0  0  0  0  0
   -0.9354    0.1018   -0.1428 C   0  0  0  0  0  0  0  0  0  0  0  0
   -0.6396    1.4704   -0.1316 C   0  0  0  0  0  0  0  0  0  0  0  0
    0.6883    1.8945   -0.0482 C   0  0  0  0  0  0  0  0  0  0  0  0
    0.0970   -0.8393   -0.1519 C   0  0  0  0  0  0  0  0  0  0  0  0
    1.4188   -0.4083   -0.1449 C   0  0  0  0  0  0  0  0  0  0  0  0
    1.7338    0.9540   -0.0815 C   0  0  0  0  0  0  0  0  0  0  0  0
    3.1625    1.3932    0.1297 C   0  0  0  0  0  0  0  0  0  0  0  0
    3.8356    0.8202    1.2675 O   0  0  0  0  0  0  0  0  0  0  0  0
    3.3404    1.1500    2.5008 C   0  0  0  0  0  0  0  0  0  0  0  0
    1.9916    1.0582    2.8390 C   0  0  0  0  0  0  0  0  0  0  0  0
    1.5026    1.3819    4.0934 C   0  0  0  0  0  0  0  0  0  0  0  0
    4.2438    1.4871    3.4998 C   0  0  0  0  0  0  0  0  0  0  0  0
    3.7673    1.7638    4.8015 C   0  0  0  0  0  0  0  0  0  0  0  0
    2.3774    1.7155    5.0978 C   0  0  0  0  0  0  0  0  0  0  0  0
    1.8604    1.9625    6.3818 C   0  0  0  0  0  0  0  0  0  0  0  0
    4.6204    2.0577    5.8498 C   0  0  0  0  0  0  0  0  0  0  0  0
    4.0776    2.2307    7.1286 C   0  0  0  0  0  0  0  0  0  0  0  0
    2.7279    2.2350    7.4145 C   0  0  0  0  0  0  0  0  0  0  0  0
    2.1389    2.5334    9.0639 S   0  0  0  0  0  0  0  0  0  0  0  0
    1.1455    3.5773    9.0349 O   0  0  0  0  0  0  0  0  0  0  0  0
    1.7853    1.2460    9.6243 O   0  0  0  0  0  0  0  0  0  0  0  0
    3.4724    3.0870   10.0218 N   0  0  0  0  0  0  0  0  0  0  0  0
    4.2202    4.3205    9.6259 C   0  0  1  0  0  0  0  0  0  0  0  0
    3.3562    5.5820    9.5230 C   0  0  0  0  0  0  0  0  0  0  0  0
    3.6412    6.6051   10.3531 O   0  0  0  0  0  0  0  0  0  0  0  0
    2.4746    5.7162    8.6871 O   0  0  0  0  0  0  0  0  0  0  0  0
    5.4848    4.4906   10.5142 C   0  0  0  0  0  0  0  0  0  0  0  0
    6.5043    3.3337   10.5380 C   0  0  0  0  0  0  0  0  0  0  0  0
    7.1694    3.0641    9.2008 C   0  0  0  0  0  0  0  0  0  0  0  0
    8.4984    3.1819    9.1214 O   0  0  0  0  0  0  0  0  0  0  0  0
    6.5754    2.7733    8.1842 O   0  0  0  0  0  0  0  0  0  0  0  0
    2.3921   -1.3246   -0.0560 F   0  0  0  0  0  0  0  0  0  0  0  0
  1  2  3  0
  2  3  1  0
  3  4  2  0
  3  6  1  0
  4  5  1  0
  5  8  2  0
  6  7  2  0
  7  8  1  0
  7 34  1  0
  8  9  1  0
  9 10  1  0
 10 11  1  0
 11 12  2  0
 11 14  1  0
 12 13  1  0
 13 16  2  0
 14 15  2  0
 15 16  1  0
 15 18  1  0
 16 17  1  0
 17 20  2  0
 18 19  2  0
 19 20  1  0
 20 21  1  0
 21 22  2  0
 21 23  2  0
 21 24  1  0
 25 24  1  0
 25 26  1  0
 25 29  1  1
 26 27  1  0
 26 28  2  0
 29 30  1  0
 30 31  1  0
 31 32  1  0
 31 33  2  0
M  END
>  <DRUGBANK_ID>  (1) 
DB08112

>  <COMMON_NAME>  (1) 
N-({6-[(4-CYANO-2-FLUOROBENZYL)OXY]NAPHTHALEN-2-YL}SULFONYL)-D-GLUTAMIC ACID

$$$$
