
     RDKit          3D

 16 16  0  0  0  0  0  0  0  0999 V2000
    0.8482    0.7833   -0.3472 C   0  0  1  0  0  0  0  0  0  0  0  0
    1.4727   -0.6158   -0.1942 C   0  0  2  0  0  0  0  0  0  0  0  0
    0.5810   -1.6559   -0.5838 O   0  0  0  0  0  0  0  0  0  0  0  0
   -0.4366    0.8903    0.4936 C   0  0  2  0  0  0  0  0  0  0  0  0
   -0.6679   -1.6709    0.1098 C   0  0  1  0  0  0  0  0  0  0  0  0
   -1.3366   -0.3041    0.2233 C   0  0  1  0  0  0  0  0  0  0  0  0
    1.9425   -0.8354    1.1322 O   0  0  0  0  0  0  0  0  0  0  0  0
    1.7582    1.8195    0.0339 O   0  0  0  0  0  0  0  0  0  0  0  0
   -1.1414    2.0945    0.1272 O   0  0  0  0  0  0  0  0  0  0  0  0
   -2.5554   -0.3554    0.9513 O   0  0  0  0  0  0  0  0  0  0  0  0
   -1.6353   -2.6611   -0.5861 C   0  0  0  0  0  0  0  0  0  0  0  0
   -2.3282   -2.2592   -1.7744 O   0  0  0  0  0  0  0  0  0  0  0  0
   -0.5507   -0.6290   -2.8926 O   0  0  0  0  0  0  0  0  0  0  0  0
   -2.6711   -1.4429   -4.1180 O   0  0  0  0  0  0  0  0  0  0  0  0
   -1.9862   -1.0474   -2.7496 P   0  0  0  0  0  0  0  0  0  0  0  0
   -2.9355    0.1650   -2.3191 O   0  0  0  0  0  0  0  0  0  0  0  0
  1  8  1  1
  1  4  1  0
  2  1  1  0
  2  7  1  1
  2  3  1  0
  3  5  1  0
  4  9  1  6
  4  6  1  0
  5  6  1  0
  5 11  1  6
  6 10  1  1
 12 11  1  0
 12 15  1  0
 13 15  2  0
 14 15  1  0
 15 16  1  0
M  END
>  <DRUGBANK_ID>  (1) 
DB02007

>  <SECONDARY_ACCESSION_NUMBERS>  (1) 
EXPT01537

>  <COMMON_NAME>  (1) 
alpha-D-glucose 6-phosphate

>  <CAS_NUMBER>  (1) 
15209-11-7

>  <UNII>  (1) 
03JQ7I74CO

>  <SYNONYMS>  (1) 
6-O-phosphono-Î±-D-glucopyranose; alpha-D-Glucopyranose 6-phosphate

$$$$
