
     RDKit          3D

 25 27  0  0  0  0  0  0  0  0999 V2000
    0.6735   -0.2001   -0.1339 C   0  0  0  0  0  0  0  0  0  0  0  0
    0.3682   -0.7291    1.2102 C   0  0  0  0  0  0  0  0  0  0  0  0
    0.5574   -2.0474    1.5542 C   0  0  0  0  0  0  0  0  0  0  0  0
    0.1207   -2.2006    2.8835 C   0  0  0  0  0  0  0  0  0  0  0  0
    0.0298   -3.3173    3.7254 C   0  0  0  0  0  0  0  0  0  0  0  0
   -0.4484   -3.1198    5.0066 C   0  0  0  0  0  0  0  0  0  0  0  0
   -0.8092   -1.8312    5.3799 C   0  0  0  0  0  0  0  0  0  0  0  0
   -0.7388   -0.7043    4.6091 N   0  0  0  0  0  0  0  0  0  0  0  0
   -0.2601   -0.9445    3.3639 C   0  0  0  0  0  0  0  0  0  0  0  0
   -0.0440   -0.0219    2.3378 N   0  0  0  0  0  0  0  0  0  0  0  0
   -0.2884    1.4361    2.4203 C   0  0  0  0  0  0  0  0  0  0  0  0
    0.9673    2.2823    2.2163 C   0  0  0  0  0  0  0  0  0  0  0  0
    1.6264    2.3474    0.9845 C   0  0  0  0  0  0  0  0  0  0  0  0
    2.8635    2.9275    0.7849 C   0  0  0  0  0  0  0  0  0  0  0  0
    3.4825    3.5310    1.8494 C   0  0  0  0  0  0  0  0  0  0  0  0
    2.8422    3.5570    3.0964 C   0  0  0  0  0  0  0  0  0  0  0  0
    1.5467    3.0198    3.2480 C   0  0  0  0  0  0  0  0  0  0  0  0
    4.9863    4.4190    1.5645 S   0  0  0  0  0  0  0  0  0  0  0  0
    4.6782    5.8118    1.8159 O   0  0  0  0  0  0  0  0  0  0  0  0
    6.0276    3.7227    2.2960 O   0  0  0  0  0  0  0  0  0  0  0  0
    5.3553    4.2688   -0.1775 C   0  0  0  0  0  0  0  0  0  0  0  0
    1.1119   -3.1002    0.6582 C   0  0  0  0  0  0  0  0  0  0  0  0
    2.3475   -3.7359    1.2358 C   0  0  0  0  0  0  0  0  0  0  0  0
    2.4775   -4.9118    1.5025 O   0  0  0  0  0  0  0  0  0  0  0  0
    3.3619   -2.8609    1.4234 O   0  0  0  0  0  0  0  0  0  0  0  0
  1  2  1  0
  2  3  2  0
  2 10  1  0
  3  4  1  0
  3 22  1  0
  4  5  2  0
  4  9  1  0
  5  6  1  0
  6  7  2  0
  7  8  1  0
  8  9  2  0
  9 10  1  0
 10 11  1  0
 11 12  1  0
 12 13  2  0
 12 17  1  0
 13 14  1  0
 14 15  2  0
 15 16  1  0
 15 18  1  0
 16 17  2  0
 18 19  2  0
 18 20  2  0
 18 21  1  0
 22 23  1  0
 23 24  2  0
 23 25  1  0
M  END
>  <DRUGBANK_ID>  (1) 
DB11658

>  <COMMON_NAME>  (1) 
QAV-680

>  <CAS_NUMBER>  (1) 
872365-16-7

>  <UNII>  (1) 
0E3D72URPD

$$$$
