
     RDKit          3D

 30 32  0  0  0  0  0  0  0  0999 V2000
    1.9648    3.3057    0.7626 C   0  0  0  0  0  0  0  0  0  0  0  0
    1.6856    6.1422    0.0691 C   0  0  0  0  0  0  0  0  0  0  0  0
    1.2984    5.2480   -2.4072 C   0  0  0  0  0  0  0  0  0  0  0  0
    1.2646    3.8005   -2.9347 C   0  0  0  0  0  0  0  0  0  0  0  0
    1.8824    4.3159    1.8802 C   0  0  0  0  0  0  0  0  0  0  0  0
    1.1012    7.3441   -0.0886 C   0  0  0  0  0  0  0  0  0  0  0  0
    2.2942    5.6758    1.3796 C   0  0  0  0  0  0  0  0  0  0  0  0
    1.0857    8.3873    0.9226 C   0  0  0  0  0  0  0  0  0  0  0  0
    2.1296    8.8212    1.6701 C   0  0  0  0  0  0  0  0  0  0  0  0
    3.5048    8.2745    1.6486 C   0  0  0  0  0  0  0  0  0  0  0  0
    1.9184    9.8886    2.7212 C   0  0  0  0  0  0  0  0  0  0  0  0
    4.0389    7.8493    3.0203 C   0  0  2  0  0  0  0  0  0  0  0  0
    4.1710    8.0354    0.5021 C   0  0  0  0  0  0  0  0  0  0  0  0
    2.4819    9.5082    4.0999 C   0  0  2  0  0  0  0  0  0  0  0  0
    3.9133    8.9781    4.0297 C   0  0  0  0  0  0  0  0  0  0  0  0
    1.6301    8.5648    4.7555 O   0  0  0  0  0  0  0  0  0  0  0  0
   -0.0321    0.9916   -0.4894 C   0  0  0  0  0  0  0  0  0  0  0  0
    0.5408    1.5739   -1.7842 C   0  0  2  0  0  0  0  0  0  0  0  0
    1.3926    0.4469   -2.3122 C   0  0  0  0  0  0  0  0  0  0  0  0
    1.1211   -0.2053   -3.4331 C   0  0  0  0  0  0  0  0  0  0  0  0
   -0.2349   -2.4667   -4.9059 C   0  0  0  0  0  0  0  0  0  0  0  0
    0.9336   -2.6620   -3.9321 C   0  0  0  0  0  0  0  0  0  0  0  0
    1.7113   -3.9273   -4.3034 C   0  0  0  0  0  0  0  0  0  0  0  0
    1.8756   -1.4315   -3.8786 C   0  0  1  0  0  0  0  0  0  0  0  0
    2.5479   -1.1220   -5.2142 C   0  0  0  0  0  0  0  0  0  0  0  0
    1.4029    2.8586   -1.6948 C   0  0  2  0  0  0  0  0  0  0  0  0
    1.8486    5.0919   -0.9930 C   0  0  2  0  0  0  0  0  0  0  0  0
    1.1829    3.7878   -0.4864 C   0  0  2  0  0  0  0  0  0  0  0  0
   -0.3116    4.1020   -0.1922 C   0  0  0  0  0  0  0  0  0  0  0  0
    5.3940    7.4116    2.9589 O   0  0  0  0  0  0  0  0  0  0  0  0
  1  5  1  0
  2  6  2  0
  2  7  1  0
  3  4  1  0
  5  7  1  0
  6  8  1  0
  8  9  2  0
  9 10  1  0
  9 11  1  0
 10 12  1  0
 10 13  2  0
 11 14  1  0
 12 15  1  0
 12 30  1  6
 14 16  1  6
 14 15  1  0
 18 19  1  0
 18 17  1  1
 19 20  2  0
 20 24  1  0
 22 21  1  0
 22 23  1  0
 24 22  1  0
 24 25  1  6
 26  4  1  6
 26 18  1  0
 27 28  1  0
 27  2  1  0
 27  3  1  6
 28 26  1  0
 28  1  1  0
 28 29  1  1
M  END
>  <DRUGBANK_ID>  (1) 
DB06410

>  <COMMON_NAME>  (1) 
Doxercalciferol

>  <CAS_NUMBER>  (1) 
54573-75-0

>  <UNII>  (1) 
3DIZ9LF5Y9

>  <SYNONYMS>  (1) 
(1S,3R,5Z,7E,22E)-9,10-Secoergosta-5,7,10,22-tetraene-1,3-diol; 1-Hydroxyergocalciferol; 1-Hydroxyvitamin D2; 1α-Hydroxyergocalciferol; 1α-hydroxyvitamin D2; Doxercalciferol; Doxercalciferolum; Doxercalciférolum

$$$$
