
     RDKit          3D

 35 37  0  0  0  0  0  0  0  0999 V2000
    1.9693    3.2950    0.7648 C   0  0  0  0  0  0  0  0  0  0  0  0
    1.6899    6.0990    0.0170 C   0  0  0  0  0  0  0  0  0  0  0  0
    1.3092    5.2253   -2.4241 C   0  0  0  0  0  0  0  0  0  0  0  0
    1.2702    3.7788   -2.9363 C   0  0  0  0  0  0  0  0  0  0  0  0
    1.8756    4.2993    1.8780 C   0  0  0  0  0  0  0  0  0  0  0  0
    1.1010    7.2655   -0.2038 C   0  0  0  0  0  0  0  0  0  0  0  0
    2.2824    5.6410    1.3443 C   0  0  0  0  0  0  0  0  0  0  0  0
    1.1185    8.3026    0.7795 C   0  0  0  0  0  0  0  0  0  0  0  0
    2.1890    8.6380    1.5064 C   0  0  0  0  0  0  0  0  0  0  0  0
    3.5807    8.0953    1.5399 C   0  0  0  0  0  0  0  0  0  0  0  0
    1.9033    9.5806    2.5867 C   0  0  0  0  0  0  0  0  0  0  0  0
    4.2631    7.9435    0.3914 C   0  0  0  0  0  0  0  0  0  0  0  0
    2.3364    8.8920    3.8675 C   0  0  2  0  0  0  0  0  0  0  0  0
    3.8555    8.6800    3.9676 C   0  0  2  0  0  0  0  0  0  0  0  0
    1.4489    7.8827    4.3430 O   0  0  0  0  0  0  0  0  0  0  0  0
   -0.0623    1.0951   -0.3892 C   0  0  0  0  0  0  0  0  0  0  0  0
    0.5698    1.5686   -1.7068 C   0  0  2  0  0  0  0  0  0  0  0  0
    1.4170    0.3642   -2.1668 C   0  0  0  0  0  0  0  0  0  0  0  0
    0.5256   -0.8672   -2.3836 C   0  0  0  0  0  0  0  0  0  0  0  0
    0.7990   -1.4722   -5.2617 C   0  0  0  0  0  0  0  0  0  0  0  0
   -1.1981   -0.0183   -5.7666 C   0  0  0  0  0  0  0  0  0  0  0  0
   -0.6002   -0.5934   -3.3956 C   0  0  0  0  0  0  0  0  0  0  0  0
    1.4265    2.8499   -1.6808 C   0  0  2  0  0  0  0  0  0  0  0  0
    1.8708    5.0537   -1.0213 C   0  0  2  0  0  0  0  0  0  0  0  0
    1.1925    3.7802   -0.4875 C   0  0  2  0  0  0  0  0  0  0  0  0
   -0.3037    4.1340   -0.1971 C   0  0  0  0  0  0  0  0  0  0  0  0
   -0.0558   -0.2903   -4.8039 C   0  0  0  0  0  0  0  0  0  0  0  0
    0.7193    0.9083   -4.8115 O   0  0  0  0  0  0  0  0  0  0  0  0
    4.1455    7.6010    2.9293 C   0  0  2  0  0  0  0  0  0  0  0  0
    5.5272    7.2683    2.8387 O   0  0  0  0  0  0  0  0  0  0  0  0
    4.2386    8.4849    5.3389 O   0  0  0  0  0  0  0  0  0  0  0  0
    3.5373    9.3537    6.2733 C   0  0  0  0  0  0  0  0  0  0  0  0
    3.4306   10.9156    5.9666 C   0  0  0  0  0  0  0  0  0  0  0  0
    2.8275   11.5546    4.6768 C   0  0  0  0  0  0  0  0  0  0  0  0
    1.3930   11.5394    4.5700 O   0  0  0  0  0  0  0  0  0  0  0  0
  1  5  1  0
  2  6  2  0
  2  7  1  0
  3  4  1  0
  5  7  1  0
  6  8  1  0
  8  9  2  0
  9 10  1  0
  9 11  1  0
 10 29  1  0
 10 12  2  0
 11 13  1  0
 13 15  1  6
 13 14  1  0
 14 31  1  1
 17 18  1  0
 17 16  1  1
 18 19  1  0
 19 22  1  0
 22 27  1  0
 23  4  1  6
 23 17  1  0
 24 25  1  0
 24  2  1  0
 24  3  1  6
 25 23  1  0
 25  1  1  0
 25 26  1  1
 27 20  1  0
 27 21  1  0
 27 28  1  0
 29 14  1  0
 29 30  1  6
 31 32  1  0
 32 33  1  0
 33 34  1  0
 34 35  1  0
M  END
>  <DRUGBANK_ID>  (1) 
DB05295

>  <COMMON_NAME>  (1) 
Eldecalcitol

>  <CAS_NUMBER>  (1) 
104121-92-8

>  <UNII>  (1) 
I2JP8UE90H

>  <SYNONYMS>  (1) 
1α,25-dihydroxy-2β-(3-hydroxypropoxy)cholecalciferol; Eldecalcitol

$$$$
