
     RDKit          3D

 27 29  0  0  0  0  0  0  0  0999 V2000
    1.0517    0.0047   -0.1095 F   0  0  0  0  0  0  0  0  0  0  0  0
    2.8215   -1.1214    0.4760 F   0  0  0  0  0  0  0  0  0  0  0  0
    2.8441    0.0671   -1.3522 F   0  0  0  0  0  0  0  0  0  0  0  0
    5.8865    4.2941    7.0638 O   0  0  0  0  0  0  0  0  0  0  0  0
    9.5479    3.7980    4.6048 O   0  0  0  0  0  0  0  0  0  0  0  0
    2.4583    2.4477    0.2533 O   0  0  0  0  0  0  0  0  0  0  0  0
    9.5770    4.3055    3.2786 N   0  0  0  0  0  0  0  0  0  0  0  0
    3.5755    1.3093    1.8203 N   0  0  0  0  0  0  0  0  0  0  0  0
    2.8550    3.3868    1.2029 N   0  0  0  0  0  0  0  0  0  0  0  0
    8.0132    2.5778    7.1941 C   0  0  0  0  0  0  0  0  0  0  0  0
    8.2026    1.7837    5.7679 C   0  0  0  0  0  0  0  0  0  0  0  0
    7.3429    4.0816    7.3493 C   0  0  0  0  0  0  0  0  0  0  0  0
    5.2407    4.0178    5.8735 C   0  0  0  0  0  0  0  0  0  0  0  0
    5.8269    3.6699    4.7208 C   0  0  0  0  0  0  0  0  0  0  0  0
    3.8744    4.1595    5.6560 C   0  0  0  0  0  0  0  0  0  0  0  0
    3.9686    3.1540    3.3750 C   0  0  0  0  0  0  0  0  0  0  0  0
    5.3246    3.0946    3.5503 C   0  0  0  0  0  0  0  0  0  0  0  0
    3.2670    3.7501    4.4070 C   0  0  0  0  0  0  0  0  0  0  0  0
    9.2253    2.4197    4.5941 C   0  0  0  0  0  0  0  0  0  0  0  0
    7.1935    4.0835    4.5654 C   0  0  0  0  0  0  0  0  0  0  0  0
    3.0714    4.8168    6.7055 C   0  0  0  0  0  0  0  0  0  0  0  0
    9.5077    2.0239    3.2851 C   0  0  0  0  0  0  0  0  0  0  0  0
    3.4516    2.6380    2.1478 C   0  0  0  0  0  0  0  0  0  0  0  0
    9.7310    3.2206    2.5186 C   0  0  0  0  0  0  0  0  0  0  0  0
   10.2465    3.4096    1.1426 C   0  0  0  0  0  0  0  0  0  0  0  0
    2.8844    1.2291    0.7042 C   0  0  0  0  0  0  0  0  0  0  0  0
    2.4107    0.0574   -0.0648 C   0  0  0  0  0  0  0  0  0  0  0  0
  1 27  1  0
  2 27  1  0
  3 27  1  0
  4 12  1  0
  4 13  1  0
  5  7  1  0
  5 19  1  0
  6  9  1  0
  6 26  1  0
  7 24  2  0
  8 23  1  0
  8 26  2  0
  9 23  2  0
 10 11  1  0
 10 12  1  0
 11 19  1  0
 13 14  2  0
 13 15  1  0
 14 17  1  0
 14 20  1  0
 15 18  2  0
 15 21  1  0
 16 17  2  0
 16 18  1  0
 16 23  1  0
 19 22  2  0
 22 24  1  0
 24 25  1  0
 26 27  1  0
M  END
>  <DRUGBANK_ID>  (1) 
DB05105

>  <SECONDARY_ACCESSION_NUMBERS>  (1) 
DB08716

>  <COMMON_NAME>  (1) 
Pleconaril

>  <CAS_NUMBER>  (1) 
153168-05-9

>  <UNII>  (1) 
9H4570Q89D

>  <SYNONYMS>  (1) 
Pleconaril

$$$$
