
     RDKit          3D

 36 38  0  0  1  0  0  0  0  0999 V2000
   -4.9512   -7.4920    7.4715 C   0  0  0  0  0  0  0  0  0  0  0  0
   -5.6026   -6.5085    8.3794 C   0  0  0  0  0  0  0  0  0  0  0  0
   -4.6309   -5.9782    9.4014 C   0  0  0  0  0  0  0  0  0  0  0  0
   -3.0436   -5.3731    9.1634 C   0  0  2  0  0  0  0  0  0  0  0  0
   -2.6587   -4.7542   10.4581 C   0  0  0  0  0  0  0  0  0  0  0  0
   -2.3090   -4.0358    8.3040 O   0  0  0  0  0  0  0  0  0  0  0  0
   -2.5838   -2.9319    7.4718 C   0  0  0  0  0  0  0  0  0  0  0  0
   -3.1485   -1.9466    7.9594 O   0  0  0  0  0  0  0  0  0  0  0  0
   -2.4640   -2.9937    5.8238 C   0  0  2  0  0  0  0  0  0  0  0  0
   -3.7753   -2.5090    5.0639 C   0  0  0  0  0  0  0  0  0  0  0  0
   -2.0445   -4.2202    5.1389 N   0  0  0  0  0  0  0  0  0  0  0  0
   -1.0251   -5.4084    5.5633 P   0  0  0  0  0  0  0  0  0  0  0  0
   -0.2394   -5.2887    4.2345 O   0  0  0  0  0  0  0  0  0  0  0  0
   -1.2289   -7.0254    5.2601 O   0  0  0  0  0  0  0  0  0  0  0  0
   -0.4985   -7.5442    4.0627 C   0  0  0  0  0  0  0  0  0  0  0  0
   -0.9855   -6.7578    2.7282 C   0  0  1  0  0  0  0  0  0  0  0  0
   -2.2506   -6.1413    3.0309 O   0  0  0  0  0  0  0  0  0  0  0  0
   -2.0750   -4.7370    2.6654 C   0  0  0  0  0  0  0  0  0  0  0  0
   -0.3221   -4.2436    2.6660 C   0  0  2  0  0  0  0  0  0  0  0  0
   -0.0015   -5.7072    2.0968 O   0  0  0  0  0  0  0  0  0  0  0  0
    0.9112   -3.7662    4.0594 N   0  0  0  0  0  0  0  0  0  0  0  0
    1.6182   -4.8736    5.0340 C   0  0  0  0  0  0  0  0  0  0  0  0
    1.5131   -4.8553    6.3867 C   0  0  0  0  0  0  0  0  0  0  0  0
    1.2108   -3.5504    6.9442 C   0  0  0  0  0  0  0  0  0  0  0  0
    1.3026   -3.4803    8.3189 N   0  0  0  0  0  0  0  0  0  0  0  0
    0.9008   -2.5443    6.2118 N   0  0  0  0  0  0  0  0  0  0  0  0
    0.7073   -2.5484    4.7861 C   0  0  0  0  0  0  0  0  0  0  0  0
    0.3448   -1.5741    4.2076 O   0  0  0  0  0  0  0  0  0  0  0  0
   -1.9030   -5.5421    7.0481 O   0  0  0  0  0  0  0  0  0  0  0  0
   -3.5816   -5.3642    6.5105 C   0  0  0  0  0  0  0  0  0  0  0  0
   -4.1359   -6.0750    5.3227 C   0  0  0  0  0  0  0  0  0  0  0  0
   -5.6182   -5.8850    5.0745 C   0  0  0  0  0  0  0  0  0  0  0  0
   -6.4153   -4.8491    5.7983 C   0  0  0  0  0  0  0  0  0  0  0  0
   -8.3113   -5.1872    6.1830 Br  0  0  0  0  0  0  0  0  0  0  0  0
   -5.8269   -3.9352    6.7083 C   0  0  0  0  0  0  0  0  0  0  0  0
   -4.5141   -4.2999    7.1373 C   0  0  0  0  0  0  0  0  0  0  0  0
  1  2  1  0
  2  3  1  0
  4  6  1  0
  4  5  1  1
  4  3  1  0
  6  7  1  0
  7  8  2  0
  9 11  1  0
  9 10  1  6
  9  7  1  0
 12 14  1  0
 12 29  1  0
 12 13  2  0
 12 11  1  0
 14 15  1  0
 16 17  1  0
 16 20  1  0
 16 15  1  1
 17 18  1  0
 19 18  1  0
 19 20  1  0
 19 21  1  1
 21 22  1  0
 21 27  1  0
 22 23  2  0
 23 24  1  0
 24 25  1  0
 24 26  2  0
 26 27  1  0
 27 28  2  0
 29 30  1  0
 30 31  2  0
 30 36  1  0
 31 32  1  0
 32 33  2  0
 33 34  1  0
 33 35  1  0
 35 36  2  0
M  END
>  <DRUGBANK_ID>  (1) 
DB18090

>  <COMMON_NAME>  (1) 
Fostroxacitabine bralpamide

>  <CAS_NUMBER>  (1) 
2129993-56-0

>  <UNII>  (1) 
Q1I6YZ0NGF

>  <SYNONYMS>  (1) 
Troxacitabine nucleotide prodrug miv-818

$$$$
