
     RDKit          3D

 29 32  0  0  0  0  0  0  0  0999 V2000
    2.4119    1.5634   -0.0415 C   0  0  0  0  0  0  0  0  0  0  0  0
    1.4957    0.4512    0.0229 N   0  0  0  0  0  0  0  0  0  0  0  0
    1.8925   -0.8444    0.0651 C   0  0  0  0  0  0  0  0  0  0  0  0
    0.7473   -1.6210    0.1370 C   0  0  0  0  0  0  0  0  0  0  0  0
   -0.3634   -0.7934    0.0509 C   0  0  0  0  0  0  0  0  0  0  0  0
    0.1193    0.5125    0.0302 C   0  0  0  0  0  0  0  0  0  0  0  0
   -0.7586    1.5893    0.0176 C   0  0  0  0  0  0  0  0  0  0  0  0
   -2.1294    1.2952   -0.0037 C   0  0  0  0  0  0  0  0  0  0  0  0
   -2.6132   -0.0137   -0.0288 C   0  0  0  0  0  0  0  0  0  0  0  0
   -1.7319   -1.0791   -0.0071 C   0  0  0  0  0  0  0  0  0  0  0  0
    0.7422   -3.0741    0.1280 C   0  0  0  0  0  0  0  0  0  0  0  0
    0.1604   -3.7955    1.2560 N   0  0  0  0  0  0  0  0  0  0  0  0
    0.2977   -5.2886    1.1539 C   0  0  0  0  0  0  0  0  0  0  0  0
    1.7656   -5.8324    1.0928 C   0  0  0  0  0  0  0  0  0  0  0  0
    2.4864   -5.3413   -0.1570 C   0  0  0  0  0  0  0  0  0  0  0  0
    1.9925   -5.9234   -1.4472 C   0  0  0  0  0  0  0  0  0  0  0  0
    2.2409   -7.3124   -1.4232 N   0  0  0  0  0  0  0  0  0  0  0  0
    1.7231   -8.0522   -0.2915 C   0  0  0  0  0  0  0  0  0  0  0  0
    2.0334   -7.3601    1.0629 C   0  0  0  0  0  0  0  0  0  0  0  0
    3.2308   -7.7453   -2.2466 C   0  0  0  0  0  0  0  0  0  0  0  0
    4.3554   -7.0238   -2.3243 N   0  0  0  0  0  0  0  0  0  0  0  0
    5.2928   -7.4133   -3.2136 C   0  0  0  0  0  0  0  0  0  0  0  0
    5.1534   -8.4610   -4.0902 C   0  0  0  0  0  0  0  0  0  0  0  0
    3.9276   -9.0921   -3.9675 C   0  0  0  0  0  0  0  0  0  0  0  0
    2.9792   -8.7774   -3.0519 N   0  0  0  0  0  0  0  0  0  0  0  0
    6.1308   -8.9646   -5.0800 C   0  0  0  0  0  0  0  0  0  0  0  0
    5.7725   -9.9367   -5.7860 O   0  0  0  0  0  0  0  0  0  0  0  0
    7.3802   -8.4876   -5.2914 N   0  0  0  0  0  0  0  0  0  0  0  0
    8.0944   -7.4465   -4.7059 O   0  0  0  0  0  0  0  0  0  0  0  0
  1  2  1  0
  2  3  1  0
  2  6  1  0
  3  4  2  0
  4  5  1  0
  4 11  1  0
  5  6  2  0
  5 10  1  0
  6  7  1  0
  7  8  2  0
  8  9  1  0
  9 10  2  0
 11 12  1  0
 12 13  1  0
 13 14  1  0
 14 15  1  0
 14 19  1  0
 15 16  1  0
 16 17  1  0
 17 18  1  0
 17 20  1  0
 18 19  1  0
 20 21  2  0
 20 25  1  0
 21 22  1  0
 22 23  2  0
 23 24  1  0
 23 26  1  0
 24 25  2  0
 26 27  2  0
 26 28  1  0
 28 29  1  0
M  END
>  <DRUGBANK_ID>  (1) 
DB12985

>  <COMMON_NAME>  (1) 
Quisinostat

>  <CAS_NUMBER>  (1) 
875320-29-9

>  <UNII>  (1) 
9BJ85K1J8S

>  <SYNONYMS>  (1) 
Quisinostat

$$$$
