
     RDKit          3D

 34 37  0  0  0  0  0  0  0  0999 V2000
    0.9676   -0.1214    0.0407 C   0  0  0  0  0  0  0  0  0  0  0  0
    0.4117    0.4792    1.3453 C   0  0  0  0  0  0  0  0  0  0  0  0
    0.8620   -0.3881    2.4461 N   0  0  0  0  0  0  0  0  0  0  0  0
   -1.1327    0.5140    1.3078 C   0  0  0  0  0  0  0  0  0  0  0  0
   -1.6410    1.5092    0.2592 C   0  0  0  0  0  0  0  0  0  0  0  0
   -1.0140    2.8096    0.4908 N   0  0  0  0  0  0  0  0  0  0  0  0
    0.4431    2.8638    0.5022 C   0  0  0  0  0  0  0  0  0  0  0  0
    0.9516    1.9056    1.5783 C   0  0  0  0  0  0  0  0  0  0  0  0
   -1.8001    3.9447    0.5485 C   0  0  0  0  0  0  0  0  0  0  0  0
   -2.7185    4.0937    1.6095 C   0  0  0  0  0  0  0  0  0  0  0  0
   -3.4447    5.2717    1.7892 C   0  0  0  0  0  0  0  0  0  0  0  0
   -3.3012    6.2523    0.8459 C   0  0  0  0  0  0  0  0  0  0  0  0
   -2.5181    6.1028   -0.2320 N   0  0  0  0  0  0  0  0  0  0  0  0
   -1.7260    5.0235   -0.3462 C   0  0  0  0  0  0  0  0  0  0  0  0
   -0.7361    5.0735   -1.3453 N   0  0  0  0  0  0  0  0  0  0  0  0
   -0.4127    6.1222   -2.2007 C   0  0  0  0  0  0  0  0  0  0  0  0
    0.4176    5.9099   -3.0958 O   0  0  0  0  0  0  0  0  0  0  0  0
   -1.0224    7.4887   -2.0686 C   0  0  0  0  0  0  0  0  0  0  0  0
   -1.0662    8.1652   -0.8331 C   0  0  0  0  0  0  0  0  0  0  0  0
   -0.3345    7.7766    0.3032 N   0  0  0  0  0  0  0  0  0  0  0  0
   -1.8149    9.2828   -0.6773 N   0  0  0  0  0  0  0  0  0  0  0  0
   -2.4244    9.7478   -1.7995 C   0  0  0  0  0  0  0  0  0  0  0  0
   -2.3069    9.1424   -3.0471 C   0  0  0  0  0  0  0  0  0  0  0  0
   -1.6196    7.9815   -3.1979 N   0  0  0  0  0  0  0  0  0  0  0  0
   -2.9002    9.7315   -4.2575 C   0  0  0  0  0  0  0  0  0  0  0  0
   -3.8572    9.0810   -5.0377 C   0  0  0  0  0  0  0  0  0  0  0  0
   -4.2966    9.7142   -6.2134 C   0  0  0  0  0  0  0  0  0  0  0  0
   -3.7801   10.9519   -6.5760 C   0  0  0  0  0  0  0  0  0  0  0  0
   -2.8605   11.5399   -5.7306 C   0  0  0  0  0  0  0  0  0  0  0  0
   -2.4292   10.9715   -4.5819 N   0  0  0  0  0  0  0  0  0  0  0  0
   -4.4513    7.7773   -4.5952 C   0  0  0  0  0  0  0  0  0  0  0  0
   -3.5699    6.7519   -4.4999 F   0  0  0  0  0  0  0  0  0  0  0  0
   -5.0630    7.8837   -3.3807 F   0  0  0  0  0  0  0  0  0  0  0  0
   -5.4246    7.3303   -5.4435 F   0  0  0  0  0  0  0  0  0  0  0  0
  1  2  1  0
  2  3  1  0
  2  4  1  0
  2  8  1  0
  4  5  1  0
  5  6  1  0
  6  7  1  0
  6  9  1  0
  7  8  1  0
  9 10  2  0
  9 14  1  0
 10 11  1  0
 11 12  2  0
 12 13  1  0
 13 14  2  0
 14 15  1  0
 15 16  1  0
 16 17  2  0
 16 18  1  0
 18 19  2  0
 18 24  1  0
 19 20  1  0
 19 21  1  0
 21 22  2  0
 22 23  1  0
 23 24  2  0
 23 25  1  0
 25 26  2  0
 25 30  1  0
 26 27  1  0
 26 31  1  0
 27 28  2  0
 28 29  1  0
 29 30  2  0
 31 32  1  0
 31 33  1  0
 31 34  1  0
M  END
>  <DRUGBANK_ID>  (1) 
DB16059

>  <COMMON_NAME>  (1) 
Darovasertib

>  <CAS_NUMBER>  (1) 
1874276-76-2

>  <UNII>  (1) 
E0YF0M8O09

$$$$
