BDI
     RDKit          3D

 15 16  0  0  0  0  0  0  0  0999 V2000
   -1.5717   -1.1714    0.0047 N   0  0  0  0  0  0  0  0  0  0  0  0
   -2.3294   -0.0900   -0.0306 C   0  0  0  0  0  0  0  0  0  0  0  0
   -3.8274   -0.0557    0.0145 C   0  0  0  0  0  0  0  0  0  0  0  0
   -4.3837    0.6917    1.2362 C   0  0  0  0  0  0  0  0  0  0  0  0
   -4.0011    2.1742    1.2962 C   0  0  0  0  0  0  0  0  0  0  0  0
   -4.4305    2.9218    0.0403 C   0  0  0  0  0  0  0  0  0  0  0  0
   -1.5440    1.0394   -0.1350 N   0  0  0  0  0  0  0  0  0  0  0  0
   -0.2426    0.6560   -0.0471 C   0  0  0  0  0  0  0  0  0  0  0  0
    0.9336    1.4578   -0.0208 C   0  0  0  0  0  0  0  0  0  0  0  0
    2.1019    0.7171    0.0053 N   0  0  0  0  0  0  0  0  0  0  0  0
    2.1138   -0.7045    0.0028 N   0  0  0  0  0  0  0  0  0  0  0  0
    0.9606   -1.4875    0.0063 C   0  0  0  0  0  0  0  0  0  0  0  0
    1.0234   -2.7148    0.0103 O   0  0  0  0  0  0  0  0  0  0  0  0
   -0.2705   -0.7169   -0.0111 C   0  0  0  0  0  0  0  0  0  0  0  0
    0.9339    2.6872   -0.0186 O   0  0  0  0  0  0  0  0  0  0  0  0
  1  2  2  0
  1 14  1  0
  2  3  1  0
  2  7  1  0
  3  4  1  0
  4  5  1  0
  5  6  1  0
  7  8  1  0
  8  9  1  0
  8 14  2  0
  9 10  1  0
  9 15  2  0
 10 11  1  0
 11 12  1  0
 12 13  2  0
 12 14  1  0
M  END
>  <DRUGBANK_ID>  (1) 
DB02441

>  <SECONDARY_ACCESSION_NUMBERS>  (1) 
EXPT00650

>  <COMMON_NAME>  (1) 
2-Butyl-5,6-Dihydro-1h-Imidazo[4,5-D]Pyridazine-4,7-Dione

>  <UNII>  (1) 
917N15H9XX

$$$$
