723
     RDKit          3D

 15 15  0  0  1  0  0  0  0  0999 V2000
    1.2123   -0.4068   -0.2041 O   0  0  0  0  0  0  0  0  0  0  0  0
    0.6069    2.1556    1.7263 O   0  0  0  0  0  0  0  0  0  0  0  0
    1.7415   -1.5796    5.6498 O   0  0  0  0  0  0  0  0  0  0  0  0
    2.5805   -2.5239    0.7646 N   0  0  0  0  0  0  0  0  0  0  0  0
    0.6733   -0.9812    0.9989 C   0  0  0  0  0  0  0  0  0  0  0  0
    1.0984   -2.4576    0.7905 C   0  0  0  0  0  0  0  0  0  0  0  0
    1.1204   -0.2561    2.2808 C   0  0  0  0  0  0  0  0  0  0  0  0
    0.4113   -3.4547    1.7146 C   0  0  0  0  0  0  0  0  0  0  0  0
    0.9816    1.1216    2.5409 C   0  0  0  0  0  0  0  0  0  0  0  0
    1.5538   -1.0444    3.3828 C   0  0  0  0  0  0  0  0  0  0  0  0
    1.6103   -0.6052    4.7014 C   0  0  0  0  0  0  0  0  0  0  0  0
    1.2246    1.5945    3.8501 C   0  0  0  0  0  0  0  0  0  0  0  0
    1.5010    0.7526    4.9288 C   0  0  0  0  0  0  0  0  0  0  0  0
    0.4959    1.9701    0.3301 C   0  0  0  0  0  0  0  0  0  0  0  0
    1.6035   -1.1668    7.0066 C   0  0  0  0  0  0  0  0  0  0  0  0
  1  5  1  0
  2  9  1  0
  2 14  1  0
  3 11  1  0
  3 15  1  0
  4  6  1  0
  5  6  1  0
  5  7  1  0
  6  8  1  0
  7  9  2  0
  7 10  1  0
  9 12  1  0
 10 11  2  0
 11 13  1  0
 12 13  2  0
M  END
>  <DRUGBANK_ID>  (1) 
DB00723

>  <SECONDARY_ACCESSION_NUMBERS>  (1) 
APRD00062

>  <COMMON_NAME>  (1) 
Methoxamine

>  <CAS_NUMBER>  (1) 
390-28-3

>  <UNII>  (1) 
HUQ1KC1YLI

>  <SYNONYMS>  (1) 
Méthoxamédrine; Methoxamin; Methoxamine; Méthoxamine; Methoxaminum; Metossamina; Metoxamina; Pseudomethoxamine

$$$$
