ME5
     RDKit          3D

 30 33  0  0  0  0  0  0  0  0999 V2000
    1.0294    0.0675    0.0658 C   0  0  0  0  0  0  0  0  0  0  0  0
    3.4366    1.1130   -0.0231 C   0  0  0  0  0  0  0  0  0  0  0  0
    2.5118    0.0761    0.0464 C   0  0  0  0  0  0  0  0  0  0  0  0
   -3.4208    3.0540   -0.8927 C   0  0  0  0  0  0  0  0  0  0  0  0
    1.4709    2.8817    1.4997 C   0  0  0  0  0  0  0  0  0  0  0  0
    1.9943    4.2880    1.3542 C   0  0  0  0  0  0  0  0  0  0  0  0
    0.8789    4.9794    0.5742 C   0  0  0  0  0  0  0  0  0  0  0  0
    0.2048    3.8908   -0.3045 C   0  0  1  0  0  0  0  0  0  0  0  0
   -5.5073    4.2625   -0.6551 C   0  0  0  0  0  0  0  0  0  0  0  0
   -8.5062    3.6986   -1.2979 C   0  0  0  0  0  0  0  0  0  0  0  0
   -6.2107    3.0548   -0.6941 C   0  0  0  0  0  0  0  0  0  0  0  0
    0.9155    2.5802    0.1016 C   0  0  2  0  0  0  0  0  0  0  0  0
   -8.0852    2.1783    0.5587 C   0  0  0  0  0  0  0  0  0  0  0  0
   -4.1160    1.8448   -0.9671 C   0  0  0  0  0  0  0  0  0  0  0  0
   -9.5609    2.0803    0.7102 C   0  0  0  0  0  0  0  0  0  0  0  0
   -1.9593    3.0667   -1.0771 C   0  0  0  0  0  0  0  0  0  0  0  0
   -4.1116    4.2602   -0.7388 C   0  0  0  0  0  0  0  0  0  0  0  0
   -7.6197    3.0170   -0.4712 N   0  0  0  0  0  0  0  0  0  0  0  0
   -5.5091    1.8530   -0.8896 C   0  0  0  0  0  0  0  0  0  0  0  0
   -9.8259    3.4661   -1.2407 C   0  0  0  0  0  0  0  0  0  0  0  0
  -10.3683    2.6195   -0.2095 C   0  0  0  0  0  0  0  0  0  0  0  0
   -7.3847    1.5431    1.3477 O   0  0  0  0  0  0  0  0  0  0  0  0
   -1.2334    3.8540   -0.2090 N   0  0  0  0  0  0  0  0  0  0  0  0
   -1.4525    2.3715   -1.9582 O   0  0  0  0  0  0  0  0  0  0  0  0
    0.3233    1.2672    0.0779 N   0  0  0  0  0  0  0  0  0  0  0  0
    0.3516   -0.9711    0.0947 O   0  0  0  0  0  0  0  0  0  0  0  0
    4.7858    0.7512    0.1263 C   0  0  0  0  0  0  0  0  0  0  0  0
    3.4038   -1.4118    0.1167 S   0  0  0  0  0  0  0  0  0  0  0  0
    4.8958   -0.6021    0.1464 C   0  0  0  0  0  0  0  0  0  0  0  0
    6.3870   -1.4427    0.1891 Cl  0  0  0  0  0  0  0  0  0  0  0  0
  1 26  2  0
  1 25  1  0
  1  3  1  0
  2  3  2  0
  2 27  1  0
  3 28  1  0
  4 17  2  0
  4 14  1  0
  4 16  1  0
  5 12  1  0
  5  6  1  0
  6  7  1  0
  7  8  1  0
  8 12  1  0
  8 23  1  1
  9 11  2  0
  9 17  1  0
 10 20  2  0
 10 18  1  0
 11 18  1  0
 11 19  1  0
 12 25  1  1
 13 15  1  0
 13 22  2  0
 13 18  1  0
 14 19  2  0
 15 21  2  0
 16 24  2  0
 16 23  1  0
 20 21  1  0
 27 29  2  0
 28 29  1  0
 29 30  1  0
M  END
>  <DRUGBANK_ID>  (1) 
DB08174

>  <COMMON_NAME>  (1) 
5-CHLORO-N-((1R,2S)-2-(4-(2-OXOPYRIDIN-1(2H)-YL)BENZAMIDO) CYCLOPENTYL)THIOPHENE-2-CARBOXAMIDE

$$$$
