
     RDKit          3D

 34 37  0  0  0  0  0  0  0  0999 V2000
    1.3623   -0.6635    2.4432 C   0  0  2  0  0  0  0  0  0  0  0  0
    5.0759    1.3247    0.5121 C   0  0  2  0  0  0  0  0  0  0  0  0
    0.2983   -0.9117    1.1881 C   0  0  0  0  0  0  0  0  0  0  0  0
    5.5238    2.8413   -0.2133 C   0  0  1  0  0  0  0  0  0  0  0  0
    2.5184    0.3900    2.1655 C   0  0  2  0  0  0  0  0  0  0  0  0
    2.5048    0.8107    0.7190 C   0  0  2  0  0  0  0  0  0  0  0  0
    3.6005    1.7956    0.4346 C   0  0  1  0  0  0  0  0  0  0  0  0
    2.0472   -1.9766    2.3243 C   0  0  0  0  0  0  0  0  0  0  0  0
    5.1672    0.9003    2.0854 C   0  0  0  0  0  0  0  0  0  0  0  0
    3.9985   -0.0403    2.5734 C   0  0  2  0  0  0  0  0  0  0  0  0
    1.2027    1.4415    0.3123 C   0  0  0  0  0  0  0  0  0  0  0  0
    0.2575   -2.2636    0.6657 C   0  0  0  0  0  0  0  0  0  0  0  0
   -0.0066    0.4780    0.3827 C   0  0  2  0  0  0  0  0  0  0  0  0
    5.4377    2.4666   -1.7153 C   0  0  0  0  0  0  0  0  0  0  0  0
    4.9585    3.6977    0.8993 C   0  0  0  0  0  0  0  0  0  0  0  0
    3.6098    3.1189    1.2217 C   0  0  0  0  0  0  0  0  0  0  0  0
    1.4153   -3.0824    2.7246 C   0  0  0  0  0  0  0  0  0  0  0  0
    0.9209   -3.5299    1.4481 C   0  0  0  0  0  0  0  0  0  0  0  0
    6.4236    0.4536   -5.1369 C   0  0  0  0  0  0  0  0  0  0  0  0
    5.6345    3.4088   -4.3421 C   0  0  0  0  0  0  0  0  0  0  0  0
    4.2188    2.6323   -2.6472 C   0  0  0  0  0  0  0  0  0  0  0  0
    6.4705   -0.4906   -6.1137 O   0  0  0  0  0  0  0  0  0  0  0  0
    6.4473    1.8877   -2.1660 O   0  0  0  0  0  0  0  0  0  0  0  0
    4.6169    2.5703   -4.0305 O   0  0  0  0  0  0  0  0  0  0  0  0
    5.7957    0.2510   -4.1431 O   0  0  0  0  0  0  0  0  0  0  0  0
    5.9096    4.4124   -3.6900 O   0  0  0  0  0  0  0  0  0  0  0  0
    1.0499   -4.7244    1.1342 O   0  0  0  0  0  0  0  0  0  0  0  0
    6.6814    3.6874   -0.4637 O   0  0  0  0  0  0  0  0  0  0  0  0
    1.0358   -0.5642    3.9633 C   0  0  0  0  0  0  0  0  0  0  0  0
    5.2629   -0.0120   -0.2893 C   0  0  0  0  0  0  0  0  0  0  0  0
    4.4267   -1.3373    2.1505 O   0  0  0  0  0  0  0  0  0  0  0  0
    7.2168    1.7246   -5.4549 C   0  0  0  0  0  0  0  0  0  0  0  0
    6.3497    2.9757   -5.5996 C   0  0  0  0  0  0  0  0  0  0  0  0
   -1.1699    1.5296    0.5440 C   0  0  0  0  0  0  0  0  0  0  0  0
  1 29  1  1
  2  9  1  0
  2 30  1  6
  3  1  1  0
  4  2  1  0
  4 15  1  0
  4 28  1  1
  4 14  1  0
  5  1  1  0
  6  5  1  0
  7  6  1  0
  7  2  1  0
  8  1  1  0
  9 10  1  0
  5 10  1  6
 10 31  1  6
  6 11  1  1
 11 13  1  0
 12  3  2  0
 13  3  1  0
 13 34  1  1
 15 16  1  0
  7 16  1  1
 17  8  2  0
 18 17  1  0
 18 12  1  0
 19 32  1  0
 20 24  1  0
 21 14  1  0
 22 19  1  0
 23 14  2  0
 24 21  1  0
 25 19  2  0
 26 20  2  0
 27 18  2  0
 32 33  1  0
 33 20  1  0
M  END
>  <DRUGBANK_ID>  (1) 
DB14644

>  <COMMON_NAME>  (1) 
Methylprednisolone hemisuccinate

>  <CAS_NUMBER>  (1) 
2921-57-5

>  <UNII>  (1) 
5GMR90S4KN

>  <SYNONYMS>  (1) 
Methylprednisolone hemisuccinate; Methylprednisolone hydrogen succinate; Methylprednisolone succinate

$$$$
