
     RDKit          3D

 11 11  0  0  0  0  0  0  0  0999 V2000
    0.6763    1.2965   -0.2389 C   0  0  2  0  0  0  0  0  0  0  0  0
    1.3590    0.0185    0.3188 C   0  0  2  0  0  0  0  0  0  0  0  0
    0.6767   -1.2484   -0.2502 C   0  0  0  0  0  0  0  0  0  0  0  0
   -0.8335   -1.2664   -0.0029 C   0  0  0  0  0  0  0  0  0  0  0  0
   -1.5161   -0.0057   -0.5333 C   0  0  1  0  0  0  0  0  0  0  0  0
   -0.8411    1.2748   -0.0198 C   0  0  0  0  0  0  0  0  0  0  0  0
    0.9232    1.4387   -1.6443 O   0  0  0  0  0  0  0  0  0  0  0  0
   -1.5470   -0.0461   -2.0542 C   0  0  0  0  0  0  0  0  0  0  0  0
    1.0314    1.2372    2.6361 C   0  0  0  0  0  0  0  0  0  0  0  0
    1.5526    0.0046    1.8862 C   0  0  0  0  0  0  0  0  0  0  0  0
    1.0376   -1.2393    2.6238 C   0  0  0  0  0  0  0  0  0  0  0  0
  1  7  1  6
  2  1  1  0
  2 10  1  1
  3  2  1  0
  4  3  1  0
  5  4  1  0
  5  8  1  6
  6  1  1  0
  6  5  1  0
 10  9  1  0
 11 10  1  0
M  END
>  <DRUGBANK_ID>  (1) 
DB11344

>  <COMMON_NAME>  (1) 
(+)-menthol

>  <CAS_NUMBER>  (1) 
15356-60-2

>  <UNII>  (1) 
C6B1OE8P3W

>  <SYNONYMS>  (1) 
(+)-(1S,2R,5S)-menthol; (+)-(1S,3S,4R)-menthol; (1S,2R,5S)-(+)-menthol; (1S,2R,5S)-menthol; D-menthol

$$$$
