IPR
     RDKit          3D

 14 13  0  0  0  0  0  0  0  0999 V2000
    1.0429   -0.0868   -0.0251 P   0  0  0  0  0  0  0  0  0  0  0  0
    1.1952   -1.5618    0.6761 O   0  0  0  0  0  0  0  0  0  0  0  0
    1.1530    0.7534    1.3789 O   0  0  0  0  0  0  0  0  0  0  0  0
   -0.5054   -0.0868   -0.0251 O   0  0  0  0  0  0  0  0  0  0  0  0
    2.7729   -0.0868   -0.0251 O   0  0  0  0  0  0  0  0  0  0  0  0
    3.3496    0.7935   -1.3982 P   0  0  1  0  0  0  0  0  0  0  0  0
    2.0129    1.7175   -1.4979 O   0  0  0  0  0  0  0  0  0  0  0  0
    4.5772    1.1424   -0.5931 O   0  0  0  0  0  0  0  0  0  0  0  0
    3.9262    1.6738   -2.7713 O   0  0  0  0  0  0  0  0  0  0  0  0
    4.5386    2.9473   -2.3701 C   0  0  0  0  0  0  0  0  0  0  0  0
    3.7031    3.9040   -1.4396 C   0  0  0  0  0  0  0  0  0  0  0  0
    3.3664    3.5196    0.0475 C   0  0  0  0  0  0  0  0  0  0  0  0
    4.5417    3.3699    1.0104 C   0  0  0  0  0  0  0  0  0  0  0  0
    2.1902    4.3089    0.6161 C   0  0  0  0  0  0  0  0  0  0  0  0
  1  2  1  0
  1  3  1  0
  1  4  2  0
  1  5  1  0
  6  5  1  0
  6  7  1  0
  6  8  2  0
  6  9  1  0
  9 10  1  0
 10 11  1  0
 11 12  1  0
 12 13  1  0
 12 14  1  0
M  END
>  <DRUGBANK_ID>  (1) 
DB02508

>  <SECONDARY_ACCESSION_NUMBERS>  (1) 
EXPT01922

>  <COMMON_NAME>  (1) 
Isopentyl Pyrophosphate

$$$$
