
     RDKit          3D

 25 26  0  0  0  0  0  0  0  0999 V2000
   -0.9990    8.0359   -5.9079 O   0  0  0  0  0  0  0  0  0  0  0  0
   -1.0171    8.8581   -4.7924 C   0  0  0  0  0  0  0  0  0  0  0  0
   -2.0193    7.0621   -5.6967 C   0  0  2  0  0  0  0  0  0  0  0  0
   -2.0809    8.5233   -3.7988 C   0  0  0  0  0  0  0  0  0  0  0  0
   -2.3595    7.1123   -4.2164 C   0  0  2  0  0  0  0  0  0  0  0  0
   -1.4803    5.6971   -6.0263 C   0  0  0  0  0  0  0  0  0  0  0  0
   -0.9758    5.2113   -4.7041 C   0  0  2  0  0  0  0  0  0  0  0  0
   -1.3431    6.2453   -3.5347 C   0  0  2  0  0  0  0  0  0  0  0  0
   -0.0627    9.7664   -4.5904 C   0  0  0  0  0  0  0  0  0  0  0  0
    0.9895   10.1072   -5.5997 C   0  0  0  0  0  0  0  0  0  0  0  0
    0.8268   11.5565   -6.0709 C   0  0  0  0  0  0  0  0  0  0  0  0
    0.9867   12.6015   -4.9609 C   0  0  0  0  0  0  0  0  0  0  0  0
    2.3419   12.5392   -4.3012 C   0  0  0  0  0  0  0  0  0  0  0  0
    3.0785   13.6568   -4.3892 O   0  0  0  0  0  0  0  0  0  0  0  0
    2.7687   11.5439   -3.6936 O   0  0  0  0  0  0  0  0  0  0  0  0
   -1.9074    5.8906   -2.0866 C   0  0  0  0  0  0  0  0  0  0  0  0
   -2.9874    5.1065   -1.8714 C   0  0  0  0  0  0  0  0  0  0  0  0
   -3.0760    3.8235   -1.0198 C   0  0  2  0  0  0  0  0  0  0  0  0
   -1.8792    2.8114   -0.8243 C   0  0  0  0  0  0  0  0  0  0  0  0
   -1.1608    2.2898   -2.0712 C   0  0  0  0  0  0  0  0  0  0  0  0
   -0.5095    3.4326   -2.7422 C   0  0  0  0  0  0  0  0  0  0  0  0
    0.4446    4.3469   -1.9659 C   0  0  0  0  0  0  0  0  0  0  0  0
    1.8060    3.7688   -1.9866 C   0  0  0  0  0  0  0  0  0  0  0  0
   -4.1154    3.0629   -1.6629 O   0  0  0  0  0  0  0  0  0  0  0  0
    0.4168    4.9138   -4.8548 O   0  0  0  0  0  0  0  0  0  0  0  0
  2  1  1  0
  3  1  1  0
  4  2  1  0
  5  4  1  1
  5  3  1  0
  3  6  1  1
  7  6  1  0
  7 25  1  6
  8  5  1  0
  8  7  1  0
  8 16  1  1
  9  2  2  0
 10  9  1  0
 11 10  1  0
 12 11  1  0
 13 12  1  0
 14 13  1  0
 15 13  2  0
 17 16  2  0
 18 24  1  6
 18 19  1  0
 18 17  1  0
 20 19  1  0
 21 20  1  0
 22 21  1  0
 23 22  1  0
M  END
>  <DRUGBANK_ID>  (1) 
DB01240

>  <SECONDARY_ACCESSION_NUMBERS>  (1) 
APRD00949

>  <COMMON_NAME>  (1) 
Epoprostenol

>  <CAS_NUMBER>  (1) 
35121-78-9

>  <UNII>  (1) 
DCR9Z582X0

>  <SYNONYMS>  (1) 
(5Z,13E)-(15S)-6,9alpha-Epoxy-11alpha,15-dihydroxyprosta-5,13-dienoate; (5Z,9α,11α,13E,15S)-6,9-epoxy-11,15-dihydroxyprosta-5,13-dien-1-oic acid; Epoprostenol; PGI2; PGX; Prostacyclin; Prostaglandin I2; Prostaglandin X; Vasocyclin

$$$$
