
     RDKit          3D

 23 26  0  0  0  0  0  0  0  0999 V2000
    2.4365    0.0040    0.0608 C   0  0  0  0  0  0  0  0  0  0  0  0
   -7.5013    1.9779    0.8556 C   0  0  0  0  0  0  0  0  0  0  0  0
   -8.1541    0.9260    1.4885 C   0  0  0  0  0  0  0  0  0  0  0  0
   -6.1621    1.8409    0.4460 C   0  0  0  0  0  0  0  0  0  0  0  0
   -7.4908   -0.2817    1.6419 C   0  0  0  0  0  0  0  0  0  0  0  0
   -3.3138   -1.9587    4.6517 C   0  0  0  0  0  0  0  0  0  0  0  0
   -4.3246   -2.1798    3.7220 C   0  0  0  0  0  0  0  0  0  0  0  0
    0.3374   -1.1948    0.2419 C   0  0  0  0  0  0  0  0  0  0  0  0
    0.3287    1.2073    0.2215 C   0  0  0  0  0  0  0  0  0  0  0  0
   -1.1510   -1.2231   -0.1750 C   0  0  0  0  0  0  0  0  0  0  0  0
   -1.1729    1.2396   -0.1861 C   0  0  0  0  0  0  0  0  0  0  0  0
   -2.1859   -0.5219    3.0675 C   0  0  0  0  0  0  0  0  0  0  0  0
   -2.2321   -1.1544    4.3080 C   0  0  0  0  0  0  0  0  0  0  0  0
   -3.2128   -0.7269    2.1325 C   0  0  0  0  0  0  0  0  0  0  0  0
   -5.4510    0.6464    0.6332 C   0  0  0  0  0  0  0  0  0  0  0  0
   -4.2460   -1.6125    2.4452 C   0  0  0  0  0  0  0  0  0  0  0  0
   -6.1795   -0.4361    1.1594 C   0  0  0  0  0  0  0  0  0  0  0  0
   -3.1159   -0.0151    0.8021 C   0  0  0  0  0  0  0  0  0  0  0  0
   -0.9374   -0.9537    5.4210 Cl  0  0  0  0  0  0  0  0  0  0  0  0
   -4.0968    0.5926    0.1885 N   0  0  0  0  0  0  0  0  0  0  0  0
    1.0212    0.0027   -0.2939 N   0  0  0  0  0  0  0  0  0  0  0  0
   -1.8245    0.0079    0.2708 N   0  0  0  0  0  0  0  0  0  0  0  0
   -5.4858   -2.0660    1.2715 S   0  0  0  0  0  0  0  0  0  0  0  0
  3  2  2  0
  4  2  1  0
  5  3  1  0
  7  6  1  0
 10  8  1  0
 11  9  1  0
 13  6  2  0
 13 12  1  0
 14 12  2  0
 15  4  2  0
 16  7  2  0
 16 14  1  0
 17  5  2  0
 17 15  1  0
 18 14  1  0
 19 13  1  0
 20 15  1  0
 20 18  2  0
 21  1  1  0
 21  8  1  0
 21  9  1  0
 22 10  1  0
 22 11  1  0
 22 18  1  0
 23 16  1  0
 23 17  1  0
M  END
>  <DRUGBANK_ID>  (1) 
DB13256

>  <COMMON_NAME>  (1) 
Clothiapine

>  <CAS_NUMBER>  (1) 
2058-52-8

>  <UNII>  (1) 
Z05HCY0X1T

>  <SYNONYMS>  (1) 
Clothiapine; Clotiapina; Clotiapine

$$$$
