
     RDKit          3D

 42 45  0  0  1  0  0  0  0  0999 V2000
    1.3565    2.2496   -1.2248 C   0  0  0  0  0  0  0  0  0  0  0  0
    0.6156    1.1555   -0.0936 C   0  0  2  0  0  0  0  0  0  0  0  0
    1.3137   -0.1723    0.0567 C   0  0  0  0  0  0  0  0  0  0  0  0
    2.6101    0.4625   -0.3386 C   0  0  0  0  0  0  0  0  0  0  0  0
    2.8899    1.9666    0.5211 O   0  0  0  0  0  0  0  0  0  0  0  0
    1.9211    3.1077    1.0312 C   0  0  0  0  0  0  0  0  0  0  0  0
    0.6696    2.9080    1.8320 C   0  0  0  0  0  0  0  0  0  0  0  0
   -0.4155    3.7845    2.0611 C   0  0  0  0  0  0  0  0  0  0  0  0
   -1.9522    3.1529    2.3015 C   0  0  0  0  0  0  0  0  0  0  0  0
   -2.3330    3.4946    3.6178 C   0  0  0  0  0  0  0  0  0  0  0  0
   -3.4347    4.2672    3.6536 O   0  0  0  0  0  0  0  0  0  0  0  0
   -1.5968    3.1489    4.5229 O   0  0  0  0  0  0  0  0  0  0  0  0
   -0.1537    5.0618    1.6524 C   0  0  0  0  0  0  0  0  0  0  0  0
    1.0665    5.3727    0.9482 C   0  0  0  0  0  0  0  0  0  0  0  0
    2.0444    4.4133    0.5222 C   0  0  0  0  0  0  0  0  0  0  0  0
   -0.8020    1.1686    0.1719 N   0  0  0  0  0  0  0  0  0  0  0  0
   -1.6667    2.2920    0.1045 C   0  0  0  0  0  0  0  0  0  0  0  0
   -1.6640    3.1907   -1.0214 C   0  0  0  0  0  0  0  0  0  0  0  0
   -2.7459    2.1937   -2.3645 C   0  0  0  0  0  0  0  0  0  0  0  0
   -2.6006    0.7662   -2.8713 C   0  0  0  0  0  0  0  0  0  0  0  0
   -2.4751    0.3881   -4.1846 C   0  0  0  0  0  0  0  0  0  0  0  0
   -2.7154    1.2915   -5.1890 C   0  0  0  0  0  0  0  0  0  0  0  0
   -3.1943    2.5431   -5.0234 C   0  0  0  0  0  0  0  0  0  0  0  0
   -3.1729    2.9357   -3.7486 C   0  0  0  0  0  0  0  0  0  0  0  0
   -1.5257    5.0707   -0.5773 C   0  0  0  0  0  0  0  0  0  0  0  0
   -2.7070    5.5505    0.0690 C   0  0  0  0  0  0  0  0  0  0  0  0
   -3.1723    6.8381   -0.0727 C   0  0  0  0  0  0  0  0  0  0  0  0
   -2.3272    7.8024   -0.5840 C   0  0  0  0  0  0  0  0  0  0  0  0
   -1.0303    7.4691   -1.0144 C   0  0  0  0  0  0  0  0  0  0  0  0
   -0.6376    6.1021   -1.1212 C   0  0  0  0  0  0  0  0  0  0  0  0
   -1.2217    0.6800   -1.0390 C   0  0  0  0  0  0  0  0  0  0  0  0
   -0.5699    1.7622   -2.4792 C   0  0  0  0  0  0  0  0  0  0  0  0
   -1.1246    3.4234   -2.8155 C   0  0  0  0  0  0  0  0  0  0  0  0
   -3.0694    4.3992   -2.1073 Cl  0  0  0  0  0  0  0  0  0  0  0  0
   -0.5102    4.1152   -3.8405 C   0  0  0  0  0  0  0  0  0  0  0  0
    0.2018    3.2488   -4.6698 C   0  0  0  0  0  0  0  0  0  0  0  0
    0.5678    1.8308   -4.5139 C   0  0  0  0  0  0  0  0  0  0  0  0
    0.1871    1.0385   -3.4313 C   0  0  0  0  0  0  0  0  0  0  0  0
   -0.9787    5.4668   -3.9771 C   0  0  0  0  0  0  0  0  0  0  0  0
    0.0532    6.3292   -3.9158 F   0  0  0  0  0  0  0  0  0  0  0  0
   -1.6637    5.6055   -5.1227 F   0  0  0  0  0  0  0  0  0  0  0  0
   -1.8573    5.9395   -3.0813 F   0  0  0  0  0  0  0  0  0  0  0  0
  2 16  1  0
  2  3  1  0
  2  1  1  6
  3  4  1  0
  4  5  1  0
  5  6  1  0
  6  7  2  0
  6 15  1  0
  7  8  1  0
  8  9  1  0
  8 13  2  0
  9 10  1  0
 10 11  1  0
 10 12  2  0
 13 14  1  0
 14 15  2  0
 16 17  1  0
 16 31  1  0
 17 18  1  0
 18 19  1  0
 18 25  1  0
 19 20  2  0
 19 24  1  0
 20 21  1  0
 21 22  2  0
 22 23  1  0
 23 24  2  0
 25 26  2  0
 25 30  1  0
 26 27  1  0
 27 28  2  0
 28 29  1  0
 29 30  2  0
 31 32  1  0
 32 33  2  0
 32 38  1  0
 33 34  1  0
 33 35  1  0
 35 36  2  0
 35 39  1  0
 36 37  1  0
 37 38  2  0
 39 40  1  0
 39 41  1  0
 39 42  1  0
M  END
>  <DRUGBANK_ID>  (1) 
DB17146

>  <COMMON_NAME>  (1) 
Abequolixron

>  <CAS_NUMBER>  (1) 
610318-54-2

>  <UNII>  (1) 
Q26B92650V

>  <SYNONYMS>  (1) 
(3-((3r)-3-(((2-chloro-3-(trifluoromethyl)phenyl)methyl)(2,2- diphenylethyl)amino)butoxy)phenyl)acetic acid; 2-(3-((3r)-3-(((2-chloro-3-(trifluoromethyl)phenyl)methyl)(2,2-diphenylethyl)amino)butoxy)phenyl)acetic acid; 2-{3-[(3R)-3-({[2-chloro-3-(trifluoromethyl)phenyl]methyl}(2,2-diphenylethyl)amino)butoxy]phenyl}acetic acid; Benzeneacetic acid, 3-((3r)-3-(((2-chloro-3-(trifluoromethyl)phenyl)methyl)(2,2-diphenylethyl)amino)butoxy)-

$$$$
