J80
     RDKit          3D

 29 31  0  0  0  0  0  0  0  0999 V2000
    1.0729    0.1084   -0.0600 C   0  0  0  0  0  0  0  0  0  0  0  0
    0.5769    0.4779   -1.4237 C   0  0  0  0  0  0  0  0  0  0  0  0
    0.0076   -0.4635   -2.2584 C   0  0  0  0  0  0  0  0  0  0  0  0
   -0.6245   -0.0316   -3.4221 C   0  0  0  0  0  0  0  0  0  0  0  0
   -0.4312    1.2696   -3.8649 C   0  0  0  0  0  0  0  0  0  0  0  0
    0.2266    2.1369   -3.0733 N   0  0  0  0  0  0  0  0  0  0  0  0
    0.6672    1.7628   -1.8143 N   0  0  0  0  0  0  0  0  0  0  0  0
   -0.8212    1.6467   -5.1233 N   0  0  0  0  0  0  0  0  0  0  0  0
   -2.2115    1.6882   -5.4908 C   0  0  0  0  0  0  0  0  0  0  0  0
   -2.3879    0.7659   -6.6579 C   0  0  0  0  0  0  0  0  0  0  0  0
   -1.3916    1.1163   -7.7822 C   0  0  0  0  0  0  0  0  0  0  0  0
    0.0534    1.1566   -7.3205 C   0  0  0  0  0  0  0  0  0  0  0  0
    0.1512    2.0830   -6.1170 C   0  0  0  0  0  0  0  0  0  0  0  0
   -1.5091    0.0663   -8.8296 C   0  0  0  0  0  0  0  0  0  0  0  0
   -2.9520    0.0533   -9.2446 C   0  0  0  0  0  0  0  0  0  0  0  0
   -3.4013    1.1741  -10.1669 C   0  0  0  0  0  0  0  0  0  0  0  0
   -2.5245    1.3217  -11.4178 C   0  0  0  0  0  0  0  0  0  0  0  0
   -2.7354    0.3180  -12.4609 O   0  0  0  0  0  0  0  0  0  0  0  0
   -2.4032   -0.9840  -12.1823 C   0  0  0  0  0  0  0  0  0  0  0  0
   -3.1984   -1.7956  -11.3831 C   0  0  0  0  0  0  0  0  0  0  0  0
   -2.6429   -2.9203  -10.7266 C   0  0  0  0  0  0  0  0  0  0  0  0
   -1.4217   -3.4299  -11.1378 C   0  0  0  0  0  0  0  0  0  0  0  0
   -0.7650   -2.7659  -12.1853 C   0  0  0  0  0  0  0  0  0  0  0  0
   -1.2896   -1.5799  -12.7435 C   0  0  0  0  0  0  0  0  0  0  0  0
   -0.8843   -4.7381  -10.6379 C   0  0  0  0  0  0  0  0  0  0  0  0
    0.0900   -5.2552  -11.1219 O   0  0  0  0  0  0  0  0  0  0  0  0
   -1.6820   -5.2875   -9.6680 O   0  0  0  0  0  0  0  0  0  0  0  0
   -1.3346   -6.6277   -9.2497 C   0  0  0  0  0  0  0  0  0  0  0  0
   -1.5576   -7.6500  -10.3560 C   0  0  0  0  0  0  0  0  0  0  0  0
  1  2  1  0
  2  3  2  0
  2  7  1  0
  3  4  1  0
  4  5  2  0
  5  6  1  0
  5  8  1  0
  6  7  2  0
  8  9  1  0
  8 13  1  0
  9 10  1  0
 10 11  1  0
 11 12  1  0
 11 14  1  0
 12 13  1  0
 14 15  1  0
 15 16  1  0
 16 17  1  0
 17 18  1  0
 18 19  1  0
 19 20  2  0
 19 24  1  0
 20 21  1  0
 21 22  2  0
 22 23  1  0
 22 25  1  0
 23 24  2  0
 25 26  2  0
 25 27  1  0
 27 28  1  0
 28 29  1  0
M  END
>  <DRUGBANK_ID>  (1) 
DB08014

>  <COMMON_NAME>  (1) 
(METHYLPYRIDAZINE PIPERIDINE BUTYLOXYPHENYL)ETHYLACETATE

$$$$
