
     RDKit          3D

 26 28  0  0  0  0  0  0  0  0999 V2000
    0.9764    0.1098   -0.0322 S   0  0  0  0  0  0  0  0  0  0  0  0
    7.6117    1.1616   -0.8002 O   0  0  0  0  0  0  0  0  0  0  0  0
    0.5615   -0.3704   -1.3364 O   0  0  0  0  0  0  0  0  0  0  0  0
    0.5771   -0.5370    1.1878 O   0  0  0  0  0  0  0  0  0  0  0  0
    9.3976   -4.3653   -0.9983 N   0  0  0  0  0  0  0  0  0  0  0  0
    7.7148   -1.0672   -0.7633 N   0  0  0  0  0  0  0  0  0  0  0  0
    0.4747    1.7053    0.0456 N   0  0  0  0  0  0  0  0  0  0  0  0
    7.3320   -3.3120   -1.8291 C   0  0  2  0  0  0  0  0  0  0  0  0
    8.7809   -3.6616   -2.1153 C   0  0  0  0  0  0  0  0  0  0  0  0
    7.2630   -2.4248   -0.6096 C   0  0  0  0  0  0  0  0  0  0  0  0
    9.2598   -5.7158   -0.7400 C   0  0  0  0  0  0  0  0  0  0  0  0
    6.4198   -4.5315   -1.5724 C   0  0  0  0  0  0  0  0  0  0  0  0
    9.7860   -5.9381    0.5338 C   0  0  0  0  0  0  0  0  0  0  0  0
   10.0201   -3.7451    0.0598 C   0  0  0  0  0  0  0  0  0  0  0  0
   10.2596   -4.6942    1.0249 C   0  0  0  0  0  0  0  0  0  0  0  0
    8.6641   -6.7500   -1.4841 C   0  0  0  0  0  0  0  0  0  0  0  0
    9.7462   -7.2381    1.0690 C   0  0  0  0  0  0  0  0  0  0  0  0
    7.0081    0.1068   -0.5993 C   0  0  0  0  0  0  0  0  0  0  0  0
    8.6124   -8.0254   -0.9217 C   0  0  0  0  0  0  0  0  0  0  0  0
    9.1613   -8.2719    0.3311 C   0  0  0  0  0  0  0  0  0  0  0  0
    5.5324    0.1354   -0.2653 C   0  0  0  0  0  0  0  0  0  0  0  0
    4.7501   -0.9776    0.0574 C   0  0  0  0  0  0  0  0  0  0  0  0
    4.8599    1.3584   -0.2580 C   0  0  0  0  0  0  0  0  0  0  0  0
    2.7291    0.2125   -0.0568 C   0  0  0  0  0  0  0  0  0  0  0  0
    3.3769   -0.9961   -0.0426 C   0  0  0  0  0  0  0  0  0  0  0  0
    3.4679    1.4000   -0.0455 C   0  0  0  0  0  0  0  0  0  0  0  0
  1  3  2  0
  1  4  2  0
  1  7  1  0
  1 24  1  0
  2 18  2  0
  5  9  1  0
  5 11  1  0
  5 14  1  0
  6 10  1  0
  6 18  1  0
  8  9  1  0
  8 10  1  0
  8 12  1  1
 11 13  2  0
 11 16  1  0
 13 15  1  0
 13 17  1  0
 14 15  2  0
 16 19  2  0
 17 20  2  0
 18 21  1  0
 19 20  1  0
 21 22  2  0
 21 23  1  0
 22 25  1  0
 23 26  2  0
 24 25  2  0
 24 26  1  0
M  END
>  <DRUGBANK_ID>  (1) 
DB03950

>  <SECONDARY_ACCESSION_NUMBERS>  (1) 
EXPT02860

>  <COMMON_NAME>  (1) 
(S)-N-(3-Indol-1-Yl-2-Methyl-Propyl)-4-Sulfamoyl-Benzamide

$$$$
