3DH
     RDKit          3D

 21 23  0  0  0  0  0  0  0  0999 V2000
    0.8647   -0.1466    0.1821 C   0  0  0  0  0  0  0  0  0  0  0  0
    0.3626   -0.2301   -1.2339 C   0  0  0  0  0  0  0  0  0  0  0  0
    1.0073   -1.7108   -2.0699 S   0  0  0  0  0  0  0  0  0  0  0  0
    2.7859   -1.3622   -2.2940 C   0  0  0  0  0  0  0  0  0  0  0  0
    3.3288   -0.1098   -3.0114 C   0  0  1  0  0  0  0  0  0  0  0  0
    2.9175   -0.0441   -4.3914 O   0  0  0  0  0  0  0  0  0  0  0  0
    3.0506    1.2506   -2.3723 C   0  0  1  0  0  0  0  0  0  0  0  0
    4.2659    2.0265   -2.3357 O   0  0  0  0  0  0  0  0  0  0  0  0
    2.0771    1.9346   -3.3281 C   0  0  1  0  0  0  0  0  0  0  0  0
    2.2046    3.3553   -3.3209 O   0  0  0  0  0  0  0  0  0  0  0  0
    2.3998    1.2748   -4.6603 C   0  0  2  0  0  0  0  0  0  0  0  0
    1.2475    1.1687   -5.5420 N   0  0  0  0  0  0  0  0  0  0  0  0
    1.1250    1.8119   -6.7456 C   0  0  0  0  0  0  0  0  0  0  0  0
   -0.0314    1.5627   -7.3287 N   0  0  0  0  0  0  0  0  0  0  0  0
   -0.6982    0.7324   -6.4541 C   0  0  0  0  0  0  0  0  0  0  0  0
    0.0714    0.4970   -5.3241 C   0  0  0  0  0  0  0  0  0  0  0  0
   -0.2943   -0.2176   -4.2648 N   0  0  0  0  0  0  0  0  0  0  0  0
   -1.5043   -0.7894   -4.4162 C   0  0  0  0  0  0  0  0  0  0  0  0
   -2.3511   -0.6553   -5.4522 N   0  0  0  0  0  0  0  0  0  0  0  0
   -1.9656    0.1230   -6.4846 C   0  0  0  0  0  0  0  0  0  0  0  0
   -2.8466    0.2869   -7.5291 N   0  0  0  0  0  0  0  0  0  0  0  0
  2  1  1  0
  2  3  1  0
  4  3  1  0
  5  4  1  1
  5  6  1  0
  6 11  1  0
  7  5  1  0
  7  9  1  0
  7  8  1  6
  9 10  1  6
  9 11  1  0
 11 12  1  6
 12 16  1  0
 13 12  1  0
 13 14  2  0
 14 15  1  0
 15 20  1  0
 16 15  2  0
 16 17  1  0
 17 18  2  0
 18 19  1  0
 20 19  2  0
 20 21  1  0
M  END
>  <DRUGBANK_ID>  (1) 
DB07052

>  <COMMON_NAME>  (1) 
5'-S-ethyl-5'-thioadenosine

$$$$
