
     RDKit          3D

 19 21  0  0  0  0  0  0  0  0999 V2000
   -0.3241    0.5314   -0.0186 C   0  0  0  0  0  0  0  0  0  0  0  0
   -0.2615   -0.8410    0.0222 C   0  0  0  0  0  0  0  0  0  0  0  0
    0.8398    1.2761   -0.0816 C   0  0  0  0  0  0  0  0  0  0  0  0
   -1.5904    1.0052   -0.0261 N   0  0  0  0  0  0  0  0  0  0  0  0
   -1.5955   -1.1974    0.0018 N   0  0  0  0  0  0  0  0  0  0  0  0
    0.9729   -1.5082    0.0296 C   0  0  0  0  0  0  0  0  0  0  0  0
    2.0979    0.7085    0.0274 C   0  0  0  0  0  0  0  0  0  0  0  0
   -2.3652   -0.0421   -0.0015 C   0  0  0  0  0  0  0  0  0  0  0  0
    2.1477   -0.7001    0.0491 C   0  0  0  0  0  0  0  0  0  0  0  0
    3.3567    1.5391    0.0822 C   0  0  0  0  0  0  0  0  0  0  0  0
   -3.7438   -0.0207    0.0048 N   0  0  0  0  0  0  0  0  0  0  0  0
    3.4081    3.0280   -0.1691 C   0  0  0  0  0  0  0  0  0  0  0  0
    4.4287    0.9376    0.1395 O   0  0  0  0  0  0  0  0  0  0  0  0
   -4.4223    1.1982    0.0205 C   0  0  0  0  0  0  0  0  0  0  0  0
    3.2475    4.3095    0.6224 C   0  0  0  0  0  0  0  0  0  0  0  0
    2.1129    3.8324   -0.1738 C   0  0  0  0  0  0  0  0  0  0  0  0
   -5.7919    1.1154    0.0295 O   0  0  0  0  0  0  0  0  0  0  0  0
   -3.9289    2.3092    0.0300 O   0  0  0  0  0  0  0  0  0  0  0  0
   -6.5350   -0.1030    0.0223 C   0  0  0  0  0  0  0  0  0  0  0  0
  1  2  1  0
  1  3  2  0
  1  4  1  0
  2  5  1  0
  2  6  2  0
  3  7  1  0
  4  8  2  0
  5  8  1  0
  6  9  1  0
  7 10  1  0
  7  9  2  0
  8 11  1  0
 10 12  1  0
 10 13  2  0
 11 14  1  0
 12 15  1  0
 12 16  1  0
 14 17  1  0
 14 18  2  0
 15 16  1  0
 17 19  1  0
M  END
>  <DRUGBANK_ID>  (1) 
DB13465

>  <COMMON_NAME>  (1) 
Ciclobendazole

>  <CAS_NUMBER>  (1) 
31431-43-3

>  <UNII>  (1) 
JF3KQ40J31

>  <SYNONYMS>  (1) 
Ciclobendazol; Ciclobendazole; Ciclobendazolum; Cyclobendazole

$$$$
