
     RDKit          3D

 15 15  0  0  0  0  0  0  0  0999 V2000
    0.9070    0.4819    0.8172 C   0  0  0  0  0  0  0  0  0  0  0  0
    0.3334    1.7917    1.1071 C   0  0  0  0  0  0  0  0  0  0  0  0
    0.9265    2.6572   -0.0056 C   0  0  0  0  0  0  0  0  0  0  0  0
    1.1925   -1.1656   -1.1734 C   0  0  0  0  0  0  0  0  0  0  0  0
    2.7746   -0.2606   -2.6817 C   0  0  0  0  0  0  0  0  0  0  0  0
    1.5759   -0.0794   -2.0099 C   0  0  0  0  0  0  0  0  0  0  0  0
    2.1729   -1.9262   -0.5177 C   0  0  0  0  0  0  0  0  0  0  0  0
    3.6189   -1.3025   -2.2817 C   0  0  0  0  0  0  0  0  0  0  0  0
    3.3943   -2.0418   -1.1188 C   0  0  0  0  0  0  0  0  0  0  0  0
    0.7784    1.2059   -2.2747 C   0  0  0  0  0  0  0  0  0  0  0  0
    1.8949   -2.4430    0.7213 O   0  0  0  0  0  0  0  0  0  0  0  0
    4.6821   -1.6299   -3.0692 O   0  0  0  0  0  0  0  0  0  0  0  0
    4.3545   -2.9038   -0.6776 O   0  0  0  0  0  0  0  0  0  0  0  0
    0.3918    1.3627   -3.4516 O   0  0  0  0  0  0  0  0  0  0  0  0
    0.5114    2.2266   -1.3843 O   0  0  0  0  0  0  0  0  0  0  0  0
  2  1  1  0
  3  2  1  0
  6  4  2  0
  6  5  1  0
  7  4  1  0
  8  5  2  0
  9  7  2  0
  9  8  1  0
 10  6  1  0
 11  7  1  0
 12  8  1  0
 13  9  1  0
 14 10  2  0
 15  3  1  0
 15 10  1  0
M  END
>  <DRUGBANK_ID>  (1) 
DB12450

>  <COMMON_NAME>  (1) 
Propyl Gallate

>  <CAS_NUMBER>  (1) 
121-79-9

>  <UNII>  (1) 
8D4SNN7V92

$$$$
