CXM
     RDKit          3D

 12 11  0  0  0  0  0  0  0  0999 V2000
    0.9604   -0.0517   -0.0343 N   0  0  0  0  0  0  0  0  0  0  0  0
    0.2435    1.0634    0.6939 C   0  0  1  0  0  0  0  0  0  0  0  0
   -0.6968    1.8794   -0.1902 C   0  0  0  0  0  0  0  0  0  0  0  0
   -1.8177    1.0466   -0.8463 C   0  0  0  0  0  0  0  0  0  0  0  0
   -2.9981   -0.3278    0.1782 S   0  0  0  0  0  0  0  0  0  0  0  0
   -1.8763   -1.5723    1.2944 C   0  0  0  0  0  0  0  0  0  0  0  0
   -0.4495    0.9139    2.0746 C   0  0  0  0  0  0  0  0  0  0  0  0
    0.0642    0.5106    3.1057 O   0  0  0  0  0  0  0  0  0  0  0  0
    0.5442   -1.0219   -0.8955 C   0  0  0  0  0  0  0  0  0  0  0  0
    1.2701   -1.7355   -1.5891 O   0  0  0  0  0  0  0  0  0  0  0  0
   -0.7515   -1.1633   -0.9576 O   0  0  0  0  0  0  0  0  0  0  0  0
   -1.7644    1.2511    2.0529 O   0  0  0  0  0  0  0  0  0  0  0  0
  1  9  1  0
  2  1  1  0
  2  3  1  6
  2  7  1  0
  3  4  1  0
  4  5  1  0
  5  6  1  0
  7  8  2  0
  7 12  1  0
  9 10  2  0
  9 11  1  0
M  END
>  <DRUGBANK_ID>  (1) 
DB02899

>  <SECONDARY_ACCESSION_NUMBERS>  (1) 
EXPT01067

>  <COMMON_NAME>  (1) 
N-Carboxymethionine

$$$$
