RF3
     RDKit          3D

 24 27  0  0  0  0  0  0  0  0999 V2000
    1.3845   -0.7357    0.0067 C   0  0  0  0  0  0  0  0  0  0  0  0
    1.3737    0.6912    0.0008 C   0  0  0  0  0  0  0  0  0  0  0  0
    0.0931    1.1947   -0.0096 C   0  0  0  0  0  0  0  0  0  0  0  0
   -1.0829   -0.0501   -0.0330 S   0  0  0  0  0  0  0  0  0  0  0  0
    0.1137   -1.2848    0.0020 C   0  0  0  0  0  0  0  0  0  0  0  0
   -0.2717   -2.7535   -0.0070 C   0  0  0  0  0  0  0  0  0  0  0  0
   -1.0894   -3.1044    1.2370 C   0  0  0  0  0  0  0  0  0  0  0  0
   -0.6694   -2.8510    2.3712 O   0  0  0  0  0  0  0  0  0  0  0  0
   -2.3759   -3.5994    1.0366 N   0  0  0  0  0  0  0  0  0  0  0  0
   -3.4270   -3.1848    1.9474 C   0  0  0  0  0  0  0  0  0  0  0  0
   -3.9287   -4.3302    2.8106 C   0  0  0  0  0  0  0  0  0  0  0  0
   -2.7259   -4.7088    0.1548 C   0  0  0  0  0  0  0  0  0  0  0  0
   -3.2275   -5.9169    0.9685 C   0  0  0  0  0  0  0  0  0  0  0  0
   -4.3479   -5.5455    1.9645 C   0  0  0  0  0  0  0  0  0  0  0  0
   -4.7229   -6.6723    2.8856 C   0  0  0  0  0  0  0  0  0  0  0  0
   -5.7289   -6.7525    3.7313 N   0  0  0  0  0  0  0  0  0  0  0  0
   -3.8646   -7.7301    2.9802 O   0  0  0  0  0  0  0  0  0  0  0  0
   -4.2905   -8.4965    4.0624 N   0  0  0  0  0  0  0  0  0  0  0  0
   -5.3959   -7.8634    4.4779 C   0  0  0  0  0  0  0  0  0  0  0  0
   -6.2077   -8.3302    5.6399 C   0  0  0  0  0  0  0  0  0  0  0  0
   -7.5791   -8.4581    5.6048 C   0  0  0  0  0  0  0  0  0  0  0  0
   -8.1021   -8.9574    6.8347 C   0  0  0  0  0  0  0  0  0  0  0  0
   -7.1179   -9.1185    7.7859 C   0  0  0  0  0  0  0  0  0  0  0  0
   -5.5600   -8.7813    7.1538 S   0  0  0  0  0  0  0  0  0  0  0  0
  2  1  1  0
  3  2  2  0
  4  3  1  0
  4  5  1  0
  5  1  2  0
  5  6  1  0
  7  6  1  0
  7  9  1  0
  8  7  2  0
  9 10  1  0
 10 11  1  0
 12  9  1  0
 12 13  1  0
 13 14  1  0
 14 11  1  0
 14 15  1  0
 15 17  1  0
 16 15  2  0
 16 19  1  0
 17 18  1  0
 19 18  2  0
 20 19  1  0
 20 21  2  0
 22 21  1  0
 23 22  2  0
 24 20  1  0
 24 23  1  0
M  END
>  <DRUGBANK_ID>  (1) 
DB08471

>  <COMMON_NAME>  (1) 
1-(thiophen-2-ylacetyl)-4-(3-thiophen-2-yl-1,2,4-oxadiazol-5-yl)piperidine

$$$$
