
     RDKit          3D

 25 27  0  0  0  0  0  0  0  0999 V2000
   -1.1285    1.5151   -0.0456 C   0  0  0  0  0  0  0  0  0  0  0  0
   -2.1961    0.6287   -0.0309 N   0  0  0  0  0  0  0  0  0  0  0  0
   -1.0139   -1.4318   -0.0193 N   0  0  0  0  0  0  0  0  0  0  0  0
    0.0658   -0.6257    0.0204 C   0  0  0  0  0  0  0  0  0  0  0  0
    0.0747    0.7598   -0.0057 C   0  0  0  0  0  0  0  0  0  0  0  0
    1.3661    1.1829    0.1687 N   0  0  0  0  0  0  0  0  0  0  0  0
    2.0171    0.0994    0.6420 C   0  0  0  0  0  0  0  0  0  0  0  0
    1.3658   -1.0306    0.2309 N   0  0  0  0  0  0  0  0  0  0  0  0
    1.8930   -2.4538    0.1244 C   0  0  2  0  0  0  0  0  0  0  0  0
    2.7981   -2.6396    1.2330 O   0  0  0  0  0  0  0  0  0  0  0  0
    3.9610   -3.4045    0.8562 C   0  0  1  0  0  0  0  0  0  0  0  0
    3.7401   -3.9343   -0.5781 C   0  0  1  0  0  0  0  0  0  0  0  0
    3.3332   -5.2960   -0.5722 O   0  0  0  0  0  0  0  0  0  0  0  0
    2.6034   -3.0653   -1.1528 C   0  0  1  0  0  0  0  0  0  0  0  0
    1.7938   -3.6231   -2.1796 O   0  0  0  0  0  0  0  0  0  0  0  0
    5.1851   -1.1835    0.7032 O   0  0  0  0  0  0  0  0  0  0  0  0
    3.4076   -0.4718   -0.8075 O   0  0  0  0  0  0  0  0  0  0  0  0
    4.7256   -1.1117   -0.9631 P   0  0  0  0  0  0  0  0  0  0  0  0
    4.2661   -1.0398   -2.6294 O   0  0  0  0  0  0  0  0  0  0  0  0
    5.6500    0.2117   -1.1484 O   0  0  0  0  0  0  0  0  0  0  0  0
    5.2591   -2.5640    1.1025 C   0  0  0  0  0  0  0  0  0  0  0  0
   -2.1214   -0.7479   -0.0181 C   0  0  0  0  0  0  0  0  0  0  0  0
   -3.3017   -1.3921    0.0002 N   0  0  0  0  0  0  0  0  0  0  0  0
   -1.2883    2.7125   -0.0237 O   0  0  0  0  0  0  0  0  0  0  0  0
    1.9384    2.5225    0.0286 C   0  0  0  0  0  0  0  0  0  0  0  0
  1  2  1  0
  1  5  1  0
  2 22  1  0
  3  4  1  0
  4  5  2  0
  4  8  1  0
  5  6  1  0
  6  7  2  0
  6 25  1  0
  7  8  1  0
  9  8  1  6
  9 10  1  0
  9 14  1  0
 10 11  1  0
 11 12  1  0
 11 21  1  6
 12 13  1  1
 12 14  1  0
 14 15  1  1
 16 18  1  0
 18 17  2  0
 18 20  1  0
 18 19  1  0
 21 16  1  0
 22  3  2  0
 22 23  1  0
 24  1  2  0
M  CHG  1   6   1
M  END
>  <DRUGBANK_ID>  (1) 
DB03593

>  <SECONDARY_ACCESSION_NUMBERS>  (1) 
EXPT01539

>  <COMMON_NAME>  (1) 
7-methyl-5'-guanylic acid

>  <UNII>  (1) 
M5SL28EU5R

>  <SYNONYMS>  (1) 
7-methylguanosine 5'-(dihydrogen phosphate); 7-methylguanosine 5'-phosphate

$$$$
