
     RDKit          3D

 20 21  0  0  0  0  0  0  0  0999 V2000
    0.8642    0.0243    0.0318 C   0  0  0  0  0  0  0  0  0  0  0  0
    2.2737    0.3258    0.1660 C   0  0  0  0  0  0  0  0  0  0  0  0
    0.2120   -1.2648    0.0605 C   0  0  0  0  0  0  0  0  0  0  0  0
    3.3337    0.8412   -1.2788 C   0  0  0  0  0  0  0  0  0  0  0  0
    5.6206   -0.7557    0.2543 N   0  0  0  0  0  0  0  0  0  0  0  0
    0.7020   -2.5797    0.0343 O   0  0  0  0  0  0  0  0  0  0  0  0
    0.3032    1.2892    0.0132 C   0  0  0  0  0  0  0  0  0  0  0  0
   -1.1497   -1.1218    0.0115 C   0  0  0  0  0  0  0  0  0  0  0  0
    4.1825   -0.9112    0.1821 C   0  0  0  0  0  0  0  0  0  0  0  0
    5.8750    0.1534    1.4276 C   0  0  0  0  0  0  0  0  0  0  0  0
    2.0726   -3.1323    0.0336 C   0  0  0  0  0  0  0  0  0  0  0  0
    3.4043    2.1279   -1.5072 C   0  0  0  0  0  0  0  0  0  0  0  0
    4.4909   -0.0261   -2.0924 C   0  0  0  0  0  0  0  0  0  0  0  0
    2.9702   -1.4936   -1.2092 C   0  0  0  0  0  0  0  0  0  0  0  0
    2.9122   -2.9077   -1.1971 C   0  0  0  0  0  0  0  0  0  0  0  0
   -1.0053    1.3776    0.0589 C   0  0  0  0  0  0  0  0  0  0  0  0
   -1.7420    0.1857    0.0030 C   0  0  0  0  0  0  0  0  0  0  0  0
    4.2707    2.4954   -2.5648 C   0  0  0  0  0  0  0  0  0  0  0  0
    5.3101    0.3244   -3.1304 C   0  0  0  0  0  0  0  0  0  0  0  0
    5.1162    1.6163   -3.3800 C   0  0  0  0  0  0  0  0  0  0  0  0
  1  2  1  0
  1  3  2  0
  1  7  1  0
  2  4  1  0
  3  6  1  0
  3  8  1  0
  4 12  2  0
  4 13  1  0
  5  9  1  0
  5 10  1  0
  6 11  1  0
  7 16  2  0
  8 17  2  0
  9 14  1  0
 11 15  1  0
 12 18  1  0
 13 19  2  0
 14 15  1  0
 16 17  1  0
 18 20  2  0
 19 20  1  0
M  END
>  <DRUGBANK_ID>  (1) 
DB13550

>  <COMMON_NAME>  (1) 
Bifemelane

>  <CAS_NUMBER>  (1) 
90293-01-9

>  <UNII>  (1) 
Z4501GN13G

>  <SYNONYMS>  (1) 
Bifemelane; Bifemelano; Bifemelanum

$$$$
