
     RDKit          3D

 17 15  0  0  1  0  0  0  0  0999 V2000
   -3.4407   -0.4454   -2.6282 C   0  0  0  0  0  0  0  0  0  0  0  0
   -2.0218   -0.7844   -2.4479 N   0  0  0  0  0  0  0  0  0  0  0  0
   -1.2261   -0.1391   -3.5021 C   0  0  0  0  0  0  0  0  0  0  0  0
   -1.4015    1.3684   -3.4183 C   0  0  1  0  0  0  0  0  0  0  0  0
   -0.8949    1.8539   -2.0700 C   0  0  2  0  0  0  0  0  0  0  0  0
   -1.4015    0.9290   -0.9754 C   0  0  1  0  0  0  0  0  0  0  0  0
   -0.2730    0.2627   -0.2053 C   0  0  1  0  0  0  0  0  0  0  0  0
    0.5927    1.3278    0.4477 C   0  0  0  0  0  0  0  0  0  0  0  0
   -0.1982    2.0991    1.3399 O   0  0  0  0  0  0  0  0  0  0  0  0
   -0.8184   -0.5835    0.7961 O   0  0  0  0  0  0  0  0  0  0  0  0
   -2.1924    1.7003   -0.0832 O   0  0  0  0  0  0  0  0  0  0  0  0
   -1.3682    3.1716   -1.8330 O   0  0  0  0  0  0  0  0  0  0  0  0
   -0.6329    1.9918   -4.4367 O   0  0  0  0  0  0  0  0  0  0  0  0
    1.0155    0.0833   -0.0532 O   0  0  0  0  0  0  0  0  0  0  0  0
    0.3322   -1.2239   -1.4768 Sb  0  0  0  0  0  5  0  0  0  0  0  0
    0.9438   -2.9124   -1.1008 O   0  0  0  0  0  0  0  0  0  0  0  0
   -1.5026   -1.2239   -1.4768 O   0  0  0  0  0  0  0  0  0  0  0  0
  1  2  1  0
  2  3  1  0
  3  4  1  0
  4 13  1  6
  5 12  1  1
  5  6  1  0
  5  4  1  0
  6  7  1  0
  6 11  1  1
  7  8  1  0
  7 10  1  1
  8  9  1  0
 14 15  1  0
 15 16  2  0
 15 17  2  0
M  END
>  <DRUGBANK_ID>  (1) 
DB13732

>  <COMMON_NAME>  (1) 
Meglumine antimoniate

>  <CAS_NUMBER>  (1) 
133-51-7

>  <UNII>  (1) 
75G4TW236W

>  <SYNONYMS>  (1) 
Antimoniato de meglumina; Glucantim; Glucantime; Meglumine antimonate; Meglumine antimoniate

$$$$
