
     RDKit          3D

 21 21  0  0  0  0  0  0  0  0999 V2000
    3.7801    3.8513   -8.7944 S   0  0  0  0  0  0  0  0  0  0  0  0
    3.2250    2.9724   -9.8148 O   0  0  0  0  0  0  0  0  0  0  0  0
    5.0945    3.6202   -8.2427 O   0  0  0  0  0  0  0  0  0  0  0  0
    0.6906    4.3694   -5.4708 C   0  0  0  0  0  0  0  0  0  0  0  0
    2.0028    4.8780   -5.3330 C   0  0  0  0  0  0  0  0  0  0  0  0
    2.9781    4.6137   -6.2941 C   0  0  0  0  0  0  0  0  0  0  0  0
    2.6198    3.9271   -7.4530 C   0  0  0  0  0  0  0  0  0  0  0  0
    1.3338    3.4105   -7.6120 C   0  0  0  0  0  0  0  0  0  0  0  0
    0.3593    3.6713   -6.6452 C   0  0  0  0  0  0  0  0  0  0  0  0
   -0.1900    4.3382   -4.2269 C   0  0  2  0  0  0  0  0  0  0  0  0
    0.2181    3.2296   -3.1711 C   0  0  2  0  0  0  0  0  0  0  0  0
    0.0123    3.7369   -1.7612 N   0  0  0  0  0  0  0  0  0  0  0  0
    1.6480    2.6728   -3.3629 C   0  0  0  0  0  0  0  0  0  0  0  0
    1.9312    2.2960   -4.6279 F   0  0  0  0  0  0  0  0  0  0  0  0
    0.9703    3.5968   -0.7529 C   0  0  0  0  0  0  0  0  0  0  0  0
    0.7201    4.2491    0.5985 C   0  0  0  0  0  0  0  0  0  0  0  0
    2.0307    2.9934   -0.9280 O   0  0  0  0  0  0  0  0  0  0  0  0
    0.9719    3.0029    1.8480 Cl  0  0  0  0  0  0  0  0  0  0  0  0
    1.9142    5.5609    0.7867 Cl  0  0  0  0  0  0  0  0  0  0  0  0
   -1.5788    4.1798   -4.5633 O   0  0  0  0  0  0  0  0  0  0  0  0
    3.7121    5.5168   -9.4245 C   0  0  0  0  0  0  0  0  0  0  0  0
  1 21  1  0
  2  1  2  0
  3  1  2  0
  4  5  2  0
  5  6  1  0
  6  7  2  0
  7  8  1  0
  7  1  1  0
  8  9  2  0
  9  4  1  0
 10 20  1  6
 10 11  1  0
 10  4  1  0
 11 13  1  1
 11 12  1  0
 12 15  1  0
 13 14  1  0
 15 16  1  0
 15 17  2  0
 16 18  1  0
 16 19  1  0
M  END
>  <DRUGBANK_ID>  (1) 
DB11413

>  <COMMON_NAME>  (1) 
Florfenicol

>  <CAS_NUMBER>  (1) 
73231-34-2

>  <UNII>  (1) 
9J97307Y1H

>  <SYNONYMS>  (1) 
(-)-Florfenicol; D-threo-2,2-Dichloro-N-(alpha-(fluoromethyl)-beta-hydroxy-p-(methylsulfonyl)phenethyl)acetamide; Florfenicol

$$$$
