
     RDKit          3D

 13 13  0  0  1  0  0  0  0  0999 V2000
    0.9896   -2.2625    1.0220 N   0  0  0  0  0  0  0  0  0  0  0  0
    0.4802   -1.4624   -0.1107 C   0  0  2  0  0  0  0  0  0  0  0  0
    1.2615   -0.1286   -0.1288 C   0  0  0  0  0  0  0  0  0  0  0  0
    2.4893   -0.2977   -0.6934 O   0  0  0  0  0  0  0  0  0  0  0  0
    0.9416    0.9306    0.3929 O   0  0  0  0  0  0  0  0  0  0  0  0
   -1.0337   -1.4116   -0.1121 C   0  0  0  0  0  0  0  0  0  0  0  0
   -1.7449   -2.6297   -0.1542 C   0  0  0  0  0  0  0  0  0  0  0  0
   -3.1399   -2.6458   -0.1742 C   0  0  0  0  0  0  0  0  0  0  0  0
   -3.9533   -4.1671   -0.1903 Cl  0  0  0  0  0  0  0  0  0  0  0  0
   -3.8453   -1.4425   -0.1734 C   0  0  0  0  0  0  0  0  0  0  0  0
   -5.2116   -1.4525   -0.2000 O   0  0  0  0  0  0  0  0  0  0  0  0
   -3.1613   -0.2298   -0.1485 C   0  0  0  0  0  0  0  0  0  0  0  0
   -1.7659   -0.2185   -0.1240 C   0  0  0  0  0  0  0  0  0  0  0  0
  2  6  1  0
  2  3  1  0
  2  1  1  1
  3  4  1  0
  3  5  2  0
  6  7  2  0
  6 13  1  0
  7  8  1  0
  8  9  1  0
  8 10  2  0
 10 11  1  0
 10 12  1  0
 12 13  2  0
M  END
>  <DRUGBANK_ID>  (1) 
DB03898

>  <SECONDARY_ACCESSION_NUMBERS>  (1) 
EXPT00910

>  <COMMON_NAME>  (1) 
3-Chloro-4-Hydroxyphenylglycine

$$$$
