ILH
     RDKit          3D

 32 34  0  0  0  0  0  0  0  0999 V2000
    0.3172    0.4956   -0.9460 O   0  0  0  0  0  0  0  0  0  0  0  0
    0.0118   -0.7514   -1.3427 C   0  0  0  0  0  0  0  0  0  0  0  0
    0.7137   -1.4962   -2.0055 O   0  0  0  0  0  0  0  0  0  0  0  0
   -1.2829   -1.0579   -0.8001 C   0  0  0  0  0  0  0  0  0  0  0  0
   -1.8443   -2.1025   -0.1611 C   0  0  0  0  0  0  0  0  0  0  0  0
   -3.2962   -1.8196   -0.2163 C   0  0  0  0  0  0  0  0  0  0  0  0
   -3.5297   -0.6100   -0.7570 C   0  0  0  0  0  0  0  0  0  0  0  0
   -2.2447    0.0399   -1.0810 C   0  0  0  0  0  0  0  0  0  0  0  0
   -1.2951   -3.3951    0.4123 C   0  0  0  0  0  0  0  0  0  0  0  0
   -2.0952   -4.2881    0.7189 O   0  0  0  0  0  0  0  0  0  0  0  0
    0.0521   -3.6716    0.5758 N   0  0  0  0  0  0  0  0  0  0  0  0
    1.1896   -2.8284    0.4973 C   0  0  0  0  0  0  0  0  0  0  0  0
    1.2075   -1.5784    1.1049 C   0  0  0  0  0  0  0  0  0  0  0  0
    0.1470   -1.1760    1.8253 F   0  0  0  0  0  0  0  0  0  0  0  0
    2.1738   -0.6208    0.7513 C   0  0  0  0  0  0  0  0  0  0  0  0
    1.9598    0.6340    1.1854 F   0  0  0  0  0  0  0  0  0  0  0  0
    3.1038   -0.8317   -0.2956 C   0  0  0  0  0  0  0  0  0  0  0  0
    3.1730   -2.1467   -0.7796 C   0  0  0  0  0  0  0  0  0  0  0  0
    4.0202   -2.4270   -1.7835 F   0  0  0  0  0  0  0  0  0  0  0  0
    2.2667   -3.1485   -0.3502 C   0  0  0  0  0  0  0  0  0  0  0  0
    2.3103   -4.3506   -0.9467 F   0  0  0  0  0  0  0  0  0  0  0  0
    3.8080    0.3286   -0.9398 C   0  0  0  0  0  0  0  0  0  0  0  0
    3.8434    0.5697   -2.3417 C   0  0  0  0  0  0  0  0  0  0  0  0
    4.5306    1.6771   -2.8920 C   0  0  0  0  0  0  0  0  0  0  0  0
    4.6641    1.9884   -4.2210 O   0  0  0  0  0  0  0  0  0  0  0  0
    3.9907    1.1626   -5.1570 C   0  0  0  0  0  0  0  0  0  0  0  0
    4.4436   -0.1059   -5.0900 F   0  0  0  0  0  0  0  0  0  0  0  0
    2.6586    1.1847   -4.9383 F   0  0  0  0  0  0  0  0  0  0  0  0
    4.2177    1.6245   -6.4071 F   0  0  0  0  0  0  0  0  0  0  0  0
    5.1557    2.5839   -2.0342 C   0  0  0  0  0  0  0  0  0  0  0  0
    5.0443    2.4239   -0.6573 C   0  0  0  0  0  0  0  0  0  0  0  0
    4.4060    1.3000   -0.1268 C   0  0  0  0  0  0  0  0  0  0  0  0
  1  2  1  0
  2  3  2  0
  2  4  1  0
  4  5  2  0
  4  8  1  0
  5  6  1  0
  5  9  1  0
  6  7  2  0
  7  8  1  0
  9 10  2  0
  9 11  1  0
 11 12  1  0
 12 13  2  0
 12 20  1  0
 13 14  1  0
 13 15  1  0
 15 16  1  0
 15 17  2  0
 17 18  1  0
 17 22  1  0
 18 19  1  0
 18 20  2  0
 20 21  1  0
 22 23  2  0
 22 32  1  0
 23 24  1  0
 24 25  1  0
 24 30  2  0
 25 26  1  0
 26 27  1  0
 26 28  1  0
 26 29  1  0
 30 31  1  0
 31 32  2  0
M  END
>  <DRUGBANK_ID>  (1) 
DB07978

>  <COMMON_NAME>  (1) 
2-({[2,3,5,6-TETRAFLUORO-3'-(TRIFLUOROMETHOXY)BIPHENYL-4-YL]AMINO}CARBONYL)CYCLOPENTA-1,3-DIENE-1-CARBOXYLIC ACID

$$$$
