
     RDKit          3D

 30 32  0  0  0  0  0  0  0  0999 V2000
    0.9848   -0.6556   -0.0668 N   0  0  0  0  0  0  0  0  0  0  0  0
    2.3719   -1.1122   -0.1197 C   0  0  0  0  0  0  0  0  0  0  0  0
    3.0743   -1.0250   -1.4304 C   0  0  0  0  0  0  0  0  0  0  0  0
    3.2755   -2.0830   -2.3276 C   0  0  0  0  0  0  0  0  0  0  0  0
   -0.7956   -2.6282   -0.0760 C   0  0  0  0  0  0  0  0  0  0  0  0
   -0.3169   -1.2323   -0.0473 C   0  0  0  0  0  0  0  0  0  0  0  0
    3.7568    0.1402   -1.6570 C   0  0  0  0  0  0  0  0  0  0  0  0
    4.4773    0.3870   -2.7732 C   0  0  0  0  0  0  0  0  0  0  0  0
    4.7014   -0.6528   -3.6386 C   0  0  0  0  0  0  0  0  0  0  0  0
    4.1715   -1.9188   -3.3809 C   0  0  0  0  0  0  0  0  0  0  0  0
   -0.0776   -3.7840   -0.0452 C   0  0  0  0  0  0  0  0  0  0  0  0
   -0.5631   -5.1675   -0.0505 C   0  0  0  0  0  0  0  0  0  0  0  0
   -1.7296   -5.5424    0.0329 O   0  0  0  0  0  0  0  0  0  0  0  0
    0.4763   -6.0248   -0.1229 O   0  0  0  0  0  0  0  0  0  0  0  0
    5.4700   -0.3730   -4.8441 C   0  0  0  0  0  0  0  0  0  0  0  0
    5.7580   -1.1841   -5.7007 O   0  0  0  0  0  0  0  0  0  0  0  0
    5.7820    0.9346   -4.9226 O   0  0  0  0  0  0  0  0  0  0  0  0
   -1.1413   -0.1049    0.0195 C   0  0  0  0  0  0  0  0  0  0  0  0
   -0.4495    1.0532    0.1744 N   0  0  0  0  0  0  0  0  0  0  0  0
    0.8135    0.7164    0.1446 C   0  0  0  0  0  0  0  0  0  0  0  0
    1.9520    1.6872    0.2199 C   0  0  0  0  0  0  0  0  0  0  0  0
    2.0394    2.4953   -1.1051 C   0  0  0  0  0  0  0  0  0  0  0  0
    0.8634    3.4385   -1.2349 C   0  0  0  0  0  0  0  0  0  0  0  0
    0.8133    4.3221   -0.0080 C   0  0  0  0  0  0  0  0  0  0  0  0
    1.3784   -3.7978    0.0798 C   0  0  0  0  0  0  0  0  0  0  0  0
    2.1921   -4.0693    1.2944 C   0  0  0  0  0  0  0  0  0  0  0  0
    1.3728   -4.4226    2.7417 S   0  0  0  0  0  0  0  0  0  0  0  0
    2.8398   -4.5514    3.5716 C   0  0  0  0  0  0  0  0  0  0  0  0
    3.9256   -4.1687    2.8213 C   0  0  0  0  0  0  0  0  0  0  0  0
    3.5508   -3.8480    1.4920 C   0  0  0  0  0  0  0  0  0  0  0  0
  1 20  1  0
  1  2  1  0
  1  6  1  0
  2  3  1  0
  3  7  1  0
  3  4  2  0
  4 10  1  0
  5 11  2  0
  6  5  1  0
  6 18  2  0
  7  8  2  0
  8  9  1  0
  9 15  1  0
 10  9  2  0
 11 25  1  0
 11 12  1  0
 12 13  2  0
 12 14  1  0
 15 16  2  0
 15 17  1  0
 18 19  1  0
 20 19  2  0
 20 21  1  0
 21 22  1  0
 22 23  1  0
 23 24  1  0
 25 26  1  0
 26 27  1  0
 26 30  2  0
 27 28  1  0
 28 29  2  0
 30 29  1  0
M  END
>  <DRUGBANK_ID>  (1) 
DB00876

>  <SECONDARY_ACCESSION_NUMBERS>  (1) 
APRD00950

>  <COMMON_NAME>  (1) 
Eprosartan

>  <CAS_NUMBER>  (1) 
133040-01-4

>  <UNII>  (1) 
2KH13Z0S0Y

>  <SYNONYMS>  (1) 
(E)-2-butyl-1-(p-carboxybenzyl)-α-2-thenylimidazole-5-acrylic acid; (E)-3-[2-n-butyl-1-{(4-carboxyphenyl)methyl}-1H-imidazol-5-yl]-2-(2-thienyl)methyl-2-propenoic acid; (E)-α{[2-butyl-1-[(4-carboxyphenyl)methyl]-1H-imidazole-5-yl]methylene}-2-thiopheneproprionic acid; Éprosartan; Eprosartan; Eprosartanum

$$$$
