
     RDKit          3D

 32 36  0  0  0  0  0  0  0  0999 V2000
   -4.0729   -7.5410    7.9951 C   0  0  1  0  0  0  0  0  0  0  0  0
   -2.6125   -7.3947    7.8133 C   0  0  1  0  0  0  0  0  0  0  0  0
   -0.8156   -9.5550    6.6136 C   0  0  2  0  0  0  0  0  0  0  0  0
   -4.5353   -9.3990    7.9380 C   0  0  1  0  0  0  0  0  0  0  0  0
   -2.1772   -9.2856    7.1875 C   0  0  1  0  0  0  0  0  0  0  0  0
   -0.3800   -7.6840    6.2973 C   0  0  2  0  0  0  0  0  0  0  0  0
   -5.7559   -9.8256    8.7210 C   0  0  1  0  0  0  0  0  0  0  0  0
    0.9333   -7.7690    5.7656 C   0  0  0  0  0  0  0  0  0  0  0  0
   -6.7144  -10.8000    9.3817 C   0  0  1  0  0  0  0  0  0  0  0  0
   -5.3501   -8.8937    9.8396 C   0  0  1  0  0  0  0  0  0  0  0  0
   -2.1958   -6.3540    6.7490 C   0  0  0  0  0  0  0  0  0  0  0  0
   -4.4667   -7.0232    9.4056 C   0  0  0  0  0  0  0  0  0  0  0  0
   -4.2522  -10.6720    7.0451 C   0  0  0  0  0  0  0  0  0  0  0  0
   -0.5769  -10.5341    5.0967 C   0  0  0  0  0  0  0  0  0  0  0  0
   -2.8589  -10.9875    7.4196 C   0  0  0  0  0  0  0  0  0  0  0  0
   -0.7367   -6.5570    7.1676 C   0  0  0  0  0  0  0  0  0  0  0  0
   -7.2235  -11.7338   10.5000 C   0  0  0  0  0  0  0  0  0  0  0  0
   -7.5053   -9.4690    9.6924 C   0  0  0  0  0  0  0  0  0  0  0  0
    0.1228   -8.5309    4.6248 C   0  0  2  0  0  0  0  0  0  0  0  0
   -5.6717   -7.6793    8.9783 C   0  0  0  0  0  0  0  0  0  0  0  0
   -6.5758   -8.6995   10.7523 C   0  0  0  0  0  0  0  0  0  0  0  0
    0.7011   -9.8417    4.8297 C   0  0  0  0  0  0  0  0  0  0  0  0
   -8.3147  -11.5359   11.2685 C   0  0  0  0  0  0  0  0  0  0  0  0
   -4.7307   -5.7815    7.6320 C   0  0  0  0  0  0  0  0  0  0  0  0
   -2.2272   -5.9820    9.0025 C   0  0  0  0  0  0  0  0  0  0  0  0
   -0.3243  -10.9759    7.4806 C   0  0  0  0  0  0  0  0  0  0  0  0
    2.0827   -6.9101    5.3020 C   0  0  0  0  0  0  0  0  0  0  0  0
    1.4719   -8.2132    7.1659 C   0  0  0  0  0  0  0  0  0  0  0  0
   -0.1320   -8.0310    3.3375 O   0  0  0  0  0  0  0  0  0  0  0  0
   -3.4998   -9.2041   10.3612 C   0  0  0  0  0  0  0  0  0  0  0  0
   -2.5557  -10.1870    9.8346 O   0  0  0  0  0  0  0  0  0  0  0  0
   -6.4824  -13.0452   10.6269 C   0  0  0  0  0  0  0  0  0  0  0  0
  1 24  1  6
  2  1  1  0
  2 25  1  1
  3  5  1  0
  3  6  1  0
  3 26  1  1
  4  1  1  0
  5  2  1  0
  5 15  1  1
  6 16  1  1
  7  4  1  0
  7 10  1  0
  8  6  1  0
  7  9  1  1
  9 17  1  1
 10 20  1  0
 10 30  1  1
 11  2  1  0
 12  1  1  0
  4 13  1  6
 14  3  1  0
 15 13  1  0
 16 11  1  0
 18  9  1  0
 19  8  1  0
 19 29  1  6
 20 12  1  0
 21 10  1  0
 21 18  1  0
 22 14  1  0
 22 19  1  0
 23 17  2  0
 27  8  1  0
 28  8  1  0
 31 30  1  0
 32 17  1  0
M  END
>  <DRUGBANK_ID>  (1) 
DB16890

>  <COMMON_NAME>  (1) 
Betulin

>  <CAS_NUMBER>  (1) 
473-98-3

>  <UNII>  (1) 
6W70HN7X7O

>  <SYNONYMS>  (1) 
Betuline; Betulinic alcohol; Betulinol

$$$$
