Malic acid.mol
     RDKit          3D

  9  8  0  0  0  0  0  0  0  0999 V2000
    1.0159    0.0177   -0.1645 C   0  0  0  0  0  0  0  0  0  0  0  0
    0.2994    1.1205    0.6332 C   0  0  0  0  0  0  0  0  0  0  0  0
   -0.5440    1.9083   -0.2108 O   0  0  0  0  0  0  0  0  0  0  0  0
   -0.5691    0.4965    1.7183 C   0  0  0  0  0  0  0  0  0  0  0  0
    0.2576   -0.2053    2.7548 C   0  0  0  0  0  0  0  0  0  0  0  0
    0.4382   -0.8458   -0.8099 O   0  0  0  0  0  0  0  0  0  0  0  0
    2.3689    0.0943   -0.1278 O   0  0  0  0  0  0  0  0  0  0  0  0
    0.3123    0.0784    3.9415 O   0  0  0  0  0  0  0  0  0  0  0  0
    0.9816   -1.2212    2.2590 O   0  0  0  0  0  0  0  0  0  0  0  0
  1  2  1  0
  1  6  2  0
  1  7  1  0
  2  3  1  0
  2  4  1  0
  4  5  1  0
  5  8  2  0
  5  9  1  0
M  END
>  <DRUGBANK_ID>  (1) 
DB12751

>  <COMMON_NAME>  (1) 
Malic acid

>  <CAS_NUMBER>  (1) 
6915-15-7

>  <UNII>  (1) 
817L1N4CKP

>  <SYNONYMS>  (1) 
Malic acid

$$$$
