
     RDKit          3D

 19 20  0  0  0  0  0  0  0  0999 V2000
    1.1169   -0.0047    0.0156 C   0  0  0  0  0  0  0  0  0  0  0  0
   -2.1212   -3.1719   -4.2857 C   0  0  0  0  0  0  0  0  0  0  0  0
   -1.6839   -2.2557   -0.6240 C   0  0  0  0  0  0  0  0  0  0  0  0
    2.5198   -2.0115   -3.5110 C   0  0  0  0  0  0  0  0  0  0  0  0
    2.2514   -1.4699   -2.2386 C   0  0  0  0  0  0  0  0  0  0  0  0
   -0.1424   -5.7704   -3.7245 C   0  0  0  0  0  0  0  0  0  0  0  0
    1.5970   -4.8959   -2.2367 C   0  0  0  0  0  0  0  0  0  0  0  0
    0.9854   -6.1563   -4.6740 C   0  0  0  0  0  0  0  0  0  0  0  0
    2.6643   -5.2591   -3.2866 C   0  0  0  0  0  0  0  0  0  0  0  0
    1.9411   -3.8135   -5.2049 C   0  0  0  0  0  0  0  0  0  0  0  0
    1.5075   -2.6375   -4.2615 C   0  0  0  0  0  0  0  0  0  0  0  0
    0.9367   -1.5441   -1.7202 C   0  0  0  0  0  0  0  0  0  0  0  0
    0.1421   -2.4691   -3.8406 C   0  0  0  0  0  0  0  0  0  0  0  0
   -0.1080   -2.0408   -2.4911 C   0  0  0  0  0  0  0  0  0  0  0  0
    0.2544   -5.4776   -2.3419 N   0  0  0  0  0  0  0  0  0  0  0  0
    2.1325   -5.2195   -4.6592 N   0  0  0  0  0  0  0  0  0  0  0  0
    0.7782   -1.3265   -0.3675 O   0  0  0  0  0  0  0  0  0  0  0  0
   -0.8062   -2.8461   -4.7587 O   0  0  0  0  0  0  0  0  0  0  0  0
   -1.3681   -2.3336   -2.0018 O   0  0  0  0  0  0  0  0  0  0  0  0
  5  4  2  0
  8  6  1  0
  9  7  1  0
 11  4  1  0
 11 10  1  0
 12  5  1  0
 13 11  2  0
 14 12  2  0
 14 13  1  0
 15  6  1  0
 15  7  1  0
 16  8  1  0
 16  9  1  0
 16 10  1  0
 17  1  1  0
 17 12  1  0
 18  2  1  0
 18 13  1  0
 19  3  1  0
 19 14  1  0
M  END
>  <DRUGBANK_ID>  (1) 
DB09069

>  <COMMON_NAME>  (1) 
Trimetazidine

>  <CAS_NUMBER>  (1) 
5011-34-7

>  <UNII>  (1) 
N9A0A0R9S8

>  <SYNONYMS>  (1) 
1-[2,3,4-trimethoxybenzyl] piperazine dihydrochloride; Trimetazidina; Trimetazidine

$$$$
