D5G
     RDKit          3D

 24 25  0  0  0  0  0  0  0  0999 V2000
    1.5502   -0.4160   -0.1009 C   0  0  0  0  0  0  0  0  0  0  0  0
    0.6876   -1.5548   -0.1053 C   0  0  0  0  0  0  0  0  0  0  0  0
   -0.7066   -1.4238   -0.1079 C   0  0  0  0  0  0  0  0  0  0  0  0
   -1.2007   -0.1919    0.1628 C   0  0  0  0  0  0  0  0  0  0  0  0
   -0.2453    0.7159    0.5946 C   0  0  0  0  0  0  0  0  0  0  0  0
    1.0086    0.8316    0.0690 C   0  0  0  0  0  0  0  0  0  0  0  0
    1.6675    2.0979   -0.1490 N   0  0  0  0  0  0  0  0  0  0  0  0
    1.2621    3.4151   -0.2528 C   0  0  0  0  0  0  0  0  0  0  0  0
    2.4023    4.6083   -0.5725 S   0  0  0  0  0  0  0  0  0  0  0  0
   -0.0137    3.8694   -0.1580 N   0  0  0  0  0  0  0  0  0  0  0  0
   -1.2336    3.0937   -0.2607 C   0  0  1  0  0  0  0  0  0  0  0  0
   -1.8727    2.9513    1.2230 C   0  0  0  0  0  0  0  0  0  0  0  0
   -2.9028    3.9870    1.5635 C   0  0  0  0  0  0  0  0  0  0  0  0
   -4.1374    3.5586    0.7776 C   0  0  0  0  0  0  0  0  0  0  0  0
   -3.4271    4.2443    2.9501 C   0  0  0  0  0  0  0  0  0  0  0  0
   -2.1509    2.9967   -1.5249 C   0  0  0  0  0  0  0  0  0  0  0  0
   -2.4043    1.8840   -2.0542 O   0  0  0  0  0  0  0  0  0  0  0  0
   -2.8586    4.0599   -1.9873 N   0  0  0  0  0  0  0  0  0  0  0  0
   -2.9361    5.2853   -1.2549 C   0  0  2  0  0  0  0  0  0  0  0  0
   -4.2576    6.0354   -1.1077 C   0  0  0  0  0  0  0  0  0  0  0  0
   -3.8975    7.4138   -0.9868 O   0  0  0  0  0  0  0  0  0  0  0  0
   -1.9262    6.3056   -1.6148 C   0  0  0  0  0  0  0  0  0  0  0  0
   -2.4825    7.4671   -0.8304 C   0  0  1  0  0  0  0  0  0  0  0  0
   -2.0063    8.6549   -1.3844 O   0  0  0  0  0  0  0  0  0  0  0  0
  1  2  2  0
  1  6  1  0
  2  3  1  0
  3  4  2  0
  4  5  1  0
  5  6  2  0
  6  7  1  0
  7  8  1  0
  8  9  2  0
  8 10  1  0
 11 10  1  0
 11 12  1  1
 11 16  1  0
 12 13  1  0
 13 14  1  0
 13 15  1  0
 16 17  2  0
 16 18  1  0
 19 18  1  6
 19 20  1  0
 19 22  1  0
 20 21  1  0
 21 23  1  0
 22 23  1  0
 23 24  1  6
M  END
>  <DRUGBANK_ID>  (1) 
DB07627

>  <COMMON_NAME>  (1) 
(2S)-4-METHYL-2-(3-PHENYLTHIOUREIDO)-N-((3S)-TETRAHYDRO-2-HYDROXY-3-FURANYL)PENTANAMIDE

$$$$
