HST
     RDKit          3D

 20 20  0  0  0  0  0  0  0  0999 V2000
    1.1054    1.1132   -0.0666 N   0  0  0  0  0  0  0  0  0  0  0  0
   -0.1327    1.6600   -0.0949 N   0  0  0  0  0  0  0  0  0  0  0  0
   -1.0022    0.6870   -0.1029 N   0  0  0  0  0  0  0  0  0  0  0  0
    1.1296   -0.2389   -0.0611 C   0  0  0  0  0  0  0  0  0  0  0  0
   -0.2501   -0.3891   -0.0117 C   0  0  0  0  0  0  0  0  0  0  0  0
   -0.8791   -1.5896    0.1865 C   0  0  0  0  0  0  0  0  0  0  0  0
   -1.7629   -1.8503    0.9164 O   0  0  0  0  0  0  0  0  0  0  0  0
    0.0682   -2.2625   -0.4579 O   0  0  0  0  0  0  0  0  0  0  0  0
    2.6503   -1.2077    0.0964 S   0  0  0  0  0  0  0  0  0  0  0  0
   -1.8593   -5.6817    1.3195 C   0  0  0  0  0  0  0  0  0  0  0  0
   -1.1701   -5.5327    0.0142 C   0  0  0  0  0  0  0  0  0  0  0  0
   -1.0200   -4.0987    0.0606 C   0  0  0  0  0  0  0  0  0  0  0  0
    0.0737   -3.6000    1.5134 C   0  0  0  0  0  0  0  0  0  0  0  0
    1.6387   -3.8611    1.3155 C   0  0  0  0  0  0  0  0  0  0  0  0
    2.4053   -3.1761   -0.0135 C   0  0  0  0  0  0  0  0  0  0  0  0
    1.8366   -3.6134   -1.4581 C   0  0  0  0  0  0  0  0  0  0  0  0
    2.5764   -3.2188   -2.6982 C   0  0  0  0  0  0  0  0  0  0  0  0
    3.8205   -4.0425   -2.7294 C   0  0  0  0  0  0  0  0  0  0  0  0
    3.4863   -5.5428   -2.6912 C   0  0  0  0  0  0  0  0  0  0  0  0
    2.5891   -5.9384   -3.8579 C   0  0  0  0  0  0  0  0  0  0  0  0
  1  2  1  0
  1  4  1  0
  2  3  2  0
  3  5  1  0
  4  5  2  0
  4  9  1  0
  5  6  1  0
  6  7  2  0
  6  8  1  0
  9 15  1  0
 10 11  1  0
 11 12  1  0
 12 13  1  0
 13 14  1  0
 14 15  1  0
 15 16  1  0
 16 17  1  0
 17 18  1  0
 18 19  1  0
 19 20  1  0
M  END
>  <DRUGBANK_ID>  (1) 
DB04374

>  <SECONDARY_ACCESSION_NUMBERS>  (1) 
EXPT01787

>  <COMMON_NAME>  (1) 
4-Carboxy-5-(1-Pentyl)Hexylsulfanyl-1,2,3-Triazole

>  <UNII>  (1) 
QUK2CK0JPA

$$$$
