POF
     RDKit          3D

 33 37  0  0  0  0  0  0  0  0999 V2000
    1.0787    0.1577   -0.0176 O   0  0  0  0  0  0  0  0  0  0  0  0
    3.1103   -0.4020    1.4100 O   0  0  0  0  0  0  0  0  0  0  0  0
    3.5576    2.1876   12.3813 O   0  0  0  0  0  0  0  0  0  0  0  0
    3.1994   -0.6965   -1.0605 O   0  0  0  0  0  0  0  0  0  0  0  0
    2.7167    0.1492    2.6025 C   0  0  0  0  0  0  0  0  0  0  0  0
    3.6745    0.2270    3.6196 C   0  0  0  0  0  0  0  0  0  0  0  0
    3.0897    1.6412   -0.2101 N   0  0  0  0  0  0  0  0  0  0  0  0
    3.3447    0.7386    4.8930 C   0  0  0  0  0  0  0  0  0  0  0  0
    2.0207    1.1336    5.1633 C   0  0  0  0  0  0  0  0  0  0  0  0
    1.0828    1.0609    4.1258 C   0  0  0  0  0  0  0  0  0  0  0  0
    2.5236    0.0683   -0.0416 S   0  0  0  0  0  0  0  0  0  0  0  0
    1.4204    0.5605    2.8712 C   0  0  0  0  0  0  0  0  0  0  0  0
    4.4156    0.7964    5.9560 C   0  0  0  0  0  0  0  0  0  0  0  0
    4.0350    1.6491    7.1659 C   0  0  0  0  0  0  0  0  0  0  0  0
    2.6225    1.2852    7.6336 C   0  0  2  0  0  0  0  0  0  0  0  0
    1.6210    1.6966    6.5212 C   0  0  2  0  0  0  0  0  0  0  0  0
    2.2328    1.9319    8.9845 C   0  0  1  0  0  0  0  0  0  0  0  0
    0.8151    1.4996    9.4027 C   0  0  1  0  0  0  0  0  0  0  0  0
   -0.1790    1.9175    8.3007 C   0  0  0  0  0  0  0  0  0  0  0  0
    0.1842    1.3338    6.9410 C   0  0  0  0  0  0  0  0  0  0  0  0
    0.6599   -0.0004    9.7199 C   0  0  0  0  0  0  0  0  0  0  0  0
    3.2011    1.5973   10.1131 C   0  0  0  0  0  0  0  0  0  0  0  0
    2.7581    2.1636   11.4444 C   0  0  0  0  0  0  0  0  0  0  0  0
    1.4362    2.5787   11.5526 N   0  0  0  0  0  0  0  0  0  0  0  0
    0.4166    2.1700   10.6998 C   0  0  0  0  0  0  0  0  0  0  0  0
   -0.7756    2.1800   11.0152 O   0  0  0  0  0  0  0  0  0  0  0  0
    1.0386    3.2814   12.7734 C   0  0  0  0  0  0  0  0  0  0  0  0
    0.5611    4.6861   12.4760 C   0  0  0  0  0  0  0  0  0  0  0  0
   -0.6012    4.9565   11.7411 C   0  0  0  0  0  0  0  0  0  0  0  0
   -0.9499    6.2520   11.4005 C   0  0  0  0  0  0  0  0  0  0  0  0
   -0.1557    7.2698   11.8770 C   0  0  0  0  0  0  0  0  0  0  0  0
    0.9502    7.0703   12.6280 N   0  0  0  0  0  0  0  0  0  0  0  0
    1.2884    5.7881   12.9023 C   0  0  0  0  0  0  0  0  0  0  0  0
  1 11  2  0
  2  5  1  0
  2 11  1  0
  3 23  2  0
  4 11  2  0
  5  6  2  0
  5 12  1  0
  6  8  1  0
  7 11  1  0
  8  9  2  0
  8 13  1  0
  9 10  1  0
  9 16  1  0
 10 12  2  0
 13 14  1  0
 15 14  1  6
 15 16  1  0
 15 17  1  0
 16 20  1  1
 17 18  1  0
 17 22  1  1
 18 19  1  0
 18 21  1  1
 18 25  1  0
 19 20  1  0
 22 23  1  0
 23 24  1  0
 24 25  1  0
 24 27  1  0
 25 26  2  0
 27 28  1  0
 28 29  2  0
 28 33  1  0
 29 30  1  0
 30 31  2  0
 31 32  1  0
 32 33  2  0
M  END
>  <DRUGBANK_ID>  (1) 
DB08418

>  <COMMON_NAME>  (1) 
(4aS,4bR,10bS,12aS)-12a-methyl-1,3-dioxo-2-(pyridin-3-ylmethyl)-1,2,3,4,4a,4b,5,6,10b,11,12,12a-dodecahydronaphtho[2,1-f]isoquinolin-8-yl sulfamate

$$$$
