
     RDKit          3D

 16 16  0  0  0  0  0  0  0  0999 V2000
    0.9792    0.0806   -0.0663 C   0  0  0  0  0  0  0  0  0  0  0  0
   -0.7447   -0.3962    1.6573 C   0  0  0  0  0  0  0  0  0  0  0  0
    2.1942    3.2051    0.6985 C   0  0  0  0  0  0  0  0  0  0  0  0
    1.0379    3.8670    2.7808 C   0  0  0  0  0  0  0  0  0  0  0  0
    5.8027   -0.2891    2.0367 C   0  0  0  0  0  0  0  0  0  0  0  0
    1.5439    0.3675    2.3491 C   0  0  0  0  0  0  0  0  0  0  0  0
    3.2218    1.7562    3.5894 C   0  0  0  0  0  0  0  0  0  0  0  0
    2.0940    1.5561    2.6350 C   0  0  0  0  0  0  0  0  0  0  0  0
    0.4591    0.5016    1.3225 C   0  0  0  0  0  0  0  0  0  0  0  0
    1.3710    2.6610    1.8831 C   0  0  0  0  0  0  0  0  0  0  0  0
    0.1455    1.9776    1.2983 N   0  0  0  0  0  0  0  0  0  0  0  0
   -0.9369    2.1722    2.2640 O   0  0  0  0  0  0  0  0  0  0  0  0
    4.2307    0.9748    0.4387 O   0  0  0  0  0  0  0  0  0  0  0  0
    6.5442    1.8619    0.7886 O   0  0  0  0  0  0  0  0  0  0  0  0
    4.7106    2.4905    2.8951 S   0  0  0  0  0  0  0  0  0  0  0  0
    5.3443    1.2555    1.3224 S   0  0  0  0  0  0  0  0  0  0  0  0
  8  6  2  0
  8  7  1  0
  9  1  1  0
  9  2  1  0
  9  6  1  0
 10  3  1  0
 10  4  1  0
 10  8  1  0
 11  9  1  0
 11 10  1  0
 12 11  1  0
 15  7  1  0
 16  5  1  0
 16 13  2  0
 16 14  2  0
 16 15  1  0
M  END
>  <DRUGBANK_ID>  (1) 
DB08217

>  <COMMON_NAME>  (1) 
S-[(1-Hydroxy-2,2,5,5-tetramethyl-2,5-dihydro-1H-pyrrol-3-yl)methyl] methanesulfonothioate

$$$$
