
     RDKit          3D

 13 13  0  0  1  0  0  0  0  0999 V2000
    0.9617    0.0170   -0.1635 C   0  0  0  0  0  0  0  0  0  0  0  0
    0.4775   -1.3345    0.3607 C   0  0  1  0  0  0  0  0  0  0  0  0
    1.0330   -1.7208    1.7783 C   0  0  1  0  0  0  0  0  0  0  0  0
    0.6363   -0.7867    2.9177 C   0  0  0  0  0  0  0  0  0  0  0  0
   -0.0476   -1.2349    4.0557 C   0  0  0  0  0  0  0  0  0  0  0  0
   -0.3938   -0.3367    5.0614 C   0  0  0  0  0  0  0  0  0  0  0  0
   -0.0992    1.0201    4.9456 C   0  0  0  0  0  0  0  0  0  0  0  0
    0.5762    1.4889    3.8383 C   0  0  0  0  0  0  0  0  0  0  0  0
    0.9906    0.5779    2.8674 C   0  0  0  0  0  0  0  0  0  0  0  0
   -0.4600    1.8558    5.9641 O   0  0  0  0  0  0  0  0  0  0  0  0
   -1.0170   -0.8090    6.1791 O   0  0  0  0  0  0  0  0  0  0  0  0
    0.6103   -3.0684    2.0484 O   0  0  0  0  0  0  0  0  0  0  0  0
   -0.9974   -1.3387    0.3016 N   0  0  0  0  0  0  0  0  0  0  0  0
  2  1  1  1
  2  3  1  0
  2 13  1  0
  3  4  1  0
  3 12  1  1
  4  5  2  0
  4  9  1  0
  5  6  1  0
  6  7  2  0
  6 11  1  0
  7  8  1  0
  7 10  1  0
  8  9  2  0
M  END
>  <DRUGBANK_ID>  (1) 
DB06707

>  <COMMON_NAME>  (1) 
Levonordefrin

>  <CAS_NUMBER>  (1) 
829-74-3

>  <UNII>  (1) 
V008L6478D

>  <SYNONYMS>  (1) 
(-)-cobefrin; alpha-Methylnoradrenaline; Corbadrina; Corbadrine; Corbadrinum; L-alpha-methylnoradrenaline; L-Nordefrin; Levonordefrin; Neo-cobefrin

$$$$
