
     RDKit          3D

 25 28  0  0  1  0  0  0  0  0999 V2000
    2.2803   -0.1834   -0.0855 C   0  0  0  0  0  0  0  0  0  0  0  0
    1.5734    0.8027   -0.5531 N   0  0  0  0  0  0  0  0  0  0  0  0
    0.2810    0.5157   -0.2089 C   0  0  0  0  0  0  0  0  0  0  0  0
   -0.8786    1.3340   -0.1474 C   0  0  0  0  0  0  0  0  0  0  0  0
   -2.0649    0.6570   -0.0128 N   0  0  0  0  0  0  0  0  0  0  0  0
   -2.0506   -0.6954    0.1189 C   0  0  0  0  0  0  0  0  0  0  0  0
   -0.9694   -1.4892    0.3009 N   0  0  0  0  0  0  0  0  0  0  0  0
    0.1875   -0.8354    0.1268 C   0  0  0  0  0  0  0  0  0  0  0  0
    1.5041   -1.2839    0.2245 N   0  0  0  0  0  0  0  0  0  0  0  0
    2.1708   -2.5837    0.0505 C   0  0  2  0  0  0  0  0  0  0  0  0
    1.7472   -3.3113   -1.2149 C   0  0  0  0  0  0  0  0  0  0  0  0
    1.5188   -4.7858   -0.8591 C   0  0  1  0  0  0  0  0  0  0  0  0
    2.1603   -4.8754    0.4975 C   0  0  0  0  0  0  0  0  0  0  0  0
    2.3679   -3.6689    1.0536 C   0  0  0  0  0  0  0  0  0  0  0  0
    0.0447   -5.2363   -0.8177 C   0  0  0  0  0  0  0  0  0  0  0  0
   -0.5681   -5.1748   -2.1300 O   0  0  0  0  0  0  0  0  0  0  0  0
   -1.0846   -3.9780   -2.5305 C   0  0  0  0  0  0  0  0  0  0  0  0
   -1.1555   -2.9760   -1.8655 O   0  0  0  0  0  0  0  0  0  0  0  0
   -1.6082   -3.9757   -3.9505 C   0  0  0  0  0  0  0  0  0  0  0  0
   -0.8611   -4.6833   -4.9150 O   0  0  0  0  0  0  0  0  0  0  0  0
   -3.2598   -1.3487    0.1004 N   0  0  0  0  0  0  0  0  0  0  0  0
   -0.9200    2.7634   -0.2356 N   0  0  0  0  0  0  0  0  0  0  0  0
    0.1900    3.7307    0.0162 C   0  0  0  0  0  0  0  0  0  0  0  0
    1.3716    3.8660   -0.9184 C   0  0  0  0  0  0  0  0  0  0  0  0
    1.5560    3.3167    0.4718 C   0  0  0  0  0  0  0  0  0  0  0  0
  1  2  2  0
  1  9  1  0
  2  3  1  0
  3  4  2  0
  3  8  1  0
  4  5  1  0
  4 22  1  0
  5  6  2  0
  6  7  1  0
  6 21  1  0
  7  8  2  0
  8  9  1  0
 10  9  1  1
 10 11  1  0
 10 14  1  0
 11 12  1  0
 12 13  1  0
 12 15  1  1
 13 14  2  0
 15 16  1  0
 16 17  1  0
 17 18  2  0
 17 19  1  0
 19 20  1  0
 22 23  1  0
 23 24  1  0
 23 25  1  0
 24 25  1  0
M  END
>  <DRUGBANK_ID>  (1) 
DB12187

>  <COMMON_NAME>  (1) 
Abacavir hydroxyacetate

>  <CAS_NUMBER>  (1) 
1446418-48-9

>  <UNII>  (1) 
B3C7MG354B

$$$$
