
     RDKit          3D

 39 43  0  0  1  0  0  0  0  0999 V2000
    0.9412   -4.0354    4.5651 C   0  0  0  0  0  0  0  0  0  0  0  0
    1.6238   -5.1709    3.8717 C   0  0  0  0  0  0  0  0  0  0  0  0
    2.7545   -5.0108    3.2579 O   0  0  0  0  0  0  0  0  0  0  0  0
    0.9187   -6.3241    3.8445 O   0  0  0  0  0  0  0  0  0  0  0  0
    1.3826   -7.4399    3.0500 C   0  0  0  0  0  0  0  0  0  0  0  0
    1.2490   -7.7127    1.4107 C   0  0  0  0  0  0  0  0  0  0  0  0
    2.3224   -7.8682    0.8027 O   0  0  0  0  0  0  0  0  0  0  0  0
   -0.2691   -7.6442    0.5727 C   0  0  2  0  0  0  0  0  0  0  0  0
   -1.4651   -8.5770   -0.3905 C   0  0  2  0  0  0  0  0  0  0  0  0
   -2.3578   -7.6382   -1.2103 C   0  0  0  0  0  0  0  0  0  0  0  0
   -1.1823   -6.5616   -1.3510 C   0  0  1  0  0  0  0  0  0  0  0  0
   -0.3707   -6.2472    0.0722 C   0  0  2  0  0  0  0  0  0  0  0  0
    0.9781   -5.6303   -0.3048 C   0  0  0  0  0  0  0  0  0  0  0  0
    0.7068   -4.3389   -1.1475 C   0  0  1  0  0  0  0  0  0  0  0  0
    1.0372   -5.0074   -2.4313 C   0  0  1  0  0  0  0  0  0  0  0  0
   -0.2350   -6.0090   -2.5222 C   0  0  1  0  0  0  0  0  0  0  0  0
    0.4220   -7.1582   -3.2453 C   0  0  0  0  0  0  0  0  0  0  0  0
   -0.2849   -6.6545   -4.4399 C   0  0  0  0  0  0  0  0  0  0  0  0
    0.4613   -5.5701   -4.8909 C   0  0  0  0  0  0  0  0  0  0  0  0
    1.3241   -4.5009   -3.8431 C   0  0  2  0  0  0  0  0  0  0  0  0
    3.1116   -4.4740   -4.2220 C   0  0  0  0  0  0  0  0  0  0  0  0
    3.5933   -5.0214   -5.6478 C   0  0  0  0  0  0  0  0  0  0  0  0
    2.3006   -4.9992   -6.2967 C   0  0  0  0  0  0  0  0  0  0  0  0
    1.5806   -5.9641   -5.6913 C   0  0  0  0  0  0  0  0  0  0  0  0
    1.9319   -3.7793   -6.7548 O   0  0  0  0  0  0  0  0  0  0  0  0
    2.9935   -3.1135   -7.4895 C   0  0  0  0  0  0  0  0  0  0  0  0
    2.4251   -2.8125   -8.8440 C   0  0  0  0  0  0  0  0  0  0  0  0
    0.9287   -1.8732   -8.6615 Cl  0  0  0  0  0  0  0  0  0  0  0  0
    0.7094   -3.1026   -3.8855 C   0  0  0  0  0  0  0  0  0  0  0  0
   -1.1994   -7.8449   -4.6797 C   0  0  0  0  0  0  0  0  0  0  0  0
   -0.8361   -9.0064   -4.4371 O   0  0  0  0  0  0  0  0  0  0  0  0
    2.2795   -5.5444   -2.1585 F   0  0  0  0  0  0  0  0  0  0  0  0
   -0.6461   -3.8393   -1.0964 O   0  0  0  0  0  0  0  0  0  0  0  0
   -0.5101   -5.2113    1.2760 C   0  0  0  0  0  0  0  0  0  0  0  0
   -2.2407   -9.3354    0.5131 O   0  0  0  0  0  0  0  0  0  0  0  0
   -1.2626   -9.2999    1.5104 C   0  0  0  0  0  0  0  0  0  0  0  0
   -1.0038   -7.8999    1.7289 O   0  0  0  0  0  0  0  0  0  0  0  0
   -1.7443   -9.6564    2.8498 C   0  0  0  0  0  0  0  0  0  0  0  0
   -0.0416  -10.1641    0.9575 C   0  0  0  0  0  0  0  0  0  0  0  0
  1  2  1  0
  2  3  2  0
  2  4  1  0
  4  5  1  0
  5  6  1  0
  6  7  2  0
  8  6  1  1
  8  9  1  0
  8 12  1  0
  8 37  1  0
  9 10  1  1
  9 35  1  0
 11 10  1  6
 11 12  1  0
 11 16  1  0
 12 13  1  0
 12 34  1  1
 13 14  1  0
 14 15  1  0
 14 33  1  6
 15 16  1  0
 15 20  1  0
 15 32  1  1
 16 17  1  1
 17 18  1  0
 18 19  2  0
 18 30  1  0
 19 20  1  0
 19 24  1  0
 20 21  1  0
 20 29  1  1
 21 22  1  0
 22 23  1  0
 23 24  2  0
 23 25  1  0
 25 26  1  0
 26 27  1  0
 27 28  1  0
 30 31  2  0
 35 36  1  0
 36 37  1  0
 36 38  1  0
 36 39  1  0
M  END
>  <DRUGBANK_ID>  (1) 
DB13664

>  <COMMON_NAME>  (1) 
Formocortal

>  <CAS_NUMBER>  (1) 
2825-60-7

>  <UNII>  (1) 
8E21R0Z4M5

>  <SYNONYMS>  (1) 
Formocortal

$$$$
