
     RDKit          3D

 43 50  0  0  1  0  0  0  0  0999 V2000
    1.6207   -1.8766   -0.0844 C   0  0  0  0  0  0  0  0  0  0  0  0
    2.7042   -1.0408   -0.0124 C   0  0  0  0  0  0  0  0  0  0  0  0
    2.5741    0.3465   -0.2268 C   0  0  0  0  0  0  0  0  0  0  0  0
    1.3643    0.8236   -0.7782 C   0  0  0  0  0  0  0  0  0  0  0  0
    0.8567    2.0815   -1.0076 N   0  0  0  0  0  0  0  0  0  0  0  0
   -0.5523    2.0117   -1.1548 C   0  0  0  0  0  0  0  0  0  0  0  0
   -0.9654    0.6774   -1.1651 C   0  0  0  0  0  0  0  0  0  0  0  0
    0.4012   -1.3034   -0.3399 C   0  0  0  0  0  0  0  0  0  0  0  0
    0.2713   -0.0179   -0.9008 C   0  0  0  0  0  0  0  0  0  0  0  0
   -2.3148   -0.1352   -1.0859 C   0  0  0  0  0  0  0  0  0  0  0  0
   -0.8330   -2.0575   -0.1666 C   0  0  2  0  0  0  0  0  0  0  0  0
   -2.1422   -1.7142   -0.7167 C   0  0  2  0  0  0  0  0  0  0  0  0
   -2.1901   -3.1721   -1.6416 N   0  0  0  0  0  0  0  0  0  0  0  0
   -3.0770   -3.9906   -0.8158 C   0  0  0  0  0  0  0  0  0  0  0  0
   -2.6357   -3.9072    0.7090 C   0  0  1  0  0  0  0  0  0  0  0  0
   -1.1294   -3.2887    0.8198 C   0  0  0  0  0  0  0  0  0  0  0  0
   -3.8662   -3.1236    1.4256 C   0  0  0  0  0  0  0  0  0  0  0  0
   -3.6608   -2.3590    2.6089 N   0  0  0  0  0  0  0  0  0  0  0  0
   -0.8042   -3.9885   -1.8683 C   0  0  0  0  0  0  0  0  0  0  0  0
   -4.9662   -3.1996    0.8681 O   0  0  0  0  0  0  0  0  0  0  0  0
   -4.4748   -0.9035    3.0983 C   0  0  2  0  0  0  0  0  0  0  0  0
   -4.2982    0.9698    3.5635 C   0  0  0  0  0  0  0  0  0  0  0  0
   -3.4194   -0.3656    2.4114 O   0  0  0  0  0  0  0  0  0  0  0  0
   -2.7555    0.2189    3.5435 C   0  0  2  0  0  0  0  0  0  0  0  0
   -2.9643    1.4520    3.2155 N   0  0  0  0  0  0  0  0  0  0  0  0
   -2.3355    1.5239    1.8422 C   0  0  2  0  0  0  0  0  0  0  0  0
   -0.9845    0.1573    1.7349 C   0  0  0  0  0  0  0  0  0  0  0  0
   -1.3857   -0.2547    3.5206 C   0  0  1  0  0  0  0  0  0  0  0  0
   -0.9563   -1.1053    2.7637 N   0  0  0  0  0  0  0  0  0  0  0  0
   -0.0834   -1.7672    4.2400 C   0  0  0  0  0  0  0  0  0  0  0  0
    0.1199   -0.2942    5.0782 C   0  0  0  0  0  0  0  0  0  0  0  0
   -0.0649    0.4229    3.8683 C   0  0  0  0  0  0  0  0  0  0  0  0
   -3.1156   -0.2596    4.9044 O   0  0  0  0  0  0  0  0  0  0  0  0
   -4.6548    1.5750    4.6013 O   0  0  0  0  0  0  0  0  0  0  0  0
    0.1437    0.4432    1.4305 O   0  0  0  0  0  0  0  0  0  0  0  0
   -2.1828    3.0170    1.3314 C   0  0  0  0  0  0  0  0  0  0  0  0
   -0.9363    3.7067    1.8057 C   0  0  0  0  0  0  0  0  0  0  0  0
    0.3134    3.1499    1.6129 C   0  0  0  0  0  0  0  0  0  0  0  0
    1.5248    3.5566    2.1215 C   0  0  0  0  0  0  0  0  0  0  0  0
    1.4487    4.4757    3.1167 C   0  0  0  0  0  0  0  0  0  0  0  0
    0.1965    5.0383    3.4054 C   0  0  0  0  0  0  0  0  0  0  0  0
   -0.9413    4.8102    2.6124 C   0  0  0  0  0  0  0  0  0  0  0  0
   -5.7695   -1.1579    2.3999 C   0  0  0  0  0  0  0  0  0  0  0  0
  1  2  2  0
  2  3  1  0
  3  4  2  0
  4  5  1  0
  5  6  1  0
  6  7  2  0
  7 10  1  0
  7  9  1  0
  8  1  1  0
  8  9  2  0
  8 11  1  0
  9  4  1  0
 12 10  1  6
 11 12  1  0
 11 16  1  1
 12 13  1  0
 13 14  1  0
 13 19  1  0
 14 15  1  0
 15 16  1  0
 15 17  1  1
 17 18  1  0
 17 20  2  0
 21 22  1  0
 21 43  1  1
 21 18  1  0
 22 25  1  0
 22 34  2  0
 23 21  1  0
 24 23  1  0
 24 25  1  0
 24 28  1  0
 24 33  1  1
 25 26  1  0
 26 27  1  0
 26 36  1  1
 27 29  1  0
 27 35  2  0
 28 29  1  0
 29 30  1  0
 30 31  1  0
 31 32  1  0
 28 32  1  6
 36 37  1  0
 37 38  2  0
 38 39  1  0
 39 40  2  0
 40 41  1  0
 41 42  2  0
 42 37  1  0
M  END
>  <DRUGBANK_ID>  (1) 
DB00320

>  <SECONDARY_ACCESSION_NUMBERS>  (1) 
APRD00476; DB05743

>  <COMMON_NAME>  (1) 
Dihydroergotamine

>  <CAS_NUMBER>  (1) 
511-12-6

>  <UNII>  (1) 
436O5HM03C

>  <SYNONYMS>  (1) 
(2R,4R,7R)-N-[(1S,2S,4R,7S)-7-benzyl-2-hydroxy-4-methyl-5,8-dioxo-3-oxa-6,9-diazatricyclo[7.3.0.02,6]dodecan-4-yl]-6-methyl-6,11-diazatetracyclo[7.6.1.02,7.012,16]hexadeca-1(16),9,12,14-tetraene-4-carboxamide; 5'-benzyl-12'-hydroxy-2'-methyl-3',6',18-trioxo-9,10-dihydroergotaman; 9,10-dihydro-12'-hydroxy-2'-methyl-5'-(phenylmethyl)ergotoman-3',6',18-trione; 9,10-dihydroergotamine; Dihidroergotamina; Dihydroergotamin; Dihydroergotamine; Dihydroergotaminum; Diidroergotamina

$$$$
