449
     RDKit          3D

 25 25  0  0  1  0  0  0  0  0999 V2000
    0.9798   -0.2229    0.1433 O   0  0  0  0  0  0  0  0  0  0  0  0
    2.2857    2.4876   -0.1260 O   0  0  0  0  0  0  0  0  0  0  0  0
    6.1090   -2.7117   -0.8864 O   0  0  0  0  0  0  0  0  0  0  0  0
    0.7445   -2.5212   -0.1055 O   0  0  0  0  0  0  0  0  0  0  0  0
    0.2203    1.6239   -0.7345 O   0  0  0  0  0  0  0  0  0  0  0  0
    5.0342   -2.2422    2.6943 N   0  0  0  0  0  0  0  0  0  0  0  0
   -1.2545   -1.1753   -0.0303 C   0  0  0  0  0  0  0  0  0  0  0  0
    0.3363    3.9489   -0.6290 C   0  0  0  0  0  0  0  0  0  0  0  0
    4.5402   -1.1311   -0.0278 C   0  0  0  0  0  0  0  0  0  0  0  0
    5.2327   -2.4550    0.2001 C   0  0  0  0  0  0  0  0  0  0  0  0
   -1.7287   -0.4116    1.2077 C   0  0  0  0  0  0  0  0  0  0  0  0
   -1.7531   -0.4977   -1.3125 C   0  0  0  0  0  0  0  0  0  0  0  0
   -1.8420   -2.5987   -0.0036 C   0  0  0  0  0  0  0  0  0  0  0  0
    0.2558   -1.3991   -0.0113 C   0  0  0  0  0  0  0  0  0  0  0  0
    0.5670    4.8028    0.6051 C   0  0  0  0  0  0  0  0  0  0  0  0
    0.8716    4.5897   -1.9051 C   0  0  0  0  0  0  0  0  0  0  0  0
   -1.1969    3.7227   -0.7992 C   0  0  0  0  0  0  0  0  0  0  0  0
    0.9445    2.5774   -0.4767 C   0  0  0  0  0  0  0  0  0  0  0  0
    2.3750   -0.0456   -0.0260 C   0  0  0  0  0  0  0  0  0  0  0  0
    2.9744    1.2261   -0.0510 C   0  0  0  0  0  0  0  0  0  0  0  0
    3.1605   -1.1852   -0.0634 C   0  0  0  0  0  0  0  0  0  0  0  0
    5.9554   -2.4621    1.5607 C   0  0  0  0  0  0  0  0  0  0  0  0
    5.1602    0.1193   -0.0244 C   0  0  0  0  0  0  0  0  0  0  0  0
    4.3827    1.2954   -0.0072 C   0  0  0  0  0  0  0  0  0  0  0  0
    5.7725   -2.1873    3.9438 C   0  0  0  0  0  0  0  0  0  0  0  0
  1 14  1  0
  1 19  1  0
  2 18  1  0
  2 20  1  0
  3 10  1  0
  4 14  2  0
  5 18  2  0
  6 22  1  0
  6 25  1  0
  7 11  1  0
  7 12  1  0
  7 13  1  0
  7 14  1  0
  8 15  1  0
  8 16  1  0
  8 17  1  0
  8 18  1  0
  9 10  1  0
  9 21  2  0
  9 23  1  0
 10 22  1  0
 19 20  2  0
 19 21  1  0
 20 24  1  0
 23 24  2  0
M  END
>  <DRUGBANK_ID>  (1) 
DB00449

>  <SECONDARY_ACCESSION_NUMBERS>  (1) 
APRD00930

>  <COMMON_NAME>  (1) 
Dipivefrin

>  <CAS_NUMBER>  (1) 
52365-63-6

>  <UNII>  (1) 
8Q1PVL543G

>  <SYNONYMS>  (1) 
(±)-4-[1-hydroxy-2-(methylamino)ethyl]-o-phenylene divavalate; 1-(3',4'-dipivaloyloxyphenyl)-2-methylamino-1-ethanol; 4-[1-hydroxy-2-(methylamino)ethyl]-o-phenylene divavalate; Dipivalyl epinephrine; Dipivefrin; Dipivefrina; Dipivefrine; Dipivéfrine; Dipivefrinum

$$$$
