LZC
     RDKit          3D

 23 25  0  0  0  0  0  0  0  0999 V2000
    0.9027   -0.0545    0.0045 C   0  0  0  0  0  0  0  0  0  0  0  0
    0.4130   -1.4725    0.2840 C   0  0  0  0  0  0  0  0  0  0  0  0
    0.9039   -1.9353    1.6478 C   0  0  0  0  0  0  0  0  0  0  0  0
   -1.0439   -1.4974    0.2356 N   0  0  0  0  0  0  0  0  0  0  0  0
   -1.8188   -2.2519   -0.6459 C   0  0  0  0  0  0  0  0  0  0  0  0
   -2.9338   -1.7609   -1.2205 C   0  0  0  0  0  0  0  0  0  0  0  0
   -3.7656   -2.6694   -2.0852 C   0  0  0  0  0  0  0  0  0  0  0  0
   -4.9475   -2.1849   -2.6133 N   0  0  0  0  0  0  0  0  0  0  0  0
   -6.2312   -2.8269   -2.3418 C   0  0  1  0  0  0  0  0  0  0  0  0
   -6.4631   -2.8229   -0.8222 C   0  0  0  0  0  0  0  0  0  0  0  0
   -7.8002   -3.4393   -0.4373 C   0  0  0  0  0  0  0  0  0  0  0  0
   -8.9610   -2.7427   -1.1448 C   0  0  2  0  0  0  0  0  0  0  0  0
  -10.2067   -3.4163   -0.7877 N   0  0  0  0  0  0  0  0  0  0  0  0
   -8.7483   -2.7598   -2.6623 C   0  0  0  0  0  0  0  0  0  0  0  0
   -7.4029   -2.1278   -3.0539 C   0  0  0  0  0  0  0  0  0  0  0  0
   -3.4475   -3.9224   -2.2982 N   0  0  0  0  0  0  0  0  0  0  0  0
   -2.2875   -4.3933   -1.7470 C   0  0  0  0  0  0  0  0  0  0  0  0
   -1.6765   -5.6265   -1.8053 C   0  0  0  0  0  0  0  0  0  0  0  0
   -2.1343   -6.7758   -2.5076 C   0  0  0  0  0  0  0  0  0  0  0  0
   -2.4666   -7.7389   -3.0578 N   0  0  0  0  0  0  0  0  0  0  0  0
   -0.5250   -5.5216   -1.0202 C   0  0  0  0  0  0  0  0  0  0  0  0
   -0.3878   -4.3150   -0.4773 N   0  0  0  0  0  0  0  0  0  0  0  0
   -1.4673   -3.5998   -0.9322 N   0  0  0  0  0  0  0  0  0  0  0  0
  1  2  1  0
  2  3  1  0
  2  4  1  0
  4  5  1  0
  5  6  2  0
  5 23  1  0
  6  7  1  0
  7  8  1  0
  7 16  2  0
  9  8  1  1
  9 10  1  0
  9 15  1  0
 10 11  1  0
 11 12  1  0
 12 13  1  6
 12 14  1  0
 14 15  1  0
 16 17  1  0
 17 18  2  0
 17 23  1  0
 18 19  1  0
 18 21  1  0
 19 20  3  0
 21 22  2  0
 22 23  1  0
M  END
>  <DRUGBANK_ID>  (1) 
DB08140

>  <COMMON_NAME>  (1) 
5-[(4-AMINOCYCLOHEXYL)AMINO]-7-(PROPAN-2-YLAMINO)PYRAZOLO[1,5-A]PYRIMIDINE-3-CARBONITRILE

$$$$
