
     RDKit          3D

  9  7  0  0  0  0  0  0  0  0999 V2000
    1.0701   -0.8276   -0.0102 C   0  0  0  0  0  0  0  0  0  0  0  0
    0.3218   -0.8934    1.1163 C   0  0  0  0  0  0  0  0  0  0  0  0
    2.5025   -0.2607    0.0774 C   0  0  0  0  0  0  0  0  0  0  0  0
   -1.1456   -0.4703    1.0796 C   0  0  0  0  0  0  0  0  0  0  0  0
    2.4645    0.7573   -0.6969 O   0  0  0  0  0  0  0  0  0  0  0  0
    3.0504   -0.3173    1.2186 O   0  0  0  0  0  0  0  0  0  0  0  0
   -1.8373   -0.7393    2.1007 O   0  0  0  0  0  0  0  0  0  0  0  0
   -1.2043    0.5409    0.2807 O   0  0  0  0  0  0  0  0  0  0  0  0
    0.5201    1.4701    0.1604 Fe  0  0  0  0  0 15  0  0  0  0  0  0
  2  1  2  0
  3  1  1  0
  4  2  1  0
  5  3  2  0
  6  3  1  0
  7  4  2  0
  8  4  1  0
M  CHG  3   6  -1   8  -1   9   2
M  END
>  <DRUGBANK_ID>  (1) 
DB14491

>  <SECONDARY_ACCESSION_NUMBERS>  (1) 
DBSALT000079

>  <COMMON_NAME>  (1) 
Ferrous fumarate

>  <CAS_NUMBER>  (1) 
141-01-5

>  <UNII>  (1) 
R5L488RY0Q

>  <SYNONYMS>  (1) 
Ferrous fumarate; Iron(2+) fumarate

$$$$
