311
     RDKit          3D

 16 17  0  0  0  0  0  0  0  0999 V2000
    0.9275    0.0567   -0.0619 S   0  0  0  0  0  0  0  0  0  0  0  0
    3.5951    1.4656   -0.0682 S   0  0  0  0  0  0  0  0  0  0  0  0
    8.7214    0.4657   -0.1963 O   0  0  0  0  0  0  0  0  0  0  0  0
    0.5211   -0.4891   -1.3356 O   0  0  0  0  0  0  0  0  0  0  0  0
    0.4844   -0.5152    1.1933 O   0  0  0  0  0  0  0  0  0  0  0  0
    3.4043   -1.1058   -0.0531 N   0  0  0  0  0  0  0  0  0  0  0  0
    0.3696    1.6526   -0.0799 N   0  0  0  0  0  0  0  0  0  0  0  0
    5.0719    0.5600   -0.1130 C   0  0  0  0  0  0  0  0  0  0  0  0
    4.7415   -0.7987   -0.1035 C   0  0  0  0  0  0  0  0  0  0  0  0
    2.7040    0.0054   -0.0460 C   0  0  0  0  0  0  0  0  0  0  0  0
    6.4179    0.9888   -0.1543 C   0  0  0  0  0  0  0  0  0  0  0  0
    7.4258    0.0117   -0.2250 C   0  0  0  0  0  0  0  0  0  0  0  0
    5.7608   -1.7518   -0.1701 C   0  0  0  0  0  0  0  0  0  0  0  0
    7.0797   -1.3346   -0.2882 C   0  0  0  0  0  0  0  0  0  0  0  0
    9.7703   -0.5170   -0.2174 C   0  0  0  0  0  0  0  0  0  0  0  0
    9.8472   -1.3492    1.0632 C   0  0  0  0  0  0  0  0  0  0  0  0
  1  4  2  0
  1  5  2  0
  1  7  1  0
  1 10  1  0
  2  8  1  0
  2 10  1  0
  3 12  1  0
  3 15  1  0
  6  9  1  0
  6 10  2  0
  8  9  2  0
  8 11  1  0
  9 13  1  0
 11 12  2  0
 12 14  1  0
 13 14  2  0
 15 16  1  0
M  END
>  <DRUGBANK_ID>  (1) 
DB00311

>  <SECONDARY_ACCESSION_NUMBERS>  (1) 
APRD00732; DB07727

>  <COMMON_NAME>  (1) 
Ethoxzolamide

>  <CAS_NUMBER>  (1) 
452-35-7

>  <UNII>  (1) 
Z52H4811WX

>  <SYNONYMS>  (1) 
6-Ethoxy-1,3-benzothiazole-2-sulfonamide; Ethoxazolamide; Ethoxyzolamide

$$$$
