
     RDKit          3D

 16 18  0  0  0  0  0  0  0  0999 V2000
   -2.4764   -1.2102   -0.0023 C   0  0  0  0  0  0  0  0  0  0  0  0
   -3.4058   -0.2177   -0.0020 N   0  0  0  0  0  0  0  0  0  0  0  0
   -3.0042    1.0743   -0.0013 C   0  0  0  0  0  0  0  0  0  0  0  0
   -1.6841    1.4938   -0.0008 C   0  0  0  0  0  0  0  0  0  0  0  0
    1.6957    1.4917    0.0003 C   0  0  0  0  0  0  0  0  0  0  0  0
    3.0477    1.1283    0.0010 C   0  0  0  0  0  0  0  0  0  0  0  0
    3.4379   -0.2124    0.0009 C   0  0  0  0  0  0  0  0  0  0  0  0
    2.4771   -1.2285   -0.0000 C   0  0  0  0  0  0  0  0  0  0  0  0
   -0.0010   -1.6216   -0.0012 N   0  0  0  0  0  0  0  0  0  0  0  0
    1.1307   -0.8473   -0.0004 C   0  0  0  0  0  0  0  0  0  0  0  0
   -1.1308   -0.8412   -0.0011 C   0  0  0  0  0  0  0  0  0  0  0  0
    0.7163    0.4824   -0.0001 C   0  0  0  0  0  0  0  0  0  0  0  0
   -0.7118    0.4862   -0.0004 C   0  0  0  0  0  0  0  0  0  0  0  0
   -2.9327   -2.6334   -0.0069 C   0  0  0  0  0  0  0  0  0  0  0  0
    4.7936   -0.4135    0.0019 O   0  0  0  0  0  0  0  0  0  0  0  0
    5.2288   -1.7677    0.0021 C   0  0  0  0  0  0  0  0  0  0  0  0
  1 11  2  0
  1 14  1  0
  2  1  1  0
  2  3  2  0
  3  4  1  0
  4 13  2  0
  5 12  2  0
  6  5  1  0
  7  8  1  0
  7  6  2  0
  7 15  1  0
  8 10  2  0
 10  9  1  0
 11  9  1  0
 12 10  1  0
 13 11  1  0
 13 12  1  0
 15 16  1  0
M  END
>  <DRUGBANK_ID>  (1) 
DB07919

>  <COMMON_NAME>  (1) 
Harmine

>  <CAS_NUMBER>  (1) 
442-51-3

>  <UNII>  (1) 
4FHH5G48T7

>  <SYNONYMS>  (1) 
Banisterine; Leucoharmine; Telepathine; Yageine; Yajeine

$$$$
