
     RDKit          3D

 35 38  0  0  0  0  0  0  0  0999 V2000
  -12.7309    2.7724   -5.6988 N   0  0  0  0  0  0  0  0  0  0  0  0
  -12.9592    4.1982   -5.8319 C   0  0  1  0  0  0  0  0  0  0  0  0
  -11.6081    2.1311   -5.1915 C   0  0  0  0  0  0  0  0  0  0  0  0
  -13.6096    1.8153   -6.1539 C   0  0  0  0  0  0  0  0  0  0  0  0
  -13.1360    4.6621   -7.2806 C   0  0  1  0  0  0  0  0  0  0  0  0
  -14.1785    4.5619   -5.1435 O   0  0  0  0  0  0  0  0  0  0  0  0
  -11.9026    0.7871   -5.3855 C   0  0  0  0  0  0  0  0  0  0  0  0
  -10.4659    2.6350   -4.6339 N   0  0  0  0  0  0  0  0  0  0  0  0
  -13.1403    0.6038   -5.9806 N   0  0  0  0  0  0  0  0  0  0  0  0
  -13.9614    5.9307   -7.1143 C   0  0  1  0  0  0  0  0  0  0  0  0
  -14.8384    5.6044   -5.8935 C   0  0  1  0  0  0  0  0  0  0  0  0
  -10.9418   -0.1468   -4.9687 C   0  0  0  0  0  0  0  0  0  0  0  0
   -9.5938    1.6418   -4.2561 C   0  0  0  0  0  0  0  0  0  0  0  0
  -16.2739    5.2449   -6.3361 C   0  0  0  0  0  0  0  0  0  0  0  0
   -9.7867    0.3038   -4.4003 N   0  0  0  0  0  0  0  0  0  0  0  0
  -11.1624   -1.5000   -5.1292 N   0  0  0  0  0  0  0  0  0  0  0  0
  -11.8965    4.8675   -7.9448 O   0  0  0  0  0  0  0  0  0  0  0  0
  -13.0946    7.0546   -6.8874 O   0  0  0  0  0  0  0  0  0  0  0  0
  -16.8027    4.0861   -5.8055 N   0  0  0  0  0  0  0  0  0  0  0  0
  -16.9017    5.9625   -7.1120 O   0  0  0  0  0  0  0  0  0  0  0  0
  -18.1522    3.6467   -6.1316 C   0  0  0  0  0  0  0  0  0  0  0  0
  -18.1475    2.2852   -6.8014 C   0  0  0  0  0  0  0  0  0  0  0  0
   -8.2948    2.0312   -3.6241 C   0  0  0  0  0  0  0  0  0  0  0  0
   -7.1620    2.3694   -3.0742 C   0  0  0  0  0  0  0  0  0  0  0  0
   -5.8413    2.7637   -2.4333 C   0  0  0  0  0  0  0  0  0  0  0  0
   -6.1406    3.6047   -1.1836 C   0  0  1  0  0  0  0  0  0  0  0  0
   -5.0741    4.6960   -1.0284 C   0  0  0  0  0  0  0  0  0  0  0  0
   -5.1977    5.7707   -2.1140 C   0  0  0  0  0  0  0  0  0  0  0  0
   -6.6172    6.3504   -2.2098 C   0  0  1  0  0  0  0  0  0  0  0  0
   -7.6705    5.2545   -2.3609 C   0  0  0  0  0  0  0  0  0  0  0  0
   -7.5593    4.2219   -1.2304 C   0  0  0  0  0  0  0  0  0  0  0  0
   -6.9417    7.1953   -0.9812 C   0  0  0  0  0  0  0  0  0  0  0  0
   -7.2429    8.4950   -1.1406 O   0  0  0  0  0  0  0  0  0  0  0  0
   -6.9539    6.7274    0.1632 O   0  0  0  0  0  0  0  0  0  0  0  0
   -7.2343    9.1241   -2.4183 C   0  0  0  0  0  0  0  0  0  0  0  0
  1  3  1  0
  1  4  1  0
  2  1  1  6
  2  6  1  0
  3  7  2  0
  3  8  1  0
  4  9  2  0
  5 17  1  1
  5  2  1  0
  5 10  1  0
  6 11  1  0
  7 12  1  0
  7  9  1  0
  8 13  2  0
 10 18  1  1
 10 11  1  0
 11 14  1  6
 12 15  2  0
 12 16  1  0
 13 23  1  0
 13 15  1  0
 14 19  1  0
 14 20  2  0
 19 21  1  0
 21 22  1  0
 23 24  3  0
 24 25  1  0
 26 27  1  0
 26 31  1  0
 26 25  1  6
 27 28  1  0
 28 29  1  0
 29 30  1  0
 29 32  1  1
 30 31  1  0
 32 33  1  0
 32 34  2  0
 33 35  1  0
M  END
>  <DRUGBANK_ID>  (1) 
DB05009

>  <COMMON_NAME>  (1) 
Apadenoson

>  <CAS_NUMBER>  (1) 
250386-15-3

>  <UNII>  (1) 
BTS1Y6777M

>  <SYNONYMS>  (1) 
Apadenoson

$$$$
