866
     RDKit          3D

 18 18  0  0  1  0  0  0  0  0999 V2000
    1.1527   -0.1629   -0.1834 O   0  0  0  0  0  0  0  0  0  0  0  0
    1.5624    1.4938    2.2199 O   0  0  0  0  0  0  0  0  0  0  0  0
   -1.5991    3.0107    1.2704 N   0  0  0  0  0  0  0  0  0  0  0  0
    0.3603    1.5944    1.4591 C   0  0  0  0  0  0  0  0  0  0  0  0
   -0.1493    3.0603    1.3972 C   0  0  0  0  0  0  0  0  0  0  0  0
   -2.2480    4.3127    1.2886 C   0  0  0  0  0  0  0  0  0  0  0  0
    0.2805    0.9273    0.0494 C   0  0  0  0  0  0  0  0  0  0  0  0
   -1.8917    5.1513    0.0626 C   0  0  0  0  0  0  0  0  0  0  0  0
   -3.7445    4.0108    1.3009 C   0  0  0  0  0  0  0  0  0  0  0  0
    2.5072    0.0375   -0.2461 C   0  0  0  0  0  0  0  0  0  0  0  0
    3.2440    1.2489   -0.2375 C   0  0  0  0  0  0  0  0  0  0  0  0
    2.7312    2.6748   -0.3446 C   0  0  0  0  0  0  0  0  0  0  0  0
    3.1842   -1.1928   -0.1203 C   0  0  0  0  0  0  0  0  0  0  0  0
    4.6328    1.1625   -0.0312 C   0  0  0  0  0  0  0  0  0  0  0  0
    4.5564   -1.2361    0.1089 C   0  0  0  0  0  0  0  0  0  0  0  0
    5.2806   -0.0549    0.1473 C   0  0  0  0  0  0  0  0  0  0  0  0
    2.9655    3.5475    0.8686 C   0  0  0  0  0  0  0  0  0  0  0  0
    3.3757    4.8278    0.8275 C   0  0  0  0  0  0  0  0  0  0  0  0
  1  7  1  0
  1 10  1  0
  2  4  1  0
  3  5  1  0
  3  6  1  0
  4  5  1  0
  4  7  1  0
  6  8  1  0
  6  9  1  0
 10 11  2  0
 10 13  1  0
 11 12  1  0
 11 14  1  0
 12 17  1  0
 13 15  2  0
 14 16  2  0
 15 16  1  0
 17 18  2  0
M  END
>  <DRUGBANK_ID>  (1) 
DB00866

>  <SECONDARY_ACCESSION_NUMBERS>  (1) 
APRD00736

>  <COMMON_NAME>  (1) 
Alprenolol

>  <CAS_NUMBER>  (1) 
13655-52-2

>  <UNII>  (1) 
877K5MQ27W

>  <SYNONYMS>  (1) 
(RS)-1-(2-allylphenoxy)-3-(isopropylamino)propan-2-ol; 1-(2-Allylphenoxy)-3-isopropylamino-2-propanol; 1-(o-Allylphenoxy)-3-(isopropylamino)-2-propanol; Alfeprol; Alprenolol; Alpr√©nolol; Alprenololum; Aprenololo

$$$$
