
     RDKit          3D

 40 43  0  0  1  0  0  0  0  0999 V2000
    0.1649   -1.1409   -2.7241 C   0  0  0  0  0  0  0  0  0  0  0  0
    0.1711    0.0031   -1.3982 C   0  0  2  0  0  0  0  0  0  0  0  0
    0.9188   -0.0381    0.0165 N   0  0  0  0  0  0  0  0  0  0  0  0
    2.5781    0.5955    0.1335 P   0  0  2  0  0  0  0  0  0  0  0  0
    2.6852    0.2303    1.6026 O   0  0  0  0  0  0  0  0  0  0  0  0
    3.3266   -0.3122   -0.9710 O   0  0  0  0  0  0  0  0  0  0  0  0
    2.5389   -0.9233   -1.8711 C   0  0  0  0  0  0  0  0  0  0  0  0
    1.8013   -2.1013   -0.9258 C   0  0  1  0  0  0  0  0  0  0  0  0
    2.0536   -3.3015   -1.6005 O   0  0  0  0  0  0  0  0  0  0  0  0
    2.3182   -4.2620   -0.5991 C   0  0  1  0  0  0  0  0  0  0  0  0
    3.6000   -4.7676   -0.9577 N   0  0  0  0  0  0  0  0  0  0  0  0
    4.7001   -3.9427   -0.9383 C   0  0  0  0  0  0  0  0  0  0  0  0
    5.9046   -4.4560   -0.7626 C   0  0  0  0  0  0  0  0  0  0  0  0
    5.9779   -5.8914   -1.0514 C   0  0  0  0  0  0  0  0  0  0  0  0
    7.2074   -6.4407   -1.1925 N   0  0  0  0  0  0  0  0  0  0  0  0
    4.9411   -6.6595   -1.2230 N   0  0  0  0  0  0  0  0  0  0  0  0
    3.7055   -6.1249   -1.0481 C   0  0  0  0  0  0  0  0  0  0  0  0
    2.6797   -6.8422   -0.9722 O   0  0  0  0  0  0  0  0  0  0  0  0
    2.2522   -3.6956    0.8174 C   0  0  0  0  0  0  0  0  0  0  0  0
    1.1276   -4.0761    1.4741 F   0  0  0  0  0  0  0  0  0  0  0  0
    3.3140   -3.9411    1.6132 F   0  0  0  0  0  0  0  0  0  0  0  0
    2.1919   -2.2542    0.5862 C   0  0  2  0  0  0  0  0  0  0  0  0
    1.3706   -1.6972    1.6480 O   0  0  0  0  0  0  0  0  0  0  0  0
    4.1908    1.2112    0.2472 O   0  0  0  0  0  0  0  0  0  0  0  0
    5.2275    0.5415    0.8949 C   0  0  0  0  0  0  0  0  0  0  0  0
    5.4905   -0.8028    0.6730 C   0  0  0  0  0  0  0  0  0  0  0  0
    6.4104   -1.5322    1.4171 C   0  0  0  0  0  0  0  0  0  0  0  0
    7.0625   -0.9148    2.4610 C   0  0  0  0  0  0  0  0  0  0  0  0
    6.8193    0.4365    2.7014 C   0  0  0  0  0  0  0  0  0  0  0  0
    5.9977    1.1916    1.8453 C   0  0  0  0  0  0  0  0  0  0  0  0
   -1.2928    0.1101   -1.3833 C   0  0  0  0  0  0  0  0  0  0  0  0
   -1.8117    0.8764   -2.1920 O   0  0  0  0  0  0  0  0  0  0  0  0
   -1.8815   -0.9071   -0.7070 O   0  0  0  0  0  0  0  0  0  0  0  0
   -3.3141   -0.9581   -0.8375 C   0  0  0  0  0  0  0  0  0  0  0  0
   -3.8589    0.1714   -0.0060 C   0  0  0  0  0  0  0  0  0  0  0  0
   -3.7909    1.4891   -0.4853 C   0  0  0  0  0  0  0  0  0  0  0  0
   -3.9107    2.5793    0.3572 C   0  0  0  0  0  0  0  0  0  0  0  0
   -4.1080    2.3601    1.7090 C   0  0  0  0  0  0  0  0  0  0  0  0
   -4.2306    1.0562    2.1943 C   0  0  0  0  0  0  0  0  0  0  0  0
   -4.2061   -0.0329    1.3245 C   0  0  0  0  0  0  0  0  0  0  0  0
  2 31  1  0
  2  3  1  0
  2  1  1  1
  4  3  1  6
  4  5  2  0
  4  6  1  0
  4 24  1  0
  6  7  1  0
  8  7  1  6
  8  9  1  0
  8 22  1  0
 10  9  1  0
 10 19  1  0
 10 11  1  6
 11 12  1  0
 11 17  1  0
 12 13  2  0
 13 14  1  0
 14 15  1  0
 14 16  2  0
 16 17  1  0
 17 18  2  0
 19 20  1  0
 19 21  1  0
 22 19  1  0
 22 23  1  1
 24 25  1  0
 25 26  2  0
 25 30  1  0
 26 27  1  0
 27 28  2  0
 28 29  1  0
 29 30  2  0
 31 32  2  0
 31 33  1  0
 33 34  1  0
 34 35  1  0
 35 36  2  0
 35 40  1  0
 36 37  1  0
 37 38  2  0
 38 39  1  0
 39 40  2  0
M  END
>  <DRUGBANK_ID>  (1) 
DB15057

>  <COMMON_NAME>  (1) 
osgemcitabine palabenamide

>  <CAS_NUMBER>  (1) 
840506-29-8

>  <UNII>  (1) 
XCL1K2T28K

>  <SYNONYMS>  (1) 
ACELARIN; BENZYL (2S)-2-((((2R,3R,5R)-5-(4-AMINO-2-OXO-PYRIMIDIN-1-YL)-4,4-DIFLUORO-3-HYDROXY-TETRAHYDROFURAN-2-YL)METHOXY-PHENOXY-PHOSPHORYL)AMINO)PROPANOATE; Fosgemcitabine palabenamide, p(rs)-; L-ALANINE, N-(2'-DEOXY-2',2'-DIFLUORO-P-PHENYL-5'-CYTIDYLYL)-, PHENYLMETHYL ESTER; L-Alanine, N-[[P(S)]-2?-deoxy-2?,2?-difluoro-P-phenyl-5?-cytidylyl]-, phenylmethyl ester; N-[[P(S)]-2?-deoxy-2?,2?-difluoro-P-phenyl-5?-cytidylyl]-L-alanine phenylmethyl ester

$$$$
