F25
     RDKit          3D

 32 36  0  0  0  0  0  0  0  0999 V2000
    1.1045    0.1718   -0.0589 O   0  0  0  0  0  0  0  0  0  0  0  0
    2.2797    0.1991   -0.1699 C   0  0  0  0  0  0  0  0  0  0  0  0
    3.2029    1.1130    0.3234 N   0  0  0  0  0  0  0  0  0  0  0  0
    2.8508    2.0054    1.3995 C   0  0  0  0  0  0  0  0  0  0  0  0
    3.8256    1.9915    2.5220 C   0  0  0  0  0  0  0  0  0  0  0  0
    5.2456    2.0392    2.3413 C   0  0  0  0  0  0  0  0  0  0  0  0
    6.1645    1.7680    3.2885 C   0  0  0  0  0  0  0  0  0  0  0  0
    5.6068    1.6394    4.4823 C   0  0  0  0  0  0  0  0  0  0  0  0
    6.4087    0.8508    5.2266 F   0  0  0  0  0  0  0  0  0  0  0  0
    4.2274    1.9917    4.7666 C   0  0  0  0  0  0  0  0  0  0  0  0
    3.2918    1.9975    3.7788 C   0  0  0  0  0  0  0  0  0  0  0  0
    4.5495    0.9623   -0.2674 C   0  0  1  0  0  0  0  0  0  0  0  0
    4.3453   -0.1012   -1.3579 C   0  0  1  0  0  0  0  0  0  0  0  0
    5.2440   -1.3283   -1.6688 C   0  0  1  0  0  0  0  0  0  0  0  0
    5.0539   -2.2410   -0.4961 N   0  0  0  0  0  0  0  0  0  0  0  0
    4.9835   -3.5952   -1.0712 C   0  0  0  0  0  0  0  0  0  0  0  0
    4.0776   -3.4077   -2.2760 C   0  0  0  0  0  0  0  0  0  0  0  0
    4.5574   -2.0863   -2.8599 C   0  0  0  0  0  0  0  0  0  0  0  0
    3.7349   -1.8963    0.1508 C   0  0  1  0  0  0  0  0  0  0  0  0
    3.8815   -1.5434    1.6351 C   0  0  0  0  0  0  0  0  0  0  0  0
    2.7515   -1.2658    2.4119 C   0  0  0  0  0  0  0  0  0  0  0  0
    2.8578   -0.9272    3.7986 C   0  0  0  0  0  0  0  0  0  0  0  0
    4.1114   -0.8623    4.5154 C   0  0  0  0  0  0  0  0  0  0  0  0
    5.2086   -1.2571    3.7121 C   0  0  0  0  0  0  0  0  0  0  0  0
    5.1093   -1.4906    2.3009 C   0  0  0  0  0  0  0  0  0  0  0  0
    4.2062   -0.2891    6.0870 C   0  0  0  0  0  0  0  0  0  0  0  0
    4.6671   -1.3281    6.9182 N   0  0  0  0  0  0  0  0  0  0  0  0
    5.0389    0.7075    6.9338 N   0  0  0  0  0  0  0  0  0  0  0  0
    3.1213   -0.8493   -0.8067 C   0  0  1  0  0  0  0  0  0  0  0  0
    4.9664    2.3154   -0.8718 C   0  0  0  0  0  0  0  0  0  0  0  0
    5.0693    3.3134    0.0425 F   0  0  0  0  0  0  0  0  0  0  0  0
    6.1805    2.2031   -1.4501 F   0  0  0  0  0  0  0  0  0  0  0  0
  1  2  2  0
  2  3  1  0
 29  2  1  1
  3  4  1  0
  3 12  1  0
  4  5  1  0
  5  6  2  0
  5 11  1  0
  6  7  1  0
  7  8  2  0
  8  9  1  0
  8 10  1  0
 10 11  2  0
 13 12  1  1
 12 30  1  6
 13 14  1  0
 13 29  1  0
 14 15  1  0
 14 18  1  6
 15 16  1  0
 15 19  1  0
 16 17  1  0
 17 18  1  0
 19 20  1  1
 19 29  1  0
 20 21  2  0
 20 25  1  0
 21 22  1  0
 22 23  2  0
 23 24  1  0
 23 26  1  0
 24 25  2  0
 26 27  1  0
 26 28  1  0
 30 31  1  0
 30 32  1  0
M  END
>  <DRUGBANK_ID>  (1) 
DB07741

>  <COMMON_NAME>  (1) 
4-(1R,3AS,4R,8AS,8BR)-[1-DIFLUOROMETHYL-2-(4-FLUOROBENZYL)-3-OXODECAHYDROPYRROLO[3,4-A]PYRROLIZIN-4-YL]BENZAMIDINE

$$$$
