TSX
     RDKit          3D

 29 31  0  0  0  0  0  0  0  0999 V2000
    1.1085    0.0294    0.0950 O   0  0  0  0  0  0  0  0  0  0  0  0
    2.3412    0.0196    0.0263 C   0  0  0  0  0  0  0  0  0  0  0  0
    3.0637   -1.1919    0.0026 N   0  0  0  0  0  0  0  0  0  0  0  0
    2.3014   -2.4232    0.0559 C   0  0  0  0  0  0  0  0  0  0  0  0
    2.6102   -3.2610   -1.1542 C   0  0  0  0  0  0  0  0  0  0  0  0
    3.1633   -4.4785   -1.0683 C   0  0  0  0  0  0  0  0  0  0  0  0
    3.0785    1.2116   -0.0280 N   0  0  0  0  0  0  0  0  0  0  0  0
    2.3499    2.4868    0.0508 C   0  0  0  0  0  0  0  0  0  0  0  0
    2.6514    3.3341    1.3033 C   0  0  0  0  0  0  0  0  0  0  0  0
    4.0980    3.8039    1.4042 C   0  0  0  0  0  0  0  0  0  0  0  0
    4.5216    4.5692    0.1460 C   0  0  0  0  0  0  0  0  0  0  0  0
    4.4554    1.1190   -0.1517 C   0  0  0  0  0  0  0  0  0  0  0  0
    5.3690    2.1093   -0.3444 N   0  0  0  0  0  0  0  0  0  0  0  0
    5.1022   -0.0651   -0.0444 C   0  0  0  0  0  0  0  0  0  0  0  0
    4.4527   -1.3036    0.0652 C   0  0  0  0  0  0  0  0  0  0  0  0
    5.0968   -2.3484    0.1844 O   0  0  0  0  0  0  0  0  0  0  0  0
    6.4326    0.2181   -0.0569 N   0  0  0  0  0  0  0  0  0  0  0  0
    6.5635    1.5793   -0.1554 C   0  0  0  0  0  0  0  0  0  0  0  0
    7.8705    2.3065   -0.0687 C   0  0  0  0  0  0  0  0  0  0  0  0
    8.6720    1.9803    1.1675 C   0  0  0  0  0  0  0  0  0  0  0  0
    9.1449    0.6955    1.4832 C   0  0  0  0  0  0  0  0  0  0  0  0
    9.8107    0.4274    2.6943 C   0  0  0  0  0  0  0  0  0  0  0  0
   10.0763    1.4698    3.5831 C   0  0  0  0  0  0  0  0  0  0  0  0
    9.6531    2.7401    3.2048 C   0  0  0  0  0  0  0  0  0  0  0  0
    8.9653    3.0083    2.0388 C   0  0  0  0  0  0  0  0  0  0  0  0
   10.7532    1.2182    4.7979 N   0  0  0  0  0  0  0  0  0  0  0  0
   11.1318    2.0796    5.8045 C   0  0  0  0  0  0  0  0  0  0  0  0
   11.7275    1.6396    6.7900 O   0  0  0  0  0  0  0  0  0  0  0  0
   10.8287    3.5519    5.7121 C   0  0  0  0  0  0  0  0  0  0  0  0
  1  2  2  0
  2  3  1  0
  2  7  1  0
  3  4  1  0
  3 15  1  0
  4  5  1  0
  5  6  2  0
  7  8  1  0
  7 12  1  0
  8  9  1  0
  9 10  1  0
 10 11  1  0
 12 13  1  0
 12 14  2  0
 13 18  2  0
 14 15  1  0
 14 17  1  0
 15 16  2  0
 17 18  1  0
 18 19  1  0
 19 20  1  0
 20 21  2  0
 20 25  1  0
 21 22  1  0
 22 23  2  0
 23 24  1  0
 23 26  1  0
 24 25  2  0
 26 27  1  0
 27 28  2  0
 27 29  1  0
M  END
>  <DRUGBANK_ID>  (1) 
DB03267

>  <SECONDARY_ACCESSION_NUMBERS>  (1) 
EXPT03126

>  <COMMON_NAME>  (1) 
1-Allyl-3-Butyl-8-(N-Acetyl-4-Aminobenzyl)-Xanthine

$$$$
