BAS
     RDKit          3D

 12 12  0  0  0  0  0  0  0  0999 V2000
   -0.7473    2.7171    3.2488 C   0  0  0  0  0  0  0  0  0  0  0  0
   -1.1978    3.8326    3.3810 O   0  0  0  0  0  0  0  0  0  0  0  0
    0.3806    2.4152    2.5202 N   0  0  0  0  0  0  0  0  0  0  0  0
    0.8673    1.0383    2.3190 C   0  0  2  0  0  0  0  0  0  0  0  0
    0.1406    0.5109    1.0371 C   0  0  0  0  0  0  0  0  0  0  0  0
    0.0037   -0.9851    0.8573 C   0  0  0  0  0  0  0  0  0  0  0  0
    0.8331    0.2232    3.6317 C   0  0  0  0  0  0  0  0  0  0  0  0
    0.8295   -1.1762    3.6561 C   0  0  0  0  0  0  0  0  0  0  0  0
    0.5958   -1.9154    4.8114 C   0  0  0  0  0  0  0  0  0  0  0  0
    0.4799   -1.2693    6.0255 C   0  0  0  0  0  0  0  0  0  0  0  0
    0.6366    0.1093    6.0756 C   0  0  0  0  0  0  0  0  0  0  0  0
    0.8317    0.8423    4.8991 C   0  0  0  0  0  0  0  0  0  0  0  0
  1  2  2  0
  1  3  1  0
  4  7  1  0
  4  5  1  6
  4  3  1  0
  5  6  1  0
  7  8  2  0
  7 12  1  0
  8  9  1  0
  9 10  2  0
 10 11  1  0
 11 12  2  0
M  END
>  <DRUGBANK_ID>  (1) 
DB07436

>  <COMMON_NAME>  (1) 
N-(1-PHENYL-PROPYL)-FORMAMIDE

$$$$
