
     RDKit          3D

 31 34  0  0  1  0  0  0  0  0999 V2000
   -1.2939   -0.1080    0.2386 C   0  0  1  0  0  0  0  0  0  0  0  0
   -0.0200   -0.8306   -0.2030 C   0  0  1  0  0  0  0  0  0  0  0  0
    1.2375   -0.0751    0.2370 C   0  0  2  0  0  0  0  0  0  0  0  0
    1.1499    1.4088   -0.1887 C   0  0  1  0  0  0  0  0  0  0  0  0
   -0.0749    1.9996    0.2940 O   0  0  0  0  0  0  0  0  0  0  0  0
   -1.2541    1.3556   -0.2073 C   0  0  2  0  0  0  0  0  0  0  0  0
   -2.4881    2.0933    0.3336 C   0  0  0  0  0  0  0  0  0  0  0  0
   -0.0027   -2.1657    0.3179 O   0  0  0  0  0  0  0  0  0  0  0  0
    2.3417    2.1832    0.3522 C   0  0  0  0  0  0  0  0  0  0  0  0
    2.3751   -0.7511   -0.3186 O   0  0  0  0  0  0  0  0  0  0  0  0
   -2.4553   -0.7577   -0.2794 O   0  0  0  0  0  0  0  0  0  0  0  0
   -2.4618    3.4633   -0.0613 O   0  0  0  0  0  0  0  0  0  0  0  0
    3.6445    1.8599   -0.0365 C   0  0  0  0  0  0  0  0  0  0  0  0
    4.7406    2.5314    0.4975 C   0  0  0  0  0  0  0  0  0  0  0  0
    4.5655    3.6027    1.3812 C   0  0  0  0  0  0  0  0  0  0  0  0
    3.2642    3.9835    1.7501 C   0  0  0  0  0  0  0  0  0  0  0  0
    2.1805    3.2259    1.2661 C   0  0  0  0  0  0  0  0  0  0  0  0
    5.7800    4.3041    1.9115 C   0  0  0  0  0  0  0  0  0  0  0  0
    2.9736    5.1846    2.6374 C   0  0  0  0  0  0  0  0  0  0  0  0
    2.1580    6.2377    1.9261 C   0  0  0  0  0  0  0  0  0  0  0  0
    2.8322    7.7651    1.5259 S   0  0  0  0  0  0  0  0  0  0  0  0
    1.4089    8.2541    0.7127 C   0  0  0  0  0  0  0  0  0  0  0  0
    0.4349    7.2840    0.7608 C   0  0  0  0  0  0  0  0  0  0  0  0
    0.8461    6.1508    1.4984 C   0  0  0  0  0  0  0  0  0  0  0  0
    1.2991    9.5523    0.0553 C   0  0  0  0  0  0  0  0  0  0  0  0
    0.2676   10.4268    0.4320 C   0  0  0  0  0  0  0  0  0  0  0  0
    0.0512   11.6073   -0.2816 C   0  0  0  0  0  0  0  0  0  0  0  0
    0.8685   11.9055   -1.3623 C   0  0  0  0  0  0  0  0  0  0  0  0
    1.9014   11.0579   -1.7434 C   0  0  0  0  0  0  0  0  0  0  0  0
    2.1191    9.8749   -1.0318 C   0  0  0  0  0  0  0  0  0  0  0  0
    0.6479   13.0291   -2.0620 F   0  0  0  0  0  0  0  0  0  0  0  0
  1  2  1  0
  1  6  1  0
  1 11  1  6
  2  3  1  0
  2  8  1  1
  3  4  1  0
  3 10  1  6
  4  5  1  0
  4  9  1  1
  5  6  1  0
  6  7  1  1
  7 12  1  0
  9 13  2  0
  9 17  1  0
 13 14  1  0
 14 15  2  0
 15 16  1  0
 15 18  1  0
 16 17  2  0
 16 19  1  0
 19 20  1  0
 20 21  1  0
 20 24  2  0
 21 22  1  0
 22 23  2  0
 22 25  1  0
 23 24  1  0
 25 26  2  0
 25 30  1  0
 26 27  1  0
 27 28  2  0
 28 29  1  0
 28 31  1  0
 29 30  2  0
M  END
>  <DRUGBANK_ID>  (1) 
DB08907

>  <COMMON_NAME>  (1) 
Canagliflozin

>  <CAS_NUMBER>  (1) 
842133-18-0

>  <UNII>  (1) 
6S49DGR869

>  <SYNONYMS>  (1) 
Canagliflozin; Canagliflozin anhydrous; Canagliflozina

$$$$
