
     RDKit          3D

 17 19  0  0  0  0  0  0  0  0999 V2000
   -1.0140    0.4200    0.1750 N   0  0  0  0  0  0  0  0  0  0  0  0
   -1.5093    0.5632    1.6046 C   0  0  0  0  0  0  0  0  0  0  0  0
   -0.4883   -0.0471    2.6006 C   0  0  0  0  0  0  0  0  0  0  0  0
   -2.8454   -0.2681    1.7642 C   0  0  0  0  0  0  0  0  0  0  0  0
   -0.9615   -0.1148    4.0411 C   0  0  0  0  0  0  0  0  0  0  0  0
   -3.3184   -0.4206    3.2222 C   0  0  0  0  0  0  0  0  0  0  0  0
   -0.7609   -0.9567   -0.3026 C   0  0  0  0  0  0  0  0  0  0  0  0
    0.2425    1.1147   -0.1791 C   0  0  0  0  0  0  0  0  0  0  0  0
   -2.2194   -0.9706    4.1209 C   0  0  0  0  0  0  0  0  0  0  0  0
   -1.7964    2.0727    1.9458 C   0  0  0  0  0  0  0  0  0  0  0  0
    0.7083   -1.2424   -0.0402 C   0  0  0  0  0  0  0  0  0  0  0  0
    1.3608    0.0861   -0.3226 C   0  0  0  0  0  0  0  0  0  0  0  0
   -0.7566    3.0047    2.1086 C   0  0  0  0  0  0  0  0  0  0  0  0
   -3.1004    2.5925    2.1003 C   0  0  0  0  0  0  0  0  0  0  0  0
   -0.9883    4.3778    2.2082 C   0  0  0  0  0  0  0  0  0  0  0  0
   -3.3387    3.9522    2.3196 C   0  0  0  0  0  0  0  0  0  0  0  0
   -2.2881    4.8523    2.3250 C   0  0  0  0  0  0  0  0  0  0  0  0
  1  2  1  0
  1  7  1  0
  1  8  1  0
  2  3  1  0
  2  4  1  0
  2 10  1  0
  3  5  1  0
  4  6  1  0
  5  9  1  0
  6  9  1  0
  7 11  1  0
  8 12  1  0
 10 13  2  0
 10 14  1  0
 11 12  1  0
 13 15  1  0
 14 16  2  0
 15 17  2  0
 16 17  1  0
M  END
>  <DRUGBANK_ID>  (1) 
DB01549

>  <COMMON_NAME>  (1) 
Rolicyclidine

>  <CAS_NUMBER>  (1) 
2201-39-0

>  <UNII>  (1) 
183O9O9JE3

>  <SYNONYMS>  (1) 
1-(1-phenylcyclohexyl)pyrrolidine; PCPy; Roliciclidina; Rolicyclidine; Rolicyclidinum

$$$$
