
     RDKit          3D

 11 12  0  0  0  0  0  0  0  0999 V2000
    0.9346    0.1174   -0.0231 C   0  0  0  0  0  0  0  0  0  0  0  0
    2.0775    2.7691    0.3245 C   0  0  0  0  0  0  0  0  0  0  0  0
    2.3634    3.9900    0.9543 C   0  0  0  0  0  0  0  0  0  0  0  0
   -0.2767    3.3652    0.1140 C   0  0  0  0  0  0  0  0  0  0  0  0
    0.0963    6.5657    1.7077 C   0  0  0  0  0  0  0  0  0  0  0  0
    0.7711    2.4519   -0.0585 C   0  0  0  0  0  0  0  0  0  0  0  0
    1.3179    4.8979    1.1741 C   0  0  0  0  0  0  0  0  0  0  0  0
    0.0356    4.5725    0.7441 C   0  0  0  0  0  0  0  0  0  0  0  0
    1.3358    6.1347    1.7711 N   0  0  0  0  0  0  0  0  0  0  0  0
   -0.7205    5.6644    1.0851 N   0  0  0  0  0  0  0  0  0  0  0  0
    0.4442    1.2793   -0.6907 O   0  0  0  0  0  0  0  0  0  0  0  0
  3  2  2  0
  6  2  1  0
  6  4  2  0
  7  3  1  0
  8  4  1  0
  8  7  2  0
  9  5  2  0
  9  7  1  0
 10  5  1  0
 10  8  1  0
 11  1  1  0
 11  6  1  0
M  END
>  <DRUGBANK_ID>  (1) 
DB04130

>  <SECONDARY_ACCESSION_NUMBERS>  (1) 
EXPT00256

>  <COMMON_NAME>  (1) 
5-Methoxybenzimidazole

>  <UNII>  (1) 
Y9FY4BD73M

$$$$
