
     RDKit          3D

 36 39  0  0  0  0  0  0  0  0999 V2000
    1.2609    1.4245    0.8009 Cl  0  0  0  0  0  0  0  0  0  0  0  0
    1.2908   -1.6629    0.0139 Cl  0  0  0  0  0  0  0  0  0  0  0  0
    4.1181    8.3878   -3.0099 O   0  0  0  0  0  0  0  0  0  0  0  0
    0.5247    5.4380   -6.3682 O   0  0  0  0  0  0  0  0  0  0  0  0
    0.5049    5.7329   -4.1012 N   0  0  0  0  0  0  0  0  0  0  0  0
    5.6898    5.7196   -4.4689 N   0  0  0  0  0  0  0  0  0  0  0  0
    3.0962    7.3629   -4.6939 N   0  0  0  0  0  0  0  0  0  0  0  0
   -1.7471    4.9021    0.4337 N   0  0  0  0  0  0  0  0  0  0  0  0
   -2.0045    3.6563    0.8840 N   0  0  0  0  0  0  0  0  0  0  0  0
    7.0027    4.3083   -3.0910 N   0  0  0  0  0  0  0  0  0  0  0  0
    7.2829    4.3904   -5.3150 N   0  0  0  0  0  0  0  0  0  0  0  0
    4.0258    4.8209   -2.8915 C   0  0  0  0  0  0  0  0  0  0  0  0
    3.9408    4.5648   -1.3780 C   0  0  0  0  0  0  0  0  0  0  0  0
    3.9478    3.5324   -3.7400 C   0  0  0  0  0  0  0  0  0  0  0  0
    2.8077    3.6204   -0.9795 C   0  0  0  0  0  0  0  0  0  0  0  0
    2.6794    2.7495   -3.4105 C   0  0  0  0  0  0  0  0  0  0  0  0
    2.6399    2.4271   -1.9305 C   0  0  0  0  0  0  0  0  0  0  0  0
    4.8722    6.0669   -3.3064 C   0  0  2  0  0  0  0  0  0  0  0  0
   -0.9092    6.1959   -1.5646 C   0  0  0  0  0  0  0  0  0  0  0  0
   -1.5862    6.0482   -2.9511 C   0  0  0  0  0  0  0  0  0  0  0  0
    0.5198    6.6396   -1.7430 C   0  0  0  0  0  0  0  0  0  0  0  0
   -0.8221    5.1602   -3.9451 C   0  0  0  0  0  0  0  0  0  0  0  0
    1.1662    5.8715   -2.8399 C   0  0  0  0  0  0  0  0  0  0  0  0
    4.0281    7.3591   -3.6776 C   0  0  0  0  0  0  0  0  0  0  0  0
   -1.0814    4.9329   -0.7632 C   0  0  0  0  0  0  0  0  0  0  0  0
    1.1288    5.8108   -5.3417 C   0  0  0  0  0  0  0  0  0  0  0  0
    2.6198    6.2513   -5.4928 C   0  0  0  0  0  0  0  0  0  0  0  0
   -0.7778    3.6115   -1.0127 C   0  0  0  0  0  0  0  0  0  0  0  0
   -1.3749    2.8508    0.0189 C   0  0  0  0  0  0  0  0  0  0  0  0
    6.6137    4.8725   -4.2573 C   0  0  0  0  0  0  0  0  0  0  0  0
   -1.3698    1.3903    0.1035 C   0  0  0  0  0  0  0  0  0  0  0  0
   -0.1723    0.6590    0.2134 C   0  0  0  0  0  0  0  0  0  0  0  0
   -2.5769    0.6855    0.0127 C   0  0  0  0  0  0  0  0  0  0  0  0
   -0.1704   -0.7347    0.0731 C   0  0  0  0  0  0  0  0  0  0  0  0
   -2.5794   -0.7138    0.0176 C   0  0  0  0  0  0  0  0  0  0  0  0
   -1.3776   -1.4216    0.0111 C   0  0  0  0  0  0  0  0  0  0  0  0
  1 32  1  0
  2 34  1  0
  3 24  2  0
  4 26  2  0
  5 22  1  0
  5 23  1  0
  5 26  1  0
  6 30  2  3
  7 24  1  0
  7 27  1  0
  8  9  1  0
  8 25  1  0
  9 29  2  0
 10 30  1  0
 11 30  1  0
 12 13  1  0
 12 14  1  0
 13 15  1  0
 14 16  1  0
 15 17  1  0
 16 17  1  0
 18 24  1  0
 18 12  1  0
 18  6  1  6
 19 20  1  0
 19 21  1  0
 19 25  1  0
 20 22  1  0
 21 23  1  0
 25 28  2  0
 26 27  1  0
 28 29  1  0
 29 31  1  0
 31 32  2  0
 31 33  1  0
 32 34  1  0
 33 35  2  0
 34 36  2  0
 35 36  1  0
M  END
>  <DRUGBANK_ID>  (1) 
DB03957

>  <SECONDARY_ACCESSION_NUMBERS>  (1) 
EXPT01488

>  <COMMON_NAME>  (1) 
SP2456

>  <SYNONYMS>  (1) 
(2R)-2-Cyclohexyl-2-(diaminomethylideneamino)-N-[2-[4-[3-(2,3-dichlorophenyl)-1H-pyrazol-5-yl]piperidin-1-yl]-2-oxoethyl]acetamide

$$$$
