
     RDKit          3D

 22 21  0  0  0  0  0  0  0  0999 V2000
    1.0061   -0.0557   -0.0536 C   0  0  0  0  0  0  0  0  0  0  0  0
    0.3414   -0.9255    0.7064 C   0  0  0  0  0  0  0  0  0  0  0  0
    0.3027    0.8900   -0.9594 C   0  0  0  0  0  0  0  0  0  0  0  0
   -1.1422   -0.9590    0.7300 C   0  0  0  0  0  0  0  0  0  0  0  0
    0.6934    2.2901   -0.6746 C   0  0  0  0  0  0  0  0  0  0  0  0
   -1.6590   -2.3031    0.3699 C   0  0  0  0  0  0  0  0  0  0  0  0
    1.2418    3.0734   -1.6042 C   0  0  0  0  0  0  0  0  0  0  0  0
   -2.4658   -2.9798    1.1862 C   0  0  0  0  0  0  0  0  0  0  0  0
    1.5004    2.6240   -3.0146 C   0  0  0  0  0  0  0  0  0  0  0  0
   -2.8515   -2.4501    2.5198 C   0  0  0  0  0  0  0  0  0  0  0  0
    0.7657    3.4925   -4.0244 C   0  0  0  0  0  0  0  0  0  0  0  0
   -4.3249   -2.3865    2.6526 C   0  0  0  0  0  0  0  0  0  0  0  0
    1.2276    4.9429   -3.9950 C   0  0  0  0  0  0  0  0  0  0  0  0
   -4.9726   -3.0400    3.6165 C   0  0  0  0  0  0  0  0  0  0  0  0
    2.7184    5.0621   -4.2358 C   0  0  0  0  0  0  0  0  0  0  0  0
   -4.2761   -3.8628    4.6616 C   0  0  0  0  0  0  0  0  0  0  0  0
    3.0511    5.7638   -5.3339 O   0  0  0  0  0  0  0  0  0  0  0  0
    3.5808    4.5792   -3.5100 O   0  0  0  0  0  0  0  0  0  0  0  0
   -4.5187   -3.2841    6.0469 C   0  0  0  0  0  0  0  0  0  0  0  0
   -5.9909   -3.3834    6.4371 C   0  0  0  0  0  0  0  0  0  0  0  0
   -6.5086   -4.8222    6.3535 C   0  0  0  0  0  0  0  0  0  0  0  0
   -5.7382   -5.7376    7.2926 C   0  0  0  0  0  0  0  0  0  0  0  0
  1  2  2  0
  1  3  1  0
  2  4  1  0
  3  5  1  0
  4  6  1  0
  5  7  2  0
  6  8  2  0
  7  9  1  0
  8 10  1  0
  9 11  1  0
 10 12  1  0
 11 13  1  0
 12 14  2  0
 13 15  1  0
 14 16  1  0
 15 17  1  0
 15 18  2  0
 16 19  1  0
 19 20  1  0
 20 21  1  0
 21 22  1  0
M  END
>  <DRUGBANK_ID>  (1) 
DB04557

>  <SECONDARY_ACCESSION_NUMBERS>  (1) 
EXPT00409

>  <COMMON_NAME>  (1) 
Arachidonic Acid

>  <CAS_NUMBER>  (1) 
506-32-1

>  <UNII>  (1) 
27YG812J1I

$$$$
