BI5
     RDKit          3D

 23 25  0  0  0  0  0  0  0  0999 V2000
   -1.3573   -0.0596   -0.0336 N   0  0  0  0  0  0  0  0  0  0  0  0
   -0.7132    1.1360   -0.0373 C   0  0  0  0  0  0  0  0  0  0  0  0
    0.6787    1.2234   -0.0111 C   0  0  0  0  0  0  0  0  0  0  0  0
    1.4308    0.0501   -0.0050 C   0  0  0  0  0  0  0  0  0  0  0  0
    0.7800   -1.1768   -0.0038 C   0  0  0  0  0  0  0  0  0  0  0  0
   -0.6034   -1.1801   -0.0062 C   0  0  0  0  0  0  0  0  0  0  0  0
   -1.5610    2.3922   -0.0444 C   0  0  0  0  0  0  0  0  0  0  0  0
   -2.4334    2.4740   -1.2059 N   0  0  0  0  0  0  0  0  0  0  0  0
   -3.7983    2.5866   -1.0694 C   0  0  0  0  0  0  0  0  0  0  0  0
   -4.6097    2.5740   -2.3127 C   0  0  0  0  0  0  0  0  0  0  0  0
   -4.3196    1.6746   -3.3370 C   0  0  0  0  0  0  0  0  0  0  0  0
   -5.1504    1.6032   -4.4571 C   0  0  0  0  0  0  0  0  0  0  0  0
   -6.2937    2.4028   -4.5631 C   0  0  0  0  0  0  0  0  0  0  0  0
   -6.6080    3.2738   -3.5136 C   0  0  0  0  0  0  0  0  0  0  0  0
   -5.7488    3.3867   -2.4097 C   0  0  0  0  0  0  0  0  0  0  0  0
   -7.1407    2.4255   -5.6569 O   0  0  0  0  0  0  0  0  0  0  0  0
   -6.8172    1.6550   -6.7527 C   0  0  0  0  0  0  0  0  0  0  0  0
   -6.8792    0.2601   -6.6919 C   0  0  0  0  0  0  0  0  0  0  0  0
   -6.5184   -0.5035   -7.8020 C   0  0  0  0  0  0  0  0  0  0  0  0
   -6.1779    0.1258   -8.9986 C   0  0  0  0  0  0  0  0  0  0  0  0
   -6.1987    1.5190   -9.0846 C   0  0  0  0  0  0  0  0  0  0  0  0
   -6.4847    2.2877   -7.9520 C   0  0  0  0  0  0  0  0  0  0  0  0
   -4.3734    2.7036    0.0129 O   0  0  0  0  0  0  0  0  0  0  0  0
  1  2  2  0
  1  6  1  0
  2  3  1  0
  2  7  1  0
  3  4  2  0
  4  5  1  0
  5  6  2  0
  7  8  1  0
  8  9  1  0
  9 10  1  0
  9 23  2  0
 10 11  2  0
 10 15  1  0
 11 12  1  0
 12 13  2  0
 13 14  1  0
 13 16  1  0
 14 15  2  0
 16 17  1  0
 17 18  2  0
 17 22  1  0
 18 19  1  0
 19 20  2  0
 20 21  1  0
 21 22  2  0
M  END
>  <DRUGBANK_ID>  (1) 
DB07459

>  <COMMON_NAME>  (1) 
4-PHENOXY-N-(PYRIDIN-2-YLMETHYL)BENZAMIDE

>  <UNII>  (1) 
6J2NXX77VH

$$$$
