
     RDKit          3D

  3  2  0  0  0  0  0  0  0  0999 V2000
    1.0957    0.0048    0.0372 C   0  0  0  0  0  0  0  0  0  0  0  0
    0.5907   -0.3428    1.4218 C   0  0  0  0  0  0  0  0  0  0  0  0
    1.1674    0.8446    2.6109 Cl  0  0  0  0  0  0  0  0  0  0  0  0
  1  2  1  0
  2  3  1  0
M  END
>  <DRUGBANK_ID>  (1) 
DB13259

>  <COMMON_NAME>  (1) 
Ethyl chloride

>  <CAS_NUMBER>  (1) 
75-00-3

>  <UNII>  (1) 
46U771ERWK

>  <SYNONYMS>  (1) 
chloroethane; Ethyl chloride; monochloroethane

$$$$
