
     RDKit          3D

  5  4  0  0  0  0  0  0  0  0999 V2000
    0.9279   -0.0690   -0.1290 C   0  0  0  0  0  0  0  0  0  0  0  0
    0.4257   -1.0767    0.8964 C   0  0  0  0  0  0  0  0  0  0  0  0
    0.9060   -0.7769    2.3274 C   0  0  0  0  0  0  0  0  0  0  0  0
    0.4222    0.5877    2.8221 C   0  0  0  0  0  0  0  0  0  0  0  0
    0.4212   -1.8687    3.2846 C   0  0  0  0  0  0  0  0  0  0  0  0
  1  2  1  0
  2  3  1  0
  3  4  1  0
  3  5  1  0
M  END
>  <DRUGBANK_ID>  (1) 
DB16203

>  <COMMON_NAME>  (1) 
Isopentane

>  <CAS_NUMBER>  (1) 
78-78-4

>  <UNII>  (1) 
ZH67814I0O

>  <SYNONYMS>  (1) 
Methylbutane

$$$$
