
     RDKit          3D

 40 44  0  0  1  0  0  0  0  0999 V2000
    0.4465   -0.1495    0.4391 C   0  0  0  0  0  0  0  0  0  0  0  0
    0.0617   -0.5603   -0.9638 C   0  0  0  0  0  0  0  0  0  0  0  0
    0.8031   -1.6791   -1.3880 O   0  0  0  0  0  0  0  0  0  0  0  0
    2.2146   -1.4927   -1.6019 C   0  0  2  0  0  0  0  0  0  0  0  0
    2.9183   -2.6638   -0.9086 C   0  0  0  0  0  0  0  0  0  0  0  0
    4.2128   -2.0661   -0.4880 C   0  0  0  0  0  0  0  0  0  0  0  0
    5.3306   -2.7466   -0.0553 C   0  0  0  0  0  0  0  0  0  0  0  0
    6.4644   -2.0076    0.3214 C   0  0  0  0  0  0  0  0  0  0  0  0
    6.4456   -0.5985    0.2718 C   0  0  0  0  0  0  0  0  0  0  0  0
    5.3124    0.0769   -0.1494 C   0  0  0  0  0  0  0  0  0  0  0  0
    4.2202   -0.6730   -0.5604 C   0  0  0  0  0  0  0  0  0  0  0  0
    2.9607   -0.1273   -1.1793 C   0  0  1  0  0  0  0  0  0  0  0  0
    3.1561    1.0306   -2.1051 N   0  0  0  0  0  0  0  0  0  0  0  0
    4.1690    0.5977   -3.0960 C   0  0  0  0  0  0  0  0  0  0  0  0
    3.6412   -0.2044   -4.2816 C   0  0  0  0  0  0  0  0  0  0  0  0
    2.3713    0.3004   -4.8234 N   0  0  0  0  0  0  0  0  0  0  0  0
    1.3608    0.4731   -3.7383 C   0  0  0  0  0  0  0  0  0  0  0  0
    1.7977    1.4902   -2.6292 C   0  0  2  0  0  0  0  0  0  0  0  0
    1.2809    2.9983   -2.9157 C   0  0  0  0  0  0  0  0  0  0  0  0
    2.5520    1.5509   -5.5777 C   0  0  0  0  0  0  0  0  0  0  0  0
    1.1242    1.9381   -6.0178 C   0  0  0  0  0  0  0  0  0  0  0  0
    0.5787    0.9807   -7.0895 C   0  0  0  0  0  0  0  0  0  0  0  0
    1.4877    0.9917   -8.2195 N   0  0  0  0  0  0  0  0  0  0  0  0
    2.8426    0.5469   -7.8987 C   0  0  0  0  0  0  0  0  0  0  0  0
    3.4334    1.4185   -6.8248 C   0  0  0  0  0  0  0  0  0  0  0  0
    1.2022    1.4419   -9.5114 C   0  0  0  0  0  0  0  0  0  0  0  0
    2.0255    1.4644  -10.3953 O   0  0  0  0  0  0  0  0  0  0  0  0
   -0.1857    1.8622   -9.8404 C   0  0  0  0  0  0  0  0  0  0  0  0
   -0.9183    1.1475  -10.7808 C   0  0  0  0  0  0  0  0  0  0  0  0
   -2.1932    1.4810  -11.1114 N   0  0  0  0  0  0  0  0  0  0  0  0
   -2.7182    2.5462  -10.4959 C   0  0  0  0  0  0  0  0  0  0  0  0
   -2.0952    3.3129   -9.5992 N   0  0  0  0  0  0  0  0  0  0  0  0
   -0.8162    2.9823   -9.3065 C   0  0  0  0  0  0  0  0  0  0  0  0
   -0.1833    3.9007   -8.3212 C   0  0  0  0  0  0  0  0  0  0  0  0
   -0.3684   -0.0565  -11.4879 C   0  0  0  0  0  0  0  0  0  0  0  0
    3.3208    2.6876   -4.8664 C   0  0  0  0  0  0  0  0  0  0  0  0
    7.6950   -2.7291    0.7933 C   0  0  0  0  0  0  0  0  0  0  0  0
    7.4522   -3.4899    1.8948 F   0  0  0  0  0  0  0  0  0  0  0  0
    8.1965   -3.5733   -0.1488 F   0  0  0  0  0  0  0  0  0  0  0  0
    8.7154   -1.8929    1.1303 F   0  0  0  0  0  0  0  0  0  0  0  0
  1  2  1  0
  2  3  1  0
  4  3  1  1
  4  5  1  0
  4 12  1  0
  5  6  1  0
  6  7  2  0
  6 11  1  0
  7  8  1  0
  8  9  2  0
  8 37  1  0
  9 10  1  0
 10 11  2  0
 11 12  1  0
 12 13  1  6
 13 14  1  0
 13 18  1  0
 14 15  1  0
 15 16  1  0
 16 17  1  0
 16 20  1  0
 17 18  1  0
 18 19  1  6
 20 21  1  0
 20 25  1  0
 20 36  1  0
 21 22  1  0
 22 23  1  0
 23 24  1  0
 23 26  1  0
 24 25  1  0
 26 27  2  0
 26 28  1  0
 28 29  2  0
 28 33  1  0
 29 30  1  0
 29 35  1  0
 30 31  2  0
 31 32  1  0
 32 33  2  0
 33 34  1  0
 37 38  1  0
 37 39  1  0
 37 40  1  0
M  END
>  <DRUGBANK_ID>  (1) 
DB12960

>  <SECONDARY_ACCESSION_NUMBERS>  (1) 
DB05062

>  <COMMON_NAME>  (1) 
INCB-9471

>  <CAS_NUMBER>  (1) 
869769-98-2

>  <UNII>  (1) 
C5D4W25708

$$$$
