YPA
     RDKit          3D

 30 33  0  0  0  0  0  0  0  0999 V2000
    3.1281    1.0817   -0.1449 C   0  0  0  0  0  0  0  0  0  0  0  0
    1.8078    1.4134   -0.5170 C   0  0  0  0  0  0  0  0  0  0  0  0
    0.8191    0.4148   -0.8058 C   0  0  0  0  0  0  0  0  0  0  0  0
    1.1981   -0.9211   -0.5594 C   0  0  0  0  0  0  0  0  0  0  0  0
    2.5210   -1.2473   -0.1408 C   0  0  0  0  0  0  0  0  0  0  0  0
    3.4925   -0.2449   -0.0149 C   0  0  0  0  0  0  0  0  0  0  0  0
   -0.6226    0.4167   -1.1504 C   0  0  0  0  0  0  0  0  0  0  0  0
   -1.0501   -0.9282   -1.1622 C   0  0  0  0  0  0  0  0  0  0  0  0
    0.0581   -1.7289   -0.7358 N   0  0  0  0  0  0  0  0  0  0  0  0
   -1.6689    1.4231   -1.1341 C   0  0  0  0  0  0  0  0  0  0  0  0
   -3.0426    1.0976   -0.9827 C   0  0  0  0  0  0  0  0  0  0  0  0
   -3.4163   -0.2259   -0.9356 C   0  0  0  0  0  0  0  0  0  0  0  0
   -2.4556   -1.2373   -1.1328 C   0  0  0  0  0  0  0  0  0  0  0  0
   -0.0721   -3.1176   -0.1856 C   0  0  0  0  0  0  0  0  0  0  0  0
   -0.7545   -3.5562    1.2595 C   0  0  0  0  0  0  0  0  0  0  0  0
   -2.1886   -3.2599    1.6130 O   0  0  0  0  0  0  0  0  0  0  0  0
   -2.4258   -1.9822    2.0910 C   0  0  0  0  0  0  0  0  0  0  0  0
   -1.5011   -1.0748    1.7498 C   0  0  0  0  0  0  0  0  0  0  0  0
   -1.5716    0.2858    1.7663 C   0  0  0  0  0  0  0  0  0  0  0  0
   -2.6622    0.9578    2.1780 C   0  0  0  0  0  0  0  0  0  0  0  0
   -3.7075    0.0961    2.5419 C   0  0  0  0  0  0  0  0  0  0  0  0
   -3.5788   -1.3719    2.5421 C   0  0  0  0  0  0  0  0  0  0  0  0
   -2.5862    2.4583    1.9637 C   0  0  0  0  0  0  0  0  0  0  0  0
   -1.2221    3.1405    2.3755 C   0  0  1  0  0  0  0  0  0  0  0  0
    0.2167    2.6676    2.0056 C   0  0  0  0  0  0  0  0  0  0  0  0
    1.0529    3.6349    1.5890 O   0  0  0  0  0  0  0  0  0  0  0  0
    0.7089    1.5363    2.2260 O   0  0  0  0  0  0  0  0  0  0  0  0
   -1.2323    4.5834    2.2389 O   0  0  0  0  0  0  0  0  0  0  0  0
   -1.5963    5.1789    0.9856 C   0  0  0  0  0  0  0  0  0  0  0  0
   -0.5832    5.0141   -0.1439 C   0  0  0  0  0  0  0  0  0  0  0  0
  1  2  2  0
  1  6  1  0
  2  3  1  0
  3  4  2  0
  3  7  1  0
  4  5  1  0
  4  9  1  0
  5  6  2  0
  7  8  2  0
  7 10  1  0
  8  9  1  0
  8 13  1  0
  9 14  1  0
 10 11  2  0
 11 12  1  0
 12 13  2  0
 14 15  1  0
 15 16  1  0
 16 17  1  0
 17 18  2  0
 17 22  1  0
 18 19  1  0
 19 20  2  0
 20 21  1  0
 20 23  1  0
 21 22  2  0
 24 23  1  6
 24 25  1  0
 24 28  1  0
 25 26  1  0
 25 27  2  0
 28 29  1  0
 29 30  1  0
M  END
>  <DRUGBANK_ID>  (1) 
DB04270

>  <SECONDARY_ACCESSION_NUMBERS>  (1) 
EXPT03276

>  <COMMON_NAME>  (1) 
(S)-3-(4-(2-Carbazol-9-Yl-Ethoxy)-Phenyl)-2-Ethoxy-Propionic Acid

$$$$
