
     RDKit          3D

 17 18  0  0  1  0  0  0  0  0999 V2000
   -1.3666   -0.0882   -0.0182 C   0  0  0  0  0  0  0  0  0  0  0  0
   -0.7509    1.0970    0.0741 C   0  0  0  0  0  0  0  0  0  0  0  0
    0.7327   -1.2352    0.0569 C   0  0  0  0  0  0  0  0  0  0  0  0
   -0.5774    5.1378    0.8232 C   0  0  0  0  0  0  0  0  0  0  0  0
   -0.6048   -1.3176   -0.0190 C   0  0  0  0  0  0  0  0  0  0  0  0
    0.8331    4.7048    0.4066 C   0  0  2  0  0  0  0  0  0  0  0  0
    1.4310    0.0708   -0.0278 C   0  0  0  0  0  0  0  0  0  0  0  0
    1.0369    4.6736   -1.1118 C   0  0  2  0  0  0  0  0  0  0  0  0
    0.8085    3.2149   -1.4769 C   0  0  2  0  0  0  0  0  0  0  0  0
    1.2811    2.4893   -0.2065 C   0  0  2  0  0  0  0  0  0  0  0  0
   -1.2893   -2.5072   -0.0090 N   0  0  0  0  0  0  0  0  0  0  0  0
    0.6310    1.2031    0.0153 N   0  0  0  0  0  0  0  0  0  0  0  0
   -1.5967    4.3234    0.2511 O   0  0  0  0  0  0  0  0  0  0  0  0
    2.6597    0.0809   -0.1525 O   0  0  0  0  0  0  0  0  0  0  0  0
    2.3652    5.0794   -1.4700 O   0  0  0  0  0  0  0  0  0  0  0  0
    1.4859    2.8219   -2.6666 O   0  0  0  0  0  0  0  0  0  0  0  0
    1.0622    3.3688    0.9055 O   0  0  0  0  0  0  0  0  0  0  0  0
  2  1  2  0
  5  1  1  0
  5  3  2  0
  6  4  1  6
  7  3  1  0
  8  6  1  0
  8 15  1  1
  9  8  1  0
  9 16  1  6
 10  9  1  0
 10 12  1  1
 11  5  1  0
 12  2  1  0
 12  7  1  0
 13  4  1  0
 14  7  2  0
 17  6  1  0
 17 10  1  0
M  END
>  <DRUGBANK_ID>  (1) 
DB04385

>  <SECONDARY_ACCESSION_NUMBERS>  (1) 
EXPT01050

>  <COMMON_NAME>  (1) 
3-Deazacytidine

$$$$
