
     RDKit          3D

 26 28  0  0  0  0  0  0  0  0999 V2000
    1.0956    0.0738    0.1484 O   0  0  0  0  0  0  0  0  0  0  0  0
    0.3565    1.2238    0.0812 C   0  0  0  0  0  0  0  0  0  0  0  0
    0.4138    2.0905   -1.0008 C   0  0  0  0  0  0  0  0  0  0  0  0
   -0.4664    3.1509   -1.0492 C   0  0  0  0  0  0  0  0  0  0  0  0
   -1.2385    3.4984    0.0708 C   0  0  0  0  0  0  0  0  0  0  0  0
   -1.2390    2.6694    1.2030 C   0  0  0  0  0  0  0  0  0  0  0  0
   -0.5065    1.4688    1.1439 C   0  0  0  0  0  0  0  0  0  0  0  0
   -1.9557    4.6996    0.0657 C   0  0  0  0  0  0  0  0  0  0  0  0
   -2.6237    5.1050    1.2208 C   0  0  0  0  0  0  0  0  0  0  0  0
   -2.6208    4.3099    2.3478 N   0  0  0  0  0  0  0  0  0  0  0  0
   -1.9540    3.1155    2.3265 C   0  0  0  0  0  0  0  0  0  0  0  0
   -1.9438    2.2723    3.5827 C   0  0  0  0  0  0  0  0  0  0  0  0
   -1.8791    5.3332   -1.1413 O   0  0  0  0  0  0  0  0  0  0  0  0
   -3.4210    6.4127    1.3652 C   0  0  0  0  0  0  0  0  0  0  0  0
   -3.5461    7.3079    0.3019 N   0  0  0  0  0  0  0  0  0  0  0  0
   -4.2224    8.5926    0.3787 C   0  0  0  0  0  0  0  0  0  0  0  0
   -3.1914    9.7005    0.1179 C   0  0  0  0  0  0  0  0  0  0  0  0
   -3.4337   10.4495   -0.9893 O   0  0  0  0  0  0  0  0  0  0  0  0
   -3.9860    6.6707    2.4333 O   0  0  0  0  0  0  0  0  0  0  0  0
   -2.1651    9.8426    0.7553 O   0  0  0  0  0  0  0  0  0  0  0  0
    2.4638    0.1709    0.0722 C   0  0  0  0  0  0  0  0  0  0  0  0
    3.1843    1.3675    0.0983 C   0  0  0  0  0  0  0  0  0  0  0  0
    3.1435   -1.0433   -0.0118 C   0  0  0  0  0  0  0  0  0  0  0  0
    4.5525    1.3612   -0.1423 C   0  0  0  0  0  0  0  0  0  0  0  0
    4.5334   -1.0523   -0.1040 C   0  0  0  0  0  0  0  0  0  0  0  0
    5.2284    0.1494   -0.2391 C   0  0  0  0  0  0  0  0  0  0  0  0
  1  2  1  0
  1 21  1  0
  2  3  2  0
  3  4  1  0
  4  5  2  0
  5  6  1  0
  5  8  1  0
  6  7  2  0
  7  2  1  0
  8  9  2  0
  8 13  1  0
  9 10  1  0
  9 14  1  0
 10 11  2  0
 11  6  1  0
 11 12  1  0
 14 15  1  0
 14 19  2  0
 15 16  1  0
 16 17  1  0
 17 18  1  0
 17 20  2  0
 22 21  2  0
 23 21  1  0
 24 22  1  0
 25 23  2  0
 26 24  2  0
 26 25  1  0
M  END
>  <DRUGBANK_ID>  (1) 
DB04847

>  <COMMON_NAME>  (1) 
Roxadustat

>  <CAS_NUMBER>  (1) 
808118-40-3

>  <UNII>  (1) 
X3O30D9YMX

>  <SYNONYMS>  (1) 
Roxadustat; Roxadustatum

$$$$
