MM3
     RDKit          3D

 24 25  0  0  0  0  0  0  0  0999 V2000
    1.3526   -0.1147    0.1787 C   0  0  0  0  0  0  0  0  0  0  0  0
    0.4216   -1.1157    0.3464 C   0  0  0  0  0  0  0  0  0  0  0  0
   -0.9368   -0.9527    0.1527 C   0  0  0  0  0  0  0  0  0  0  0  0
   -1.4404    0.3105   -0.0193 C   0  0  0  0  0  0  0  0  0  0  0  0
   -0.5320    1.3816   -0.0142 C   0  0  0  0  0  0  0  0  0  0  0  0
    0.8713    1.1733   -0.0073 C   0  0  0  0  0  0  0  0  0  0  0  0
   -2.7752    0.5728   -0.1496 O   0  0  0  0  0  0  0  0  0  0  0  0
   -3.6308   -0.5700   -0.3064 C   0  0  0  0  0  0  0  0  0  0  0  0
    3.0873   -0.5298    0.2862 S   0  0  0  0  0  0  0  0  0  0  0  0
    3.6931   -0.0747   -0.9595 O   0  0  0  0  0  0  0  0  0  0  0  0
    3.5499   -0.0557    1.5612 O   0  0  0  0  0  0  0  0  0  0  0  0
    3.1714   -2.2788    0.2615 N   0  0  0  0  0  0  0  0  0  0  0  0
    2.7648   -2.9324   -1.0423 C   0  0  1  0  0  0  0  0  0  0  0  0
    3.7788   -4.0477   -1.4222 C   0  0  0  0  0  0  0  0  0  0  0  0
    3.2868   -5.7564   -0.8971 S   0  0  0  0  0  0  0  0  0  0  0  0
    2.7195   -5.5258    0.8195 C   0  0  0  0  0  0  0  0  0  0  0  0
    3.4631   -4.4863    1.6390 C   0  0  0  0  0  0  0  0  0  0  0  0
    2.9434   -3.0311    1.5427 C   0  0  0  0  0  0  0  0  0  0  0  0
    3.8356   -4.1102   -2.9593 C   0  0  0  0  0  0  0  0  0  0  0  0
    5.2239   -3.7817   -0.9309 C   0  0  0  0  0  0  0  0  0  0  0  0
    1.2838   -3.3990   -1.1251 C   0  0  0  0  0  0  0  0  0  0  0  0
    0.4772   -2.9363   -2.1439 N   0  0  0  0  0  0  0  0  0  0  0  0
   -0.8973   -3.2722   -1.8709 O   0  0  0  0  0  0  0  0  0  0  0  0
    0.7042   -4.0569   -0.2537 O   0  0  0  0  0  0  0  0  0  0  0  0
  1  2  2  0
  1  6  1  0
  1  9  1  0
  2  3  1  0
  3  4  2  0
  4  5  1  0
  4  7  1  0
  5  6  2  0
  7  8  1  0
  9 10  2  0
  9 11  2  0
  9 12  1  0
 12 13  1  0
 12 18  1  0
 13 14  1  0
 13 21  1  1
 14 15  1  0
 14 19  1  0
 14 20  1  0
 15 16  1  0
 16 17  1  0
 17 18  1  0
 21 22  1  0
 21 24  2  0
 22 23  1  0
M  END
>  <DRUGBANK_ID>  (1) 
DB02350

>  <SECONDARY_ACCESSION_NUMBERS>  (1) 
EXPT02193

>  <COMMON_NAME>  (1) 
N-Hydroxy-4-[(4-Methoxylphenyl)Sulfonyl]-2,2-Dimethyl-Hexahydro-1,4-Thiazepine-3(S)-Carboxamide

$$$$
