
     RDKit          3D

 10 11  0  0  0  0  0  0  0  0999 V2000
   -0.0007   -1.1120    0.2993 C   0  0  0  0  0  0  0  0  0  0  0  0
   -1.2571   -0.7867   -0.5749 C   0  0  0  0  0  0  0  0  0  0  0  0
   -0.0230    0.0035    1.3563 C   0  0  0  0  0  0  0  0  0  0  0  0
    1.3036   -0.7557   -0.4501 C   0  0  0  0  0  0  0  0  0  0  0  0
   -1.2048    0.7381   -0.5239 C   0  0  0  0  0  0  0  0  0  0  0  0
   -2.5423   -1.3602    0.0437 C   0  0  0  0  0  0  0  0  0  0  0  0
   -1.1422   -1.3264   -2.0066 C   0  0  0  0  0  0  0  0  0  0  0  0
   -0.0013    1.1228    0.3184 C   0  0  0  0  0  0  0  0  0  0  0  0
    1.2631    0.7837   -0.4922 C   0  0  0  0  0  0  0  0  0  0  0  0
   -2.0669    1.5952   -1.0915 C   0  0  0  0  0  0  0  0  0  0  0  0
  1  2  1  0
  1  3  1  0
  1  4  1  0
  2  5  1  0
  2  6  1  0
  2  7  1  0
  3  8  1  0
  4  9  1  0
  5 10  2  0
  5  8  1  0
  8  9  1  0
M  END
>  <DRUGBANK_ID>  (1) 
DB15917

>  <COMMON_NAME>  (1) 
Camphene

>  <CAS_NUMBER>  (1) 
79-92-5

>  <UNII>  (1) 
G3VG94Z26E

>  <SYNONYMS>  (1) 
DL-Camphene

$$$$
