
     RDKit          3D

 11 10  0  0  1  0  0  0  0  0999 V2000
    0.8414    0.3077   -0.1942 C   0  0  0  0  0  0  0  0  0  0  0  0
    0.3452   -0.2769   -1.5202 C   0  0  0  0  0  0  0  0  0  0  0  0
    0.8196   -1.7038   -1.8856 C   0  0  1  0  0  0  0  0  0  0  0  0
    0.4560   -2.7071   -0.9144 O   0  0  0  0  0  0  0  0  0  0  0  0
    1.0327   -2.3067    0.6667 P   0  0  0  0  0  0  0  0  0  0  0  0
    0.6262   -3.8464    1.0363 O   0  0  0  0  0  0  0  0  0  0  0  0
    2.5537   -2.6679    0.1717 O   0  0  0  0  0  0  0  0  0  0  0  0
    1.5488   -1.9483    2.0818 O   0  0  0  0  0  0  0  0  0  0  0  0
    0.2913   -2.0974   -3.2706 C   0  0  0  0  0  0  0  0  0  0  0  0
    1.2451   -2.3328   -4.2053 O   0  0  0  0  0  0  0  0  0  0  0  0
   -0.9009   -2.1748   -3.5486 O   0  0  0  0  0  0  0  0  0  0  0  0
  1  2  1  0
  3  2  1  1
  3  4  1  0
  3  9  1  0
  4  5  1  0
  5  6  1  0
  5  7  1  0
  5  8  2  0
  9 10  1  0
  9 11  2  0
M  END
>  <DRUGBANK_ID>  (1) 
DB03248

>  <SECONDARY_ACCESSION_NUMBERS>  (1) 
EXPT02552

>  <COMMON_NAME>  (1) 
2-(Phosphonooxy)Butanoic Acid

$$$$
