1289
     RDKit          3D

 31 33  0  0  0  0  0  0  0  0999 V2000
    0.5252   -0.1312   -1.0033 S   0  0  0  0  0  0  0  0  0  0  0  0
    0.5738    4.0104   -0.1455 O   0  0  0  0  0  0  0  0  0  0  0  0
   -0.0808   -0.7388   -2.1135 O   0  0  0  0  0  0  0  0  0  0  0  0
    0.0802   -0.7262    0.3078 O   0  0  0  0  0  0  0  0  0  0  0  0
    7.6486   -4.3619    1.5283 O   0  0  0  0  0  0  0  0  0  0  0  0
   11.6659   -2.9467    0.9987 O   0  0  0  0  0  0  0  0  0  0  0  0
    2.7460    1.5911    1.3546 N   0  0  0  0  0  0  0  0  0  0  0  0
    2.3254    2.7612    0.6028 N   0  0  0  0  0  0  0  0  0  0  0  0
    0.1478    1.7218   -0.5992 N   0  0  0  0  0  0  0  0  0  0  0  0
    7.4042   -2.1432    1.7430 N   0  0  0  0  0  0  0  0  0  0  0  0
   10.4527   -3.5660    0.7350 N   0  0  0  0  0  0  0  0  0  0  0  0
    4.6605   -1.4537    1.5218 C   0  0  0  0  0  0  0  0  0  0  0  0
    3.5092   -2.1612    0.8751 C   0  0  0  0  0  0  0  0  0  0  0  0
    4.9431    0.1393    1.6778 C   0  0  0  0  0  0  0  0  0  0  0  0
    2.3358   -1.2436    1.1507 C   0  0  0  0  0  0  0  0  0  0  0  0
    3.9548    1.2511    1.9824 C   0  0  0  0  0  0  0  0  0  0  0  0
    2.0644    0.4184    1.0364 C   0  0  0  0  0  0  0  0  0  0  0  0
    1.0135    2.8671   -0.0428 C   0  0  0  0  0  0  0  0  0  0  0  0
    2.6977   -0.0702   -1.5157 C   0  0  0  0  0  0  0  0  0  0  0  0
    5.7583   -0.1207   -0.9286 C   0  0  0  0  0  0  0  0  0  0  0  0
    7.1918   -0.2290   -0.1774 C   0  0  0  0  0  0  0  0  0  0  0  0
    3.5769    1.0728   -1.3602 C   0  0  0  0  0  0  0  0  0  0  0  0
    3.4482   -1.2223   -1.6084 C   0  0  0  0  0  0  0  0  0  0  0  0
    7.6526   -0.7584    1.3167 C   0  0  0  0  0  0  0  0  0  0  0  0
    5.0236    1.0709   -1.0267 C   0  0  0  0  0  0  0  0  0  0  0  0
    4.9690   -1.2301   -1.3273 C   0  0  0  0  0  0  0  0  0  0  0  0
    8.1669   -3.2529    1.5473 C   0  0  0  0  0  0  0  0  0  0  0  0
    9.5772   -2.9720    1.5496 C   0  0  0  0  0  0  0  0  0  0  0  0
   10.2012   -2.0020    2.3752 C   0  0  0  0  0  0  0  0  0  0  0  0
   11.4959   -2.0076    1.9651 C   0  0  0  0  0  0  0  0  0  0  0  0
   12.6610   -1.2283    2.3787 C   0  0  0  0  0  0  0  0  0  0  0  0
  1  3  2  0
  1  4  2  0
  1  9  1  0
  1 19  1  0
  2 18  2  0
  5 27  2  0
  6 11  1  0
  6 30  1  0
  7  8  1  0
  7 16  1  0
  7 17  1  0
  8 18  1  0
  9 18  1  0
 10 24  1  0
 10 27  1  0
 11 28  2  0
 12 13  1  0
 12 14  1  0
 13 15  1  0
 14 16  1  0
 15 17  1  0
 19 22  2  0
 19 23  1  0
 20 21  1  0
 20 25  2  0
 20 26  1  0
 21 24  1  0
 22 25  1  0
 23 26  2  0
 27 28  1  0
 28 29  1  0
 29 30  2  0
 30 31  1  0
M  END
>  <DRUGBANK_ID>  (1) 
DB01289

>  <COMMON_NAME>  (1) 
Glisoxepide

>  <CAS_NUMBER>  (1) 
25046-79-1

>  <UNII>  (1) 
H7SC0I332I

>  <SYNONYMS>  (1) 
Glisoxepide

$$$$
