
     RDKit          3D

 12 11  0  0  1  0  0  0  0  0999 V2000
    0.9301   -0.7871   -2.3499 N   0  0  0  0  0  0  0  0  0  0  0  0
    0.4819    0.1871   -1.3485 C   0  0  2  0  0  0  0  0  0  0  0  0
    1.0341   -0.1589    0.0498 C   0  0  0  0  0  0  0  0  0  0  0  0
    0.6201   -1.4656    0.4459 O   0  0  0  0  0  0  0  0  0  0  0  0
   -1.0589    0.2213   -1.3412 C   0  0  0  0  0  0  0  0  0  0  0  0
   -1.6044    1.2831   -0.3741 C   0  0  0  0  0  0  0  0  0  0  0  0
   -1.1529    2.6969   -0.7556 C   0  0  0  0  0  0  0  0  0  0  0  0
   -1.6492    3.0899   -2.1458 C   0  0  0  0  0  0  0  0  0  0  0  0
   -3.1030    3.1277   -2.1918 N   0  0  0  0  0  0  0  0  0  0  0  0
   -3.7499    4.2813   -2.5142 C   0  0  0  0  0  0  0  0  0  0  0  0
   -5.0865    4.1611   -2.4837 O   0  0  0  0  0  0  0  0  0  0  0  0
   -3.1985    5.3343   -2.7995 O   0  0  0  0  0  0  0  0  0  0  0  0
  2  5  1  0
  2  3  1  0
  2  1  1  6
  3  4  1  0
  5  6  1  0
  6  7  1  0
  7  8  1  0
  8  9  1  0
  9 10  1  0
 10 11  1  0
 10 12  2  0
M  END
>  <DRUGBANK_ID>  (1) 
DB02437

>  <SECONDARY_ACCESSION_NUMBERS>  (1) 
EXPT02012

>  <COMMON_NAME>  (1) 
(5r)-5-Amino-6-Hydroxyhexylcarbamic Acid

$$$$
