24U
     RDKit          3D

 23 24  0  0  0  0  0  0  0  0999 V2000
   -1.0646    0.4237    0.3045 N   0  0  0  0  0  0  0  0  0  0  0  0
   -0.7320   -0.9966   -0.0057 C   0  0  2  0  0  0  0  0  0  0  0  0
   -1.4897   -2.1346    0.6736 C   0  0  0  0  0  0  0  0  0  0  0  0
   -1.3728   -3.3217    0.3300 O   0  0  0  0  0  0  0  0  0  0  0  0
   -2.3532   -1.7169    1.6209 N   0  0  0  0  0  0  0  0  0  0  0  0
   -3.5567   -2.4108    2.0047 C   0  0  0  0  0  0  0  0  0  0  0  0
   -3.7114   -2.2207    3.4721 C   0  0  0  0  0  0  0  0  0  0  0  0
   -3.7715   -3.3510    4.2703 C   0  0  0  0  0  0  0  0  0  0  0  0
   -3.8612   -3.2106    5.6450 C   0  0  0  0  0  0  0  0  0  0  0  0
   -3.7918   -1.9422    6.2413 C   0  0  0  0  0  0  0  0  0  0  0  0
   -3.7079   -1.8000    7.7245 C   0  0  0  0  0  0  0  0  0  0  0  0
   -3.6204   -0.5811    8.3147 N   0  0  0  0  0  0  0  0  0  0  0  0
   -3.6952   -2.8099    8.5375 N   0  0  0  0  0  0  0  0  0  0  0  0
   -3.7488   -0.8031    5.4312 C   0  0  0  0  0  0  0  0  0  0  0  0
   -3.7322   -0.9403    4.0520 C   0  0  0  0  0  0  0  0  0  0  0  0
    0.7326   -1.1148    0.3707 C   0  0  0  0  0  0  0  0  0  0  0  0
    1.3047    0.2162   -0.0753 C   0  0  0  0  0  0  0  0  0  0  0  0
    0.1586    1.2166    0.1070 C   0  0  0  0  0  0  0  0  0  0  0  0
   -2.2685    1.1210    0.4352 C   0  0  0  0  0  0  0  0  0  0  0  0
   -3.6752    0.4794    0.3626 C   0  0  0  0  0  0  0  0  0  0  0  0
   -4.1576   -0.2245   -0.9045 C   0  0  0  0  0  0  0  0  0  0  0  0
   -3.1727   -1.1051   -1.6202 C   0  0  0  0  0  0  0  0  0  0  0  0
   -2.2351    2.3167    0.7652 O   0  0  0  0  0  0  0  0  0  0  0  0
  1 19  1  0
  2  1  1  0
  2  3  1  1
  3  5  1  0
  4  3  2  0
  6  5  1  0
  6  7  1  0
  7 15  1  0
  7  8  2  0
  8  9  1  0
  9 10  2  0
 10 11  1  0
 11 13  2  0
 11 12  1  0
 14 10  1  0
 15 14  2  0
 16  2  1  0
 16 17  1  0
 17 18  1  0
 18  1  1  0
 19 23  2  0
 19 20  1  0
 20 21  1  0
 21 22  1  0
M  END
>  <DRUGBANK_ID>  (1) 
DB06929

>  <COMMON_NAME>  (1) 
1-butanoyl-N-(4-carbamimidoylbenzyl)-L-prolinamide

$$$$
