
     RDKit          3D

 21 21  0  0  0  0  0  0  0  0999 V2000
   -1.5204   -1.7866   -0.0066 C   0  0  0  0  0  0  0  0  0  0  0  0
   -0.3943   -0.8005   -0.1568 C   0  0  0  0  0  0  0  0  0  0  0  0
    0.8607   -1.3242   -0.2202 N   0  0  0  0  0  0  0  0  0  0  0  0
    1.9024   -0.4670   -0.3391 C   0  0  0  0  0  0  0  0  0  0  0  0
    1.7781    0.9230   -0.3594 C   0  0  0  0  0  0  0  0  0  0  0  0
    3.0574    1.7379   -0.0396 C   0  0  0  0  0  0  0  0  0  0  0  0
    3.7437    1.5233    1.2464 O   0  0  0  0  0  0  0  0  0  0  0  0
    2.7632    1.8082    2.6429 P   0  0  0  0  0  0  0  0  0  0  0  0
    2.8376    3.3696    2.2533 O   0  0  0  0  0  0  0  0  0  0  0  0
    1.4613    1.1755    1.9795 O   0  0  0  0  0  0  0  0  0  0  0  0
    1.8856    2.0631    3.8928 O   0  0  0  0  0  0  0  0  0  0  0  0
    0.4336    1.4695   -0.3224 C   0  0  0  0  0  0  0  0  0  0  0  0
    0.1631    2.9591   -0.2453 C   0  0  0  0  0  0  0  0  0  0  0  0
    0.7213    3.5925    0.9212 N   0  0  0  0  0  0  0  0  0  0  0  0
    0.4941    5.0136    0.9425 O   0  0  0  0  0  0  0  0  0  0  0  0
    1.3874    5.6437    0.0424 C   0  0  0  0  0  0  0  0  0  0  0  0
    2.9064    5.3986    0.0894 C   0  0  0  0  0  0  0  0  0  0  0  0
    3.3906    4.7785   -1.0278 O   0  0  0  0  0  0  0  0  0  0  0  0
    3.6542    5.7670    0.9810 O   0  0  0  0  0  0  0  0  0  0  0  0
   -0.6471    0.5719   -0.2113 C   0  0  0  0  0  0  0  0  0  0  0  0
   -1.9556    0.9647   -0.1032 O   0  0  0  0  0  0  0  0  0  0  0  0
  1  2  1  0
  2  3  2  0
  2 20  1  0
  3  4  1  0
  4  5  2  0
  5  6  1  0
  5 12  1  0
  6  7  1  0
  7  8  1  0
  8  9  1  0
  8 10  1  0
  8 11  2  0
 12 13  1  0
 12 20  2  0
 13 14  1  0
 14 15  1  0
 15 16  1  0
 16 17  1  0
 17 18  1  0
 17 19  2  0
 20 21  1  0
M  END
>  <DRUGBANK_ID>  (1) 
DB02783

>  <SECONDARY_ACCESSION_NUMBERS>  (1) 
EXPT01857

>  <COMMON_NAME>  (1) 
4'-Deoxy-4'-Acetylyamino-Pyridoxal-5'-Phosphate

>  <UNII>  (1) 
TJZ8V4IIP7

$$$$
