
     RDKit          3D

 37 42  0  0  1  0  0  0  0  0999 V2000
    1.3530    0.2085   -0.5393 C   0  0  0  0  0  0  0  0  0  0  0  0
   -0.0237   -0.6552    0.9219 N   0  0  0  0  0  0  0  0  0  0  0  0
   -0.0721   -0.1082    2.3987 N   0  0  0  0  0  0  0  0  0  0  0  0
    0.0099   -0.8096    3.5062 N   0  0  0  0  0  0  0  0  0  0  0  0
   -0.1489   -2.0741    3.2187 C   0  0  0  0  0  0  0  0  0  0  0  0
   -0.1192   -2.9532    4.4695 C   0  0  0  0  0  0  0  0  0  0  0  0
    0.0973   -2.2202    1.7827 C   0  0  0  0  0  0  0  0  0  0  0  0
    1.4025   -2.9781    1.5047 C   0  0  0  0  0  0  0  0  0  0  0  0
    2.1567   -1.7441    1.8297 C   0  0  0  0  0  0  0  0  0  0  0  0
    1.7949   -0.4169    1.1141 C   0  0  0  0  0  0  0  0  0  0  0  0
    1.0944   -1.5796   -0.2362 C   0  0  0  0  0  0  0  0  0  0  0  0
    1.7797   -2.5710   -0.7428 N   0  0  0  0  0  0  0  0  0  0  0  0
    1.6480   -3.4597    0.2000 C   0  0  0  0  0  0  0  0  0  0  0  0
   -0.3267   -0.6319   -1.1363 C   0  0  0  0  0  0  0  0  0  0  0  0
   -0.7580    0.9527   -0.6335 C   0  0  0  0  0  0  0  0  0  0  0  0
   -1.5366    0.9797   -2.3469 C   0  0  0  0  0  0  0  0  0  0  0  0
   -1.0668    0.4672   -3.7908 C   0  0  0  0  0  0  0  0  0  0  0  0
    0.0685    0.7418   -3.2582 C   0  0  0  0  0  0  0  0  0  0  0  0
    0.0738   -0.4524   -2.4879 C   0  0  0  0  0  0  0  0  0  0  0  0
   -0.7756   -0.9730   -4.7979 C   0  0  0  0  0  0  0  0  0  0  0  0
    0.7787   -1.2318   -5.0548 C   0  0  0  0  0  0  0  0  0  0  0  0
   -1.4165   -2.1977   -4.1438 C   0  0  0  0  0  0  0  0  0  0  0  0
   -1.2748   -1.0204   -6.1810 O   0  0  0  0  0  0  0  0  0  0  0  0
    0.5369    1.1003    0.7935 N   0  0  0  0  0  0  0  0  0  0  0  0
    0.6694    2.1068    2.0553 C   0  0  1  0  0  0  0  0  0  0  0  0
    1.5759    3.3092    1.7469 C   0  0  0  0  0  0  0  0  0  0  0  0
    0.9588    3.9827    0.5403 C   0  0  0  0  0  0  0  0  0  0  0  0
    1.7675    5.1514    0.1005 C   0  0  0  0  0  0  0  0  0  0  0  0
    3.0976    4.7350   -0.1727 O   0  0  0  0  0  0  0  0  0  0  0  0
    3.7594    4.2234    0.9859 C   0  0  0  0  0  0  0  0  0  0  0  0
    3.0545    2.9810    1.5133 C   0  0  0  0  0  0  0  0  0  0  0  0
   -0.6608    2.4671    2.7059 C   0  0  0  0  0  0  0  0  0  0  0  0
   -1.5635    1.5529    3.2622 C   0  0  0  0  0  0  0  0  0  0  0  0
   -2.9085    1.7172    3.2933 C   0  0  0  0  0  0  0  0  0  0  0  0
   -3.3332    2.9971    3.1870 C   0  0  0  0  0  0  0  0  0  0  0  0
   -2.4082    4.0256    3.0509 C   0  0  0  0  0  0  0  0  0  0  0  0
   -1.0884    3.7629    2.7643 C   0  0  0  0  0  0  0  0  0  0  0  0
  1  2  1  0
  2  3  1  0
  2  7  1  0
  3  4  2  0
  4  5  1  0
  5  6  1  0
  5  7  2  0
  7  8  1  0
  8  9  2  0
  8 13  1  0
  9 10  1  0
 10 11  2  0
 10 24  1  0
 11 12  1  0
 11 14  1  0
 12 13  2  0
 14 15  2  0
 14 19  1  0
 15 16  1  0
 15 24  1  0
 16 17  2  0
 17 18  1  0
 17 20  1  0
 18 19  2  0
 20 21  1  0
 20 22  1  0
 20 23  1  0
 25 24  1  0
 25 26  1  6
 25 32  1  0
 26 27  1  0
 26 31  1  0
 27 28  1  0
 28 29  1  0
 29 30  1  0
 30 31  1  0
 32 33  2  0
 32 37  1  0
 33 34  1  0
 34 35  2  0
 35 36  1  0
 36 37  2  0
M  END
>  <DRUGBANK_ID>  (1) 
DB15435

>  <COMMON_NAME>  (1) 
BMS-986158

>  <CAS_NUMBER>  (1) 
1800340-40-2

>  <UNII>  (1) 
X8BW0MQ5PI

$$$$
