
     RDKit          3D

 30 30  0  0  0  0  0  0  0  0999 V2000
    0.9549    0.0113   -0.0947 C   0  0  0  0  0  0  0  0  0  0  0  0
    0.5107   -0.7851    1.1217 C   0  0  0  0  0  0  0  0  0  0  0  0
    1.0049   -0.1198    2.4073 C   0  0  0  0  0  0  0  0  0  0  0  0
    0.4455    1.2991    2.5519 C   0  0  0  0  0  0  0  0  0  0  0  0
   -1.0881    1.2804    2.5538 C   0  0  0  0  0  0  0  0  0  0  0  0
   -1.6187    0.4588    3.7351 C   0  0  0  0  0  0  0  0  0  0  0  0
   -1.1413    1.0605    5.0530 C   0  0  0  0  0  0  0  0  0  0  0  0
   -1.5585    2.5175    5.1390 C   0  0  0  0  0  0  0  0  0  0  0  0
   -3.0506    2.5756    5.1921 C   0  0  0  0  0  0  0  0  0  0  0  0
   -3.7047    3.0043    6.2649 C   0  0  0  0  0  0  0  0  0  0  0  0
   -2.9971    3.6394    7.4155 C   0  0  0  0  0  0  0  0  0  0  0  0
   -3.3249    5.1303    7.4052 C   0  0  0  0  0  0  0  0  0  0  0  0
   -4.8030    5.3508    7.6145 C   0  0  0  0  0  0  0  0  0  0  0  0
   -5.1550    4.6713    8.8908 C   0  0  0  0  0  0  0  0  0  0  0  0
   -4.3687    5.3196   10.0699 C   0  0  0  0  0  0  0  0  0  0  0  0
   -4.8989    6.6586   10.4764 C   0  0  0  0  0  0  0  0  0  0  0  0
   -6.3845    6.5374   10.8605 C   0  0  0  0  0  0  0  0  0  0  0  0
   -6.7570    5.7357   12.1516 C   0  0  0  0  0  0  0  0  0  0  0  0
   -7.2654    6.3258   13.0876 O   0  0  0  0  0  0  0  0  0  0  0  0
   -6.5838    4.3675   12.2866 N   0  0  0  0  0  0  0  0  0  0  0  0
   -6.1522    3.4011   11.3069 C   0  0  0  0  0  0  0  0  0  0  0  0
   -4.7332    2.7809   11.4994 C   0  0  0  0  0  0  0  0  0  0  0  0
   -4.8335    1.7650   12.5621 C   0  0  0  0  0  0  0  0  0  0  0  0
   -5.8598    0.8261   12.4669 C   0  0  0  0  0  0  0  0  0  0  0  0
   -6.1134   -0.0024   13.5289 C   0  0  0  0  0  0  0  0  0  0  0  0
   -5.2735    0.0631   14.6346 C   0  0  0  0  0  0  0  0  0  0  0  0
   -5.4716   -0.7740   15.6920 O   0  0  0  0  0  0  0  0  0  0  0  0
   -4.2117    0.9666   14.6984 C   0  0  0  0  0  0  0  0  0  0  0  0
   -3.3816    1.0209   15.7752 O   0  0  0  0  0  0  0  0  0  0  0  0
   -3.9872    1.8405   13.6673 C   0  0  0  0  0  0  0  0  0  0  0  0
  1  2  1  0
  2  3  1  0
  3  4  1  0
  4  5  1  0
  5  6  1  0
  6  7  1  0
  7  8  1  0
  8  9  1  0
  9 10  2  0
 10 11  1  0
 11 12  1  0
 12 13  1  0
 13 14  1  0
 14 15  1  0
 15 16  1  0
 16 17  1  0
 17 18  1  0
 18 19  2  0
 18 20  1  0
 20 21  1  0
 21 22  1  0
 22 23  1  0
 23 24  2  0
 23 30  1  0
 24 25  1  0
 25 26  2  0
 26 27  1  0
 26 28  1  0
 28 29  1  0
 28 30  2  0
M  END
>  <DRUGBANK_ID>  (1) 
DB17036

>  <COMMON_NAME>  (1) 
N-oleoyldopamine

>  <CAS_NUMBER>  (1) 
105955-11-1

>  <UNII>  (1) 
T87P7X9XSZ

>  <SYNONYMS>  (1) 
(9z)- n-(2-(3,4-dihydroxyphenyl)ethyl)-9-octadecenamide

$$$$
