2FR
     RDKit          3D

 30 33  0  0  0  0  0  0  0  0999 V2000
    1.3696   -0.2101    0.0190 C   0  0  0  0  0  0  0  0  0  0  0  0
   -0.4940    1.3442    0.0355 C   0  0  0  0  0  0  0  0  0  0  0  0
   -1.3865    0.2825   -0.0007 C   0  0  0  0  0  0  0  0  0  0  0  0
   -0.8987   -1.0182   -0.0257 C   0  0  0  0  0  0  0  0  0  0  0  0
    0.6399   -3.3804   -1.3982 C   0  0  0  0  0  0  0  0  0  0  0  0
    0.9818   -2.7332   -0.0507 C   0  0  2  0  0  0  0  0  0  0  0  0
   -2.9281   -3.4337   11.0092 N   0  0  0  0  0  0  0  0  0  0  0  0
   -4.0454   -3.7486    6.9437 C   0  0  0  0  0  0  0  0  0  0  0  0
   -4.1276   -4.2485    5.6414 C   0  0  0  0  0  0  0  0  0  0  0  0
   -2.5527   -3.7158    9.7327 C   0  0  0  0  0  0  0  0  0  0  0  0
   -3.6947   -2.4016    7.1193 C   0  0  0  0  0  0  0  0  0  0  0  0
   -3.7830   -3.4252    4.5625 C   0  0  0  0  0  0  0  0  0  0  0  0
   -3.3419   -2.1113    4.7569 C   0  0  0  0  0  0  0  0  0  0  0  0
   -3.3300   -1.5929    6.0446 C   0  0  0  0  0  0  0  0  0  0  0  0
   -5.8087   -5.4814    0.6809 C   0  0  0  0  0  0  0  0  0  0  0  0
   -4.7842   -4.8598    1.5564 C   0  0  0  0  0  0  0  0  0  0  0  0
   -2.8726   -4.0042    2.3265 C   0  0  0  0  0  0  0  0  0  0  0  0
   -3.4462   -4.5934    1.2100 C   0  0  0  0  0  0  0  0  0  0  0  0
   -2.6620   -4.8087    0.0905 C   0  0  0  0  0  0  0  0  0  0  0  0
   -1.5151   -3.6611    2.3647 C   0  0  0  0  0  0  0  0  0  0  0  0
   -0.7912   -3.9266    1.2095 C   0  0  0  0  0  0  0  0  0  0  0  0
   -1.7353   -2.9813    9.1792 O   0  0  0  0  0  0  0  0  0  0  0  0
   -3.1905   -4.9225    9.0717 C   0  0  0  0  0  0  0  0  0  0  0  0
   -4.3675   -4.6184    8.1350 C   0  0  0  0  0  0  0  0  0  0  0  0
   -3.8858   -3.9445    3.2587 N   0  0  0  0  0  0  0  0  0  0  0  0
   -5.0360   -4.5383    2.8306 N   0  0  0  0  0  0  0  0  0  0  0  0
   -1.3594   -4.4749    0.1170 N   0  0  0  0  0  0  0  0  0  0  0  0
    0.5136   -3.4977    1.1049 N   0  0  0  0  0  0  0  0  0  0  0  0
    0.4818   -1.2936    0.0034 C   0  0  0  0  0  0  0  0  0  0  0  0
    0.8802    1.1008    0.0086 C   0  0  0  0  0  0  0  0  0  0  0  0
  1 29  2  0
  1 30  1  0
  2  3  1  0
  2 30  2  0
  3  4  2  0
  4 29  1  0
  6 29  1  0
  6 28  1  0
  6  5  1  6
  7 10  1  0
  8  9  2  0
  8 11  1  0
  8 24  1  0
  9 12  1  0
 10 22  2  0
 10 23  1  0
 11 14  2  0
 12 13  2  0
 12 25  1  0
 13 14  1  0
 15 16  1  0
 16 18  1  0
 16 26  2  0
 17 18  2  0
 17 20  1  0
 17 25  1  0
 18 19  1  0
 19 27  2  0
 20 21  2  0
 21 27  1  0
 21 28  1  0
 23 24  1  0
 25 26  1  0
M  END
>  <DRUGBANK_ID>  (1) 
DB06963

>  <COMMON_NAME>  (1) 
3-[3-(3-methyl-6-{[(1S)-1-phenylethyl]amino}-1H-pyrazolo[4,3-c]pyridin-1-yl)phenyl]propanamide

$$$$
