
     RDKit          3D

 30 33  0  0  0  0  0  0  0  0999 V2000
    0.6569    0.5470   -0.1414 C   0  0  0  0  0  0  0  0  0  0  0  0
    0.2387    0.8580    1.3237 C   0  0  0  0  0  0  0  0  0  0  0  0
    1.0158    1.8032    2.1172 N   0  0  0  0  0  0  0  0  0  0  0  0
    0.4820    1.7915    3.5197 C   0  0  0  0  0  0  0  0  0  0  0  0
    0.7561    0.6289    4.5060 C   0  0  0  0  0  0  0  0  0  0  0  0
    2.4807    1.5307    2.0623 C   0  0  0  0  0  0  0  0  0  0  0  0
    3.1366    0.2787    2.7158 C   0  0  0  0  0  0  0  0  0  0  0  0
    2.6128   -1.0710    2.4175 N   0  0  0  0  0  0  0  0  0  0  0  0
    1.7377   -1.3715    1.3283 C   0  0  0  0  0  0  0  0  0  0  0  0
    1.2517   -2.6386    0.6497 C   0  0  0  0  0  0  0  0  0  0  0  0
    1.8934   -3.6503    1.4060 C   0  0  0  0  0  0  0  0  0  0  0  0
    2.7346   -3.3784    2.4505 C   0  0  0  0  0  0  0  0  0  0  0  0
    3.2764   -4.5750    2.7398 C   0  0  0  0  0  0  0  0  0  0  0  0
    2.6034   -5.5698    2.0921 C   0  0  0  0  0  0  0  0  0  0  0  0
    1.7579   -4.9790    1.1911 N   0  0  0  0  0  0  0  0  0  0  0  0
    2.7566   -6.9468    2.1681 C   0  0  0  0  0  0  0  0  0  0  0  0
    3.5203   -7.5741    3.0923 C   0  0  0  0  0  0  0  0  0  0  0  0
    3.6931   -9.0001    2.8707 C   0  0  0  0  0  0  0  0  0  0  0  0
    3.0986   -9.8402    1.9609 C   0  0  0  0  0  0  0  0  0  0  0  0
    3.3739  -11.1796    2.0979 C   0  0  0  0  0  0  0  0  0  0  0  0
    4.2344  -11.6589    3.0981 C   0  0  0  0  0  0  0  0  0  0  0  0
    4.8795  -10.7944    3.9762 C   0  0  0  0  0  0  0  0  0  0  0  0
    4.5962   -9.4715    3.8258 C   0  0  0  0  0  0  0  0  0  0  0  0
    5.0780   -8.4618    4.6101 N   0  0  0  0  0  0  0  0  0  0  0  0
    4.3936   -7.3120    4.3731 C   0  0  0  0  0  0  0  0  0  0  0  0
    4.5525   -6.4154    5.1732 O   0  0  0  0  0  0  0  0  0  0  0  0
    2.7756  -12.0326    1.2620 F   0  0  0  0  0  0  0  0  0  0  0  0
    4.4013   -4.6132    3.6214 C   0  0  0  0  0  0  0  0  0  0  0  0
    3.1742   -2.1265    3.0573 C   0  0  0  0  0  0  0  0  0  0  0  0
    3.9725   -1.9994    3.9535 O   0  0  0  0  0  0  0  0  0  0  0  0
  1  2  1  0
  2  3  1  0
  3  4  1  0
  3  6  1  0
  4  5  1  0
  6  7  1  0
  7  8  1  0
  8  9  1  0
  8 29  1  0
  9 10  1  0
 10 11  1  0
 11 12  2  0
 11 15  1  0
 12 13  1  0
 12 29  1  0
 13 14  2  0
 13 28  1  0
 14 15  1  0
 14 16  1  0
 16 17  2  0
 17 18  1  0
 17 25  1  0
 18 19  2  0
 18 23  1  0
 19 20  1  0
 20 21  2  0
 20 27  1  0
 21 22  1  0
 22 23  2  0
 23 24  1  0
 24 25  1  0
 25 26  2  0
 29 30  2  0
M  END
>  <DRUGBANK_ID>  (1) 
DB11741

>  <COMMON_NAME>  (1) 
Famitinib

>  <CAS_NUMBER>  (1) 
1044040-56-3

>  <UNII>  (1) 
768FW21J3L

$$$$
