
     RDKit          3D

 21 23  0  0  0  0  0  0  0  0999 V2000
    1.3901    2.2852   -1.5782 N   0  0  0  0  0  0  0  0  0  0  0  0
    0.4931    2.7714   -0.5100 C   0  0  0  0  0  0  0  0  0  0  0  0
    0.9084    2.2894    0.9172 C   0  0  2  0  0  0  0  0  0  0  0  0
    0.8376    0.7653    0.9754 C   0  0  0  0  0  0  0  0  0  0  0  0
   -0.3047   -0.0259    1.1817 C   0  0  0  0  0  0  0  0  0  0  0  0
   -0.2566   -1.3954    0.8657 C   0  0  0  0  0  0  0  0  0  0  0  0
    0.9022   -1.9479    0.3110 C   0  0  0  0  0  0  0  0  0  0  0  0
    0.9411   -3.5850   -0.2093 Cl  0  0  0  0  0  0  0  0  0  0  0  0
    2.0417   -1.1774    0.1484 C   0  0  0  0  0  0  0  0  0  0  0  0
    2.0227    0.1447    0.5433 C   0  0  0  0  0  0  0  0  0  0  0  0
    0.4550    3.1320    2.0874 C   0  0  0  0  0  0  0  0  0  0  0  0
    0.1911    2.5890    3.3511 C   0  0  0  0  0  0  0  0  0  0  0  0
    0.0386    3.4226    4.4610 C   0  0  0  0  0  0  0  0  0  0  0  0
    0.1707    4.8029    4.3108 C   0  0  0  0  0  0  0  0  0  0  0  0
    0.4896    5.3517    3.0742 C   0  0  0  0  0  0  0  0  0  0  0  0
    0.5956    4.5284    1.9681 C   0  0  0  0  0  0  0  0  0  0  0  0
   -0.1027    5.7134    5.3880 C   0  0  0  0  0  0  0  0  0  0  0  0
   -0.9660    6.8290    5.3829 C   0  0  0  0  0  0  0  0  0  0  0  0
   -0.9241    7.4975    6.5345 N   0  0  0  0  0  0  0  0  0  0  0  0
   -0.0317    6.8064    7.2683 N   0  0  0  0  0  0  0  0  0  0  0  0
    0.4753    5.7121    6.6261 C   0  0  0  0  0  0  0  0  0  0  0  0
  2  1  1  0
  3 11  1  0
  3  4  1  0
  3  2  1  6
  4  5  2  0
  5  6  1  0
  6  7  2  0
  7  8  1  0
  7  9  1  0
 10  4  1  0
 10  9  2  0
 11 12  2  0
 11 16  1  0
 12 13  1  0
 13 14  2  0
 14 15  1  0
 14 17  1  0
 15 16  2  0
 17 18  1  0
 17 21  2  0
 18 19  2  0
 19 20  1  0
 21 20  1  0
M  END
>  <DRUGBANK_ID>  (1) 
DB07858

>  <COMMON_NAME>  (1) 
(2S)-2-(4-chlorophenyl)-2-[4-(1H-pyrazol-4-yl)phenyl]ethanamine

$$$$
