2C2
     RDKit          3D

 14 15  0  0  0  0  0  0  0  0999 V2000
   -3.1419    1.4956   -2.4995 O   0  0  0  0  0  0  0  0  0  0  0  0
   -1.9528    0.8413   -2.4904 C   0  0  0  0  0  0  0  0  0  0  0  0
   -1.5789    0.2703   -3.5096 O   0  0  0  0  0  0  0  0  0  0  0  0
   -1.2449    0.8279   -1.0888 C   0  0  1  0  0  0  0  0  0  0  0  0
    0.1731    0.7571   -1.1521 O   0  0  0  0  0  0  0  0  0  0  0  0
   -1.5792    2.0189   -0.3636 O   0  0  0  0  0  0  0  0  0  0  0  0
   -2.4423    1.9066    0.6938 C   0  0  0  0  0  0  0  0  0  0  0  0
   -2.8545    0.6795    1.2237 C   0  0  0  0  0  0  0  0  0  0  0  0
   -2.4181   -0.5655    0.6171 C   0  0  0  0  0  0  0  0  0  0  0  0
   -1.6503   -0.4782   -0.4693 C   0  0  0  0  0  0  0  0  0  0  0  0
   -2.8814    3.0996    1.2745 C   0  0  0  0  0  0  0  0  0  0  0  0
   -3.7039    3.0667    2.4031 C   0  0  0  0  0  0  0  0  0  0  0  0
   -4.0912    1.8437    2.9484 C   0  0  0  0  0  0  0  0  0  0  0  0
   -3.6746    0.6528    2.3548 C   0  0  0  0  0  0  0  0  0  0  0  0
  1  2  1  0
  2  3  2  0
  4  6  1  0
  4 10  1  0
  4  5  1  6
  4  2  1  0
  6  7  1  0
  7 11  1  0
  7  8  2  0
  8  9  1  0
  8 14  1  0
  9 10  2  0
 11 12  2  0
 12 13  1  0
 13 14  2  0
M  END
>  <DRUGBANK_ID>  (1) 
DB06952

>  <COMMON_NAME>  (1) 
(2S)-2-HYDROXY-2H-CHROMENE-2-CARBOXYLIC ACID

$$$$
