
     RDKit          3D

 36 41  0  0  0  0  0  0  0  0999 V2000
   -2.3880    0.1919    0.5931 C   0  0  0  0  0  0  0  0  0  0  0  0
   -0.9761    0.0673    0.3141 C   0  0  0  0  0  0  0  0  0  0  0  0
   -0.1963   -1.0476    0.0503 C   0  0  0  0  0  0  0  0  0  0  0  0
    1.4519   -0.4143   -0.1030 S   0  0  0  0  0  0  0  0  0  0  0  0
    0.8670    1.1926    0.0299 C   0  0  0  0  0  0  0  0  0  0  0  0
   -0.4154    1.2956    0.1851 N   0  0  0  0  0  0  0  0  0  0  0  0
    1.6378    2.4181    0.0295 C   0  0  0  0  0  0  0  0  0  0  0  0
    2.4484    2.7961   -1.0310 C   0  0  0  0  0  0  0  0  0  0  0  0
    3.0449    4.0536   -1.0093 C   0  0  0  0  0  0  0  0  0  0  0  0
    2.7821    4.9023    0.0585 C   0  0  0  0  0  0  0  0  0  0  0  0
    1.9490    4.5986    1.0731 N   0  0  0  0  0  0  0  0  0  0  0  0
    1.3830    3.3707    1.0243 C   0  0  0  0  0  0  0  0  0  0  0  0
   -0.4349   -2.5219   -0.0184 C   0  0  0  0  0  0  0  0  0  0  0  0
    0.4999   -3.3086    0.0195 O   0  0  0  0  0  0  0  0  0  0  0  0
   -1.7099   -3.1457   -0.0664 N   0  0  0  0  0  0  0  0  0  0  0  0
   -3.0373   -2.6611   -0.2147 C   0  0  0  0  0  0  0  0  0  0  0  0
   -3.2302   -1.7370   -1.2680 C   0  0  0  0  0  0  0  0  0  0  0  0
   -4.3361   -0.8885   -1.2680 C   0  0  0  0  0  0  0  0  0  0  0  0
   -5.2704   -1.0029   -0.2364 C   0  0  0  0  0  0  0  0  0  0  0  0
   -5.1918   -2.0624    0.7267 C   0  0  0  0  0  0  0  0  0  0  0  0
   -4.0812   -2.9534    0.7698 C   0  0  0  0  0  0  0  0  0  0  0  0
   -3.8172   -4.0131    1.8441 C   0  0  0  0  0  0  0  0  0  0  0  0
   -4.5701   -4.7557    2.7955 C   0  0  0  0  0  0  0  0  0  0  0  0
   -3.6379   -5.6034    3.4962 N   0  0  0  0  0  0  0  0  0  0  0  0
   -3.4219   -6.3247    4.7461 C   0  0  0  0  0  0  0  0  0  0  0  0
   -2.1312   -6.7433    4.8283 C   0  0  0  0  0  0  0  0  0  0  0  0
   -1.0936   -6.1597    3.5440 S   0  0  0  0  0  0  0  0  0  0  0  0
   -2.4566   -5.3612    2.8416 C   0  0  0  0  0  0  0  0  0  0  0  0
   -2.4930   -4.3897    1.9843 N   0  0  0  0  0  0  0  0  0  0  0  0
   -4.2722   -6.3996    6.0363 C   0  0  0  0  0  0  0  0  0  0  0  0
   -4.6033   -5.1905    6.8501 N   0  0  0  0  0  0  0  0  0  0  0  0
   -5.1964   -4.1416    6.0120 C   0  0  0  0  0  0  0  0  0  0  0  0
   -4.0758   -3.3501    5.3010 C   0  0  0  0  0  0  0  0  0  0  0  0
   -3.0461   -2.7994    6.1144 O   0  0  0  0  0  0  0  0  0  0  0  0
   -2.4311   -3.8699    6.8622 C   0  0  0  0  0  0  0  0  0  0  0  0
   -3.5446   -4.5317    7.6750 C   0  0  0  0  0  0  0  0  0  0  0  0
  1  2  1  0
  2  3  2  0
  2  6  1  0
  3  4  1  0
  3 13  1  0
  4  5  1  0
  5  6  2  0
  5  7  1  0
  7  8  2  0
  7 12  1  0
  8  9  1  0
  9 10  2  0
 10 11  1  0
 11 12  2  0
 13 14  2  0
 13 15  1  0
 15 16  1  0
 16 17  2  0
 16 21  1  0
 17 18  1  0
 18 19  2  0
 19 20  1  0
 20 21  2  0
 21 22  1  0
 22 23  2  0
 22 29  1  0
 23 24  1  0
 24 25  1  0
 24 28  1  0
 25 26  2  0
 25 30  1  0
 26 27  1  0
 27 28  1  0
 28 29  2  0
 30 31  1  0
 31 32  1  0
 31 36  1  0
 32 33  1  0
 33 34  1  0
 34 35  1  0
 35 36  1  0
M  END
>  <DRUGBANK_ID>  (1) 
DB12186

>  <COMMON_NAME>  (1) 
SRT-2104

>  <CAS_NUMBER>  (1) 
1093403-33-8

>  <UNII>  (1) 
4521NR0J09

$$$$
