1062
     RDKit          3D

 26 27  0  0  1  0  0  0  0  0999 V2000
    1.2282   -0.0075    0.3289 O   0  0  0  0  0  0  0  0  0  0  0  0
   -1.7616    0.1287    0.0902 O   0  0  0  0  0  0  0  0  0  0  0  0
   -1.8698    1.6774    1.6118 O   0  0  0  0  0  0  0  0  0  0  0  0
    1.9102    0.6859   -4.6076 N   0  0  0  0  0  0  0  0  0  0  0  0
    0.9379    0.7741    2.4249 C   0  0  0  0  0  0  0  0  0  0  0  0
    0.5338   -0.6729    2.8012 C   0  0  0  0  0  0  0  0  0  0  0  0
    0.4325    1.8019    3.4349 C   0  0  0  0  0  0  0  0  0  0  0  0
    0.4943    1.0503    0.9684 C   0  0  0  0  0  0  0  0  0  0  0  0
    0.8904   -1.0051    4.2319 C   0  0  0  0  0  0  0  0  0  0  0  0
    0.7691    1.4264    4.8598 C   0  0  0  0  0  0  0  0  0  0  0  0
    0.2876    0.0177    5.1809 C   0  0  0  0  0  0  0  0  0  0  0  0
    0.9862    2.4458    0.5014 C   0  0  0  0  0  0  0  0  0  0  0  0
   -1.1360    0.9887    0.9152 C   0  0  0  0  0  0  0  0  0  0  0  0
    0.1811    3.5821    0.7266 C   0  0  0  0  0  0  0  0  0  0  0  0
    2.2601    2.6773   -0.0473 C   0  0  0  0  0  0  0  0  0  0  0  0
    0.6185    4.8736    0.4591 C   0  0  0  0  0  0  0  0  0  0  0  0
    2.7154    3.9786   -0.2856 C   0  0  0  0  0  0  0  0  0  0  0  0
    1.8901    5.0726   -0.0472 C   0  0  0  0  0  0  0  0  0  0  0  0
   -1.0201   -0.7327   -0.7252 C   0  0  0  0  0  0  0  0  0  0  0  0
   -0.1463    0.0521   -1.6900 C   0  0  0  0  0  0  0  0  0  0  0  0
    1.4772    1.5101   -3.4824 C   0  0  0  0  0  0  0  0  0  0  0  0
    2.6649    1.4762   -5.5902 C   0  0  0  0  0  0  0  0  0  0  0  0
    2.5580   -0.5689   -4.1988 C   0  0  0  0  0  0  0  0  0  0  0  0
    0.6034    0.7253   -2.5176 C   0  0  0  0  0  0  0  0  0  0  0  0
    3.9698    2.1057   -5.1053 C   0  0  0  0  0  0  0  0  0  0  0  0
    3.8154   -0.4380   -3.3443 C   0  0  0  0  0  0  0  0  0  0  0  0
  1  8  1  0
  2 13  1  0
  2 19  1  0
  3 13  2  0
  4 21  1  0
  4 22  1  0
  4 23  1  0
  5  6  1  0
  5  7  1  0
  5  8  1  0
  6  9  1  0
  7 10  1  0
  8 12  1  0
  8 13  1  0
  9 11  1  0
 10 11  1  0
 12 14  2  0
 12 15  1  0
 14 16  1  0
 15 17  2  0
 16 18  2  0
 17 18  1  0
 19 20  1  0
 20 24  3  0
 21 24  1  0
 22 25  1  0
 23 26  1  0
M  END
>  <DRUGBANK_ID>  (1) 
DB01062

>  <SECONDARY_ACCESSION_NUMBERS>  (1) 
APRD00427

>  <COMMON_NAME>  (1) 
Oxybutynin

>  <CAS_NUMBER>  (1) 
5633-20-5

>  <UNII>  (1) 
K9P6MC7092

>  <SYNONYMS>  (1) 
4-(Diethylamino)-2-butynyl alpha-phenylcyclohexaneglycolic acid ester; 4-Diethylamino-2-butinyl alpha-cyclohexylmandelat; 4-Diethylamino-2-butynyl alpha-phenylcyclohexaneglycolate; Oxibutinina; Oxybutynin; Oxybutynine; Oxybutyninum

$$$$
