
     RDKit          3D

 25 27  0  0  1  0  0  0  0  0999 V2000
    1.0464    0.0136    0.0289 O   0  0  0  0  0  0  0  0  0  0  0  0
    2.9173    1.1058   -1.9857 O   0  0  0  0  0  0  0  0  0  0  0  0
    2.8784   -0.9935    0.7724 O   0  0  0  0  0  0  0  0  0  0  0  0
   -0.2468    3.5246   -0.7267 N   0  0  0  0  0  0  0  0  0  0  0  0
    0.4359    2.3657   -0.0853 C   0  0  0  0  0  0  0  0  0  0  0  0
   -1.7067    3.2720   -0.6193 C   0  0  0  0  0  0  0  0  0  0  0  0
    0.2428    0.9920   -0.6835 C   0  0  0  0  0  0  0  0  0  0  0  0
   -2.0363    1.8980   -1.2009 C   0  0  0  0  0  0  0  0  0  0  0  0
   -1.2542    0.7412   -0.5410 C   0  0  0  0  0  0  0  0  0  0  0  0
    0.0926    4.7949    0.0493 C   0  0  0  0  0  0  0  0  0  0  0  0
    0.2739    3.7180   -2.1649 C   0  0  0  0  0  0  0  0  0  0  0  0
    2.4265   -0.0777    0.1097 C   0  0  0  0  0  0  0  0  0  0  0  0
    3.3587    1.0191   -0.6189 C   0  0  0  0  0  0  0  0  0  0  0  0
    3.2682    2.3989    0.0831 C   0  0  0  0  0  0  0  0  0  0  0  0
    4.8694    0.7299   -0.6052 C   0  0  0  0  0  0  0  0  0  0  0  0
    3.0026    2.4997    1.4609 C   0  0  0  0  0  0  0  0  0  0  0  0
    5.7973    1.8071   -0.4889 C   0  0  0  0  0  0  0  0  0  0  0  0
    3.4088    3.5913   -0.6867 C   0  0  0  0  0  0  0  0  0  0  0  0
    5.3785   -0.5569   -0.5452 C   0  0  0  0  0  0  0  0  0  0  0  0
    2.8356    3.7546    2.0373 C   0  0  0  0  0  0  0  0  0  0  0  0
    7.1182    1.6331   -0.1511 C   0  0  0  0  0  0  0  0  0  0  0  0
    3.3641    4.8361   -0.0759 C   0  0  0  0  0  0  0  0  0  0  0  0
    6.7105   -0.7381   -0.1762 C   0  0  0  0  0  0  0  0  0  0  0  0
    3.0437    4.9127    1.2819 C   0  0  0  0  0  0  0  0  0  0  0  0
    7.5736    0.3466    0.0128 C   0  0  0  0  0  0  0  0  0  0  0  0
  1  7  1  0
  1 12  1  0
  2 13  1  0
  3 12  2  0
  4  5  1  0
  4  6  1  0
  4 10  1  0
  4 11  1  0
  5  7  1  0
  6  8  1  0
  7  9  1  0
  8  9  1  0
 12 13  1  0
 13 14  1  0
 13 15  1  0
 14 16  2  0
 14 18  1  0
 15 17  2  0
 15 19  1  0
 16 20  1  0
 17 21  1  0
 18 22  2  0
 19 23  2  0
 20 24  2  0
 21 25  2  0
 22 24  1  0
 23 25  1  0
M  CHG  1   4   1
M  END
>  <DRUGBANK_ID>  (1) 
DB04843

>  <COMMON_NAME>  (1) 
Mepenzolate

>  <CAS_NUMBER>  (1) 
25990-43-6

>  <UNII>  (1) 
ONW3LB39P7

>  <SYNONYMS>  (1) 
Mepenzolate; Mepenzolic acid

$$$$
