
     RDKit          3D

 22 23  0  0  0  0  0  0  0  0999 V2000
    0.8940    0.0543   -0.1988 C   0  0  0  0  0  0  0  0  0  0  0  0
    0.4858   -0.4998    1.1978 C   0  0  0  0  0  0  0  0  0  0  0  0
    1.0016    0.3025    2.4398 C   0  0  0  0  0  0  0  0  0  0  0  0
    2.5703    0.2190    2.4699 C   0  0  0  0  0  0  0  0  0  0  0  0
    3.2157    0.8890    3.4708 N   0  0  0  0  0  0  0  0  0  0  0  0
    3.2624   -0.4114    1.6604 O   0  0  0  0  0  0  0  0  0  0  0  0
    0.4625    1.7545    2.3769 C   0  0  0  0  0  0  0  0  0  0  0  0
    0.5076   -0.3451    3.7598 C   0  0  0  0  0  0  0  0  0  0  0  0
    0.3980   -0.8305   -1.2813 N   0  0  0  0  0  0  0  0  0  0  0  0
   -1.0638   -0.8980   -1.3214 C   0  0  0  0  0  0  0  0  0  0  0  0
    0.9264   -0.3706   -2.5712 C   0  0  0  0  0  0  0  0  0  0  0  0
    0.5325   -1.7345    3.9319 C   0  0  0  0  0  0  0  0  0  0  0  0
    0.2797   -2.2901    5.1812 C   0  0  0  0  0  0  0  0  0  0  0  0
    0.0092   -1.4689    6.2738 C   0  0  0  0  0  0  0  0  0  0  0  0
   -0.0450   -0.0914    6.1197 C   0  0  0  0  0  0  0  0  0  0  0  0
    0.1601    0.4604    4.8668 C   0  0  0  0  0  0  0  0  0  0  0  0
   -0.9331    1.9806    2.3269 C   0  0  0  0  0  0  0  0  0  0  0  0
   -1.4387    3.2736    2.2541 C   0  0  0  0  0  0  0  0  0  0  0  0
   -0.5658    4.3593    2.2450 C   0  0  0  0  0  0  0  0  0  0  0  0
    0.8097    4.1611    2.2974 C   0  0  0  0  0  0  0  0  0  0  0  0
    1.3188    2.8708    2.3295 C   0  0  0  0  0  0  0  0  0  0  0  0
    0.4656    1.5002   -0.4604 C   0  0  0  0  0  0  0  0  0  0  0  0
  1  9  1  0
  1  2  1  0
  1 22  1  0
  2  3  1  0
  3  7  1  0
  3  8  1  0
  3  4  1  0
  4  6  2  0
  4  5  1  0
  7 17  2  0
  8 12  2  0
  9 10  1  0
  9 11  1  0
 12 13  1  0
 13 14  2  0
 14 15  1  0
 15 16  2  0
 16  8  1  0
 17 18  1  0
 18 19  2  0
 19 20  1  0
 20 21  2  0
 21  7  1  0
M  END
>  <DRUGBANK_ID>  (1) 
DB15597

>  <COMMON_NAME>  (1) 
Aminopentamide

>  <CAS_NUMBER>  (1) 
60-46-8

>  <UNII>  (1) 
IP1B47L61M

>  <SYNONYMS>  (1) 
Aminopentamide; Dimevamida; Dimevamide; Dimevamidum

$$$$
