
     RDKit          3D

 16 18  0  0  0  0  0  0  0  0999 V2000
    4.9359   -1.8587   -1.6302 O   0  0  0  0  0  0  0  0  0  0  0  0
    3.9234   -1.2028   -1.5334 C   0  0  0  0  0  0  0  0  0  0  0  0
    2.4975   -1.9532   -1.5097 C   0  0  0  0  0  0  0  0  0  0  0  0
    2.9065   -1.1047   -0.5739 C   0  0  0  0  0  0  0  0  0  0  0  0
    2.3118   -0.1129    0.2612 C   0  0  0  0  0  0  0  0  0  0  0  0
    2.6980    1.2308    0.2406 C   0  0  0  0  0  0  0  0  0  0  0  0
    1.9313    2.1639    0.9353 C   0  0  0  0  0  0  0  0  0  0  0  0
    0.7616    1.7623    1.5868 C   0  0  0  0  0  0  0  0  0  0  0  0
    0.3551    0.4334    1.5574 C   0  0  0  0  0  0  0  0  0  0  0  0
    1.1777   -0.5128    0.9786 C   0  0  0  0  0  0  0  0  0  0  0  0
    1.0218   -1.8333   -1.7660 C   0  0  0  0  0  0  0  0  0  0  0  0
    0.2646   -0.6407   -1.8757 C   0  0  0  0  0  0  0  0  0  0  0  0
   -1.1476   -0.6261   -1.9066 C   0  0  0  0  0  0  0  0  0  0  0  0
   -1.8600   -1.8133   -1.9526 C   0  0  0  0  0  0  0  0  0  0  0  0
   -1.1525   -3.0094   -1.9419 C   0  0  0  0  0  0  0  0  0  0  0  0
    0.2549   -3.0199   -1.7862 C   0  0  0  0  0  0  0  0  0  0  0  0
  1  2  2  0
  2  3  1  0
  2  4  1  0
  3  4  2  0
  3 11  1  0
  4  5  1  0
  5  6  2  0
  5 10  1  0
  6  7  1  0
  7  8  2  0
  8  9  1  0
  9 10  2  0
 11 12  2  0
 11 16  1  0
 12 13  1  0
 13 14  2  0
 14 15  1  0
 15 16  2  0
M  END
>  <DRUGBANK_ID>  (1) 
DB12173

>  <COMMON_NAME>  (1) 
Diphencyprone

>  <CAS_NUMBER>  (1) 
886-38-4

>  <UNII>  (1) 
I7G14NW5EC

>  <SYNONYMS>  (1) 
Diphenylcyclopropenone

$$$$
