
     RDKit          3D

 10  9  0  0  1  0  0  0  0  0999 V2000
   -0.4878    2.0860   -4.6822 C   0  0  0  0  0  0  0  0  0  0  0  0
   -0.9115    1.9046   -3.2162 C   0  0  2  0  0  0  0  0  0  0  0  0
    0.0162    2.7013   -2.2859 C   0  0  0  0  0  0  0  0  0  0  0  0
    1.3022    2.6110   -2.7121 F   0  0  0  0  0  0  0  0  0  0  0  0
   -0.9418    0.4130   -2.8321 C   0  0  0  0  0  0  0  0  0  0  0  0
   -1.5070    0.1774   -1.4137 C   0  0  2  0  0  0  0  0  0  0  0  0
   -0.9975   -1.0879   -0.8534 N   0  0  0  0  0  0  0  0  0  0  0  0
   -3.0457    0.1653   -1.4507 C   0  0  0  0  0  0  0  0  0  0  0  0
   -3.6402    1.1678   -0.7646 O   0  0  0  0  0  0  0  0  0  0  0  0
   -3.6989   -0.6791   -2.0561 O   0  0  0  0  0  0  0  0  0  0  0  0
  2  5  1  0
  2  3  1  0
  2  1  1  6
  3  4  1  0
  6  8  1  0
  6  7  1  6
  6  5  1  0
  8  9  1  0
  8 10  2  0
M  END
>  <DRUGBANK_ID>  (1) 
DB02542

>  <SECONDARY_ACCESSION_NUMBERS>  (1) 
EXPT02018

>  <COMMON_NAME>  (1) 
(4s)-5-Fluoro-L-Leucine

$$$$
