
     RDKit          3D

 36 39  0  0  1  0  0  0  0  0999 V2000
    1.0819    0.0852    0.0277 C   0  0  0  0  0  0  0  0  0  0  0  0
    0.5621    0.4518   -1.3285 C   0  0  0  0  0  0  0  0  0  0  0  0
   -0.2477   -0.3883   -1.9853 C   0  0  0  0  0  0  0  0  0  0  0  0
   -0.7836   -0.1542   -3.3543 C   0  0  0  0  0  0  0  0  0  0  0  0
   -0.1681   -1.0878   -4.3175 C   0  0  2  0  0  0  0  0  0  0  0  0
   -1.0264   -2.0753   -4.9957 C   0  0  1  0  0  0  0  0  0  0  0  0
   -0.1699   -2.4837   -3.9410 O   0  0  0  0  0  0  0  0  0  0  0  0
   -2.5005   -2.1181   -4.7426 C   0  0  0  0  0  0  0  0  0  0  0  0
   -0.6489   -2.4881   -6.3444 C   0  0  1  0  0  0  0  0  0  0  0  0
   -0.1835   -1.3729   -7.4502 C   0  0  1  0  0  0  0  0  0  0  0  0
   -1.1125   -1.7971   -8.5664 C   0  0  1  0  0  0  0  0  0  0  0  0
   -0.7042   -3.2571   -9.0134 C   0  0  0  0  0  0  0  0  0  0  0  0
    0.1290   -4.1032   -8.0240 C   0  0  0  0  0  0  0  0  0  0  0  0
   -0.5662   -3.9641   -6.7380 C   0  0  2  0  0  0  0  0  0  0  0  0
   -1.7608   -4.9944   -6.5175 C   0  0  0  0  0  0  0  0  0  0  0  0
   -0.5701   -4.9600   -5.7313 O   0  0  0  0  0  0  0  0  0  0  0  0
   -2.5107   -1.4715   -7.9671 O   0  0  0  0  0  0  0  0  0  0  0  0
   -3.6013   -2.2462   -7.7852 C   0  0  0  0  0  0  0  0  0  0  0  0
   -4.3246   -2.2772   -6.7733 O   0  0  0  0  0  0  0  0  0  0  0  0
   -4.0613   -2.9418   -8.9423 C   0  0  0  0  0  0  0  0  0  0  0  0
   -3.3708   -2.7080  -10.0530 C   0  0  0  0  0  0  0  0  0  0  0  0
   -3.6961   -3.0204  -11.3759 C   0  0  0  0  0  0  0  0  0  0  0  0
   -4.7922   -2.3214  -11.8430 C   0  0  0  0  0  0  0  0  0  0  0  0
   -5.1369   -2.4821  -13.1587 C   0  0  0  0  0  0  0  0  0  0  0  0
   -4.4184   -3.4043  -13.9376 C   0  0  0  0  0  0  0  0  0  0  0  0
   -3.2094   -3.9793  -13.4719 C   0  0  0  0  0  0  0  0  0  0  0  0
   -2.8528   -3.8075  -12.1494 C   0  0  0  0  0  0  0  0  0  0  0  0
   -5.0219   -4.1405  -14.9435 O   0  0  0  0  0  0  0  0  0  0  0  0
   -6.4620   -4.0747  -15.0721 C   0  0  0  0  0  0  0  0  0  0  0  0
   -7.4156   -4.7781  -14.0125 C   0  0  0  0  0  0  0  0  0  0  0  0
   -7.2273   -4.3885  -12.6077 N   0  0  0  0  0  0  0  0  0  0  0  0
   -8.2953   -4.6833  -11.6695 C   0  0  0  0  0  0  0  0  0  0  0  0
   -6.0579   -5.0672  -12.0599 C   0  0  0  0  0  0  0  0  0  0  0  0
   -0.3517    0.0615   -7.2008 O   0  0  0  0  0  0  0  0  0  0  0  0
   -0.7602    0.9196   -8.3108 C   0  0  0  0  0  0  0  0  0  0  0  0
    1.0030    1.7724   -1.8896 C   0  0  0  0  0  0  0  0  0  0  0  0
  1  2  1  0
  2  3  2  3
  2 36  1  0
  3  4  1  0
  5  4  1  1
  5  6  1  0
  5  7  1  0
  6  7  1  0
  6  8  1  1
  6  9  1  0
  9 10  1  0
  9 14  1  1
 10 11  1  0
 10 34  1  1
 11 12  1  0
 11 17  1  1
 12 13  1  0
 14 13  1  6
 14 15  1  0
 14 16  1  0
 15 16  1  0
 17 18  1  0
 18 19  2  0
 18 20  1  0
 20 21  2  0
 21 22  1  0
 22 23  2  0
 22 27  1  0
 23 24  1  0
 24 25  2  0
 25 26  1  0
 25 28  1  0
 26 27  2  0
 28 29  1  0
 29 30  1  0
 30 31  1  0
 31 32  1  0
 31 33  1  0
 34 35  1  0
M  END
>  <DRUGBANK_ID>  (1) 
DB12671

>  <COMMON_NAME>  (1) 
Beloranib

>  <CAS_NUMBER>  (1) 
251111-30-5

>  <UNII>  (1) 
FI471K8BU6

>  <SYNONYMS>  (1) 
Beloranib

$$$$
