
     RDKit          3D

 35 40  0  0  1  0  0  0  0  0999 V2000
    3.4848   -0.1591   -0.5507 O   0  0  0  0  0  0  0  0  0  0  0  0
    2.3760    0.0414   -0.0129 C   0  0  0  0  0  0  0  0  0  0  0  0
    1.7569    1.3273    0.1526 N   0  0  0  0  0  0  0  0  0  0  0  0
    2.6346    2.5203    0.1609 C   0  0  1  0  0  0  0  0  0  0  0  0
    2.8951    3.3767   -1.1159 C   0  0  0  0  0  0  0  0  0  0  0  0
    3.5152    4.7247   -0.6767 C   0  0  0  0  0  0  0  0  0  0  0  0
    2.5504    5.4644    0.2200 C   0  0  0  0  0  0  0  0  0  0  0  0
    2.5427    6.6822    0.3541 O   0  0  0  0  0  0  0  0  0  0  0  0
    1.7830    4.6597    1.0081 N   0  0  0  0  0  0  0  0  0  0  0  0
    2.2578    3.4227    1.3418 C   0  0  0  0  0  0  0  0  0  0  0  0
    2.2692    3.0575    2.5146 O   0  0  0  0  0  0  0  0  0  0  0  0
    0.6151    1.1639    1.0090 C   0  0  0  0  0  0  0  0  0  0  0  0
   -0.2757    2.0610    1.6071 C   0  0  0  0  0  0  0  0  0  0  0  0
   -1.2199    1.5471    2.5148 C   0  0  0  0  0  0  0  0  0  0  0  0
   -1.2758    0.1767    2.8347 C   0  0  0  0  0  0  0  0  0  0  0  0
   -2.4780   -0.3807    3.5841 C   0  0  0  0  0  0  0  0  0  0  0  0
   -3.3131   -1.1721    2.5954 C   0  0  0  0  0  0  0  0  0  0  0  0
   -2.9442   -2.3951    2.0055 C   0  0  0  0  0  0  0  0  0  0  0  0
   -3.5881   -2.9814    0.9254 C   0  0  0  0  0  0  0  0  0  0  0  0
   -4.6350   -2.3020    0.3605 C   0  0  0  0  0  0  0  0  0  0  0  0
   -5.7694   -3.2129   -0.2641 C   0  0  0  0  0  0  0  0  0  0  0  0
   -7.1187   -3.5345    0.4298 N   0  0  0  0  0  0  0  0  0  0  0  0
   -7.9572   -2.3293    0.6343 C   0  0  0  0  0  0  0  0  0  0  0  0
   -7.2610   -1.4585    1.6415 C   0  0  0  0  0  0  0  0  0  0  0  0
   -6.6933   -2.0451    2.8228 O   0  0  0  0  0  0  0  0  0  0  0  0
   -6.2018   -3.3929    2.7272 C   0  0  0  0  0  0  0  0  0  0  0  0
   -7.0346   -4.1982    1.7594 C   0  0  0  0  0  0  0  0  0  0  0  0
   -4.6801   -0.9100    0.6850 C   0  0  0  0  0  0  0  0  0  0  0  0
   -4.3377   -0.5089    1.9853 C   0  0  0  0  0  0  0  0  0  0  0  0
   -0.3118   -0.6957    2.2652 C   0  0  0  0  0  0  0  0  0  0  0  0
   -0.1358   -2.0690    2.5047 C   0  0  0  0  0  0  0  0  0  0  0  0
    0.6436   -2.8656    1.6610 C   0  0  0  0  0  0  0  0  0  0  0  0
    1.5530   -2.2725    0.7862 C   0  0  0  0  0  0  0  0  0  0  0  0
    1.5171   -0.8800    0.6770 C   0  0  0  0  0  0  0  0  0  0  0  0
    0.5355   -0.1681    1.3398 C   0  0  0  0  0  0  0  0  0  0  0  0
  1  2  2  0
  2  3  1  0
  2 34  1  0
  3 12  1  0
  4  5  1  0
  4 10  1  0
  4  3  1  6
  5  6  1  0
  6  7  1  0
  7  8  2  0
  7  9  1  0
  9 10  1  0
 10 11  2  0
 12 13  2  0
 12 35  1  0
 13 14  1  0
 14 15  2  0
 15 16  1  0
 15 30  1  0
 16 17  1  0
 17 18  2  0
 17 29  1  0
 18 19  1  0
 19 20  2  0
 20 21  1  0
 20 28  1  0
 21 22  1  0
 22 23  1  0
 22 27  1  0
 23 24  1  0
 24 25  1  0
 25 26  1  0
 26 27  1  0
 28 29  2  0
 30 31  1  0
 30 35  2  0
 31 32  2  0
 32 33  1  0
 33 34  2  0
 34 35  1  0
M  END
>  <DRUGBANK_ID>  (1) 
DB18400

>  <COMMON_NAME>  (1) 
Cemsidomide

>  <CAS_NUMBER>  (1) 
2504235-67-8

>  <UNII>  (1) 
D86MF5H9WJ

>  <SYNONYMS>  (1) 
(3s)-3-(6-((4-(morpholin-4-ylmethyl)phenyl)methyl)-2-oxobenzo(cd)indol-1-yl)piperidine-2,6-dione; 2,6-piperidinedione, 3-(6-((4-(4-morpholinylmethyl)phenyl)methyl)-2-oxobenz(cd)indol-1(2h)-yl)-, (3s)-

$$$$
