
     RDKit          3D

 21 23  0  0  0  0  0  0  0  0999 V2000
    0.0488   -1.0582    0.0446 C   0  0  0  0  0  0  0  0  0  0  0  0
   -0.4085    0.2655    0.0223 C   0  0  0  0  0  0  0  0  0  0  0  0
   -0.7953   -2.1513    0.0704 O   0  0  0  0  0  0  0  0  0  0  0  0
    1.4224   -1.3198    0.0365 C   0  0  0  0  0  0  0  0  0  0  0  0
   -1.8684    0.4922   -0.0048 C   0  0  0  0  0  0  0  0  0  0  0  0
    0.5170    1.3214    0.0053 C   0  0  0  0  0  0  0  0  0  0  0  0
   -2.1587   -1.9226   -0.0239 C   0  0  0  0  0  0  0  0  0  0  0  0
    2.3269   -0.2596   -0.0020 C   0  0  0  0  0  0  0  0  0  0  0  0
   -2.7171   -0.7060   -0.0618 C   0  0  0  0  0  0  0  0  0  0  0  0
   -2.4038    1.5943    0.0046 O   0  0  0  0  0  0  0  0  0  0  0  0
    1.8881    1.0614   -0.0137 C   0  0  0  0  0  0  0  0  0  0  0  0
    0.0907    2.6192    0.0004 O   0  0  0  0  0  0  0  0  0  0  0  0
   -3.0181   -3.1233   -0.0833 C   0  0  0  0  0  0  0  0  0  0  0  0
    3.6586   -0.5554   -0.0320 O   0  0  0  0  0  0  0  0  0  0  0  0
   -3.0436   -4.0632    0.9629 C   0  0  0  0  0  0  0  0  0  0  0  0
   -3.8730   -3.3119   -1.1857 C   0  0  0  0  0  0  0  0  0  0  0  0
   -3.9254   -5.1480    0.9006 C   0  0  0  0  0  0  0  0  0  0  0  0
   -4.7458   -4.4014   -1.2417 C   0  0  0  0  0  0  0  0  0  0  0  0
   -4.7718   -5.3079   -0.1949 C   0  0  0  0  0  0  0  0  0  0  0  0
   -4.0037   -6.0812    1.8995 O   0  0  0  0  0  0  0  0  0  0  0  0
   -5.6496   -6.3522   -0.2663 O   0  0  0  0  0  0  0  0  0  0  0  0
  1  2  2  0
  1  3  1  0
  1  4  1  0
  2  5  1  0
  2  6  1  0
  3  7  1  0
  4  8  2  0
  5  9  1  0
  5 10  2  0
  6 11  2  0
  6 12  1  0
  7 13  1  0
  7  9  2  0
  8 14  1  0
  8 11  1  0
 13 15  2  0
 13 16  1  0
 15 17  1  0
 16 18  2  0
 17 19  2  0
 17 20  1  0
 18 19  1  0
 19 21  1  0
M  END
>  <DRUGBANK_ID>  (1) 
DB15584

>  <COMMON_NAME>  (1) 
Luteolin

>  <CAS_NUMBER>  (1) 
491-70-3

>  <UNII>  (1) 
KUX1ZNC9J2

>  <SYNONYMS>  (1) 
Digitoflavone; Flacitran; Luteoline; Luteolol; Salifazide

$$$$
