
     RDKit          3D

 33 37  0  0  0  0  0  0  0  0999 V2000
    0.9252   -0.0330   -0.0476 C   0  0  0  0  0  0  0  0  0  0  0  0
    0.4795    1.1500    0.7936 C   0  0  0  0  0  0  0  0  0  0  0  0
    0.9336    2.4903    0.2697 C   0  0  0  0  0  0  0  0  0  0  0  0
    1.9097    2.6698   -0.7082 C   0  0  0  0  0  0  0  0  0  0  0  0
    2.2206    3.9540   -1.1716 C   0  0  0  0  0  0  0  0  0  0  0  0
    3.1678    4.0371   -2.1272 F   0  0  0  0  0  0  0  0  0  0  0  0
    1.6041    5.1170   -0.6990 C   0  0  0  0  0  0  0  0  0  0  0  0
    1.9066    6.3565   -1.1658 N   0  0  0  0  0  0  0  0  0  0  0  0
    1.3461    7.4625   -0.6106 C   0  0  0  0  0  0  0  0  0  0  0  0
    1.8323    8.6833   -1.0114 N   0  0  0  0  0  0  0  0  0  0  0  0
    2.4156    9.6594   -0.1008 C   0  0  0  0  0  0  0  0  0  0  0  0
    1.5815   10.9397   -0.0905 C   0  0  0  0  0  0  0  0  0  0  0  0
    1.3361   11.4656   -1.4993 C   0  0  0  0  0  0  0  0  0  0  0  0
    1.0027   10.3336   -2.4839 C   0  0  0  0  0  0  0  0  0  0  0  0
    1.8196    9.0658   -2.3958 C   0  0  0  0  0  0  0  0  0  0  0  0
    0.3012   12.5364   -1.4594 N   0  0  0  0  0  0  0  0  0  0  0  0
    0.0422   13.2283   -2.7385 C   0  0  0  0  0  0  0  0  0  0  0  0
   -0.7025   12.3763   -3.7817 C   0  0  0  0  0  0  0  0  0  0  0  0
   -0.5728   12.8591   -5.2074 C   0  0  0  0  0  0  0  0  0  0  0  0
    0.7572   13.2798   -5.4993 O   0  0  0  0  0  0  0  0  0  0  0  0
    1.1655   14.3682   -4.6773 C   0  0  0  0  0  0  0  0  0  0  0  0
    1.3191   13.9039   -3.2481 C   0  0  0  0  0  0  0  0  0  0  0  0
    0.3641    7.3428    0.3876 C   0  0  0  0  0  0  0  0  0  0  0  0
   -0.2380    8.4981    1.0111 C   0  0  0  0  0  0  0  0  0  0  0  0
   -0.1187    8.8952    2.2597 N   0  0  0  0  0  0  0  0  0  0  0  0
   -0.9457    9.9792    2.3011 C   0  0  0  0  0  0  0  0  0  0  0  0
   -1.0641   10.7770    3.5325 C   0  0  0  0  0  0  0  0  0  0  0  0
   -1.5924   10.2530    1.1574 N   0  0  0  0  0  0  0  0  0  0  0  0
   -1.1224    9.2467    0.2839 O   0  0  0  0  0  0  0  0  0  0  0  0
    0.0067    6.0667    0.8551 C   0  0  0  0  0  0  0  0  0  0  0  0
   -1.0326    5.9042    1.9448 C   0  0  0  0  0  0  0  0  0  0  0  0
    0.6423    4.9326    0.3240 C   0  0  0  0  0  0  0  0  0  0  0  0
    0.3382    3.6353    0.7879 C   0  0  0  0  0  0  0  0  0  0  0  0
  1  2  1  0
  2  3  1  0
  3  4  2  0
  3 33  1  0
  4  5  1  0
  5  6  1  0
  5  7  2  0
  7  8  1  0
  7 32  1  0
  8  9  2  0
  9 10  1  0
  9 23  1  0
 10 11  1  0
 10 15  1  0
 11 12  1  0
 12 13  1  0
 13 14  1  0
 13 16  1  0
 14 15  1  0
 16 17  1  0
 17 18  1  0
 17 22  1  0
 18 19  1  0
 19 20  1  0
 20 21  1  0
 21 22  1  0
 23 24  1  0
 23 30  2  0
 24 25  2  0
 24 29  1  0
 25 26  1  0
 26 27  1  0
 26 28  2  0
 28 29  1  0
 30 31  1  0
 30 32  1  0
 32 33  2  0
M  END
>  <DRUGBANK_ID>  (1) 
DB16068

>  <COMMON_NAME>  (1) 
BTRX-335140

>  <CAS_NUMBER>  (1) 
2244614-14-8

>  <UNII>  (1) 
XK5ILZ28KI

$$$$
