
     RDKit          3D

 30 31  0  0  0  0  0  0  0  0999 V2000
    1.0453   -0.0665    0.0594 P   0  0  0  0  0  0  0  0  0  0  0  0
    1.5665   -2.5902    1.9967 P   0  0  1  0  0  0  0  0  0  0  0  0
   -1.5378   -0.3638    1.7961 O   0  0  0  0  0  0  0  0  0  0  0  0
   -1.2288   -1.8637    4.4842 O   0  0  0  0  0  0  0  0  0  0  0  0
   -1.8668   -3.5186    2.6562 O   0  0  0  0  0  0  0  0  0  0  0  0
    0.9136    0.9702    1.2820 O   0  0  0  0  0  0  0  0  0  0  0  0
    1.0453   -1.7092    0.6020 O   0  0  0  0  0  0  0  0  0  0  0  0
   -2.8577   -3.1347   -1.0950 O   0  0  0  0  0  0  0  0  0  0  0  0
   -0.6847   -0.0665    0.0594 O   0  0  0  0  0  0  0  0  0  0  0  0
    2.5936   -0.0665    0.0594 O   0  0  0  0  0  0  0  0  0  0  0  0
    1.8474   -3.8767    1.0003 O   0  0  0  0  0  0  0  0  0  0  0  0
    3.0030   -1.8281    1.8533 O   0  0  0  0  0  0  0  0  0  0  0  0
    2.0329   -3.3787    3.2449 O   0  0  0  0  0  0  0  0  0  0  0  0
    0.1212   -4.6324    3.4604 O   0  0  0  0  0  0  0  0  0  0  0  0
   -0.6668   -7.4451    1.3761 O   0  0  0  0  0  0  0  0  0  0  0  0
   -0.8632   -2.1935   -0.6473 N   0  0  0  0  0  0  0  0  0  0  0  0
   -1.4285   -2.8797   -2.8883 N   0  0  0  0  0  0  0  0  0  0  0  0
    0.1672   -2.7040   -4.6220 N   0  0  0  0  0  0  0  0  0  0  0  0
   -0.4228   -1.6132    3.3493 C   0  0  1  0  0  0  0  0  0  0  0  0
   -0.9884   -2.5449    2.1668 C   0  0  2  0  0  0  0  0  0  0  0  0
   -0.5593   -0.2033    2.8691 C   0  0  1  0  0  0  0  0  0  0  0  0
   -1.5257   -1.7735    1.0324 C   0  0  1  0  0  0  0  0  0  0  0  0
    0.7963    0.5545    2.5981 C   0  0  0  0  0  0  0  0  0  0  0  0
    0.4958   -2.2842   -1.2771 C   0  0  0  0  0  0  0  0  0  0  0  0
   -1.7750   -2.7845   -1.5288 C   0  0  0  0  0  0  0  0  0  0  0  0
    0.9070   -2.6067   -2.4944 C   0  0  0  0  0  0  0  0  0  0  0  0
   -0.2155   -2.7562   -3.3254 C   0  0  0  0  0  0  0  0  0  0  0  0
    0.8591   -4.9123    1.0010 C   0  0  0  0  0  0  0  0  0  0  0  0
    0.4396   -5.5320    2.3863 C   0  0  2  0  0  0  0  0  0  0  0  0
   -0.8579   -6.3328    2.2196 C   0  0  0  0  0  0  0  0  0  0  0  0
  1  9  1  0
  1 10  2  0
  1  7  1  0
  1  6  1  0
  2  7  1  0
  2 11  1  0
  2 12  1  0
  2 13  2  0
  3 21  1  0
  3 22  1  0
  6 23  1  0
  8 25  2  0
 11 28  1  0
 15 30  1  0
 16 24  1  0
 16 25  1  0
 17 25  1  0
 17 27  2  0
 18 27  1  0
 19  4  1  1
 19 20  1  0
 19 21  1  0
 20  5  1  1
 20 22  1  0
 21 23  1  6
 22 16  1  6
 24 26  2  0
 26 27  1  0
 28 29  1  0
 29 14  1  1
 29 30  1  0
M  END
>  <DRUGBANK_ID>  (1) 
DB02484

>  <SECONDARY_ACCESSION_NUMBERS>  (1) 
EXPT00805

>  <COMMON_NAME>  (1) 
Cytidine 5'-diphosphoglycerol

$$$$
