
     RDKit          3D

 30 34  0  0  1  0  0  0  0  0999 V2000
    1.0835    0.0563   -0.0688 C   0  0  0  0  0  0  0  0  0  0  0  0
    0.9080    7.1616   -2.6559 C   0  0  0  0  0  0  0  0  0  0  0  0
    2.0350    6.3837   -2.3765 C   0  0  0  0  0  0  0  0  0  0  0  0
   -0.3659    6.5952   -2.6019 C   0  0  0  0  0  0  0  0  0  0  0  0
    1.8958    5.0336   -2.0439 C   0  0  0  0  0  0  0  0  0  0  0  0
   -0.5140    5.2478   -2.2702 C   0  0  0  0  0  0  0  0  0  0  0  0
   -2.2362    1.4226   -5.5929 C   0  0  0  0  0  0  0  0  0  0  0  0
   -0.1622    2.3084   -6.3554 C   0  0  0  0  0  0  0  0  0  0  0  0
   -2.0671    2.0894   -4.2353 C   0  0  0  0  0  0  0  0  0  0  0  0
    0.1332    3.0454   -5.0242 C   0  0  0  0  0  0  0  0  0  0  0  0
   -6.3075    3.1391   -4.5515 C   0  0  0  0  0  0  0  0  0  0  0  0
   -5.8719    2.4844   -3.2411 C   0  0  0  0  0  0  0  0  0  0  0  0
   -0.0996    0.9450   -2.1683 C   0  0  0  0  0  0  0  0  0  0  0  0
   -3.7233    3.4011   -7.3986 C   0  0  0  0  0  0  0  0  0  0  0  0
   -2.1119    4.7068   -6.1934 C   0  0  0  0  0  0  0  0  0  0  0  0
   -4.7028    4.7726   -3.8321 C   0  0  0  0  0  0  0  0  0  0  0  0
    0.6706    1.1204   -1.0089 C   0  0  0  0  0  0  0  0  0  0  0  0
    0.6205    4.4625   -2.0247 C   0  0  0  0  0  0  0  0  0  0  0  0
   -2.2270    3.4539   -7.0805 C   0  0  1  0  0  0  0  0  0  0  0  0
   -4.2534    4.8176   -7.1269 C   0  0  1  0  0  0  0  0  0  0  0  0
   -0.1635    2.1859   -2.7445 C   0  0  0  0  0  0  0  0  0  0  0  0
   -5.4924    4.7813   -6.1821 C   0  0  0  0  0  0  0  0  0  0  0  0
   -3.1609    5.6437   -6.5822 N   0  0  0  0  0  0  0  0  0  0  0  0
    1.0835    2.3871   -0.8544 N   0  0  0  0  0  0  0  0  0  0  0  0
   -1.6012    2.1597   -6.7081 N   0  0  0  0  0  0  0  0  0  0  0  0
   -0.7033    2.5173   -3.9425 N   0  0  0  0  0  0  0  0  0  0  0  0
   -5.3057    4.1074   -4.9657 N   0  0  0  0  0  0  0  0  0  0  0  0
    0.4925    3.0595   -1.8803 N   0  0  0  0  0  0  0  0  0  0  0  0
   -6.5911    5.1069   -6.5897 O   0  0  0  0  0  0  0  0  0  0  0  0
   -4.5298    3.4889   -2.5673 S   0  0  0  0  0  0  0  0  0  0  0  0
  3  2  2  0
  4  2  1  0
  5  3  1  0
  6  4  2  0
  9  7  1  0
 10  8  1  0
 12 11  1  0
 17  1  1  0
 17 13  1  0
 18  5  2  0
 18  6  1  0
 19 14  1  0
 19 15  1  0
 19 25  1  1
 20 14  1  0
 20 22  1  1
 21 13  2  0
 23 15  1  0
 23 20  1  0
 24 17  2  0
 25  7  1  0
 25  8  1  0
 26  9  1  0
 26 10  1  0
 26 21  1  0
 27 11  1  0
 27 16  1  0
 27 22  1  0
 28 18  1  0
 28 21  1  0
 28 24  1  0
 29 22  2  0
 30 12  1  0
 30 16  1  0
M  END
>  <DRUGBANK_ID>  (1) 
DB11950

>  <COMMON_NAME>  (1) 
Teneligliptin

>  <CAS_NUMBER>  (1) 
760937-92-6

>  <UNII>  (1) 
28ZHI4CF9C

>  <SYNONYMS>  (1) 
Teneligliptin

$$$$
