
     RDKit          3D

 32 35  0  0  0  0  0  0  0  0999 V2000
    0.9796   -0.0690   -0.0626 C   0  0  0  0  0  0  0  0  0  0  0  0
    0.4613   -0.2084   -1.4187 N   0  0  0  0  0  0  0  0  0  0  0  0
   -1.0091   -0.1620   -1.4334 C   0  0  0  0  0  0  0  0  0  0  0  0
   -1.5484    1.1618   -0.9221 C   0  0  0  0  0  0  0  0  0  0  0  0
   -2.5228    1.1478    0.0425 C   0  0  0  0  0  0  0  0  0  0  0  0
   -2.8554    2.3311    0.6817 C   0  0  0  0  0  0  0  0  0  0  0  0
   -3.8319    2.4310    1.6844 O   0  0  0  0  0  0  0  0  0  0  0  0
   -4.3868    1.2840    2.2193 C   0  0  0  0  0  0  0  0  0  0  0  0
   -3.6250    0.1597    2.4104 C   0  0  0  0  0  0  0  0  0  0  0  0
   -4.1341   -1.0812    2.7110 C   0  0  0  0  0  0  0  0  0  0  0  0
   -5.3425   -1.0988    3.3459 C   0  0  0  0  0  0  0  0  0  0  0  0
   -5.9232   -2.0749    4.1504 N   0  0  0  0  0  0  0  0  0  0  0  0
   -7.2919   -1.7963    4.0596 C   0  0  0  0  0  0  0  0  0  0  0  0
   -7.4875   -0.5690    3.4506 C   0  0  0  0  0  0  0  0  0  0  0  0
   -6.2233   -0.0365    3.1166 C   0  0  0  0  0  0  0  0  0  0  0  0
   -5.7455    1.1636    2.4973 C   0  0  0  0  0  0  0  0  0  0  0  0
   -5.3515   -3.2020    4.8402 C   0  0  0  0  0  0  0  0  0  0  0  0
   -6.1443   -4.0628    5.2661 O   0  0  0  0  0  0  0  0  0  0  0  0
   -3.9826   -3.4058    4.9469 N   0  0  0  0  0  0  0  0  0  0  0  0
   -2.8788   -2.5771    4.8104 C   0  0  0  0  0  0  0  0  0  0  0  0
   -1.7854   -2.9860    4.1471 N   0  0  0  0  0  0  0  0  0  0  0  0
   -1.1004   -1.8391    3.8687 N   0  0  0  0  0  0  0  0  0  0  0  0
   -0.0253   -1.8678    2.8990 C   0  0  0  0  0  0  0  0  0  0  0  0
   -1.6264   -0.7348    4.4900 C   0  0  0  0  0  0  0  0  0  0  0  0
   -2.7440   -1.2150    5.1690 C   0  0  0  0  0  0  0  0  0  0  0  0
   -1.1730    0.6701    4.2311 C   0  0  0  0  0  0  0  0  0  0  0  0
   -0.0303    0.9733    4.8808 F   0  0  0  0  0  0  0  0  0  0  0  0
   -0.9126    0.9242    2.9155 F   0  0  0  0  0  0  0  0  0  0  0  0
   -2.1148    1.5721    4.6048 F   0  0  0  0  0  0  0  0  0  0  0  0
   -2.2787    3.4897    0.3156 N   0  0  0  0  0  0  0  0  0  0  0  0
   -1.3968    3.4170   -0.7021 C   0  0  0  0  0  0  0  0  0  0  0  0
   -0.9913    2.3077   -1.3427 N   0  0  0  0  0  0  0  0  0  0  0  0
  1  2  1  0
  2  3  1  0
  3  4  1  0
  4  5  2  0
  4 32  1  0
  5  6  1  0
  6  7  1  0
  6 30  2  0
  7  8  1  0
  8  9  2  0
  8 16  1  0
  9 10  1  0
 10 11  2  0
 11 12  1  0
 11 15  1  0
 12 13  1  0
 12 17  1  0
 13 14  2  0
 14 15  1  0
 15 16  2  0
 17 18  2  0
 17 19  1  0
 19 20  1  0
 20 21  2  0
 20 25  1  0
 21 22  1  0
 22 23  1  0
 22 24  1  0
 24 25  2  0
 24 26  1  0
 26 27  1  0
 26 28  1  0
 26 29  1  0
 30 31  1  0
 31 32  2  0
M  END
>  <DRUGBANK_ID>  (1) 
DB16081

>  <COMMON_NAME>  (1) 
Acrizanib

>  <CAS_NUMBER>  (1) 
1229453-99-9

>  <UNII>  (1) 
F2CB8801I3

>  <SYNONYMS>  (1) 
Acrizanib

$$$$
