
     RDKit          3D

 27 27  0  0  1  0  0  0  0  0999 V2000
    6.4054   -2.5740   -2.7510 C   0  0  0  0  0  0  0  0  0  0  0  0
    5.2356   -3.5915   -2.3414 C   0  0  0  0  0  0  0  0  0  0  0  0
    5.6124   -3.8501   -0.8691 C   0  0  0  0  0  0  0  0  0  0  0  0
    3.6190   -3.4224   -2.3433 C   0  0  0  0  0  0  0  0  0  0  0  0
    2.7570   -2.9715   -3.6013 C   0  0  2  0  0  0  0  0  0  0  0  0
    1.3035   -3.0078   -3.3846 N   0  0  0  0  0  0  0  0  0  0  0  0
    0.5059   -2.4490   -2.4142 C   0  0  0  0  0  0  0  0  0  0  0  0
   -0.7107   -2.5817   -2.5848 O   0  0  0  0  0  0  0  0  0  0  0  0
    1.0717   -1.6637   -1.1727 C   0  0  2  0  0  0  0  0  0  0  0  0
    0.1884   -1.9178    0.0639 C   0  0  0  0  0  0  0  0  0  0  0  0
    0.2420   -0.8344    0.9911 O   0  0  0  0  0  0  0  0  0  0  0  0
    1.3298   -0.1968   -1.3754 N   0  0  0  0  0  0  0  0  0  0  0  0
    2.4229    0.6036   -1.0757 C   0  0  0  0  0  0  0  0  0  0  0  0
    2.3307    1.8279   -1.1772 O   0  0  0  0  0  0  0  0  0  0  0  0
    3.7973   -0.0139   -0.7940 C   0  0  1  0  0  0  0  0  0  0  0  0
    3.6899   -0.8932    0.4113 N   0  0  0  0  0  0  0  0  0  0  0  0
    4.1140   -0.7442   -2.0806 C   0  0  0  0  0  0  0  0  0  0  0  0
    4.4819   -0.2295   -3.4513 C   0  0  0  0  0  0  0  0  0  0  0  0
    4.2448    1.0857   -3.7173 C   0  0  0  0  0  0  0  0  0  0  0  0
    4.2556    1.5420   -5.0273 C   0  0  0  0  0  0  0  0  0  0  0  0
    4.5864    0.7045   -6.0909 C   0  0  0  0  0  0  0  0  0  0  0  0
    4.5737    1.1234   -7.3776 O   0  0  0  0  0  0  0  0  0  0  0  0
    4.9200   -0.5972   -5.8758 C   0  0  0  0  0  0  0  0  0  0  0  0
    4.8145   -1.0449   -4.5709 C   0  0  0  0  0  0  0  0  0  0  0  0
    3.2164   -3.8965   -4.7476 C   0  0  0  0  0  0  0  0  0  0  0  0
    3.4540   -3.3031   -5.9489 O   0  0  0  0  0  0  0  0  0  0  0  0
    3.3846   -5.0764   -4.5971 O   0  0  0  0  0  0  0  0  0  0  0  0
  1  2  1  0
  2  3  1  0
  2  4  1  0
  5 25  1  0
  5  6  1  0
  5  4  1  1
  6  7  1  0
  7  8  2  0
  9 12  1  0
  9 10  1  1
  9  7  1  0
 10 11  1  0
 12 13  1  0
 13 14  2  0
 15 13  1  0
 15 16  1  1
 15 17  1  0
 17 18  1  0
 18 19  2  0
 18 24  1  0
 19 20  1  0
 20 21  2  0
 21 22  1  0
 21 23  1  0
 23 24  2  0
 25 26  1  0
 25 27  2  0
M  END
>  <DRUGBANK_ID>  (1) 
DB17300

>  <COMMON_NAME>  (1) 
Tyroserleutide

>  <CAS_NUMBER>  (1) 
138168-48-6

>  <UNII>  (1) 
L9TIM50J8N

>  <SYNONYMS>  (1) 
L-leucine, l-tyrosyl-l-seryl-; L-tyrosine-l-serine-l-leucine

$$$$
