N76
     RDKit          3D

 28 31  0  0  0  0  0  0  0  0999 V2000
   -1.9137   -0.7515    0.2338 C   0  0  0  0  0  0  0  0  0  0  0  0
    2.3687    0.0328   -0.0078 C   0  0  0  0  0  0  0  0  0  0  0  0
   -2.2469    3.3783    0.1683 C   0  0  0  0  0  0  0  0  0  0  0  0
   -3.0960    3.1735   -1.1132 C   0  0  0  0  0  0  0  0  0  0  0  0
   -4.3209    4.0947   -1.1633 C   0  0  0  0  0  0  0  0  0  0  0  0
   -5.2246    3.7437   -2.3540 C   0  0  0  0  0  0  0  0  0  0  0  0
   -5.6903    2.2894   -2.3241 C   0  0  0  0  0  0  0  0  0  0  0  0
   -4.5043    1.3640   -2.3172 C   0  0  0  0  0  0  0  0  0  0  0  0
   -3.5708    1.7316   -1.2052 C   0  0  0  0  0  0  0  0  0  0  0  0
   -3.5434   -5.6407   -0.0770 C   0  0  0  0  0  0  0  0  0  0  0  0
   -2.8496   -5.0265    0.9675 C   0  0  0  0  0  0  0  0  0  0  0  0
   -3.1051   -1.4523    0.0271 N   0  0  0  0  0  0  0  0  0  0  0  0
   -2.6990   -3.6408    0.9961 C   0  0  0  0  0  0  0  0  0  0  0  0
   -3.2525   -2.8448   -0.0172 C   0  0  0  0  0  0  0  0  0  0  0  0
   -0.6080   -5.7391    2.3468 N   0  0  0  0  0  0  0  0  0  0  0  0
   -1.9762    0.5821    0.4739 N   0  0  0  0  0  0  0  0  0  0  0  0
   -0.8734    1.3648    0.2679 C   0  0  0  0  0  0  0  0  0  0  0  0
   -0.9598    2.7421    0.1439 O   0  0  0  0  0  0  0  0  0  0  0  0
    0.3524    0.7257    0.0937 C   0  0  0  0  0  0  0  0  0  0  0  0
    1.6603    1.1436   -0.0156 N   0  0  0  0  0  0  0  0  0  0  0  0
    1.5778   -1.0788   -0.0117 N   0  0  0  0  0  0  0  0  0  0  0  0
    0.2921   -0.6510    0.0334 C   0  0  0  0  0  0  0  0  0  0  0  0
   -0.7795   -1.4346    0.0433 N   0  0  0  0  0  0  0  0  0  0  0  0
   -3.9241   -3.4685   -1.0773 C   0  0  0  0  0  0  0  0  0  0  0  0
   -4.0958   -4.8574   -1.0907 C   0  0  0  0  0  0  0  0  0  0  0  0
   -2.2728   -6.0027    2.3239 S   0  0  0  0  0  0  0  0  0  0  0  0
   -2.8074   -5.4415    3.5485 O   0  0  0  0  0  0  0  0  0  0  0  0
   -2.4243   -7.3956    1.9923 O   0  0  0  0  0  0  0  0  0  0  0  0
  1 12  1  0
  1 16  2  0
  1 23  1  0
  2 20  2  0
  2 21  1  0
  3  4  1  0
  3 18  1  0
  4  5  1  0
  4  9  1  0
  5  6  1  0
  6  7  1  0
  7  8  1  0
  8  9  1  0
 10 11  2  0
 10 25  1  0
 11 13  1  0
 11 26  1  0
 12 14  1  0
 13 14  2  0
 14 24  1  0
 15 26  1  0
 16 17  1  0
 17 18  1  0
 17 19  2  0
 19 20  1  0
 19 22  1  0
 21 22  1  0
 22 23  2  0
 24 25  2  0
 26 27  2  0
 26 28  2  0
M  END
>  <DRUGBANK_ID>  (1) 
DB08248

>  <COMMON_NAME>  (1) 
3-(6-CYCLOHEXYLMETHOXY-9H-PURIN-2-YLAMINO)-BENZENESULFONAMIDE

$$$$
