
     RDKit          3D

 28 30  0  0  1  0  0  0  0  0999 V2000
   -1.1522   -3.8543    1.8209 C   0  0  0  0  0  0  0  0  0  0  0  0
   -1.6562   -3.9727    0.3928 C   0  0  0  0  0  0  0  0  0  0  0  0
   -1.1201   -2.8526   -0.4983 C   0  0  0  0  0  0  0  0  0  0  0  0
    0.4128   -2.8779   -0.6397 C   0  0  2  0  0  0  0  0  0  0  0  0
    0.9193   -1.8221   -1.6222 C   0  0  0  0  0  0  0  0  0  0  0  0
    0.9294   -4.2013   -0.8641 O   0  0  0  0  0  0  0  0  0  0  0  0
    0.5328   -4.8383   -2.0219 C   0  0  0  0  0  0  0  0  0  0  0  0
    0.5809   -4.1305   -3.1817 N   0  0  0  0  0  0  0  0  0  0  0  0
    0.3986   -4.7900   -4.3266 C   0  0  0  0  0  0  0  0  0  0  0  0
    0.4768   -4.1243   -5.5287 N   0  0  0  0  0  0  0  0  0  0  0  0
    0.1601   -6.1219   -4.2811 C   0  0  0  0  0  0  0  0  0  0  0  0
    0.0342   -7.0245   -5.3110 N   0  0  0  0  0  0  0  0  0  0  0  0
    0.0678   -8.2935   -4.7629 C   0  0  0  0  0  0  0  0  0  0  0  0
    0.1614   -9.2689   -5.4680 O   0  0  0  0  0  0  0  0  0  0  0  0
   -0.0308   -8.1340   -3.3491 N   0  0  0  0  0  0  0  0  0  0  0  0
   -0.2747   -9.1628   -2.3490 C   0  0  0  0  0  0  0  0  0  0  0  0
   -1.6645   -9.7877   -2.5056 C   0  0  0  0  0  0  0  0  0  0  0  0
   -1.8125  -10.3523   -3.9067 C   0  0  0  0  0  0  0  0  0  0  0  0
   -0.8528  -11.5544   -4.1593 C   0  0  0  0  0  0  0  0  0  0  0  0
   -1.0541  -12.7526   -3.2084 C   0  0  0  0  0  0  0  0  0  0  0  0
   -2.3671  -13.4223   -3.3009 N   0  0  0  0  0  0  0  0  0  0  0  0
   -3.3165  -12.6739   -4.1120 C   0  0  0  0  0  0  0  0  0  0  0  0
   -4.6954  -13.1998   -4.3383 C   0  0  0  0  0  0  0  0  0  0  0  0
   -4.5984  -14.6178   -4.8132 C   0  0  0  0  0  0  0  0  0  0  0  0
   -3.6477  -15.4056   -3.9089 C   0  0  0  0  0  0  0  0  0  0  0  0
   -2.2515  -14.7788   -3.8119 C   0  0  0  0  0  0  0  0  0  0  0  0
    0.1185   -6.7673   -3.0633 C   0  0  0  0  0  0  0  0  0  0  0  0
    0.2979   -6.1628   -1.8938 N   0  0  0  0  0  0  0  0  0  0  0  0
  1  2  1  0
  2  3  1  0
  4  6  1  0
  4  5  1  6
  4  3  1  0
  6  7  1  0
  7  8  2  0
  7 28  1  0
  8  9  1  0
  9 10  1  0
  9 11  2  0
 11 12  1  0
 11 27  1  0
 12 13  1  0
 13 14  2  0
 13 15  1  0
 15 16  1  0
 15 27  1  0
 16 17  1  0
 17 18  1  0
 18 19  1  0
 19 20  1  0
 20 21  1  0
 21 22  1  0
 21 26  1  0
 22 23  1  0
 23 24  1  0
 24 25  1  0
 25 26  1  0
 27 28  2  0
M  END
>  <DRUGBANK_ID>  (1) 
DB16076

>  <COMMON_NAME>  (1) 
GSK2245035

>  <CAS_NUMBER>  (1) 
1207629-49-9

>  <UNII>  (1) 
5L3SX16QBQ

$$$$
