
     RDKit          3D

 15 15  0  0  1  0  0  0  0  0999 V2000
    1.9617   -0.0932    0.0480 O   0  0  0  0  0  0  0  0  0  0  0  0
    0.6689   -3.7034   -2.1277 O   0  0  0  0  0  0  0  0  0  0  0  0
   -0.1534   -1.1011    0.0091 N   0  0  0  0  0  0  0  0  0  0  0  0
   -1.4723   -3.3057   -1.6221 N   0  0  0  0  0  0  0  0  0  0  0  0
   -1.4398    0.8253   -0.2749 C   0  0  1  0  0  0  0  0  0  0  0  0
   -1.5177   -0.6379    0.0766 C   0  0  0  0  0  0  0  0  0  0  0  0
   -0.0656    1.1882    0.3011 C   0  0  0  0  0  0  0  0  0  0  0  0
   -1.5801    1.0229   -1.7904 C   0  0  0  0  0  0  0  0  0  0  0  0
    0.2767   -2.4986   -0.0366 C   0  0  1  0  0  0  0  0  0  0  0  0
    0.7398   -0.0527    0.0971 C   0  0  0  0  0  0  0  0  0  0  0  0
   -1.8335    2.4882   -2.1389 C   0  0  0  0  0  0  0  0  0  0  0  0
   -0.1057   -3.2672    1.2402 C   0  0  0  0  0  0  0  0  0  0  0  0
   -0.1378   -3.1982   -1.3508 C   0  0  0  0  0  0  0  0  0  0  0  0
   -0.7454    3.4151   -1.6323 C   0  0  0  0  0  0  0  0  0  0  0  0
   -1.5990   -3.4562    1.4728 C   0  0  0  0  0  0  0  0  0  0  0  0
  1 10  2  0
  2 13  2  0
  3  6  1  0
  3  9  1  0
  3 10  1  0
  4 13  1  0
  5  6  1  0
  5  7  1  0
  5  8  1  6
  7 10  1  0
  8 11  1  0
  9 12  1  1
  9 13  1  0
 11 14  1  0
 12 15  1  0
M  END
>  <DRUGBANK_ID>  (1) 
DB05541

>  <COMMON_NAME>  (1) 
Brivaracetam

>  <CAS_NUMBER>  (1) 
357336-20-0

>  <UNII>  (1) 
U863JGG2IA

>  <SYNONYMS>  (1) 
Brivaracetam

$$$$
