ZAF
     RDKit          3D

 33 34  0  0  0  0  0  0  0  0999 V2000
    3.2384   -7.7038   -3.0494 C   0  0  0  0  0  0  0  0  0  0  0  0
    3.4379   -6.5199   -3.2646 O   0  0  0  0  0  0  0  0  0  0  0  0
    4.2214   -8.6014   -3.2870 O   0  0  0  0  0  0  0  0  0  0  0  0
    0.6309   -7.9567   -3.2182 C   0  0  0  0  0  0  0  0  0  0  0  0
    1.9478   -8.3651   -2.5937 C   0  0  2  0  0  0  0  0  0  0  0  0
    0.7441   -7.1574   -4.4246 C   0  0  0  0  0  0  0  0  0  0  0  0
    1.5503   -7.7070   -5.4092 C   0  0  0  0  0  0  0  0  0  0  0  0
    1.7002   -7.0327   -6.5804 C   0  0  0  0  0  0  0  0  0  0  0  0
    0.9419   -5.8842   -6.7906 C   0  0  0  0  0  0  0  0  0  0  0  0
    0.1014   -5.3576   -5.8013 C   0  0  0  0  0  0  0  0  0  0  0  0
    0.0612   -5.9517   -4.5630 C   0  0  0  0  0  0  0  0  0  0  0  0
    1.7420   -7.9121   -1.3045 O   0  0  0  0  0  0  0  0  0  0  0  0
    0.6788   -8.7315   -0.4472 P   0  0  2  0  0  0  0  0  0  0  0  0
    1.6310   -9.2552    0.5560 O   0  0  0  0  0  0  0  0  0  0  0  0
    0.0767   -9.9142   -1.3721 O   0  0  0  0  0  0  0  0  0  0  0  0
   -0.7076   -7.5606   -0.2382 C   0  0  2  0  0  0  0  0  0  0  0  0
   -1.9811   -7.8241   -1.0707 C   0  0  0  0  0  0  0  0  0  0  0  0
   -0.2601   -6.1737   -0.4866 N   0  0  0  0  0  0  0  0  0  0  0  0
   -0.1437   -5.1343    0.3727 C   0  0  0  0  0  0  0  0  0  0  0  0
    0.3273   -4.0840   -0.0609 O   0  0  0  0  0  0  0  0  0  0  0  0
   -0.6602   -5.3231    1.7977 C   0  0  2  0  0  0  0  0  0  0  0  0
   -0.7628   -3.9897    2.5236 C   0  0  0  0  0  0  0  0  0  0  0  0
    0.1958   -6.2471    2.5381 N   0  0  0  0  0  0  0  0  0  0  0  0
   -0.1864   -7.3581    3.2247 C   0  0  0  0  0  0  0  0  0  0  0  0
    0.6119   -7.9338    3.9728 O   0  0  0  0  0  0  0  0  0  0  0  0
   -1.4251   -7.8146    2.9080 O   0  0  0  0  0  0  0  0  0  0  0  0
   -1.8661   -9.1191    3.3897 C   0  0  0  0  0  0  0  0  0  0  0  0
   -1.2175  -10.3509    2.7751 C   0  0  0  0  0  0  0  0  0  0  0  0
    0.0609  -10.2885    2.2655 C   0  0  0  0  0  0  0  0  0  0  0  0
    0.7861  -11.3885    1.7894 C   0  0  0  0  0  0  0  0  0  0  0  0
    0.2222  -12.6304    1.7985 C   0  0  0  0  0  0  0  0  0  0  0  0
   -1.0245  -12.7603    2.3919 C   0  0  0  0  0  0  0  0  0  0  0  0
   -1.7537  -11.6350    2.8458 C   0  0  0  0  0  0  0  0  0  0  0  0
  1  2  2  0
  1  3  1  0
  4  6  1  0
  5 12  1  0
  5  4  1  6
  5  1  1  0
  6  7  2  0
  6 11  1  0
  7  8  1  0
  8  9  2  0
  9 10  1  0
 10 11  2  0
 13 15  1  0
 13 14  2  0
 13 12  1  0
 16 18  1  0
 16 17  1  6
 16 13  1  0
 18 19  1  0
 19 20  2  0
 21 23  1  0
 21 22  1  1
 21 19  1  0
 23 24  1  0
 24 25  2  0
 24 26  1  0
 26 27  1  0
 27 28  1  0
 28 29  2  0
 28 33  1  0
 29 30  1  0
 30 31  2  0
 31 32  1  0
 32 33  2  0
M  END
>  <DRUGBANK_ID>  (1) 
DB08762

>  <COMMON_NAME>  (1) 
O-(((1R)-((N-PHENYLMETHOXYCARBONYL-L-ALANYL)AMINO)ETHYL)HYDROXYPHOSPHONO)-L-BENZYLACETIC ACID

$$$$
