
     RDKit          3D

 32 34  0  0  0  0  0  0  0  0999 V2000
    0.6349    0.0694    0.2222 C   0  0  0  0  0  0  0  0  0  0  0  0
   -0.2694   -0.0163   -1.1357 C   0  0  0  0  0  0  0  0  0  0  0  0
   -1.1262    1.0273   -1.3941 C   0  0  0  0  0  0  0  0  0  0  0  0
   -1.7273    1.0838   -2.7035 C   0  0  0  0  0  0  0  0  0  0  0  0
   -1.3353    0.2640   -3.7809 C   0  0  0  0  0  0  0  0  0  0  0  0
   -0.4331   -0.7425   -3.5676 C   0  0  0  0  0  0  0  0  0  0  0  0
   -0.2721   -1.0105   -2.1809 C   0  0  0  0  0  0  0  0  0  0  0  0
    0.0504    0.0833    1.3075 O   0  0  0  0  0  0  0  0  0  0  0  0
    2.0432    0.2019    0.3338 N   0  0  0  0  0  0  0  0  0  0  0  0
    0.3260   -1.5068   -4.7080 C   0  0  0  0  0  0  0  0  0  0  0  0
    2.8794   -1.1624   -4.4316 O   0  0  0  0  0  0  0  0  0  0  0  0
    1.6545   -0.8411   -5.1329 N   0  0  0  0  0  0  0  0  0  0  0  0
    2.0764   -0.6294   -6.4500 C   0  0  0  0  0  0  0  0  0  0  0  0
    2.9285    0.6279   -6.4722 C   0  0  0  0  0  0  0  0  0  0  0  0
    4.2086    0.4718   -5.6774 C   0  0  0  0  0  0  0  0  0  0  0  0
    3.7474    0.0065   -4.3565 C   0  0  0  0  0  0  0  0  0  0  0  0
    1.7095   -1.2272   -7.4732 O   0  0  0  0  0  0  0  0  0  0  0  0
    3.0011    0.3082   -0.6647 O   0  0  0  0  0  0  0  0  0  0  0  0
    2.3555   -0.1071   -1.8019 C   0  0  0  0  0  0  0  0  0  0  0  0
    2.2484   -1.6406   -1.8464 C   0  0  0  0  0  0  0  0  0  0  0  0
    1.6085   -2.2920   -0.7474 O   0  0  0  0  0  0  0  0  0  0  0  0
   -1.3778    1.9627   -0.3757 N   0  0  0  0  0  0  0  0  0  0  0  0
   -2.5144    2.7687   -0.3441 C   0  0  0  0  0  0  0  0  0  0  0  0
   -3.8030    2.2515   -0.5482 C   0  0  0  0  0  0  0  0  0  0  0  0
   -4.8607    3.0938   -0.8311 C   0  0  0  0  0  0  0  0  0  0  0  0
   -4.6028    4.4558   -0.9607 C   0  0  0  0  0  0  0  0  0  0  0  0
   -3.3392    4.9823   -0.6714 C   0  0  0  0  0  0  0  0  0  0  0  0
   -2.3121    4.1402   -0.2717 C   0  0  0  0  0  0  0  0  0  0  0  0
   -6.0982    5.7192   -1.6406 I   0  0  0  0  0  0  0  0  0  0  0  0
   -3.9958    0.9229   -0.6223 F   0  0  0  0  0  0  0  0  0  0  0  0
   -1.9516    0.3712   -4.9669 F   0  0  0  0  0  0  0  0  0  0  0  0
   -2.7270    1.9417   -2.9575 F   0  0  0  0  0  0  0  0  0  0  0  0
  1  2  1  0
  1  8  2  0
  1  9  1  0
  2  3  2  0
  2  7  1  0
  3  4  1  0
  3 22  1  0
  4  5  2  0
  4 32  1  0
  5  6  1  0
  5 31  1  0
  6  7  2  0
  6 10  1  0
  9 18  1  0
 10 12  1  0
 11 12  1  0
 11 16  1  0
 12 13  1  0
 13 14  1  0
 13 17  2  0
 14 15  1  0
 15 16  1  0
 18 19  1  0
 19 20  1  0
 20 21  1  0
 22 23  1  0
 23 24  2  0
 23 28  1  0
 24 25  1  0
 24 30  1  0
 25 26  2  0
 26 27  1  0
 26 29  1  0
 27 28  2  0
M  END
>  <DRUGBANK_ID>  (1) 
DB12933

>  <COMMON_NAME>  (1) 
RO-4987655

>  <CAS_NUMBER>  (1) 
874101-00-5

>  <UNII>  (1) 
I3733P75ML

$$$$
