320
     RDKit          3D

 31 34  0  0  0  0  0  0  0  0999 V2000
    2.4984   -0.1394    0.1237 F   0  0  0  0  0  0  0  0  0  0  0  0
    1.1755   -0.0814   -0.0496 C   0  0  0  0  0  0  0  0  0  0  0  0
    0.6011    1.1416   -0.1399 C   0  0  0  0  0  0  0  0  0  0  0  0
   -0.7256    1.1211   -0.5524 C   0  0  0  0  0  0  0  0  0  0  0  0
    0.4186   -1.2605   -0.2072 C   0  0  0  0  0  0  0  0  0  0  0  0
   -0.9445   -1.3096   -0.6813 C   0  0  0  0  0  0  0  0  0  0  0  0
   -1.6776   -0.1290   -1.0078 C   0  0  0  0  0  0  0  0  0  0  0  0
   -3.6796   -0.1740   -0.9058 C   0  0  0  0  0  0  0  0  0  0  0  0
   -4.2214   -0.8636   -1.9308 C   0  0  0  0  0  0  0  0  0  0  0  0
   -4.8574   -1.9239   -1.7604 O   0  0  0  0  0  0  0  0  0  0  0  0
   -3.7906   -0.0597   -2.9088 N   0  0  0  0  0  0  0  0  0  0  0  0
   -3.0055    1.1421   -2.7736 C   0  0  0  0  0  0  0  0  0  0  0  0
   -2.3952    1.5190   -3.7772 O   0  0  0  0  0  0  0  0  0  0  0  0
   -2.9169    1.9365   -1.4257 N   0  0  0  0  0  0  0  0  0  0  0  0
   -2.9281    1.5025    0.3062 C   0  0  0  0  0  0  0  0  0  0  0  0
   -2.6962   -0.0232    0.9323 C   0  0  0  0  0  0  0  0  0  0  0  0
   -2.7253   -0.7173    2.0101 C   0  0  0  0  0  0  0  0  0  0  0  0
   -2.7984   -2.0728    1.8832 F   0  0  0  0  0  0  0  0  0  0  0  0
   -3.0733    2.3913    1.2709 C   0  0  0  0  0  0  0  0  0  0  0  0
   -3.1583    1.7088    2.5430 C   0  0  0  0  0  0  0  0  0  0  0  0
   -3.0081    0.2009    2.9086 C   0  0  0  0  0  0  0  0  0  0  0  0
   -3.1796   -0.2920    4.1697 O   0  0  0  0  0  0  0  0  0  0  0  0
   -3.0115   -1.6770    4.2945 C   0  0  0  0  0  0  0  0  0  0  0  0
   -1.8232   -2.3872    3.9566 C   0  0  0  0  0  0  0  0  0  0  0  0
   -1.8170   -3.7743    4.0212 C   0  0  0  0  0  0  0  0  0  0  0  0
   -2.8376   -4.5283    4.4801 N   0  0  0  0  0  0  0  0  0  0  0  0
   -3.9364   -3.8045    4.7729 C   0  0  0  0  0  0  0  0  0  0  0  0
   -4.1198   -2.4356    4.6510 C   0  0  0  0  0  0  0  0  0  0  0  0
   -5.0804   -4.3012    5.3306 N   0  0  0  0  0  0  0  0  0  0  0  0
   -6.0063   -3.2973    5.4773 C   0  0  0  0  0  0  0  0  0  0  0  0
   -5.4682   -2.1419    4.9623 C   0  0  0  0  0  0  0  0  0  0  0  0
  1  2  1  0
  2  3  2  0
  2  5  1  0
  3  4  1  0
  4  7  2  0
  5  6  2  0
  6  7  1  0
  7  8  1  0
  8  9  1  0
  9 10  2  0
  9 11  1  0
 11 12  1  0
 12 13  2  0
 12 14  1  0
 14 15  1  0
 15 16  2  0
 15 19  1  0
 16 17  1  0
 17 18  1  0
 17 21  2  0
 19 20  2  0
 20 21  1  0
 21 22  1  0
 22 23  1  0
 23 24  2  0
 23 28  1  0
 24 25  1  0
 25 26  2  0
 26 27  1  0
 27 28  2  0
 27 29  1  0
 28 31  1  0
 29 30  1  0
 30 31  2  0
M  END
>  <DRUGBANK_ID>  (1) 
DB06997

>  <COMMON_NAME>  (1) 
2-(4-fluorophenyl)-N-{[3-fluoro-4-(1H-pyrrolo[2,3-b]pyridin-4-yloxy)phenyl]carbamoyl}acetamide

$$$$
