
     RDKit          3D

 31 32  0  0  0  0  0  0  0  0999 V2000
    0.7082   -0.0147    0.3045 C   0  0  0  0  0  0  0  0  0  0  0  0
    0.1900   -1.2878   -0.2623 N   0  0  0  0  0  0  0  0  0  0  0  0
   -1.2407   -1.2936   -0.0685 C   0  0  0  0  0  0  0  0  0  0  0  0
    0.4399   -1.7580   -1.6870 C   0  0  0  0  0  0  0  0  0  0  0  0
    0.3648   -0.8046   -2.8527 C   0  0  0  0  0  0  0  0  0  0  0  0
    1.0229    0.5173   -2.5638 C   0  0  0  0  0  0  0  0  0  0  0  0
    2.3605    0.5468   -2.0255 O   0  0  0  0  0  0  0  0  0  0  0  0
    3.1818   -0.3117   -1.3246 C   0  0  0  0  0  0  0  0  0  0  0  0
    3.0069   -1.6131   -0.7638 C   0  0  0  0  0  0  0  0  0  0  0  0
    3.9334   -2.4746   -0.2306 C   0  0  0  0  0  0  0  0  0  0  0  0
    5.1916   -2.0059   -0.2057 C   0  0  0  0  0  0  0  0  0  0  0  0
    5.4675   -0.7282   -0.7421 C   0  0  0  0  0  0  0  0  0  0  0  0
    4.4502    0.1868   -1.1303 C   0  0  0  0  0  0  0  0  0  0  0  0
    4.6664    1.6958   -1.0575 C   0  0  0  0  0  0  0  0  0  0  0  0
    4.7032    2.3015    0.3855 C   0  0  0  0  0  0  0  0  0  0  0  0
    5.7509    1.7493    1.3264 C   0  0  0  0  0  0  0  0  0  0  0  0
    6.7912    2.4978    1.8558 C   0  0  0  0  0  0  0  0  0  0  0  0
    7.7637    1.8698    2.6486 C   0  0  0  0  0  0  0  0  0  0  0  0
    7.7671    0.4840    2.8377 C   0  0  0  0  0  0  0  0  0  0  0  0
    6.6902   -0.2519    2.3941 C   0  0  0  0  0  0  0  0  0  0  0  0
    5.6569    0.4217    1.7493 C   0  0  0  0  0  0  0  0  0  0  0  0
    6.5177   -1.5998    2.5141 O   0  0  0  0  0  0  0  0  0  0  0  0
    7.3669   -2.2665    3.4292 C   0  0  0  0  0  0  0  0  0  0  0  0
    0.9900   -1.3213   -4.0949 O   0  0  0  0  0  0  0  0  0  0  0  0
    2.3248   -1.6132   -4.2313 C   0  0  0  0  0  0  0  0  0  0  0  0
    3.2353   -1.4575   -3.4755 O   0  0  0  0  0  0  0  0  0  0  0  0
    2.6590   -2.2585   -5.5228 C   0  0  0  0  0  0  0  0  0  0  0  0
    2.1919   -3.6932   -5.5250 C   0  0  0  0  0  0  0  0  0  0  0  0
    0.6952   -3.8054   -5.5781 C   0  0  0  0  0  0  0  0  0  0  0  0
    0.0368   -4.0054   -6.5824 O   0  0  0  0  0  0  0  0  0  0  0  0
    0.0941   -3.5921   -4.3925 O   0  0  0  0  0  0  0  0  0  0  0  0
  1  2  1  0
  2  3  1  0
  2  4  1  0
  4  5  1  0
  5  6  1  0
  5 24  1  0
  6  7  1  0
  7  8  1  0
  8  9  2  0
  8 13  1  0
  9 10  1  0
 10 11  2  0
 11 12  1  0
 12 13  2  0
 13 14  1  0
 14 15  1  0
 15 16  1  0
 16 17  2  0
 16 21  1  0
 17 18  1  0
 18 19  2  0
 19 20  1  0
 20 21  2  0
 20 22  1  0
 22 23  1  0
 24 25  1  0
 25 26  2  0
 25 27  1  0
 27 28  1  0
 28 29  1  0
 29 30  2  0
 29 31  1  0
M  END
>  <DRUGBANK_ID>  (1) 
DB12163

>  <COMMON_NAME>  (1) 
Sarpogrelate

>  <CAS_NUMBER>  (1) 
125926-17-2

>  <UNII>  (1) 
19P708E787

>  <SYNONYMS>  (1) 
Sarpogrelate

$$$$
