
     RDKit          3D

 21 20  0  0  0  0  0  0  0  0999 V2000
  -12.2973   -2.7254   -1.8266 C   0  0  0  0  0  0  0  0  0  0  0  0
  -12.0679   -1.6641   -0.7689 C   0  0  0  0  0  0  0  0  0  0  0  0
  -11.4169   -3.3166   -2.4159 O   0  0  0  0  0  0  0  0  0  0  0  0
  -11.3433   -2.2646    0.4384 C   0  0  0  0  0  0  0  0  0  0  0  0
   -9.9725   -2.8459    0.0610 C   0  0  0  0  0  0  0  0  0  0  0  0
   -9.1277   -1.7725   -0.6005 C   0  0  0  0  0  0  0  0  0  0  0  0
   -8.9589   -0.6440    0.4090 C   0  0  0  0  0  0  0  0  0  0  0  0
  -13.6015   -2.9782   -2.0636 O   0  0  0  0  0  0  0  0  0  0  0  0
   -8.0371   -1.0483    1.5679 C   0  0  0  0  0  0  0  0  0  0  0  0
   -6.6887   -1.6141    1.1018 C   0  0  0  0  0  0  0  0  0  0  0  0
   -5.7852   -0.5547    0.4242 C   0  0  2  0  0  0  0  0  0  0  0  0
   -4.9370    0.0201    1.4072 O   0  0  0  0  0  0  0  0  0  0  0  0
   -6.4939    0.6063   -0.2113 C   0  0  0  0  0  0  0  0  0  0  0  0
   -6.7141    0.6841   -1.5278 C   0  0  0  0  0  0  0  0  0  0  0  0
   -7.6799    1.5598   -2.1552 C   0  0  0  0  0  0  0  0  0  0  0  0
   -7.7772    1.6793   -3.4837 C   0  0  0  0  0  0  0  0  0  0  0  0
   -6.8965    0.9528   -4.4588 C   0  0  0  0  0  0  0  0  0  0  0  0
   -7.7145    0.1183   -5.4353 C   0  0  0  0  0  0  0  0  0  0  0  0
   -8.5439    0.9927   -6.3745 C   0  0  0  0  0  0  0  0  0  0  0  0
   -7.6805    2.0002   -7.1391 C   0  0  0  0  0  0  0  0  0  0  0  0
   -6.6396    1.2955   -7.9960 C   0  0  0  0  0  0  0  0  0  0  0  0
  1  2  1  0
  1  3  2  0
  1  8  1  0
  2  4  1  0
  4  5  1  0
  5  6  1  0
  6  7  1  0
  7  9  1  0
  9 10  1  0
 11 13  1  0
 11 12  1  1
 11 10  1  0
 13 14  2  0
 14 15  1  0
 15 16  2  0
 16 17  1  0
 17 18  1  0
 18 19  1  0
 19 20  1  0
 20 21  1  0
M  END
>  <DRUGBANK_ID>  (1) 
DB07302

>  <COMMON_NAME>  (1) 
9(S)-HODE

>  <CAS_NUMBER>  (1) 
73543-67-6

>  <UNII>  (1) 
42KE04U9BM

>  <SYNONYMS>  (1) 
(9S,10E,12Z)-9-hydroxyoctadeca-10,12-dienoic acid; 9S-Hode; alpha-Dimorphecolic acid

$$$$
