
     RDKit          3D

 31 32  0  0  0  0  0  0  0  0999 V2000
   -0.5102    0.9566   -0.3652 C   0  0  1  0  0  0  0  0  0  0  0  0
    0.5829    1.5155    0.4950 C   0  0  1  0  0  0  0  0  0  0  0  0
    1.9066    0.8351    0.3995 O   0  0  0  0  0  0  0  0  0  0  0  0
    1.6828   -0.3577   -0.2682 C   0  0  1  0  0  0  0  0  0  0  0  0
    0.2006   -0.2520   -0.0808 C   0  0  1  0  0  0  0  0  0  0  0  0
    0.8139    2.8126    0.0182 N   0  0  0  0  0  0  0  0  0  0  0  0
   -0.2978    3.6287    0.0588 C   0  0  0  0  0  0  0  0  0  0  0  0
    1.8297    2.9976   -0.8841 C   0  0  0  0  0  0  0  0  0  0  0  0
   -1.8687    0.9112    0.0724 O   0  0  0  0  0  0  0  0  0  0  0  0
   -0.2569    4.7521   -0.7364 N   0  0  0  0  0  0  0  0  0  0  0  0
   -1.2426    3.3762    0.8011 O   0  0  0  0  0  0  0  0  0  0  0  0
    1.5983    3.7652   -1.9391 C   0  0  0  0  0  0  0  0  0  0  0  0
    0.1186   -0.8179    1.1763 O   0  0  0  0  0  0  0  0  0  0  0  0
    0.6201    4.8432   -1.6914 C   0  0  0  0  0  0  0  0  0  0  0  0
    0.6827    5.9736   -2.4750 N   0  0  0  0  0  0  0  0  0  0  0  0
    2.2766   -0.6256   -1.7169 C   0  0  0  0  0  0  0  0  0  0  0  0
    1.3373   -1.7441   -2.5724 O   0  0  0  0  0  0  0  0  0  0  0  0
   -0.4473   -3.2965   -1.9470 O   0  0  0  0  0  0  0  0  0  0  0  0
    2.0912   -3.8571   -3.2526 O   0  0  0  0  0  0  0  0  0  0  0  0
   -1.0099   -3.4340    0.8826 O   0  0  0  0  0  0  0  0  0  0  0  0
   -1.1043   -2.6029   -0.5047 P   0  0  1  0  0  0  0  0  0  0  0  0
   -1.7612   -1.9093    0.9376 O   0  0  0  0  0  0  0  0  0  0  0  0
    1.2796   -3.3125   -1.8445 P   0  0  1  0  0  0  0  0  0  0  0  0
    1.2219   -4.8808   -1.1165 O   0  0  0  0  0  0  0  0  0  0  0  0
   -1.9120   -1.1993   -1.4495 O   0  0  0  0  0  0  0  0  0  0  0  0
   -1.2469   -0.6760   -2.7047 C   0  0  0  0  0  0  0  0  0  0  0  0
   -0.2991   -1.6182   -2.6834 C   0  0  0  0  0  0  0  0  0  0  0  0
    0.2068   -3.6583   -3.1366 C   0  0  0  0  0  0  0  0  0  0  0  0
    2.7045   -3.1738   -0.9114 C   0  0  0  0  0  0  0  0  0  0  0  0
    0.6107   -2.2613   -1.1712 N   0  0  0  0  0  0  0  0  0  0  0  0
    0.9184   -3.3456    0.2836 C   0  0  0  0  0  0  0  0  0  0  0  0
  1  9  1  1
  1  5  1  0
  2  1  1  0
  2  3  1  0
  2  6  1  6
  3  4  1  0
  4  5  1  0
  4 16  1  6
  5 13  1  1
  6  7  1  0
  6  8  1  0
  7 10  1  0
  7 11  2  0
  8 12  2  0
 10 14  2  0
 12 14  1  0
 14 15  1  0
 16 17  1  0
 17 23  1  0
 18 21  1  0
 21 20  2  0
 21 25  1  0
 21 22  1  1
 23 18  1  0
 23 19  2  0
 23 24  1  1
 25 26  1  0
 26 27  1  0
 27 30  1  0
 30 28  1  0
 30 29  1  0
 30 31  1  0
M  CHG  2  22  -1  30   1
M  END
>  <DRUGBANK_ID>  (1) 
DB12153

>  <SECONDARY_ACCESSION_NUMBERS>  (1) 
EXPT00867; DB04290

>  <COMMON_NAME>  (1) 
Citicoline

>  <CAS_NUMBER>  (1) 
987-78-0

>  <UNII>  (1) 
536BQ2JVC7

>  <SYNONYMS>  (1) 
CDP-choline; CDP-colina; citicolina; Citicoline; citidin difosfato de colina; Cytidine 5'-(choline diphosphate); Cytidine 5'-(cholinyl pyrophosphate); Cytidine 5'-diphosphocholine; Cytidine 5'-diphosphoric choline; Cytidine-5'-diphosphocholine

$$$$
