TRW
     RDKit          3D

 23 25  0  0  0  0  0  0  0  0999 V2000
    1.0301   -0.1575   -0.0750 N   0  0  0  0  0  0  0  0  0  0  0  0
    0.5777   -0.5775    1.2725 C   0  0  1  0  0  0  0  0  0  0  0  0
    1.0178    0.4207    2.3603 C   0  0  0  0  0  0  0  0  0  0  0  0
    0.5819    1.8430    2.1327 C   0  0  0  0  0  0  0  0  0  0  0  0
    1.3061    3.0319    2.4920 C   0  0  0  0  0  0  0  0  0  0  0  0
    0.5364    4.1008    2.0687 C   0  0  0  0  0  0  0  0  0  0  0  0
    2.5282    3.3316    3.1203 C   0  0  0  0  0  0  0  0  0  0  0  0
   -0.5826    2.2740    1.5197 C   0  0  0  0  0  0  0  0  0  0  0  0
   -0.5895    3.6246    1.4753 N   0  0  0  0  0  0  0  0  0  0  0  0
    0.8707    5.4314    2.2035 C   0  0  0  0  0  0  0  0  0  0  0  0
    2.9039    4.6895    3.2589 C   0  0  0  0  0  0  0  0  0  0  0  0
    2.0918    5.7578    2.8033 C   0  0  0  0  0  0  0  0  0  0  0  0
    2.6113    7.0825    2.8506 N   0  0  0  0  0  0  0  0  0  0  0  0
   -0.0618    6.2855    1.7061 O   0  0  0  0  0  0  0  0  0  0  0  0
   -0.9319   -0.8425    1.2724 C   0  0  0  0  0  0  0  0  0  0  0  0
   -1.4547   -1.8825    1.6279 O   0  0  0  0  0  0  0  0  0  0  0  0
    1.8587    8.2116    2.7850 N   0  0  0  0  0  0  0  0  0  0  0  0
    2.3252    9.5226    2.9080 C   0  0  0  0  0  0  0  0  0  0  0  0
    3.6321    9.8931    2.6164 C   0  0  0  0  0  0  0  0  0  0  0  0
    4.0348   11.2042    2.8487 C   0  0  0  0  0  0  0  0  0  0  0  0
    3.1959   12.0742    3.5482 C   0  0  0  0  0  0  0  0  0  0  0  0
    1.9132   11.6759    3.9077 C   0  0  0  0  0  0  0  0  0  0  0  0
    1.4403   10.4527    3.4664 C   0  0  0  0  0  0  0  0  0  0  0  0
  2  1  1  6
  2  3  1  0
  2 15  1  0
  3  4  1  0
  4  5  1  0
  4  8  2  0
  5  6  2  0
  5  7  1  0
  6  9  1  0
  6 10  1  0
  7 11  2  0
  8  9  1  0
 10 12  2  0
 10 14  1  0
 11 12  1  0
 12 13  1  0
 13 17  1  0
 15 16  2  0
 17 18  1  0
 18 19  2  0
 18 23  1  0
 19 20  1  0
 20 21  2  0
 21 22  1  0
 22 23  2  0
M  END
>  <DRUGBANK_ID>  (1) 
DB08646

>  <COMMON_NAME>  (1) 
TRW3-(2-AMINO-3-HYDROXY-PROPYL)-6-(N'-CYCLOHEXYL-HYDRAZINO)OCTAHYDRO-INDOL-7-OL

$$$$
