
     RDKit          3D

 29 33  0  0  0  0  0  0  0  0999 V2000
    0.2231   -0.7466    0.0018 C   0  0  0  0  0  0  0  0  0  0  0  0
    0.3231    0.6234    0.0209 C   0  0  0  0  0  0  0  0  0  0  0  0
    1.6599    0.9691    0.0076 N   0  0  0  0  0  0  0  0  0  0  0  0
    1.5014   -1.2179    0.0141 N   0  0  0  0  0  0  0  0  0  0  0  0
    2.3393   -0.1499    0.0191 C   0  0  0  0  0  0  0  0  0  0  0  0
   -0.8799   -1.4650   -0.0092 N   0  0  0  0  0  0  0  0  0  0  0  0
   -2.0486    0.6432    0.0319 N   0  0  0  0  0  0  0  0  0  0  0  0
   -2.0019   -0.7185   -0.0054 C   0  0  0  0  0  0  0  0  0  0  0  0
   -0.8820    1.3630    0.0617 C   0  0  0  0  0  0  0  0  0  0  0  0
   -3.3305   -2.8249   -0.0641 C   0  0  0  0  0  0  0  0  0  0  0  0
   -3.9764   -3.5004   -1.0977 C   0  0  0  0  0  0  0  0  0  0  0  0
   -4.0712   -4.9031   -1.0883 C   0  0  0  0  0  0  0  0  0  0  0  0
   -3.5021   -5.6772   -0.0693 C   0  0  0  0  0  0  0  0  0  0  0  0
   -2.8592   -4.9917    0.9655 C   0  0  0  0  0  0  0  0  0  0  0  0
   -2.7609   -3.5919    0.9599 C   0  0  0  0  0  0  0  0  0  0  0  0
   -3.1972   -1.4288   -0.0877 N   0  0  0  0  0  0  0  0  0  0  0  0
   -0.9445    2.7482    0.1444 N   0  0  0  0  0  0  0  0  0  0  0  0
    0.2401    3.6092    0.0997 C   0  0  0  0  0  0  0  0  0  0  0  0
    0.9704    3.4807   -1.2537 C   0  0  0  0  0  0  0  0  0  0  0  0
    2.3381    4.1470   -1.2655 C   0  0  0  0  0  0  0  0  0  0  0  0
    3.1900    3.7671   -0.0594 C   0  0  0  0  0  0  0  0  0  0  0  0
    2.4800    4.0844    1.2525 C   0  0  0  0  0  0  0  0  0  0  0  0
    1.1086    3.4304    1.3644 C   0  0  0  0  0  0  0  0  0  0  0  0
   -3.5858   -7.0496   -0.0980 N   0  0  0  0  0  0  0  0  0  0  0  0
   -2.5718   -9.6582    0.4536 O   0  0  0  0  0  0  0  0  0  0  0  0
   -4.1040   -7.8226    1.0309 C   0  0  0  0  0  0  0  0  0  0  0  0
   -2.9989   -7.8533   -1.1787 C   0  0  0  0  0  0  0  0  0  0  0  0
   -3.0444   -8.8179    1.5223 C   0  0  0  0  0  0  0  0  0  0  0  0
   -1.9831   -8.8533   -0.5857 C   0  0  0  0  0  0  0  0  0  0  0  0
  2  1  2  0
  3  2  1  0
  4  1  1  0
  5  3  2  0
  5  4  1  0
  6  1  1  0
  8  6  2  0
  8  7  1  0
  9  2  1  0
  9  7  2  0
 11 10  2  0
 12 11  1  0
 13 12  2  0
 13 24  1  0
 14 13  1  0
 15 10  1  0
 15 14  2  0
 16  8  1  0
 16 10  1  0
 17  9  1  0
 18 17  1  0
 19 18  1  0
 20 19  1  0
 21 20  1  0
 22 21  1  0
 23 18  1  0
 23 22  1  0
 26 24  1  0
 27 24  1  0
 28 25  1  0
 28 26  1  0
 29 25  1  0
 29 27  1  0
M  END
>  <DRUGBANK_ID>  (1) 
DB07340

>  <COMMON_NAME>  (1) 
Reversine

>  <CAS_NUMBER>  (1) 
656820-32-5

>  <UNII>  (1) 
Z499CLJ023

>  <SYNONYMS>  (1) 
2-(4-morpholinoanilino)-6-cyclohexylaminopurine

$$$$
