
     RDKit          3D

 28 27  0  0  0  0  0  0  0  0999 V2000
    1.0393    0.0329    0.0859 Cr  0  0  0  0  0 15  0  0  0  0  0  0
    0.9670   -0.0379   -0.0864 O   0  0  0  0  0  0  0  0  0  0  0  0
    2.3870   -0.0379   -0.0864 C   0  0  0  0  0  0  0  0  0  0  0  0
    3.0224   -1.1236   -0.2674 O   0  0  0  0  0  0  0  0  0  0  0  0
    3.1470    1.2605    0.1301 C   0  0  0  0  0  0  0  0  0  0  0  0
    4.1768    1.5133   -0.6836 N   0  0  0  0  0  0  0  0  0  0  0  0
    4.8318    2.6733   -0.5197 C   0  0  0  0  0  0  0  0  0  0  0  0
    4.4796    3.5955    0.4460 C   0  0  0  0  0  0  0  0  0  0  0  0
    3.4163    3.3157    1.3080 C   0  0  0  0  0  0  0  0  0  0  0  0
    2.7454    2.1118    1.1339 C   0  0  0  0  0  0  0  0  0  0  0  0
    0.9141   -0.0384    0.0339 O   0  0  0  0  0  0  0  0  0  0  0  0
    2.3341   -0.0384    0.0339 C   0  0  0  0  0  0  0  0  0  0  0  0
    2.9696   -0.9482    0.6533 O   0  0  0  0  0  0  0  0  0  0  0  0
    3.0941    1.0497   -0.7069 C   0  0  0  0  0  0  0  0  0  0  0  0
    4.1734    0.6165   -1.3658 N   0  0  0  0  0  0  0  0  0  0  0  0
    4.9357    1.5314   -1.9850 C   0  0  0  0  0  0  0  0  0  0  0  0
    4.6432    2.8808   -1.9620 C   0  0  0  0  0  0  0  0  0  0  0  0
    3.5263    3.3298   -1.2530 C   0  0  0  0  0  0  0  0  0  0  0  0
    2.7441    2.3772   -0.6123 C   0  0  0  0  0  0  0  0  0  0  0  0
    0.9423   -0.0301    0.0759 O   0  0  0  0  0  0  0  0  0  0  0  0
    2.3623   -0.0301    0.0759 C   0  0  0  0  0  0  0  0  0  0  0  0
    2.9977    0.9311    0.6121 O   0  0  0  0  0  0  0  0  0  0  0  0
    3.1223   -1.1796   -0.5654 C   0  0  0  0  0  0  0  0  0  0  0  0
    4.2143   -1.7051   -0.0016 N   0  0  0  0  0  0  0  0  0  0  0  0
    4.8541   -2.6788   -0.6681 C   0  0  0  0  0  0  0  0  0  0  0  0
    4.4253   -3.1447   -1.8954 C   0  0  0  0  0  0  0  0  0  0  0  0
    3.2960   -2.5762   -2.4899 C   0  0  0  0  0  0  0  0  0  0  0  0
    2.6413   -1.5670   -1.7952 C   0  0  0  0  0  0  0  0  0  0  0  0
  2  3  1  0
  3  4  2  0
  3  5  1  0
  5  6  2  0
  5 10  1  0
  6  7  1  0
  7  8  2  0
  8  9  1  0
  9 10  2  0
 11 12  1  0
 12 13  2  0
 12 14  1  0
 14 15  2  0
 14 19  1  0
 15 16  1  0
 16 17  2  0
 17 18  1  0
 18 19  2  0
 20 21  1  0
 21 22  2  0
 21 23  1  0
 23 24  2  0
 23 28  1  0
 24 25  1  0
 25 26  2  0
 26 27  1  0
 27 28  2  0
M  CHG  4   1   3   2  -1  11  -1  20  -1
M  END
>  <DRUGBANK_ID>  (1) 
DB11255

>  <COMMON_NAME>  (1) 
Chromium picolinate

>  <CAS_NUMBER>  (1) 
14639-25-9

>  <UNII>  (1) 
S71T8B8Z6P

>  <SYNONYMS>  (1) 
Chromium(III) picolinate

$$$$
