
     RDKit          3D

 35 40  0  0  0  0  0  0  0  0999 V2000
    0.9834    0.0320   -0.0580 C   0  0  0  0  0  0  0  0  0  0  0  0
    2.7030    1.6717   -7.1659 C   0  0  0  0  0  0  0  0  0  0  0  0
    3.1459    2.2488   -5.9674 C   0  0  0  0  0  0  0  0  0  0  0  0
    1.7450    2.2993   -7.9646 C   0  0  0  0  0  0  0  0  0  0  0  0
    1.3642    4.1368    2.2194 C   0  0  0  0  0  0  0  0  0  0  0  0
   -0.5282    4.6655    0.8273 C   0  0  0  0  0  0  0  0  0  0  0  0
    2.0030    3.2579    1.1292 C   0  0  0  0  0  0  0  0  0  0  0  0
   -0.0086    3.6722   -0.2289 C   0  0  0  0  0  0  0  0  0  0  0  0
    6.9124    5.8232   -3.2007 C   0  0  0  0  0  0  0  0  0  0  0  0
    6.7157    4.2245   -1.3340 C   0  0  0  0  0  0  0  0  0  0  0  0
    8.1416    5.0431   -3.6842 C   0  0  0  0  0  0  0  0  0  0  0  0
    7.9400    3.4918   -1.9062 C   0  0  0  0  0  0  0  0  0  0  0  0
    1.5564    5.9424   -1.4979 C   0  0  0  0  0  0  0  0  0  0  0  0
    0.9107    5.3162   -6.2631 C   0  0  0  0  0  0  0  0  0  0  0  0
    1.3424    6.3520    1.0769 C   0  0  0  0  0  0  0  0  0  0  0  0
    2.0837    6.1098   -0.2281 C   0  0  0  0  0  0  0  0  0  0  0  0
    2.6403    3.4797   -5.4977 C   0  0  0  0  0  0  0  0  0  0  0  0
    1.6661    4.1165   -6.3147 C   0  0  0  0  0  0  0  0  0  0  0  0
    1.2545    3.5236   -7.5086 C   0  0  0  0  0  0  0  0  0  0  0  0
    2.4261    5.1763   -2.3308 C   0  0  0  0  0  0  0  0  0  0  0  0
    3.7331    5.2400   -1.8887 C   0  0  0  0  0  0  0  0  0  0  0  0
    3.0419    4.0805   -4.2121 C   0  0  0  0  0  0  0  0  0  0  0  0
    4.7395    4.7587   -2.7315 C   0  0  0  0  0  0  0  0  0  0  0  0
    0.1043    5.4801   -7.3155 N   0  0  0  0  0  0  0  0  0  0  0  0
    2.0395    4.5230   -3.4474 N   0  0  0  0  0  0  0  0  0  0  0  0
    4.3586    4.2038   -3.9205 N   0  0  0  0  0  0  0  0  0  0  0  0
    0.3304    4.3799   -8.0511 N   0  0  0  0  0  0  0  0  0  0  0  0
    0.5479    5.2405    1.6712 N   0  0  0  0  0  0  0  0  0  0  0  0
    6.0617    4.9258   -2.4301 N   0  0  0  0  0  0  0  0  0  0  0  0
    0.9263    2.6494    0.3008 N   0  0  0  0  0  0  0  0  0  0  0  0
   -1.1752    1.3140    0.7092 O   0  0  0  0  0  0  0  0  0  0  0  0
    0.7836    1.1090    2.3005 O   0  0  0  0  0  0  0  0  0  0  0  0
    8.8255    4.4044   -2.5854 O   0  0  0  0  0  0  0  0  0  0  0  0
    3.8030    6.0220   -0.3370 S   0  0  0  0  0  0  0  0  0  0  0  0
    0.2374    1.2772    0.9606 S   0  0  0  0  0  0  0  0  0  0  0  0
  3  2  2  0
  4  2  1  0
  7  5  1  0
  8  6  1  0
 11  9  1  0
 12 10  1  0
 16 13  2  0
 16 15  1  0
 17  3  1  0
 18 14  1  0
 18 17  2  0
 19  4  2  0
 19 18  1  0
 20 13  1  0
 21 20  2  0
 22 17  1  0
 23 21  1  0
 24 14  2  0
 25 20  1  0
 25 22  2  0
 26 22  1  0
 26 23  2  0
 27 19  1  0
 27 24  1  0
 28  5  1  0
 28  6  1  0
 28 15  1  0
 29  9  1  0
 29 10  1  0
 29 23  1  0
 30  7  1  0
 30  8  1  0
 33 11  1  0
 33 12  1  0
 34 16  1  0
 34 21  1  0
 35  1  1  0
 35 30  1  0
 35 31  2  0
 35 32  2  0
M  END
>  <DRUGBANK_ID>  (1) 
DB11663

>  <COMMON_NAME>  (1) 
Pictilisib

>  <CAS_NUMBER>  (1) 
957054-30-7

>  <UNII>  (1) 
ICY00EMP8P

>  <SYNONYMS>  (1) 
Pictilisib

$$$$
