
     RDKit          3D

 15 16  0  0  0  0  0  0  0  0999 V2000
   -2.3176   -0.9015   -0.1157 O   0  0  0  0  0  0  0  0  0  0  0  0
   -1.2627   -0.2983    0.0131 C   0  0  0  0  0  0  0  0  0  0  0  0
   -1.2565    1.1762    0.3640 C   0  0  0  0  0  0  0  0  0  0  0  0
   -0.0821    1.8558   -0.3027 C   0  0  0  0  0  0  0  0  0  0  0  0
    1.2026    1.2494    0.2258 C   0  0  0  0  0  0  0  0  0  0  0  0
    1.1277   -0.2538    0.4492 C   0  0  0  0  0  0  0  0  0  0  0  0
    2.0383   -0.8406    1.0273 O   0  0  0  0  0  0  0  0  0  0  0  0
   -0.0068   -0.8976   -0.0341 N   0  0  0  0  0  0  0  0  0  0  0  0
    0.0766   -2.3498   -0.2500 C   0  0  0  0  0  0  0  0  0  0  0  0
    0.7819   -2.7294   -1.5762 C   0  0  0  0  0  0  0  0  0  0  0  0
    2.1876   -2.2305   -1.6868 C   0  0  0  0  0  0  0  0  0  0  0  0
    2.6803   -0.9668   -1.9438 C   0  0  0  0  0  0  0  0  0  0  0  0
    4.0303   -0.9051   -1.7537 N   0  0  0  0  0  0  0  0  0  0  0  0
    4.3862   -2.1341   -1.4645 C   0  0  0  0  0  0  0  0  0  0  0  0
    3.3159   -2.9870   -1.4793 N   0  0  0  0  0  0  0  0  0  0  0  0
  1  2  2  0
  2  3  1  0
  2  8  1  0
  3  4  1  0
  4  5  1  0
  5  6  1  0
  6  7  2  0
  6  8  1  0
  8  9  1  0
  9 10  1  0
 10 11  1  0
 11 12  2  0
 11 15  1  0
 12 13  1  0
 13 14  2  0
 14 15  1  0
M  END
>  <DRUGBANK_ID>  (1) 
DB16016

>  <COMMON_NAME>  (1) 
Histamine glutarimide

>  <CAS_NUMBER>  (1) 
1464897-15-1

>  <UNII>  (1) 
VOM9DP10M3

$$$$
