
     RDKit          3D

 26 27  0  0  0  0  0  0  0  0999 V2000
    3.0017    3.2443    1.5744 O   0  0  0  0  0  0  0  0  0  0  0  0
    3.0017    5.5451    2.4148 O   0  0  0  0  0  0  0  0  0  0  0  0
    3.0017    5.1225    0.0020 O   0  0  0  0  0  0  0  0  0  0  0  0
   -0.8571    1.8245   -0.3120 O   0  0  0  0  0  0  0  0  0  0  0  0
   -0.3147    4.5040    1.0421 O   0  0  0  0  0  0  0  0  0  0  0  0
    0.8087    4.2473   -0.9848 O   0  0  0  0  0  0  0  0  0  0  0  0
    0.4117    3.7477    0.2677 N   0  0  0  0  0  0  0  0  0  0  0  0
    0.5184    1.3851   -0.4118 N   0  0  0  0  0  0  0  0  0  0  0  0
    0.9017    4.6373    1.3304 C   0  0  1  0  0  0  0  0  0  0  0  0
    0.3950    4.1457    2.6765 C   0  0  0  0  0  0  0  0  0  0  0  0
    0.9017    5.0656    3.7754 C   0  0  0  0  0  0  0  0  0  0  0  0
    0.0502    5.9859    4.4335 C   0  0  0  0  0  0  0  0  0  0  0  0
    2.2151    4.9192    4.1450 C   0  0  0  0  0  0  0  0  0  0  0  0
    0.5835    6.7484    5.5233 C   0  0  0  0  0  0  0  0  0  0  0  0
    2.5284    2.3849    0.5479 C   0  0  0  0  0  0  0  0  0  0  0  0
   -1.3090    6.2136    4.0667 C   0  0  0  0  0  0  0  0  0  0  0  0
    2.7384    5.6595    5.2288 C   0  0  0  0  0  0  0  0  0  0  0  0
    1.9277    6.5207    5.9145 C   0  0  0  0  0  0  0  0  0  0  0  0
   -0.4334    2.5937    0.6068 C   0  0  0  0  0  0  0  0  0  0  0  0
    1.0084    2.3849    0.5479 C   0  0  1  0  0  0  0  0  0  0  0  0
   -0.2325    7.6896    6.1613 C   0  0  0  0  0  0  0  0  0  0  0  0
   -2.0605    7.1383    4.7172 C   0  0  0  0  0  0  0  0  0  0  0  0
   -1.5509    7.8905    5.7878 C   0  0  0  0  0  0  0  0  0  0  0  0
   -0.8006    2.3203    2.0562 C   0  0  0  0  0  0  0  0  0  0  0  0
    0.5017    3.7613    0.1487 C   0  0  0  0  0  0  0  0  0  0  0  0
    2.5017    4.6373    1.3304 B   0  0  0  0  0  0  0  0  0  0  0  0
  1 15  1  0
  1 26  1  0
  2 26  1  0
  3 26  1  0
  4 19  2  0
  5 25  1  0
  6 25  2  0
  7 19  1  0
  9  7  1  0
  9 10  1  1
  9 26  1  0
 10 11  1  0
 11 12  2  0
 11 13  1  0
 12 14  1  0
 12 16  1  0
 13 17  2  0
 14 18  2  0
 14 21  1  0
 16 22  2  0
 17 18  1  0
 19 24  1  0
 20 25  1  0
 20 15  1  0
 20  8  1  6
 21 23  2  0
 22 23  1  0
M  CHG  1  26  -1
M  END
>  <DRUGBANK_ID>  (1) 
DB03290

>  <SECONDARY_ACCESSION_NUMBERS>  (1) 
EXPT02856

>  <COMMON_NAME>  (1) 
L-naphthyl-1-acetamido boronic acid alanine

$$$$
