CRZ
     RDKit          3D

 19 21  0  0  0  0  0  0  0  0999 V2000
    0.9774   -0.0721   -0.0645 O   0  0  0  0  0  0  0  0  0  0  0  0
    0.4185   -1.0719   -0.7671 C   0  0  0  0  0  0  0  0  0  0  0  0
    1.1056   -1.8649   -1.3972 O   0  0  0  0  0  0  0  0  0  0  0  0
   -1.0770   -1.0741   -0.6969 C   0  0  0  0  0  0  0  0  0  0  0  0
   -1.5996   -1.3068    0.7310 C   0  0  0  0  0  0  0  0  0  0  0  0
   -1.3222   -0.1322    1.6637 C   0  0  0  0  0  0  0  0  0  0  0  0
   -1.7761    1.1764    1.2042 N   0  0  0  0  0  0  0  0  0  0  0  0
   -1.1716    2.3466    1.6369 C   0  0  0  0  0  0  0  0  0  0  0  0
   -0.1414    2.5532    2.5733 C   0  0  0  0  0  0  0  0  0  0  0  0
   -1.7724    3.4005    0.9491 C   0  0  0  0  0  0  0  0  0  0  0  0
   -1.3295    4.7141    1.2150 C   0  0  0  0  0  0  0  0  0  0  0  0
   -0.3185    4.9304    2.1601 C   0  0  0  0  0  0  0  0  0  0  0  0
    0.2685    3.8617    2.8277 C   0  0  0  0  0  0  0  0  0  0  0  0
   -2.7604    2.8428    0.0755 C   0  0  0  0  0  0  0  0  0  0  0  0
   -2.7750    1.4599    0.2804 C   0  0  0  0  0  0  0  0  0  0  0  0
   -3.6657    0.6463   -0.4559 C   0  0  0  0  0  0  0  0  0  0  0  0
   -3.6549    3.3917   -0.8764 C   0  0  0  0  0  0  0  0  0  0  0  0
   -4.5026    2.5621   -1.6234 C   0  0  0  0  0  0  0  0  0  0  0  0
   -4.4924    1.1974   -1.4250 C   0  0  0  0  0  0  0  0  0  0  0  0
  1  2  1  0
  2  3  2  0
  2  4  1  0
  4  5  1  0
  5  6  1  0
  6  7  1  0
  7  8  1  0
  7 15  1  0
  8  9  2  0
  8 10  1  0
  9 13  1  0
 10 11  2  0
 10 14  1  0
 11 12  1  0
 12 13  2  0
 14 15  2  0
 14 17  1  0
 15 16  1  0
 16 19  2  0
 17 18  2  0
 18 19  1  0
M  END
>  <DRUGBANK_ID>  (1) 
DB03851

>  <SECONDARY_ACCESSION_NUMBERS>  (1) 
EXPT01028

>  <COMMON_NAME>  (1) 
Carbazole Butanoic Acid

$$$$
