
     RDKit          3D

 29 32  0  0  1  0  0  0  0  0999 V2000
    0.8927    0.6639    2.4214 C   0  0  0  0  0  0  0  0  0  0  0  0
    0.5151   -0.3214    1.3115 C   0  0  2  0  0  0  0  0  0  0  0  0
    1.0937   -0.0636   -0.0311 N   0  0  0  0  0  0  0  0  0  0  0  0
    1.9008    1.0102   -0.3693 C   0  0  0  0  0  0  0  0  0  0  0  0
    3.0357    1.3466    0.3683 C   0  0  0  0  0  0  0  0  0  0  0  0
    3.7533    2.5147    0.1193 C   0  0  0  0  0  0  0  0  0  0  0  0
    3.4140    3.3509   -0.9488 C   0  0  0  0  0  0  0  0  0  0  0  0
    4.2543    4.5206   -1.1577 C   0  0  0  0  0  0  0  0  0  0  0  0
    5.5637    4.5955   -0.9832 N   0  0  0  0  0  0  0  0  0  0  0  0
    5.8922    5.9031   -1.1715 C   0  0  0  0  0  0  0  0  0  0  0  0
    4.7869    6.6385   -1.5296 C   0  0  0  0  0  0  0  0  0  0  0  0
    3.7595    5.7418   -1.5296 N   0  0  0  0  0  0  0  0  0  0  0  0
    2.3847    5.9630   -1.9217 C   0  0  0  0  0  0  0  0  0  0  0  0
    2.0212    5.0541   -3.0867 C   0  0  0  0  0  0  0  0  0  0  0  0
    1.8417    3.6590   -2.8452 O   0  0  0  0  0  0  0  0  0  0  0  0
    2.3065    3.0153   -1.7362 C   0  0  0  0  0  0  0  0  0  0  0  0
    1.5639    1.8531   -1.4335 C   0  0  0  0  0  0  0  0  0  0  0  0
    7.1836    6.3589   -1.0960 N   0  0  0  0  0  0  0  0  0  0  0  0
    8.3183    5.8144   -1.7835 C   0  0  1  0  0  0  0  0  0  0  0  0
    9.3546    6.9061   -1.5742 C   0  0  0  0  0  0  0  0  0  0  0  0
    8.8726    7.6928   -0.4764 O   0  0  0  0  0  0  0  0  0  0  0  0
    7.5469    7.4093   -0.2922 C   0  0  0  0  0  0  0  0  0  0  0  0
    6.8538    8.0177    0.5175 O   0  0  0  0  0  0  0  0  0  0  0  0
    8.8372    4.4727   -1.2895 C   0  0  0  0  0  0  0  0  0  0  0  0
    7.9558    3.4800   -1.5524 F   0  0  0  0  0  0  0  0  0  0  0  0
    9.9555    4.1543   -2.0043 F   0  0  0  0  0  0  0  0  0  0  0  0
   -1.0398   -0.3541    1.2570 C   0  0  0  0  0  0  0  0  0  0  0  0
   -1.6562   -1.5158    1.6395 N   0  0  0  0  0  0  0  0  0  0  0  0
   -1.7367    0.6060    0.9334 O   0  0  0  0  0  0  0  0  0  0  0  0
  2 27  1  0
  2  3  1  0
  2  1  1  1
  3  4  1  0
  4  5  2  0
  4 17  1  0
  5  6  1  0
  6  7  2  0
  7  8  1  0
  7 16  1  0
  8  9  2  0
  8 12  1  0
  9 10  1  0
 10 11  2  0
 10 18  1  0
 11 12  1  0
 12 13  1  0
 13 14  1  0
 14 15  1  0
 15 16  1  0
 16 17  2  0
 18 22  1  0
 19 18  1  0
 19 20  1  0
 19 24  1  1
 20 21  1  0
 21 22  1  0
 22 23  2  0
 24 25  1  0
 24 26  1  0
 27 28  1  0
 27 29  2  0
M  END
>  <DRUGBANK_ID>  (1) 
DB15275

>  <COMMON_NAME>  (1) 
Inavolisib

>  <CAS_NUMBER>  (1) 
2060571-02-8

>  <UNII>  (1) 
L4C1UY2NYH

>  <SYNONYMS>  (1) 
(2S)-2-((2-((4S)-4-(difluoromethyl)-2-oxo-3-oxazolidinyl)-5,6-dihydroimidazo(1,2-D)(1,4)benzoxazepin-9-yl)amino)propanamide; propanamide, 2-((2-((4S)-4-(difluoromethyl)-2-oxo-3-oxazolidinyl)-5,6-dihydroimidazo(1,2-D)(1,4)benzoxazepin-9-yl)amino)-, (2S)-

$$$$
