
     RDKit          3D

 23 26  0  0  0  0  0  0  0  0999 V2000
    1.1621   -1.3756    0.1592 C   0  0  0  0  0  0  0  0  0  0  0  0
   -0.8364    1.8359    0.3111 C   0  0  0  0  0  0  0  0  0  0  0  0
   -2.6275   -0.4578   -0.1551 C   0  0  1  0  0  0  0  0  0  0  0  0
   -2.0778    1.0479   -1.7243 C   0  0  0  0  0  0  0  0  0  0  0  0
    2.4421   -0.8506   -0.3454 C   0  0  0  0  0  0  0  0  0  0  0  0
    4.0326    1.2939    1.3115 C   0  0  0  0  0  0  0  0  0  0  0  0
   -2.3324    0.9250    0.6773 C   0  0  0  0  0  0  0  0  0  0  0  0
   -2.9184   -1.0223   -1.7803 C   0  0  0  0  0  0  0  0  0  0  0  0
   -3.7402    1.1933   -1.7776 C   0  0  0  0  0  0  0  0  0  0  0  0
    4.8804    0.6554    0.1082 C   0  0  0  0  0  0  0  0  0  0  0  0
   -4.1193   -0.2132   -2.0499 C   0  0  0  0  0  0  0  0  0  0  0  0
   -5.1947   -0.6440   -2.2239 O   0  0  0  0  0  0  0  0  0  0  0  0
    0.2067   -0.2372   -0.3387 C   0  0  2  0  0  0  0  0  0  0  0  0
    2.1678    1.7140    0.7684 C   0  0  2  0  0  0  0  0  0  0  0  0
    0.4391    1.0220    0.6495 C   0  0  1  0  0  0  0  0  0  0  0  0
   -1.2746   -0.4547   -0.6545 C   0  0  1  0  0  0  0  0  0  0  0  0
   -1.3595   -1.9700    0.2806 C   0  0  0  0  0  0  0  0  0  0  0  0
    2.6871    0.4349    0.3812 C   0  0  1  0  0  0  0  0  0  0  0  0
    2.3467    0.0955    2.1559 C   0  0  0  0  0  0  0  0  0  0  0  0
    3.8187    1.2814   -0.6121 C   0  0  1  0  0  0  0  0  0  0  0  0
    5.2568    3.5898   -0.0158 C   0  0  0  0  0  0  0  0  0  0  0  0
    4.4858    2.6811   -0.9631 C   0  0  0  0  0  0  0  0  0  0  0  0
    4.6101    2.9429   -2.1726 O   0  0  0  0  0  0  0  0  0  0  0  0
  1  5  1  0
  2  7  1  0
  3  8  1  6
  3  7  1  0
  4  9  1  0
  5 18  1  0
  6 10  1  0
  8 11  1  0
  9 11  1  0
 11 12  2  0
 13 15  1  0
 13 16  1  0
 13  1  1  1
 14 18  1  0
 14  6  1  1
 15 14  1  0
 15  2  1  6
 16  3  1  0
 16  4  1  0
 16 17  1  6
 18 20  1  0
 18 19  1  1
 20 10  1  0
 20 22  1  1
 22 21  1  0
 22 23  2  0
M  END
>  <DRUGBANK_ID>  (1) 
DB07557

>  <COMMON_NAME>  (1) 
3,20-Pregnanedione

>  <CAS_NUMBER>  (1) 
128-23-4

>  <UNII>  (1) 
105J2Q45A0

>  <SYNONYMS>  (1) 
5beta-pregnane-3,20-dione; 5Î²-pregnane-3,20-dione

$$$$
