
     RDKit          3D

 23 25  0  0  1  0  0  0  0  0999 V2000
    1.0357    0.0408   -0.0491 C   0  0  0  0  0  0  0  0  0  0  0  0
    0.6054    1.2016   -0.9004 C   0  0  0  0  0  0  0  0  0  0  0  0
    0.1970    0.9948   -2.2221 C   0  0  0  0  0  0  0  0  0  0  0  0
   -0.0362    2.0858   -3.0583 C   0  0  0  0  0  0  0  0  0  0  0  0
    0.2585    3.3808   -2.6189 C   0  0  0  0  0  0  0  0  0  0  0  0
    0.6633    3.6056   -1.3017 C   0  0  0  0  0  0  0  0  0  0  0  0
    0.7482    2.5180   -0.4236 C   0  0  0  0  0  0  0  0  0  0  0  0
    1.0516    4.9280   -0.8794 C   0  0  0  0  0  0  0  0  0  0  0  0
    1.4021    6.1173   -0.4761 C   0  0  0  0  0  0  0  0  0  0  0  0
    1.8107    7.5038   -0.0060 C   0  0  2  0  0  0  0  0  0  0  0  0
    2.5796    7.2053    1.3024 C   0  0  0  0  0  0  0  0  0  0  0  0
    1.6429    7.0911    2.5048 C   0  0  0  0  0  0  0  0  0  0  0  0
    0.6826    8.2727    2.6583 C   0  0  0  0  0  0  0  0  0  0  0  0
   -0.0388    8.7437    1.3771 C   0  0  2  0  0  0  0  0  0  0  0  0
    0.8932    8.7154    0.1553 C   0  0  1  0  0  0  0  0  0  0  0  0
    1.7184   10.0187    0.4406 C   0  0  0  0  0  0  0  0  0  0  0  0
    0.7058   11.0147    0.9760 C   0  0  0  0  0  0  0  0  0  0  0  0
   -0.3659   10.1928    1.5091 N   0  0  0  0  0  0  0  0  0  0  0  0
   -1.5014   10.6998    2.1193 C   0  0  0  0  0  0  0  0  0  0  0  0
   -2.3927    9.9887    2.5838 O   0  0  0  0  0  0  0  0  0  0  0  0
   -1.5458   12.0689    2.1533 O   0  0  0  0  0  0  0  0  0  0  0  0
   -2.7204   12.6501    2.7590 C   0  0  0  0  0  0  0  0  0  0  0  0
    2.8041    7.8279   -1.0045 O   0  0  0  0  0  0  0  0  0  0  0  0
  1  2  1  0
  2  3  2  0
  2  7  1  0
  3  4  1  0
  4  5  2  0
  5  6  1  0
  6  7  2  0
  6  8  1  0
  8  9  3  0
 10  9  1  0
 10 11  1  0
 10 15  1  0
 10 23  1  6
 11 12  1  0
 12 13  1  0
 14 13  1  1
 14 15  1  0
 14 18  1  0
 15 16  1  1
 16 17  1  0
 17 18  1  0
 18 19  1  0
 19 20  2  0
 19 21  1  0
 21 22  1  0
M  END
>  <DRUGBANK_ID>  (1) 
DB13004

>  <COMMON_NAME>  (1) 
Mavoglurant

>  <CAS_NUMBER>  (1) 
543906-09-8

>  <UNII>  (1) 
GT0I9SV4F6

>  <SYNONYMS>  (1) 
Mavoglurant

$$$$
