
     RDKit          3D

 31 31  0  0  0  0  0  0  0  0999 V2000
    5.6233    1.1175   -3.1858 S   0  0  0  0  0  0  0  0  0  0  0  0
    5.4748    2.8637   -6.4556 O   0  0  0  0  0  0  0  0  0  0  0  0
    4.8936    1.1342   -7.7853 O   0  0  0  0  0  0  0  0  0  0  0  0
    4.9263    1.0988    1.6025 O   0  0  0  0  0  0  0  0  0  0  0  0
    1.2357   -0.6634   -2.1623 O   0  0  0  0  0  0  0  0  0  0  0  0
    7.0494    2.3640   -0.7247 O   0  0  0  0  0  0  0  0  0  0  0  0
    6.6606    4.2662   -1.8151 O   0  0  0  0  0  0  0  0  0  0  0  0
    0.2695    3.5201   -1.2934 O   0  0  0  0  0  0  0  0  0  0  0  0
   -0.1827    1.5679   -0.2443 O   0  0  0  0  0  0  0  0  0  0  0  0
    3.0891   -0.5816   -0.9634 N   0  0  0  0  0  0  0  0  0  0  0  0
    2.9264    1.8071    0.8686 N   0  0  0  0  0  0  0  0  0  0  0  0
    4.4202    3.8980   -0.1101 N   0  0  0  0  0  0  0  0  0  0  0  0
    5.9296    2.1865   -5.2876 C   0  0  1  0  0  0  0  0  0  0  0  0
    4.9777    1.0361   -4.8990 C   0  0  2  0  0  0  0  0  0  0  0  0
    3.7423    1.4734   -5.7130 C   0  0  0  0  0  0  0  0  0  0  0  0
    7.3081    1.5490   -5.4415 C   0  0  0  0  0  0  0  0  0  0  0  0
    4.3762    2.1294   -6.9307 C   0  0  1  0  0  0  0  0  0  0  0  0
    8.3677    2.6091   -5.5250 C   0  0  0  0  0  0  0  0  0  0  0  0
    8.5183    3.4456   -4.2423 C   0  0  0  0  0  0  0  0  0  0  0  0
    5.2791   -0.0547   -1.8945 C   0  0  0  0  0  0  0  0  0  0  0  0
    4.3538   -0.0700   -0.5827 C   0  0  1  0  0  0  0  0  0  0  0  0
    8.8916    2.6281   -3.0046 C   0  0  0  0  0  0  0  0  0  0  0  0
    4.0519    0.9636    0.7333 C   0  0  0  0  0  0  0  0  0  0  0  0
   10.1761    1.8593   -3.1667 C   0  0  0  0  0  0  0  0  0  0  0  0
    2.3056   -0.0948   -1.9614 C   0  0  0  0  0  0  0  0  0  0  0  0
    2.7921    1.0628   -2.9094 C   0  0  0  0  0  0  0  0  0  0  0  0
    3.4851    2.6884   -2.5409 C   0  0  0  0  0  0  0  0  0  0  0  0
    4.6501    3.0116   -1.2628 C   0  0  1  0  0  0  0  0  0  0  0  0
    2.0693    2.3411   -0.1903 C   0  0  0  0  0  0  0  0  0  0  0  0
    6.2096    3.2078   -1.3957 C   0  0  0  0  0  0  0  0  0  0  0  0
    0.5904    2.4310   -0.5081 C   0  0  0  0  0  0  0  0  0  0  0  0
 14  1  1  1
  1 20  1  0
  2 13  1  0
  2 17  1  0
  4 23  2  0
  5 25  2  0
  6 30  1  0
  7 30  2  0
  8 31  1  0
  9 31  2  0
 10 25  1  0
 11 23  1  0
 11 29  1  0
 13 14  1  0
 13 16  1  6
 14 15  1  0
 15 17  1  0
 16 18  1  0
 17  3  1  6
 18 19  1  0
 19 22  1  0
 21 23  1  0
 21 20  1  6
 21 10  1  0
 22 24  1  0
 25 26  1  0
 26 27  1  0
 28 30  1  0
 28 27  1  0
 28 12  1  6
 29 31  1  0
M  END
>  <DRUGBANK_ID>  (1) 
DB04521

>  <SECONDARY_ACCESSION_NUMBERS>  (1) 
EXPT01689

>  <COMMON_NAME>  (1) 
4-S-Glutathionyl-5-pentyl-tetrahydro-furan-2-ol

>  <SYNONYMS>  (1) 
GSHNA

$$$$
