
     RDKit          3D

 21 21  0  0  0  0  0  0  0  0999 V2000
    3.5443    0.0188   -1.1449 C   0  0  0  0  0  0  0  0  0  0  0  0
    2.8770   -0.6769    0.0089 C   0  0  2  0  0  0  0  0  0  0  0  0
    3.4352    1.4072   -1.3434 C   0  0  0  0  0  0  0  0  0  0  0  0
    4.3968   -0.7448   -1.9440 C   0  0  0  0  0  0  0  0  0  0  0  0
    1.4018   -0.2089    0.1933 C   0  0  2  0  0  0  0  0  0  0  0  0
    3.7525   -0.5132    1.1006 O   0  0  0  0  0  0  0  0  0  0  0  0
    4.1372    2.0228   -2.3675 C   0  0  0  0  0  0  0  0  0  0  0  0
    5.1476   -0.1283   -2.9289 C   0  0  0  0  0  0  0  0  0  0  0  0
    1.0752    0.8751    1.1831 N   0  0  0  0  0  0  0  0  0  0  0  0
    0.5104   -1.4608    0.4042 C   0  0  0  0  0  0  0  0  0  0  0  0
    4.9699    1.2399   -3.1725 C   0  0  0  0  0  0  0  0  0  0  0  0
    1.9545    1.5906    1.9682 C   0  0  0  0  0  0  0  0  0  0  0  0
   -0.4212   -1.6136   -0.6722 O   0  0  0  0  0  0  0  0  0  0  0  0
    5.6008    1.8385   -4.3453 N   0  0  0  0  0  0  0  0  0  0  0  0
    1.4263    2.5870    2.9663 C   0  0  0  0  0  0  0  0  0  0  0  0
    3.1785    1.5062    1.9243 O   0  0  0  0  0  0  0  0  0  0  0  0
    6.2930    1.1027   -5.0622 O   0  0  0  0  0  0  0  0  0  0  0  0
    5.3686    3.0334   -4.5768 O   0  0  0  0  0  0  0  0  0  0  0  0
    1.8379    2.1937    4.3261 N   0  0  0  0  0  0  0  0  0  0  0  0
    1.5017    1.0473    4.7043 N   0  0  0  0  0  0  0  0  0  0  0  0
    1.1623    0.0264    5.0436 N   0  0  0  0  0  0  0  0  0  0  0  0
  1  3  2  0
  1  4  1  0
  2  6  1  1
  2  5  1  0
  2  1  1  0
  3  7  1  0
  4  8  2  0
  5 10  1  1
  5  9  1  0
  7 11  2  0
  8 11  1  0
  9 12  1  0
 10 13  1  0
 11 14  1  0
 12 15  1  0
 12 16  2  0
 14 17  2  0
 14 18  1  0
 15 19  1  0
 19 20  2  0
 20 21  2  0
M  CHG  4  14   1  18  -1  20   1  21  -1
M  END
>  <DRUGBANK_ID>  (1) 
DB13294

>  <COMMON_NAME>  (1) 
Azidamfenicol

>  <CAS_NUMBER>  (1) 
13838-08-9

>  <UNII>  (1) 
40257685LM

>  <SYNONYMS>  (1) 
Azidamfenicol; Azidamfenicolum; Azidanfenicol

$$$$
