
     RDKit          3D

 12 12  0  0  0  0  0  0  0  0999 V2000
    0.8713    0.1456    0.0369 C   0  0  0  0  0  0  0  0  0  0  0  0
    0.3114   -0.9774   -0.8635 C   0  0  0  0  0  0  0  0  0  0  0  0
    1.0912   -2.3416   -0.7582 C   0  0  0  0  0  0  0  0  0  0  0  0
    2.3283   -1.9040   -1.5914 C   0  0  0  0  0  0  0  0  0  0  0  0
    3.3906   -1.4934   -1.1083 O   0  0  0  0  0  0  0  0  0  0  0  0
    2.0359   -1.7869   -3.1238 C   0  0  0  0  0  0  0  0  0  0  0  0
    1.6305   -3.1529   -3.6028 C   0  0  0  0  0  0  0  0  0  0  0  0
    0.4537   -3.5618   -2.8624 N   0  0  0  0  0  0  0  0  0  0  0  0
    0.6697   -3.6540   -1.5180 C   0  0  0  0  0  0  0  0  0  0  0  0
    0.7443   -4.7997   -1.0636 O   0  0  0  0  0  0  0  0  0  0  0  0
    0.9059   -2.8718    0.7022 C   0  0  0  0  0  0  0  0  0  0  0  0
    1.4267   -2.1598    1.9204 C   0  0  0  0  0  0  0  0  0  0  0  0
  1  2  1  0
  2  3  1  0
  3  4  1  0
  3  9  1  0
  3 11  1  0
  4  5  2  0
  4  6  1  0
  6  7  1  0
  7  8  1  0
  8  9  1  0
  9 10  2  0
 11 12  1  0
M  END
>  <DRUGBANK_ID>  (1) 
DB13224

>  <COMMON_NAME>  (1) 
Piperidione

>  <CAS_NUMBER>  (1) 
77-03-2

>  <UNII>  (1) 
BZ6KL0Q8UD

$$$$
