OX5
     RDKit          3D

 17 17  0  0  0  0  0  0  0  0999 V2000
    2.2398   -0.0034    0.0104 O   0  0  0  0  0  0  0  0  0  0  0  0
    0.8761   -0.0252    0.0088 C   0  0  0  0  0  0  0  0  0  0  0  0
    0.1415   -1.2094    0.0059 C   0  0  0  0  0  0  0  0  0  0  0  0
   -1.2675   -1.1571   -0.0086 C   0  0  0  0  0  0  0  0  0  0  0  0
   -1.9262    0.0830   -0.0182 C   0  0  0  0  0  0  0  0  0  0  0  0
   -1.1654    1.2571   -0.0054 C   0  0  0  0  0  0  0  0  0  0  0  0
    0.2291    1.2027    0.0096 C   0  0  0  0  0  0  0  0  0  0  0  0
   -3.4161    0.1977   -0.0132 C   0  0  0  0  0  0  0  0  0  0  0  0
   -3.9819    1.3660    0.0185 N   0  0  0  0  0  0  0  0  0  0  0  0
   -5.3923    1.2887    0.0788 O   0  0  0  0  0  0  0  0  0  0  0  0
   -5.9429    2.5523   -0.0312 C   0  0  0  0  0  0  0  0  0  0  0  0
   -7.4691    2.5119   -0.1112 C   0  0  0  0  0  0  0  0  0  0  0  0
   -7.6622    0.3636   -1.4348 C   0  0  0  0  0  0  0  0  0  0  0  0
   -9.5851    1.9344   -1.3896 C   0  0  0  0  0  0  0  0  0  0  0  0
   -8.0431    1.8489   -1.3859 C   0  0  0  0  0  0  0  0  0  0  0  0
   -7.5202    2.5726   -2.6366 C   0  0  0  0  0  0  0  0  0  0  0  0
   -5.3206    3.6151   -0.0646 O   0  0  0  0  0  0  0  0  0  0  0  0
  1  2  1  0
  2  3  2  0
  2  7  1  0
  3  4  1  0
  4  5  2  0
  5  8  1  0
  5  6  1  0
  6  7  2  0
  8  9  2  0
  9 10  1  0
 10 11  1  0
 11 17  2  0
 11 12  1  0
 12 15  1  0
 13 15  1  0
 14 15  1  0
 15 16  1  0
M  END
>  <DRUGBANK_ID>  (1) 
DB08335

>  <COMMON_NAME>  (1) 
4-HYDROXYBENZALDEHYDE O-(3,3-DIMETHYLBUTANOYL)OXIME

$$$$
