
     RDKit          3D

 32 35  0  0  1  0  0  0  0  0999 V2000
   -2.2669    0.8642    4.9286 C   0  0  0  0  0  0  0  0  0  0  0  0
   -3.4203    1.5997    3.8601 C   0  0  0  0  0  0  0  0  0  0  0  0
   -3.4380    3.1221    3.6530 C   0  0  0  0  0  0  0  0  0  0  0  0
   -3.3766    0.7152    2.2229 C   0  0  2  0  0  0  0  0  0  0  0  0
   -4.4983    1.7365    0.9893 C   0  0  0  0  0  0  0  0  0  0  0  0
   -5.4420    0.5213   -0.0799 C   0  0  0  0  0  0  0  0  0  0  0  0
   -5.0907   -1.3514    0.4034 C   0  0  2  0  0  0  0  0  0  0  0  0
   -3.8850   -1.3263    1.9060 C   0  0  0  0  0  0  0  0  0  0  0  0
   -3.8963   -1.8527   -0.0128 N   0  0  0  0  0  0  0  0  0  0  0  0
   -3.6407   -0.4110    0.2989 C   0  0  1  0  0  0  0  0  0  0  0  0
   -4.9800   -0.0222    1.9201 C   0  0  0  0  0  0  0  0  0  0  0  0
   -4.0042   -0.6054    3.5964 C   0  0  0  0  0  0  0  0  0  0  0  0
   -2.2514   -0.9076    3.2721 O   0  0  0  0  0  0  0  0  0  0  0  0
   -1.4086   -1.0719    1.7536 C   0  0  0  0  0  0  0  0  0  0  0  0
   -1.9711   -0.4220    0.1981 C   0  0  1  0  0  0  0  0  0  0  0  0
   -1.1904   -0.8468   -0.8960 O   0  0  0  0  0  0  0  0  0  0  0  0
   -1.1269   -2.2176   -0.7389 C   0  0  0  0  0  0  0  0  0  0  0  0
   -1.9354    1.1602    2.1919 C   0  0  0  0  0  0  0  0  0  0  0  0
   -1.0804    2.1180    1.6385 N   0  0  0  0  0  0  0  0  0  0  0  0
   -0.7049    2.6164    2.9493 C   0  0  0  0  0  0  0  0  0  0  0  0
   -0.3758    4.0280    2.9936 C   0  0  0  0  0  0  0  0  0  0  0  0
   -0.9726    4.8422    1.8918 C   0  0  0  0  0  0  0  0  0  0  0  0
   -1.6369    4.3056    0.7939 C   0  0  0  0  0  0  0  0  0  0  0  0
   -2.2807    5.0558   -0.1705 C   0  0  0  0  0  0  0  0  0  0  0  0
   -2.0464    6.3921   -0.1086 C   0  0  0  0  0  0  0  0  0  0  0  0
   -1.3148    6.8738    0.9689 C   0  0  0  0  0  0  0  0  0  0  0  0
   -0.8266    6.1495    1.9934 N   0  0  0  0  0  0  0  0  0  0  0  0
   -2.5147    7.2649   -1.1990 C   0  0  0  0  0  0  0  0  0  0  0  0
   -2.0284    6.8727   -2.4081 F   0  0  0  0  0  0  0  0  0  0  0  0
   -3.8687    7.2573   -1.3170 F   0  0  0  0  0  0  0  0  0  0  0  0
   -2.1396    8.5548   -1.0283 F   0  0  0  0  0  0  0  0  0  0  0  0
   -1.8891    2.8953    0.7513 C   0  0  0  0  0  0  0  0  0  0  0  0
  1  2  1  0
  2  3  1  0
  4  2  1  0
  4  5  1  0
  4  8  1  0
  4 18  1  6
  5  6  1  0
  6  7  1  0
  7  8  1  0
  7  9  1  6
 10 11  1  0
 10 15  1  0
 10  9  1  1
 11 12  1  0
 12 13  1  0
 13 14  1  0
 14 15  1  0
 15 16  1  6
 16 17  1  0
 18 19  1  0
 19 20  1  0
 19 32  1  0
 20 21  1  0
 21 22  1  0
 22 23  2  0
 22 27  1  0
 23 24  1  0
 23 32  1  0
 24 25  2  0
 25 26  1  0
 25 28  1  0
 26 27  2  0
 28 29  1  0
 28 30  1  0
 28 31  1  0
M  END
>  <DRUGBANK_ID>  (1) 
DB11990

>  <COMMON_NAME>  (1) 
MK-0812

>  <CAS_NUMBER>  (1) 
624733-88-6

>  <UNII>  (1) 
P3LKY4ZL5O

$$$$
