
     RDKit          3D

 26 26  0  0  0  0  0  0  0  0999 V2000
    1.0161    0.0981   -0.0563 C   0  0  0  0  0  0  0  0  0  0  0  0
    0.6056    0.3976   -1.4899 C   0  0  0  0  0  0  0  0  0  0  0  0
    1.0648   -0.7106   -2.4358 C   0  0  0  0  0  0  0  0  0  0  0  0
    0.3391   -1.9947   -2.0826 C   0  0  0  0  0  0  0  0  0  0  0  0
   -1.1846   -1.6890   -2.3112 C   0  0  0  0  0  0  0  0  0  0  0  0
   -1.5800   -1.7109   -3.7443 C   0  0  0  0  0  0  0  0  0  0  0  0
   -1.0786   -3.0431   -4.3369 C   0  0  0  0  0  0  0  0  0  0  0  0
   -1.5821   -4.2495   -3.6695 O   0  0  0  0  0  0  0  0  0  0  0  0
   -1.0663   -4.7392   -2.4829 C   0  0  0  0  0  0  0  0  0  0  0  0
   -1.2897   -4.1414   -1.2167 C   0  0  0  0  0  0  0  0  0  0  0  0
   -0.9514   -4.6126    0.0281 C   0  0  0  0  0  0  0  0  0  0  0  0
   -0.4244   -5.8223    0.1036 C   0  0  0  0  0  0  0  0  0  0  0  0
   -0.5417   -6.3925    1.4914 C   0  0  0  0  0  0  0  0  0  0  0  0
   -1.7681   -7.3087    1.7312 C   0  0  0  0  0  0  0  0  0  0  0  0
   -1.8864   -8.5108    0.7605 C   0  0  0  0  0  0  0  0  0  0  0  0
   -0.5538   -9.1715    0.7833 N   0  0  0  0  0  0  0  0  0  0  0  0
   -2.9074   -9.5543    1.2505 C   0  0  0  0  0  0  0  0  0  0  0  0
   -4.2423   -9.0475    1.2614 O   0  0  0  0  0  0  0  0  0  0  0  0
   -2.4498   -8.0699   -0.6372 C   0  0  0  0  0  0  0  0  0  0  0  0
   -3.7833   -7.5788   -0.7102 O   0  0  0  0  0  0  0  0  0  0  0  0
   -0.0701   -6.4773   -1.1173 C   0  0  0  0  0  0  0  0  0  0  0  0
   -0.4761   -5.9769   -2.4182 C   0  0  0  0  0  0  0  0  0  0  0  0
   -0.3890   -6.9337   -3.5893 C   0  0  0  0  0  0  0  0  0  0  0  0
    0.7812   -7.6376   -3.5443 F   0  0  0  0  0  0  0  0  0  0  0  0
   -1.3648   -7.8925   -3.5888 F   0  0  0  0  0  0  0  0  0  0  0  0
   -0.4241   -6.3685   -4.8258 F   0  0  0  0  0  0  0  0  0  0  0  0
  1  2  1  0
  2  3  1  0
  3  4  1  0
  4  5  1  0
  5  6  1  0
  6  7  1  0
  7  8  1  0
  8  9  1  0
  9 10  2  0
  9 22  1  0
 10 11  1  0
 11 12  2  0
 12 13  1  0
 12 21  1  0
 13 14  1  0
 14 15  1  0
 15 16  1  0
 15 17  1  0
 15 19  1  0
 17 18  1  0
 19 20  1  0
 21 22  2  0
 22 23  1  0
 23 24  1  0
 23 25  1  0
 23 26  1  0
M  END
>  <DRUGBANK_ID>  (1) 
DB17074

>  <COMMON_NAME>  (1) 
Amiselimod

>  <CAS_NUMBER>  (1) 
942399-20-4

>  <UNII>  (1) 
358M5150LY

>  <SYNONYMS>  (1) 
1,3-propanediol, 2-amino-2-(2-(4-(heptyloxy)-3-(trifluoromethyl)phenyl)ethyl)-; 2-amino-2-(2-(4-heptyloxy-3-trifluoromethylphenyl)ethyl)propane-1,3-diol; Amiselimod

$$$$
