BN4
     RDKit          3D

 29 30  0  0  0  0  0  0  0  0999 V2000
    1.1978   -1.4690    0.0052 C   0  0  0  0  0  0  0  0  0  0  0  0
   -0.0119   -2.1824    0.0038 C   0  0  0  0  0  0  0  0  0  0  0  0
   -1.2464   -1.5116    0.0032 C   0  0  0  0  0  0  0  0  0  0  0  0
   -1.2190   -0.0886   -0.0011 C   0  0  0  0  0  0  0  0  0  0  0  0
   -2.6108    0.9500    0.0019 Cl  0  0  0  0  0  0  0  0  0  0  0  0
   -0.0023    0.6132   -0.0029 C   0  0  0  0  0  0  0  0  0  0  0  0
    1.1977   -0.0783    0.0014 C   0  0  0  0  0  0  0  0  0  0  0  0
   -2.5655   -3.6711    0.0499 N   0  0  0  0  0  0  0  0  0  0  0  0
   -2.5541   -2.2670    0.0095 C   0  0  0  0  0  0  0  0  0  0  0  0
   -3.5751   -1.6156   -0.0597 O   0  0  0  0  0  0  0  0  0  0  0  0
   -3.7223   -5.7129   -0.0813 N   0  0  0  0  0  0  0  0  0  0  0  0
   -4.9698   -6.4255   -0.1032 C   0  0  0  0  0  0  0  0  0  0  0  0
   -5.2021   -7.3852    0.8482 C   0  0  0  0  0  0  0  0  0  0  0  0
   -6.5102   -7.8626    0.9655 C   0  0  0  0  0  0  0  0  0  0  0  0
   -7.4808   -7.8098   -0.0012 C   0  0  0  0  0  0  0  0  0  0  0  0
   -8.5732   -8.6357   -0.0384 O   0  0  0  0  0  0  0  0  0  0  0  0
   -8.7279   -9.7350    0.8938 C   0  0  0  0  0  0  0  0  0  0  0  0
   -7.7536  -10.9344    0.7395 C   0  0  0  0  0  0  0  0  0  0  0  0
   -6.2967  -10.6823    1.1384 C   0  0  0  0  0  0  0  0  0  0  0  0
   -7.2828   -6.8368   -0.9590 C   0  0  0  0  0  0  0  0  0  0  0  0
   -6.0408   -6.1079   -0.9786 C   0  0  0  0  0  0  0  0  0  0  0  0
   -3.7789   -4.3347    0.1663 C   0  0  0  0  0  0  0  0  0  0  0  0
   -4.8306   -3.7776    0.4366 O   0  0  0  0  0  0  0  0  0  0  0  0
    2.6850    0.7836    0.0030 Cl  0  0  0  0  0  0  0  0  0  0  0  0
   -5.8983   -4.9805   -1.9518 C   0  0  0  0  0  0  0  0  0  0  0  0
   -6.1610  -10.2936    2.6361 C   0  0  0  0  0  0  0  0  0  0  0  0
   -4.9620  -10.5730    3.1769 O   0  0  0  0  0  0  0  0  0  0  0  0
   -7.0015   -9.7249    3.3182 O   0  0  0  0  0  0  0  0  0  0  0  0
   -8.4315   -6.5453   -1.8811 C   0  0  0  0  0  0  0  0  0  0  0  0
  1  2  2  0
  1  7  1  0
  2  3  1  0
  3  4  2  0
  3  9  1  0
  4  5  1  0
  4  6  1  0
  6  7  2  0
  7 24  1  0
  8  9  1  0
  8 22  1  0
  9 10  2  0
 11 12  1  0
 11 22  1  0
 12 13  2  0
 12 21  1  0
 13 14  1  0
 14 15  2  0
 15 16  1  0
 15 20  1  0
 16 17  1  0
 17 18  1  0
 18 19  1  0
 19 26  1  0
 20 21  2  0
 20 29  1  0
 21 25  1  0
 22 23  2  0
 26 27  1  0
 26 28  2  0
M  END
>  <DRUGBANK_ID>  (1) 
DB04644

>  <COMMON_NAME>  (1) 
4-{4-[3-(2,4-DICHLORO-BENZOYL)-UREIDO]-2,3-DIMETHYL-PHENOXY}-BUTYRIC ACID

$$$$
