
     RDKit          3D

 27 29  0  0  1  0  0  0  0  0999 V2000
    1.0493   -0.2809    0.0832 C   0  0  0  0  0  0  0  0  0  0  0  0
   -2.1877   -7.5428   -1.2291 C   0  0  0  0  0  0  0  0  0  0  0  0
    0.5292   -5.1574    0.8886 C   0  0  0  0  0  0  0  0  0  0  0  0
    0.3089   -1.2831   -0.8703 C   0  0  2  0  0  0  0  0  0  0  0  0
   -1.2072   -1.3706   -0.7057 C   0  0  2  0  0  0  0  0  0  0  0  0
   -0.1698   -6.9957    0.3673 C   0  0  0  0  0  0  0  0  0  0  0  0
   -1.5144   -2.8978   -0.7475 C   0  0  2  0  0  0  0  0  0  0  0  0
   -0.7966   -8.2454    0.4913 C   0  0  0  0  0  0  0  0  0  0  0  0
   -0.6699   -6.0901   -0.5770 C   0  0  0  0  0  0  0  0  0  0  0  0
   -0.2188   -3.6199   -1.0557 C   0  0  2  0  0  0  0  0  0  0  0  0
   -1.9262   -0.5765   -1.7150 N   0  0  0  0  0  0  0  0  0  0  0  0
   -0.4319   -9.1232    1.4935 N   0  0  0  0  0  0  0  0  0  0  0  0
   -1.8290   -8.5034   -0.3332 N   0  0  0  0  0  0  0  0  0  0  0  0
   -1.6677   -6.3065   -1.4206 N   0  0  0  0  0  0  0  0  0  0  0  0
    0.7814   -6.4300    1.1340 N   0  0  0  0  0  0  0  0  0  0  0  0
   -0.0124   -4.9019   -0.3302 N   0  0  0  0  0  0  0  0  0  0  0  0
   -2.4415   -3.2514   -1.7660 O   0  0  0  0  0  0  0  0  0  0  0  0
    2.5070   -2.5698    0.5653 O   0  0  0  0  0  0  0  0  0  0  0  0
    3.9001   -2.9444    2.3886 O   0  0  0  0  0  0  0  0  0  0  0  0
    3.6881   -4.4576    0.5774 O   0  0  0  0  0  0  0  0  0  0  0  0
    0.8058   -0.9590    3.7667 O   0  0  0  0  0  0  0  0  0  0  0  0
   -0.7425   -2.1618    2.0928 O   0  0  0  0  0  0  0  0  0  0  0  0
    1.2587   -0.5859    1.4689 O   0  0  0  0  0  0  0  0  0  0  0  0
    0.8099   -2.6462   -0.7964 O   0  0  0  0  0  0  0  0  0  0  0  0
    1.6611   -3.0054    2.7057 O   0  0  0  0  0  0  0  0  0  0  0  0
    2.7307   -3.7718    1.5826 P   0  0  0  0  0  0  0  0  0  0  0  0
    0.6652   -1.7672    2.3824 P   0  0  1  0  0  0  0  0  0  0  0  0
  4  1  1  1
  5  4  1  0
  5 11  1  6
  7  5  1  0
  7 17  1  6
  8  6  2  0
  9  6  1  0
 10  7  1  0
 10 16  1  1
 12  8  1  0
 13  2  2  0
 13  8  1  0
 14  2  1  0
 14  9  2  0
 15  3  2  0
 15  6  1  0
 16  3  1  0
 16  9  1  0
 23  1  1  0
 24  4  1  0
 24 10  1  0
 26 18  1  0
 26 19  1  0
 26 20  2  0
 26 25  1  0
 27 21  1  1
 27 22  2  0
 27 23  1  0
 27 25  1  0
M  END
>  <DRUGBANK_ID>  (1) 
DB04366

>  <SECONDARY_ACCESSION_NUMBERS>  (1) 
EXPT00161

>  <COMMON_NAME>  (1) 
3'-Deoxy 3'-Amino Adenosine-5'-Diphosphate

$$$$
