
     RDKit          3D

  8  6  0  0  0  0  0  0  0  0999 V2000
    0.9298   -0.0508   -0.0499 Sr  0  0  0  0  0 15  0  0  0  0  0  0
    1.0651    0.0367    0.0664 C   0  0  0  0  0  0  0  0  0  0  0  0
    0.5584    0.4753   -1.2979 C   0  0  0  0  0  0  0  0  0  0  0  0
   -0.1722   -0.3049   -1.9853 O   0  0  0  0  0  0  0  0  0  0  0  0
    0.9015    1.7568   -1.8043 O   0  0  0  0  0  0  0  0  0  0  0  0
    0.5584   -1.3641    0.3687 C   0  0  0  0  0  0  0  0  0  0  0  0
   -0.1722   -1.5694    1.3882 O   0  0  0  0  0  0  0  0  0  0  0  0
    0.9015   -2.4434   -0.4878 O   0  0  0  0  0  0  0  0  0  0  0  0
  2  3  1  0
  2  6  1  0
  3  4  2  0
  3  5  1  0
  6  7  2  0
  6  8  1  0
M  CHG  3   1   2   5  -1   8  -1
M  END
>  <DRUGBANK_ID>  (1) 
DB05732

>  <COMMON_NAME>  (1) 
Strontium malonate

>  <CAS_NUMBER>  (1) 
183133-72-4

>  <UNII>  (1) 
GT5D7PW9ZR

$$$$
