
     RDKit          3D

 31 32  0  0  0  0  0  0  0  0999 V2000
    2.6373    2.7874   -0.0183 O   0  0  0  0  0  0  0  0  0  0  0  0
    3.3032    0.8607   -3.6553 O   0  0  0  0  0  0  0  0  0  0  0  0
   -0.1413   -1.9984    0.2176 O   0  0  0  0  0  0  0  0  0  0  0  0
   -1.5143   -0.1250    1.3818 O   0  0  0  0  0  0  0  0  0  0  0  0
    0.8759    3.7411    0.7995 O   0  0  0  0  0  0  0  0  0  0  0  0
    3.8412    0.5182   -1.3668 N   0  0  0  0  0  0  0  0  0  0  0  0
    1.3158    1.2271    1.1913 N   0  0  0  0  0  0  0  0  0  0  0  0
    1.8231    2.6304   -1.0749 N   0  0  0  0  0  0  0  0  0  0  0  0
   -1.6145   -1.3300    5.0483 N   0  0  0  0  0  0  0  0  0  0  0  0
    3.5541    0.5497    0.0792 C   0  0  1  0  0  0  0  0  0  0  0  0
    4.8883    0.9395    0.6528 C   0  0  0  0  0  0  0  0  0  0  0  0
    5.8878    0.0593   -0.1566 C   0  0  0  0  0  0  0  0  0  0  0  0
    5.2412   -0.0252   -1.5417 C   0  0  0  0  0  0  0  0  0  0  0  0
    2.4981    1.5951    0.3991 C   0  0  0  0  0  0  0  0  0  0  0  0
    2.9318    0.9387   -2.4424 C   0  0  0  0  0  0  0  0  0  0  0  0
    1.5981    1.5527   -2.0490 C   0  0  1  0  0  0  0  0  0  0  0  0
    1.1547   -0.1520    1.6742 C   0  0  1  0  0  0  0  0  0  0  0  0
    0.7124    0.4850   -1.4279 C   0  0  0  0  0  0  0  0  0  0  0  0
    1.0858   -0.1524    3.1926 C   0  0  0  0  0  0  0  0  0  0  0  0
   -0.0990    0.6848    3.6462 C   0  0  0  0  0  0  0  0  0  0  0  0
   -0.6213    1.0990   -1.0345 C   0  0  0  0  0  0  0  0  0  0  0  0
   -1.3813    0.0964    3.0806 C   0  0  0  0  0  0  0  0  0  0  0  0
    0.7828    2.8008   -0.0504 C   0  0  0  0  0  0  0  0  0  0  0  0
   -1.5478   -1.3296    3.5799 C   0  0  0  0  0  0  0  0  0  0  0  0
   -1.6244    0.3145   -0.6582 C   0  0  0  0  0  0  0  0  0  0  0  0
   -0.7604    2.4767   -1.0685 C   0  0  0  0  0  0  0  0  0  0  0  0
   -0.4043    1.8524   -0.0077 C   0  0  0  0  0  0  0  0  0  0  0  0
   -2.7792    0.8536   -0.1448 C   0  0  0  0  0  0  0  0  0  0  0  0
   -1.9161    2.9528   -0.4055 C   0  0  0  0  0  0  0  0  0  0  0  0
   -2.9609    2.2078   -0.0934 C   0  0  0  0  0  0  0  0  0  0  0  0
   -0.1951   -0.7714    1.0788 B   0  0  0  0  0  0  0  0  0  0  0  0
  1 14  2  0
  2 15  2  0
  3 31  1  0
  4 31  1  0
  5 23  2  0
  6 10  1  0
  6 13  1  0
  6 15  1  0
  7 14  1  0
  8 23  1  0
  9 24  1  0
 10 11  1  0
 10 14  1  6
 11 12  1  0
 12 13  1  0
 16 18  1  1
 16 15  1  0
 16  8  1  0
 17  7  1  0
 17 19  1  1
 17 31  1  0
 18 21  1  0
 19 20  1  0
 20 22  1  0
 21 25  2  0
 21 26  1  0
 22 24  1  0
 23 27  1  0
 25 28  1  0
 26 29  2  0
 28 30  2  0
 29 30  1  0
M  END
>  <DRUGBANK_ID>  (1) 
DB07658

>  <COMMON_NAME>  (1) 
AC-(D)Phe-pro-borolys-OH

$$$$
