GRR
     RDKit          3D

 20 21  0  0  0  0  0  0  0  0999 V2000
    0.9658   -0.0624   -0.0794 C   0  0  0  0  0  0  0  0  0  0  0  0
    0.5051   -1.5137    0.0154 C   0  0  0  0  0  0  0  0  0  0  0  0
    0.9305   -2.2079    1.2847 C   0  0  0  0  0  0  0  0  0  0  0  0
    0.8782   -3.6044    1.3888 C   0  0  0  0  0  0  0  0  0  0  0  0
    1.0666   -4.2257    2.6290 C   0  0  0  0  0  0  0  0  0  0  0  0
    1.2343   -1.4658    2.4260 C   0  0  0  0  0  0  0  0  0  0  0  0
    1.4243   -2.0822    3.6472 C   0  0  0  0  0  0  0  0  0  0  0  0
    1.3863   -3.4654    3.7539 C   0  0  0  0  0  0  0  0  0  0  0  0
    1.6936   -4.1569    4.8904 O   0  0  0  0  0  0  0  0  0  0  0  0
    2.1418   -3.3808    6.0053 C   0  0  2  0  0  0  0  0  0  0  0  0
    3.4398   -2.5956    5.7818 C   0  0  0  0  0  0  0  0  0  0  0  0
    4.4833   -3.3386    5.3721 O   0  0  0  0  0  0  0  0  0  0  0  0
    3.5673   -1.3796    5.9156 O   0  0  0  0  0  0  0  0  0  0  0  0
    2.3817   -4.3190    7.1855 C   0  0  0  0  0  0  0  0  0  0  0  0
    1.1602   -5.1146    7.5742 C   0  0  0  0  0  0  0  0  0  0  0  0
    1.2107   -6.5132    7.5298 C   0  0  0  0  0  0  0  0  0  0  0  0
    0.1184   -7.2712    7.9428 C   0  0  0  0  0  0  0  0  0  0  0  0
   -1.0281   -6.6380    8.4170 C   0  0  0  0  0  0  0  0  0  0  0  0
   -1.0878   -5.2466    8.4671 C   0  0  0  0  0  0  0  0  0  0  0  0
   -0.0130   -4.4851    8.0111 C   0  0  0  0  0  0  0  0  0  0  0  0
  1  2  1  0
  3  2  1  0
  3  6  2  0
  4  3  1  0
  4  5  2  0
  5  8  1  0
  6  7  1  0
  8  7  2  0
  8  9  1  0
 10  9  1  0
 10 11  1  0
 11 13  2  0
 11 12  1  0
 10 14  1  1
 15 14  1  0
 16 15  2  0
 17 16  1  0
 18 17  2  0
 18 19  1  0
 19 20  2  0
 20 15  1  0
M  END
>  <DRUGBANK_ID>  (1) 
DB07842

>  <COMMON_NAME>  (1) 
(2S)-2-(4-ethylphenoxy)-3-phenylpropanoic acid

$$$$
