
     RDKit          3D

 17 19  0  0  1  0  0  0  0  0999 V2000
   -6.4723   -0.2298   -5.7277 N   0  0  0  0  0  0  0  0  0  0  0  0
   -5.4027   -0.4975   -4.8723 C   0  0  0  0  0  0  0  0  0  0  0  0
   -4.4351    0.4245   -4.6971 N   0  0  0  0  0  0  0  0  0  0  0  0
   -3.4885    0.1781   -3.7589 C   0  0  0  0  0  0  0  0  0  0  0  0
   -3.3100   -0.9233   -2.9872 N   0  0  0  0  0  0  0  0  0  0  0  0
   -4.2514   -1.8449   -3.2558 C   0  0  0  0  0  0  0  0  0  0  0  0
   -5.3046   -1.6956   -4.1506 C   0  0  0  0  0  0  0  0  0  0  0  0
   -6.0950   -2.8072   -4.1826 N   0  0  0  0  0  0  0  0  0  0  0  0
   -5.5249   -3.6265   -3.3354 C   0  0  0  0  0  0  0  0  0  0  0  0
   -4.4062   -3.1094   -2.7277 N   0  0  0  0  0  0  0  0  0  0  0  0
   -3.6110   -3.7294   -1.6596 C   0  0  2  0  0  0  0  0  0  0  0  0
   -2.8713   -4.9751   -2.0993 C   0  0  0  0  0  0  0  0  0  0  0  0
   -3.4033   -6.0972   -1.5790 C   0  0  0  0  0  0  0  0  0  0  0  0
   -4.5759   -5.8005   -0.7062 C   0  0  2  0  0  0  0  0  0  0  0  0
   -5.7737   -6.1587   -1.3655 O   0  0  0  0  0  0  0  0  0  0  0  0
   -4.4837   -4.2713   -0.4854 C   0  0  1  0  0  0  0  0  0  0  0  0
   -3.8614   -4.0296    0.7873 O   0  0  0  0  0  0  0  0  0  0  0  0
  1  2  1  0
  2  3  2  0
  2  7  1  0
  3  4  1  0
  4  5  2  0
  5  6  1  0
  6  7  2  0
  6 10  1  0
  7  8  1  0
  8  9  2  0
  9 10  1  0
 11 12  1  0
 11 16  1  0
 11 10  1  6
 12 13  2  0
 13 14  1  0
 14 16  1  0
 14 15  1  6
 16 17  1  1
M  END
>  <DRUGBANK_ID>  (1) 
DB03216

>  <SECONDARY_ACCESSION_NUMBERS>  (1) 
EXPT00427

>  <COMMON_NAME>  (1) 
(1'R,2'S)-9-(2-Hydroxy-3'-Keto-Cyclopenten-1-yl)Adenine

$$$$
