721
     RDKit          3D

 17 17  0  0  0  0  0  0  0  0999 V2000
    1.0964    0.1928   -0.5782 O   0  0  0  0  0  0  0  0  0  0  0  0
    3.0692   -0.8172   -0.9641 O   0  0  0  0  0  0  0  0  0  0  0  0
    1.6325    1.8023    2.0386 N   0  0  0  0  0  0  0  0  0  0  0  0
    5.6437    4.9655    0.1936 N   0  0  0  0  0  0  0  0  0  0  0  0
    0.3280    1.7488    1.3889 C   0  0  0  0  0  0  0  0  0  0  0  0
    1.9644    2.8692    2.9714 C   0  0  0  0  0  0  0  0  0  0  0  0
    2.4280    0.5760    2.0371 C   0  0  0  0  0  0  0  0  0  0  0  0
    0.2454    1.2793   -0.1194 C   0  0  0  0  0  0  0  0  0  0  0  0
    1.8033    2.2535    4.3167 C   0  0  0  0  0  0  0  0  0  0  0  0
    2.2273   -0.5833    2.9258 C   0  0  0  0  0  0  0  0  0  0  0  0
    2.4409    0.2749   -0.8270 C   0  0  0  0  0  0  0  0  0  0  0  0
    3.2350    1.5832   -0.7836 C   0  0  0  0  0  0  0  0  0  0  0  0
    3.0789    2.5760    0.1926 C   0  0  0  0  0  0  0  0  0  0  0  0
    4.4672    1.7154   -1.3728 C   0  0  0  0  0  0  0  0  0  0  0  0
    4.7996    3.9825   -0.3281 C   0  0  0  0  0  0  0  0  0  0  0  0
    3.5869    3.8608    0.2713 C   0  0  0  0  0  0  0  0  0  0  0  0
    5.2415    2.9013   -1.1386 C   0  0  0  0  0  0  0  0  0  0  0  0
  1  8  1  0
  1 11  1  0
  2 11  2  0
  3  5  1  0
  3  6  1  0
  3  7  1  0
  4 15  1  0
  5  8  1  0
  6  9  1  0
  7 10  1  0
 11 12  1  0
 12 13  2  0
 12 14  1  0
 13 16  1  0
 14 17  2  0
 15 16  2  0
 15 17  1  0
M  END
>  <DRUGBANK_ID>  (1) 
DB00721

>  <SECONDARY_ACCESSION_NUMBERS>  (1) 
APRD00650; DB05342

>  <COMMON_NAME>  (1) 
Procaine

>  <CAS_NUMBER>  (1) 
59-46-1

>  <UNII>  (1) 
4Z8Y51M438

>  <SYNONYMS>  (1) 
2-Diethylaminoethyl p-aminobenzoate; 4-aminobenzoic acid 2-diethylaminoethyl ester; Novocaine; p-Aminobenzoic acid 2-diethylaminoethyl ester; Procaina; Procaine; Procainum; Vitamin H3; β-(diethylamino)ethyl 4-aminobenzoate; β-(diethylamino)ethyl p-aminobenzoate

$$$$
