
     RDKit          3D

 23 24  0  0  0  0  0  0  0  0999 V2000
   -0.3198    1.0910   -0.2186 O   0  0  0  0  0  0  0  0  0  0  0  0
    0.4781    0.0048   -0.3415 C   0  0  0  0  0  0  0  0  0  0  0  0
   -0.1896   -1.1853   -0.0531 C   0  0  0  0  0  0  0  0  0  0  0  0
   -1.5662   -0.7217    0.0369 C   0  0  0  0  0  0  0  0  0  0  0  0
   -1.5645    0.6501   -0.0007 C   0  0  0  0  0  0  0  0  0  0  0  0
    1.8308    0.4194   -0.6786 C   0  0  0  0  0  0  0  0  0  0  0  0
    0.3132   -2.5801    0.0455 C   0  0  0  0  0  0  0  0  0  0  0  0
   -0.8411   -3.8073   -0.0520 S   0  0  0  0  0  0  0  0  0  0  0  0
    1.6345   -3.0142    0.1215 N   0  0  0  0  0  0  0  0  0  0  0  0
    2.8277   -2.3083    0.3618 C   0  0  0  0  0  0  0  0  0  0  0  0
    2.9131   -1.3316    1.3632 C   0  0  0  0  0  0  0  0  0  0  0  0
    3.9233   -0.3387    1.3281 C   0  0  0  0  0  0  0  0  0  0  0  0
    4.8874   -0.3974    0.3015 C   0  0  0  0  0  0  0  0  0  0  0  0
    4.8715   -1.4629   -0.6211 C   0  0  0  0  0  0  0  0  0  0  0  0
    3.8641   -2.4398   -0.5745 C   0  0  0  0  0  0  0  0  0  0  0  0
    5.9767    0.9036   -0.0351 Cl  0  0  0  0  0  0  0  0  0  0  0  0
    3.6859    0.9263    2.1093 C   0  0  0  0  0  0  0  0  0  0  0  0
    2.6307    1.0437    2.8823 N   0  0  0  0  0  0  0  0  0  0  0  0
    2.5441    2.3416    3.4304 O   0  0  0  0  0  0  0  0  0  0  0  0
    1.4009    2.4425    4.3206 C   0  0  0  0  0  0  0  0  0  0  0  0
    0.0925    2.5506    3.5264 C   0  0  0  0  0  0  0  0  0  0  0  0
    1.3350    1.2528    5.2878 C   0  0  0  0  0  0  0  0  0  0  0  0
    1.5696    3.7278    5.1499 C   0  0  0  0  0  0  0  0  0  0  0  0
  2  1  1  0
  2  3  2  0
  2  6  1  0
  4  3  1  0
  4  5  2  0
  5  1  1  0
  7  3  1  0
  7  8  2  0
  7  9  1  0
 10  9  1  0
 10 11  2  0
 10 15  1  0
 11 12  1  0
 12 13  2  0
 12 17  1  0
 13 14  1  0
 13 16  1  0
 14 15  2  0
 17 18  2  0
 18 19  1  0
 20 19  1  0
 20 21  1  0
 20 22  1  0
 20 23  1  0
M  END
>  <DRUGBANK_ID>  (1) 
DB08680

>  <COMMON_NAME>  (1) 
N-{3-[(E)-(tert-butoxyimino)methyl]-4-chlorophenyl}-2-methylfuran-3-carbimidothioic acid

>  <CAS_NUMBER>  (1) 
172998-57-1

>  <UNII>  (1) 
9ES58KV6YB

$$$$
