
     RDKit          3D

 37 42  0  0  0  0  0  0  0  0999 V2000
    1.0904    0.0591    0.0411 C   0  0  0  0  0  0  0  0  0  0  0  0
    0.5821    1.4626   -0.2435 C   0  0  0  0  0  0  0  0  0  0  0  0
   -0.2098    1.6563   -1.2514 N   0  0  0  0  0  0  0  0  0  0  0  0
    0.9263    2.4797    0.6277 N   0  0  0  0  0  0  0  0  0  0  0  0
   -0.0362    3.4901    1.0583 C   0  0  0  0  0  0  0  0  0  0  0  0
    0.3727    4.8402    0.5223 C   0  0  0  0  0  0  0  0  0  0  0  0
    1.8202    5.2256    0.8311 C   0  0  0  0  0  0  0  0  0  0  0  0
    2.7910    4.0787    0.5249 C   0  0  0  0  0  0  0  0  0  0  0  0
    2.2904    2.7397    1.0739 C   0  0  0  0  0  0  0  0  0  0  0  0
    2.2326    6.4792    0.2247 O   0  0  0  0  0  0  0  0  0  0  0  0
    2.2648    6.5132   -1.1476 C   0  0  0  0  0  0  0  0  0  0  0  0
    1.1172    6.3987   -1.9236 C   0  0  0  0  0  0  0  0  0  0  0  0
    1.1737    6.3406   -3.3128 C   0  0  0  0  0  0  0  0  0  0  0  0
    2.4002    6.5712   -3.9500 C   0  0  0  0  0  0  0  0  0  0  0  0
    3.5401    6.7977   -3.1687 C   0  0  0  0  0  0  0  0  0  0  0  0
    3.4940    6.7557   -1.7597 C   0  0  0  0  0  0  0  0  0  0  0  0
    4.5889    7.0428   -4.0444 N   0  0  0  0  0  0  0  0  0  0  0  0
    5.9859    7.2846   -3.6072 C   0  0  0  0  0  0  0  0  0  0  0  0
    6.9501    6.1909   -4.0405 C   0  0  0  0  0  0  0  0  0  0  0  0
    7.1878    6.0826   -5.4059 C   0  0  0  0  0  0  0  0  0  0  0  0
    7.8998    5.0566   -5.9027 C   0  0  0  0  0  0  0  0  0  0  0  0
    8.3610    4.0879   -5.0701 C   0  0  0  0  0  0  0  0  0  0  0  0
    9.2388    3.2314   -5.6178 C   0  0  0  0  0  0  0  0  0  0  0  0
    9.9271    2.2096   -4.9273 C   0  0  0  0  0  0  0  0  0  0  0  0
    9.0793    1.2684   -4.5333 C   0  0  0  0  0  0  0  0  0  0  0  0
    8.4236    2.3035   -3.5675 C   0  0  0  0  0  0  0  0  0  0  0  0
    8.0398    3.8668   -3.7515 C   0  0  0  0  0  0  0  0  0  0  0  0
    7.5231    5.1802   -3.1975 C   0  0  0  0  0  0  0  0  0  0  0  0
    9.5605    0.5366   -6.0809 C   0  0  0  0  0  0  0  0  0  0  0  0
    9.5675    1.0929   -7.3622 N   0  0  0  0  0  0  0  0  0  0  0  0
   10.2565   -0.5827   -6.1159 N   0  0  0  0  0  0  0  0  0  0  0  0
    4.0993    7.0740   -5.3518 C   0  0  0  0  0  0  0  0  0  0  0  0
    2.7629    6.6764   -5.3216 C   0  0  0  0  0  0  0  0  0  0  0  0
    2.0522    6.5546   -6.5433 C   0  0  0  0  0  0  0  0  0  0  0  0
    2.7156    6.7240   -7.7639 C   0  0  0  0  0  0  0  0  0  0  0  0
    4.0384    7.1145   -7.7796 C   0  0  0  0  0  0  0  0  0  0  0  0
    4.6806    7.4162   -6.5835 C   0  0  0  0  0  0  0  0  0  0  0  0
  1  2  1  0
  2  3  2  0
  2  4  1  0
  4  5  1  0
  4  9  1  0
  5  6  1  0
  6  7  1  0
  7  8  1  0
  7 10  1  0
  8  9  1  0
 10 11  1  0
 11 12  2  0
 11 16  1  0
 12 13  1  0
 13 14  2  0
 14 15  1  0
 14 33  1  0
 15 16  2  0
 15 17  1  0
 17 18  1  0
 17 32  1  0
 18 19  1  0
 19 20  2  0
 19 28  1  0
 20 21  1  0
 21 22  2  0
 22 23  1  0
 22 27  1  0
 23 24  2  0
 24 25  1  0
 25 26  2  0
 25 29  1  0
 26 27  1  0
 27 28  2  0
 29 30  1  0
 29 31  2  0
 32 33  2  0
 32 37  1  0
 33 34  1  0
 34 35  2  0
 35 36  1  0
 36 37  2  0
M  END
>  <DRUGBANK_ID>  (1) 
DB02112

>  <SECONDARY_ACCESSION_NUMBERS>  (1) 
EXPT00320

>  <COMMON_NAME>  (1) 
Zk-806450

$$$$
