
     RDKit          3D

 15 15  0  0  0  0  0  0  0  0999 V2000
    1.4193   -0.1978    0.0121 C   0  0  0  0  0  0  0  0  0  0  0  0
    0.5952   -1.3336    0.0178 C   0  0  0  0  0  0  0  0  0  0  0  0
    0.8698    1.0869    0.0333 C   0  0  0  0  0  0  0  0  0  0  0  0
   -0.8040   -1.1780    0.0366 C   0  0  0  0  0  0  0  0  0  0  0  0
   -0.5029    1.2119    0.2370 C   0  0  0  0  0  0  0  0  0  0  0  0
   -1.3388    0.1057    0.1279 C   0  0  0  0  0  0  0  0  0  0  0  0
    1.7115    2.3035   -0.2738 C   0  0  0  0  0  0  0  0  0  0  0  0
    1.3460    2.9990   -1.6024 C   0  0  0  0  0  0  0  0  0  0  0  0
   -0.0644    3.5544   -1.7148 C   0  0  0  0  0  0  0  0  0  0  0  0
   -0.1611    4.8975   -1.6675 O   0  0  0  0  0  0  0  0  0  0  0  0
   -1.0706    2.8740   -1.8766 O   0  0  0  0  0  0  0  0  0  0  0  0
    1.0921   -2.6044   -0.0390 O   0  0  0  0  0  0  0  0  0  0  0  0
   -1.7636   -2.1598   -0.0076 O   0  0  0  0  0  0  0  0  0  0  0  0
    2.4915   -2.7969   -0.0578 C   0  0  0  0  0  0  0  0  0  0  0  0
   -1.3103   -3.5026    0.0876 C   0  0  0  0  0  0  0  0  0  0  0  0
  2  1  2  0
  2 12  1  0
  3  1  1  0
  3  7  1  0
  4  2  1  0
  4 13  1  0
  5  3  2  0
  6  4  2  0
  6  5  1  0
  7  8  1  0
  8  9  1  0
  9 10  1  0
  9 11  2  0
 12 14  1  0
 13 15  1  0
M  END
>  <DRUGBANK_ID>  (1) 
DB04208

>  <SECONDARY_ACCESSION_NUMBERS>  (1) 
EXPT02225

>  <COMMON_NAME>  (1) 
3-(3,4-dimethoxyphenyl)propanoic acid

>  <CAS_NUMBER>  (1) 
2107-70-2

>  <UNII>  (1) 
6XO32ZSP1D

>  <SYNONYMS>  (1) 
3-(3,4-dimethoxyphenyl)propionic acid; 3,4-dimethoxy-α-β-dihydrocinnamic acid

$$$$
