DP4
     RDKit          3D

 17 18  0  0  0  0  0  0  0  0999 V2000
    1.8828    0.2287   -0.0681 C   0  0  0  0  0  0  0  0  0  0  0  0
    1.1344   -0.9146    0.1043 C   0  0  0  0  0  0  0  0  0  0  0  0
   -0.1877   -0.6738    0.3792 C   0  0  0  0  0  0  0  0  0  0  0  0
   -0.9951    0.4942    0.1457 C   0  0  0  0  0  0  0  0  0  0  0  0
   -0.2017    1.6230   -0.0068 C   0  0  0  0  0  0  0  0  0  0  0  0
    1.2031    1.4567   -0.0735 C   0  0  0  0  0  0  0  0  0  0  0  0
   -3.9100    1.6138    1.4200 C   0  0  0  0  0  0  0  0  0  0  0  0
   -3.4897    1.6628   -1.7479 C   0  0  0  0  0  0  0  0  0  0  0  0
   -3.1689    0.7559   -0.0054 Si  0  0  0  0  0  4  0  0  0  0  0  0
   -4.2613   -1.1076   -0.5178 C   0  0  2  0  0  0  0  0  0  0  0  0
   -4.7311   -2.3950    0.2685 C   0  0  0  0  0  0  0  0  0  0  0  0
   -3.8598   -2.9643    1.3800 C   0  0  0  0  0  0  0  0  0  0  0  0
   -2.2113   -2.0746   -0.0701 C   0  0  0  0  0  0  0  0  0  0  0  0
   -3.0739   -1.6780   -1.2430 C   0  0  0  0  0  0  0  0  0  0  0  0
   -2.4454   -3.1379    0.9322 N   0  0  1  0  0  0  0  0  0  0  0  0
   -1.6788   -2.9609    2.0966 O   0  0  0  0  0  0  0  0  0  0  0  0
   -1.9103   -4.3450    0.2688 C   0  0  0  0  0  0  0  0  0  0  0  0
  1  2  2  0
  1  6  1  0
  2  3  1  0
  3  4  2  0
  4  5  1  0
  4  9  1  0
  5  6  2  0
  7  9  1  0
  8  9  1  0
 10  9  1  1
 10 11  1  0
 10 14  1  0
 11 12  1  0
 12 15  1  0
 13 14  1  0
 13 15  1  0
 15 17  1  6
 15 16  1  0
M  CHG  2  15   1  16  -1
M  END
>  <DRUGBANK_ID>  (1) 
DB07672

>  <COMMON_NAME>  (1) 
TRANS-2-(DIMETHYLPHENYLSILYL)-PIPERIDINE-N-OXIDE

$$$$
