
     RDKit          3D

 33 35  0  0  0  0  0  0  0  0999 V2000
    0.9423    0.0269   -0.1002 C   0  0  0  0  0  0  0  0  0  0  0  0
    0.7629   -1.3396   -0.5029 O   0  0  0  0  0  0  0  0  0  0  0  0
    0.9732   -1.6561   -1.8302 C   0  0  0  0  0  0  0  0  0  0  0  0
    2.2884   -1.6781   -2.3331 C   0  0  0  0  0  0  0  0  0  0  0  0
    3.3895   -1.1805   -1.5170 C   0  0  0  0  0  0  0  0  0  0  0  0
    4.6194   -0.8946   -1.9363 C   0  0  0  0  0  0  0  0  0  0  0  0
    5.5938   -0.3107   -1.0325 C   0  0  0  0  0  0  0  0  0  0  0  0
    5.6993   -0.6287    0.3266 C   0  0  0  0  0  0  0  0  0  0  0  0
    6.7591   -0.1214    1.0919 C   0  0  0  0  0  0  0  0  0  0  0  0
    7.7396    0.6808    0.4901 C   0  0  0  0  0  0  0  0  0  0  0  0
    8.7224    1.3358    1.3079 N   0  0  0  0  0  0  0  0  0  0  0  0
   10.0463    2.2043    0.6980 S   0  0  0  0  0  0  0  0  0  0  0  0
    9.8744    3.7572    1.5385 C   0  0  0  0  0  0  0  0  0  0  0  0
   11.2396    1.5621    1.1931 O   0  0  0  0  0  0  0  0  0  0  0  0
    9.9149    2.5394   -0.7052 O   0  0  0  0  0  0  0  0  0  0  0  0
    7.6163    0.9399   -0.8711 C   0  0  0  0  0  0  0  0  0  0  0  0
    6.5266    0.5246   -1.6116 C   0  0  0  0  0  0  0  0  0  0  0  0
    2.5460   -2.1980   -3.6120 C   0  0  0  0  0  0  0  0  0  0  0  0
    1.5289   -2.7114   -4.4058 C   0  0  0  0  0  0  0  0  0  0  0  0
    0.2359   -2.7346   -3.8901 C   0  0  0  0  0  0  0  0  0  0  0  0
   -0.0860   -2.1712   -2.6204 C   0  0  0  0  0  0  0  0  0  0  0  0
   -1.5813   -2.0685   -2.2560 C   0  0  0  0  0  0  0  0  0  0  0  0
   -2.2955   -1.2193   -3.3367 C   0  0  0  0  0  0  0  0  0  0  0  0
   -2.2324   -3.4626   -2.2029 C   0  0  0  0  0  0  0  0  0  0  0  0
   -1.8606   -1.3818   -0.9101 C   0  0  0  0  0  0  0  0  0  0  0  0
    1.8161   -3.0892   -5.7561 N   0  0  0  0  0  0  0  0  0  0  0  0
    2.8623   -3.9510   -6.0456 C   0  0  0  0  0  0  0  0  0  0  0  0
    3.3503   -4.1012   -7.2800 C   0  0  0  0  0  0  0  0  0  0  0  0
    2.7179   -3.3670   -8.3811 C   0  0  0  0  0  0  0  0  0  0  0  0
    3.2061   -3.3726   -9.5107 O   0  0  0  0  0  0  0  0  0  0  0  0
    1.5738   -2.7024   -8.0644 N   0  0  0  0  0  0  0  0  0  0  0  0
    1.1628   -2.3874   -6.7873 C   0  0  0  0  0  0  0  0  0  0  0  0
    0.3216   -1.5036   -6.6332 O   0  0  0  0  0  0  0  0  0  0  0  0
  1  2  1  0
  2  3  1  0
  3  4  2  0
  3 21  1  0
  4  5  1  0
  4 18  1  0
  5  6  2  0
  6  7  1  0
  7  8  2  0
  7 17  1  0
  8  9  1  0
  9 10  2  0
 10 11  1  0
 10 16  1  0
 11 12  1  0
 12 13  1  0
 12 14  2  0
 12 15  2  0
 16 17  2  0
 18 19  2  0
 19 20  1  0
 19 26  1  0
 20 21  2  0
 21 22  1  0
 22 23  1  0
 22 24  1  0
 22 25  1  0
 26 27  1  0
 26 32  1  0
 27 28  2  0
 28 29  1  0
 29 30  2  0
 29 31  1  0
 31 32  1  0
 32 33  2  0
M  END
>  <DRUGBANK_ID>  (1) 
DB15156

>  <COMMON_NAME>  (1) 
ABT-072

>  <CAS_NUMBER>  (1) 
1132936-00-5

>  <UNII>  (1) 
PSQ4R5K1QI

$$$$
