
     RDKit          3D

 29 32  0  0  0  0  0  0  0  0999 V2000
    0.1694    0.0480   -0.5185 C   0  0  0  0  0  0  0  0  0  0  0  0
    0.3922    1.5005   -0.1455 C   0  0  0  0  0  0  0  0  0  0  0  0
    1.0667    2.1625   -1.3528 C   0  0  1  0  0  0  0  0  0  0  0  0
    0.5299    1.4671   -2.6227 C   0  0  0  0  0  0  0  0  0  0  0  0
   -0.9588    1.2891   -2.2573 C   0  0  0  0  0  0  0  0  0  0  0  0
   -1.7876    2.3713   -2.3305 C   0  0  0  0  0  0  0  0  0  0  0  0
   -1.2102   -0.0950   -1.5528 C   0  0  1  0  0  0  0  0  0  0  0  0
   -3.7205   -1.4285   -1.8967 C   0  0  0  0  0  0  0  0  0  0  0  0
   -5.1971   -1.4521   -2.1020 C   0  0  0  0  0  0  0  0  0  0  0  0
   -5.8410   -0.3354   -1.3200 C   0  0  1  0  0  0  0  0  0  0  0  0
   -5.7617    0.8360   -0.5590 C   0  0  1  0  0  0  0  0  0  0  0  0
   -7.2248   -0.3897   -0.0345 C   0  0  0  0  0  0  0  0  0  0  0  0
   -8.1281   -0.9377   -1.2147 C   0  0  0  0  0  0  0  0  0  0  0  0
   -7.4731    0.1101   -1.9438 C   0  0  2  0  0  0  0  0  0  0  0  0
   -5.0949   -0.7029    0.3760 C   0  0  0  0  0  0  0  0  0  0  0  0
   -1.5955   -0.8646   -0.2690 C   0  0  0  0  0  0  0  0  0  0  0  0
    0.7418    3.5472   -1.3349 O   0  0  0  0  0  0  0  0  0  0  0  0
   -2.9840   -0.0241   -1.7453 C   0  0  1  0  0  0  0  0  0  0  0  0
   -7.4923   -0.7087   -4.4081 C   0  0  0  0  0  0  0  0  0  0  0  0
   -3.8804    1.1724   -0.9514 C   0  0  1  0  0  0  0  0  0  0  0  0
   -3.2581    2.5084   -1.8403 C   0  0  1  0  0  0  0  0  0  0  0  0
   -3.4981    3.7457   -1.2022 O   0  0  0  0  0  0  0  0  0  0  0  0
   -6.3267    2.3404   -3.2117 C   0  0  0  0  0  0  0  0  0  0  0  0
   -5.3266    1.2282   -3.5150 C   0  0  0  0  0  0  0  0  0  0  0  0
   -4.5734    0.9021   -4.7849 C   0  0  0  0  0  0  0  0  0  0  0  0
   -3.7666    2.1149   -5.1043 C   0  0  0  0  0  0  0  0  0  0  0  0
   -3.6907   -0.4030   -4.8432 C   0  0  0  0  0  0  0  0  0  0  0  0
   -7.5764    1.8587   -3.8927 C   0  0  0  0  0  0  0  0  0  0  0  0
   -7.9475    0.3763   -3.4215 C   0  0  2  0  0  0  0  0  0  0  0  0
  1  7  1  0
  2  1  1  0
  3  4  1  0
  3  2  1  0
  3 17  1  6
  4  5  1  0
  5  7  1  0
  6 21  1  0
  6  5  2  0
  7 18  1  0
  7 16  1  6
 18  8  1  1
  8  9  1  0
  9 10  1  0
 10 15  1  1
 11 10  1  0
 11 12  1  1
 14 13  1  6
 13 12  1  0
 14 10  1  0
 14 29  1  0
 20 11  1  0
 20 18  1  0
 20 21  1  6
 21 22  1  1
 24 23  1  0
 25 24  1  0
 26 25  1  0
 27 25  1  0
 28 23  1  0
 29 28  1  0
 29 19  1  6
M  END
>  <DRUGBANK_ID>  (1) 
DB04706

>  <COMMON_NAME>  (1) 
7beta-hydroxycholesterol

>  <CAS_NUMBER>  (1) 
566-27-8

>  <UNII>  (1) 
N9616291J4

>  <SYNONYMS>  (1) 
(3β,7β)-cholest-5-ene-3,7-diol; 7β-hydroxycholesterol

$$$$
