
     RDKit          3D

 19 20  0  0  0  0  0  0  0  0999 V2000
    1.6944   -1.4789   -0.0765 O   0  0  0  0  0  0  0  0  0  0  0  0
    0.5027   -0.8215   -0.0133 C   0  0  0  0  0  0  0  0  0  0  0  0
   -0.7449   -1.4499   -0.0357 C   0  0  0  0  0  0  0  0  0  0  0  0
   -1.9343   -0.6753   -0.0169 C   0  0  0  0  0  0  0  0  0  0  0  0
   -1.8587    0.7139    0.1282 C   0  0  0  0  0  0  0  0  0  0  0  0
   -2.9905    1.5623    0.0308 N   0  0  0  0  0  0  0  0  0  0  0  0
   -3.0811    2.9650   -0.0201 C   0  0  0  0  0  0  0  0  0  0  0  0
   -4.1792    3.5005    0.0431 O   0  0  0  0  0  0  0  0  0  0  0  0
   -1.8732    3.8518   -0.1346 C   0  0  0  0  0  0  0  0  0  0  0  0
   -0.8613    3.6081   -1.0850 C   0  0  0  0  0  0  0  0  0  0  0  0
    0.4119    4.1834   -0.9265 C   0  0  0  0  0  0  0  0  0  0  0  0
    0.6127    5.1351    0.0656 C   0  0  0  0  0  0  0  0  0  0  0  0
    1.8284    5.7334    0.2549 O   0  0  0  0  0  0  0  0  0  0  0  0
   -0.4373    5.4864    0.9139 C   0  0  0  0  0  0  0  0  0  0  0  0
   -0.2571    6.4573    1.8595 O   0  0  0  0  0  0  0  0  0  0  0  0
   -1.6687    4.8344    0.8452 C   0  0  0  0  0  0  0  0  0  0  0  0
   -0.6023    1.2358    0.3804 C   0  0  0  0  0  0  0  0  0  0  0  0
    0.5596    0.5396    0.1508 C   0  0  0  0  0  0  0  0  0  0  0  0
    1.7189    1.2566    0.1246 O   0  0  0  0  0  0  0  0  0  0  0  0
  1  2  1  0
  2  3  2  0
  2 18  1  0
  3  4  1  0
  4  5  2  0
  5  6  1  0
  5 17  1  0
  6  7  1  0
  7  8  2  0
  7  9  1  0
  9 10  2  0
  9 16  1  0
 10 11  1  0
 11 12  2  0
 12 13  1  0
 12 14  1  0
 14 15  1  0
 14 16  2  0
 17 18  2  0
 18 19  1  0
M  END
>  <DRUGBANK_ID>  (1) 
DB18298

>  <COMMON_NAME>  (1) 
PTI-110

>  <CAS_NUMBER>  (1) 
633700-15-9

>  <UNII>  (1) 
YI3H6V056C

>  <SYNONYMS>  (1) 
3,4-dihydroxybenzoic acid 3,4-dihydroxyanilide; Benzamide, n-(3,4-dihydroxyphenyl)-3,4-dihydroxy-; N-(3,4-dihydroxyphenyl)-3,4-dihydroxybenzamide; Systebryl

$$$$
