401
     RDKit          3D

 28 29  0  0  1  0  0  0  0  0999 V2000
    0.9881   -0.0515    0.0152 O   0  0  0  0  0  0  0  0  0  0  0  0
   -5.4674   -0.4365   -3.9303 O   0  0  0  0  0  0  0  0  0  0  0  0
    0.9936    0.8419   -2.0958 O   0  0  0  0  0  0  0  0  0  0  0  0
   -3.7995   -1.8510   -4.0061 O   0  0  0  0  0  0  0  0  0  0  0  0
    2.1156   -2.0832   -2.7080 O   0  0  0  0  0  0  0  0  0  0  0  0
    0.2603   -2.4309   -1.6110 O   0  0  0  0  0  0  0  0  0  0  0  0
   -3.0545    0.7780   -0.0841 N   0  0  0  0  0  0  0  0  0  0  0  0
    0.8824   -2.0096   -2.5961 N   0  0  0  0  0  0  0  0  0  0  0  0
   -1.8791   -0.6817   -2.1748 C   0  0  0  0  0  0  0  0  0  0  0  0
   -1.0674    0.1636   -1.1149 C   0  0  0  0  0  0  0  0  0  0  0  0
   -3.4559   -0.2799   -2.2199 C   0  0  0  0  0  0  0  0  0  0  0  0
   -1.1426   -0.7382   -3.5246 C   0  0  0  0  0  0  0  0  0  0  0  0
   -1.7026    0.8403   -0.1482 C   0  0  0  0  0  0  0  0  0  0  0  0
   -3.8513    0.4638   -1.1434 C   0  0  0  0  0  0  0  0  0  0  0  0
    0.4068    0.3870   -1.1476 C   0  0  0  0  0  0  0  0  0  0  0  0
    0.1273   -1.3563   -3.6921 C   0  0  0  0  0  0  0  0  0  0  0  0
   -1.7237   -0.1740   -4.6808 C   0  0  0  0  0  0  0  0  0  0  0  0
   -1.1197    1.7599    0.8815 C   0  0  0  0  0  0  0  0  0  0  0  0
   -4.2886   -0.8961   -3.3933 C   0  0  0  0  0  0  0  0  0  0  0  0
   -5.1494    1.0967   -0.8954 C   0  0  0  0  0  0  0  0  0  0  0  0
    2.9574   -0.1704    1.4697 C   0  0  0  0  0  0  0  0  0  0  0  0
    2.4288   -0.0286    0.0326 C   0  0  0  0  0  0  0  0  0  0  0  0
    0.7785   -1.3147   -4.9339 C   0  0  0  0  0  0  0  0  0  0  0  0
   -1.1781   -0.3666   -5.9444 C   0  0  0  0  0  0  0  0  0  0  0  0
    0.1078   -0.8595   -6.0622 C   0  0  0  0  0  0  0  0  0  0  0  0
    2.4556   -1.4613    2.1169 C   0  0  0  0  0  0  0  0  0  0  0  0
    4.4884   -0.1556    1.4795 C   0  0  0  0  0  0  0  0  0  0  0  0
   -6.5061    0.3447   -3.3342 C   0  0  0  0  0  0  0  0  0  0  0  0
  1 15  1  0
  1 22  1  0
  2 19  1  0
  2 28  1  0
  3 15  2  0
  4 19  2  0
  5  8  1  0
  6  8  2  0
  7 13  1  0
  7 14  1  0
  8 16  1  0
  9 10  1  0
  9 11  1  0
  9 12  1  0
 10 13  2  0
 10 15  1  0
 11 14  2  0
 11 19  1  0
 12 16  2  0
 12 17  1  0
 13 18  1  0
 14 20  1  0
 16 23  1  0
 17 24  2  0
 21 22  1  0
 21 26  1  0
 21 27  1  0
 23 25  2  0
 24 25  1  0
M  CHG  2   5  -1   8   1
M  END
>  <DRUGBANK_ID>  (1) 
DB00401

>  <SECONDARY_ACCESSION_NUMBERS>  (1) 
APRD00635

>  <COMMON_NAME>  (1) 
Nisoldipine

>  <CAS_NUMBER>  (1) 
63675-72-9

>  <UNII>  (1) 
4I8HAB65SZ

>  <SYNONYMS>  (1) 
isobutyl methyl 2,6-dimethyl-4-(2-nitrophenyl)-1,4-dihydropyridine-3,5-dicarboxylate; Nisoldipin; Nisoldipina; Nisoldipine; Nisoldipino; Nisoldipinum

$$$$
