
     RDKit          3D

 17 18  0  0  0  0  0  0  0  0999 V2000
   -1.0541    1.1065    0.3344 C   0  0  0  0  0  0  0  0  0  0  0  0
    0.3166    1.1107    0.1257 C   0  0  0  0  0  0  0  0  0  0  0  0
    0.9918   -0.0852   -0.0169 C   0  0  0  0  0  0  0  0  0  0  0  0
    2.3704   -0.0751    0.0208 N   0  0  0  0  0  0  0  0  0  0  0  0
    0.2419   -1.2659   -0.0401 C   0  0  0  0  0  0  0  0  0  0  0  0
   -1.1703   -1.2330   -0.0433 C   0  0  0  0  0  0  0  0  0  0  0  0
   -1.8319   -0.0076    0.0982 C   0  0  0  0  0  0  0  0  0  0  0  0
   -3.6101    0.1068   -0.0392 S   0  0  0  0  0  0  0  0  0  0  0  0
   -3.9658   -0.5837   -1.2719 O   0  0  0  0  0  0  0  0  0  0  0  0
   -4.1175   -0.3816    1.2221 O   0  0  0  0  0  0  0  0  0  0  0  0
   -4.2331    1.6860   -0.2180 N   0  0  0  0  0  0  0  0  0  0  0  0
   -3.4004    2.8340   -0.2411 C   0  0  0  0  0  0  0  0  0  0  0  0
   -3.4810    3.7535    0.7035 N   0  0  0  0  0  0  0  0  0  0  0  0
   -2.4664    4.7098    0.5333 C   0  0  0  0  0  0  0  0  0  0  0  0
   -2.3674    5.9074    1.4216 C   0  0  0  0  0  0  0  0  0  0  0  0
   -1.6140    4.4408   -0.5226 C   0  0  0  0  0  0  0  0  0  0  0  0
   -2.3326    3.2406   -1.5318 S   0  0  0  0  0  0  0  0  0  0  0  0
  1  2  2  0
  2  3  1  0
  3  4  1  0
  3  5  2  0
  5  6  1  0
  6  7  2  0
  7  1  1  0
  7  8  1  0
  8  9  2  0
  8 10  2  0
  8 11  1  0
 11 12  1  0
 12 13  2  0
 13 14  1  0
 14 15  1  0
 14 16  2  0
 16 17  1  0
 17 12  1  0
M  END
>  <DRUGBANK_ID>  (1) 
DB15882

>  <COMMON_NAME>  (1) 
Sulfamethylthiazole

>  <CAS_NUMBER>  (1) 
515-59-3

>  <UNII>  (1) 
R12OZ3O07F

>  <SYNONYMS>  (1) 
4-Amino-N-(4-methyl-2-thiazolyl)benzenesulfonamide; N(sup 1)-(4-Methyl-2-thiazolyl)sulfanilamide; Sulfamethylthiazole; Sulfazole

$$$$
