
     RDKit          3D

 26 28  0  0  0  0  0  0  0  0999 V2000
   -1.2289    1.2183   -0.0403 C   0  0  0  0  0  0  0  0  0  0  0  0
    0.1653    1.2093   -0.0228 C   0  0  0  0  0  0  0  0  0  0  0  0
    0.8464   -0.0027   -0.0081 C   0  0  0  0  0  0  0  0  0  0  0  0
    0.1627   -1.2107   -0.0080 C   0  0  0  0  0  0  0  0  0  0  0  0
   -1.2286   -1.2078   -0.0252 C   0  0  0  0  0  0  0  0  0  0  0  0
   -1.9418    0.0084   -0.0358 C   0  0  0  0  0  0  0  0  0  0  0  0
   -3.4660    0.0108   -0.0020 C   0  0  0  0  0  0  0  0  0  0  0  0
   -3.9759   -0.6970   -1.2467 C   0  0  0  0  0  0  0  0  0  0  0  0
   -4.3990   -1.2842   -2.2793 N   0  0  0  0  0  0  0  0  0  0  0  0
   -4.0049   -0.7933    1.2365 C   0  0  0  0  0  0  0  0  0  0  0  0
   -4.6995   -2.0485    1.1764 C   0  0  0  0  0  0  0  0  0  0  0  0
   -4.9924   -2.7839    2.3197 C   0  0  0  0  0  0  0  0  0  0  0  0
   -4.6800   -2.2939    3.5648 C   0  0  0  0  0  0  0  0  0  0  0  0
   -4.0609   -1.0558    3.6820 C   0  0  0  0  0  0  0  0  0  0  0  0
   -3.7202   -0.3176    2.5396 C   0  0  0  0  0  0  0  0  0  0  0  0
   -2.9262    1.1904    2.8462 Cl  0  0  0  0  0  0  0  0  0  0  0  0
   -5.0151   -3.0626    4.6896 N   0  0  0  0  0  0  0  0  0  0  0  0
   -5.8880   -2.5684    5.6543 C   0  0  0  0  0  0  0  0  0  0  0  0
   -6.4953   -1.5020    5.5723 O   0  0  0  0  0  0  0  0  0  0  0  0
   -6.0706   -3.3667    6.7464 N   0  0  0  0  0  0  0  0  0  0  0  0
   -5.4437   -4.5580    6.9272 C   0  0  0  0  0  0  0  0  0  0  0  0
   -5.5460   -5.2639    7.9211 O   0  0  0  0  0  0  0  0  0  0  0  0
   -4.5736   -5.0004    5.7930 C   0  0  0  0  0  0  0  0  0  0  0  0
   -4.3994   -4.2929    4.7242 N   0  0  0  0  0  0  0  0  0  0  0  0
   -5.3249   -2.9206   -0.1844 Cl  0  0  0  0  0  0  0  0  0  0  0  0
    2.1849   -0.0064    0.0077 F   0  0  0  0  0  0  0  0  0  0  0  0
  1  2  2  0
  1  6  1  0
  2  3  1  0
  3  4  2  0
  3 26  1  0
  4  5  1  0
  5  6  2  0
  6  7  1  0
  7  8  1  0
  7 10  1  0
  8  9  3  0
 10 11  2  0
 10 15  1  0
 11 12  1  0
 11 25  1  0
 12 13  2  0
 13 14  1  0
 13 17  1  0
 14 15  2  0
 15 16  1  0
 17 18  1  0
 17 24  1  0
 18 19  2  0
 18 20  1  0
 20 21  1  0
 21 22  2  0
 21 23  1  0
 23 24  2  0
M  END
>  <DRUGBANK_ID>  (1) 
DB12663

>  <COMMON_NAME>  (1) 
Letrazuril

>  <CAS_NUMBER>  (1) 
103337-74-2

>  <UNII>  (1) 
U8736VCB22

>  <SYNONYMS>  (1) 
Letrazuril

$$$$
