
     RDKit          3D

 13 14  0  0  0  0  0  0  0  0999 V2000
    1.0803    0.0124   -0.1557 N   0  0  0  0  0  0  0  0  0  0  0  0
    0.3590    1.0667   -0.6920 C   0  0  0  0  0  0  0  0  0  0  0  0
    0.6320    1.5016   -1.9892 C   0  0  0  0  0  0  0  0  0  0  0  0
   -0.2271    2.3972   -2.6234 C   0  0  0  0  0  0  0  0  0  0  0  0
   -1.1672    3.0940   -1.8649 C   0  0  0  0  0  0  0  0  0  0  0  0
   -1.9009    4.2196   -2.4659 C   0  0  0  0  0  0  0  0  0  0  0  0
   -1.7788    4.5035   -3.6572 O   0  0  0  0  0  0  0  0  0  0  0  0
   -2.6945    4.9573   -1.6261 N   0  0  0  0  0  0  0  0  0  0  0  0
   -2.8301    4.6725   -0.2750 N   0  0  0  0  0  0  0  0  0  0  0  0
   -2.2101    3.6088    0.3278 C   0  0  0  0  0  0  0  0  0  0  0  0
   -2.3468    3.3765    1.5286 O   0  0  0  0  0  0  0  0  0  0  0  0
   -1.3366    2.7814   -0.5191 C   0  0  0  0  0  0  0  0  0  0  0  0
   -0.6339    1.7106    0.0447 C   0  0  0  0  0  0  0  0  0  0  0  0
  1  2  1  0
  2  3  2  0
  2 13  1  0
  3  4  1  0
  4  5  2  0
  5  6  1  0
  5 12  1  0
  6  7  2  0
  6  8  1  0
  8  9  1  0
  9 10  1  0
 10 11  2  0
 10 12  1  0
 12 13  2  0
M  END
>  <DRUGBANK_ID>  (1) 
DB02041

>  <SECONDARY_ACCESSION_NUMBERS>  (1) 
EXPT00549

>  <COMMON_NAME>  (1) 
Isoluminol

>  <UNII>  (1) 
5ID1912ANA

>  <SYNONYMS>  (1) 
4-aminophthalhydrazide

$$$$
