
     RDKit          3D

 25 27  0  0  1  0  0  0  0  0999 V2000
    0.9743    0.0105    0.0186 N   0  0  0  0  0  0  0  0  0  0  0  0
    0.3079    1.0893   -0.4270 C   0  0  0  0  0  0  0  0  0  0  0  0
   -0.9203    1.1154   -0.4394 O   0  0  0  0  0  0  0  0  0  0  0  0
    1.0255    2.1415   -0.8658 N   0  0  0  0  0  0  0  0  0  0  0  0
    2.4621    2.3085   -0.9030 C   0  0  0  0  0  0  0  0  0  0  0  0
    2.9777    2.4829   -2.3478 C   0  0  2  0  0  0  0  0  0  0  0  0
    3.7662    1.2305   -2.7523 C   0  0  0  0  0  0  0  0  0  0  0  0
    5.1165    1.2187   -2.0407 C   0  0  0  0  0  0  0  0  0  0  0  0
    5.9633    2.4255   -2.4562 C   0  0  0  0  0  0  0  0  0  0  0  0
    5.2087    3.7374   -2.4157 C   0  0  0  0  0  0  0  0  0  0  0  0
    5.9093    4.9619   -2.4043 C   0  0  0  0  0  0  0  0  0  0  0  0
    5.2103    6.1806   -2.3627 C   0  0  0  0  0  0  0  0  0  0  0  0
    3.8177    6.1877   -2.3589 C   0  0  0  0  0  0  0  0  0  0  0  0
    3.1229    4.9837   -2.3875 C   0  0  0  0  0  0  0  0  0  0  0  0
    3.8026    3.7559   -2.4183 C   0  0  0  0  0  0  0  0  0  0  0  0
    6.1300    7.7108   -2.3079 S   0  0  0  0  0  0  0  0  0  0  0  0
    6.8625    7.7176   -1.0538 O   0  0  0  0  0  0  0  0  0  0  0  0
    6.8267    7.8016   -3.5768 O   0  0  0  0  0  0  0  0  0  0  0  0
    5.0117    9.1034   -2.2271 C   0  0  0  0  0  0  0  0  0  0  0  0
    4.1524    9.2295   -1.1306 C   0  0  0  0  0  0  0  0  0  0  0  0
    3.2628   10.2964   -1.0898 C   0  0  0  0  0  0  0  0  0  0  0  0
    2.4048   10.3971   -0.0667 F   0  0  0  0  0  0  0  0  0  0  0  0
    3.2364   11.2522   -2.1003 C   0  0  0  0  0  0  0  0  0  0  0  0
    4.1104   11.1368   -3.1818 C   0  0  0  0  0  0  0  0  0  0  0  0
    5.0013   10.0607   -3.2496 C   0  0  0  0  0  0  0  0  0  0  0  0
  1  2  1  0
  2  3  2  0
  2  4  1  0
  4  5  1  0
  6  5  1  1
  6  7  1  0
  6 15  1  0
  7  8  1  0
  8  9  1  0
  9 10  1  0
 10 11  1  0
 10 15  2  0
 11 12  2  0
 12 13  1  0
 12 16  1  0
 13 14  2  0
 14 15  1  0
 16 17  2  0
 16 18  2  0
 16 19  1  0
 19 20  2  0
 19 25  1  0
 20 21  1  0
 21 22  1  0
 21 23  2  0
 23 24  1  0
 24 25  2  0
M  END
>  <DRUGBANK_ID>  (1) 
DB16214

>  <COMMON_NAME>  (1) 
Landipirdine

>  <CAS_NUMBER>  (1) 
1000308-25-7

>  <UNII>  (1) 
J0NX985GDI

>  <SYNONYMS>  (1) 
Landipirdine

$$$$
