
     RDKit          3D

 20 19  0  0  0  0  0  0  0  0999 V2000
    0.9169    0.2951   -0.0298 C   0  0  0  0  0  0  0  0  0  0  0  0
   -2.0979   -4.0905    0.0803 C   0  0  0  0  0  0  0  0  0  0  0  0
    0.2753   -0.5652   -1.1053 C   0  0  1  0  0  0  0  0  0  0  0  0
   -2.1841   -2.7337    0.7186 C   0  0  2  0  0  0  0  0  0  0  0  0
    0.2634   -2.0556   -0.8171 C   0  0  1  0  0  0  0  0  0  0  0  0
   -0.7830   -2.3449    0.5560 C   0  0  2  0  0  0  0  0  0  0  0  0
   -1.1115   -0.2418   -1.2740 O   0  0  0  0  0  0  0  0  0  0  0  0
   -2.4963   -2.8555    2.1731 O   0  0  0  0  0  0  0  0  0  0  0  0
   -0.0164   -2.4875   -2.1525 O   0  0  0  0  0  0  0  0  0  0  0  0
   -0.3436   -3.1486    1.7058 O   0  0  0  0  0  0  0  0  0  0  0  0
    2.5206   -1.4520    1.0553 O   0  0  0  0  0  0  0  0  0  0  0  0
    1.5964   -0.7469    3.2160 O   0  0  0  0  0  0  0  0  0  0  0  0
    1.6542   -2.9676    2.4519 O   0  0  0  0  0  0  0  0  0  0  0  0
    0.4940   -6.4412    0.0049 O   0  0  0  0  0  0  0  0  0  0  0  0
    0.6443   -4.3564   -0.8297 O   0  0  0  0  0  0  0  0  0  0  0  0
    2.2530   -4.9391    0.6564 O   0  0  0  0  0  0  0  0  0  0  0  0
    0.5614   -0.0990    1.3011 O   0  0  0  0  0  0  0  0  0  0  0  0
   -1.0253   -4.9391    0.6564 O   0  0  0  0  0  0  0  0  0  0  0  0
    1.1380   -1.6128    1.9084 P   0  0  0  0  0  0  0  0  0  0  0  0
    0.7047   -4.9391    0.6564 P   0  0  0  0  0  0  0  0  0  0  0  0
  3  1  1  0
  3  7  1  1
  4  2  1  0
  4  8  1  1
  5  3  1  0
  5  9  1  6
  6  4  1  0
  6  5  1  0
  6 10  1  1
 17  1  1  0
 18  2  1  0
 19 11  1  0
 19 12  1  0
 19 13  2  0
 19 17  1  0
 20 14  1  0
 20 15  1  0
 20 16  2  0
 20 18  1  0
M  END
>  <DRUGBANK_ID>  (1) 
DB02760

>  <SECONDARY_ACCESSION_NUMBERS>  (1) 
EXPT01379

>  <COMMON_NAME>  (1) 
1,6-Di-O-Phosphono-D-Allitol

$$$$
