
     RDKit          3D

 40 41  0  0  0  0  0  0  0  0999 V2000
    0.6599   -0.1901   -0.2193 F   0  0  0  0  0  0  0  0  0  0  0  0
    2.4061   -0.8804    0.8432 F   0  0  0  0  0  0  0  0  0  0  0  0
    2.4254   -0.8992   -1.3095 F   0  0  0  0  0  0  0  0  0  0  0  0
    9.5806    1.3766   -0.6526 O   0  0  0  0  0  0  0  0  0  0  0  0
    5.7955   -0.7936    1.9477 O   0  0  0  0  0  0  0  0  0  0  0  0
    1.9027    2.2556   -0.0922 O   0  0  0  0  0  0  0  0  0  0  0  0
    4.3292    3.6173    1.2752 O   0  0  0  0  0  0  0  0  0  0  0  0
    4.1839   -1.9146    6.3140 O   0  0  0  0  0  0  0  0  0  0  0  0
    8.1400    1.3829    8.8184 O   0  0  0  0  0  0  0  0  0  0  0  0
    6.0373    1.8429    8.1681 O   0  0  0  0  0  0  0  0  0  0  0  0
    7.9854   -0.2339   -0.3928 N   0  0  0  0  0  0  0  0  0  0  0  0
    4.6566    0.4763    0.4169 N   0  0  0  0  0  0  0  0  0  0  0  0
    6.4460    2.7702    0.9790 N   0  0  0  0  0  0  0  0  0  0  0  0
    6.0734   -0.8911    6.9884 N   0  0  0  0  0  0  0  0  0  0  0  0
    6.6391   -0.7247   -0.2156 C   0  0  1  0  0  0  0  0  0  0  0  0
    6.7235   -2.2197   -0.3304 C   0  0  0  0  0  0  0  0  0  0  0  0
    7.5363   -2.2772   -1.6146 C   0  0  0  0  0  0  0  0  0  0  0  0
    8.4736   -1.0297   -1.5436 C   0  0  0  0  0  0  0  0  0  0  0  0
    8.5193    1.0408   -0.0992 C   0  0  0  0  0  0  0  0  0  0  0  0
    7.8839    2.0972    1.0495 C   0  0  2  0  0  0  0  0  0  0  0  0
    5.6749   -0.3446    0.8120 C   0  0  0  0  0  0  0  0  0  0  0  0
    8.0697    1.5772    2.4495 C   0  0  0  0  0  0  0  0  0  0  0  0
    4.0942    1.3513   -0.6103 C   0  0  1  0  0  0  0  0  0  0  0  0
    4.7312    1.0291   -1.8947 C   0  0  0  0  0  0  0  0  0  0  0  0
    9.1824    0.6296    2.7881 C   0  0  0  0  0  0  0  0  0  0  0  0
    8.0685    2.6729    3.5712 C   0  0  0  0  0  0  0  0  0  0  0  0
    2.5768    1.2470   -0.3283 C   0  0  0  0  0  0  0  0  0  0  0  0
    4.0689    1.7277   -3.0037 C   0  0  0  0  0  0  0  0  0  0  0  0
    6.1662    1.5678   -1.8509 C   0  0  0  0  0  0  0  0  0  0  0  0
    5.1429    2.7355    1.6397 C   0  0  0  0  0  0  0  0  0  0  0  0
    2.0138   -0.1634   -0.2484 C   0  0  0  0  0  0  0  0  0  0  0  0
    4.5791    1.7384    2.7879 C   0  0  0  0  0  0  0  0  0  0  0  0
    5.3703    1.8672    3.8468 C   0  0  0  0  0  0  0  0  0  0  0  0
    3.6887    0.6594    3.0130 C   0  0  0  0  0  0  0  0  0  0  0  0
    5.4546    1.0893    4.9488 C   0  0  0  0  0  0  0  0  0  0  0  0
    3.8001   -0.2728    4.0738 C   0  0  0  0  0  0  0  0  0  0  0  0
    4.7721   -0.0767    5.0362 C   0  0  0  0  0  0  0  0  0  0  0  0
    4.9946   -1.0142    6.1383 C   0  0  0  0  0  0  0  0  0  0  0  0
    7.2273    0.0150    7.0443 C   0  0  0  0  0  0  0  0  0  0  0  0
    7.0425    1.1546    8.0614 C   0  0  0  0  0  0  0  0  0  0  0  0
  1 31  1  0
  2 31  1  0
  3 31  1  0
  4 19  2  0
  5 21  2  0
  6 27  2  0
  7 30  2  0
  8 38  2  0
  9 40  1  0
 10 40  2  0
 11 15  1  0
 11 18  1  0
 11 19  1  0
 12 21  1  0
 13 30  1  0
 14 38  1  0
 14 39  1  0
 15 16  1  0
 15 21  1  1
 16 17  1  0
 17 18  1  0
 19 20  1  0
 20 13  1  6
 20 22  1  0
 22 25  1  0
 22 26  1  0
 23 12  1  1
 23 24  1  0
 23 27  1  0
 24 28  1  0
 24 29  1  0
 27 31  1  0
 30 32  1  0
 32 33  2  0
 32 34  1  0
 33 35  1  0
 34 36  2  0
 35 37  2  0
 36 37  1  0
 37 38  1  0
 39 40  1  0
M  END
>  <DRUGBANK_ID>  (1) 
DB03702

>  <SECONDARY_ACCESSION_NUMBERS>  (1) 
EXPT01482

>  <COMMON_NAME>  (1) 
N-{4-[(Carboxymethyl)carbamoyl]benzoyl}-L-valyl-N-[(3S)-1,1,1-trifluoro-4-methyl-2-oxo-3-pentanyl]-L-prolinamide

$$$$
