
     RDKit          3D

 34 35  0  0  0  0  0  0  0  0999 V2000
    1.3889   -0.2196   -0.0019 C   0  0  0  0  0  0  0  0  0  0  0  0
    0.8842    1.0791   -0.0150 C   0  0  0  0  0  0  0  0  0  0  0  0
   -0.4896    1.2886    0.0197 C   0  0  0  0  0  0  0  0  0  0  0  0
   -1.3613    0.1959   -0.0118 C   0  0  0  0  0  0  0  0  0  0  0  0
   -0.8604   -1.1251   -0.0122 C   0  0  0  0  0  0  0  0  0  0  0  0
    0.5224   -1.3124    0.0001 C   0  0  0  0  0  0  0  0  0  0  0  0
   -3.0480   -2.1543    0.0349 N   0  0  0  0  0  0  0  0  0  0  0  0
   -4.1202   -3.1573    0.1871 C   0  0  0  0  0  0  0  0  0  0  0  0
   -4.9170   -3.0375    1.5303 C   0  0  0  0  0  0  0  0  0  0  0  0
   -5.0969   -3.3247   -1.0236 C   0  0  0  0  0  0  0  0  0  0  0  0
   -5.3924   -4.4650   -1.4000 O   0  0  0  0  0  0  0  0  0  0  0  0
   -5.6804   -2.1894   -1.6070 N   0  0  0  0  0  0  0  0  0  0  0  0
   -5.6675   -1.7686    1.9756 C   0  0  0  0  0  0  0  0  0  0  0  0
   -7.0200   -1.8552    2.3405 C   0  0  0  0  0  0  0  0  0  0  0  0
   -7.7852   -0.7051    2.7075 C   0  0  0  0  0  0  0  0  0  0  0  0
   -7.2817    0.5874    2.4261 C   0  0  0  0  0  0  0  0  0  0  0  0
   -5.9168    0.6889    2.1000 C   0  0  0  0  0  0  0  0  0  0  0  0
   -5.1103   -0.4731    1.9674 C   0  0  0  0  0  0  0  0  0  0  0  0
   -8.0783    1.6332    1.9042 O   0  0  0  0  0  0  0  0  0  0  0  0
   -9.5416    1.5394    1.7449 C   0  0  0  0  0  0  0  0  0  0  0  0
  -10.2990    0.8229    0.4973 C   0  0  0  0  0  0  0  0  0  0  0  0
   -9.9269   -0.5791    0.2552 N   0  0  0  0  0  0  0  0  0  0  0  0
  -10.4872   -1.3833   -0.8314 C   0  0  0  0  0  0  0  0  0  0  0  0
  -10.1979   -0.8796   -2.2457 C   0  0  0  0  0  0  0  0  0  0  0  0
   -8.5458   -0.5818   -0.0514 C   0  0  0  0  0  0  0  0  0  0  0  0
   -8.0253    0.4971   -0.9224 C   0  0  0  0  0  0  0  0  0  0  0  0
   -1.7152   -2.3605    0.0497 C   0  0  0  0  0  0  0  0  0  0  0  0
   -1.2109   -3.4958    0.1357 O   0  0  0  0  0  0  0  0  0  0  0  0
   -5.5877   -0.9104   -0.9930 C   0  0  0  0  0  0  0  0  0  0  0  0
   -5.2257    0.4151   -1.6714 C   0  0  0  0  0  0  0  0  0  0  0  0
   -6.0469    0.9577   -2.8432 C   0  0  0  0  0  0  0  0  0  0  0  0
   -6.6322   -2.3387   -2.6997 C   0  0  0  0  0  0  0  0  0  0  0  0
   -5.8734   -2.2982   -4.0035 C   0  0  0  0  0  0  0  0  0  0  0  0
   -4.9991   -3.5136   -4.0984 C   0  0  0  0  0  0  0  0  0  0  0  0
  1  2  2  0
  2  3  1  0
  3  4  2  0
  4  5  1  0
  5  6  2  0
  6  1  1  0
  7 27  1  0
  7  8  1  0
  8  9  1  0
  8 10  1  0
  9 13  1  0
 10 11  2  0
 10 12  1  0
 12 29  1  0
 12 32  1  0
 13 14  2  0
 14 15  1  0
 15 16  2  0
 16 17  1  0
 16 19  1  0
 17 18  2  0
 18 13  1  0
 19 20  1  0
 20 21  1  0
 21 22  1  0
 22 23  1  0
 22 25  1  0
 23 24  1  0
 25 26  1  0
 27  5  1  0
 27 28  2  0
 29 30  1  0
 30 31  1  0
 32 33  1  0
 33 34  1  0
M  END
>  <DRUGBANK_ID>  (1) 
DB13091

>  <COMMON_NAME>  (1) 
Tiropramide

>  <CAS_NUMBER>  (1) 
55837-29-1

>  <UNII>  (1) 
R7S0904CN2

>  <SYNONYMS>  (1) 
Tiropramida; Tiropramide; Tiropramidum

$$$$
