1039
     RDKit          3D

 25 26  0  0  0  0  0  0  0  0999 V2000
   -2.1125   -0.0340   -0.0056 Cl  0  0  0  0  0  0  0  0  0  0  0  0
    6.7180    4.7014    0.4726 O   0  0  0  0  0  0  0  0  0  0  0  0
    8.3229    7.0306    0.1101 O   0  0  0  0  0  0  0  0  0  0  0  0
    7.4240    7.9710    1.9100 O   0  0  0  0  0  0  0  0  0  0  0  0
    4.5070   -1.0937   -0.0558 O   0  0  0  0  0  0  0  0  0  0  0  0
    6.5439    5.7546    1.4153 C   0  0  0  0  0  0  0  0  0  0  0  0
    5.1159    6.3219    1.3143 C   0  0  0  0  0  0  0  0  0  0  0  0
    6.9680    5.2538    2.8052 C   0  0  0  0  0  0  0  0  0  0  0  0
    7.4659    6.9940    1.1565 C   0  0  0  0  0  0  0  0  0  0  0  0
    8.5129    5.9997   -0.8811 C   0  0  0  0  0  0  0  0  0  0  0  0
    6.0405    3.5400    0.3958 C   0  0  0  0  0  0  0  0  0  0  0  0
    5.0853    3.1837    1.3221 C   0  0  0  0  0  0  0  0  0  0  0  0
    6.3250    2.6990   -0.6954 C   0  0  0  0  0  0  0  0  0  0  0  0
    4.6339    1.2047    0.0786 C   0  0  0  0  0  0  0  0  0  0  0  0
    9.1848    4.7646   -0.2437 C   0  0  0  0  0  0  0  0  0  0  0  0
    7.2574    5.8837   -1.7709 C   0  0  0  0  0  0  0  0  0  0  0  0
    4.3953    2.0104    1.1866 C   0  0  0  0  0  0  0  0  0  0  0  0
    5.5826    1.5400   -0.8843 C   0  0  0  0  0  0  0  0  0  0  0  0
    3.8761   -0.0347   -0.0215 C   0  0  0  0  0  0  0  0  0  0  0  0
    2.3920    0.0018   -0.0225 C   0  0  0  0  0  0  0  0  0  0  0  0
    1.6699    1.2080   -0.0489 C   0  0  0  0  0  0  0  0  0  0  0  0
    1.7068   -1.2139   -0.0058 C   0  0  0  0  0  0  0  0  0  0  0  0
    0.2781    1.1957   -0.0280 C   0  0  0  0  0  0  0  0  0  0  0  0
    0.3121   -1.2242   -0.0120 C   0  0  0  0  0  0  0  0  0  0  0  0
   -0.3948   -0.0213   -0.0136 C   0  0  0  0  0  0  0  0  0  0  0  0
  1 25  1  0
  2  6  1  0
  2 11  1  0
  3  9  1  0
  3 10  1  0
  4  9  2  0
  5 19  2  0
  6  7  1  0
  6  8  1  0
  6  9  1  0
 10 15  1  0
 10 16  1  0
 11 12  2  0
 11 13  1  0
 12 17  1  0
 13 18  2  0
 14 17  2  0
 14 18  1  0
 14 19  1  0
 19 20  1  0
 20 21  2  0
 20 22  1  0
 21 23  1  0
 22 24  2  0
 23 25  2  0
 24 25  1  0
M  END
>  <DRUGBANK_ID>  (1) 
DB01039

>  <SECONDARY_ACCESSION_NUMBERS>  (1) 
APRD00405; DB09545

>  <COMMON_NAME>  (1) 
Fenofibrate

>  <CAS_NUMBER>  (1) 
49562-28-9

>  <UNII>  (1) 
U202363UOS

>  <SYNONYMS>  (1) 
2-(4-(4-Chlorobenzoyl)phenoxy)-2-methylpropanoic acid 1-methylethyl ester; Fenofibrate; Fenofibrato; Fenofibratum; Finofibrate; FNF; Isopropyl (4'-(p-chlorobenzoyl)-2-phenoxy-2-methyl)propionate; Isopropyl 2-(4-(4-chlorobenzoyl)phenoxy)-2-methylpropionate; Procetofen

$$$$
