
     RDKit          3D

  6  5  0  0  0  0  0  0  0  0999 V2000
    0.9883    0.0265    0.0975 O   0  0  0  0  0  0  0  0  0  0  0  0
    0.4989   -1.0240   -0.7344 C   0  0  0  0  0  0  0  0  0  0  0  0
    0.9852   -0.8243   -2.1720 C   0  0  0  0  0  0  0  0  0  0  0  0
    2.4180   -0.8495   -2.1777 O   0  0  0  0  0  0  0  0  0  0  0  0
    0.4569   -1.9168   -3.1061 C   0  0  0  0  0  0  0  0  0  0  0  0
   -0.9632   -1.9171   -3.1865 O   0  0  0  0  0  0  0  0  0  0  0  0
  1  2  1  0
  2  3  1  0
  3  4  1  0
  3  5  1  0
  5  6  1  0
M  END
>  <DRUGBANK_ID>  (1) 
DB09462

>  <SECONDARY_ACCESSION_NUMBERS>  (1) 
EXPT01027; DB04077

>  <COMMON_NAME>  (1) 
Glycerin

>  <CAS_NUMBER>  (1) 
56-81-5

>  <UNII>  (1) 
PDC6A3C0OX

>  <SYNONYMS>  (1) 
1,2,3-propanetriol; 1,2,3-trihydroxypropane; Glycerin; Glycerin, anhydrous; Glycerin,anhydrous; Glycerine; glycérine; Glycerinum; Glycerol; glycérol; Glyzerin; Monoctanoin component D; Ölsüß; Propanetriol; Trihydroxypropane

$$$$
