
     RDKit          3D

 41 45  0  0  0  0  0  0  0  0999 V2000
    1.2571    0.2818   -0.1198 C   0  0  0  0  0  0  0  0  0  0  0  0
    0.6205    0.9157    1.1131 N   0  0  0  0  0  0  0  0  0  0  0  0
    0.5214   -0.4187    2.0113 C   0  0  0  0  0  0  0  0  0  0  0  0
   -0.3942    1.9501    0.4903 C   0  0  0  0  0  0  0  0  0  0  0  0
    1.1964    1.7509    2.2397 C   0  0  0  0  0  0  0  0  0  0  0  0
    2.5078    1.5656    2.6536 C   0  0  0  0  0  0  0  0  0  0  0  0
    2.7569    1.4757    4.0374 C   0  0  0  0  0  0  0  0  0  0  0  0
    1.7386    1.6648    5.0002 C   0  0  0  0  0  0  0  0  0  0  0  0
    1.9874    1.5015    6.4738 C   0  0  0  0  0  0  0  0  0  0  0  0
    1.8387    2.7931    7.0852 N   0  0  0  0  0  0  0  0  0  0  0  0
    1.1398    3.1463    8.1597 C   0  0  0  0  0  0  0  0  0  0  0  0
    1.5801    4.2022    8.7365 O   0  0  0  0  0  0  0  0  0  0  0  0
   -0.2020    2.5954    8.4420 C   0  0  0  0  0  0  0  0  0  0  0  0
   -1.2676    3.4855    8.1435 C   0  0  0  0  0  0  0  0  0  0  0  0
   -1.2855    4.2926    9.3476 C   0  0  0  0  0  0  0  0  0  0  0  0
   -0.9258    3.3855   10.3442 C   0  0  0  0  0  0  0  0  0  0  0  0
   -0.7733    3.6667   11.6713 C   0  0  0  0  0  0  0  0  0  0  0  0
   -0.6126    5.0124   11.8910 C   0  0  0  0  0  0  0  0  0  0  0  0
   -1.1055    5.9968   11.0429 C   0  0  0  0  0  0  0  0  0  0  0  0
   -1.2362    7.2954   11.4820 O   0  0  0  0  0  0  0  0  0  0  0  0
   -1.0074    7.5362   12.9016 C   0  0  0  0  0  0  0  0  0  0  0  0
   -2.1008    7.0357   13.8559 C   0  0  0  0  0  0  0  0  0  0  0  0
   -2.2685    5.6800   14.2099 C   0  0  0  0  0  0  0  0  0  0  0  0
   -3.2791    5.2092   15.0343 C   0  0  0  0  0  0  0  0  0  0  0  0
   -4.1073    6.1193   15.6445 C   0  0  0  0  0  0  0  0  0  0  0  0
   -3.9260    7.4810   15.3949 C   0  0  0  0  0  0  0  0  0  0  0  0
   -2.9680    7.9365   14.4731 C   0  0  0  0  0  0  0  0  0  0  0  0
   -1.4778    5.6450    9.7283 C   0  0  0  0  0  0  0  0  0  0  0  0
   -0.6928    2.1998    9.6941 N   0  0  0  0  0  0  0  0  0  0  0  0
   -1.3813    0.9986   10.1726 C   0  0  0  0  0  0  0  0  0  0  0  0
   -2.2457    0.3119    9.1546 C   0  0  0  0  0  0  0  0  0  0  0  0
   -2.1404   -1.0715    8.9971 C   0  0  0  0  0  0  0  0  0  0  0  0
   -2.9452   -1.7353    8.0774 C   0  0  0  0  0  0  0  0  0  0  0  0
   -3.9018   -1.0296    7.3468 C   0  0  0  0  0  0  0  0  0  0  0  0
   -4.0980    0.3378    7.5675 C   0  0  0  0  0  0  0  0  0  0  0  0
   -3.2492    1.0041    8.4524 C   0  0  0  0  0  0  0  0  0  0  0  0
   -5.2643    1.0303    6.9294 C   0  0  0  0  0  0  0  0  0  0  0  0
   -5.4955    2.3628    7.1110 N   0  0  0  0  0  0  0  0  0  0  0  0
   -6.0758    0.3286    6.2060 N   0  0  0  0  0  0  0  0  0  0  0  0
    0.4540    2.0011    4.5890 C   0  0  0  0  0  0  0  0  0  0  0  0
    0.1843    2.0374    3.2316 C   0  0  0  0  0  0  0  0  0  0  0  0
  1  2  1  0
  2  3  1  0
  2  4  1  0
  2  5  1  0
  5  6  2  0
  5 41  1  0
  6  7  1  0
  7  8  2  0
  8  9  1  0
  8 40  1  0
  9 10  1  0
 10 11  1  0
 11 12  2  0
 11 13  1  0
 13 14  2  0
 13 29  1  0
 14 15  1  0
 15 16  2  0
 15 28  1  0
 16 17  1  0
 16 29  1  0
 17 18  2  0
 18 19  1  0
 19 20  1  0
 19 28  2  0
 20 21  1  0
 21 22  1  0
 22 23  2  0
 22 27  1  0
 23 24  1  0
 24 25  2  0
 25 26  1  0
 26 27  2  0
 29 30  1  0
 30 31  1  0
 31 32  2  0
 31 36  1  0
 32 33  1  0
 33 34  2  0
 34 35  1  0
 35 36  2  0
 35 37  1  0
 37 38  1  0
 37 39  2  0
 40 41  2  0
M  CHG  1   2   1
M  END
>  <DRUGBANK_ID>  (1) 
DB02269

>  <SECONDARY_ACCESSION_NUMBERS>  (1) 
EXPT01864

>  <COMMON_NAME>  (1) 
[4-({[5-Benzyloxy-1-(3-Carbamimidoyl-Benzyl)-1h-Indole-2-Carbonyl]-Amino}-Methyl)-Phenyl]-Trimethyl-Ammonium

$$$$
