
     RDKit          3D

 27 30  0  0  0  0  0  0  0  0999 V2000
    1.7016    1.4015    0.0466 C   0  0  0  0  0  0  0  0  0  0  0  0
    0.3155   -0.6194    0.0175 C   0  0  0  0  0  0  0  0  0  0  0  0
   -1.1369   -0.8525    0.0112 C   0  0  0  0  0  0  0  0  0  0  0  0
    0.4705    0.7751    0.0343 C   0  0  0  0  0  0  0  0  0  0  0  0
   -0.7669    1.4113    0.0150 N   0  0  0  0  0  0  0  0  0  0  0  0
   -1.7986    0.4972   -0.0185 C   0  0  0  0  0  0  0  0  0  0  0  0
   -2.9982    0.7322   -0.0568 O   0  0  0  0  0  0  0  0  0  0  0  0
   -3.2429   -2.0703   -0.0717 N   0  0  0  0  0  0  0  0  0  0  0  0
   -4.0701   -3.1907    0.1114 C   0  0  0  0  0  0  0  0  0  0  0  0
   -5.7304   -5.4727    0.3812 C   0  0  0  0  0  0  0  0  0  0  0  0
   -4.5929   -5.3196    1.1812 C   0  0  0  0  0  0  0  0  0  0  0  0
   -3.7692   -4.1929    1.0358 C   0  0  0  0  0  0  0  0  0  0  0  0
   -5.2299   -3.3442   -0.6696 C   0  0  0  0  0  0  0  0  0  0  0  0
   -6.0837   -4.4544   -0.5098 C   0  0  0  0  0  0  0  0  0  0  0  0
   -8.0894   -6.5497    0.6723 O   0  0  0  0  0  0  0  0  0  0  0  0
   -6.7185   -6.9836    0.5119 S   0  0  0  0  0  0  0  0  0  0  0  0
   -6.0505   -7.8006    1.5026 O   0  0  0  0  0  0  0  0  0  0  0  0
    2.8327    0.5881    0.0164 C   0  0  0  0  0  0  0  0  0  0  0  0
   -1.8669   -1.9801    0.0370 C   0  0  0  0  0  0  0  0  0  0  0  0
   -6.5352   -7.6319   -1.0143 N   0  0  0  0  0  0  0  0  0  0  0  0
    2.7025   -0.8128   -0.0378 C   0  0  0  0  0  0  0  0  0  0  0  0
    1.4378   -1.4290   -0.0338 C   0  0  0  0  0  0  0  0  0  0  0  0
   -6.1450   -8.9783   -1.1744 C   0  0  0  0  0  0  0  0  0  0  0  0
   -5.8689  -11.1328   -0.7722 C   0  0  0  0  0  0  0  0  0  0  0  0
   -5.1192  -11.0484   -1.9256 C   0  0  0  0  0  0  0  0  0  0  0  0
   -5.2401   -9.4567   -2.5568 S   0  0  0  0  0  0  0  0  0  0  0  0
   -6.4470   -9.9466   -0.3460 N   0  0  0  0  0  0  0  0  0  0  0  0
  1 18  2  0
  1  4  1  0
  2 22  1  0
  2  3  1  0
  2  4  2  0
  3  6  1  0
  3 19  2  0
  4  5  1  0
  5  6  1  0
  6  7  2  0
  8 19  1  0
  8  9  1  0
  9 12  2  0
  9 13  1  0
 10 11  2  0
 10 14  1  0
 10 16  1  0
 11 12  1  0
 13 14  2  0
 15 16  2  0
 16 20  1  0
 16 17  2  0
 18 21  1  0
 20 23  1  0
 21 22  2  0
 23 27  2  0
 23 26  1  0
 24 27  1  0
 24 25  2  0
 25 26  1  0
M  END
>  <DRUGBANK_ID>  (1) 
DB08125

>  <COMMON_NAME>  (1) 
4-{[(2-Oxo-1,2-dihydro-3H-indol-3-ylidene)methyl]amino}-N-(1,3-thiazol-2-yl)benzenesulfonamide

$$$$
