
     RDKit          3D

 14 15  0  0  0  0  0  0  0  0999 V2000
    0.9890   -0.1502    0.1761 O   0  0  0  0  0  0  0  0  0  0  0  0
    2.9784    1.0967   -0.0015 N   0  0  0  0  0  0  0  0  0  0  0  0
    2.2967    2.3490   -0.0989 C   0  0  0  0  0  0  0  0  0  0  0  0
    4.3642    1.0471   -0.1417 C   0  0  0  0  0  0  0  0  0  0  0  0
    5.0325   -0.1101   -0.2612 C   0  0  0  0  0  0  0  0  0  0  0  0
    2.2219   -0.0769    0.1187 C   0  0  0  0  0  0  0  0  0  0  0  0
    4.3063   -1.3529   -0.1379 C   0  0  0  0  0  0  0  0  0  0  0  0
    2.9900   -1.3519    0.1075 C   0  0  0  0  0  0  0  0  0  0  0  0
    2.5812    3.2207   -1.1609 C   0  0  0  0  0  0  0  0  0  0  0  0
    1.3628    2.7367    0.8663 C   0  0  0  0  0  0  0  0  0  0  0  0
    6.5063   -0.1886   -0.5183 C   0  0  0  0  0  0  0  0  0  0  0  0
    2.0334    4.5039   -1.1911 C   0  0  0  0  0  0  0  0  0  0  0  0
    0.7709    4.0010    0.8028 C   0  0  0  0  0  0  0  0  0  0  0  0
    1.1439    4.9006   -0.1956 C   0  0  0  0  0  0  0  0  0  0  0  0
  1  6  2  0
  2  3  1  0
  2  4  1  0
  2  6  1  0
  3  9  2  0
  3 10  1  0
  4  5  2  0
  5  7  1  0
  5 11  1  0
  6  8  1  0
  7  8  2  0
  9 12  1  0
 10 13  2  0
 12 14  2  0
 13 14  1  0
M  END
>  <DRUGBANK_ID>  (1) 
DB04951

>  <COMMON_NAME>  (1) 
Pirfenidone

>  <CAS_NUMBER>  (1) 
53179-13-8

>  <UNII>  (1) 
D7NLD2JX7U

>  <SYNONYMS>  (1) 
Pirfenidona; Pirfenidone

$$$$
