
     RDKit          3D

 18 19  0  0  1  0  0  0  0  0999 V2000
    1.0673   -0.0587   -0.0000 O   0  0  0  0  0  0  0  0  0  0  0  0
    0.5588   -1.3185    0.4470 C   0  0  0  0  0  0  0  0  0  0  0  0
    1.1113   -2.4435   -0.4344 C   0  0  1  0  0  0  0  0  0  0  0  0
    2.4621   -2.6976    0.0276 O   0  0  0  0  0  0  0  0  0  0  0  0
    2.5305   -4.0313    0.5682 C   0  0  2  0  0  0  0  0  0  0  0  0
    1.0998   -4.5663    0.6994 C   0  0  2  0  0  0  0  0  0  0  0  0
    1.0253   -5.9784    0.5242 O   0  0  0  0  0  0  0  0  0  0  0  0
    0.3542   -3.7737   -0.3593 C   0  0  2  0  0  0  0  0  0  0  0  0
    0.4214   -4.4732   -1.6127 O   0  0  0  0  0  0  0  0  0  0  0  0
    3.2599   -4.0154    1.8348 N   0  0  0  0  0  0  0  0  0  0  0  0
    2.8020   -3.2722    2.9101 C   0  0  0  0  0  0  0  0  0  0  0  0
    3.5157   -3.1371    4.0266 C   0  0  0  0  0  0  0  0  0  0  0  0
    3.1224   -2.3462    5.0404 F   0  0  0  0  0  0  0  0  0  0  0  0
    4.7796   -3.8741    4.1693 C   0  0  0  0  0  0  0  0  0  0  0  0
    5.5352   -3.7167    5.1253 O   0  0  0  0  0  0  0  0  0  0  0  0
    5.0455   -4.7543    3.1548 N   0  0  0  0  0  0  0  0  0  0  0  0
    4.4286   -4.7674    1.9254 C   0  0  0  0  0  0  0  0  0  0  0  0
    4.9168   -5.4055    0.9978 O   0  0  0  0  0  0  0  0  0  0  0  0
  1  2  1  0
  3  2  1  1
  3  4  1  0
  3  8  1  0
  4  5  1  0
  5  6  1  0
  5 10  1  1
  6  7  1  6
  6  8  1  0
  8  9  1  6
 10 11  1  0
 10 17  1  0
 11 12  2  0
 12 13  1  0
 12 14  1  0
 14 15  2  0
 14 16  1  0
 16 17  1  0
 17 18  2  0
M  END
>  <DRUGBANK_ID>  (1) 
DB01629

>  <SECONDARY_ACCESSION_NUMBERS>  (1) 
EXPT00263

>  <COMMON_NAME>  (1) 
5-fluorouridine

>  <CAS_NUMBER>  (1) 
316-46-1

>  <UNII>  (1) 
4K0M952561

>  <SYNONYMS>  (1) 
5-Fluoro-uridine; 5-Fluorouracil 1beta-D-ribofuranoside; 5-Fur

$$$$
