AZQ
     RDKit          3D

 22 24  0  0  0  0  0  0  0  0999 V2000
   -0.0343    0.3529   -0.2674 C   0  0  0  0  0  0  0  0  0  0  0  0
   -1.2420    1.4368   -1.1744 C   0  0  2  0  0  0  0  0  0  0  0  0
   -0.2598    0.9352   -2.1143 C   0  0  0  0  0  0  0  0  0  0  0  0
   -0.5985   -0.4951   -2.2015 N   0  0  0  0  0  0  0  0  0  0  0  0
   -1.7499   -1.3545   -2.4972 C   0  0  0  0  0  0  0  0  0  0  0  0
   -1.5719   -2.6485   -2.3021 N   0  0  0  0  0  0  0  0  0  0  0  0
   -0.3539   -3.1041   -1.7252 C   0  0  0  0  0  0  0  0  0  0  0  0
   -0.0261   -4.4681   -1.8234 C   0  0  0  0  0  0  0  0  0  0  0  0
    1.1160   -4.9774   -1.2048 C   0  0  0  0  0  0  0  0  0  0  0  0
    1.9493   -4.1233   -0.4672 C   0  0  0  0  0  0  0  0  0  0  0  0
    1.6036   -2.7351   -0.3362 C   0  0  0  0  0  0  0  0  0  0  0  0
    0.4488   -2.2130   -0.9602 C   0  0  0  0  0  0  0  0  0  0  0  0
   -0.1097   -0.8980   -0.9567 N   0  0  0  0  0  0  0  0  0  0  0  0
    0.8630    0.6815    0.4484 O   0  0  0  0  0  0  0  0  0  0  0  0
   -1.5676    2.4586   -2.6515 C   0  0  0  0  0  0  0  0  0  0  0  0
   -1.0102    2.0539   -4.1450 C   0  0  0  0  0  0  0  0  0  0  0  0
   -1.5321    2.0009   -5.3819 C   0  0  0  0  0  0  0  0  0  0  0  0
    0.7800    1.6145   -2.1658 O   0  0  0  0  0  0  0  0  0  0  0  0
   -3.0308   -0.9385   -2.9114 N   0  0  0  0  0  0  0  0  0  0  0  0
   -3.8832   -1.8337   -3.6739 C   0  0  0  0  0  0  0  0  0  0  0  0
   -3.5985    0.3848   -2.9373 C   0  0  0  0  0  0  0  0  0  0  0  0
    3.1827   -4.7235    0.1773 C   0  0  0  0  0  0  0  0  0  0  0  0
  1  2  1  0
  1 13  1  0
  1 14  2  0
  2  3  1  0
  2 15  1  1
  3  4  1  0
  3 18  2  0
  4  5  1  0
  4 13  1  0
  5  6  2  0
  5 19  1  0
  6  7  1  0
  7  8  2  0
  7 12  1  0
  8  9  1  0
  9 10  2  0
 10 11  1  0
 10 22  1  0
 11 12  2  0
 12 13  1  0
 15 16  1  0
 16 17  2  0
 19 20  1  0
 19 21  1  0
M  END
>  <DRUGBANK_ID>  (1) 
DB07402

>  <COMMON_NAME>  (1) 
Azapropazone

>  <CAS_NUMBER>  (1) 
13539-59-8

>  <UNII>  (1) 
K2VOT966ZI

>  <SYNONYMS>  (1) 
1,2-Dihydro-3-dimethylamino-7-methyl-1,2-(propylmalonyl)-1,2,4-benzotriazine; 3-Dimethylamino-7-methyl-1,2-(n-propylmalonyl)-1,2-dihydro-1,2,4-benzotriazine; 5-(Dimethylamino)-9-methyl-2-propyl-1H-pyrazolo(1,2-a)(1,2,4)benzotriazine-1,3(2H)-dione; Apazone; Azapropazon; Azapropazona; Azapropazone; Azapropazonum

$$$$
