8ST
     RDKit          3D

 24 26  0  0  0  0  0  0  0  0999 V2000
   -2.1007    0.0623   -0.0113 Cl  0  0  0  0  0  0  0  0  0  0  0  0
   -0.3821    0.0278   -0.0132 C   0  0  0  0  0  0  0  0  0  0  0  0
    0.2696   -1.1930   -0.0126 C   0  0  0  0  0  0  0  0  0  0  0  0
    1.6624   -1.2306   -0.0007 C   0  0  0  0  0  0  0  0  0  0  0  0
    0.3572    1.2103   -0.0116 C   0  0  0  0  0  0  0  0  0  0  0  0
    1.7658    1.1670   -0.0064 C   0  0  0  0  0  0  0  0  0  0  0  0
    2.4368   -0.0657   -0.0034 C   0  0  0  0  0  0  0  0  0  0  0  0
    3.8587   -0.1130   -0.0049 N   0  0  0  0  0  0  0  0  0  0  0  0
    4.6226   -1.2781   -0.0040 C   0  0  0  0  0  0  0  0  0  0  0  0
    4.1887   -2.4337   -0.0412 O   0  0  0  0  0  0  0  0  0  0  0  0
    6.1012   -1.1707    0.0707 C   0  0  0  0  0  0  0  0  0  0  0  0
    6.7522   -0.3373    0.9983 C   0  0  0  0  0  0  0  0  0  0  0  0
    8.1512   -0.4682    1.0878 C   0  0  0  0  0  0  0  0  0  0  0  0
    8.8692   -1.4106    0.3487 C   0  0  0  0  0  0  0  0  0  0  0  0
    8.2044   -2.2525   -0.5246 C   0  0  0  0  0  0  0  0  0  0  0  0
    6.8301   -2.1110   -0.6890 C   0  0  0  0  0  0  0  0  0  0  0  0
    6.0510    0.5983    1.7385 N   0  0  0  0  0  0  0  0  0  0  0  0
    6.6487    1.5377    2.6596 C   0  0  0  0  0  0  0  0  0  0  0  0
    6.4514    2.9523    2.1849 C   0  0  0  0  0  0  0  0  0  0  0  0
    6.8941    3.9899    3.0068 C   0  0  0  0  0  0  0  0  0  0  0  0
    6.7835    5.2908    2.5500 C   0  0  0  0  0  0  0  0  0  0  0  0
    6.2535    5.6268    1.3553 N   0  0  0  0  0  0  0  0  0  0  0  0
    5.8305    4.6143    0.5734 C   0  0  0  0  0  0  0  0  0  0  0  0
    5.9176    3.2823    0.9339 C   0  0  0  0  0  0  0  0  0  0  0  0
  1  2  1  0
  2  5  2  0
  2  3  1  0
  3  4  2  0
  4  7  1  0
  5  6  1  0
  6  7  2  0
  7  8  1  0
  9  8  1  0
  9 11  1  0
 10  9  2  0
 11 12  1  0
 11 16  2  0
 12 13  2  0
 13 14  1  0
 15 14  2  0
 16 15  1  0
 17 12  1  0
 18 17  1  0
 18 19  1  0
 19 24  1  0
 19 20  2  0
 20 21  1  0
 21 22  2  0
 23 22  1  0
 24 23  2  0
M  END
>  <DRUGBANK_ID>  (1) 
DB07288

>  <COMMON_NAME>  (1) 
N-(4-chlorophenyl)-2-[(pyridin-4-ylmethyl)amino]benzamide

$$$$
