
     RDKit          3D

 10 11  0  0  0  0  0  0  0  0999 V2000
    0.8988    1.3015   -0.0634 C   0  0  0  0  0  0  0  0  0  0  0  0
   -0.6161    1.0370    0.0622 C   0  0  0  0  0  0  0  0  0  0  0  0
   -0.5496   -1.0745    0.0041 C   0  0  0  0  0  0  0  0  0  0  0  0
   -0.9938   -0.0563    1.1602 C   0  0  0  0  0  0  0  0  0  0  0  0
    0.9555   -1.1897   -0.1002 C   0  0  0  0  0  0  0  0  0  0  0  0
    1.6297   -0.0253   -0.1208 C   0  0  0  0  0  0  0  0  0  0  0  0
    1.5913   -2.5391   -0.0483 C   0  0  0  0  0  0  0  0  0  0  0  0
   -2.4652   -0.0841    1.6064 C   0  0  0  0  0  0  0  0  0  0  0  0
   -0.1592   -0.0526    2.4512 C   0  0  0  0  0  0  0  0  0  0  0  0
   -1.0967   -0.0020   -1.0015 C   0  0  0  0  0  0  0  0  0  0  0  0
  1  2  1  0
  1  6  1  0
  2  4  1  0
  2 10  1  0
  3 10  1  0
  4  3  1  0
  4  8  1  0
  4  9  1  0
  5  3  1  0
  6  5  2  0
  7  5  1  0
M  END
>  <DRUGBANK_ID>  (1) 
DB15573

>  <COMMON_NAME>  (1) 
alpha-Pinene

>  <CAS_NUMBER>  (1) 
80-56-8

>  <UNII>  (1) 
JPF3YI7O34

>  <SYNONYMS>  (1) 
(±)-2-pinene; (±)-α-pinene; 2-pinene; Acintene A; alpha-Pinene; pin-2(3)-ene; α-pinene

$$$$
