
     RDKit          3D

 32 35  0  0  0  0  0  0  0  0999 V2000
   -2.5844    0.5421    0.0043 C   0  0  0  0  0  0  0  0  0  0  0  0
   -1.2179   -0.0763   -0.0146 C   0  0  0  0  0  0  0  0  0  0  0  0
   -1.0945   -1.4746   -0.0428 C   0  0  0  0  0  0  0  0  0  0  0  0
    0.1652   -2.0859   -0.0439 C   0  0  0  0  0  0  0  0  0  0  0  0
    0.3043   -3.5879   -0.0169 C   0  0  0  0  0  0  0  0  0  0  0  0
    1.1488   -4.0331   -1.1182 N   0  0  0  0  0  0  0  0  0  0  0  0
    2.2051   -4.8600   -0.9122 C   0  0  0  0  0  0  0  0  0  0  0  0
    2.4664   -5.9310   -0.0561 C   0  0  0  0  0  0  0  0  0  0  0  0
    1.4796   -6.5242    0.8428 C   0  0  0  0  0  0  0  0  0  0  0  0
    1.8373   -7.5357    1.6805 N   0  0  0  0  0  0  0  0  0  0  0  0
    0.2964   -6.1749    0.9129 O   0  0  0  0  0  0  0  0  0  0  0  0
    3.8394   -6.2679   -0.3499 C   0  0  0  0  0  0  0  0  0  0  0  0
    4.5314   -7.3066    0.1828 N   0  0  0  0  0  0  0  0  0  0  0  0
    5.8980   -7.6176    0.0355 C   0  0  0  0  0  0  0  0  0  0  0  0
    6.9013   -6.6867    0.2967 C   0  0  0  0  0  0  0  0  0  0  0  0
    8.2541   -7.0442    0.1835 C   0  0  0  0  0  0  0  0  0  0  0  0
    8.6364   -8.3343   -0.2042 C   0  0  0  0  0  0  0  0  0  0  0  0
    7.6171   -9.2750   -0.3940 C   0  0  0  0  0  0  0  0  0  0  0  0
    6.2668   -8.9235   -0.2919 C   0  0  0  0  0  0  0  0  0  0  0  0
    9.9476   -8.6870   -0.4225 N   0  0  0  0  0  0  0  0  0  0  0  0
   11.0119   -8.4632    0.5537 C   0  0  0  0  0  0  0  0  0  0  0  0
   12.1156   -7.5837   -0.0501 C   0  0  0  0  0  0  0  0  0  0  0  0
   12.6082   -8.1253   -1.2894 O   0  0  0  0  0  0  0  0  0  0  0  0
   11.5359   -8.2181   -2.2461 C   0  0  0  0  0  0  0  0  0  0  0  0
   10.4076   -9.1416   -1.7435 C   0  0  0  0  0  0  0  0  0  0  0  0
    4.3552   -5.4599   -1.2831 N   0  0  0  0  0  0  0  0  0  0  0  0
    3.3484   -4.6614   -1.6315 N   0  0  0  0  0  0  0  0  0  0  0  0
    1.3117   -1.2823   -0.0005 C   0  0  0  0  0  0  0  0  0  0  0  0
    1.2161    0.1116   -0.0004 C   0  0  0  0  0  0  0  0  0  0  0  0
    2.4657    0.9399   -0.0204 C   0  0  0  0  0  0  0  0  0  0  0  0
   -0.0519    0.7034   -0.0018 C   0  0  0  0  0  0  0  0  0  0  0  0
   -0.1018    2.0717    0.0071 O   0  0  0  0  0  0  0  0  0  0  0  0
  1  2  1  0
  2  3  2  0
  2 31  1  0
  3  4  1  0
  4  5  1  0
  4 28  2  0
  5  6  1  0
  6  7  1  0
  7  8  2  0
  7 27  1  0
  8  9  1  0
  8 12  1  0
  9 10  1  0
  9 11  2  0
 12 13  1  0
 12 26  2  0
 13 14  1  0
 14 15  2  0
 14 19  1  0
 15 16  1  0
 16 17  2  0
 17 18  1  0
 17 20  1  0
 18 19  2  0
 20 21  1  0
 20 25  1  0
 21 22  1  0
 22 23  1  0
 23 24  1  0
 24 25  1  0
 26 27  1  0
 28 29  1  0
 29 30  1  0
 29 31  2  0
 31 32  1  0
M  END
>  <DRUGBANK_ID>  (1) 
DB18063

>  <COMMON_NAME>  (1) 
MG-S-2525

>  <UNII>  (1) 
I45A327R6A

>  <SYNONYMS>  (1) 
5-(3,5-Dimethyl-4-hydroxybenzylamino)-3-(4-morpholin-4-yl-phenylamino)-1H-pyrazole-4-carboxylic acid amide

$$$$
