
     RDKit          3D

 35 37  0  0  1  0  0  0  0  0999 V2000
    1.9887    8.0498   -3.0966 C   0  0  0  0  0  0  0  0  0  0  0  0
    2.6331    8.9286   -2.0584 C   0  0  0  0  0  0  0  0  0  0  0  0
    2.5418   10.3133   -2.2395 C   0  0  0  0  0  0  0  0  0  0  0  0
    3.1256   11.2043   -1.3404 C   0  0  0  0  0  0  0  0  0  0  0  0
    2.9964   12.5403   -1.5863 O   0  0  0  0  0  0  0  0  0  0  0  0
    3.8153   10.7548   -0.2238 C   0  0  0  0  0  0  0  0  0  0  0  0
    4.4136   11.6780    0.5877 O   0  0  0  0  0  0  0  0  0  0  0  0
    3.8567    9.3947    0.0282 C   0  0  0  0  0  0  0  0  0  0  0  0
    3.2606    8.4851   -0.8874 C   0  0  0  0  0  0  0  0  0  0  0  0
    3.1670    7.0900   -0.4675 C   0  0  0  0  0  0  0  0  0  0  0  0
    3.0977    6.8193    0.7368 O   0  0  0  0  0  0  0  0  0  0  0  0
    3.1754    6.2452   -1.5160 O   0  0  0  0  0  0  0  0  0  0  0  0
    2.9928    4.8503   -1.2939 C   0  0  0  0  0  0  0  0  0  0  0  0
    4.3062    4.1142   -1.3681 C   0  0  2  0  0  0  0  0  0  0  0  0
    4.2245    3.0601   -0.2348 C   0  0  0  0  0  0  0  0  0  0  0  0
    3.0393    2.3102    0.1759 N   0  0  0  0  0  0  0  0  0  0  0  0
    3.3001    1.4744    1.3932 C   0  0  0  0  0  0  0  0  0  0  0  0
    3.6172    2.3607    2.6349 C   0  0  0  0  0  0  0  0  0  0  0  0
    1.9575    0.7855    1.5902 C   0  0  0  0  0  0  0  0  0  0  0  0
    4.3432    0.3092    1.3074 C   0  0  0  0  0  0  0  0  0  0  0  0
    4.4299   -0.3717    0.0275 N   0  0  0  0  0  0  0  0  0  0  0  0
    5.3762   -0.3491   -0.9522 C   0  0  0  0  0  0  0  0  0  0  0  0
    5.1089   -0.9886   -1.9796 O   0  0  0  0  0  0  0  0  0  0  0  0
    6.7292    0.4122   -0.8784 C   0  0  2  0  0  0  0  0  0  0  0  0
    7.3174    0.8164    0.4629 C   0  0  0  0  0  0  0  0  0  0  0  0
    6.8803    2.2446    0.6252 C   0  0  0  0  0  0  0  0  0  0  0  0
    6.8790    2.7905   -0.6977 O   0  0  0  0  0  0  0  0  0  0  0  0
    6.7396    1.7159   -1.6612 C   0  0  0  0  0  0  0  0  0  0  0  0
    5.4312    5.0687   -1.4029 O   0  0  0  0  0  0  0  0  0  0  0  0
    5.6088    5.7539   -0.2477 C   0  0  0  0  0  0  0  0  0  0  0  0
    5.0443    5.4316    0.7955 O   0  0  0  0  0  0  0  0  0  0  0  0
    6.6898    6.7812   -0.1328 C   0  0  0  0  0  0  0  0  0  0  0  0
    7.2953    6.5136    1.2312 C   0  0  0  0  0  0  0  0  0  0  0  0
    6.8025    8.2819   -0.4471 C   0  0  0  0  0  0  0  0  0  0  0  0
    7.2793    7.3136   -1.4538 C   0  0  0  0  0  0  0  0  0  0  0  0
  1  2  1  0
  2  3  2  0
  2  9  1  0
  3  4  1  0
  4  5  1  0
  4  6  2  0
  6  7  1  0
  6  8  1  0
  8  9  2  0
  9 10  1  0
 10 11  2  0
 10 12  1  0
 12 13  1  0
 14 29  1  0
 14 15  1  1
 14 13  1  0
 15 16  1  0
 16 17  1  0
 17 18  1  0
 17 19  1  0
 17 20  1  0
 20 21  1  0
 21 22  1  0
 22 23  2  0
 24 22  1  1
 24 25  1  0
 24 28  1  0
 25 26  1  0
 26 27  1  0
 27 28  1  0
 29 30  1  0
 30 31  2  0
 30 32  1  0
 32 33  1  0
 32 34  1  0
 32 35  1  0
 34 35  1  0
M  END
>  <DRUGBANK_ID>  (1) 
DB16112

>  <COMMON_NAME>  (1) 
OT-730

>  <CAS_NUMBER>  (1) 
870809-51-1

>  <UNII>  (1) 
5WVS67PLAL

$$$$
