
     RDKit          3D

 28 27  0  0  0  0  0  0  0  0999 V2000
    1.0995   -0.0988   -0.6478 C   0  0  0  0  0  0  0  0  0  0  0  0
    0.5696   -1.5074   -0.1369 C   0  0  0  0  0  0  0  0  0  0  0  0
    0.7864    0.9883    0.2615 C   0  0  0  0  0  0  0  0  0  0  0  0
    0.7231    0.5193   -2.3230 S   0  0  0  0  0  0  0  0  0  0  0  0
    0.2192   -1.8134    1.1906 O   0  0  0  0  0  0  0  0  0  0  0  0
    0.6517   -2.4781   -0.8935 O   0  0  0  0  0  0  0  0  0  0  0  0
    1.0538    2.6104    0.1752 C   0  0  0  0  0  0  0  0  0  0  0  0
    1.2293    2.0530   -2.1380 O   0  0  0  0  0  0  0  0  0  0  0  0
    1.5784   -0.0751   -3.2784 O   0  0  0  0  0  0  0  0  0  0  0  0
   -0.7038    0.7308   -2.6358 O   0  0  0  0  0  0  0  0  0  0  0  0
   -0.1298   -1.2824    2.5793 C   0  0  0  0  0  0  0  0  0  0  0  0
   -0.0079    3.4789    0.2740 O   0  0  0  0  0  0  0  0  0  0  0  0
    2.1724    3.1097    0.0634 O   0  0  0  0  0  0  0  0  0  0  0  0
    0.9720   -0.6385    3.4476 C   0  0  0  0  0  0  0  0  0  0  0  0
   -1.4041    3.3089    0.7239 C   0  0  0  0  0  0  0  0  0  0  0  0
    1.9884    0.2494    2.7552 C   0  0  0  0  0  0  0  0  0  0  0  0
    0.3246    0.3453    4.4147 C   0  0  0  0  0  0  0  0  0  0  0  0
   -2.1328    2.5146   -0.3518 C   0  0  0  0  0  0  0  0  0  0  0  0
    1.4544    1.6931    2.4662 C   0  0  0  0  0  0  0  0  0  0  0  0
   -0.6729   -0.1536    5.3777 C   0  0  0  0  0  0  0  0  0  0  0  0
   -1.8075    1.0887   -0.2513 C   0  0  0  0  0  0  0  0  0  0  0  0
   -3.5791    2.3209   -0.2662 C   0  0  0  0  0  0  0  0  0  0  0  0
    0.8047    2.9091    3.0887 C   0  0  0  0  0  0  0  0  0  0  0  0
   -2.0455    0.4118    1.0859 C   0  0  0  0  0  0  0  0  0  0  0  0
   -4.2458    3.6124   -0.3079 C   0  0  0  0  0  0  0  0  0  0  0  0
    1.9833    3.5416    3.6354 C   0  0  0  0  0  0  0  0  0  0  0  0
   -3.3042   -0.3301    1.3597 C   0  0  0  0  0  0  0  0  0  0  0  0
   -3.5231   -1.1839    0.1302 C   0  0  0  0  0  0  0  0  0  0  0  0
  1  2  1  0
  1  3  1  0
  1  4  1  0
  2  5  1  0
  2  6  2  0
  3  7  1  0
  4  8  1  0
  4  9  2  0
  4 10  2  0
  5 11  1  0
  7 12  1  0
  7 13  2  0
 11 14  1  0
 12 15  1  0
 14 16  1  0
 14 17  1  0
 15 18  1  0
 16 19  1  0
 17 20  1  0
 18 21  1  0
 18 22  1  0
 19 23  1  0
 21 24  1  0
 22 25  1  0
 23 26  1  0
 24 27  1  0
 27 28  1  0
M  END
>  <DRUGBANK_ID>  (1) 
DB11089

>  <COMMON_NAME>  (1) 
Docusate

>  <CAS_NUMBER>  (1) 
10041-19-7

>  <UNII>  (1) 
M7P27195AG

>  <SYNONYMS>  (1) 
Dioctyl sulfosuccinate; Docusate hydrogen

$$$$
