
     RDKit          3D

  5  4  0  0  1  0  0  0  0  0999 V2000
    0.9790    0.0678   -0.0312 C   0  0  0  0  0  0  0  0  0  0  0  0
    0.4159   -1.2234   -0.6152 C   0  0  1  0  0  0  0  0  0  0  0  0
    1.0277   -2.6051    0.3555 Cl  0  0  0  0  0  0  0  0  0  0  0  0
   -1.1115   -1.2666   -0.6248 C   0  0  0  0  0  0  0  0  0  0  0  0
   -1.8118    0.0032   -1.6639 Cl  0  0  0  0  0  0  0  0  0  0  0  0
  2  1  1  1
  2  3  1  0
  2  4  1  0
  4  5  1  0
M  END
>  <DRUGBANK_ID>  (1) 
DB01701

>  <SECONDARY_ACCESSION_NUMBERS>  (1) 
EXPT00992

>  <COMMON_NAME>  (1) 
1,2-Dichloro-Propane

>  <CAS_NUMBER>  (1) 
78-87-5

>  <UNII>  (1) 
RRZ023OFWL

$$$$
