
     RDKit          3D

 13 12  0  0  0  0  0  0  0  0999 V2000
    0.9286    0.1321   -0.0625 C   0  0  0  0  0  0  0  0  0  0  0  0
    0.2008    0.6098    0.9645 O   0  0  0  0  0  0  0  0  0  0  0  0
    0.3731   -0.3120   -1.0649 O   0  0  0  0  0  0  0  0  0  0  0  0
    6.6163   -3.8164    4.4063 C   0  0  0  0  0  0  0  0  0  0  0  0
    7.3238   -4.5373    5.2777 C   0  0  0  0  0  0  0  0  0  0  0  0
    2.4363    0.1855    0.0512 C   0  0  0  0  0  0  0  0  0  0  0  0
    5.1188   -3.7477    4.4365 C   0  0  0  0  0  0  0  0  0  0  0  0
    2.9677    0.5768    1.4243 C   0  0  0  0  0  0  0  0  0  0  0  0
    4.6610   -2.3095    4.6846 C   0  0  0  0  0  0  0  0  0  0  0  0
    5.1358   -1.3678    3.5696 C   0  0  0  0  0  0  0  0  0  0  0  0
    3.0849   -1.8332    2.1978 C   0  0  0  0  0  0  0  0  0  0  0  0
    2.5463   -0.4373    2.4989 C   0  0  0  0  0  0  0  0  0  0  0  0
    4.6104   -1.8236    2.2029 C   0  0  0  0  0  0  0  0  0  0  0  0
  2  1  1  0
  3  1  2  0
  4  7  1  0
  5  4  2  0
  6  1  1  0
  7  9  1  0
  8  6  1  0
  9 10  1  0
 10 13  1  0
 11 12  1  0
 12  8  1  0
 13 11  1  0
M  END
>  <DRUGBANK_ID>  (1) 
DB11117

>  <SECONDARY_ACCESSION_NUMBERS>  (1) 
DBSALT001514

>  <COMMON_NAME>  (1) 
Undecylenic acid

>  <CAS_NUMBER>  (1) 
112-38-9

>  <UNII>  (1) 
K3D86KJ24N

>  <SYNONYMS>  (1) 
10-undecenoic acid; Ã¡cido 10-undecenoico; Undecenoic acid; Undecylenate; Undecylenic acid

$$$$
