
     RDKit          3D

 25 27  0  0  0  0  0  0  0  0999 V2000
   -1.3084   -0.5693    0.2692 O   0  0  0  0  0  0  0  0  0  0  0  0
    1.7160   -0.1318    0.6756 O   0  0  0  0  0  0  0  0  0  0  0  0
   -3.3115    1.2879    1.2406 O   0  0  0  0  0  0  0  0  0  0  0  0
    1.6295    4.4402   -0.6778 O   0  0  0  0  0  0  0  0  0  0  0  0
   -1.7913    4.5721   -1.4859 O   0  0  0  0  0  0  0  0  0  0  0  0
   -0.6915   -1.5647   -1.8038 N   0  0  0  0  0  0  0  0  0  0  0  0
    0.7809    2.4128   -0.2382 N   0  0  0  0  0  0  0  0  0  0  0  0
   -2.1333   -2.0191   -3.4501 N   0  0  0  0  0  0  0  0  0  0  0  0
    1.3648   -2.4040   -2.8262 N   0  0  0  0  0  0  0  0  0  0  0  0
    0.7201    2.3936   -3.2650 N   0  0  0  0  0  0  0  0  0  0  0  0
    0.9445   -3.3196   -5.0474 N   0  0  0  0  0  0  0  0  0  0  0  0
   -1.1841   -3.3738   -6.0429 N   0  0  0  0  0  0  0  0  0  0  0  0
    0.0644    1.1815   -0.5280 C   0  0  1  0  0  0  0  0  0  0  0  0
    0.9058   -0.0841   -0.5108 C   0  0  2  0  0  0  0  0  0  0  0  0
   -1.0493    0.8441    0.4613 C   0  0  1  0  0  0  0  0  0  0  0  0
   -0.2013   -1.1532   -0.4934 C   0  0  1  0  0  0  0  0  0  0  0  0
   -2.3378    1.6489    0.2708 C   0  0  0  0  0  0  0  0  0  0  0  0
    0.0460   -2.1486   -2.8055 C   0  0  0  0  0  0  0  0  0  0  0  0
    0.9400    3.4891   -1.0700 C   0  0  0  0  0  0  0  0  0  0  0  0
   -1.9918   -1.5190   -2.2418 C   0  0  0  0  0  0  0  0  0  0  0  0
   -0.8680   -2.4260   -3.8125 C   0  0  0  0  0  0  0  0  0  0  0  0
    0.2340    3.5279   -2.4446 C   0  0  2  0  0  0  0  0  0  0  0  0
   -1.2932    3.5142   -2.2918 C   0  0  0  0  0  0  0  0  0  0  0  0
   -0.3771   -3.0450   -4.9762 C   0  0  0  0  0  0  0  0  0  0  0  0
    1.7239   -2.9883   -3.9931 C   0  0  0  0  0  0  0  0  0  0  0  0
  1 15  1  0
  1 16  1  0
  3 17  1  0
  4 19  2  0
  5 23  1  0
  6 18  1  0
  6 20  1  0
  7 19  1  0
  8 20  2  0
  8 21  1  0
  9 18  1  0
  9 25  2  0
 11 24  2  0
 11 25  1  0
 12 24  1  0
 13  7  1  1
 13 14  1  0
 13 15  1  0
 14  2  1  1
 14 16  1  0
 15 17  1  6
 16  6  1  6
 18 21  2  0
 19 22  1  0
 21 24  1  0
 22 10  1  6
 22 23  1  0
M  END
>  <DRUGBANK_ID>  (1) 
DB04024

>  <SECONDARY_ACCESSION_NUMBERS>  (1) 
EXPT00371

>  <COMMON_NAME>  (1) 
Serine-3'-aminoadenosine

$$$$
