
     RDKit          3D

 24 27  0  0  0  0  0  0  0  0999 V2000
    2.6357   -0.2757   -0.1832 C   0  0  0  0  0  0  0  0  0  0  0  0
   -2.1102    4.2636   -0.8811 C   0  0  0  0  0  0  0  0  0  0  0  0
   -2.4314    1.6493    5.8790 C   0  0  0  0  0  0  0  0  0  0  0  0
   -2.5416    5.5008   -0.4764 C   0  0  0  0  0  0  0  0  0  0  0  0
   -2.5985    2.8736    6.4386 C   0  0  0  0  0  0  0  0  0  0  0  0
   -0.6991    0.1245    2.4174 C   0  0  0  0  0  0  0  0  0  0  0  0
   -1.4131    3.5096    0.0554 C   0  0  0  0  0  0  0  0  0  0  0  0
   -2.0639    1.6035    4.5394 C   0  0  0  0  0  0  0  0  0  0  0  0
   -2.2915    5.8753    0.8465 C   0  0  0  0  0  0  0  0  0  0  0  0
   -2.3302    4.0497    5.7140 C   0  0  0  0  0  0  0  0  0  0  0  0
   -1.9464   -0.2713    1.6027 C   0  0  0  0  0  0  0  0  0  0  0  0
   -0.2414    1.6347    2.3508 C   0  0  0  0  0  0  0  0  0  0  0  0
    0.5991   -1.6383   -0.1022 C   0  0  0  0  0  0  0  0  0  0  0  0
    0.5092    0.6981   -0.3418 C   0  0  0  0  0  0  0  0  0  0  0  0
   -0.9591   -1.6807   -0.2562 C   0  0  0  0  0  0  0  0  0  0  0  0
   -1.0501    0.6161   -0.4493 C   0  0  0  0  0  0  0  0  0  0  0  0
   -1.4442    3.6756    1.4569 C   0  0  0  0  0  0  0  0  0  0  0  0
   -1.7133    2.7590    3.7972 C   0  0  0  0  0  0  0  0  0  0  0  0
   -1.8097    4.9689    1.8219 C   0  0  0  0  0  0  0  0  0  0  0  0
   -1.8606    3.9918    4.3883 C   0  0  0  0  0  0  0  0  0  0  0  0
    1.2707   -0.4724   -0.7464 N   0  0  0  0  0  0  0  0  0  0  0  0
   -1.7145   -0.5117    0.1633 N   0  0  0  0  0  0  0  0  0  0  0  0
   -1.2984    2.6389    2.4418 N   0  0  0  0  0  0  0  0  0  0  0  0
   -1.5575    5.5163    3.5055 S   0  0  0  0  0  0  0  0  0  0  0  0
  4  2  2  0
  5  3  2  0
  7  2  1  0
  8  3  1  0
  9  4  1  0
 10  5  1  0
 11  6  1  0
 12  6  1  0
 15 13  1  0
 16 14  1  0
 17  7  2  0
 18  8  2  0
 19  9  2  0
 19 17  1  0
 20 10  2  0
 20 18  1  0
 21  1  1  0
 21 13  1  0
 21 14  1  0
 22 11  1  0
 22 15  1  0
 22 16  1  0
 23 12  1  0
 23 17  1  0
 23 18  1  0
 24 19  1  0
 24 20  1  0
M  END
>  <DRUGBANK_ID>  (1) 
DB12710

>  <COMMON_NAME>  (1) 
Perazine

>  <CAS_NUMBER>  (1) 
84-97-9

>  <UNII>  (1) 
8915147A2B

$$$$
