478
     RDKit          3D

 13 15  0  0  1  0  0  0  0  0999 V2000
    0.9222    0.0073    0.0837 N   0  0  0  0  0  0  0  0  0  0  0  0
    0.8809    2.0586   -1.4538 C   0  0  0  0  0  0  0  0  0  0  0  0
    2.1574    4.0320   -2.4718 C   0  0  0  0  0  0  0  0  0  0  0  0
    0.0569    3.2159   -3.5847 C   0  0  0  0  0  0  0  0  0  0  0  0
    2.1418    1.8218   -3.6718 C   0  0  0  0  0  0  0  0  0  0  0  0
    1.7569    3.3174   -1.1614 C   0  0  0  0  0  0  0  0  0  0  0  0
   -0.3475    2.5277   -2.2845 C   0  0  0  0  0  0  0  0  0  0  0  0
    1.7498    1.1285   -2.3572 C   0  0  0  0  0  0  0  0  0  0  0  0
    0.8932    4.4528   -3.2375 C   0  0  0  0  0  0  0  0  0  0  0  0
    2.9718    3.0731   -3.3538 C   0  0  0  0  0  0  0  0  0  0  0  0
    0.8680    2.2251   -4.4259 C   0  0  0  0  0  0  0  0  0  0  0  0
    0.4296    1.3771   -0.0985 C   0  0  0  0  0  0  0  0  0  0  0  0
   -1.0938    1.3043    0.0978 C   0  0  0  0  0  0  0  0  0  0  0  0
  1 12  1  0
  2  6  1  0
  2  7  1  0
  2  8  1  0
  2 12  1  0
  3  6  1  0
  3  9  1  0
  3 10  1  0
  4  7  1  0
  4  9  1  0
  4 11  1  0
  5  8  1  0
  5 10  1  0
  5 11  1  0
 12 13  1  0
M  END
>  <DRUGBANK_ID>  (1) 
DB00478

>  <SECONDARY_ACCESSION_NUMBERS>  (1) 
APRD01219

>  <COMMON_NAME>  (1) 
Rimantadine

>  <CAS_NUMBER>  (1) 
13392-28-4

>  <UNII>  (1) 
0T2EF4JQTU

>  <SYNONYMS>  (1) 
alpha-Methyl-1-adamantanemethylamine; alpha-Methyladamantanemethylamine; Rimantadina; Rimantadine; Rimantadinum

$$$$
