
     RDKit          3D

 11 10  0  0  0  0  0  0  0  0999 V2000
    0.4859    0.0358    1.2495 C   0  0  0  0  0  0  0  0  0  0  0  0
    2.0473   -0.3568   -0.9690 C   0  0  0  0  0  0  0  0  0  0  0  0
    0.7569    2.4800   -0.2869 C   0  0  0  0  0  0  0  0  0  0  0  0
   -0.6755   -0.3308   -1.7704 C   0  0  0  0  0  0  0  0  0  0  0  0
    0.5062    2.3722   -1.8702 C   0  0  0  0  0  0  0  0  0  0  0  0
   -1.3541    1.0550   -1.6296 C   0  0  0  0  0  0  0  0  0  0  0  0
    0.2243    1.5460    1.0150 C   0  0  0  0  0  0  0  0  0  0  0  0
    0.8914   -0.6540   -1.9706 C   0  0  0  0  0  0  0  0  0  0  0  0
   -1.1746    1.6845    1.3066 O   0  0  0  0  0  0  0  0  0  0  0  0
    0.9498   -2.0959   -2.0913 O   0  0  0  0  0  0  0  0  0  0  0  0
   -0.7919    2.0973   -2.3708 O   0  0  0  0  0  0  0  0  0  0  0  0
  5  3  1  0
  6  4  1  0
  7  1  1  0
  7  3  1  0
  8  2  1  0
  8  4  1  0
  9  7  1  0
 10  8  1  0
 11  5  1  0
 11  6  1  0
M  END
>  <DRUGBANK_ID>  (1) 
DB14079

>  <COMMON_NAME>  (1) 
Hydroxybutyloxide

>  <CAS_NUMBER>  (1) 
821-33-0

>  <UNII>  (1) 
CR6X2Y7NRR

>  <SYNONYMS>  (1) 
4,4'-Oxydi-2-butanol; bis(3-hydroxybutyl) ether; Colenormol; Dihydroxydibutylether; Diskin; Dyskinebyl

$$$$
