
     RDKit          3D

 12 11  0  0  0  0  0  0  0  0999 V2000
    0.9201    0.0527   -0.0277 C   0  0  0  0  0  0  0  0  0  0  0  0
    2.9500   -0.6128    6.0272 C   0  0  0  0  0  0  0  0  0  0  0  0
    0.6943   -1.3232    0.5778 C   0  0  0  0  0  0  0  0  0  0  0  0
    3.3936   -1.9837    6.5008 C   0  0  0  0  0  0  0  0  0  0  0  0
    2.7394   -1.8963    1.8782 C   0  0  0  0  0  0  0  0  0  0  0  0
    5.6276   -2.1017    5.4015 C   0  0  0  0  0  0  0  0  0  0  0  0
    1.4223   -1.5049    1.8250 O   0  0  0  0  0  0  0  0  0  0  0  0
    4.8187   -2.0923    6.4988 O   0  0  0  0  0  0  0  0  0  0  0  0
    3.7678   -1.7235    0.5627 S   0  0  0  0  0  0  0  0  0  0  0  0
    7.2553   -2.0787    5.8201 S   0  0  0  0  0  0  0  0  0  0  0  0
    3.2389   -2.7054    3.3804 S   0  0  0  0  0  0  0  0  0  0  0  0
    5.1828   -2.0846    3.6978 S   0  0  0  0  0  0  0  0  0  0  0  0
  3  1  1  0
  4  2  1  0
  7  3  1  0
  7  5  1  0
  8  4  1  0
  8  6  1  0
  9  5  2  0
 10  6  2  0
 11  5  1  0
 12  6  1  0
 12 11  1  0
M  END
>  <DRUGBANK_ID>  (1) 
DB13712

>  <COMMON_NAME>  (1) 
Dixanthogen

>  <CAS_NUMBER>  (1) 
502-55-6

>  <UNII>  (1) 
RN4CQ46FDM

>  <SYNONYMS>  (1) 
Dixanthogen

$$$$
