
     RDKit          3D

 22 25  0  0  0  0  0  0  0  0999 V2000
   -3.6739    0.7188    0.1970 C   0  0  0  0  0  0  0  0  0  0  0  0
   -3.6363   -0.6417   -0.4747 C   0  0  0  0  0  0  0  0  0  0  0  0
   -2.5003   -1.4840    0.1081 C   0  0  0  0  0  0  0  0  0  0  0  0
   -1.1459   -0.7939    0.0601 C   0  0  0  0  0  0  0  0  0  0  0  0
   -1.1155    0.6076    0.0691 C   0  0  0  0  0  0  0  0  0  0  0  0
   -2.3614    1.4557   -0.0346 C   0  0  0  0  0  0  0  0  0  0  0  0
    0.0364    1.3122    0.0536 N   0  0  0  0  0  0  0  0  0  0  0  0
    1.2065    0.6752    0.0246 C   0  0  0  0  0  0  0  0  0  0  0  0
    2.3511    1.4703   -0.0425 C   0  0  0  0  0  0  0  0  0  0  0  0
    3.6452    0.9605   -0.1161 C   0  0  0  0  0  0  0  0  0  0  0  0
    3.8131   -0.3978   -0.0843 C   0  0  0  0  0  0  0  0  0  0  0  0
    2.6847   -1.1960    0.0167 C   0  0  0  0  0  0  0  0  0  0  0  0
    1.3313   -0.7371    0.0364 C   0  0  0  0  0  0  0  0  0  0  0  0
    0.0968   -1.5037    0.0601 C   0  0  0  0  0  0  0  0  0  0  0  0
    0.0317   -2.8995   -0.0537 N   0  0  0  0  0  0  0  0  0  0  0  0
    1.0929   -3.8810    0.0007 C   0  0  0  0  0  0  0  0  0  0  0  0
    1.1766   -4.6278    1.3016 C   0  0  0  0  0  0  0  0  0  0  0  0
    0.4187   -4.2780    2.4229 C   0  0  0  0  0  0  0  0  0  0  0  0
    0.4093   -5.0990    3.5443 C   0  0  0  0  0  0  0  0  0  0  0  0
    1.1875   -6.2547    3.5659 C   0  0  0  0  0  0  0  0  0  0  0  0
    2.0298   -6.5541    2.4974 C   0  0  0  0  0  0  0  0  0  0  0  0
    2.0611   -5.7151    1.3889 C   0  0  0  0  0  0  0  0  0  0  0  0
  1  2  1  0
  1  6  1  0
  2  3  1  0
  3  4  1  0
  4  5  2  0
  4 14  1  0
  5  6  1  0
  5  7  1  0
  7  8  2  0
  8  9  1  0
  8 13  1  0
  9 10  2  0
 10 11  1  0
 11 12  2  0
 12 13  1  0
 13 14  2  0
 14 15  1  0
 15 16  1  0
 16 17  1  0
 17 18  2  0
 17 22  1  0
 18 19  1  0
 19 20  2  0
 20 21  1  0
 21 22  2  0
M  END
>  <DRUGBANK_ID>  (1) 
DB03672

>  <SECONDARY_ACCESSION_NUMBERS>  (1) 
EXPT00297

>  <COMMON_NAME>  (1) 
9-N-Phenylmethylamino-Tacrine

$$$$
