
     RDKit          3D

 31 32  0  0  0  0  0  0  0  0999 V2000
    0.8932    0.0922    0.0728 S   0  0  0  0  0  0  0  0  0  0  0  0
    0.4095    1.8899   -0.7601 S   0  0  0  0  0  0  0  0  0  0  0  0
    3.3691   -4.1348   -1.8330 O   0  0  0  0  0  0  0  0  0  0  0  0
    7.0319   -1.9877    4.3487 O   0  0  0  0  0  0  0  0  0  0  0  0
   10.2914   -4.3504    6.1455 O   0  0  0  0  0  0  0  0  0  0  0  0
    8.2035   -4.1088    5.3807 O   0  0  0  0  0  0  0  0  0  0  0  0
   -1.9563   -2.6913   -0.3681 O   0  0  0  0  0  0  0  0  0  0  0  0
    7.1133   -2.5593    2.1703 N   0  0  0  0  0  0  0  0  0  0  0  0
    2.9407   -2.4575   -0.4353 N   0  0  0  0  0  0  0  0  0  0  0  0
    9.7403   -1.3019    2.4586 N   0  0  0  0  0  0  0  0  0  0  0  0
   11.3424   -2.7812    4.2747 N   0  0  0  0  0  0  0  0  0  0  0  0
   -1.6286   -0.6601   -1.2699 N   0  0  0  0  0  0  0  0  0  0  0  0
    5.3574   -3.1132   -0.9732 C   0  0  0  0  0  0  0  0  0  0  0  0
    7.7128   -2.6840    0.8279 C   0  0  0  0  0  0  0  0  0  0  0  0
    5.8969   -4.2399   -0.0814 C   0  0  0  0  0  0  0  0  0  0  0  0
    5.8077   -1.7788   -0.4242 C   0  0  0  0  0  0  0  0  0  0  0  0
    7.3854   -4.0475    0.2217 C   0  0  0  0  0  0  0  0  0  0  0  0
    7.2562   -1.5573   -0.1062 C   0  0  0  0  0  0  0  0  0  0  0  0
    3.8309   -3.2406   -1.1148 C   0  0  0  0  0  0  0  0  0  0  0  0
    7.7161   -2.2289    3.3604 C   0  0  0  0  0  0  0  0  0  0  0  0
    3.0750   -1.3210    0.4816 C   0  0  0  0  0  0  0  0  0  0  0  0
    9.1908   -2.1320    3.4071 C   0  0  0  0  0  0  0  0  0  0  0  0
    2.6665    0.0253   -0.0793 C   0  0  0  0  0  0  0  0  0  0  0  0
    9.9664   -2.8514    4.3082 C   0  0  0  0  0  0  0  0  0  0  0  0
   11.0827   -1.2530    2.4150 C   0  0  0  0  0  0  0  0  0  0  0  0
    9.3671   -3.7990    5.3111 C   0  0  0  0  0  0  0  0  0  0  0  0
   11.8631   -1.9716    3.3049 C   0  0  0  0  0  0  0  0  0  0  0  0
   -1.4150    1.7834   -0.7640 C   0  0  0  0  0  0  0  0  0  0  0  0
   -1.9687    0.6908   -1.6867 C   0  0  0  0  0  0  0  0  0  0  0  0
   -2.4379   -1.6511   -0.8085 C   0  0  0  0  0  0  0  0  0  0  0  0
   -3.9141   -1.4083   -0.8777 C   0  0  0  0  0  0  0  0  0  0  0  0
  1  2  1  0
  1 23  1  0
  2 28  1  0
  3 19  2  0
  4 20  2  0
  5 26  1  0
  6 26  2  0
  7 30  2  0
  8 14  1  0
  8 20  1  0
  9 19  1  0
  9 21  1  0
 10 22  2  0
 10 25  1  0
 11 24  2  0
 11 27  1  0
 12 29  1  0
 12 30  1  0
 13 15  1  0
 13 16  1  0
 13 19  1  0
 14 17  1  0
 14 18  1  0
 15 17  1  0
 16 18  1  0
 20 22  1  0
 21 23  1  0
 22 24  1  0
 24 26  1  0
 25 27  2  0
 28 29  1  0
 30 31  1  0
M  END
>  <DRUGBANK_ID>  (1) 
DB02620

>  <SECONDARY_ACCESSION_NUMBERS>  (1) 
EXPT00344

>  <COMMON_NAME>  (1) 
3-(4-{2-[2-(2-bromo-acetylamino)-ethyldisulfanyl]-ethylcarbamoyl}-cyclohexylcarbamoyl)-pyrazine-2-carboxylic acid

$$$$
