1619
     RDKit          3D

 20 23  0  0  1  0  0  0  0  0999 V2000
   -3.5220   -0.1117   -0.0999 N   0  0  0  0  0  0  0  0  0  0  0  0
    0.0309   -1.8648    0.0005 C   0  0  0  0  0  0  0  0  0  0  0  0
   -1.1101   -0.8450    0.0136 C   0  0  0  0  0  0  0  0  0  0  0  0
   -0.6749    0.4241   -0.0086 C   0  0  0  0  0  0  0  0  0  0  0  0
   -2.5496   -1.1998    0.0292 C   0  0  0  0  0  0  0  0  0  0  0  0
    1.2190   -0.9110   -0.0686 C   0  0  0  0  0  0  0  0  0  0  0  0
   -1.5441    1.6061   -0.0179 C   0  0  0  0  0  0  0  0  0  0  0  0
    0.7700    0.4165   -0.0375 C   0  0  0  0  0  0  0  0  0  0  0  0
   -3.0450    1.2757   -0.0242 C   0  0  0  0  0  0  0  0  0  0  0  0
   -0.0085   -2.7947    1.2095 C   0  0  0  0  0  0  0  0  0  0  0  0
    2.5790   -1.1897   -0.1063 C   0  0  0  0  0  0  0  0  0  0  0  0
    1.6558    1.4813   -0.0210 C   0  0  0  0  0  0  0  0  0  0  0  0
   -4.3774   -0.3156   -1.2600 C   0  0  0  0  0  0  0  0  0  0  0  0
   -1.1074   -3.6490    1.4088 C   0  0  0  0  0  0  0  0  0  0  0  0
    1.0019   -2.8095    2.1819 C   0  0  0  0  0  0  0  0  0  0  0  0
    3.4807   -0.1228   -0.0549 C   0  0  0  0  0  0  0  0  0  0  0  0
    3.0224    1.2031   -0.0202 C   0  0  0  0  0  0  0  0  0  0  0  0
   -1.2727   -4.3335    2.6130 C   0  0  0  0  0  0  0  0  0  0  0  0
    0.9099   -3.6135    3.3135 C   0  0  0  0  0  0  0  0  0  0  0  0
   -0.2582   -4.3195    3.5631 C   0  0  0  0  0  0  0  0  0  0  0  0
  1  5  1  0
  1  9  1  0
  1 13  1  0
  2  3  1  0
  2  6  1  0
  2 10  1  0
  3  4  2  0
  3  5  1  0
  4  7  1  0
  4  8  1  0
  6  8  2  0
  6 11  1  0
  7  9  1  0
  8 12  1  0
 10 14  2  0
 10 15  1  0
 11 16  2  0
 12 17  2  0
 14 18  1  0
 15 19  2  0
 16 17  1  0
 18 20  2  0
 19 20  1  0
M  END
>  <DRUGBANK_ID>  (1) 
DB01619

>  <COMMON_NAME>  (1) 
Phenindamine

>  <CAS_NUMBER>  (1) 
82-88-2

>  <UNII>  (1) 
772BQ8KSST

>  <SYNONYMS>  (1) 
Fenindamina; Phenindamine; Phenindaminum; Thephorin

$$$$
