
     RDKit          3D

 40 45  0  0  1  0  0  0  0  0999 V2000
    1.1452   -0.2453   -0.1735 O   0  0  0  0  0  0  0  0  0  0  0  0
    4.4974   -1.1443   -3.3961 O   0  0  0  0  0  0  0  0  0  0  0  0
    3.1250    0.1280   -1.0954 N   0  0  0  0  0  0  0  0  0  0  0  0
    4.4986   -5.9314    2.7075 N   0  0  0  0  0  0  0  0  0  0  0  0
    2.4285   -6.8307    3.6426 N   0  0  0  0  0  0  0  0  0  0  0  0
    2.6324    0.9832    2.3455 C   0  0  0  0  0  0  0  0  0  0  0  0
    1.1797    1.4689    2.3147 C   0  0  0  0  0  0  0  0  0  0  0  0
    3.3504    2.2555    1.9541 C   0  0  0  0  0  0  0  0  0  0  0  0
    3.0146   -0.1892    1.4087 C   0  0  1  0  0  0  0  0  0  0  0  0
    1.2153    2.9045    2.8192 C   0  0  0  0  0  0  0  0  0  0  0  0
    2.6586    3.3691    2.7009 C   0  0  0  0  0  0  0  0  0  0  0  0
    2.7612   -1.5409    2.0344 C   0  0  0  0  0  0  0  0  0  0  0  0
    2.3670   -0.1133    0.0093 C   0  0  0  0  0  0  0  0  0  0  0  0
    3.5748   -2.6335    1.6848 C   0  0  0  0  0  0  0  0  0  0  0  0
    1.6995   -1.7237    2.9286 C   0  0  0  0  0  0  0  0  0  0  0  0
    3.2104   -3.9138    2.0913 C   0  0  0  0  0  0  0  0  0  0  0  0
    4.5849    0.1274   -1.2553 C   0  0  1  0  0  0  0  0  0  0  0  0
    3.9284   -5.1534    1.6100 C   0  0  0  0  0  0  0  0  0  0  0  0
    1.4164   -2.9558    3.4461 C   0  0  0  0  0  0  0  0  0  0  0  0
    2.0941   -4.0306    2.9276 C   0  0  0  0  0  0  0  0  0  0  0  0
    5.8532   -6.0464    2.9810 C   0  0  0  0  0  0  0  0  0  0  0  0
    3.7655   -6.6301    3.6512 C   0  0  0  0  0  0  0  0  0  0  0  0
    5.0124   -1.1221   -2.0629 C   0  0  0  0  0  0  0  0  0  0  0  0
    5.0399    1.4587   -1.8246 C   0  0  0  0  0  0  0  0  0  0  0  0
    4.6345   -7.0205    4.6553 C   0  0  0  0  0  0  0  0  0  0  0  0
    5.9565   -6.7129    4.2075 C   0  0  0  0  0  0  0  0  0  0  0  0
    4.0712   -7.6276    5.7988 C   0  0  0  0  0  0  0  0  0  0  0  0
    6.9943   -5.6181    2.2762 C   0  0  0  0  0  0  0  0  0  0  0  0
    7.2398   -6.9462    4.7446 C   0  0  0  0  0  0  0  0  0  0  0  0
    4.8302    2.6364   -1.1028 C   0  0  0  0  0  0  0  0  0  0  0  0
    5.6585    1.5951   -3.0626 C   0  0  0  0  0  0  0  0  0  0  0  0
    2.6725   -7.7007    5.8715 C   0  0  0  0  0  0  0  0  0  0  0  0
    1.9009   -7.2803    4.8009 C   0  0  0  0  0  0  0  0  0  0  0  0
    8.2527   -5.8855    2.8257 C   0  0  0  0  0  0  0  0  0  0  0  0
    8.3763   -6.5393    4.0447 C   0  0  0  0  0  0  0  0  0  0  0  0
    4.9001   -8.1724    6.9150 C   0  0  0  0  0  0  0  0  0  0  0  0
    4.9330    3.8961   -1.6768 C   0  0  0  0  0  0  0  0  0  0  0  0
    5.9234    2.8574   -3.5921 C   0  0  0  0  0  0  0  0  0  0  0  0
    0.3981   -7.2716    4.9244 C   0  0  0  0  0  0  0  0  0  0  0  0
    5.4781    4.0036   -2.9413 C   0  0  0  0  0  0  0  0  0  0  0  0
  1 13  2  0
  2 23  1  0
  3 13  1  0
  4 18  1  0
  4 21  1  0
  4 22  1  0
  5 22  2  0
  5 33  1  0
  6  7  1  0
  6  8  1  0
  6  9  1  0
  7 10  1  0
  8 11  1  0
  9 12  1  0
  9 13  1  6
 10 11  1  0
 12 14  2  0
 12 15  1  0
 14 16  1  0
 15 19  2  0
 16 18  1  0
 16 20  2  0
 17  3  1  0
 17 23  1  6
 17 24  1  0
 19 20  1  0
 21 26  2  0
 21 28  1  0
 22 25  1  0
 24 30  2  0
 24 31  1  0
 25 26  1  0
 25 27  2  0
 26 29  1  0
 27 32  1  0
 27 36  1  0
 28 34  2  0
 29 35  2  0
 30 37  1  0
 31 38  2  0
 32 33  2  0
 33 39  1  0
 34 35  1  0
 37 40  2  0
 38 40  1  0
M  END
>  <DRUGBANK_ID>  (1) 
DB04852

>  <COMMON_NAME>  (1) 
Implitapide

>  <CAS_NUMBER>  (1) 
177469-96-4

>  <UNII>  (1) 
Q70OH404HR

>  <SYNONYMS>  (1) 
Implitapide

$$$$
