
     RDKit          3D

 11 11  0  0  0  0  0  0  0  0999 V2000
    0.7327    1.2169   -0.2213 C   0  0  0  0  0  0  0  0  0  0  0  0
    1.3972   -0.0988    0.1082 C   0  0  0  0  0  0  0  0  0  0  0  0
   -0.7324    1.2221    0.2568 C   0  0  0  0  0  0  0  0  0  0  0  0
    0.6887   -1.1949   -0.3131 N   0  0  0  0  0  0  0  0  0  0  0  0
    2.4668   -0.1846    0.6973 O   0  0  0  0  0  0  0  0  0  0  0  0
   -1.4173   -0.0640   -0.2348 C   0  0  0  0  0  0  0  0  0  0  0  0
   -0.6041   -1.2702    0.1304 C   0  0  0  0  0  0  0  0  0  0  0  0
   -1.0515   -2.2225    0.7618 O   0  0  0  0  0  0  0  0  0  0  0  0
   -0.7656    1.2682    1.8019 C   0  0  0  0  0  0  0  0  0  0  0  0
   -1.4938    2.4445   -0.3102 C   0  0  0  0  0  0  0  0  0  0  0  0
   -1.5407    2.4874   -1.8372 C   0  0  0  0  0  0  0  0  0  0  0  0
  1  2  1  0
  1  3  1  0
  2  4  1  0
  2  5  2  0
  3  6  1  0
  3  9  1  0
  3 10  1  0
  4  7  1  0
  6  7  1  0
  7  8  2  0
 10 11  1  0
M  END
>  <DRUGBANK_ID>  (1) 
DB13740

>  <COMMON_NAME>  (1) 
Bemegride

>  <CAS_NUMBER>  (1) 
64-65-3

>  <UNII>  (1) 
57DQA39DO2

>  <SYNONYMS>  (1) 
Bemegrida; Bemegride; Bemegridum

$$$$
