
     RDKit          3D

 33 37  0  0  0  0  0  0  0  0999 V2000
    1.1920   -0.0379   -0.1370 C   0  0  0  0  0  0  0  0  0  0  0  0
    0.5512   -1.3432   -0.6206 C   0  0  0  0  0  0  0  0  0  0  0  0
    1.1868   -2.3323    0.3415 C   0  0  0  0  0  0  0  0  0  0  0  0
   -0.9140   -1.3307   -0.7190 N   0  0  0  0  0  0  0  0  0  0  0  0
   -1.7055   -2.4302   -0.9612 C   0  0  0  0  0  0  0  0  0  0  0  0
   -2.9753   -2.0860   -0.9824 N   0  0  0  0  0  0  0  0  0  0  0  0
   -3.0445   -0.7475   -0.7152 N   0  0  0  0  0  0  0  0  0  0  0  0
   -1.8146   -0.2655   -0.6729 C   0  0  0  0  0  0  0  0  0  0  0  0
   -1.4879    1.1552   -0.6861 C   0  0  0  0  0  0  0  0  0  0  0  0
   -0.7293    1.6811   -1.7067 C   0  0  0  0  0  0  0  0  0  0  0  0
   -0.1843    2.9460   -1.5294 C   0  0  0  0  0  0  0  0  0  0  0  0
   -0.4997    3.6851   -0.3859 C   0  0  0  0  0  0  0  0  0  0  0  0
   -1.3460    3.1174    0.5595 C   0  0  0  0  0  0  0  0  0  0  0  0
   -1.6655    3.8295    1.7249 N   0  0  0  0  0  0  0  0  0  0  0  0
   -2.4599    3.4332    2.8030 C   0  0  0  0  0  0  0  0  0  0  0  0
   -2.7478    4.2468    3.6581 O   0  0  0  0  0  0  0  0  0  0  0  0
   -2.9348    2.0220    2.9389 C   0  0  0  0  0  0  0  0  0  0  0  0
   -2.0574    0.9325    2.8595 C   0  0  0  0  0  0  0  0  0  0  0  0
   -2.5743   -0.3808    2.7535 C   0  0  0  0  0  0  0  0  0  0  0  0
   -1.6871   -1.4612    2.6525 N   0  0  0  0  0  0  0  0  0  0  0  0
   -1.8278   -2.5934    1.8993 C   0  0  0  0  0  0  0  0  0  0  0  0
   -0.8498   -3.4478    2.0304 N   0  0  0  0  0  0  0  0  0  0  0  0
   -0.0583   -2.8582    2.9561 C   0  0  0  0  0  0  0  0  0  0  0  0
   -0.5439   -1.6379    3.3683 C   0  0  0  0  0  0  0  0  0  0  0  0
    1.3127   -3.3742    3.2808 C   0  0  0  0  0  0  0  0  0  0  0  0
    1.4607   -3.9299    4.6525 C   0  0  0  0  0  0  0  0  0  0  0  0
    2.1446   -2.6359    4.2906 C   0  0  0  0  0  0  0  0  0  0  0  0
   -3.9524   -0.6320    2.7815 C   0  0  0  0  0  0  0  0  0  0  0  0
   -4.6115   -1.9808    2.6420 C   0  0  0  0  0  0  0  0  0  0  0  0
   -4.7876    0.4589    3.0419 C   0  0  0  0  0  0  0  0  0  0  0  0
   -4.2892    1.7644    3.1248 C   0  0  0  0  0  0  0  0  0  0  0  0
   -5.1618    2.7502    3.3718 F   0  0  0  0  0  0  0  0  0  0  0  0
   -1.8293    1.8731    0.3994 N   0  0  0  0  0  0  0  0  0  0  0  0
  1  2  1  0
  2  3  1  0
  2  4  1  0
  4  5  1  0
  4  8  1  0
  5  6  2  0
  6  7  1  0
  7  8  2  0
  8  9  1  0
  9 10  2  0
  9 33  1  0
 10 11  1  0
 11 12  2  0
 12 13  1  0
 13 14  1  0
 13 33  2  0
 14 15  1  0
 15 16  2  0
 15 17  1  0
 17 18  2  0
 17 31  1  0
 18 19  1  0
 19 20  1  0
 19 28  2  0
 20 21  1  0
 20 24  1  0
 21 22  2  0
 22 23  1  0
 23 24  2  0
 23 25  1  0
 25 26  1  0
 25 27  1  0
 26 27  1  0
 28 29  1  0
 28 30  1  0
 30 31  2  0
 31 32  1  0
M  END
>  <DRUGBANK_ID>  (1) 
DB14916

>  <COMMON_NAME>  (1) 
Selonsertib

>  <CAS_NUMBER>  (1) 
1448428-04-3

>  <UNII>  (1) 
NS3988A2TC

>  <SYNONYMS>  (1) 
5-(4-Cyclopropyl-1H-imidazol-1-yl)-2-fluoro-4-methyl-N-{6-[4-(propan-2-yl)-4H-1,2,4-triazol-3-yl]pyridin-2-yl}benzamide; 5-(4-Cyclopropyl-1H-imidazol-l-yl)-2-fluoro-N-(6-(4-isopropyl-4H-1,2,4-triazol-3-yl)pyridin-2-yl)-4-methylbenzamide; BENZAMIDE, 5-(4-CYCLOPROPYL-1H-IMIDAZOL-1-YL)-2-FLUORO-4-METHYL-N-(6-(4-(1-METHYLETHYL)-4H-1,2,4-TRIAZOL-3-YL)-2-PYRIDINYL); Selonsertib

$$$$
