
     RDKit          3D

 20 20  0  0  1  0  0  0  0  0999 V2000
    0.0046   -2.8622    2.3064 C   0  0  0  0  0  0  0  0  0  0  0  0
    0.6357   -3.4468    1.2021 C   0  0  0  0  0  0  0  0  0  0  0  0
    0.8782   -4.8340    1.2116 C   0  0  0  0  0  0  0  0  0  0  0  0
   -0.3613   -3.6250    3.4032 C   0  0  0  0  0  0  0  0  0  0  0  0
    0.5410   -5.6056    2.3171 C   0  0  0  0  0  0  0  0  0  0  0  0
   -0.0220   -4.9768    3.4317 C   0  0  0  0  0  0  0  0  0  0  0  0
    1.0227   -2.6495   -0.0216 C   0  0  2  0  0  0  0  0  0  0  0  0
    0.3244   -1.2534   -0.1500 C   0  0  2  0  0  0  0  0  0  0  0  0
    0.5924   -3.4856   -1.1236 O   0  0  0  0  0  0  0  0  0  0  0  0
    0.0726   -0.9188   -1.5519 N   0  0  0  0  0  0  0  0  0  0  0  0
    0.9163   -0.0443    0.6221 C   0  0  0  0  0  0  0  0  0  0  0  0
    1.0743   -1.0272   -2.5092 C   0  0  0  0  0  0  0  0  0  0  0  0
    2.3271    0.0019    0.7042 O   0  0  0  0  0  0  0  0  0  0  0  0
   -0.1211   -5.7042    4.6943 N   0  0  0  0  0  0  0  0  0  0  0  0
    0.6011   -0.8109   -3.9385 C   0  0  0  0  0  0  0  0  0  0  0  0
    2.2363   -1.3023   -2.2112 O   0  0  0  0  0  0  0  0  0  0  0  0
   -0.5540   -5.0789    5.6792 O   0  0  0  0  0  0  0  0  0  0  0  0
    0.2769   -6.8710    4.7211 O   0  0  0  0  0  0  0  0  0  0  0  0
    1.5146    0.5308   -4.6376 Cl  0  0  0  0  0  0  0  0  0  0  0  0
    0.8042   -2.3087   -4.8615 Cl  0  0  0  0  0  0  0  0  0  0  0  0
  1  4  2  0
  2  1  1  0
  2  3  2  0
  3  5  1  0
  4  6  1  0
  5  6  2  0
  6 14  1  0
  7  9  1  6
  7  8  1  0
  7  2  1  0
  8 11  1  6
  8 10  1  0
 10 12  1  0
 11 13  1  0
 12 15  1  0
 12 16  2  0
 14 17  1  0
 14 18  2  0
 15 19  1  0
 15 20  1  0
M  CHG  2  14   1  17  -1
M  END
>  <DRUGBANK_ID>  (1) 
DB00446

>  <SECONDARY_ACCESSION_NUMBERS>  (1) 
APRD00862; EXPT00942

>  <COMMON_NAME>  (1) 
Chloramphenicol

>  <CAS_NUMBER>  (1) 
56-75-7

>  <UNII>  (1) 
66974FR9Q1

>  <SYNONYMS>  (1) 
Chloramphénicol; Chloramphenicol; Chloramphenicolum; Chlornitromycin; Cloramfenicol; Cloranfenicol; D-(−)-2,2-dichloro-N-(β-hydroxy-α-(hydroxymethyl)-p-nitrophenylethyl)acetamide; D-(−)-threo-1-p-nitrophenyl-2-dichloroacetylamino-1,3-propanediol; Laevomycetinum; Levomicetina; Levomycetin

$$$$
