
     RDKit          3D

 11 10  0  0  0  0  0  0  0  0999 V2000
    1.2004    0.2735   -0.1984 C   0  0  0  0  0  0  0  0  0  0  0  0
    0.4254   -0.1691   -1.2313 N   0  0  0  0  0  0  0  0  0  0  0  0
   -1.0362   -0.2172   -1.2850 C   0  0  0  0  0  0  0  0  0  0  0  0
   -1.6023   -1.2815   -0.3512 C   0  0  0  0  0  0  0  0  0  0  0  0
   -1.2863   -0.9911    1.1037 C   0  0  0  0  0  0  0  0  0  0  0  0
    0.8131    0.7980    0.8527 O   0  0  0  0  0  0  0  0  0  0  0  0
    1.0316   -0.6596   -2.4020 O   0  0  0  0  0  0  0  0  0  0  0  0
   -2.2358    0.3355    1.8185 P   0  0  0  0  0  0  0  0  0  0  0  0
   -3.6929    0.1536    1.5619 O   0  0  0  0  0  0  0  0  0  0  0  0
   -1.8277    0.2079    3.3640 O   0  0  0  0  0  0  0  0  0  0  0  0
   -1.8418    1.8502    1.5035 O   0  0  0  0  0  0  0  0  0  0  0  0
  1  6  2  0
  1  2  1  0
  2  7  1  0
  2  3  1  0
  3  4  1  0
  4  5  1  0
  5  8  1  0
  8  9  2  0
  8 10  1  0
  8 11  1  0
M  END
>  <DRUGBANK_ID>  (1) 
DB02948

>  <SECONDARY_ACCESSION_NUMBERS>  (1) 
EXPT01469

>  <COMMON_NAME>  (1) 
Fosmidomycin

>  <CAS_NUMBER>  (1) 
66508-53-0

>  <UNII>  (1) 
5829E3D9I9

>  <SYNONYMS>  (1) 
Fosmidomycin; Fosmidomycina; Fosmidomycine; Fosmidomycinum

$$$$
