
     RDKit          3D

 21 22  0  0  0  0  0  0  0  0999 V2000
    0.9661   -0.0205    0.0258 C   0  0  0  0  0  0  0  0  0  0  0  0
    0.5639    1.3695   -0.4848 C   0  0  0  0  0  0  0  0  0  0  0  0
    1.1004    1.5042   -1.9177 C   0  0  0  0  0  0  0  0  0  0  0  0
    0.3929    0.6638   -3.0656 C   0  0  0  0  0  0  0  0  0  0  0  0
   -1.1474    0.5507   -3.2441 C   0  0  0  0  0  0  0  0  0  0  0  0
   -1.7833   -0.6561   -2.8978 C   0  0  0  0  0  0  0  0  0  0  0  0
   -3.1720   -0.7112   -2.7493 C   0  0  0  0  0  0  0  0  0  0  0  0
   -3.9558    0.4219   -2.8923 C   0  0  0  0  0  0  0  0  0  0  0  0
   -3.3631    1.5845   -3.3846 C   0  0  0  0  0  0  0  0  0  0  0  0
   -2.0034    1.5773   -3.6808 C   0  0  0  0  0  0  0  0  0  0  0  0
    1.0312    1.0613   -4.3787 C   0  0  0  0  0  0  0  0  0  0  0  0
    1.0220    2.3964   -4.8111 C   0  0  0  0  0  0  0  0  0  0  0  0
    1.5239    2.7416   -6.0534 C   0  0  0  0  0  0  0  0  0  0  0  0
    2.0904    1.7550   -6.8465 C   0  0  0  0  0  0  0  0  0  0  0  0
    2.1522    0.4319   -6.4068 C   0  0  0  0  0  0  0  0  0  0  0  0
    1.5929    0.0747   -5.1855 C   0  0  0  0  0  0  0  0  0  0  0  0
   -0.8690    1.6141   -0.3181 N   0  0  0  0  0  0  0  0  0  0  0  0
   -1.3930    2.9762   -0.5928 C   0  0  0  0  0  0  0  0  0  0  0  0
   -0.9438    3.6622   -1.8908 C   0  0  0  0  0  0  0  0  0  0  0  0
   -2.9321    2.8890   -0.4919 C   0  0  0  0  0  0  0  0  0  0  0  0
   -0.9232    3.9697    0.4576 C   0  0  0  0  0  0  0  0  0  0  0  0
  1  2  1  0
  2  3  1  0
  2 17  1  0
  3  4  1  0
  4  5  1  0
  4 11  1  0
  5  6  2  0
  5 10  1  0
  6  7  1  0
  7  8  2  0
  8  9  1  0
  9 10  2  0
 11 12  2  0
 11 16  1  0
 12 13  1  0
 13 14  2  0
 14 15  1  0
 15 16  2  0
 17 18  1  0
 18 19  1  0
 18 20  1  0
 18 21  1  0
M  END
>  <DRUGBANK_ID>  (1) 
DB13725

>  <COMMON_NAME>  (1) 
Terodiline

>  <CAS_NUMBER>  (1) 
15793-40-5

>  <UNII>  (1) 
70KG06964W

>  <SYNONYMS>  (1) 
Terodiline

$$$$
