
     RDKit          3D

 20 20  0  0  0  0  0  0  0  0999 V2000
    0.7941    0.3594   -0.0563 O   0  0  0  0  0  0  0  0  0  0  0  0
    1.7992   -2.3517    3.9827 O   0  0  0  0  0  0  0  0  0  0  0  0
    2.3177   -1.3004    2.0467 N   0  0  0  0  0  0  0  0  0  0  0  0
    5.3190   -3.3678   -0.7455 N   0  0  0  0  0  0  0  0  0  0  0  0
    2.8802    1.0522   -0.6365 N   0  0  0  0  0  0  0  0  0  0  0  0
    6.2304   -4.5220    1.0528 N   0  0  0  0  0  0  0  0  0  0  0  0
    2.4186   -2.2371   -0.2976 C   0  0  0  0  0  0  0  0  0  0  0  0
    2.6713   -1.0391    0.6073 C   0  0  1  0  0  0  0  0  0  0  0  0
    3.1237   -2.3478   -1.6230 C   0  0  0  0  0  0  0  0  0  0  0  0
    4.6609   -2.2599   -1.4804 C   0  0  0  0  0  0  0  0  0  0  0  0
    2.0257    0.1773   -0.0252 C   0  0  0  0  0  0  0  0  0  0  0  0
    1.9366   -2.4475    2.7635 C   0  0  0  0  0  0  0  0  0  0  0  0
    1.7235   -3.8061    2.1286 C   0  0  0  0  0  0  0  0  0  0  0  0
    2.7856   -4.5798    1.6497 C   0  0  0  0  0  0  0  0  0  0  0  0
    0.4663   -4.3624    1.9714 C   0  0  0  0  0  0  0  0  0  0  0  0
    5.5869   -3.4384    0.5164 C   0  0  0  0  0  0  0  0  0  0  0  0
    2.6176   -5.4920    0.6038 C   0  0  0  0  0  0  0  0  0  0  0  0
    0.3146   -5.5185    1.1755 C   0  0  0  0  0  0  0  0  0  0  0  0
    1.3585   -5.9879    0.3752 C   0  0  0  0  0  0  0  0  0  0  0  0
    5.1518   -2.4716    1.5809 C   0  0  0  0  0  0  0  0  0  0  0  0
  1 11  2  0
  2 12  2  0
  3 12  1  0
  4 10  1  0
  4 16  2  0
  5 11  1  0
  6 16  1  0
  8  7  1  6
  7  9  1  0
  8  3  1  0
  8 11  1  0
  9 10  1  0
 12 13  1  0
 13 14  2  0
 13 15  1  0
 14 17  1  0
 15 18  2  0
 16 20  1  0
 17 19  2  0
 18 19  1  0
M  END
>  <DRUGBANK_ID>  (1) 
DB07449

>  <COMMON_NAME>  (1) 
N-[(1S)-1-(aminocarbonyl)-4-(ethanimidoylamino)butyl]benzamide

$$$$
