
     RDKit          3D

 33 35  0  0  0  0  0  0  0  0999 V2000
   -6.1451    0.5252   -2.8441 N   0  0  0  0  0  0  0  0  0  0  0  0
   -5.3880    0.5345   -1.6457 C   0  0  0  0  0  0  0  0  0  0  0  0
   -6.3668   -0.6684   -3.7540 C   0  0  0  0  0  0  0  0  0  0  0  0
   -3.5136   -0.7956   -0.8164 N   0  0  0  0  0  0  0  0  0  0  0  0
   -4.9683   -0.7629   -0.9774 C   0  0  1  0  0  0  0  0  0  0  0  0
   -1.4826   -2.0853   -0.4189 C   0  0  0  0  0  0  0  0  0  0  0  0
   -7.6516   -0.6381   -4.6600 C   0  0  0  0  0  0  0  0  0  0  0  0
   -6.5238   -2.0070   -3.0199 C   0  0  0  0  0  0  0  0  0  0  0  0
   -2.9976   -2.1000   -0.3607 C   0  0  2  0  0  0  0  0  0  0  0  0
   -8.0301   -2.0955   -4.7921 C   0  0  0  0  0  0  0  0  0  0  0  0
   -7.3893   -2.8549   -3.8320 C   0  0  0  0  0  0  0  0  0  0  0  0
   -6.3984    1.8587   -3.4472 C   0  0  0  0  0  0  0  0  0  0  0  0
   -6.1869    3.1124   -2.5886 C   0  0  0  0  0  0  0  0  0  0  0  0
   -5.0756    1.5665   -1.0417 O   0  0  0  0  0  0  0  0  0  0  0  0
   -0.8429   -1.4211   -1.2139 O   0  0  0  0  0  0  0  0  0  0  0  0
   -5.3406    3.9666   -2.7715 O   0  0  0  0  0  0  0  0  0  0  0  0
   -3.5842   -3.3411   -1.1021 C   0  0  0  0  0  0  0  0  0  0  0  0
   -0.9744   -2.9113    0.5455 O   0  0  0  0  0  0  0  0  0  0  0  0
   -7.0061    3.1402   -1.5074 O   0  0  0  0  0  0  0  0  0  0  0  0
   -3.2117   -4.7090   -0.5338 C   0  0  0  0  0  0  0  0  0  0  0  0
   -3.7248   -4.9692    0.8666 C   0  0  0  0  0  0  0  0  0  0  0  0
   -5.8892   -1.0504    0.2105 C   0  0  0  0  0  0  0  0  0  0  0  0
   -8.8924   -2.7443   -5.6438 C   0  0  0  0  0  0  0  0  0  0  0  0
   -7.5426   -4.2192   -3.6463 C   0  0  0  0  0  0  0  0  0  0  0  0
    0.4516   -2.9643    0.6170 C   0  0  0  0  0  0  0  0  0  0  0  0
   -3.7332   -6.2599    1.3740 C   0  0  0  0  0  0  0  0  0  0  0  0
   -4.1285   -3.9590    1.7463 C   0  0  0  0  0  0  0  0  0  0  0  0
    1.0332   -3.5672   -0.6489 C   0  0  0  0  0  0  0  0  0  0  0  0
   -9.0539   -4.1392   -5.5088 C   0  0  0  0  0  0  0  0  0  0  0  0
   -8.3832   -4.8745   -4.5172 C   0  0  0  0  0  0  0  0  0  0  0  0
   -4.0585   -6.4770    2.7192 C   0  0  0  0  0  0  0  0  0  0  0  0
   -4.2881   -4.1289    3.1061 C   0  0  0  0  0  0  0  0  0  0  0  0
   -4.2984   -5.4113    3.5911 C   0  0  0  0  0  0  0  0  0  0  0  0
  2  1  1  0
  3  1  1  0
  4  5  1  0
  5  2  1  0
  5 22  1  1
  7  3  1  0
  8  3  1  0
  9  4  1  0
  9  6  1  0
 10  7  1  0
 11  8  1  0
 11 10  2  0
 12  1  1  0
 13 12  1  0
 14  2  2  0
 15  6  2  0
 16 13  2  0
  9 17  1  6
 18  6  1  0
 19 13  1  0
 20 17  1  0
 21 20  1  0
 23 10  1  0
 24 11  1  0
 25 18  1  0
 26 21  2  0
 27 21  1  0
 28 25  1  0
 29 23  2  0
 30 24  2  0
 30 29  1  0
 31 26  1  0
 32 27  2  0
 32 33  1  0
 33 31  2  0
M  END
>  <DRUGBANK_ID>  (1) 
DB13312

>  <COMMON_NAME>  (1) 
Delapril

>  <CAS_NUMBER>  (1) 
83435-66-9

>  <UNII>  (1) 
W77UAL9THI

>  <SYNONYMS>  (1) 
Delapril

$$$$
