
     RDKit          3D

 33 36  0  0  0  0  0  0  0  0999 V2000
    0.9278    0.0822    0.1321 C   0  0  0  0  0  0  0  0  0  0  0  0
    0.4115    0.1106    1.5443 C   0  0  0  0  0  0  0  0  0  0  0  0
    0.1795   -1.1028    2.1586 C   0  0  0  0  0  0  0  0  0  0  0  0
   -0.2749   -1.1032    3.4611 C   0  0  0  0  0  0  0  0  0  0  0  0
   -0.5504   -2.2778    4.1302 C   0  0  0  0  0  0  0  0  0  0  0  0
   -0.9930   -2.3360    5.3832 N   0  0  0  0  0  0  0  0  0  0  0  0
   -1.1347   -1.1660    6.0017 C   0  0  0  0  0  0  0  0  0  0  0  0
   -1.6007   -1.0924    7.2933 N   0  0  0  0  0  0  0  0  0  0  0  0
   -1.8513   -2.1496    8.1640 C   0  0  0  0  0  0  0  0  0  0  0  0
   -0.8143   -3.0656    8.3720 C   0  0  0  0  0  0  0  0  0  0  0  0
   -1.0551   -4.2859    8.9835 C   0  0  0  0  0  0  0  0  0  0  0  0
   -2.3055   -4.5570    9.5328 C   0  0  0  0  0  0  0  0  0  0  0  0
   -2.5691   -5.9048   10.0253 C   0  0  0  0  0  0  0  0  0  0  0  0
   -1.8087   -6.6023   10.8509 N   0  0  0  0  0  0  0  0  0  0  0  0
   -2.3430   -7.8648   10.9802 N   0  0  0  0  0  0  0  0  0  0  0  0
   -3.3992   -7.9272   10.2060 C   0  0  0  0  0  0  0  0  0  0  0  0
   -3.5682   -6.7349    9.5728 N   0  0  0  0  0  0  0  0  0  0  0  0
   -4.5299   -6.4605    8.5389 C   0  0  0  0  0  0  0  0  0  0  0  0
   -3.2781   -3.5460    9.5347 C   0  0  0  0  0  0  0  0  0  0  0  0
   -3.0815   -2.3521    8.8183 C   0  0  0  0  0  0  0  0  0  0  0  0
   -4.1949   -1.5421    8.8038 O   0  0  0  0  0  0  0  0  0  0  0  0
   -4.1559   -0.3193    8.0667 C   0  0  0  0  0  0  0  0  0  0  0  0
   -3.2879    0.7185    8.7722 C   0  0  0  0  0  0  0  0  0  0  0  0
   -0.8878    0.0101    5.4368 N   0  0  0  0  0  0  0  0  0  0  0  0
   -0.4781    0.0830    4.1655 C   0  0  0  0  0  0  0  0  0  0  0  0
   -0.2236    1.2891    3.4762 C   0  0  0  0  0  0  0  0  0  0  0  0
   -0.4113    2.5423    4.0503 N   0  0  0  0  0  0  0  0  0  0  0  0
   -0.8661    2.8345    5.4068 C   0  0  0  0  0  0  0  0  0  0  0  0
    0.2159    3.4970    6.2889 C   0  0  0  0  0  0  0  0  0  0  0  0
    0.4676    4.9238    5.7919 C   0  0  0  0  0  0  0  0  0  0  0  0
   -0.2964    3.5576    7.7460 C   0  0  0  0  0  0  0  0  0  0  0  0
    1.5232    2.6878    6.2801 C   0  0  0  0  0  0  0  0  0  0  0  0
    0.2239    1.3006    2.1835 N   0  0  0  0  0  0  0  0  0  0  0  0
  1  2  1  0
  2  3  2  0
  2 33  1  0
  3  4  1  0
  4  5  2  0
  4 25  1  0
  5  6  1  0
  6  7  2  0
  7  8  1  0
  7 24  1  0
  8  9  1  0
  9 10  2  0
  9 20  1  0
 10 11  1  0
 11 12  2  0
 12 13  1  0
 12 19  1  0
 13 14  2  0
 13 17  1  0
 14 15  1  0
 15 16  2  0
 16 17  1  0
 17 18  1  0
 19 20  2  0
 20 21  1  0
 21 22  1  0
 22 23  1  0
 24 25  2  0
 25 26  1  0
 26 27  1  0
 26 33  2  0
 27 28  1  0
 28 29  1  0
 29 30  1  0
 29 31  1  0
 29 32  1  0
M  END
>  <DRUGBANK_ID>  (1) 
DB15498

>  <COMMON_NAME>  (1) 
BOS172722

>  <CAS_NUMBER>  (1) 
1578245-44-9

$$$$
