
     RDKit          3D

 16 16  0  0  1  0  0  0  0  0999 V2000
   -1.3576   -0.4576   -0.1601 C   0  0  0  0  0  0  0  0  0  0  0  0
   -1.0852    0.9942   -0.1216 C   0  0  1  0  0  0  0  0  0  0  0  0
   -0.4000   -1.3963   -0.1130 C   0  0  0  0  0  0  0  0  0  0  0  0
    0.3794    1.3335    0.1396 C   0  0  2  0  0  0  0  0  0  0  0  0
   -0.8528   -2.8169   -0.0378 C   0  0  0  0  0  0  0  0  0  0  0  0
    1.3982    0.2132   -0.1603 C   0  0  2  0  0  0  0  0  0  0  0  0
   -1.5841    1.5932   -1.3057 O   0  0  0  0  0  0  0  0  0  0  0  0
   -2.0095   -3.2026    0.0005 O   0  0  0  0  0  0  0  0  0  0  0  0
    0.1753   -3.6832   -0.0338 O   0  0  0  0  0  0  0  0  0  0  0  0
    2.0370    0.4236   -1.4169 O   0  0  0  0  0  0  0  0  0  0  0  0
   -1.2425    0.2234    2.5868 O   0  0  0  0  0  0  0  0  0  0  0  0
    1.1455   -0.3759    2.6039 O   0  0  0  0  0  0  0  0  0  0  0  0
    0.2644    1.5547    3.9605 O   0  0  0  0  0  0  0  0  0  0  0  0
    0.9472   -1.1323   -0.0882 O   0  0  0  0  0  0  0  0  0  0  0  0
    0.4791    1.7839    1.5045 O   0  0  0  0  0  0  0  0  0  0  0  0
    0.2710    0.7518    2.7561 S   0  0  0  0  0  0  0  0  0  0  0  0
  2  1  1  0
  2  7  1  6
  3  1  2  0
  4  2  1  0
  4 15  1  1
  5  3  1  0
  6  4  1  0
  6 10  1  6
  8  5  2  0
  9  5  1  0
 14  3  1  0
 14  6  1  0
 16 11  1  0
 16 12  2  0
 16 13  2  0
 16 15  1  0
M  END
>  <DRUGBANK_ID>  (1) 
DB03981

>  <SECONDARY_ACCESSION_NUMBERS>  (1) 
EXPT03166

>  <COMMON_NAME>  (1) 
1,4-Dideoxy-5-Dehydro-O2-Sulfo-Glucuronic Acid

$$$$
