
     RDKit          3D

 33 38  0  0  0  0  0  0  0  0999 V2000
    1.1680   -0.2013   -0.0945 C   0  0  0  0  0  0  0  0  0  0  0  0
    0.8314    0.3093    1.3011 C   0  0  0  0  0  0  0  0  0  0  0  0
    1.5659    1.6133    1.5725 C   0  0  0  0  0  0  0  0  0  0  0  0
   -0.6145    0.4184    1.3880 N   0  0  0  0  0  0  0  0  0  0  0  0
   -1.1999    1.5929    0.7193 C   0  0  0  0  0  0  0  0  0  0  0  0
   -1.2494    2.8928    1.5506 C   0  0  0  0  0  0  0  0  0  0  0  0
   -1.7944    2.7246    2.9084 N   0  0  0  0  0  0  0  0  0  0  0  0
   -3.2786    2.6930    2.9048 C   0  0  0  0  0  0  0  0  0  0  0  0
   -3.9467    1.4791    2.3390 C   0  0  0  0  0  0  0  0  0  0  0  0
   -4.1499    0.2152    2.8508 C   0  0  0  0  0  0  0  0  0  0  0  0
   -4.4237   -0.6652    1.8509 N   0  0  0  0  0  0  0  0  0  0  0  0
   -4.5191    0.0936    0.7595 C   0  0  0  0  0  0  0  0  0  0  0  0
   -4.3209    1.4351    1.0053 O   0  0  0  0  0  0  0  0  0  0  0  0
   -5.0340   -0.3513   -0.5146 C   0  0  0  0  0  0  0  0  0  0  0  0
   -6.0670   -1.3061   -0.4760 C   0  0  0  0  0  0  0  0  0  0  0  0
   -6.7193   -1.7687   -1.6162 C   0  0  0  0  0  0  0  0  0  0  0  0
   -6.2996   -1.3092   -2.8723 C   0  0  0  0  0  0  0  0  0  0  0  0
   -5.2165   -0.4244   -2.9186 C   0  0  0  0  0  0  0  0  0  0  0  0
   -4.5685    0.0658   -1.7845 C   0  0  0  0  0  0  0  0  0  0  0  0
   -3.5456    0.8819   -2.3173 C   0  0  0  0  0  0  0  0  0  0  0  0
   -3.5553    0.9389   -3.6560 N   0  0  0  0  0  0  0  0  0  0  0  0
   -4.5837    0.1466   -3.9927 N   0  0  0  0  0  0  0  0  0  0  0  0
   -7.8423   -2.6941   -1.4792 C   0  0  0  0  0  0  0  0  0  0  0  0
   -8.9744   -2.3612   -0.7096 C   0  0  0  0  0  0  0  0  0  0  0  0
  -10.0329   -3.2512   -0.5607 C   0  0  0  0  0  0  0  0  0  0  0  0
   -9.9995   -4.5108   -1.1639 C   0  0  0  0  0  0  0  0  0  0  0  0
   -8.8777   -4.8306   -1.9420 C   0  0  0  0  0  0  0  0  0  0  0  0
   -7.8056   -3.9564   -2.1163 C   0  0  0  0  0  0  0  0  0  0  0  0
   -6.8683   -4.6190   -2.9653 C   0  0  0  0  0  0  0  0  0  0  0  0
   -7.3941   -5.8354   -3.3098 C   0  0  0  0  0  0  0  0  0  0  0  0
   -8.5933   -5.9759   -2.6582 N   0  0  0  0  0  0  0  0  0  0  0  0
   -1.1564    1.5851    3.6055 C   0  0  0  0  0  0  0  0  0  0  0  0
   -1.0748    0.2898    2.7692 C   0  0  0  0  0  0  0  0  0  0  0  0
  1  2  1  0
  2  3  1  0
  2  4  1  0
  4  5  1  0
  4 33  1  0
  5  6  1  0
  6  7  1  0
  7  8  1  0
  7 32  1  0
  8  9  1  0
  9 10  2  0
  9 13  1  0
 10 11  1  0
 11 12  2  0
 12 13  1  0
 12 14  1  0
 14 15  2  0
 14 19  1  0
 15 16  1  0
 16 17  2  0
 16 23  1  0
 17 18  1  0
 18 19  2  0
 18 22  1  0
 19 20  1  0
 20 21  2  0
 21 22  1  0
 23 24  2  0
 23 28  1  0
 24 25  1  0
 25 26  2  0
 26 27  1  0
 27 28  2  0
 27 31  1  0
 28 29  1  0
 29 30  2  0
 30 31  1  0
 32 33  1  0
M  END
>  <DRUGBANK_ID>  (1) 
DB16253

>  <COMMON_NAME>  (1) 
Nemiralisib

>  <CAS_NUMBER>  (1) 
1254036-71-9

>  <UNII>  (1) 
OEP8JJ3OZR

>  <SYNONYMS>  (1) 
Nemiralisib

$$$$
