
     RDKit          3D

 27 27  0  0  0  0  0  0  0  0999 V2000
    1.4206   -0.4563   -0.7004 C   0  0  0  0  0  0  0  0  0  0  0  0
    1.3259   -1.8639    0.5411 C   0  0  0  0  0  0  0  0  0  0  0  0
    1.4337   -1.5735    2.5158 C   0  0  0  0  0  0  0  0  0  0  0  0
    0.5956   -0.0292    3.4095 C   0  0  0  0  0  0  0  0  0  0  0  0
   -1.0783    0.3212    3.3846 C   0  0  0  0  0  0  0  0  0  0  0  0
   -1.6423   -0.8921    3.8748 C   0  0  0  0  0  0  0  0  0  0  0  0
   -1.2757   -1.9385    3.1899 C   0  0  0  0  0  0  0  0  0  0  0  0
   -0.6999   -1.7548    1.9218 N   0  0  0  0  0  0  0  0  0  0  0  0
    0.0549   -0.2480    1.2575 C   0  0  0  0  0  0  0  0  0  0  0  0
    1.9681    0.2245    1.4380 C   0  0  0  0  0  0  0  0  0  0  0  0
   -1.2731   -3.2359    3.9567 C   0  0  0  0  0  0  0  0  0  0  0  0
   -0.4063   -4.0827    3.8993 O   0  0  0  0  0  0  0  0  0  0  0  0
   -2.4621   -3.3492    4.8204 C   0  0  0  0  0  0  0  0  0  0  0  0
   -2.8255   -4.7270    5.1914 C   0  0  0  0  0  0  0  0  0  0  0  0
   -3.0289   -4.7435    6.6576 C   0  0  0  0  0  0  0  0  0  0  0  0
   -4.1800   -4.9959    7.2955 C   0  0  0  0  0  0  0  0  0  0  0  0
   -5.4638   -5.2260    6.5598 C   0  0  0  0  0  0  0  0  0  0  0  0
   -4.2174   -5.0152    8.8017 C   0  0  0  0  0  0  0  0  0  0  0  0
   -3.3395   -6.1382    9.3871 C   0  0  0  0  0  0  0  0  0  0  0  0
   -1.8625   -5.9770    9.1124 C   0  0  0  0  0  0  0  0  0  0  0  0
   -0.9112   -5.6904   10.0111 C   0  0  0  0  0  0  0  0  0  0  0  0
    0.4979   -5.3963    9.5819 C   0  0  0  0  0  0  0  0  0  0  0  0
   -1.2352   -5.6970   11.4674 C   0  0  0  0  0  0  0  0  0  0  0  0
   -3.1515   -2.2642    5.1954 C   0  0  0  0  0  0  0  0  0  0  0  0
   -4.3631   -2.3186    5.8483 O   0  0  0  0  0  0  0  0  0  0  0  0
   -2.6560   -0.9065    4.8974 C   0  0  0  0  0  0  0  0  0  0  0  0
   -3.1551    0.0915    5.3340 O   0  0  0  0  0  0  0  0  0  0  0  0
  1  2  1  0
  2  3  1  0
  3  4  1  0
  4  5  1  0
  5  6  1  0
  6  7  2  0
  6 26  1  0
  7  8  1  0
  7 11  1  0
  8  9  1  0
  9 10  1  0
 11 12  2  0
 11 13  1  0
 13 14  1  0
 13 24  2  0
 14 15  1  0
 15 16  2  0
 16 17  1  0
 16 18  1  0
 18 19  1  0
 19 20  1  0
 20 21  2  3
 21 22  1  0
 21 23  1  0
 24 25  1  0
 24 26  1  0
 26 27  2  0
M  END
>  <DRUGBANK_ID>  (1) 
DB16933

>  <COMMON_NAME>  (1) 
EHP-102

>  <CAS_NUMBER>  (1) 
1807652-43-2

>  <UNII>  (1) 
FDH1SMY691

>  <SYNONYMS>  (1) 
2-((2e)-3,7-dimethyl-2,6-octadien-1-yl)-6-(ethylamino)-3-hydroxy-5-pentyl-2,5-cyclohexadiene-1,4-dione; 2-(3,7-Dimethyl-Octa-2, 6-Dienyl)-6-Ethylamino-3-Hydroxy-5-Pentyl-[1,4]Benzoquinone; 2-(3,7-Dimethyl-octa-2, 6-dienyl)Â¿6-ethylamino-3-hydroxy-5-pentyl-[1,4]benzoquinone; 2,5-cyclohexadiene-1,4-dione, 2-((2e)-3,7-dimethyl-2,6-octadien-1-yl)-6-(ethylamino)-3-hydroxy-5-pentyl-; EHP102

$$$$
