GP6
     RDKit          3D

 20 21  0  0  0  0  0  0  0  0999 V2000
    1.0118   -0.0209   -0.0755 N   0  0  0  0  0  0  0  0  0  0  0  0
    1.1155   -1.2366    1.8805 N   0  0  0  0  0  0  0  0  0  0  0  0
    0.4026   -0.7166    0.8242 C   0  0  0  0  0  0  0  0  0  0  0  0
   -1.0836   -0.9344    0.7384 C   0  0  0  0  0  0  0  0  0  0  0  0
   -1.8785   -0.9950   -0.4045 C   0  0  0  0  0  0  0  0  0  0  0  0
   -3.3067   -1.0641   -0.2858 C   0  0  0  0  0  0  0  0  0  0  0  0
   -3.9202   -1.0570    0.9750 C   0  0  0  0  0  0  0  0  0  0  0  0
   -3.0977   -1.3608    2.0215 C   0  0  0  0  0  0  0  0  0  0  0  0
   -1.7284   -1.1614    1.9305 C   0  0  0  0  0  0  0  0  0  0  0  0
   -5.2833   -0.7307    1.2134 N   0  0  0  0  0  0  0  0  0  0  0  0
   -5.9744   -0.3505    2.3391 C   0  0  0  0  0  0  0  0  0  0  0  0
   -7.2249   -0.3560    2.2810 O   0  0  0  0  0  0  0  0  0  0  0  0
   -5.4230   -0.0101    3.5392 N   0  0  0  0  0  0  0  0  0  0  0  0
   -4.1531    0.4947    3.8937 C   0  0  0  0  0  0  0  0  0  0  0  0
   -3.4506    1.3518    3.0453 C   0  0  0  0  0  0  0  0  0  0  0  0
   -2.0745    1.5554    3.2324 C   0  0  0  0  0  0  0  0  0  0  0  0
   -1.4050    0.9305    4.2912 C   0  0  0  0  0  0  0  0  0  0  0  0
   -2.1007    0.0724    5.1467 C   0  0  0  0  0  0  0  0  0  0  0  0
   -3.4809   -0.1224    4.9711 C   0  0  0  0  0  0  0  0  0  0  0  0
    0.3237    0.9235    4.3299 Cl  0  0  0  0  0  0  0  0  0  0  0  0
  1  3  2  0
  2  3  1  0
  3  4  1  0
  4  5  2  0
  4  9  1  0
  5  6  1  0
  6  7  2  0
  7  8  1  0
  7 10  1  0
  8  9  2  0
 10 11  1  0
 11 12  2  0
 11 13  1  0
 13 14  1  0
 14 15  2  0
 14 19  1  0
 15 16  1  0
 16 17  2  0
 17 18  1  0
 17 20  1  0
 18 19  2  0
M  END
>  <DRUGBANK_ID>  (1) 
DB04336

>  <SECONDARY_ACCESSION_NUMBERS>  (1) 
EXPT01635

>  <COMMON_NAME>  (1) 
1-(4-Amidinophenyl)-3-(4-Chlorophenyl)Urea

$$$$
