
     RDKit          3D

 11 10  0  0  0  0  0  0  0  0999 V2000
    0.9396   -0.1569    0.1052 C   0  0  0  0  0  0  0  0  0  0  0  0
    0.4740   -0.7552   -1.1587 O   0  0  0  0  0  0  0  0  0  0  0  0
    0.3934   -0.9554    1.2770 C   0  0  0  0  0  0  0  0  0  0  0  0
    0.5842    1.3250    0.3621 C   0  0  0  0  0  0  0  0  0  0  0  0
    1.0507    0.0594   -2.5718 P   0  0  0  0  0  0  0  0  0  0  0  0
    0.2147    1.4243   -2.2199 O   0  0  0  0  0  0  0  0  0  0  0  0
    2.4869    0.1476   -2.0404 O   0  0  0  0  0  0  0  0  0  0  0  0
   -1.1436    1.6183   -2.5843 C   0  0  0  0  0  0  0  0  0  0  0  0
   -1.2741    1.7619   -4.0876 C   0  0  0  0  0  0  0  0  0  0  0  0
   -2.0275    0.5085   -2.0445 C   0  0  0  0  0  0  0  0  0  0  0  0
    1.6607    0.9210   -4.0666 C   0  0  0  0  0  0  0  0  0  0  0  0
  1  2  1  0
  1  3  1  0
  1  4  1  0
  2  5  1  0
  5  6  1  0
  5  7  2  0
  5 11  1  0
  6  8  1  0
  8  9  1  0
  8 10  1  0
M  END
>  <DRUGBANK_ID>  (1) 
DB02127

>  <SECONDARY_ACCESSION_NUMBERS>  (1) 
EXPT01207

>  <COMMON_NAME>  (1) 
Diisopropyl methylphosphonate

>  <CAS_NUMBER>  (1) 
1445-75-6

>  <UNII>  (1) 
56V3OG5DC7

>  <SYNONYMS>  (1) 
Diisopropyl methanephosphonate; Diisopropyl methylphosphonate; DIMP; Methylphosphonic acid bis(1-methylethyl)ester

$$$$
