
     RDKit          3D

 16 17  0  0  0  0  0  0  0  0999 V2000
   -1.2275   -1.4696    0.0555 C   0  0  0  0  0  0  0  0  0  0  0  0
   -0.0087   -0.7649    0.1204 C   0  0  0  0  0  0  0  0  0  0  0  0
    1.2295   -1.4206    0.0213 C   0  0  0  0  0  0  0  0  0  0  0  0
    2.4226   -0.6978   -0.0185 C   0  0  0  0  0  0  0  0  0  0  0  0
    2.3934    0.6957    0.0055 C   0  0  0  0  0  0  0  0  0  0  0  0
    1.1703    1.3810    0.1280 C   0  0  0  0  0  0  0  0  0  0  0  0
    1.1534    2.8993    0.0817 C   0  0  0  0  0  0  0  0  0  0  0  0
    0.5247    3.5685   -1.1760 C   0  0  1  0  0  0  0  0  0  0  0  0
   -0.9020    3.1437   -1.6248 C   0  0  0  0  0  0  0  0  0  0  0  0
   -1.8975    3.9917   -1.2375 O   0  0  0  0  0  0  0  0  0  0  0  0
   -1.1488    2.1575   -2.2877 O   0  0  0  0  0  0  0  0  0  0  0  0
    0.5632    5.0440   -0.9981 N   0  0  0  0  0  0  0  0  0  0  0  0
   -0.0339    0.6389    0.2593 C   0  0  0  0  0  0  0  0  0  0  0  0
   -1.2846    1.2498    0.4708 C   0  0  0  0  0  0  0  0  0  0  0  0
   -2.4777    0.5711    0.2545 C   0  0  0  0  0  0  0  0  0  0  0  0
   -2.4515   -0.7965    0.0553 C   0  0  0  0  0  0  0  0  0  0  0  0
  2  1  2  0
  2  3  1  0
  3  4  2  0
  4  5  1  0
  5  6  2  0
  6  7  1  0
  6 13  1  0
  8  7  1  0
  8  9  1  0
  9 11  2  0
 10  9  1  0
  8 12  1  1
 13  2  1  0
 13 14  2  0
 14 15  1  0
 15 16  2  0
 16  1  1  0
M  END
>  <DRUGBANK_ID>  (1) 
DB07365

>  <COMMON_NAME>  (1) 
1-Naphthyl-L-alanine

>  <CAS_NUMBER>  (1) 
55516-54-6

>  <UNII>  (1) 
9G930UL92R

>  <SYNONYMS>  (1) 
(S)-2-Amino-3-(naphthalen-1-yl)propanoic acid; L-beta-(1-Naphthyl)alanine; Naphthalen-2-yl-3-alanine

$$$$
