22U
     RDKit          3D

 27 29  0  0  0  0  0  0  0  0999 V2000
    1.0340    0.0659    0.1063 C   0  0  0  0  0  0  0  0  0  0  0  0
    0.8725   -1.6712    1.9340 N   0  0  0  0  0  0  0  0  0  0  0  0
    0.3215   -1.2038    0.6340 C   0  0  1  0  0  0  0  0  0  0  0  0
   -1.2698   -1.2074    0.6592 C   0  0  0  0  0  0  0  0  0  0  0  0
   -1.8438   -2.1960    0.1794 O   0  0  0  0  0  0  0  0  0  0  0  0
   -2.0331   -0.2577    1.3209 N   0  0  0  0  0  0  0  0  0  0  0  0
   -1.9161    1.1717    1.3675 C   0  0  0  0  0  0  0  0  0  0  0  0
   -2.1415    1.4631    2.8342 C   0  0  0  0  0  0  0  0  0  0  0  0
   -3.3203    0.5960    3.1727 C   0  0  0  0  0  0  0  0  0  0  0  0
   -3.1051   -0.6399    2.2547 C   0  0  1  0  0  0  0  0  0  0  0  0
   -4.4207   -0.9125    1.5277 C   0  0  0  0  0  0  0  0  0  0  0  0
   -4.8082    0.0761    0.6369 N   0  0  0  0  0  0  0  0  0  0  0  0
   -6.0596    0.0260   -0.0539 C   0  0  0  0  0  0  0  0  0  0  0  0
   -6.9357    1.2153    0.2532 C   0  0  0  0  0  0  0  0  0  0  0  0
   -6.8951    1.8803    1.4893 C   0  0  0  0  0  0  0  0  0  0  0  0
   -7.7578    2.9416    1.7558 C   0  0  0  0  0  0  0  0  0  0  0  0
   -8.6839    3.3500    0.8022 C   0  0  0  0  0  0  0  0  0  0  0  0
   -8.7521    2.6847   -0.4215 C   0  0  0  0  0  0  0  0  0  0  0  0
   -7.8867    1.6226   -0.6923 C   0  0  0  0  0  0  0  0  0  0  0  0
   -5.1496   -1.8273    1.8585 O   0  0  0  0  0  0  0  0  0  0  0  0
    1.0603    1.2870    1.0165 C   0  0  0  0  0  0  0  0  0  0  0  0
    0.8727    1.1714    2.4064 C   0  0  0  0  0  0  0  0  0  0  0  0
    0.6128    2.2651    3.2296 C   0  0  0  0  0  0  0  0  0  0  0  0
    0.4749    3.5141    2.6613 C   0  0  0  0  0  0  0  0  0  0  0  0
    0.7241    3.6814    1.2990 C   0  0  0  0  0  0  0  0  0  0  0  0
    1.0102    2.5806    0.4731 C   0  0  0  0  0  0  0  0  0  0  0  0
   -7.6790    3.7396    3.2786 Cl  0  0  0  0  0  0  0  0  0  0  0  0
  1  3  1  0
  1 21  1  0
  3  2  1  1
  3  4  1  0
  4  5  2  0
  4  6  1  0
  6  7  1  0
  6 10  1  0
  7  8  1  0
  8  9  1  0
  9 10  1  0
 10 11  1  6
 11 12  1  0
 11 20  2  0
 12 13  1  0
 13 14  1  0
 14 15  2  0
 14 19  1  0
 15 16  1  0
 16 17  2  0
 16 27  1  0
 17 18  1  0
 18 19  2  0
 21 22  2  0
 21 26  1  0
 22 23  1  0
 23 24  2  0
 24 25  1  0
 25 26  2  0
M  END
>  <DRUGBANK_ID>  (1) 
DB06919

>  <COMMON_NAME>  (1) 
D-phenylalanyl-N-(3-chlorobenzyl)-L-prolinamide

$$$$
