
     RDKit          3D

 32 34  0  0  1  0  0  0  0  0999 V2000
   -2.6061   -0.7385   -3.2582 C   0  0  0  0  0  0  0  0  0  0  0  0
   -2.7483   -0.3273   -4.7753 C   0  0  2  0  0  0  0  0  0  0  0  0
   -1.6422   -0.9510   -5.6762 C   0  0  0  0  0  0  0  0  0  0  0  0
   -0.4293   -0.1250   -5.9055 O   0  0  0  0  0  0  0  0  0  0  0  0
   -0.3717    1.3332   -5.6816 C   0  0  1  0  0  0  0  0  0  0  0  0
   -1.5825    1.9208   -4.8724 C   0  0  1  0  0  0  0  0  0  0  0  0
   -2.8370    1.1810   -5.2305 C   0  0  1  0  0  0  0  0  0  0  0  0
   -3.1256    1.2342   -6.6912 N   0  0  0  0  0  0  0  0  0  0  0  0
   -3.0400    2.5807   -7.2451 C   0  0  0  0  0  0  0  0  0  0  0  0
   -1.6405    1.9153   -3.4296 O   0  0  0  0  0  0  0  0  0  0  0  0
    0.9101    1.8996   -5.1790 O   0  0  0  0  0  0  0  0  0  0  0  0
    0.9843    1.8941   -3.7336 C   0  0  1  0  0  0  0  0  0  0  0  0
    1.1812    0.4055   -3.3612 C   0  0  1  0  0  0  0  0  0  0  0  0
    1.0075    0.0924   -1.9153 C   0  0  0  0  0  0  0  0  0  0  0  0
    1.9495    0.9325   -1.1600 C   0  0  1  0  0  0  0  0  0  0  0  0
    2.1305    2.4044   -1.4197 C   0  0  2  0  0  0  0  0  0  0  0  0
    1.9224    2.8464   -2.9141 C   0  0  2  0  0  0  0  0  0  0  0  0
    1.6392    4.2627   -3.0098 O   0  0  0  0  0  0  0  0  0  0  0  0
    3.4997    2.6704   -0.9748 O   0  0  0  0  0  0  0  0  0  0  0  0
    4.6715    1.9574   -1.5733 C   0  0  2  0  0  0  0  0  0  0  0  0
    5.0578    2.4206   -3.0133 C   0  0  1  0  0  0  0  0  0  0  0  0
    4.4431    1.5156   -4.0985 C   0  0  0  0  0  0  0  0  0  0  0  0
    4.7122    0.0526   -3.8680 C   0  0  0  0  0  0  0  0  0  0  0  0
    4.4312   -0.3967   -2.4268 C   0  0  2  0  0  0  0  0  0  0  0  0
    4.8417    0.5124   -1.3812 O   0  0  0  0  0  0  0  0  0  0  0  0
    4.5539   -1.8935   -2.0990 C   0  0  0  0  0  0  0  0  0  0  0  0
    4.7567   -2.5637   -3.3769 N   0  0  0  0  0  0  0  0  0  0  0  0
    5.0388   -3.9575   -3.2282 C   0  0  0  0  0  0  0  0  0  0  0  0
    4.8754    3.8773   -3.2040 N   0  0  0  0  0  0  0  0  0  0  0  0
    2.1704    0.2822    0.1177 N   0  0  0  0  0  0  0  0  0  0  0  0
    0.3039   -0.6571   -3.7860 N   0  0  0  0  0  0  0  0  0  0  0  0
   -4.0234   -0.9026   -5.1139 O   0  0  0  0  0  0  0  0  0  0  0  0
  2  1  1  1
  2  3  1  0
  2  7  1  0
  2 32  1  0
  3  4  1  0
  4  5  1  0
  5  6  1  0
  5 11  1  1
  6  7  1  0
  6 10  1  1
  7  8  1  6
  8  9  1  0
 12 13  1  0
 12 17  1  0
 12 11  1  6
 13 14  1  0
 13 31  1  6
 14 15  1  0
 15 16  1  0
 15 30  1  1
 16 17  1  0
 16 19  1  6
 17 18  1  1
 20 19  1  6
 20 21  1  0
 20 25  1  0
 21 22  1  0
 21 29  1  6
 22 23  1  0
 23 24  1  0
 24 25  1  0
 24 26  1  1
 26 27  1  0
 27 28  1  0
M  END
>  <DRUGBANK_ID>  (1) 
DB13274

>  <COMMON_NAME>  (1) 
Micronomicin

>  <CAS_NUMBER>  (1) 
52093-21-7

>  <UNII>  (1) 
S9AZ0R40QV

>  <SYNONYMS>  (1) 
Micronomicin

$$$$
