
     RDKit          3D

 26 31  0  0  0  0  0  0  0  0999 V2000
   -0.7028    1.6467   -0.1943 C   0  0  0  0  0  0  0  0  0  0  0  0
   -0.3749    0.3632   -0.5498 C   0  0  0  0  0  0  0  0  0  0  0  0
   -2.9243    0.1659    0.0194 C   0  0  0  0  0  0  0  0  0  0  0  0
   -2.2340   -1.0444   -0.0330 C   0  0  0  0  0  0  0  0  0  0  0  0
   -0.9138   -0.8975   -0.3494 C   0  0  0  0  0  0  0  0  0  0  0  0
   -2.1745    1.5092   -0.0478 C   0  0  0  0  0  0  0  0  0  0  0  0
    1.1900   -1.0739   -1.1978 C   0  0  2  0  0  0  0  0  0  0  0  0
    2.3137   -1.2158    0.0639 C   0  0  2  0  0  0  0  0  0  0  0  0
    3.2571   -0.0610    0.4706 C   0  0  0  0  0  0  0  0  0  0  0  0
    3.1226    1.1386   -0.4021 C   0  0  0  0  0  0  0  0  0  0  0  0
    1.1093    1.8561   -1.7267 C   0  0  2  0  0  0  0  0  0  0  0  0
   -0.5613    2.5707   -2.1932 N   0  0  0  0  0  0  0  0  0  0  0  0
    1.6303    1.2072   -0.4831 C   0  0  2  0  0  0  0  0  0  0  0  0
    1.3790    2.0381    0.9064 O   0  0  0  0  0  0  0  0  0  0  0  0
    0.6945    2.9008   -0.8611 C   0  0  0  0  0  0  0  0  0  0  0  0
    0.6941    0.3696   -1.6078 C   0  0  2  0  0  0  0  0  0  0  0  0
    0.2050    1.1753   -3.3974 C   0  0  0  0  0  0  0  0  0  0  0  0
   -1.1975    1.7481   -3.1545 C   0  0  0  0  0  0  0  0  0  0  0  0
    3.2304   -2.3157    0.0381 O   0  0  0  0  0  0  0  0  0  0  0  0
    0.0028   -1.8497   -0.7256 O   0  0  0  0  0  0  0  0  0  0  0  0
   -2.8216   -2.2750   -0.0485 O   0  0  0  0  0  0  0  0  0  0  0  0
   -1.0758    3.8488   -1.3823 C   0  0  0  0  0  0  0  0  0  0  0  0
   -0.0847    5.0014   -1.7180 C   0  0  0  0  0  0  0  0  0  0  0  0
    1.6239    5.0651   -1.5523 C   0  0  0  0  0  0  0  0  0  0  0  0
    0.0029    6.1104   -0.6812 C   0  0  0  0  0  0  0  0  0  0  0  0
    1.4109    6.4864   -1.2588 C   0  0  0  0  0  0  0  0  0  0  0  0
  1  6  2  0
  2  1  1  0
  3  4  2  0
  3  6  1  0
  4  5  1  0
  4 21  1  0
  5  2  2  0
  5 20  1  0
  7  8  1  0
  7 20  1  1
  8  9  1  0
  8 19  1  6
  9 10  1  0
 10 13  1  0
 11 12  1  0
 11 15  1  1
 12 18  1  0
 12 22  1  0
 13 11  1  0
 13 14  1  1
 15  1  1  0
 16  2  1  0
 16 13  1  0
 16  7  1  0
 16 17  1  6
 17 18  1  0
 22 23  1  0
 23 24  1  0
 23 25  1  0
 25 26  1  0
 26 24  1  0
M  END
>  <DRUGBANK_ID>  (1) 
DB00844

>  <SECONDARY_ACCESSION_NUMBERS>  (1) 
APRD01132

>  <COMMON_NAME>  (1) 
Nalbuphine

>  <CAS_NUMBER>  (1) 
20594-83-6

>  <UNII>  (1) 
L2T84IQI2K

>  <SYNONYMS>  (1) 
N-cyclobutylmethyl-4,5α-epoxy-3,6α,14-morphinantriol; Nalbufina; Nalbuphin; Nalbuphine; Nalbuphinum

$$$$
