
     RDKit          3D

  5  4  0  0  1  0  0  0  0  0999 V2000
    0.9062   -0.0349    0.0245 C   0  0  0  0  0  0  0  0  0  0  0  0
    0.4121    1.0768    0.9365 C   0  0  0  0  0  0  0  0  0  0  0  0
    0.8945    2.4629    0.5011 C   0  0  1  0  0  0  0  0  0  0  0  0
    0.4054    2.8512   -0.8883 C   0  0  0  0  0  0  0  0  0  0  0  0
    0.4307    3.4315    1.4393 O   0  0  0  0  0  0  0  0  0  0  0  0
  1  2  1  0
  2  3  1  0
  3  4  1  6
  3  5  1  0
M  END
>  <DRUGBANK_ID>  (1) 
DB02606

>  <SECONDARY_ACCESSION_NUMBERS>  (1) 
EXPT02861

>  <COMMON_NAME>  (1) 
2-Butanol

>  <CAS_NUMBER>  (1) 
78-92-2

>  <UNII>  (1) 
DLH38K423J

$$$$
