
     RDKit          3D

 31 33  0  0  0  0  0  0  0  0999 V2000
   -1.7902    0.0612   -0.0027 C   0  0  0  0  0  0  0  0  0  0  0  0
   -1.0913   -1.1541    0.0264 C   0  0  0  0  0  0  0  0  0  0  0  0
    0.3072    1.2901    0.0278 C   0  0  0  0  0  0  0  0  0  0  0  0
    1.0143    0.0491    0.0078 C   0  0  0  0  0  0  0  0  0  0  0  0
    2.5209    0.1215   -0.0413 C   0  0  0  0  0  0  0  0  0  0  0  0
   -1.1018    1.2882    0.0085 C   0  0  0  0  0  0  0  0  0  0  0  0
   -2.8770    2.6859   -1.2934 O   0  0  0  0  0  0  0  0  0  0  0  0
   -2.8618    2.7547    1.2316 O   0  0  0  0  0  0  0  0  0  0  0  0
   -2.1540    2.7550   -0.0344 S   0  0  0  0  0  0  0  0  0  0  0  0
   -1.2423    4.2547   -0.0821 C   0  0  0  0  0  0  0  0  0  0  0  0
    0.3166   -1.1868    0.0535 C   0  0  0  0  0  0  0  0  0  0  0  0
    0.2440   -3.5594   -0.0652 O   0  0  0  0  0  0  0  0  0  0  0  0
    0.9553   -2.5593    0.0839 C   0  0  0  0  0  0  0  0  0  0  0  0
    2.3913   -2.7155    0.1159 C   0  0  0  0  0  0  0  0  0  0  0  0
    3.3568   -2.3754    1.0868 C   0  0  0  0  0  0  0  0  0  0  0  0
    3.1325   -3.1863   -0.9466 C   0  0  0  0  0  0  0  0  0  0  0  0
    2.7286   -3.6633   -2.1195 O   0  0  0  0  0  0  0  0  0  0  0  0
    4.6060   -2.4572    0.6217 N   0  0  0  0  0  0  0  0  0  0  0  0
    4.4614   -3.0127   -0.6098 N   0  0  0  0  0  0  0  0  0  0  0  0
    6.5291   -2.1872   -1.7319 C   0  0  0  0  0  0  0  0  0  0  0  0
    6.5005   -4.3737   -0.4993 C   0  0  0  0  0  0  0  0  0  0  0  0
    5.6656   -3.4104   -1.3634 C   0  0  0  0  0  0  0  0  0  0  0  0
    5.3055   -4.1393   -2.6698 C   0  0  0  0  0  0  0  0  0  0  0  0
    1.1119    2.5103    0.0363 C   0  0  0  0  0  0  0  0  0  0  0  0
    2.5440    4.0585   -1.1673 C   0  0  0  0  0  0  0  0  0  0  0  0
    1.8567    2.8570   -1.1056 C   0  0  0  0  0  0  0  0  0  0  0  0
    1.1506    3.3478    1.1520 C   0  0  0  0  0  0  0  0  0  0  0  0
    2.4049    4.9791   -0.1341 C   0  0  0  0  0  0  0  0  0  0  0  0
    1.6779    4.6328    1.0056 C   0  0  0  0  0  0  0  0  0  0  0  0
    2.9069    6.2487   -0.1463 O   0  0  0  0  0  0  0  0  0  0  0  0
    3.8882    6.4948   -1.1472 C   0  0  0  0  0  0  0  0  0  0  0  0
  1  2  2  0
  2 11  1  0
  3  6  2  0
  3 24  1  0
  4  3  1  0
  4 11  2  0
  4  5  1  0
  6  1  1  0
  6  9  1  0
  9  7  2  0
  9  8  2  0
  9 10  1  0
 11 13  1  0
 13 12  2  0
 13 14  1  0
 14 15  1  0
 15 18  2  0
 16 14  2  0
 16 19  1  0
 16 17  1  0
 18 19  1  0
 19 22  1  0
 22 20  1  0
 22 21  1  0
 22 23  1  0
 24 27  2  0
 25 26  2  0
 26 24  1  0
 28 25  1  0
 28 30  1  0
 29 28  2  0
 29 27  1  0
 30 31  1  0
M  END
>  <DRUGBANK_ID>  (1) 
DB02850

>  <SECONDARY_ACCESSION_NUMBERS>  (1) 
EXPT00327

>  <COMMON_NAME>  (1) 
DAS869

$$$$
