
     RDKit          3D

 27 29  0  0  1  0  0  0  0  0999 V2000
   -2.0661   -0.5685    0.4625 Cl  0  0  0  0  0  0  0  0  0  0  0  0
    4.4584   -0.6964    1.3831 O   0  0  0  0  0  0  0  0  0  0  0  0
   -0.8618   -0.2304   -2.9416 O   0  0  0  0  0  0  0  0  0  0  0  0
   -1.3435    1.7595   -1.9560 O   0  0  0  0  0  0  0  0  0  0  0  0
    2.1149    2.3989    1.6230 N   0  0  0  0  0  0  0  0  0  0  0  0
    5.3192   -2.0937   -1.0365 N   0  0  0  0  0  0  0  0  0  0  0  0
    4.0092    0.1128    2.5131 C   0  0  0  0  0  0  0  0  0  0  0  0
    2.5576   -0.0151    2.9697 C   0  0  0  0  0  0  0  0  0  0  0  0
    4.3642    1.6001    2.5015 C   0  0  0  0  0  0  0  0  0  0  0  0
    1.6332    1.1163    2.3870 C   0  0  0  0  0  0  0  0  0  0  0  0
    3.5784    2.5024    1.5438 C   0  0  0  0  0  0  0  0  0  0  0  0
    1.4474    3.0733    0.2309 C   0  0  0  0  0  0  0  0  0  0  0  0
    1.5695    2.5765   -1.5484 C   0  0  0  0  0  0  0  0  0  0  0  0
    4.0445   -0.3362    0.0587 C   0  0  0  0  0  0  0  0  0  0  0  0
    0.9940    1.1863   -2.3757 C   0  0  0  0  0  0  0  0  0  0  0  0
    2.5632   -0.6216   -0.0571 C   0  0  0  0  0  0  0  0  0  0  0  0
    4.6941   -0.9176   -1.1804 C   0  0  0  0  0  0  0  0  0  0  0  0
    1.7688    0.4637   -0.1007 C   0  0  0  0  0  0  0  0  0  0  0  0
    1.8232   -1.7738   -0.0310 C   0  0  0  0  0  0  0  0  0  0  0  0
   -0.5029    0.9853   -2.4649 C   0  0  0  0  0  0  0  0  0  0  0  0
    4.3917   -0.3416   -2.4384 C   0  0  0  0  0  0  0  0  0  0  0  0
    0.3164    0.5423    0.0958 C   0  0  0  0  0  0  0  0  0  0  0  0
    0.3836   -1.7585    0.0733 C   0  0  0  0  0  0  0  0  0  0  0  0
    4.6468   -1.0769   -3.5823 C   0  0  0  0  0  0  0  0  0  0  0  0
   -0.3754   -0.6077    0.2159 C   0  0  0  0  0  0  0  0  0  0  0  0
    5.5908   -2.7599   -2.1628 C   0  0  0  0  0  0  0  0  0  0  0  0
    5.2582   -2.3139   -3.4348 C   0  0  0  0  0  0  0  0  0  0  0  0
  1 25  1  0
  2  7  1  0
  2 14  1  0
  3 20  1  0
  4 20  2  0
  5 10  1  0
  5 11  1  0
  5 12  1  0
  6 17  2  0
  6 26  1  0
  7  8  1  0
  7  9  1  0
  8 10  1  0
  9 11  1  0
 12 13  1  0
 13 15  1  0
 14 16  1  0
 14 17  1  0
 15 20  1  0
 16 18  2  0
 16 19  1  0
 17 21  1  0
 18 22  1  0
 19 23  2  0
 21 24  2  0
 22 25  2  0
 23 25  1  0
 24 27  1  0
 26 27  2  0
M  END
>  <DRUGBANK_ID>  (1) 
DB04890

>  <COMMON_NAME>  (1) 
Bepotastine

>  <CAS_NUMBER>  (1) 
125602-71-3

>  <UNII>  (1) 
HYD2U48IAS

>  <SYNONYMS>  (1) 
bepotastina; Bepotastine

$$$$
