
     RDKit          3D

 23 25  0  0  0  0  0  0  0  0999 V2000
    1.0721    0.0297    0.0627 P   0  0  0  0  0  0  0  0  0  0  0  0
   -1.1626   -1.1225   -1.6248 O   0  0  0  0  0  0  0  0  0  0  0  0
    0.3515    0.8944   -4.1934 O   0  0  0  0  0  0  0  0  0  0  0  0
   -0.7497   -1.9522   -4.2207 O   0  0  0  0  0  0  0  0  0  0  0  0
    0.9234   -1.5742    0.3045 O   0  0  0  0  0  0  0  0  0  0  0  0
    0.9713    0.7155    1.5261 O   0  0  0  0  0  0  0  0  0  0  0  0
   -0.6579    0.0297    0.0627 O   0  0  0  0  0  0  0  0  0  0  0  0
    2.6204    0.0297    0.0627 O   0  0  0  0  0  0  0  0  0  0  0  0
   -4.8011    0.7648   -7.3035 O   0  0  0  0  0  0  0  0  0  0  0  0
   -2.2753    0.4576   -2.7518 N   0  0  0  0  0  0  0  0  0  0  0  0
   -4.4660    0.8319   -2.6497 N   0  0  0  0  0  0  0  0  0  0  0  0
   -4.7519    0.7723   -5.0606 N   0  0  0  0  0  0  0  0  0  0  0  0
   -2.7953    0.3407   -6.3710 N   0  0  0  0  0  0  0  0  0  0  0  0
    0.2767   -0.0194   -3.1209 C   0  0  2  0  0  0  0  0  0  0  0  0
    0.2849   -1.5440   -3.3220 C   0  0  1  0  0  0  0  0  0  0  0  0
   -0.9685    0.1481   -2.2768 C   0  0  2  0  0  0  0  0  0  0  0  0
   -0.1401   -2.0655   -1.9506 C   0  0  1  0  0  0  0  0  0  0  0  0
    1.0169   -2.2813   -0.9326 C   0  0  0  0  0  0  0  0  0  0  0  0
   -2.7090    0.4313   -4.0262 C   0  0  0  0  0  0  0  0  0  0  0  0
   -3.3732    0.6639   -1.9329 C   0  0  0  0  0  0  0  0  0  0  0  0
   -4.0354    0.6902   -3.9250 C   0  0  0  0  0  0  0  0  0  0  0  0
   -2.1117    0.1976   -5.2971 C   0  0  0  0  0  0  0  0  0  0  0  0
   -4.1414    0.6386   -6.2989 C   0  0  0  0  0  0  0  0  0  0  0  0
  1  5  1  0
  1  6  1  0
  1  7  1  0
  1  8  2  0
  2 16  1  0
  2 17  1  0
  5 18  1  0
  9 23  2  0
 10 19  1  0
 10 20  1  0
 11 20  2  0
 11 21  1  0
 12 21  1  0
 12 23  1  0
 13 22  2  0
 13 23  1  0
 14  3  1  6
 14 15  1  0
 14 16  1  0
 15  4  1  6
 15 17  1  0
 16 10  1  6
 17 18  1  1
 19 21  2  0
 19 22  1  0
M  END
>  <DRUGBANK_ID>  (1) 
DB02905

>  <SECONDARY_ACCESSION_NUMBERS>  (1) 
EXPT02475

>  <COMMON_NAME>  (1) 
N7-(5'-Phospho-alpha-ribosyl)-2-hydroxypurine

$$$$
