
     RDKit          3D

 15 15  0  0  0  0  0  0  0  0999 V2000
    1.3777   -0.1836    0.0168 C   0  0  0  0  0  0  0  0  0  0  0  0
    0.4795   -1.2706    0.0030 C   0  0  0  0  0  0  0  0  0  0  0  0
    0.8576    1.1137   -0.0110 C   0  0  0  0  0  0  0  0  0  0  0  0
   -0.5307    1.3132    0.0454 C   0  0  0  0  0  0  0  0  0  0  0  0
   -1.4117    0.2272   -0.0187 C   0  0  0  0  0  0  0  0  0  0  0  0
   -0.9164   -1.0764   -0.0210 C   0  0  0  0  0  0  0  0  0  0  0  0
   -1.0406    2.6815    0.3115 C   0  0  0  0  0  0  0  0  0  0  0  0
   -0.3460    3.6709    0.4665 O   0  0  0  0  0  0  0  0  0  0  0  0
   -2.3762    2.7115    0.4648 O   0  0  0  0  0  0  0  0  0  0  0  0
   -1.7993   -2.2815    0.0311 C   0  0  0  0  0  0  0  0  0  0  0  0
   -3.1306   -2.0679    0.0529 O   0  0  0  0  0  0  0  0  0  0  0  0
   -1.3378   -3.4107    0.0715 O   0  0  0  0  0  0  0  0  0  0  0  0
    2.8375   -0.4916    0.1552 C   0  0  0  0  0  0  0  0  0  0  0  0
    3.6864    0.5535    0.2143 O   0  0  0  0  0  0  0  0  0  0  0  0
    3.2422   -1.6400    0.2464 O   0  0  0  0  0  0  0  0  0  0  0  0
  2  1  2  0
  3  1  1  0
  4  3  2  0
  5  4  1  0
  6  2  1  0
  6  5  2  0
  7  4  1  0
  8  7  2  0
  9  7  1  0
 10  6  1  0
 11 10  1  0
 12 10  2  0
 13  1  1  0
 14 13  1  0
 15 13  2  0
M  END
>  <DRUGBANK_ID>  (1) 
DB08632

>  <COMMON_NAME>  (1) 
Trimesic acid

>  <CAS_NUMBER>  (1) 
554-95-0

>  <UNII>  (1) 
OU36OO5MTN

>  <SYNONYMS>  (1) 
1,3,5-Tricarboxybenzene; 5-carboxyisophthalic acid; Benzene-1,3,5-tricarboxylic acid; Trimesinic acid; Trimesitinic acid

$$$$
