
     RDKit          3D

 11 10  0  0  0  0  0  0  0  0999 V2000
    0.8577   -0.4644   -0.0605 C   0  0  0  0  0  0  0  0  0  0  0  0
   -0.3199   -0.5721   -2.2372 C   0  0  0  0  0  0  0  0  0  0  0  0
    2.2199    6.0806   -3.5303 C   0  0  0  0  0  0  0  0  0  0  0  0
    2.3066    4.4531   -1.8448 C   0  0  0  0  0  0  0  0  0  0  0  0
    1.0288    1.5141   -1.5747 C   0  0  0  0  0  0  0  0  0  0  0  0
    0.9977    3.8187   -3.7841 C   0  0  0  0  0  0  0  0  0  0  0  0
    0.5218    0.2012   -1.3308 N   0  0  0  0  0  0  0  0  0  0  0  0
    1.7890    4.7519   -3.1245 N   0  0  0  0  0  0  0  0  0  0  0  0
    1.9815    2.1296   -0.3066 S   0  0  0  0  0  0  0  0  0  0  0  0
    0.3723    4.1801   -5.3306 S   0  0  0  0  0  0  0  0  0  0  0  0
    0.5431    2.1963   -3.1503 S   0  0  0  0  0  0  0  0  0  0  0  0
  7  1  1  0
  7  2  1  0
  7  5  1  0
  8  3  1  0
  8  4  1  0
  8  6  1  0
  9  5  2  0
 10  6  2  0
 11  5  1  0
 11  6  1  0
M  END
>  <DRUGBANK_ID>  (1) 
DB14178

>  <COMMON_NAME>  (1) 
Tetramethylthiuram monosulfide

>  <CAS_NUMBER>  (1) 
97-74-5

>  <UNII>  (1) 
01W430XXSQ

>  <SYNONYMS>  (1) 
Bis(dimethylthiocarbamoyl) sulfide; TMTM; TMTMS

$$$$
