1556
     RDKit          3D

 12 12  0  0  0  0  0  0  0  0999 V2000
   -2.1462    0.0452    0.0247 Cl  0  0  0  0  0  0  0  0  0  0  0  0
    4.0339   -2.1450    1.4361 N   0  0  0  0  0  0  0  0  0  0  0  0
    4.4161   -0.7230    1.3427 C   0  0  0  0  0  0  0  0  0  0  0  0
    3.8835   -0.0424    0.0380 C   0  0  0  0  0  0  0  0  0  0  0  0
    5.9519   -0.6884    1.3453 C   0  0  0  0  0  0  0  0  0  0  0  0
    3.8874    0.0069    2.5890 C   0  0  0  0  0  0  0  0  0  0  0  0
    2.3709    0.0013   -0.0872 C   0  0  0  0  0  0  0  0  0  0  0  0
    1.6791    1.2175   -0.0332 C   0  0  0  0  0  0  0  0  0  0  0  0
    1.6357   -1.1889   -0.2011 C   0  0  0  0  0  0  0  0  0  0  0  0
    0.2806    1.2333   -0.0242 C   0  0  0  0  0  0  0  0  0  0  0  0
    0.2448   -1.1796   -0.1270 C   0  0  0  0  0  0  0  0  0  0  0  0
   -0.4278    0.0318   -0.0434 C   0  0  0  0  0  0  0  0  0  0  0  0
  1 12  1  0
  2  3  1  0
  3  4  1  0
  3  5  1  0
  3  6  1  0
  4  7  1  0
  7  8  2  0
  7  9  1  0
  8 10  1  0
  9 11  2  0
 10 12  2  0
 11 12  1  0
M  END
>  <DRUGBANK_ID>  (1) 
DB01556

>  <COMMON_NAME>  (1) 
Chlorphentermine

>  <CAS_NUMBER>  (1) 
461-78-9

>  <UNII>  (1) 
NHW07912O7

>  <SYNONYMS>  (1) 
4-Chloro-a,a-dimethylbenzeneethanamine; 4-Chloro-a,a-dimethylphenethylamine; a,a-Dimethyl-p-chlorophenethylamine; Chlorphentermine; Chlorphenterminum; Clorfentermina

$$$$
