GVC
     RDKit          3D

 17 18  0  0  0  0  0  0  0  0999 V2000
    1.2476   -0.0007    0.1766 O   0  0  0  0  0  0  0  0  0  0  0  0
    2.4805    0.0552    0.1995 C   0  0  0  0  0  0  0  0  0  0  0  0
    3.2511    0.3471    1.4523 C   0  0  0  0  0  0  0  0  0  0  0  0
    2.9110   -0.2564    2.6039 N   0  0  0  0  0  0  0  0  0  0  0  0
    4.3118    1.2504    1.6222 N   0  0  0  0  0  0  0  0  0  0  0  0
    4.5045    1.2890    2.9436 C   0  0  0  0  0  0  0  0  0  0  0  0
    5.5409    2.0274    3.7513 C   0  0  0  0  0  0  0  0  0  0  0  0
    3.6253    0.3992    3.5324 N   0  0  0  0  0  0  0  0  0  0  0  0
    3.5042    0.0624    4.8963 C   0  0  0  0  0  0  0  0  0  0  0  0
    3.6358   -1.2787    5.2690 C   0  0  0  0  0  0  0  0  0  0  0  0
    3.6016   -1.6125    6.6216 C   0  0  0  0  0  0  0  0  0  0  0  0
    3.4028   -0.6336    7.5951 C   0  0  0  0  0  0  0  0  0  0  0  0
    3.8380   -3.2487    7.0965 Cl  0  0  0  0  0  0  0  0  0  0  0  0
    3.3050    1.0570    5.8615 C   0  0  0  0  0  0  0  0  0  0  0  0
    3.2465    0.6956    7.2071 C   0  0  0  0  0  0  0  0  0  0  0  0
    2.9909    1.9094    8.3993 Cl  0  0  0  0  0  0  0  0  0  0  0  0
    3.1770   -0.2299   -0.9399 O   0  0  0  0  0  0  0  0  0  0  0  0
  1  2  2  0
  2  3  1  0
  2 17  1  0
  3  4  2  0
  3  5  1  0
  4  8  1  0
  5  6  2  0
  6  7  1  0
  6  8  1  0
  8  9  1  0
  9 10  2  0
  9 14  1  0
 10 11  1  0
 11 12  2  0
 11 13  1  0
 12 15  1  0
 14 15  2  0
 15 16  1  0
M  END
>  <DRUGBANK_ID>  (1) 
DB07852

>  <COMMON_NAME>  (1) 
1-(3,5-DICHLOROPHENYL)-5-METHYL-1H-1,2,4-TRIAZOLE-3-CARBOXYLIC ACID

$$$$
