
     RDKit          3D

 34 37  0  0  0  0  0  0  0  0999 V2000
    0.7413   -0.3468    0.0866 C   0  0  0  0  0  0  0  0  0  0  0  0
   12.1115    2.5799   -9.8032 C   0  0  0  0  0  0  0  0  0  0  0  0
    0.4765    0.3167    1.4296 C   0  0  0  0  0  0  0  0  0  0  0  0
    4.2131    2.4748    3.1357 C   0  0  0  0  0  0  0  0  0  0  0  0
    5.1176    1.8901    2.2524 C   0  0  0  0  0  0  0  0  0  0  0  0
    2.8322    2.4201    2.8904 C   0  0  0  0  0  0  0  0  0  0  0  0
    4.6539    1.3555    1.0678 C   0  0  0  0  0  0  0  0  0  0  0  0
    5.4964   -1.2513   -2.2956 C   0  0  0  0  0  0  0  0  0  0  0  0
    4.4972   -0.6795   -1.4873 C   0  0  0  0  0  0  0  0  0  0  0  0
    6.5174   -2.6970   -4.8868 C   0  0  0  0  0  0  0  0  0  0  0  0
    7.3254   -3.2163   -5.8825 C   0  0  0  0  0  0  0  0  0  0  0  0
   10.8943    1.4852   -6.2911 C   0  0  0  0  0  0  0  0  0  0  0  0
    9.8187    1.0966   -8.4754 C   0  0  0  0  0  0  0  0  0  0  0  0
   10.7043   -0.0093   -5.9418 C   0  0  0  0  0  0  0  0  0  0  0  0
    9.6631   -0.4110   -8.1431 C   0  0  0  0  0  0  0  0  0  0  0  0
    5.0015    0.3527   -4.0196 C   0  0  0  0  0  0  0  0  0  0  0  0
    7.7711   -0.6721   -5.1002 C   0  0  0  0  0  0  0  0  0  0  0  0
   12.0330    2.3721   -8.3044 C   0  0  0  0  0  0  0  0  0  0  0  0
    5.7693   -0.7329   -3.5695 C   0  0  0  0  0  0  0  0  0  0  0  0
    6.7185   -1.3757   -4.4929 C   0  0  0  0  0  0  0  0  0  0  0  0
    3.9496    0.8735   -3.2525 C   0  0  0  0  0  0  0  0  0  0  0  0
    2.3544    1.7584    1.7612 C   0  0  0  0  0  0  0  0  0  0  0  0
    3.7762    0.4508   -1.9312 C   0  0  0  0  0  0  0  0  0  0  0  0
    3.2914    1.3856    0.7853 C   0  0  0  0  0  0  0  0  0  0  0  0
    8.5588   -1.2642   -6.0939 C   0  0  0  0  0  0  0  0  0  0  0  0
    8.3117   -2.5242   -6.5046 N   0  0  0  0  0  0  0  0  0  0  0  0
   10.9606    1.6923   -7.7548 N   0  0  0  0  0  0  0  0  0  0  0  0
    9.5582   -0.5342   -6.6910 N   0  0  0  0  0  0  0  0  0  0  0  0
    3.0340    1.8350   -3.9264 N   0  0  0  0  0  0  0  0  0  0  0  0
   12.9466    2.8165   -7.6047 O   0  0  0  0  0  0  0  0  0  0  0  0
    3.4100    2.3226   -4.9877 O   0  0  0  0  0  0  0  0  0  0  0  0
    1.9002    2.0487   -3.4458 O   0  0  0  0  0  0  0  0  0  0  0  0
    0.9924    1.6671    1.5735 O   0  0  0  0  0  0  0  0  0  0  0  0
    2.8234    1.5287   -0.9023 S   0  0  0  0  0  0  0  0  0  0  0  0
  3  1  1  0
  5  4  2  0
  6  4  1  0
  7  5  1  0
  9  8  2  0
 11 10  2  0
 14 12  1  0
 15 13  1  0
 18  2  1  0
 19  8  1  0
 19 16  2  0
 20 10  1  0
 20 17  2  0
 20 19  1  0
 21 16  1  0
 22  6  2  0
 23  9  1  0
 23 21  2  0
 24  7  2  0
 24 22  1  0
 25 17  1  0
 26 11  1  0
 26 25  2  0
 27 12  1  0
 27 13  1  0
 27 18  1  0
 28 14  1  0
 28 15  1  0
 28 25  1  0
 29 21  1  0
 30 18  2  0
 31 29  1  0
 32 29  2  0
 33  3  1  0
 33 22  1  0
 34 23  1  0
 34 24  1  0
M  CHG  2  29   1  31  -1
M  END
>  <DRUGBANK_ID>  (1) 
DB02177

>  <SECONDARY_ACCESSION_NUMBERS>  (1) 
EXPT01986

>  <COMMON_NAME>  (1) 
1-Acetyl-4-(4-{4-[(2-Ethoxyphenyl)Thio]-3-Nitrophenyl}Pyridin-2-Yl)Piperazine

$$$$
