1407
     RDKit          3D

 17 17  0  0  1  0  0  0  0  0999 V2000
    2.7358   -0.6060    0.0082 Cl  0  0  0  0  0  0  0  0  0  0  0  0
   -2.7268   -0.5933    0.0244 Cl  0  0  0  0  0  0  0  0  0  0  0  0
   -0.6616    4.3196   -1.2179 O   0  0  0  0  0  0  0  0  0  0  0  0
   -0.0102    3.9297    2.4438 N   0  0  0  0  0  0  0  0  0  0  0  0
    0.0002   -1.9152    0.1500 N   0  0  0  0  0  0  0  0  0  0  0  0
   -0.6941    4.4044    3.6603 C   0  0  0  0  0  0  0  0  0  0  0  0
   -0.6456    4.3788    1.1927 C   0  0  0  0  0  0  0  0  0  0  0  0
    0.0352    3.8288   -0.0724 C   0  0  0  0  0  0  0  0  0  0  0  0
   -2.1339    3.8676    3.7394 C   0  0  0  0  0  0  0  0  0  0  0  0
    0.0898    3.8637    4.8705 C   0  0  0  0  0  0  0  0  0  0  0  0
   -0.6788    5.9390    3.7147 C   0  0  0  0  0  0  0  0  0  0  0  0
    0.0169    2.3190   -0.1018 C   0  0  0  0  0  0  0  0  0  0  0  0
   -1.1922    1.6068   -0.0737 C   0  0  0  0  0  0  0  0  0  0  0  0
    1.2191    1.6043   -0.0783 C   0  0  0  0  0  0  0  0  0  0  0  0
    1.2091    0.2092   -0.0410 C   0  0  0  0  0  0  0  0  0  0  0  0
   -1.1959    0.2132   -0.0345 C   0  0  0  0  0  0  0  0  0  0  0  0
    0.0046   -0.5227   -0.0521 C   0  0  0  0  0  0  0  0  0  0  0  0
  1 15  1  0
  2 16  1  0
  3  8  1  0
  4  6  1  0
  4  7  1  0
  5 17  1  0
  6  9  1  0
  6 10  1  0
  6 11  1  0
  7  8  1  0
  8 12  1  0
 12 13  2  0
 12 14  1  0
 13 16  1  0
 14 15  2  0
 15 17  1  0
 16 17  2  0
M  END
>  <DRUGBANK_ID>  (1) 
DB01407

>  <COMMON_NAME>  (1) 
Clenbuterol

>  <CAS_NUMBER>  (1) 
37148-27-9

>  <UNII>  (1) 
XTZ6AXU7KN

>  <SYNONYMS>  (1) 
(±)-clenbuterol; 1-(4-Amino-3,5-dichloro-phenyl)-2-tert-butylamino-ethanol; 4-amino-3,5-dichloro-α-(((1,1-dimethylethyl)amino)methyl)benzenemethanol; 4-amino-α-((tert-butylamino)methyl)-3,5-dichlorobenzyl alcohol; Clenbuterol; Clenbutérol; Clenbuterolum

$$$$
