
     RDKit          3D

 17 17  0  0  1  0  0  0  0  0999 V2000
    0.9556   -0.4573    0.5997 C   0  0  0  0  0  0  0  0  0  0  0  0
    0.7368    0.6792   -3.0092 C   0  0  0  0  0  0  0  0  0  0  0  0
    0.7962   -0.8107   -3.3331 C   0  0  1  0  0  0  0  0  0  0  0  0
   -0.2911   -0.9681    0.5270 C   0  0  0  0  0  0  0  0  0  0  0  0
    0.9685    0.9427    0.0840 C   0  0  2  0  0  0  0  0  0  0  0  0
   -0.8063   -2.5479    0.3969 C   0  0  1  0  0  0  0  0  0  0  0  0
    0.2743   -1.3773   -2.1174 C   0  0  0  0  0  0  0  0  0  0  0  0
   -0.2989   -3.7496   -0.7785 C   0  0  0  0  0  0  0  0  0  0  0  0
   -0.0827   -1.3582   -4.3906 N   0  0  0  0  0  0  0  0  0  0  0  0
   -0.3092   -3.1918    1.6424 N   0  0  0  0  0  0  0  0  0  0  0  0
   -0.4263    1.3396    0.1548 N   0  0  0  0  0  0  0  0  0  0  0  0
   -0.9408   -1.3328   -1.8562 O   0  0  0  0  0  0  0  0  0  0  0  0
    1.3145   -1.9652   -1.4844 O   0  0  0  0  0  0  0  0  0  0  0  0
    0.6668   -4.4869   -0.5762 O   0  0  0  0  0  0  0  0  0  0  0  0
   -0.8008   -3.7283   -2.0370 O   0  0  0  0  0  0  0  0  0  0  0  0
   -1.2126    0.0682    0.2037 O   0  0  0  0  0  0  0  0  0  0  0  0
    1.8140    1.2474   -1.5611 S   0  0  0  0  0  0  0  0  0  0  0  0
  3  2  1  0
  3  9  1  6
  4  1  2  0
  5  1  1  0
  5 17  1  6
  6  4  1  0
  6 10  1  1
  7  3  1  0
  8  6  1  0
 11  5  1  0
 12  7  2  0
 13  7  1  0
 14  8  2  0
 15  8  1  0
 16  4  1  0
 16 11  1  0
 17  2  1  0
M  END
>  <DRUGBANK_ID>  (1) 
DB01974

>  <SECONDARY_ACCESSION_NUMBERS>  (1) 
EXPT00029

>  <COMMON_NAME>  (1) 
2-Amino-3-[5-(Amino-Carboxy-Methyl)-2,3-Dihydro-Isoxazol-3-Ylsulfanyl]-Propionic Acid

$$$$
