
     RDKit          3D

 11 10  0  0  0  0  0  0  0  0999 V2000
    1.1137   -0.0417   -0.1290 C   0  0  0  0  0  0  0  0  0  0  0  0
    0.3018   -1.0927   -0.8219 C   0  0  0  0  0  0  0  0  0  0  0  0
    2.3446   -0.0422   -0.2255 O   0  0  0  0  0  0  0  0  0  0  0  0
    0.3679    1.0020    0.6732 C   0  0  0  0  0  0  0  0  0  0  0  0
    0.6992    0.9144    2.1564 C   0  0  0  0  0  0  0  0  0  0  0  0
    2.1319    1.2735    2.4512 C   0  0  0  0  0  0  0  0  0  0  0  0
    2.5712    2.3195    3.1634 C   0  0  0  0  0  0  0  0  0  0  0  0
    1.7023    3.2681    3.8079 C   0  0  0  0  0  0  0  0  0  0  0  0
    2.1297    4.3023    4.5380 C   0  0  0  0  0  0  0  0  0  0  0  0
    1.1963    5.1991    5.1742 C   0  0  0  0  0  0  0  0  0  0  0  0
    1.5957    6.2368    5.9137 C   0  0  0  0  0  0  0  0  0  0  0  0
  1  4  1  0
  1  3  2  0
  2  1  1  0
  4  5  1  0
  5  6  1  0
  6  7  2  0
  7  8  1  0
  8  9  2  0
  9 10  1  0
 10 11  2  0
M  END
>  <DRUGBANK_ID>  (1) 
DB15618

>  <COMMON_NAME>  (1) 
(5E,7E,9)-decatrien-2-one

$$$$
