1487
     RDKit          3D

 21 21  0  0  0  0  0  0  0  0999 V2000
    0.8556   -0.5592   -0.0381 O   0  0  0  0  0  0  0  0  0  0  0  0
    4.3435    1.1627    1.6580 O   0  0  0  0  0  0  0  0  0  0  0  0
    0.5062    4.6886    1.9860 O   0  0  0  0  0  0  0  0  0  0  0  0
    3.1649    1.9710    3.3257 N   0  0  0  0  0  0  0  0  0  0  0  0
    0.7128    1.8003    4.4396 C   0  0  0  0  0  0  0  0  0  0  0  0
   -0.3789    2.9313    4.8040 C   0  0  0  0  0  0  0  0  0  0  0  0
    1.0702    1.0416    5.7331 C   0  0  0  0  0  0  0  0  0  0  0  0
    2.0924    2.6426    4.0419 C   0  0  0  0  0  0  0  0  0  0  0  0
    0.1242    0.7169    3.4247 C   0  0  0  0  0  0  0  0  0  0  0  0
   -1.7131    2.4680    5.3824 C   0  0  0  0  0  0  0  0  0  0  0  0
    2.1125   -0.0357    5.4859 C   0  0  0  0  0  0  0  0  0  0  0  0
    0.7916    0.3590    2.2417 C   0  0  0  0  0  0  0  0  0  0  0  0
   -1.0417   -0.0242    3.6328 C   0  0  0  0  0  0  0  0  0  0  0  0
    3.4938    1.9716    1.9945 C   0  0  0  0  0  0  0  0  0  0  0  0
    0.2805   -0.4156    1.1985 C   0  0  0  0  0  0  0  0  0  0  0  0
   -1.5388   -0.9082    2.6514 C   0  0  0  0  0  0  0  0  0  0  0  0
    2.8096    2.9116    0.9439 C   0  0  0  0  0  0  0  0  0  0  0  0
   -0.9286   -1.0310    1.4034 C   0  0  0  0  0  0  0  0  0  0  0  0
    1.3009    2.8956    0.5353 C   0  0  0  0  0  0  0  0  0  0  0  0
    0.3282    3.3451    1.5904 C   0  0  0  0  0  0  0  0  0  0  0  0
    2.2722   -0.4070   -0.1255 C   0  0  0  0  0  0  0  0  0  0  0  0
  1 15  1  0
  1 21  1  0
  2 14  2  0
  3 20  1  0
  4  8  1  0
  4 14  1  0
  5  6  1  0
  5  7  1  0
  5  8  1  0
  5  9  1  0
  6 10  1  0
  7 11  1  0
  9 12  2  0
  9 13  1  0
 12 15  1  0
 13 16  2  0
 14 17  1  0
 15 18  2  0
 16 18  1  0
 17 19  1  0
 19 20  1  0
M  END
>  <DRUGBANK_ID>  (1) 
DB01487

>  <SECONDARY_ACCESSION_NUMBERS>  (1) 
DB11402

>  <COMMON_NAME>  (1) 
Embutramide

>  <CAS_NUMBER>  (1) 
15687-14-6

>  <UNII>  (1) 
3P4TQG94T1

>  <SYNONYMS>  (1) 
Embutramid; Embutramide

$$$$
