2PD
     RDKit          3D

 33 36  0  0  0  0  0  0  0  0999 V2000
    0.9036    0.0124   -0.0758 O   0  0  0  0  0  0  0  0  0  0  0  0
    2.3536    0.0418   -0.1459 S   0  0  0  0  0  0  0  0  0  0  0  0
    3.0549    0.1425   -1.3976 O   0  0  0  0  0  0  0  0  0  0  0  0
    2.9570   -1.3325    0.7085 C   0  0  0  0  0  0  0  0  0  0  0  0
    2.6121   -2.5872    0.2031 C   0  0  0  0  0  0  0  0  0  0  0  0
    3.0593   -3.7295    0.8422 C   0  0  0  0  0  0  0  0  0  0  0  0
    2.6520   -4.8968    0.2652 O   0  0  0  0  0  0  0  0  0  0  0  0
    3.0994   -6.0898    0.8916 C   0  0  0  0  0  0  0  0  0  0  0  0
    3.8586   -3.5935    1.9768 C   0  0  0  0  0  0  0  0  0  0  0  0
    2.7936    1.3213    0.7862 N   0  0  0  0  0  0  0  0  0  0  0  0
    3.6217    1.2077    1.9007 C   0  0  0  0  0  0  0  0  0  0  0  0
    4.0315    0.0976    2.4210 N   0  0  0  0  0  0  0  0  0  0  0  0
    3.7190   -1.1522    1.8530 C   0  0  0  0  0  0  0  0  0  0  0  0
    4.1904   -2.3175    2.4720 C   0  0  0  0  0  0  0  0  0  0  0  0
    3.9946    2.5454    2.4060 C   0  0  0  0  0  0  0  0  0  0  0  0
    3.1297    3.4444    2.8845 C   0  0  0  0  0  0  0  0  0  0  0  0
    1.7661    3.2389    2.9732 O   0  0  0  0  0  0  0  0  0  0  0  0
    5.3532    2.9643    2.0927 C   0  0  0  0  0  0  0  0  0  0  0  0
    5.9456    2.2722    1.2718 O   0  0  0  0  0  0  0  0  0  0  0  0
    5.8396    4.0912    2.7257 N   0  0  0  0  0  0  0  0  0  0  0  0
    7.2746    4.4014    2.6901 C   0  0  0  0  0  0  0  0  0  0  0  0
    8.1104    3.4306    3.5569 C   0  0  0  0  0  0  0  0  0  0  0  0
    8.0188    1.9599    3.1101 C   0  0  0  0  0  0  0  0  0  0  0  0
    8.5203    1.7815    1.6677 C   0  0  0  0  0  0  0  0  0  0  0  0
    8.7514    0.9949    4.0243 C   0  0  0  0  0  0  0  0  0  0  0  0
    4.9944    5.0515    3.2378 N   0  0  0  0  0  0  0  0  0  0  0  0
    3.7261    4.7649    3.2856 C   0  0  0  0  0  0  0  0  0  0  0  0
    2.7744    5.8077    3.7442 C   0  0  0  0  0  0  0  0  0  0  0  0
    1.9106    5.5711    4.8178 C   0  0  0  0  0  0  0  0  0  0  0  0
    0.9187    6.5035    5.1245 C   0  0  0  0  0  0  0  0  0  0  0  0
    2.7388    7.0339    3.0726 C   0  0  0  0  0  0  0  0  0  0  0  0
    1.8180    8.0083    3.4611 C   0  0  0  0  0  0  0  0  0  0  0  0
    0.8702    7.7195    4.4433 C   0  0  0  0  0  0  0  0  0  0  0  0
  1  2  2  0
  2  3  2  0
  2  4  1  0
  2 10  1  0
  4  5  1  0
  4 13  2  0
  5  6  2  0
  6  7  1  0
  6  9  1  0
  7  8  1  0
  9 14  2  0
 10 11  1  0
 11 12  2  0
 11 15  1  0
 12 13  1  0
 13 14  1  0
 15 16  2  0
 15 18  1  0
 16 17  1  0
 16 27  1  0
 18 19  2  0
 18 20  1  0
 20 21  1  0
 20 26  1  0
 21 22  1  0
 22 23  1  0
 23 24  1  0
 23 25  1  0
 26 27  2  0
 27 28  1  0
 28 29  2  0
 28 31  1  0
 29 30  1  0
 30 33  2  0
 31 32  2  0
 32 33  1  0
M  END
>  <DRUGBANK_ID>  (1) 
DB06974

>  <COMMON_NAME>  (1) 
5-hydroxy-4-(7-methoxy-1,1-dioxido-2H-1,2,4-benzothiadiazin-3-yl)-2-(3-methylbutyl)-6-phenylpyridazin-3(2H)-one

$$$$
