
     RDKit          3D

  6  5  0  0  0  0  0  0  0  0999 V2000
    1.0070   -0.0210   -0.0681 C   0  0  0  0  0  0  0  0  0  0  0  0
    0.4853    1.1617    0.6827 C   0  0  0  0  0  0  0  0  0  0  0  0
   -0.2903    2.1213    0.1477 C   0  0  0  0  0  0  0  0  0  0  0  0
   -0.7490    3.2488    0.9888 C   0  0  0  0  0  0  0  0  0  0  0  0
   -1.5171    4.1328    0.3217 O   0  0  0  0  0  0  0  0  0  0  0  0
   -0.4690    3.3801    2.1698 O   0  0  0  0  0  0  0  0  0  0  0  0
  1  2  1  0
  2  3  2  0
  3  4  1  0
  4  5  1  0
  4  6  2  0
M  END
>  <DRUGBANK_ID>  (1) 
DB02074

>  <SECONDARY_ACCESSION_NUMBERS>  (1) 
EXPT00670

>  <COMMON_NAME>  (1) 
Butenoic Acid

>  <CAS_NUMBER>  (1) 
107-93-7

>  <UNII>  (1) 
YW5WZZ4O5Q

$$$$
