
     RDKit          3D

 26 30  0  0  1  0  0  0  0  0999 V2000
    1.1244    0.0596    0.0351 O   0  0  0  0  0  0  0  0  0  0  0  0
    2.3466    0.0514    0.0588 C   0  0  0  0  0  0  0  0  0  0  0  0
    3.1870    1.1917    0.1013 N   0  0  0  0  0  0  0  0  0  0  0  0
    4.5192    0.7732    0.0915 C   0  0  0  0  0  0  0  0  0  0  0  0
    4.5155   -0.6057    0.0454 C   0  0  0  0  0  0  0  0  0  0  0  0
    3.1969   -1.0513    0.0226 N   0  0  0  0  0  0  0  0  0  0  0  0
    2.9448   -2.4802   -0.1279 C   0  0  1  0  0  0  0  0  0  0  0  0
    2.6614   -2.9125   -1.5706 C   0  0  0  0  0  0  0  0  0  0  0  0
    2.3929   -4.2243   -1.8191 N   0  0  0  0  0  0  0  0  0  0  0  0
    2.2189   -4.5914   -3.1159 C   0  0  0  0  0  0  0  0  0  0  0  0
    2.4109   -3.7415   -4.1919 C   0  0  0  0  0  0  0  0  0  0  0  0
    2.7212   -2.4215   -3.9235 C   0  0  0  0  0  0  0  0  0  0  0  0
    2.7174   -1.9847   -2.6086 C   0  0  0  0  0  0  0  0  0  0  0  0
    4.1892   -3.2110    0.4634 C   0  0  0  0  0  0  0  0  0  0  0  0
    5.4897   -2.7614   -0.0427 O   0  0  0  0  0  0  0  0  0  0  0  0
    5.6443   -1.3983    0.0392 C   0  0  0  0  0  0  0  0  0  0  0  0
    6.8880   -0.7354    0.0871 C   0  0  0  0  0  0  0  0  0  0  0  0
    8.1655   -1.4460    0.0503 C   0  0  0  0  0  0  0  0  0  0  0  0
    8.5469   -2.2176   -1.0292 C   0  0  0  0  0  0  0  0  0  0  0  0
    7.9037   -2.5691   -2.3124 C   0  0  0  0  0  0  0  0  0  0  0  0
    9.7878   -2.7270   -0.8122 O   0  0  0  0  0  0  0  0  0  0  0  0
   10.2671   -2.2823    0.4045 N   0  0  0  0  0  0  0  0  0  0  0  0
    9.3050   -1.5013    0.9215 C   0  0  0  0  0  0  0  0  0  0  0  0
    9.5592   -0.8698    2.2469 C   0  0  0  0  0  0  0  0  0  0  0  0
    6.8969    0.6925    0.1153 C   0  0  0  0  0  0  0  0  0  0  0  0
    5.7068    1.4591    0.1211 C   0  0  0  0  0  0  0  0  0  0  0  0
  1  2  2  0
  2  3  1  0
  2  6  1  0
  3  4  1  0
  4  5  2  0
  4 26  1  0
  5  6  1  0
  5 16  1  0
  7  6  1  0
  7  8  1  6
  7 14  1  0
  8  9  2  0
  8 13  1  0
  9 10  1  0
 10 11  2  0
 11 12  1  0
 12 13  2  0
 14 15  1  0
 15 16  1  0
 16 17  2  0
 17 18  1  0
 17 25  1  0
 18 19  2  0
 18 23  1  0
 19 20  1  0
 19 21  1  0
 21 22  1  0
 22 23  2  0
 23 24  1  0
 25 26  2  0
M  END
>  <DRUGBANK_ID>  (1) 
DB16894

>  <COMMON_NAME>  (1) 
INCB-054329

>  <CAS_NUMBER>  (1) 
1628607-64-6

$$$$
