
     RDKit          3D

 32 33  0  0  1  0  0  0  0  0999 V2000
   -6.1231    5.7039   -3.9743 C   0  0  0  0  0  0  0  0  0  0  0  0
   -5.3030    4.5257   -3.4634 C   0  0  0  0  0  0  0  0  0  0  0  0
   -3.8946    4.4783   -4.0401 C   0  0  0  0  0  0  0  0  0  0  0  0
   -5.2429    4.5612   -2.0243 O   0  0  0  0  0  0  0  0  0  0  0  0
   -4.6204    5.6523   -1.4660 C   0  0  0  0  0  0  0  0  0  0  0  0
   -4.0735    6.5633   -2.0734 O   0  0  0  0  0  0  0  0  0  0  0  0
   -4.6888    5.5817    0.0527 C   0  0  2  0  0  0  0  0  0  0  0  0
   -4.8864    7.0968    0.6059 C   0  0  0  0  0  0  0  0  0  0  0  0
   -4.9189    7.4728    2.1123 C   0  0  0  0  0  0  0  0  0  0  0  0
   -3.6156    7.1518    2.8501 C   0  0  0  0  0  0  0  0  0  0  0  0
   -2.7585    7.9065    3.2541 O   0  0  0  0  0  0  0  0  0  0  0  0
   -3.3948    5.7401    3.1300 C   0  0  0  0  0  0  0  0  0  0  0  0
   -4.5444    5.2113    2.9807 N   0  0  0  0  0  0  0  0  0  0  0  0
   -5.6148    5.0081    2.5508 N   0  0  0  0  0  0  0  0  0  0  0  0
   -3.5075    4.7582    0.5773 N   0  0  0  0  0  0  0  0  0  0  0  0
   -3.4132    3.6467    1.4860 C   0  0  0  0  0  0  0  0  0  0  0  0
   -2.2852    3.4623    1.9876 O   0  0  0  0  0  0  0  0  0  0  0  0
   -4.8247    2.7146    2.0625 C   0  0  2  0  0  0  0  0  0  0  0  0
   -4.4306    1.5323    2.9355 C   0  0  0  0  0  0  0  0  0  0  0  0
   -3.3483    0.8003    2.2733 C   0  0  0  0  0  0  0  0  0  0  0  0
   -2.4161    0.0531    2.9517 C   0  0  0  0  0  0  0  0  0  0  0  0
   -1.4481   -0.2806    2.0479 N   0  0  0  0  0  0  0  0  0  0  0  0
   -1.6705    0.3283    0.8295 C   0  0  0  0  0  0  0  0  0  0  0  0
   -0.8862    0.4218   -0.3325 C   0  0  0  0  0  0  0  0  0  0  0  0
   -1.2876    1.2644   -1.3846 C   0  0  0  0  0  0  0  0  0  0  0  0
   -2.4600    1.9596   -1.3135 C   0  0  0  0  0  0  0  0  0  0  0  0
   -3.2864    1.7279   -0.2396 C   0  0  0  0  0  0  0  0  0  0  0  0
   -2.9026    0.9512    0.8996 C   0  0  0  0  0  0  0  0  0  0  0  0
   -5.8791    2.3946    1.0662 N   0  0  0  0  0  0  0  0  0  0  0  0
   -7.0759    3.0387    0.8562 C   0  0  0  0  0  0  0  0  0  0  0  0
   -7.7119    2.7195   -0.4706 C   0  0  0  0  0  0  0  0  0  0  0  0
   -7.6249    3.8314    1.6100 O   0  0  0  0  0  0  0  0  0  0  0  0
  1  2  1  0
  2  3  1  0
  2  4  1  0
  4  5  1  0
  5  6  2  0
  7 15  1  0
  7  8  1  1
  7  5  1  0
  8  9  1  0
  9 10  1  0
 10 11  2  0
 10 12  1  0
 12 13  2  0
 13 14  2  0
 15 16  1  0
 16 17  2  0
 18 29  1  0
 18 19  1  6
 18 16  1  0
 19 20  1  0
 20 21  2  0
 20 28  1  0
 21 22  1  0
 22 23  1  0
 23 24  1  0
 23 28  2  0
 24 25  2  0
 25 26  1  0
 26 27  2  0
 27 28  1  0
 29 30  1  0
 30 31  1  0
 30 32  2  0
M  CHG  2  13   1  14  -1
M  END
>  <DRUGBANK_ID>  (1) 
DB17536

>  <COMMON_NAME>  (1) 
Sirpiglenastat

>  <CAS_NUMBER>  (1) 
2079939-05-0

>  <UNII>  (1) 
9GGE6A0ZMK

>  <SYNONYMS>  (1) 
(-)-sirpiglenastat; (s)-isopropyl 2-((s)-2-acetamido-3-(1h-indol-3-yl)propanamido)-6-diazo-5-oxohexanoate; L-norleucine, n-acetyl-l-tryptophyl-6-diazo-5-oxo-, 1-methylethyl ester; Propan-2-yl (2s)-2-((n-acetyl-l-tryptophyl)amino)-6-diazo-5-oxohexanoate

$$$$
