
     RDKit          3D

 19 20  0  0  0  0  0  0  0  0999 V2000
    0.8584    0.1148    0.0728 C   0  0  0  0  0  0  0  0  0  0  0  0
    0.2678   -1.1187    0.0641 C   0  0  0  0  0  0  0  0  0  0  0  0
    2.3735    0.0294    0.0836 C   0  0  0  0  0  0  0  0  0  0  0  0
    0.1123    1.4470    0.0617 C   0  0  0  0  0  0  0  0  0  0  0  0
   -1.9307    2.8569    0.0388 N   0  0  0  0  0  0  0  0  0  0  0  0
   -1.1844   -1.4997    0.0530 C   0  0  0  0  0  0  0  0  0  0  0  0
    3.1025   -0.5672   -0.9642 C   0  0  0  0  0  0  0  0  0  0  0  0
    3.1024    0.5984    1.1439 C   0  0  0  0  0  0  0  0  0  0  0  0
   -1.7198   -1.9939   -1.2238 N   0  0  0  0  0  0  0  0  0  0  0  0
    5.2009   -0.0050    0.1057 C   0  0  0  0  0  0  0  0  0  0  0  0
    4.5043    0.5981    1.1480 C   0  0  0  0  0  0  0  0  0  0  0  0
    4.5074   -0.5912   -0.9506 C   0  0  0  0  0  0  0  0  0  0  0  0
    7.0922   -0.0296    0.1303 Br  0  0  0  0  0  0  0  0  0  0  0  0
   -1.2698    1.6697    0.0641 C   0  0  0  0  0  0  0  0  0  0  0  0
   -1.1738    3.9541    0.0144 C   0  0  0  0  0  0  0  0  0  0  0  0
    0.8396    2.6495    0.0270 C   0  0  0  0  0  0  0  0  0  0  0  0
   -3.1933   -1.9196   -1.1717 C   0  0  0  0  0  0  0  0  0  0  0  0
   -1.2755   -1.2012   -2.3781 C   0  0  0  0  0  0  0  0  0  0  0  0
    0.1993    3.8976    0.0171 C   0  0  0  0  0  0  0  0  0  0  0  0
  2  1  2  0
  3  1  1  0
  4  1  1  0
  5 14  2  0
  5 15  1  0
  6  2  1  0
  7  3  2  0
  8  3  1  0
  9  6  1  0
 10 11  1  0
 11  8  2  0
 12  7  1  0
 12 10  2  0
 13 10  1  0
 14  4  1  0
 15 19  2  0
 16  4  2  0
 17  9  1  0
 18  9  1  0
 19 16  1  0
M  END
>  <DRUGBANK_ID>  (1) 
DB04832

>  <COMMON_NAME>  (1) 
Zimelidine

>  <CAS_NUMBER>  (1) 
56775-88-3

>  <UNII>  (1) 
3J928617DW

>  <SYNONYMS>  (1) 
(Z)-3-(4'-Bromophenyl)-3-(3''-pyridyl)dimethylallylamine; (Z)-zimelidine; cis-zimelidine; Zimeldina; Zimeldine; Zimeldinum

$$$$
