
     RDKit          3D

 22 24  0  0  1  0  0  0  0  0999 V2000
    6.2942   -0.7731    0.2208 C   0  0  0  0  0  0  0  0  0  0  0  0
    4.9419   -1.1306    0.1849 C   0  0  0  0  0  0  0  0  0  0  0  0
    6.7007    0.5636    0.2048 C   0  0  0  0  0  0  0  0  0  0  0  0
    3.9416   -0.1641    0.1509 C   0  0  0  0  0  0  0  0  0  0  0  0
   -0.0864    4.7226    1.0269 C   0  0  0  0  0  0  0  0  0  0  0  0
    4.6449    3.3402    0.4865 C   0  0  0  0  0  0  0  0  0  0  0  0
    5.7161    1.5436    0.2243 C   0  0  0  0  0  0  0  0  0  0  0  0
    4.3833    1.1558    0.2173 C   0  0  0  0  0  0  0  0  0  0  0  0
    1.4329    4.5996    0.6158 C   0  0  2  0  0  0  0  0  0  0  0  0
    2.0650    4.7557   -0.8475 C   0  0  2  0  0  0  0  0  0  0  0  0
    2.2850    3.3333   -1.3600 C   0  0  2  0  0  0  0  0  0  0  0  0
    2.3615    2.5415   -0.0562 C   0  0  1  0  0  0  0  0  0  0  0  0
    5.8688    2.8983    0.2929 N   0  0  0  0  0  0  0  0  0  0  0  0
    3.7387    2.3472    0.2862 N   0  0  0  0  0  0  0  0  0  0  0  0
    3.2963    5.4737   -0.7558 O   0  0  0  0  0  0  0  0  0  0  0  0
    3.1722    3.0901   -2.4370 O   0  0  0  0  0  0  0  0  0  0  0  0
   -0.3030    5.4848   -1.1433 O   0  0  0  0  0  0  0  0  0  0  0  0
   -0.0655    2.5499   -0.9929 O   0  0  0  0  0  0  0  0  0  0  0  0
   -0.4122    4.0547   -2.9459 O   0  0  0  0  0  0  0  0  0  0  0  0
   -0.9835    3.8503    0.2758 O   0  0  0  0  0  0  0  0  0  0  0  0
    1.7573    3.2537    1.0344 O   0  0  0  0  0  0  0  0  0  0  0  0
   -0.6821    3.9582   -1.4243 P   0  0  0  0  0  0  0  0  0  0  0  0
  2  1  2  0
  3  1  1  0
  4  2  1  0
  7  3  2  0
  8  4  2  0
  8  7  1  0
  9  5  1  6
 10  9  1  0
 10 15  1  1
 11 10  1  0
 11 16  1  1
 12 11  1  0
 12 14  1  1
 13  6  2  0
 13  7  1  0
 14  6  1  0
 14  8  1  0
 20  5  1  0
 21  9  1  0
 21 12  1  0
 22 17  1  0
 22 18  1  0
 22 19  2  0
 22 20  1  0
M  END
>  <DRUGBANK_ID>  (1) 
DB03079

>  <SECONDARY_ACCESSION_NUMBERS>  (1) 
EXPT00084

>  <COMMON_NAME>  (1) 
Alpha-Ribazole-5'-Phosphate Derivative

$$$$
