
     RDKit          3D

 26 27  0  0  0  0  0  0  0  0999 V2000
    1.4254   -0.7818    0.1601 C   0  0  0  0  0  0  0  0  0  0  0  0
    0.8639   -1.4984    1.3923 C   0  0  0  0  0  0  0  0  0  0  0  0
    1.2091   -0.9224    2.7630 C   0  0  0  0  0  0  0  0  0  0  0  0
    0.5244    0.3822    3.0559 C   0  0  0  0  0  0  0  0  0  0  0  0
   -1.0218    0.4245    2.9421 C   0  0  0  0  0  0  0  0  0  0  0  0
   -1.7517    0.9894    3.9043 N   0  0  0  0  0  0  0  0  0  0  0  0
   -3.0334    1.0831    3.4328 C   0  0  0  0  0  0  0  0  0  0  0  0
   -3.1178    0.6025    2.1389 C   0  0  0  0  0  0  0  0  0  0  0  0
   -1.8083    0.3828    1.7685 N   0  0  0  0  0  0  0  0  0  0  0  0
   -1.4721    0.3340    0.3550 C   0  0  0  0  0  0  0  0  0  0  0  0
   -0.7240    1.5328   -0.3116 C   0  0  0  0  0  0  0  0  0  0  0  0
    0.3933    2.1523    0.4220 N   0  0  0  0  0  0  0  0  0  0  0  0
    1.4739    2.7791   -0.3089 C   0  0  0  0  0  0  0  0  0  0  0  0
    0.9275    4.1060   -0.7553 C   0  0  0  0  0  0  0  0  0  0  0  0
    0.0875    2.8764    1.6373 C   0  0  0  0  0  0  0  0  0  0  0  0
   -1.0280    3.8503    1.7802 C   0  0  0  0  0  0  0  0  0  0  0  0
   -4.3126    0.4672    1.4340 C   0  0  0  0  0  0  0  0  0  0  0  0
   -5.4632    0.7957    2.1217 C   0  0  0  0  0  0  0  0  0  0  0  0
   -5.4095    1.3309    3.4211 C   0  0  0  0  0  0  0  0  0  0  0  0
   -4.1887    1.5353    4.0720 C   0  0  0  0  0  0  0  0  0  0  0  0
   -6.6988    1.5864    4.0462 C   0  0  0  0  0  0  0  0  0  0  0  0
   -6.9383    2.0770    5.2709 C   0  0  0  0  0  0  0  0  0  0  0  0
   -8.2337    2.3446    5.9333 C   0  0  0  0  0  0  0  0  0  0  0  0
   -8.1733    2.8200    7.0955 O   0  0  0  0  0  0  0  0  0  0  0  0
   -9.4425    2.1315    5.4017 N   0  0  0  0  0  0  0  0  0  0  0  0
   -9.8456    1.6288    4.1658 O   0  0  0  0  0  0  0  0  0  0  0  0
  1  2  1  0
  2  3  1  0
  3  4  1  0
  4  5  1  0
  5  6  2  0
  6  7  1  0
  7  8  2  0
  8  9  1  0
  8 17  1  0
  9  5  1  0
  9 10  1  0
 10 11  1  0
 11 12  1  0
 12 13  1  0
 12 15  1  0
 13 14  1  0
 15 16  1  0
 17 18  2  0
 18 19  1  0
 19 20  2  0
 20  7  1  0
 21 19  1  0
 21 22  2  0
 22 23  1  0
 23 24  2  0
 23 25  1  0
 25 26  1  0
M  END
>  <DRUGBANK_ID>  (1) 
DB05223

>  <COMMON_NAME>  (1) 
Pracinostat

>  <CAS_NUMBER>  (1) 
929016-96-6

>  <UNII>  (1) 
GPO2JN4UON

>  <SYNONYMS>  (1) 
Pracinostat; Pracinostatum

$$$$
