
     RDKit          3D

  7  4  0  0  0  0  0  0  0  0999 V2000
    0.5290    0.1118   -0.0434 O   0  0  0  0  0  0  0  0  0  0  0  0
    0.6254   -0.9851   -1.2159 P   0  0  0  0  0  0  0  0  0  0  0  0
    2.0538   -0.7501   -1.6260 O   0  0  0  0  0  0  0  0  0  0  0  0
    0.6012   -2.2096   -0.3436 O   0  0  0  0  0  0  0  0  0  0  0  0
   -0.4892   -0.6196   -2.1336 O   0  0  0  0  0  0  0  0  0  0  0  0
    0.7016    1.9783   -0.7339 Na  0  0  0  0  0 15  0  0  0  0  0  0
    2.5947   -2.4930   -0.5865 Na  0  0  0  0  0 15  0  0  0  0  0  0
  1  2  1  0
  2  3  1  0
  2  4  2  0
  2  5  1  0
M  CHG  4   3  -1   5  -1   6   1   7   1
M  ISO  1   2  32
M  END
>  <DRUGBANK_ID>  (1) 
DB09370

>  <COMMON_NAME>  (1) 
Sodium phosphate P 32

>  <CAS_NUMBER>  (1) 
7635-46-3

>  <UNII>  (1) 
O181101B5G

>  <SYNONYMS>  (1) 
Disodium hydrogen phosphate (32P); Sodium phosphate (32P); Sodium phosphate 32P; Sodium phosphate P 32; Sodium phosphate P-32

$$$$
