SX3
     RDKit          3D

 18 19  0  0  0  0  0  0  0  0999 V2000
    1.9406   -0.0407    0.0491 Br  0  0  0  0  0  0  0  0  0  0  0  0
    0.0504   -0.0204   -0.0111 C   0  0  0  0  0  0  0  0  0  0  0  0
   -0.6225    1.1988   -0.0307 C   0  0  0  0  0  0  0  0  0  0  0  0
   -0.6577   -1.2111   -0.0201 C   0  0  0  0  0  0  0  0  0  0  0  0
   -2.0528   -1.1746   -0.0383 C   0  0  0  0  0  0  0  0  0  0  0  0
   -2.7564    0.0433   -0.0876 C   0  0  0  0  0  0  0  0  0  0  0  0
   -4.1400   -0.0038    0.1509 N   0  0  0  0  0  0  0  0  0  0  0  0
   -2.0250    1.2582   -0.0933 C   0  0  0  0  0  0  0  0  0  0  0  0
   -2.7465    2.5883   -0.0692 C   0  0  0  0  0  0  0  0  0  0  0  0
   -3.9773    2.6260   -0.0446 O   0  0  0  0  0  0  0  0  0  0  0  0
   -1.9899    3.7472    0.0924 N   0  0  0  0  0  0  0  0  0  0  0  0
   -2.5103    4.7736    0.9802 C   0  0  0  0  0  0  0  0  0  0  0  0
   -1.3386    5.3348    1.7911 C   0  0  2  0  0  0  0  0  0  0  0  0
   -1.8161    6.4017    2.7671 C   0  0  0  0  0  0  0  0  0  0  0  0
   -0.2404    5.8803    0.8574 C   0  0  0  0  0  0  0  0  0  0  0  0
   -1.0557    4.2552   -0.9135 C   0  0  0  0  0  0  0  0  0  0  0  0
    0.1770    4.8495   -0.2107 C   0  0  1  0  0  0  0  0  0  0  0  0
    1.1525    5.4592   -1.2124 C   0  0  0  0  0  0  0  0  0  0  0  0
  1  2  1  0
  2  4  2  0
  2  3  1  0
  3  8  2  0
  4  5  1  0
  5  6  2  0
  6  7  1  0
  8  6  1  0
  8  9  1  0
  9 11  1  0
  9 10  2  0
 11 16  1  0
 12 11  1  0
 13 12  1  0
 13 15  1  0
 13 14  1  1
 15 17  1  0
 17 16  1  0
 17 18  1  6
M  END
>  <DRUGBANK_ID>  (1) 
DB08579

>  <COMMON_NAME>  (1) 
4-bromo-2-{[(3R,5S)-3,5-dimethylpiperidin-1-yl]carbonyl}aniline

$$$$
