
     RDKit          3D

 12 12  0  0  1  0  0  0  0  0999 V2000
    1.0819    0.0692    0.4467 N   0  0  0  0  0  0  0  0  0  0  0  0
    0.3928    1.3504    0.1623 C   0  0  1  0  0  0  0  0  0  0  0  0
    0.8364    2.0414   -1.1589 C   0  0  0  0  0  0  0  0  0  0  0  0
    0.4131    1.4075   -2.5107 C   0  0  0  0  0  0  0  0  0  0  0  0
   -1.0218    1.7777   -2.9256 C   0  0  0  0  0  0  0  0  0  0  0  0
   -1.5155    0.9556   -4.1161 C   0  0  0  0  0  0  0  0  0  0  0  0
   -1.3038   -0.5483   -3.9391 C   0  0  0  0  0  0  0  0  0  0  0  0
    0.1646   -0.8629   -3.6977 C   0  0  0  0  0  0  0  0  0  0  0  0
    0.6140   -0.1058   -2.4768 C   0  0  0  0  0  0  0  0  0  0  0  0
   -1.1463    1.1682    0.2918 C   0  0  0  0  0  0  0  0  0  0  0  0
   -1.7307    1.9841    1.2026 O   0  0  0  0  0  0  0  0  0  0  0  0
   -1.8100    0.3624   -0.3325 O   0  0  0  0  0  0  0  0  0  0  0  0
  2  1  1  6
  2  3  1  0
  2 10  1  0
  3  4  1  0
  4  5  1  0
  4  9  1  0
  5  6  1  0
  6  7  1  0
  7  8  1  0
  8  9  1  0
 10 11  1  0
 10 12  2  0
M  END
>  <DRUGBANK_ID>  (1) 
DB02884

>  <SECONDARY_ACCESSION_NUMBERS>  (1) 
EXPT01686

>  <COMMON_NAME>  (1) 
3-Cyclohexyl-L-alanine

>  <CAS_NUMBER>  (1) 
27527-05-5

>  <UNII>  (1) 
GYR4SF0FVQ

>  <SYNONYMS>  (1) 
beta-Cyclohexyl-alanine; beta-Cyclohexyl-L-alanine; Î²-Cyclohexyl-alanine

$$$$
