
     RDKit          3D

 24 24  0  0  1  0  0  0  0  0999 V2000
    6.1122    0.1434   -4.0603 C   0  0  0  0  0  0  0  0  0  0  0  0
    5.4719    0.1131   -2.6817 C   0  0  0  0  0  0  0  0  0  0  0  0
    4.1743    0.7567   -2.6534 O   0  0  0  0  0  0  0  0  0  0  0  0
    4.1685    2.1163   -2.8725 C   0  0  0  0  0  0  0  0  0  0  0  0
    5.1237    2.7758   -3.2026 O   0  0  0  0  0  0  0  0  0  0  0  0
    2.8408    2.7211   -2.5925 C   0  0  1  0  0  0  0  0  0  0  0  0
    2.7828    4.1601   -2.7626 O   0  0  0  0  0  0  0  0  0  0  0  0
    1.9926    3.3740   -3.6597 C   0  0  2  0  0  0  0  0  0  0  0  0
    0.5347    3.4166   -3.4306 C   0  0  0  0  0  0  0  0  0  0  0  0
    0.0480    3.5411   -2.3103 O   0  0  0  0  0  0  0  0  0  0  0  0
   -0.3062    3.2072   -4.4772 N   0  0  0  0  0  0  0  0  0  0  0  0
   -0.0434    3.2047   -5.9272 C   0  0  1  0  0  0  0  0  0  0  0  0
   -0.3686    1.8231   -6.6011 C   0  0  0  0  0  0  0  0  0  0  0  0
   -1.8410    1.4848   -6.8791 C   0  0  0  0  0  0  0  0  0  0  0  0
   -2.3467    2.3206   -8.0699 C   0  0  0  0  0  0  0  0  0  0  0  0
   -2.2329    0.0825   -7.2720 C   0  0  0  0  0  0  0  0  0  0  0  0
   -0.6150    4.4868   -6.5984 C   0  0  0  0  0  0  0  0  0  0  0  0
    0.0591    5.1462   -7.3937 O   0  0  0  0  0  0  0  0  0  0  0  0
   -1.9438    4.8161   -6.4222 N   0  0  0  0  0  0  0  0  0  0  0  0
   -2.9317    3.9251   -5.8504 C   0  0  0  0  0  0  0  0  0  0  0  0
   -4.0235    4.5084   -5.0744 C   0  0  0  0  0  0  0  0  0  0  0  0
   -4.8474    5.3529   -6.0318 C   0  0  0  0  0  0  0  0  0  0  0  0
   -5.5782    4.5656   -7.1405 C   0  0  0  0  0  0  0  0  0  0  0  0
   -5.8029    6.0656   -5.1218 C   0  0  0  0  0  0  0  0  0  0  0  0
  1  2  1  0
  2  3  1  0
  3  4  1  0
  4  5  2  0
  6  7  1  0
  6  8  1  0
  6  4  1  6
  8  7  1  0
  8  9  1  1
  9 10  2  0
  9 11  1  0
 12 11  1  0
 12 13  1  6
 12 17  1  0
 13 14  1  0
 14 15  1  0
 14 16  1  0
 17 18  2  0
 17 19  1  0
 19 20  1  0
 20 21  1  0
 21 22  1  0
 22 23  1  0
 22 24  1  0
M  END
>  <DRUGBANK_ID>  (1) 
DB18145

>  <COMMON_NAME>  (1) 
Aloxistatin

>  <CAS_NUMBER>  (1) 
88321-09-9

>  <UNII>  (1) 
L5W337AOUR

>  <SYNONYMS>  (1) 
Ethyl (+)-(2s,3s)-2,3-epoxy-n-((s)-1-(isopentylcarbamoyl)-3-methylbutyl)succinamate; Loxistatin

$$$$
