
     RDKit          3D

 33 36  0  0  0  0  0  0  0  0999 V2000
    2.3354   -0.0399    0.0516 O   0  0  0  0  0  0  0  0  0  0  0  0
    0.9751   -0.0574    0.0145 C   0  0  0  0  0  0  0  0  0  0  0  0
    0.2425   -1.2446    0.0123 C   0  0  0  0  0  0  0  0  0  0  0  0
   -1.1523   -1.1981   -0.0505 C   0  0  0  0  0  0  0  0  0  0  0  0
   -1.7955    0.0363   -0.1712 C   0  0  0  0  0  0  0  0  0  0  0  0
   -3.2945    0.1416   -0.2350 C   0  0  0  0  0  0  0  0  0  0  0  0
   -3.8260    1.0026    0.9020 C   0  0  0  0  0  0  0  0  0  0  0  0
   -3.4514    2.4074    0.7874 N   0  0  0  0  0  0  0  0  0  0  0  0
   -4.3100    3.4921    0.8441 C   0  0  0  0  0  0  0  0  0  0  0  0
   -5.4079    3.4720    1.5709 N   0  0  0  0  0  0  0  0  0  0  0  0
   -6.1278    4.5686    1.7680 C   0  0  0  0  0  0  0  0  0  0  0  0
   -7.5845    4.5894    2.8645 S   0  0  0  0  0  0  0  0  0  0  0  0
   -7.7493    3.0055    3.8883 C   0  0  0  0  0  0  0  0  0  0  0  0
   -7.9434    1.7019    3.1213 C   0  0  0  0  0  0  0  0  0  0  0  0
   -6.7037    1.3677    2.3621 C   0  0  0  0  0  0  0  0  0  0  0  0
   -5.4682    1.3080    3.2969 C   0  0  0  0  0  0  0  0  0  0  0  0
   -4.9832    0.0404    3.5884 C   0  0  0  0  0  0  0  0  0  0  0  0
   -3.7775   -0.1119    4.2833 C   0  0  0  0  0  0  0  0  0  0  0  0
   -3.0250    0.9940    4.6898 C   0  0  0  0  0  0  0  0  0  0  0  0
   -1.5338    0.7835    5.5096 Cl  0  0  0  0  0  0  0  0  0  0  0  0
   -3.4760    2.2682    4.4346 C   0  0  0  0  0  0  0  0  0  0  0  0
   -4.7152    2.4076    3.8185 C   0  0  0  0  0  0  0  0  0  0  0  0
   -5.8338    5.6770    1.1536 N   0  0  0  0  0  0  0  0  0  0  0  0
   -4.8052    5.5906    0.3038 C   0  0  0  0  0  0  0  0  0  0  0  0
   -3.9653    4.5554    0.1899 N   0  0  0  0  0  0  0  0  0  0  0  0
   -4.6925    6.6034   -0.5753 N   0  0  0  0  0  0  0  0  0  0  0  0
   -4.5896    6.3500   -1.9983 C   0  0  0  0  0  0  0  0  0  0  0  0
   -3.2460    6.8631   -2.5425 C   0  0  0  0  0  0  0  0  0  0  0  0
   -2.9533    8.2627   -2.1437 N   0  0  0  0  0  0  0  0  0  0  0  0
   -3.0023    8.3553   -0.6637 C   0  0  0  0  0  0  0  0  0  0  0  0
   -4.3574    7.9147   -0.0733 C   0  0  0  0  0  0  0  0  0  0  0  0
   -1.0248    1.2069   -0.2025 C   0  0  0  0  0  0  0  0  0  0  0  0
    0.3468    1.1699   -0.0533 C   0  0  0  0  0  0  0  0  0  0  0  0
  1  2  1  0
  2  3  2  0
  2 33  1  0
  3  4  1  0
  4  5  2  0
  5  6  1  0
  5 32  1  0
  6  7  1  0
  7  8  1  0
  8  9  1  0
  9 10  2  0
  9 25  1  0
 10 11  1  0
 11 12  1  0
 11 23  2  0
 12 13  1  0
 13 14  1  0
 14 15  1  0
 15 16  1  0
 16 17  2  0
 16 22  1  0
 17 18  1  0
 18 19  2  0
 19 20  1  0
 19 21  1  0
 21 22  2  0
 23 24  1  0
 24 25  2  0
 24 26  1  0
 26 27  1  0
 26 31  1  0
 27 28  1  0
 28 29  1  0
 29 30  1  0
 30 31  1  0
 32 33  2  0
M  END
>  <DRUGBANK_ID>  (1) 
DB04020

>  <SECONDARY_ACCESSION_NUMBERS>  (1) 
EXPT02212

>  <COMMON_NAME>  (1) 
4-(2-{[4-{[3-(4-Chlorophenyl)Propyl]Sulfanyl}-6-(1-Piperazinyl)-1,3,5-Triazin-2-Yl]Amino}Ethyl)Phenol

$$$$
