
     RDKit          3D

 35 41  0  0  1  0  0  0  0  0999 V2000
    1.1116   -0.2244   -0.0920 C   0  0  0  0  0  0  0  0  0  0  0  0
    0.5492   -1.1775    0.8867 N   0  0  0  0  0  0  0  0  0  0  0  0
   -0.0500   -0.7026    2.1773 C   0  0  2  0  0  0  0  0  0  0  0  0
   -0.7056    0.6311    2.0702 C   0  0  0  0  0  0  0  0  0  0  0  0
    0.0166    1.4502    3.0815 C   0  0  0  0  0  0  0  0  0  0  0  0
   -0.1681    0.9683    4.7738 C   0  0  2  0  0  0  0  0  0  0  0  0
    0.2688    1.4265    6.4805 C   0  0  2  0  0  0  0  0  0  0  0  0
   -0.4854    0.6259    7.5122 C   0  0  0  0  0  0  0  0  0  0  0  0
   -0.0531   -0.7500    7.1234 C   0  0  0  0  0  0  0  0  0  0  0  0
   -0.3087   -1.7794    8.0200 C   0  0  0  0  0  0  0  0  0  0  0  0
   -0.1936   -3.0612    7.5680 C   0  0  0  0  0  0  0  0  0  0  0  0
    0.1565   -3.2745    6.2383 C   0  0  0  0  0  0  0  0  0  0  0  0
    0.4991   -2.2313    5.3551 C   0  0  0  0  0  0  0  0  0  0  0  0
    0.5546   -0.9640    5.8469 C   0  0  0  0  0  0  0  0  0  0  0  0
    1.0217    0.0931    4.7816 C   0  0  1  0  0  0  0  0  0  0  0  0
    0.9812   -0.9096    3.4875 C   0  0  1  0  0  0  0  0  0  0  0  0
    0.8206   -2.2959    4.0289 O   0  0  0  0  0  0  0  0  0  0  0  0
    2.1651    1.6175    4.9935 C   0  0  0  0  0  0  0  0  0  0  0  0
    1.8851    2.8829    6.2912 C   0  0  0  0  0  0  0  0  0  0  0  0
    0.5269    2.7705    6.8685 N   0  0  0  0  0  0  0  0  0  0  0  0
   -0.6040    3.7081    6.6528 C   0  0  0  0  0  0  0  0  0  0  0  0
   -0.9411    4.2821    5.2786 C   0  0  0  0  0  0  0  0  0  0  0  0
   -1.8032    3.4958    4.2257 C   0  0  0  0  0  0  0  0  0  0  0  0
   -0.3022    3.5565    4.2454 C   0  0  0  0  0  0  0  0  0  0  0  0
    0.3112   -4.6002    6.0148 O   0  0  0  0  0  0  0  0  0  0  0  0
   -1.5163    0.6451    4.9379 O   0  0  0  0  0  0  0  0  0  0  0  0
    0.8141   -2.5083    0.6461 C   0  0  0  0  0  0  0  0  0  0  0  0
    1.5955   -2.8504   -0.3108 O   0  0  0  0  0  0  0  0  0  0  0  0
    0.2768   -3.6257    1.4665 C   0  0  0  0  0  0  0  0  0  0  0  0
   -0.7651   -3.6309    2.3028 C   0  0  0  0  0  0  0  0  0  0  0  0
   -1.2106   -4.6481    3.1703 C   0  0  0  0  0  0  0  0  0  0  0  0
   -0.5008   -5.7226    3.7225 C   0  0  0  0  0  0  0  0  0  0  0  0
   -1.3552   -6.2764    4.6527 C   0  0  0  0  0  0  0  0  0  0  0  0
   -2.5289   -5.5927    4.7091 O   0  0  0  0  0  0  0  0  0  0  0  0
   -2.4170   -4.5729    3.8267 C   0  0  0  0  0  0  0  0  0  0  0  0
  1  2  1  0
  2 27  1  0
  3  2  1  6
  3  4  1  0
  3 16  1  0
  4  5  1  0
  5  6  1  0
  6  7  1  0
  6 15  1  0
  6 26  1  1
  7  8  1  1
  7 20  1  0
  8  9  1  0
  9 10  2  0
  9 14  1  0
 10 11  1  0
 11 12  2  0
 12 13  1  0
 12 25  1  0
 13 14  2  0
 13 17  1  0
 15 14  1  0
 15 16  1  0
 15 18  1  1
 16 17  1  1
 18 19  1  0
 19 20  1  0
 20 21  1  0
 21 22  1  0
 22 23  1  0
 22 24  1  0
 23 24  1  0
 27 28  2  0
 27 29  1  0
 29 30  2  0
 30 31  1  0
 31 32  1  0
 31 35  2  0
 32 33  2  0
 33 34  1  0
 34 35  1  0
M  END
>  <DRUGBANK_ID>  (1) 
DB13471

>  <COMMON_NAME>  (1) 
Nalfurafine

>  <CAS_NUMBER>  (1) 
152657-84-6

>  <UNII>  (1) 
XC41AVD567

>  <SYNONYMS>  (1) 
Nalfurafine

$$$$
