
     RDKit          3D

 28 30  0  0  0  0  0  0  0  0999 V2000
   -1.1926   -8.6407   -4.1463 N   0  0  0  0  0  0  0  0  0  0  0  0
   -0.1446   -7.7597   -4.3739 C   0  0  0  0  0  0  0  0  0  0  0  0
   -2.0712   -8.4669   -2.9660 C   0  0  2  0  0  0  0  0  0  0  0  0
   -2.0950   -7.0608   -2.2830 C   0  0  0  0  0  0  0  0  0  0  0  0
    0.7028   -7.8541   -5.6851 C   0  0  1  0  0  0  0  0  0  0  0  0
   -1.9007   -6.9427   -0.9380 N   0  0  0  0  0  0  0  0  0  0  0  0
    0.1505   -6.8876   -3.5340 O   0  0  0  0  0  0  0  0  0  0  0  0
    0.1890   -6.9745   -6.8824 C   0  0  0  0  0  0  0  0  0  0  0  0
   -2.3298   -6.0420   -2.9535 O   0  0  0  0  0  0  0  0  0  0  0  0
    2.0734   -7.4901   -5.2472 N   0  0  0  0  0  0  0  0  0  0  0  0
   -1.0463  -10.0593   -4.4498 C   0  0  0  0  0  0  0  0  0  0  0  0
   -1.9366   -5.6075   -0.2859 C   0  0  0  0  0  0  0  0  0  0  0  0
    0.1955   -5.4733   -6.6431 C   0  0  0  0  0  0  0  0  0  0  0  0
   -7.1359   -5.9884    2.2663 N   0  0  0  0  0  0  0  0  0  0  0  0
   -6.0634   -5.9178    1.2781 C   0  0  2  0  0  0  0  0  0  0  0  0
   -3.2425   -5.2959    0.5118 C   0  0  2  0  0  0  0  0  0  0  0  0
   -4.9107   -6.7403    1.8194 C   0  0  0  0  0  0  0  0  0  0  0  0
   -5.6107   -4.4792    0.9773 C   0  0  0  0  0  0  0  0  0  0  0  0
   -1.9203   -9.7790   -2.1940 C   0  0  0  0  0  0  0  0  0  0  0  0
   -3.7649   -6.6758    0.8745 C   0  0  0  0  0  0  0  0  0  0  0  0
   -4.4174   -4.4353   -0.0327 C   0  0  0  0  0  0  0  0  0  0  0  0
   -1.7538  -10.8135   -3.3197 C   0  0  0  0  0  0  0  0  0  0  0  0
    3.0838   -7.6523   -6.2595 C   0  0  0  0  0  0  0  0  0  0  0  0
   -0.5456   -4.9552   -5.5804 C   0  0  0  0  0  0  0  0  0  0  0  0
    0.9792   -4.5813   -7.3872 C   0  0  0  0  0  0  0  0  0  0  0  0
   -0.3451   -3.6628   -5.1109 C   0  0  0  0  0  0  0  0  0  0  0  0
    1.1271   -3.2519   -6.9635 C   0  0  0  0  0  0  0  0  0  0  0  0
    0.4850   -2.8011   -5.8098 C   0  0  0  0  0  0  0  0  0  0  0  0
  2  1  1  0
  3  1  1  0
  3  4  1  1
  5  2  1  0
  5  8  1  6
  6  4  1  0
  7  2  2  0
  9  4  2  0
 10  5  1  0
 11  1  1  0
 12  6  1  0
 13  8  1  0
 15 14  1  1
 15 18  1  0
 16 12  1  6
 17 20  1  0
 17 15  1  0
 18 21  1  0
 19  3  1  0
 20 16  1  0
 21 16  1  0
 22 11  1  0
 22 19  1  0
 23 10  1  0
 24 13  2  0
 25 13  1  0
 26 24  1  0
 27 25  2  0
 28 27  1  0
 28 26  2  0
M  END
>  <DRUGBANK_ID>  (1) 
DB08187

>  <COMMON_NAME>  (1) 
N-Methylphenylalanyl-N-[(trans-4-aminocyclohexyl)methyl]-L-prolinamide

$$$$
