
     RDKit          3D

 38 39  0  0  0  0  0  0  0  0999 V2000
    1.1022    0.1136   -0.0456 C   0  0  0  0  0  0  0  0  0  0  0  0
    0.5305   -0.8650    0.9116 C   0  0  0  0  0  0  0  0  0  0  0  0
   -0.3269   -0.3441    2.0190 C   0  0  0  0  0  0  0  0  0  0  0  0
    0.7872   -2.1767    0.8029 C   0  0  0  0  0  0  0  0  0  0  0  0
    1.7530   -2.8420   -0.1586 C   0  0  0  0  0  0  0  0  0  0  0  0
    3.0024   -3.5535    0.4286 C   0  0  0  0  0  0  0  0  0  0  0  0
    2.6882   -4.7383    1.2988 C   0  0  0  0  0  0  0  0  0  0  0  0
    3.2887   -6.0616    1.0290 C   0  0  0  0  0  0  0  0  0  0  0  0
    1.8247   -4.5969    2.3017 C   0  0  0  0  0  0  0  0  0  0  0  0
    1.2423   -5.5730    3.2435 C   0  0  0  0  0  0  0  0  0  0  0  0
    1.4847   -5.0706    4.6426 C   0  0  0  0  0  0  0  0  0  0  0  0
    0.8281   -3.7896    5.1715 C   0  0  0  0  0  0  0  0  0  0  0  0
   -0.0330   -3.8443    6.3870 C   0  0  0  0  0  0  0  0  0  0  0  0
    1.1504   -2.5688    4.7144 C   0  0  0  0  0  0  0  0  0  0  0  0
    0.8400   -1.2240    5.2899 C   0  0  0  0  0  0  0  0  0  0  0  0
    2.0056   -0.2001    5.3565 C   0  0  0  0  0  0  0  0  0  0  0  0
    2.8526    0.0919    4.1091 C   0  0  0  0  0  0  0  0  0  0  0  0
    2.8980    1.5133    3.6641 C   0  0  0  0  0  0  0  0  0  0  0  0
    3.5317   -0.7964    3.3570 C   0  0  0  0  0  0  0  0  0  0  0  0
    4.4464   -0.6115    2.1852 C   0  0  0  0  0  0  0  0  0  0  0  0
    5.8667   -1.2072    2.4223 C   0  0  0  0  0  0  0  0  0  0  0  0
    5.9980   -2.7235    2.7054 C   0  0  0  0  0  0  0  0  0  0  0  0
    6.7448   -3.6124    1.7754 C   0  0  0  0  0  0  0  0  0  0  0  0
    5.6552   -3.2382    3.9003 C   0  0  0  0  0  0  0  0  0  0  0  0
    5.5827   -4.6856    4.4135 C   0  0  0  0  0  0  0  0  0  0  0  0
    4.6663   -5.0210    5.6314 C   0  0  0  0  0  0  0  0  0  0  0  0
    3.9759   -4.1515    6.4008 C   0  0  0  0  0  0  0  0  0  0  0  0
    3.8500   -2.7437    6.0271 C   0  0  0  0  0  0  0  0  0  0  0  0
    2.9576   -4.4980    7.4173 C   0  0  0  0  0  0  0  0  0  0  0  0
    2.4351   -3.6300    8.1343 O   0  0  0  0  0  0  0  0  0  0  0  0
    2.5227   -5.8773    7.5064 C   0  0  0  0  0  0  0  0  0  0  0  0
    3.2743   -6.8432    6.8479 C   0  0  0  0  0  0  0  0  0  0  0  0
    2.9395   -8.1788    7.0710 C   0  0  0  0  0  0  0  0  0  0  0  0
    1.8513   -8.5208    7.8910 C   0  0  0  0  0  0  0  0  0  0  0  0
    1.0141   -7.5389    8.4108 C   0  0  0  0  0  0  0  0  0  0  0  0
    1.3518   -6.2099    8.2206 C   0  0  0  0  0  0  0  0  0  0  0  0
    4.3650   -6.4744    5.8863 C   0  0  0  0  0  0  0  0  0  0  0  0
    4.9426   -7.3550    5.2525 O   0  0  0  0  0  0  0  0  0  0  0  0
  1  2  1  0
  2  3  1  0
  2  4  2  3
  4  5  1  0
  5  6  1  0
  6  7  1  0
  7  8  1  0
  7  9  2  0
  9 10  1  0
 10 11  1  0
 11 12  1  0
 12 13  1  0
 12 14  2  0
 14 15  1  0
 15 16  1  0
 16 17  1  0
 17 18  1  0
 17 19  2  0
 19 20  1  0
 20 21  1  0
 21 22  1  0
 22 23  1  0
 22 24  2  0
 24 25  1  0
 25 26  1  0
 26 27  2  0
 26 37  1  0
 27 28  1  0
 27 29  1  0
 29 30  2  0
 29 31  1  0
 31 32  2  0
 31 36  1  0
 32 33  1  0
 32 37  1  0
 33 34  2  0
 34 35  1  0
 35 36  2  0
 37 38  2  0
M  END
>  <DRUGBANK_ID>  (1) 
DB15381

>  <COMMON_NAME>  (1) 
Menaquinone

>  <CAS_NUMBER>  (1) 
1182-68-9

>  <UNII>  (1) 
12V8PA4WCH

$$$$
