
     RDKit          3D

 23 25  0  0  0  0  0  0  0  0999 V2000
    0.9927    0.0914   -0.0281 C   0  0  0  0  0  0  0  0  0  0  0  0
    0.1768    1.3383    0.0230 C   0  0  0  0  0  0  0  0  0  0  0  0
   -1.1600    1.3306    0.0618 C   0  0  0  0  0  0  0  0  0  0  0  0
    0.4586   -1.0173   -0.1392 O   0  0  0  0  0  0  0  0  0  0  0  0
    2.3626    0.1962   -0.0495 N   0  0  0  0  0  0  0  0  0  0  0  0
    5.2258    4.9055    0.5209 N   0  0  0  0  0  0  0  0  0  0  0  0
    6.2732    5.1374   -0.2677 C   0  0  0  0  0  0  0  0  0  0  0  0
    6.7260    4.3236   -1.2208 N   0  0  0  0  0  0  0  0  0  0  0  0
    6.0844    3.1505   -1.4072 C   0  0  0  0  0  0  0  0  0  0  0  0
    4.9899    2.7776   -0.6025 C   0  0  0  0  0  0  0  0  0  0  0  0
    4.2547    1.5603   -0.6904 C   0  0  0  0  0  0  0  0  0  0  0  0
    3.1449    1.3466    0.1264 C   0  0  0  0  0  0  0  0  0  0  0  0
    2.8231    2.2884    1.0954 C   0  0  0  0  0  0  0  0  0  0  0  0
    3.5286    3.4827    1.1759 C   0  0  0  0  0  0  0  0  0  0  0  0
    4.6051    3.7409    0.3495 C   0  0  0  0  0  0  0  0  0  0  0  0
    6.5858    2.2873   -2.4079 N   0  0  0  0  0  0  0  0  0  0  0  0
    7.6786    2.5734   -3.2485 C   0  0  0  0  0  0  0  0  0  0  0  0
    8.9340    2.8060   -2.6775 C   0  0  0  0  0  0  0  0  0  0  0  0
   10.0210    3.1550   -3.4709 C   0  0  0  0  0  0  0  0  0  0  0  0
    9.8693    3.3091   -4.8455 C   0  0  0  0  0  0  0  0  0  0  0  0
    8.6199    3.0923   -5.4289 C   0  0  0  0  0  0  0  0  0  0  0  0
    7.5288    2.7148   -4.6350 C   0  0  0  0  0  0  0  0  0  0  0  0
   11.7076    3.4243   -2.6635 Br  0  0  0  0  0  0  0  0  0  0  0  0
  1  2  1  0
  1  4  2  0
  1  5  1  0
  2  3  2  0
  5 12  1  0
  6  7  2  0
  6 15  1  0
  7  8  1  0
  8  9  2  0
  9 10  1  0
  9 16  1  0
 10 11  1  0
 10 15  2  0
 11 12  2  0
 12 13  1  0
 13 14  2  0
 14 15  1  0
 16 17  1  0
 17 18  2  0
 17 22  1  0
 18 19  1  0
 19 20  2  0
 19 23  1  0
 20 21  1  0
 21 22  2  0
M  END
>  <DRUGBANK_ID>  (1) 
DB07662

>  <COMMON_NAME>  (1) 
PD-168393

>  <CAS_NUMBER>  (1) 
194423-15-9

>  <UNII>  (1) 
3R996Y9T0I

>  <SYNONYMS>  (1) 
4-[(3-bromophenyl)amino]-6-acrylamidoquinazoline

$$$$
