693
     RDKit          3D

 34 37  0  0  0  0  0  0  0  0999 V2000
   -8.7142   -7.4858   -0.9551 C   0  0  0  0  0  0  0  0  0  0  0  0
   -8.4291   -7.8562   -2.2911 C   0  0  0  0  0  0  0  0  0  0  0  0
   -8.2561   -6.9225   -3.3263 C   0  0  0  0  0  0  0  0  0  0  0  0
   -8.3839   -5.5847   -2.9773 C   0  0  0  0  0  0  0  0  0  0  0  0
   -8.6672   -5.1662   -1.6889 C   0  0  0  0  0  0  0  0  0  0  0  0
   -8.8390   -6.1139   -0.6707 C   0  0  0  0  0  0  0  0  0  0  0  0
   -8.8692   -8.4952    0.1209 C   0  0  0  0  0  0  0  0  0  0  0  0
   -9.1327   -8.1418    1.3644 N   0  0  0  0  0  0  0  0  0  0  0  0
   -8.7402   -9.7819   -0.1422 N   0  0  0  0  0  0  0  0  0  0  0  0
   -8.3061   -4.4169   -3.6884 N   0  0  0  0  0  0  0  0  0  0  0  0
   -8.7458   -3.8132   -1.6012 N   0  0  0  0  0  0  0  0  0  0  0  0
   -8.5661   -3.3704   -2.8373 C   0  0  0  0  0  0  0  0  0  0  0  0
   -8.5555   -1.9822   -3.3186 C   0  0  0  0  0  0  0  0  0  0  0  0
   -7.6946   -1.1084   -2.6202 C   0  0  0  0  0  0  0  0  0  0  0  0
   -7.5162    0.2392   -2.9286 C   0  0  0  0  0  0  0  0  0  0  0  0
   -6.5814    1.1721   -2.0927 C   0  0  2  0  0  0  0  0  0  0  0  0
   -5.6341    0.4302   -1.0616 C   0  0  0  0  0  0  0  0  0  0  0  0
   -5.2480   -0.7430   -1.3396 O   0  0  0  0  0  0  0  0  0  0  0  0
   -5.2202    1.0759   -0.0529 O   0  0  0  0  0  0  0  0  0  0  0  0
   -7.3991    2.3664   -1.5195 C   0  0  0  0  0  0  0  0  0  0  0  0
   -6.7294    3.5857   -0.8425 C   0  0  0  0  0  0  0  0  0  0  0  0
   -6.7024    4.6346   -1.5653 O   0  0  0  0  0  0  0  0  0  0  0  0
   -6.4602    3.5228    0.3911 O   0  0  0  0  0  0  0  0  0  0  0  0
   -8.2874    0.6927   -4.0111 C   0  0  0  0  0  0  0  0  0  0  0  0
   -9.2113   -0.1580   -4.7184 C   0  0  0  0  0  0  0  0  0  0  0  0
   -9.3398   -1.5657   -4.4280 C   0  0  0  0  0  0  0  0  0  0  0  0
  -10.0872   -2.3811   -5.0962 O   0  0  0  0  0  0  0  0  0  0  0  0
  -10.0934    0.4758   -5.7311 C   0  0  0  0  0  0  0  0  0  0  0  0
  -11.4891    0.4619   -5.5757 C   0  0  0  0  0  0  0  0  0  0  0  0
  -12.3367    1.0181   -6.5312 C   0  0  0  0  0  0  0  0  0  0  0  0
  -11.8046    1.6299   -7.6613 C   0  0  0  0  0  0  0  0  0  0  0  0
  -10.4211    1.6826   -7.8300 C   0  0  0  0  0  0  0  0  0  0  0  0
   -9.5722    1.1090   -6.8741 C   0  0  0  0  0  0  0  0  0  0  0  0
  -12.0675   -0.0573   -4.4797 F   0  0  0  0  0  0  0  0  0  0  0  0
  1  2  2  0
  1  6  1  0
  1  7  1  0
  2  3  1  0
  3  4  2  0
  4  5  1  0
  4 10  1  0
  5  6  2  0
  5 11  1  0
  7  8  1  0
  7  9  2  0
 10 12  1  0
 11 12  2  0
 12 13  1  0
 13 14  2  0
 13 26  1  0
 14 15  1  0
 15 24  2  0
 16 20  1  1
 16 17  1  0
 16 15  1  0
 17 18  2  0
 17 19  1  0
 20 21  1  0
 21 22  2  0
 21 23  1  0
 24 25  1  0
 25 26  2  0
 25 28  1  0
 26 27  1  0
 28 29  2  0
 28 33  1  0
 29 30  1  0
 29 34  1  0
 30 31  2  0
 31 32  1  0
 32 33  2  0
M  CHG  4   9   1  19  -1  23  -1  27  -1
M  END
>  <DRUGBANK_ID>  (1) 
DB01741

>  <SECONDARY_ACCESSION_NUMBERS>  (1) 
EXPT00281

>  <COMMON_NAME>  (1) 
CRA_17693

$$$$
