
     RDKit          3D

 12 11  0  0  1  0  0  0  0  0999 V2000
   -2.8997    0.7276   -2.4762 C   0  0  0  0  0  0  0  0  0  0  0  0
   -0.3850   -1.1884    0.8262 C   0  0  0  0  0  0  0  0  0  0  0  0
   -1.8994    0.2991   -1.4323 C   0  0  1  0  0  0  0  0  0  0  0  0
   -0.2922    0.3182    1.1206 C   0  0  2  0  0  0  0  0  0  0  0  0
   -0.6747    1.2385   -1.3356 C   0  0  2  0  0  0  0  0  0  0  0  0
    0.2104    1.1869   -0.0524 C   0  0  2  0  0  0  0  0  0  0  0  0
   -3.4797    1.8021   -2.4316 O   0  0  0  0  0  0  0  0  0  0  0  0
    0.8923   -1.7408    0.5251 O   0  0  0  0  0  0  0  0  0  0  0  0
   -2.6605    0.2435   -0.2262 O   0  0  0  0  0  0  0  0  0  0  0  0
    0.5841    0.4990    2.2424 O   0  0  0  0  0  0  0  0  0  0  0  0
   -1.0924    2.6096   -1.4438 O   0  0  0  0  0  0  0  0  0  0  0  0
    1.5826    0.8735   -0.3619 O   0  0  0  0  0  0  0  0  0  0  0  0
  3  1  1  0
  3  9  1  1
  4  2  1  0
  4 10  1  1
  5 11  1  1
  5  6  1  0
  5  3  1  0
  6  4  1  0
  6 12  1  6
  7  1  2  0
  8  2  1  0
M  END
>  <DRUGBANK_ID>  (1) 
DB01914

>  <SECONDARY_ACCESSION_NUMBERS>  (1) 
EXPT01609; DB11280

>  <COMMON_NAME>  (1) 
D-glucose

>  <CAS_NUMBER>  (1) 
50-99-7

>  <UNII>  (1) 
5SL0G7R0OK

>  <SYNONYMS>  (1) 
aldehydo-D-glucose; Anhydrous dextrose; D-Glucose in linear form; D-glucose, anhydrous; D(+)-Glucose; Dextrose anhydrous; Dextrose, anhydrous; Glucose anhydrous; Glucose, anhydrous

$$$$
