CT6
     RDKit          3D

 24 27  0  0  0  0  0  0  0  0999 V2000
   -1.5567   -0.0191   -0.0136 Br  0  0  0  0  0  0  0  0  0  0  0  0
    0.3346   -0.0258   -0.0066 C   0  0  0  0  0  0  0  0  0  0  0  0
    1.0226   -1.2449   -0.0042 C   0  0  0  0  0  0  0  0  0  0  0  0
    2.4296   -1.2813    0.0113 C   0  0  0  0  0  0  0  0  0  0  0  0
    3.1122   -0.0504    0.0321 C   0  0  0  0  0  0  0  0  0  0  0  0
    2.4183    1.1679    0.0128 C   0  0  0  0  0  0  0  0  0  0  0  0
    1.0257    1.1812   -0.0054 C   0  0  0  0  0  0  0  0  0  0  0  0
    3.1631   -2.5663   -0.0138 C   0  0  0  0  0  0  0  0  0  0  0  0
    3.0006   -3.4605   -1.0845 C   0  0  0  0  0  0  0  0  0  0  0  0
    3.6816   -4.6859   -1.1466 C   0  0  0  0  0  0  0  0  0  0  0  0
    4.5597   -4.9544    0.0281 N   0  0  0  0  0  0  0  0  0  0  0  0
    5.3353   -5.9867    0.3491 N   0  0  0  0  0  0  0  0  0  0  0  0
    5.9843   -5.7292    1.5575 C   0  0  0  0  0  0  0  0  0  0  0  0
    4.6576   -3.9721    1.0444 C   0  0  0  0  0  0  0  0  0  0  0  0
    5.5758   -4.4453    2.0504 C   0  0  0  0  0  0  0  0  0  0  0  0
    3.9844   -2.7851    1.0363 N   0  0  0  0  0  0  0  0  0  0  0  0
    3.5998   -5.4773   -2.2717 N   0  0  0  0  0  0  0  0  0  0  0  0
    4.1736   -6.7884   -2.4632 C   0  0  0  0  0  0  0  0  0  0  0  0
    3.1913   -7.9191   -2.3187 C   0  0  0  0  0  0  0  0  0  0  0  0
    1.8392   -7.7327   -2.0195 C   0  0  0  0  0  0  0  0  0  0  0  0
    1.0264   -8.8454   -1.8862 C   0  0  0  0  0  0  0  0  0  0  0  0
    1.4914  -10.1089   -1.8858 N   0  0  0  0  0  0  0  0  0  0  0  0
    2.8051  -10.2793   -2.1248 C   0  0  0  0  0  0  0  0  0  0  0  0
    3.6660   -9.2356   -2.4207 C   0  0  0  0  0  0  0  0  0  0  0  0
  1  2  1  0
  2  3  2  0
  2  7  1  0
  3  4  1  0
  4  5  2  0
  4  8  1  0
  5  6  1  0
  6  7  2  0
  8  9  2  0
  8 16  1  0
  9 10  1  0
 10 11  2  0
 10 17  1  0
 11 12  1  0
 11 14  1  0
 12 13  1  0
 13 15  2  0
 14 15  1  0
 14 16  2  0
 17 18  1  0
 18 19  1  0
 19 20  2  0
 19 24  1  0
 20 21  1  0
 21 22  2  0
 22 23  1  0
 23 24  2  0
M  CHG  1  11   1
M  END
>  <DRUGBANK_ID>  (1) 
DB07595

>  <COMMON_NAME>  (1) 
(5Z)-5-(3-BROMOCYCLOHEXA-2,5-DIEN-1-YLIDENE)-N-(PYRIDIN-4-YLMETHYL)-1,5-DIHYDROPYRAZOLO[1,5-A]PYRIMIDIN-7-AMINE

$$$$
