
     RDKit          3D

 29 32  0  0  0  0  0  0  0  0999 V2000
   -3.9861   -2.9448   -8.3555 C   0  0  0  0  0  0  0  0  0  0  0  0
   -4.3336   -1.5224   -8.8105 C   0  0  0  0  0  0  0  0  0  0  0  0
   -5.6601   -1.5460   -9.3629 O   0  0  0  0  0  0  0  0  0  0  0  0
   -4.2681   -0.5400   -7.6394 C   0  0  0  0  0  0  0  0  0  0  0  0
   -3.3911   -0.8001   -6.6358 N   0  0  0  0  0  0  0  0  0  0  0  0
   -3.3111    0.0841   -5.6084 C   0  0  0  0  0  0  0  0  0  0  0  0
   -4.0224    1.2737   -5.5133 C   0  0  0  0  0  0  0  0  0  0  0  0
   -4.9150    1.5197   -6.5691 C   0  0  0  0  0  0  0  0  0  0  0  0
   -5.0418    0.6162   -7.6339 C   0  0  0  0  0  0  0  0  0  0  0  0
   -3.8151    2.1857   -4.3767 C   0  0  0  0  0  0  0  0  0  0  0  0
   -4.8622    2.3923   -3.5621 N   0  0  0  0  0  0  0  0  0  0  0  0
   -4.7521    3.2730   -2.5347 C   0  0  0  0  0  0  0  0  0  0  0  0
   -3.5304    3.9138   -2.2600 C   0  0  0  0  0  0  0  0  0  0  0  0
   -2.4500    3.6830   -3.0354 N   0  0  0  0  0  0  0  0  0  0  0  0
   -2.6220    2.8230   -4.0860 C   0  0  0  0  0  0  0  0  0  0  0  0
   -3.4073    4.7915   -1.1906 N   0  0  0  0  0  0  0  0  0  0  0  0
   -4.6399    5.3402   -0.6626 C   0  0  0  0  0  0  0  0  0  0  0  0
   -5.6603    4.2138   -0.4853 C   0  0  0  0  0  0  0  0  0  0  0  0
   -6.3207    4.0566    0.5254 O   0  0  0  0  0  0  0  0  0  0  0  0
   -5.8800    3.5420   -1.6986 N   0  0  0  0  0  0  0  0  0  0  0  0
   -7.2715    3.3651   -2.1250 C   0  0  1  0  0  0  0  0  0  0  0  0
   -7.9974    4.7479   -2.0397 C   0  0  0  0  0  0  0  0  0  0  0  0
   -7.6598    5.6797   -3.2081 C   0  0  0  0  0  0  0  0  0  0  0  0
   -7.8419    5.0451   -4.5878 C   0  0  1  0  0  0  0  0  0  0  0  0
   -7.1339    3.7011   -4.6740 C   0  0  0  0  0  0  0  0  0  0  0  0
   -7.4484    2.7249   -3.5150 C   0  0  0  0  0  0  0  0  0  0  0  0
   -9.1916    4.9992   -5.0507 O   0  0  0  0  0  0  0  0  0  0  0  0
  -10.0861    4.1635   -4.3459 C   0  0  0  0  0  0  0  0  0  0  0  0
   -3.3669   -1.0800   -9.9132 C   0  0  0  0  0  0  0  0  0  0  0  0
  1  2  1  0
  2  3  1  0
  2  4  1  0
  2 29  1  0
  4  5  2  0
  4  9  1  0
  5  6  1  0
  6  7  2  0
  7  8  1  0
  7 10  1  0
  8  9  2  0
 10 11  2  0
 10 15  1  0
 11 12  1  0
 12 13  2  0
 12 20  1  0
 13 14  1  0
 13 16  1  0
 14 15  2  0
 16 17  1  0
 17 18  1  0
 18 19  2  0
 18 20  1  0
 21 22  1  0
 21 26  1  0
 21 20  1  6
 22 23  1  0
 23 24  1  0
 24 25  1  0
 24 27  1  1
 25 26  1  0
 27 28  1  0
M  END
>  <DRUGBANK_ID>  (1) 
DB12570

>  <COMMON_NAME>  (1) 
Onatasertib

>  <CAS_NUMBER>  (1) 
1228013-30-6

>  <UNII>  (1) 
I8RA3543SY

$$$$
