710
     RDKit          3D

 32 37  0  0  0  0  0  0  0  0999 V2000
    2.2351   -0.6892    0.0666 C   0  0  0  0  0  0  0  0  0  0  0  0
    2.2183    0.7133    0.0624 C   0  0  0  0  0  0  0  0  0  0  0  0
    1.0045    1.4185    0.0577 C   0  0  0  0  0  0  0  0  0  0  0  0
    1.0474   -1.4255    0.0774 C   0  0  0  0  0  0  0  0  0  0  0  0
   -0.1747   -0.7313    0.0944 C   0  0  0  0  0  0  0  0  0  0  0  0
   -0.1704    0.6584    0.0558 C   0  0  0  0  0  0  0  0  0  0  0  0
   -1.4920    1.0171    0.0041 N   0  0  0  0  0  0  0  0  0  0  0  0
   -2.3425   -0.0217   -0.0661 N   0  0  0  0  0  0  0  0  0  0  0  0
   -1.5453   -1.0857    0.0714 C   0  0  0  0  0  0  0  0  0  0  0  0
   -2.0632   -2.4703    0.0589 C   0  0  0  0  0  0  0  0  0  0  0  0
   -1.7695   -3.4619    0.9643 N   0  0  0  0  0  0  0  0  0  0  0  0
   -2.8453   -3.0049   -0.9297 C   0  0  0  0  0  0  0  0  0  0  0  0
   -2.9280   -4.3935   -0.6737 C   0  0  0  0  0  0  0  0  0  0  0  0
   -2.3335   -4.6531    0.5557 C   0  0  0  0  0  0  0  0  0  0  0  0
   -2.3432   -5.9326    1.1326 C   0  0  0  0  0  0  0  0  0  0  0  0
   -3.0063   -6.9584    0.4352 C   0  0  0  0  0  0  0  0  0  0  0  0
   -3.5921   -6.7296   -0.8150 C   0  0  0  0  0  0  0  0  0  0  0  0
   -3.4627   -5.4598   -1.3971 C   0  0  0  0  0  0  0  0  0  0  0  0
   -4.4271   -7.7890   -1.5141 C   0  0  0  0  0  0  0  0  0  0  0  0
   -5.8800   -7.4954   -1.6123 N   0  0  0  0  0  0  0  0  0  0  0  0
   -6.4950   -7.3736   -0.2824 C   0  0  0  0  0  0  0  0  0  0  0  0
   -7.9992   -7.1081   -0.3897 C   0  0  0  0  0  0  0  0  0  0  0  0
   -8.2955   -5.8749   -1.2392 C   0  0  0  0  0  0  0  0  0  0  0  0
   -7.6327   -6.0008   -2.6045 C   0  0  0  0  0  0  0  0  0  0  0  0
   -6.1559   -6.2972   -2.4176 C   0  0  0  0  0  0  0  0  0  0  0  0
    3.4765    1.4361   -0.0072 C   0  0  0  0  0  0  0  0  0  0  0  0
    4.4782    1.3516   -1.0123 C   0  0  0  0  0  0  0  0  0  0  0  0
    5.5021    2.1567   -0.6878 N   0  0  0  0  0  0  0  0  0  0  0  0
    5.0767    2.6812    0.4715 N   0  0  0  0  0  0  0  0  0  0  0  0
    3.8640    2.3218    0.9229 N   0  0  0  0  0  0  0  0  0  0  0  0
    4.4615    0.5324   -2.2583 C   0  0  0  0  0  0  0  0  0  0  0  0
    4.5128    1.3158   -3.4499 O   0  0  0  0  0  0  0  0  0  0  0  0
  1  2  2  0
  1  4  1  0
  2  3  1  0
  2 26  1  0
  3  6  2  0
  4  5  2  0
  5  6  1  0
  5  9  1  0
  6  7  1  0
  7  8  1  0
  8  9  2  0
  9 10  1  0
 10 11  1  0
 10 12  2  0
 11 14  1  0
 12 13  1  0
 13 14  2  0
 13 18  1  0
 14 15  1  0
 15 16  2  0
 16 17  1  0
 17 18  2  0
 17 19  1  0
 19 20  1  0
 20 21  1  0
 20 25  1  0
 21 22  1  0
 22 23  1  0
 23 24  1  0
 24 25  1  0
 26 27  1  0
 26 30  2  0
 27 28  2  0
 27 31  1  0
 28 29  1  0
 29 30  1  0
 31 32  1  0
M  END
>  <DRUGBANK_ID>  (1) 
DB07213

>  <COMMON_NAME>  (1) 
(5-{3-[5-(PIPERIDIN-1-YLMETHYL)-1H-INDOL-2-YL]-1H-INDAZOL-6-YL}-2H-1,2,3-TRIAZOL-4-YL)METHANOL

>  <UNII>  (1) 
U77F86VL6N

$$$$
