LYD
     RDKit          3D

 29 31  0  0  0  0  0  0  0  0999 V2000
    1.4814   -0.1756   -0.0750 C   0  0  0  0  0  0  0  0  0  0  0  0
    0.6596   -1.2820   -0.2983 C   0  0  0  0  0  0  0  0  0  0  0  0
   -0.6373   -1.0389   -0.7233 C   0  0  0  0  0  0  0  0  0  0  0  0
   -1.1713    0.2509   -0.7087 C   0  0  0  0  0  0  0  0  0  0  0  0
   -0.4307    1.3517   -0.2576 C   0  0  0  0  0  0  0  0  0  0  0  0
    0.9449    1.1283   -0.0920 C   0  0  0  0  0  0  0  0  0  0  0  0
   -0.9458    2.7297    0.1506 C   0  0  0  0  0  0  0  0  0  0  0  0
   -0.1487    3.6091    0.4828 O   0  0  0  0  0  0  0  0  0  0  0  0
   -2.2725    3.0871    0.2523 N   0  0  0  0  0  0  0  0  0  0  0  0
   -3.4039    2.2425    0.2627 C   0  0  1  0  0  0  0  0  0  0  0  0
   -4.0579    2.1870    1.6268 C   0  0  0  0  0  0  0  0  0  0  0  0
   -5.0016    3.2264    2.1419 C   0  0  0  0  0  0  0  0  0  0  0  0
   -5.0126    1.0913    1.4251 C   0  0  0  0  0  0  0  0  0  0  0  0
    1.0864   -2.7133   -0.0887 C   0  0  0  0  0  0  0  0  0  0  0  0
    0.5500   -3.4279    1.1810 C   0  0  0  0  0  0  0  0  0  0  0  0
   -0.9409   -3.6371    1.2733 C   0  0  0  0  0  0  0  0  0  0  0  0
   -4.3709    2.2815   -0.9300 C   0  0  0  0  0  0  0  0  0  0  0  0
   -4.4997    1.3981   -1.7661 O   0  0  0  0  0  0  0  0  0  0  0  0
   -5.2266    3.3159   -0.8850 O   0  0  0  0  0  0  0  0  0  0  0  0
   -1.6254   -4.8417    1.1716 C   0  0  0  0  0  0  0  0  0  0  0  0
   -2.9676   -4.6055    1.1903 N   0  0  0  0  0  0  0  0  0  0  0  0
   -3.1750   -3.2987    1.3751 C   0  0  0  0  0  0  0  0  0  0  0  0
   -1.9564   -2.6916    1.5717 C   0  0  0  0  0  0  0  0  0  0  0  0
   -1.9997   -1.3307    1.9423 C   0  0  0  0  0  0  0  0  0  0  0  0
   -1.0231   -0.6070    2.2229 O   0  0  0  0  0  0  0  0  0  0  0  0
   -3.2954   -0.8595    1.9392 N   0  0  0  0  0  0  0  0  0  0  0  0
   -4.5335   -1.6107    1.7383 C   0  0  0  0  0  0  0  0  0  0  0  0
   -4.4342   -2.8644    1.4354 N   0  0  0  0  0  0  0  0  0  0  0  0
   -5.8696   -1.2107    1.8046 N   0  0  0  0  0  0  0  0  0  0  0  0
  1  2  2  0
  1  6  1  0
  2  3  1  0
  2 14  1  0
  3  4  2  0
  4  5  1  0
  5  6  2  0
  5  7  1  0
  7  8  2  0
  7  9  1  0
 10  9  1  1
 10 11  1  0
 10 17  1  0
 11 12  1  0
 11 13  1  0
 14 15  1  0
 15 16  1  0
 16 20  2  0
 16 23  1  0
 17 18  2  0
 17 19  1  0
 20 21  1  0
 21 22  1  0
 22 23  2  0
 22 28  1  0
 23 24  1  0
 24 25  2  0
 24 26  1  0
 26 27  1  0
 27 28  2  0
 27 29  1  0
M  END
>  <DRUGBANK_ID>  (1) 
DB08131

>  <COMMON_NAME>  (1) 
2-{4-[2-(2-AMINO-4-OXO-4,7-DIHYDRO-3H-PYRROLO[2,3-D]PYRIMIDIN-5-YL)-ETHYL]-BENZOYLAMINO}-3-METHYL-BUTYRIC ACID

$$$$
