D05
     RDKit          3D

 30 33  0  0  0  0  0  0  0  0999 V2000
   -2.1067    0.6143   -0.0143 N   0  0  0  0  0  0  0  0  0  0  0  0
   -2.0238   -0.7715    0.0270 C   0  0  0  0  0  0  0  0  0  0  0  0
   -0.8980   -1.4341    0.0794 N   0  0  0  0  0  0  0  0  0  0  0  0
    0.2091   -0.6469    0.0221 C   0  0  0  0  0  0  0  0  0  0  0  0
    0.2284    0.7253   -0.0073 C   0  0  0  0  0  0  0  0  0  0  0  0
   -1.0092    1.4414   -0.0094 C   0  0  0  0  0  0  0  0  0  0  0  0
    1.5373   -1.0511    0.0228 N   0  0  0  0  0  0  0  0  0  0  0  0
    2.3835    0.0236    0.0277 N   0  0  0  0  0  0  0  0  0  0  0  0
    1.5766    1.0986   -0.0025 C   0  0  0  0  0  0  0  0  0  0  0  0
   -1.1119    2.6680    0.0036 O   0  0  0  0  0  0  0  0  0  0  0  0
    2.0418   -2.3742   -0.0071 C   0  0  0  0  0  0  0  0  0  0  0  0
    2.8956   -2.8376    1.0096 C   0  0  0  0  0  0  0  0  0  0  0  0
    1.7008   -3.2418   -1.0573 C   0  0  0  0  0  0  0  0  0  0  0  0
    3.3679   -4.1597    0.9888 C   0  0  0  0  0  0  0  0  0  0  0  0
    2.1900   -4.5547   -1.0787 C   0  0  0  0  0  0  0  0  0  0  0  0
    3.0138   -5.0085   -0.0548 C   0  0  0  0  0  0  0  0  0  0  0  0
    3.5969   -6.6274   -0.0885 Cl  0  0  0  0  0  0  0  0  0  0  0  0
    2.1095    2.4926    0.0035 C   0  0  0  0  0  0  0  0  0  0  0  0
    2.9242    2.7915    1.2479 C   0  0  0  0  0  0  0  0  0  0  0  0
   -3.3614   -1.5004    0.0082 C   0  0  0  0  0  0  0  0  0  0  0  0
    3.3314   -1.8891    2.3899 Cl  0  0  0  0  0  0  0  0  0  0  0  0
    0.7947   -2.7475   -2.4450 Cl  0  0  0  0  0  0  0  0  0  0  0  0
   -3.5117   -2.3643   -1.2241 C   0  0  0  0  0  0  0  0  0  0  0  0
   -2.6224   -3.4239   -1.4732 C   0  0  0  0  0  0  0  0  0  0  0  0
   -2.7392   -4.1741   -2.6379 C   0  0  0  0  0  0  0  0  0  0  0  0
   -3.6411   -3.7880   -3.6206 C   0  0  0  0  0  0  0  0  0  0  0  0
   -4.4759   -2.7003   -3.4190 C   0  0  0  0  0  0  0  0  0  0  0  0
   -4.5029   -2.0784   -2.1712 C   0  0  0  0  0  0  0  0  0  0  0  0
   -1.9746   -5.2866   -2.8507 O   0  0  0  0  0  0  0  0  0  0  0  0
   -3.7573   -4.4935   -4.7829 O   0  0  0  0  0  0  0  0  0  0  0  0
  1  2  1  0
  1  6  1  0
  2  3  2  0
  2 20  1  0
  3  4  1  0
  4  5  2  0
  4  7  1  0
  5  6  1  0
  5  9  1  0
  6 10  2  0
  7  8  1  0
  7 11  1  0
  8  9  2  0
  9 18  1  0
 11 12  2  0
 11 13  1  0
 12 14  1  0
 12 21  1  0
 13 15  2  0
 13 22  1  0
 14 16  2  0
 15 16  1  0
 16 17  1  0
 18 19  1  0
 20 23  1  0
 23 24  2  0
 23 28  1  0
 24 25  1  0
 25 26  2  0
 25 29  1  0
 26 27  1  0
 26 30  1  0
 27 28  2  0
M  END
>  <DRUGBANK_ID>  (1) 
DB07606

>  <COMMON_NAME>  (1) 
6-(3,4-DIHYDROXYBENZYL)-3-ETHYL-1-(2,4,6-TRICHLOROPHENYL)-1H-PYRAZOLO[3,4-D]PYRIMIDIN-4(5H)-ONE

$$$$
