
     RDKit          3D

  8  8  0  0  0  0  0  0  0  0999 V2000
   -0.8408   -0.9349   -0.2246 C   0  0  1  0  0  0  0  0  0  0  0  0
    0.5789   -1.1680    0.2607 C   0  0  0  0  0  0  0  0  0  0  0  0
   -1.9772   -1.7778    0.3963 C   0  0  0  0  0  0  0  0  0  0  0  0
   -1.0577    0.5017    0.0961 N   0  0  0  0  0  0  0  0  0  0  0  0
    1.2896    0.1248   -0.1194 C   0  0  0  0  0  0  0  0  0  0  0  0
   -1.6758   -3.0375    0.7766 O   0  0  0  0  0  0  0  0  0  0  0  0
   -3.1274   -1.3620    0.5166 O   0  0  0  0  0  0  0  0  0  0  0  0
    0.2215    1.1979   -0.0187 C   0  0  0  0  0  0  0  0  0  0  0  0
  1  2  1  0
  1  4  1  0
  1  3  1  1
  2  5  1  0
  3  6  1  0
  3  7  2  0
  4  8  1  0
  5  8  1  0
M  END
>  <DRUGBANK_ID>  (1) 
DB00172

>  <SECONDARY_ACCESSION_NUMBERS>  (1) 
NUTR00047

>  <COMMON_NAME>  (1) 
Proline

>  <CAS_NUMBER>  (1) 
147-85-3

>  <UNII>  (1) 
9DLQ4CIU6V

>  <SYNONYMS>  (1) 
(-)-2-Pyrrolidinecarboxylic acid; (−)-(S)-proline; (−)-2-pyrrolidinecarboxylic acid; (−)-proline; (2S)-pyrrolidine-2-carboxylic acid; (S)-2-Carboxypyrrolidine; (S)-2-Pyrrolidinecarboxylic acid; (S)-pyrrolidine-2-carboxylic acid; 2-Pyrrolidinecarboxylic acid; L-(−)-proline; L-alpha-pyrrolidinecarboxylic acid; L-Prolin; L-Prolina; L-Proline; L-pyrrolidine-2-carboxylic acid; L-α-pyrrolidinecarboxylic acid; P; Prolina; Proline; Prolinum

$$$$
