
     RDKit          3D

 27 31  0  0  0  0  0  0  0  0999 V2000
    0.1957    0.8560   -0.4722 C   0  0  1  0  0  0  0  0  0  0  0  0
   -0.4690   -0.4420   -0.1091 C   0  0  0  0  0  0  0  0  0  0  0  0
   -1.7610   -0.4315   -0.5547 C   0  0  0  0  0  0  0  0  0  0  0  0
   -1.0425    1.7030   -0.7084 C   0  0  1  0  0  0  0  0  0  0  0  0
    1.0708    1.2867    0.6940 C   0  0  2  0  0  0  0  0  0  0  0  0
   -2.0412    0.7739   -1.1071 O   0  0  0  0  0  0  0  0  0  0  0  0
    2.0857    0.1161    0.8767 C   0  0  1  0  0  0  0  0  0  0  0  0
    0.0363   -1.4631    0.6633 C   0  0  0  0  0  0  0  0  0  0  0  0
    0.2218    1.6087    1.9149 C   0  0  0  0  0  0  0  0  0  0  0  0
    1.3782   -1.2328    1.3067 C   0  0  0  0  0  0  0  0  0  0  0  0
    2.9038    0.0462   -0.3709 N   0  0  0  0  0  0  0  0  0  0  0  0
   -1.5962    2.5066    0.4812 C   0  0  2  0  0  0  0  0  0  0  0  0
   -2.6024   -1.5080   -0.3992 C   0  0  0  0  0  0  0  0  0  0  0  0
   -1.0172    2.1170    1.8051 C   0  0  0  0  0  0  0  0  0  0  0  0
    0.9933    0.6751   -1.7768 C   0  0  0  0  0  0  0  0  0  0  0  0
   -3.9582   -1.5439   -0.8994 O   0  0  0  0  0  0  0  0  0  0  0  0
   -3.0370    2.3684    0.5596 O   0  0  0  0  0  0  0  0  0  0  0  0
    2.1421   -0.3050   -1.5755 C   0  0  0  0  0  0  0  0  0  0  0  0
   -0.7987   -2.5696    0.8764 C   0  0  0  0  0  0  0  0  0  0  0  0
   -2.1089   -2.6067    0.3217 C   0  0  0  0  0  0  0  0  0  0  0  0
    4.0563   -0.8299   -0.2223 C   0  0  0  0  0  0  0  0  0  0  0  0
   -4.7672   -0.7298   -1.7540 C   0  0  0  0  0  0  0  0  0  0  0  0
   -4.0976    0.4615   -2.3247 C   0  0  0  0  0  0  0  0  0  0  0  0
   -5.9430   -1.0243   -2.0245 O   0  0  0  0  0  0  0  0  0  0  0  0
   -3.9488    3.3572    0.6040 C   0  0  0  0  0  0  0  0  0  0  0  0
   -3.4871    4.7811    0.5818 C   0  0  0  0  0  0  0  0  0  0  0  0
   -5.1465    3.0997    0.6745 O   0  0  0  0  0  0  0  0  0  0  0  0
  1  2  1  0
  1 15  1  6
  3  2  2  0
  4  1  1  0
  4  6  1  1
  5  1  1  0
  6  3  1  0
  7  5  1  0
  7 11  1  0
  8  2  1  0
  5  9  1  1
  7 10  1  6
 10  8  1  0
 12  4  1  0
 12 17  1  1
 13  3  1  0
 14  9  2  0
 14 12  1  0
 16 13  1  0
 16 22  1  0
 17 25  1  0
 18 11  1  0
 18 15  1  0
 19  8  2  0
 20 13  2  0
 20 19  1  0
 21 11  1  0
 22 23  1  0
 22 24  2  0
 25 26  1  0
 25 27  2  0
M  END
>  <DRUGBANK_ID>  (1) 
DB01452

>  <COMMON_NAME>  (1) 
Diamorphine

>  <CAS_NUMBER>  (1) 
561-27-3

>  <UNII>  (1) 
70D95007SX

>  <SYNONYMS>  (1) 
(5α,6α)-7,8-Didehydro-4,5-epoxy-17-methylmorphinan-3,6-diol diacetate (ester); 3,6-Diacetylmorphine; 7,8-Dihydro-4,5-alpha-epoxy-17-methylmorphinan-3,6-alpha-diol diacetate; Diacetylmorphine; Diamorphine; Heroin; O,O'-Diacetylmorphine

$$$$
