
     RDKit          3D

 25 27  0  0  0  0  0  0  0  0999 V2000
    0.2890    1.2017   -0.0240 C   0  0  0  0  0  0  0  0  0  0  0  0
   -0.3809   -0.0170   -0.0123 C   0  0  0  0  0  0  0  0  0  0  0  0
    0.3339   -1.2144   -0.0058 C   0  0  0  0  0  0  0  0  0  0  0  0
    1.7335   -1.1917    0.0280 C   0  0  0  0  0  0  0  0  0  0  0  0
    2.4166    0.0332    0.0478 C   0  0  0  0  0  0  0  0  0  0  0  0
    1.6827    1.2250   -0.0193 C   0  0  0  0  0  0  0  0  0  0  0  0
   -2.0994   -0.0350   -0.0111 Cl  0  0  0  0  0  0  0  0  0  0  0  0
    3.9098    0.0506    0.0592 C   0  0  0  0  0  0  0  0  0  0  0  0
    4.6712    1.2403    0.0892 N   0  0  0  0  0  0  0  0  0  0  0  0
    4.5334   -1.0057   -0.0225 O   0  0  0  0  0  0  0  0  0  0  0  0
    4.5705    2.2538    1.0428 C   0  0  0  0  0  0  0  0  0  0  0  0
    5.4250    3.2893    0.6630 C   0  0  0  0  0  0  0  0  0  0  0  0
    6.0452    2.9045   -0.5586 C   0  0  0  0  0  0  0  0  0  0  0  0
    5.5906    1.6342   -0.8736 C   0  0  0  0  0  0  0  0  0  0  0  0
    5.9235    0.8283   -2.0811 C   0  0  0  0  0  0  0  0  0  0  0  0
    7.0089    3.7244   -1.3561 C   0  0  0  0  0  0  0  0  0  0  0  0
    6.4230    5.0460   -1.7803 C   0  0  0  0  0  0  0  0  0  0  0  0
    6.8686    6.1503   -1.4963 O   0  0  0  0  0  0  0  0  0  0  0  0
    5.3274    4.9324   -2.5596 O   0  0  0  0  0  0  0  0  0  0  0  0
    3.8082    2.3343    2.2188 C   0  0  0  0  0  0  0  0  0  0  0  0
    3.9030    3.4910    2.9951 C   0  0  0  0  0  0  0  0  0  0  0  0
    4.7464    4.5385    2.6380 C   0  0  0  0  0  0  0  0  0  0  0  0
    5.5125    4.4429    1.4730 C   0  0  0  0  0  0  0  0  0  0  0  0
    4.9047    5.6983    3.3502 O   0  0  0  0  0  0  0  0  0  0  0  0
    4.1303    5.7998    4.5408 C   0  0  0  0  0  0  0  0  0  0  0  0
  1  2  2  0
  2  3  1  0
  2  7  1  0
  3  4  2  0
  4  5  1  0
  5  6  2  0
  5  8  1  0
  6  1  1  0
  8 10  2  0
  8  9  1  0
  9 11  1  0
  9 14  1  0
 11 12  2  0
 11 20  1  0
 12 13  1  0
 13 14  2  0
 13 16  1  0
 14 15  1  0
 16 17  1  0
 17 18  2  0
 17 19  1  0
 20 21  2  0
 21 22  1  0
 22 23  2  0
 22 24  1  0
 23 12  1  0
 24 25  1  0
M  END
>  <DRUGBANK_ID>  (1) 
DB00328

>  <SECONDARY_ACCESSION_NUMBERS>  (1) 
APRD00109

>  <COMMON_NAME>  (1) 
Indomethacin

>  <CAS_NUMBER>  (1) 
53-86-1

>  <UNII>  (1) 
XXE1CET956

>  <SYNONYMS>  (1) 
{1-[(4-chlorophenyl)carbonyl]-5-methoxy-2-methyl-1H-indol-3-yl}acetic acid; 1-(p-chlorobenzoyl)-5-methoxy-2-methylindole-3-acetic acid; Indometacin; Indometacina; Indometacine; Indometacinum; Indomethacin

$$$$
