
     RDKit          3D

  8  8  0  0  0  0  0  0  0  0999 V2000
    0.8871    0.0025   -0.0316 O   0  0  0  0  0  0  0  0  0  0  0  0
    1.0276   -1.8030   -1.3526 O   0  0  0  0  0  0  0  0  0  0  0  0
   -1.9081   -2.0193   -0.7483 N   0  0  0  0  0  0  0  0  0  0  0  0
   -1.0972   -0.9043   -0.7625 C   0  0  0  0  0  0  0  0  0  0  0  0
   -1.9395    0.1962   -0.7856 C   0  0  0  0  0  0  0  0  0  0  0  0
   -3.2270   -1.6445   -0.7580 C   0  0  0  0  0  0  0  0  0  0  0  0
   -3.2760   -0.2707   -0.8012 C   0  0  0  0  0  0  0  0  0  0  0  0
    0.3346   -0.9684   -0.7848 C   0  0  0  0  0  0  0  0  0  0  0  0
  1  8  1  0
  2  8  2  0
  3  4  1  0
  3  6  1  0
  4  5  2  0
  4  8  1  0
  5  7  1  0
  6  7  2  0
M  END
>  <DRUGBANK_ID>  (1) 
DB02543

>  <SECONDARY_ACCESSION_NUMBERS>  (1) 
EXPT02717

>  <COMMON_NAME>  (1) 
Pyrrole-2-Carboxylate

>  <UNII>  (1) 
2NNB85QQT9

$$$$
