
     RDKit          3D

  7  6  0  0  0  0  0  0  0  0999 V2000
    1.1927    0.1120    0.0108 O   0  0  0  0  0  0  0  0  0  0  0  0
    2.4537   -0.0067   -0.0387 C   0  0  0  0  0  0  0  0  0  0  0  0
    3.1812   -0.7005    0.7454 O   0  0  0  0  0  0  0  0  0  0  0  0
    3.2078    0.9356   -0.9402 C   0  0  0  0  0  0  0  0  0  0  0  0
    2.8477    0.6752   -2.3796 C   0  0  0  0  0  0  0  0  0  0  0  0
    2.4070    1.6871   -3.0177 O   0  0  0  0  0  0  0  0  0  0  0  0
    3.1961   -0.4371   -2.8780 O   0  0  0  0  0  0  0  0  0  0  0  0
  1  2  1  0
  2  3  2  0
  2  4  1  0
  4  5  1  0
  5  6  1  0
  5  7  2  0
M  CHG  2   1  -1   6  -1
M  END
>  <DRUGBANK_ID>  (1) 
DB02201

>  <SECONDARY_ACCESSION_NUMBERS>  (1) 
EXPT02183

>  <COMMON_NAME>  (1) 
Malonate Ion

>  <UNII>  (1) 
4N2NU7R76L

$$$$
