SNH
     RDKit          3D

 28 30  0  0  0  0  0  0  0  0999 V2000
    0.3295    1.4960   -0.1117 C   0  0  0  0  0  0  0  0  0  0  0  0
    1.5981    0.9248   -0.0349 C   0  0  0  0  0  0  0  0  0  0  0  0
    1.6042   -0.4872   -0.4147 C   0  0  0  0  0  0  0  0  0  0  0  0
    0.4350   -0.7413   -1.1286 C   0  0  0  0  0  0  0  0  0  0  0  0
   -0.7620    0.4861   -0.9372 S   0  0  0  0  0  0  0  0  0  0  0  0
    0.1220   -1.9845   -1.7833 C   0  0  0  0  0  0  0  0  0  0  0  0
   -1.1861   -2.2266   -1.9984 O   0  0  0  0  0  0  0  0  0  0  0  0
    0.9538   -2.8574   -2.0285 O   0  0  0  0  0  0  0  0  0  0  0  0
    2.6106   -1.4634   -0.0195 N   0  0  0  0  0  0  0  0  0  0  0  0
    2.5016   -3.2911    0.2482 S   0  0  0  0  0  0  0  0  0  0  0  0
    3.0351   -3.9097   -0.9533 O   0  0  0  0  0  0  0  0  0  0  0  0
    3.2150   -3.5482    1.4901 O   0  0  0  0  0  0  0  0  0  0  0  0
    0.6938   -4.0167    0.5740 C   0  0  0  0  0  0  0  0  0  0  0  0
    0.4004   -5.3284    0.1534 C   0  0  0  0  0  0  0  0  0  0  0  0
   -0.9581   -5.7631    0.0525 C   0  0  0  0  0  0  0  0  0  0  0  0
   -2.0393   -4.9075    0.3070 C   0  0  0  0  0  0  0  0  0  0  0  0
   -1.7566   -3.6583    0.8039 C   0  0  0  0  0  0  0  0  0  0  0  0
   -0.4164   -3.2441    0.9987 C   0  0  0  0  0  0  0  0  0  0  0  0
   -0.3117   -1.8221    1.3001 C   0  0  0  0  0  0  0  0  0  0  0  0
   -3.4768   -5.2396    0.0387 C   0  0  0  0  0  0  0  0  0  0  0  0
   -0.0370    2.8724    0.0003 C   0  0  0  0  0  0  0  0  0  0  0  0
    0.2573    3.7310   -1.0282 C   0  0  0  0  0  0  0  0  0  0  0  0
   -0.2112    5.0328   -0.7903 C   0  0  0  0  0  0  0  0  0  0  0  0
   -0.9078    5.1367    0.4004 C   0  0  0  0  0  0  0  0  0  0  0  0
   -1.0027    3.6100    1.1910 S   0  0  0  0  0  0  0  0  0  0  0  0
   -1.4734    6.3768    0.9124 C   0  0  0  0  0  0  0  0  0  0  0  0
   -2.2338    6.4026    2.2122 C   0  0  0  0  0  0  0  0  0  0  0  0
   -1.3300    7.4402    0.3005 O   0  0  0  0  0  0  0  0  0  0  0  0
  1  2  2  0
  1  5  1  0
  1 21  1  0
  2  3  1  0
  3  4  2  0
  3  9  1  0
  4  5  1  0
  4  6  1  0
  6  7  1  0
  6  8  2  0
  9 10  1  0
 10 11  2  0
 10 12  2  0
 10 13  1  0
 13 14  2  0
 13 18  1  0
 14 15  1  0
 15 16  2  0
 16 17  1  0
 16 20  1  0
 17 18  2  0
 18 19  1  0
 21 22  2  0
 21 25  1  0
 22 23  1  0
 23 24  2  0
 24 25  1  0
 24 26  1  0
 26 27  1  0
 26 28  2  0
M  END
>  <DRUGBANK_ID>  (1) 
DB08556

>  <COMMON_NAME>  (1) 
5'-ACETYL-4-{[(2,4-DIMETHYLPHENYL)SULFONYL]AMINO}-2,2'-BITHIOPHENE-5-CARBOXYLIC ACID

$$$$
