338
     RDKit          3D

 21 24  0  0  0  0  0  0  0  0999 V2000
   -1.8584   -0.7109   -0.0064 C   0  0  0  0  0  0  0  0  0  0  0  0
   -0.6275   -1.4165    0.0522 C   0  0  0  0  0  0  0  0  0  0  0  0
    0.6141   -0.7108    0.2128 C   0  0  0  0  0  0  0  0  0  0  0  0
    0.6789    0.6748    0.2309 C   0  0  0  0  0  0  0  0  0  0  0  0
   -0.5983    1.3652    0.0629 C   0  0  0  0  0  0  0  0  0  0  0  0
   -1.8569    0.6707   -0.0097 C   0  0  0  0  0  0  0  0  0  0  0  0
    1.9311   -1.1953    0.4092 O   0  0  0  0  0  0  0  0  0  0  0  0
    2.7950   -0.0705    0.6686 C   0  0  0  0  0  0  0  0  0  0  0  0
    2.0674    1.0552    0.4461 N   0  0  0  0  0  0  0  0  0  0  0  0
    4.4655   -0.4004    0.5948 C   0  0  0  0  0  0  0  0  0  0  0  0
    5.7446   -0.0239    1.6196 C   0  0  0  0  0  0  0  0  0  0  0  0
    6.1808    1.0180    0.9861 C   0  0  0  0  0  0  0  0  0  0  0  0
    6.7531    0.6277   -0.2896 C   0  0  0  0  0  0  0  0  0  0  0  0
    6.0000   -0.1362   -1.1966 C   0  0  0  0  0  0  0  0  0  0  0  0
    4.7802   -0.5763   -0.7619 C   0  0  0  0  0  0  0  0  0  0  0  0
    7.2125   -0.1464    2.5193 C   0  0  0  0  0  0  0  0  0  0  0  0
    8.0946    0.9926    2.9986 C   0  0  0  0  0  0  0  0  0  0  0  0
    7.9042    2.0867    2.1998 C   0  0  0  0  0  0  0  0  0  0  0  0
    6.5810    2.0806    1.8703 C   0  0  0  0  0  0  0  0  0  0  0  0
   -3.0370   -1.4249   -0.0246 O   0  0  0  0  0  0  0  0  0  0  0  0
    5.6990    2.2271    2.9951 O   0  0  0  0  0  0  0  0  0  0  0  0
  1  2  2  0
  1  6  1  0
  1 20  1  0
  2  3  1  0
  3  4  2  0
  3  7  1  0
  4  5  1  0
  4  9  1  0
  5  6  2  0
  7  8  1  0
  8  9  2  0
  8 10  1  0
 10 11  2  0
 10 15  1  0
 11 12  1  0
 11 16  1  0
 12 13  2  0
 12 19  1  0
 13 14  1  0
 14 15  2  0
 16 17  2  0
 17 18  1  0
 18 19  2  0
 19 21  1  0
M  END
>  <DRUGBANK_ID>  (1) 
DB07009

>  <COMMON_NAME>  (1) 
2-(5-HYDROXY-NAPHTHALEN-1-YL)-1,3-BENZOOXAZOL-6-OL

$$$$
