1IG
     RDKit          3D

 29 31  0  0  0  0  0  0  0  0999 V2000
    0.8601   -0.0393   -0.1200 C   0  0  0  0  0  0  0  0  0  0  0  0
   -0.1757    0.7866   -0.0247 N   0  0  0  0  0  0  0  0  0  0  0  0
   -1.3358    0.1850    0.0333 C   0  0  0  0  0  0  0  0  0  0  0  0
   -1.4654   -1.1453    0.0162 N   0  0  0  0  0  0  0  0  0  0  0  0
   -0.3173   -1.9019    0.0699 C   0  0  0  0  0  0  0  0  0  0  0  0
    0.9373   -1.3802    0.1106 C   0  0  0  0  0  0  0  0  0  0  0  0
    1.9205    0.5195   -0.7986 N   0  0  0  0  0  0  0  0  0  0  0  0
   -2.4118    1.0173    0.0262 N   0  0  0  0  0  0  0  0  0  0  0  0
   -0.4460   -3.3895    0.0598 C   0  0  0  0  0  0  0  0  0  0  0  0
   -1.1548   -3.7630    1.3263 C   0  0  0  0  0  0  0  0  0  0  0  0
    2.5896   -2.9352   -0.9292 C   0  0  0  0  0  0  0  0  0  0  0  0
    3.7203   -3.7280   -0.8558 C   0  0  0  0  0  0  0  0  0  0  0  0
    4.5590   -3.6605    0.2540 C   0  0  0  0  0  0  0  0  0  0  0  0
    4.3116   -2.7497    1.2982 C   0  0  0  0  0  0  0  0  0  0  0  0
    3.1106   -2.0164    1.2418 C   0  0  0  0  0  0  0  0  0  0  0  0
    2.2212   -2.1190    0.1448 C   0  0  0  0  0  0  0  0  0  0  0  0
    5.9280   -4.7703    0.1622 S   0  0  0  0  0  0  0  0  0  0  0  0
    7.0288   -3.9352    1.3226 C   0  0  0  0  0  0  0  0  0  0  0  0
    6.2434   -3.5666    2.5918 C   0  0  0  0  0  0  0  0  0  0  0  0
    5.2374   -2.6022    2.3910 N   0  0  0  0  0  0  0  0  0  0  0  0
    5.2319   -1.4174    3.2743 C   0  0  0  0  0  0  0  0  0  0  0  0
    5.6659   -0.1024    2.5797 C   0  0  0  0  0  0  0  0  0  0  0  0
    4.7940    0.3897    1.5367 N   0  0  0  0  0  0  0  0  0  0  0  0
    4.2404    1.6442    1.6434 C   0  0  0  0  0  0  0  0  0  0  0  0
    3.5382    2.1263    0.4401 C   0  0  0  0  0  0  0  0  0  0  0  0
    7.6151   -2.6546    0.7065 C   0  0  0  0  0  0  0  0  0  0  0  0
    8.1434   -4.9536    1.5477 C   0  0  0  0  0  0  0  0  0  0  0  0
    6.5360   -3.9938    3.7083 O   0  0  0  0  0  0  0  0  0  0  0  0
    4.2094    2.2992    2.6924 O   0  0  0  0  0  0  0  0  0  0  0  0
  1  2  2  0
  1  6  1  0
  1  7  1  0
  2  3  1  0
  3  4  2  0
  3  8  1  0
  4  5  1  0
  5  6  2  0
  5  9  1  0
  6 16  1  0
  9 10  1  0
 11 12  2  0
 11 16  1  0
 12 13  1  0
 13 14  2  0
 13 17  1  0
 14 15  1  0
 14 20  1  0
 15 16  2  0
 17 18  1  0
 18 19  1  0
 18 26  1  0
 18 27  1  0
 19 20  1  0
 19 28  2  0
 20 21  1  0
 21 22  1  0
 22 23  1  0
 23 24  1  0
 24 25  1  0
 24 29  2  0
M  END
>  <DRUGBANK_ID>  (1) 
DB06899

>  <COMMON_NAME>  (1) 
N-{2-[6-(2,4-DIAMINO-6-ETHYLPYRIMIDIN-5-YL)-2,2-DIMETHYL-3-OXO-2,3-DIHYDRO-4H-1,4-BENZOTHIAZIN-4-YL]ETHYL}ACETAMIDE

$$$$
