
     RDKit          3D

 15 14  0  0  1  0  0  0  0  0999 V2000
    5.1524   -1.5129    0.1742 O   0  0  0  0  0  0  0  0  0  0  0  0
    3.8903   -1.0898   -0.3209 C   0  0  0  0  0  0  0  0  0  0  0  0
    4.0600    0.0471   -1.3113 C   0  0  0  0  0  0  0  0  0  0  0  0
    4.9156   -0.3199   -2.5352 C   0  0  1  0  0  0  0  0  0  0  0  0
    4.3317   -1.4119   -3.2553 O   0  0  0  0  0  0  0  0  0  0  0  0
    5.1660    0.8193   -3.5599 C   0  0  2  0  0  0  0  0  0  0  0  0
    6.5436    0.8230   -3.9946 O   0  0  0  0  0  0  0  0  0  0  0  0
    4.7838    2.2082   -3.0322 C   0  0  2  0  0  0  0  0  0  0  0  0
    3.3631    2.3566   -2.9784 O   0  0  0  0  0  0  0  0  0  0  0  0
    5.3131    3.3082   -3.8763 C   0  0  0  0  0  0  0  0  0  0  0  0
    6.1150    4.2616   -3.3661 C   0  0  0  0  0  0  0  0  0  0  0  0
    6.3809    5.7795   -4.1530 P   0  0  0  0  0  0  0  0  0  0  0  0
    4.9828    5.9793   -4.9252 O   0  0  0  0  0  0  0  0  0  0  0  0
    6.2103    6.8178   -2.9397 O   0  0  0  0  0  0  0  0  0  0  0  0
    7.5351    6.1267   -5.0354 O   0  0  0  0  0  0  0  0  0  0  0  0
  1  2  1  0
  2  3  1  0
  3  4  1  0
  4  5  1  6
  6  7  1  1
  6  4  1  0
  8 10  1  0
  8  9  1  6
  8  6  1  0
 10 11  2  0
 11 12  1  0
 12 13  1  0
 12 14  1  0
 12 15  2  0
M  END
>  <DRUGBANK_ID>  (1) 
DB01840

>  <SECONDARY_ACCESSION_NUMBERS>  (1) 
EXPT01100

>  <COMMON_NAME>  (1) 
2-Deoxy-D-Glucitol 6-(E)-Vinylhomophosphonate

$$$$
