
     RDKit          3D

 12 11  0  0  0  0  0  0  0  0999 V2000
    0.9060    0.0817   -0.0795 C   0  0  0  0  0  0  0  0  0  0  0  0
    2.4083    0.0318   -0.1303 C   0  0  0  0  0  0  0  0  0  0  0  0
    3.0038   -1.3276    0.2461 C   0  0  0  0  0  0  0  0  0  0  0  0
    4.6026   -0.5842    2.7273 C   0  0  0  0  0  0  0  0  0  0  0  0
    4.5432   -1.2332    0.2459 C   0  0  0  0  0  0  0  0  0  0  0  0
    5.0660   -0.2486    1.2979 C   0  0  0  0  0  0  0  0  0  0  0  0
    6.6110   -2.0152    3.1975 C   0  0  0  0  0  0  0  0  0  0  0  0
    5.0827   -1.9648    3.2256 C   0  0  0  0  0  0  0  0  0  0  0  0
    4.5535   -2.2392    4.6256 C   0  0  0  0  0  0  0  0  0  0  0  0
    2.5587   -2.4386   -0.7009 C   0  0  0  0  0  0  0  0  0  0  0  0
    0.1801   -0.8192    0.3396 O   0  0  0  0  0  0  0  0  0  0  0  0
    4.5463   -3.0084    2.4147 O   0  0  0  0  0  0  0  0  0  0  0  0
  1 11  2  0
  1  2  1  0
  3  2  1  0
  3 10  1  0
  5  3  1  0
  6  4  1  0
  6  5  1  0
  8  4  1  0
  8  7  1  0
  8 12  1  0
  9  8  1  0
M  END
>  <DRUGBANK_ID>  (1) 
DB14187

>  <COMMON_NAME>  (1) 
Hydroxycitronellal

>  <CAS_NUMBER>  (1) 
107-75-5

>  <UNII>  (1) 
8SQ0VA4YUR

>  <SYNONYMS>  (1) 
3,7-dimethyl-7-hydroxyoctan-1-al; 3,7-Dimethyl-7-hydroxyoctanal; 7-hydroxy-3,7-dimethyloctanal; 7-hydroxycitronellal; Citronellal hydrate; Cyclalia; Cyclosia; Fixol; hydroxy citronellal; Laurine; Lilyl aldehyde; Muguet synthetic; Muguettine principle; Oxydihydrocitronellal; Phixia

$$$$
