
     RDKit          3D

 11 11  0  0  0  0  0  0  0  0999 V2000
    1.2124   -0.0120   -0.0958 C   0  0  0  0  0  0  0  0  0  0  0  0
    0.7565   -1.1923   -0.7506 O   0  0  0  0  0  0  0  0  0  0  0  0
    0.4922    0.2102    1.2555 C   0  0  2  0  0  0  0  0  0  0  0  0
   -0.8828   -0.4714    1.4177 C   0  0  2  0  0  0  0  0  0  0  0  0
   -0.8521   -1.8700    1.1527 O   0  0  0  0  0  0  0  0  0  0  0  0
   -1.9654    0.2346    0.5829 C   0  0  2  0  0  0  0  0  0  0  0  0
   -1.8381    0.0666   -0.8315 O   0  0  0  0  0  0  0  0  0  0  0  0
   -1.9695    1.7199    0.9132 C   0  0  0  0  0  0  0  0  0  0  0  0
   -0.5702    2.3208    0.7819 C   0  0  2  0  0  0  0  0  0  0  0  0
    0.3865    1.6102    1.5655 O   0  0  0  0  0  0  0  0  0  0  0  0
   -0.5850    3.6740    1.2078 O   0  0  0  0  0  0  0  0  0  0  0  0
  1  2  1  0
  3  1  1  6
  3  4  1  0
  3 10  1  0
  4  5  1  6
  4  6  1  0
  6  7  1  6
  6  8  1  0
  9  8  1  0
  9 11  1  1
 10  9  1  0
M  END
>  <DRUGBANK_ID>  (1) 
DB04382

>  <SECONDARY_ACCESSION_NUMBERS>  (1) 
EXPT00111

>  <COMMON_NAME>  (1) 
2-Deoxy-alpha-D-galactopyranose

>  <CAS_NUMBER>  (1) 
14215-77-1

>  <UNII>  (1) 
87447VW8UN

>  <SYNONYMS>  (1) 
2-Deoxy-alpha-D-lyxo-hexopyranose; 2-deoxy-beta-D-galactose; 2-Deoxy-Î±-D-lyxo-hexopyranose

$$$$
