65028
     RDKit          3D

 22 22  0  0  1  0  0  0  0  0999 V2000
   -0.8081    0.1191   -1.7438 O   0  0  0  0  0  0  0  0  0  0  0  0
    3.6793    1.2702   -4.0382 O   0  0  0  0  0  0  0  0  0  0  0  0
    3.6956   -0.7174   -5.0359 O   0  0  0  0  0  0  0  0  0  0  0  0
   -0.0809   -2.4493    2.2536 O   0  0  0  0  0  0  0  0  0  0  0  0
    0.4710   -2.3978    0.0736 N   0  0  0  0  0  0  0  0  0  0  0  0
   -0.0041   -3.5596   -3.0711 N   0  0  0  0  0  0  0  0  0  0  0  0
    0.2426   -1.9623   -1.3142 C   0  0  2  0  0  0  0  0  0  0  0  0
    1.0244   -2.8065   -2.3224 C   0  0  2  0  0  0  0  0  0  0  0  0
    0.4497   -0.4782   -1.4335 C   0  0  1  0  0  0  0  0  0  0  0  0
    1.9891   -2.1103   -3.3277 C   0  0  0  0  0  0  0  0  0  0  0  0
    1.5863    0.0016   -2.2267 C   0  0  0  0  0  0  0  0  0  0  0  0
    2.2405   -0.6349   -3.1895 C   0  0  0  0  0  0  0  0  0  0  0  0
   -1.1680    1.4198   -1.2723 C   0  0  0  0  0  0  0  0  0  0  0  0
   -0.8832    1.7553    0.2126 C   0  0  0  0  0  0  0  0  0  0  0  0
   -0.6128    2.4747   -2.1999 C   0  0  0  0  0  0  0  0  0  0  0  0
    3.2438   -0.0237   -4.1414 C   0  0  0  0  0  0  0  0  0  0  0  0
   -0.4249   -2.2425    1.1058 C   0  0  0  0  0  0  0  0  0  0  0  0
    0.5048    1.5101    0.8035 C   0  0  0  0  0  0  0  0  0  0  0  0
   -1.0871    2.2614   -3.6633 C   0  0  0  0  0  0  0  0  0  0  0  0
   -1.8195   -1.7906    0.7409 C   0  0  0  0  0  0  0  0  0  0  0  0
    2.9964    2.3780   -3.4435 C   0  0  0  0  0  0  0  0  0  0  0  0
    1.6370    2.4609   -4.0327 C   0  0  0  0  0  0  0  0  0  0  0  0
  1 13  1  0
  2 16  1  0
  2 21  1  0
  3 16  2  0
  4 17  2  0
  5 17  1  0
  7  8  1  0
  7  9  1  0
  7  5  1  1
  8 10  1  0
  8  6  1  6
  9 11  1  0
  9  1  1  6
 10 12  1  0
 11 12  2  0
 12 16  1  0
 13 14  1  0
 13 15  1  0
 14 18  1  0
 15 19  1  0
 17 20  1  0
 21 22  1  0
M  END
>  <DRUGBANK_ID>  (1) 
DB00198

>  <SECONDARY_ACCESSION_NUMBERS>  (1) 
APRD01148

>  <COMMON_NAME>  (1) 
Oseltamivir

>  <CAS_NUMBER>  (1) 
196618-13-0

>  <UNII>  (1) 
20O93L6F9H

>  <SYNONYMS>  (1) 
(−)-oseltamivir; 1-Cyclohexene-1-carboxylic acid, 4-(acetylamino)-5-amino-3-(1-ethylpropoxy)-, ethyl ester, (3R-(3alpha,4beta,5alpha))-; Ethyl (3R,4R,5S)-4-acetamido-5-amino-3-(1-ethylpropoxy)-1-cyclohexene-1-carboxylate; Oseltamivir; Oséltamivir; Oseltamivirum

$$$$
