1267
     RDKit          3D

 31 35  0  0  1  0  0  0  0  0999 V2000
   -3.1161   -0.7637   -0.1022 F   0  0  0  0  0  0  0  0  0  0  0  0
    1.6597   -1.2032   -0.0408 O   0  0  0  0  0  0  0  0  0  0  0  0
   -0.5988    4.8855    3.3588 O   0  0  0  0  0  0  0  0  0  0  0  0
    1.2515    8.3318   -0.9560 O   0  0  0  0  0  0  0  0  0  0  0  0
    3.8379    4.7014   -1.3394 N   0  0  0  0  0  0  0  0  0  0  0  0
    0.0158    7.2096    0.6315 N   0  0  0  0  0  0  0  0  0  0  0  0
    2.6802   -0.2891   -0.0074 N   0  0  0  0  0  0  0  0  0  0  0  0
   -0.3305    4.9021    0.4033 N   0  0  0  0  0  0  0  0  0  0  0  0
    3.1995    2.0751    0.0898 C   0  0  0  0  0  0  0  0  0  0  0  0
    3.3677    3.3973    0.8454 C   0  0  0  0  0  0  0  0  0  0  0  0
    3.8864    2.1685   -1.2997 C   0  0  0  0  0  0  0  0  0  0  0  0
    3.3129    4.6849    0.0280 C   0  0  0  0  0  0  0  0  0  0  0  0
    3.7020    3.4635   -2.1165 C   0  0  0  0  0  0  0  0  0  0  0  0
    3.3721    5.9071   -2.0870 C   0  0  0  0  0  0  0  0  0  0  0  0
    2.1403    0.9436    0.1597 C   0  0  0  0  0  0  0  0  0  0  0  0
    1.8605    6.0365   -2.4723 C   0  0  0  0  0  0  0  0  0  0  0  0
    0.8741    6.0546   -1.3203 C   0  0  0  0  0  0  0  0  0  0  0  0
   -0.2373    8.4673    1.3161 C   0  0  0  0  0  0  0  0  0  0  0  0
   -1.0779    5.9223    2.5135 C   0  0  0  0  0  0  0  0  0  0  0  0
   -1.3423    8.3769    2.3495 C   0  0  0  0  0  0  0  0  0  0  0  0
   -1.0172    7.2346    3.2876 C   0  0  0  0  0  0  0  0  0  0  0  0
   -0.4076    5.9910    1.1090 C   0  0  0  0  0  0  0  0  0  0  0  0
    0.7149    0.7909    0.2820 C   0  0  0  0  0  0  0  0  0  0  0  0
    0.7353    7.3079   -0.5519 C   0  0  0  0  0  0  0  0  0  0  0  0
    0.2448    4.9655   -0.8449 C   0  0  0  0  0  0  0  0  0  0  0  0
    0.4757   -0.5630    0.0738 C   0  0  0  0  0  0  0  0  0  0  0  0
   -0.4318    1.5805    0.4855 C   0  0  0  0  0  0  0  0  0  0  0  0
    0.5736    3.6764   -1.5214 C   0  0  0  0  0  0  0  0  0  0  0  0
   -0.7883   -1.1555    0.0031 C   0  0  0  0  0  0  0  0  0  0  0  0
   -1.7042    1.0790    0.1965 C   0  0  0  0  0  0  0  0  0  0  0  0
   -1.8725   -0.2807    0.0151 C   0  0  0  0  0  0  0  0  0  0  0  0
  1 31  1  0
  2  7  1  0
  2 26  1  0
  3 19  1  0
  4 24  2  0
  5 12  1  0
  5 13  1  0
  5 14  1  0
  6 18  1  0
  6 22  1  0
  6 24  1  0
  7 15  2  0
  8 22  2  0
  8 25  1  0
  9 10  1  0
  9 11  1  0
  9 15  1  0
 10 12  1  0
 11 13  1  0
 14 16  1  0
 15 23  1  0
 16 17  1  0
 17 24  1  0
 17 25  2  0
 18 20  1  0
 19 21  1  0
 19 22  1  0
 20 21  1  0
 23 26  2  0
 23 27  1  0
 25 28  1  0
 26 29  1  0
 27 30  2  0
 29 31  2  0
 30 31  1  0
M  END
>  <DRUGBANK_ID>  (1) 
DB01267

>  <COMMON_NAME>  (1) 
Paliperidone

>  <CAS_NUMBER>  (1) 
144598-75-4

>  <UNII>  (1) 
838F01T721

>  <SYNONYMS>  (1) 
9-hydroxyrisperidone; Paliperidona; Paliperidone

$$$$
