1298
     RDKit          3D

 20 21  0  0  0  0  0  0  0  0999 V2000
    1.0199    0.1745   -0.0764 S   0  0  0  0  0  0  0  0  0  0  0  0
    0.5851   -0.3686   -1.3463 O   0  0  0  0  0  0  0  0  0  0  0  0
    0.5361   -0.4126    1.1591 O   0  0  0  0  0  0  0  0  0  0  0  0
    3.9999    4.2195   -1.6947 O   0  0  0  0  0  0  0  0  0  0  0  0
    3.1546    4.7717    0.3686 N   0  0  0  0  0  0  0  0  0  0  0  0
    0.4796    1.7955   -0.0564 N   0  0  0  0  0  0  0  0  0  0  0  0
    2.1153    3.1428   -1.0408 N   0  0  0  0  0  0  0  0  0  0  0  0
    6.9966    0.0954   -0.4614 N   0  0  0  0  0  0  0  0  0  0  0  0
    2.8008    0.0595   -0.0051 C   0  0  0  0  0  0  0  0  0  0  0  0
    1.2497    2.9736   -0.1054 C   0  0  0  0  0  0  0  0  0  0  0  0
    4.1344    5.8603    0.5227 C   0  0  0  0  0  0  0  0  0  0  0  0
    2.1563    4.6199    1.3150 C   0  0  0  0  0  0  0  0  0  0  0  0
    1.0927    3.8488    1.0704 C   0  0  0  0  0  0  0  0  0  0  0  0
    3.5834    1.1753    0.1898 C   0  0  0  0  0  0  0  0  0  0  0  0
    3.4745   -1.1482   -0.1566 C   0  0  0  0  0  0  0  0  0  0  0  0
    3.1057    4.0802   -0.8537 C   0  0  0  0  0  0  0  0  0  0  0  0
    4.9190    1.2230   -0.1803 C   0  0  0  0  0  0  0  0  0  0  0  0
    4.8875   -1.1448   -0.2327 C   0  0  0  0  0  0  0  0  0  0  0  0
    5.6025    0.0472   -0.3979 C   0  0  0  0  0  0  0  0  0  0  0  0
    3.4381    7.2175    0.5157 C   0  0  0  0  0  0  0  0  0  0  0  0
  1  2  2  0
  1  3  2  0
  1  6  1  0
  1  9  1  0
  4 16  2  0
  5 11  1  0
  5 12  1  0
  5 16  1  0
  6 10  1  0
  7 10  2  0
  7 16  1  0
  8 19  1  0
  9 14  2  0
  9 15  1  0
 10 13  1  0
 11 20  1  0
 12 13  2  0
 14 17  1  0
 15 18  2  0
 17 19  2  0
 18 19  1  0
M  END
>  <DRUGBANK_ID>  (1) 
DB01298

>  <COMMON_NAME>  (1) 
Sulfacytine

>  <CAS_NUMBER>  (1) 
17784-12-2

>  <UNII>  (1) 
T795873AJP

>  <SYNONYMS>  (1) 
1-ethyl N4-sulfanilylcytosin; 1-ethyl-N-sulfanilylcytosine; Sulfacitina; Sulfacitine; Sulfacitinum; Sulfacytine

$$$$
