PPB
     RDKit          3D

 32 34  0  0  0  0  0  0  0  0999 V2000
    1.0084   -1.6604    1.7431 C   0  0  0  0  0  0  0  0  0  0  0  0
    2.4154   -1.1469    2.0023 C   0  0  0  0  0  0  0  0  0  0  0  0
    0.9918    0.0538    0.0046 N   0  0  0  0  0  0  0  0  0  0  0  0
   -1.0982   -1.2858    0.3598 B   0  0  0  0  0  0  0  0  0  0  0  0
    0.5018   -1.2858    0.3598 C   0  0  2  0  0  0  0  0  0  0  0  0
   -1.8482   -2.2020   -0.5611 O   0  0  0  0  0  0  0  0  0  0  0  0
   -1.8482   -0.3697    1.2808 O   0  0  0  0  0  0  0  0  0  0  0  0
    4.0334    0.2766   -1.9922 N   0  0  0  0  0  0  0  0  0  0  0  0
    2.8360    1.0098   -1.5415 C   0  0  2  0  0  0  0  0  0  0  0  0
    1.7024    0.0310   -1.2820 C   0  0  0  0  0  0  0  0  0  0  0  0
    1.3690   -0.8071   -2.1773 O   0  0  0  0  0  0  0  0  0  0  0  0
    2.5192    1.8564   -2.7431 C   0  0  0  0  0  0  0  0  0  0  0  0
    3.9193    2.3849   -3.1779 C   0  0  0  0  0  0  0  0  0  0  0  0
    4.8559    1.2229   -2.8371 C   0  0  0  0  0  0  0  0  0  0  0  0
    4.3666   -1.1201   -1.6774 C   0  0  0  0  0  0  0  0  0  0  0  0
    5.4357   -1.6360   -2.1311 O   0  0  0  0  0  0  0  0  0  0  0  0
    3.4324   -1.9471   -0.8093 C   0  0  1  0  0  0  0  0  0  0  0  0
    3.2444   -0.8697    0.9404 C   0  0  0  0  0  0  0  0  0  0  0  0
    4.5620   -0.4542    1.1479 C   0  0  0  0  0  0  0  0  0  0  0  0
    2.8580   -1.0453    3.3389 C   0  0  0  0  0  0  0  0  0  0  0  0
    4.2145   -0.6622    3.5183 C   0  0  0  0  0  0  0  0  0  0  0  0
    5.0322   -0.3684    2.4534 C   0  0  0  0  0  0  0  0  0  0  0  0
    5.3712   -0.0398    0.0326 C   0  0  0  0  0  0  0  0  0  0  0  0
    5.9856    0.3395   -0.8629 N   0  0  0  0  0  0  0  0  0  0  0  0
    3.2898   -1.2876    0.5528 C   0  0  0  0  0  0  0  0  0  0  0  0
    2.1134   -2.0330   -1.4525 N   0  0  0  0  0  0  0  0  0  0  0  0
    2.9844    2.3897    0.8723 C   0  0  0  0  0  0  0  0  0  0  0  0
    2.1163    2.6638   -0.0944 C   0  0  0  0  0  0  0  0  0  0  0  0
    1.5504    1.6531   -0.8335 C   0  0  0  0  0  0  0  0  0  0  0  0
    1.7948    0.3416   -0.5343 C   0  0  0  0  0  0  0  0  0  0  0  0
    2.7176    0.1101    0.3815 C   0  0  0  0  0  0  0  0  0  0  0  0
    3.2293    1.0856    1.2696 C   0  0  0  0  0  0  0  0  0  0  0  0
  1  2  1  0
  2 18  2  0
  2 20  1  0
  3 10  1  0
  4  6  1  0
  4  7  1  0
  5  4  1  0
  5  3  1  0
  5  1  1  1
  8  9  1  0
  8 14  1  0
  8 15  1  0
  9 10  1  6
  9 12  1  0
 10 11  2  0
 12 13  1  0
 13 14  1  0
 15 16  2  0
 15 17  1  0
 17 25  1  0
 17 26  1  6
 18 19  1  0
 19 22  2  0
 19 23  1  0
 20 21  2  0
 21 22  1  0
 23 24  3  0
 25 31  1  0
 27 28  2  0
 27 32  1  0
 28 29  1  0
 29 30  2  0
 30 31  1  0
 31 32  2  0
M  END
>  <DRUGBANK_ID>  (1) 
DB08420

>  <COMMON_NAME>  (1) 
1-{[1-(2-AMINO-3-PHENYL-PROPIONYL)-PYRROLIDINE-2-CARBONYL]-AMINO}-2-(3-CYANO-PHENYL)-ETHANEBORONIC ACID

$$$$
