
     RDKit          3D

 27 31  0  0  1  0  0  0  0  0999 V2000
    1.9502   -0.0251   -0.1140 C   0  0  2  0  0  0  0  0  0  0  0  0
    2.3741   -0.1018   -1.5812 C   0  0  0  0  0  0  0  0  0  0  0  0
    1.9031    1.1352   -2.3261 C   0  0  0  0  0  0  0  0  0  0  0  0
    2.4847    2.4184   -1.7261 C   0  0  1  0  0  0  0  0  0  0  0  0
    1.9545    3.6170   -2.5158 C   0  0  0  0  0  0  0  0  0  0  0  0
    2.1354    2.5412   -0.2239 C   0  0  2  0  0  0  0  0  0  0  0  0
    2.7868    3.8080    0.3778 C   0  0  0  0  0  0  0  0  0  0  0  0
    2.7680    3.8893    1.9050 C   0  0  0  0  0  0  0  0  0  0  0  0
    3.4781    2.6992    2.5693 C   0  0  1  0  0  0  0  0  0  0  0  0
    4.1476    3.1446    3.8687 C   0  0  0  0  0  0  0  0  0  0  0  0
    2.5422    1.6796    2.9303 O   0  0  0  0  0  0  0  0  0  0  0  0
    1.6804    1.3862    1.7903 O   0  0  0  0  0  0  0  0  0  0  0  0
    2.4716    1.2606    0.5786 C   0  0  1  0  0  0  0  0  0  0  0  0
    3.9881    1.1399    0.8644 C   0  0  2  0  0  0  0  0  0  0  0  0
    4.3299   -0.0686    1.5010 O   0  0  0  0  0  0  0  0  0  0  0  0
    3.8866   -1.2822    0.9449 C   0  0  2  0  0  0  0  0  0  0  0  0
    2.3692   -1.2617    0.7075 C   0  0  2  0  0  0  0  0  0  0  0  0
    1.8899   -2.5935    0.1288 C   0  0  0  0  0  0  0  0  0  0  0  0
    4.2656   -2.3882    1.8476 N   0  0  0  0  0  0  0  0  0  0  0  0
    3.6296   -2.3172    3.1842 C   0  0  0  0  0  0  0  0  0  0  0  0
    4.0005   -1.0930    4.0013 C   0  0  0  0  0  0  0  0  0  0  0  0
    5.7597   -1.0795    4.2435 S   0  0  0  0  0  0  0  0  0  0  0  0
    6.1569    0.2508    4.6799 O   0  0  0  0  0  0  0  0  0  0  0  0
    6.0855   -2.2317    5.0588 O   0  0  0  0  0  0  0  0  0  0  0  0
    6.4426   -1.3574    2.6198 C   0  0  0  0  0  0  0  0  0  0  0  0
    5.7278   -2.5278    1.9594 C   0  0  0  0  0  0  0  0  0  0  0  0
    4.4917    2.1916    1.6968 O   0  0  0  0  0  0  0  0  0  0  0  0
  1  2  1  6
  1 17  1  0
  2  3  1  0
  4  3  1  0
  4  5  1  6
  6  4  1  0
  6  7  1  1
  7  8  1  0
  9  8  1  0
  9 10  1  1
  9 11  1  0
  9 27  1  0
 11 12  1  0
 13 12  1  1
 13  1  1  0
 13  6  1  0
 13 14  1  0
 14 15  1  1
 14 27  1  0
 16 15  1  0
 16 19  1  1
 17 16  1  0
 17 18  1  6
 19 20  1  0
 19 26  1  0
 20 21  1  0
 21 22  1  0
 22 23  2  0
 22 24  2  0
 22 25  1  0
 25 26  1  0
M  END
>  <DRUGBANK_ID>  (1) 
DB16097

>  <COMMON_NAME>  (1) 
Artemisone

>  <CAS_NUMBER>  (1) 
255730-18-8

>  <UNII>  (1) 
796LMW5BUZ

>  <SYNONYMS>  (1) 
Artemifone; Artemisone

$$$$
