
     RDKit          3D

 25 27  0  0  0  0  0  0  0  0999 V2000
    1.4228   -0.3020   -0.0167 C   0  0  0  0  0  0  0  0  0  0  0  0
    0.5171   -1.3626    0.0293 C   0  0  0  0  0  0  0  0  0  0  0  0
   -0.8643   -1.1288   -0.0362 C   0  0  0  0  0  0  0  0  0  0  0  0
   -1.3481    0.1676   -0.2321 C   0  0  0  0  0  0  0  0  0  0  0  0
   -0.4073    1.1865   -0.4471 C   0  0  0  0  0  0  0  0  0  0  0  0
    0.9573    0.9802   -0.2559 C   0  0  0  0  0  0  0  0  0  0  0  0
   -2.8312    0.4997   -0.2145 C   0  0  0  0  0  0  0  0  0  0  0  0
   -3.3580    1.2904    1.0271 C   0  0  0  0  0  0  0  0  0  0  0  0
   -2.6836    2.6282    1.2776 C   0  0  0  0  0  0  0  0  0  0  0  0
   -1.4198    2.6901    1.7425 C   0  0  0  0  0  0  0  0  0  0  0  0
   -0.6702    3.9293    1.6521 C   0  0  0  0  0  0  0  0  0  0  0  0
   -1.2799    5.1086    1.3918 C   0  0  0  0  0  0  0  0  0  0  0  0
   -2.6909    5.0968    1.1306 C   0  0  0  0  0  0  0  0  0  0  0  0
   -3.3363    3.8467    1.0197 N   0  0  0  0  0  0  0  0  0  0  0  0
   -4.6434    4.0647    0.7214 N   0  0  0  0  0  0  0  0  0  0  0  0
   -4.7328    5.3932    0.7410 C   0  0  0  0  0  0  0  0  0  0  0  0
   -3.5688    6.0676    0.9580 N   0  0  0  0  0  0  0  0  0  0  0  0
   -0.4624    6.3720    1.4182 C   0  0  0  0  0  0  0  0  0  0  0  0
   -1.1598    7.5526    1.3349 N   0  0  0  0  0  0  0  0  0  0  0  0
   -0.4690    8.8298    1.3939 C   0  0  0  0  0  0  0  0  0  0  0  0
   -0.5806    9.6030    0.0870 C   0  0  0  0  0  0  0  0  0  0  0  0
   -1.0991   10.8477    0.2125 O   0  0  0  0  0  0  0  0  0  0  0  0
   -0.2591    9.1558   -1.0117 O   0  0  0  0  0  0  0  0  0  0  0  0
    0.7569    6.3788    1.5735 O   0  0  0  0  0  0  0  0  0  0  0  0
    0.6938    3.7868    1.7677 O   0  0  0  0  0  0  0  0  0  0  0  0
  1  2  2  0
  2  3  1  0
  3  4  2  0
  4  5  1  0
  4  7  1  0
  5  6  2  0
  6  1  1  0
  7  8  1  0
  8  9  1  0
  9 14  1  0
 10  9  2  0
 11 10  1  0
 11 25  1  0
 12 11  2  0
 12 18  1  0
 13 12  1  0
 13 17  2  0
 14 13  1  0
 14 15  1  0
 15 16  2  0
 16 17  1  0
 18 19  1  0
 18 24  2  0
 19 20  1  0
 20 21  1  0
 21 22  1  0
 21 23  2  0
M  END
>  <DRUGBANK_ID>  (1) 
DB14985

>  <COMMON_NAME>  (1) 
Enarodustat

>  <CAS_NUMBER>  (1) 
1262132-81-9

>  <UNII>  (1) 
JSK7TUA223

>  <SYNONYMS>  (1) 
Ã©narodustat; Enarodustat; Enarodustatum

$$$$
