
     RDKit          3D

 29 31  0  0  0  0  0  0  0  0999 V2000
   -1.6608    1.3617    0.6233 C   0  0  1  0  0  0  0  0  0  0  0  0
   -2.0843    2.7915    0.4307 C   0  0  0  0  0  0  0  0  0  0  0  0
   -1.6668    3.7880    1.2242 C   0  0  0  0  0  0  0  0  0  0  0  0
   -2.0520    5.2181    1.0087 C   0  0  2  0  0  0  0  0  0  0  0  0
   -0.8291    6.0863    0.6608 C   0  0  1  0  0  0  0  0  0  0  0  0
   -0.1372    5.5801   -0.6144 C   0  0  0  0  0  0  0  0  0  0  0  0
   -1.0689    5.6197   -1.7500 C   0  0  0  0  0  0  0  0  0  0  0  0
   -1.2371    7.5551    0.4895 C   0  0  0  0  0  0  0  0  0  0  0  0
   -1.8919    5.6768   -2.7596 C   0  0  0  0  0  0  0  0  0  0  0  0
   -2.8514    5.7433   -3.9366 C   0  0  0  0  0  0  0  0  0  0  0  0
   -2.6595    5.6736    2.2088 O   0  0  0  0  0  0  0  0  0  0  0  0
   -2.8697   -0.6292   -0.1889 C   0  0  0  0  0  0  0  0  0  0  0  0
   -2.8815    0.4628    0.8742 C   0  0  1  0  0  0  0  0  0  0  0  0
   -1.4675   -0.6206   -0.7777 C   0  0  1  0  0  0  0  0  0  0  0  0
   -0.9689    0.8192   -0.6369 C   0  0  2  0  0  0  0  0  0  0  0  0
   -0.5785   -1.4930   -0.0489 O   0  0  0  0  0  0  0  0  0  0  0  0
    0.6028   -0.7914   -0.0133 C   0  0  0  0  0  0  0  0  0  0  0  0
    0.4659    0.5402   -0.3914 C   0  0  0  0  0  0  0  0  0  0  0  0
    1.5407    1.4140   -0.4060 C   0  0  0  0  0  0  0  0  0  0  0  0
    2.7676    0.9342    0.0180 C   0  0  0  0  0  0  0  0  0  0  0  0
    2.8728   -0.3812    0.4759 C   0  0  0  0  0  0  0  0  0  0  0  0
    1.8108   -1.3015    0.4079 C   0  0  0  0  0  0  0  0  0  0  0  0
    1.9756   -2.7552    0.7642 C   0  0  0  0  0  0  0  0  0  0  0  0
    2.9837   -3.4885   -0.1422 C   0  0  0  0  0  0  0  0  0  0  0  0
    4.4258   -2.9725   -0.0848 C   0  0  0  0  0  0  0  0  0  0  0  0
    4.9829   -2.9654    1.3319 C   0  0  0  0  0  0  0  0  0  0  0  0
    6.1633   -3.5948    1.4673 O   0  0  0  0  0  0  0  0  0  0  0  0
    4.4573   -2.4233    2.2977 O   0  0  0  0  0  0  0  0  0  0  0  0
   -2.7904   -0.1202    2.1699 O   0  0  0  0  0  0  0  0  0  0  0  0
  1 15  1  0
  1  2  1  6
  2  3  2  0
  3  4  1  0
  4 11  1  1
  4  5  1  0
  5  6  1  0
  5  8  1  6
  6  7  1  0
  7  9  3  0
  9 10  1  0
 12 13  1  0
 13  1  1  0
 13 29  1  1
 14 12  1  1
 14 15  1  0
 15 18  1  1
 16 14  1  0
 17 16  1  0
 17 18  2  0
 18 19  1  0
 19 20  2  0
 20 21  1  0
 21 22  2  0
 22 17  1  0
 22 23  1  0
 23 24  1  0
 24 25  1  0
 25 26  1  0
 26 27  1  0
 26 28  2  0
M  END
>  <DRUGBANK_ID>  (1) 
DB05229

>  <COMMON_NAME>  (1) 
Beraprost

>  <CAS_NUMBER>  (1) 
88430-50-6

>  <UNII>  (1) 
35E3NJJ4O6

>  <SYNONYMS>  (1) 
Beraprost; Beraprostum

$$$$
