MRX
     RDKit          3D

 21 23  0  0  0  0  0  0  0  0999 V2000
    2.4064   -0.1440   -0.0081 Br  0  0  0  0  0  0  0  0  0  0  0  0
    0.5381    0.1635    0.0034 C   0  0  0  0  0  0  0  0  0  0  0  0
   -0.3402   -0.9281    0.0317 C   0  0  0  0  0  0  0  0  0  0  0  0
    0.0636    1.4689   -0.0042 C   0  0  0  0  0  0  0  0  0  0  0  0
   -1.3095    1.7175    0.0015 C   0  0  0  0  0  0  0  0  0  0  0  0
   -2.1767    0.6155    0.0399 C   0  0  0  0  0  0  0  0  0  0  0  0
   -3.5485    0.5930    0.0464 N   0  0  0  0  0  0  0  0  0  0  0  0
   -4.0448   -0.6849    0.1977 C   0  0  0  0  0  0  0  0  0  0  0  0
   -5.4573   -0.9666    0.3355 C   0  0  0  0  0  0  0  0  0  0  0  0
   -6.3586   -0.0344   -0.0929 N   0  0  0  0  0  0  0  0  0  0  0  0
   -5.9444   -2.0015    0.7857 O   0  0  0  0  0  0  0  0  0  0  0  0
   -2.9238   -1.5358    0.1446 C   0  0  0  0  0  0  0  0  0  0  0  0
   -1.7393   -0.7095    0.0763 C   0  0  0  0  0  0  0  0  0  0  0  0
   -2.9166   -3.3018    0.0580 S   0  0  0  0  0  0  0  0  0  0  0  0
   -1.5167   -3.6688   -0.0122 O   0  0  0  0  0  0  0  0  0  0  0  0
   -3.7203   -3.7294    1.1791 O   0  0  0  0  0  0  0  0  0  0  0  0
   -3.6226   -3.8447   -1.4264 N   0  0  0  0  0  0  0  0  0  0  0  0
   -2.9197   -3.4012   -2.6528 C   0  0  0  0  0  0  0  0  0  0  0  0
   -3.5578   -2.0577   -2.9395 C   0  0  0  0  0  0  0  0  0  0  0  0
   -5.0270   -2.3056   -2.6094 C   0  0  0  0  0  0  0  0  0  0  0  0
   -5.0439   -3.4959   -1.6381 C   0  0  0  0  0  0  0  0  0  0  0  0
  2  3  2  0
  2  1  1  0
  4  2  1  0
  5  6  1  0
  5  4  2  0
  6 13  2  0
  7  8  1  0
  7  6  1  0
  8 12  2  0
  9 10  1  0
  9  8  1  0
 11  9  2  0
 12 13  1  0
 12 14  1  0
 13  3  1  0
 14 16  2  0
 14 17  1  0
 15 14  2  0
 17 18  1  0
 17 21  1  0
 18 19  1  0
 19 20  1  0
 21 20  1  0
M  END
>  <DRUGBANK_ID>  (1) 
DB08211

>  <COMMON_NAME>  (1) 
5-bromo-3-(pyrrolidin-1-ylsulfonyl)-1H-indole-2-carboxamide

>  <UNII>  (1) 
2REL8H3PKT

$$$$
