
     RDKit          3D

 19 20  0  0  1  0  0  0  0  0999 V2000
    0.8181   -0.0629   -0.0554 C   0  0  0  0  0  0  0  0  0  0  0  0
    0.4396   -0.5812    1.2218 O   0  0  0  0  0  0  0  0  0  0  0  0
    0.9119   -1.8418    1.5045 C   0  0  0  0  0  0  0  0  0  0  0  0
   -0.0498   -2.7485    2.0129 C   0  0  0  0  0  0  0  0  0  0  0  0
    0.3335   -4.0638    2.3825 C   0  0  0  0  0  0  0  0  0  0  0  0
    1.6722   -4.4182    2.2255 C   0  0  0  0  0  0  0  0  0  0  0  0
    1.8226   -5.7147    2.6464 N   0  0  0  0  0  0  0  0  0  0  0  0
    0.6323   -6.1964    3.0977 C   0  0  0  0  0  0  0  0  0  0  0  0
   -0.3318   -5.2171    2.9265 C   0  0  0  0  0  0  0  0  0  0  0  0
   -1.7897   -5.3741    3.2882 C   0  0  1  0  0  0  0  0  0  0  0  0
   -2.4180   -6.5255    2.4897 C   0  0  0  0  0  0  0  0  0  0  0  0
   -1.9680   -5.6278    4.7998 C   0  0  0  0  0  0  0  0  0  0  0  0
   -1.4739   -4.5235    5.6118 N   0  0  0  0  0  0  0  0  0  0  0  0
   -2.2926   -3.8228    6.4603 C   0  0  0  0  0  0  0  0  0  0  0  0
   -1.6367   -2.6983    7.2150 C   0  0  0  0  0  0  0  0  0  0  0  0
   -3.4868   -4.0780    6.6095 O   0  0  0  0  0  0  0  0  0  0  0  0
    2.6397   -3.5391    1.7450 C   0  0  0  0  0  0  0  0  0  0  0  0
    2.2544   -2.2348    1.4270 C   0  0  0  0  0  0  0  0  0  0  0  0
    3.5759   -1.1741    1.0755 Cl  0  0  0  0  0  0  0  0  0  0  0  0
  1  2  1  0
  2  3  1  0
  3  4  2  0
  3 18  1  0
  4  5  1  0
  5  6  2  0
  5  9  1  0
  6  7  1  0
  6 17  1  0
  7  8  1  0
  8  9  2  0
 10  9  1  0
 10 11  1  6
 10 12  1  0
 12 13  1  0
 13 14  1  0
 14 15  1  0
 14 16  2  0
 17 18  2  0
 18 19  1  0
M  END
>  <DRUGBANK_ID>  (1) 
DB16909

>  <COMMON_NAME>  (1) 
TIK-301

>  <CAS_NUMBER>  (1) 
118702-11-7

>  <UNII>  (1) 
3ZX95B1ZWK

>  <SYNONYMS>  (1) 
(R)-N-[2-(6-Chloro-5-Methoxy-1H-Indol-3-Yl)Propyl]Acetamide; Beta-methyl-6-chloromelatonin; LY-156,735; LY-156735; N-((2r)-2-(6-chloro-5-methoxy-1h-indol-3-yl)propyl)acetamide

$$$$
