
     RDKit          3D

 30 33  0  0  1  0  0  0  0  0999 V2000
    1.1487    1.3974   -0.2115 C   0  0  1  0  0  0  0  0  0  0  0  0
    1.2234   -0.0835    0.2497 C   0  0  1  0  0  0  0  0  0  0  0  0
   -0.0302   -0.8400   -0.2003 C   0  0  2  0  0  0  0  0  0  0  0  0
   -1.3069   -0.1206    0.2256 C   0  0  1  0  0  0  0  0  0  0  0  0
   -1.2763    1.3260   -0.2537 C   0  0  2  0  0  0  0  0  0  0  0  0
   -0.0993    1.9679    0.2070 O   0  0  0  0  0  0  0  0  0  0  0  0
    2.3388   -0.8204   -0.2637 O   0  0  0  0  0  0  0  0  0  0  0  0
   -0.0225   -2.1714    0.3327 O   0  0  0  0  0  0  0  0  0  0  0  0
   -2.4639   -0.7818   -0.2831 O   0  0  0  0  0  0  0  0  0  0  0  0
   -2.4897    2.0776    0.3169 C   0  0  0  0  0  0  0  0  0  0  0  0
   -2.4614    3.4518   -0.0640 O   0  0  0  0  0  0  0  0  0  0  0  0
    2.2969    2.2242    0.3698 C   0  0  0  0  0  0  0  0  0  0  0  0
    2.0844    3.2820    1.2809 C   0  0  0  0  0  0  0  0  0  0  0  0
    3.1529    4.0097    1.8073 C   0  0  0  0  0  0  0  0  0  0  0  0
    0.7915    3.5802    1.6262 O   0  0  0  0  0  0  0  0  0  0  0  0
    3.6252    1.9434    0.0066 C   0  0  0  0  0  0  0  0  0  0  0  0
    2.8720    5.1779    2.6722 C   0  0  0  0  0  0  0  0  0  0  0  0
    4.4648    3.6460    1.4942 C   0  0  0  0  0  0  0  0  0  0  0  0
    0.5352    4.6402    2.4325 C   0  0  0  0  0  0  0  0  0  0  0  0
    4.7025    2.6017    0.6000 C   0  0  0  0  0  0  0  0  0  0  0  0
    3.8661    1.0396   -0.9933 O   0  0  0  0  0  0  0  0  0  0  0  0
    1.4466    5.4488    2.9802 C   0  0  0  0  0  0  0  0  0  0  0  0
    3.7855    5.8820    3.0963 O   0  0  0  0  0  0  0  0  0  0  0  0
    0.9641    6.5352    3.8307 C   0  0  0  0  0  0  0  0  0  0  0  0
    0.2406    6.2288    4.9953 C   0  0  0  0  0  0  0  0  0  0  0  0
    1.1258    7.8705    3.4512 C   0  0  0  0  0  0  0  0  0  0  0  0
   -0.3182    7.2432    5.7714 C   0  0  0  0  0  0  0  0  0  0  0  0
    0.5657    8.8852    4.2279 C   0  0  0  0  0  0  0  0  0  0  0  0
   -0.1473    8.5661    5.3793 C   0  0  0  0  0  0  0  0  0  0  0  0
   -0.6701    9.5980    6.1003 O   0  0  0  0  0  0  0  0  0  0  0  0
  1 12  1  1
  1  2  1  0
  2  3  1  0
  2  7  1  6
  3  4  1  0
  3  8  1  1
  4  9  1  6
  4  5  1  0
  5 10  1  1
  5  6  1  0
  6  1  1  0
 10 11  1  0
 12 16  1  0
 13 12  2  0
 13 14  1  0
 13 15  1  0
 14 17  1  0
 14 18  2  0
 15 19  1  0
 16 20  2  0
 16 21  1  0
 17 22  1  0
 17 23  2  0
 18 20  1  0
 19 22  2  0
 22 24  1  0
 24 25  2  0
 24 26  1  0
 25 27  1  0
 26 28  2  0
 27 29  2  0
 28 29  1  0
 29 30  1  0
M  END
>  <DRUGBANK_ID>  (1) 
DB12290

>  <COMMON_NAME>  (1) 
Puerarin

>  <CAS_NUMBER>  (1) 
3681-99-0

>  <UNII>  (1) 
Z9W8997416

$$$$
