ZES
     RDKit          3D

 26 28  0  0  0  0  0  0  0  0999 V2000
   -2.4659    0.6458   -0.1825 C   0  0  0  0  0  0  0  0  0  0  0  0
   -1.2858    1.3340    0.0489 C   0  0  0  0  0  0  0  0  0  0  0  0
   -0.0797    0.6259    0.1231 C   0  0  0  0  0  0  0  0  0  0  0  0
   -0.0330   -0.7552    0.0607 C   0  0  0  0  0  0  0  0  0  0  0  0
   -1.2558   -1.4347    0.0554 C   0  0  0  0  0  0  0  0  0  0  0  0
   -2.4573   -0.7370   -0.0811 C   0  0  0  0  0  0  0  0  0  0  0  0
    1.1665    1.3488    0.2982 C   0  0  0  0  0  0  0  0  0  0  0  0
    2.3286    0.7058   -0.0768 N   0  0  0  0  0  0  0  0  0  0  0  0
    2.4301   -0.6843   -0.0873 C   0  0  0  0  0  0  0  0  0  0  0  0
    1.2333   -1.3998    0.0239 N   0  0  0  0  0  0  0  0  0  0  0  0
    3.5549    1.5144   -0.1424 C   0  0  0  0  0  0  0  0  0  0  0  0
    3.6208    2.3915   -1.3840 C   0  0  0  0  0  0  0  0  0  0  0  0
    2.7667    3.4851   -1.5876 C   0  0  0  0  0  0  0  0  0  0  0  0
    2.6903    4.1608   -2.7954 C   0  0  0  0  0  0  0  0  0  0  0  0
    3.4972    3.7594   -3.8417 C   0  0  0  0  0  0  0  0  0  0  0  0
    4.4478    2.7598   -3.6431 C   0  0  0  0  0  0  0  0  0  0  0  0
    4.5366    2.1049   -2.4064 C   0  0  0  0  0  0  0  0  0  0  0  0
   -3.9414   -1.6026   -0.0714 Cl  0  0  0  0  0  0  0  0  0  0  0  0
    1.2885   -2.8659    0.0084 C   0  0  0  0  0  0  0  0  0  0  0  0
    0.7157   -3.4712    1.2791 C   0  0  0  0  0  0  0  0  0  0  0  0
   -0.1745   -4.3078    1.3247 O   0  0  0  0  0  0  0  0  0  0  0  0
    1.2660   -2.9969    2.4122 O   0  0  0  0  0  0  0  0  0  0  0  0
    3.5147   -1.2623   -0.1800 O   0  0  0  0  0  0  0  0  0  0  0  0
    1.0879    2.4631    0.8145 O   0  0  0  0  0  0  0  0  0  0  0  0
    1.9985    3.9728   -0.6142 F   0  0  0  0  0  0  0  0  0  0  0  0
    3.3045    4.5954   -5.5215 Br  0  0  0  0  0  0  0  0  0  0  0  0
  1  2  2  0
  1  6  1  0
  2  3  1  0
  3  4  2  0
  3  7  1  0
  4  5  1  0
  4 10  1  0
  5  6  2  0
  6 18  1  0
  7  8  1  0
  7 24  2  0
  8  9  1  0
  8 11  1  0
  9 10  1  0
  9 23  2  0
 10 19  1  0
 11 12  1  0
 12 13  2  0
 12 17  1  0
 13 14  1  0
 13 25  1  0
 14 15  2  0
 15 16  1  0
 15 26  1  0
 16 17  2  0
 19 20  1  0
 20 21  2  0
 20 22  1  0
M  END
>  <DRUGBANK_ID>  (1) 
DB02132

>  <SECONDARY_ACCESSION_NUMBERS>  (1) 
EXPT03287; DB06424

>  <COMMON_NAME>  (1) 
Zenarestat

>  <CAS_NUMBER>  (1) 
112733-06-9

>  <UNII>  (1) 
180C9PJ8JT

>  <SYNONYMS>  (1) 
Zenarestat

$$$$
