
     RDKit          3D

 21 22  0  0  0  0  0  0  0  0999 V2000
    0.9859   -0.0880    0.0454 P   0  0  0  0  0  0  0  0  0  0  0  0
   -0.3578    1.8019   -0.8600 F   0  0  0  0  0  0  0  0  0  0  0  0
    1.9363    2.7077   -2.3094 O   0  0  0  0  0  0  0  0  0  0  0  0
    0.9017   -0.6058   -1.4847 O   0  0  0  0  0  0  0  0  0  0  0  0
    4.4346    1.9203   -3.3999 O   0  0  0  0  0  0  0  0  0  0  0  0
    0.8885   -1.4311    0.9507 O   0  0  0  0  0  0  0  0  0  0  0  0
   -0.7441   -0.0880    0.0454 O   0  0  0  0  0  0  0  0  0  0  0  0
    0.6079    1.2119   -4.9379 O   0  0  0  0  0  0  0  0  0  0  0  0
    2.5342   -0.0880    0.0454 O   0  0  0  0  0  0  0  0  0  0  0  0
    0.4685    4.7316   -7.6480 O   0  0  0  0  0  0  0  0  0  0  0  0
    0.3161    3.2818   -3.9471 N   0  0  0  0  0  0  0  0  0  0  0  0
    0.6433    2.9824   -6.2286 N   0  0  0  0  0  0  0  0  0  0  0  0
    0.9833    0.4764   -2.4136 C   0  0  1  0  0  0  0  0  0  0  0  0
   -0.1070    1.5459   -2.1876 C   0  0  2  0  0  0  0  0  0  0  0  0
    2.3029    1.3050   -2.4313 C   0  0  1  0  0  0  0  0  0  0  0  0
    0.5332    2.8391   -2.5881 C   0  0  1  0  0  0  0  0  0  0  0  0
    3.2040    1.2302   -3.6736 C   0  0  0  0  0  0  0  0  0  0  0  0
    0.5203    2.4151   -5.0059 C   0  0  0  0  0  0  0  0  0  0  0  0
   -0.1063    4.5733   -4.1644 C   0  0  0  0  0  0  0  0  0  0  0  0
   -0.1299    5.0891   -5.3956 C   0  0  0  0  0  0  0  0  0  0  0  0
    0.3604    4.2714   -6.5175 C   0  0  0  0  0  0  0  0  0  0  0  0
  1  4  1  0
  1  6  1  0
  1  7  1  0
  1  9  2  0
  3 15  1  0
  3 16  1  0
  5 17  1  0
  8 18  2  0
 10 21  2  0
 11 18  1  0
 11 19  1  0
 12 18  1  0
 12 21  1  0
 13  4  1  1
 13 14  1  0
 13 15  1  0
 14 16  1  0
 14  2  1  1
 15 17  1  6
 16 11  1  6
 19 20  2  0
 20 21  1  0
M  END
>  <DRUGBANK_ID>  (1) 
DB03155

>  <SECONDARY_ACCESSION_NUMBERS>  (1) 
EXPT03185

>  <COMMON_NAME>  (1) 
2'-fluoro-2'-deoxyuridine 3'-monophosphate

$$$$
