
     RDKit          3D

 24 26  0  0  0  0  0  0  0  0999 V2000
   -1.0690   -1.1679    0.4726 C   0  0  0  0  0  0  0  0  0  0  0  0
   -2.2502   -2.0571    0.2330 C   0  0  1  0  0  0  0  0  0  0  0  0
   -1.1056    0.1995    0.1837 C   0  0  0  0  0  0  0  0  0  0  0  0
    0.1786   -1.7898    0.6115 C   0  0  0  0  0  0  0  0  0  0  0  0
   -1.9935   -2.6448   -1.1803 C   0  0  0  0  0  0  0  0  0  0  0  0
   -2.6602   -3.0109    1.2334 O   0  0  0  0  0  0  0  0  0  0  0  0
    0.0921    0.8947    0.0344 C   0  0  0  0  0  0  0  0  0  0  0  0
   -2.5844    1.0676   -0.0471 Cl  0  0  0  0  0  0  0  0  0  0  0  0
    1.3545   -1.1381    0.3010 C   0  0  0  0  0  0  0  0  0  0  0  0
   -0.7957   -3.5080   -1.4656 N   0  0  0  0  0  0  0  0  0  0  0  0
   -2.1431   -4.3398    1.1518 C   0  0  0  0  0  0  0  0  0  0  0  0
    1.3119    0.2168    0.0666 C   0  0  0  0  0  0  0  0  0  0  0  0
    0.5104   -3.2015   -1.8043 C   0  0  0  0  0  0  0  0  0  0  0  0
   -0.6104   -4.8386   -1.4318 C   0  0  0  0  0  0  0  0  0  0  0  0
   -2.7764   -5.4860    0.0851 C   0  0  0  0  0  0  0  0  0  0  0  0
    2.7976    1.0464   -0.1132 Cl  0  0  0  0  0  0  0  0  0  0  0  0
    1.3129   -4.3105   -1.5023 C   0  0  0  0  0  0  0  0  0  0  0  0
    0.5836   -5.3821   -1.3295 N   0  0  0  0  0  0  0  0  0  0  0  0
   -3.3456   -5.2732   -1.3021 C   0  0  0  0  0  0  0  0  0  0  0  0
   -2.0789   -6.7336    0.2010 C   0  0  0  0  0  0  0  0  0  0  0  0
   -3.0476   -6.0858   -2.4654 C   0  0  0  0  0  0  0  0  0  0  0  0
   -1.8692   -7.5873   -0.9722 C   0  0  0  0  0  0  0  0  0  0  0  0
   -2.3289   -7.2593   -2.2886 C   0  0  0  0  0  0  0  0  0  0  0  0
   -1.5786   -7.9279   -3.7064 Cl  0  0  0  0  0  0  0  0  0  0  0  0
  1  2  1  0
  1  3  2  0
  1  4  1  0
  2  5  1  6
  2  6  1  0
  3  7  1  0
  3  8  1  0
  4  9  2  0
  5 10  1  0
  6 11  1  0
  7 12  2  0
  9 12  1  0
 10 13  1  0
 10 14  1  0
 11 15  1  0
 12 16  1  0
 13 17  2  0
 14 18  2  0
 15 19  2  0
 15 20  1  0
 17 18  1  0
 19 21  1  0
 20 22  2  0
 21 23  2  0
 22 23  1  0
 23 24  1  0
M  END
>  <DRUGBANK_ID>  (1) 
DB07705

>  <COMMON_NAME>  (1) 
(S)-econazole

>  <CAS_NUMBER>  (1) 
73094-37-8

>  <UNII>  (1) 
E3VE9L071S

>  <SYNONYMS>  (1) 
(+)-Econazole

$$$$
