
     RDKit          3D

 22 24  0  0  0  0  0  0  0  0999 V2000
    0.0516   -0.3245    0.0235 C   0  0  0  0  0  0  0  0  0  0  0  0
   -0.3278    1.0195    0.0359 C   0  0  0  0  0  0  0  0  0  0  0  0
    1.4947   -0.6413    0.0182 C   0  0  0  0  0  0  0  0  0  0  0  0
   -0.9363   -1.3243    0.0022 C   0  0  0  0  0  0  0  0  0  0  0  0
    0.5783    2.0572    0.0448 O   0  0  0  0  0  0  0  0  0  0  0  0
   -1.6848    1.3602    0.0295 C   0  0  0  0  0  0  0  0  0  0  0  0
    2.4371    0.5093   -0.0442 C   0  0  0  0  0  0  0  0  0  0  0  0
    1.9289   -1.7886    0.0555 O   0  0  0  0  0  0  0  0  0  0  0  0
   -2.2919   -0.9879   -0.0182 C   0  0  0  0  0  0  0  0  0  0  0  0
   -0.5777   -2.6424   -0.0102 O   0  0  0  0  0  0  0  0  0  0  0  0
    1.9314    1.7585   -0.0494 C   0  0  0  0  0  0  0  0  0  0  0  0
   -2.6525    0.3566   -0.0070 C   0  0  0  0  0  0  0  0  0  0  0  0
    3.7875    0.2039   -0.0870 O   0  0  0  0  0  0  0  0  0  0  0  0
    2.8119    2.9478   -0.1193 C   0  0  0  0  0  0  0  0  0  0  0  0
   -3.9606    0.7442   -0.0396 O   0  0  0  0  0  0  0  0  0  0  0  0
    2.8772    3.9014    0.9075 C   0  0  0  0  0  0  0  0  0  0  0  0
    3.6725    3.1089   -1.2256 C   0  0  0  0  0  0  0  0  0  0  0  0
    3.7621    4.9796    0.8310 C   0  0  0  0  0  0  0  0  0  0  0  0
    2.1234    3.8234    2.0472 O   0  0  0  0  0  0  0  0  0  0  0  0
    4.5771    4.1751   -1.2940 C   0  0  0  0  0  0  0  0  0  0  0  0
    4.6058    5.1091   -0.2666 C   0  0  0  0  0  0  0  0  0  0  0  0
    5.4575    6.1735   -0.2960 O   0  0  0  0  0  0  0  0  0  0  0  0
  1  2  2  0
  1  3  1  0
  1  4  1  0
  2  5  1  0
  2  6  1  0
  3  7  1  0
  3  8  2  0
  4  9  2  0
  4 10  1  0
  5 11  1  0
  6 12  2  0
  7 13  1  0
  7 11  2  0
  9 12  1  0
 11 14  1  0
 12 15  1  0
 14 16  2  0
 14 17  1  0
 16 18  1  0
 16 19  1  0
 17 20  2  0
 18 21  2  0
 20 21  1  0
 21 22  1  0
M  END
>  <DRUGBANK_ID>  (1) 
DB16770

>  <COMMON_NAME>  (1) 
Morin

>  <CAS_NUMBER>  (1) 
480-16-0

>  <UNII>  (1) 
8NFQ3F76WR

>  <SYNONYMS>  (1) 
2-(2,4-Dihydroxyphenyl)-3,5,7-trihydroxy-4h-1-benzopyran-4-one; 2',3,4',5,7-Pentahydroxyflavone; Al-Morin; Aurantica; C.I. Natural yellow 8; Calico Yellow

$$$$
