
     RDKit          3D

 24 25  0  0  0  0  0  0  0  0999 V2000
   -4.0491   12.0335   -2.6442 N   0  0  0  0  0  0  0  0  0  0  0  0
   -5.0172   11.5141   -1.6868 C   0  0  1  0  0  0  0  0  0  0  0  0
   -3.6173   13.3339   -2.6942 C   0  0  0  0  0  0  0  0  0  0  0  0
   -3.4812   10.8395   -2.9197 C   0  0  0  0  0  0  0  0  0  0  0  0
   -4.6504   10.1166   -2.2244 C   0  0  1  0  0  0  0  0  0  0  0  0
   -4.4555   11.9532   -0.0293 S   0  0  0  0  0  0  0  0  0  0  0  0
   -3.9722   14.1765   -1.6864 C   0  0  0  0  0  0  0  0  0  0  0  0
   -2.7947   13.8173   -3.8805 C   0  0  0  0  0  0  0  0  0  0  0  0
   -2.4784   10.5715   -3.5473 O   0  0  0  0  0  0  0  0  0  0  0  0
   -4.3994    9.0343   -1.2494 N   0  0  0  0  0  0  0  0  0  0  0  0
   -4.6177   13.7266   -0.3805 C   0  0  0  0  0  0  0  0  0  0  0  0
   -3.7766   15.6773   -1.6649 C   0  0  0  0  0  0  0  0  0  0  0  0
   -2.6380   12.9485   -4.9001 O   0  0  0  0  0  0  0  0  0  0  0  0
   -2.3327   14.9434   -3.9849 O   0  0  0  0  0  0  0  0  0  0  0  0
   -5.0704    7.8562   -1.4027 C   0  0  0  0  0  0  0  0  0  0  0  0
   -4.8480    6.8289   -0.3199 C   0  0  0  0  0  0  0  0  0  0  0  0
   -5.7692    7.6413   -2.3956 O   0  0  0  0  0  0  0  0  0  0  0  0
   -6.1658    6.1984    0.1507 C   0  0  0  0  0  0  0  0  0  0  0  0
   -7.1011    5.6811   -0.9550 C   0  0  0  0  0  0  0  0  0  0  0  0
   -6.5260    4.5301   -1.8042 C   0  0  2  0  0  0  0  0  0  0  0  0
   -5.0164    4.5451   -2.1079 C   0  0  0  0  0  0  0  0  0  0  0  0
   -7.2587    4.4054   -3.0761 N   0  0  0  0  0  0  0  0  0  0  0  0
   -4.6222    5.4006   -3.0843 O   0  0  0  0  0  0  0  0  0  0  0  0
   -4.1981    3.9147   -1.4469 O   0  0  0  0  0  0  0  0  0  0  0  0
  1  2  1  0
  1  3  1  0
  1  4  1  0
  2  5  1  0
  2  6  1  1
  3  7  2  0
  3  8  1  0
  4  9  2  0
  4  5  1  0
  5 10  1  1
  6 11  1  0
  7 12  1  0
  7 11  1  0
  8 13  1  0
  8 14  2  0
 10 15  1  0
 15 16  1  0
 15 17  2  0
 16 18  1  0
 18 19  1  0
 20 22  1  6
 20 21  1  0
 20 19  1  0
 21 23  1  0
 21 24  2  0
M  END
>  <DRUGBANK_ID>  (1) 
DB03938

>  <SECONDARY_ACCESSION_NUMBERS>  (1) 
EXPT02469

>  <COMMON_NAME>  (1) 
Deacetoxycephalosporin C

>  <CAS_NUMBER>  (1) 
26924-74-3

>  <SYNONYMS>  (1) 
DAOC; De(acetyloxy)cephalosporin C; Deacetoxycephalosporin C; Deacetoxycephalosporin-C

$$$$
