
     RDKit          3D

 13 13  0  0  1  0  0  0  0  0999 V2000
   -1.3745   -0.4117   -0.0112 C   0  0  0  0  0  0  0  0  0  0  0  0
    0.4299    1.4607    0.0182 C   0  0  0  0  0  0  0  0  0  0  0  0
   -0.4516   -1.3723   -0.0210 C   0  0  0  0  0  0  0  0  0  0  0  0
    1.4814    0.3615    0.0280 C   0  0  2  0  0  0  0  0  0  0  0  0
    1.0144   -1.1081   -0.0483 C   0  0  2  0  0  0  0  0  0  0  0  0
   -1.5716    1.5323    1.4317 C   0  0  0  0  0  0  0  0  0  0  0  0
   -1.0474    1.0422    0.0563 C   0  0  2  0  0  0  0  0  0  0  0  0
   -0.8776   -2.6565   -0.0154 F   0  0  0  0  0  0  0  0  0  0  0  0
    2.2968    0.5926    1.1880 O   0  0  0  0  0  0  0  0  0  0  0  0
    1.5131   -1.6430   -1.2810 O   0  0  0  0  0  0  0  0  0  0  0  0
   -2.3538    2.4539    1.6296 O   0  0  0  0  0  0  0  0  0  0  0  0
   -0.9873    0.8791    2.4670 O   0  0  0  0  0  0  0  0  0  0  0  0
   -1.6763    1.6030   -1.0905 O   0  0  0  0  0  0  0  0  0  0  0  0
  3  1  2  0
  4  2  1  0
  4  9  1  1
  5  3  1  0
  5  4  1  0
  5 10  1  6
  7  1  1  0
  7  2  1  0
  7  6  1  0
  7 13  1  6
  8  3  1  0
 11  6  2  0
 12  6  1  0
M  END
>  <DRUGBANK_ID>  (1) 
DB02786

>  <SECONDARY_ACCESSION_NUMBERS>  (1) 
EXPT01387

>  <COMMON_NAME>  (1) 
2-Anhydro-3-Fluoro-Quinic Acid

$$$$
