
     RDKit          3D

 16 16  0  0  0  0  0  0  0  0999 V2000
    0.6401   -1.2017    0.0066 C   0  0  0  0  0  0  0  0  0  0  0  0
   -0.7772   -1.2086    0.0142 C   0  0  0  0  0  0  0  0  0  0  0  0
   -1.3995    0.0458    0.0055 C   0  0  0  0  0  0  0  0  0  0  0  0
   -0.6382    1.2141    0.0085 C   0  0  0  0  0  0  0  0  0  0  0  0
    0.7645    1.2195    0.0075 C   0  0  0  0  0  0  0  0  0  0  0  0
    1.3911   -0.0254    0.0000 C   0  0  0  0  0  0  0  0  0  0  0  0
   -1.4428   -2.5918    0.0354 C   0  0  0  0  0  0  0  0  0  0  0  0
   -1.0223   -3.3842   -1.2250 C   0  0  0  0  0  0  0  0  0  0  0  0
   -0.9957   -3.3608    1.3025 C   0  0  0  0  0  0  0  0  0  0  0  0
   -2.9737   -2.5666    0.0534 C   0  0  0  0  0  0  0  0  0  0  0  0
   -2.7248    0.3573   -0.0068 O   0  0  0  0  0  0  0  0  0  0  0  0
    2.7503   -0.1415   -0.0134 O   0  0  0  0  0  0  0  0  0  0  0  0
    1.4607    2.5823    0.0131 C   0  0  0  0  0  0  0  0  0  0  0  0
    1.0304    3.3778   -1.2405 C   0  0  0  0  0  0  0  0  0  0  0  0
    1.0423    3.3613    1.2812 C   0  0  0  0  0  0  0  0  0  0  0  0
    2.9947    2.5008    0.0056 C   0  0  0  0  0  0  0  0  0  0  0  0
  2  1  2  0
  3  2  1  0
  3 11  1  0
  4  3  2  0
  5  4  1  0
  5 13  1  0
  6  1  1  0
  6  5  2  0
  6 12  1  0
  7  2  1  0
  7  8  1  0
  7  9  1  0
  7 10  1  0
 13 14  1  0
 13 15  1  0
 13 16  1  0
M  END
>  <DRUGBANK_ID>  (1) 
DB04638

>  <COMMON_NAME>  (1) 
2,5-di-tert-butylhydroquinone

>  <CAS_NUMBER>  (1) 
88-58-4

>  <UNII>  (1) 
26XK13B61B

>  <SYNONYMS>  (1) 
2,5-di-tert-butylbenzene-1,4-diol

$$$$
