SCL
     RDKit          3D

 14 14  0  0  0  0  0  0  0  0999 V2000
    0.0456   -1.1430    0.0081 C   0  0  0  0  0  0  0  0  0  0  0  0
    0.7661    0.0977    0.0031 C   0  0  0  0  0  0  0  0  0  0  0  0
    0.1174    1.3066    0.0090 C   0  0  0  0  0  0  0  0  0  0  0  0
   -1.2647    1.3048   -0.0009 C   0  0  0  0  0  0  0  0  0  0  0  0
   -1.9878    0.1017   -0.0132 C   0  0  0  0  0  0  0  0  0  0  0  0
   -1.3414   -1.1339   -0.0034 C   0  0  0  0  0  0  0  0  0  0  0  0
    0.8325   -2.3734    0.0315 C   0  0  0  0  0  0  0  0  0  0  0  0
    2.2577   -5.3132    0.1147 C   0  0  0  0  0  0  0  0  0  0  0  0
    3.3415   -4.3183    0.1093 C   0  0  0  0  0  0  0  0  0  0  0  0
    0.3139   -3.6393    0.0598 N   0  0  0  0  0  0  0  0  0  0  0  0
    2.1411    0.2409   -0.0090 O   0  0  0  0  0  0  0  0  0  0  0  0
    2.0154   -2.0134    0.0219 O   0  0  0  0  0  0  0  0  0  0  0  0
    0.9285   -4.9331    0.0909 O   0  0  0  0  0  0  0  0  0  0  0  0
    2.5630   -6.5071    0.1415 O   0  0  0  0  0  0  0  0  0  0  0  0
  1  2  2  0
  1  6  1  0
  1  7  1  0
  2  3  1  0
  2 11  1  0
  3  4  2  0
  4  5  1  0
  5  6  2  0
  7 10  1  0
  7 12  2  0
  8  9  1  0
  8 13  1  0
  8 14  2  0
 10 13  1  0
M  END
>  <DRUGBANK_ID>  (1) 
DB03667

>  <SECONDARY_ACCESSION_NUMBERS>  (1) 
EXPT02867

>  <COMMON_NAME>  (1) 
Acetic Acid Salicyloyl-Amino-Ester

$$$$
