
     RDKit          3D

 26 25  0  0  0  0  0  0  0  0999 V2000
    0.8388   -0.4141    0.2977 C   0  0  0  0  0  0  0  0  0  0  0  0
    0.3601   -0.0006    1.7503 C   0  0  0  0  0  0  0  0  0  0  0  0
    0.0385    0.2621   -0.7275 C   0  0  0  0  0  0  0  0  0  0  0  0
    0.5004   -1.7650   -0.2385 C   0  0  0  0  0  0  0  0  0  0  0  0
   -0.3175    1.2267    1.9846 O   0  0  0  0  0  0  0  0  0  0  0  0
    0.6435   -0.7095    2.6251 O   0  0  0  0  0  0  0  0  0  0  0  0
    0.7660    0.2791   -2.4108 C   0  0  0  0  0  0  0  0  0  0  0  0
    1.3856   -2.1716   -1.4245 C   0  0  0  0  0  0  0  0  0  0  0  0
   -0.6779    2.4484    1.1869 C   0  0  0  0  0  0  0  0  0  0  0  0
   -0.0192   -0.5439   -3.3288 C   0  0  0  0  0  0  0  0  0  0  0  0
    0.5943    3.2802    0.6855 C   0  0  0  0  0  0  0  0  0  0  0  0
   -1.4539   -0.2523   -3.1034 C   0  0  0  0  0  0  0  0  0  0  0  0
    1.6115    2.5680   -0.1147 C   0  0  0  0  0  0  0  0  0  0  0  0
    0.8330    2.2947   -1.3758 C   0  0  0  0  0  0  0  0  0  0  0  0
    0.3278    3.0331   -2.5482 C   0  0  0  0  0  0  0  0  0  0  0  0
    1.6719    3.2739   -3.1530 C   0  0  0  0  0  0  0  0  0  0  0  0
    2.5512    2.0812   -3.8370 C   0  0  0  0  0  0  0  0  0  0  0  0
    1.7783    1.3592   -4.9708 C   0  0  0  0  0  0  0  0  0  0  0  0
    1.3262    2.3759   -5.9506 C   0  0  0  0  0  0  0  0  0  0  0  0
    2.5969    2.9942   -6.4462 C   0  0  0  0  0  0  0  0  0  0  0  0
    3.4650    1.8814   -7.0468 C   0  0  0  0  0  0  0  0  0  0  0  0
    2.6848    1.2065   -8.1752 C   0  0  0  0  0  0  0  0  0  0  0  0
    2.3024    2.2675   -9.2070 C   0  0  0  0  0  0  0  0  0  0  0  0
    3.5666    2.9266   -9.7631 C   0  0  0  0  0  0  0  0  0  0  0  0
    4.4668    1.8809  -10.4157 C   0  0  0  0  0  0  0  0  0  0  0  0
    3.7242    1.2023  -11.5525 C   0  0  0  0  0  0  0  0  0  0  0  0
  1  2  1  0
  1  3  1  0
  1  4  1  0
  2  5  1  0
  2  6  2  0
  3  7  1  0
  4  8  1  0
  5  9  1  0
  7 10  1  0
  9 11  1  0
 10 12  1  0
 11 13  1  0
 13 14  1  0
 14 15  1  0
 15 16  1  0
 16 17  1  0
 17 18  1  0
 18 19  1  0
 19 20  1  0
 20 21  1  0
 21 22  1  0
 22 23  1  0
 23 24  1  0
 24 25  1  0
 25 26  1  0
M  END
>  <DRUGBANK_ID>  (1) 
DB11349

>  <COMMON_NAME>  (1) 
Cetyl ethylhexanoate

>  <CAS_NUMBER>  (1) 
59130-69-7

>  <UNII>  (1) 
134647WMX4

>  <SYNONYMS>  (1) 
Cetyl 2-ethylhexanoate; Hexadecyl 2-ethylhexanoate; Perceline oil

$$$$
