
     RDKit          3D

 25 29  0  0  1  0  0  0  0  0999 V2000
    1.2267    0.0564   -0.0626 C   0  0  0  0  0  0  0  0  0  0  0  0
    1.3318   -1.3033    0.5081 C   0  0  0  0  0  0  0  0  0  0  0  0
    0.4876   -1.7147    1.3620 O   0  0  0  0  0  0  0  0  0  0  0  0
    2.4172   -2.0600    0.1368 O   0  0  0  0  0  0  0  0  0  0  0  0
    3.3298   -2.5293   -0.9495 C   0  0  0  0  0  0  0  0  0  0  0  0
    4.5238   -1.8717   -1.3806 C   0  0  0  0  0  0  0  0  0  0  0  0
    4.5429   -0.9226   -2.6130 C   0  0  0  0  0  0  0  0  0  0  0  0
    3.1559   -1.3635   -3.0853 C   0  0  1  0  0  0  0  0  0  0  0  0
    3.0203   -0.7978   -4.4082 C   0  0  1  0  0  0  0  0  0  0  0  0
    4.2953   -2.0677   -5.1000 C   0  0  0  0  0  0  0  0  0  0  0  0
    4.6546   -3.5998   -4.3757 C   0  0  0  0  0  0  0  0  0  0  0  0
    5.6447   -4.6544   -4.3310 C   0  0  0  0  0  0  0  0  0  0  0  0
    5.5648   -5.8323   -3.3996 C   0  0  0  0  0  0  0  0  0  0  0  0
    4.5283   -5.9604   -2.4826 C   0  0  0  0  0  0  0  0  0  0  0  0
    3.5803   -4.9763   -2.6054 C   0  0  0  0  0  0  0  0  0  0  0  0
    3.6586   -3.8896   -3.5179 C   0  0  0  0  0  0  0  0  0  0  0  0
    2.6527   -2.8461   -3.2815 C   0  0  1  0  0  0  0  0  0  0  0  0
    2.3577   -3.3463   -1.9048 C   0  0  1  0  0  0  0  0  0  0  0  0
    2.5424   -4.7675   -1.7430 O   0  0  0  0  0  0  0  0  0  0  0  0
    1.6135   -2.9210   -4.4692 C   0  0  0  0  0  0  0  0  0  0  0  0
    0.6902   -1.7364   -4.3698 C   0  0  0  0  0  0  0  0  0  0  0  0
    1.5148   -0.5634   -4.6637 N   0  0  0  0  0  0  0  0  0  0  0  0
    0.7788    0.6324   -4.0641 C   0  0  0  0  0  0  0  0  0  0  0  0
    4.4597   -6.9822   -1.5730 O   0  0  0  0  0  0  0  0  0  0  0  0
    4.8172   -6.5837   -0.2371 C   0  0  0  0  0  0  0  0  0  0  0  0
  1  2  1  0
  2  3  2  0
  2  4  1  0
  4  5  1  0
  5  6  2  0
  5 18  1  0
  6  7  1  0
  8  7  1  6
  8  9  1  0
  8 17  1  0
  9 10  1  6
  9 22  1  0
 10 11  1  0
 11 12  2  0
 11 16  1  0
 12 13  1  0
 13 14  2  0
 14 15  1  0
 14 24  1  0
 15 16  2  0
 15 19  1  0
 17 16  1  0
 17 18  1  0
 17 20  1  6
 18 19  1  6
 20 21  1  0
 21 22  1  0
 22 23  1  0
 24 25  1  0
M  END
>  <DRUGBANK_ID>  (1) 
DB13458

>  <COMMON_NAME>  (1) 
Thebacon

>  <CAS_NUMBER>  (1) 
466-90-0

>  <UNII>  (1) 
520D430GDK

>  <SYNONYMS>  (1) 
Thebacon

$$$$
