
     RDKit          3D

 28 28  0  0  0  0  0  0  0  0999 V2000
    0.3139    0.7808    1.2184 I   0  0  0  0  0  0  0  0  0  0  0  0
   -0.6095    5.5448   -0.4076 S   0  0  0  0  0  0  0  0  0  0  0  0
   -2.9610    1.6978    1.4121 O   0  0  0  0  0  0  0  0  0  0  0  0
   -1.0154    6.1369    3.6436 O   0  0  0  0  0  0  0  0  0  0  0  0
   -2.9650    6.2635    4.7405 O   0  0  0  0  0  0  0  0  0  0  0  0
   -3.8145    4.7769    6.0562 O   0  0  0  0  0  0  0  0  0  0  0  0
   -5.4340    5.9241   -0.0686 O   0  0  0  0  0  0  0  0  0  0  0  0
   -5.0196    3.9466    0.9518 O   0  0  0  0  0  0  0  0  0  0  0  0
   -1.5606    3.3166    1.7967 N   0  0  0  0  0  0  0  0  0  0  0  0
   -2.8658    5.4708    2.4457 N   0  0  0  0  0  0  0  0  0  0  0  0
   -0.5057    3.9044    5.8621 N   0  0  0  0  0  0  0  0  0  0  0  0
   -0.6321    4.4049    2.1891 C   0  0  1  0  0  0  0  0  0  0  0  0
   -2.3718    2.4306    4.8455 C   0  0  0  0  0  0  0  0  0  0  0  0
   -3.2886    2.5504    3.6160 C   0  0  0  0  0  0  0  0  0  0  0  0
    0.0640    5.4228    1.2659 C   0  0  0  0  0  0  0  0  0  0  0  0
   -1.7142    3.8143    5.0295 C   0  0  1  0  0  0  0  0  0  0  0  0
   -2.5713    2.5165    2.2568 C   0  0  0  0  0  0  0  0  0  0  0  0
   -1.5189    5.4095    2.8233 C   0  0  0  0  0  0  0  0  0  0  0  0
   -0.6890    3.7296   -0.8730 C   0  0  0  0  0  0  0  0  0  0  0  0
   -2.8514    5.0285    5.3199 C   0  0  0  0  0  0  0  0  0  0  0  0
    0.7180    3.2129   -0.7822 C   0  0  0  0  0  0  0  0  0  0  0  0
   -3.3520    5.7008    1.1077 C   0  0  0  0  0  0  0  0  0  0  0  0
    1.2764    2.2006    0.0183 C   0  0  0  0  0  0  0  0  0  0  0  0
    1.5891    3.9868   -1.5788 C   0  0  0  0  0  0  0  0  0  0  0  0
    2.6629    2.0154    0.0103 C   0  0  0  0  0  0  0  0  0  0  0  0
    2.9478    3.7931   -1.5869 C   0  0  0  0  0  0  0  0  0  0  0  0
   -4.6767    5.1275    0.6953 C   0  0  0  0  0  0  0  0  0  0  0  0
    3.4838    2.7930   -0.8011 C   0  0  0  0  0  0  0  0  0  0  0  0
  1 23  1  0
  2 15  1  0
  2 19  1  0
  3 17  2  0
  4 18  2  0
  5 20  1  0
  6 20  2  0
  7 27  1  0
  8 27  2  0
  9 17  1  0
 10 18  1  0
 10 22  1  0
 12 18  1  0
 12 15  1  6
 12  9  1  0
 13 14  1  0
 14 17  1  0
 16 20  1  0
 16 13  1  0
 16 11  1  1
 19 21  1  0
 21 23  2  0
 21 24  1  0
 22 27  1  0
 23 25  1  0
 24 26  2  0
 25 28  2  0
 26 28  1  0
M  END
>  <DRUGBANK_ID>  (1) 
DB03597

>  <SECONDARY_ACCESSION_NUMBERS>  (1) 
EXPT01826

>  <COMMON_NAME>  (1) 
gamma-Glutamyl[S-(2-iodobenzyl)cysteinyl]glycine

$$$$
