
     RDKit          3D

 36 38  0  0  0  0  0  0  0  0999 V2000
   -9.6319    7.4164   -2.9526 C   0  0  0  0  0  0  0  0  0  0  0  0
   -8.5519    6.5943   -3.1875 C   0  0  0  0  0  0  0  0  0  0  0  0
   -7.5682    6.5675   -2.2452 C   0  0  0  0  0  0  0  0  0  0  0  0
   -9.7303    8.1819   -1.7733 C   0  0  0  0  0  0  0  0  0  0  0  0
   -8.6983    8.2298   -0.8374 C   0  0  0  0  0  0  0  0  0  0  0  0
   -7.6039    7.4137   -1.1189 C   0  0  0  0  0  0  0  0  0  0  0  0
   -8.7158    9.1171    0.4202 C   0  0  2  0  0  0  0  0  0  0  0  0
   -8.0480    8.4804    1.6748 C   0  0  2  0  0  0  0  0  0  0  0  0
   -8.8595    7.5278    2.4745 N   0  0  0  0  0  0  0  0  0  0  0  0
   -8.0731    7.0893    3.6316 C   0  0  0  0  0  0  0  0  0  0  0  0
   -7.7218    8.1843    4.5849 C   0  0  0  0  0  0  0  0  0  0  0  0
   -6.8237    9.1552    3.8685 C   0  0  0  0  0  0  0  0  0  0  0  0
   -7.4933    9.6285    2.5801 C   0  0  0  0  0  0  0  0  0  0  0  0
  -10.0637    6.9921    1.9189 C   0  0  0  0  0  0  0  0  0  0  0  0
  -10.9349    6.2729    2.6500 O   0  0  0  0  0  0  0  0  0  0  0  0
  -10.4686    5.4346    3.6459 C   0  0  0  0  0  0  0  0  0  0  0  0
   -9.2720    4.5654    3.2514 N   0  0  0  0  0  0  0  0  0  0  0  0
   -8.7422    3.8285    4.2513 C   0  0  0  0  0  0  0  0  0  0  0  0
   -7.4790    3.2598    4.1232 C   0  0  0  0  0  0  0  0  0  0  0  0
   -8.5759    4.6442    2.0584 C   0  0  0  0  0  0  0  0  0  0  0  0
   -7.2138    4.2580    1.9863 C   0  0  0  0  0  0  0  0  0  0  0  0
   -6.6730    3.5582    3.0339 C   0  0  0  0  0  0  0  0  0  0  0  0
   -6.4170    4.6326    0.7866 C   0  0  0  0  0  0  0  0  0  0  0  0
   -5.0262    4.6260    0.8196 N   0  0  0  0  0  0  0  0  0  0  0  0
   -4.0980    5.0658   -0.2997 C   0  0  2  0  0  0  0  0  0  0  0  0
   -2.6754    5.4212    0.1974 C   0  0  0  0  0  0  0  0  0  0  0  0
   -7.0891    4.9339   -0.1508 O   0  0  0  0  0  0  0  0  0  0  0  0
  -10.0648    9.7598    0.8925 C   0  0  0  0  0  0  0  0  0  0  0  0
  -10.4488   10.9169    0.3259 O   0  0  0  0  0  0  0  0  0  0  0  0
   -9.4438   11.8454   -0.0289 C   0  0  0  0  0  0  0  0  0  0  0  0
  -10.7921    9.3421    1.7931 O   0  0  0  0  0  0  0  0  0  0  0  0
  -10.3925    7.0550    0.7425 O   0  0  0  0  0  0  0  0  0  0  0  0
   -1.8487    4.4702    0.1353 O   0  0  0  0  0  0  0  0  0  0  0  0
   -2.5219    6.5861    0.6682 O   0  0  0  0  0  0  0  0  0  0  0  0
   -4.5024    6.3462   -1.0043 C   0  0  0  0  0  0  0  0  0  0  0  0
   -3.7742    6.7109   -2.1693 O   0  0  0  0  0  0  0  0  0  0  0  0
  1  2  2  0
  1  4  1  0
  2  3  1  0
  4  5  2  0
  5  6  1  0
  6  3  2  0
  7 28  1  1
  7  5  1  0
  8  9  1  0
  8  7  1  0
  9 10  1  0
  9 14  1  0
 10 11  1  0
 11 12  1  0
 12 13  1  0
  8 13  1  1
 14 15  1  0
 14 32  2  0
 15 16  1  0
 16 17  1  0
 17 18  2  0
 17 20  1  0
 18 19  1  0
 20 21  2  0
 21 22  1  0
 21 23  1  0
 22 19  2  0
 23 24  1  0
 23 27  2  0
 25 35  1  1
 25 26  1  0
 25 24  1  0
 26 33  2  0
 26 34  1  0
 28 29  1  0
 28 31  2  0
 29 30  1  0
 35 36  1  0
M  CHG  2  17   1  34  -1
M  END
>  <DRUGBANK_ID>  (1) 
DB16629

>  <COMMON_NAME>  (1) 
Serdexmethylphenidate

>  <CAS_NUMBER>  (1) 
1996626-29-9

>  <UNII>  (1) 
0H8KZ470DW

>  <SYNONYMS>  (1) 
Serdexmethylphenidate

$$$$
