701
     RDKit          3D

 35 37  0  0  1  0  0  0  0  0999 V2000
    1.1754   -0.1906    0.2026 S   0  0  0  0  0  0  0  0  0  0  0  0
   -0.5738    2.0103   -2.5374 O   0  0  0  0  0  0  0  0  0  0  0  0
    4.5868    1.7390   -4.7818 O   0  0  0  0  0  0  0  0  0  0  0  0
    4.7329    2.8844   -1.4832 O   0  0  0  0  0  0  0  0  0  0  0  0
    1.1622   -0.9781   -1.0161 O   0  0  0  0  0  0  0  0  0  0  0  0
    0.6238   -0.7115    1.4320 O   0  0  0  0  0  0  0  0  0  0  0  0
    2.7543    1.0382   -5.7961 O   0  0  0  0  0  0  0  0  0  0  0  0
    0.4450    1.3634   -0.0887 N   0  0  0  0  0  0  0  0  0  0  0  0
    2.5282    2.3817   -3.9450 N   0  0  0  0  0  0  0  0  0  0  0  0
    7.0374   -0.0888   -0.0291 N   0  0  0  0  0  0  0  0  0  0  0  0
    0.7769    1.7630   -2.5458 C   0  0  1  0  0  0  0  0  0  0  0  0
    1.1094    2.4073   -3.8479 C   0  0  2  0  0  0  0  0  0  0  0  0
    1.0540    2.2975   -1.1559 C   0  0  0  0  0  0  0  0  0  0  0  0
   -1.1496    1.4815    0.1587 C   0  0  0  0  0  0  0  0  0  0  0  0
    0.3633    1.6606   -5.0034 C   0  0  0  0  0  0  0  0  0  0  0  0
   -2.1117    0.7118   -0.8437 C   0  0  0  0  0  0  0  0  0  0  0  0
    5.2482    2.3852   -3.7103 C   0  0  1  0  0  0  0  0  0  0  0  0
   -1.1454    1.6299   -4.9957 C   0  0  0  0  0  0  0  0  0  0  0  0
   -1.6098   -0.6766   -1.1523 C   0  0  0  0  0  0  0  0  0  0  0  0
   -3.6003    0.8115   -0.8256 C   0  0  0  0  0  0  0  0  0  0  0  0
    4.9503    3.8689   -3.5886 C   0  0  0  0  0  0  0  0  0  0  0  0
    2.9043   -0.0759    0.4240 C   0  0  0  0  0  0  0  0  0  0  0  0
    4.8772    1.7798   -2.3848 C   0  0  0  0  0  0  0  0  0  0  0  0
    3.2349    1.6737   -4.8947 C   0  0  0  0  0  0  0  0  0  0  0  0
    5.0754    4.1127   -2.1127 C   0  0  0  0  0  0  0  0  0  0  0  0
   -1.8136    0.3984   -4.8928 C   0  0  0  0  0  0  0  0  0  0  0  0
   -1.8709    2.8234   -4.9288 C   0  0  0  0  0  0  0  0  0  0  0  0
    3.5931    1.1064    0.5379 C   0  0  0  0  0  0  0  0  0  0  0  0
    3.5911   -1.2925    0.2526 C   0  0  0  0  0  0  0  0  0  0  0  0
   -3.1930    0.3668   -4.7211 C   0  0  0  0  0  0  0  0  0  0  0  0
   -3.2374    2.7856   -4.6757 C   0  0  0  0  0  0  0  0  0  0  0  0
    4.9857    1.0605    0.4991 C   0  0  0  0  0  0  0  0  0  0  0  0
    4.9754   -1.3179    0.1917 C   0  0  0  0  0  0  0  0  0  0  0  0
    5.6884   -0.1335    0.3161 C   0  0  0  0  0  0  0  0  0  0  0  0
   -3.9034    1.5615   -4.6172 C   0  0  0  0  0  0  0  0  0  0  0  0
  1  5  2  0
  1  6  2  0
  1  8  1  0
  1 22  1  0
  3 24  1  0
  4 23  1  0
  4 25  1  0
  7 24  2  0
  8 13  1  0
  8 14  1  0
  9 24  1  0
 10 34  1  0
 11  2  1  1
 11 12  1  0
 11 13  1  0
 12  9  1  0
 12 15  1  6
 14 16  1  0
 15 18  1  0
 16 19  1  0
 16 20  1  0
 17  3  1  6
 17 21  1  0
 17 23  1  0
 18 26  2  0
 18 27  1  0
 21 25  1  0
 22 28  2  0
 22 29  1  0
 26 30  1  0
 27 31  2  0
 28 32  1  0
 29 33  2  0
 30 35  2  0
 31 35  1  0
 32 34  2  0
 33 34  1  0
M  END
>  <DRUGBANK_ID>  (1) 
DB00701

>  <SECONDARY_ACCESSION_NUMBERS>  (1) 
APRD00605

>  <COMMON_NAME>  (1) 
Amprenavir

>  <CAS_NUMBER>  (1) 
161814-49-9

>  <UNII>  (1) 
5S0W860XNR

>  <SYNONYMS>  (1) 
(3S)-Tetrahydro-3-furanyl ((1S,2R)-3-(((4-aminophenyl)sulfonyl)(2-methylpropyl)amino)-2-hydroxy-1-(phenylmethyl)propyl)carbamate; Amprenavir; Ampr√©navir; Amprenavirum

$$$$
