
     RDKit          3D

 30 31  0  0  0  0  0  0  0  0999 V2000
    1.0494    0.0530    0.2031 C   0  0  0  0  0  0  0  0  0  0  0  0
    0.6677    1.5088    0.0104 C   0  0  0  0  0  0  0  0  0  0  0  0
    1.2500    1.9544   -1.3359 C   0  0  0  0  0  0  0  0  0  0  0  0
    0.6765    1.0171   -2.4036 C   0  0  0  0  0  0  0  0  0  0  0  0
   -0.8286    1.0670   -2.1959 C   0  0  0  0  0  0  0  0  0  0  0  0
   -1.1291    2.5351   -2.2654 C   0  0  0  0  0  0  0  0  0  0  0  0
   -0.5954    2.7074   -3.8482 C   0  0  0  0  0  0  0  0  0  0  0  0
   -1.6053    1.4062   -4.9968 C   0  0  0  0  0  0  0  0  0  0  0  0
   -3.3125    1.8290   -5.5612 N   0  0  0  0  0  0  0  0  0  0  0  0
   -4.3095    0.8088   -5.4268 C   0  0  0  0  0  0  0  0  0  0  0  0
   -5.4967    1.4210   -4.6884 C   0  0  0  0  0  0  0  0  0  0  0  0
   -5.4401    2.8970   -4.9695 C   0  0  0  0  0  0  0  0  0  0  0  0
   -4.2326    3.2612   -5.5365 C   0  0  0  0  0  0  0  0  0  0  0  0
   -3.8150    4.7756   -5.5575 C   0  0  0  0  0  0  0  0  0  0  0  0
   -4.7539    5.7592   -5.1516 C   0  0  0  0  0  0  0  0  0  0  0  0
   -6.0346    5.3144   -4.7373 C   0  0  0  0  0  0  0  0  0  0  0  0
   -6.3397    3.9038   -4.5933 C   0  0  0  0  0  0  0  0  0  0  0  0
   -7.6826    3.4169   -4.1336 C   0  0  0  0  0  0  0  0  0  0  0  0
   -7.1613    6.3187   -4.5375 C   0  0  0  0  0  0  0  0  0  0  0  0
   -8.2765    6.1206   -5.5378 C   0  0  0  0  0  0  0  0  0  0  0  0
   -9.4493    5.9180   -5.2647 O   0  0  0  0  0  0  0  0  0  0  0  0
   -7.8722    6.1797   -6.8225 O   0  0  0  0  0  0  0  0  0  0  0  0
   -4.3775    7.2374   -5.2080 C   0  0  0  0  0  0  0  0  0  0  0  0
   -2.5154    5.3713   -5.8180 N   0  0  0  0  0  0  0  0  0  0  0  0
   -1.3278    4.7437   -6.0775 C   0  0  0  0  0  0  0  0  0  0  0  0
   -0.2874    5.2582   -6.2745 O   0  0  0  0  0  0  0  0  0  0  0  0
   -1.5732    3.3003   -5.9514 C   0  0  0  0  0  0  0  0  0  0  0  0
   -2.5651    3.2268   -4.1789 C   0  0  0  0  0  0  0  0  0  0  0  0
   -2.3953    2.8291   -7.4324 C   0  0  0  0  0  0  0  0  0  0  0  0
    0.1185    2.5720   -6.2902 C   0  0  0  0  0  0  0  0  0  0  0  0
  1  2  1  0
  2  3  1  0
  3  4  1  0
  4  5  1  0
  5  6  1  0
  6  7  1  0
  7  8  1  0
  8  9  1  0
  9 10  1  0
  9 13  1  0
 10 11  1  0
 11 12  1  0
 12 13  2  0
 12 17  1  0
 13 14  1  0
 14 15  2  0
 14 24  1  0
 15 16  1  0
 15 23  1  0
 16 17  2  0
 16 19  1  0
 17 18  1  0
 19 20  1  0
 20 21  2  0
 20 22  1  0
 24 25  1  0
 25 26  2  0
 25 27  1  0
 27 28  1  0
 27 29  1  0
 27 30  1  0
M  END
>  <DRUGBANK_ID>  (1) 
DB12971

>  <COMMON_NAME>  (1) 
Pactimibe

>  <CAS_NUMBER>  (1) 
189198-30-9

>  <UNII>  (1) 
D874R9PZ9T

>  <SYNONYMS>  (1) 
Pactimibe

$$$$
