
     RDKit          3D

 21 23  0  0  0  0  0  0  0  0999 V2000
    1.0491   -0.0433    0.0882 C   0  0  0  0  0  0  0  0  0  0  0  0
    0.5672   -0.9115    1.2576 N   0  0  0  0  0  0  0  0  0  0  0  0
    0.5861   -2.4046    0.8273 C   0  0  0  0  0  0  0  0  0  0  0  0
    0.3748   -3.3540    2.0170 C   0  0  0  0  0  0  0  0  0  0  0  0
    1.4622   -3.1007    3.0467 C   0  0  0  0  0  0  0  0  0  0  0  0
    2.4573   -3.9626    3.3687 C   0  0  0  0  0  0  0  0  0  0  0  0
    3.4839   -3.5931    4.3898 C   0  0  0  0  0  0  0  0  0  0  0  0
    3.1023   -3.3205    5.7103 C   0  0  0  0  0  0  0  0  0  0  0  0
    4.0615   -3.0692    6.6911 C   0  0  0  0  0  0  0  0  0  0  0  0
    5.4153   -3.1424    6.3743 C   0  0  0  0  0  0  0  0  0  0  0  0
    5.8114   -3.4398    5.0717 C   0  0  0  0  0  0  0  0  0  0  0  0
    4.8506   -3.6346    4.0747 C   0  0  0  0  0  0  0  0  0  0  0  0
    2.5501   -5.3049    2.7167 C   0  0  0  0  0  0  0  0  0  0  0  0
    2.7397   -5.4429    1.3339 C   0  0  0  0  0  0  0  0  0  0  0  0
    2.8849   -6.7069    0.7579 C   0  0  0  0  0  0  0  0  0  0  0  0
    2.9016   -7.8413    1.5653 C   0  0  0  0  0  0  0  0  0  0  0  0
    2.7529   -7.7161    2.9444 C   0  0  0  0  0  0  0  0  0  0  0  0
    2.5479   -6.4576    3.5146 C   0  0  0  0  0  0  0  0  0  0  0  0
    1.2966   -1.6872    3.5851 C   0  0  0  0  0  0  0  0  0  0  0  0
    1.5263   -0.6829    2.4542 C   0  0  0  0  0  0  0  0  0  0  0  0
   -0.8555   -0.4677    1.5825 C   0  0  0  0  0  0  0  0  0  0  0  0
  1  2  1  0
  2  3  1  0
  2 20  1  0
  2 21  1  0
  3  4  1  0
  4  5  1  0
  5  6  2  3
  5 19  1  0
  6  7  1  0
  6 13  1  0
  7  8  2  0
  7 12  1  0
  8  9  1  0
  9 10  2  0
 10 11  1  0
 11 12  2  0
 13 14  2  0
 13 18  1  0
 14 15  1  0
 15 16  2  0
 16 17  1  0
 17 18  2  0
 19 20  1  0
M  CHG  1   2   1
M  END
>  <DRUGBANK_ID>  (1) 
DB13720

>  <COMMON_NAME>  (1) 
Diphemanil

>  <CAS_NUMBER>  (1) 
15394-62-4

>  <UNII>  (1) 
Q26TX1UD0W

>  <SYNONYMS>  (1) 
Diphemanil cation; Diphemanil ion

$$$$
