
     RDKit          3D

 26 27  0  0  0  0  0  0  0  0999 V2000
    0.3744    1.3195    0.0760 N   0  0  0  0  0  0  0  0  0  0  0  0
   -0.9616    1.0079    0.0097 C   0  0  0  0  0  0  0  0  0  0  0  0
   -1.3262   -0.2896   -0.0254 N   0  0  0  0  0  0  0  0  0  0  0  0
    0.7556    2.7096    0.0218 C   0  0  2  0  0  0  0  0  0  0  0  0
    1.3978    0.3253   -0.0466 C   0  0  0  0  0  0  0  0  0  0  0  0
    0.8804   -0.9939    0.0449 N   0  0  0  0  0  0  0  0  0  0  0  0
   -0.4402   -1.2132   -0.0121 C   0  0  0  0  0  0  0  0  0  0  0  0
    1.5262    2.9421   -1.1686 O   0  0  0  0  0  0  0  0  0  0  0  0
    1.5874    3.1875    1.2049 C   0  0  0  0  0  0  0  0  0  0  0  0
    2.4202    4.2808    0.5834 C   0  0  1  0  0  0  0  0  0  0  0  0
    2.6320    3.8109   -0.8536 C   0  0  1  0  0  0  0  0  0  0  0  0
    1.6960    5.5102    0.6179 O   0  0  0  0  0  0  0  0  0  0  0  0
   -1.8278    1.8855    0.0115 O   0  0  0  0  0  0  0  0  0  0  0  0
   -0.8382   -2.5133   -0.0308 N   0  0  0  0  0  0  0  0  0  0  0  0
    3.9673    3.0720   -1.0450 C   0  0  0  0  0  0  0  0  0  0  0  0
    3.9664    1.7419   -0.5325 O   0  0  0  0  0  0  0  0  0  0  0  0
   -2.1034   -2.9759    0.2109 C   0  0  0  0  0  0  0  0  0  0  0  0
   -2.2041   -4.1290    0.6112 O   0  0  0  0  0  0  0  0  0  0  0  0
   -3.0987   -2.0893   -0.0461 O   0  0  0  0  0  0  0  0  0  0  0  0
   -4.5047   -2.4050   -0.0222 C   0  0  0  0  0  0  0  0  0  0  0  0
   -4.9028   -3.1744   -1.2813 C   0  0  0  0  0  0  0  0  0  0  0  0
   -4.1874   -4.5193   -1.3499 C   0  0  0  0  0  0  0  0  0  0  0  0
   -4.4891   -5.3547   -0.0869 C   0  0  0  0  0  0  0  0  0  0  0  0
   -5.9524   -5.7681   -0.0341 C   0  0  0  0  0  0  0  0  0  0  0  0
   -6.3147   -6.5916   -1.2613 C   0  0  0  0  0  0  0  0  0  0  0  0
   -5.4548   -7.8447   -1.3280 C   0  0  0  0  0  0  0  0  0  0  0  0
  2  1  1  0
  3  2  1  0
  3  7  2  0
  4  1  1  1
  5  1  1  0
  6  5  1  0
  7  6  1  0
  8  4  1  0
  9  4  1  0
 10  9  1  0
 10 12  1  6
 11  8  1  0
 11 10  1  0
 11 15  1  1
 13  2  2  0
 14  7  1  0
 14 17  1  0
 16 15  1  0
 17 18  2  0
 17 19  1  0
 19 20  1  0
 20 21  1  0
 21 22  1  0
 22 23  1  0
 23 24  1  0
 24 25  1  0
 25 26  1  0
M  END
>  <DRUGBANK_ID>  (1) 
DB05644

>  <COMMON_NAME>  (1) 
KP-1461

>  <CAS_NUMBER>  (1) 
815588-85-3

>  <UNII>  (1) 
3PEN569TJP

$$$$
