
     RDKit          3D

 33 36  0  0  0  0  0  0  0  0999 V2000
    1.0804   -0.0360    0.0205 C   0  0  0  0  0  0  0  0  0  0  0  0
    0.4597   -1.4783   -0.8021 S   0  0  0  0  0  0  0  0  0  0  0  0
    1.0757   -2.6300   -0.1707 O   0  0  0  0  0  0  0  0  0  0  0  0
   -0.9815   -1.3570   -0.8988 O   0  0  0  0  0  0  0  0  0  0  0  0
    1.0608   -1.4317   -2.4716 C   0  0  0  0  0  0  0  0  0  0  0  0
    1.2749   -0.2160   -3.1244 C   0  0  0  0  0  0  0  0  0  0  0  0
    1.6748   -0.2245   -4.4586 C   0  0  0  0  0  0  0  0  0  0  0  0
    1.7921   -1.4420   -5.1513 C   0  0  0  0  0  0  0  0  0  0  0  0
    1.6418   -2.6427   -4.4657 C   0  0  0  0  0  0  0  0  0  0  0  0
    1.2824   -2.6488   -3.1280 C   0  0  0  0  0  0  0  0  0  0  0  0
    1.9149   -3.8049   -5.0776 F   0  0  0  0  0  0  0  0  0  0  0  0
    2.1720   -1.4494   -6.5116 N   0  0  0  0  0  0  0  0  0  0  0  0
    1.5459   -2.2203   -7.5021 C   0  0  0  0  0  0  0  0  0  0  0  0
    2.0751   -2.3977   -8.7347 C   0  0  0  0  0  0  0  0  0  0  0  0
    3.2817   -1.6754   -9.0960 C   0  0  0  0  0  0  0  0  0  0  0  0
    3.7126   -0.8229   -8.1706 C   0  0  0  0  0  0  0  0  0  0  0  0
    3.3423   -0.7937   -6.7806 C   0  0  0  0  0  0  0  0  0  0  0  0
    4.1084   -0.2340   -5.9873 O   0  0  0  0  0  0  0  0  0  0  0  0
    3.8545   -1.8455  -10.3366 O   0  0  0  0  0  0  0  0  0  0  0  0
    5.1688   -1.3264  -10.7015 C   0  0  0  0  0  0  0  0  0  0  0  0
    6.3584   -1.7460   -9.8179 C   0  0  0  0  0  0  0  0  0  0  0  0
    6.6011   -0.8488   -8.6122 C   0  0  0  0  0  0  0  0  0  0  0  0
    6.4035    0.5786   -8.9266 N   0  0  0  0  0  0  0  0  0  0  0  0
    5.3784    1.0974   -9.8496 C   0  0  0  0  0  0  0  0  0  0  0  0
    5.2087    0.1704  -11.0498 C   0  0  0  0  0  0  0  0  0  0  0  0
    7.4178    1.4304   -8.5526 C   0  0  0  0  0  0  0  0  0  0  0  0
    7.1275    2.5554   -7.8728 N   0  0  0  0  0  0  0  0  0  0  0  0
    8.1710    3.3366   -7.4931 C   0  0  0  0  0  0  0  0  0  0  0  0
    9.4772    3.0740   -7.8223 C   0  0  0  0  0  0  0  0  0  0  0  0
    9.6673    1.9228   -8.5406 C   0  0  0  0  0  0  0  0  0  0  0  0
    8.6703    1.0825   -8.8907 N   0  0  0  0  0  0  0  0  0  0  0  0
   10.7729    4.1018   -7.3915 Cl  0  0  0  0  0  0  0  0  0  0  0  0
    1.2727   -3.3756   -9.9036 Cl  0  0  0  0  0  0  0  0  0  0  0  0
  1  2  1  0
  2  3  2  0
  2  4  2  0
  2  5  1  0
  5  6  2  0
  5 10  1  0
  6  7  1  0
  7  8  2  0
  8  9  1  0
  8 12  1  0
  9 10  2  0
  9 11  1  0
 12 13  1  0
 12 17  1  0
 13 14  2  0
 14 15  1  0
 14 33  1  0
 15 16  2  0
 15 19  1  0
 16 17  1  0
 17 18  2  0
 19 20  1  0
 20 21  1  0
 20 25  1  0
 21 22  1  0
 22 23  1  0
 23 24  1  0
 23 26  1  0
 24 25  1  0
 26 27  2  0
 26 31  1  0
 27 28  1  0
 28 29  2  0
 29 30  1  0
 29 32  1  0
 30 31  2  0
M  END
>  <DRUGBANK_ID>  (1) 
DB11773

>  <COMMON_NAME>  (1) 
BMS-903452

>  <CAS_NUMBER>  (1) 
1339944-47-6

>  <UNII>  (1) 
49731B9ULN

$$$$
