
     RDKit          3D

 23 25  0  0  0  0  0  0  0  0999 V2000
    0.5785   -0.1152    0.0636 O   0  0  0  0  0  0  0  0  0  0  0  0
    0.1713    0.9601    0.8301 C   0  0  0  0  0  0  0  0  0  0  0  0
    0.9923    1.8078    1.4831 C   0  0  0  0  0  0  0  0  0  0  0  0
    2.4933    1.8427    1.5340 C   0  0  0  0  0  0  0  0  0  0  0  0
    3.0149    2.5665    2.3848 O   0  0  0  0  0  0  0  0  0  0  0  0
    3.2477    1.0383    0.5935 C   0  0  0  0  0  0  0  0  0  0  0  0
    3.0771    0.8507   -0.7663 C   0  0  0  0  0  0  0  0  0  0  0  0
    3.8944   -0.2331   -1.1387 C   0  0  0  0  0  0  0  0  0  0  0  0
    4.6491   -0.5504   -0.0330 C   0  0  0  0  0  0  0  0  0  0  0  0
    5.7672   -1.5246    0.1391 C   0  0  0  0  0  0  0  0  0  0  0  0
    7.0915   -0.8516    0.4168 C   0  0  0  0  0  0  0  0  0  0  0  0
    7.2800   -0.1631    1.6258 C   0  0  0  0  0  0  0  0  0  0  0  0
    8.4736    0.5063    1.8812 C   0  0  0  0  0  0  0  0  0  0  0  0
    9.4919    0.4681    0.9388 C   0  0  0  0  0  0  0  0  0  0  0  0
   10.6416    1.1088    1.1865 F   0  0  0  0  0  0  0  0  0  0  0  0
    9.3367   -0.2226   -0.2579 C   0  0  0  0  0  0  0  0  0  0  0  0
    8.1342   -0.8801   -0.5242 C   0  0  0  0  0  0  0  0  0  0  0  0
    4.2396    0.1990    1.0410 O   0  0  0  0  0  0  0  0  0  0  0  0
   -1.2609    1.0608    0.8563 C   0  0  0  0  0  0  0  0  0  0  0  0
   -2.0093    2.1731    0.8170 N   0  0  0  0  0  0  0  0  0  0  0  0
   -3.2528    1.6590    0.7899 N   0  0  0  0  0  0  0  0  0  0  0  0
   -3.2328    0.3048    0.8639 C   0  0  0  0  0  0  0  0  0  0  0  0
   -1.9913   -0.1069    0.9009 N   0  0  0  0  0  0  0  0  0  0  0  0
  1  2  1  0
  2  3  2  0
  2 19  1  0
  3  4  1  0
  4  5  2  0
  4  6  1  0
  6  7  2  0
  6 18  1  0
  7  8  1  0
  8  9  2  0
  9 10  1  0
  9 18  1  0
 10 11  1  0
 11 12  2  0
 11 17  1  0
 12 13  1  0
 13 14  2  0
 14 15  1  0
 14 16  1  0
 16 17  2  0
 19 20  2  0
 19 23  1  0
 20 21  1  0
 21 22  1  0
 22 23  2  0
M  END
>  <DRUGBANK_ID>  (1) 
DB16032

>  <COMMON_NAME>  (1) 
GW810781

>  <CAS_NUMBER>  (1) 
280571-30-4

>  <UNII>  (1) 
W7KQU075CV

$$$$
