OWL
     RDKit          3D

 25 28  0  0  0  0  0  0  0  0999 V2000
    1.4224   -0.1878    0.0533 C   0  0  0  0  0  0  0  0  0  0  0  0
   -1.4043    0.2598   -0.0460 C   0  0  0  0  0  0  0  0  0  0  0  0
    0.5166   -1.2603    0.0137 C   0  0  0  0  0  0  0  0  0  0  0  0
    0.8848    1.0968    0.0242 C   0  0  0  0  0  0  0  0  0  0  0  0
   -0.4880    1.3103    0.0442 C   0  0  0  0  0  0  0  0  0  0  0  0
   -0.8812   -1.0390   -0.0418 C   0  0  0  0  0  0  0  0  0  0  0  0
   -2.9108    2.7541   -1.2412 C   0  0  0  0  0  0  0  0  0  0  0  0
   -4.5936    3.5897    0.7740 C   0  0  0  0  0  0  0  0  0  0  0  0
   -3.3671    1.8056   -0.3122 C   0  0  0  0  0  0  0  0  0  0  0  0
   -3.2703    4.1066   -1.1544 C   0  0  0  0  0  0  0  0  0  0  0  0
   -4.1090    4.5518   -0.1278 C   0  0  0  0  0  0  0  0  0  0  0  0
   -4.2515    2.2332    0.6751 C   0  0  0  0  0  0  0  0  0  0  0  0
   -2.7808    0.5185   -0.2643 N   0  0  0  0  0  0  0  0  0  0  0  0
   -5.2419    6.4234    0.9359 C   0  0  0  0  0  0  0  0  0  0  0  0
   -6.4649    7.0070    0.7073 N   0  0  0  0  0  0  0  0  0  0  0  0
   -4.9848    6.3704    2.2166 N   0  0  0  0  0  0  0  0  0  0  0  0
    3.7139    0.6029    0.2287 C   0  0  0  0  0  0  0  0  0  0  0  0
    4.7777    0.7760   -0.6203 N   0  0  0  0  0  0  0  0  0  0  0  0
    3.6917    1.5579    1.1314 N   0  0  0  0  0  0  0  0  0  0  0  0
    2.8248   -0.3916   -0.0367 N   0  0  0  0  0  0  0  0  0  0  0  0
   -4.5812    5.8872   -0.1216 N   0  0  0  0  0  0  0  0  0  0  0  0
   -7.0383    7.2586    1.9259 C   0  0  0  0  0  0  0  0  0  0  0  0
   -6.0934    6.8810    2.8464 C   0  0  0  0  0  0  0  0  0  0  0  0
    5.4069    1.9437   -0.2816 C   0  0  0  0  0  0  0  0  0  0  0  0
    4.7289    2.4018    0.8207 C   0  0  0  0  0  0  0  0  0  0  0  0
  1  3  2  0
  2 13  1  0
  3  6  1  0
  4  1  1  0
  4  5  2  0
  5  2  1  0
  6  2  2  0
  7 10  2  0
  8 11  2  0
  9  7  1  0
  9 12  2  0
 10 11  1  0
 11 21  1  0
 12  8  1  0
 13  9  1  0
 14 16  2  0
 15 14  1  0
 15 22  1  0
 16 23  1  0
 17 18  1  0
 19 17  2  0
 19 25  1  0
 20  1  1  0
 20 17  1  0
 21 14  1  0
 22 23  2  0
 24 18  1  0
 25 24  2  0
M  END
>  <DRUGBANK_ID>  (1) 
DB08331

>  <COMMON_NAME>  (1) 
N-1H-imidazol-2-yl-N'-[4-(1H-imidazol-2-ylamino)phenyl]benzene-1,4-diamine

$$$$
