
     RDKit          3D

 37 40  0  0  1  0  0  0  0  0999 V2000
    1.0897   -0.3138    0.1280 C   0  0  0  0  0  0  0  0  0  0  0  0
    0.5998    1.0800    0.0033 C   0  0  0  0  0  0  0  0  0  0  0  0
    1.0956    1.6397   -1.2976 C   0  0  0  0  0  0  0  0  0  0  0  0
    0.5414    1.1225   -2.6311 C   0  0  1  0  0  0  0  0  0  0  0  0
   -1.0043    1.2077   -2.6480 C   0  0  1  0  0  0  0  0  0  0  0  0
   -1.5389    2.6666   -2.6174 C   0  0  0  0  0  0  0  0  0  0  0  0
   -2.8202    3.0595   -2.9625 C   0  0  0  0  0  0  0  0  0  0  0  0
   -2.8648    4.4311   -3.0313 N   0  0  0  0  0  0  0  0  0  0  0  0
   -1.6740    4.9919   -2.6321 C   0  0  0  0  0  0  0  0  0  0  0  0
   -0.8460    3.9475   -2.2560 C   0  0  0  0  0  0  0  0  0  0  0  0
    0.5121    4.3828   -1.9467 C   0  0  0  0  0  0  0  0  0  0  0  0
    1.0405    5.6536   -1.9390 C   0  0  0  0  0  0  0  0  0  0  0  0
    2.5264    5.7502   -1.7088 C   0  0  0  0  0  0  0  0  0  0  0  0
    0.1515    6.6355   -2.2865 C   0  0  0  0  0  0  0  0  0  0  0  0
   -1.1912    6.3189   -2.6332 C   0  0  0  0  0  0  0  0  0  0  0  0
   -1.9995    7.3117   -3.0194 F   0  0  0  0  0  0  0  0  0  0  0  0
   -1.5128    0.3437   -3.8332 C   0  0  0  0  0  0  0  0  0  0  0  0
   -2.0352    0.8500   -5.0302 C   0  0  0  0  0  0  0  0  0  0  0  0
   -2.3367    0.0085   -6.1075 C   0  0  0  0  0  0  0  0  0  0  0  0
   -2.0700   -1.3541   -6.0278 C   0  0  0  0  0  0  0  0  0  0  0  0
   -2.3812   -2.3691   -7.3808 Cl  0  0  0  0  0  0  0  0  0  0  0  0
   -1.5292   -1.8926   -4.8675 C   0  0  0  0  0  0  0  0  0  0  0  0
   -1.2752   -1.0561   -3.7750 C   0  0  0  0  0  0  0  0  0  0  0  0
    1.1142    1.7256   -3.9213 C   0  0  0  0  0  0  0  0  0  0  0  0
    1.6303    0.8770   -4.8537 C   0  0  0  0  0  0  0  0  0  0  0  0
    1.9186    1.3685   -6.1224 C   0  0  0  0  0  0  0  0  0  0  0  0
    1.8363    2.7241   -6.5108 C   0  0  0  0  0  0  0  0  0  0  0  0
    1.3477    3.5807   -5.5817 C   0  0  0  0  0  0  0  0  0  0  0  0
    0.9461    3.0335   -4.3907 C   0  0  0  0  0  0  0  0  0  0  0  0
    2.1222    3.4136   -7.8011 C   0  0  0  0  0  0  0  0  0  0  0  0
    1.9146    4.6057   -7.9366 O   0  0  0  0  0  0  0  0  0  0  0  0
    2.6432    2.7283   -8.8564 N   0  0  0  0  0  0  0  0  0  0  0  0
    2.9572    1.3397   -8.9962 C   0  0  0  0  0  0  0  0  0  0  0  0
    1.9704    0.5880   -9.8506 C   0  0  0  0  0  0  0  0  0  0  0  0
    2.3021    0.9893  -11.2525 C   0  0  0  0  0  0  0  0  0  0  0  0
    2.7914   -0.0212  -12.0028 O   0  0  0  0  0  0  0  0  0  0  0  0
    2.2314    2.1313  -11.6537 O   0  0  0  0  0  0  0  0  0  0  0  0
  1  2  1  0
  2  3  1  0
  4  3  1  1
  4  5  1  0
  4 24  1  0
  5  6  1  6
  5 17  1  0
  6  7  2  0
  6 10  1  0
  7  8  1  0
  8  9  1  0
  9 10  2  0
  9 15  1  0
 10 11  1  0
 11 12  2  0
 12 13  1  0
 12 14  1  0
 14 15  2  0
 15 16  1  0
 17 18  2  0
 17 23  1  0
 18 19  1  0
 19 20  2  0
 20 21  1  0
 20 22  1  0
 22 23  2  0
 24 25  2  0
 24 29  1  0
 25 26  1  0
 26 27  2  0
 27 28  1  0
 27 30  1  0
 28 29  2  0
 30 31  2  0
 30 32  1  0
 32 33  1  0
 33 34  1  0
 34 35  1  0
 35 36  1  0
 35 37  2  0
M  END
>  <DRUGBANK_ID>  (1) 
DB14957

>  <COMMON_NAME>  (1) 
MK-3577

>  <CAS_NUMBER>  (1) 
1019112-29-8

>  <UNII>  (1) 
03TW1410NL

$$$$
