285
     RDKit          3D

 20 21  0  0  1  0  0  0  0  0999 V2000
    2.2495   -0.2483    0.1944 O   0  0  0  0  0  0  0  0  0  0  0  0
    3.7743    4.2083   -4.2036 O   0  0  0  0  0  0  0  0  0  0  0  0
   -1.5946    0.8315   -2.8424 N   0  0  0  0  0  0  0  0  0  0  0  0
    0.8487   -0.0839   -0.1967 C   0  0  0  0  0  0  0  0  0  0  0  0
    0.7846   -0.0951   -1.9022 C   0  0  0  0  0  0  0  0  0  0  0  0
    0.1659   -1.3162    0.4125 C   0  0  0  0  0  0  0  0  0  0  0  0
    0.4618    1.1644    0.6948 C   0  0  0  0  0  0  0  0  0  0  0  0
   -1.3457   -1.2345    0.4139 C   0  0  0  0  0  0  0  0  0  0  0  0
   -1.0189    1.3913    1.0413 C   0  0  0  0  0  0  0  0  0  0  0  0
   -1.9005    0.0848    1.0542 C   0  0  0  0  0  0  0  0  0  0  0  0
   -0.6290   -0.3216   -2.7968 C   0  0  0  0  0  0  0  0  0  0  0  0
    1.6263    1.0338   -2.5324 C   0  0  0  0  0  0  0  0  0  0  0  0
    2.9779    1.1538   -2.2656 C   0  0  0  0  0  0  0  0  0  0  0  0
    1.0706    1.9858   -3.4287 C   0  0  0  0  0  0  0  0  0  0  0  0
   -3.0374    0.6695   -2.9591 C   0  0  0  0  0  0  0  0  0  0  0  0
   -1.4745    1.4221   -1.5695 C   0  0  0  0  0  0  0  0  0  0  0  0
    3.7380    2.1923   -2.7903 C   0  0  0  0  0  0  0  0  0  0  0  0
    1.8264    2.9965   -3.9882 C   0  0  0  0  0  0  0  0  0  0  0  0
    3.1439    3.1350   -3.6564 C   0  0  0  0  0  0  0  0  0  0  0  0
    5.1008    4.4130   -3.7508 C   0  0  0  0  0  0  0  0  0  0  0  0
  1  4  1  0
  2 19  1  0
  2 20  1  0
  3 11  1  0
  3 15  1  0
  3 16  1  0
  4  5  1  0
  4  6  1  0
  4  7  1  0
  5 11  1  0
  5 12  1  0
  6  8  1  0
  7  9  1  0
  8 10  1  0
  9 10  1  0
 12 13  2  0
 12 14  1  0
 13 17  1  0
 14 18  2  0
 17 19  2  0
 18 19  1  0
M  END
>  <DRUGBANK_ID>  (1) 
DB00285

>  <SECONDARY_ACCESSION_NUMBERS>  (1) 
APRD00125

>  <COMMON_NAME>  (1) 
Venlafaxine

>  <CAS_NUMBER>  (1) 
93413-69-5

>  <UNII>  (1) 
GRZ5RCB1QG

>  <SYNONYMS>  (1) 
Venlafaxina; Venlafaxine; Venlafaxinum

$$$$
