KR2
     RDKit          3D

 30 32  0  0  0  0  0  0  0  0999 V2000
    1.4740   -0.2682    0.0396 C   0  0  0  0  0  0  0  0  0  0  0  0
    0.5901   -1.3727    0.0684 C   0  0  0  0  0  0  0  0  0  0  0  0
   -0.7997   -1.1991    0.0330 C   0  0  0  0  0  0  0  0  0  0  0  0
   -1.3084    0.0673   -0.1311 C   0  0  0  0  0  0  0  0  0  0  0  0
   -0.4096    1.0996   -0.3444 C   0  0  0  0  0  0  0  0  0  0  0  0
    0.9627    1.0144   -0.1393 C   0  0  0  0  0  0  0  0  0  0  0  0
    1.7669    2.2767   -0.3190 C   0  0  0  0  0  0  0  0  0  0  0  0
    2.9812    2.2075   -0.5889 O   0  0  0  0  0  0  0  0  0  0  0  0
    1.0549    3.4888   -0.3073 N   0  0  0  0  0  0  0  0  0  0  0  0
    1.0835    4.4515   -1.4274 C   0  0  0  0  0  0  0  0  0  0  0  0
    1.6616    5.8568   -1.2075 C   0  0  0  0  0  0  0  0  0  0  0  0
    0.7535    6.6391   -0.2991 C   0  0  0  0  0  0  0  0  0  0  0  0
    1.1751    6.3950    1.1321 C   0  0  0  0  0  0  0  0  0  0  0  0
    1.4700    4.9400    1.5529 C   0  0  0  0  0  0  0  0  0  0  0  0
    0.5347    3.9588    0.9812 N   0  0  0  0  0  0  0  0  0  0  0  0
   -0.7738    3.6404    1.3150 C   0  0  0  0  0  0  0  0  0  0  0  0
   -1.5768    3.3261    0.4183 O   0  0  0  0  0  0  0  0  0  0  0  0
   -1.4351    3.6893    2.6909 C   0  0  0  0  0  0  0  0  0  0  0  0
   -2.7673    4.4855    2.5139 C   0  0  2  0  0  0  0  0  0  0  0  0
   -3.7707    3.5724    1.9152 N   0  0  0  0  0  0  0  0  0  0  0  0
   -2.5882    5.7796    1.6675 C   0  0  0  0  0  0  0  0  0  0  0  0
   -1.8795    6.9010    2.4087 C   0  0  0  0  0  0  0  0  0  0  0  0
   -2.0861    8.2141    1.9873 C   0  0  0  0  0  0  0  0  0  0  0  0
   -1.3685    9.2552    2.5890 C   0  0  0  0  0  0  0  0  0  0  0  0
   -1.5922   10.5092    2.1865 F   0  0  0  0  0  0  0  0  0  0  0  0
   -0.4182    9.0180    3.5810 C   0  0  0  0  0  0  0  0  0  0  0  0
    0.3649    9.9946    4.0481 F   0  0  0  0  0  0  0  0  0  0  0  0
   -0.1906    7.7477    4.0202 C   0  0  0  0  0  0  0  0  0  0  0  0
   -0.8907    6.7308    3.4092 C   0  0  0  0  0  0  0  0  0  0  0  0
   -0.2093    5.6059    3.5329 F   0  0  0  0  0  0  0  0  0  0  0  0
  1  2  2  0
  1  6  1  0
  2  3  1  0
  3  4  2  0
  4  5  1  0
  5  6  2  0
  6  7  1  0
  7  9  1  0
  7  8  2  0
  9 15  1  0
  9 10  1  0
 10 11  1  0
 11 12  1  0
 12 13  1  0
 13 14  1  0
 14 15  1  0
 15 16  1  0
 16 18  1  0
 16 17  2  0
 18 19  1  0
 19 20  1  6
 19 21  1  0
 21 22  1  0
 22 23  2  0
 22 29  1  0
 23 24  1  0
 24 25  1  0
 24 26  2  0
 26 27  1  0
 26 28  1  0
 28 29  2  0
 29 30  1  0
M  END
>  <DRUGBANK_ID>  (1) 
DB08051

>  <COMMON_NAME>  (1) 
(2R)-4-(2-BENZOYL-1,2-DIAZEPAN-1-YL)-4-OXO-1-(2,4,5-TRIFLUOROPHENYL)BUTAN-2-AMINE

$$$$
