
     RDKit          3D

 32 34  0  0  0  0  0  0  0  0999 V2000
    1.1692    0.0501    0.0419 C   0  0  0  0  0  0  0  0  0  0  0  0
    0.7085    0.5835   -1.2903 C   0  0  0  0  0  0  0  0  0  0  0  0
    1.0475   -0.2930   -2.4850 C   0  0  0  0  0  0  0  0  0  0  0  0
   -6.6408   -3.3826   -5.1797 C   0  0  0  0  0  0  0  0  0  0  0  0
   -3.3530    2.1241   -7.0844 C   0  0  0  0  0  0  0  0  0  0  0  0
   -6.1306   -3.6715   -3.9219 C   0  0  0  0  0  0  0  0  0  0  0  0
   -5.8587   -2.6506   -6.0614 C   0  0  0  0  0  0  0  0  0  0  0  0
   -2.0523    1.9796   -6.5946 C   0  0  0  0  0  0  0  0  0  0  0  0
   -4.4095    1.4910   -6.4427 C   0  0  0  0  0  0  0  0  0  0  0  0
   -4.8620   -3.1762   -3.5327 C   0  0  0  0  0  0  0  0  0  0  0  0
   -4.5548   -2.2638   -5.7109 C   0  0  0  0  0  0  0  0  0  0  0  0
   -1.8046    1.1739   -5.4664 C   0  0  0  0  0  0  0  0  0  0  0  0
   -4.1745    0.7600   -5.2909 C   0  0  0  0  0  0  0  0  0  0  0  0
   -1.6460   -5.2015   -4.0290 C   0  0  0  0  0  0  0  0  0  0  0  0
   -2.2755   -4.8271   -2.6770 C   0  0  0  0  0  0  0  0  0  0  0  0
    0.3900   -1.6383   -2.3321 C   0  0  0  0  0  0  0  0  0  0  0  0
   -1.7020   -2.2550   -1.1011 C   0  0  0  0  0  0  0  0  0  0  0  0
   -4.0366   -2.4512   -4.4256 C   0  0  0  0  0  0  0  0  0  0  0  0
   -2.8846    0.5320   -4.8302 C   0  0  0  0  0  0  0  0  0  0  0  0
   -1.2794   -6.6252   -4.1118 C   0  0  0  0  0  0  0  0  0  0  0  0
   -1.3925   -4.7925   -1.4593 C   0  0  0  0  0  0  0  0  0  0  0  0
   -1.5920   -2.2446   -3.6553 C   0  0  0  0  0  0  0  0  0  0  0  0
   -1.9541   -0.1956   -2.6914 C   0  0  0  0  0  0  0  0  0  0  0  0
   -1.1812   -1.5437   -2.3721 C   0  0  0  0  0  0  0  0  0  0  0  0
   -2.8046   -1.7560   -4.1153 N   0  0  0  0  0  0  0  0  0  0  0  0
   -2.8195   -0.4107   -3.7630 N   0  0  0  0  0  0  0  0  0  0  0  0
   -1.7160   -7.4475   -4.8928 O   0  0  0  0  0  0  0  0  0  0  0  0
   -0.2798   -6.8655   -3.2459 O   0  0  0  0  0  0  0  0  0  0  0  0
   -0.9848   -5.8283   -0.9444 O   0  0  0  0  0  0  0  0  0  0  0  0
   -0.8253   -2.8798   -4.3243 O   0  0  0  0  0  0  0  0  0  0  0  0
   -1.9496    0.8815   -2.1246 O   0  0  0  0  0  0  0  0  0  0  0  0
   -1.1219   -3.5933   -0.8755 O   0  0  0  0  0  0  0  0  0  0  0  0
  2  1  1  0
  3  2  1  0
  6  4  2  0
  7  4  1  0
  8  5  2  0
  9  5  1  0
 10  6  1  0
 11  7  2  0
 12  8  1  0
 13  9  2  0
 15 14  1  0
 16  3  1  0
 18 10  2  0
 18 11  1  0
 19 12  2  0
 19 13  1  0
 20 14  1  0
 21 15  1  0
 24 16  1  0
 24 17  1  0
 24 22  1  0
 24 23  1  0
 25 18  1  0
 25 22  1  0
 26 19  1  0
 26 23  1  0
 26 25  1  0
 27 20  2  0
 28 20  1  0
 29 21  2  0
 30 22  2  0
 31 23  2  0
 32 17  1  0
 32 21  1  0
M  END
>  <DRUGBANK_ID>  (1) 
DB13232

>  <COMMON_NAME>  (1) 
Suxibuzone

>  <CAS_NUMBER>  (1) 
27470-51-5

>  <UNII>  (1) 
86TDZ5WP2B

>  <SYNONYMS>  (1) 
suxibuzona; Suxibuzone

$$$$
