FLF
     RDKit          3D

 20 21  0  0  0  0  0  0  0  0999 V2000
    1.4065   -0.2332    0.0200 C   0  0  0  0  0  0  0  0  0  0  0  0
    3.7355    0.4022    0.1845 O   0  0  0  0  0  0  0  0  0  0  0  0
    0.5209   -1.3280    0.0247 C   0  0  0  0  0  0  0  0  0  0  0  0
   -0.8628   -1.1345   -0.0058 C   0  0  0  0  0  0  0  0  0  0  0  0
    3.1936   -1.7671    0.2690 O   0  0  0  0  0  0  0  0  0  0  0  0
   -1.3808    0.1492    0.0059 C   0  0  0  0  0  0  0  0  0  0  0  0
   -0.5137    1.2331    0.0080 C   0  0  0  0  0  0  0  0  0  0  0  0
    0.8863    1.0748   -0.0610 C   0  0  0  0  0  0  0  0  0  0  0  0
    2.8723   -0.4646    0.1459 C   0  0  0  0  0  0  0  0  0  0  0  0
    1.6866    2.1989   -0.3757 N   0  0  0  0  0  0  0  0  0  0  0  0
    1.2821    3.5424   -0.4058 C   0  0  0  0  0  0  0  0  0  0  0  0
    0.6330    4.1067    0.6952 C   0  0  0  0  0  0  0  0  0  0  0  0
    0.1763    5.4277    0.6765 C   0  0  0  0  0  0  0  0  0  0  0  0
    0.4135    6.2100   -0.4594 C   0  0  0  0  0  0  0  0  0  0  0  0
    1.1090    5.6761   -1.5448 C   0  0  0  0  0  0  0  0  0  0  0  0
    1.5132    4.3376   -1.5297 C   0  0  0  0  0  0  0  0  0  0  0  0
   -0.5121    5.9976    1.8838 C   0  0  0  0  0  0  0  0  0  0  0  0
    0.1717    7.0497    2.4100 F   0  0  0  0  0  0  0  0  0  0  0  0
   -1.7646    6.4553    1.6125 F   0  0  0  0  0  0  0  0  0  0  0  0
   -0.6564    5.1011    2.9005 F   0  0  0  0  0  0  0  0  0  0  0  0
  1  3  2  0
  1  8  1  0
  1  9  1  0
  2  9  2  0
  3  4  1  0
  4  6  2  0
  5  9  1  0
  6  7  1  0
  7  8  2  0
  8 10  1  0
 10 11  1  0
 11 12  2  0
 11 16  1  0
 12 13  1  0
 13 14  2  0
 13 17  1  0
 14 15  1  0
 15 16  2  0
 17 18  1  0
 17 19  1  0
 17 20  1  0
M  END
>  <DRUGBANK_ID>  (1) 
DB02266

>  <SECONDARY_ACCESSION_NUMBERS>  (1) 
EXPT01442

>  <COMMON_NAME>  (1) 
Flufenamic acid

>  <CAS_NUMBER>  (1) 
530-78-9

>  <UNII>  (1) 
60GCX7Y6BH

>  <SYNONYMS>  (1) 
acide flufénamique; ácido flufenámico; Acidum flufenamicum; Flufenamic acid

$$$$
