
     RDKit          3D

 24 26  0  0  0  0  0  0  0  0999 V2000
    1.0801    0.0528    0.4284 C   0  0  0  0  0  0  0  0  0  0  0  0
   -7.2277    4.7862   -2.6701 C   0  0  0  0  0  0  0  0  0  0  0  0
   -6.3711    3.9839   -3.4207 C   0  0  0  0  0  0  0  0  0  0  0  0
   -7.3625    4.5788   -1.2978 C   0  0  0  0  0  0  0  0  0  0  0  0
   -5.6986    2.9321   -2.8092 C   0  0  0  0  0  0  0  0  0  0  0  0
   -6.6521    3.5580   -0.6756 C   0  0  0  0  0  0  0  0  0  0  0  0
    0.6232    0.5031   -2.7343 C   0  0  0  0  0  0  0  0  0  0  0  0
    0.3036    2.7775   -3.3670 C   0  0  0  0  0  0  0  0  0  0  0  0
    0.3221    0.0510   -4.0068 C   0  0  0  0  0  0  0  0  0  0  0  0
    0.0672    2.3393   -4.6782 C   0  0  0  0  0  0  0  0  0  0  0  0
   -3.1753    2.6903   -0.2035 C   0  0  0  0  0  0  0  0  0  0  0  0
   -3.1753    0.1914   -0.3228 C   0  0  0  0  0  0  0  0  0  0  0  0
   -1.6756    2.6293   -0.1832 C   0  0  0  0  0  0  0  0  0  0  0  0
   -1.6614    0.2195   -0.3625 C   0  0  0  0  0  0  0  0  0  0  0  0
   -5.2522    1.4777   -0.7960 C   0  0  0  0  0  0  0  0  0  0  0  0
    0.4095    1.4406    0.2559 C   0  0  0  0  0  0  0  0  0  0  0  0
   -5.8728    2.6856   -1.4410 C   0  0  0  0  0  0  0  0  0  0  0  0
   -3.7411    1.4719   -0.9248 C   0  0  0  0  0  0  0  0  0  0  0  0
    0.6413    1.8539   -2.3616 C   0  0  0  0  0  0  0  0  0  0  0  0
    0.0884    0.9917   -4.9936 C   0  0  0  0  0  0  0  0  0  0  0  0
    1.0550    2.2709   -0.9452 C   0  0  0  0  0  0  0  0  0  0  0  0
   -1.0892    1.3833    0.3190 N   0  0  0  0  0  0  0  0  0  0  0  0
   -0.1238    0.5823   -6.2708 O   0  0  0  0  0  0  0  0  0  0  0  0
    0.9191    3.6881   -0.6948 O   0  0  0  0  0  0  0  0  0  0  0  0
  3  2  2  0
  4  2  1  0
  5  3  1  0
  6  4  2  0
  9  7  2  0
 10  8  1  0
 13 11  1  0
 14 12  1  0
 16  1  1  0
 17  5  2  0
 17  6  1  0
 17 15  1  0
 18 11  1  0
 18 12  1  0
 18 15  1  0
 19  7  1  0
 19  8  2  0
 20  9  1  0
 20 10  2  0
 21 16  1  0
 21 19  1  0
 22 13  1  0
 22 14  1  0
 22 16  1  0
 23 20  1  0
 24 21  1  0
M  END
>  <DRUGBANK_ID>  (1) 
DB08954

>  <COMMON_NAME>  (1) 
Ifenprodil

>  <CAS_NUMBER>  (1) 
23210-56-2

>  <UNII>  (1) 
R8OE3P6O5S

>  <SYNONYMS>  (1) 
Ifenprodil; Ifenprodilum

$$$$
