
     RDKit          3D

 12 12  0  0  0  0  0  0  0  0999 V2000
    0.9233    0.0122    0.0597 O   0  0  0  0  0  0  0  0  0  0  0  0
    1.7935    4.5249   -4.4033 O   0  0  0  0  0  0  0  0  0  0  0  0
    2.4701    1.9857    1.5212 N   0  0  0  0  0  0  0  0  0  0  0  0
    0.4762    1.3723    0.1428 C   0  0  0  0  0  0  0  0  0  0  0  0
    0.9953    1.9632    1.4799 C   0  0  0  0  0  0  0  0  0  0  0  0
    2.9448    2.6247    2.7364 C   0  0  0  0  0  0  0  0  0  0  0  0
    1.5317    3.7345   -3.3238 C   0  0  0  0  0  0  0  0  0  0  0  0
    0.8908    2.1837   -1.0772 C   0  0  0  0  0  0  0  0  0  0  0  0
    1.7534    2.3604   -3.3507 C   0  0  0  0  0  0  0  0  0  0  0  0
    1.0204    4.3474   -2.1942 C   0  0  0  0  0  0  0  0  0  0  0  0
    1.4299    1.5889   -2.2284 C   0  0  0  0  0  0  0  0  0  0  0  0
    0.6942    3.5777   -1.0800 C   0  0  0  0  0  0  0  0  0  0  0  0
  1  4  1  0
  2  7  1  0
  3  5  1  0
  3  6  1  0
  4  5  1  0
  4  8  1  0
  7  9  2  0
  7 10  1  0
  8 11  2  0
  8 12  1  0
  9 11  1  0
 10 12  2  0
M  END
>  <DRUGBANK_ID>  (1) 
DB09203

>  <COMMON_NAME>  (1) 
Synephrine

>  <CAS_NUMBER>  (1) 
94-07-5

>  <UNII>  (1) 
PEG5DP7434

>  <SYNONYMS>  (1) 
(Â±)-Synephrine; Oxedrine; p-synephrine

$$$$
