
     RDKit          3D

 33 37  0  0  0  0  0  0  0  0999 V2000
    1.6861    0.2725   -0.0485 C   0  0  0  0  0  0  0  0  0  0  0  0
    1.3378   -0.0090    1.2851 O   0  0  0  0  0  0  0  0  0  0  0  0
    1.4692   -1.3636    1.6591 C   0  0  0  0  0  0  0  0  0  0  0  0
    0.8413   -2.4032    0.7614 C   0  0  0  0  0  0  0  0  0  0  0  0
   -0.0370   -2.3667   -0.3329 C   0  0  0  0  0  0  0  0  0  0  0  0
   -0.8912   -1.2399   -0.8886 C   0  0  0  0  0  0  0  0  0  0  0  0
   -1.9067   -0.6396    0.0114 N   0  0  0  0  0  0  0  0  0  0  0  0
   -3.0348   -1.5414    0.2252 C   0  0  0  0  0  0  0  0  0  0  0  0
   -2.6454   -2.7368    1.0913 C   0  0  0  0  0  0  0  0  0  0  0  0
   -2.0159   -2.3223    2.3250 N   0  0  0  0  0  0  0  0  0  0  0  0
   -1.4449   -1.0864    2.4898 C   0  0  0  0  0  0  0  0  0  0  0  0
   -0.9560   -0.8017    3.5968 O   0  0  0  0  0  0  0  0  0  0  0  0
   -1.5254   -0.0673    1.3286 C   0  0  0  0  0  0  0  0  0  0  0  0
   -0.0633   -3.6731   -0.8539 N   0  0  0  0  0  0  0  0  0  0  0  0
   -0.7027   -4.1155   -1.9602 N   0  0  0  0  0  0  0  0  0  0  0  0
   -0.6557   -5.4071   -2.1215 C   0  0  0  0  0  0  0  0  0  0  0  0
   -0.0742   -6.3410   -1.2952 N   0  0  0  0  0  0  0  0  0  0  0  0
    0.5274   -5.9304   -0.2241 C   0  0  0  0  0  0  0  0  0  0  0  0
    1.1033   -6.8434    0.6084 N   0  0  0  0  0  0  0  0  0  0  0  0
    0.5605   -4.5258    0.0135 C   0  0  0  0  0  0  0  0  0  0  0  0
    1.0652   -3.7715    1.0278 C   0  0  0  0  0  0  0  0  0  0  0  0
    1.6725   -4.2581    2.2691 C   0  0  0  0  0  0  0  0  0  0  0  0
    2.9200   -4.8062    2.3647 C   0  0  0  0  0  0  0  0  0  0  0  0
    3.2778   -5.0320    3.7306 C   0  0  0  0  0  0  0  0  0  0  0  0
    2.2584   -4.6375    4.6027 C   0  0  0  0  0  0  0  0  0  0  0  0
    0.8798   -4.0905    3.7479 S   0  0  0  0  0  0  0  0  0  0  0  0
    2.3728   -4.7077    6.0004 C   0  0  0  0  0  0  0  0  0  0  0  0
    1.3104   -4.2637    6.7362 O   0  0  0  0  0  0  0  0  0  0  0  0
    1.4189   -4.3456    8.1453 C   0  0  0  0  0  0  0  0  0  0  0  0
    3.5573   -5.2325    6.5121 C   0  0  0  0  0  0  0  0  0  0  0  0
    4.5910   -5.6571    5.6735 C   0  0  0  0  0  0  0  0  0  0  0  0
    5.8453   -6.2236    6.2603 C   0  0  0  0  0  0  0  0  0  0  0  0
    4.4619   -5.5533    4.2837 C   0  0  0  0  0  0  0  0  0  0  0  0
  1  2  1  0
  2  3  1  0
  3  4  1  0
  4  5  2  0
  4 21  1  0
  5  6  1  0
  5 14  1  0
  6  7  1  0
  7  8  1  0
  7 13  1  0
  8  9  1  0
  9 10  1  0
 10 11  1  0
 11 12  2  0
 11 13  1  0
 14 15  1  0
 14 20  1  0
 15 16  2  0
 16 17  1  0
 17 18  2  0
 18 19  1  0
 18 20  1  0
 20 21  2  0
 21 22  1  0
 22 23  2  0
 22 26  1  0
 23 24  1  0
 24 25  2  0
 24 33  1  0
 25 26  1  0
 25 27  1  0
 27 28  1  0
 27 30  2  0
 28 29  1  0
 30 31  1  0
 31 32  1  0
 31 33  2  0
M  END
>  <DRUGBANK_ID>  (1) 
DB15078

>  <COMMON_NAME>  (1) 
Rogaratinib

>  <CAS_NUMBER>  (1) 
1443530-05-9

>  <UNII>  (1) 
98BSN6N516

>  <SYNONYMS>  (1) 
Rogaratinib

$$$$
