
     RDKit          3D

 14 14  0  0  0  0  0  0  0  0999 V2000
    0.9769   -0.8021   -0.2731 O   0  0  0  0  0  0  0  0  0  0  0  0
    0.2955   -0.7744   -1.4317 C   0  0  0  0  0  0  0  0  0  0  0  0
    0.8943   -0.8819   -2.5001 O   0  0  0  0  0  0  0  0  0  0  0  0
   -1.2130   -0.5727   -1.3184 C   0  0  0  0  0  0  0  0  0  0  0  0
   -1.9094   -1.7033   -1.6034 N   0  0  0  0  0  0  0  0  0  0  0  0
   -3.2544   -1.6539   -1.5031 C   0  0  0  0  0  0  0  0  0  0  0  0
   -3.9755   -0.5287   -1.1411 C   0  0  0  0  0  0  0  0  0  0  0  0
   -3.2768    0.6382   -0.8650 C   0  0  0  0  0  0  0  0  0  0  0  0
   -1.8716    0.6460   -0.9640 C   0  0  0  0  0  0  0  0  0  0  0  0
   -1.1321    1.8885   -0.4583 C   0  0  0  0  0  0  0  0  0  0  0  0
   -0.0456    1.5474    0.9743 P   0  0  0  0  0  0  0  0  0  0  0  0
   -0.7652    0.1024    1.1218 O   0  0  0  0  0  0  0  0  0  0  0  0
    1.2258    1.4938   -0.0776 O   0  0  0  0  0  0  0  0  0  0  0  0
    0.8736    1.2589    2.1864 O   0  0  0  0  0  0  0  0  0  0  0  0
  1  2  1  0
  2  3  2  0
  2  4  1  0
  4  5  2  0
  4  9  1  0
  5  6  1  0
  6  7  2  0
  7  8  1  0
  8  9  2  0
  9 10  1  0
 10 11  1  0
 11 12  1  0
 11 13  1  0
 11 14  2  0
M  END
>  <DRUGBANK_ID>  (1) 
DB04406

>  <SECONDARY_ACCESSION_NUMBERS>  (1) 
EXPT02615

>  <COMMON_NAME>  (1) 
3-(Phosphonomethyl)Pyridine-2-Carboxylic Acid

$$$$
