2GG
     RDKit          3D

 27 29  0  0  0  0  0  0  0  0999 V2000
    1.0541   -0.0192   -0.0110 C   0  0  0  0  0  0  0  0  0  0  0  0
    0.5217   -0.7495   -1.1234 O   0  0  0  0  0  0  0  0  0  0  0  0
    1.0708   -0.5376   -2.3631 C   0  0  0  0  0  0  0  0  0  0  0  0
    2.3914   -0.1512   -2.6005 C   0  0  0  0  0  0  0  0  0  0  0  0
    2.7732    0.3292   -3.8654 C   0  0  0  0  0  0  0  0  0  0  0  0
    0.1735   -0.5640   -3.4430 C   0  0  0  0  0  0  0  0  0  0  0  0
    0.5806   -0.2071   -4.7457 C   0  0  0  0  0  0  0  0  0  0  0  0
    1.8534    0.3639   -4.9302 C   0  0  0  0  0  0  0  0  0  0  0  0
    2.1091    1.2815   -6.0680 C   0  0  0  0  0  0  0  0  0  0  0  0
    1.6757    2.6109   -6.5210 C   0  0  0  0  0  0  0  0  0  0  0  0
    0.6877    3.6770   -6.0527 C   0  0  0  0  0  0  0  0  0  0  0  0
    0.4860    4.7007   -6.6888 O   0  0  0  0  0  0  0  0  0  0  0  0
   -0.0556    3.5763   -4.8719 N   0  0  0  0  0  0  0  0  0  0  0  0
   -0.0174    2.5097   -3.9571 C   0  0  0  0  0  0  0  0  0  0  0  0
    0.6380    2.7220   -2.6264 C   0  0  0  0  0  0  0  0  0  0  0  0
    2.3860    2.9190   -7.6379 N   0  0  0  0  0  0  0  0  0  0  0  0
    3.0794    0.9160   -6.9625 C   0  0  0  0  0  0  0  0  0  0  0  0
    3.8511   -0.3017   -7.0425 C   0  0  0  0  0  0  0  0  0  0  0  0
    3.1232   -1.5079   -7.0649 C   0  0  0  0  0  0  0  0  0  0  0  0
    3.7711   -2.7298   -6.9889 C   0  0  0  0  0  0  0  0  0  0  0  0
    2.8359   -4.1751   -6.9948 Cl  0  0  0  0  0  0  0  0  0  0  0  0
    5.1601   -2.7579   -6.9212 C   0  0  0  0  0  0  0  0  0  0  0  0
    5.8525   -3.9331   -6.8319 O   0  0  0  0  0  0  0  0  0  0  0  0
    5.8954   -1.5721   -6.9091 C   0  0  0  0  0  0  0  0  0  0  0  0
    5.2375   -0.3439   -6.8986 C   0  0  0  0  0  0  0  0  0  0  0  0
    6.0022    0.7615   -6.6429 O   0  0  0  0  0  0  0  0  0  0  0  0
    3.2517    1.8755   -7.8920 O   0  0  0  0  0  0  0  0  0  0  0  0
  1  2  1  0
  2  3  1  0
  3  4  2  0
  3  6  1  0
  4  5  1  0
  5  8  2  0
  6  7  2  0
  7  8  1  0
  8  9  1  0
  9 10  1  0
  9 17  2  0
 10 11  1  0
 10 16  2  0
 11 12  2  0
 11 13  1  0
 13 14  1  0
 14 15  1  0
 16 27  1  0
 17 18  1  0
 17 27  1  0
 18 19  2  0
 18 25  1  0
 19 20  1  0
 20 21  1  0
 20 22  2  0
 22 23  1  0
 22 24  1  0
 24 25  2  0
 25 26  1  0
M  END
>  <DRUGBANK_ID>  (1) 
DB06964

>  <COMMON_NAME>  (1) 
5-(5-CHLORO-2,4-DIHYDROXYPHENYL)-N-ETHYL-4-(4-METHOXYPHENYL)ISOXAZOLE-3-CARBOXAMIDE

>  <UNII>  (1) 
H4E4ND635H

$$$$
