
     RDKit          3D

 33 37  0  0  0  0  0  0  0  0999 V2000
    2.3742    0.9216    0.0136 F   0  0  0  0  0  0  0  0  0  0  0  0
    1.2168    0.2501    0.0008 C   0  0  0  0  0  0  0  0  0  0  0  0
    1.2381   -1.1406   -0.0071 C   0  0  0  0  0  0  0  0  0  0  0  0
    0.0373   -1.8443   -0.0347 C   0  0  0  0  0  0  0  0  0  0  0  0
   -1.1878   -1.1573   -0.0331 C   0  0  0  0  0  0  0  0  0  0  0  0
   -1.1708    0.2460   -0.0184 C   0  0  0  0  0  0  0  0  0  0  0  0
   -2.3232    0.9345   -0.0042 F   0  0  0  0  0  0  0  0  0  0  0  0
    0.0216    0.9540   -0.0042 C   0  0  0  0  0  0  0  0  0  0  0  0
   -2.4528   -1.8942   -0.0292 C   0  0  0  0  0  0  0  0  0  0  0  0
   -3.3398   -1.7134   -1.1160 C   0  0  0  0  0  0  0  0  0  0  0  0
   -4.5564   -2.3788   -1.1558 C   0  0  0  0  0  0  0  0  0  0  0  0
   -4.8389   -3.2281   -0.0869 C   0  0  0  0  0  0  0  0  0  0  0  0
   -3.9989   -3.4740    0.9836 C   0  0  0  0  0  0  0  0  0  0  0  0
   -2.8014   -2.7710    1.0340 C   0  0  0  0  0  0  0  0  0  0  0  0
   -1.9037   -3.0477    2.2074 C   0  0  0  0  0  0  0  0  0  0  0  0
   -2.7279   -3.3124    3.4528 C   0  0  0  0  0  0  0  0  0  0  0  0
   -3.7157   -4.4283    3.2302 C   0  0  0  0  0  0  0  0  0  0  0  0
   -3.9341   -5.2590    4.1197 O   0  0  0  0  0  0  0  0  0  0  0  0
   -4.3750   -4.3981    2.0094 N   0  0  0  0  0  0  0  0  0  0  0  0
   -5.4330   -5.3451    1.7579 C   0  0  0  0  0  0  0  0  0  0  0  0
   -6.6077   -5.3496    2.5423 C   0  0  0  0  0  0  0  0  0  0  0  0
   -6.9069   -4.1808    3.7869 Cl  0  0  0  0  0  0  0  0  0  0  0  0
   -7.6480   -6.2538    2.2778 C   0  0  0  0  0  0  0  0  0  0  0  0
   -7.5484   -7.1590    1.2247 C   0  0  0  0  0  0  0  0  0  0  0  0
   -6.3998   -7.1752    0.4404 C   0  0  0  0  0  0  0  0  0  0  0  0
   -5.3421   -6.2951    0.7132 C   0  0  0  0  0  0  0  0  0  0  0  0
   -3.9317   -6.4613   -0.2872 Cl  0  0  0  0  0  0  0  0  0  0  0  0
   -5.5472   -2.2059   -2.2983 C   0  0  0  0  0  0  0  0  0  0  0  0
   -6.8925   -1.6315   -1.8179 C   0  0  0  0  0  0  0  0  0  0  0  0
   -7.7543   -2.6482   -1.0664 C   0  0  0  0  0  0  0  0  0  0  0  0
   -7.9159   -3.9026   -1.8071 N   0  0  0  0  0  0  0  0  0  0  0  0
   -6.6745   -4.4999   -2.3029 C   0  0  0  0  0  0  0  0  0  0  0  0
   -5.7913   -3.5168   -3.0679 C   0  0  0  0  0  0  0  0  0  0  0  0
  1  2  1  0
  2  3  2  0
  2  8  1  0
  3  4  1  0
  4  5  2  0
  5  6  1  0
  5  9  1  0
  6  7  1  0
  6  8  2  0
  9 10  2  0
  9 14  1  0
 10 11  1  0
 11 12  2  0
 11 28  1  0
 12 13  1  0
 13 14  2  0
 13 19  1  0
 14 15  1  0
 15 16  1  0
 16 17  1  0
 17 18  2  0
 17 19  1  0
 19 20  1  0
 20 21  2  0
 20 26  1  0
 21 22  1  0
 21 23  1  0
 23 24  2  0
 24 25  1  0
 25 26  2  0
 26 27  1  0
 28 29  1  0
 28 33  1  0
 29 30  1  0
 30 31  1  0
 31 32  1  0
 32 33  1  0
M  END
>  <DRUGBANK_ID>  (1) 
DB01948

>  <SECONDARY_ACCESSION_NUMBERS>  (1) 
EXPT00157

>  <COMMON_NAME>  (1) 
1-(2,6-Dichlorophenyl)-5-(2,4-Difluorophenyl)-7-Piperidin-4-Yl-3,4-Dihydroquinolin-2(1h)-One

$$$$
