
     RDKit          3D

 24 26  0  0  0  0  0  0  0  0999 V2000
    0.6890   -0.0876   -0.1519 O   0  0  0  0  0  0  0  0  0  0  0  0
    1.8859    0.0263    0.0548 C   0  0  0  0  0  0  0  0  0  0  0  0
    2.4352    1.2468   -0.2052 N   0  0  0  0  0  0  0  0  0  0  0  0
    2.8383   -1.0392    0.7624 C   0  0  0  0  0  0  0  0  0  0  0  0
    2.5875   -0.8684    2.2858 C   0  0  0  0  0  0  0  0  0  0  0  0
    2.3956   -1.9683    3.1363 C   0  0  0  0  0  0  0  0  0  0  0  0
    2.2305   -1.8064    4.5055 C   0  0  0  0  0  0  0  0  0  0  0  0
    2.2456   -0.5337    5.0582 C   0  0  0  0  0  0  0  0  0  0  0  0
    2.4270    0.5772    4.2430 C   0  0  0  0  0  0  0  0  0  0  0  0
    2.5660    0.4147    2.8677 C   0  0  0  0  0  0  0  0  0  0  0  0
    2.5697   -2.4950    0.2934 C   0  0  0  0  0  0  0  0  0  0  0  0
    3.4813   -3.5306    0.6280 C   0  0  0  0  0  0  0  0  0  0  0  0
    3.2044   -4.8626    0.3576 C   0  0  0  0  0  0  0  0  0  0  0  0
    2.0002   -5.1962   -0.2414 C   0  0  0  0  0  0  0  0  0  0  0  0
    1.0891   -4.2023   -0.5796 C   0  0  0  0  0  0  0  0  0  0  0  0
    1.3915   -2.8641   -0.3590 C   0  0  0  0  0  0  0  0  0  0  0  0
    4.3780   -0.7827    0.5124 C   0  0  0  0  0  0  0  0  0  0  0  0
    4.8815   -1.0165   -0.9391 C   0  0  0  0  0  0  0  0  0  0  0  0
    4.3927   -0.0727   -1.9254 N   0  0  0  0  0  0  0  0  0  0  0  0
    3.3745   -0.3118   -2.8144 C   0  0  0  0  0  0  0  0  0  0  0  0
    3.0644    0.9179   -3.3434 C   0  0  0  0  0  0  0  0  0  0  0  0
    3.8726    1.8891   -2.8036 N   0  0  0  0  0  0  0  0  0  0  0  0
    4.6902    1.2787   -1.9643 C   0  0  0  0  0  0  0  0  0  0  0  0
    5.5285    1.9770   -0.9354 C   0  0  0  0  0  0  0  0  0  0  0  0
  1  2  2  0
  2  3  1  0
  2  4  1  0
  4  5  1  0
  4 11  1  0
  4 17  1  0
  5  6  2  0
  5 10  1  0
  6  7  1  0
  7  8  2  0
  8  9  1  0
  9 10  2  0
 11 12  2  0
 11 16  1  0
 12 13  1  0
 13 14  2  0
 14 15  1  0
 15 16  2  0
 17 18  1  0
 18 19  1  0
 19 20  1  0
 19 23  1  0
 20 21  2  0
 21 22  1  0
 22 23  2  0
 23 24  1  0
M  END
>  <DRUGBANK_ID>  (1) 
DB09262

>  <COMMON_NAME>  (1) 
Imidafenacin

>  <CAS_NUMBER>  (1) 
170105-16-5

>  <UNII>  (1) 
XJR8Y07LJO

>  <SYNONYMS>  (1) 
Imidafenacin

$$$$
