409
     RDKit          3D

 22 23  0  0  1  0  0  0  0  0999 V2000
   -1.5633    0.8556   -0.0084 Br  0  0  0  0  0  0  0  0  0  0  0  0
    4.2142   -3.0015   -0.0269 O   0  0  0  0  0  0  0  0  0  0  0  0
   -0.0247   -1.9239    0.5979 O   0  0  0  0  0  0  0  0  0  0  0  0
    4.4737    0.1430    0.0461 O   0  0  0  0  0  0  0  0  0  0  0  0
    0.6113   -6.1739   -1.2231 N   0  0  0  0  0  0  0  0  0  0  0  0
    2.3611   -3.9176    0.0794 N   0  0  0  0  0  0  0  0  0  0  0  0
    0.4728   -4.7382   -1.3677 C   0  0  1  0  0  0  0  0  0  0  0  0
   -0.9953   -4.4901   -1.7626 C   0  0  0  0  0  0  0  0  0  0  0  0
   -1.2568   -5.6332   -2.7010 C   0  0  0  0  0  0  0  0  0  0  0  0
   -0.2702   -6.7176   -2.2608 C   0  0  0  0  0  0  0  0  0  0  0  0
    0.9899   -4.0124   -0.1664 C   0  0  0  0  0  0  0  0  0  0  0  0
    0.2958   -6.6392    0.1474 C   0  0  0  0  0  0  0  0  0  0  0  0
   -1.0956   -6.2895    0.6869 C   0  0  0  0  0  0  0  0  0  0  0  0
    3.0024   -2.7164    0.0595 C   0  0  0  0  0  0  0  0  0  0  0  0
    2.2998   -1.2355    0.0635 C   0  0  0  0  0  0  0  0  0  0  0  0
    0.8246   -0.9531    0.1155 C   0  0  0  0  0  0  0  0  0  0  0  0
    3.1132   -0.0666    0.0147 C   0  0  0  0  0  0  0  0  0  0  0  0
    0.2810    0.3465   -0.0194 C   0  0  0  0  0  0  0  0  0  0  0  0
    2.5041    1.2183   -0.0197 C   0  0  0  0  0  0  0  0  0  0  0  0
    1.1322    1.4235   -0.0545 C   0  0  0  0  0  0  0  0  0  0  0  0
   -1.3872   -2.1118    0.2142 C   0  0  0  0  0  0  0  0  0  0  0  0
    5.3664   -0.9443    0.0899 C   0  0  0  0  0  0  0  0  0  0  0  0
  1 18  1  0
  2 14  2  0
  3 16  1  0
  3 21  1  0
  4 17  1  0
  4 22  1  0
  5  7  1  0
  5 10  1  0
  5 12  1  0
  6 11  1  0
  6 14  1  0
  7  8  1  0
  7 11  1  1
  8  9  1  0
  9 10  1  0
 12 13  1  0
 14 15  1  0
 15 16  2  0
 15 17  1  0
 16 18  1  0
 17 19  2  0
 18 20  2  0
 19 20  1  0
M  END
>  <DRUGBANK_ID>  (1) 
DB00409

>  <SECONDARY_ACCESSION_NUMBERS>  (1) 
APRD00316

>  <COMMON_NAME>  (1) 
Remoxipride

>  <CAS_NUMBER>  (1) 
80125-14-0

>  <UNII>  (1) 
0223RD59PE

>  <SYNONYMS>  (1) 
Remoxiprida; Remoxipride; Remoxipridum

$$$$
