
     RDKit          3D

 31 32  0  0  0  0  0  0  0  0999 V2000
    1.4186   -0.2355    0.0880 C   0  0  0  0  0  0  0  0  0  0  0  0
    0.5234   -1.3175    0.0559 C   0  0  0  0  0  0  0  0  0  0  0  0
    0.9299    1.0762    0.0412 C   0  0  0  0  0  0  0  0  0  0  0  0
   -0.8535   -1.0900   -0.0058 C   0  0  0  0  0  0  0  0  0  0  0  0
   -0.4554    1.2936    0.0328 C   0  0  0  0  0  0  0  0  0  0  0  0
   -1.3428    0.2147   -0.0084 C   0  0  0  0  0  0  0  0  0  0  0  0
    3.1791   -0.5652    0.2484 S   0  0  0  0  0  0  0  0  0  0  0  0
    3.9544    0.0474   -1.1338 N   0  0  0  0  0  0  0  0  0  0  0  0
    3.6073    0.1955    1.3982 O   0  0  0  0  0  0  0  0  0  0  0  0
    3.3369   -2.0102    0.2160 O   0  0  0  0  0  0  0  0  0  0  0  0
    4.9954    1.1336   -0.9606 C   0  0  0  0  0  0  0  0  0  0  0  0
    6.4369    0.7774   -1.3557 C   0  0  0  0  0  0  0  0  0  0  0  0
    3.0564   -0.8678   -5.1857 C   0  0  0  0  0  0  0  0  0  0  0  0
    2.0447   -0.7416   -4.2277 C   0  0  0  0  0  0  0  0  0  0  0  0
    4.3729   -0.7671   -4.7438 C   0  0  0  0  0  0  0  0  0  0  0  0
    2.3295   -0.4927   -2.8955 C   0  0  0  0  0  0  0  0  0  0  0  0
    4.6322   -0.7001   -3.3795 C   0  0  0  0  0  0  0  0  0  0  0  0
    3.6336   -0.4278   -2.4493 C   0  0  0  0  0  0  0  0  0  0  0  0
    2.7455   -1.2093   -6.6414 C   0  0  0  0  0  0  0  0  0  0  0  0
    3.1712   -0.0838   -7.5825 C   0  0  0  0  0  0  0  0  0  0  0  0
    3.4572   -2.4545   -6.9260 O   0  0  0  0  0  0  0  0  0  0  0  0
    1.2446   -1.4006   -6.8855 C   0  0  0  0  0  0  0  0  0  0  0  0
    4.5180    0.1063   -7.5174 F   0  0  0  0  0  0  0  0  0  0  0  0
    2.8977   -0.3583   -8.8755 F   0  0  0  0  0  0  0  0  0  0  0  0
    2.5954    1.0994   -7.2801 F   0  0  0  0  0  0  0  0  0  0  0  0
    6.6289    0.7750   -2.6958 F   0  0  0  0  0  0  0  0  0  0  0  0
    7.3130    1.6950   -0.8849 F   0  0  0  0  0  0  0  0  0  0  0  0
    6.8098   -0.4283   -0.8747 F   0  0  0  0  0  0  0  0  0  0  0  0
    0.7442   -2.3886   -6.0928 F   0  0  0  0  0  0  0  0  0  0  0  0
    0.5344   -0.2813   -6.5986 F   0  0  0  0  0  0  0  0  0  0  0  0
    0.9458   -1.7444   -8.1534 F   0  0  0  0  0  0  0  0  0  0  0  0
  1  2  2  0
  1  3  1  0
  1  7  1  0
  2  4  1  0
  3  5  2  0
  4  6  2  0
  5  6  1  0
  7  8  1  0
  7  9  2  0
  7 10  2  0
  8 11  1  0
  8 18  1  0
 11 12  1  0
 12 26  1  0
 12 27  1  0
 12 28  1  0
 13 14  2  0
 13 15  1  0
 13 19  1  0
 14 16  1  0
 15 17  2  0
 16 18  2  0
 17 18  1  0
 19 20  1  0
 19 21  1  0
 19 22  1  0
 20 23  1  0
 20 24  1  0
 20 25  1  0
 22 29  1  0
 22 30  1  0
 22 31  1  0
M  END
>  <DRUGBANK_ID>  (1) 
DB07080

>  <COMMON_NAME>  (1) 
TO-901317

>  <CAS_NUMBER>  (1) 
293754-55-9

>  <UNII>  (1) 
A07663A39I

$$$$
