419
     RDKit          3D

 15 15  0  0  1  0  0  0  0  0999 V2000
    2.3848    0.7508   -0.0837 O   0  0  0  0  0  0  0  0  0  0  0  0
   -0.0307    2.1743    0.2762 O   0  0  0  0  0  0  0  0  0  0  0  0
   -2.4747    0.6557   -0.2037 O   0  0  0  0  0  0  0  0  0  0  0  0
    2.6207   -3.2614    1.3931 O   0  0  0  0  0  0  0  0  0  0  0  0
   -0.0196   -2.1193    0.3586 N   0  0  0  0  0  0  0  0  0  0  0  0
    1.2641   -1.3990    0.1844 C   0  0  1  0  0  0  0  0  0  0  0  0
    1.2076    0.1285    0.4639 C   0  0  2  0  0  0  0  0  0  0  0  0
   -0.0238    0.8026   -0.1456 C   0  0  1  0  0  0  0  0  0  0  0  0
   -1.2810    0.0509    0.2978 C   0  0  2  0  0  0  0  0  0  0  0  0
   -1.1707   -1.3871   -0.2066 C   0  0  0  0  0  0  0  0  0  0  0  0
   -0.0553   -3.4946   -0.1725 C   0  0  0  0  0  0  0  0  0  0  0  0
    2.5412   -1.9215    0.9341 C   0  0  0  0  0  0  0  0  0  0  0  0
    0.1641   -3.7336   -1.6884 C   0  0  0  0  0  0  0  0  0  0  0  0
    1.4167   -3.2353   -2.4333 C   0  0  0  0  0  0  0  0  0  0  0  0
    2.7369   -3.7995   -1.9433 C   0  0  0  0  0  0  0  0  0  0  0  0
  4 12  1  0
  5  6  1  0
  5 10  1  0
  5 11  1  0
  6  7  1  0
  6 12  1  1
  7  1  1  6
  7  8  1  0
  8  2  1  1
  8  9  1  0
  9  3  1  6
  9 10  1  0
 11 13  1  0
 13 14  1  0
 14 15  1  0
M  END
>  <DRUGBANK_ID>  (1) 
DB00419

>  <SECONDARY_ACCESSION_NUMBERS>  (1) 
APRD01118

>  <COMMON_NAME>  (1) 
Miglustat

>  <CAS_NUMBER>  (1) 
72599-27-0

>  <UNII>  (1) 
ADN3S497AZ

>  <SYNONYMS>  (1) 
1,5-(butylimino)-1,5-dideoxy, D-glucitol; AT2221; BuDNJ; Butyldeoxynojirimycin; Miglustat; Miglustatum; N-(n-Butyl)deoxynojirimycin; n-Butyl deoxynojirimycin; N-butyl-1-deoxynojirimycin; N-butyl-deoxynojirimycin; N-Butylmoranoline; NB-DNJ

$$$$
