
     RDKit          3D

 22 20  0  0  0  0  0  0  0  0999 V2000
    1.7867   -0.6528    0.0233 C   0  0  0  0  0  0  0  0  0  0  0  0
    0.1560    2.8222    1.3463 C   0  0  0  0  0  0  0  0  0  0  0  0
   -3.5163    7.6514   -4.1117 C   0  0  0  0  0  0  0  0  0  0  0  0
   -3.7596    8.6659   -1.8662 C   0  0  0  0  0  0  0  0  0  0  0  0
    1.4559    0.6260    0.6578 C   0  0  0  0  0  0  0  0  0  0  0  0
    0.3335    4.1358    1.8458 C   0  0  0  0  0  0  0  0  0  0  0  0
    1.7927    1.8034   -0.4339 C   0  0  0  0  0  0  0  0  0  0  0  0
    1.1090    5.1672    0.9388 C   0  0  0  0  0  0  0  0  0  0  0  0
    0.8564    1.9148   -1.7449 C   0  0  0  0  0  0  0  0  0  0  0  0
    0.4770    5.3877   -0.4091 C   0  0  0  0  0  0  0  0  0  0  0  0
   -0.7667    1.9649   -1.7874 C   0  0  0  0  0  0  0  0  0  0  0  0
   -1.0477    5.5665   -0.0959 C   0  0  0  0  0  0  0  0  0  0  0  0
   -1.5517    3.2205   -1.4730 C   0  0  0  0  0  0  0  0  0  0  0  0
   -0.9953    4.2784   -2.4618 C   0  0  0  0  0  0  0  0  0  0  0  0
   -1.5239    6.9243    0.1997 C   0  0  0  0  0  0  0  0  0  0  0  0
   -1.8672    4.6039   -3.6037 C   0  0  0  0  0  0  0  0  0  0  0  0
   -1.1219    7.8598   -0.9350 C   0  0  0  0  0  0  0  0  0  0  0  0
   -3.2927    4.9321   -3.1470 C   0  0  0  0  0  0  0  0  0  0  0  0
   -1.6122    7.7176   -2.4149 C   0  0  0  0  0  0  0  0  0  0  0  0
   -3.6846    6.1441   -2.2408 C   0  0  0  0  0  0  0  0  0  0  0  0
   -3.1145    7.5135   -2.6387 N   0  0  0  0  0  0  0  0  0  0  0  0
   -1.9002   -1.2867   -0.4683 Cl  0  0  0  0  0  0  0  0  0  0  0  0
  5  1  1  0
  6  2  1  0
  7  5  1  0
  8  6  1  0
  9  7  1  0
 10  8  1  0
 11  9  1  0
 12 10  1  0
 13 11  1  0
 14 13  1  0
 15 12  1  0
 16 14  1  0
 17 15  1  0
 18 16  1  0
 19 17  1  0
 20 18  1  0
 21  3  1  0
 21  4  1  0
 21 19  1  0
 21 20  1  0
M  CHG  2  21   1  22  -1
M  END
>  <DRUGBANK_ID>  (1) 
DB13969

>  <COMMON_NAME>  (1) 
Quaternium-24

>  <CAS_NUMBER>  (1) 
32426-11-2

>  <UNII>  (1) 
0T2NG1539G

>  <SYNONYMS>  (1) 
Ammonium, decyldimethyloctyl, chloride; Decyl dimethyl octyl ammonium chloride; Decyloctyldimethylammonium chloride; Octyl decyl dimethyl ammonium chloride

$$$$
