
     RDKit          3D

 11 10  0  0  0  0  0  0  0  0999 V2000
    0.9131   -0.0084    0.1007 C   0  0  0  0  0  0  0  0  0  0  0  0
    0.4203    1.0110    1.1281 C   0  0  0  0  0  0  0  0  0  0  0  0
    0.9417    2.4467    0.9310 C   0  0  0  0  0  0  0  0  0  0  0  0
    0.3846    3.2733   -0.2232 C   0  0  0  0  0  0  0  0  0  0  0  0
   -0.6430    3.9282   -0.1948 O   0  0  0  0  0  0  0  0  0  0  0  0
    1.0881    3.1822   -1.3718 O   0  0  0  0  0  0  0  0  0  0  0  0
    0.4229    0.3496   -1.2884 C   0  0  0  0  0  0  0  0  0  0  0  0
    0.9246   -0.4443   -2.4626 C   0  0  0  0  0  0  0  0  0  0  0  0
    0.4129   -1.8394   -2.4113 C   0  0  0  0  0  0  0  0  0  0  0  0
   -0.3699   -2.3387   -3.1836 O   0  0  0  0  0  0  0  0  0  0  0  0
    0.8909   -2.5017   -1.3385 O   0  0  0  0  0  0  0  0  0  0  0  0
  1  2  1  0
  1  7  1  0
  2  3  1  0
  3  4  1  0
  4  5  2  0
  4  6  1  0
  7  8  1  0
  8  9  1  0
  9 10  2  0
  9 11  1  0
M  END
>  <DRUGBANK_ID>  (1) 
DB01856

>  <SECONDARY_ACCESSION_NUMBERS>  (1) 
EXPT02618

>  <COMMON_NAME>  (1) 
Pimelic Acid

>  <CAS_NUMBER>  (1) 
111-16-0

>  <UNII>  (1) 
BZQ96WX25F

$$$$
