
     RDKit          3D

 33 37  0  0  0  0  0  0  0  0999 V2000
   -2.2462   -0.0902   -0.0289 C   0  0  0  0  0  0  0  0  0  0  0  0
   -0.7844    0.1097    0.0163 C   0  0  0  0  0  0  0  0  0  0  0  0
   -0.0732    1.2232   -0.0354 N   0  0  0  0  0  0  0  0  0  0  0  0
    1.2186    0.8189    0.2647 C   0  0  0  0  0  0  0  0  0  0  0  0
    1.2603   -0.4804    0.6332 N   0  0  0  0  0  0  0  0  0  0  0  0
    0.0654   -0.9353    0.2054 N   0  0  0  0  0  0  0  0  0  0  0  0
    2.4244    1.7015    0.1627 C   0  0  0  0  0  0  0  0  0  0  0  0
    2.6900    2.6885    1.1904 C   0  0  0  0  0  0  0  0  0  0  0  0
    3.8446    3.5587    1.1585 C   0  0  0  0  0  0  0  0  0  0  0  0
    4.0827    4.9786    1.7759 C   0  0  0  0  0  0  0  0  0  0  0  0
    3.9502    5.9230    0.9960 O   0  0  0  0  0  0  0  0  0  0  0  0
    4.6978    5.3087    2.9934 N   0  0  0  0  0  0  0  0  0  0  0  0
    6.3600    6.1634    3.3236 C   0  0  0  0  0  0  0  0  0  0  0  0
    6.6007    6.3042    4.9146 C   0  0  0  0  0  0  0  0  0  0  0  0
    5.6171    5.2568    5.0213 C   0  0  0  0  0  0  0  0  0  0  0  0
    4.2350    5.2340    5.5308 C   0  0  0  0  0  0  0  0  0  0  0  0
    3.5071    5.4526    4.1769 C   0  0  0  0  0  0  0  0  0  0  0  0
    6.1775    3.8073    4.1298 C   0  0  0  0  0  0  0  0  0  0  0  0
    5.5424    2.6311    4.4515 C   0  0  0  0  0  0  0  0  0  0  0  0
    5.9905    1.4155    3.9131 C   0  0  0  0  0  0  0  0  0  0  0  0
    7.0410    1.3207    2.9851 C   0  0  0  0  0  0  0  0  0  0  0  0
    7.5991    2.4490    2.4620 C   0  0  0  0  0  0  0  0  0  0  0  0
    7.1181    3.6468    2.9708 C   0  0  0  0  0  0  0  0  0  0  0  0
    7.5353    0.0370    2.5475 C   0  0  0  0  0  0  0  0  0  0  0  0
    7.9584   -0.9588    2.2146 N   0  0  0  0  0  0  0  0  0  0  0  0
    4.7058    3.3903    0.0591 C   0  0  0  0  0  0  0  0  0  0  0  0
    5.9045    4.2776   -0.1491 C   0  0  0  0  0  0  0  0  0  0  0  0
    4.4273    2.4637   -0.9595 C   0  0  0  0  0  0  0  0  0  0  0  0
    3.3058    1.6052   -0.9599 C   0  0  0  0  0  0  0  0  0  0  0  0
    3.1528    0.6500   -2.2241 C   0  0  0  0  0  0  0  0  0  0  0  0
    1.8861    0.7921   -3.1064 C   0  0  0  0  0  0  0  0  0  0  0  0
    1.8528   -0.7491   -3.2110 C   0  0  0  0  0  0  0  0  0  0  0  0
    2.7748   -0.8193   -1.9970 C   0  0  0  0  0  0  0  0  0  0  0  0
  1  2  1  0
  2  3  2  0
  2  6  1  0
  3  4  1  0
  4  5  2  0
  4  7  1  0
  5  6  1  0
  7  8  2  0
  7 29  1  0
  8  9  1  0
  9 10  1  0
  9 26  2  0
 10 11  2  0
 10 12  1  0
 12 13  1  0
 12 17  1  0
 13 14  1  0
 14 15  1  0
 15 16  1  0
 15 18  1  0
 16 17  1  0
 18 19  2  0
 18 23  1  0
 19 20  1  0
 20 21  2  0
 21 22  1  0
 21 24  1  0
 22 23  2  0
 24 25  3  0
 26 27  1  0
 26 28  1  0
 28 29  2  0
 29 30  1  0
 30 31  1  0
 30 33  1  0
 31 32  1  0
 32 33  1  0
M  END
>  <DRUGBANK_ID>  (1) 
DB17576

>  <COMMON_NAME>  (1) 
Denifanstat

>  <CAS_NUMBER>  (1) 
1399177-37-7

>  <UNII>  (1) 
4GF95B2LZA

>  <SYNONYMS>  (1) 
Benzonitrile, 4-(1-(4-cyclobutyl-2-methyl-5-(3-methyl-1h-1,2,4-triazol-5-yl)benzoyl)-4-piperidinyl)-

$$$$
