
     RDKit          3D

  1  0  0  0  0  0  0  0  0  0999 V2000
    1.0565    0.0603   -0.0564 Na  0  0  0  0  0 15  0  0  0  0  0  0
M  CHG  1   1   1
M  END
>  <DRUGBANK_ID>  (1) 
DB14516

>  <COMMON_NAME>  (1) 
Sodium cation

>  <CAS_NUMBER>  (1) 
17341-25-2

>  <UNII>  (1) 
LYR4M0NH37

>  <SYNONYMS>  (1) 
Sodium (ion); Sodium ion; sodium(1+)

$$$$
