
     RDKit          3D

 27 29  0  0  0  0  0  0  0  0999 V2000
    1.6549    1.0324    2.4943 C   0  0  0  0  0  0  0  0  0  0  0  0
   -0.8548   -0.5728    1.7417 C   0  0  0  0  0  0  0  0  0  0  0  0
   -2.0065   -0.0717    3.6768 C   0  0  0  0  0  0  0  0  0  0  0  0
   -0.0851    4.1495    4.4375 C   0  0  0  0  0  0  0  0  0  0  0  0
   -1.5368    0.3422    0.9353 C   0  0  0  0  0  0  0  0  0  0  0  0
   -2.6879    0.9266    2.9130 C   0  0  0  0  0  0  0  0  0  0  0  0
    0.3069    3.7319    3.1406 C   0  0  0  0  0  0  0  0  0  0  0  0
    1.6921   -1.5374   -1.2715 C   0  0  0  0  0  0  0  0  0  0  0  0
    1.5632   -1.0475    0.0060 C   0  0  0  0  0  0  0  0  0  0  0  0
   -2.5620    2.8147   -0.4696 C   0  0  0  0  0  0  0  0  0  0  0  0
   -1.2119    3.4630   -0.8458 C   0  0  0  0  0  0  0  0  0  0  0  0
   -2.3596    4.3242    3.8330 C   0  0  0  0  0  0  0  0  0  0  0  0
    1.7026    0.5900   -1.3974 C   0  0  0  0  0  0  0  0  0  0  0  0
    1.1721    1.4598    1.0849 C   0  0  0  0  0  0  0  0  0  0  0  0
   -1.1149   -0.8580    3.0700 C   0  0  0  0  0  0  0  0  0  0  0  0
   -1.3948    4.4359    4.7762 C   0  0  0  0  0  0  0  0  0  0  0  0
   -2.4069    1.1026    1.5018 C   0  0  0  0  0  0  0  0  0  0  0  0
   -0.6052    3.4701    2.1008 C   0  0  0  0  0  0  0  0  0  0  0  0
   -2.0383    3.9304    2.5157 C   0  0  0  0  0  0  0  0  0  0  0  0
    0.2641    2.5563    0.8880 C   0  0  0  0  0  0  0  0  0  0  0  0
   -0.0480   -1.9662    3.8518 Cl  0  0  0  0  0  0  0  0  0  0  0  0
   -1.8685    4.9719    6.3314 Cl  0  0  0  0  0  0  0  0  0  0  0  0
   -3.8150    4.0614    1.8867 Cl  0  0  0  0  0  0  0  0  0  0  0  0
    1.8326   -0.5051   -2.1277 N   0  0  0  0  0  0  0  0  0  0  0  0
    1.5210    0.3925   -0.0271 N   0  0  0  0  0  0  0  0  0  0  0  0
   -2.8190    2.2093    0.8128 O   0  0  0  0  0  0  0  0  0  0  0  0
   -0.0629    2.7529   -0.4578 O   0  0  0  0  0  0  0  0  0  0  0  0
  5  2  2  0
  6  3  1  0
  7  4  2  0
  9  8  2  0
 11 10  1  0
 14  1  1  0
 15  2  1  0
 15  3  2  0
 16  4  1  0
 16 12  2  0
 17  5  1  0
 17  6  2  0
 18  7  1  0
 19 12  1  0
 19 18  2  0
 20 14  2  0
 20 18  1  0
 21 15  1  0
 22 16  1  0
 23 19  1  0
 24  8  1  0
 24 13  2  0
 25  9  1  0
 25 13  1  0
 25 14  1  0
 26 10  1  0
 26 17  1  0
 27 11  1  0
 27 20  1  0
M  END
>  <DRUGBANK_ID>  (1) 
DB13684

>  <COMMON_NAME>  (1) 
Omoconazole

>  <CAS_NUMBER>  (1) 
74512-12-2

>  <UNII>  (1) 
GQ8ADD54E1

>  <SYNONYMS>  (1) 
Omoconazole

$$$$
