
     RDKit          3D

  5  3  0  0  0  0  0  0  0  0999 V2000
    0.9737    0.0605    0.0751 V   0  0  0  0  0  5  0  0  0  0  0  0
   -0.0064    0.8609    1.5720 O   0  0  0  0  0  0  0  0  0  0  0  0
   -0.0064   -0.7398   -1.4218 O   0  0  0  0  0  0  0  0  0  0  0  0
    3.1637    0.0605    0.0751 O   0  0  0  0  0  0  0  0  0  0  0  0
    0.9910    0.0637    0.0766 Na  0  0  0  0  0 15  0  0  0  0  0  0
  1  2  2  0
  1  3  2  0
  1  4  1  0
M  CHG  2   4  -1   5   1
M  END
>  <DRUGBANK_ID>  (1) 
DB14702

>  <COMMON_NAME>  (1) 
Sodium metavanadate

>  <CAS_NUMBER>  (1) 
13718-26-8

>  <UNII>  (1) 
252S9L5606

>  <SYNONYMS>  (1) 
Sodium trioxovanadate; Sodium vanadate; Sodium vanadate(V); Sodium vanadium oxide; Vanadic acid, monosodium salt

$$$$
