R6C
     RDKit          3D

 26 28  0  0  0  0  0  0  0  0999 V2000
    0.8080   -0.0610   -0.0448 O   0  0  0  0  0  0  0  0  0  0  0  0
    0.3633   -1.2391   -0.7487 C   0  0  0  0  0  0  0  0  0  0  0  0
    0.8912   -1.2830   -2.2055 C   0  0  1  0  0  0  0  0  0  0  0  0
    2.4283   -1.1577   -2.2495 C   0  0  0  0  0  0  0  0  0  0  0  0
    3.0887   -2.3444   -1.5664 C   0  0  0  0  0  0  0  0  0  0  0  0
    0.4148   -2.3724   -3.0872 N   0  0  0  0  0  0  0  0  0  0  0  0
   -0.3603   -2.1257   -4.2314 C   0  0  0  0  0  0  0  0  0  0  0  0
   -1.5051   -2.8105   -4.3809 N   0  0  0  0  0  0  0  0  0  0  0  0
   -2.1914   -2.4785   -5.5053 C   0  0  0  0  0  0  0  0  0  0  0  0
   -3.3698   -3.0047   -5.9802 N   0  0  0  0  0  0  0  0  0  0  0  0
   -4.1502   -4.0783   -5.3885 C   0  0  0  0  0  0  0  0  0  0  0  0
   -3.3372   -5.3667   -5.2969 C   0  0  0  0  0  0  0  0  0  0  0  0
   -4.7146   -3.6654   -4.0327 C   0  0  0  0  0  0  0  0  0  0  0  0
   -3.6838   -2.3600   -7.1499 C   0  0  0  0  0  0  0  0  0  0  0  0
   -1.8549   -1.5182   -6.4447 C   0  0  0  0  0  0  0  0  0  0  0  0
   -2.8076   -1.4294   -7.4419 N   0  0  0  0  0  0  0  0  0  0  0  0
    0.1068   -1.2594   -5.1569 N   0  0  0  0  0  0  0  0  0  0  0  0
   -0.6619   -0.8500   -6.2089 C   0  0  0  0  0  0  0  0  0  0  0  0
   -0.3242    0.2434   -6.9901 O   0  0  0  0  0  0  0  0  0  0  0  0
    0.8558    0.9972   -6.6701 C   0  0  0  0  0  0  0  0  0  0  0  0
    0.7587    1.9041   -5.4522 C   0  0  0  0  0  0  0  0  0  0  0  0
    0.8212    3.2941   -5.4500 C   0  0  0  0  0  0  0  0  0  0  0  0
    0.7765    4.0053   -4.2287 C   0  0  0  0  0  0  0  0  0  0  0  0
    0.5979    3.3716   -3.0066 C   0  0  0  0  0  0  0  0  0  0  0  0
    0.5120    2.0038   -2.9984 C   0  0  0  0  0  0  0  0  0  0  0  0
    0.6876    1.3333   -4.2007 C   0  0  0  0  0  0  0  0  0  0  0  0
  1  2  1  0
  3  2  1  1
  3  4  1  0
  3  6  1  0
  4  5  1  0
  6  7  1  0
  7  8  2  0
  7 17  1  0
  8  9  1  0
  9 10  1  0
  9 15  2  0
 10 11  1  0
 10 14  1  0
 11 12  1  0
 11 13  1  0
 14 16  2  0
 15 16  1  0
 15 18  1  0
 17 18  2  0
 18 19  1  0
 19 20  1  0
 20 21  1  0
 21 22  2  0
 21 26  1  0
 22 23  1  0
 23 24  2  0
 24 25  1  0
 25 26  2  0
M  END
>  <DRUGBANK_ID>  (1) 
DB04770

>  <COMMON_NAME>  (1) 
O6-(R)-ROSCOVITINE, R-2-(6-BENZYLOXY-9-ISOPROPYL-9H-PURIN-2-YLAMINO)-BUTAN-1-OL

$$$$
