877
     RDKit          3D

 27 28  0  0  0  0  0  0  0  0999 V2000
    1.0140   -1.2455   -0.0069 C   0  0  0  0  0  0  0  0  0  0  0  0
    2.4073   -1.2386    0.0058 C   0  0  0  0  0  0  0  0  0  0  0  0
    3.0836   -0.0076    0.0122 C   0  0  0  0  0  0  0  0  0  0  0  0
    2.3153    1.1829    0.0095 C   0  0  0  0  0  0  0  0  0  0  0  0
    0.8983    1.1693   -0.0002 C   0  0  0  0  0  0  0  0  0  0  0  0
    0.2548   -0.0746   -0.0066 C   0  0  0  0  0  0  0  0  0  0  0  0
    4.6045    0.0784    0.0017 C   0  0  0  0  0  0  0  0  0  0  0  0
    5.1436    0.7409   -1.2791 C   0  0  0  0  0  0  0  0  0  0  0  0
    5.9524    1.8580   -1.0990 N   0  0  0  0  0  0  0  0  0  0  0  0
    6.5009    2.6001   -2.1797 C   0  0  0  0  0  0  0  0  0  0  0  0
    4.9004    0.2371   -2.3745 O   0  0  0  0  0  0  0  0  0  0  0  0
    5.7528    2.8816   -3.2685 N   0  0  0  0  0  0  0  0  0  0  0  0
    6.3095    3.6222   -4.2664 C   0  0  0  0  0  0  0  0  0  0  0  0
    7.6021    4.1278   -4.2213 C   0  0  0  0  0  0  0  0  0  0  0  0
    8.3762    3.8467   -3.0895 C   0  0  0  0  0  0  0  0  0  0  0  0
    7.8025    3.0872   -2.0551 C   0  0  0  0  0  0  0  0  0  0  0  0
    0.3453    2.4267   -0.0012 O   0  0  0  0  0  0  0  0  0  0  0  0
   -1.0727    2.5152   -0.0097 C   0  0  0  0  0  0  0  0  0  0  0  0
    3.1424   -2.3977    0.0138 O   0  0  0  0  0  0  0  0  0  0  0  0
    2.4009   -3.6219   -0.0227 C   0  0  0  0  0  0  0  0  0  0  0  0
    9.6686    4.3449   -2.9431 N   0  0  0  0  0  0  0  0  0  0  0  0
    8.1270    4.9179   -5.2920 C   0  0  0  0  0  0  0  0  0  0  0  0
    5.5917    3.9016   -5.4193 O   0  0  0  0  0  0  0  0  0  0  0  0
    4.2599    3.3993   -5.5082 C   0  0  0  0  0  0  0  0  0  0  0  0
    4.2093    1.8849   -5.5835 C   0  0  0  0  0  0  0  0  0  0  0  0
   -1.6171   -0.4716   -0.0047 Br  0  0  0  0  0  0  0  0  0  0  0  0
    8.6311    5.5772   -6.1118 N   0  0  0  0  0  0  0  0  0  0  0  0
  1  2  2  0
  1  6  1  0
  2  3  1  0
  2 19  1  0
  3  4  2  0
  3  7  1  0
  4  5  1  0
  5  6  2  0
  5 17  1  0
  6 26  1  0
  7  8  1  0
  8  9  1  0
  8 11  2  0
  9 10  1  0
 10 12  2  0
 10 16  1  0
 12 13  1  0
 13 14  2  0
 13 23  1  0
 14 15  1  0
 14 22  1  0
 15 16  2  0
 15 21  1  0
 17 18  1  0
 19 20  1  0
 22 27  3  0
 23 24  1  0
 24 25  1  0
M  END
>  <DRUGBANK_ID>  (1) 
DB07272

>  <COMMON_NAME>  (1) 
N-(4-AMINO-5-CYANO-6-ETHOXYPYRIDIN-2-YL)-2-(4-BROMO-2,5-DIMETHOXYPHENYL)ACETAMIDE

$$$$
