
     RDKit          3D

 28 30  0  0  0  0  0  0  0  0999 V2000
   -0.0771   -0.1774   -0.0713 C   0  0  0  0  0  0  0  0  0  0  0  0
    1.0513   -0.9696   -0.1096 C   0  0  0  0  0  0  0  0  0  0  0  0
   -0.0506    1.2130   -0.0217 C   0  0  0  0  0  0  0  0  0  0  0  0
   -1.3045   -0.7373   -0.1143 C   0  0  0  0  0  0  0  0  0  0  0  0
    0.9517   -2.4952    0.0177 C   0  0  0  0  0  0  0  0  0  0  0  0
    2.2737   -0.3355   -0.3779 C   0  0  0  0  0  0  0  0  0  0  0  0
    1.2286    1.7850    0.0136 C   0  0  0  0  0  0  0  0  0  0  0  0
   -1.3294    1.8314    0.0061 C   0  0  0  0  0  0  0  0  0  0  0  0
   -2.5597   -0.2239   -0.0693 C   0  0  0  0  0  0  0  0  0  0  0  0
    0.2399   -3.4363    1.3983 C   0  0  0  0  0  0  0  0  0  0  0  0
    2.3898    1.0328   -0.1699 C   0  0  0  0  0  0  0  0  0  0  0  0
   -2.5644    1.1368   -0.0143 C   0  0  0  0  0  0  0  0  0  0  0  0
   -1.2683   -3.2297    1.3858 C   0  0  0  0  0  0  0  0  0  0  0  0
    0.3993   -5.1598    1.8019 C   0  0  0  0  0  0  0  0  0  0  0  0
   -1.9817   -3.7138   -0.0153 C   0  0  0  0  0  0  0  0  0  0  0  0
    0.9676   -5.5315    2.9731 O   0  0  0  0  0  0  0  0  0  0  0  0
    0.1993   -6.1434    1.0837 O   0  0  0  0  0  0  0  0  0  0  0  0
   -1.6086   -5.1078   -0.3269 C   0  0  0  0  0  0  0  0  0  0  0  0
   -1.6065   -3.1047   -1.3094 O   0  0  0  0  0  0  0  0  0  0  0  0
    1.8762   -4.7557    3.7492 C   0  0  0  0  0  0  0  0  0  0  0  0
   -1.5273   -5.3356   -1.7999 C   0  0  0  0  0  0  0  0  0  0  0  0
   -1.0244   -4.0075   -2.2586 C   0  0  0  0  0  0  0  0  0  0  0  0
    3.1476   -4.1219    3.1129 C   0  0  0  0  0  0  0  0  0  0  0  0
    2.9225   -3.4423    1.8509 N   0  0  0  0  0  0  0  0  0  0  0  0
    3.8372   -2.3508    1.5947 C   0  0  0  0  0  0  0  0  0  0  0  0
    2.6517   -4.4366    0.8012 C   0  0  0  0  0  0  0  0  0  0  0  0
    4.9402   -2.8264    0.6979 C   0  0  0  0  0  0  0  0  0  0  0  0
    3.3398   -5.3132   -0.1601 C   0  0  0  0  0  0  0  0  0  0  0  0
  1  2  1  0
  1  3  1  0
  1  4  2  0
  2  5  1  0
  2  6  2  0
  3  7  1  0
  3  8  2  0
  4  9  1  0
  5 10  1  0
  6 11  1  0
  7 11  2  0
  8 12  1  0
  9 12  2  0
 10 13  1  0
 10 14  1  0
 13 15  1  0
 14 16  1  0
 14 17  2  0
 15 18  1  0
 15 19  1  0
 16 20  1  0
 18 21  1  0
 19 22  1  0
 20 23  1  0
 21 22  1  0
 23 24  1  0
 24 25  1  0
 24 26  1  0
 25 27  1  0
 26 28  1  0
M  END
>  <DRUGBANK_ID>  (1) 
DB13588

>  <COMMON_NAME>  (1) 
Naftidrofuryl

>  <CAS_NUMBER>  (1) 
31329-57-4

>  <UNII>  (1) 
42H8PQ0NMJ

>  <SYNONYMS>  (1) 
Nafronyl; Naftidrofurilo; Naftidrofuryl; Naftidrofurylum

$$$$
