13U
     RDKit          3D

 30 32  0  0  0  0  0  0  0  0999 V2000
    0.9662   -0.0897    0.0072 O   0  0  0  0  0  0  0  0  0  0  0  0
    2.1665   -0.2562   -0.0862 C   0  0  0  0  0  0  0  0  0  0  0  0
    2.9401    0.6382   -0.7590 N   0  0  0  0  0  0  0  0  0  0  0  0
    4.3912    0.7120   -0.7650 C   0  0  0  0  0  0  0  0  0  0  0  0
    4.8890    1.1378   -2.1010 C   0  0  0  0  0  0  0  0  0  0  0  0
    4.8388    2.4410   -2.6342 C   0  0  0  0  0  0  0  0  0  0  0  0
    5.5235    2.7869   -3.7650 C   0  0  0  0  0  0  0  0  0  0  0  0
    6.1214    1.7800   -4.4894 C   0  0  0  0  0  0  0  0  0  0  0  0
    6.6031    2.1202   -5.8443 C   0  0  0  0  0  0  0  0  0  0  0  0
    7.0308    1.2141   -6.6615 N   0  0  0  0  0  0  0  0  0  0  0  0
    6.5742    3.3997   -6.3059 N   0  0  0  0  0  0  0  0  0  0  0  0
    6.1497    0.4659   -3.9881 C   0  0  0  0  0  0  0  0  0  0  0  0
    5.5216    0.1420   -2.8069 C   0  0  0  0  0  0  0  0  0  0  0  0
    2.9294   -1.3726    0.5741 C   0  0  2  0  0  0  0  0  0  0  0  0
    2.3349   -2.6977    0.1419 C   0  0  0  0  0  0  0  0  0  0  0  0
    3.0454   -3.6496    1.0892 C   0  0  0  0  0  0  0  0  0  0  0  0
    3.2508   -2.8297    2.3765 C   0  0  0  0  0  0  0  0  0  0  0  0
    2.9382   -1.4508    2.0175 N   0  0  0  0  0  0  0  0  0  0  0  0
    2.8898   -0.4388    2.9635 C   0  0  0  0  0  0  0  0  0  0  0  0
    3.0305   -0.7093    4.1629 O   0  0  0  0  0  0  0  0  0  0  0  0
    2.5599    1.0322    2.5763 C   0  0  0  0  0  0  0  0  0  0  0  0
    3.6611    1.6841    1.8449 N   0  0  0  0  0  0  0  0  0  0  0  0
    3.3291    3.0550    1.3944 C   0  0  0  0  0  0  0  0  0  0  0  0
    3.9991    3.4633    0.0846 C   0  0  0  0  0  0  0  0  0  0  0  0
    5.5517    3.5387    0.0805 C   0  0  0  0  0  0  0  0  0  0  0  0
    6.0717    4.9092   -0.2797 C   0  0  0  0  0  0  0  0  0  0  0  0
    5.6344    5.9649    0.7218 C   0  0  0  0  0  0  0  0  0  0  0  0
    4.1277    6.2191    0.8399 C   0  0  0  0  0  0  0  0  0  0  0  0
    3.3905    5.5046    2.0023 C   0  0  0  0  0  0  0  0  0  0  0  0
    3.7551    4.0754    2.4204 C   0  0  0  0  0  0  0  0  0  0  0  0
  1  2  2  0
  2  3  1  0
  3  4  1  0
  4  5  1  0
  5  6  2  0
  5 13  1  0
  6  7  1  0
  7  8  2  0
  8  9  1  0
  8 12  1  0
  9 10  2  0
  9 11  1  0
 12 13  2  0
 14  2  1  1
 14 15  1  0
 14 18  1  0
 15 16  1  0
 16 17  1  0
 17 18  1  0
 18 19  1  0
 19 20  2  0
 19 21  1  0
 21 22  1  0
 22 23  1  0
 23 24  1  0
 23 30  1  0
 24 25  1  0
 25 26  1  0
 26 27  1  0
 27 28  1  0
 28 29  1  0
 29 30  1  0
M  END
>  <DRUGBANK_ID>  (1) 
DB06858

>  <COMMON_NAME>  (1) 
N-cyclooctylglycyl-N-(4-carbamimidoylbenzyl)-L-prolinamide

$$$$
