
     RDKit          3D

 15 14  0  0  1  0  0  0  0  0999 V2000
   -2.4152   -2.0739   -6.6427 C   0  0  0  0  0  0  0  0  0  0  0  0
   -1.0139   -1.6039   -7.0275 C   0  0  1  0  0  0  0  0  0  0  0  0
   -0.0758   -1.6799   -5.8185 C   0  0  2  0  0  0  0  0  0  0  0  0
   -0.4959   -0.6561   -4.7513 C   0  0  1  0  0  0  0  0  0  0  0  0
    0.2082    0.7043   -4.8309 C   0  0  2  0  0  0  0  0  0  0  0  0
   -2.6983   -3.2284   -6.3367 O   0  0  0  0  0  0  0  0  0  0  0  0
    1.2984   -1.4693   -6.1705 O   0  0  0  0  0  0  0  0  0  0  0  0
   -1.9006   -0.3655   -4.8682 O   0  0  0  0  0  0  0  0  0  0  0  0
    0.0026    1.3131   -3.5385 O   0  0  0  0  0  0  0  0  0  0  0  0
   -0.4292    1.6282   -5.8893 C   0  0  0  0  0  0  0  0  0  0  0  0
   -0.0091    2.9726   -5.6727 O   0  0  0  0  0  0  0  0  0  0  0  0
   -0.5741   -2.2830   -8.2327 N   0  0  0  0  0  0  0  0  0  0  0  0
    0.0869   -3.4468   -8.4268 C   0  0  0  0  0  0  0  0  0  0  0  0
    0.2496   -3.8062   -9.6018 O   0  0  0  0  0  0  0  0  0  0  0  0
    0.6526   -4.2467   -7.2829 C   0  0  0  0  0  0  0  0  0  0  0  0
  2 12  1  0
  2  1  1  1
  3  2  1  0
  3  7  1  6
  4  8  1  6
  4  3  1  0
  5  9  1  1
  5  4  1  0
  6  1  2  0
 10  5  1  0
 10 11  1  0
 12 13  1  0
 14 13  2  0
 15 13  1  0
M  END
>  <DRUGBANK_ID>  (1) 
DB00141

>  <SECONDARY_ACCESSION_NUMBERS>  (1) 
NUTR00040

>  <COMMON_NAME>  (1) 
N-Acetylglucosamine

>  <CAS_NUMBER>  (1) 
7512-17-6

>  <UNII>  (1) 
V956696549

>  <SYNONYMS>  (1) 
2-Acetamido-2-deoxy-D-glucose; aldehydo-N-acetyl-D-glucosamine; D-GlcNAc; N-Acetyl-D-glucosamine; N-Acetylchitosamine

$$$$
