J88
     RDKit          3D

 30 34  0  0  0  0  0  0  0  0999 V2000
    0.9752    0.1399   -0.1871 O   0  0  0  0  0  0  0  0  0  0  0  0
    0.4728   -0.8331    0.6506 N   0  0  0  0  0  0  0  0  0  0  0  0
   -0.8121   -0.8739    0.7731 C   0  0  0  0  0  0  0  0  0  0  0  0
   -1.9124   -0.1014    0.0976 C   0  0  0  0  0  0  0  0  0  0  0  0
   -1.7509    0.7677   -0.7547 O   0  0  0  0  0  0  0  0  0  0  0  0
   -3.0883   -0.5916    0.6531 N   0  0  0  0  0  0  0  0  0  0  0  0
   -4.3613   -0.1431    0.2265 C   0  0  0  0  0  0  0  0  0  0  0  0
   -5.1018   -1.1105   -0.6649 C   0  0  0  0  0  0  0  0  0  0  0  0
   -5.7812   -2.1576   -0.0274 C   0  0  0  0  0  0  0  0  0  0  0  0
   -6.8450   -2.7256   -0.6509 C   0  0  0  0  0  0  0  0  0  0  0  0
   -7.1953   -3.9802   -0.3258 F   0  0  0  0  0  0  0  0  0  0  0  0
   -7.4552   -1.9605   -1.6465 C   0  0  0  0  0  0  0  0  0  0  0  0
   -6.8460   -0.7356   -2.0442 C   0  0  0  0  0  0  0  0  0  0  0  0
   -7.0732    0.8195   -1.6332 C   0  0  0  0  0  0  0  0  0  0  0  0
   -5.8134    1.6176   -1.4870 O   0  0  0  0  0  0  0  0  0  0  0  0
   -4.7823    1.2657   -2.4309 C   0  0  0  0  0  0  0  0  0  0  0  0
   -4.9356   -0.0384   -2.9328 O   0  0  0  0  0  0  0  0  0  0  0  0
   -5.4949   -0.8271   -1.9716 C   0  0  0  0  0  0  0  0  0  0  0  0
   -2.8370   -1.5661    1.6248 C   0  0  0  0  0  0  0  0  0  0  0  0
   -3.6922   -2.2725    2.4579 C   0  0  0  0  0  0  0  0  0  0  0  0
   -3.1671   -3.2600    3.2905 C   0  0  0  0  0  0  0  0  0  0  0  0
   -1.7870   -3.4366    3.3779 C   0  0  0  0  0  0  0  0  0  0  0  0
   -0.9108   -2.6668    2.6045 C   0  0  0  0  0  0  0  0  0  0  0  0
   -1.4755   -1.7753    1.7127 C   0  0  0  0  0  0  0  0  0  0  0  0
    0.5252   -2.7890    2.7683 C   0  0  0  0  0  0  0  0  0  0  0  0
    1.1565   -4.0054    2.5097 C   0  0  0  0  0  0  0  0  0  0  0  0
    2.5115   -4.1460    2.7760 C   0  0  0  0  0  0  0  0  0  0  0  0
    3.2692   -3.0344    3.1443 C   0  0  0  0  0  0  0  0  0  0  0  0
    2.6755   -1.7821    3.2508 C   0  0  0  0  0  0  0  0  0  0  0  0
    1.2967   -1.6783    3.1514 C   0  0  0  0  0  0  0  0  0  0  0  0
  1  2  1  0
  2  3  2  0
  3  4  1  0
  3 24  1  0
  4  5  2  0
  4  6  1  0
  6  7  1  0
  6 19  1  0
  7  8  1  0
  8  9  2  0
  8 18  1  0
  9 10  1  0
 10 11  1  0
 10 12  2  0
 12 13  1  0
 13 14  1  0
 13 18  2  0
 14 15  1  0
 15 16  1  0
 16 17  1  0
 17 18  1  0
 19 20  2  0
 19 24  1  0
 20 21  1  0
 21 22  2  0
 22 23  1  0
 23 24  2  0
 23 25  1  0
 25 26  2  0
 25 30  1  0
 26 27  1  0
 27 28  2  0
 28 29  1  0
 29 30  2  0
M  END
>  <DRUGBANK_ID>  (1) 
DB08015

>  <COMMON_NAME>  (1) 
(3Z)-1-[(6-fluoro-4H-1,3-benzodioxin-8-yl)methyl]-4-phenyl-1H-indole-2,3-dione 3-oxime

$$$$
