
     RDKit          3D

 26 29  0  0  1  0  0  0  0  0999 V2000
   -9.0522   -0.9962    0.1646 C   0  0  0  0  0  0  0  0  0  0  0  0
   -7.6384   -1.4855    0.4177 C   0  0  1  0  0  0  0  0  0  0  0  0
   -7.6030   -2.9099    0.2785 O   0  0  0  0  0  0  0  0  0  0  0  0
   -6.6900   -0.8846   -0.5703 C   0  0  0  0  0  0  0  0  0  0  0  0
   -6.4189   -1.2803   -1.7959 N   0  0  0  0  0  0  0  0  0  0  0  0
   -5.4871   -0.4077   -2.2958 N   0  0  0  0  0  0  0  0  0  0  0  0
   -5.2538    0.4937   -1.3638 C   0  0  0  0  0  0  0  0  0  0  0  0
   -6.0136    0.2760   -0.2315 O   0  0  0  0  0  0  0  0  0  0  0  0
   -4.1871    1.5770   -1.5772 C   0  0  1  0  0  0  0  0  0  0  0  0
   -4.5240    2.5717   -2.7410 C   0  0  0  0  0  0  0  0  0  0  0  0
   -5.0686    3.4959   -1.6458 C   0  0  1  0  0  0  0  0  0  0  0  0
   -4.0984    2.8133   -0.6579 C   0  0  0  0  0  0  0  0  0  0  0  0
   -4.9847    4.9607   -1.7952 N   0  0  0  0  0  0  0  0  0  0  0  0
   -6.0697    5.8351   -1.6944 C   0  0  0  0  0  0  0  0  0  0  0  0
   -5.9021    7.0314   -1.9556 O   0  0  0  0  0  0  0  0  0  0  0  0
   -7.3260    5.2754   -1.2565 C   0  0  0  0  0  0  0  0  0  0  0  0
   -7.6195    4.3750   -0.2586 C   0  0  0  0  0  0  0  0  0  0  0  0
   -8.9878    4.0783   -0.4009 C   0  0  0  0  0  0  0  0  0  0  0  0
   -9.5239    4.8043   -1.3931 N   0  0  0  0  0  0  0  0  0  0  0  0
   -8.4857    5.5852   -1.9029 O   0  0  0  0  0  0  0  0  0  0  0  0
   -9.7592    3.2058    0.4705 C   0  0  0  0  0  0  0  0  0  0  0  0
   -9.6414    3.3891    1.8562 C   0  0  0  0  0  0  0  0  0  0  0  0
  -10.4420    2.6697    2.7394 C   0  0  0  0  0  0  0  0  0  0  0  0
  -11.3617    1.7499    2.2448 C   0  0  0  0  0  0  0  0  0  0  0  0
  -11.4650    1.5365    0.8689 C   0  0  0  0  0  0  0  0  0  0  0  0
  -10.6369    2.2342   -0.0192 C   0  0  0  0  0  0  0  0  0  0  0  0
  2  1  1  6
  2  3  1  0
  2  4  1  0
  4  5  2  0
  4  8  1  0
  5  6  1  0
  6  7  2  0
  7  8  1  0
  9 10  1  0
  9 12  1  0
  9  7  1  1
 11 10  1  0
 11 12  1  0
 11 13  1  6
 13 14  1  0
 14 15  2  0
 14 16  1  0
 16 17  2  0
 16 20  1  0
 17 18  1  0
 18 19  2  0
 18 21  1  0
 19 20  1  0
 21 22  2  0
 21 26  1  0
 22 23  1  0
 23 24  2  0
 24 25  1  0
 25 26  2  0
M  END
>  <DRUGBANK_ID>  (1) 
DB15239

>  <COMMON_NAME>  (1) 
Nesolicaftor

>  <CAS_NUMBER>  (1) 
1953130-87-4

>  <UNII>  (1) 
T2U4ZA62U4

>  <SYNONYMS>  (1) 
N-(trans-3-(5-((R)-1-hydroxyethyl)-1,3,4-oxadiazol-2-yl)cyclobutyl)-3-phenylisoxazole-5-carboxamide; Nesolicitor

$$$$
