TQ3
     RDKit          3D

 19 21  0  0  0  0  0  0  0  0999 V2000
    0.0614    0.6315    0.0848 C   0  0  0  0  0  0  0  0  0  0  0  0
    0.0312   -0.7765    0.0679 C   0  0  0  0  0  0  0  0  0  0  0  0
    1.3142   -1.3590   -0.0071 C   0  0  0  0  0  0  0  0  0  0  0  0
    2.4505   -0.6547   -0.0399 N   0  0  0  0  0  0  0  0  0  0  0  0
    2.3439    0.6743    0.0000 C   0  0  0  0  0  0  0  0  0  0  0  0
    1.1906    1.3404    0.0824 N   0  0  0  0  0  0  0  0  0  0  0  0
    1.4738   -2.7200   -0.2691 N   0  0  0  0  0  0  0  0  0  0  0  0
   -1.1392    1.3260    0.0407 C   0  0  0  0  0  0  0  0  0  0  0  0
   -2.3538    0.6761   -0.1357 C   0  0  0  0  0  0  0  0  0  0  0  0
   -2.4066   -0.7066   -0.0328 C   0  0  0  0  0  0  0  0  0  0  0  0
   -1.2345   -1.4546    0.1153 C   0  0  0  0  0  0  0  0  0  0  0  0
    3.4960    1.3915   -0.0807 N   0  0  0  0  0  0  0  0  0  0  0  0
   -1.2794   -3.2387    0.4144 S   0  0  0  0  0  0  0  0  0  0  0  0
   -2.9607   -3.7487    0.4252 C   0  0  0  0  0  0  0  0  0  0  0  0
   -3.7832   -3.5673   -0.6868 C   0  0  0  0  0  0  0  0  0  0  0  0
   -5.1439   -3.8347   -0.5881 C   0  0  0  0  0  0  0  0  0  0  0  0
   -5.6507   -4.4284    0.5666 C   0  0  0  0  0  0  0  0  0  0  0  0
   -4.7981   -4.7604    1.6179 C   0  0  0  0  0  0  0  0  0  0  0  0
   -3.4614   -4.3795    1.5658 C   0  0  0  0  0  0  0  0  0  0  0  0
  1  2  1  0
  1  6  2  0
  1  8  1  0
  2  3  2  0
  2 11  1  0
  3  4  1  0
  3  7  1  0
  4  5  2  0
  5  6  1  0
  5 12  1  0
  8  9  2  0
  9 10  1  0
 10 11  2  0
 11 13  1  0
 13 14  1  0
 14 15  2  0
 14 19  1  0
 15 16  1  0
 16 17  2  0
 17 18  1  0
 18 19  2  0
M  END
>  <DRUGBANK_ID>  (1) 
DB04163

>  <SECONDARY_ACCESSION_NUMBERS>  (1) 
EXPT03099

>  <COMMON_NAME>  (1) 
5-Phenylsulfanyl-2,4-Quinazolinediamine

$$$$
