
     RDKit          3D

 26 28  0  0  0  0  0  0  0  0999 V2000
   -0.9366   -3.9102    6.9238 S   0  0  0  0  0  0  0  0  0  0  0  0
   -1.0839   -4.3501    8.5672 C   0  0  0  0  0  0  0  0  0  0  0  0
   -1.1138   -5.7156    8.7380 C   0  0  0  0  0  0  0  0  0  0  0  0
   -1.0454   -6.4113    7.4982 C   0  0  0  0  0  0  0  0  0  0  0  0
   -0.9380   -5.5524    6.4231 C   0  0  0  0  0  0  0  0  0  0  0  0
   -0.9157   -5.9005    4.9642 C   0  0  0  0  0  0  0  0  0  0  0  0
   -2.1851   -5.3391    4.3346 C   0  0  0  0  0  0  0  0  0  0  0  0
   -2.0250   -4.7038    3.1189 N   0  0  0  0  0  0  0  0  0  0  0  0
   -4.0397   -2.9741    2.8380 C   0  0  0  0  0  0  0  0  0  0  0  0
   -3.1216   -4.1026    2.2797 C   0  0  2  0  0  0  0  0  0  0  0  0
   -5.1447   -3.6144    2.3529 N   0  0  0  0  0  0  0  0  0  0  0  0
   -4.4553   -4.8360    1.9564 C   0  0  2  0  0  0  0  0  0  0  0  0
   -6.4817   -3.4894    2.6541 C   0  0  0  0  0  0  0  0  0  0  0  0
   -4.9849   -6.2590    2.9014 S   0  0  0  0  0  0  0  0  0  0  0  0
   -6.7248   -6.0233    2.6158 C   0  0  0  0  0  0  0  0  0  0  0  0
   -7.2410   -4.6079    2.8132 C   0  0  0  0  0  0  0  0  0  0  0  0
   -8.7025   -4.5975    3.2286 C   0  0  0  0  0  0  0  0  0  0  0  0
   -8.9664   -3.8941    4.4688 O   0  0  0  0  0  0  0  0  0  0  0  0
   -8.3948   -4.1180    5.6704 C   0  0  0  0  0  0  0  0  0  0  0  0
   -7.6023   -5.3692    5.8526 C   0  0  0  0  0  0  0  0  0  0  0  0
   -7.0432   -2.0703    2.7394 C   0  0  0  0  0  0  0  0  0  0  0  0
   -3.2648   -5.4624    4.9030 O   0  0  0  0  0  0  0  0  0  0  0  0
   -3.8721   -1.9497    3.4472 O   0  0  0  0  0  0  0  0  0  0  0  0
   -6.4312   -1.0354    2.5427 O   0  0  0  0  0  0  0  0  0  0  0  0
   -8.3750   -2.0125    2.9231 O   0  0  0  0  0  0  0  0  0  0  0  0
   -8.5638   -3.3349    6.6013 O   0  0  0  0  0  0  0  0  0  0  0  0
  1  2  1  0
  1  5  1  0
  2  3  2  0
  3  4  1  0
  4  5  2  0
  5  6  1  0
  6  7  1  0
  7  8  1  0
  7 22  2  0
  9 10  1  0
  9 11  1  0
  9 23  2  0
 10  8  1  1
 11 12  1  0
 12 10  1  0
 12 14  1  1
 13 11  1  0
 13 16  2  0
 13 21  1  0
 14 15  1  0
 15 16  1  0
 16 17  1  0
 17 18  1  0
 18 19  1  0
 19 20  1  0
 19 26  2  0
 21 24  2  0
 21 25  1  0
M  END
>  <DRUGBANK_ID>  (1) 
DB00456

>  <SECONDARY_ACCESSION_NUMBERS>  (1) 
APRD00859; EXPT00946

>  <COMMON_NAME>  (1) 
Cefalotin

>  <CAS_NUMBER>  (1) 
153-61-7

>  <UNII>  (1) 
R72LW146E6

>  <SYNONYMS>  (1) 
3-Acetoxymethyl-7-(2-thienylacetamido)-3-cephem-4-carboxylic acid; 7-(2-Thienylacetamido)cephalosporanic acid; 7-(2'-thienylacetamido)cephalosporanic acid; 7-(Thiophene-2-acetamido)cephalosporin; Cefalothin; Cefalotin; Cefalotina; CÃ©falotine; Cefalotinum; Cephalothin; Cephalotin; CET

$$$$
