
     RDKit          3D

 29 31  0  0  0  0  0  0  0  0999 V2000
    2.3937   -0.5312    0.4936 C   0  0  0  0  0  0  0  0  0  0  0  0
    0.8949   -0.7233    0.7679 C   0  0  0  0  0  0  0  0  0  0  0  0
    0.1007   -1.6787    0.1485 C   0  0  0  0  0  0  0  0  0  0  0  0
   -1.3257   -1.4958    0.0554 C   0  0  0  0  0  0  0  0  0  0  0  0
   -1.9183   -0.2963    0.4644 C   0  0  0  0  0  0  0  0  0  0  0  0
   -1.0898    0.4161    1.2951 C   0  0  0  0  0  0  0  0  0  0  0  0
    0.2622    0.2072    1.5016 N   0  0  0  0  0  0  0  0  0  0  0  0
   -3.2200    0.1820    0.0634 N   0  0  0  0  0  0  0  0  0  0  0  0
   -3.8272    1.4314    0.0025 C   0  0  0  0  0  0  0  0  0  0  0  0
   -5.0618    1.4917   -0.0398 O   0  0  0  0  0  0  0  0  0  0  0  0
   -3.1639    2.6261   -0.0100 N   0  0  0  0  0  0  0  0  0  0  0  0
   -1.8144    2.8584   -0.2438 C   0  0  0  0  0  0  0  0  0  0  0  0
   -1.1457    3.6973    0.6816 C   0  0  0  0  0  0  0  0  0  0  0  0
    0.1794    3.4488    0.9341 C   0  0  0  0  0  0  0  0  0  0  0  0
    0.7403    2.3789    0.2453 C   0  0  0  0  0  0  0  0  0  0  0  0
    0.1968    1.7529   -0.9429 C   0  0  0  0  0  0  0  0  0  0  0  0
   -1.1435    2.0076   -1.1359 C   0  0  0  0  0  0  0  0  0  0  0  0
   -1.8258    1.3356   -2.0790 F   0  0  0  0  0  0  0  0  0  0  0  0
    0.9349    0.8804   -1.9877 C   0  0  0  0  0  0  0  0  0  0  0  0
    1.9691    1.5182   -2.8731 N   0  0  0  0  0  0  0  0  0  0  0  0
    3.1879    2.1196   -2.2352 C   0  0  0  0  0  0  0  0  0  0  0  0
    2.8227    3.3144   -1.3842 C   0  0  0  0  0  0  0  0  0  0  0  0
    1.8584    4.2747   -1.9418 N   0  0  0  0  0  0  0  0  0  0  0  0
    0.8237    3.7832   -2.8603 C   0  0  0  0  0  0  0  0  0  0  0  0
    1.3026    2.5709   -3.6659 C   0  0  0  0  0  0  0  0  0  0  0  0
    1.7329    5.5403   -1.4444 C   0  0  0  0  0  0  0  0  0  0  0  0
    0.9291    6.3776   -1.8947 O   0  0  0  0  0  0  0  0  0  0  0  0
    2.6281    5.8106   -0.4675 O   0  0  0  0  0  0  0  0  0  0  0  0
    2.8016    7.1991   -0.2181 C   0  0  0  0  0  0  0  0  0  0  0  0
  1  2  1  0
  2  3  2  0
  2  7  1  0
  3  4  1  0
  4  5  2  0
  5  6  1  0
  5  8  1  0
  6  7  2  0
  8  9  1  0
  9 10  2  0
  9 11  1  0
 11 12  1  0
 12 13  2  0
 12 17  1  0
 13 14  1  0
 14 15  2  0
 15 16  1  0
 16 17  2  0
 16 19  1  0
 17 18  1  0
 19 20  1  0
 20 21  1  0
 20 25  1  0
 21 22  1  0
 22 23  1  0
 23 24  1  0
 23 26  1  0
 24 25  1  0
 26 27  2  0
 26 28  1  0
 28 29  1  0
M  END
>  <DRUGBANK_ID>  (1) 
DB11816

>  <SECONDARY_ACCESSION_NUMBERS>  (1) 
DB05634

>  <COMMON_NAME>  (1) 
Omecamtiv Mecarbil

>  <CAS_NUMBER>  (1) 
873697-71-3

>  <UNII>  (1) 
2M19539ERK

>  <SYNONYMS>  (1) 
Omecamtiv Mecarbil

$$$$
