
     RDKit          3D

 20 21  0  0  0  0  0  0  0  0999 V2000
    0.7727   -0.1848   -0.2616 C   0  0  0  0  0  0  0  0  0  0  0  0
    0.3371    1.2669   -0.4543 C   0  0  0  0  0  0  0  0  0  0  0  0
    1.0520    2.0293   -1.4900 N   0  0  0  0  0  0  0  0  0  0  0  0
    0.4948    3.3764   -1.6849 C   0  0  0  0  0  0  0  0  0  0  0  0
    0.7560    4.4110   -0.5920 C   0  0  0  0  0  0  0  0  0  0  0  0
    2.5214    1.9795   -1.5027 C   0  0  0  0  0  0  0  0  0  0  0  0
    3.3392    2.6566   -0.3896 C   0  0  0  0  0  0  0  0  0  0  0  0
    2.9297    2.3086    1.0238 C   0  0  0  0  0  0  0  0  0  0  0  0
    3.1148    0.8833    1.2643 N   0  0  0  0  0  0  0  0  0  0  0  0
    3.8760    0.5321    2.3821 C   0  0  0  0  0  0  0  0  0  0  0  0
    5.0278   -0.2191    2.1753 C   0  0  0  0  0  0  0  0  0  0  0  0
    5.8243   -0.4897    3.2661 C   0  0  0  0  0  0  0  0  0  0  0  0
    5.5429   -0.0650    4.5160 N   0  0  0  0  0  0  0  0  0  0  0  0
    4.4196    0.6495    4.7195 C   0  0  0  0  0  0  0  0  0  0  0  0
    4.0966    1.1061    5.9859 C   0  0  0  0  0  0  0  0  0  0  0  0
    2.9508    1.8679    6.2333 C   0  0  0  0  0  0  0  0  0  0  0  0
    2.6041    2.4282    7.8195 Cl  0  0  0  0  0  0  0  0  0  0  0  0
    2.0663    2.1699    5.2101 C   0  0  0  0  0  0  0  0  0  0  0  0
    2.3439    1.6850    3.9488 C   0  0  0  0  0  0  0  0  0  0  0  0
    3.5290    0.9670    3.6705 C   0  0  0  0  0  0  0  0  0  0  0  0
  1  2  1  0
  2  3  1  0
  3  4  1  0
  3  6  1  0
  4  5  1  0
  6  7  1  0
  7  8  1  0
  8  9  1  0
  9 10  1  0
 10 11  2  0
 10 20  1  0
 11 12  1  0
 12 13  2  0
 13 14  1  0
 14 15  1  0
 14 20  2  0
 15 16  2  0
 16 17  1  0
 16 18  1  0
 18 19  2  0
 19 20  1  0
M  END
>  <DRUGBANK_ID>  (1) 
DB17778

>  <COMMON_NAME>  (1) 
AQ-13 free base

>  <CAS_NUMBER>  (1) 
32571-49-6

>  <UNII>  (1) 
4K7VT5621X

>  <SYNONYMS>  (1) 
1,3-propanediamine, n'-(7-chloro-4-quinolinyl)-n,n-diethyl-; AQ-13 free base; N'-(7-chloroquinolin-4-yl)-n,n-diethyl-propane-1,3-diamine

$$$$
