AXX
     RDKit          3D

 18 20  0  0  0  0  0  0  0  0999 V2000
    1.0623   -0.0138    0.2051 O   0  0  0  0  0  0  0  0  0  0  0  0
    2.2905    0.0373    0.1511 C   0  0  0  0  0  0  0  0  0  0  0  0
    2.9699    0.8057   -0.9293 C   0  0  0  0  0  0  0  0  0  0  0  0
    2.8937    2.3182   -0.9355 C   0  0  0  0  0  0  0  0  0  0  0  0
    2.2282    1.5290   -2.0245 C   0  0  0  0  0  0  0  0  0  0  0  0
    3.0395   -0.6914    1.0585 N   0  0  0  0  0  0  0  0  0  0  0  0
    4.4109   -0.8898    1.0262 C   0  0  0  0  0  0  0  0  0  0  0  0
    5.3861    0.5167    1.0266 S   0  0  0  0  0  0  0  0  0  0  0  0
    6.8189   -0.3798    1.0242 C   0  0  0  0  0  0  0  0  0  0  0  0
    8.1658    0.2864    0.9987 C   0  0  0  0  0  0  0  0  0  0  0  0
    9.2987   -0.7386    0.8448 C   0  0  0  0  0  0  0  0  0  0  0  0
    9.0368   -2.0018    1.6692 C   0  0  0  0  0  0  0  0  0  0  0  0
    7.7389   -2.7023    1.2335 C   0  0  0  0  0  0  0  0  0  0  0  0
    6.5834   -1.7365    1.1408 C   0  0  0  0  0  0  0  0  0  0  0  0
    5.1540   -2.0608    1.1524 C   0  0  0  0  0  0  0  0  0  0  0  0
    4.6351   -3.4370    1.2330 C   0  0  0  0  0  0  0  0  0  0  0  0
    5.3623   -4.4289    1.2733 O   0  0  0  0  0  0  0  0  0  0  0  0
    3.2825   -3.6334    1.2541 N   0  0  0  0  0  0  0  0  0  0  0  0
  1  2  2  0
  2  6  1  0
  2  3  1  0
  3  4  1  0
  3  5  1  0
  4  5  1  0
  6  7  1  0
  7  8  1  0
  7 15  2  0
  8  9  1  0
  9 10  1  0
  9 14  2  0
 10 11  1  0
 11 12  1  0
 12 13  1  0
 13 14  1  0
 14 15  1  0
 15 16  1  0
 16 18  1  0
 16 17  2  0
M  END
>  <DRUGBANK_ID>  (1) 
DB07398

>  <COMMON_NAME>  (1) 
2-[(CYCLOPROPYLCARBONYL)AMINO]-4,5,6,7-TETRAHYDRO-1-BENZOTHIOPHENE-3-CARBOXAMIDE

$$$$
