
     RDKit          3D

 22 23  0  0  0  0  0  0  0  0999 V2000
    1.5915   -1.1877   -0.0566 C   0  0  0  0  0  0  0  0  0  0  0  0
    2.3275    0.0020    0.0315 C   0  0  0  0  0  0  0  0  0  0  0  0
    1.6545    1.2270    0.0101 C   0  0  0  0  0  0  0  0  0  0  0  0
    0.2881    1.2663   -0.2521 C   0  0  0  0  0  0  0  0  0  0  0  0
   -0.3855    0.0880   -0.6071 C   0  0  0  0  0  0  0  0  0  0  0  0
    0.2138   -1.1531   -0.3319 C   0  0  0  0  0  0  0  0  0  0  0  0
    2.3768    2.4404    0.0331 N   0  0  0  0  0  0  0  0  0  0  0  0
   -1.7340    0.2389   -1.1142 C   0  0  0  0  0  0  0  0  0  0  0  0
   -0.4210   -2.3625   -0.1903 O   0  0  0  0  0  0  0  0  0  0  0  0
   -1.8565   -2.3801   -0.1186 C   0  0  0  0  0  0  0  0  0  0  0  0
   -2.5087   -1.7061    1.1633 C   0  0  0  0  0  0  0  0  0  0  0  0
   -2.0884   -0.2763    1.6523 C   0  0  0  0  0  0  0  0  0  0  0  0
   -4.0412   -1.7727    1.0094 C   0  0  0  0  0  0  0  0  0  0  0  0
   -2.0738   -2.5598    2.3588 C   0  0  0  0  0  0  0  0  0  0  0  0
    2.1187    3.4466    0.9007 N   0  0  0  0  0  0  0  0  0  0  0  0
    2.9985    4.4003    0.5573 C   0  0  0  0  0  0  0  0  0  0  0  0
    3.7259    4.0816   -0.6094 C   0  0  0  0  0  0  0  0  0  0  0  0
    3.2963    2.8071   -0.9157 C   0  0  0  0  0  0  0  0  0  0  0  0
    4.6848    4.8487   -1.3675 C   0  0  0  0  0  0  0  0  0  0  0  0
    5.2221    4.4727   -2.3992 O   0  0  0  0  0  0  0  0  0  0  0  0
    4.9693    6.0636   -0.8494 O   0  0  0  0  0  0  0  0  0  0  0  0
   -2.8550    0.3304   -1.3658 N   0  0  0  0  0  0  0  0  0  0  0  0
  1  6  2  0
  2  1  1  0
  3  2  2  0
  3  7  1  0
  4  3  1  0
  5  4  2  0
  5  8  1  0
  6  5  1  0
  6  9  1  0
  7 18  1  0
  8 22  3  0
 10  9  1  0
 10 11  1  0
 11 13  1  0
 11 14  1  0
 12 11  1  0
 15  7  1  0
 15 16  2  0
 16 17  1  0
 17 19  1  0
 18 17  2  0
 19 20  2  0
 19 21  1  0
M  END
>  <DRUGBANK_ID>  (1) 
DB03841

>  <SECONDARY_ACCESSION_NUMBERS>  (1) 
EXPT03278

>  <COMMON_NAME>  (1) 
Niraxostat

>  <CAS_NUMBER>  (1) 
206884-98-2

>  <UNII>  (1) 
246FR6022S

>  <SYNONYMS>  (1) 
Niraxostat; Piraxostat

$$$$
