
     RDKit          3D

 25 26  0  0  0  0  0  0  0  0999 V2000
    0.8890    0.0521   -0.0120 O   0  0  0  0  0  0  0  0  0  0  0  0
   -2.7467    2.6568    1.6366 O   0  0  0  0  0  0  0  0  0  0  0  0
    0.7214    1.6166   -1.7670 N   0  0  0  0  0  0  0  0  0  0  0  0
   -3.2284    4.4437    0.4508 N   0  0  0  0  0  0  0  0  0  0  0  0
   -5.5750    5.8260   -1.3347 N   0  0  0  0  0  0  0  0  0  0  0  0
   -1.0392    3.2259   -1.7410 C   0  0  0  0  0  0  0  0  0  0  0  0
   -1.4804    2.7373   -0.4208 C   0  0  0  0  0  0  0  0  0  0  0  0
    0.0786    2.6511   -2.3423 C   0  0  0  0  0  0  0  0  0  0  0  0
    0.2878    1.1568   -0.5702 C   0  0  0  0  0  0  0  0  0  0  0  0
   -0.7867    1.6557    0.1238 C   0  0  0  0  0  0  0  0  0  0  0  0
   -2.5283    3.2765    0.5636 C   0  0  0  0  0  0  0  0  0  0  0  0
   -1.5866    4.2298   -2.5845 C   0  0  0  0  0  0  0  0  0  0  0  0
    0.5164    3.1750   -3.5961 C   0  0  0  0  0  0  0  0  0  0  0  0
   -1.1000    4.8881   -3.6928 C   0  0  0  0  0  0  0  0  0  0  0  0
   -0.0298    4.2984   -4.2541 C   0  0  0  0  0  0  0  0  0  0  0  0
   -3.1871    5.4181   -0.6112 C   0  0  0  0  0  0  0  0  0  0  0  0
    2.3136    0.1160   -0.0431 C   0  0  0  0  0  0  0  0  0  0  0  0
   -4.3061    5.2478   -1.7396 C   0  0  0  0  0  0  0  0  0  0  0  0
    2.8390   -1.1770    0.5900 C   0  0  0  0  0  0  0  0  0  0  0  0
   -6.5988    5.8159   -2.3821 C   0  0  0  0  0  0  0  0  0  0  0  0
   -6.0058    5.2749   -0.0553 C   0  0  0  0  0  0  0  0  0  0  0  0
    2.3648   -2.4272   -0.1593 C   0  0  0  0  0  0  0  0  0  0  0  0
   -6.1310    3.7463    0.0077 C   0  0  0  0  0  0  0  0  0  0  0  0
   -7.0973    4.4508   -2.8388 C   0  0  0  0  0  0  0  0  0  0  0  0
    2.8576   -2.4395   -1.5981 C   0  0  0  0  0  0  0  0  0  0  0  0
  1  9  1  0
  1 17  1  0
  2 11  2  0
  3  8  2  0
  3  9  1  0
  4 11  1  0
  4 16  1  0
  5 18  1  0
  5 20  1  0
  5 21  1  0
  6  7  2  0
  6  8  1  0
  6 12  1  0
  7 10  1  0
  7 11  1  0
  8 13  1  0
  9 10  2  0
 12 14  2  0
 13 15  2  0
 14 15  1  0
 16 18  1  0
 17 19  1  0
 19 22  1  0
 20 24  1  0
 21 23  1  0
 22 25  1  0
M  END
>  <DRUGBANK_ID>  (1) 
DB00527

>  <SECONDARY_ACCESSION_NUMBERS>  (1) 
APRD00915

>  <COMMON_NAME>  (1) 
Cinchocaine

>  <CAS_NUMBER>  (1) 
85-79-0

>  <UNII>  (1) 
L6JW2TJG99

>  <SYNONYMS>  (1) 
2-butoxy-N-(2-(diethylamino)ethyl)cinchoninamide; 2-butoxy-N-(α-diethylaminoethyl)cinchoninamide; 2-butoxy-N-(β-diethylaminoethyl)cinchoninamide; 2-butoxy-N-[2-(diethylamino)ethyl]-4-quinolinecarboxamide; 2-Butoxy-quinoline-4-carboxylic acid (2-diethylamino-ethyl)-amide; 2-butoxyquinoline-4-carboxylic acid diethylaminoethylamide; 2-N-butoxy-N-(2-diethylaminoethyl)cinchoninamide; Cinchocaine; Cinchocainum; Cincocainio; Dibucaine; N-(2-(diethylamino)ethyl)-2-butoxycinchoninamide; α-butyloxycinchonic acid-γ-diethylethylenediamine; α-butyloxycinchoninic acid diethylethylenediamide

$$$$
