
     RDKit          3D

 30 33  0  0  0  0  0  0  0  0999 V2000
    1.1498    0.0327    0.2685 C   0  0  0  0  0  0  0  0  0  0  0  0
   -0.1214   -2.7851   -7.1691 C   0  0  0  0  0  0  0  0  0  0  0  0
   -5.1492   -2.6229   -1.7026 C   0  0  0  0  0  0  0  0  0  0  0  0
   -0.2178   -1.4126   -6.9831 C   0  0  0  0  0  0  0  0  0  0  0  0
   -5.2223   -1.3981   -2.3628 C   0  0  0  0  0  0  0  0  0  0  0  0
   -1.7024   -0.0542   -1.3409 C   0  0  0  0  0  0  0  0  0  0  0  0
   -0.4169   -3.6495   -6.1190 C   0  0  0  0  0  0  0  0  0  0  0  0
   -3.9823   -3.4212   -1.7021 C   0  0  0  0  0  0  0  0  0  0  0  0
   -0.6835   -0.9139   -5.7669 C   0  0  0  0  0  0  0  0  0  0  0  0
   -4.1366   -1.0028   -3.0781 C   0  0  0  0  0  0  0  0  0  0  0  0
   -1.1734   -4.2237   -3.8329 C   0  0  0  0  0  0  0  0  0  0  0  0
   -1.5424   -3.7633   -2.4348 C   0  0  0  0  0  0  0  0  0  0  0  0
    2.9507    0.8186   -4.0845 C   0  0  0  0  0  0  0  0  0  0  0  0
    1.6644    2.6883   -3.1421 C   0  0  0  0  0  0  0  0  0  0  0  0
    3.7373    1.7931   -4.6832 C   0  0  0  0  0  0  0  0  0  0  0  0
    2.4132    3.6372   -3.7575 C   0  0  0  0  0  0  0  0  0  0  0  0
   -0.8452   -1.0640   -0.5404 C   0  0  0  0  0  0  0  0  0  0  0  0
   -1.5121   -0.1231   -2.9183 C   0  0  0  0  0  0  0  0  0  0  0  0
    1.3205   -0.9532   -1.9165 C   0  0  0  0  0  0  0  0  0  0  0  0
   -0.8990   -3.1682   -4.8912 C   0  0  0  0  0  0  0  0  0  0  0  0
   -2.8723   -3.0294   -2.4241 C   0  0  0  0  0  0  0  0  0  0  0  0
    1.9803    1.3007   -3.2569 C   0  0  0  0  0  0  0  0  0  0  0  0
    3.4866    3.1759   -4.4871 C   0  0  0  0  0  0  0  0  0  0  0  0
   -1.1245   -1.7846   -4.7458 C   0  0  0  0  0  0  0  0  0  0  0  0
   -3.0071   -1.8316   -3.1173 C   0  0  0  0  0  0  0  0  0  0  0  0
    1.1523    0.5102   -2.3986 C   0  0  0  0  0  0  0  0  0  0  0  0
    4.5542    4.3478   -5.1285 Cl  0  0  0  0  0  0  0  0  0  0  0  0
    0.6506   -1.0598   -0.5760 N   0  0  0  0  0  0  0  0  0  0  0  0
   -1.9135   -1.2609   -3.7146 N   0  0  0  0  0  0  0  0  0  0  0  0
    0.2300    1.2254   -2.0510 O   0  0  0  0  0  0  0  0  0  0  0  0
  4  2  2  0
  5  3  2  0
  7  2  1  0
  8  3  1  0
  9  4  1  0
 10  5  1  0
 12 11  1  0
 15 13  2  0
 16 14  1  0
 17  6  1  0
 18  6  1  0
 20  7  2  0
 20 11  1  0
 21  8  2  0
 21 12  1  0
 22 13  1  0
 22 14  2  0
 23 15  1  0
 23 16  2  0
 24  9  2  0
 24 20  1  0
 25 10  2  0
 25 21  1  0
 26 19  1  0
 26 22  1  0
 27 23  1  0
 28  1  1  0
 28 17  1  0
 28 19  1  0
 29 18  1  0
 29 24  1  0
 29 25  1  0
 30 26  2  0
M  END
>  <DRUGBANK_ID>  (1) 
DB13411

>  <COMMON_NAME>  (1) 
Lofepramine

>  <CAS_NUMBER>  (1) 
23047-25-8

>  <UNII>  (1) 
OCA4JT7PAW

>  <SYNONYMS>  (1) 
Lofepramine

$$$$
