
     RDKit          3D

 27 27  0  0  1  0  0  0  0  0999 V2000
   -7.4332   -9.6402   -6.6749 C   0  0  0  0  0  0  0  0  0  0  0  0
   -6.4614   -9.2041   -5.5883 C   0  0  0  0  0  0  0  0  0  0  0  0
   -5.0361   -9.4008   -6.1008 C   0  0  0  0  0  0  0  0  0  0  0  0
   -6.7071   -7.7468   -5.0886 C   0  0  1  0  0  0  0  0  0  0  0  0
   -8.0363   -7.5615   -4.5603 O   0  0  0  0  0  0  0  0  0  0  0  0
   -9.0576   -7.4572   -5.4437 C   0  0  0  0  0  0  0  0  0  0  0  0
   -8.9391   -7.3594   -6.6595 O   0  0  0  0  0  0  0  0  0  0  0  0
  -10.4057   -7.3755   -4.7718 C   0  0  0  0  0  0  0  0  0  0  0  0
  -10.6235   -8.3546   -3.6255 C   0  0  0  0  0  0  0  0  0  0  0  0
  -10.5681   -5.9336   -4.3295 C   0  0  0  0  0  0  0  0  0  0  0  0
   -5.7158   -7.3794   -4.0984 O   0  0  0  0  0  0  0  0  0  0  0  0
   -5.7288   -8.1255   -2.9819 C   0  0  0  0  0  0  0  0  0  0  0  0
   -6.5487   -8.9931   -2.6805 O   0  0  0  0  0  0  0  0  0  0  0  0
   -4.6743   -7.9343   -2.1722 N   0  0  0  0  0  0  0  0  0  0  0  0
   -3.6728   -6.8737   -2.1032 C   0  0  0  0  0  0  0  0  0  0  0  0
   -3.8606   -5.8609   -0.9180 C   0  0  2  0  0  0  0  0  0  0  0  0
   -2.4983   -5.3742   -0.3816 C   0  0  0  0  0  0  0  0  0  0  0  0
   -2.6204   -4.4275    0.7895 C   0  0  0  0  0  0  0  0  0  0  0  0
   -2.2087   -4.6290    1.9203 O   0  0  0  0  0  0  0  0  0  0  0  0
   -3.2564   -3.2796    0.4849 O   0  0  0  0  0  0  0  0  0  0  0  0
   -4.6556   -6.4228    0.2546 C   0  0  0  0  0  0  0  0  0  0  0  0
   -5.5185   -5.5973    0.9871 C   0  0  0  0  0  0  0  0  0  0  0  0
   -6.2335   -6.1203    2.0639 C   0  0  0  0  0  0  0  0  0  0  0  0
   -6.1737   -7.4854    2.3393 C   0  0  0  0  0  0  0  0  0  0  0  0
   -5.3418   -8.3167    1.6054 C   0  0  0  0  0  0  0  0  0  0  0  0
   -4.5002   -7.7558    0.6589 C   0  0  0  0  0  0  0  0  0  0  0  0
   -7.0719   -8.1453    3.6454 Cl  0  0  0  0  0  0  0  0  0  0  0  0
  1  2  1  0
  2  3  1  0
  2  4  1  0
  4  5  1  1
  4 11  1  0
  5  6  1  0
  6  7  2  0
  6  8  1  0
  8  9  1  0
  8 10  1  0
 11 12  1  0
 12 13  2  0
 12 14  1  0
 14 15  1  0
 16 21  1  0
 16 17  1  1
 16 15  1  0
 17 18  1  0
 18 19  2  0
 18 20  1  0
 21 22  2  0
 21 26  1  0
 22 23  1  0
 23 24  2  0
 24 25  1  0
 24 27  1  0
 25 26  2  0
M  END
>  <DRUGBANK_ID>  (1) 
DB08892

>  <SECONDARY_ACCESSION_NUMBERS>  (1) 
DB05031

>  <COMMON_NAME>  (1) 
Arbaclofen Placarbil

>  <CAS_NUMBER>  (1) 
847353-30-4

>  <UNII>  (1) 
W89H91R7VX

>  <SYNONYMS>  (1) 
Arbaclofen Placarbil; XP19986

$$$$
