307
     RDKit          3D

 26 28  0  0  0  0  0  0  0  0999 V2000
    0.8468   -0.0741    0.1720 O   0  0  0  0  0  0  0  0  0  0  0  0
    0.9859    1.6932    1.5578 O   0  0  0  0  0  0  0  0  0  0  0  0
   -8.1322   -2.1857   -2.7764 C   0  0  0  0  0  0  0  0  0  0  0  0
   -8.1977   -4.2789   -0.5711 C   0  0  0  0  0  0  0  0  0  0  0  0
   -8.4548   -3.6801   -3.0053 C   0  0  0  0  0  0  0  0  0  0  0  0
   -9.1501   -4.2731   -1.7842 C   0  0  0  0  0  0  0  0  0  0  0  0
   -7.4729   -1.9527   -1.4128 C   0  0  0  0  0  0  0  0  0  0  0  0
   -7.5113   -2.9226   -0.3939 C   0  0  0  0  0  0  0  0  0  0  0  0
   -7.2002   -1.7321   -3.9194 C   0  0  0  0  0  0  0  0  0  0  0  0
   -9.4454   -1.3798   -2.8397 C   0  0  0  0  0  0  0  0  0  0  0  0
   -9.0353   -4.6265    0.6793 C   0  0  0  0  0  0  0  0  0  0  0  0
   -7.1224   -5.3642   -0.7803 C   0  0  0  0  0  0  0  0  0  0  0  0
   -6.8221   -0.7264   -1.1472 C   0  0  0  0  0  0  0  0  0  0  0  0
   -6.8794   -2.6380    0.8318 C   0  0  0  0  0  0  0  0  0  0  0  0
   -6.2044   -0.4510    0.0852 C   0  0  0  0  0  0  0  0  0  0  0  0
   -6.2583   -1.4160    1.0980 C   0  0  0  0  0  0  0  0  0  0  0  0
   -5.4393    0.8170    0.2633 C   0  0  0  0  0  0  0  0  0  0  0  0
   -5.6714   -1.1984    2.4649 C   0  0  0  0  0  0  0  0  0  0  0  0
   -3.9609    0.8574    0.5278 C   0  0  0  0  0  0  0  0  0  0  0  0
   -6.1698    1.9466    0.1655 C   0  0  0  0  0  0  0  0  0  0  0  0
   -3.2579    2.0478    0.7549 C   0  0  0  0  0  0  0  0  0  0  0  0
   -3.2155   -0.3403    0.5641 C   0  0  0  0  0  0  0  0  0  0  0  0
   -1.8637    2.0510    0.8615 C   0  0  0  0  0  0  0  0  0  0  0  0
   -1.8506   -0.3567    0.8468 C   0  0  0  0  0  0  0  0  0  0  0  0
   -1.1609    0.8472    0.8955 C   0  0  0  0  0  0  0  0  0  0  0  0
    0.3074    0.8718    0.9600 C   0  0  0  0  0  0  0  0  0  0  0  0
  1 26  1  0
  2 26  2  0
  3  5  1  0
  3  7  1  0
  3  9  1  0
  3 10  1  0
  4  6  1  0
  4  8  1  0
  4 11  1  0
  4 12  1  0
  5  6  1  0
  7  8  2  0
  7 13  1  0
  8 14  1  0
 13 15  2  0
 14 16  2  0
 15 16  1  0
 15 17  1  0
 16 18  1  0
 17 19  1  0
 17 20  2  0
 19 21  2  0
 19 22  1  0
 21 23  1  0
 22 24  2  0
 23 25  2  0
 24 25  1  0
 25 26  1  0
M  END
>  <DRUGBANK_ID>  (1) 
DB00307

>  <SECONDARY_ACCESSION_NUMBERS>  (1) 
APRD00114

>  <COMMON_NAME>  (1) 
Bexarotene

>  <CAS_NUMBER>  (1) 
153559-49-0

>  <UNII>  (1) 
A61RXM4375

>  <SYNONYMS>  (1) 
4-[1-(3,5,5,8,8-pentamethyltetralin-2-yl)ethenyl]benzoic acid; 4-[1-(5,6,7,8,-Tetrahydro-3,5,5,8,8-pentamethyl-2-naphtalenyl)ethenyl]benzoic acid; Bexaroten; Bexarot√®ne; Bexarotene; Bexaroteno; Bexarotenum; p-(1-(5,6,7,8-Tetrahydro-3,5,5,8,8-pentamethyl-2-naphthyl)vinyl)benzoic acid

$$$$
