
     RDKit          3D

 16 16  0  0  0  0  0  0  0  0999 V2000
    0.9261   -0.1014   -0.1770 C   0  0  0  0  0  0  0  0  0  0  0  0
    8.0149    1.7570    7.1643 C   0  0  0  0  0  0  0  0  0  0  0  0
    0.6130   -0.6264    1.2148 C   0  0  0  0  0  0  0  0  0  0  0  0
    4.7068    0.6899    1.7262 C   0  0  0  0  0  0  0  0  0  0  0  0
    4.2658    0.0404    3.9833 C   0  0  0  0  0  0  0  0  0  0  0  0
    3.3280    0.6649    1.4956 C   0  0  0  0  0  0  0  0  0  0  0  0
    2.8916   -0.0108    3.7401 C   0  0  0  0  0  0  0  0  0  0  0  0
    8.5309    1.0381    4.7332 C   0  0  0  0  0  0  0  0  0  0  0  0
    8.6166    2.1321    5.8079 C   0  0  0  0  0  0  0  0  0  0  0  0
    5.1886    0.4370    3.0027 C   0  0  0  0  0  0  0  0  0  0  0  0
    2.4168    0.2622    2.4723 C   0  0  0  0  0  0  0  0  0  0  0  0
    7.1146    0.5680    4.5365 C   0  0  0  0  0  0  0  0  0  0  0  0
    6.5588    0.6929    3.2821 N   0  0  0  0  0  0  0  0  0  0  0  0
    9.9980    2.4532    6.0089 O   0  0  0  0  0  0  0  0  0  0  0  0
    6.5401    0.0659    5.5078 O   0  0  0  0  0  0  0  0  0  0  0  0
    1.0657    0.2331    2.2750 O   0  0  0  0  0  0  0  0  0  0  0  0
  3  1  1  0
  6  4  2  0
  7  5  1  0
  9  2  1  0
  9  8  1  0
 10  4  1  0
 10  5  2  0
 11  6  1  0
 11  7  2  0
 12  8  1  0
 13 10  1  0
 13 12  1  0
 14  9  1  0
 15 12  2  0
 16  3  1  0
 16 11  1  0
M  END
>  <DRUGBANK_ID>  (1) 
DB13278

>  <COMMON_NAME>  (1) 
Bucetin

>  <CAS_NUMBER>  (1) 
1083-57-4

>  <UNII>  (1) 
6M7CVQ8PF8

$$$$
