
     RDKit          3D

 28 29  0  0  0  0  0  0  0  0999 V2000
   -0.8576    3.7186   -3.9823 C   0  0  0  0  0  0  0  0  0  0  0  0
   -1.9874    4.2016   -4.8712 C   0  0  0  0  0  0  0  0  0  0  0  0
   -1.6803    5.0287   -5.9137 N   0  0  0  0  0  0  0  0  0  0  0  0
   -3.1517    3.8692   -4.6389 O   0  0  0  0  0  0  0  0  0  0  0  0
   -2.7436    5.4709   -6.7262 O   0  0  0  0  0  0  0  0  0  0  0  0
    0.5679    4.0127   -4.4467 C   0  0  2  0  0  0  0  0  0  0  0  0
    1.6001    3.0537   -3.8502 C   0  0  0  0  0  0  0  0  0  0  0  0
    0.9649    5.4820   -4.1934 C   0  0  0  0  0  0  0  0  0  0  0  0
    2.2949    5.8769   -4.8634 C   0  0  0  0  0  0  0  0  0  0  0  0
    2.2669    5.6498   -6.3779 C   0  0  0  0  0  0  0  0  0  0  0  0
    2.6205    7.3387   -4.5699 C   0  0  0  0  0  0  0  0  0  0  0  0
    1.3156    2.5373   -2.6149 N   0  0  0  0  0  0  0  0  0  0  0  0
    2.6617    2.8393   -4.4415 O   0  0  0  0  0  0  0  0  0  0  0  0
    2.0884    1.4559   -1.9665 C   0  0  2  0  0  0  0  0  0  0  0  0
    1.3920    1.2584   -0.5866 C   0  0  0  0  0  0  0  0  0  0  0  0
    3.6008    1.7551   -1.8960 C   0  0  0  0  0  0  0  0  0  0  0  0
    4.4251    0.7576   -1.1414 C   0  0  0  0  0  0  0  0  0  0  0  0
    4.4302    0.6056    0.2740 C   0  0  0  0  0  0  0  0  0  0  0  0
    5.2812   -0.4389    0.6055 C   0  0  0  0  0  0  0  0  0  0  0  0
    5.8643   -0.8514   -0.5708 N   0  0  0  0  0  0  0  0  0  0  0  0
    5.3214   -0.1708   -1.6362 C   0  0  0  0  0  0  0  0  0  0  0  0
    3.7480    1.2618    1.3077 C   0  0  0  0  0  0  0  0  0  0  0  0
    3.7598    0.7634    2.6005 C   0  0  0  0  0  0  0  0  0  0  0  0
    4.6145   -0.2800    2.9122 C   0  0  0  0  0  0  0  0  0  0  0  0
    5.4304   -0.8704    1.9321 C   0  0  0  0  0  0  0  0  0  0  0  0
    1.0126    2.4240    0.0805 N   0  0  0  0  0  0  0  0  0  0  0  0
    1.2501    0.1458   -0.0840 O   0  0  0  0  0  0  0  0  0  0  0  0
    0.6098    2.4010    1.4794 C   0  0  0  0  0  0  0  0  0  0  0  0
  1  2  1  0
  2  3  1  0
  2  4  2  0
  3  5  1  0
  6  8  1  1
  6  7  1  0
  6  1  1  0
  7 12  1  0
  7 13  2  0
  8  9  1  0
  9 10  1  0
  9 11  1  0
 14 16  1  1
 14 15  1  0
 14 12  1  0
 15 26  1  0
 15 27  2  0
 16 17  1  0
 17 18  1  0
 17 21  2  0
 18 19  2  0
 18 22  1  0
 19 20  1  0
 19 25  1  0
 20 21  1  0
 22 23  2  0
 23 24  1  0
 24 25  2  0
 26 28  1  0
M  END
>  <DRUGBANK_ID>  (1) 
DB02255

>  <SECONDARY_ACCESSION_NUMBERS>  (1) 
EXPT01618

>  <COMMON_NAME>  (1) 
Ilomastat

>  <CAS_NUMBER>  (1) 
142880-36-2

>  <UNII>  (1) 
I0403ML141

>  <SYNONYMS>  (1) 
(R)-N(SUP 1)-HYDROXY-N-((S)-2-INDOL-3-YL-1-(METHYLCARBAMOYL)ETHYL)-2-ISOBUTYLSUCCINAMIDE; (S-(R*,S*))-N(SUP 4)-HYDROXY-N(SUP 1)-(1H-INDOL-3-YLMETHYL)-2-(METHYLAMINO)-2-OXOETHYL)-2-(2-METHYLOPROPYL)BUTANEDIAMIDE; Ilomastat

$$$$
