
     RDKit          3D

 30 34  0  0  0  0  0  0  0  0999 V2000
    6.1266    1.5578   -0.1967 N   0  0  0  0  0  0  0  0  0  0  0  0
    7.3217    0.8595   -0.5443 C   0  0  0  0  0  0  0  0  0  0  0  0
    7.3716   -0.5314   -0.3500 C   0  0  0  0  0  0  0  0  0  0  0  0
    5.1458    0.8854    0.5173 C   0  0  0  0  0  0  0  0  0  0  0  0
    8.4960    1.5284   -0.8845 C   0  0  0  0  0  0  0  0  0  0  0  0
    8.5995   -1.1868   -0.4742 C   0  0  0  0  0  0  0  0  0  0  0  0
    6.1201   -1.2646   -0.0939 C   0  0  0  0  0  0  0  0  0  0  0  0
    5.0119   -0.5706    0.2364 C   0  0  0  0  0  0  0  0  0  0  0  0
    9.7642   -0.4394   -0.4489 C   0  0  0  0  0  0  0  0  0  0  0  0
    9.7134    0.9306   -0.5810 C   0  0  0  0  0  0  0  0  0  0  0  0
    4.3349    1.4500    1.2315 O   0  0  0  0  0  0  0  0  0  0  0  0
    6.0302    3.0132   -0.1805 C   0  0  0  0  0  0  0  0  0  0  0  0
    6.5869    3.6198    1.1078 C   0  0  0  0  0  0  0  0  0  0  0  0
    8.0649    3.4560    1.1739 C   0  0  0  0  0  0  0  0  0  0  0  0
    8.7005    2.3584    2.0250 C   0  0  0  0  0  0  0  0  0  0  0  0
    8.8597    3.8032    2.3775 C   0  0  0  0  0  0  0  0  0  0  0  0
    3.4981    0.1895   -2.4078 S   0  0  0  0  0  0  0  0  0  0  0  0
    3.6832   -1.2414   -1.5793 N   0  0  0  0  0  0  0  0  0  0  0  0
    3.6613   -1.0064   -0.2954 C   0  0  0  0  0  0  0  0  0  0  0  0
    2.4191   -0.6478    0.2361 N   0  0  0  0  0  0  0  0  0  0  0  0
    2.0230    0.6901   -0.1389 C   0  0  0  0  0  0  0  0  0  0  0  0
    2.6156    1.3077   -1.2562 C   0  0  0  0  0  0  0  0  0  0  0  0
    2.7547    2.7088   -1.2446 C   0  0  0  0  0  0  0  0  0  0  0  0
    2.2316    3.4564   -0.1608 C   0  0  0  0  0  0  0  0  0  0  0  0
    1.4648    2.8305    0.8254 C   0  0  0  0  0  0  0  0  0  0  0  0
    1.2955    1.4459    0.7929 C   0  0  0  0  0  0  0  0  0  0  0  0
    2.6442   -0.0770   -3.5203 O   0  0  0  0  0  0  0  0  0  0  0  0
    4.8272    0.7733   -2.6146 O   0  0  0  0  0  0  0  0  0  0  0  0
   10.9492   -1.0394   -0.2961 F   0  0  0  0  0  0  0  0  0  0  0  0
    6.1809   -2.6085   -0.3961 O   0  0  0  0  0  0  0  0  0  0  0  0
  1  2  1  0
  1  4  1  0
  1 12  1  0
  2  3  2  0
  2  5  1  0
  3  6  1  0
  3  7  1  0
  4  8  1  0
  4 11  2  0
  5 10  2  0
  6  9  2  0
  7  8  2  0
  7 30  1  0
  8 19  1  0
  9 10  1  0
  9 29  1  0
 12 13  1  0
 13 14  1  0
 14 15  1  0
 14 16  1  0
 15 16  1  0
 17 18  1  0
 17 22  1  0
 17 27  2  0
 17 28  2  0
 18 19  2  0
 19 20  1  0
 20 21  1  0
 21 22  2  0
 21 26  1  0
 22 23  1  0
 23 24  2  0
 24 25  1  0
 25 26  2  0
M  END
>  <DRUGBANK_ID>  (1) 
DB08278

>  <COMMON_NAME>  (1) 
1-(2-cyclopropylethyl)-3-(1,1-dioxo-2H-1,2,4-benzothiadiazin-3-yl)-6-fluoro-4-hydroxy-2(1H)-quinolinone

>  <CAS_NUMBER>  (1) 
477931-14-9

$$$$
