
     RDKit          3D

 19 21  0  0  1  0  0  0  0  0999 V2000
    2.5128    0.0796    0.0104 C   0  0  0  0  0  0  0  0  0  0  0  0
    1.1182    0.1176   -0.4195 N   0  0  0  0  0  0  0  0  0  0  0  0
    0.5013   -1.1131    0.0622 C   0  0  0  0  0  0  0  0  0  0  0  0
   -0.9824   -1.1558   -0.2799 C   0  0  0  0  0  0  0  0  0  0  0  0
   -1.7695   -0.0040    0.1588 N   0  0  0  0  0  0  0  0  0  0  0  0
   -1.1208    1.2667   -0.1739 C   0  0  0  0  0  0  0  0  0  0  0  0
    0.3833    1.2483    0.2104 C   0  0  0  0  0  0  0  0  0  0  0  0
   -3.0096   -0.0332    0.7742 C   0  0  0  0  0  0  0  0  0  0  0  0
   -3.6004    1.0138    1.0739 O   0  0  0  0  0  0  0  0  0  0  0  0
   -3.7380   -1.3521    1.1113 C   0  0  1  0  0  0  0  0  0  0  0  0
   -3.9711   -2.2237   -0.1330 C   0  0  2  0  0  0  0  0  0  0  0  0
   -5.0069   -3.3228    0.0765 C   0  0  0  0  0  0  0  0  0  0  0  0
   -4.2685   -4.2896    1.0320 C   0  0  0  0  0  0  0  0  0  0  0  0
   -2.9300   -3.5806    1.2335 C   0  0  1  0  0  0  0  0  0  0  0  0
   -2.8275   -3.0964   -0.1309 O   0  0  0  0  0  0  0  0  0  0  0  0
   -3.1197   -2.3251    2.1274 C   0  0  1  0  0  0  0  0  0  0  0  0
   -1.9051   -1.8316    2.9079 C   0  0  0  0  0  0  0  0  0  0  0  0
   -1.9705   -1.8795    4.2495 O   0  0  0  0  0  0  0  0  0  0  0  0
   -0.8745   -1.3942    2.4313 O   0  0  0  0  0  0  0  0  0  0  0  0
  1  2  1  0
  2  3  1  0
  2  7  1  0
  3  4  1  0
  4  5  1  0
  5  6  1  0
  5  8  1  0
  6  7  1  0
  8  9  2  0
 10  8  1  6
 10 16  1  0
 11 10  1  0
 11 12  1  1
 11 15  1  0
 12 13  1  0
 14 13  1  6
 14 15  1  0
 14 16  1  0
 16 17  1  6
 17 18  1  0
 17 19  2  0
M  END
>  <DRUGBANK_ID>  (1) 
DB15412

>  <COMMON_NAME>  (1) 
LB-100

>  <CAS_NUMBER>  (1) 
1632032-53-1

>  <UNII>  (1) 
0C1JUU9S0L

$$$$
