
     RDKit          3D

 27 29  0  0  1  0  0  0  0  0999 V2000
    1.3879   -0.2152    0.0379 C   0  0  0  0  0  0  0  0  0  0  0  0
    0.5105   -1.3007    0.0319 C   0  0  0  0  0  0  0  0  0  0  0  0
   -0.8786   -1.1050    0.0199 C   0  0  0  0  0  0  0  0  0  0  0  0
   -1.3721    0.2038    0.0251 C   0  0  0  0  0  0  0  0  0  0  0  0
   -0.4930    1.2869    0.0692 C   0  0  0  0  0  0  0  0  0  0  0  0
    0.8936    1.0913    0.0212 C   0  0  0  0  0  0  0  0  0  0  0  0
    1.7632    2.2328   -0.2471 C   0  0  0  0  0  0  0  0  0  0  0  0
    2.4244    2.2865   -1.4773 C   0  0  0  0  0  0  0  0  0  0  0  0
    3.0751    3.4452   -1.8776 C   0  0  0  0  0  0  0  0  0  0  0  0
    3.2338    4.5068   -0.9902 C   0  0  0  0  0  0  0  0  0  0  0  0
    2.5444    4.4866    0.2183 C   0  0  0  0  0  0  0  0  0  0  0  0
    1.8289    3.3471    0.5979 C   0  0  0  0  0  0  0  0  0  0  0  0
    4.1214    5.5362   -1.1511 O   0  0  0  0  0  0  0  0  0  0  0  0
    4.9978    5.4534   -2.2768 C   0  0  0  0  0  0  0  0  0  0  0  0
    6.1115    4.3669   -2.2082 C   0  0  2  0  0  0  0  0  0  0  0  0
    6.6969    4.1775   -3.6133 C   0  0  0  0  0  0  0  0  0  0  0  0
    7.2265    2.7346   -3.6362 C   0  0  2  0  0  0  0  0  0  0  0  0
    6.2280    2.0631   -2.7314 C   0  0  0  0  0  0  0  0  0  0  0  0
    5.8946    0.8856   -2.7423 O   0  0  0  0  0  0  0  0  0  0  0  0
    5.7630    3.0101   -1.8551 N   0  0  0  0  0  0  0  0  0  0  0  0
    8.6300    2.6564   -3.0487 C   0  0  0  0  0  0  0  0  0  0  0  0
    9.1592    1.2497   -3.0278 C   0  0  0  0  0  0  0  0  0  0  0  0
   10.0717    0.8248   -3.7176 O   0  0  0  0  0  0  0  0  0  0  0  0
    8.5332    0.4670   -2.1353 O   0  0  0  0  0  0  0  0  0  0  0  0
   -1.7992   -2.2877    0.0416 C   0  0  0  0  0  0  0  0  0  0  0  0
   -3.0930   -2.1957    0.0556 N   0  0  0  0  0  0  0  0  0  0  0  0
   -1.3105   -3.5537    0.0633 N   0  0  0  0  0  0  0  0  0  0  0  0
  1  2  2  0
  1  6  1  0
  2  3  1  0
  3  4  2  0
  3 25  1  0
  4  5  1  0
  5  6  2  0
  6  7  1  0
  7  8  2  0
  7 12  1  0
  8  9  1  0
  9 10  2  0
 10 11  1  0
 10 13  1  0
 11 12  2  0
 13 14  1  0
 15 14  1  6
 15 16  1  0
 15 20  1  0
 16 17  1  0
 17 18  1  0
 17 21  1  1
 18 19  2  0
 18 20  1  0
 21 22  1  0
 22 23  2  0
 22 24  1  0
 25 26  2  0
 25 27  1  0
M  END
>  <DRUGBANK_ID>  (1) 
DB06472

>  <COMMON_NAME>  (1) 
Fradafiban

>  <CAS_NUMBER>  (1) 
148396-36-5

>  <UNII>  (1) 
DQ0H2B8YKN

>  <SYNONYMS>  (1) 
Fradafiban

$$$$
