
     RDKit          3D

 27 30  0  0  0  0  0  0  0  0999 V2000
    0.9266    0.5982   -0.0924 O   0  0  0  0  0  0  0  0  0  0  0  0
    2.1169    0.3686    0.0681 C   0  0  0  0  0  0  0  0  0  0  0  0
    2.9719   -0.1030   -1.1791 C   0  0  0  0  0  0  0  0  0  0  0  0
    4.0384    0.8481   -1.5836 N   0  0  0  0  0  0  0  0  0  0  0  0
    4.7217    1.3730   -0.3992 C   0  0  0  0  0  0  0  0  0  0  0  0
    3.9346    2.5624    0.2544 C   0  0  0  0  0  0  0  0  0  0  0  0
    3.7742    3.6467   -0.6370 O   0  0  0  0  0  0  0  0  0  0  0  0
    2.9419    3.1699   -1.7157 C   0  0  0  0  0  0  0  0  0  0  0  0
    3.6678    2.0122   -2.4236 C   0  0  0  0  0  0  0  0  0  0  0  0
    2.8554    0.5372    1.3343 N   0  0  0  0  0  0  0  0  0  0  0  0
    2.3922    1.2519    2.5074 C   0  0  0  0  0  0  0  0  0  0  0  0
    1.2179    0.8913    2.8837 C   0  0  0  0  0  0  0  0  0  0  0  0
    1.1005    0.6475    4.2307 C   0  0  0  0  0  0  0  0  0  0  0  0
    1.3640    1.4488    5.2596 C   0  0  0  0  0  0  0  0  0  0  0  0
    0.6288    1.2459    6.3929 O   0  0  0  0  0  0  0  0  0  0  0  0
   -0.7048    0.4743    6.4212 C   0  0  0  0  0  0  0  0  0  0  0  0
   -0.6290   -1.0487    6.7033 C   0  0  0  0  0  0  0  0  0  0  0  0
   -0.0877   -1.8373    5.5260 C   0  0  0  0  0  0  0  0  0  0  0  0
   -0.7725   -1.5315    4.2186 N   0  0  0  0  0  0  0  0  0  0  0  0
   -1.3931   -0.1442    3.9984 C   0  0  0  0  0  0  0  0  0  0  0  0
   -1.7439    0.6664    5.2756 C   0  0  0  0  0  0  0  0  0  0  0  0
   -0.0350   -2.2844    3.1435 C   0  0  0  0  0  0  0  0  0  0  0  0
    1.5377   -2.1242    2.9912 C   0  0  0  0  0  0  0  0  0  0  0  0
    1.2974   -2.1923    1.4752 C   0  0  0  0  0  0  0  0  0  0  0  0
   -0.2078   -1.8116    1.6875 C   0  0  0  0  0  0  0  0  0  0  0  0
    2.4482    2.1763    4.8755 C   0  0  0  0  0  0  0  0  0  0  0  0
    3.0479    2.0011    3.5149 C   0  0  0  0  0  0  0  0  0  0  0  0
  1  2  2  0
  2  3  1  0
  2 10  1  0
  3  4  1  0
  4  5  1  0
  4  9  1  0
  5  6  1  0
  6  7  1  0
  7  8  1  0
  8  9  1  0
 10 11  1  0
 11 12  2  0
 11 27  1  0
 12 13  1  0
 13 14  2  0
 14 15  1  0
 14 26  1  0
 15 16  1  0
 16 17  1  0
 16 21  1  0
 17 18  1  0
 18 19  1  0
 19 20  1  0
 19 22  1  0
 20 21  1  0
 22 23  1  0
 22 25  1  0
 23 24  1  0
 24 25  1  0
 26 27  2  0
M  END
>  <DRUGBANK_ID>  (1) 
DB14835

>  <COMMON_NAME>  (1) 
SUVN-G3031

>  <CAS_NUMBER>  (1) 
1394808-82-2

>  <UNII>  (1) 
65V47O9NOP

$$$$
