
     RDKit          3D

 16 16  0  0  0  0  0  0  0  0999 V2000
    2.8606    0.4496   -1.4634 Na  0  0  0  0  0 15  0  0  0  0  0  0
   -0.0310    1.0863   -0.4122 C   0  0  2  0  0  0  0  0  0  0  0  0
    0.9728    0.6238    0.6642 C   0  0  0  0  0  0  0  0  0  0  0  0
    1.0798   -0.8835    0.6141 C   0  0  0  0  0  0  0  0  0  0  0  0
   -0.1779   -1.1596   -0.3207 C   0  0  1  0  0  0  0  0  0  0  0  0
   -1.3534   -0.7587    0.5923 C   0  0  0  0  0  0  0  0  0  0  0  0
   -1.3006    0.7990    0.5358 C   0  0  0  0  0  0  0  0  0  0  0  0
   -0.1783   -0.0889   -1.4880 C   0  0  0  0  0  0  0  0  0  0  0  0
    0.0720    2.5366   -0.9253 C   0  0  0  0  0  0  0  0  0  0  0  0
    1.5902    2.9331   -1.8103 S   0  0  0  0  0  0  0  0  0  0  0  0
    1.6060    2.1052   -2.9933 O   0  0  0  0  0  0  0  0  0  0  0  0
    1.5225    4.3717   -2.0812 O   0  0  0  0  0  0  0  0  0  0  0  0
    2.6303    2.4683   -0.9043 O   0  0  0  0  0  0  0  0  0  0  0  0
    1.4167    1.2943    1.5875 O   0  0  0  0  0  0  0  0  0  0  0  0
    0.6953   -0.6214   -2.6734 C   0  0  0  0  0  0  0  0  0  0  0  0
   -1.3780    0.3111   -2.4186 C   0  0  0  0  0  0  0  0  0  0  0  0
  2  3  1  0
  2  7  1  0
  2  8  1  0
  2  9  1  6
  3  4  1  0
  3 14  2  0
  5  4  1  1
  5  6  1  0
  5  8  1  0
  6  7  1  0
  8 15  1  0
  8 16  1  0
  9 10  1  0
 10 11  2  0
 10 12  2  0
 10 13  1  0
M  CHG  2   1   1  13  -1
M  END
>  <DRUGBANK_ID>  (1) 
DB15950

>  <COMMON_NAME>  (1) 
Sodium camphorsulfonate

>  <CAS_NUMBER>  (1) 
21791-94-6

>  <UNII>  (1) 
CFN2D8XEIU

>  <SYNONYMS>  (1) 
Sodium camsylate

$$$$
