
     RDKit          3D

 26 28  0  0  0  0  0  0  0  0999 V2000
    1.0349   -0.0153    0.0289 C   0  0  0  0  0  0  0  0  0  0  0  0
    0.5453   -1.3923   -0.3486 C   0  0  0  0  0  0  0  0  0  0  0  0
   -1.0322   -3.7413    0.6993 C   0  0  0  0  0  0  0  0  0  0  0  0
    0.2794   -3.4772    2.7311 C   0  0  0  0  0  0  0  0  0  0  0  0
    2.2499    6.3932    3.8607 C   0  0  0  0  0  0  0  0  0  0  0  0
    3.6749    5.8236    2.0009 C   0  0  0  0  0  0  0  0  0  0  0  0
    3.2107    7.3004    4.3031 C   0  0  0  0  0  0  0  0  0  0  0  0
    4.6400    6.7194    2.4457 C   0  0  0  0  0  0  0  0  0  0  0  0
   -1.9354   -4.5444    1.3897 C   0  0  0  0  0  0  0  0  0  0  0  0
   -0.6287   -4.2845    3.4160 C   0  0  0  0  0  0  0  0  0  0  0  0
    1.2754    3.5275    3.4203 C   0  0  0  0  0  0  0  0  0  0  0  0
    1.8748    3.8872    0.9987 C   0  0  0  0  0  0  0  0  0  0  0  0
    0.5276    0.4485    1.4062 C   0  0  0  0  0  0  0  0  0  0  0  0
    0.4538    2.3229    2.9610 C   0  0  0  0  0  0  0  0  0  0  0  0
    0.9982    2.7179    0.6578 C   0  0  0  0  0  0  0  0  0  0  0  0
    0.0797   -3.2199    1.3692 C   0  0  0  0  0  0  0  0  0  0  0  0
    2.4695    5.6278    2.7076 C   0  0  0  0  0  0  0  0  0  0  0  0
    4.4022    7.4532    3.5980 C   0  0  0  0  0  0  0  0  0  0  0  0
   -1.7212   -4.8166    2.7369 C   0  0  0  0  0  0  0  0  0  0  0  0
    1.0680   -2.4094    0.6316 C   0  0  0  0  0  0  0  0  0  0  0  0
    1.4523    4.5684    2.2942 C   0  0  0  0  0  0  0  0  0  0  0  0
    5.7111    8.6651    4.2114 Br  0  0  0  0  0  0  0  0  0  0  0  0
   -2.5787   -5.6125    3.3872 F   0  0  0  0  0  0  0  0  0  0  0  0
    1.0710    1.7561    1.7572 N   0  0  0  0  0  0  0  0  0  0  0  0
    2.2683   -2.5457    0.8710 O   0  0  0  0  0  0  0  0  0  0  0  0
    0.1896    5.1979    2.0299 O   0  0  0  0  0  0  0  0  0  0  0  0
  2  1  1  0
  7  5  2  0
  8  6  1  0
  9  3  2  0
 10  4  1  0
 13  1  1  0
 14 11  1  0
 15 12  1  0
 16  3  1  0
 16  4  2  0
 17  5  1  0
 17  6  2  0
 18  7  1  0
 18  8  2  0
 19  9  1  0
 19 10  2  0
 20  2  1  0
 20 16  1  0
 21 11  1  0
 21 12  1  0
 21 17  1  0
 22 18  1  0
 23 19  1  0
 24 13  1  0
 24 14  1  0
 24 15  1  0
 25 20  2  0
 26 21  1  0
M  END
>  <DRUGBANK_ID>  (1) 
DB12401

>  <COMMON_NAME>  (1) 
Bromperidol

>  <CAS_NUMBER>  (1) 
10457-90-6

>  <UNII>  (1) 
LYH6F7I22E

>  <SYNONYMS>  (1) 
Bromperidol

$$$$
