
     RDKit          3D

 24 24  0  0  0  0  0  0  0  0999 V2000
    1.0000   -0.0787    0.0975 C   0  0  0  0  0  0  0  0  0  0  0  0
   -2.7912   -0.8897    6.5330 C   0  0  0  0  0  0  0  0  0  0  0  0
   -0.4150   -5.1421    0.7000 C   0  0  0  0  0  0  0  0  0  0  0  0
   -4.7479   -3.3397    4.9650 C   0  0  0  0  0  0  0  0  0  0  0  0
    3.9762   -4.0426   -1.3148 C   0  0  0  0  0  0  0  0  0  0  0  0
    4.3669   -4.3562    1.1410 C   0  0  0  0  0  0  0  0  0  0  0  0
   -0.7838   -1.2240    3.3181 C   0  0  0  0  0  0  0  0  0  0  0  0
    2.9073   -7.1362    0.7026 C   0  0  0  0  0  0  0  0  0  0  0  0
   -0.2692   -0.4692    2.1936 C   0  0  0  0  0  0  0  0  0  0  0  0
   -1.5254   -0.7660    4.3377 C   0  0  0  0  0  0  0  0  0  0  0  0
    1.4167   -6.8453    0.6228 C   0  0  0  0  0  0  0  0  0  0  0  0
    0.9733   -2.3611    1.1975 C   0  0  0  0  0  0  0  0  0  0  0  0
    1.6603   -2.9857    0.2306 C   0  0  0  0  0  0  0  0  0  0  0  0
   -1.7280   -2.9255    5.5358 C   0  0  0  0  0  0  0  0  0  0  0  0
    3.6472   -6.2859   -0.3152 C   0  0  0  0  0  0  0  0  0  0  0  0
   -2.2960   -3.8578    6.5578 C   0  0  0  0  0  0  0  0  0  0  0  0
    0.5291   -0.9684    1.2208 C   0  0  0  0  0  0  0  0  0  0  0  0
   -1.9672   -1.5938    5.4655 C   0  0  0  0  0  0  0  0  0  0  0  0
    1.0684   -5.3740    0.5204 C   0  0  0  0  0  0  0  0  0  0  0  0
   -4.2399   -4.7149    5.2456 C   0  0  0  0  0  0  0  0  0  0  0  0
    1.9969   -4.4138    0.2707 C   0  0  0  0  0  0  0  0  0  0  0  0
    3.4696   -4.7659   -0.0461 C   0  0  0  0  0  0  0  0  0  0  0  0
   -4.8772   -5.6911    4.8365 O   0  0  0  0  0  0  0  0  0  0  0  0
   -3.0806   -4.8934    5.9193 O   0  0  0  0  0  0  0  0  0  0  0  0
  9  7  1  0
 10  7  2  0
 11  8  1  0
 13 12  2  0
 15  8  1  0
 16 14  1  0
 17  1  1  0
 17  9  2  0
 17 12  1  0
 18  2  1  0
 18 10  1  0
 18 14  2  0
 19  3  1  0
 19 11  1  0
 20  4  1  0
 21 13  1  0
 21 19  2  0
 22  5  1  0
 22  6  1  0
 22 15  1  0
 22 21  1  0
 23 20  2  0
 24 16  1  0
 24 20  1  0
M  END
>  <DRUGBANK_ID>  (1) 
DB12112

>  <COMMON_NAME>  (1) 
Zuretinol acetate

>  <CAS_NUMBER>  (1) 
29584-22-3

>  <UNII>  (1) 
2K3YP54BYU

>  <SYNONYMS>  (1) 
Zuretinol acetate

$$$$
