1580
     RDKit          3D

 19 19  0  0  1  0  0  0  0  0999 V2000
    1.1465   -0.2221    0.4422 O   0  0  0  0  0  0  0  0  0  0  0  0
    1.9442    2.1450    2.0908 O   0  0  0  0  0  0  0  0  0  0  0  0
    2.7325    2.2713   -0.9189 O   0  0  0  0  0  0  0  0  0  0  0  0
   -1.6145    3.0053    1.4612 N   0  0  0  0  0  0  0  0  0  0  0  0
   -0.1966    3.1448    1.7975 C   0  0  0  0  0  0  0  0  0  0  0  0
    0.5670    1.7954    1.9937 C   0  0  0  0  0  0  0  0  0  0  0  0
   -2.2987    4.2991    1.3647 C   0  0  0  0  0  0  0  0  0  0  0  0
    0.2247    0.7708    0.8893 C   0  0  0  0  0  0  0  0  0  0  0  0
   -1.9185    5.0966    0.1114 C   0  0  0  0  0  0  0  0  0  0  0  0
   -3.7922    3.9835    1.3382 C   0  0  0  0  0  0  0  0  0  0  0  0
    2.4263   -0.0424    0.0031 C   0  0  0  0  0  0  0  0  0  0  0  0
    3.1380    1.1086   -0.3307 C   0  0  0  0  0  0  0  0  0  0  0  0
    3.1447   -1.2504    0.0764 C   0  0  0  0  0  0  0  0  0  0  0  0
    4.5259    1.1128   -0.0927 C   0  0  0  0  0  0  0  0  0  0  0  0
    4.5357   -1.2644    0.1733 C   0  0  0  0  0  0  0  0  0  0  0  0
    5.2220   -0.0618    0.1852 C   0  0  0  0  0  0  0  0  0  0  0  0
    1.3804    2.4698   -1.2895 C   0  0  0  0  0  0  0  0  0  0  0  0
    0.8185    1.5165   -2.3289 C   0  0  0  0  0  0  0  0  0  0  0  0
   -0.0393    0.4884   -2.2704 C   0  0  0  0  0  0  0  0  0  0  0  0
  1  8  1  0
  1 11  1  0
  2  6  1  0
  3 12  1  0
  3 17  1  0
  4  5  1  0
  4  7  1  0
  5  6  1  0
  6  8  1  0
  7  9  1  0
  7 10  1  0
 11 12  2  0
 11 13  1  0
 12 14  1  0
 13 15  2  0
 14 16  2  0
 15 16  1  0
 17 18  1  0
 18 19  2  0
M  END
>  <DRUGBANK_ID>  (1) 
DB01580

>  <COMMON_NAME>  (1) 
Oxprenolol

>  <CAS_NUMBER>  (1) 
6452-71-7

>  <UNII>  (1) 
519MXN9YZR

>  <SYNONYMS>  (1) 
Oxprenolol; Oxprenololum

$$$$
