
     RDKit          3D

 10  9  0  0  0  0  0  0  0  0999 V2000
    0.9785    0.0035   -0.0824 C   0  0  0  0  0  0  0  0  0  0  0  0
    4.1360    5.2990    0.6565 C   0  0  0  0  0  0  0  0  0  0  0  0
    1.7154    2.4611   -1.3000 C   0  0  0  0  0  0  0  0  0  0  0  0
    2.0644    3.6235   -1.8750 C   0  0  0  0  0  0  0  0  0  0  0  0
    0.8618    1.4985   -2.0334 C   0  0  0  0  0  0  0  0  0  0  0  0
    2.9107    4.6612   -1.2426 C   0  0  0  0  0  0  0  0  0  0  0  0
    0.4564    1.7313   -3.1667 O   0  0  0  0  0  0  0  0  0  0  0  0
    3.1937    5.7020   -1.8206 O   0  0  0  0  0  0  0  0  0  0  0  0
    0.5391    0.3394   -1.4061 O   0  0  0  0  0  0  0  0  0  0  0  0
    3.3123    4.3187    0.0073 O   0  0  0  0  0  0  0  0  0  0  0  0
  4  3  2  0
  5  3  1  0
  6  4  1  0
  7  5  2  0
  8  6  2  0
  9  1  1  0
  9  5  1  0
 10  2  1  0
 10  6  1  0
M  END
>  <DRUGBANK_ID>  (1) 
DB08908

>  <COMMON_NAME>  (1) 
Dimethyl fumarate

>  <CAS_NUMBER>  (1) 
624-49-7

>  <UNII>  (1) 
FO2303MNI2

>  <SYNONYMS>  (1) 
(E)-But-2-enedioic acid dimethyl ester; 1,2-bis(methoxycarbonyl)-trans-ethylene; Dimethyl fumarate; Dimethyl trans-ethylenedicarboxylate; Dimethylfumarat; Fumaric acid, dimethyl ester; trans-1,2-Ethylenedicarboxylic acid dimethyl ester; trans-Butenedioic acid dimethyl ester

$$$$
