
     RDKit          3D

 22 24  0  0  1  0  0  0  0  0999 V2000
    1.0758   -0.0409   -0.0134 O   0  0  0  0  0  0  0  0  0  0  0  0
    0.6209   -1.3433   -0.3736 C   0  0  2  0  0  0  0  0  0  0  0  0
   -0.7347   -1.6740    0.2305 C   0  0  2  0  0  0  0  0  0  0  0  0
   -1.2090   -2.9637   -0.2413 O   0  0  0  0  0  0  0  0  0  0  0  0
   -0.3091   -3.9914   -0.0979 C   0  0  0  0  0  0  0  0  0  0  0  0
   -0.8094   -5.2953   -0.2352 C   0  0  0  0  0  0  0  0  0  0  0  0
    0.0622   -6.3774   -0.1101 C   0  0  0  0  0  0  0  0  0  0  0  0
   -0.3598   -7.6704   -0.2295 O   0  0  0  0  0  0  0  0  0  0  0  0
    1.4186   -6.1788    0.1396 C   0  0  0  0  0  0  0  0  0  0  0  0
    1.9139   -4.8815    0.2624 C   0  0  0  0  0  0  0  0  0  0  0  0
    3.2482   -4.6793    0.4607 O   0  0  0  0  0  0  0  0  0  0  0  0
    1.0558   -3.7852    0.1419 C   0  0  0  0  0  0  0  0  0  0  0  0
    1.5461   -2.3891    0.2146 C   0  0  0  0  0  0  0  0  0  0  0  0
    2.6267   -2.0687    0.7118 O   0  0  0  0  0  0  0  0  0  0  0  0
   -1.8581   -0.6939   -0.0448 C   0  0  0  0  0  0  0  0  0  0  0  0
   -2.1611   -0.1628   -1.3111 C   0  0  0  0  0  0  0  0  0  0  0  0
   -3.4133    0.4293   -1.5422 C   0  0  0  0  0  0  0  0  0  0  0  0
   -4.3362    0.5076   -0.5005 C   0  0  0  0  0  0  0  0  0  0  0  0
   -5.6140    0.9574   -0.6840 O   0  0  0  0  0  0  0  0  0  0  0  0
   -3.9822    0.0937    0.7773 C   0  0  0  0  0  0  0  0  0  0  0  0
   -4.8638    0.1459    1.8169 O   0  0  0  0  0  0  0  0  0  0  0  0
   -2.7438   -0.4639    1.0166 C   0  0  0  0  0  0  0  0  0  0  0  0
  2  1  1  1
  2  3  1  0
  2 13  1  0
  3  4  1  0
  3 15  1  6
  4  5  1  0
  5  6  1  0
  5 12  2  0
  6  7  2  0
  7  8  1  0
  7  9  1  0
  9 10  2  0
 10 11  1  0
 10 12  1  0
 12 13  1  0
 13 14  2  0
 15 16  2  0
 15 22  1  0
 16 17  1  0
 17 18  2  0
 18 19  1  0
 18 20  1  0
 20 21  1  0
 20 22  2  0
M  END
>  <DRUGBANK_ID>  (1) 
DB02224

>  <SECONDARY_ACCESSION_NUMBERS>  (1) 
EXPT01185

>  <COMMON_NAME>  (1) 
Taxifolin

>  <CAS_NUMBER>  (1) 
480-18-2

>  <UNII>  (1) 
9SOB9E3987

>  <SYNONYMS>  (1) 
(+)-(2R,3R)-dihydroquercetin; (+)-dihydroquercetin; (+)-taxifolin; (2R,3R)-(+)-taxifolin; (2R,3R)-3,3',4',5,7-pentahydroxyflavanone; (2R,3R)-dihydroquercetin; Dihydroquercetin

$$$$
