
     RDKit          3D

 25 27  0  0  0  0  0  0  0  0999 V2000
   -2.9005   -2.4093    0.5967 C   0  0  0  0  0  0  0  0  0  0  0  0
   -3.0144   -1.1220    0.1409 C   0  0  0  0  0  0  0  0  0  0  0  0
   -3.7915   -0.1361    1.3543 S   0  0  0  0  0  0  0  0  0  0  0  0
   -3.3143   -1.2487    2.6059 C   0  0  0  0  0  0  0  0  0  0  0  0
   -3.3293   -2.4935    1.9660 C   0  0  0  0  0  0  0  0  0  0  0  0
   -2.8971   -0.8290    3.9881 C   0  0  0  0  0  0  0  0  0  0  0  0
   -2.8813    0.3677    4.3785 O   0  0  0  0  0  0  0  0  0  0  0  0
   -2.4582   -1.7516    4.9507 N   0  0  0  0  0  0  0  0  0  0  0  0
   -2.2425   -3.1190    4.7163 C   0  0  0  0  0  0  0  0  0  0  0  0
   -3.1720   -4.0511    5.2503 C   0  0  0  0  0  0  0  0  0  0  0  0
   -3.1797   -5.3752    4.8100 C   0  0  0  0  0  0  0  0  0  0  0  0
   -2.2411   -5.7699    3.8613 C   0  0  0  0  0  0  0  0  0  0  0  0
   -1.2832   -4.8674    3.3631 C   0  0  0  0  0  0  0  0  0  0  0  0
   -1.2312   -3.5237    3.8016 C   0  0  0  0  0  0  0  0  0  0  0  0
   -0.1364   -2.5731    3.2342 C   0  0  0  0  0  0  0  0  0  0  0  0
   -0.6563   -1.4821    2.4119 N   0  0  0  0  0  0  0  0  0  0  0  0
    0.0680   -0.2904    1.9921 C   0  0  1  0  0  0  0  0  0  0  0  0
   -0.7916    0.7324    1.1702 C   0  0  0  0  0  0  0  0  0  0  0  0
   -0.0760    1.9865    0.7320 C   0  0  0  0  0  0  0  0  0  0  0  0
    0.4237    2.6675    1.9866 C   0  0  1  0  0  0  0  0  0  0  0  0
    1.2716    1.7012    2.8163 C   0  0  0  0  0  0  0  0  0  0  0  0
    0.5349    0.4428    3.2274 C   0  0  0  0  0  0  0  0  0  0  0  0
    1.2143    3.7797    1.6090 O   0  0  0  0  0  0  0  0  0  0  0  0
   -2.2713   -7.5507    3.2178 Br  0  0  0  0  0  0  0  0  0  0  0  0
   -4.5665   -3.5249    6.4375 Br  0  0  0  0  0  0  0  0  0  0  0  0
  1  2  2  0
  1  5  1  0
  2  3  1  0
  3  4  1  0
  4  5  2  0
  4  6  1  0
  6  7  2  0
  6  8  1  0
  8  9  1  0
  9 10  2  0
  9 14  1  0
 10 11  1  0
 10 25  1  0
 11 12  2  0
 12 13  1  0
 12 24  1  0
 13 14  2  0
 14 15  1  0
 15 16  1  0
 17 18  1  0
 17 22  1  0
 17 16  1  1
 18 19  1  0
 19 20  1  0
 20 21  1  0
 20 23  1  6
 21 22  1  0
M  END
>  <DRUGBANK_ID>  (1) 
DB13239

>  <COMMON_NAME>  (1) 
Neltenexine

>  <CAS_NUMBER>  (1) 
99453-84-6

>  <UNII>  (1) 
U942DGM90X

>  <SYNONYMS>  (1) 
Neltenexine

$$$$
