NPZ
     RDKit          3D

 21 24  0  0  0  0  0  0  0  0999 V2000
   -0.9307   -1.4531    0.0129 C   0  0  0  0  0  0  0  0  0  0  0  0
   -1.0033   -2.8250    0.0119 N   0  0  0  0  0  0  0  0  0  0  0  0
    0.3022   -0.7811    0.0620 C   0  0  0  0  0  0  0  0  0  0  0  0
   -2.0794   -0.7350   -0.0093 N   0  0  0  0  0  0  0  0  0  0  0  0
   -2.0034    0.6135   -0.0061 C   0  0  0  0  0  0  0  0  0  0  0  0
   -0.8868    1.3743   -0.0056 N   0  0  0  0  0  0  0  0  0  0  0  0
    0.2393    0.6113    0.0217 C   0  0  0  0  0  0  0  0  0  0  0  0
    1.5569    1.0223    0.0200 N   0  0  0  0  0  0  0  0  0  0  0  0
    2.0147    2.4142    0.0007 C   0  0  0  0  0  0  0  0  0  0  0  0
    2.4689   -0.0485    0.0495 N   0  0  0  0  0  0  0  0  0  0  0  0
    1.7270   -1.1975    0.1432 C   0  0  0  0  0  0  0  0  0  0  0  0
    2.2428   -2.7332   -0.0834 C   0  0  0  0  0  0  0  0  0  0  0  0
    3.1368   -3.9293    0.6466 C   0  0  0  0  0  0  0  0  0  0  0  0
    1.6969   -3.2573   -1.2731 C   0  0  0  0  0  0  0  0  0  0  0  0
    1.8925   -4.5540   -1.5842 C   0  0  0  0  0  0  0  0  0  0  0  0
    2.6720   -4.9820   -0.5613 C   0  0  0  0  0  0  0  0  0  0  0  0
    3.4450   -5.5677   -0.0553 C   0  0  0  0  0  0  0  0  0  0  0  0
    3.2157   -6.0826    0.0455 C   0  0  0  0  0  0  0  0  0  0  0  0
    3.1968   -7.3353   -0.8643 C   0  0  0  0  0  0  0  0  0  0  0  0
    3.7529   -8.5031   -0.9659 C   0  0  0  0  0  0  0  0  0  0  0  0
    3.4388   -7.3773   -1.2541 C   0  0  0  0  0  0  0  0  0  0  0  0
  1  3  2  0
  2  1  1  0
  3  7  1  0
  3 11  1  0
  4  5  2  0
  4  1  1  0
  5  6  1  0
  6  7  2  0
  7  8  1  0
  8  9  1  0
  8 10  1  0
 11 12  1  0
 11 10  2  0
 12 13  2  0
 14 12  1  0
 15 14  2  0
 15 16  1  0
 16 17  2  0
 17 13  1  0
 17 21  1  0
 18 16  1  0
 18 19  2  0
 19 20  1  0
 20 21  2  0
M  END
>  <DRUGBANK_ID>  (1) 
DB08300

>  <COMMON_NAME>  (1) 
1-methyl-3-naphthalen-2-yl-1H-pyrazolo[3,4-d]pyrimidin-4-amine

$$$$
