
     RDKit          3D

 40 44  0  0  0  0  0  0  0  0999 V2000
    1.3549   -6.5712   -1.0219 C   0  0  0  0  0  0  0  0  0  0  0  0
    0.8442   -7.0874   -2.2232 C   0  0  0  0  0  0  0  0  0  0  0  0
   -0.2917   -6.5586   -2.8425 C   0  0  0  0  0  0  0  0  0  0  0  0
   -0.9420   -5.5312   -2.2448 C   0  0  0  0  0  0  0  0  0  0  0  0
   -0.3792   -5.0132   -1.1128 C   0  0  0  0  0  0  0  0  0  0  0  0
    0.7188   -5.5065   -0.4363 C   0  0  0  0  0  0  0  0  0  0  0  0
    1.0505   -4.9876    0.9286 C   0  0  0  0  0  0  0  0  0  0  0  0
   -2.8925   -1.4752    5.3290 C   0  0  0  0  0  0  0  0  0  0  0  0
   -4.1867   -1.1152    5.6646 C   0  0  0  0  0  0  0  0  0  0  0  0
   -5.1189   -0.8099    4.6704 C   0  0  0  0  0  0  0  0  0  0  0  0
   -4.7358   -0.7575    3.3429 C   0  0  0  0  0  0  0  0  0  0  0  0
   -3.4158   -1.0059    3.0295 C   0  0  0  0  0  0  0  0  0  0  0  0
   -2.5022   -1.4374    3.9999 C   0  0  0  0  0  0  0  0  0  0  0  0
   -1.1122   -1.8545    3.6522 C   0  0  0  0  0  0  0  0  0  0  0  0
    0.5430   -3.5336    1.1738 C   0  0  2  0  0  0  0  0  0  0  0  0
    1.2194   -2.9697    2.4463 C   0  0  2  0  0  0  0  0  0  0  0  0
    2.6465   -2.9733    2.3474 O   0  0  0  0  0  0  0  0  0  0  0  0
    0.6849   -3.7187    3.6856 C   0  0  1  0  0  0  0  0  0  0  0  0
    1.4903   -3.4644    4.8433 O   0  0  0  0  0  0  0  0  0  0  0  0
   -0.8116   -3.3412    3.9594 C   0  0  2  0  0  0  0  0  0  0  0  0
   -2.7641   -3.0562   -0.6053 C   0  0  0  0  0  0  0  0  0  0  0  0
   -3.7231   -4.0030   -0.2217 C   0  0  0  0  0  0  0  0  0  0  0  0
   -4.4982   -4.6615   -1.1620 C   0  0  0  0  0  0  0  0  0  0  0  0
   -4.4250   -4.2796   -2.4953 C   0  0  0  0  0  0  0  0  0  0  0  0
   -3.6056   -3.2156   -2.8929 C   0  0  0  0  0  0  0  0  0  0  0  0
   -2.7159   -2.6635   -1.9569 C   0  0  0  0  0  0  0  0  0  0  0  0
   -1.9282   -7.9881    5.9058 C   0  0  0  0  0  0  0  0  0  0  0  0
   -1.1116   -7.4075    6.8810 C   0  0  0  0  0  0  0  0  0  0  0  0
   -1.0853   -6.0302    7.0609 C   0  0  0  0  0  0  0  0  0  0  0  0
   -1.8753   -5.2278    6.2591 C   0  0  0  0  0  0  0  0  0  0  0  0
   -2.5392   -5.7672    5.1569 C   0  0  0  0  0  0  0  0  0  0  0  0
   -2.6974   -7.1571    5.0876 C   0  0  0  0  0  0  0  0  0  0  0  0
   -1.7477   -4.2738    3.3020 N   0  0  0  0  0  0  0  0  0  0  0  0
   -1.5957   -4.5185    1.9636 C   0  0  0  0  0  0  0  0  0  0  0  0
   -0.9581   -3.5019    1.2582 N   0  0  0  0  0  0  0  0  0  0  0  0
   -1.9780   -5.5785    1.4475 O   0  0  0  0  0  0  0  0  0  0  0  0
   -2.9213   -4.8732    4.0035 C   0  0  0  0  0  0  0  0  0  0  0  0
   -1.7637   -2.5490    0.4255 C   0  0  0  0  0  0  0  0  0  0  0  0
   -2.0940   -9.3773    5.8769 N   0  0  0  0  0  0  0  0  0  0  0  0
   -3.4732   -2.9307   -4.2597 N   0  0  0  0  0  0  0  0  0  0  0  0
  1  2  2  0
  2  3  1  0
  3  4  2  0
  4  5  1  0
  5  6  2  0
  6  1  1  0
  6  7  1  0
  8  9  2  0
  9 10  1  0
 10 11  2  0
 11 12  1  0
 12 13  2  0
 13  8  1  0
 13 14  1  0
 15 35  1  0
 15  7  1  1
 16 17  1  6
 16 15  1  0
 16 18  1  0
 18 20  1  0
 18 19  1  1
 20 14  1  6
 20 33  1  0
 21 22  2  0
 22 23  1  0
 23 24  2  0
 24 25  1  0
 25 26  2  0
 25 40  1  0
 26 21  1  0
 27 28  2  0
 27 39  1  0
 28 29  1  0
 29 30  2  0
 30 31  1  0
 31 32  2  0
 32 27  1  0
 33 34  1  0
 33 37  1  0
 34 35  1  0
 34 36  2  0
 35 38  1  0
 37 31  1  0
 38 21  1  0
M  END
>  <DRUGBANK_ID>  (1) 
DB02102

>  <SECONDARY_ACCESSION_NUMBERS>  (1) 
EXPT00197; DB02886

>  <COMMON_NAME>  (1) 
Mozenavir

>  <CAS_NUMBER>  (1) 
174391-92-5

>  <UNII>  (1) 
64OO8946ER

>  <SYNONYMS>  (1) 
Mozenavir; Moz√©navir; Mozenavirum

$$$$
