
     RDKit          3D

 37 39  0  0  0  0  0  0  0  0999 V2000
    0.5791   -0.2412    0.3958 S   0  0  0  0  0  0  0  0  0  0  0  0
   -0.6814    5.6010    2.5706 S   0  0  0  0  0  0  0  0  0  0  0  0
    1.0443    2.6302    0.3118 C   0  0  0  0  0  0  0  0  0  0  0  0
    0.2788    1.5087    0.7439 C   0  0  0  0  0  0  0  0  0  0  0  0
    2.3194    2.6159   -0.5913 C   0  0  0  0  0  0  0  0  0  0  0  0
    2.9781    3.7118   -1.0782 C   0  0  0  0  0  0  0  0  0  0  0  0
   -0.4673    4.0051    1.7962 C   0  0  0  0  0  0  0  0  0  0  0  0
    0.5718    3.8637    0.8693 C   0  0  0  0  0  0  0  0  0  0  0  0
    5.6915    6.7766   -1.0427 N   0  0  0  0  0  0  0  0  0  0  0  0
    4.7673    5.8949   -1.2493 C   0  0  0  0  0  0  0  0  0  0  0  0
    4.1561    3.6187   -1.9414 C   0  0  0  0  0  0  0  0  0  0  0  0
    2.5376    5.0678   -0.8818 C   0  0  0  0  0  0  0  0  0  0  0  0
    3.3731    6.0955   -0.7942 C   0  0  0  0  0  0  0  0  0  0  0  0
    4.9986    4.6463   -2.0522 C   0  0  0  0  0  0  0  0  0  0  0  0
    0.0076   -0.5384   -1.0978 O   0  0  0  0  0  0  0  0  0  0  0  0
    0.8010    5.9130    3.1514 O   0  0  0  0  0  0  0  0  0  0  0  0
   -0.8000    1.6760    1.6571 C   0  0  0  0  0  0  0  0  0  0  0  0
   -0.2827   -1.0240    1.2659 O   0  0  0  0  0  0  0  0  0  0  0  0
    1.9877   -0.4665    0.5137 O   0  0  0  0  0  0  0  0  0  0  0  0
   -0.9497    6.5563    1.5292 O   0  0  0  0  0  0  0  0  0  0  0  0
   -1.5392    5.4173    3.7266 O   0  0  0  0  0  0  0  0  0  0  0  0
    2.9680    1.3623   -1.0845 C   0  0  0  0  0  0  0  0  0  0  0  0
    3.8934   -1.2191   -1.9180 C   0  0  0  0  0  0  0  0  0  0  0  0
   -1.1844    2.9066    2.1758 C   0  0  0  0  0  0  0  0  0  0  0  0
    4.2393   -2.5517   -2.1324 N   0  0  0  0  0  0  0  0  0  0  0  0
    2.3229    0.6612   -2.0914 C   0  0  0  0  0  0  0  0  0  0  0  0
    4.1981    0.8743   -0.6446 C   0  0  0  0  0  0  0  0  0  0  0  0
    4.6818   -0.3453   -1.1441 C   0  0  0  0  0  0  0  0  0  0  0  0
    2.7050   -0.6548   -2.4032 C   0  0  0  0  0  0  0  0  0  0  0  0
    5.4289    8.0743   -0.3210 C   0  0  0  0  0  0  0  0  0  0  0  0
    7.0832    6.5586   -1.5671 C   0  0  0  0  0  0  0  0  0  0  0  0
    5.5703   -3.0622   -1.7644 C   0  0  0  0  0  0  0  0  0  0  0  0
    3.3338   -3.5082   -2.8067 C   0  0  0  0  0  0  0  0  0  0  0  0
    7.7205    5.3547   -0.8815 C   0  0  0  0  0  0  0  0  0  0  0  0
    6.2734    8.1650    0.9262 C   0  0  0  0  0  0  0  0  0  0  0  0
    5.5027   -4.2336   -0.7992 C   0  0  0  0  0  0  0  0  0  0  0  0
    2.1082   -3.8599   -1.9645 C   0  0  0  0  0  0  0  0  0  0  0  0
  2  7  1  0
  3  4  2  0
  4  1  1  0
  5  3  1  0
  6  5  2  3
  7  8  2  0
  8  3  1  0
  9 10  2  3
 10 13  1  0
 10 14  1  0
 11  6  1  0
 12  6  1  0
 13 12  2  0
 14 11  2  0
 15  1  1  0
 16  2  1  0
 17  4  1  0
 18  1  2  0
 19  1  2  0
 20  2  2  0
 21  2  2  0
 22  5  1  0
 23 29  2  0
 23 28  1  0
 24 17  2  0
 24  7  1  0
 25 23  1  0
 26 22  2  0
 27 22  1  0
 28 27  2  0
 29 26  1  0
 30  9  1  0
 31  9  1  0
 32 25  1  0
 33 25  1  0
 34 31  1  0
 35 30  1  0
 36 32  1  0
 37 33  1  0
M  CHG  1   9   1
M  END
>  <DRUGBANK_ID>  (1) 
DB09136

>  <COMMON_NAME>  (1) 
Isosulfan blue

>  <CAS_NUMBER>  (1) 
748080-29-7

>  <UNII>  (1) 
NS6Q291771

>  <SYNONYMS>  (1) 
Isosulfan blue inner salt

$$$$
