
     RDKit          3D

 13 13  0  0  1  0  0  0  0  0999 V2000
    2.7365   -0.3894   -0.3245 O   0  0  0  0  0  0  0  0  0  0  0  0
    1.4484   -0.4278    0.2683 C   0  0  2  0  0  0  0  0  0  0  0  0
    0.8260   -1.6108   -0.1928 O   0  0  0  0  0  0  0  0  0  0  0  0
   -0.5131   -1.7781    0.2521 C   0  0  1  0  0  0  0  0  0  0  0  0
   -1.4046   -0.6494   -0.2518 C   0  0  1  0  0  0  0  0  0  0  0  0
   -2.7092   -0.8029    0.3382 O   0  0  0  0  0  0  0  0  0  0  0  0
   -0.8230    0.7209    0.1134 C   0  0  2  0  0  0  0  0  0  0  0  0
   -1.5361    1.7440   -0.5971 O   0  0  0  0  0  0  0  0  0  0  0  0
    0.6847    0.8494   -0.1346 C   0  0  1  0  0  0  0  0  0  0  0  0
    1.1804    1.9852    0.6025 O   0  0  0  0  0  0  0  0  0  0  0  0
   -1.1221   -3.0834   -0.2799 C   0  0  0  0  0  0  0  0  0  0  0  0
   -2.1327   -3.5601    0.4902 O   0  0  0  0  0  0  0  0  0  0  0  0
   -0.7628   -3.6629   -1.2983 O   0  0  0  0  0  0  0  0  0  0  0  0
  2  1  1  6
  2  3  1  0
  2  9  1  0
  3  4  1  0
  4  5  1  0
  4 11  1  6
  5  6  1  1
  5  7  1  0
  7  8  1  6
  7  9  1  0
  9 10  1  1
 11 12  1  0
 11 13  2  0
M  END
>  <DRUGBANK_ID>  (1) 
DB03156

>  <SECONDARY_ACCESSION_NUMBERS>  (1) 
EXPT01175

>  <COMMON_NAME>  (1) 
beta-D-glucuronic acid

>  <CAS_NUMBER>  (1) 
23018-83-9

>  <UNII>  (1) 
00A9JB14O6

>  <SYNONYMS>  (1) 
beta-D-Glucopyranuronic acid; GlcAb; GlcAβ; β-D-glucopyranuronic acid

$$$$
