
     RDKit          3D

 30 30  0  0  1  0  0  0  0  0999 V2000
    1.4605    1.3748   -0.1131 Cl  0  0  0  0  0  0  0  0  0  0  0  0
    1.3830   -1.8718    0.0488 Cl  0  0  0  0  0  0  0  0  0  0  0  0
   -2.5059    5.5855   -1.1022 O   0  0  0  0  0  0  0  0  0  0  0  0
   -2.3961    7.4412   -2.8643 O   0  0  0  0  0  0  0  0  0  0  0  0
   -4.8815    0.7109   -0.0289 O   0  0  0  0  0  0  0  0  0  0  0  0
   -0.5798    3.1240    3.6115 O   0  0  0  0  0  0  0  0  0  0  0  0
   -1.4210    1.7782    2.0991 O   0  0  0  0  0  0  0  0  0  0  0  0
   -2.7146    3.8045   -2.6182 N   0  0  0  0  0  0  0  0  0  0  0  0
   -3.9102    2.7049   -0.0044 N   0  0  0  0  0  0  0  0  0  0  0  0
   -2.7752    2.3798   -2.8713 C   0  0  0  0  0  0  0  0  0  0  0  0
   -2.8456    3.6528   -0.0432 C   0  0  1  0  0  0  0  0  0  0  0  0
   -4.0469    1.9427   -3.5927 C   0  0  0  0  0  0  0  0  0  0  0  0
   -2.5608    4.5880   -3.8491 C   0  0  0  0  0  0  0  0  0  0  0  0
   -2.7244    4.3996   -1.3420 C   0  0  0  0  0  0  0  0  0  0  0  0
   -2.6960    4.5569    1.1975 C   0  0  0  0  0  0  0  0  0  0  0  0
   -4.0755    2.3003   -5.0820 C   0  0  0  0  0  0  0  0  0  0  0  0
   -3.6427    5.6333   -4.0599 C   0  0  0  0  0  0  0  0  0  0  0  0
   -2.7981    1.8420   -5.8088 C   0  0  0  0  0  0  0  0  0  0  0  0
   -2.6613    3.7866    2.5129 C   0  0  0  0  0  0  0  0  0  0  0  0
   -3.6323    6.7160   -3.0111 C   0  0  0  0  0  0  0  0  0  0  0  0
   -2.7902    0.3332   -5.8677 C   0  0  0  0  0  0  0  0  0  0  0  0
   -3.8158    1.3281   -0.0254 C   0  0  0  0  0  0  0  0  0  0  0  0
   -1.5071    2.8109    2.6855 C   0  0  0  0  0  0  0  0  0  0  0  0
   -2.4742    0.5703   -0.1092 C   0  0  0  0  0  0  0  0  0  0  0  0
   -1.1818    1.1135   -0.3345 C   0  0  0  0  0  0  0  0  0  0  0  0
   -2.5124   -0.8093    0.0270 C   0  0  0  0  0  0  0  0  0  0  0  0
   -1.1118    6.8003   -2.8832 C   0  0  0  0  0  0  0  0  0  0  0  0
    0.0090    0.4258   -0.1722 C   0  0  0  0  0  0  0  0  0  0  0  0
   -1.3120   -1.5499    0.0397 C   0  0  0  0  0  0  0  0  0  0  0  0
   -0.0530   -0.9325   -0.0172 C   0  0  0  0  0  0  0  0  0  0  0  0
  1 28  1  0
  2 30  1  0
  3 14  2  0
  4 20  1  0
  4 27  1  0
  5 22  2  0
  6 23  1  0
  7 23  2  0
  8 10  1  0
  8 13  1  0
  8 14  1  0
  9 22  1  0
 10 12  1  0
 11  9  1  0
 11 14  1  0
 11 15  1  1
 12 16  1  0
 13 17  1  0
 15 19  1  0
 16 18  1  0
 17 20  1  0
 18 21  1  0
 19 23  1  0
 22 24  1  0
 24 25  2  0
 24 26  1  0
 25 28  1  0
 26 29  2  0
 28 30  2  0
 29 30  1  0
M  END
>  <DRUGBANK_ID>  (1) 
DB04856

>  <COMMON_NAME>  (1) 
Dexloxiglumide

>  <CAS_NUMBER>  (1) 
119817-90-2

>  <UNII>  (1) 
69DY40RH9B

>  <SYNONYMS>  (1) 
Dexloxiglumida; Dexloxiglumide; Dexloxiglumidum

$$$$
