
     RDKit          3D

 26 27  0  0  1  0  0  0  0  0999 V2000
   -4.5637    1.0124    1.7598 C   0  0  0  0  0  0  0  0  0  0  0  0
   -4.9608    0.6662    0.3563 C   0  0  0  0  0  0  0  0  0  0  0  0
   -4.0328    0.0433   -0.4293 C   0  0  0  0  0  0  0  0  0  0  0  0
   -4.5306   -0.6165   -1.5252 C   0  0  0  0  0  0  0  0  0  0  0  0
   -5.7315   -0.2385   -2.1164 C   0  0  0  0  0  0  0  0  0  0  0  0
   -6.0235   -0.5440   -3.5559 C   0  0  0  0  0  0  0  0  0  0  0  0
   -5.1931    0.2474   -4.4704 N   0  0  0  0  0  0  0  0  0  0  0  0
   -5.7474    1.1045   -5.3234 C   0  0  0  0  0  0  0  0  0  0  0  0
   -4.5837    1.8066   -6.3421 S   0  0  0  0  0  0  0  0  0  0  0  0
   -3.3795    0.7816   -5.7076 C   0  0  0  0  0  0  0  0  0  0  0  0
   -1.9596    0.7964   -6.0719 C   0  0  0  0  0  0  0  0  0  0  0  0
   -1.7704    0.5273   -7.5724 C   0  0  0  0  0  0  0  0  0  0  0  0
   -2.5143    1.4458   -8.3814 O   0  0  0  0  0  0  0  0  0  0  0  0
   -2.0551    3.0403   -8.2918 P   0  0  0  0  0  0  0  0  0  0  0  0
   -3.0773    3.4285   -9.6324 O   0  0  0  0  0  0  0  0  0  0  0  0
   -0.8651    3.1618   -9.2502 O   0  0  0  0  0  0  0  0  0  0  0  0
   -1.0329    2.6521   -6.9512 O   0  0  0  0  0  0  0  0  0  0  0  0
   -0.1429    3.8033   -6.2511 P   0  0  2  0  0  0  0  0  0  0  0  0
   -0.0586    4.9531   -7.3667 O   0  0  0  0  0  0  0  0  0  0  0  0
    1.2529    3.3041   -6.1009 O   0  0  0  0  0  0  0  0  0  0  0  0
   -0.9338    4.3599   -5.0883 O   0  0  0  0  0  0  0  0  0  0  0  0
   -3.8296    0.0790   -4.6457 C   0  0  0  0  0  0  0  0  0  0  0  0
   -2.9113   -0.7004   -3.8003 C   0  0  0  0  0  0  0  0  0  0  0  0
   -6.6031    0.4490   -1.2968 C   0  0  0  0  0  0  0  0  0  0  0  0
   -7.9370    0.5936   -1.6340 N   0  0  0  0  0  0  0  0  0  0  0  0
   -6.2541    0.8195   -0.0438 N   0  0  0  0  0  0  0  0  0  0  0  0
  1  2  1  0
  2  3  2  0
  2 26  1  0
  3  4  1  0
  4  5  2  0
  5  6  1  0
  5 24  1  0
  6  7  1  0
  7  8  2  0
  7 22  1  0
  8  9  1  0
  9 10  1  0
 10 11  1  0
 10 22  2  0
 11 12  1  0
 12 13  1  0
 14 16  2  0
 14 17  1  0
 14 15  1  0
 14 13  1  0
 18 20  1  1
 18 21  2  0
 18 19  1  0
 18 17  1  0
 22 23  1  0
 24 25  1  0
 24 26  2  0
M  CHG  2   7   1  20  -1
M  END
>  <DRUGBANK_ID>  (1) 
DB01658

>  <SECONDARY_ACCESSION_NUMBERS>  (1) 
EXPT02273

>  <COMMON_NAME>  (1) 
1'-Deazo-Thiamin Diphosphate

$$$$
