486
     RDKit          3D

 27 29  0  0  1  0  0  0  0  0999 V2000
    0.6779   -2.0799   -0.0153 O   0  0  0  0  0  0  0  0  0  0  0  0
   -3.5962    2.3741   -0.7400 O   0  0  0  0  0  0  0  0  0  0  0  0
    0.8810    2.7361   -0.6117 O   0  0  0  0  0  0  0  0  0  0  0  0
   -1.4099   -0.8526    0.1597 C   0  0  2  0  0  0  0  0  0  0  0  0
   -0.8239    0.4237   -0.4763 C   0  0  1  0  0  0  0  0  0  0  0  0
   -0.6935   -2.0753   -0.4691 C   0  0  0  0  0  0  0  0  0  0  0  0
   -2.9406   -0.8950    0.0868 C   0  0  0  0  0  0  0  0  0  0  0  0
   -1.4867    1.6697    0.1082 C   0  0  0  0  0  0  0  0  0  0  0  0
    0.6615    0.3749   -0.2497 C   0  0  0  0  0  0  0  0  0  0  0  0
   -3.5884    0.3839    0.5877 C   0  0  0  0  0  0  0  0  0  0  0  0
    1.3077   -0.8521   -0.0100 C   0  0  0  0  0  0  0  0  0  0  0  0
   -2.9613    1.5600   -0.0951 C   0  0  0  0  0  0  0  0  0  0  0  0
   -1.3739   -3.3794   -0.0110 C   0  0  0  0  0  0  0  0  0  0  0  0
   -0.6861   -2.0927   -2.0100 C   0  0  0  0  0  0  0  0  0  0  0  0
    1.4112    1.5415   -0.2272 C   0  0  0  0  0  0  0  0  0  0  0  0
    4.9164    0.3270    0.6304 C   0  0  0  0  0  0  0  0  0  0  0  0
    3.4085    0.3028    0.3752 C   0  0  0  0  0  0  0  0  0  0  0  0
    2.6708   -0.8817    0.2813 C   0  0  0  0  0  0  0  0  0  0  0  0
    2.7187    1.5075    0.1852 C   0  0  0  0  0  0  0  0  0  0  0  0
    5.6430    0.9648   -0.6106 C   0  0  0  0  0  0  0  0  0  0  0  0
    5.1833    1.0075    1.9914 C   0  0  0  0  0  0  0  0  0  0  0  0
    5.5082   -1.0884    0.8112 C   0  0  0  0  0  0  0  0  0  0  0  0
    5.2939    2.4192   -0.9795 C   0  0  0  0  0  0  0  0  0  0  0  0
    5.5476    3.4155    0.1568 C   0  0  0  0  0  0  0  0  0  0  0  0
    7.0207    3.4131    0.5601 C   0  0  0  0  0  0  0  0  0  0  0  0
    7.8454    3.9612   -0.5932 C   0  0  0  0  0  0  0  0  0  0  0  0
    7.3815    5.3703   -0.9243 C   0  0  0  0  0  0  0  0  0  0  0  0
  1  6  1  0
  1 11  1  0
  2 12  2  0
  3 15  1  0
  4  5  1  0
  4  6  1  0
  4  7  1  6
  5  8  1  1
  5  9  1  0
  6 13  1  0
  6 14  1  0
  7 10  1  0
  8 12  1  0
  9 11  2  0
  9 15  1  0
 10 12  1  0
 11 18  1  0
 15 19  2  0
 16 17  1  0
 16 20  1  0
 16 21  1  0
 16 22  1  0
 17 18  2  0
 17 19  1  0
 20 23  1  0
 23 24  1  0
 24 25  1  0
 25 26  1  0
 26 27  1  0
M  END
>  <DRUGBANK_ID>  (1) 
DB00486

>  <SECONDARY_ACCESSION_NUMBERS>  (1) 
APRD01127

>  <COMMON_NAME>  (1) 
Nabilone

>  <CAS_NUMBER>  (1) 
51022-71-0

>  <UNII>  (1) 
2N4O9L084N

>  <SYNONYMS>  (1) 
Nabilon; Nabilona; Nabilone; Nabilonum

$$$$
