FPB
     RDKit          3D

 28 30  0  0  0  0  0  0  0  0999 V2000
    4.2292   -0.9756    1.9607 O   0  0  0  0  0  0  0  0  0  0  0  0
    4.1748    0.2551    1.9471 C   0  0  0  0  0  0  0  0  0  0  0  0
    4.8446    1.0208    0.8241 C   0  0  0  0  0  0  0  0  0  0  0  0
    3.8730    1.8563    0.0147 C   0  0  2  0  0  0  0  0  0  0  0  0
    3.0503    0.8981   -0.7188 N   0  0  0  0  0  0  0  0  0  0  0  0
    4.6104    2.8991   -0.8539 C   0  0  0  0  0  0  0  0  0  0  0  0
    3.6914    3.8780   -1.5605 C   0  0  0  0  0  0  0  0  0  0  0  0
    2.6368    3.4651   -2.3880 C   0  0  0  0  0  0  0  0  0  0  0  0
    2.4219    2.1756   -2.6647 F   0  0  0  0  0  0  0  0  0  0  0  0
    1.7626    4.3520   -2.9902 C   0  0  0  0  0  0  0  0  0  0  0  0
    1.9943    5.7094   -2.8743 C   0  0  0  0  0  0  0  0  0  0  0  0
    3.0715    6.1614   -2.1110 C   0  0  0  0  0  0  0  0  0  0  0  0
    3.9017    5.2572   -1.4365 C   0  0  0  0  0  0  0  0  0  0  0  0
    3.6705    1.0060    3.0018 N   0  0  0  0  0  0  0  0  0  0  0  0
    3.7647    0.5729    4.3854 C   0  0  1  0  0  0  0  0  0  0  0  0
    2.3508    0.7617    4.9350 C   0  0  0  0  0  0  0  0  0  0  0  0
    1.8994    2.0358    4.2418 C   0  0  0  0  0  0  0  0  0  0  0  0
    2.6046    1.9965    2.8870 C   0  0  0  0  0  0  0  0  0  0  0  0
    4.3205   -0.8151    4.6329 C   0  0  0  0  0  0  0  0  0  0  0  0
    4.7591   -0.9852    6.0012 N   0  0  0  0  0  0  0  0  0  0  0  0
    4.4342   -1.9855    6.8706 C   0  0  0  0  0  0  0  0  0  0  0  0
    4.8818   -1.9650    8.0190 O   0  0  0  0  0  0  0  0  0  0  0  0
    3.5207   -3.0696    6.4452 C   0  0  0  0  0  0  0  0  0  0  0  0
    3.6909   -3.7356    5.2236 C   0  0  0  0  0  0  0  0  0  0  0  0
    2.7904   -4.7215    4.8305 C   0  0  0  0  0  0  0  0  0  0  0  0
    1.7763   -5.1135    5.6998 C   0  0  0  0  0  0  0  0  0  0  0  0
    1.6519   -4.5081    6.9521 C   0  0  0  0  0  0  0  0  0  0  0  0
    2.4935   -3.4540    7.3089 C   0  0  0  0  0  0  0  0  0  0  0  0
  1  2  2  0
  2  3  1  0
  2 14  1  0
  4  6  1  0
  4  5  1  6
  4  3  1  0
  6  7  1  0
  7  8  2  0
  7 13  1  0
  8  9  1  0
  8 10  1  0
 10 11  2  0
 11 12  1  0
 12 13  2  0
 14 15  1  0
 14 18  1  0
 15 16  1  0
 15 19  1  6
 16 17  1  0
 17 18  1  0
 19 20  1  0
 20 21  1  0
 21 22  2  0
 21 23  1  0
 23 24  2  0
 23 28  1  0
 24 25  1  0
 25 26  2  0
 26 27  1  0
 27 28  2  0
M  END
>  <DRUGBANK_ID>  (1) 
DB07779

>  <COMMON_NAME>  (1) 
N-({(2S)-1-[(3R)-3-AMINO-4-(2-FLUOROPHENYL)BUTANOYL]PYRROLIDIN-2-YL}METHYL)BENZAMIDE

$$$$
