253
     RDKit          3D

 25 28  0  0  0  0  0  0  0  0999 V2000
    0.6279    0.3831    0.0327 C   0  0  0  0  0  0  0  0  0  0  0  0
    0.3726   -0.0592   -1.3060 O   0  0  0  0  0  0  0  0  0  0  0  0
    0.8472    0.8212   -2.2363 C   0  0  0  0  0  0  0  0  0  0  0  0
    2.1833    1.1450   -2.3783 C   0  0  0  0  0  0  0  0  0  0  0  0
    3.2529    0.6134   -1.7057 O   0  0  0  0  0  0  0  0  0  0  0  0
    3.1790   -0.7237   -1.2033 C   0  0  0  0  0  0  0  0  0  0  0  0
    2.4988    2.1849   -3.2646 C   0  0  0  0  0  0  0  0  0  0  0  0
    1.5266    2.9119   -4.0302 C   0  0  0  0  0  0  0  0  0  0  0  0
    1.8035    4.0679   -4.8738 C   0  0  0  0  0  0  0  0  0  0  0  0
    3.0012    4.8700   -4.8745 C   0  0  0  0  0  0  0  0  0  0  0  0
    3.2288    5.7618   -5.9398 C   0  0  0  0  0  0  0  0  0  0  0  0
    2.2841    5.9812   -6.8845 N   0  0  0  0  0  0  0  0  0  0  0  0
    4.4629    6.4427   -6.0166 C   0  0  0  0  0  0  0  0  0  0  0  0
    4.7494    7.3349   -7.1990 C   0  0  0  0  0  0  0  0  0  0  0  0
    5.4645    6.2932   -5.0295 C   0  0  0  0  0  0  0  0  0  0  0  0
    6.6296    7.0589   -5.0368 N   0  0  0  0  0  0  0  0  0  0  0  0
    5.1759    5.5278   -3.9145 C   0  0  0  0  0  0  0  0  0  0  0  0
    3.9630    4.8542   -3.8291 C   0  0  0  0  0  0  0  0  0  0  0  0
    0.7978    4.4455   -5.7984 C   0  0  0  0  0  0  0  0  0  0  0  0
    1.0894    5.3815   -6.7973 C   0  0  0  0  0  0  0  0  0  0  0  0
    0.1396    5.8301   -7.7094 N   0  0  0  0  0  0  0  0  0  0  0  0
   -0.4446    3.8330   -5.6779 C   0  0  0  0  0  0  0  0  0  0  0  0
   -0.7606    2.8705   -4.7883 N   0  0  0  0  0  0  0  0  0  0  0  0
    0.2174    2.4063   -3.9955 C   0  0  0  0  0  0  0  0  0  0  0  0
   -0.1019    1.3895   -3.1018 C   0  0  0  0  0  0  0  0  0  0  0  0
  2  1  1  0
  3  4  2  0
  3  2  1  0
  4  5  1  0
  6  5  1  0
  7  4  1  0
  8  7  2  0
  9  8  1  0
 10  9  2  0
 10 18  1  0
 11 10  1  0
 12 20  1  0
 12 11  2  0
 13 11  1  0
 13 15  2  0
 14 13  1  0
 15 17  1  0
 16 15  1  0
 17 18  2  0
 19 22  1  0
 19  9  1  0
 20 19  2  0
 21 20  1  0
 22 23  2  0
 23 24  1  0
 24  8  1  0
 24 25  2  0
 25  3  1  0
M  END
>  <DRUGBANK_ID>  (1) 
DB06932

>  <COMMON_NAME>  (1) 
10,11-dimethoxy-4-methyldibenzo[c,f]-2,7-naphthyridine-3,6-diamine

$$$$
