3CC
     RDKit          3D

 23 24  0  0  0  0  0  0  0  0999 V2000
   -1.2254   -0.8178    0.0704 C   0  0  0  0  0  0  0  0  0  0  0  0
   -2.4706   -0.3324   -0.0226 C   0  0  0  0  0  0  0  0  0  0  0  0
   -2.3822    1.0379   -0.1053 C   0  0  0  0  0  0  0  0  0  0  0  0
   -1.0767    1.8339   -0.0686 C   0  0  0  0  0  0  0  0  0  0  0  0
    0.1442   -0.0175   -0.2104 C   0  0  0  0  0  0  0  0  0  0  0  0
    0.2209    1.3113   -0.1230 C   0  0  0  0  0  0  0  0  0  0  0  0
    1.7162    1.7332   -0.0096 C   0  0  0  0  0  0  0  0  0  0  0  0
    2.6842    0.5790   -0.4716 C   0  0  2  0  0  0  0  0  0  0  0  0
    1.7019   -0.4837   -0.4332 C   0  0  0  0  0  0  0  0  0  0  0  0
   -3.9082   -1.4219   -0.1982 S   0  0  0  0  0  0  0  0  0  0  0  0
   -4.7130   -1.2908    1.0519 O   0  0  0  0  0  0  0  0  0  0  0  0
   -4.4688   -1.2421   -1.4709 O   0  0  0  0  0  0  0  0  0  0  0  0
   -3.4212   -3.0789   -0.1508 N   0  0  0  0  0  0  0  0  0  0  0  0
    3.9220    0.1298    0.3918 N   0  0  0  0  0  0  0  0  0  0  0  0
    4.2757   -0.9520    1.2308 C   0  0  0  0  0  0  0  0  0  0  0  0
    5.4418   -0.9394    1.6619 O   0  0  0  0  0  0  0  0  0  0  0  0
    3.3879   -2.2619    1.5943 C   0  0  0  0  0  0  0  0  0  0  0  0
    2.0294   -2.0526    2.3847 C   0  0  0  0  0  0  0  0  0  0  0  0
    0.8565   -1.5467    1.5807 C   0  0  0  0  0  0  0  0  0  0  0  0
    0.5459   -2.4688   -0.0688 C   0  0  0  0  0  0  0  0  0  0  0  0
    3.2437   -3.1226    0.3144 C   0  0  0  0  0  0  0  0  0  0  0  0
    4.4135   -3.7475   -0.3849 C   0  0  0  0  0  0  0  0  0  0  0  0
    4.9908   -4.7567    0.5348 C   0  0  0  0  0  0  0  0  0  0  0  0
  1  2  2  0
  2 10  1  0
  3  2  1  0
  4  3  2  0
  5  1  1  0
  6  5  2  0
  6  4  1  0
  7  6  1  0
  8  7  1  0
  8  9  1  0
  8 14  1  1
  9  5  1  0
 10 11  2  0
 12 10  2  0
 13 10  1  0
 15 14  1  0
 16 15  2  0
 17 15  1  0
 17 18  1  0
 18 19  1  0
 19 20  1  0
 21 17  1  0
 22 21  1  0
 23 22  1  0
M  END
>  <DRUGBANK_ID>  (1) 
DB07048

>  <COMMON_NAME>  (1) 
N-[(2R)-5-(aminosulfonyl)-2,3-dihydro-1H-inden-2-yl]-2-propylpentanamide

$$$$
