
     RDKit          3D

 22 23  0  0  0  0  0  0  0  0999 V2000
    2.1748   -0.0089   -0.0008 F   0  0  0  0  0  0  0  0  0  0  0  0
   -6.9301    2.2056   -7.8152 O   0  0  0  0  0  0  0  0  0  0  0  0
   -6.2996    0.2187   -7.0974 O   0  0  0  0  0  0  0  0  0  0  0  0
   -4.0245   -0.6416   -1.1244 N   0  0  0  0  0  0  0  0  0  0  0  0
   -6.0136    2.0349   -5.6658 N   0  0  0  0  0  0  0  0  0  0  0  0
   -5.3621    3.5184   -3.2393 N   0  0  0  0  0  0  0  0  0  0  0  0
   -3.4616   -0.0200    0.0541 C   0  0  0  0  0  0  0  0  0  0  0  0
   -4.4736    0.0583   -2.2261 C   0  0  0  0  0  0  0  0  0  0  0  0
   -1.9543   -0.0119    0.0099 C   0  0  0  0  0  0  0  0  0  0  0  0
   -5.5218    1.3863   -4.5050 C   0  0  0  0  0  0  0  0  0  0  0  0
   -4.7107    1.4400   -2.2317 C   0  0  0  0  0  0  0  0  0  0  0  0
   -5.2638    2.1233   -3.3313 C   0  0  0  0  0  0  0  0  0  0  0  0
   -4.7770   -0.6453   -3.3832 C   0  0  0  0  0  0  0  0  0  0  0  0
   -5.2874    0.0081   -4.4989 C   0  0  0  0  0  0  0  0  0  0  0  0
   -1.2437    1.2011    0.0014 C   0  0  0  0  0  0  0  0  0  0  0  0
   -1.2414   -1.2210    0.0056 C   0  0  0  0  0  0  0  0  0  0  0  0
    0.1519    1.2011   -0.0047 C   0  0  0  0  0  0  0  0  0  0  0  0
    0.1524   -1.2184    0.0034 C   0  0  0  0  0  0  0  0  0  0  0  0
    0.8356   -0.0085   -0.0010 C   0  0  0  0  0  0  0  0  0  0  0  0
   -6.3931    1.4194   -6.8447 C   0  0  0  0  0  0  0  0  0  0  0  0
   -7.1860    3.6093   -7.7139 C   0  0  0  0  0  0  0  0  0  0  0  0
   -8.2508    3.9041   -6.6761 C   0  0  0  0  0  0  0  0  0  0  0  0
  1 19  1  0
  2 20  1  0
  2 21  1  0
  3 20  2  0
  4  7  1  0
  4  8  1  0
  5 10  1  0
  5 20  1  0
  6 12  1  0
  7  9  1  0
  8 11  2  0
  8 13  1  0
  9 15  2  0
  9 16  1  0
 10 12  2  0
 10 14  1  0
 11 12  1  0
 13 14  2  0
 15 17  1  0
 16 18  2  0
 17 19  2  0
 18 19  1  0
 21 22  1  0
M  END
>  <DRUGBANK_ID>  (1) 
DB04953

>  <COMMON_NAME>  (1) 
Ezogabine

>  <CAS_NUMBER>  (1) 
150812-12-7

>  <UNII>  (1) 
12G01I6BBU

>  <SYNONYMS>  (1) 
ethyl {2-amino-4-[(4-fluorobenzyl)amino]phenyl}carbamate; Ethyl 2-amino-4-((p-fluorobenzyl)amino)carbanilate; EZG; Ezogabine; N-(2-Amino-4-(4-fluorobenzylamino)-phenyl) carbamic acid ethyl ester; N-(2-Amino-4-(4-fluorobenzylamino)phenyl)carbamic acid ethyl ester; Retigabina; Retigabine; RTG

$$$$
