CTF
     RDKit          3D

 28 31  0  0  0  0  0  0  0  0999 V2000
   -4.5871   -0.1432   -0.2304 C   0  0  0  0  0  0  0  0  0  0  0  0
   -6.8965   -2.0772   -1.4065 O   0  0  0  0  0  0  0  0  0  0  0  0
   -7.0097   -1.7557    1.1164 O   0  0  0  0  0  0  0  0  0  0  0  0
   -3.9761   -1.3867   -0.0119 C   0  0  0  0  0  0  0  0  0  0  0  0
   -2.6079   -1.4730    0.1879 C   0  0  0  0  0  0  0  0  0  0  0  0
   -1.7872   -0.3454    0.1617 C   0  0  0  0  0  0  0  0  0  0  0  0
   -7.0049   -1.2314   -0.2339 S   0  0  0  0  0  0  0  0  0  0  0  0
   -8.5620   -0.6201   -0.4140 N   0  0  0  0  0  0  0  0  0  0  0  0
   -5.9628    0.0350   -0.3648 O   0  0  0  0  0  0  0  0  0  0  0  0
   -2.3714    0.9133   -0.0854 C   0  0  0  0  0  0  0  0  0  0  0  0
   -3.7687    1.0017   -0.3013 C   0  0  0  0  0  0  0  0  0  0  0  0
   -4.7625   -2.4869   -0.0035 O   0  0  0  0  0  0  0  0  0  0  0  0
   -4.2555   -3.7813    0.2209 C   0  0  0  0  0  0  0  0  0  0  0  0
   -0.3173   -0.4945    0.5180 C   0  0  2  0  0  0  0  0  0  0  0  0
    0.4998    0.7023   -0.0285 C   0  0  1  0  0  0  0  0  0  0  0  0
   -0.1386    1.9852    0.5042 C   0  0  0  0  0  0  0  0  0  0  0  0
   -1.5144    2.1634   -0.1457 C   0  0  0  0  0  0  0  0  0  0  0  0
    0.3041   -1.8622    0.1422 C   0  0  0  0  0  0  0  0  0  0  0  0
    1.7988   -1.9506    0.4643 C   0  0  0  0  0  0  0  0  0  0  0  0
    2.5607   -0.7768   -0.1534 C   0  0  2  0  0  0  0  0  0  0  0  0
    1.9556    0.5377    0.3919 C   0  0  1  0  0  0  0  0  0  0  0  0
    2.5012   -0.8893   -1.6984 C   0  0  0  0  0  0  0  0  0  0  0  0
    4.0203   -0.6117    0.3248 C   0  0  2  0  0  0  0  0  0  0  0  0
    4.3163    0.8783    0.0157 C   0  0  0  0  0  0  0  0  0  0  0  0
    2.9598    1.5999   -0.0419 C   0  0  0  0  0  0  0  0  0  0  0  0
    5.0591   -1.5362   -0.3194 C   0  0  0  0  0  0  0  0  0  0  0  0
    5.1428   -2.8340    0.3555 C   0  0  0  0  0  0  0  0  0  0  0  0
    5.2292   -3.8638    0.8921 N   0  0  0  0  0  0  0  0  0  0  0  0
  1  4  2  0
  1  9  1  0
  1 11  1  0
  2  7  2  0
  3  7  2  0
  4  5  1  0
  4 12  1  0
  5  6  2  0
  6 10  1  0
  6 14  1  0
  7  8  1  0
  7  9  1  0
 10 11  2  0
 10 17  1  0
 12 13  1  0
 14 15  1  0
 14 18  1  6
 15 16  1  1
 15 21  1  0
 16 17  1  0
 18 19  1  0
 19 20  1  0
 20 21  1  0
 20 22  1  6
 20 23  1  0
 21 25  1  6
 23 24  1  0
 23 26  1  6
 24 25  1  0
 26 27  1  0
 27 28  3  0
M  END
>  <DRUGBANK_ID>  (1) 
DB07596

>  <COMMON_NAME>  (1) 
(17beta)-17-(cyanomethyl)-2-methoxyestra-1(10),2,4-trien-3-yl sulfamate

$$$$
