
     RDKit          3D

 35 39  0  0  0  0  0  0  0  0999 V2000
    0.9546    0.0306   -0.0895 C   0  0  0  0  0  0  0  0  0  0  0  0
    0.4378   -1.2875    0.0649 O   0  0  0  0  0  0  0  0  0  0  0  0
    0.7610   -2.1176   -0.9725 C   0  0  0  0  0  0  0  0  0  0  0  0
    2.0615   -2.2667   -1.4572 C   0  0  0  0  0  0  0  0  0  0  0  0
    2.3168   -3.1619   -2.4939 C   0  0  0  0  0  0  0  0  0  0  0  0
    1.2770   -3.9432   -3.0190 C   0  0  0  0  0  0  0  0  0  0  0  0
    1.5783   -5.0039   -4.0408 C   0  0  0  0  0  0  0  0  0  0  0  0
    1.1716   -6.3082   -3.6297 O   0  0  0  0  0  0  0  0  0  0  0  0
    1.9012   -6.9220   -2.6496 C   0  0  0  0  0  0  0  0  0  0  0  0
    2.1269   -6.3196   -1.4029 C   0  0  0  0  0  0  0  0  0  0  0  0
    2.6448   -7.0142   -0.3169 C   0  0  0  0  0  0  0  0  0  0  0  0
    2.9357   -8.3621   -0.4488 C   0  0  0  0  0  0  0  0  0  0  0  0
    3.5161   -9.1284    0.7108 C   0  0  0  0  0  0  0  0  0  0  0  0
    2.6307  -10.1448    1.2509 N   0  0  0  0  0  0  0  0  0  0  0  0
    2.0715  -10.1659    2.5106 C   0  0  0  0  0  0  0  0  0  0  0  0
    2.3112   -9.2439    3.4445 N   0  0  0  0  0  0  0  0  0  0  0  0
    1.2837  -11.2146    2.6675 N   0  0  0  0  0  0  0  0  0  0  0  0
    1.3579  -11.9115    1.4894 C   0  0  0  0  0  0  0  0  0  0  0  0
    2.2422  -11.2991    0.6138 C   0  0  0  0  0  0  0  0  0  0  0  0
    2.5980  -11.7337   -0.6087 N   0  0  0  0  0  0  0  0  0  0  0  0
    1.9141  -12.8284   -1.0108 C   0  0  0  0  0  0  0  0  0  0  0  0
    1.0062  -13.5447   -0.2359 C   0  0  0  0  0  0  0  0  0  0  0  0
    0.7245  -13.0885    1.0590 C   0  0  0  0  0  0  0  0  0  0  0  0
    0.3885  -14.7374   -0.7624 C   0  0  0  0  0  0  0  0  0  0  0  0
    1.0854  -15.8420   -1.2040 C   0  0  0  0  0  0  0  0  0  0  0  0
    0.1453  -16.7414   -1.6165 N   0  0  0  0  0  0  0  0  0  0  0  0
    0.3852  -18.0599   -2.1514 C   0  0  0  0  0  0  0  0  0  0  0  0
   -1.1173  -16.2915   -1.4890 N   0  0  0  0  0  0  0  0  0  0  0  0
   -0.9660  -15.0702   -0.9659 C   0  0  0  0  0  0  0  0  0  0  0  0
    2.7336   -8.9540   -1.7057 C   0  0  0  0  0  0  0  0  0  0  0  0
    2.2485   -8.2569   -2.8138 C   0  0  0  0  0  0  0  0  0  0  0  0
    2.1800   -9.0252   -3.9457 O   0  0  0  0  0  0  0  0  0  0  0  0
    1.9847   -8.3524   -5.1798 C   0  0  0  0  0  0  0  0  0  0  0  0
   -0.0105   -3.8439   -2.4696 C   0  0  0  0  0  0  0  0  0  0  0  0
   -0.2698   -2.9156   -1.4661 C   0  0  0  0  0  0  0  0  0  0  0  0
  1  2  1  0
  2  3  1  0
  3  4  2  0
  3 35  1  0
  4  5  1  0
  5  6  2  0
  6  7  1  0
  6 34  1  0
  7  8  1  0
  8  9  1  0
  9 10  2  0
  9 31  1  0
 10 11  1  0
 11 12  2  0
 12 13  1  0
 12 30  1  0
 13 14  1  0
 14 15  1  0
 14 19  1  0
 15 16  1  0
 15 17  2  0
 17 18  1  0
 18 19  2  0
 18 23  1  0
 19 20  1  0
 20 21  2  0
 21 22  1  0
 22 23  2  0
 22 24  1  0
 24 25  2  0
 24 29  1  0
 25 26  1  0
 26 27  1  0
 26 28  1  0
 28 29  2  0
 30 31  2  0
 31 32  1  0
 32 33  1  0
 34 35  2  0
M  END
>  <DRUGBANK_ID>  (1) 
DB16056

>  <COMMON_NAME>  (1) 
GZ-389988

>  <CAS_NUMBER>  (1) 
1788906-96-6

>  <UNII>  (1) 
XX8E5WP7FS

$$$$
