RHS
     RDKit          3D

 17 16  0  0  0  0  0  0  0  0999 V2000
    0.9020    0.1605   -0.4964 N   0  0  0  0  0  0  0  0  0  0  0  0
    0.2563   -0.8526   -1.1644 C   0  0  0  0  0  0  0  0  0  0  0  0
   -0.9158   -0.6932   -1.5379 O   0  0  0  0  0  0  0  0  0  0  0  0
    1.0545   -2.0977   -1.5550 C   0  0  1  0  0  0  0  0  0  0  0  0
    1.9849   -1.5541   -2.6879 C   0  0  0  0  0  0  0  0  0  0  0  0
    3.0790   -0.6066   -2.1467 C   0  0  0  0  0  0  0  0  0  0  0  0
    2.6882   -2.6990   -3.4172 C   0  0  0  0  0  0  0  0  0  0  0  0
    1.1018   -0.7959   -3.7186 C   0  0  0  0  0  0  0  0  0  0  0  0
    1.7711   -2.9214   -0.4447 C   0  0  0  0  0  0  0  0  0  0  0  0
    0.8964   -3.6522    0.5998 C   0  0  0  0  0  0  0  0  0  0  0  0
    0.9215   -4.8819    0.6905 O   0  0  0  0  0  0  0  0  0  0  0  0
    0.1486   -2.9502    1.5141 N   0  0  0  0  0  0  0  0  0  0  0  0
    0.0371   -1.5199    1.5901 C   0  0  0  0  0  0  0  0  0  0  0  0
   -1.3475   -1.0025    1.1793 C   0  0  0  0  0  0  0  0  0  0  0  0
   -2.3788   -1.2427    2.2371 C   0  0  0  0  0  0  0  0  0  0  0  0
    0.6329   -0.7672    2.7670 C   0  0  0  0  0  0  0  0  0  0  0  0
    2.0868   -1.1530    2.9791 C   0  0  0  0  0  0  0  0  0  0  0  0
  1  2  1  0
  2  3  2  0
  2  4  1  0
  4  5  1  0
  4  9  1  1
  5  6  1  0
  5  7  1  0
  5  8  1  0
  9 10  1  0
 10 11  2  0
 10 12  1  0
 12 13  1  0
 13 14  1  0
 13 16  1  0
 14 15  1  0
 16 17  1  0
M  END
>  <DRUGBANK_ID>  (1) 
DB08474

>  <COMMON_NAME>  (1) 
3-(CARBOXYAMIDE(2-CARBOXYAMIDE-2-TERTBUTYLETHYL))PENTAN

$$$$
