
     RDKit          3D

 15 16  0  0  0  0  0  0  0  0999 V2000
    1.3642   -1.1922    0.2918 C   0  0  0  0  0  0  0  0  0  0  0  0
    2.5370   -0.4797    0.0989 C   0  0  0  0  0  0  0  0  0  0  0  0
   -1.1526   -1.4017    0.0629 C   0  0  0  0  0  0  0  0  0  0  0  0
   -2.3786   -0.7142    0.0053 C   0  0  0  0  0  0  0  0  0  0  0  0
   -2.4184    0.6784   -0.0111 C   0  0  0  0  0  0  0  0  0  0  0  0
   -1.2285    1.4033   -0.0068 C   0  0  0  0  0  0  0  0  0  0  0  0
    0.0156    0.7539    0.0414 C   0  0  0  0  0  0  0  0  0  0  0  0
    1.2152    1.5021    0.0067 C   0  0  0  0  0  0  0  0  0  0  0  0
    2.4660    0.8843   -0.0250 C   0  0  0  0  0  0  0  0  0  0  0  0
    0.0671   -0.6578    0.1325 C   0  0  0  0  0  0  0  0  0  0  0  0
   -1.3223   -2.7672   -0.0074 O   0  0  0  0  0  0  0  0  0  0  0  0
   -0.2097   -3.6412   -0.1144 C   0  0  0  0  0  0  0  0  0  0  0  0
    1.8982   -3.4650   -1.3978 O   0  0  0  0  0  0  0  0  0  0  0  0
    0.6817   -3.5297   -1.3657 C   0  0  0  0  0  0  0  0  0  0  0  0
   -0.0112   -3.5189   -2.5208 O   0  0  0  0  0  0  0  0  0  0  0  0
  1 10  2  0
  2  1  1  0
  3  4  2  0
  3 10  1  0
  4  5  1  0
  5  6  2  0
  6  7  1  0
  7  8  2  0
  7 10  1  0
  8  9  1  0
  9  2  2  0
 11  3  1  0
 12 11  1  0
 12 14  1  0
 14 13  2  0
 14 15  1  0
M  END
>  <DRUGBANK_ID>  (1) 
DB08286

>  <COMMON_NAME>  (1) 
1-Naphthoxyacetic acid

>  <CAS_NUMBER>  (1) 
2976-75-2

>  <UNII>  (1) 
9QI2464POA

>  <SYNONYMS>  (1) 
(1-naphthalenyloxy)acetic acid; (1-naphthyloxy)acetic acid; 1-naphthyloxyacetic acid

$$$$
