
     RDKit          3D

 31 33  0  0  0  0  0  0  0  0999 V2000
    0.9804    1.1577    0.6122 C   0  0  1  0  0  0  0  0  0  0  0  0
    1.7265   -0.1902    0.8491 C   0  0  1  0  0  0  0  0  0  0  0  0
   -0.5620    1.2635    0.9123 C   0  0  0  0  0  0  0  0  0  0  0  0
    0.9024   -1.6202    0.7254 C   0  0  2  0  0  0  0  0  0  0  0  0
   -1.2778   -0.0340    0.6686 C   0  0  1  0  0  0  0  0  0  0  0  0
   -0.6677   -1.5229    0.7158 C   0  0  1  0  0  0  0  0  0  0  0  0
    1.6244    2.4597    0.7844 N   0  0  0  0  0  0  0  0  0  0  0  0
   -2.8077    0.2203    0.8838 N   0  0  0  0  0  0  0  0  0  0  0  0
   -1.4268   -2.6816   -0.3028 O   0  0  0  0  0  0  0  0  0  0  0  0
    1.5429   -2.8735    1.0272 O   0  0  0  0  0  0  0  0  0  0  0  0
    3.0633   -0.2469   -0.1548 O   0  0  0  0  0  0  0  0  0  0  0  0
   -1.4873   -2.6847   -2.1471 C   0  0  2  0  0  0  0  0  0  0  0  0
    0.4609   -3.0488   -2.3112 C   0  0  1  0  0  0  0  0  0  0  0  0
   -2.1735   -1.2188   -3.2008 O   0  0  0  0  0  0  0  0  0  0  0  0
    1.2577   -1.0888   -1.8479 C   0  0  0  0  0  0  0  0  0  0  0  0
   -1.6445    0.6989   -3.0655 C   0  0  2  0  0  0  0  0  0  0  0  0
    0.5533    0.4046   -3.1454 C   0  0  0  0  0  0  0  0  0  0  0  0
    0.9153   -4.1064   -1.5347 N   0  0  0  0  0  0  0  0  0  0  0  0
    3.0577   -0.1943   -1.9252 C   0  0  2  0  0  0  0  0  0  0  0  0
    2.1687    1.4974   -2.2433 C   0  0  1  0  0  0  0  0  0  0  0  0
    2.2892   -1.6107   -3.0941 O   0  0  0  0  0  0  0  0  0  0  0  0
    0.1643    1.7038   -1.9530 C   0  0  2  0  0  0  0  0  0  0  0  0
    0.2654   -1.4966   -3.1931 C   0  0  0  0  0  0  0  0  0  0  0  0
   -0.6459   -0.3394   -2.1634 C   0  0  1  0  0  0  0  0  0  0  0  0
    2.9267    2.5222   -1.6435 O   0  0  0  0  0  0  0  0  0  0  0  0
   -0.2796    2.9351   -2.5409 N   0  0  0  0  0  0  0  0  0  0  0  0
    0.4221    4.0031   -1.8923 C   0  0  0  0  0  0  0  0  0  0  0  0
   -2.4479   -0.6315   -1.5229 C   0  0  0  0  0  0  0  0  0  0  0  0
   -0.7236   -0.4782   -4.1786 O   0  0  0  0  0  0  0  0  0  0  0  0
   -2.6884    1.7310   -2.6706 C   0  0  0  0  0  0  0  0  0  0  0  0
   -2.3539    2.1818   -3.9455 N   0  0  0  0  0  0  0  0  0  0  0  0
  1  7  1  1
  2  1  1  0
  2 11  1  6
  3  1  1  0
  4  2  1  0
  4 10  1  1
  5  3  1  0
  5  8  1  1
  6  4  1  0
  6  5  1  0
  6  9  1  6
 12 13  1  0
 12 14  1  0
 12  9  1  1
 13 15  1  0
 13 18  1  1
 14 16  1  0
 15 17  1  0
 16 17  1  0
 16 30  1  6
 19 20  1  0
 19 21  1  0
 19 11  1  1
 20 22  1  0
 20 25  1  1
 21 23  1  0
 22 24  1  0
 22 26  1  6
 23 24  1  0
 24 28  1  6
 24 29  1  0
 27 26  1  0
 31 30  1  0
M  END
>  <DRUGBANK_ID>  (1) 
DB04729

>  <COMMON_NAME>  (1) 
Gentamicin C1a

>  <CAS_NUMBER>  (1) 
26098-04-4

>  <UNII>  (1) 
AV4A72IATD

>  <SYNONYMS>  (1) 
Gentamycin C12

$$$$
