
     RDKit          3D

 39 45  0  0  0  0  0  0  0  0999 V2000
    4.7122   -0.8234   -1.3266 C   0  0  0  0  0  0  0  0  0  0  0  0
    4.2513   -1.0895   -2.8287 C   0  0  0  0  0  0  0  0  0  0  0  0
    3.7409    0.1760   -3.6467 N   0  0  0  0  0  0  0  0  0  0  0  0
    4.3910    1.5628   -3.3298 C   0  0  0  0  0  0  0  0  0  0  0  0
    4.6845    1.9810   -1.8537 C   0  0  0  0  0  0  0  0  0  0  0  0
    5.2244    0.7044   -1.0325 N   0  0  0  0  0  0  0  0  0  0  0  0
    6.6228    0.8153   -0.8248 C   0  0  0  0  0  0  0  0  0  0  0  0
    7.2937    0.7594   -2.1718 C   0  0  2  0  0  0  0  0  0  0  0  0
    6.9702   -0.4970   -2.9733 C   0  0  0  0  0  0  0  0  0  0  0  0
    7.7596   -0.9219   -4.0653 O   0  0  0  0  0  0  0  0  0  0  0  0
    7.3967   -0.2371   -5.2018 C   0  0  0  0  0  0  0  0  0  0  0  0
    7.3947    1.1560   -5.1818 C   0  0  0  0  0  0  0  0  0  0  0  0
    7.2654    1.9079   -6.3142 C   0  0  0  0  0  0  0  0  0  0  0  0
    7.2270    1.2388   -7.5174 C   0  0  0  0  0  0  0  0  0  0  0  0
    7.1645   -0.1521   -7.5872 C   0  0  0  0  0  0  0  0  0  0  0  0
    7.1799   -0.9162   -6.4005 C   0  0  0  0  0  0  0  0  0  0  0  0
    7.0183   -2.3130   -6.4944 C   0  0  0  0  0  0  0  0  0  0  0  0
    6.9629   -2.9025   -7.7468 C   0  0  0  0  0  0  0  0  0  0  0  0
    7.0486   -2.0732   -8.8500 C   0  0  0  0  0  0  0  0  0  0  0  0
    7.1229   -0.7254   -8.7940 N   0  0  0  0  0  0  0  0  0  0  0  0
    8.6729    0.9184   -2.0437 O   0  0  0  0  0  0  0  0  0  0  0  0
    2.2231    0.1659   -3.3944 C   0  0  1  0  0  0  0  0  0  0  0  0
    1.8070    0.3464   -1.8889 C   0  0  0  0  0  0  0  0  0  0  0  0
    2.6749    0.7022   -0.9839 C   0  0  0  0  0  0  0  0  0  0  0  0
    3.0001    0.8066    0.3754 C   0  0  0  0  0  0  0  0  0  0  0  0
    1.9905    0.3365    1.1349 C   0  0  0  0  0  0  0  0  0  0  0  0
    0.8541    0.0526    0.3720 C   0  0  0  0  0  0  0  0  0  0  0  0
    0.7133    0.0819   -1.1327 C   0  0  0  0  0  0  0  0  0  0  0  0
   -0.4507   -0.2721   -1.9197 C   0  0  1  0  0  0  0  0  0  0  0  0
   -0.5119   -0.7200   -3.5346 C   0  0  2  0  0  0  0  0  0  0  0  0
   -0.3318   -1.6228   -2.3687 C   0  0  0  0  0  0  0  0  0  0  0  0
   -1.3015   -2.4993   -1.9655 F   0  0  0  0  0  0  0  0  0  0  0  0
    0.8636   -2.3270   -2.2723 F   0  0  0  0  0  0  0  0  0  0  0  0
   -0.0173    0.5135   -4.2973 C   0  0  0  0  0  0  0  0  0  0  0  0
   -0.9688    1.2740   -4.9893 C   0  0  0  0  0  0  0  0  0  0  0  0
   -0.6776    2.5493   -5.4672 C   0  0  0  0  0  0  0  0  0  0  0  0
    0.6081    3.0426   -5.3666 C   0  0  0  0  0  0  0  0  0  0  0  0
    1.6103    2.2265   -4.8648 C   0  0  0  0  0  0  0  0  0  0  0  0
    1.3141    0.9868   -4.2766 C   0  0  0  0  0  0  0  0  0  0  0  0
  1  2  1  0
  1  6  1  0
  2  3  1  0
  3  4  1  0
  4  5  1  0
  5  6  1  0
  6  7  1  0
  8 21  1  1
  8  9  1  0
  8  7  1  0
  9 10  1  0
 10 11  1  0
 11 12  2  0
 11 16  1  0
 12 13  1  0
 13 14  2  0
 14 15  1  0
 15 16  2  0
 15 20  1  0
 16 17  1  0
 17 18  2  0
 18 19  1  0
 19 20  2  0
 22 23  1  0
 22 39  1  0
 22  3  1  1
 23 24  2  0
 23 28  1  0
 24 25  1  0
 25 26  2  0
 26 27  1  0
 27 28  2  0
 28 29  1  0
 29 30  1  0
 29 31  1  1
 30 31  1  1
 30 34  1  0
 31 32  1  0
 31 33  1  0
 34 35  2  0
 34 39  1  0
 35 36  1  0
 36 37  2  0
 37 38  1  0
 38 39  2  0
M  END
>  <DRUGBANK_ID>  (1) 
DB06191

>  <COMMON_NAME>  (1) 
Zosuquidar

>  <CAS_NUMBER>  (1) 
167354-41-8

>  <UNII>  (1) 
AB5K82X98Y

>  <SYNONYMS>  (1) 
Zosuquidar

$$$$
