
     RDKit          3D

 30 32  0  0  0  0  0  0  0  0999 V2000
    1.5062    2.0289    1.7411 S   0  0  0  0  0  0  0  0  0  0  0  0
   -2.4680   -0.1316    0.3012 O   0  0  0  0  0  0  0  0  0  0  0  0
   -0.7862   -1.5228    3.2250 O   0  0  0  0  0  0  0  0  0  0  0  0
   -2.0723    0.9471    3.3227 O   0  0  0  0  0  0  0  0  0  0  0  0
    0.6165    1.2021    0.6012 O   0  0  0  0  0  0  0  0  0  0  0  0
    2.8290    1.5057    1.7069 O   0  0  0  0  0  0  0  0  0  0  0  0
    0.8912    2.0531    3.0665 O   0  0  0  0  0  0  0  0  0  0  0  0
    2.8773    1.7450   -2.2386 O   0  0  0  0  0  0  0  0  0  0  0  0
    1.7980    5.5574    0.3142 O   0  0  0  0  0  0  0  0  0  0  0  0
   -1.6083   -2.2973    0.1861 N   0  0  0  0  0  0  0  0  0  0  0  0
   -1.6403   -4.1960   -0.9484 N   0  0  0  0  0  0  0  0  0  0  0  0
    0.2770   -1.1850   -0.8536 N   0  0  0  0  0  0  0  0  0  0  0  0
    1.3321    3.6042    1.3150 N   0  0  0  0  0  0  0  0  0  0  0  0
    1.2245   -2.5020   -2.6278 N   0  0  0  0  0  0  0  0  0  0  0  0
    0.3829   -4.5985   -3.2542 N   0  0  0  0  0  0  0  0  0  0  0  0
    3.9882    2.9526    0.1098 N   0  0  0  0  0  0  0  0  0  0  0  0
   -0.8852   -0.8072    2.0058 C   0  0  2  0  0  0  0  0  0  0  0  0
   -1.3556    0.6141    2.1664 C   0  0  1  0  0  0  0  0  0  0  0  0
   -2.0052   -1.2636    1.0926 C   0  0  1  0  0  0  0  0  0  0  0  0
   -1.8634    1.0606    0.8290 C   0  0  1  0  0  0  0  0  0  0  0  0
   -0.6597    1.5720   -0.0103 C   0  0  0  0  0  0  0  0  0  0  0  0
   -0.5799   -2.2022   -0.7013 C   0  0  0  0  0  0  0  0  0  0  0  0
   -2.2019   -3.5137    0.0289 C   0  0  0  0  0  0  0  0  0  0  0  0
   -0.6231   -3.3775   -1.4138 C   0  0  0  0  0  0  0  0  0  0  0  0
    0.3286   -3.5005   -2.4338 C   0  0  0  0  0  0  0  0  0  0  0  0
    2.9477    3.6386   -0.6316 C   0  0  2  0  0  0  0  0  0  0  0  0
    1.1592   -1.4183   -1.8328 C   0  0  0  0  0  0  0  0  0  0  0  0
    2.0105    4.3492    0.3577 C   0  0  0  0  0  0  0  0  0  0  0  0
    2.1121    2.7216   -1.5471 C   0  0  1  0  0  0  0  0  0  0  0  0
    1.2255    3.4581   -2.5248 C   0  0  0  0  0  0  0  0  0  0  0  0
  1  5  1  0
  1  6  2  0
  1  7  2  0
  1 13  1  0
  2 19  1  0
  2 20  1  0
  5 21  1  0
  9 28  2  0
 10 22  1  0
 10 23  1  0
 11 23  2  0
 11 24  1  0
 12 22  1  0
 12 27  2  0
 13 28  1  0
 14 25  2  0
 14 27  1  0
 15 25  1  0
 17  3  1  1
 17 18  1  0
 17 19  1  0
 18  4  1  1
 18 20  1  0
 19 10  1  6
 20 21  1  6
 22 24  2  0
 24 25  1  0
 26 16  1  1
 26 28  1  0
 29 30  1  6
 29 26  1  0
 29  8  1  0
M  END
>  <DRUGBANK_ID>  (1) 
DB03355

>  <SECONDARY_ACCESSION_NUMBERS>  (1) 
EXPT03121

>  <COMMON_NAME>  (1) 
5'-O-(L-Threonylsulfamoyl)adenosine

$$$$
