
     RDKit          3D

 30 34  0  0  0  0  0  0  0  0999 V2000
   -2.1403    0.8066   -0.0452 C   0  0  0  0  0  0  0  0  0  0  0  0
   -2.1465   -0.5853    0.0718 C   0  0  0  0  0  0  0  0  0  0  0  0
   -0.9603   -1.2702    0.3569 C   0  0  0  0  0  0  0  0  0  0  0  0
    0.2429   -0.5707    0.4014 C   0  0  0  0  0  0  0  0  0  0  0  0
    0.2484    0.8093    0.1925 C   0  0  0  0  0  0  0  0  0  0  0  0
   -0.9364    1.5141    0.0291 C   0  0  0  0  0  0  0  0  0  0  0  0
    1.6629    1.3251    0.1577 C   0  0  0  0  0  0  0  0  0  0  0  0
    2.4805    0.0356   -0.1918 C   0  0  0  0  0  0  0  0  0  0  0  0
    1.6650   -1.0449    0.5866 C   0  0  0  0  0  0  0  0  0  0  0  0
    2.6209   -0.0821   -1.6744 N   0  0  0  0  0  0  0  0  0  0  0  0
    3.3132   -1.2669   -2.2264 C   0  0  0  0  0  0  0  0  0  0  0  0
    2.5924   -2.5886   -2.1265 C   0  0  0  0  0  0  0  0  0  0  0  0
    1.2210   -2.6516   -1.9011 C   0  0  0  0  0  0  0  0  0  0  0  0
    0.6643   -3.7817   -1.3110 C   0  0  0  0  0  0  0  0  0  0  0  0
    1.3514   -4.9799   -1.2338 C   0  0  0  0  0  0  0  0  0  0  0  0
    2.6506   -5.0016   -1.7595 C   0  0  0  0  0  0  0  0  0  0  0  0
    3.2587   -3.8030   -2.1626 C   0  0  0  0  0  0  0  0  0  0  0  0
    4.5347   -3.8488   -2.5876 F   0  0  0  0  0  0  0  0  0  0  0  0
    0.6884   -6.1443   -0.6307 C   0  0  0  0  0  0  0  0  0  0  0  0
    1.3341   -6.9332    0.3300 C   0  0  0  0  0  0  0  0  0  0  0  0
    0.6690   -7.9936    0.9471 C   0  0  0  0  0  0  0  0  0  0  0  0
   -0.6717   -8.2414    0.6546 C   0  0  0  0  0  0  0  0  0  0  0  0
   -1.3579   -7.4298   -0.2503 C   0  0  0  0  0  0  0  0  0  0  0  0
   -0.6644   -6.4220   -0.9271 C   0  0  0  0  0  0  0  0  0  0  0  0
   -2.7992   -7.5511   -0.3719 C   0  0  0  0  0  0  0  0  0  0  0  0
   -3.6106   -7.4308    0.7364 N   0  0  0  0  0  0  0  0  0  0  0  0
   -4.8192   -7.5581    0.2479 C   0  0  0  0  0  0  0  0  0  0  0  0
   -4.7412   -7.7757   -1.0891 N   0  0  0  0  0  0  0  0  0  0  0  0
   -3.4674   -7.7398   -1.5189 N   0  0  0  0  0  0  0  0  0  0  0  0
    0.4615   -1.5757   -2.0837 F   0  0  0  0  0  0  0  0  0  0  0  0
  1  2  2  0
  1  6  1  0
  2  3  1  0
  3  4  2  0
  4  5  1  0
  4  9  1  0
  5  6  2  0
  5  7  1  0
  7  8  1  0
  8  9  1  0
  8 10  1  0
 10 11  1  0
 11 12  1  0
 12 13  2  0
 12 17  1  0
 13 14  1  0
 13 30  1  0
 14 15  2  0
 15 16  1  0
 15 19  1  0
 16 17  2  0
 17 18  1  0
 19 20  2  0
 19 24  1  0
 20 21  1  0
 21 22  2  0
 22 23  1  0
 23 24  2  0
 23 25  1  0
 25 26  1  0
 25 29  2  0
 26 27  2  0
 27 28  1  0
 28 29  1  0
M  END
>  <DRUGBANK_ID>  (1) 
DB12886

>  <COMMON_NAME>  (1) 
GSK-1521498

>  <CAS_NUMBER>  (1) 
1007573-18-3

>  <UNII>  (1) 
W0UTB622GK

$$$$
