
     RDKit          3D

 29 33  0  0  1  0  0  0  0  0999 V2000
    1.0007   -0.1255    0.0663 C   0  0  0  0  0  0  0  0  0  0  0  0
    0.5095    0.4051   -1.2898 C   0  0  2  0  0  0  0  0  0  0  0  0
    1.6852    0.6396   -2.2669 C   0  0  0  0  0  0  0  0  0  0  0  0
    2.5546    1.7001   -1.8169 O   0  0  0  0  0  0  0  0  0  0  0  0
    1.8325    2.9422   -1.6775 C   0  0  0  0  0  0  0  0  0  0  0  0
    0.6761    2.8136   -0.6927 C   0  0  0  0  0  0  0  0  0  0  0  0
   -0.1562    1.6907   -1.0782 N   0  0  0  0  0  0  0  0  0  0  0  0
   -1.4640    1.9144   -1.4181 C   0  0  0  0  0  0  0  0  0  0  0  0
   -1.7917    2.8339   -2.3417 N   0  0  0  0  0  0  0  0  0  0  0  0
   -3.1009    3.0669   -2.5073 C   0  0  0  0  0  0  0  0  0  0  0  0
   -3.5721    4.0348   -3.4789 C   0  0  0  0  0  0  0  0  0  0  0  0
   -4.4710    5.0516   -3.1553 C   0  0  0  0  0  0  0  0  0  0  0  0
   -4.8530    6.0598   -3.9800 N   0  0  0  0  0  0  0  0  0  0  0  0
   -4.3579    6.0921   -5.2361 C   0  0  0  0  0  0  0  0  0  0  0  0
   -3.5225    5.0651   -5.6588 C   0  0  0  0  0  0  0  0  0  0  0  0
   -2.8914    4.8602   -6.8648 N   0  0  0  0  0  0  0  0  0  0  0  0
   -2.0617    3.7738   -6.7784 C   0  0  0  0  0  0  0  0  0  0  0  0
   -2.3345    3.1377   -5.5911 C   0  0  0  0  0  0  0  0  0  0  0  0
   -3.1427    4.0172   -4.8161 C   0  0  0  0  0  0  0  0  0  0  0  0
   -4.0500    2.4689   -1.7958 N   0  0  0  0  0  0  0  0  0  0  0  0
   -3.7251    1.5038   -0.9213 C   0  0  0  0  0  0  0  0  0  0  0  0
   -4.8559    0.6939   -0.3563 C   0  0  0  0  0  0  0  0  0  0  0  0
   -6.2672    0.6792   -1.5486 S   0  0  1  0  0  0  0  0  0  0  0  0
   -6.7612    2.0586   -1.5814 O   0  0  0  0  0  0  0  0  0  0  0  0
   -5.7073   -0.0571   -2.7835 N   0  0  0  0  0  0  0  0  0  0  0  0
   -7.6547   -0.2197   -1.0032 C   0  0  0  0  0  0  0  0  0  0  0  0
   -5.2098    0.6517    1.1088 C   0  0  0  0  0  0  0  0  0  0  0  0
   -4.5529   -0.5420    0.4740 C   0  0  0  0  0  0  0  0  0  0  0  0
   -2.4065    1.2171   -0.7034 C   0  0  0  0  0  0  0  0  0  0  0  0
  2  1  1  1
  2  3  1  0
  2  7  1  0
  3  4  1  0
  4  5  1  0
  5  6  1  0
  6  7  1  0
  7  8  1  0
  8  9  2  0
  8 29  1  0
  9 10  1  0
 10 11  1  0
 10 20  2  0
 11 12  2  0
 11 19  1  0
 12 13  1  0
 13 14  2  0
 14 15  1  0
 15 16  1  0
 15 19  2  0
 17 16  1  0
 18 17  2  0
 19 18  1  0
 20 21  1  0
 21 22  1  0
 21 29  2  0
 22 23  1  0
 22 27  1  0
 22 28  1  0
 23 24  2  0
 23 25  2  0
 23 26  1  0
 27 28  1  0
M  END
>  <DRUGBANK_ID>  (1) 
DB14917

>  <COMMON_NAME>  (1) 
Ceralasertib

>  <CAS_NUMBER>  (1) 
1352226-88-0

>  <UNII>  (1) 
85RE35306Z

>  <SYNONYMS>  (1) 
Ceralasertib

$$$$
