D28
     RDKit          3D

 24 26  0  0  0  0  0  0  0  0999 V2000
    1.3117    0.7597   -0.0104 C   0  0  0  0  0  0  0  0  0  0  0  0
    2.4956    1.6158   -0.0178 C   0  0  0  0  0  0  0  0  0  0  0  0
    1.3744   -0.6342   -0.0538 N   0  0  0  0  0  0  0  0  0  0  0  0
    0.0364    1.2791    0.0153 C   0  0  0  0  0  0  0  0  0  0  0  0
    3.4168    1.5380   -1.0736 C   0  0  0  0  0  0  0  0  0  0  0  0
    2.7211    2.5456    1.0122 C   0  0  0  0  0  0  0  0  0  0  0  0
    0.1629   -1.1660   -0.0386 C   0  0  0  0  0  0  0  0  0  0  0  0
   -1.1069    0.0173    0.0390 S   0  0  0  0  0  0  0  0  0  0  0  0
    4.5615    2.3556   -1.0956 C   0  0  0  0  0  0  0  0  0  0  0  0
    3.8662    3.3501    1.0053 C   0  0  0  0  0  0  0  0  0  0  0  0
   -0.0721   -2.5112   -0.0364 N   0  0  0  0  0  0  0  0  0  0  0  0
    4.7751    3.2460   -0.0412 C   0  0  0  0  0  0  0  0  0  0  0  0
    5.5505    2.2862   -2.2195 C   0  0  0  0  0  0  0  0  0  0  0  0
   -1.3279   -3.1521   -0.0663 C   0  0  0  0  0  0  0  0  0  0  0  0
    5.8710    4.0194   -0.0300 F   0  0  0  0  0  0  0  0  0  0  0  0
   -2.2489   -2.9113   -1.0937 C   0  0  0  0  0  0  0  0  0  0  0  0
   -1.7142   -4.0126    0.9666 C   0  0  0  0  0  0  0  0  0  0  0  0
   -3.5314   -3.4822   -1.0701 C   0  0  0  0  0  0  0  0  0  0  0  0
   -3.0076   -4.5727    1.0038 C   0  0  0  0  0  0  0  0  0  0  0  0
   -3.9453   -4.3108   -0.0112 C   0  0  0  0  0  0  0  0  0  0  0  0
   -4.3823   -3.2078   -2.1055 O   0  0  0  0  0  0  0  0  0  0  0  0
   -5.3484   -4.8692    0.0026 C   0  0  0  0  0  0  0  0  0  0  0  0
   -5.6832   -5.6446    1.0582 O   0  0  0  0  0  0  0  0  0  0  0  0
   -6.1822   -4.6593   -0.8674 O   0  0  0  0  0  0  0  0  0  0  0  0
  1  2  1  0
  1  3  1  0
  1  4  2  0
  2  5  2  0
  2  6  1  0
  3  7  2  0
  4  8  1  0
  5  9  1  0
  6 10  2  0
  7  8  1  0
  7 11  1  0
  9 12  2  0
  9 13  1  0
 10 12  1  0
 11 14  1  0
 12 15  1  0
 14 16  2  0
 14 17  1  0
 16 18  1  0
 17 19  2  0
 18 20  2  0
 18 21  1  0
 19 20  1  0
 20 22  1  0
 22 23  1  0
 22 24  2  0
M  END
>  <DRUGBANK_ID>  (1) 
DB07616

>  <COMMON_NAME>  (1) 
4-{[4-(4-fluoro-3-methylphenyl)-1,3-thiazol-2-yl]amino}-2-hydroxybenzoic acid

$$$$
