
     RDKit          3D

 28 30  0  0  1  0  0  0  0  0999 V2000
   -0.8748   -2.4000   -1.3234 C   0  0  0  0  0  0  0  0  0  0  0  0
   -1.6346   -1.3900   -0.4485 C   0  0  0  0  0  0  0  0  0  0  0  0
   -3.1181   -1.8016   -0.4695 C   0  0  0  0  0  0  0  0  0  0  0  0
   -1.0728   -1.2118    1.0211 C   0  0  2  0  0  0  0  0  0  0  0  0
    0.4618   -1.1243    1.0508 C   0  0  0  0  0  0  0  0  0  0  0  0
    1.2527   -2.2496    0.7212 C   0  0  0  0  0  0  0  0  0  0  0  0
    2.6353   -2.2138    0.6401 C   0  0  0  0  0  0  0  0  0  0  0  0
    3.2976   -1.0461    0.9552 C   0  0  0  0  0  0  0  0  0  0  0  0
    4.6884   -0.9766    0.8884 C   0  0  0  0  0  0  0  0  0  0  0  0
    5.3600    0.1948    1.2462 C   0  0  0  0  0  0  0  0  0  0  0  0
    4.6140    1.3133    1.6652 C   0  0  0  0  0  0  0  0  0  0  0  0
    3.2204    1.2398    1.7162 C   0  0  0  0  0  0  0  0  0  0  0  0
    2.5460    0.0824    1.3600 C   0  0  0  0  0  0  0  0  0  0  0  0
    1.1448    0.0394    1.3957 C   0  0  0  0  0  0  0  0  0  0  0  0
    5.2963    2.4373    2.0025 O   0  0  0  0  0  0  0  0  0  0  0  0
    4.6189    3.6000    2.4268 C   0  0  0  0  0  0  0  0  0  0  0  0
    3.7729    4.0219    1.4571 F   0  0  0  0  0  0  0  0  0  0  0  0
    3.8966    3.3335    3.5406 F   0  0  0  0  0  0  0  0  0  0  0  0
    6.7199    0.0791    1.1367 O   0  0  0  0  0  0  0  0  0  0  0  0
    7.5538    1.1715    1.4926 C   0  0  0  0  0  0  0  0  0  0  0  0
    7.3013    2.2399    0.6978 F   0  0  0  0  0  0  0  0  0  0  0  0
    7.3703    1.5100    2.7921 F   0  0  0  0  0  0  0  0  0  0  0  0
   -1.5302   -2.2931    1.9499 C   0  0  0  0  0  0  0  0  0  0  0  0
   -1.3573   -3.6611    1.9335 C   0  0  0  0  0  0  0  0  0  0  0  0
   -1.9453   -4.2240    3.0187 N   0  0  0  0  0  0  0  0  0  0  0  0
   -2.5029   -3.2528    3.7249 N   0  0  0  0  0  0  0  0  0  0  0  0
   -2.2438   -2.0944    3.0998 N   0  0  0  0  0  0  0  0  0  0  0  0
   -1.6212    0.0039    1.5672 O   0  0  0  0  0  0  0  0  0  0  0  0
  1  2  1  0
  2  3  1  0
  4 23  1  0
  4 28  1  1
  4  5  1  0
  4  2  1  0
  5  6  2  0
  5 14  1  0
  6  7  1  0
  7  8  2  0
  8  9  1  0
  8 13  1  0
  9 10  2  0
 10 11  1  0
 10 19  1  0
 11 12  2  0
 11 15  1  0
 12 13  1  0
 13 14  2  0
 15 16  1  0
 16 17  1  0
 16 18  1  0
 19 20  1  0
 20 21  1  0
 20 22  1  0
 23 24  2  0
 23 27  1  0
 24 25  1  0
 25 26  2  0
 26 27  1  0
M  END
>  <DRUGBANK_ID>  (1) 
DB12275

>  <COMMON_NAME>  (1) 
Seviteronel

>  <CAS_NUMBER>  (1) 
1610537-15-9

>  <UNII>  (1) 
8S5OIN36X4

>  <SYNONYMS>  (1) 
Seviteronel

$$$$
