
     RDKit          3D

 24 27  0  0  0  0  0  0  0  0999 V2000
    1.4668   -0.2465    0.2296 C   0  0  0  0  0  0  0  0  0  0  0  0
    0.5918   -1.3328    0.1558 C   0  0  0  0  0  0  0  0  0  0  0  0
   -0.7955   -1.1664    0.2775 C   0  0  0  0  0  0  0  0  0  0  0  0
   -1.2807    0.1042    0.5313 C   0  0  0  0  0  0  0  0  0  0  0  0
   -0.3881    1.1634    0.7786 C   0  0  0  0  0  0  0  0  0  0  0  0
    0.9501    1.0437    0.3713 C   0  0  0  0  0  0  0  0  0  0  0  0
    1.7451    2.2427   -0.1732 C   0  0  0  0  0  0  0  0  0  0  0  0
    1.4149    2.8419   -1.5102 N   0  0  0  0  0  0  0  0  0  0  0  0
    0.0830    3.4716   -1.6406 C   0  0  0  0  0  0  0  0  0  0  0  0
   -1.0234    2.4416   -1.8926 C   0  0  0  0  0  0  0  0  0  0  0  0
   -0.7727    1.5141   -2.9511 O   0  0  0  0  0  0  0  0  0  0  0  0
    0.5138    0.8888   -2.7982 C   0  0  0  0  0  0  0  0  0  0  0  0
    1.6057    1.9519   -2.6776 C   0  0  0  0  0  0  0  0  0  0  0  0
   -1.7928   -2.2628    0.0790 C   0  0  0  0  0  0  0  0  0  0  0  0
   -2.9734   -2.0277   -0.0607 O   0  0  0  0  0  0  0  0  0  0  0  0
   -1.2647   -3.5357   -0.0261 N   0  0  0  0  0  0  0  0  0  0  0  0
   -0.3260   -4.0782    0.9671 C   0  0  0  0  0  0  0  0  0  0  0  0
    0.5903   -5.1194    0.3089 C   0  0  0  0  0  0  0  0  0  0  0  0
   -0.1905   -6.1694   -0.3716 N   0  0  0  0  0  0  0  0  0  0  0  0
   -1.0483   -5.5456   -1.4079 C   0  0  0  0  0  0  0  0  0  0  0  0
   -2.0131   -4.5104   -0.8206 C   0  0  0  0  0  0  0  0  0  0  0  0
   -0.9287   -7.0943    0.5306 C   0  0  0  0  0  0  0  0  0  0  0  0
   -2.0614   -6.7072    1.4570 C   0  0  0  0  0  0  0  0  0  0  0  0
   -0.7227   -7.0559    2.0315 C   0  0  0  0  0  0  0  0  0  0  0  0
  1  2  2  0
  1  6  1  0
  2  3  1  0
  3  4  2  0
  3 14  1  0
  4  5  1  0
  5  6  2  0
  6  7  1  0
  7  8  1  0
  8  9  1  0
  8 13  1  0
  9 10  1  0
 10 11  1  0
 11 12  1  0
 12 13  1  0
 14 15  2  0
 14 16  1  0
 16 17  1  0
 16 21  1  0
 17 18  1  0
 18 19  1  0
 19 20  1  0
 19 22  1  0
 20 21  1  0
 22 23  1  0
 22 24  1  0
 23 24  1  0
M  END
>  <DRUGBANK_ID>  (1) 
DB12299

>  <COMMON_NAME>  (1) 
Bavisant

>  <CAS_NUMBER>  (1) 
929622-08-2

>  <UNII>  (1) 
9827P7LFVH

>  <SYNONYMS>  (1) 
Bavisant

$$$$
