
     RDKit          3D

 12 12  0  0  0  0  0  0  0  0999 V2000
    0.8386   -0.0926   -0.0011 O   0  0  0  0  0  0  0  0  0  0  0  0
    0.2752   -1.2622   -0.3710 C   0  0  0  0  0  0  0  0  0  0  0  0
    0.9687   -2.2138   -0.6960 O   0  0  0  0  0  0  0  0  0  0  0  0
   -1.2378   -1.2347   -0.3521 C   0  0  0  0  0  0  0  0  0  0  0  0
   -1.7414   -0.9335    1.0312 C   0  0  0  0  0  0  0  0  0  0  0  0
   -1.8193    0.3244    1.4856 C   0  0  0  0  0  0  0  0  0  0  0  0
   -2.2510    0.5719    2.8700 C   0  0  0  0  0  0  0  0  0  0  0  0
   -2.2693    1.7079    3.3277 O   0  0  0  0  0  0  0  0  0  0  0  0
   -2.6078   -0.5315    3.5884 N   0  0  0  0  0  0  0  0  0  0  0  0
   -2.5858   -1.8155    3.1236 C   0  0  0  0  0  0  0  0  0  0  0  0
   -2.9383   -2.7677    3.8112 O   0  0  0  0  0  0  0  0  0  0  0  0
   -2.1387   -1.9748    1.8373 N   0  0  0  0  0  0  0  0  0  0  0  0
  1  2  1  0
  2  3  2  0
  2  4  1  0
  4  5  1  0
  5  6  2  0
  5 12  1  0
  6  7  1  0
  7  8  2  0
  7  9  1  0
  9 10  1  0
 10 11  2  0
 10 12  1  0
M  END
>  <DRUGBANK_ID>  (1) 
DB03048

>  <SECONDARY_ACCESSION_NUMBERS>  (1) 
EXPT03164

>  <COMMON_NAME>  (1) 
6-Carboxymethyluracil

>  <UNII>  (1) 
EF762EX2DY

$$$$
