912
     RDKit          3D

 33 35  0  0  1  0  0  0  0  0999 V2000
    5.9724   -3.6536   -0.8513 O   0  0  0  0  0  0  0  0  0  0  0  0
    5.6687   -4.4756    5.1469 O   0  0  0  0  0  0  0  0  0  0  0  0
    1.5066   -4.9784    4.8855 O   0  0  0  0  0  0  0  0  0  0  0  0
    3.3798   -5.4481    5.9956 O   0  0  0  0  0  0  0  0  0  0  0  0
    2.7712    1.5359    0.7098 N   0  0  0  0  0  0  0  0  0  0  0  0
    5.0317   -1.7128   -1.4121 N   0  0  0  0  0  0  0  0  0  0  0  0
    2.6097    1.5103    2.1556 C   0  0  0  0  0  0  0  0  0  0  0  0
    3.6294    2.6162    0.3551 C   0  0  0  0  0  0  0  0  0  0  0  0
    2.2135    2.9565    2.5934 C   0  0  0  0  0  0  0  0  0  0  0  0
    3.3174    4.0395    0.6712 C   0  0  0  0  0  0  0  0  0  0  0  0
    3.1714    4.0893    2.1573 C   0  0  0  0  0  0  0  0  0  0  0  0
    4.5174   -0.3530   -1.2319 C   0  0  2  0  0  0  0  0  0  0  0  0
    2.2764    0.6150   -0.2081 C   0  0  0  0  0  0  0  0  0  0  0  0
    2.9948   -0.2935   -1.0704 C   0  0  0  0  0  0  0  0  0  0  0  0
    5.1295    0.4991   -2.4029 C   0  0  0  0  0  0  0  0  0  0  0  0
    4.9364    1.9757   -2.1728 C   0  0  0  0  0  0  0  0  0  0  0  0
    0.8796    0.6224   -0.3652 C   0  0  0  0  0  0  0  0  0  0  0  0
    2.2728   -1.2157   -1.8820 C   0  0  0  0  0  0  0  0  0  0  0  0
    5.8332    2.3418   -0.9694 C   0  0  0  0  0  0  0  0  0  0  0  0
    5.1928    3.0639   -3.1793 C   0  0  0  0  0  0  0  0  0  0  0  0
    0.1939   -0.2963   -1.1685 C   0  0  0  0  0  0  0  0  0  0  0  0
    0.8883   -1.2276   -1.9186 C   0  0  0  0  0  0  0  0  0  0  0  0
    5.6165   -2.5287   -0.4969 C   0  0  0  0  0  0  0  0  0  0  0  0
    5.8149   -2.0339    0.9181 C   0  0  0  0  0  0  0  0  0  0  0  0
    5.0145   -2.7979    1.9292 C   0  0  0  0  0  0  0  0  0  0  0  0
    5.6630   -3.2469    3.0708 C   0  0  0  0  0  0  0  0  0  0  0  0
    3.6387   -2.9562    1.8321 C   0  0  0  0  0  0  0  0  0  0  0  0
    4.9947   -3.9478    4.0779 C   0  0  0  0  0  0  0  0  0  0  0  0
    2.9295   -3.5453    2.8811 C   0  0  0  0  0  0  0  0  0  0  0  0
    3.5946   -4.1098    3.9892 C   0  0  0  0  0  0  0  0  0  0  0  0
    2.8438   -4.8853    5.0334 C   0  0  0  0  0  0  0  0  0  0  0  0
    7.0892   -4.3200    5.2213 C   0  0  0  0  0  0  0  0  0  0  0  0
    7.8288   -5.1480    4.1731 C   0  0  0  0  0  0  0  0  0  0  0  0
  1 23  2  0
  2 28  1  0
  2 32  1  0
  3 31  1  0
  4 31  2  0
  5  7  1  0
  5  8  1  0
  5 13  1  0
  6 23  1  0
  7  9  1  0
  8 10  1  0
  9 11  1  0
 10 11  1  0
 12 15  1  6
 12 14  1  0
 12  6  1  0
 13 14  1  0
 13 17  2  0
 14 18  2  0
 15 16  1  0
 16 19  1  0
 16 20  1  0
 17 21  1  0
 18 22  1  0
 21 22  2  0
 23 24  1  0
 24 25  1  0
 25 26  2  0
 25 27  1  0
 26 28  1  0
 27 29  2  0
 28 30  2  0
 29 30  1  0
 30 31  1  0
 32 33  1  0
M  END
>  <DRUGBANK_ID>  (1) 
DB00912

>  <SECONDARY_ACCESSION_NUMBERS>  (1) 
APRD00439

>  <COMMON_NAME>  (1) 
Repaglinide

>  <CAS_NUMBER>  (1) 
135062-02-1

>  <UNII>  (1) 
668Z8C33LU

>  <SYNONYMS>  (1) 
Repaglinida; Repaglinide; Repaglinidum

$$$$
