
     RDKit          3D

 32 35  0  0  0  0  0  0  0  0999 V2000
   -1.6161    0.0554   -0.6459 C   0  0  0  0  0  0  0  0  0  0  0  0
   -0.4556   -0.6456   -0.7666 C   0  0  0  0  0  0  0  0  0  0  0  0
   -1.1840   -1.7617   -0.1533 C   0  0  0  0  0  0  0  0  0  0  0  0
   -1.8364   -2.5263   -1.2563 C   0  0  0  0  0  0  0  0  0  0  0  0
   -2.9872   -1.9446   -1.6745 C   0  0  0  0  0  0  0  0  0  0  0  0
   -4.0069   -2.7267   -2.5105 C   0  0  0  0  0  0  0  0  0  0  0  0
   -3.2884   -0.6060   -1.0144 C   0  0  2  0  0  0  0  0  0  0  0  0
   -6.8335   -0.2929    0.8558 C   0  0  0  0  0  0  0  0  0  0  0  0
   -7.9010   -0.9307    0.0142 C   0  0  1  0  0  0  0  0  0  0  0  0
   -8.1314   -1.8558   -0.9314 C   0  0  1  0  0  0  0  0  0  0  0  0
   -9.6392   -0.6932   -0.2398 C   0  0  0  0  0  0  0  0  0  0  0  0
   -9.0342   -1.8644    1.0152 C   0  0  1  0  0  0  0  0  0  0  0  0
   -8.2159   -0.0989   -1.6580 C   0  0  0  0  0  0  0  0  0  0  0  0
   -3.5020    0.7638   -1.6131 C   0  0  0  0  0  0  0  0  0  0  0  0
   -1.6016   -1.6687    1.0051 O   0  0  0  0  0  0  0  0  0  0  0  0
   -4.9671   -1.0184   -0.4419 C   0  0  1  0  0  0  0  0  0  0  0  0
   -6.2284   -1.8361   -1.4237 C   0  0  1  0  0  0  0  0  0  0  0  0
   -5.3906   -3.1462   -1.7914 C   0  0  0  0  0  0  0  0  0  0  0  0
   -9.6313   -2.9637    3.2170 C   0  0  0  0  0  0  0  0  0  0  0  0
   -8.5476   -2.6034    2.2325 C   0  0  0  0  0  0  0  0  0  0  0  0
   -4.7865   -1.9515    0.5708 F   0  0  0  0  0  0  0  0  0  0  0  0
   -5.6319    0.1810    0.1590 C   0  0  1  0  0  0  0  0  0  0  0  0
   -5.9876    1.2603   -0.7000 O   0  0  0  0  0  0  0  0  0  0  0  0
   -9.9000   -0.7512    1.3158 C   0  0  1  0  0  0  0  0  0  0  0  0
   -9.2833    0.3015    2.2529 C   0  0  0  0  0  0  0  0  0  0  0  0
   -9.9663   -2.8035    0.2568 O   0  0  0  0  0  0  0  0  0  0  0  0
   -7.3826   -2.9757    2.3777 O   0  0  0  0  0  0  0  0  0  0  0  0
   -9.8368   -4.3475    3.2098 O   0  0  0  0  0  0  0  0  0  0  0  0
  -10.3409   -5.0306    1.7025 P   0  0  0  0  0  0  0  0  0  0  0  0
  -11.5617   -3.9641    1.5570 O   0  0  0  0  0  0  0  0  0  0  0  0
   -9.0050   -4.8311    1.0247 O   0  0  0  0  0  0  0  0  0  0  0  0
  -10.8451   -5.7136    0.1951 O   0  0  0  0  0  0  0  0  0  0  0  0
  1  7  1  0
  2  1  2  0
  3  2  1  0
  3  4  1  0
  3 15  2  0
  4  5  2  0
  5  7  1  0
  6  5  1  0
  6 18  1  0
  7 16  1  0
  7 14  1  6
  8  9  1  0
  9 13  1  6
 10  9  1  0
 10 11  1  6
 12  9  1  0
 12 26  1  6
 12 20  1  0
 16 21  1  1
 17 10  1  0
 17 16  1  0
 17 18  1  1
 19 28  1  0
 19 20  1  0
 20 27  2  0
 22  8  1  0
 22 16  1  0
 22 23  1  6
 24 11  1  0
 24 12  1  0
 24 25  1  1
 28 29  1  0
 29 30  1  0
 29 31  2  0
 29 32  1  0
M  END
>  <DRUGBANK_ID>  (1) 
DB14669

>  <SECONDARY_ACCESSION_NUMBERS>  (1) 
DBSALT002245

>  <COMMON_NAME>  (1) 
Betamethasone phosphate

>  <CAS_NUMBER>  (1) 
360-63-4

>  <UNII>  (1) 
YJO1F9W10R

>  <SYNONYMS>  (1) 
Betamethasone 21-(dihydrogen phosphate); Betamethasone 21-phosphate; Betamethasone dihydrogen phosphate

$$$$
