
     RDKit          3D

 17 17  0  0  0  0  0  0  0  0999 V2000
    1.1452   -0.1752   -0.1857 C   0  0  0  0  0  0  0  0  0  0  0  0
   -1.5189   -1.4508   -0.1944 C   0  0  0  0  0  0  0  0  0  0  0  0
    1.4423    1.5994    4.0212 C   0  0  0  0  0  0  0  0  0  0  0  0
    1.1674    2.2119    1.7548 C   0  0  0  0  0  0  0  0  0  0  0  0
   -0.7177   -2.1885    4.6706 C   0  0  0  0  0  0  0  0  0  0  0  0
   -1.5384    0.0141    4.1479 C   0  0  0  0  0  0  0  0  0  0  0  0
   -0.3370   -1.7331    5.9382 C   0  0  0  0  0  0  0  0  0  0  0  0
   -1.1672    0.4675    5.4116 C   0  0  0  0  0  0  0  0  0  0  0  0
   -1.5555   -1.7353    2.3065 C   0  0  0  0  0  0  0  0  0  0  0  0
    1.2785   -0.1729    2.3551 C   0  0  0  0  0  0  0  0  0  0  0  0
    0.5888   -0.8081    1.1036 C   0  0  0  0  0  0  0  0  0  0  0  0
   -1.2938   -1.3000    3.7367 C   0  0  0  0  0  0  0  0  0  0  0  0
   -0.5497   -0.4102    6.3036 C   0  0  0  0  0  0  0  0  0  0  0  0
   -0.9828   -0.8620    1.1293 C   0  0  0  0  0  0  0  0  0  0  0  0
    0.0597    0.1956    7.7937 Cl  0  0  0  0  0  0  0  0  0  0  0  0
    0.8788    1.1871    2.7419 N   0  0  0  0  0  0  0  0  0  0  0  0
   -1.5367    0.4592    1.1332 O   0  0  0  0  0  0  0  0  0  0  0  0
  7  5  2  0
  8  6  1  0
 11  1  1  0
 11 10  1  0
 12  5  1  0
 12  6  2  0
 12  9  1  0
 13  7  1  0
 13  8  2  0
 14  2  1  0
 14  9  1  0
 14 11  1  0
 15 13  1  0
 16  3  1  0
 16  4  1  0
 16 10  1  0
 17 14  1  0
M  END
>  <DRUGBANK_ID>  (1) 
DB09004

>  <COMMON_NAME>  (1) 
Clobutinol

>  <CAS_NUMBER>  (1) 
14860-49-2

>  <UNII>  (1) 
1NY2IX043A

>  <SYNONYMS>  (1) 
Clobutinol

$$$$
