
     RDKit          3D

 12 12  0  0  1  0  0  0  0  0999 V2000
    0.8340    0.0405   -0.0878 C   0  0  0  0  0  0  0  0  0  0  0  0
   -1.4359    1.0488   -4.1793 C   0  0  0  0  0  0  0  0  0  0  0  0
   -1.5227   -0.0813   -2.0671 C   0  0  0  0  0  0  0  0  0  0  0  0
    0.3954    1.1748   -0.9782 C   0  0  0  0  0  0  0  0  0  0  0  0
   -1.7776   -0.3022   -3.5571 C   0  0  2  0  0  0  0  0  0  0  0  0
   -0.2425    1.5367   -3.3404 C   0  0  1  0  0  0  0  0  0  0  0  0
   -0.1298    3.0569   -3.3458 C   0  0  0  0  0  0  0  0  0  0  0  0
   -0.4352    0.8894   -2.0338 N   0  0  0  0  0  0  0  0  0  0  0  0
    0.8496    2.3047   -0.8005 O   0  0  0  0  0  0  0  0  0  0  0  0
   -0.9084   -1.3115   -4.0708 O   0  0  0  0  0  0  0  0  0  0  0  0
    0.7952    3.6901   -3.8434 O   0  0  0  0  0  0  0  0  0  0  0  0
   -1.1848    3.6987   -2.8094 O   0  0  0  0  0  0  0  0  0  0  0  0
  4  1  1  0
  5  2  1  0
  5  3  1  0
  5 10  1  6
  6  2  1  0
  6  7  1  1
  8  3  1  0
  8  4  1  0
  8  6  1  0
  9  4  2  0
 11  7  2  0
 12  7  1  0
M  END
>  <DRUGBANK_ID>  (1) 
DB13363

>  <COMMON_NAME>  (1) 
Oxaceprol

>  <CAS_NUMBER>  (1) 
33996-33-7

>  <UNII>  (1) 
Q0XV76B96L

>  <SYNONYMS>  (1) 
Oxaceprol

$$$$
