
     RDKit          3D

 32 35  0  0  0  0  0  0  0  0999 V2000
   -0.0385    1.2512    0.0122 C   0  0  1  0  0  0  0  0  0  0  0  0
    1.7506    1.8372    0.2008 O   0  0  0  0  0  0  0  0  0  0  0  0
    0.0068   -0.6428    0.6624 C   0  0  2  0  0  0  0  0  0  0  0  0
    2.9535    0.2597    0.2147 C   0  0  2  0  0  0  0  0  0  0  0  0
    1.7874   -1.3759    0.1101 C   0  0  2  0  0  0  0  0  0  0  0  0
   -1.1415   -1.4334    0.4923 O   0  0  0  0  0  0  0  0  0  0  0  0
   -1.3008    1.7440    0.6241 C   0  0  0  0  0  0  0  0  0  0  0  0
   -2.3692    0.8821    0.1500 O   0  0  0  0  0  0  0  0  0  0  0  0
    4.1191   -1.0101    3.1918 C   0  0  0  0  0  0  0  0  0  0  0  0
    3.9842   -1.2280    1.8433 C   0  0  0  0  0  0  0  0  0  0  0  0
    5.2970   -1.5421    3.7548 C   0  0  0  0  0  0  0  0  0  0  0  0
    4.5858   -2.1404    1.0623 N   0  0  0  0  0  0  0  0  0  0  0  0
    5.9470   -2.5218    3.0343 N   0  0  0  0  0  0  0  0  0  0  0  0
    5.5063   -2.8191    1.7790 C   0  0  0  0  0  0  0  0  0  0  0  0
    3.3425   -0.0700    1.4860 N   0  0  0  0  0  0  0  0  0  0  0  0
    2.9096    0.6620    2.5019 C   0  0  0  0  0  0  0  0  0  0  0  0
    3.1908   -0.0321    3.5619 N   0  0  0  0  0  0  0  0  0  0  0  0
   -3.6537   -1.4313   -0.4837 O   0  0  0  0  0  0  0  0  0  0  0  0
   -2.3877   -0.7000   -0.2268 P   0  0  2  0  0  0  0  0  0  0  0  0
   -1.6464   -0.6888   -1.6249 O   0  0  0  0  0  0  0  0  0  0  0  0
    5.7960    0.2943    5.4445 C   0  0  0  0  0  0  0  0  0  0  0  0
    4.9071    1.3369    4.8218 C   0  0  0  0  0  0  0  0  0  0  0  0
    5.4295    1.8987    3.4465 C   0  0  0  0  0  0  0  0  0  0  0  0
    6.0335    0.9920    2.3673 C   0  0  0  0  0  0  0  0  0  0  0  0
    2.3534   -1.2617   -2.5541 C   0  0  0  0  0  0  0  0  0  0  0  0
    1.9681   -1.8845   -1.3450 O   0  0  0  0  0  0  0  0  0  0  0  0
    2.8037    0.2541   -2.6576 C   0  0  0  0  0  0  0  0  0  0  0  0
    1.7532    1.1741   -2.1376 C   0  0  0  0  0  0  0  0  0  0  0  0
    1.2655    0.3138   -1.0651 C   0  0  0  0  0  0  0  0  0  0  0  0
    2.2155   -1.8786   -3.6059 O   0  0  0  0  0  0  0  0  0  0  0  0
    5.9775   -0.9414    4.8495 N   0  0  0  0  0  0  0  0  0  0  0  0
    6.3758    0.5760    6.4963 O   0  0  0  0  0  0  0  0  0  0  0  0
  1  2  1  0
  1  3  1  0
  1  7  1  1
  2  4  1  0
  3  5  1  0
  3  6  1  6
  4  5  1  0
  4 15  1  1
  5 26  1  6
  6 19  1  0
  8  7  1  0
  9 11  2  0
  9 10  1  0
  9 17  1  0
 10 12  2  0
 10 15  1  0
 11 13  1  0
 12 14  1  0
 13 14  2  0
 16 15  1  0
 17 16  2  0
 19  8  1  0
 19 18  2  0
 19 20  1  6
 21 32  2  0
 22 21  1  0
 23 22  1  0
 24 23  1  0
 25 30  2  0
 26 25  1  0
 27 25  1  0
 28 27  1  0
 29 28  1  0
 31 11  1  0
 31 21  1  0
M  END
>  <DRUGBANK_ID>  (1) 
DB13242

>  <COMMON_NAME>  (1) 
Bucladesine

>  <CAS_NUMBER>  (1) 
362-74-3

>  <UNII>  (1) 
63X7MBT2LQ

>  <SYNONYMS>  (1) 
3',5'-cyclic AMP dibutyrate; bucladesina; Bucladesine; dibutyryl 3',5'-cyclic AMP; dibutyryl adenosine 3',5'-cyclic phosphate; dibutyryl adenosine 3',5'-monophosphate; dibutyryl cAMP; dibutyryl cyclic 3',5'-adenylic acid; dibutyryl cyclic adenosine 3',5'-monophosphate; dibutyryl cyclic AMP; dibutyryl-3',5'-AMP; dibutyryladenosine 3',5'-cyclic monophosphate; dibutyryladenosine cyclic monophosphate

$$$$
