
     RDKit          3D

 34 38  0  0  0  0  0  0  0  0999 V2000
   -8.4295   -3.2852   14.3337 C   0  0  0  0  0  0  0  0  0  0  0  0
   -7.3478   -4.2500   14.1868 N   0  0  0  0  0  0  0  0  0  0  0  0
   -6.0698   -3.9741   14.8197 C   0  0  0  0  0  0  0  0  0  0  0  0
   -7.5316   -5.3308   13.3233 C   0  0  0  0  0  0  0  0  0  0  0  0
   -8.1176   -5.0877   12.0626 C   0  0  0  0  0  0  0  0  0  0  0  0
   -8.4785   -6.1245   11.2414 C   0  0  0  0  0  0  0  0  0  0  0  0
   -8.3271   -7.4093   11.7239 C   0  0  0  0  0  0  0  0  0  0  0  0
   -7.5066   -7.7563   12.8182 C   0  0  0  0  0  0  0  0  0  0  0  0
   -7.1719   -6.6858   13.6742 C   0  0  0  0  0  0  0  0  0  0  0  0
   -6.5652   -7.0499   14.8959 C   0  0  0  0  0  0  0  0  0  0  0  0
   -6.1167   -8.3284   15.2030 C   0  0  0  0  0  0  0  0  0  0  0  0
   -6.3320   -9.3497   14.3055 C   0  0  0  0  0  0  0  0  0  0  0  0
   -7.0397   -9.0838   13.1255 C   0  0  0  0  0  0  0  0  0  0  0  0
   -7.2043  -10.5017   12.0468 S   0  0  0  0  0  0  0  0  0  0  0  0
   -5.8893  -11.0648   11.8250 O   0  0  0  0  0  0  0  0  0  0  0  0
   -8.2534  -11.3390   12.5840 O   0  0  0  0  0  0  0  0  0  0  0  0
   -7.7570   -9.9312   10.5574 N   0  0  0  0  0  0  0  0  0  0  0  0
   -6.9645   -8.9177    9.8261 C   0  0  0  0  0  0  0  0  0  0  0  0
   -5.6573   -9.4757    9.3868 C   0  0  0  0  0  0  0  0  0  0  0  0
   -5.9309  -10.6712    8.5125 C   0  0  0  0  0  0  0  0  0  0  0  0
   -6.7568  -10.2625    7.3256 C   0  0  0  0  0  0  0  0  0  0  0  0
   -5.9476   -9.5557    6.4365 N   0  0  0  0  0  0  0  0  0  0  0  0
   -5.4454  -10.1277    5.3147 C   0  0  0  0  0  0  0  0  0  0  0  0
   -4.6811   -9.3131    4.7562 O   0  0  0  0  0  0  0  0  0  0  0  0
   -6.1037  -11.5168    4.4490 C   0  0  1  0  0  0  0  0  0  0  0  0
   -7.4149  -10.7418    4.1076 C   0  0  0  0  0  0  0  0  0  0  0  0
   -8.0350  -11.9412    3.5697 C   0  0  2  0  0  0  0  0  0  0  0  0
   -7.8848  -12.6584    5.1189 C   0  0  0  0  0  0  0  0  0  0  0  0
   -5.9530  -12.9196    5.4904 C   0  0  2  0  0  0  0  0  0  0  0  0
   -4.8409  -13.3754    3.9840 C   0  0  0  0  0  0  0  0  0  0  0  0
   -5.4631  -12.5735    2.6326 C   0  0  1  0  0  0  0  0  0  0  0  0
   -7.0598  -12.3735    2.3301 C   0  0  0  0  0  0  0  0  0  0  0  0
   -5.1117  -11.3148    3.2666 C   0  0  0  0  0  0  0  0  0  0  0  0
   -6.6382  -13.5400    4.4688 C   0  0  0  0  0  0  0  0  0  0  0  0
  1  2  1  0
  2  3  1  0
  2  4  1  0
  4  5  2  0
  4  9  1  0
  5  6  1  0
  6  7  2  0
  7  8  1  0
  8  9  2  0
  8 13  1  0
  9 10  1  0
 10 11  2  0
 11 12  1  0
 12 13  2  0
 13 14  1  0
 14 15  2  0
 14 16  2  0
 14 17  1  0
 17 18  1  0
 18 19  1  0
 19 20  1  0
 20 21  1  0
 21 22  1  0
 22 23  1  0
 23 24  2  0
 25 26  1  0
 25 34  1  0
 25 33  1  0
 25 23  1  1
 27 26  1  1
 27 28  1  0
 27 32  1  0
 29 28  1  6
 29 34  1  0
 29 30  1  0
 31 30  1  1
 31 32  1  0
 31 33  1  0
M  END
>  <DRUGBANK_ID>  (1) 
DB04032

>  <SECONDARY_ACCESSION_NUMBERS>  (1) 
EXPT01125

>  <COMMON_NAME>  (1) 
Adamantane-1-Carboxylic Acid-5-Dimethylamino-Naphthalene-1-Sulfonylamino-Butyl-Amide

$$$$
