
     RDKit          3D

 12 12  0  0  0  0  0  0  0  0999 V2000
    0.9383   -1.5095    2.0139 N   0  0  0  0  0  0  0  0  0  0  0  0
    0.4651   -1.3321    0.6166 C   0  0  1  0  0  0  0  0  0  0  0  0
   -1.0681   -1.3051    0.5649 C   0  0  0  0  0  0  0  0  0  0  0  0
   -1.5834   -1.1087   -0.8191 C   0  0  0  0  0  0  0  0  0  0  0  0
   -1.7621    0.0851   -1.4828 C   0  0  0  0  0  0  0  0  0  0  0  0
   -2.3014   -1.6148   -2.7728 C   0  0  0  0  0  0  0  0  0  0  0  0
   -1.9055   -2.1618   -1.6417 N   0  0  0  0  0  0  0  0  0  0  0  0
    1.6572   -0.1465   -1.1437 O   0  0  0  0  0  0  0  0  0  0  0  0
    1.0563   -0.0216    0.0627 C   0  0  0  0  0  0  0  0  0  0  0  0
    1.0287    1.0469    0.6640 O   0  0  0  0  0  0  0  0  0  0  0  0
   -2.1994   -0.2559   -2.7268 N   0  0  0  0  0  0  0  0  0  0  0  0
   -2.4667    0.6731   -3.7937 C   0  0  0  0  0  0  0  0  0  0  0  0
  2  9  1  0
  2  1  1  1
  3  2  1  0
  4  3  1  0
  5  4  2  0
  6 11  1  0
  6  7  2  0
  7  4  1  0
  9  8  1  0
 10  9  2  0
 11  5  1  0
 11 12  1  0
M  END
>  <DRUGBANK_ID>  (1) 
DB04151

>  <SECONDARY_ACCESSION_NUMBERS>  (1) 
EXPT01748

>  <COMMON_NAME>  (1) 
1-Methylhistidine

>  <CAS_NUMBER>  (1) 
332-80-9

>  <UNII>  (1) 
583O01BJ32

>  <SYNONYMS>  (1) 
(2S)-2-amino-3-(1-methyl-1H-imidazol-4-yl)propanoic acid; 1-methyl-L-histidine; N(tele)-methyl-L-histidine; Pi-methylhistidine

$$$$
