
     RDKit          3D

 26 28  0  0  0  0  0  0  0  0999 V2000
    0.7764   -0.2827   -0.5252 O   0  0  0  0  0  0  0  0  0  0  0  0
    5.5600    1.2598    1.0382 N   0  0  0  0  0  0  0  0  0  0  0  0
    2.9510   -0.2191   -1.3832 N   0  0  0  0  0  0  0  0  0  0  0  0
    4.4972   -0.1322   -1.3896 C   0  0  0  0  0  0  0  0  0  0  0  0
    5.2725   -0.9436   -0.3530 C   0  0  0  0  0  0  0  0  0  0  0  0
    5.0880    1.2893   -1.4254 C   0  0  0  0  0  0  0  0  0  0  0  0
    5.3990   -0.2053    0.9636 C   0  0  0  0  0  0  0  0  0  0  0  0
    4.9919    2.0265   -0.0896 C   0  0  0  0  0  0  0  0  0  0  0  0
    5.3774    1.8746    2.4167 C   0  0  0  0  0  0  0  0  0  0  0  0
    4.0002    1.9998    3.2072 C   0  0  0  0  0  0  0  0  0  0  0  0
    2.3518   -0.3765   -2.6627 C   0  0  0  0  0  0  0  0  0  0  0  0
    1.9543    0.0055   -0.4201 C   0  0  0  0  0  0  0  0  0  0  0  0
    2.3249    0.5989    0.8545 C   0  0  0  0  0  0  0  0  0  0  0  0
    3.2445    0.6668    3.6447 C   0  0  0  0  0  0  0  0  0  0  0  0
    1.2766    0.4661   -3.0051 C   0  0  0  0  0  0  0  0  0  0  0  0
    2.7499   -1.3899   -3.5227 C   0  0  0  0  0  0  0  0  0  0  0  0
    1.7254    1.9214    1.2252 C   0  0  0  0  0  0  0  0  0  0  0  0
    3.9014   -0.5472    3.4458 C   0  0  0  0  0  0  0  0  0  0  0  0
    1.8784    0.5023    3.9942 C   0  0  0  0  0  0  0  0  0  0  0  0
    0.5882    0.2935   -4.1855 C   0  0  0  0  0  0  0  0  0  0  0  0
    2.1075   -1.5095   -4.7484 C   0  0  0  0  0  0  0  0  0  0  0  0
    0.2810    1.9490    1.5253 C   0  0  0  0  0  0  0  0  0  0  0  0
    1.0173   -0.6898   -5.0644 C   0  0  0  0  0  0  0  0  0  0  0  0
    3.2348   -1.7601    3.1401 C   0  0  0  0  0  0  0  0  0  0  0  0
    1.2115   -0.7655    3.8538 C   0  0  0  0  0  0  0  0  0  0  0  0
    1.8756   -1.8802    3.3458 C   0  0  0  0  0  0  0  0  0  0  0  0
  1 12  2  0
  2  7  1  0
  2  8  1  0
  2  9  1  0
  3  4  1  0
  3 11  1  0
  3 12  1  0
  4  5  1  0
  4  6  1  0
  5  7  1  0
  6  8  1  0
  9 10  1  0
 10 14  1  0
 11 15  2  0
 11 16  1  0
 12 13  1  0
 13 17  1  0
 14 18  2  0
 14 19  1  0
 15 20  1  0
 16 21  2  0
 17 22  1  0
 18 24  1  0
 19 25  2  0
 20 23  2  0
 21 23  1  0
 24 26  2  0
 25 26  1  0
M  END
>  <DRUGBANK_ID>  (1) 
DB09173

>  <COMMON_NAME>  (1) 
Butyrfentanyl

>  <CAS_NUMBER>  (1) 
1169-70-6

>  <UNII>  (1) 
07V1H7R6ZN

>  <SYNONYMS>  (1) 
Butyr-fentanyl; Butyrylfentanyl

$$$$
