RDA
     RDKit          3D

 28 29  0  0  0  0  0  0  0  0999 V2000
    1.1678   -0.0938    0.2395 C   0  0  0  0  0  0  0  0  0  0  0  0
    1.2020    0.5196    1.6171 O   0  0  0  0  0  0  0  0  0  0  0  0
    1.3489   -0.2242    2.8230 C   0  0  0  0  0  0  0  0  0  0  0  0
    1.9810   -1.3152    2.6875 O   0  0  0  0  0  0  0  0  0  0  0  0
    0.6010    0.1912    4.4146 C   0  0  0  0  0  0  0  0  0  0  0  0
   -0.8895    0.4378    4.7397 C   0  0  0  0  0  0  0  0  0  0  0  0
   -1.9304   -0.1226    4.0250 O   0  0  0  0  0  0  0  0  0  0  0  0
   -1.4284    1.4721    5.5985 C   0  0  0  0  0  0  0  0  0  0  0  0
   -0.5789    2.0624    6.5007 C   0  0  0  0  0  0  0  0  0  0  0  0
   -1.0748    3.2060    7.1005 O   0  0  0  0  0  0  0  0  0  0  0  0
    0.7884    1.6123    6.5310 C   0  0  0  0  0  0  0  0  0  0  0  0
    1.6802    2.2263    7.8882 Cl  0  0  0  0  0  0  0  0  0  0  0  0
    1.4441    0.8199    5.3996 C   0  0  0  0  0  0  0  0  0  0  0  0
    2.9406    0.9959    5.0144 C   0  0  0  0  0  0  0  0  0  0  0  0
    3.5398    2.3690    4.6022 C   0  0  0  0  0  0  0  0  0  0  0  0
    3.1639    3.4627    5.5345 C   0  0  0  0  0  0  0  0  0  0  0  0
    3.8961    3.7475    6.4870 O   0  0  0  0  0  0  0  0  0  0  0  0
    1.9430    4.0999    5.3304 N   0  0  0  0  0  0  0  0  0  0  0  0
    0.9632    3.9875    4.2248 C   0  0  0  0  0  0  0  0  0  0  0  0
    0.7034    2.7912    3.5144 C   0  0  0  0  0  0  0  0  0  0  0  0
   -0.3813    2.3512    2.6322 C   0  0  0  0  0  0  0  0  0  0  0  0
   -0.7796    1.0664    2.3030 O   0  0  0  0  0  0  0  0  0  0  0  0
   -1.4614    3.1552    2.5578 C   0  0  0  0  0  0  0  0  0  0  0  0
   -2.6556    2.7422    1.9696 O   0  0  0  0  0  0  0  0  0  0  0  0
   -2.8605    1.4227    1.3313 C   0  0  0  0  0  0  0  0  0  0  0  0
   -1.3228    4.3695    3.3085 C   0  0  0  0  0  0  0  0  0  0  0  0
   -0.1672    4.7649    4.1445 C   0  0  0  0  0  0  0  0  0  0  0  0
   -0.2520    5.8852    4.9326 O   0  0  0  0  0  0  0  0  0  0  0  0
  1  2  1  0
  2  3  1  0
  3  4  2  0
  3  5  1  0
  5  6  2  0
  5 13  1  0
  6  7  1  0
  6  8  1  0
  8  9  2  0
  9 10  1  0
  9 11  1  0
 11 12  1  0
 11 13  2  0
 13 14  1  0
 14 15  1  0
 15 16  1  0
 16 17  2  0
 16 18  1  0
 18 19  1  0
 19 20  2  0
 19 27  1  0
 20 21  1  0
 21 22  1  0
 21 23  2  0
 23 24  1  0
 23 26  1  0
 24 25  1  0
 26 27  2  0
 27 28  1  0
M  END
>  <DRUGBANK_ID>  (1) 
DB08464

>  <COMMON_NAME>  (1) 
METHYL 3-CHLORO-2-{3-[(2,5-DIHYDROXY-4-METHOXYPHENYL)AMINO]-3-OXOPROPYL}-4,6-DIHYDROXYBENZOATE

$$$$
