
     RDKit          3D

 31 34  0  0  0  0  0  0  0  0999 V2000
    2.0198   -0.3736    0.0402 C   0  0  0  0  0  0  0  0  0  0  0  0
    1.7158    1.1590   -0.2394 C   0  0  0  0  0  0  0  0  0  0  0  0
    0.4108    1.6242    0.1494 O   0  0  0  0  0  0  0  0  0  0  0  0
    0.9258   -1.1844    0.1581 N   0  0  0  0  0  0  0  0  0  0  0  0
   -0.5905    0.6980    0.1258 C   0  0  0  0  0  0  0  0  0  0  0  0
   -0.3684   -0.6812    0.1179 C   0  0  0  0  0  0  0  0  0  0  0  0
    2.7173    2.0044    0.5542 C   0  0  0  0  0  0  0  0  0  0  0  0
    1.8130    1.4239   -1.7749 C   0  0  0  0  0  0  0  0  0  0  0  0
    3.1350   -0.8974    0.0686 O   0  0  0  0  0  0  0  0  0  0  0  0
    1.0722    1.1431   -6.8406 C   0  0  0  0  0  0  0  0  0  0  0  0
    7.0481    4.2118    2.0757 C   0  0  0  0  0  0  0  0  0  0  0  0
    1.7894    1.9936   -5.9920 O   0  0  0  0  0  0  0  0  0  0  0  0
    5.6867    4.4882    2.2515 O   0  0  0  0  0  0  0  0  0  0  0  0
    0.3081    0.2293   -6.5270 O   0  0  0  0  0  0  0  0  0  0  0  0
    7.5631    3.3437    1.3696 O   0  0  0  0  0  0  0  0  0  0  0  0
    4.0687    1.8060    0.2742 C   0  0  0  0  0  0  0  0  0  0  0  0
    2.3640    3.0295    1.4508 C   0  0  0  0  0  0  0  0  0  0  0  0
    0.9822    0.6792   -2.6119 C   0  0  0  0  0  0  0  0  0  0  0  0
    2.6287    2.3934   -2.3983 C   0  0  0  0  0  0  0  0  0  0  0  0
    1.7519    1.8263   -4.5853 C   0  0  0  0  0  0  0  0  0  0  0  0
    4.6952    3.6701    1.6524 C   0  0  0  0  0  0  0  0  0  0  0  0
    2.5890    2.6078   -3.7896 C   0  0  0  0  0  0  0  0  0  0  0  0
    5.0301    2.6403    0.7864 C   0  0  0  0  0  0  0  0  0  0  0  0
    3.3484    3.8881    1.9696 C   0  0  0  0  0  0  0  0  0  0  0  0
    0.9340    0.8912   -3.9742 C   0  0  0  0  0  0  0  0  0  0  0  0
   -1.8873    1.1988    0.0770 C   0  0  0  0  0  0  0  0  0  0  0  0
   -1.4358   -1.5648    0.0164 C   0  0  0  0  0  0  0  0  0  0  0  0
    7.9161    5.1122    2.8752 C   0  0  0  0  0  0  0  0  0  0  0  0
    1.3224    1.4353   -8.2763 C   0  0  0  0  0  0  0  0  0  0  0  0
   -2.9620    0.3157    0.0061 C   0  0  0  0  0  0  0  0  0  0  0  0
   -2.7352   -1.0620   -0.0347 C   0  0  0  0  0  0  0  0  0  0  0  0
  2  1  1  0
  3  2  1  0
  3  5  1  0
  4  1  1  0
  5  6  2  0
  6  4  1  0
  7  2  1  0
  8  2  1  0
  9  1  2  0
 10 12  1  0
 11 13  1  0
 12 20  1  0
 13 21  1  0
 14 10  2  0
 15 11  2  0
 16  7  2  0
 17  7  1  0
 18  8  2  0
 19  8  1  0
 20 22  1  0
 21 24  1  0
 22 19  2  0
 23 16  1  0
 23 21  2  0
 24 17  2  0
 25 18  1  0
 25 20  2  0
 26  5  1  0
 26 30  2  0
 27  6  1  0
 28 11  1  0
 29 10  1  0
 30 31  1  0
 31 27  2  0
M  END
>  <DRUGBANK_ID>  (1) 
DB14654

>  <SECONDARY_ACCESSION_NUMBERS>  (1) 
DBSALT001265

>  <COMMON_NAME>  (1) 
Bisoxatin acetate

>  <CAS_NUMBER>  (1) 
14008-48-1

>  <UNII>  (1) 
79W5LFS83K

>  <SYNONYMS>  (1) 
Bisoxatin acetate

$$$$
