
     RDKit          3D

 17 12  0  0  0  0  0  0  0  0999 V2000
    0.9344    0.0477   -0.0585 Al  0  0  0  0  0 15  0  0  0  0  0  0
    0.9312    0.0266   -0.0675 O   0  0  0  0  0  0  0  0  0  0  0  0
    2.6412    0.0266   -0.0675 S   0  0  0  0  0  0  0  0  0  0  0  0
    3.2112   -1.5756    0.1116 O   0  0  0  0  0  0  0  0  0  0  0  0
    3.1513    0.6048   -1.3895 O   0  0  0  0  0  0  0  0  0  0  0  0
    3.1513    0.8824    1.0942 O   0  0  0  0  0  0  0  0  0  0  0  0
    1.0554    0.0591   -0.0587 O   0  0  0  0  0  0  0  0  0  0  0  0
    2.7654    0.0591   -0.0587 S   0  0  0  0  0  0  0  0  0  0  0  0
    3.3354    1.6643   -0.2087 O   0  0  0  0  0  0  0  0  0  0  0  0
    3.2755   -0.5429    1.2527 O   0  0  0  0  0  0  0  0  0  0  0  0
    3.2755   -0.7755   -1.2357 O   0  0  0  0  0  0  0  0  0  0  0  0
    1.0757    0.0653    0.0005 Al  0  0  0  0  0 15  0  0  0  0  0  0
    0.9300    0.0608    0.0375 O   0  0  0  0  0  0  0  0  0  0  0  0
    2.6400    0.0608    0.0375 S   0  0  0  0  0  0  0  0  0  0  0  0
    3.2101   -0.6605    1.4794 O   0  0  0  0  0  0  0  0  0  0  0  0
    3.1502   -0.7340   -1.1668 O   0  0  0  0  0  0  0  0  0  0  0  0
    3.1502    1.5012   -0.0487 O   0  0  0  0  0  0  0  0  0  0  0  0
  2  3  1  0
  3  4  1  0
  3  5  2  0
  3  6  2  0
  7  8  1  0
  8  9  1  0
  8 10  2  0
  8 11  2  0
 13 14  1  0
 14 15  1  0
 14 16  2  0
 14 17  2  0
M  CHG  8   1   3   2  -1   4  -1   7  -1   9  -1  12   3  13  -1  15  -1
M  END
>  <DRUGBANK_ID>  (1) 
DB11239

>  <COMMON_NAME>  (1) 
Aluminum sulfate

>  <CAS_NUMBER>  (1) 
10043-01-3

>  <UNII>  (1) 
I7T908772F

>  <SYNONYMS>  (1) 
Aluminium sulfate; Aluminium sulfate anhydrous; Aluminum sulfate anhydrous; Aluminum sulphate anhydrous; Dialuminum sulfate; Dialuminum trisulfate

$$$$
