
     RDKit          3D

 32 35  0  0  0  0  0  0  0  0999 V2000
    1.3920   -0.2723    0.0575 C   0  0  0  0  0  0  0  0  0  0  0  0
    0.5177   -1.3551    0.0295 C   0  0  0  0  0  0  0  0  0  0  0  0
   -0.8656   -1.1503    0.0360 C   0  0  0  0  0  0  0  0  0  0  0  0
   -1.4000    0.1379    0.1378 C   0  0  0  0  0  0  0  0  0  0  0  0
   -0.4982    1.2080    0.2794 C   0  0  0  0  0  0  0  0  0  0  0  0
    0.8812    1.0131    0.1602 C   0  0  0  0  0  0  0  0  0  0  0  0
   -2.8933    0.3416   -0.0419 C   0  0  0  0  0  0  0  0  0  0  0  0
   -3.4474    1.2583    0.9255 N   0  0  0  0  0  0  0  0  0  0  0  0
   -3.9440    2.5277    0.7496 C   0  0  0  0  0  0  0  0  0  0  0  0
   -4.3325    3.1261    1.7350 O   0  0  0  0  0  0  0  0  0  0  0  0
   -4.0991    3.1407   -0.6472 C   0  0  0  0  0  0  0  0  0  0  0  0
   -2.8197    3.4159   -1.3828 C   0  0  0  0  0  0  0  0  0  0  0  0
   -2.2320    4.6663   -1.5158 C   0  0  0  0  0  0  0  0  0  0  0  0
   -0.9584    4.7578   -2.1193 C   0  0  0  0  0  0  0  0  0  0  0  0
   -0.2950    3.5895   -2.5232 C   0  0  0  0  0  0  0  0  0  0  0  0
   -1.0080    2.4189   -2.4063 C   0  0  0  0  0  0  0  0  0  0  0  0
   -2.2500    2.3311   -1.9265 N   0  0  0  0  0  0  0  0  0  0  0  0
    1.1024    3.3806   -2.8953 C   0  0  0  0  0  0  0  0  0  0  0  0
    2.1224    3.5956   -1.9628 C   0  0  0  0  0  0  0  0  0  0  0  0
    3.4723    3.2141   -2.2284 C   0  0  0  0  0  0  0  0  0  0  0  0
    3.8360    2.8109   -3.5480 C   0  0  0  0  0  0  0  0  0  0  0  0
    2.7923    2.4423   -4.4250 C   0  0  0  0  0  0  0  0  0  0  0  0
    1.4458    2.7318   -4.0971 C   0  0  0  0  0  0  0  0  0  0  0  0
    4.9979    3.2806   -4.2447 O   0  0  0  0  0  0  0  0  0  0  0  0
    5.9586    4.3501   -3.7905 C   0  0  0  0  0  0  0  0  0  0  0  0
    5.6488    6.0085   -3.8451 C   0  0  0  0  0  0  0  0  0  0  0  0
    4.4216    6.4810   -3.1494 N   0  0  0  0  0  0  0  0  0  0  0  0
    3.3702    5.6073   -3.5979 C   0  0  0  0  0  0  0  0  0  0  0  0
    2.9956    5.5373   -5.0605 C   0  0  0  0  0  0  0  0  0  0  0  0
    2.3380    6.7664   -5.2945 O   0  0  0  0  0  0  0  0  0  0  0  0
    3.2135    7.8329   -4.8794 C   0  0  0  0  0  0  0  0  0  0  0  0
    3.7555    7.7492   -3.4207 C   0  0  0  0  0  0  0  0  0  0  0  0
  1  2  2  0
  1  6  1  0
  2  3  1  0
  3  4  2  0
  4  5  1  0
  4  7  1  0
  5  6  2  0
  7  8  1  0
  8  9  1  0
  9 10  2  0
  9 11  1  0
 11 12  1  0
 12 13  2  0
 12 17  1  0
 13 14  1  0
 14 15  2  0
 15 16  1  0
 15 18  1  0
 16 17  2  0
 18 19  2  0
 18 23  1  0
 19 20  1  0
 20 21  2  0
 21 22  1  0
 21 24  1  0
 22 23  2  0
 24 25  1  0
 25 26  1  0
 26 27  1  0
 27 28  1  0
 27 32  1  0
 28 29  1  0
 29 30  1  0
 30 31  1  0
 31 32  1  0
M  END
>  <DRUGBANK_ID>  (1) 
DB06137

>  <COMMON_NAME>  (1) 
Tirbanibulin

>  <CAS_NUMBER>  (1) 
897016-82-9

>  <UNII>  (1) 
4V9848RS5G

>  <SYNONYMS>  (1) 
Tirbanibulin

$$$$
