
     RDKit          3D

 16 17  0  0  1  0  0  0  0  0999 V2000
    0.9423    0.2301    0.4881 N   0  0  0  0  0  0  0  0  0  0  0  0
    0.4759    1.5519    0.0453 C   0  0  1  0  0  0  0  0  0  0  0  0
    1.0675    2.0432   -1.2945 C   0  0  0  0  0  0  0  0  0  0  0  0
    0.7213    1.2469   -2.5265 C   0  0  0  0  0  0  0  0  0  0  0  0
    0.0873    1.7574   -3.6471 C   0  0  0  0  0  0  0  0  0  0  0  0
   -0.0983    0.7398   -4.5448 N   0  0  0  0  0  0  0  0  0  0  0  0
    0.3657   -0.4460   -4.0257 C   0  0  0  0  0  0  0  0  0  0  0  0
    0.9396   -0.1537   -2.7871 C   0  0  0  0  0  0  0  0  0  0  0  0
    1.5457   -1.2244   -2.0962 C   0  0  0  0  0  0  0  0  0  0  0  0
    1.4283   -2.5250   -2.5608 C   0  0  0  0  0  0  0  0  0  0  0  0
    1.8984   -3.5239   -1.8011 F   0  0  0  0  0  0  0  0  0  0  0  0
    0.8525   -2.7907   -3.7842 C   0  0  0  0  0  0  0  0  0  0  0  0
    0.3393   -1.7457   -4.5600 C   0  0  0  0  0  0  0  0  0  0  0  0
   -1.0608    1.5130    0.0041 C   0  0  0  0  0  0  0  0  0  0  0  0
   -1.6593    2.1730    1.0202 O   0  0  0  0  0  0  0  0  0  0  0  0
   -1.7174    0.8782   -0.8173 O   0  0  0  0  0  0  0  0  0  0  0  0
  2  1  1  6
  2  3  1  0
  2 14  1  0
  3  4  1  0
  4  5  2  0
  4  8  1  0
  5  6  1  0
  6  7  1  0
  7  8  2  0
  7 13  1  0
  8  9  1  0
  9 10  2  0
 10 11  1  0
 10 12  1  0
 12 13  2  0
 14 15  1  0
 14 16  2  0
M  END
>  <DRUGBANK_ID>  (1) 
DB03314

>  <SECONDARY_ACCESSION_NUMBERS>  (1) 
EXPT01505

>  <COMMON_NAME>  (1) 
5-fluorotryptophan

>  <CAS_NUMBER>  (1) 
16626-02-1

>  <UNII>  (1) 
17H03VO4KZ

>  <SYNONYMS>  (1) 
5-fluoro-L-tryptophan; Fluorotryptophane; L-5-fluorotryptophan

$$$$
