
     RDKit          3D

 28 31  0  0  0  0  0  0  0  0999 V2000
  -38.1216    2.4652    2.5122 C   0  0  2  0  0  0  0  0  0  0  0  0
  -37.0445   -0.3199    3.7543 C   0  0  1  0  0  0  0  0  0  0  0  0
  -36.6161   -1.9928    4.3933 C   0  0  1  0  0  0  0  0  0  0  0  0
  -38.8095    1.7763    3.6037 C   0  0  2  0  0  0  0  0  0  0  0  0
  -38.9463    4.0644    2.8755 C   0  0  2  0  0  0  0  0  0  0  0  0
  -37.1029    1.1109    4.2463 C   0  0  1  0  0  0  0  0  0  0  0  0
  -39.5682    3.6061    1.6865 C   0  0  0  0  0  0  0  0  0  0  0  0
  -35.6951   -1.5340    5.4865 C   0  0  0  0  0  0  0  0  0  0  0  0
  -37.1557   -0.1032    1.9834 C   0  0  2  0  0  0  0  0  0  0  0  0
  -38.3488    0.7703    1.8474 C   0  0  0  0  0  0  0  0  0  0  0  0
  -40.0638    2.3001    2.1782 C   0  0  0  0  0  0  0  0  0  0  0  0
  -36.0019   -3.6593    4.0153 C   0  0  0  0  0  0  0  0  0  0  0  0
  -35.3773   -2.5675    6.2998 C   0  0  0  0  0  0  0  0  0  0  0  0
  -40.5148    4.6640    3.2081 C   0  0  0  0  0  0  0  0  0  0  0  0
  -36.6529    0.8970    5.7945 C   0  0  0  0  0  0  0  0  0  0  0  0
  -35.4373   -4.5329    4.8892 C   0  0  0  0  0  0  0  0  0  0  0  0
  -36.1399   -3.7850    5.9597 C   0  0  0  0  0  0  0  0  0  0  0  0
  -35.3800   -0.0929    5.9089 C   0  0  0  0  0  0  0  0  0  0  0  0
  -38.9935    4.1876    0.6133 C   0  0  0  0  0  0  0  0  0  0  0  0
  -38.3812   -0.3766    4.4506 F   0  0  0  0  0  0  0  0  0  0  0  0
  -41.0885    5.4683    2.4429 O   0  0  0  0  0  0  0  0  0  0  0  0
  -37.3936   -3.9442    6.1612 O   0  0  0  0  0  0  0  0  0  0  0  0
  -38.8743    4.1326    4.2712 O   0  0  0  0  0  0  0  0  0  0  0  0
  -36.7351    2.9347    2.1510 C   0  0  0  0  0  0  0  0  0  0  0  0
  -36.2831   -0.8263    1.0659 O   0  0  0  0  0  0  0  0  0  0  0  0
  -37.4211   -2.1800    3.1952 C   0  0  0  0  0  0  0  0  0  0  0  0
  -41.2806    4.3759    4.5597 C   0  0  0  0  0  0  0  0  0  0  0  0
  -41.8817    3.1185    4.7800 O   0  0  0  0  0  0  0  0  0  0  0  0
  1 24  1  1
  2  9  1  0
  2  6  1  0
  2 20  1  1
  3  2  1  0
  3 26  1  6
  4  1  1  0
  5  1  1  0
  5 14  1  0
  5 23  1  6
  6  4  1  0
  7  5  1  0
  8  3  1  0
  8 18  1  0
  9 10  1  0
  9 25  1  1
 10  1  1  0
  4 11  1  6
 11  7  1  0
 12  3  1  0
 13  8  2  0
 13 17  1  0
  6 15  1  1
 16 12  2  0
 17 16  1  0
 18 15  1  0
 19  7  2  0
 21 14  2  0
 22 17  2  0
 27 14  1  0
 28 27  1  0
M  END
>  <DRUGBANK_ID>  (1) 
DB08970

>  <COMMON_NAME>  (1) 
Fluprednidene

>  <CAS_NUMBER>  (1) 
2193-87-5

>  <UNII>  (1) 
FA517NS3N7

>  <SYNONYMS>  (1) 
Fluprednidene

$$$$
