
     RDKit          3D

  6  6  0  0  0  0  0  0  0  0999 V2000
    1.0474    0.1271    0.0246 N   0  0  0  0  0  0  0  0  0  0  0  0
    0.4189    0.9854    0.8417 C   0  0  0  0  0  0  0  0  0  0  0  0
    0.7553    2.2156    1.0344 N   0  0  0  0  0  0  0  0  0  0  0  0
   -0.1160    2.8327    2.0520 C   0  0  0  0  0  0  0  0  0  0  0  0
   -1.3686    2.0011    2.2869 C   0  0  0  0  0  0  0  0  0  0  0  0
   -0.9226    0.3503    1.7400 S   0  0  0  0  0  0  0  0  0  0  0  0
  1  2  1  0
  2  3  2  0
  2  6  1  0
  3  4  1  0
  4  5  1  0
  5  6  1  0
M  END
>  <DRUGBANK_ID>  (1) 
DB02335

>  <SECONDARY_ACCESSION_NUMBERS>  (1) 
EXPT00587

>  <COMMON_NAME>  (1) 
2-Aminothiazoline

>  <CAS_NUMBER>  (1) 
1779-81-3

>  <UNII>  (1) 
5JC2YZG56Q

$$$$
