
     RDKit          3D

 36 40  0  0  1  0  0  0  0  0999 V2000
    1.0556    0.0153   -0.0044 C   0  0  0  0  0  0  0  0  0  0  0  0
    0.6501    0.7236   -1.2476 C   0  0  0  0  0  0  0  0  0  0  0  0
    0.0740    0.1141   -2.3002 C   0  0  0  0  0  0  0  0  0  0  0  0
   -0.2945    0.8355   -3.4271 N   0  0  0  0  0  0  0  0  0  0  0  0
   -0.0436    2.2054   -3.4818 C   0  0  0  0  0  0  0  0  0  0  0  0
   -0.3776    2.5751   -4.7705 C   0  0  0  0  0  0  0  0  0  0  0  0
   -0.8556    1.4032   -5.4189 C   0  0  0  0  0  0  0  0  0  0  0  0
   -0.9452    0.3877   -4.5414 N   0  0  0  0  0  0  0  0  0  0  0  0
   -1.3132    1.2838   -6.8699 C   0  0  2  0  0  0  0  0  0  0  0  0
   -2.7885    0.8333   -6.9746 C   0  0  0  0  0  0  0  0  0  0  0  0
   -3.3018    0.7872   -8.4178 C   0  0  0  0  0  0  0  0  0  0  0  0
   -2.3641   -0.0137   -9.3099 C   0  0  0  0  0  0  0  0  0  0  0  0
   -0.9319    0.4897   -9.1881 C   0  0  0  0  0  0  0  0  0  0  0  0
   -0.4601    0.4633   -7.7909 N   0  0  0  0  0  0  0  0  0  0  0  0
    0.6225   -0.3098   -7.3511 C   0  0  0  0  0  0  0  0  0  0  0  0
    1.0730   -0.3549   -6.2021 O   0  0  0  0  0  0  0  0  0  0  0  0
    1.4180   -1.1231   -8.2923 C   0  0  0  0  0  0  0  0  0  0  0  0
    2.0820   -0.4162   -9.3290 C   0  0  0  0  0  0  0  0  0  0  0  0
    2.9297   -1.0762  -10.2083 C   0  0  0  0  0  0  0  0  0  0  0  0
    3.1605   -2.4146  -10.0369 C   0  0  0  0  0  0  0  0  0  0  0  0
    2.5392   -3.0788   -8.9927 C   0  0  0  0  0  0  0  0  0  0  0  0
    1.6741   -2.4993   -8.0765 C   0  0  0  0  0  0  0  0  0  0  0  0
    1.0099   -3.2956   -7.0673 N   0  0  0  0  0  0  0  0  0  0  0  0
    1.2253   -4.9068   -6.6372 S   0  0  0  0  0  0  0  0  0  0  0  0
    1.8644   -4.9250   -5.3332 O   0  0  0  0  0  0  0  0  0  0  0  0
   -0.0617   -5.5410   -6.8143 O   0  0  0  0  0  0  0  0  0  0  0  0
    2.3484   -5.7503   -7.7492 C   0  0  0  0  0  0  0  0  0  0  0  0
    3.7052   -0.2737  -11.5057 Cl  0  0  0  0  0  0  0  0  0  0  0  0
    0.4530    2.9085   -2.4033 N   0  0  0  0  0  0  0  0  0  0  0  0
    0.8049    2.2408   -1.3171 C   0  0  0  0  0  0  0  0  0  0  0  0
    1.2684    2.9470   -0.2037 N   0  0  0  0  0  0  0  0  0  0  0  0
    2.5477    2.7813    0.4851 C   0  0  0  0  0  0  0  0  0  0  0  0
    2.7607    4.0737    1.2956 C   0  0  0  0  0  0  0  0  0  0  0  0
    1.5675    4.9695    0.9570 C   0  0  1  0  0  0  0  0  0  0  0  0
    0.4948    3.9715    0.4821 C   0  0  0  0  0  0  0  0  0  0  0  0
    1.1993    5.8349    2.0809 N   0  0  0  0  0  0  0  0  0  0  0  0
  1  2  1  0
  2  3  2  0
  2 30  1  0
  3  4  1  0
  4  5  1  0
  4  8  1  0
  5  6  2  0
  5 29  1  0
  6  7  1  0
  7  8  2  0
  9  7  1  1
  9 10  1  0
  9 14  1  0
 10 11  1  0
 11 12  1  0
 12 13  1  0
 13 14  1  0
 14 15  1  0
 15 16  2  0
 15 17  1  0
 17 18  2  0
 17 22  1  0
 18 19  1  0
 19 20  2  0
 19 28  1  0
 20 21  1  0
 21 22  2  0
 22 23  1  0
 23 24  1  0
 24 25  2  0
 24 26  2  0
 24 27  1  0
 29 30  2  0
 30 31  1  0
 31 32  1  0
 31 35  1  0
 32 33  1  0
 33 34  1  0
 34 35  1  0
 34 36  1  1
M  END
>  <DRUGBANK_ID>  (1) 
DB12165

>  <COMMON_NAME>  (1) 
Presatovir

>  <CAS_NUMBER>  (1) 
1353625-73-6

>  <UNII>  (1) 
9628AJ27JA

>  <SYNONYMS>  (1) 
Presatovir

$$$$
