
     RDKit          3D

 37 38  0  0  0  0  0  0  0  0999 V2000
    0.3369    1.2725    0.7254 C   0  0  0  0  0  0  0  0  0  0  0  0
    0.2825    2.6250    0.3449 N   0  0  0  0  0  0  0  0  0  0  0  0
   -0.8171    0.6028    0.9686 N   0  0  0  0  0  0  0  0  0  0  0  0
    1.4238    0.5468    0.3983 N   0  0  0  0  0  0  0  0  0  0  0  0
   -2.2329    1.8354   -1.5083 N   0  0  0  0  0  0  0  0  0  0  0  0
    1.5545    3.3325    0.0958 C   0  0  0  0  0  0  0  0  0  0  0  0
   -0.9796    3.3842    0.1822 C   0  0  0  0  0  0  0  0  0  0  0  0
   -1.7035    3.2467   -1.2315 C   0  0  0  0  0  0  0  0  0  0  0  0
    1.5882    4.2322   -1.1481 C   0  0  0  0  0  0  0  0  0  0  0  0
    1.7727    6.0194   -3.3623 C   0  0  0  0  0  0  0  0  0  0  0  0
    0.9087    5.4602   -1.1806 C   0  0  0  0  0  0  0  0  0  0  0  0
    2.4155    3.9412   -2.2472 C   0  0  0  0  0  0  0  0  0  0  0  0
    2.5404    4.8558   -3.3125 C   0  0  0  0  0  0  0  0  0  0  0  0
    0.9464    6.3138   -2.2837 C   0  0  0  0  0  0  0  0  0  0  0  0
    0.1235   -1.4947    0.2591 C   0  0  0  0  0  0  0  0  0  0  0  0
    1.9080    6.8063   -4.4723 O   0  0  0  0  0  0  0  0  0  0  0  0
    1.3062   -0.7927    0.1931 C   0  0  0  0  0  0  0  0  0  0  0  0
   -0.9151   -0.7256    0.6925 C   0  0  0  0  0  0  0  0  0  0  0  0
   -3.0960    1.4922   -0.2332 C   0  0  0  0  0  0  0  0  0  0  0  0
   -2.9765    1.6186   -2.8212 C   0  0  0  0  0  0  0  0  0  0  0  0
   -1.0353    0.9523   -1.8535 C   0  0  0  0  0  0  0  0  0  0  0  0
    1.0136    7.9161   -4.5726 C   0  0  0  0  0  0  0  0  0  0  0  0
   -4.3448    2.3705   -0.0813 C   0  0  0  0  0  0  0  0  0  0  0  0
  -15.0408   -1.8487   -1.1939 C   0  0  0  0  0  0  0  0  0  0  0  0
  -14.1780   -1.5969    0.0434 C   0  0  0  0  0  0  0  0  0  0  0  0
  -10.8508   -0.2563    0.0222 C   0  0  0  0  0  0  0  0  0  0  0  0
  -11.6873   -0.5498   -1.2258 C   0  0  0  0  0  0  0  0  0  0  0  0
  -12.0599   -2.0345   -1.2562 C   0  0  0  0  0  0  0  0  0  0  0  0
  -12.8735   -2.3993   -0.0097 C   0  0  0  0  0  0  0  0  0  0  0  0
   -5.3493    2.0722   -1.1636 C   0  0  0  0  0  0  0  0  0  0  0  0
   -5.5962    0.5598   -1.2127 C   0  0  0  0  0  0  0  0  0  0  0  0
   -6.3562    0.1807    0.0504 C   0  0  0  0  0  0  0  0  0  0  0  0
   -7.6455    1.0015    0.0780 C   0  0  0  0  0  0  0  0  0  0  0  0
   -8.4273    0.7253   -1.2143 C   0  0  0  0  0  0  0  0  0  0  0  0
   -8.7704   -0.7652   -1.2580 C   0  0  0  0  0  0  0  0  0  0  0  0
   -9.5803   -1.1128   -0.0062 C   0  0  0  0  0  0  0  0  0  0  0  0
  -15.4077   -3.3202   -1.2977 C   0  0  0  0  0  0  0  0  0  0  0  0
  2  1  1  0
  3  1  2  0
  4  1  1  0
  5  8  1  0
  6  2  1  0
  7  2  1  0
  8  7  1  0
  9  6  1  0
 10 14  2  0
 10 13  1  0
 11  9  2  0
 12  9  1  0
 13 12  2  0
 14 11  1  0
 15 17  1  0
 15 18  2  0
 16 10  1  0
 17  4  2  0
 18  3  1  0
 19  5  1  0
 20  5  1  0
 21  5  1  0
 22 16  1  0
 23 19  1  0
 24 25  1  0
 25 29  1  0
 26 36  1  0
 27 26  1  0
 28 27  1  0
 29 28  1  0
 30 23  1  0
 31 30  1  0
 32 31  1  0
 33 32  1  0
 34 33  1  0
 35 34  1  0
 36 35  1  0
 37 24  1  0
M  CHG  1   5   1
M  END
>  <DRUGBANK_ID>  (1) 
DB09552

>  <COMMON_NAME>  (1) 
Thonzonium

>  <CAS_NUMBER>  (1) 
25466-36-8

>  <UNII>  (1) 
Z05ZE98FV8

>  <SYNONYMS>  (1) 
Tonzonium

$$$$
