
     RDKit          3D

  7  7  0  0  0  0  0  0  0  0999 V2000
    2.5000   -0.1134    0.0045 C   0  0  0  0  0  0  0  0  0  0  0  0
    1.0092   -0.0022    0.0020 C   0  0  0  0  0  0  0  0  0  0  0  0
    0.3615    1.2338    0.0040 C   0  0  0  0  0  0  0  0  0  0  0  0
   -1.0296    1.2819    0.0017 C   0  0  0  0  0  0  0  0  0  0  0  0
   -1.7281    0.0859   -0.0049 C   0  0  0  0  0  0  0  0  0  0  0  0
   -1.1381   -1.1280   -0.0045 N   0  0  0  0  0  0  0  0  0  0  0  0
    0.2138   -1.1439    0.0005 C   0  0  0  0  0  0  0  0  0  0  0  0
  1  2  1  0
  2  3  2  0
  2  7  1  0
  3  4  1  0
  4  5  2  0
  5  6  1  0
  6  7  2  0
M  END
>  <DRUGBANK_ID>  (1) 
DB01996

>  <SECONDARY_ACCESSION_NUMBERS>  (1) 
EXPT00181

>  <COMMON_NAME>  (1) 
3-Methylpyridine

>  <CAS_NUMBER>  (1) 
108-99-6

>  <UNII>  (1) 
B083J4KF7F

$$$$
