
     RDKit          3D

 19 20  0  0  0  0  0  0  0  0999 V2000
   -1.1369    0.2599    0.8973 C   0  0  0  0  0  0  0  0  0  0  0  0
   -0.6503   -0.8011   -0.3921 C   0  0  1  0  0  0  0  0  0  0  0  0
   -1.1329    0.3272   -1.2870 C   0  0  0  0  0  0  0  0  0  0  0  0
   -0.6297    1.2870   -0.1865 C   0  0  2  0  0  0  0  0  0  0  0  0
    0.9294    1.4056   -0.2376 C   0  0  0  0  0  0  0  0  0  0  0  0
    1.5929    0.0271   -0.2509 C   0  0  0  0  0  0  0  0  0  0  0  0
    0.8274   -1.1152   -0.3685 C   0  0  0  0  0  0  0  0  0  0  0  0
    1.3564   -2.5740   -0.3984 C   0  0  0  0  0  0  0  0  0  0  0  0
    0.8217   -3.7386    0.5196 C   0  0  0  0  0  0  0  0  0  0  0  0
   -0.5376   -3.9715    0.8378 O   0  0  0  0  0  0  0  0  0  0  0  0
   -1.0250   -2.8875    1.6292 C   0  0  0  0  0  0  0  0  0  0  0  0
   -0.3853   -2.2244    2.9231 C   0  0  0  0  0  0  0  0  0  0  0  0
    1.0787   -1.7012    2.9646 N   0  0  0  0  0  0  0  0  0  0  0  0
    1.4221   -0.6984    4.0114 C   0  0  0  0  0  0  0  0  0  0  0  0
    0.9532   -1.1153    5.3764 C   0  0  0  0  0  0  0  0  0  0  0  0
    2.1340   -2.7345    3.0838 C   0  0  0  0  0  0  0  0  0  0  0  0
    1.6308   -3.9218    3.8823 C   0  0  0  0  0  0  0  0  0  0  0  0
   -2.5969    0.1447    1.3929 C   0  0  0  0  0  0  0  0  0  0  0  0
   -0.3711    0.7755    2.1320 C   0  0  0  0  0  0  0  0  0  0  0  0
  1  4  1  0
  1 18  1  0
  1 19  1  0
  2  1  1  0
  2  3  1  6
  2  7  1  0
  4  3  1  6
  4  5  1  0
  5  6  1  0
  7  6  2  0
  7  8  1  0
  8  9  1  0
  9 10  1  0
 10 11  1  0
 11 12  1  0
 12 13  1  0
 13 14  1  0
 13 16  1  0
 14 15  1  0
 16 17  1  0
M  END
>  <DRUGBANK_ID>  (1) 
DB15785

>  <COMMON_NAME>  (1) 
Myrtecaine

>  <CAS_NUMBER>  (1) 
7712-50-7

>  <UNII>  (1) 
9902116282

>  <SYNONYMS>  (1) 
Mirtecaina; Myrtecaine; Myrtecainum; Nopoxamine

$$$$
