7IG
     RDKit          3D

 26 28  0  0  0  0  0  0  0  0999 V2000
    1.1941    0.2440    0.0245 C   0  0  0  0  0  0  0  0  0  0  0  0
    0.0850    0.9921   -0.0196 N   0  0  0  0  0  0  0  0  0  0  0  0
   -1.0882    0.3487   -0.0378 C   0  0  0  0  0  0  0  0  0  0  0  0
   -1.2280   -0.9816   -0.0334 N   0  0  0  0  0  0  0  0  0  0  0  0
   -0.1033   -1.7262    0.0269 C   0  0  0  0  0  0  0  0  0  0  0  0
    1.1675   -1.1522    0.0699 C   0  0  0  0  0  0  0  0  0  0  0  0
    2.3960    0.9443    0.1624 N   0  0  0  0  0  0  0  0  0  0  0  0
   -2.2233    1.0975   -0.0615 N   0  0  0  0  0  0  0  0  0  0  0  0
   -0.3126   -3.2256    0.0642 C   0  0  0  0  0  0  0  0  0  0  0  0
   -1.0913   -3.6533    1.2935 C   0  0  0  0  0  0  0  0  0  0  0  0
    4.4248   -2.6524    1.2526 C   0  0  0  0  0  0  0  0  0  0  0  0
    3.2764   -1.8593    1.2055 C   0  0  0  0  0  0  0  0  0  0  0  0
    2.3928   -1.9474    0.1229 C   0  0  0  0  0  0  0  0  0  0  0  0
    2.7134   -2.8078   -0.9283 C   0  0  0  0  0  0  0  0  0  0  0  0
    3.8584   -3.5873   -0.8748 C   0  0  0  0  0  0  0  0  0  0  0  0
    4.6945   -3.5816    0.2426 C   0  0  0  0  0  0  0  0  0  0  0  0
    5.7735   -4.4289    0.3621 N   0  0  0  0  0  0  0  0  0  0  0  0
    9.5303   -6.2941   -1.8521 C   0  0  0  0  0  0  0  0  0  0  0  0
    8.2358   -6.4620   -1.3736 C   0  0  0  0  0  0  0  0  0  0  0  0
    7.4489   -5.3393   -1.1004 C   0  0  0  0  0  0  0  0  0  0  0  0
    7.9709   -4.0605   -1.3592 C   0  0  0  0  0  0  0  0  0  0  0  0
    9.2776   -3.9187   -1.8013 C   0  0  0  0  0  0  0  0  0  0  0  0
   10.0585   -5.0298   -2.0765 C   0  0  0  0  0  0  0  0  0  0  0  0
   10.2905   -7.3751   -2.0650 F   0  0  0  0  0  0  0  0  0  0  0  0
    6.0572   -5.5108   -0.5606 C   0  0  0  0  0  0  0  0  0  0  0  0
    9.7986   -2.6914   -1.9224 F   0  0  0  0  0  0  0  0  0  0  0  0
  1  2  2  0
  1  6  1  0
  1  7  1  0
  2  3  1  0
  3  4  2  0
  3  8  1  0
  4  5  1  0
  5  6  2  0
  5  9  1  0
  6 13  1  0
  9 10  1  0
 11 12  2  0
 11 16  1  0
 12 13  1  0
 13 14  2  0
 14 15  1  0
 15 16  2  0
 16 17  1  0
 17 25  1  0
 18 19  2  0
 18 23  1  0
 18 24  1  0
 19 20  1  0
 20 21  2  0
 20 25  1  0
 21 22  1  0
 22 23  2  0
 22 26  1  0
M  END
>  <DRUGBANK_ID>  (1) 
DB07244

>  <COMMON_NAME>  (1) 
5-{4-[(3,5-DIFLUOROBENZYL)AMINO]PHENYL}-6-ETHYLPYRIMIDINE-2,4-DIAMINE

$$$$
