
     RDKit          3D

 13 11  0  0  0  0  0  0  0  0999 V2000
    0.3533    0.2261   -0.2117 C   0  0  0  0  0  0  0  0  0  0  0  0
    0.4952    0.3483   -6.1722 C   0  0  0  0  0  0  0  0  0  0  0  0
    2.9799   -1.3639   -5.7023 C   0  0  0  0  0  0  0  0  0  0  0  0
    0.4428   -2.6288   -6.6794 C   0  0  0  0  0  0  0  0  0  0  0  0
    0.5158    1.3135   -2.9986 C   0  0  0  0  0  0  0  0  0  0  0  0
    2.9010   -0.5372   -2.5472 C   0  0  0  0  0  0  0  0  0  0  0  0
    0.2448   -0.8112   -1.1927 O   0  0  0  0  0  0  0  0  0  0  0  0
    0.6076   -1.4642   -3.9266 O   0  0  0  0  0  0  0  0  0  0  0  0
    1.0973   -1.3179   -5.5494 Si  0  0  0  0  0  4  0  0  0  0  0  0
    1.0369   -0.4630   -2.6291 Si  0  0  0  0  0  4  0  0  0  0  0  0
    2.8896   -0.8644    0.9357 O   0  0  0  0  0  0  0  0  0  0  0  0
    3.6102    1.2818    0.0683 O   0  0  0  0  0  0  0  0  0  0  0  0
    4.0099    0.1097    0.8646 Si  0  0  0  0  0  4  0  0  0  0  0  0
  7  1  1  0
  9  2  1  0
  9  3  1  0
  9  4  1  0
  9  8  1  0
 10  5  1  0
 10  6  1  0
 10  7  1  0
 10  8  1  0
 13 11  2  0
 13 12  2  0
M  END
>  <DRUGBANK_ID>  (1) 
DB09512

>  <COMMON_NAME>  (1) 
Simethicone

>  <CAS_NUMBER>  (1) 
8050-81-5

>  <SYNONYMS>  (1) 
Simeticona; Simeticone; Sim√©ticone; Simeticonum

$$$$
