
     RDKit          3D

 36 40  0  0  0  0  0  0  0  0999 V2000
    1.7548   -0.7148   -0.3913 C   0  0  0  0  0  0  0  0  0  0  0  0
    1.0198    0.6980   -0.1207 C   0  0  0  0  0  0  0  0  0  0  0  0
   -0.3389    0.9555   -0.0206 C   0  0  0  0  0  0  0  0  0  0  0  0
   -1.0124   -0.2378   -0.1506 C   0  0  0  0  0  0  0  0  0  0  0  0
   -0.2712   -1.6881   -0.4550 C   0  0  0  0  0  0  0  0  0  0  0  0
    1.2751   -2.0687   -0.7657 C   0  0  0  0  0  0  0  0  0  0  0  0
    4.8714  -14.7534   -2.4300 C   0  0  0  0  0  0  0  0  0  0  0  0
    5.3342  -15.2590   -3.7713 C   0  0  0  0  0  0  0  0  0  0  0  0
    4.2026  -15.6539   -4.5999 N   0  0  0  0  0  0  0  0  0  0  0  0
    4.6804  -16.1492   -5.8806 C   0  0  0  0  0  0  0  0  0  0  0  0
    3.8824  -13.0159   -1.0605 C   0  0  0  0  0  0  0  0  0  0  0  0
    4.2676  -13.7025    0.1021 C   0  0  0  0  0  0  0  0  0  0  0  0
    5.0159  -14.8755   -0.0174 C   0  0  0  0  0  0  0  0  0  0  0  0
    5.3292  -15.3884   -1.2710 C   0  0  0  0  0  0  0  0  0  0  0  0
    4.0723  -13.6019   -2.3171 C   0  0  0  0  0  0  0  0  0  0  0  0
    2.1583   -6.8260    0.3146 C   0  0  0  0  0  0  0  0  0  0  0  0
    1.7202   -7.6623   -0.7510 C   0  0  0  0  0  0  0  0  0  0  0  0
    2.1721   -9.0094   -0.8252 C   0  0  0  0  0  0  0  0  0  0  0  0
    3.2081   -9.4520    0.0039 C   0  0  0  0  0  0  0  0  0  0  0  0
    3.7109   -8.5828    0.9697 C   0  0  0  0  0  0  0  0  0  0  0  0
    3.1674   -7.3222    1.1245 C   0  0  0  0  0  0  0  0  0  0  0  0
    2.7672   -4.3256    0.8454 C   0  0  0  0  0  0  0  0  0  0  0  0
    1.8413   -5.4578    0.5544 N   0  0  0  0  0  0  0  0  0  0  0  0
    4.5854   -4.9413   -0.1014 C   0  0  0  0  0  0  0  0  0  0  0  0
    3.6856   -4.9734   -1.1955 C   0  0  0  0  0  0  0  0  0  0  0  0
    2.3333   -3.5898   -1.0839 C   0  0  0  0  0  0  0  0  0  0  0  0
    2.5546   -3.3014    0.1617 N   0  0  0  0  0  0  0  0  0  0  0  0
    4.0681   -4.3589    0.9004 N   0  0  0  0  0  0  0  0  0  0  0  0
    6.4186   -6.9776    0.0616 C   0  0  0  0  0  0  0  0  0  0  0  0
    5.6784   -7.4491   -0.9699 C   0  0  0  0  0  0  0  0  0  0  0  0
    4.4486   -6.4945   -1.6029 C   0  0  0  0  0  0  0  0  0  0  0  0
    5.8459   -5.7570    0.4230 C   0  0  0  0  0  0  0  0  0  0  0  0
    3.9203  -10.7444   -0.1671 C   0  0  0  0  0  0  0  0  0  0  0  0
    3.3316  -11.7196   -0.9705 N   0  0  0  0  0  0  0  0  0  0  0  0
    5.0146  -10.8576    0.3872 O   0  0  0  0  0  0  0  0  0  0  0  0
    3.7699  -13.2809    1.4589 C   0  0  0  0  0  0  0  0  0  0  0  0
  1  2  2  0
  2  3  1  0
  3  4  2  0
  4  5  1  0
  5  6  2  0
  6  1  1  0
  7 15  2  0
  7  8  1  0
  8  9  1  0
  9 10  1  0
 11 12  2  0
 12 13  1  0
 12 36  1  0
 13 14  2  0
 14  7  1  0
 15 11  1  0
 16 17  2  0
 17 18  1  0
 18 19  2  0
 19 20  1  0
 19 33  1  0
 20 21  2  0
 21 16  1  0
 22 23  1  0
 22 28  2  0
 23 16  1  0
 24 25  2  0
 24 28  1  0
 24 32  1  0
 25 26  1  0
 26 27  2  0
 26  6  1  0
 27 22  1  0
 29 30  1  0
 30 31  2  0
 31 25  1  0
 32 29  2  0
 33 34  1  0
 33 35  2  0
 34 11  1  0
M  END
>  <DRUGBANK_ID>  (1) 
DB16844

>  <COMMON_NAME>  (1) 
BMS-833923

>  <CAS_NUMBER>  (1) 
1059734-66-5

>  <UNII>  (1) 
41J7ZJ239R

>  <SYNONYMS>  (1) 
BMS-833923 free base anhydrous

$$$$
