
     RDKit          3D

 32 34  0  0  0  0  0  0  0  0999 V2000
   -1.2171    1.4287   -0.5709 C   0  0  0  0  0  0  0  0  0  0  0  0
   -2.2632    0.6218   -0.2400 N   0  0  0  0  0  0  0  0  0  0  0  0
   -1.1343   -1.4442   -0.6173 N   0  0  0  0  0  0  0  0  0  0  0  0
   -0.1228   -0.7056   -1.1296 C   0  0  0  0  0  0  0  0  0  0  0  0
   -0.1538    0.7034   -1.2730 C   0  0  0  0  0  0  0  0  0  0  0  0
    1.0716    1.2007   -1.5885 N   0  0  0  0  0  0  0  0  0  0  0  0
    1.8890    0.1619   -1.5059 C   0  0  0  0  0  0  0  0  0  0  0  0
    1.2563   -1.1111   -1.1364 N   0  0  0  0  0  0  0  0  0  0  0  0
    1.8066   -2.5649   -0.4377 C   0  0  2  0  0  0  0  0  0  0  0  0
    2.6068   -2.6964    0.8805 O   0  0  0  0  0  0  0  0  0  0  0  0
    3.8764   -3.4537    0.7543 C   0  0  1  0  0  0  0  0  0  0  0  0
    3.7333   -4.1104   -0.6390 C   0  0  1  0  0  0  0  0  0  0  0  0
    3.1787   -5.4245   -0.5185 O   0  0  0  0  0  0  0  0  0  0  0  0
    2.7102   -3.2511   -1.4228 C   0  0  1  0  0  0  0  0  0  0  0  0
    2.0137   -3.8333   -2.4923 O   0  0  0  0  0  0  0  0  0  0  0  0
    5.1851   -1.1835    0.7032 O   0  0  0  0  0  0  0  0  0  0  0  0
    5.5344   -2.3459   -1.2721 O   0  0  0  0  0  0  0  0  0  0  0  0
    4.7256   -1.1117   -0.9631 P   0  0  2  0  0  0  0  0  0  0  0  0
    4.2661   -1.0398   -2.6294 O   0  0  0  0  0  0  0  0  0  0  0  0
    3.4078   -0.9069   -0.0673 O   0  0  0  0  0  0  0  0  0  0  0  0
    4.1743    1.1135    1.5147 O   0  0  0  0  0  0  0  0  0  0  0  0
    3.1894    0.0015    1.3203 P   0  0  2  0  0  0  0  0  0  0  0  0
    2.9950   -0.8191    2.6949 O   0  0  0  0  0  0  0  0  0  0  0  0
    0.7728   -1.6289    2.0573 O   0  0  0  0  0  0  0  0  0  0  0  0
    0.3447    0.6384    3.2554 O   0  0  0  0  0  0  0  0  0  0  0  0
    0.1388   -0.2647    1.9092 P   0  0  0  0  0  0  0  0  0  0  0  0
   -1.1989   -1.0303    2.6950 O   0  0  0  0  0  0  0  0  0  0  0  0
    5.1981   -2.5865    1.1312 C   0  0  0  0  0  0  0  0  0  0  0  0
   -2.1871   -0.7590   -0.2463 C   0  0  0  0  0  0  0  0  0  0  0  0
   -3.3012   -1.3982    0.1654 N   0  0  0  0  0  0  0  0  0  0  0  0
   -1.1243    2.5982   -0.1110 O   0  0  0  0  0  0  0  0  0  0  0  0
    1.5537    0.5452    1.0779 C   0  0  0  0  0  0  0  0  0  0  0  0
  1  2  1  0
  1  5  1  0
  2 29  1  0
  3  4  1  0
  4  5  2  0
  4  8  1  0
  5  6  1  0
  6  7  2  0
  7  8  1  0
  9  8  1  6
  9 10  1  0
  9 14  1  0
 10 11  1  0
 11 12  1  0
 11 28  1  6
 12 13  1  1
 12 14  1  0
 14 15  1  6
 16 18  1  0
 18 17  2  0
 18 20  1  0
 18 19  1  6
 20 22  1  0
 22 21  2  0
 22 32  1  0
 22 23  1  1
 26 24  2  0
 26 25  1  0
 26 27  1  0
 28 16  1  0
 29  3  2  0
 29 30  1  0
 31  1  2  0
 32 26  1  0
M  END
>  <DRUGBANK_ID>  (1) 
DB03725

>  <SECONDARY_ACCESSION_NUMBERS>  (1) 
EXPT01659

>  <COMMON_NAME>  (1) 
5'-Guanylylmethylenebisphosphonate

>  <CAS_NUMBER>  (1) 
13912-93-1

>  <UNII>  (1) 
4E15I11U9B

>  <SYNONYMS>  (1) 
5'-Guanosyl-methylene-triphosphate; 5'-Guanylylmethylenediphosphonate; GppCp; guanosine 5'-[beta,gamma-methylene]triphosphate

$$$$
