
     RDKit          3D

 22 25  0  0  0  0  0  0  0  0999 V2000
   -3.6930    0.0934    0.8233 C   0  0  0  0  0  0  0  0  0  0  0  0
   -3.3094   -1.2428    0.7443 C   0  0  0  0  0  0  0  0  0  0  0  0
   -2.1026   -1.5857    0.1364 C   0  0  0  0  0  0  0  0  0  0  0  0
   -1.2685   -0.5853   -0.3984 C   0  0  0  0  0  0  0  0  0  0  0  0
   -1.6343    0.7698   -0.2583 C   0  0  0  0  0  0  0  0  0  0  0  0
   -2.8571    1.0940    0.3337 C   0  0  0  0  0  0  0  0  0  0  0  0
   -0.7268    1.8727   -0.7434 C   0  0  0  0  0  0  0  0  0  0  0  0
    0.5212    1.9555    0.0988 C   0  0  0  0  0  0  0  0  0  0  0  0
    1.4964    0.7875    0.0594 C   0  0  0  0  0  0  0  0  0  0  0  0
    2.7342    1.0991    0.6656 C   0  0  0  0  0  0  0  0  0  0  0  0
    3.7448    0.1584    0.7801 C   0  0  0  0  0  0  0  0  0  0  0  0
    3.5487   -1.1257    0.3061 C   0  0  0  0  0  0  0  0  0  0  0  0
    2.3358   -1.4670   -0.3037 C   0  0  0  0  0  0  0  0  0  0  0  0
    1.2804   -0.5265   -0.4583 C   0  0  0  0  0  0  0  0  0  0  0  0
   -0.0132   -0.9654   -1.1745 C   0  0  0  0  0  0  0  0  0  0  0  0
   -0.0593   -0.5237   -2.5964 N   0  0  0  0  0  0  0  0  0  0  0  0
    0.9566   -0.6219   -3.5153 C   0  0  0  0  0  0  0  0  0  0  0  0
    0.5420    0.1264   -4.5943 C   0  0  0  0  0  0  0  0  0  0  0  0
   -0.7245    0.5937   -4.4100 N   0  0  0  0  0  0  0  0  0  0  0  0
   -1.0956    0.1140   -3.2406 C   0  0  0  0  0  0  0  0  0  0  0  0
    2.2232   -3.1108   -0.8491 Cl  0  0  0  0  0  0  0  0  0  0  0  0
    5.2338    0.5956    1.5172 Cl  0  0  0  0  0  0  0  0  0  0  0  0
  1  2  2  0
  1  6  1  0
  2  3  1  0
  3  4  2  0
  4  5  1  0
  4 15  1  0
  5  6  2  0
  5  7  1  0
  7  8  1  0
  8  9  1  0
  9 10  1  0
  9 14  2  0
 10 11  2  0
 11 12  1  0
 11 22  1  0
 12 13  2  0
 13 14  1  0
 13 21  1  0
 14 15  1  0
 15 16  1  0
 16 17  1  0
 16 20  1  0
 17 18  2  0
 18 19  1  0
 19 20  2  0
M  END
>  <DRUGBANK_ID>  (1) 
DB13656

>  <COMMON_NAME>  (1) 
Eberconazole

>  <CAS_NUMBER>  (1) 
128326-82-9

>  <UNII>  (1) 
V7O1U41C9B

>  <SYNONYMS>  (1) 
Eberconazole

$$$$
