
     RDKit          3D

  9  8  0  0  0  0  0  0  0  0999 V2000
    0.9645    0.1412   -0.1138 C   0  0  0  0  0  0  0  0  0  0  0  0
    0.5046   -1.2474   -0.5291 C   0  0  0  0  0  0  0  0  0  0  0  0
    0.9931   -2.3027    0.4645 C   0  0  0  0  0  0  0  0  0  0  0  0
    0.4525   -2.0567    1.8790 C   0  0  0  0  0  0  0  0  0  0  0  0
   -1.0793   -2.1303    1.9422 C   0  0  0  0  0  0  0  0  0  0  0  0
   -1.6276   -3.4868    1.4968 C   0  0  0  0  0  0  0  0  0  0  0  0
   -1.1176   -4.6033    2.3829 C   0  0  0  0  0  0  0  0  0  0  0  0
   -2.0548   -5.2779    3.0913 N   0  0  0  0  0  0  0  0  0  0  0  0
    0.0664   -4.9133    2.4986 O   0  0  0  0  0  0  0  0  0  0  0  0
  1  2  1  0
  2  3  1  0
  3  4  1  0
  4  5  1  0
  5  6  1  0
  6  7  1  0
  7  8  1  0
  7  9  2  0
M  END
>  <DRUGBANK_ID>  (1) 
DB02641

>  <SECONDARY_ACCESSION_NUMBERS>  (1) 
EXPT01772

>  <COMMON_NAME>  (1) 
Heptanamide

>  <CAS_NUMBER>  (1) 
628-62-6

>  <UNII>  (1) 
6QX6H3415T

$$$$
