
     RDKit          3D

 20 21  0  0  0  0  0  0  0  0999 V2000
    1.0617    0.0711   -0.0338 P   0  0  0  0  0  0  0  0  0  0  0  0
   -1.2066   -1.0386   -3.4657 O   0  0  0  0  0  0  0  0  0  0  0  0
   -2.0021    1.8801   -2.2281 O   0  0  0  0  0  0  0  0  0  0  0  0
    0.9855   -0.9847   -1.2215 O   0  0  0  0  0  0  0  0  0  0  0  0
    0.3699   -3.0709   -1.5448 O   0  0  0  0  0  0  0  0  0  0  0  0
   -1.6632   -6.3524   -1.9714 O   0  0  0  0  0  0  0  0  0  0  0  0
    0.9640   -0.7332    1.3678 O   0  0  0  0  0  0  0  0  0  0  0  0
   -0.6683    0.0711   -0.0338 O   0  0  0  0  0  0  0  0  0  0  0  0
    2.6100    0.0711   -0.0338 O   0  0  0  0  0  0  0  0  0  0  0  0
   -1.9707   -2.8633   -1.9540 N   0  0  0  0  0  0  0  0  0  0  0  0
   -0.8613   -4.6124   -0.8134 N   0  0  0  0  0  0  0  0  0  0  0  0
   -1.1882    0.7595   -1.9445 C   0  0  2  0  0  0  0  0  0  0  0  0
   -0.3793    0.0720   -3.0198 C   0  0  1  0  0  0  0  0  0  0  0  0
   -2.1358   -1.4404   -2.4519 C   0  0  1  0  0  0  0  0  0  0  0  0
   -2.0703   -0.4840   -1.3466 C   0  0  0  0  0  0  0  0  0  0  0  0
    0.9923   -0.5157   -2.5629 C   0  0  0  0  0  0  0  0  0  0  0  0
   -0.7642   -3.4254   -1.4695 C   0  0  0  0  0  0  0  0  0  0  0  0
   -3.1648   -3.4941   -1.6598 C   0  0  0  0  0  0  0  0  0  0  0  0
   -1.9434   -5.4894   -0.9035 C   0  0  1  0  0  0  0  0  0  0  0  0
   -3.1833   -4.7488   -1.2039 C   0  0  0  0  0  0  0  0  0  0  0  0
  1  4  1  0
  1  7  1  0
  1  8  1  0
  1  9  2  0
  2 13  1  0
  2 14  1  0
  4 16  1  0
  5 17  2  0
 10 17  1  0
 10 18  1  0
 11 17  1  0
 11 19  1  0
 12  3  1  6
 12 13  1  0
 12 15  1  0
 13 16  1  1
 14 15  1  0
 14 10  1  1
 18 20  2  0
 19  6  1  6
 19 20  1  0
M  END
>  <DRUGBANK_ID>  (1) 
DB04280

>  <SECONDARY_ACCESSION_NUMBERS>  (1) 
EXPT01146

>  <COMMON_NAME>  (1) 
3,4-Dihydro-2'-deoxyuridine-5'-monophosphate

$$$$
