
     RDKit          3D

 36 40  0  0  1  0  0  0  0  0999 V2000
    1.2615    0.2040   -0.0745 C   0  0  0  0  0  0  0  0  0  0  0  0
    0.7859   -0.0232   -1.4694 C   0  0  0  0  0  0  0  0  0  0  0  0
    1.3174   -1.3390   -1.9586 C   0  0  0  0  0  0  0  0  0  0  0  0
   -0.6719    0.0815   -1.4785 C   0  0  1  0  0  0  0  0  0  0  0  0
   -1.3054   -0.0195   -3.1242 C   0  0  0  0  0  0  0  0  0  0  0  0
   -1.8417   -1.3179   -3.8176 C   0  0  0  0  0  0  0  0  0  0  0  0
   -1.8564   -2.7508   -3.2006 C   0  0  0  0  0  0  0  0  0  0  0  0
   -0.5574   -2.7509   -2.0715 C   0  0  0  0  0  0  0  0  0  0  0  0
   -1.0318   -1.4806   -0.5642 C   0  0  2  0  0  0  0  0  0  0  0  0
   -3.2680   -1.7824   -0.2070 C   0  0  0  0  0  0  0  0  0  0  0  0
   -4.2537   -2.9375    0.2995 C   0  0  0  0  0  0  0  0  0  0  0  0
   -3.8112   -3.4550    1.5345 N   0  0  0  0  0  0  0  0  0  0  0  0
   -3.9430   -4.5610    2.3382 C   0  0  0  0  0  0  0  0  0  0  0  0
   -2.4994   -3.9564    1.4095 C   0  0  0  0  0  0  0  0  0  0  0  0
   -1.5351   -4.9256    0.1763 C   0  0  0  0  0  0  0  0  0  0  0  0
   -2.1596   -4.5144   -1.1461 C   0  0  0  0  0  0  0  0  0  0  0  0
   -2.1182   -3.0098   -0.8918 C   0  0  0  0  0  0  0  0  0  0  0  0
   -1.4378   -2.8224    0.2874 N   0  0  0  0  0  0  0  0  0  0  0  0
   -1.8784   -1.3395    1.3351 C   0  0  0  0  0  0  0  0  0  0  0  0
   -2.4665   -1.4133    2.7626 C   0  0  0  0  0  0  0  0  0  0  0  0
   -3.7440   -0.9437    2.8507 C   0  0  0  0  0  0  0  0  0  0  0  0
   -4.1018   -0.0678    1.8473 C   0  0  0  0  0  0  0  0  0  0  0  0
   -3.2378    0.5118    0.8180 C   0  0  0  0  0  0  0  0  0  0  0  0
   -2.2523   -0.2858    0.2425 C   0  0  0  0  0  0  0  0  0  0  0  0
   -2.4157   -1.1926   -1.4711 N   0  0  0  0  0  0  0  0  0  0  0  0
    0.0921   -1.8820    0.8576 O   0  0  0  0  0  0  0  0  0  0  0  0
   -0.1001   -3.0077    1.7876 C   0  0  0  0  0  0  0  0  0  0  0  0
   -0.4160   -4.1875    1.7720 O   0  0  0  0  0  0  0  0  0  0  0  0
    0.1335   -2.8458    3.1337 C   0  0  0  0  0  0  0  0  0  0  0  0
    1.4656   -2.4272    3.2957 C   0  0  0  0  0  0  0  0  0  0  0  0
    1.1898   -3.9672    3.2402 C   0  0  0  0  0  0  0  0  0  0  0  0
   -2.5041   -1.2383   -4.9907 C   0  0  0  0  0  0  0  0  0  0  0  0
   -2.4785    0.0064   -5.5634 C   0  0  0  0  0  0  0  0  0  0  0  0
   -2.8965    0.0947   -6.8239 F   0  0  0  0  0  0  0  0  0  0  0  0
   -1.9951    1.1793   -4.9216 C   0  0  0  0  0  0  0  0  0  0  0  0
   -1.4956    1.2012   -3.6483 C   0  0  0  0  0  0  0  0  0  0  0  0
  1  2  1  0
  2  3  1  0
  4  2  1  6
  4  5  1  0
  4  9  1  0
  5  6  2  0
  5 36  1  0
  6  7  1  0
  6 32  1  0
  7  8  1  0
  9  8  1  0
  9 10  1  1
  9 26  1  0
 10 11  1  0
 11 12  1  0
 12 13  1  0
 12 14  1  0
 14 15  1  0
 15 16  1  0
 16 17  1  0
 17 18  2  0
 17 25  1  0
 18 19  1  0
 19 20  2  0
 19 24  1  0
 20 21  1  0
 21 22  2  0
 22 23  1  0
 23 24  2  0
 24 25  1  0
 26 27  1  0
 27 28  2  0
 27 29  1  0
 29 30  1  0
 29 31  1  0
 30 31  1  0
 32 33  2  0
 33 34  1  0
 33 35  1  0
 35 36  2  0
M  END
>  <DRUGBANK_ID>  (1) 
DB17037

>  <COMMON_NAME>  (1) 
NNC-55-0396 free base

>  <CAS_NUMBER>  (1) 
357400-14-7

>  <UNII>  (1) 
MET7ZRB8Y7

>  <SYNONYMS>  (1) 
Cyclopropanecarboxylic acid, (1s,2s)-2-(2-((3-(1h-benzimidazol-2-yl)propyl)methylamino)ethyl)-6-fluoro-1,2,3,4-tetrahydro-1-(1-methylethyl)-2-naphthalenyl ester

$$$$
