
     RDKit          3D

 15 14  0  0  0  0  0  0  0  0999 V2000
    1.0221   -0.0569    0.0312 O   0  0  0  0  0  0  0  0  0  0  0  0
    1.0948   -1.0911   -1.9562 O   0  0  0  0  0  0  0  0  0  0  0  0
   -3.0915    0.9846   -3.6459 N   0  0  0  0  0  0  0  0  0  0  0  0
   -5.1019    1.6230   -4.6298 N   0  0  0  0  0  0  0  0  0  0  0  0
   -1.6166   -1.3550    0.1858 N   0  0  0  0  0  0  0  0  0  0  0  0
   -3.0780    2.2214   -5.6296 N   0  0  0  0  0  0  0  0  0  0  0  0
   -1.1553    1.5780   -2.2348 C   0  0  0  0  0  0  0  0  0  0  0  0
   -1.6130    0.8111   -0.9919 C   0  0  0  0  0  0  0  0  0  0  0  0
   -1.6268    0.9308   -3.5280 C   0  0  0  0  0  0  0  0  0  0  0  0
   -1.0950   -0.6331   -0.9785 C   0  0  1  0  0  0  0  0  0  0  0  0
   -3.7529    1.6140   -4.6418 C   0  0  0  0  0  0  0  0  0  0  0  0
   -5.9496    2.2491   -5.6588 C   0  0  0  0  0  0  0  0  0  0  0  0
    0.4349   -0.6536   -1.0205 C   0  0  0  0  0  0  0  0  0  0  0  0
   -6.8063    1.2161   -6.3677 C   0  0  0  0  0  0  0  0  0  0  0  0
   -7.8058    0.5914   -5.4133 C   0  0  0  0  0  0  0  0  0  0  0  0
  1 13  1  0
  2 13  2  0
  3  9  1  0
  3 11  1  0
  4 11  2  0
  4 12  1  0
  6 11  1  0
  7  8  1  0
  7  9  1  0
  8 10  1  0
 10  5  1  1
 10 13  1  0
 12 14  1  0
 14 15  1  0
M  CHG  1   4   1
M  END
>  <DRUGBANK_ID>  (1) 
DB02644

>  <SECONDARY_ACCESSION_NUMBERS>  (1) 
EXPT00162

>  <COMMON_NAME>  (1) 
N-omega-propyl-L-arginine

$$$$
