
     RDKit          3D

 11 11  0  0  0  0  0  0  0  0999 V2000
   -0.7286   -0.9616   -0.0205 N   0  0  0  0  0  0  0  0  0  0  0  0
    0.7076   -1.0759    0.0243 C   0  0  0  0  0  0  0  0  0  0  0  0
   -1.1396    0.3458    0.1710 C   0  0  0  0  0  0  0  0  0  0  0  0
   -1.6037   -1.9749   -0.6179 C   0  0  0  0  0  0  0  0  0  0  0  0
    1.2287    0.3644    0.0717 C   0  0  0  0  0  0  0  0  0  0  0  0
    0.0135    1.2506   -0.1618 C   0  0  0  0  0  0  0  0  0  0  0  0
   -2.2596    0.7134    0.4931 O   0  0  0  0  0  0  0  0  0  0  0  0
   -2.7394   -2.3947    0.3099 C   0  0  0  0  0  0  0  0  0  0  0  0
    1.8302    0.6630    1.3313 O   0  0  0  0  0  0  0  0  0  0  0  0
   -3.9218   -2.3866   -0.0179 O   0  0  0  0  0  0  0  0  0  0  0  0
   -2.3520   -2.9255    1.5071 N   0  0  0  0  0  0  0  0  0  0  0  0
  1  2  1  0
  1  3  1  0
  1  4  1  0
  2  5  1  0
  3  6  1  0
  3  7  2  0
  4  8  1  0
  5  9  1  0
  5  6  1  0
  8 10  2  0
  8 11  1  0
M  END
>  <DRUGBANK_ID>  (1) 
DB13601

>  <COMMON_NAME>  (1) 
Oxiracetam

>  <CAS_NUMBER>  (1) 
62613-82-5

>  <UNII>  (1) 
P7U817352G

>  <SYNONYMS>  (1) 
Oxiracetam; Oxiracetamum

$$$$
