DMA
     RDKit          3D

 14 13  0  0  0  0  0  0  0  0999 V2000
    1.0472   -0.0291   -0.0968 C   0  0  0  0  0  0  0  0  0  0  0  0
    0.5436    1.1835    0.4436 O   0  0  0  0  0  0  0  0  0  0  0  0
    0.4772   -0.2328   -1.4618 C   0  0  0  0  0  0  0  0  0  0  0  0
   -0.2837   -1.2745   -1.8238 C   0  0  0  0  0  0  0  0  0  0  0  0
   -0.7799   -1.4432   -3.2322 C   0  0  0  0  0  0  0  0  0  0  0  0
   -0.6859   -2.3409   -0.8409 C   0  0  0  0  0  0  0  0  0  0  0  0
    1.1203    1.3718    2.0638 P   0  0  2  0  0  0  0  0  0  0  0  0
    2.5154    1.7231    1.5365 O   0  0  0  0  0  0  0  0  0  0  0  0
    0.2853    2.7900    2.0650 O   0  0  0  0  0  0  0  0  0  0  0  0
    1.6969    1.5601    3.6839 O   0  0  0  0  0  0  0  0  0  0  0  0
    0.5162    2.4087    4.6213 P   0  0  0  0  0  0  0  0  0  0  0  0
   -0.5646    1.3975    4.2179 O   0  0  0  0  0  0  0  0  0  0  0  0
    1.2449    1.8173    5.9495 O   0  0  0  0  0  0  0  0  0  0  0  0
   -0.6645    3.2572    5.5587 O   0  0  0  0  0  0  0  0  0  0  0  0
  1  2  1  0
  1  3  1  0
  3  4  2  3
  4  5  1  0
  4  6  1  0
  7  2  1  0
  7  8  2  0
  7  9  1  0
  7 10  1  0
 10 11  1  0
 11 12  2  0
 11 13  1  0
 11 14  1  0
M  END
>  <DRUGBANK_ID>  (1) 
DB01785

>  <SECONDARY_ACCESSION_NUMBERS>  (1) 
EXPT01221

>  <COMMON_NAME>  (1) 
Dimethylallyl Diphosphate

>  <CAS_NUMBER>  (1) 
358-72-5

$$$$
