
     RDKit          3D

 26 29  0  0  0  0  0  0  0  0999 V2000
   -3.2812    0.3058   -1.6227 C   0  0  0  0  0  0  0  0  0  0  0  0
   -2.0970   -0.8561   -1.2335 C   0  0  0  0  0  0  0  0  0  0  0  0
   -2.3317   -1.9383   -0.0714 C   0  0  0  0  0  0  0  0  0  0  0  0
   -1.6376   -3.0960    0.4587 C   0  0  0  0  0  0  0  0  0  0  0  0
   -2.6881   -2.3866    2.4632 C   0  0  0  0  0  0  0  0  0  0  0  0
   -3.7838   -1.5527    1.8956 C   0  0  0  0  0  0  0  0  0  0  0  0
   -3.8483   -1.6890    0.2940 C   0  0  1  0  0  0  0  0  0  0  0  0
   -7.4523    0.1214   -0.1978 C   0  0  0  0  0  0  0  0  0  0  0  0
   -7.0949    3.0646   -1.3478 C   0  0  0  0  0  0  0  0  0  0  0  0
   -5.8385    2.1669   -1.0660 C   0  0  0  0  0  0  0  0  0  0  0  0
   -4.8674   -0.5512   -0.0484 C   0  0  1  0  0  0  0  0  0  0  0  0
   -5.8697    0.8227   -1.8780 C   0  0  1  0  0  0  0  0  0  0  0  0
   -4.7677   -0.1428   -1.4708 C   0  0  1  0  0  0  0  0  0  0  0  0
   -7.3956    0.6073   -1.8629 C   0  0  2  0  0  0  0  0  0  0  0  0
   -7.4931    2.3283   -2.6461 C   0  0  1  0  0  0  0  0  0  0  0  0
   -2.7430   -3.4902    1.4551 C   0  0  0  0  0  0  0  0  0  0  0  0
   -3.5589   -4.3506    1.2664 O   0  0  0  0  0  0  0  0  0  0  0  0
   -6.3302   -0.9081    0.2712 C   0  0  0  0  0  0  0  0  0  0  0  0
   -6.5945   -1.8135    1.0523 O   0  0  0  0  0  0  0  0  0  0  0  0
   -8.0950    3.6305   -3.5834 C   0  0  0  0  0  0  0  0  0  0  0  0
   -7.3944    4.6727   -3.6961 O   0  0  0  0  0  0  0  0  0  0  0  0
   -9.2747    3.6091   -4.5284 C   0  0  0  0  0  0  0  0  0  0  0  0
  -10.0876    4.7843   -4.4496 O   0  0  0  0  0  0  0  0  0  0  0  0
   -6.1982    2.5543   -3.5661 O   0  0  0  0  0  0  0  0  0  0  0  0
   -4.2210   -2.8242   -0.7539 C   0  0  0  0  0  0  0  0  0  0  0  0
   -8.0963   -0.7472   -2.3679 C   0  0  0  0  0  0  0  0  0  0  0  0
  1  2  1  0
  2  3  1  0
  3  4  2  0
  3  7  1  0
  4 16  1  0
  5  6  1  0
  6  7  1  0
  7 11  1  0
  7 25  1  1
  8 14  1  0
  9 10  1  0
 12 10  1  1
 11 18  1  6
 13  1  1  1
 13 11  1  0
 13 12  1  0
 14 15  1  0
 14 12  1  0
 14 26  1  6
 15  9  1  0
 15 20  1  0
 15 24  1  6
 16  5  1  0
 16 17  2  0
 18  8  1  0
 18 19  2  0
 20 22  1  0
 20 21  2  0
 22 23  1  0
M  END
>  <DRUGBANK_ID>  (1) 
DB14681

>  <COMMON_NAME>  (1) 
Cortisone

>  <CAS_NUMBER>  (1) 
53-06-5

>  <UNII>  (1) 
V27W9254FZ

>  <SYNONYMS>  (1) 
11-dehydro-17-hydroxycorticosterone; 17alpha,21-Dihydroxy-4-pregnene-3,11,20-trione; 17α,21-dihydroxy-4-pregnene-3,11,20-trione; 4-pregnene-17α,21-diol-3,11,20-trione; Cortisona; Cortisone; Cortisonum; Kendall's compound E; Kortison; pregn-4-en-17α,21-diol-3,11,20-trione; Reichstein's substance Fa; Wintersteiner's compound F

$$$$
