T3O
     RDKit          3D

 19 21  0  0  0  0  0  0  0  0999 V2000
    0.1890   -0.0112   -1.5101 C   0  0  0  0  0  0  0  0  0  0  0  0
   -0.2412   -1.1917   -0.6255 C   0  0  1  0  0  0  0  0  0  0  0  0
    0.8357   -1.4042    0.4583 C   0  0  0  0  0  0  0  0  0  0  0  0
    0.9851   -2.7825    1.0381 C   0  0  0  0  0  0  0  0  0  0  0  0
    1.6331   -0.4110    0.8651 C   0  0  0  0  0  0  0  0  0  0  0  0
    1.5916    0.9761    0.2977 C   0  0  0  0  0  0  0  0  0  0  0  0
    0.3817    1.2230   -0.6113 C   0  0  2  0  0  0  0  0  0  0  0  0
   -0.9301    1.5399    0.1516 C   0  0  0  0  0  0  0  0  0  0  0  0
   -1.8556    2.2550   -0.8521 C   0  0  0  0  0  0  0  0  0  0  0  0
   -0.7627    2.5693    1.2861 C   0  0  0  0  0  0  0  0  0  0  0  0
   -1.5191    0.3742    0.7777 O   0  0  0  0  0  0  0  0  0  0  0  0
   -1.6290   -0.8637    0.0161 C   0  0  1  0  0  0  0  0  0  0  0  0
   -2.8470   -0.8047   -0.9197 C   0  0  0  0  0  0  0  0  0  0  0  0
   -3.0407   -1.6473   -2.0198 C   0  0  0  0  0  0  0  0  0  0  0  0
   -4.0059   -1.3284   -2.9927 C   0  0  0  0  0  0  0  0  0  0  0  0
   -4.6976   -0.1239   -2.9092 C   0  0  0  0  0  0  0  0  0  0  0  0
   -5.5367    0.3190   -3.8845 O   0  0  0  0  0  0  0  0  0  0  0  0
   -4.5701    0.6671   -1.7898 C   0  0  0  0  0  0  0  0  0  0  0  0
   -3.7917    0.2142   -0.7292 C   0  0  0  0  0  0  0  0  0  0  0  0
  1  2  1  0
  1  7  1  0
  2  3  1  1
  2 12  1  0
  3  4  1  0
  3  5  2  0
  5  6  1  0
  7  6  1  1
  7  8  1  0
  8  9  1  0
  8 10  1  0
  8 11  1  0
 11 12  1  0
 12 13  1  6
 13 14  2  0
 13 19  1  0
 14 15  1  0
 15 16  2  0
 16 17  1  0
 16 18  1  0
 18 19  2  0
M  END
>  <DRUGBANK_ID>  (1) 
DB08595

>  <COMMON_NAME>  (1) 
4-[(1S,2R,5S)-4,4,8-TRIMETHYL-3-OXABICYCLO[3.3.1]NON-7-EN-2-YL]PHENOL

$$$$
