
     RDKit          3D

 26 28  0  0  0  0  0  0  0  0999 V2000
    2.2550    0.0304    0.0041 C   0  0  0  0  0  0  0  0  0  0  0  0
    0.7825   -0.0825   -0.0265 C   0  0  0  0  0  0  0  0  0  0  0  0
   -0.0047   -1.2522   -0.0559 C   0  0  0  0  0  0  0  0  0  0  0  0
   -1.3303   -0.8421   -0.1031 C   0  0  0  0  0  0  0  0  0  0  0  0
   -1.2773    0.5461   -0.0834 O   0  0  0  0  0  0  0  0  0  0  0  0
    0.0163    1.0059   -0.0347 N   0  0  0  0  0  0  0  0  0  0  0  0
   -2.5801   -1.5786   -0.0517 C   0  0  0  0  0  0  0  0  0  0  0  0
   -3.6465   -0.7885    0.2235 C   0  0  0  0  0  0  0  0  0  0  0  0
   -4.8401   -1.1077    0.8057 N   0  0  0  0  0  0  0  0  0  0  0  0
   -6.1042   -0.5165    0.6380 C   0  0  0  0  0  0  0  0  0  0  0  0
   -6.4324    0.3406   -0.4165 C   0  0  0  0  0  0  0  0  0  0  0  0
   -7.7556    0.7611   -0.5945 C   0  0  0  0  0  0  0  0  0  0  0  0
   -8.7491    0.3334    0.2853 C   0  0  0  0  0  0  0  0  0  0  0  0
  -10.3817    0.8123    0.0361 Cl  0  0  0  0  0  0  0  0  0  0  0  0
   -8.4462   -0.5714    1.2974 C   0  0  0  0  0  0  0  0  0  0  0  0
   -7.1245   -0.9635    1.4929 C   0  0  0  0  0  0  0  0  0  0  0  0
   -2.5577   -3.1107   -0.0475 C   0  0  0  0  0  0  0  0  0  0  0  0
   -1.4673   -3.7156    0.0355 O   0  0  0  0  0  0  0  0  0  0  0  0
   -3.6582   -3.9313   -0.0614 N   0  0  0  0  0  0  0  0  0  0  0  0
   -4.9946   -3.7372   -0.4405 C   0  0  0  0  0  0  0  0  0  0  0  0
   -5.3474   -2.8812   -1.4811 C   0  0  0  0  0  0  0  0  0  0  0  0
   -6.6896   -2.5417   -1.6833 C   0  0  0  0  0  0  0  0  0  0  0  0
   -7.6821   -3.0632   -0.8547 C   0  0  0  0  0  0  0  0  0  0  0  0
   -9.3281   -2.6296   -1.1138 Cl  0  0  0  0  0  0  0  0  0  0  0  0
   -7.3263   -3.8467    0.2430 C   0  0  0  0  0  0  0  0  0  0  0  0
   -5.9905   -4.2324    0.4219 C   0  0  0  0  0  0  0  0  0  0  0  0
  1  2  1  0
  2  3  1  0
  2  6  2  0
  3  4  2  0
  4  5  1  0
  4  7  1  0
  5  6  1  0
  7  8  2  0
  7 17  1  0
  8  9  1  0
  9 10  1  0
 10 11  2  0
 10 16  1  0
 11 12  1  0
 12 13  2  0
 13 14  1  0
 13 15  1  0
 15 16  2  0
 17 18  2  0
 17 19  1  0
 19 20  1  0
 20 21  2  0
 20 26  1  0
 21 22  1  0
 22 23  2  0
 23 24  1  0
 23 25  1  0
 25 26  2  0
M  END
>  <DRUGBANK_ID>  (1) 
DB18707

>  <COMMON_NAME>  (1) 
AVL-3288

>  <CAS_NUMBER>  (1) 
917837-54-8

>  <UNII>  (1) 
VA80VAX4WF

>  <SYNONYMS>  (1) 
(z)-3-(4-chloroanilino)-n-(4-chlorophenyl)-2-(3-methylisoxazol-5-yl)prop-2-enamide; Anvylic-3288; AVL-3288

$$$$
