
     RDKit          3D

 30 32  0  0  0  0  0  0  0  0999 V2000
    1.1558   -0.0621    0.0929 C   0  0  0  0  0  0  0  0  0  0  0  0
    0.6078   -0.8587   -1.1003 C   0  0  0  0  0  0  0  0  0  0  0  0
    1.2215   -2.2582   -0.9571 C   0  0  0  0  0  0  0  0  0  0  0  0
   -0.9580   -0.8149   -1.1841 C   0  0  0  0  0  0  0  0  0  0  0  0
   -1.3870    0.6614   -1.3320 C   0  0  0  0  0  0  0  0  0  0  0  0
   -1.9724    1.1296   -2.3036 O   0  0  0  0  0  0  0  0  0  0  0  0
   -1.1563    1.4471   -0.2329 O   0  0  0  0  0  0  0  0  0  0  0  0
   -1.6281    2.8353   -0.3726 C   0  0  0  0  0  0  0  0  0  0  0  0
   -1.1215    3.4377   -1.6729 C   0  0  0  0  0  0  0  0  0  0  0  0
   -0.7012    3.9374   -2.7517 N   0  0  0  0  0  0  0  0  0  0  0  0
   -3.1666    2.8432   -0.2674 C   0  0  0  0  0  0  0  0  0  0  0  0
   -3.8911    1.6298   -0.1661 C   0  0  0  0  0  0  0  0  0  0  0  0
   -5.2705    1.5767   -0.1768 C   0  0  0  0  0  0  0  0  0  0  0  0
   -5.9723    2.7564   -0.1913 C   0  0  0  0  0  0  0  0  0  0  0  0
   -5.3013    3.9824   -0.1412 C   0  0  0  0  0  0  0  0  0  0  0  0
   -5.9633    5.1742    0.0579 O   0  0  0  0  0  0  0  0  0  0  0  0
   -7.2564    5.1249    0.5412 C   0  0  0  0  0  0  0  0  0  0  0  0
   -7.6570    4.3671    1.6540 C   0  0  0  0  0  0  0  0  0  0  0  0
   -9.0005    4.3406    2.0331 C   0  0  0  0  0  0  0  0  0  0  0  0
   -9.9240    5.1355    1.3569 C   0  0  0  0  0  0  0  0  0  0  0  0
   -9.5100    5.9388    0.2932 C   0  0  0  0  0  0  0  0  0  0  0  0
   -8.1867    5.9010   -0.1414 C   0  0  0  0  0  0  0  0  0  0  0  0
   -3.9053    4.0354   -0.2782 C   0  0  0  0  0  0  0  0  0  0  0  0
   -1.5290   -1.7373   -2.3044 C   0  0  0  0  0  0  0  0  0  0  0  0
   -1.3015   -3.1228   -2.2594 C   0  0  0  0  0  0  0  0  0  0  0  0
   -1.5954   -3.9545   -3.3453 C   0  0  0  0  0  0  0  0  0  0  0  0
   -2.3176   -3.4583   -4.4184 C   0  0  0  0  0  0  0  0  0  0  0  0
   -2.6900   -4.4579   -5.7604 Cl  0  0  0  0  0  0  0  0  0  0  0  0
   -2.7307   -2.1422   -4.4107 C   0  0  0  0  0  0  0  0  0  0  0  0
   -2.2787   -1.2875   -3.4068 C   0  0  0  0  0  0  0  0  0  0  0  0
  1  2  1  0
  2  3  1  0
  2  4  1  0
  4  5  1  0
  4 24  1  0
  5  6  2  0
  5  7  1  0
  7  8  1  0
  8  9  1  0
  8 11  1  0
  9 10  3  0
 11 12  2  0
 11 23  1  0
 12 13  1  0
 13 14  2  0
 14 15  1  0
 15 16  1  0
 15 23  2  0
 16 17  1  0
 17 18  2  0
 17 22  1  0
 18 19  1  0
 19 20  2  0
 20 21  1  0
 21 22  2  0
 24 25  2  0
 24 30  1  0
 25 26  1  0
 26 27  2  0
 27 28  1  0
 27 29  1  0
 29 30  2  0
M  END
>  <DRUGBANK_ID>  (1) 
DB18391

>  <COMMON_NAME>  (1) 
Fenvalerate

>  <CAS_NUMBER>  (1) 
51630-58-1

>  <UNII>  (1) 
Z6MXZ39302

>  <SYNONYMS>  (1) 
(.alpha.rs)-.alpha.-cyano-3-phenoxybenzyl (2rs)-2-(4-chlorophenyl)-3-methylbutyrate; (rs)-.alpha.-cyano-3-phenoxybenzyl (rs)-2-(4-chloro-phenyl)-3-methylbutyrate; Belmark; Benzeneacetic acid, 4-chloro-.alpha.-(1-methylethyl)-, cyano(3-phenoxyphenyl)methyl ester; Cyano(3-phenoxyphenyl)methyl 4-chloro-.alpha.-(1-methylethyl)benzeneacetate; methyl (R)-4-((3S,5R,7R,8R,9S,10S,13R,14S,17R)-7-hydroxy-10,13-dimethyl-3-((4-((pyridin-3- ylmethyl)amino)butyl)amino)hexadecahydro-1H-cyclopenta[a]phenanthren-17-yl)pentanoate; Phenvalerate; Pydrin; Pyridin; Sumicidin; Tirade

$$$$
