AUP
     RDKit          3D

 27 31  0  0  0  0  0  0  0  0999 V2000
    0.1813   -0.7096    0.0573 C   0  0  0  0  0  0  0  0  0  0  0  0
    0.5175    0.7226   -0.0239 C   0  0  0  0  0  0  0  0  0  0  0  0
   -0.6445    1.7035   -0.0518 C   0  0  0  0  0  0  0  0  0  0  0  0
   -2.0221    1.0967    0.3176 C   0  0  0  0  0  0  0  0  0  0  0  0
   -2.2469   -0.2258   -0.3952 C   0  0  0  0  0  0  0  0  0  0  0  0
   -1.2251   -1.2192    0.1085 C   0  0  0  0  0  0  0  0  0  0  0  0
    1.2482   -1.5381    0.0984 C   0  0  0  0  0  0  0  0  0  0  0  0
    2.7835   -0.6314    0.1645 P   0  0  0  0  0  0  0  0  0  0  0  0
    1.8591    0.9558   -0.1068 C   0  0  0  0  0  0  0  0  0  0  0  0
    2.5848    3.0912    0.8206 N   0  0  0  0  0  0  0  0  0  0  0  0
    3.4387    4.1526    0.8024 C   0  0  0  0  0  0  0  0  0  0  0  0
    4.3845    4.3879   -0.1837 C   0  0  0  0  0  0  0  0  0  0  0  0
    4.4860    3.4615   -1.2067 C   0  0  0  0  0  0  0  0  0  0  0  0
    3.6411    2.3491   -1.2006 C   0  0  0  0  0  0  0  0  0  0  0  0
    2.6891    2.1871   -0.1855 C   0  0  0  0  0  0  0  0  0  0  0  0
    5.0473   -1.6872   -3.7106 C   0  0  0  0  0  0  0  0  0  0  0  0
    3.7376   -1.2228   -3.8309 C   0  0  0  0  0  0  0  0  0  0  0  0
    2.9744   -0.9573   -2.6856 C   0  0  0  0  0  0  0  0  0  0  0  0
    3.5249   -1.1445   -1.4099 C   0  0  0  0  0  0  0  0  0  0  0  0
    4.7917   -1.7421   -1.3172 C   0  0  0  0  0  0  0  0  0  0  0  0
    5.5691   -1.9616   -2.4519 C   0  0  0  0  0  0  0  0  0  0  0  0
    1.7744   -3.6107    1.1715 N   0  0  0  0  0  0  0  0  0  0  0  0
    1.2149   -2.9899    0.1072 C   0  0  0  0  0  0  0  0  0  0  0  0
    0.6041   -3.6777   -0.9389 C   0  0  0  0  0  0  0  0  0  0  0  0
    0.5014   -5.0562   -0.8620 C   0  0  0  0  0  0  0  0  0  0  0  0
    1.0601   -5.7112    0.2275 C   0  0  0  0  0  0  0  0  0  0  0  0
    1.6944   -4.9542    1.2005 C   0  0  0  0  0  0  0  0  0  0  0  0
  1  2  1  0
  1  6  1  0
  1  7  2  0
  2  3  1  0
  2  9  2  0
  3  4  1  0
  4  5  1  0
  5  6  1  0
  7  8  1  0
  7 23  1  0
  8  9  1  0
  8 19  1  0
  9 15  1  0
 10 11  2  0
 10 15  1  0
 11 12  1  0
 12 13  2  0
 13 14  1  0
 14 15  2  0
 16 17  2  0
 16 21  1  0
 17 18  1  0
 18 19  2  0
 19 20  1  0
 20 21  2  0
 22 23  2  0
 22 27  1  0
 23 24  1  0
 24 25  2  0
 25 26  1  0
 26 27  2  0
M  END
>  <DRUGBANK_ID>  (1) 
DB07393

>  <COMMON_NAME>  (1) 
2-(2-PHENYL-3-PYRIDIN-2-YL-4,5,6,7-TETRAHYDRO-2H-ISOPHOSPHINDOL-1-YL)PYRIDINE

$$$$
