S91
     RDKit          3D

 28 30  0  0  0  0  0  0  0  0999 V2000
    1.3912   -0.2256    0.0487 C   0  0  0  0  0  0  0  0  0  0  0  0
    0.4814   -1.2918    0.0245 C   0  0  0  0  0  0  0  0  0  0  0  0
   -0.9012   -1.0517   -0.0363 C   0  0  0  0  0  0  0  0  0  0  0  0
   -1.3971    0.2575   -0.0533 C   0  0  0  0  0  0  0  0  0  0  0  0
   -0.4705    1.3054    0.0286 C   0  0  0  0  0  0  0  0  0  0  0  0
    0.9000    1.0782    0.0233 C   0  0  0  0  0  0  0  0  0  0  0  0
    2.8762   -0.4528    0.1419 C   0  0  0  0  0  0  0  0  0  0  0  0
    3.6241    0.0591   -1.0727 C   0  0  0  0  0  0  0  0  0  0  0  0
    4.5539    1.0080   -0.7979 O   0  0  0  0  0  0  0  0  0  0  0  0
    3.4320   -0.3367   -2.2079 O   0  0  0  0  0  0  0  0  0  0  0  0
   -4.2447    2.1293    0.6019 N   0  0  0  0  0  0  0  0  0  0  0  0
   -4.6713    3.4221    0.6651 C   0  0  0  0  0  0  0  0  0  0  0  0
   -4.2854    4.3828   -0.2581 C   0  0  0  0  0  0  0  0  0  0  0  0
   -3.4017    3.9177   -1.2114 C   0  0  0  0  0  0  0  0  0  0  0  0
   -2.9090    2.6602   -1.2491 N   0  0  0  0  0  0  0  0  0  0  0  0
   -3.3440    1.7929   -0.3255 C   0  0  0  0  0  0  0  0  0  0  0  0
   -4.7318    5.8005   -0.3476 C   0  0  0  0  0  0  0  0  0  0  0  0
   -4.2959    6.5158   -1.2553 O   0  0  0  0  0  0  0  0  0  0  0  0
   -5.4583    3.8030    1.7760 N   0  0  0  0  0  0  0  0  0  0  0  0
   -2.7630    0.5233   -0.2640 N   0  0  0  0  0  0  0  0  0  0  0  0
   -5.6399    6.3702    0.5136 N   0  0  0  0  0  0  0  0  0  0  0  0
   -7.1657    1.2422    4.6049 C   0  0  0  0  0  0  0  0  0  0  0  0
   -5.7846    1.4496    4.6002 C   0  0  0  0  0  0  0  0  0  0  0  0
   -5.2121    2.2846    3.6499 C   0  0  0  0  0  0  0  0  0  0  0  0
   -6.0185    2.9054    2.7010 C   0  0  0  0  0  0  0  0  0  0  0  0
   -7.3966    2.6559    2.6733 C   0  0  0  0  0  0  0  0  0  0  0  0
   -7.9884    1.8790    3.6690 C   0  0  0  0  0  0  0  0  0  0  0  0
   -9.4823    1.8126    3.7725 C   0  0  0  0  0  0  0  0  0  0  0  0
  1  2  2  0
  1  6  1  0
  1  7  1  0
  2  3  1  0
  3  4  2  0
  4  5  1  0
  4 20  1  0
  5  6  2  0
  7  8  1  0
  8  9  1  0
  8 10  2  0
 11 12  2  0
 11 16  1  0
 12 13  1  0
 12 19  1  0
 13 14  2  0
 13 17  1  0
 14 15  1  0
 15 16  2  0
 16 20  1  0
 17 18  2  0
 17 21  1  0
 19 25  1  0
 22 23  2  0
 22 27  1  0
 23 24  1  0
 24 25  2  0
 25 26  1  0
 26 27  2  0
 27 28  1  0
M  END
>  <DRUGBANK_ID>  (1) 
DB08513

>  <COMMON_NAME>  (1) 
[4-({5-(AMINOCARBONYL)-4-[(3-METHYLPHENYL)AMINO]PYRIMIDIN-2-YL}AMINO)PHENYL]ACETIC ACID

$$$$
