
     RDKit          3D

 29 32  0  0  1  0  0  0  0  0999 V2000
    0.8870    0.0807    2.0764 C   0  0  0  0  0  0  0  0  0  0  0  0
    0.2090   -0.9113    1.1756 C   0  0  2  0  0  0  0  0  0  0  0  0
    0.6437   -0.0492   -0.1249 C   0  0  0  0  0  0  0  0  0  0  0  0
    0.7500    1.5855   -0.0800 C   0  0  0  0  0  0  0  0  0  0  0  0
    1.7720    2.4097    0.8524 C   0  0  0  0  0  0  0  0  0  0  0  0
    3.2617    1.9821    0.7749 C   0  0  0  0  0  0  0  0  0  0  0  0
    3.8267    2.3540   -0.5752 C   0  0  0  0  0  0  0  0  0  0  0  0
    4.0886    2.6393    1.8799 C   0  0  0  0  0  0  0  0  0  0  0  0
   -1.4264   -1.3605    1.7420 C   0  0  1  0  0  0  0  0  0  0  0  0
   -2.1710   -2.9240    2.6405 C   0  0  0  0  0  0  0  0  0  0  0  0
   -1.4737   -3.0912    4.0452 C   0  0  0  0  0  0  0  0  0  0  0  0
   -0.5862   -2.1620    3.4914 C   0  0  1  0  0  0  0  0  0  0  0  0
   -1.5510   -0.8632    3.1357 C   0  0  1  0  0  0  0  0  0  0  0  0
   -1.2657    0.2694    4.0673 C   0  0  0  0  0  0  0  0  0  0  0  0
    0.1101    0.4315    4.6897 C   0  0  0  0  0  0  0  0  0  0  0  0
    0.9419   -0.8796    4.9775 C   0  0  1  0  0  0  0  0  0  0  0  0
    0.8033   -2.0090    4.0027 C   0  0  1  0  0  0  0  0  0  0  0  0
    1.5040   -3.2988    4.3484 C   0  0  0  0  0  0  0  0  0  0  0  0
    3.0058   -3.0441    4.1140 C   0  0  2  0  0  0  0  0  0  0  0  0
    3.3559   -1.6208    4.6535 C   0  0  0  0  0  0  0  0  0  0  0  0
    2.4568   -0.6700    5.0144 C   0  0  0  0  0  0  0  0  0  0  0  0
    2.8406    0.7593    5.3206 C   0  0  0  0  0  0  0  0  0  0  0  0
    4.2727    0.8570    5.7656 C   0  0  0  0  0  0  0  0  0  0  0  0
    5.1964    0.1137    4.8112 C   0  0  1  0  0  0  0  0  0  0  0  0
    4.8472   -1.3646    4.7306 C   0  0  0  0  0  0  0  0  0  0  0  0
    5.1262    0.6245    3.4883 O   0  0  0  0  0  0  0  0  0  0  0  0
    3.4431   -3.1921    2.6038 C   0  0  0  0  0  0  0  0  0  0  0  0
    2.8493   -5.0309    1.6220 I   0  0  0  0  0  0  0  0  0  0  0  0
   -3.2090   -0.6955    2.9735 C   0  0  0  0  0  0  0  0  0  0  0  0
  2  3  1  0
  2  1  1  1
  3  4  1  0
  4  5  1  0
  5  6  1  0
  6  7  1  0
  6  8  1  0
  9  2  1  0
  9 10  1  1
  9 13  1  0
 10 11  1  0
 12 11  1  1
 12 13  1  0
 12 17  1  0
 13 14  1  0
 13 29  1  1
 14 15  1  0
 16 15  1  6
 16 17  1  0
 16 21  1  0
 17 18  1  1
 18 19  1  0
 19 20  1  0
 19 27  1  6
 20 21  2  0
 20 25  1  0
 21 22  1  0
 22 23  1  0
 23 24  1  0
 24 25  1  0
 24 26  1  6
 27 28  1  0
M  ISO  1  28 131
M  END
>  <DRUGBANK_ID>  (1) 
DB13487

>  <COMMON_NAME>  (1) 
Iodine (131I) norcholesterol

>  <CAS_NUMBER>  (1) 
56897-09-7

>  <UNII>  (1) 
HFE9M7UF0L

>  <SYNONYMS>  (1) 
Norcholestenol iodomethyl i-131

$$$$
