38521
     RDKit          3D

 15 16  0  0  1  0  0  0  0  0999 V2000
   -0.6870   -0.0052   -1.0310 O   0  0  0  0  0  0  0  0  0  0  0  0
   -1.4424   -0.5117    1.0665 O   0  0  0  0  0  0  0  0  0  0  0  0
   -1.6618    2.2343   -2.7835 N   0  0  0  0  0  0  0  0  0  0  0  0
    0.5745    1.6808   -2.3415 N   0  0  0  0  0  0  0  0  0  0  0  0
    0.0484    2.3172   -4.3447 N   0  0  0  0  0  0  0  0  0  0  0  0
   -0.2691   -0.2253    0.3126 C   0  0  0  0  0  0  0  0  0  0  0  0
    0.6981   -1.4079    0.2743 C   0  0  0  0  0  0  0  0  0  0  0  0
    0.4541    1.0043    0.9217 C   0  0  0  0  0  0  0  0  0  0  0  0
    1.8207    1.3636    0.3234 C   0  0  0  0  0  0  0  0  0  0  0  0
    1.9748   -1.0599   -0.5018 C   0  0  0  0  0  0  0  0  0  0  0  0
    2.7055    0.1499    0.0820 C   0  0  0  0  0  0  0  0  0  0  0  0
   -2.0408    0.4689   -1.0168 C   0  0  0  0  0  0  0  0  0  0  0  0
   -2.5263    0.1445    0.3857 C   0  0  0  0  0  0  0  0  0  0  0  0
   -2.0915    1.9704   -1.3823 C   0  0  0  0  0  0  0  0  0  0  0  0
   -0.4415    2.0828   -3.1175 C   0  0  0  0  0  0  0  0  0  0  0  0
  1  6  1  0
  1 12  1  0
  2  6  1  0
  2 13  1  0
  3 14  1  0
  3 15  2  3
  4 15  1  0
  5 15  1  0
  6  7  1  0
  6  8  1  0
  7 10  1  0
  8  9  1  0
  9 11  1  0
 10 11  1  0
 12 13  1  0
 12 14  1  0
M  END
>  <DRUGBANK_ID>  (1) 
DB00226

>  <SECONDARY_ACCESSION_NUMBERS>  (1) 
APRD01006

>  <COMMON_NAME>  (1) 
Guanadrel

>  <CAS_NUMBER>  (1) 
40580-59-4

>  <UNII>  (1) 
765C9332T4

>  <SYNONYMS>  (1) 
Guanadrel; Guanadrelum

$$$$
