
     RDKit          3D

 30 34  0  0  0  0  0  0  0  0999 V2000
  -12.7802   11.5241   -2.9489 C   0  0  2  0  0  0  0  0  0  0  0  0
  -11.7456   12.6268   -4.2291 C   0  0  2  0  0  0  0  0  0  0  0  0
  -10.6050   12.6239   -3.1384 C   0  0  1  0  0  0  0  0  0  0  0  0
  -12.7704   15.8700   -1.7489 C   0  0  2  0  0  0  0  0  0  0  0  0
  -11.3337   13.6531   -2.0957 C   0  0  2  0  0  0  0  0  0  0  0  0
  -11.8104   10.4614   -3.2519 C   0  0  1  0  0  0  0  0  0  0  0  0
  -11.5353   15.1389   -2.4660 C   0  0  1  0  0  0  0  0  0  0  0  0
  -13.5325   15.3661   -0.5065 C   0  0  0  0  0  0  0  0  0  0  0  0
  -11.3637   14.2080   -4.7513 C   0  0  0  0  0  0  0  0  0  0  0  0
  -11.9147   15.2609   -3.9526 C   0  0  2  0  0  0  0  0  0  0  0  0
  -13.8585   15.4448   -2.6804 C   0  0  0  0  0  0  0  0  0  0  0  0
  -10.4507   11.0590   -2.9346 C   0  0  0  0  0  0  0  0  0  0  0  0
  -15.0040   15.3614   -0.5694 C   0  0  0  0  0  0  0  0  0  0  0  0
  -11.2573   13.4665   -0.6120 C   0  0  0  0  0  0  0  0  0  0  0  0
  -14.9374   16.1225   -3.0289 C   0  0  0  0  0  0  0  0  0  0  0  0
  -15.6961   15.2454   -2.1297 C   0  0  0  0  0  0  0  0  0  0  0  0
  -12.4978   14.2798    0.1836 C   0  0  0  0  0  0  0  0  0  0  0  0
  -16.4863   14.3837   -2.5896 O   0  0  0  0  0  0  0  0  0  0  0  0
  -11.1614   12.1188   -5.7154 C   0  0  0  0  0  0  0  0  0  0  0  0
  -11.8320   16.5811   -4.4412 O   0  0  0  0  0  0  0  0  0  0  0  0
  -12.3994   17.3606   -1.6136 C   0  0  0  0  0  0  0  0  0  0  0  0
  -13.8997   10.5489   -2.8213 O   0  0  0  0  0  0  0  0  0  0  0  0
  -13.6040    9.1335   -2.8327 C   0  0  0  0  0  0  0  0  0  0  0  0
  -12.2128    9.1444   -3.0548 O   0  0  0  0  0  0  0  0  0  0  0  0
  -13.5258   11.8558   -1.3949 C   0  0  0  0  0  0  0  0  0  0  0  0
  -13.5748   10.9489   -0.0343 C   0  0  0  0  0  0  0  0  0  0  0  0
  -14.3401   12.7917   -1.3098 O   0  0  0  0  0  0  0  0  0  0  0  0
  -12.9658   11.3159    1.2044 O   0  0  0  0  0  0  0  0  0  0  0  0
  -13.6325    7.6532   -2.2608 C   0  0  0  0  0  0  0  0  0  0  0  0
  -15.0029    8.9787   -3.4935 C   0  0  0  0  0  0  0  0  0  0  0  0
  1 22  1  0
  1 25  1  1
  2  1  1  0
  2 19  1  6
  3  2  1  0
  4 21  1  1
  5  3  1  0
  6  1  1  0
  6 24  1  0
  7  4  1  0
  7  5  1  0
  8  4  1  0
  9  2  1  0
  7 10  1  6
 10  9  1  0
 10 20  1  6
 11  4  1  0
  3 12  1  1
  6 12  1  1
 13  8  2  0
  5 14  1  1
 15 11  2  0
 16 13  1  0
 16 15  1  0
 17  8  1  0
 17 14  1  0
 18 16  2  0
 23 22  1  0
 24 23  1  0
 26 25  1  0
 27 25  2  0
 28 26  1  0
 29 23  1  0
 30 23  1  0
M  END
>  <DRUGBANK_ID>  (1) 
DB01260

>  <COMMON_NAME>  (1) 
Desonide

>  <CAS_NUMBER>  (1) 
638-94-8

>  <UNII>  (1) 
J280872D1O

>  <SYNONYMS>  (1) 
11β,21-dihydroxy-16α,17-[(1-methylethylidene)bis(oxy)]pregna-1,4-diene-3,20-dione; 11β,21-dihydroxy-16α,17-isopropylidenedioxypregna-1,4-diene-3,20-dione; 11β,21-dihydroxy-16α,17α-isopropylidenedioxypregna-1,4-diene-3,20-dione; 16α-hydroxyprednisole-16,17-acetonide; 16α-hydroxyprednisolone-16α,17-acetonide; 16α,17α-isopropylidenedioxyprednisolone; Desfluorotriamcinolone acetonide; Desonida; Desonide; Desonidum

$$$$
