
     RDKit          3D

  3  2  0  0  0  0  0  0  0  0999 V2000
    0.9184    0.0497   -0.0295 C   0  0  0  0  0  0  0  0  0  0  0  0
   -0.2786    0.0497   -0.0295 O   0  0  0  0  0  0  0  0  0  0  0  0
    2.1154    0.0497   -0.0295 O   0  0  0  0  0  0  0  0  0  0  0  0
  1  2  2  0
  1  3  2  0
M  END
>  <DRUGBANK_ID>  (1) 
DB09157

>  <COMMON_NAME>  (1) 
Carbon dioxide

>  <CAS_NUMBER>  (1) 
124-38-9

>  <UNII>  (1) 
142M471B3J

>  <SYNONYMS>  (1) 
Carbon dioxide

$$$$
