
     RDKit          3D

 17 16  0  0  0  0  0  0  0  0999 V2000
    2.9925    0.5876   -1.3553 C   0  0  0  0  0  0  0  0  0  0  0  0
    2.3150    0.3893   -2.6976 C   0  0  0  0  0  0  0  0  0  0  0  0
    0.7997    0.4675   -2.5681 C   0  0  0  0  0  0  0  0  0  0  0  0
    0.3439    1.8464   -2.1702 C   0  0  0  0  0  0  0  0  0  0  0  0
   -0.3946    2.6725   -2.9253 C   0  0  0  0  0  0  0  0  0  0  0  0
   -0.8717    2.2941   -4.2173 C   0  0  0  0  0  0  0  0  0  0  0  0
   -1.6004    3.0881   -5.0039 C   0  0  0  0  0  0  0  0  0  0  0  0
   -2.1479    2.5618   -6.2923 C   0  0  0  0  0  0  0  0  0  0  0  0
   -3.6733    2.5913   -6.2464 C   0  0  0  0  0  0  0  0  0  0  0  0
   -4.1903    4.0167   -6.0234 C   0  0  0  0  0  0  0  0  0  0  0  0
   -3.6918    4.9548   -7.1291 C   0  0  0  0  0  0  0  0  0  0  0  0
   -4.2083    4.4945   -8.4954 C   0  0  0  0  0  0  0  0  0  0  0  0
   -5.7404    4.4974   -8.5136 C   0  0  0  0  0  0  0  0  0  0  0  0
   -6.2846    5.9064   -8.2499 C   0  0  0  0  0  0  0  0  0  0  0  0
   -5.8135    6.8910   -9.3264 C   0  0  0  0  0  0  0  0  0  0  0  0
   -6.2679    6.4580  -10.7160 C   0  0  0  0  0  0  0  0  0  0  0  0
   -7.6868    6.4149  -10.7755 O   0  0  0  0  0  0  0  0  0  0  0  0
  2  1  1  0
  3  2  1  0
  4  3  1  0
  5  4  2  0
  6  5  1  0
  7  6  2  0
  8  7  1  0
  9  8  1  0
 10  9  1  0
 11 10  1  0
 12 11  1  0
 13 12  1  0
 14 13  1  0
 15 14  1  0
 16 15  1  0
 17 16  1  0
M  END
>  <DRUGBANK_ID>  (1) 
DB02982

>  <SECONDARY_ACCESSION_NUMBERS>  (1) 
EXPT00738

>  <COMMON_NAME>  (1) 
Bombykol

>  <UNII>  (1) 
LZT8R8TVZ7

$$$$
