
     RDKit          3D

  6  5  0  0  0  0  0  0  0  0999 V2000
    1.0954   -0.0316    0.2313 C   0  0  0  0  0  0  0  0  0  0  0  0
   -0.8945   -1.3931    0.2181 C   0  0  0  0  0  0  0  0  0  0  0  0
    1.0757   -2.1533   -1.0013 C   0  0  0  0  0  0  0  0  0  0  0  0
    0.6394   -1.7115   -2.4110 C   0  0  0  0  0  0  0  0  0  0  0  0
    0.5624   -1.3868    0.1502 N   0  0  0  0  0  0  0  0  0  0  0  0
    1.1814   -0.4502   -2.7800 O   0  0  0  0  0  0  0  0  0  0  0  0
  4  3  1  0
  5  1  1  0
  5  2  1  0
  5  3  1  0
  6  4  1  0
M  END
>  <DRUGBANK_ID>  (1) 
DB13352

>  <COMMON_NAME>  (1) 
Deanol

>  <CAS_NUMBER>  (1) 
108-01-0

>  <UNII>  (1) 
2N6K9DRA24

>  <SYNONYMS>  (1) 
2-(dimethylamino)ethanol; Dimethylethanolamine

$$$$
