
     RDKit          3D

  7  6  0  0  0  0  0  0  0  0999 V2000
    0.8502    0.0722    0.0809 O   0  0  0  0  0  0  0  0  0  0  0  0
    0.2719    0.6854   -0.9711 C   0  0  0  0  0  0  0  0  0  0  0  0
    0.9498    1.2670   -1.8039 O   0  0  0  0  0  0  0  0  0  0  0  0
   -1.2194    0.6351   -0.9228 C   0  0  0  0  0  0  0  0  0  0  0  0
   -1.7369   -0.7653   -1.0258 C   0  0  0  0  0  0  0  0  0  0  0  0
   -2.5579   -1.1524   -0.0237 O   0  0  0  0  0  0  0  0  0  0  0  0
   -1.4734   -1.5117   -1.9582 O   0  0  0  0  0  0  0  0  0  0  0  0
  1  2  1  0
  2  3  2  0
  2  4  1  0
  4  5  1  0
  5  6  1  0
  5  7  2  0
M  END
>  <DRUGBANK_ID>  (1) 
DB02175

>  <SECONDARY_ACCESSION_NUMBERS>  (1) 
EXPT02179

>  <COMMON_NAME>  (1) 
Malonic acid

>  <CAS_NUMBER>  (1) 
141-82-2

>  <UNII>  (1) 
9KX7ZMG0MK

>  <SYNONYMS>  (1) 
Propanedioic acid

$$$$
