
     RDKit          3D

 20 21  0  0  0  0  0  0  0  0999 V2000
    1.0288   -0.2797   -0.1067 C   0  0  0  0  0  0  0  0  0  0  0  0
    0.4785   -0.1902   -1.5151 C   0  0  0  0  0  0  0  0  0  0  0  0
   -0.2478   -1.0863   -1.9481 O   0  0  0  0  0  0  0  0  0  0  0  0
    0.8539    0.9817   -2.4121 C   0  0  0  0  0  0  0  0  0  0  0  0
    0.3569    2.3278   -1.9052 C   0  0  0  0  0  0  0  0  0  0  0  0
    1.0271    2.7806   -0.6132 C   0  0  0  0  0  0  0  0  0  0  0  0
    2.5582    2.8242   -0.7210 C   0  0  0  0  0  0  0  0  0  0  0  0
    2.9492    3.9036   -1.6041 N   0  0  0  0  0  0  0  0  0  0  0  0
    3.3898    3.8324   -2.8973 C   0  0  0  0  0  0  0  0  0  0  0  0
    3.3887    5.0278   -3.4692 N   0  0  0  0  0  0  0  0  0  0  0  0
    2.9310    5.8809   -2.5017 C   0  0  0  0  0  0  0  0  0  0  0  0
    2.7092    7.2409   -2.5826 N   0  0  0  0  0  0  0  0  0  0  0  0
    3.0017    8.0017   -3.7837 C   0  0  0  0  0  0  0  0  0  0  0  0
    2.2023    7.9197   -1.4638 C   0  0  0  0  0  0  0  0  0  0  0  0
    2.0150    9.1390   -1.4735 O   0  0  0  0  0  0  0  0  0  0  0  0
    1.9180    7.1628   -0.3196 N   0  0  0  0  0  0  0  0  0  0  0  0
    1.3800    7.8107    0.8547 C   0  0  0  0  0  0  0  0  0  0  0  0
    2.1630    5.8115   -0.1745 C   0  0  0  0  0  0  0  0  0  0  0  0
    1.9482    5.1924    0.8710 O   0  0  0  0  0  0  0  0  0  0  0  0
    2.6771    5.2109   -1.3460 C   0  0  0  0  0  0  0  0  0  0  0  0
  1  2  1  0
  2  3  2  0
  2  4  1  0
  4  5  1  0
  5  6  1  0
  6  7  1  0
  7  8  1  0
  8  9  1  0
  8 20  1  0
  9 10  2  0
 10 11  1  0
 11 12  1  0
 11 20  2  0
 12 13  1  0
 12 14  1  0
 14 15  2  0
 14 16  1  0
 16 17  1  0
 16 18  1  0
 18 19  2  0
 18 20  1  0
M  END
>  <DRUGBANK_ID>  (1) 
DB18002

>  <COMMON_NAME>  (1) 
Lomifylline

>  <CAS_NUMBER>  (1) 
10226-54-7

>  <UNII>  (1) 
NA91GV8GDJ

>  <SYNONYMS>  (1) 
7-(5-oxohexyl)theophylline

$$$$
