
     RDKit          3D

 11 10  0  0  1  0  0  0  0  0999 V2000
    3.3111   -0.1158   -4.5535 C   0  0  0  0  0  0  0  0  0  0  0  0
    2.2692   -0.3349   -3.4907 C   0  0  0  0  0  0  0  0  0  0  0  0
    2.6371    0.1906   -2.2343 O   0  0  0  0  0  0  0  0  0  0  0  0
    2.6533    1.7396   -1.7388 P   0  0  0  0  0  0  0  0  0  0  0  0
    0.9233    1.7396   -1.7388 O   0  0  0  0  0  0  0  0  0  0  0  0
    2.4243    2.8759   -2.7305 O   0  0  0  0  0  0  0  0  0  0  0  0
    4.3833    1.7396   -1.7388 O   0  0  0  0  0  0  0  0  0  0  0  0
    4.9600    2.8930   -2.8922 P   0  0  0  0  0  0  0  0  0  0  0  0
    6.1536    1.8037   -3.1692 O   0  0  0  0  0  0  0  0  0  0  0  0
    4.0288    2.3548   -4.0856 O   0  0  0  0  0  0  0  0  0  0  0  0
    5.4761    3.9252   -3.9244 O   0  0  0  0  0  0  0  0  0  0  0  0
  1  2  1  0
  2  3  1  0
  4  6  2  0
  4  7  1  0
  4  5  1  0
  4  3  1  0
  7  8  1  0
  8  9  1  0
  8 10  1  0
  8 11  2  0
M  END
>  <DRUGBANK_ID>  (1) 
DB01798

>  <SECONDARY_ACCESSION_NUMBERS>  (1) 
EXPT02470

>  <COMMON_NAME>  (1) 
Ethyl Dihydrogen Diphosphate

$$$$
