
     RDKit          3D

 29 32  0  0  0  0  0  0  0  0999 V2000
    1.1157   -0.0112   -0.0667 C   0  0  2  0  0  0  0  0  0  0  0  0
    2.6489   -0.0680   -0.0123 C   0  0  0  0  0  0  0  0  0  0  0  0
    0.5675   -1.7479   -1.9477 C   0  0  0  0  0  0  0  0  0  0  0  0
    0.5972   -0.4200   -1.4257 C   0  0  0  0  0  0  0  0  0  0  0  0
    0.1755    0.4478   -2.3532 N   0  0  0  0  0  0  0  0  0  0  0  0
   -0.1397   -0.3063   -3.4709 O   0  0  0  0  0  0  0  0  0  0  0  0
    0.1040   -1.6303   -3.2408 C   0  0  0  0  0  0  0  0  0  0  0  0
   -0.4712    1.5446    1.1852 C   0  0  0  0  0  0  0  0  0  0  0  0
   -0.8681    2.8267    1.5740 C   0  0  0  0  0  0  0  0  0  0  0  0
   -0.2180    3.9689    1.0955 C   0  0  0  0  0  0  0  0  0  0  0  0
    0.8507    3.7951    0.2073 C   0  0  0  0  0  0  0  0  0  0  0  0
   -0.5745    5.3249    1.5100 C   0  0  0  0  0  0  0  0  0  0  0  0
   -0.8482    6.3083    0.5454 C   0  0  0  0  0  0  0  0  0  0  0  0
   -0.9925    7.6433    0.9132 C   0  0  0  0  0  0  0  0  0  0  0  0
   -0.9380    8.0002    2.2583 C   0  0  0  0  0  0  0  0  0  0  0  0
   -0.7195    7.0279    3.2330 C   0  0  0  0  0  0  0  0  0  0  0  0
   -0.5320    5.6978    2.8603 C   0  0  0  0  0  0  0  0  0  0  0  0
    0.6050    1.3747    0.2989 C   0  0  0  0  0  0  0  0  0  0  0  0
    1.2472    2.5243   -0.1896 C   0  0  0  0  0  0  0  0  0  0  0  0
   -0.2399   -5.8468   -6.4322 C   0  0  0  0  0  0  0  0  0  0  0  0
    0.1650   -5.7728   -7.8111 O   0  0  0  0  0  0  0  0  0  0  0  0
    0.8030   -4.5118   -8.0818 C   0  0  0  0  0  0  0  0  0  0  0  0
   -1.1982   -4.6987   -6.0622 C   0  0  0  0  0  0  0  0  0  0  0  0
   -0.5376   -3.4155   -6.3546 N   0  0  0  0  0  0  0  0  0  0  0  0
   -0.1426   -3.3382   -7.7767 C   0  0  0  0  0  0  0  0  0  0  0  0
   -0.5147   -2.3146   -5.5227 C   0  0  0  0  0  0  0  0  0  0  0  0
   -0.1083   -2.5489   -4.2260 N   0  0  0  0  0  0  0  0  0  0  0  0
   -0.7909   -1.1342   -5.9544 N   0  0  0  0  0  0  0  0  0  0  0  0
   -1.8868    2.9445    2.4409 F   0  0  0  0  0  0  0  0  0  0  0  0
  1  2  1  6
  3  4  1  0
  4  5  2  0
  4  1  1  0
  5  6  1  0
  6  7  1  0
  7  3  2  0
  8  9  2  0
  9 10  1  0
  9 29  1  0
 10 12  1  0
 10 11  2  0
 11 19  1  0
 12 13  2  0
 13 14  1  0
 14 15  2  0
 15 16  1  0
 16 17  2  0
 17 12  1  0
 18  8  1  0
 18 19  2  0
 18  1  1  0
 20 21  1  0
 20 23  1  0
 21 22  1  0
 22 25  1  0
 24 23  1  0
 24 25  1  0
 24 26  1  0
 26 28  2  0
 27 26  1  0
 27  7  1  0
M  END
>  <DRUGBANK_ID>  (1) 
DB12571

>  <COMMON_NAME>  (1) 
Rimacalib

>  <CAS_NUMBER>  (1) 
215174-50-8

>  <UNII>  (1) 
BZ76J3N815

>  <SYNONYMS>  (1) 
Rimacalib

$$$$
