DFN
     RDKit          3D

 30 33  0  0  0  0  0  0  0  0999 V2000
  -10.1714   -1.5607    8.2204 C   0  0  0  0  0  0  0  0  0  0  0  0
   -9.5821   -1.1196    6.9746 N   0  0  0  0  0  0  0  0  0  0  0  0
   -8.6126   -0.1568    6.8604 C   0  0  0  0  0  0  0  0  0  0  0  0
   -9.8962   -1.6311    5.7314 C   0  0  0  0  0  0  0  0  0  0  0  0
  -10.8211   -2.6172    5.3493 C   0  0  0  0  0  0  0  0  0  0  0  0
  -10.9002   -2.9468    3.9942 C   0  0  0  0  0  0  0  0  0  0  0  0
  -10.0793   -2.3216    3.0671 C   0  0  0  0  0  0  0  0  0  0  0  0
  -10.1674   -2.6665    1.7754 F   0  0  0  0  0  0  0  0  0  0  0  0
   -9.0802   -0.9752    4.8017 C   0  0  0  0  0  0  0  0  0  0  0  0
   -9.1643   -1.3437    3.4443 C   0  0  0  0  0  0  0  0  0  0  0  0
   -8.2856   -0.0405    5.5253 C   0  0  0  0  0  0  0  0  0  0  0  0
   -7.2709    0.8053    4.9994 C   0  0  0  0  0  0  0  0  0  0  0  0
   -5.9674    0.8623    5.3298 C   0  0  0  0  0  0  0  0  0  0  0  0
   -5.3293    1.8387    4.4147 C   0  0  0  0  0  0  0  0  0  0  0  0
   -4.1535    2.1263    4.3696 O   0  0  0  0  0  0  0  0  0  0  0  0
   -6.3007    2.3291    3.6105 N   0  0  0  0  0  0  0  0  0  0  0  0
   -7.4890    1.7527    3.8811 C   0  0  0  0  0  0  0  0  0  0  0  0
   -8.5369    1.9738    3.3023 O   0  0  0  0  0  0  0  0  0  0  0  0
   -5.2753    0.0131    6.3081 C   0  0  0  0  0  0  0  0  0  0  0  0
   -4.4912    0.5291    7.3598 C   0  0  0  0  0  0  0  0  0  0  0  0
   -3.7819   -0.3255    8.2307 C   0  0  0  0  0  0  0  0  0  0  0  0
   -4.0207   -1.6989    8.1124 C   0  0  0  0  0  0  0  0  0  0  0  0
   -4.8718   -2.2194    7.1481 C   0  0  0  0  0  0  0  0  0  0  0  0
   -5.4362   -1.3757    6.2084 C   0  0  0  0  0  0  0  0  0  0  0  0
   -2.9684    0.1943    9.2305 N   0  0  0  0  0  0  0  0  0  0  0  0
   -2.0527   -0.6206   10.0371 C   0  0  0  0  0  0  0  0  0  0  0  0
   -0.5692   -0.4048    9.6785 C   0  0  2  0  0  0  0  0  0  0  0  0
   -0.2377   -0.8374    8.3470 O   0  0  0  0  0  0  0  0  0  0  0  0
    0.3082   -1.2150   10.6433 C   0  0  0  0  0  0  0  0  0  0  0  0
    1.6890   -1.0196   10.3497 O   0  0  0  0  0  0  0  0  0  0  0  0
  1  2  1  0
  2  3  1  0
  2  4  1  0
  3 11  2  0
  4  5  2  0
  4  9  1  0
  5  6  1  0
  6  7  2  0
  7  8  1  0
  7 10  1  0
  9 10  2  0
  9 11  1  0
 11 12  1  0
 12 13  2  0
 12 17  1  0
 13 14  1  0
 13 19  1  0
 14 15  2  0
 14 16  1  0
 16 17  1  0
 17 18  2  0
 19 20  2  0
 19 24  1  0
 20 21  1  0
 21 22  2  0
 21 25  1  0
 22 23  1  0
 23 24  2  0
 25 26  1  0
 27 29  1  0
 27 28  1  6
 27 26  1  0
 29 30  1  0
M  END
>  <DRUGBANK_ID>  (1) 
DB01772

>  <SECONDARY_ACCESSION_NUMBERS>  (1) 
EXPT01170

>  <COMMON_NAME>  (1) 
3-[3-(2,3-Dihydroxy-Propylamino)-Phenyl]-4-(5-Fluoro-1-Methyl-1h-Indol-3-Yl)-Pyrrole-2,5-Dione

$$$$
