
     RDKit          3D

 10  9  0  0  1  0  0  0  0  0999 V2000
    1.0696   -0.0652    0.0303 P   0  0  0  0  0  0  0  0  0  0  0  0
   -0.6604   -0.0652    0.0303 O   0  0  0  0  0  0  0  0  0  0  0  0
   -0.8735    0.5652    2.5049 C   0  0  2  0  0  0  0  0  0  0  0  0
   -1.1690    0.8932    0.9939 C   0  0  0  0  0  0  0  0  0  0  0  0
    2.7996   -0.0652    0.0303 O   0  0  0  0  0  0  0  0  0  0  0  0
   -1.3270    1.7429    3.3394 C   0  0  0  0  0  0  0  0  0  0  0  0
    0.4366    0.3238    3.0448 O   0  0  0  0  0  0  0  0  0  0  0  0
    1.2573    1.1403    0.9473 O   0  0  0  0  0  0  0  0  0  0  0  0
   -2.0518    1.6330    4.3096 O   0  0  0  0  0  0  0  0  0  0  0  0
    1.1670    0.5768   -1.4568 O   0  0  0  0  0  0  0  0  0  0  0  0
  1 10  1  0
  2  1  1  0
  2  4  1  0
  3  7  1  6
  3  4  1  0
  3  6  1  0
  5  1  1  0
  6  9  2  0
  8  1  2  0
M  END
>  <DRUGBANK_ID>  (1) 
DB02263

>  <SECONDARY_ACCESSION_NUMBERS>  (1) 
EXPT01530

>  <COMMON_NAME>  (1) 
D-glyceraldehyde 3-phosphate

>  <CAS_NUMBER>  (1) 
591-57-1

>  <UNII>  (1) 
TD9ZNF8JPW

>  <SYNONYMS>  (1) 
(2R)-2-Hydroxy-3-(phosphonooxy)-propanal; D-Glyceraldehyde 3-phosphate; Glyceraldehyde-3-phosphate

$$$$
