NPF
     RDKit          3D

 20 21  0  0  0  0  0  0  0  0999 V2000
    5.2855   -1.0556    1.2616 C   0  0  0  0  0  0  0  0  0  0  0  0
    5.0935    0.2806    0.9111 C   0  0  0  0  0  0  0  0  0  0  0  0
    5.9112    1.2965    1.3899 C   0  0  0  0  0  0  0  0  0  0  0  0
    6.9185    1.0074    2.2958 C   0  0  0  0  0  0  0  0  0  0  0  0
    7.0857   -0.3018    2.7438 C   0  0  0  0  0  0  0  0  0  0  0  0
    6.3105   -1.3510    2.1918 C   0  0  0  0  0  0  0  0  0  0  0  0
    6.6907   -2.7257    2.5728 N   0  0  0  0  0  0  0  0  0  0  0  0
    7.6770   -2.8518    3.3314 O   0  0  0  0  0  0  0  0  0  0  0  0
    6.0358   -3.6732    2.1456 O   0  0  0  0  0  0  0  0  0  0  0  0
    4.6363   -1.9700    0.4712 O   0  0  0  0  0  0  0  0  0  0  0  0
    3.1929   -1.9095    0.4059 C   0  0  1  0  0  0  0  0  0  0  0  0
    2.5218   -1.3673   -0.9305 C   0  0  2  0  0  0  0  0  0  0  0  0
    2.6900    0.0407   -1.1791 O   0  0  0  0  0  0  0  0  0  0  0  0
    0.9908   -1.6134   -0.8063 C   0  0  1  0  0  0  0  0  0  0  0  0
    0.2571   -1.1935   -1.9602 O   0  0  0  0  0  0  0  0  0  0  0  0
    0.7033   -3.0850   -0.5265 C   0  0  1  0  0  0  0  0  0  0  0  0
    1.2152   -3.8750   -1.6140 O   0  0  0  0  0  0  0  0  0  0  0  0
    1.4148   -3.4919    0.7625 C   0  0  1  0  0  0  0  0  0  0  0  0
    1.1927   -4.9735    1.0474 C   0  0  0  0  0  0  0  0  0  0  0  0
    2.8113   -3.2814    0.5857 O   0  0  0  0  0  0  0  0  0  0  0  0
  1  2  2  0
  1  6  1  0
  1 10  1  0
  2  3  1  0
  3  4  2  0
  4  5  1  0
  5  6  2  0
  6  7  1  0
  7  8  1  0
  7  9  2  0
 11 12  1  0
 11 20  1  0
 11 10  1  6
 12 13  1  1
 12 14  1  0
 14 16  1  0
 14 15  1  6
 16 18  1  0
 16 17  1  6
 18 20  1  0
 18 19  1  6
M  CHG  2   7   1   8  -1
M  END
>  <DRUGBANK_ID>  (1) 
DB08297

>  <COMMON_NAME>  (1) 
ORTHONITROPHENYL-BETA-D-FUCOPYRANOSIDE

$$$$
