GG1
     RDKit          3D

 32 35  0  0  0  0  0  0  0  0999 V2000
    1.1858    1.4060    0.0709 N   0  0  0  0  0  0  0  0  0  0  0  0
    3.6054   -1.3921   -0.1716 C   0  0  0  0  0  0  0  0  0  0  0  0
    1.1757   -1.3712   -0.1454 C   0  0  0  0  0  0  0  0  0  0  0  0
   -2.4621    0.6309   -0.1507 C   0  0  0  0  0  0  0  0  0  0  0  0
   -3.6806   -1.5163   -0.0162 C   0  0  0  0  0  0  0  0  0  0  0  0
   -2.4685   -0.7588   -0.0267 C   0  0  0  0  0  0  0  0  0  0  0  0
    4.2612   -3.7308    3.4098 C   0  0  0  0  0  0  0  0  0  0  0  0
    5.2425   -2.8457    2.9458 C   0  0  0  0  0  0  0  0  0  0  0  0
    5.0086   -2.0586    1.8145 C   0  0  0  0  0  0  0  0  0  0  0  0
    3.0223   -3.3274    1.4061 C   0  0  0  0  0  0  0  0  0  0  0  0
   -6.8389   -2.3462    1.3800 C   0  0  0  0  0  0  0  0  0  0  0  0
    3.8765   -2.2782    1.0319 C   0  0  0  0  0  0  0  0  0  0  0  0
   -0.0699   -0.6654    0.0804 C   0  0  0  0  0  0  0  0  0  0  0  0
    4.3645   -4.4427    4.7014 C   0  0  0  0  0  0  0  0  0  0  0  0
   -4.7004   -2.1647    0.0821 C   0  0  0  0  0  0  0  0  0  0  0  0
    3.5210   -5.1797    5.1783 O   0  0  0  0  0  0  0  0  0  0  0  0
    5.5131   -4.1696    5.3439 O   0  0  0  0  0  0  0  0  0  0  0  0
    3.1361   -3.9635    2.6339 C   0  0  0  0  0  0  0  0  0  0  0  0
    2.3527   -0.6523   -0.0434 N   0  0  0  0  0  0  0  0  0  0  0  0
    1.0784   -2.5456   -0.4912 O   0  0  0  0  0  0  0  0  0  0  0  0
   -0.0533    0.7174    0.1066 C   0  0  0  0  0  0  0  0  0  0  0  0
   -1.2868    1.3640    0.0831 C   0  0  0  0  0  0  0  0  0  0  0  0
    1.1961    2.8610    0.0612 C   0  0  0  0  0  0  0  0  0  0  0  0
    2.4061    0.7368   -0.0214 C   0  0  0  0  0  0  0  0  0  0  0  0
    3.4708    1.3531   -0.1106 O   0  0  0  0  0  0  0  0  0  0  0  0
   -1.2580   -1.4079    0.1349 C   0  0  0  0  0  0  0  0  0  0  0  0
   -5.9790   -2.8877    0.2514 C   0  0  0  0  0  0  0  0  0  0  0  0
   -7.6853   -3.1783    2.1337 C   0  0  0  0  0  0  0  0  0  0  0  0
   -8.5766   -2.6279    3.0642 C   0  0  0  0  0  0  0  0  0  0  0  0
   -6.8518   -0.9710    1.6521 C   0  0  0  0  0  0  0  0  0  0  0  0
   -7.6294   -0.4489    2.6817 C   0  0  0  0  0  0  0  0  0  0  0  0
   -8.5420   -1.2632    3.3414 C   0  0  0  0  0  0  0  0  0  0  0  0
  1 23  1  0
  1 21  1  0
  1 24  1  0
  2 19  1  0
  2 12  1  0
  3 13  1  0
  3 19  1  0
  3 20  2  0
  4 22  2  0
  4  6  1  0
  5 15  3  0
  5  6  1  0
  6 26  2  0
  7  8  2  0
  7 18  1  0
  7 14  1  0
  8  9  1  0
  9 12  2  0
 10 12  1  0
 10 18  2  0
 11 28  2  0
 11 27  1  0
 11 30  1  0
 13 21  2  0
 13 26  1  0
 14 16  2  0
 14 17  1  0
 15 27  1  0
 19 24  1  0
 21 22  1  0
 24 25  2  0
 28 29  1  0
 29 32  2  0
 30 31  2  0
 31 32  1  0
M  END
>  <DRUGBANK_ID>  (1) 
DB07827

>  <COMMON_NAME>  (1) 
4-{[1-METHYL-2,4-DIOXO-6-(3-PHENYLPROP-1-YN-1-YL)-1,4-DIHYDROQUINAZOLIN-3(2H)-YL]METHYL}BENZOIC ACID

$$$$
