
     RDKit          3D

 11  7  0  0  0  0  0  0  0  0999 V2000
    0.9381    0.0300    0.0726 Pt  0  0  0  0  0 15  0  0  0  0  0  0
    1.0467    0.0313    0.0827 Cl  0  0  0  0  0  0  0  0  0  0  0  0
    1.0481   -0.0097   -0.0871 Cl  0  0  0  0  0  0  0  0  0  0  0  0
    0.3520    1.1310    0.0020 N   0  0  0  0  0  0  0  0  0  0  0  0
    0.9258    0.0520   -0.0423 N   0  0  0  0  0  0  0  0  0  0  0  0
    0.9350   -0.0690   -0.0010 C   0  0  0  0  0  0  0  0  0  0  0  0
    0.1950   -1.2490    0.0120 C   0  0  0  0  0  0  0  0  0  0  0  0
    2.4420   -0.0980   -0.0070 C   0  0  0  0  0  0  0  0  0  0  0  0
   -1.1880   -1.1660   -0.0050 C   0  0  0  0  0  0  0  0  0  0  0  0
   -1.8060    0.0650   -0.0070 C   0  0  0  0  0  0  0  0  0  0  0  0
   -0.9880    1.2000    0.0050 C   0  0  0  0  0  0  0  0  0  0  0  0
  4  6  2  0
  4 11  1  0
  6  7  1  0
  6  8  1  0
  7  9  2  0
  9 10  1  0
 10 11  2  0
M  CHG  3   1   2   2  -1   3  -1
M  END
>  <DRUGBANK_ID>  (1) 
DB04874

>  <COMMON_NAME>  (1) 
Picoplatin

>  <CAS_NUMBER>  (1) 
181630-15-9

>  <UNII>  (1) 
B5TAN0L720

>  <SYNONYMS>  (1) 
(SP-4-3)-Amminedichloro(2-methylpyridine)platinium; Picoplatin

$$$$
