N4T
     RDKit          3D

 26 29  0  0  0  0  0  0  0  0999 V2000
  -10.0833    1.9503   -4.5986 C   0  0  0  0  0  0  0  0  0  0  0  0
   -9.0527    2.3188   -3.7295 C   0  0  0  0  0  0  0  0  0  0  0  0
   -8.7806    3.6745   -3.4840 C   0  0  0  0  0  0  0  0  0  0  0  0
   -9.5559    4.6270   -4.1627 C   0  0  0  0  0  0  0  0  0  0  0  0
  -10.5791    4.2539   -5.0412 C   0  0  0  0  0  0  0  0  0  0  0  0
  -10.8511    2.9049   -5.2548 C   0  0  0  0  0  0  0  0  0  0  0  0
   -7.6865    4.0728   -2.5877 C   0  0  0  0  0  0  0  0  0  0  0  0
   -7.8162    5.0184   -1.4304 C   0  0  0  0  0  0  0  0  0  0  0  0
   -6.4205    5.2525   -1.0141 N   0  0  0  0  0  0  0  0  0  0  0  0
   -5.4782    4.3855   -1.7893 C   0  0  1  0  0  0  0  0  0  0  0  0
   -6.4123    3.7034   -2.7558 C   0  0  0  0  0  0  0  0  0  0  0  0
   -4.3154    5.0873   -2.4797 C   0  0  0  0  0  0  0  0  0  0  0  0
   -3.2312    5.5230   -1.7227 C   0  0  0  0  0  0  0  0  0  0  0  0
   -2.2425    6.3816   -2.1674 C   0  0  0  0  0  0  0  0  0  0  0  0
   -2.1060    6.5300   -3.5215 C   0  0  0  0  0  0  0  0  0  0  0  0
   -3.0112    5.8822   -4.3622 C   0  0  0  0  0  0  0  0  0  0  0  0
   -4.1601    5.2543   -3.8513 C   0  0  0  0  0  0  0  0  0  0  0  0
   -6.2140    6.0692    0.1253 C   0  0  0  0  0  0  0  0  0  0  0  0
   -4.7569    6.2185    0.7215 C   0  0  2  0  0  0  0  0  0  0  0  0
   -4.2490    4.8742    1.2253 C   0  0  0  0  0  0  0  0  0  0  0  0
   -9.3026    5.9349   -4.0096 F   0  0  0  0  0  0  0  0  0  0  0  0
  -10.3397    0.6513   -4.8035 F   0  0  0  0  0  0  0  0  0  0  0  0
   -7.1460    6.6616    0.6548 O   0  0  0  0  0  0  0  0  0  0  0  0
   -3.7357    4.5059    2.5936 C   0  0  0  0  0  0  0  0  0  0  0  0
   -4.5975    7.3016    1.7099 N   0  0  0  0  0  0  0  0  0  0  0  0
   -2.7768    4.5146    1.4433 C   0  0  0  0  0  0  0  0  0  0  0  0
  1  2  2  0
  1  6  1  0
  1 22  1  0
  2  3  1  0
  3  4  2  0
  3  7  1  0
  4  5  1  0
  4 21  1  0
  5  6  2  0
  7  8  1  0
  7 11  2  0
  8  9  1  0
  9 10  1  0
  9 18  1  0
 10 11  1  0
 10 12  1  6
 12 13  2  0
 12 17  1  0
 13 14  1  0
 14 15  2  0
 15 16  1  0
 16 17  2  0
 18 23  2  0
 19 25  1  1
 19 20  1  0
 19 18  1  0
 20 24  1  0
 20 26  1  0
 24 26  1  0
M  END
>  <DRUGBANK_ID>  (1) 
DB08244

>  <COMMON_NAME>  (1) 
(1S)-1-CYCLOPROPYL-2-[(2S)-4-(2,5-DIFLUOROPHENYL)-2-PHENYL-2,5-DIHYDRO-1H-PYRROL-1-YL]-2-OXOETHANAMINE

$$$$
