1BA
     RDKit          3D

 21 22  0  0  0  0  0  0  0  0999 V2000
    1.0225   -0.1111   -0.0100 N   0  0  0  0  0  0  0  0  0  0  0  0
    1.6898    4.9482   -0.0397 C   0  0  0  0  0  0  0  0  0  0  0  0
    2.2768    3.8874   -0.7079 C   0  0  0  0  0  0  0  0  0  0  0  0
    2.0386    2.6032   -0.2631 C   0  0  0  0  0  0  0  0  0  0  0  0
    1.0986    2.3120    0.7302 C   0  0  0  0  0  0  0  0  0  0  0  0
    0.6340    0.8979    1.0022 C   0  0  0  0  0  0  0  0  0  0  0  0
    0.9759    0.9027   -3.6627 C   0  0  0  0  0  0  0  0  0  0  0  0
    0.1715    1.7961   -6.1812 C   0  0  0  0  0  0  0  0  0  0  0  0
   -0.0141    1.8908   -3.7708 C   0  0  0  0  0  0  0  0  0  0  0  0
    0.8202    4.6884    1.0340 C   0  0  0  0  0  0  0  0  0  0  0  0
    0.9225    7.1668   -0.8713 C   0  0  0  0  0  0  0  0  0  0  0  0
    2.1161    6.3443   -0.4121 C   0  0  0  0  0  0  0  0  0  0  0  0
    2.8352    6.9759    0.7780 C   0  0  0  0  0  0  0  0  0  0  0  0
    0.5666    0.2243   -1.3314 N   0  0  0  0  0  0  0  0  0  0  0  0
    1.4836    0.3973   -2.3634 C   0  0  0  0  0  0  0  0  0  0  0  0
    2.6959    0.1745   -2.2463 O   0  0  0  0  0  0  0  0  0  0  0  0
    1.5913    0.4114   -4.8205 C   0  0  0  0  0  0  0  0  0  0  0  0
    1.2063    0.8759   -6.0766 C   0  0  0  0  0  0  0  0  0  0  0  0
   -0.2275    2.1422   -7.4381 O   0  0  0  0  0  0  0  0  0  0  0  0
   -0.4290    2.3259   -5.0400 C   0  0  0  0  0  0  0  0  0  0  0  0
    0.5508    3.3811    1.4387 C   0  0  0  0  0  0  0  0  0  0  0  0
  1  6  1  0
  1 14  1  0
  2  3  2  0
  2 10  1  0
  2 12  1  0
  3  4  1  0
  4  5  2  0
  5  6  1  0
  5 21  1  0
  7  9  1  0
  7 15  1  0
  7 17  2  0
  8 18  2  0
  8 19  1  0
  8 20  1  0
  9 20  2  0
 10 21  2  0
 11 12  1  0
 12 13  1  0
 14 15  1  0
 15 16  2  0
 17 18  1  0
M  END
>  <DRUGBANK_ID>  (1) 
DB06884

>  <COMMON_NAME>  (1) 
4-HYDROXY-N'-(4-ISOPROPYLBENZYL)BENZOHYDRAZIDE

$$$$
