TTL
     RDKit          3D

 12 13  0  0  0  0  0  0  0  0999 V2000
    0.9666   -0.0376    0.0874 O   0  0  0  0  0  0  0  0  0  0  0  0
    0.4778    0.4382    1.3423 C   0  0  1  0  0  0  0  0  0  0  0  0
    0.0705    1.8881    1.1829 C   0  0  0  0  0  0  0  0  0  0  0  0
    1.0682    2.8773    1.1717 C   0  0  0  0  0  0  0  0  0  0  0  0
    0.7262    4.2239    1.0525 C   0  0  0  0  0  0  0  0  0  0  0  0
   -0.6079    4.5987    0.9469 C   0  0  0  0  0  0  0  0  0  0  0  0
   -1.6103    3.6283    0.9475 C   0  0  0  0  0  0  0  0  0  0  0  0
   -1.2813    2.2686    1.0450 C   0  0  0  0  0  0  0  0  0  0  0  0
   -2.4063    1.2563    1.0603 C   0  0  0  0  0  0  0  0  0  0  0  0
   -1.9094   -0.1773    0.8880 C   0  0  0  0  0  0  0  0  0  0  0  0
   -0.7063   -0.4554    1.8008 C   0  0  2  0  0  0  0  0  0  0  0  0
   -1.0620   -0.2545    3.2230 N   0  0  0  0  0  0  0  0  0  0  0  0
  2  1  1  6
  2  3  1  0
  2 11  1  0
  3  4  1  0
  3  8  2  0
  4  5  2  0
  5  6  1  0
  6  7  2  0
  7  8  1  0
  8  9  1  0
  9 10  1  0
 10 11  1  0
 11 12  1  1
M  END
>  <DRUGBANK_ID>  (1) 
DB08654

>  <COMMON_NAME>  (1) 
TRANS-(1S,2S)-2-AMINO-1,2,3,4-TETRAHYDRONAPHTHALEN-1-OL

$$$$
