
     RDKit          3D

 25 27  0  0  0  0  0  0  0  0999 V2000
    1.0773    0.0207    0.0600 P   0  0  0  0  0  0  0  0  0  0  0  0
   -1.7270   -0.5729    1.7376 O   0  0  0  0  0  0  0  0  0  0  0  0
   -1.4587   -3.5680   -0.3709 O   0  0  0  0  0  0  0  0  0  0  0  0
   -1.3931   -3.4350    2.3533 O   0  0  0  0  0  0  0  0  0  0  0  0
    0.9640    0.6818    1.5283 O   0  0  0  0  0  0  0  0  0  0  0  0
   -2.6208    3.8376   -3.5295 O   0  0  0  0  0  0  0  0  0  0  0  0
    1.4265    1.2430   -0.9038 O   0  0  0  0  0  0  0  0  0  0  0  0
   -0.6527    0.0207    0.0600 O   0  0  0  0  0  0  0  0  0  0  0  0
    2.6256    0.0207    0.0600 O   0  0  0  0  0  0  0  0  0  0  0  0
   -1.9674   -0.2394   -1.3738 N   0  0  0  0  0  0  0  0  0  0  0  0
   -0.9018    1.9559   -2.5634 N   0  0  0  0  0  0  0  0  0  0  0  0
   -4.1217    0.7019   -1.5248 N   0  0  0  0  0  0  0  0  0  0  0  0
   -4.4177    2.4446   -3.1145 N   0  0  0  0  0  0  0  0  0  0  0  0
   -6.0024    0.8584   -2.6752 N   0  0  0  0  0  0  0  0  0  0  0  0
   -2.1065   -1.2318    0.2508 C   0  0  1  0  0  0  0  0  0  0  0  0
   -0.9723   -2.4009    0.2466 C   0  0  1  0  0  0  0  0  0  0  0  0
   -0.4451   -2.5887    1.6872 C   0  0  1  0  0  0  0  0  0  0  0  0
   -0.4940   -1.2150    2.3660 C   0  0  1  0  0  0  0  0  0  0  0  0
   -0.5758    0.7038   -1.9994 C   0  0  0  0  0  0  0  0  0  0  0  0
   -2.8029    0.8735   -1.5755 C   0  0  0  0  0  0  0  0  0  0  0  0
    0.8514   -0.3498    2.4927 C   0  0  0  0  0  0  0  0  0  0  0  0
   -2.2484    1.9702   -2.2036 C   0  0  0  0  0  0  0  0  0  0  0  0
    0.0632    3.1340   -2.2328 C   0  0  0  0  0  0  0  0  0  0  0  0
   -3.1147    2.8995   -2.9586 C   0  0  0  0  0  0  0  0  0  0  0  0
   -4.8051    1.4130   -2.4550 C   0  0  0  0  0  0  0  0  0  0  0  0
  1  5  1  0
  1  7  1  0
  1  8  1  0
  1  9  2  0
  2 15  1  0
  2 18  1  0
  5 21  1  0
  6 24  2  0
 10 19  1  0
 10 20  1  0
 11 19  1  0
 11 22  1  0
 11 23  1  0
 12 20  1  0
 12 25  1  0
 13 24  1  0
 13 25  2  0
 14 25  1  0
 15 16  1  0
 15 10  1  6
 16  3  1  1
 16 17  1  0
 17  4  1  1
 17 18  1  0
 18 21  1  6
 20 22  2  0
 22 24  1  0
M  END
>  <DRUGBANK_ID>  (1) 
DB04259

>  <SECONDARY_ACCESSION_NUMBERS>  (1) 
EXPT00313

>  <COMMON_NAME>  (1) 
7-Methyl-7,8-dihydroguanosine 5'-(dihydrogen phosphate)

$$$$
