
     RDKit          3D

 30 33  0  0  1  0  0  0  0  0999 V2000
    0.2984   -5.7102    2.0063 C   0  0  0  0  0  0  0  0  0  0  0  0
    1.0943   -5.0104    0.6911 C   0  0  0  0  0  0  0  0  0  0  0  0
    1.8807   -4.0623    0.6780 O   0  0  0  0  0  0  0  0  0  0  0  0
    0.5233   -5.4762   -0.4659 O   0  0  0  0  0  0  0  0  0  0  0  0
    0.7309   -4.6465   -1.6085 C   0  0  0  0  0  0  0  0  0  0  0  0
   -0.1265   -3.3891   -1.6222 C   0  0  0  0  0  0  0  0  0  0  0  0
    0.4803   -2.3316   -1.8942 O   0  0  0  0  0  0  0  0  0  0  0  0
   -1.8340   -3.4739   -1.5052 C   0  0  2  0  0  0  0  0  0  0  0  0
   -3.1600   -3.9963    0.0298 C   0  0  0  0  0  0  0  0  0  0  0  0
   -2.7020   -3.7624    1.5164 C   0  0  0  0  0  0  0  0  0  0  0  0
   -1.4587   -3.5485    0.8002 C   0  0  1  0  0  0  0  0  0  0  0  0
   -2.2425   -3.0867   -0.3577 C   0  0  1  0  0  0  0  0  0  0  0  0
   -2.7951   -1.6219   -0.2122 C   0  0  0  0  0  0  0  0  0  0  0  0
   -1.6805   -0.6899    0.3740 C   0  0  1  0  0  0  0  0  0  0  0  0
   -1.0240   -1.2633    1.6706 C   0  0  1  0  0  0  0  0  0  0  0  0
   -0.4750   -2.5824    1.3231 C   0  0  1  0  0  0  0  0  0  0  0  0
   -0.0770   -3.2341    2.5699 C   0  0  0  0  0  0  0  0  0  0  0  0
    0.7387   -2.6294    3.5479 C   0  0  1  0  0  0  0  0  0  0  0  0
   -0.1577   -1.3800    3.8608 C   0  0  0  0  0  0  0  0  0  0  0  0
   -0.2231   -0.7031    5.0221 C   0  0  0  0  0  0  0  0  0  0  0  0
    1.0813   -0.8717    5.6271 C   0  0  0  0  0  0  0  0  0  0  0  0
    1.2138   -1.0125    6.8282 O   0  0  0  0  0  0  0  0  0  0  0  0
    2.1443   -0.8856    4.4937 C   0  0  0  0  0  0  0  0  0  0  0  0
    1.7376   -0.4655    3.1350 C   0  0  0  0  0  0  0  0  0  0  0  0
    0.0347   -0.4727    2.6585 C   0  0  1  0  0  0  0  0  0  0  0  0
   -0.6666    0.8787    2.6900 C   0  0  0  0  0  0  0  0  0  0  0  0
    0.9714   -3.5275    4.5355 F   0  0  0  0  0  0  0  0  0  0  0  0
   -0.6632   -0.3601   -0.5514 O   0  0  0  0  0  0  0  0  0  0  0  0
   -2.6410   -4.6713   -1.6004 C   0  0  0  0  0  0  0  0  0  0  0  0
   -1.8565   -2.3071   -2.4124 O   0  0  0  0  0  0  0  0  0  0  0  0
  1  2  1  0
  2  3  2  0
  2  4  1  0
  4  5  1  0
  5  6  1  0
  6  7  2  0
  8  6  1  0
  8  9  1  0
  8 12  1  0
  8 30  1  6
  9 10  1  0
 11 10  1  1
 11 12  1  0
 11 16  1  0
 12 13  1  0
 12 29  1  1
 13 14  1  0
 14 28  1  6
 15 14  1  6
 15 16  1  0
 15 25  1  0
 16 17  1  1
 17 18  1  0
 18 19  1  0
 18 27  1  1
 19 20  2  0
 19 25  1  0
 20 21  1  0
 21 22  2  0
 21 23  1  0
 23 24  2  0
 24 25  1  0
 25 26  1  1
M  END
>  <DRUGBANK_ID>  (1) 
DB14637

>  <SECONDARY_ACCESSION_NUMBERS>  (1) 
DBSALT002198

>  <COMMON_NAME>  (1) 
Fluprednisolone acetate

>  <CAS_NUMBER>  (1) 
570-36-5

>  <UNII>  (1) 
5YEO81H7EG

$$$$
