
     RDKit          3D

 36 38  0  0  1  0  0  0  0  0999 V2000
    2.1722   -0.6891   -5.6072 C   0  0  0  0  0  0  0  0  0  0  0  0
    2.8435    0.6117   -5.9843 C   0  0  0  0  0  0  0  0  0  0  0  0
    3.4525    1.1628   -4.7779 O   0  0  0  0  0  0  0  0  0  0  0  0
    2.5338    1.8269   -4.0227 C   0  0  0  0  0  0  0  0  0  0  0  0
    1.3421    1.8184   -4.3412 O   0  0  0  0  0  0  0  0  0  0  0  0
    3.1572    2.7382   -2.8105 C   0  0  2  0  0  0  0  0  0  0  0  0
    3.1996    2.1823   -1.3525 C   0  0  0  0  0  0  0  0  0  0  0  0
    2.3971    4.1127   -2.8638 N   0  0  0  0  0  0  0  0  0  0  0  0
    2.9904    4.8334   -4.3794 P   0  0  0  0  0  0  0  0  0  0  0  0
    2.1934    3.8787   -5.2637 O   0  0  0  0  0  0  0  0  0  0  0  0
    1.6121    6.2419   -4.4140 C   0  0  0  0  0  0  0  0  0  0  0  0
    2.2215    7.4923   -4.1805 O   0  0  0  0  0  0  0  0  0  0  0  0
    2.9459    7.5076   -2.9650 C   0  0  0  0  0  0  0  0  0  0  0  0
    2.0510    7.4423   -1.6980 C   0  0  0  0  0  0  0  0  0  0  0  0
    1.2956    6.2433   -1.3392 N   0  0  0  0  0  0  0  0  0  0  0  0
    1.8590    5.1817   -0.6826 C   0  0  0  0  0  0  0  0  0  0  0  0
    1.0194    4.1663   -0.5809 N   0  0  0  0  0  0  0  0  0  0  0  0
   -0.0945    4.4901   -1.3251 C   0  0  0  0  0  0  0  0  0  0  0  0
   -0.0215    5.8655   -1.5895 C   0  0  0  0  0  0  0  0  0  0  0  0
   -1.0141    6.6082   -2.0977 N   0  0  0  0  0  0  0  0  0  0  0  0
   -2.1171    5.8718   -2.3302 C   0  0  0  0  0  0  0  0  0  0  0  0
   -2.2312    4.5294   -2.3174 N   0  0  0  0  0  0  0  0  0  0  0  0
   -1.2063    3.7481   -1.8688 C   0  0  0  0  0  0  0  0  0  0  0  0
   -1.4699    2.3465   -2.0029 N   0  0  0  0  0  0  0  0  0  0  0  0
   -0.6477    1.1514   -1.7783 C   0  0  0  0  0  0  0  0  0  0  0  0
    0.2906    1.0914   -0.5871 C   0  0  0  0  0  0  0  0  0  0  0  0
    0.7807    1.2442   -1.9689 C   0  0  0  0  0  0  0  0  0  0  0  0
   -3.2805    6.5598   -2.5716 N   0  0  0  0  0  0  0  0  0  0  0  0
    3.5837    5.5541   -5.8950 N   0  0  0  0  0  0  0  0  0  0  0  0
    4.7034    4.7770   -6.4956 C   0  0  1  0  0  0  0  0  0  0  0  0
    4.3326    3.3552   -6.8671 C   0  0  0  0  0  0  0  0  0  0  0  0
    5.2824    5.4115   -7.7503 C   0  0  0  0  0  0  0  0  0  0  0  0
    6.4597    5.6416   -7.8764 O   0  0  0  0  0  0  0  0  0  0  0  0
    4.3234    5.5746   -8.7188 O   0  0  0  0  0  0  0  0  0  0  0  0
    4.8056    6.0996   -9.9657 C   0  0  0  0  0  0  0  0  0  0  0  0
    5.2746    7.5336   -9.7986 C   0  0  0  0  0  0  0  0  0  0  0  0
  1  2  1  0
  2  3  1  0
  3  4  1  0
  4  5  2  0
  6  8  1  0
  6  7  1  1
  6  4  1  0
  8  9  1  0
  9 10  2  0
  9 11  1  0
  9 29  1  0
 11 12  1  0
 12 13  1  0
 13 14  1  0
 14 15  1  0
 15 16  1  0
 15 19  1  0
 16 17  2  0
 17 18  1  0
 18 19  2  0
 18 23  1  0
 19 20  1  0
 20 21  2  0
 21 22  1  0
 21 28  1  0
 22 23  2  0
 23 24  1  0
 24 25  1  0
 25 26  1  0
 25 27  1  0
 26 27  1  0
 29 30  1  0
 30 31  1  6
 30 32  1  0
 32 33  2  0
 32 34  1  0
 34 35  1  0
 35 36  1  0
M  END
>  <DRUGBANK_ID>  (1) 
DB12762

>  <COMMON_NAME>  (1) 
Rabacfosadine

>  <CAS_NUMBER>  (1) 
859209-74-8

>  <UNII>  (1) 
M39BO43J9W

>  <SYNONYMS>  (1) 
Rabacfosadine

$$$$
