
     RDKit          3D

 29 32  0  0  0  0  0  0  0  0999 V2000
    0.9752   -0.6639    0.0467 N   0  0  0  0  0  0  0  0  0  0  0  0
    2.1036   -1.5160    0.0232 C   0  0  0  0  0  0  0  0  0  0  0  0
    1.0094    0.7433    0.0218 C   0  0  0  0  0  0  0  0  0  0  0  0
   -0.3414   -1.0907   -0.0074 C   0  0  0  0  0  0  0  0  0  0  0  0
    2.2840   -2.3864   -1.0579 C   0  0  0  0  0  0  0  0  0  0  0  0
    3.0795   -1.3831    1.0122 C   0  0  0  0  0  0  0  0  0  0  0  0
   -0.2859    1.2030   -0.1052 C   0  0  0  0  0  0  0  0  0  0  0  0
    2.2658    1.5337    0.0038 C   0  0  0  0  0  0  0  0  0  0  0  0
   -1.1245    0.0419   -0.0254 C   0  0  0  0  0  0  0  0  0  0  0  0
   -0.7701   -2.5247    0.0201 C   0  0  0  0  0  0  0  0  0  0  0  0
    3.4737   -3.1024   -1.1625 C   0  0  0  0  0  0  0  0  0  0  0  0
    4.2830   -2.0666    0.8742 C   0  0  0  0  0  0  0  0  0  0  0  0
   -0.8677    2.5138   -0.2936 C   0  0  0  0  0  0  0  0  0  0  0  0
    4.4718   -2.9378   -0.2003 C   0  0  0  0  0  0  0  0  0  0  0  0
   -0.5120    3.8275   -0.3893 C   0  0  0  0  0  0  0  0  0  0  0  0
   -1.5245    5.0495   -0.1591 C   0  0  0  0  0  0  0  0  0  0  0  0
   -2.5842    5.5170   -0.9994 N   0  0  0  0  0  0  0  0  0  0  0  0
   -1.8897    5.1067    1.1497 C   0  0  0  0  0  0  0  0  0  0  0  0
   -3.9671    5.4325   -0.5347 C   0  0  0  0  0  0  0  0  0  0  0  0
   -2.0623    6.0938   -2.2446 C   0  0  0  0  0  0  0  0  0  0  0  0
   -2.9133    4.2348    1.2231 C   0  0  0  0  0  0  0  0  0  0  0  0
   -4.0325    4.6139    0.6199 C   0  0  0  0  0  0  0  0  0  0  0  0
   -5.3030    5.7832   -0.8700 C   0  0  0  0  0  0  0  0  0  0  0  0
   -5.0857    3.8993    1.0852 C   0  0  0  0  0  0  0  0  0  0  0  0
   -6.4956    5.2157   -0.1248 C   0  0  0  0  0  0  0  0  0  0  0  0
   -6.3830    4.1719    0.8189 C   0  0  0  0  0  0  0  0  0  0  0  0
   -7.3291    3.4432    1.5062 N   0  0  0  0  0  0  0  0  0  0  0  0
   -8.7588    3.6661    1.4722 C   0  0  0  0  0  0  0  0  0  0  0  0
   -6.9050    2.3139    2.3819 C   0  0  0  0  0  0  0  0  0  0  0  0
  1  2  1  0
  1  3  1  0
  1  4  1  0
  2  5  2  0
  2  6  1  0
  3  7  2  0
  3  8  1  0
  4  9  2  0
  4 10  1  0
  5 11  1  0
  6 12  2  0
  7 13  1  0
  7  9  1  0
 11 14  2  0
 12 14  1  0
 13 15  2  0
 15 16  1  0
 16 17  2  0
 16 18  1  0
 17 19  1  0
 17 20  1  0
 18 21  2  0
 19 22  2  0
 19 23  1  0
 21 22  1  0
 22 24  1  0
 23 25  2  0
 24 26  2  0
 25 26  1  0
 26 27  1  0
 27 28  1  0
 27 29  1  0
M  CHG  1  17   1
M  END
>  <DRUGBANK_ID>  (1) 
DB06816

>  <COMMON_NAME>  (1) 
Pyrvinium

>  <CAS_NUMBER>  (1) 
7187-62-4

>  <UNII>  (1) 
6B9991FLU3

$$$$
