GTC
     RDKit          3D

 15 16  0  0  0  0  0  0  0  0999 V2000
   -1.4433    0.3415   -0.1425 C   0  0  2  0  0  0  0  0  0  0  0  0
    0.9997    1.0796   -0.2543 C   0  0  0  0  0  0  0  0  0  0  0  0
   -0.9685   -1.0502    0.3292 C   0  0  1  0  0  0  0  0  0  0  0  0
    0.4324   -1.3758   -0.2059 C   0  0  0  0  0  0  0  0  0  0  0  0
   -4.3474    1.0596    1.8873 C   0  0  0  0  0  0  0  0  0  0  0  0
   -1.6989   -1.9993    2.4659 O   0  0  0  0  0  0  0  0  0  0  0  0
   -1.0050   -1.2091    1.8425 C   0  0  0  0  0  0  0  0  0  0  0  0
   -0.2790   -0.2918    2.5095 O   0  0  0  0  0  0  0  0  0  0  0  0
    1.4566   -0.3118    0.1801 C   0  0  0  0  0  0  0  0  0  0  0  0
   -0.4207    1.4370    0.1954 C   0  0  0  0  0  0  0  0  0  0  0  0
   -2.8106    0.6887    0.4116 C   0  0  0  0  0  0  0  0  0  0  0  0
   -3.8641    0.9458   -0.3135 N   0  0  0  0  0  0  0  0  0  0  0  0
   -4.8541    1.1923    0.6118 N   0  0  0  0  0  0  0  0  0  0  0  0
   -3.0325    0.7662    1.7390 N   0  0  0  0  0  0  0  0  0  0  0  0
   -5.1516    1.2230    3.3143 S   0  0  0  0  0  0  0  0  0  0  0  0
  1  3  1  0
  1 11  1  1
  2 10  1  0
  2  9  1  0
  3  7  1  1
  4  3  1  0
  5 15  2  0
  6  7  2  0
  7  8  1  0
  9  4  1  0
 10  1  1  0
 11 14  1  0
 12 11  2  0
 12 13  1  0
 13  5  1  0
 14  5  1  0
M  END
>  <DRUGBANK_ID>  (1) 
DB07850

>  <COMMON_NAME>  (1) 
(1R,2S)-2-(5-thioxo-4,5-dihydro-1H-1,2,4-triazol-3-yl)cyclohexanecarboxylic acid

$$$$
