TL5
     RDKit          3D

 15 15  0  0  0  0  0  0  0  0999 V2000
    1.0157    0.2882   -0.0930 O   0  0  0  0  0  0  0  0  0  0  0  0
    2.2318    0.1678   -0.1854 C   0  0  0  0  0  0  0  0  0  0  0  0
    3.1945    1.2937   -0.2397 C   0  0  0  0  0  0  0  0  0  0  0  0
    2.7192    2.7008   -0.3354 C   0  0  0  0  0  0  0  0  0  0  0  0
    3.0593   -1.3642   -0.1103 S   0  0  0  0  0  0  0  0  0  0  0  0
    4.5536   -0.5642    0.5966 C   0  0  2  0  0  0  0  0  0  0  0  0
    4.4038    0.8890    0.1952 C   0  0  0  0  0  0  0  0  0  0  0  0
    5.4617    1.7298    0.4841 O   0  0  0  0  0  0  0  0  0  0  0  0
    5.8126   -1.1572   -0.0408 C   0  0  0  0  0  0  0  0  0  0  0  0
    4.5143   -0.8223    2.0998 C   0  0  0  0  0  0  0  0  0  0  0  0
    3.9355   -0.1320    3.1112 C   0  0  0  0  0  0  0  0  0  0  0  0
    3.1128    1.1151    2.9608 C   0  0  0  0  0  0  0  0  0  0  0  0
    4.0120   -0.5438    4.5073 C   0  0  0  0  0  0  0  0  0  0  0  0
    4.6514   -1.6179    4.9895 C   0  0  0  0  0  0  0  0  0  0  0  0
    4.6963   -1.9677    6.4351 C   0  0  0  0  0  0  0  0  0  0  0  0
  1  2  2  0
  2  3  1  0
  2  5  1  0
  3  4  1  0
  3  7  2  0
  5  6  1  0
  6  7  1  0
  6 10  1  0
  6  9  1  6
  7  8  1  0
 10 11  2  0
 11 12  1  0
 11 13  1  0
 13 14  2  0
 14 15  1  0
M  END
>  <DRUGBANK_ID>  (1) 
DB08627

>  <COMMON_NAME>  (1) 
(5R)-4-HYDROXY-3,5-DIMETHYL-5-[(1E,3E)-2-METHYLPENTA-1,3-DIENYL]THIOPHEN-2(5H)-ONE

$$$$
