1102
     RDKit          3D

 23 24  0  0  1  0  0  0  0  0999 V2000
    0.9304   -0.0853   -0.0332 O   0  0  0  0  0  0  0  0  0  0  0  0
    2.7054    3.4458   -3.2143 O   0  0  0  0  0  0  0  0  0  0  0  0
    1.8418    5.8459   -2.2524 O   0  0  0  0  0  0  0  0  0  0  0  0
    6.3891   -1.0715    8.9319 O   0  0  0  0  0  0  0  0  0  0  0  0
    2.4159    1.2065    2.1268 N   0  0  0  0  0  0  0  0  0  0  0  0
    2.4234   -0.0381    4.2759 C   0  0  0  0  0  0  0  0  0  0  0  0
    2.9767   -1.3261    3.6429 C   0  0  0  0  0  0  0  0  0  0  0  0
    2.8453    1.2285    3.5180 C   0  0  0  0  0  0  0  0  0  0  0  0
    0.9482    1.1586    2.0346 C   0  0  0  0  0  0  0  0  0  0  0  0
    4.5096   -1.3570    3.6040 C   0  0  0  0  0  0  0  0  0  0  0  0
    0.4730    1.1303    0.5725 C   0  0  1  0  0  0  0  0  0  0  0  0
    5.0878   -1.2915    4.9964 C   0  0  0  0  0  0  0  0  0  0  0  0
    0.9087    2.3630   -0.1922 C   0  0  0  0  0  0  0  0  0  0  0  0
    1.6687    2.2940   -1.3705 C   0  0  0  0  0  0  0  0  0  0  0  0
    0.5237    3.6276    0.2992 C   0  0  0  0  0  0  0  0  0  0  0  0
    5.3048   -2.4673    5.7151 C   0  0  0  0  0  0  0  0  0  0  0  0
    5.3126   -0.0550    5.6290 C   0  0  0  0  0  0  0  0  0  0  0  0
    1.9888    3.4646   -2.0497 C   0  0  0  0  0  0  0  0  0  0  0  0
    0.8554    4.7932   -0.3821 C   0  0  0  0  0  0  0  0  0  0  0  0
    5.7537   -2.4142    7.0369 C   0  0  0  0  0  0  0  0  0  0  0  0
    5.7172   -0.0001    6.9585 C   0  0  0  0  0  0  0  0  0  0  0  0
    1.5688    4.7010   -1.5623 C   0  0  0  0  0  0  0  0  0  0  0  0
    5.9531   -1.1746    7.6444 C   0  0  0  0  0  0  0  0  0  0  0  0
  2 18  1  0
  3 22  1  0
  4 23  1  0
  5  8  1  0
  5  9  1  0
  6  7  1  0
  6  8  1  0
  7 10  1  0
  9 11  1  0
 10 12  1  0
 11  1  1  6
 11 13  1  0
 12 16  2  0
 12 17  1  0
 13 14  2  0
 13 15  1  0
 14 18  1  0
 15 19  2  0
 16 20  1  0
 17 21  2  0
 18 22  2  0
 19 22  1  0
 20 23  2  0
 21 23  1  0
M  END
>  <DRUGBANK_ID>  (1) 
DB01102

>  <SECONDARY_ACCESSION_NUMBERS>  (1) 
APRD00802

>  <COMMON_NAME>  (1) 
Arbutamine

>  <CAS_NUMBER>  (1) 
128470-16-6

>  <UNII>  (1) 
B07L15YAEV

>  <SYNONYMS>  (1) 
Arbutamina; Arbutamine; Arbutaminum

$$$$
