
     RDKit          3D

 10 10  0  0  1  0  0  0  0  0999 V2000
    1.0932    0.9206    2.4814 C   0  0  0  0  0  0  0  0  0  0  0  0
   -0.3420    2.3273   -2.4872 C   0  0  0  0  0  0  0  0  0  0  0  0
   -1.1023    2.9497   -1.5206 C   0  0  0  0  0  0  0  0  0  0  0  0
    0.6073   -0.1654    1.5188 C   0  0  2  0  0  0  0  0  0  0  0  0
    1.0550    0.0378    0.0393 C   0  0  1  0  0  0  0  0  0  0  0  0
    0.3386    1.1472   -0.7351 C   0  0  0  0  0  0  0  0  0  0  0  0
    2.5261    0.1919   -0.0644 N   0  0  0  0  0  0  0  0  0  0  0  0
    0.4900    1.3198   -2.0361 N   0  0  0  0  0  0  0  0  0  0  0  0
   -0.8113   -0.3305    1.6474 O   0  0  0  0  0  0  0  0  0  0  0  0
   -0.7553    2.2674   -0.0037 S   0  0  0  0  0  0  0  0  0  0  0  0
  3  2  2  0
  4  9  1  0
  4  5  1  0
  4  1  1  1
  5  7  1  1
  6  5  1  0
  8  2  1  0
  8  6  2  0
 10  3  1  0
 10  6  1  0
M  END
>  <DRUGBANK_ID>  (1) 
DB03724

>  <SECONDARY_ACCESSION_NUMBERS>  (1) 
EXPT03250

>  <COMMON_NAME>  (1) 
(1s,2s)-1-Amino-1-(1,3-Thiazol-2-Yl)Propan-2-Ol

$$$$
