I17
     RDKit          3D

 30 34  0  0  0  0  0  0  0  0999 V2000
    1.2255   -0.0202    0.2651 C   0  0  0  0  0  0  0  0  0  0  0  0
    1.4746    0.0272    1.6957 N   0  0  0  0  0  0  0  0  0  0  0  0
    1.2254    1.0248    2.6227 C   0  0  0  0  0  0  0  0  0  0  0  0
    0.6324    2.2299    2.4850 N   0  0  0  0  0  0  0  0  0  0  0  0
    0.6106    2.9635    3.6225 C   0  0  0  0  0  0  0  0  0  0  0  0
    1.5880    1.2827    4.9586 C   0  0  0  0  0  0  0  0  0  0  0  0
    1.0784    2.5374    4.8180 N   0  0  0  0  0  0  0  0  0  0  0  0
    1.7159    0.4940    3.8065 C   0  0  0  0  0  0  0  0  0  0  0  0
    2.2333   -0.7663    3.6186 N   0  0  0  0  0  0  0  0  0  0  0  0
    2.0963   -1.0129    2.3385 C   0  0  0  0  0  0  0  0  0  0  0  0
    1.9137    0.8548    6.2283 N   0  0  0  0  0  0  0  0  0  0  0  0
    2.6029   -0.3904    6.5113 C   0  0  0  0  0  0  0  0  0  0  0  0
    4.8149   -1.3245    7.2614 C   0  0  0  0  0  0  0  0  0  0  0  0
    6.1192   -1.1807    7.7372 C   0  0  0  0  0  0  0  0  0  0  0  0
    6.6415    0.0920    7.9570 C   0  0  0  0  0  0  0  0  0  0  0  0
    5.8713    1.2184    7.6824 C   0  0  0  0  0  0  0  0  0  0  0  0
    4.5740    1.0758    7.1989 C   0  0  0  0  0  0  0  0  0  0  0  0
    4.0188   -0.1939    7.0010 C   0  0  0  0  0  0  0  0  0  0  0  0
    0.0283    4.2308    3.5860 N   0  0  0  0  0  0  0  0  0  0  0  0
    0.8676    5.3900    3.9333 C   0  0  1  0  0  0  0  0  0  0  0  0
    2.3683    7.9177    3.2931 C   0  0  1  0  0  0  0  0  0  0  0  0
    3.0831    6.5908    3.5461 C   0  0  0  0  0  0  0  0  0  0  0  0
    2.2068    5.3940    3.1746 C   0  0  0  0  0  0  0  0  0  0  0  0
    0.1423    6.7369    3.6705 C   0  0  0  0  0  0  0  0  0  0  0  0
    1.0269    7.9477    4.0353 C   0  0  0  0  0  0  0  0  0  0  0  0
    3.2366    9.0165    3.7157 N   0  0  0  0  0  0  0  0  0  0  0  0
    0.3164   -1.1934   -0.1420 C   0  0  0  0  0  0  0  0  0  0  0  0
   -1.1063   -0.6673    0.0316 C   0  0  0  0  0  0  0  0  0  0  0  0
    0.4597    1.1666   -0.2987 C   0  0  0  0  0  0  0  0  0  0  0  0
   -0.9903    0.8567    0.0641 C   0  0  0  0  0  0  0  0  0  0  0  0
  1  2  1  0
  1 27  1  0
  1 29  1  0
  2  3  1  0
  2 10  1  0
  3  4  2  0
  3  8  1  0
  4  5  1  0
  5  7  2  0
  5 19  1  0
  6  7  1  0
  6  8  2  0
  6 11  1  0
  8  9  1  0
  9 10  2  0
 11 12  1  0
 12 18  1  0
 13 14  2  0
 13 18  1  0
 14 15  1  0
 15 16  2  0
 16 17  1  0
 17 18  2  0
 20 19  1  6
 20 23  1  0
 20 24  1  0
 21 22  1  0
 21 25  1  0
 21 26  1  1
 22 23  1  0
 24 25  1  0
 27 28  1  0
 28 30  1  0
 29 30  1  0
M  END
>  <DRUGBANK_ID>  (1) 
DB04288

>  <SECONDARY_ACCESSION_NUMBERS>  (1) 
EXPT01808

>  <COMMON_NAME>  (1) 
2-[Trans-(4-Aminocyclohexyl)Amino]-6-(Benzyl-Amino)-9-Cyclopentylpurine

$$$$
