
     RDKit          3D

 12 11  0  0  1  0  0  0  0  0999 V2000
    0.9365   -0.0442   -0.0633 N   0  0  0  0  0  0  0  0  0  0  0  0
    0.4465    1.2835   -0.4607 C   0  0  1  0  0  0  0  0  0  0  0  0
    0.9532    1.6141   -1.8551 C   0  0  0  0  0  0  0  0  0  0  0  0
    0.4798    0.6404   -2.7740 O   0  0  0  0  0  0  0  0  0  0  0  0
    1.2098   -1.3377   -2.1819 V   0  0  0  0  0  5  0  0  0  0  0  0
    1.9030   -0.5114   -0.2759 O   0  0  0  0  0  0  0  0  0  0  0  0
   -0.8211   -2.1388   -2.3542 O   0  0  0  0  0  0  0  0  0  0  0  0
    2.5476   -1.3629   -3.9157 O   0  0  0  0  0  0  0  0  0  0  0  0
    1.9398   -3.3157   -1.5899 O   0  0  0  0  0  0  0  0  0  0  0  0
   -1.0735    1.2835   -0.4607 C   0  0  0  0  0  0  0  0  0  0  0  0
   -1.7835    2.1779    0.3832 O   0  0  0  0  0  0  0  0  0  0  0  0
   -1.7090    0.4830   -1.2161 O   0  0  0  0  0  0  0  0  0  0  0  0
  2  1  1  6
  2  3  1  0
  2 10  1  0
  3  4  1  0
  4  5  1  0
  5  6  1  0
  5  7  1  0
  5  8  1  0
  5  9  1  0
 10 11  1  0
 10 12  2  0
M  CHG  3   7  -1   8  -1   9  -1
M  END
>  <DRUGBANK_ID>  (1) 
DB04031

>  <SECONDARY_ACCESSION_NUMBERS>  (1) 
EXPT02982

>  <COMMON_NAME>  (1) 
Serine vanadate

$$$$
