
     RDKit          3D

  5  4  0  0  0  0  0  0  0  0999 V2000
    1.0160   -0.0858   -0.1373 C   0  0  0  0  0  0  0  0  0  0  0  0
    0.5239   -1.4308    0.3755 C   0  0  0  0  0  0  0  0  0  0  0  0
    0.9709   -1.7223    1.8119 C   0  0  0  0  0  0  0  0  0  0  0  0
    0.4916   -0.7139    2.8535 C   0  0  0  0  0  0  0  0  0  0  0  0
   -1.2827   -0.6468    2.9551 Cl  0  0  0  0  0  0  0  0  0  0  0  0
  2  1  1  0
  3  2  1  0
  4  3  1  0
  5  4  1  0
M  END
>  <DRUGBANK_ID>  (1) 
DB11534

>  <COMMON_NAME>  (1) 
Butyl chloride

>  <CAS_NUMBER>  (1) 
109-69-3

>  <UNII>  (1) 
ZP7R667SGD

>  <SYNONYMS>  (1) 
n-Butyl chloride; n-Propylcarbinyl chloride

$$$$
