
     RDKit          3D

 24 26  0  0  0  0  0  0  0  0999 V2000
    1.3572   -0.2234    0.0164 C   0  0  0  0  0  0  0  0  0  0  0  0
   -1.8022    2.9665   -4.7413 C   0  0  0  0  0  0  0  0  0  0  0  0
    0.4672   -1.2987    0.0300 C   0  0  0  0  0  0  0  0  0  0  0  0
    0.8723    1.0821    0.0171 C   0  0  0  0  0  0  0  0  0  0  0  0
   -1.4823    1.6471   -4.4320 C   0  0  0  0  0  0  0  0  0  0  0  0
   -2.5915    3.7145   -3.8683 C   0  0  0  0  0  0  0  0  0  0  0  0
   -0.9136   -1.0699    0.0254 C   0  0  0  0  0  0  0  0  0  0  0  0
   -0.5015    1.3129    0.0514 C   0  0  0  0  0  0  0  0  0  0  0  0
   -1.9930    1.0634   -3.2696 C   0  0  0  0  0  0  0  0  0  0  0  0
   -3.0723    3.1414   -2.6895 C   0  0  0  0  0  0  0  0  0  0  0  0
   -7.4047    0.7505    0.0415 C   0  0  0  0  0  0  0  0  0  0  0  0
   -6.2230   -0.4565    1.9365 C   0  0  0  0  0  0  0  0  0  0  0  0
   -8.3965   -0.3700   -0.3455 C   0  0  0  0  0  0  0  0  0  0  0  0
   -5.8456   -1.9566    1.8112 C   0  0  0  0  0  0  0  0  0  0  0  0
   -1.4031    0.2420    0.0157 C   0  0  0  0  0  0  0  0  0  0  0  0
   -2.8287    1.7962   -2.4095 C   0  0  0  0  0  0  0  0  0  0  0  0
   -2.8135    0.5154   -0.1475 C   0  0  0  0  0  0  0  0  0  0  0  0
   -3.3722    1.1932   -1.2045 C   0  0  0  0  0  0  0  0  0  0  0  0
   -4.9181    0.5480    0.1748 C   0  0  0  0  0  0  0  0  0  0  0  0
   -3.7967    0.1305    0.7156 N   0  0  0  0  0  0  0  0  0  0  0  0
   -6.1651    0.2286    0.6289 N   0  0  0  0  0  0  0  0  0  0  0  0
   -8.9673   -1.0301    0.7843 O   0  0  0  0  0  0  0  0  0  0  0  0
   -4.4865   -2.2234    1.4907 O   0  0  0  0  0  0  0  0  0  0  0  0
   -4.7415    1.2286   -1.0077 O   0  0  0  0  0  0  0  0  0  0  0  0
  3  1  2  0
  4  1  1  0
  5  2  2  0
  6  2  1  0
  7  3  1  0
  8  4  2  0
  9  5  1  0
 10  6  2  0
 13 11  1  0
 14 12  1  0
 15  7  2  0
 15  8  1  0
 16  9  2  0
 16 10  1  0
 17 15  1  0
 18 16  1  0
 18 17  2  0
 20 17  1  0
 20 19  2  0
 21 11  1  0
 21 12  1  0
 21 19  1  0
 22 13  1  0
 23 14  1  0
 24 18  1  0
 24 19  1  0
M  END
>  <DRUGBANK_ID>  (1) 
DB08994

>  <COMMON_NAME>  (1) 
Ditazole

>  <CAS_NUMBER>  (1) 
18471-20-0

>  <UNII>  (1) 
H2BQI5Z8FT

>  <SYNONYMS>  (1) 
2,2'-(4,5-Diphenyloxazol-2-ylazanediyl)diethanol; Ditazole

$$$$
