
     RDKit          3D

 18 20  0  0  0  0  0  0  0  0999 V2000
    1.1359    1.4161    0.0228 O   0  0  0  0  0  0  0  0  0  0  0  0
   -3.5757    1.4155   -0.0034 O   0  0  0  0  0  0  0  0  0  0  0  0
    7.5341   -3.0606   -0.1400 O   0  0  0  0  0  0  0  0  0  0  0  0
    2.3831   -0.7786    0.0254 C   0  0  0  0  0  0  0  0  0  0  0  0
    2.4020    0.7327   -0.0051 C   0  0  0  0  0  0  0  0  0  0  0  0
   -0.0148   -0.7285    0.0026 C   0  0  0  0  0  0  0  0  0  0  0  0
    1.2404   -1.4702    0.0194 C   0  0  0  0  0  0  0  0  0  0  0  0
   -0.0068    0.6686    0.0046 C   0  0  0  0  0  0  0  0  0  0  0  0
    3.6913   -1.4686    0.0379 C   0  0  0  0  0  0  0  0  0  0  0  0
   -1.2386   -1.4089   -0.0025 C   0  0  0  0  0  0  0  0  0  0  0  0
   -1.2132    1.3772   -0.0001 C   0  0  0  0  0  0  0  0  0  0  0  0
    4.6335   -1.2083    1.0421 C   0  0  0  0  0  0  0  0  0  0  0  0
    4.0349   -2.3621   -0.9885 C   0  0  0  0  0  0  0  0  0  0  0  0
   -2.4217    0.6876   -0.0027 C   0  0  0  0  0  0  0  0  0  0  0  0
   -2.4450   -0.7027   -0.0021 C   0  0  0  0  0  0  0  0  0  0  0  0
    5.9260   -1.7350    0.9569 C   0  0  0  0  0  0  0  0  0  0  0  0
    5.3003   -2.9600   -1.0255 C   0  0  0  0  0  0  0  0  0  0  0  0
    6.2534   -2.5971   -0.0814 C   0  0  0  0  0  0  0  0  0  0  0  0
  1  5  1  0
  1  8  1  0
  2 14  1  0
  3 18  1  0
  4  5  1  0
  4  7  2  0
  4  9  1  0
  6  7  1  0
  6  8  2  0
  6 10  1  0
  8 11  1  0
  9 12  2  0
  9 13  1  0
 10 15  2  0
 11 14  2  0
 12 16  1  0
 13 17  2  0
 14 15  1  0
 16 18  2  0
 17 18  1  0
M  END
>  <DRUGBANK_ID>  (1) 
DB04915

>  <COMMON_NAME>  (1) 
Idronoxil

>  <CAS_NUMBER>  (1) 
81267-65-4

>  <UNII>  (1) 
995FT1W541

>  <SYNONYMS>  (1) 
(+/-)-cis-3-(4-hydroxyphenyl)-4-(4-methoxyphenyl)-3,4-dihydro-2H-cromen-7-ol; 3-(4-hydroxyphenyl)-2H-chromen-7-ol; Dehydroequol; Haginin E; Idronoxil; Phenoxodiol

$$$$
