
     RDKit          3D

 26 27  0  0  1  0  0  0  0  0999 V2000
    0.1184    0.0633   -0.0599 C   0  0  0  0  0  0  0  0  0  0  0  0
    0.0658    0.3392    1.3276 O   0  0  0  0  0  0  0  0  0  0  0  0
    0.5914   -0.4999    2.2839 C   0  0  0  0  0  0  0  0  0  0  0  0
    1.8464   -1.1093    2.3616 C   0  0  0  0  0  0  0  0  0  0  0  0
    2.4305   -1.6117    1.2136 O   0  0  0  0  0  0  0  0  0  0  0  0
    2.6937   -0.6833    0.1511 C   0  0  0  0  0  0  0  0  0  0  0  0
    2.4415   -1.4107    3.6543 C   0  0  0  0  0  0  0  0  0  0  0  0
    1.6540   -1.2157    4.8183 C   0  0  0  0  0  0  0  0  0  0  0  0
    0.3314   -0.7798    4.7117 C   0  0  0  0  0  0  0  0  0  0  0  0
   -0.5106   -0.4555    5.9279 C   0  0  0  0  0  0  0  0  0  0  0  0
   -0.8727    1.0438    6.0224 C   0  0  0  0  0  0  0  0  0  0  0  0
   -1.7020    1.5765    4.8611 C   0  0  0  0  0  0  0  0  0  0  0  0
   -2.7852    0.7731    4.6842 F   0  0  0  0  0  0  0  0  0  0  0  0
   -0.1880   -0.5320    3.4325 C   0  0  0  0  0  0  0  0  0  0  0  0
    3.9221   -1.7628    3.9774 C   0  0  0  0  0  0  0  0  0  0  0  0
    4.2571   -2.0111    5.1249 O   0  0  0  0  0  0  0  0  0  0  0  0
    4.9731   -1.6702    3.0542 N   0  0  0  0  0  0  0  0  0  0  0  0
    4.8972   -1.0350    1.7842 C   0  0  0  0  0  0  0  0  0  0  0  0
    5.4546    0.3265    1.3627 C   0  0  2  0  0  0  0  0  0  0  0  0
    6.8085    0.5427    1.9356 C   0  0  0  0  0  0  0  0  0  0  0  0
    7.0165    2.0221    1.7239 C   0  0  0  0  0  0  0  0  0  0  0  0
    5.6391    2.6721    1.6326 C   0  0  0  0  0  0  0  0  0  0  0  0
    4.6677    1.5785    1.6426 N   0  0  0  0  0  0  0  0  0  0  0  0
    3.8575    1.6429    2.8703 C   0  0  0  0  0  0  0  0  0  0  0  0
    4.6227    1.3174    4.1094 C   0  0  0  0  0  0  0  0  0  0  0  0
    4.7937    2.0780    5.1861 C   0  0  0  0  0  0  0  0  0  0  0  0
  1  2  1  0
  2  3  1  0
  3  4  2  0
  3 14  1  0
  4  5  1  0
  4  7  1  0
  5  6  1  0
  7  8  2  0
  7 15  1  0
  8  9  1  0
  9 10  1  0
  9 14  2  0
 10 11  1  0
 11 12  1  0
 12 13  1  0
 15 16  2  0
 15 17  1  0
 17 18  1  0
 19 18  1  1
 19 20  1  0
 19 23  1  0
 20 21  1  0
 21 22  1  0
 22 23  1  0
 23 24  1  0
 24 25  1  0
 25 26  2  0
M  END
>  <DRUGBANK_ID>  (1) 
DB15167

>  <COMMON_NAME>  (1) 
Fallypride

>  <CAS_NUMBER>  (1) 
166173-78-0

>  <UNII>  (1) 
G9FWZ369GX

$$$$
