
     RDKit          3D

 17 17  0  0  0  0  0  0  0  0999 V2000
    1.3626    0.3678   -0.6836 C   0  0  0  0  0  0  0  0  0  0  0  0
   -0.8438   -0.2610   -1.7836 C   0  0  0  0  0  0  0  0  0  0  0  0
    4.1458   -0.8448   -0.5540 C   0  0  0  0  0  0  0  0  0  0  0  0
    3.1972   -2.9117   -1.2791 C   0  0  0  0  0  0  0  0  0  0  0  0
    3.1696   -0.8260    0.5071 C   0  0  0  0  0  0  0  0  0  0  0  0
    2.0487   -2.7700   -0.4042 C   0  0  0  0  0  0  0  0  0  0  0  0
    0.9017    1.2799   -2.4406 C   0  0  0  0  0  0  0  0  0  0  0  0
    0.2918    2.5652   -1.5317 C   0  0  0  0  0  0  0  0  0  0  0  0
   -0.3055    0.1565    1.2275 C   0  0  0  0  0  0  0  0  0  0  0  0
    4.2020   -1.9385   -1.3865 C   0  0  0  0  0  0  0  0  0  0  0  0
    1.9752   -1.7055    0.5286 C   0  0  0  0  0  0  0  0  0  0  0  0
    0.3246    1.7858    1.3330 C   0  0  0  0  0  0  0  0  0  0  0  0
    5.5458   -2.1135   -2.4607 Cl  0  0  0  0  0  0  0  0  0  0  0  0
    0.6334   -0.0298   -1.8344 N   0  0  0  0  0  0  0  0  0  0  0  0
    0.9212    2.1442    2.3947 O   0  0  0  0  0  0  0  0  0  0  0  0
    0.3856    2.6758    0.1702 O   0  0  0  0  0  0  0  0  0  0  0  0
    0.5425   -1.3270    1.0974 O   0  0  0  0  0  0  0  0  0  0  0  0
  5  3  2  0
  6  4  1  0
  8  7  1  0
 10  3  1  0
 10  4  2  0
 11  5  1  0
 11  6  2  0
 12  9  1  0
 13 10  1  0
 14  1  1  0
 14  2  1  0
 14  7  1  0
 15 12  2  0
 16  8  1  0
 16 12  1  0
 17  9  1  0
 17 11  1  0
M  END
>  <DRUGBANK_ID>  (1) 
DB13758

>  <COMMON_NAME>  (1) 
Meclofenoxate

>  <CAS_NUMBER>  (1) 
51-68-3

>  <UNII>  (1) 
C76QQ2I0RG

>  <SYNONYMS>  (1) 
Meclofenoxate

$$$$
