MVB
     RDKit          3D

 22 24  0  0  0  0  0  0  0  0999 V2000
   -1.7572   -1.2281   -0.7065 O   0  0  0  0  0  0  0  0  0  0  0  0
    1.1682   -0.2802    0.1015 C   0  0  0  0  0  0  0  0  0  0  0  0
    2.3290   -0.6460   -0.1172 O   0  0  0  0  0  0  0  0  0  0  0  0
    0.8308    1.0084   -0.0550 O   0  0  0  0  0  0  0  0  0  0  0  0
   -5.0360    2.2718   -1.6052 O   0  0  0  0  0  0  0  0  0  0  0  0
   -0.5404    1.4106   -0.0728 C   0  0  2  0  0  0  0  0  0  0  0  0
   -1.4422    0.6516    0.8677 C   0  0  0  0  0  0  0  0  0  0  0  0
   -1.3013   -0.8222    0.5787 C   0  0  2  0  0  0  0  0  0  0  0  0
    0.1603   -1.1910    0.7503 C   0  0  0  0  0  0  0  0  0  0  0  0
   -0.6065    3.9807   -3.0282 C   0  0  0  0  0  0  0  0  0  0  0  0
   -1.0068    1.3581   -1.5215 C   0  0  0  0  0  0  0  0  0  0  0  0
   -2.3715    2.0051   -1.6954 C   0  0  0  0  0  0  0  0  0  0  0  0
   -2.4324    3.4918   -1.2859 C   0  0  1  0  0  0  0  0  0  0  0  0
   -1.0717    4.1951   -1.5807 C   0  0  2  0  0  0  0  0  0  0  0  0
   -1.1008    5.6632   -1.3199 C   0  0  0  0  0  0  0  0  0  0  0  0
   -2.2323    6.3703   -1.3428 C   0  0  0  0  0  0  0  0  0  0  0  0
   -3.5201    5.7440   -1.5759 C   0  0  0  0  0  0  0  0  0  0  0  0
   -3.5513    4.2717   -2.0207 C   0  0  2  0  0  0  0  0  0  0  0  0
   -4.9752    3.6339   -2.0102 C   0  0  2  0  0  0  0  0  0  0  0  0
   -5.9372    4.3703   -1.0980 C   0  0  0  0  0  0  0  0  0  0  0  0
   -5.9977    5.8344   -1.4797 C   0  0  0  0  0  0  0  0  0  0  0  0
   -4.6422    6.4500   -1.3686 C   0  0  0  0  0  0  0  0  0  0  0  0
  2  3  2  0
  2  4  1  0
  2  9  1  0
  4  6  1  0
  6  7  1  0
  6 11  1  6
  7  8  1  0
  8  1  1  6
  8  9  1  0
 11 12  1  0
 13 12  1  6
 13 14  1  0
 13 18  1  0
 14 15  1  0
 14 10  1  6
 15 16  2  0
 16 17  1  0
 18 17  1  1
 17 22  2  0
 18 19  1  0
 19  5  1  1
 19 20  1  0
 20 21  1  0
 21 22  1  0
M  END
>  <DRUGBANK_ID>  (1) 
DB08224

>  <COMMON_NAME>  (1) 
(1S,7S,8S,8AR)-1,2,3,7,8,8A-HEXAHYDRO-7-METHYL-8-[2-[(2R,4R)-TETRAHYDRO-4-HY DROXY-6-OXO-2H-PYRAN-2-YL]ETHYL]-1-NAPHTHALENOL

$$$$
