
     RDKit          3D

 23 23  0  0  0  0  0  0  0  0999 V2000
    1.1073   -0.4689    0.1168 N   0  0  0  0  0  0  0  0  0  0  0  0
    0.9179    0.9166   -0.0441 C   0  0  0  0  0  0  0  0  0  0  0  0
    2.3770   -1.2302   -0.0194 C   0  0  0  0  0  0  0  0  0  0  0  0
    0.0321   -1.0490    0.5798 C   0  0  0  0  0  0  0  0  0  0  0  0
   -0.3899    1.2787    0.2834 C   0  0  0  0  0  0  0  0  0  0  0  0
    2.0338    1.8444   -0.3159 C   0  0  0  0  0  0  0  0  0  0  0  0
    2.5607   -2.1539    1.1620 C   0  0  0  0  0  0  0  0  0  0  0  0
   -1.0056    0.0513    1.3619 S   0  0  0  0  0  0  0  0  0  0  0  0
   -1.2116    2.5224    0.1119 C   0  0  0  0  0  0  0  0  0  0  0  0
    1.7898   -3.2664    1.4300 C   0  0  0  0  0  0  0  0  0  0  0  0
    3.4555   -1.8168    2.1649 C   0  0  0  0  0  0  0  0  0  0  0  0
   -2.1037    2.5456   -1.1518 C   0  0  0  0  0  0  0  0  0  0  0  0
    1.7734   -3.8807    2.6137 N   0  0  0  0  0  0  0  0  0  0  0  0
    0.9428   -3.8629    0.5096 N   0  0  0  0  0  0  0  0  0  0  0  0
    3.5645   -2.4960    3.3197 N   0  0  0  0  0  0  0  0  0  0  0  0
   -3.0756    1.4753   -1.2400 O   0  0  0  0  0  0  0  0  0  0  0  0
    2.6707   -3.4633    3.5292 C   0  0  0  0  0  0  0  0  0  0  0  0
   -2.2917   -0.0669   -1.2432 P   0  0  0  0  0  0  0  0  0  0  0  0
    2.7192   -4.2140    4.8194 C   0  0  0  0  0  0  0  0  0  0  0  0
   -3.7968   -0.6794   -1.3758 O   0  0  0  0  0  0  0  0  0  0  0  0
   -1.9944    0.1705   -2.8349 O   0  0  0  0  0  0  0  0  0  0  0  0
   -1.5901   -1.4472   -1.2461 O   0  0  0  0  0  0  0  0  0  0  0  0
    1.8082    1.1896    3.2777 Cl  0  0  0  0  0  0  0  0  0  0  0  0
  1  2  1  0
  1  3  1  0
  1  4  2  0
  2  5  2  0
  2  6  1  0
  3  7  1  0
  4  8  1  0
  5  9  1  0
  5  8  1  0
  7 10  2  0
  7 11  1  0
  9 12  1  0
 10 13  1  0
 10 14  1  0
 11 15  2  0
 12 16  1  0
 13 17  2  0
 15 17  1  0
 16 18  1  0
 17 19  1  0
 18 20  1  0
 18 21  1  0
 18 22  2  0
M  CHG  2   1   1  23  -1
M  END
>  <DRUGBANK_ID>  (1) 
DB16023

>  <COMMON_NAME>  (1) 
Monophosphothiamine

>  <CAS_NUMBER>  (1) 
532-40-1

>  <UNII>  (1) 
P712T71Q3T

>  <SYNONYMS>  (1) 
Monofosfotiamina; Monophosphothiamine; Thiamine monophosphate; Vitamin B1 monophosphate; Vitamin B1 phosphate

$$$$
