
     RDKit          3D

 28 27  0  0  0  0  0  0  0  0999 V2000
    0.6770    1.2160    0.0070 C   0  0  0  0  0  0  0  0  0  0  0  0
    1.4420    0.0470   -0.0030 C   0  0  0  0  0  0  0  0  0  0  0  0
   -0.7010    1.1260   -0.0040 C   0  0  0  0  0  0  0  0  0  0  0  0
   -0.6110   -1.1650    0.0090 C   0  0  0  0  0  0  0  0  0  0  0  0
    0.7650   -1.1660   -0.0050 C   0  0  0  0  0  0  0  0  0  0  0  0
    1.5340   -2.4770   -0.0224 C   0  0  0  0  0  0  0  0  0  0  0  0
   -1.3480   -0.0500   -0.0030 N   0  0  0  0  0  0  0  0  0  0  0  0
    0.9061   -3.5820   -0.0241 O   0  0  0  0  0  0  0  0  0  0  0  0
    2.9539   -2.4672   -0.0368 O   0  0  0  0  0  0  0  0  0  0  0  0
    0.6770    1.2160    0.0070 C   0  0  0  0  0  0  0  0  0  0  0  0
    1.4420    0.0470   -0.0030 C   0  0  0  0  0  0  0  0  0  0  0  0
   -0.7010    1.1260   -0.0040 C   0  0  0  0  0  0  0  0  0  0  0  0
   -0.6110   -1.1650    0.0090 C   0  0  0  0  0  0  0  0  0  0  0  0
    0.7650   -1.1660   -0.0050 C   0  0  0  0  0  0  0  0  0  0  0  0
    1.5340   -2.4770   -0.0224 C   0  0  0  0  0  0  0  0  0  0  0  0
   -1.3480   -0.0500   -0.0030 N   0  0  0  0  0  0  0  0  0  0  0  0
    0.9061   -3.5820   -0.0241 O   0  0  0  0  0  0  0  0  0  0  0  0
    2.9539   -2.4672   -0.0368 O   0  0  0  0  0  0  0  0  0  0  0  0
    0.6770    1.2160    0.0070 C   0  0  0  0  0  0  0  0  0  0  0  0
    1.4420    0.0470   -0.0030 C   0  0  0  0  0  0  0  0  0  0  0  0
   -0.7010    1.1260   -0.0040 C   0  0  0  0  0  0  0  0  0  0  0  0
   -0.6110   -1.1650    0.0090 C   0  0  0  0  0  0  0  0  0  0  0  0
    0.7650   -1.1660   -0.0050 C   0  0  0  0  0  0  0  0  0  0  0  0
    1.5340   -2.4770   -0.0224 C   0  0  0  0  0  0  0  0  0  0  0  0
   -1.3480   -0.0500   -0.0030 N   0  0  0  0  0  0  0  0  0  0  0  0
    0.9061   -3.5820   -0.0241 O   0  0  0  0  0  0  0  0  0  0  0  0
    2.9539   -2.4672   -0.0368 O   0  0  0  0  0  0  0  0  0  0  0  0
    1.0084   -0.0477    0.0875 Al  0  0  0  0  0 15  0  0  0  0  0  0
  2  1  2  0
  3  1  1  0
  5  2  1  0
  5  4  2  0
  6  5  1  0
  7  3  2  0
  7  4  1  0
  8  6  2  0
  9  6  1  0
 11 10  2  0
 12 10  1  0
 14 11  1  0
 14 13  2  0
 15 14  1  0
 16 12  2  0
 16 13  1  0
 17 15  2  0
 18 15  1  0
 20 19  2  0
 21 19  1  0
 23 20  1  0
 23 22  2  0
 24 23  1  0
 25 21  2  0
 25 22  1  0
 26 24  2  0
 27 24  1  0
M  CHG  4   9  -1  18  -1  27  -1  28   3
M  END
>  <DRUGBANK_ID>  (1) 
DB13576

>  <COMMON_NAME>  (1) 
Aluminium nicotinate

>  <CAS_NUMBER>  (1) 
1976-28-9

>  <UNII>  (1) 
BDI80PUH9N

>  <SYNONYMS>  (1) 
Niacin aluminum

$$$$
