AP9
     RDKit          3D

 28 30  0  0  0  0  0  0  0  0999 V2000
    2.9644   -3.3055   -1.8973 O   0  0  0  0  0  0  0  0  0  0  0  0
    2.5132   -2.4053   -0.8960 C   0  0  0  0  0  0  0  0  0  0  0  0
    0.9659   -2.3359   -0.8007 C   0  0  2  0  0  0  0  0  0  0  0  0
    0.5101   -1.3271    0.3278 C   0  0  0  0  0  0  0  0  0  0  0  0
    1.6680   -0.7656    1.1777 C   0  0  0  0  0  0  0  0  0  0  0  0
   -0.2376   -0.1230   -0.2702 C   0  0  0  0  0  0  0  0  0  0  0  0
    0.4559   -3.7044   -0.5513 N   0  0  0  0  0  0  0  0  0  0  0  0
   -0.3859   -4.3372   -1.4553 C   0  0  0  0  0  0  0  0  0  0  0  0
   -1.3854   -5.0897   -0.9339 N   0  0  0  0  0  0  0  0  0  0  0  0
   -2.0907   -5.7595   -1.8647 C   0  0  0  0  0  0  0  0  0  0  0  0
   -1.8490   -5.7761   -3.2286 C   0  0  0  0  0  0  0  0  0  0  0  0
   -2.7206   -6.6205   -3.8795 N   0  0  0  0  0  0  0  0  0  0  0  0
   -3.5398   -7.0623   -2.9575 C   0  0  0  0  0  0  0  0  0  0  0  0
   -3.1978   -6.5724   -1.7286 N   0  0  0  0  0  0  0  0  0  0  0  0
   -3.9300   -6.9009   -0.5188 C   0  0  0  0  0  0  0  0  0  0  0  0
   -3.0408   -7.6548    0.4578 C   0  0  0  0  0  0  0  0  0  0  0  0
   -4.5653   -5.6614    0.0964 C   0  0  0  0  0  0  0  0  0  0  0  0
   -0.8033   -4.9693   -3.6995 C   0  0  0  0  0  0  0  0  0  0  0  0
   -0.0893   -4.2549   -2.7761 N   0  0  0  0  0  0  0  0  0  0  0  0
   -0.4557   -4.8988   -5.0620 N   0  0  0  0  0  0  0  0  0  0  0  0
   -1.0618   -5.5826   -6.1352 C   0  0  0  0  0  0  0  0  0  0  0  0
   -2.4395   -5.4400   -6.4025 C   0  0  0  0  0  0  0  0  0  0  0  0
   -3.0949   -6.1783   -7.3966 C   0  0  0  0  0  0  0  0  0  0  0  0
   -4.4162   -5.8827   -7.7435 N   0  0  0  0  0  0  0  0  0  0  0  0
   -2.3342   -7.0424   -8.1797 C   0  0  0  0  0  0  0  0  0  0  0  0
   -0.9724   -7.2125   -7.9179 C   0  0  0  0  0  0  0  0  0  0  0  0
   -0.0623   -8.3152   -8.8814 Cl  0  0  0  0  0  0  0  0  0  0  0  0
   -0.3364   -6.4983   -6.8988 C   0  0  0  0  0  0  0  0  0  0  0  0
  1  2  1  0
  3  7  1  0
  3  4  1  0
  3  2  1  1
  4  5  1  0
  4  6  1  0
  7  8  1  0
  8  9  2  0
  8 19  1  0
  9 10  1  0
 10 11  2  0
 10 14  1  0
 11 12  1  0
 11 18  1  0
 12 13  2  0
 13 14  1  0
 14 15  1  0
 15 16  1  0
 15 17  1  0
 18 19  2  0
 18 20  1  0
 20 21  1  0
 21 22  2  0
 21 28  1  0
 22 23  1  0
 23 24  1  0
 23 25  2  0
 25 26  1  0
 26 27  1  0
 26 28  2  0
M  END
>  <DRUGBANK_ID>  (1) 
DB07379

>  <COMMON_NAME>  (1) 
(2S)-2-({6-[(3-Amino-5-chlorophenyl)amino]-9-isopropyl-9H-purin-2-yl}amino)-3-methyl-1-butanol

$$$$
