897
     RDKit          3D

 23 26  0  0  0  0  0  0  0  0999 V2000
    0.9801   -0.1013   -0.0817 Cl  0  0  0  0  0  0  0  0  0  0  0  0
    4.3694   -5.3666    0.0296 Cl  0  0  0  0  0  0  0  0  0  0  0  0
    6.9135   -0.0086    0.0705 N   0  0  0  0  0  0  0  0  0  0  0  0
    6.5850   -3.0213   -0.0908 N   0  0  0  0  0  0  0  0  0  0  0  0
    8.9831   -0.5850    0.5599 N   0  0  0  0  0  0  0  0  0  0  0  0
    9.0049    0.6860    0.0556 N   0  0  0  0  0  0  0  0  0  0  0  0
    5.5001   -0.0649   -0.0007 C   0  0  0  0  0  0  0  0  0  0  0  0
    4.8209   -1.2693   -0.2580 C   0  0  0  0  0  0  0  0  0  0  0  0
    7.7372   -1.0068    0.5417 C   0  0  0  0  0  0  0  0  0  0  0  0
    5.5209   -2.5508   -0.6294 C   0  0  0  0  0  0  0  0  0  0  0  0
    7.2228   -2.3106    1.0130 C   0  0  0  0  0  0  0  0  0  0  0  0
    7.7713    1.0326   -0.2517 C   0  0  0  0  0  0  0  0  0  0  0  0
    4.7608    1.1068    0.2350 C   0  0  0  0  0  0  0  0  0  0  0  0
    4.9085   -3.3336   -1.7398 C   0  0  0  0  0  0  0  0  0  0  0  0
    3.4115   -1.2651   -0.2760 C   0  0  0  0  0  0  0  0  0  0  0  0
    3.3686    1.1002    0.1906 C   0  0  0  0  0  0  0  0  0  0  0  0
    2.6984   -0.0874   -0.0578 C   0  0  0  0  0  0  0  0  0  0  0  0
    7.4035    2.2850   -0.9571 C   0  0  0  0  0  0  0  0  0  0  0  0
    4.3217   -4.5821   -1.5075 C   0  0  0  0  0  0  0  0  0  0  0  0
    4.7896   -2.7151   -2.9927 C   0  0  0  0  0  0  0  0  0  0  0  0
    3.5701   -5.1816   -2.5201 C   0  0  0  0  0  0  0  0  0  0  0  0
    3.9584   -3.2764   -3.9607 C   0  0  0  0  0  0  0  0  0  0  0  0
    3.3393   -4.5020   -3.7186 C   0  0  0  0  0  0  0  0  0  0  0  0
  1 17  1  0
  2 19  1  0
  3  7  1  0
  3  9  1  0
  3 12  1  0
  4 10  2  0
  4 11  1  0
  5  6  1  0
  5  9  2  0
  6 12  2  0
  7  8  2  0
  7 13  1  0
  8 10  1  0
  8 15  1  0
  9 11  1  0
 10 14  1  0
 12 18  1  0
 13 16  2  0
 14 19  2  0
 14 20  1  0
 15 17  2  0
 16 17  1  0
 19 21  1  0
 20 22  2  0
 21 23  2  0
 22 23  1  0
M  END
>  <DRUGBANK_ID>  (1) 
DB00897

>  <SECONDARY_ACCESSION_NUMBERS>  (1) 
APRD00313

>  <COMMON_NAME>  (1) 
Triazolam

>  <CAS_NUMBER>  (1) 
28911-01-5

>  <UNII>  (1) 
1HM943223R

>  <SYNONYMS>  (1) 
Triazolam; Triazolamum

$$$$
