
     RDKit          3D

 30 34  0  0  1  0  0  0  0  0999 V2000
    0.9899    1.3714   -2.1999 C   0  0  0  0  0  0  0  0  0  0  0  0
    0.5617    1.3291   -0.7310 C   0  0  2  0  0  0  0  0  0  0  0  0
    1.3227    0.2556   -0.1608 N   0  0  0  0  0  0  0  0  0  0  0  0
    2.0444    0.4131    0.9792 C   0  0  0  0  0  0  0  0  0  0  0  0
    1.5643    1.0822    2.0355 N   0  0  0  0  0  0  0  0  0  0  0  0
    2.3582    1.2016    3.1173 C   0  0  0  0  0  0  0  0  0  0  0  0
    3.6147    0.7579    3.2744 N   0  0  0  0  0  0  0  0  0  0  0  0
    4.0543    0.0639    2.2094 C   0  0  0  0  0  0  0  0  0  0  0  0
    3.2860   -0.1571    1.0903 C   0  0  0  0  0  0  0  0  0  0  0  0
    4.0558   -0.9225    0.2620 N   0  0  0  0  0  0  0  0  0  0  0  0
    5.2626   -1.0883    0.8777 C   0  0  0  0  0  0  0  0  0  0  0  0
    5.2917   -0.5045    2.0572 N   0  0  0  0  0  0  0  0  0  0  0  0
   -0.9796    1.1779   -0.6056 C   0  0  0  0  0  0  0  0  0  0  0  0
   -1.6167    2.3168   -0.5677 N   0  0  0  0  0  0  0  0  0  0  0  0
   -3.0090    2.3291   -0.6256 C   0  0  0  0  0  0  0  0  0  0  0  0
   -3.7475    1.1533   -0.6736 C   0  0  0  0  0  0  0  0  0  0  0  0
   -5.1396    1.1677   -0.7224 C   0  0  0  0  0  0  0  0  0  0  0  0
   -5.7814    2.3759   -0.9121 C   0  0  0  0  0  0  0  0  0  0  0  0
   -7.1139    2.3993   -1.0275 F   0  0  0  0  0  0  0  0  0  0  0  0
   -5.0608    3.5621   -0.9801 C   0  0  0  0  0  0  0  0  0  0  0  0
   -3.6882    3.5478   -0.7181 C   0  0  0  0  0  0  0  0  0  0  0  0
   -3.0277   -0.1161   -0.7300 C   0  0  0  0  0  0  0  0  0  0  0  0
   -3.6959   -1.1548   -0.8302 O   0  0  0  0  0  0  0  0  0  0  0  0
   -1.6410   -0.0552   -0.6872 N   0  0  0  0  0  0  0  0  0  0  0  0
   -0.9760   -1.3179   -0.7242 C   0  0  0  0  0  0  0  0  0  0  0  0
   -0.2029   -1.7475    0.3552 C   0  0  0  0  0  0  0  0  0  0  0  0
    0.7597   -2.7417    0.1621 C   0  0  0  0  0  0  0  0  0  0  0  0
    0.7532   -3.4904   -1.0073 C   0  0  0  0  0  0  0  0  0  0  0  0
   -0.2321   -3.2567   -1.9640 C   0  0  0  0  0  0  0  0  0  0  0  0
   -1.0532   -2.1314   -1.8587 C   0  0  0  0  0  0  0  0  0  0  0  0
  2 13  1  0
  2  3  1  0
  2  1  1  6
  3  4  1  0
  4  5  2  0
  4  9  1  0
  5  6  1  0
  6  7  2  0
  7  8  1  0
  8  9  2  0
  8 12  1  0
  9 10  1  0
 10 11  1  0
 11 12  2  0
 13 14  2  0
 13 24  1  0
 14 15  1  0
 15 16  2  0
 15 21  1  0
 16 17  1  0
 16 22  1  0
 17 18  2  0
 18 19  1  0
 18 20  1  0
 20 21  2  0
 22 23  2  0
 22 24  1  0
 24 25  1  0
 25 26  2  0
 25 30  1  0
 26 27  1  0
 27 28  2  0
 28 29  1  0
 29 30  2  0
M  END
>  <DRUGBANK_ID>  (1) 
DB15407

>  <COMMON_NAME>  (1) 
Acalisib

>  <CAS_NUMBER>  (1) 
870281-34-8

>  <UNII>  (1) 
OVW60IDW1D

>  <SYNONYMS>  (1) 
Acalisib

$$$$
