
     RDKit          3D

 21 22  0  0  0  0  0  0  0  0999 V2000
    1.2977   -0.1833    0.3976 C   0  0  0  0  0  0  0  0  0  0  0  0
    0.5804   -1.3381    0.2468 C   0  0  0  0  0  0  0  0  0  0  0  0
   -0.4684    1.3169    0.4100 C   0  0  0  0  0  0  0  0  0  0  0  0
   -1.1579    0.1731    0.8191 C   0  0  0  0  0  0  0  0  0  0  0  0
    0.8351    1.1250    0.1988 C   0  0  0  0  0  0  0  0  0  0  0  0
   -0.6624   -1.1477    0.6174 C   0  0  0  0  0  0  0  0  0  0  0  0
   -0.9736    2.5771    0.3020 O   0  0  0  0  0  0  0  0  0  0  0  0
    1.0562   -2.5812   -0.0101 O   0  0  0  0  0  0  0  0  0  0  0  0
    2.4737   -2.7698   -0.0871 C   0  0  0  0  0  0  0  0  0  0  0  0
    3.1808   -2.1690   -1.3241 C   0  0  0  0  0  0  0  0  0  0  0  0
    3.2567   -0.6405   -1.4187 C   0  0  0  0  0  0  0  0  0  0  0  0
    4.0116    0.0147   -0.2260 C   0  0  0  0  0  0  0  0  0  0  0  0
   -3.1602    2.4016   -0.8313 C   0  0  0  0  0  0  0  0  0  0  0  0
   -3.3457   -1.3657   -0.4387 C   0  0  0  0  0  0  0  0  0  0  0  0
   -3.9439   -2.0181   -1.6437 C   0  0  0  0  0  0  0  0  0  0  0  0
   -5.7275   -0.4836   -1.4176 C   0  0  0  0  0  0  0  0  0  0  0  0
   -5.1491    0.1109   -0.1287 C   0  0  0  0  0  0  0  0  0  0  0  0
   -5.3547   -1.8625   -1.6244 O   0  0  0  0  0  0  0  0  0  0  0  0
   -3.7029    0.0474   -0.2398 N   0  0  0  0  0  0  0  0  0  0  0  0
   -2.3899    2.7223    0.4570 C   0  0  0  0  0  0  0  0  0  0  0  0
   -3.1104    0.9330   -1.2654 C   0  0  0  0  0  0  0  0  0  0  0  0
  1  2  2  0
  1  5  1  0
  3  7  1  0
  3  4  1  0
  4  6  2  0
  5  3  2  0
  6  2  1  0
  8  2  1  0
  9  8  1  0
 10  9  1  0
 11 10  1  0
 12 11  1  0
 13 21  1  0
 14 19  1  0
 14 15  1  0
 15 18  1  0
 16 17  1  0
 17 19  1  0
 18 16  1  0
 20  7  1  0
 20 13  1  0
 21 19  1  0
M  END
>  <DRUGBANK_ID>  (1) 
DB09345

>  <COMMON_NAME>  (1) 
Pramocaine

>  <CAS_NUMBER>  (1) 
140-65-8

>  <UNII>  (1) 
068X84E056

>  <SYNONYMS>  (1) 
Pramoca√≠na; Pramocaine; Pramoxine

$$$$
