
     RDKit          3D

 29 32  0  0  0  0  0  0  0  0999 V2000
    0.8172    0.0316    0.1253 C   0  0  0  0  0  0  0  0  0  0  0  0
    0.3901    1.1946   -0.7606 C   0  0  0  0  0  0  0  0  0  0  0  0
    0.8700    1.1145   -2.1050 O   0  0  0  0  0  0  0  0  0  0  0  0
    2.2916    1.0463   -2.2033 C   0  0  0  0  0  0  0  0  0  0  0  0
    2.7881   -0.3869   -2.2428 C   0  0  0  0  0  0  0  0  0  0  0  0
    1.9187   -1.5130   -2.3097 C   0  0  0  0  0  0  0  0  0  0  0  0
    2.3701   -2.8504   -2.2140 C   0  0  0  0  0  0  0  0  0  0  0  0
    1.4173   -3.9141   -2.2989 N   0  0  0  0  0  0  0  0  0  0  0  0
    1.6515   -5.2265   -2.0285 C   0  0  0  0  0  0  0  0  0  0  0  0
    2.2705   -5.7714   -0.9938 N   0  0  0  0  0  0  0  0  0  0  0  0
    2.6457   -7.0191   -1.4334 C   0  0  0  0  0  0  0  0  0  0  0  0
    2.1384   -7.2582   -2.6893 C   0  0  0  0  0  0  0  0  0  0  0  0
    1.4784   -6.1142   -3.0837 O   0  0  0  0  0  0  0  0  0  0  0  0
    2.1094   -8.4507   -3.5267 C   0  0  0  0  0  0  0  0  0  0  0  0
    1.6038   -9.6278   -2.9537 C   0  0  0  0  0  0  0  0  0  0  0  0
    1.5033  -10.8145   -3.6877 C   0  0  0  0  0  0  0  0  0  0  0  0
    1.9650  -10.8662   -5.0026 C   0  0  0  0  0  0  0  0  0  0  0  0
    2.4921   -9.7091   -5.5825 C   0  0  0  0  0  0  0  0  0  0  0  0
    2.5846   -8.5102   -4.8433 C   0  0  0  0  0  0  0  0  0  0  0  0
    1.9505  -12.0886   -5.6903 N   0  0  0  0  0  0  0  0  0  0  0  0
    3.1174  -12.7185   -6.2686 C   0  0  0  0  0  0  0  0  0  0  0  0
    2.6897  -14.1833   -6.3362 C   0  0  0  0  0  0  0  0  0  0  0  0
    1.2622  -14.0816   -6.4676 N   0  0  0  0  0  0  0  0  0  0  0  0
    0.8191  -12.8814   -5.9163 C   0  0  0  0  0  0  0  0  0  0  0  0
   -0.3595  -12.6076   -5.7196 O   0  0  0  0  0  0  0  0  0  0  0  0
    3.7690   -3.0168   -2.1883 C   0  0  0  0  0  0  0  0  0  0  0  0
    4.4771   -4.3305   -2.2654 C   0  0  0  0  0  0  0  0  0  0  0  0
    4.6361   -1.9024   -2.1306 C   0  0  0  0  0  0  0  0  0  0  0  0
    4.1587   -0.6028   -2.1519 C   0  0  0  0  0  0  0  0  0  0  0  0
  1  2  1  0
  2  3  1  0
  3  4  1  0
  4  5  1  0
  5  6  2  0
  5 29  1  0
  6  7  1  0
  7  8  1  0
  7 26  2  0
  8  9  1  0
  9 10  2  0
  9 13  1  0
 10 11  1  0
 11 12  2  0
 12 13  1  0
 12 14  1  0
 14 15  2  0
 14 19  1  0
 15 16  1  0
 16 17  2  0
 17 18  1  0
 17 20  1  0
 18 19  2  0
 20 21  1  0
 20 24  1  0
 21 22  1  0
 22 23  1  0
 23 24  1  0
 24 25  2  0
 26 27  1  0
 26 28  1  0
 28 29  2  0
M  END
>  <DRUGBANK_ID>  (1) 
DB17115

>  <COMMON_NAME>  (1) 
AB-8939

>  <CAS_NUMBER>  (1) 
1974336-09-8

>  <UNII>  (1) 
REU6L9A46J

>  <SYNONYMS>  (1) 
1-(4-(2-(5-ethoxymethyl-2-methyl-phenylamino)-oxazol-5-yl)-phenyl)-imidazolidin-2-one; 2-imidazolidinone, 1-(4-(2-((5-(ethoxymethyl)-2-methylphenyl)amino)-5-oxazolyl)phenyl)-

$$$$
