MDW
     RDKit          3D

 28 30  0  0  0  0  0  0  0  0999 V2000
    1.2827    1.3794    0.1063 C   0  0  0  0  0  0  0  0  0  0  0  0
    2.4682    0.6615    0.0430 C   0  0  0  0  0  0  0  0  0  0  0  0
    3.6308    1.3836    0.0581 O   0  0  0  0  0  0  0  0  0  0  0  0
    2.4560   -0.7345   -0.0243 C   0  0  0  0  0  0  0  0  0  0  0  0
    3.6826   -1.3523   -0.0624 O   0  0  0  0  0  0  0  0  0  0  0  0
    3.6572   -2.7789   -0.1285 C   0  0  0  0  0  0  0  0  0  0  0  0
    1.2177   -1.3968   -0.0626 C   0  0  0  0  0  0  0  0  0  0  0  0
   -0.0026   -0.6890   -0.0343 C   0  0  0  0  0  0  0  0  0  0  0  0
   -1.3474   -1.4361   -0.2147 C   0  0  2  0  0  0  0  0  0  0  0  0
   -1.4883   -1.9643   -1.6824 C   0  0  0  0  0  0  0  0  0  0  0  0
   -0.7410   -2.8775   -2.0665 O   0  0  0  0  0  0  0  0  0  0  0  0
   -2.3492   -1.4732   -2.6171 N   0  0  0  0  0  0  0  0  0  0  0  0
   -3.2951   -0.4469   -2.5467 O   0  0  0  0  0  0  0  0  0  0  0  0
    0.0501    0.7094    0.0927 C   0  0  0  0  0  0  0  0  0  0  0  0
   -1.2035    1.5147    0.2366 C   0  0  0  0  0  0  0  0  0  0  0  0
   -2.4182    0.7522   -0.2613 C   0  0  0  0  0  0  0  0  0  0  0  0
   -2.5385   -0.6466    0.2794 N   0  0  0  0  0  0  0  0  0  0  0  0
   -3.9860   -1.6359    0.3403 S   0  0  0  0  0  0  0  0  0  0  0  0
   -4.3447   -2.0924   -0.9971 O   0  0  0  0  0  0  0  0  0  0  0  0
   -3.7959   -2.6200    1.3666 O   0  0  0  0  0  0  0  0  0  0  0  0
   -5.3381   -0.5822    0.7780 C   0  0  0  0  0  0  0  0  0  0  0  0
   -5.5838    0.6586    0.1806 C   0  0  0  0  0  0  0  0  0  0  0  0
   -6.5319    1.5155    0.7420 C   0  0  0  0  0  0  0  0  0  0  0  0
   -7.3821    1.0445    1.7396 C   0  0  0  0  0  0  0  0  0  0  0  0
   -8.2675    1.9506    2.2541 O   0  0  0  0  0  0  0  0  0  0  0  0
   -9.0993    1.4528    3.2997 C   0  0  0  0  0  0  0  0  0  0  0  0
   -7.2934   -0.2903    2.1348 C   0  0  0  0  0  0  0  0  0  0  0  0
   -6.2386   -1.0838    1.7066 C   0  0  0  0  0  0  0  0  0  0  0  0
  1  2  2  0
  1 14  1  0
  2  3  1  0
  2  4  1  0
  4  5  1  0
  4  7  2  0
  5  6  1  0
  7  8  1  0
  8  9  1  0
  8 14  2  0
  9 17  1  0
  9 10  1  6
 10 11  2  0
 10 12  1  0
 12 13  1  0
 14 15  1  0
 15 16  1  0
 16 17  1  0
 17 18  1  0
 18 19  2  0
 18 20  2  0
 18 21  1  0
 21 22  2  0
 21 28  1  0
 22 23  1  0
 23 24  2  0
 24 25  1  0
 24 27  1  0
 25 26  1  0
 27 28  2  0
M  END
>  <DRUGBANK_ID>  (1) 
DB08170

>  <COMMON_NAME>  (1) 
(1R)-N,6-DIHYDROXY-7-METHOXY-2-[(4-METHOXYPHENYL)SULFONYL]-1,2,3,4-TETRAHYDROISOQUINOLINE-1-CARBOXAMIDE

$$$$
