
     RDKit          3D

 22 23  0  0  0  0  0  0  0  0999 V2000
   -0.8899   -0.8956    0.2122 C   0  0  0  0  0  0  0  0  0  0  0  0
   -0.4788   -0.2559    1.9657 C   0  0  0  0  0  0  0  0  0  0  0  0
    0.5731    1.2196    2.5443 C   0  0  0  0  0  0  0  0  0  0  0  0
   -0.0554    2.1739    2.8415 O   0  0  0  0  0  0  0  0  0  0  0  0
    2.4871    1.4091    2.4061 C   0  0  0  0  0  0  0  0  0  0  0  0
    3.2944    2.1749    1.1722 C   0  0  0  0  0  0  0  0  0  0  0  0
    3.7268    1.2632    0.0059 C   0  0  0  0  0  0  0  0  0  0  0  0
    4.0783   -0.1582    0.0898 N   0  0  0  0  0  0  0  0  0  0  0  0
    3.7187   -0.6875    1.4122 C   0  0  0  0  0  0  0  0  0  0  0  0
    3.3741    0.1411    2.6579 C   0  0  0  0  0  0  0  0  0  0  0  0
    3.5285   -1.0250   -1.1060 C   0  0  0  0  0  0  0  0  0  0  0  0
    2.0602   -1.3895   -1.7076 C   0  0  0  0  0  0  0  0  0  0  0  0
    1.1388   -0.3718   -2.1606 O   0  0  0  0  0  0  0  0  0  0  0  0
    1.1803    0.7898   -1.3800 C   0  0  0  0  0  0  0  0  0  0  0  0
    0.9059    0.5689    0.1111 C   0  0  0  0  0  0  0  0  0  0  0  0
    1.1966   -0.7634    0.8757 O   0  0  0  0  0  0  0  0  0  0  0  0
    2.7515    2.4790    3.4968 C   0  0  0  0  0  0  0  0  0  0  0  0
    2.2852    3.8030    3.3446 C   0  0  0  0  0  0  0  0  0  0  0  0
    2.3367    4.6796    4.4153 C   0  0  0  0  0  0  0  0  0  0  0  0
    2.8683    4.2401    5.6250 C   0  0  0  0  0  0  0  0  0  0  0  0
    3.3859    2.9561    5.7553 C   0  0  0  0  0  0  0  0  0  0  0  0
    3.4055    2.1121    4.6702 C   0  0  0  0  0  0  0  0  0  0  0  0
  1  2  1  0
  2  3  1  0
  3  4  2  0
  3  5  1  0
  5  6  1  0
  5 10  1  0
  5 17  1  0
  6  7  1  0
  7  8  1  0
  8  9  1  0
  8 11  1  0
  9 10  1  0
 11 12  1  0
 12 13  1  0
 13 14  1  0
 14 15  1  0
 15 16  1  0
 17 18  2  0
 17 22  1  0
 18 19  1  0
 19 20  2  0
 20 21  1  0
 21 22  2  0
M  END
>  <DRUGBANK_ID>  (1) 
DB13436

>  <COMMON_NAME>  (1) 
Droxypropine

>  <CAS_NUMBER>  (1) 
15599-26-5

>  <UNII>  (1) 
94J1SMK20X

>  <SYNONYMS>  (1) 
Droxypropine

$$$$
