
     RDKit          3D

 37 41  0  0  1  0  0  0  0  0999 V2000
    1.0230   -0.5625    0.2921 C   0  0  0  0  0  0  0  0  0  0  0  0
    1.7161   -1.6834    1.0679 C   0  0  0  0  0  0  0  0  0  0  0  0
    1.2254   -1.9269    2.5234 C   0  0  0  0  0  0  0  0  0  0  0  0
    0.9078   -0.8073    3.2371 C   0  0  0  0  0  0  0  0  0  0  0  0
    1.2089    0.4435    2.5038 C   0  0  1  0  0  0  0  0  0  0  0  0
    0.4215    0.2234    1.1919 C   0  0  0  0  0  0  0  0  0  0  0  0
    0.3675   -0.6070    4.6197 C   0  0  2  0  0  0  0  0  0  0  0  0
    0.6922    0.8402    5.2775 C   0  0  0  0  0  0  0  0  0  0  0  0
    0.1545    2.1199    4.3696 C   0  0  2  0  0  0  0  0  0  0  0  0
    0.9847    1.8477    3.0688 C   0  0  2  0  0  0  0  0  0  0  0  0
    0.3015    4.0325    4.7300 C   0  0  1  0  0  0  0  0  0  0  0  0
    0.9864    4.3433    3.6052 C   0  0  2  0  0  0  0  0  0  0  0  0
    1.5485    4.0583    2.2437 C   0  0  0  0  0  0  0  0  0  0  0  0
    0.9678    2.7502    1.7883 C   0  0  2  0  0  0  0  0  0  0  0  0
   -0.1158    5.8407    3.8630 C   0  0  0  0  0  0  0  0  0  0  0  0
    1.1220    6.6879    3.6218 C   0  0  2  0  0  0  0  0  0  0  0  0
    1.4549    5.6376    4.5470 C   0  0  1  0  0  0  0  0  0  0  0  0
    2.7648   -2.1407    0.6269 O   0  0  0  0  0  0  0  0  0  0  0  0
    2.8031    0.4622    2.4308 C   0  0  0  0  0  0  0  0  0  0  0  0
    2.2036    2.2100    3.6866 F   0  0  0  0  0  0  0  0  0  0  0  0
   -0.2442    2.8757    1.0109 O   0  0  0  0  0  0  0  0  0  0  0  0
   -0.6647    3.9541    3.1798 C   0  0  0  0  0  0  0  0  0  0  0  0
    0.3061    5.9464    5.8892 O   0  0  0  0  0  0  0  0  0  0  0  0
    1.2026    8.1089    4.1294 C   0  0  0  0  0  0  0  0  0  0  0  0
    0.8288   -1.6072    5.4195 F   0  0  0  0  0  0  0  0  0  0  0  0
    2.9169    5.4864    4.9365 C   0  0  0  0  0  0  0  0  0  0  0  0
    3.5993    4.5327    4.5762 O   0  0  0  0  0  0  0  0  0  0  0  0
    3.5844    6.8313    5.8166 S   0  0  0  0  0  0  0  0  0  0  0  0
    5.3070    6.4710    5.5695 C   0  0  0  0  0  0  0  0  0  0  0  0
    5.6284    5.4008    6.3337 F   0  0  0  0  0  0  0  0  0  0  0  0
   -1.2705    5.8900    6.1009 C   0  0  0  0  0  0  0  0  0  0  0  0
   -2.4463    5.6352    4.9545 C   0  0  0  0  0  0  0  0  0  0  0  0
   -1.6153    6.1190    7.2597 O   0  0  0  0  0  0  0  0  0  0  0  0
   -3.0601    4.5296    4.2708 C   0  0  0  0  0  0  0  0  0  0  0  0
   -3.2440    4.9836    2.9068 C   0  0  0  0  0  0  0  0  0  0  0  0
   -3.5798    6.2852    3.1025 C   0  0  0  0  0  0  0  0  0  0  0  0
   -3.0300    6.7373    4.2827 O   0  0  0  0  0  0  0  0  0  0  0  0
  1  2  1  0
  1  6  2  0
  2  3  1  0
  2 18  2  0
  3  4  2  0
  4  5  1  0
  4  7  1  0
  5  6  1  0
  5 10  1  0
  5 19  1  6
  7  8  1  0
  7 25  1  1
  9  8  1  1
  9 10  1  0
  9 11  1  0
 10 14  1  0
 10 20  1  1
 11 12  1  0
 11 15  1  6
 12 13  1  0
 12 17  1  0
 12 22  1  6
 13 14  1  0
 14 21  1  1
 15 16  1  0
 16 17  1  0
 16 24  1  1
 17 23  1  1
 17 26  1  0
 26 27  2  0
 26 28  1  0
 28 29  1  0
 29 30  1  0
 31 32  1  0
 31 23  1  0
 31 33  2  0
 32 34  2  0
 32 37  1  0
 34 35  1  0
 35 36  2  0
 36 37  1  0
M  END
>  <DRUGBANK_ID>  (1) 
DB08906

>  <COMMON_NAME>  (1) 
Fluticasone furoate

>  <CAS_NUMBER>  (1) 
397864-44-7

>  <UNII>  (1) 
JS86977WNV

>  <SYNONYMS>  (1) 
Fluticasone furoate; Fluticasonum furoas; Furoate de fluticasone; Furoato de fluticasona

$$$$
