
     RDKit          3D

 10  9  0  0  1  0  0  0  0  0999 V2000
    1.0224    0.1350   -0.1451 N   0  0  0  0  0  0  0  0  0  0  0  0
    0.5081   -1.2182   -0.3717 C   0  0  1  0  0  0  0  0  0  0  0  0
    1.0167   -2.1466    0.7612 C   0  0  0  0  0  0  0  0  0  0  0  0
    0.6007   -1.7638    2.1980 C   0  0  0  0  0  0  0  0  0  0  0  0
   -0.9076   -1.8135    2.4359 C   0  0  0  0  0  0  0  0  0  0  0  0
   -1.5321   -3.1299    1.9928 C   0  0  0  0  0  0  0  0  0  0  0  0
   -1.0558   -4.1549    2.9535 N   0  0  0  0  0  0  0  0  0  0  0  0
   -1.0371   -1.1481   -0.6069 C   0  0  0  0  0  0  0  0  0  0  0  0
   -1.5911   -1.9582   -1.5467 N   0  0  0  0  0  0  0  0  0  0  0  0
   -1.8271   -0.4495    0.0337 O   0  0  0  0  0  0  0  0  0  0  0  0
  2  1  1  1
  2  3  1  0
  2  8  1  0
  3  4  1  0
  4  5  1  0
  5  6  1  0
  6  7  1  0
  8  9  1  0
  8 10  2  0
M  CHG  1   7   1
M  END
>  <DRUGBANK_ID>  (1) 
DB03988

>  <SECONDARY_ACCESSION_NUMBERS>  (1) 
EXPT02078

>  <COMMON_NAME>  (1) 
2,6-Diamino-Hexanoic Acid Amide

$$$$
