382
     RDKit          3D

 32 36  0  0  0  0  0  0  0  0999 V2000
   -0.7624    1.2910    0.1503 C   0  0  0  0  0  0  0  0  0  0  0  0
    0.6495    1.2308   -0.4186 C   0  0  0  0  0  0  0  0  0  0  0  0
    1.3346    0.0434    0.0445 N   0  0  0  0  0  0  0  0  0  0  0  0
    0.6600   -1.2176   -0.2739 C   0  0  2  0  0  0  0  0  0  0  0  0
   -0.8091   -1.2079    0.1817 C   0  0  0  0  0  0  0  0  0  0  0  0
   -1.5488    0.0505   -0.2496 C   0  0  0  0  0  0  0  0  0  0  0  0
    1.4008   -2.4229    0.3510 C   0  0  0  0  0  0  0  0  0  0  0  0
    0.8325   -3.5707   -0.1242 F   0  0  0  0  0  0  0  0  0  0  0  0
    2.6851   -2.4349   -0.1243 F   0  0  0  0  0  0  0  0  0  0  0  0
    1.4279   -2.4667    1.9036 C   0  0  0  0  0  0  0  0  0  0  0  0
    2.1732   -1.3677    2.5541 N   0  0  0  0  0  0  0  0  0  0  0  0
    1.4266   -0.3772    3.2162 C   0  0  0  0  0  0  0  0  0  0  0  0
    1.6605    1.0077    3.0122 C   0  0  0  0  0  0  0  0  0  0  0  0
    0.9856    1.9459    3.7812 C   0  0  0  0  0  0  0  0  0  0  0  0
    0.1241    1.6267    4.8011 C   0  0  0  0  0  0  0  0  0  0  0  0
   -0.0735    0.2579    4.9243 C   0  0  0  0  0  0  0  0  0  0  0  0
    0.5070   -0.7146    4.1616 N   0  0  0  0  0  0  0  0  0  0  0  0
    2.4748    1.6571    2.1282 N   0  0  0  0  0  0  0  0  0  0  0  0
    2.2264    2.9419    2.3285 C   0  0  0  0  0  0  0  0  0  0  0  0
    1.3423    3.1961    3.3410 O   0  0  0  0  0  0  0  0  0  0  0  0
    2.8301    4.0820    1.5775 C   0  0  0  0  0  0  0  0  0  0  0  0
    4.3445    3.9857    1.6151 C   0  0  0  0  0  0  0  0  0  0  0  0
    4.9501    2.8139    1.1087 C   0  0  0  0  0  0  0  0  0  0  0  0
    6.3009    2.5513    1.3116 C   0  0  0  0  0  0  0  0  0  0  0  0
    7.1116    3.5298    1.8693 C   0  0  0  0  0  0  0  0  0  0  0  0
    6.5736    4.7730    2.2053 C   0  0  0  0  0  0  0  0  0  0  0  0
    5.1850    4.9757    2.1403 C   0  0  0  0  0  0  0  0  0  0  0  0
    4.6718    6.1886    2.6325 N   0  0  0  0  0  0  0  0  0  0  0  0
    3.6923    6.2579    3.5628 N   0  0  0  0  0  0  0  0  0  0  0  0
    3.5811    7.5746    3.7444 C   0  0  0  0  0  0  0  0  0  0  0  0
    4.3778    8.3456    2.9472 N   0  0  0  0  0  0  0  0  0  0  0  0
    5.0503    7.4516    2.2655 C   0  0  0  0  0  0  0  0  0  0  0  0
  1  2  1  0
  1  6  1  0
  2  3  1  0
  3  4  1  0
  4  5  1  0
  4  7  1  1
  5  6  1  0
  7  8  1  0
  7  9  1  0
  7 10  1  0
 10 11  1  0
 11 12  1  0
 12 13  2  0
 12 17  1  0
 13 14  1  0
 13 18  1  0
 14 15  2  0
 14 20  1  0
 15 16  1  0
 16 17  2  0
 18 19  2  0
 19 20  1  0
 19 21  1  0
 21 22  1  0
 22 23  2  0
 22 27  1  0
 23 24  1  0
 24 25  2  0
 25 26  1  0
 26 27  2  0
 27 28  1  0
 28 29  1  0
 28 32  1  0
 29 30  2  0
 30 31  1  0
 31 32  2  0
M  END
>  <DRUGBANK_ID>  (1) 
DB04591

>  <COMMON_NAME>  (1) 
N-{2,2-DIFLUORO-2-[(2R)-PIPERIDIN-2-YL]ETHYL}-2-[2-(1H-1,2,4-TRIAZOL-1-YL)BENZYL][1,3]OXAZOLO[4,5-C]PYRIDIN-4-AMINE

$$$$
