
     RDKit          3D

 16 16  0  0  0  0  0  0  0  0999 V2000
    1.2294   -0.2196   -0.0187 C   0  0  0  0  0  0  0  0  0  0  0  0
    1.0142   -1.0738    1.2517 C   0  0  0  0  0  0  0  0  0  0  0  0
    1.3958   -0.3169    2.4807 C   0  0  0  0  0  0  0  0  0  0  0  0
    0.7231    1.0167    2.3010 C   0  0  0  0  0  0  0  0  0  0  0  0
   -0.6972    0.8297    2.1255 O   0  0  0  0  0  0  0  0  0  0  0  0
   -1.5171    0.5810    1.1479 C   0  0  0  0  0  0  0  0  0  0  0  0
   -1.7999   -0.6271    0.3114 C   0  0  0  0  0  0  0  0  0  0  0  0
   -1.4279   -1.7762    0.0996 O   0  0  0  0  0  0  0  0  0  0  0  0
   -2.9905    0.0074   -0.1704 C   0  0  0  0  0  0  0  0  0  0  0  0
   -3.8475   -0.4313   -0.9282 O   0  0  0  0  0  0  0  0  0  0  0  0
   -2.7469    1.1249    0.7633 C   0  0  0  0  0  0  0  0  0  0  0  0
   -3.5655    2.0844    1.0434 O   0  0  0  0  0  0  0  0  0  0  0  0
   -3.3587    3.1256    1.9818 C   0  0  0  0  0  0  0  0  0  0  0  0
   -3.4995    2.7113    3.4593 C   0  0  0  0  0  0  0  0  0  0  0  0
   -2.4165    1.7702    3.8614 C   0  0  0  0  0  0  0  0  0  0  0  0
   -1.1139    2.5450    3.7413 C   0  0  0  0  0  0  0  0  0  0  0  0
  1  2  1  0
  2  3  1  0
  3  4  1  0
  4  5  1  0
  5  6  1  0
  6  7  1  0
  6 11  2  0
  7  8  2  0
  7  9  1  0
  9 10  2  0
  9 11  1  0
 11 12  1  0
 12 13  1  0
 13 14  1  0
 14 15  1  0
 15 16  1  0
M  END
>  <DRUGBANK_ID>  (1) 
DB12223

>  <COMMON_NAME>  (1) 
Squaric acid dibutyl ester

>  <CAS_NUMBER>  (1) 
2892-62-8

>  <UNII>  (1) 
4RTO57VG65

>  <SYNONYMS>  (1) 
Squaric acid dibutyl ester; Squaric acid dibutylester

$$$$
