PVC
     RDKit          3D

 30 29  0  0  0  0  0  0  0  0999 V2000
    2.4171    5.4028   -0.7993 C   0  0  0  0  0  0  0  0  0  0  0  0
    3.0909    4.5695   -1.3856 O   0  0  0  0  0  0  0  0  0  0  0  0
    1.8920    6.5072   -1.6674 C   0  0  0  0  0  0  0  0  0  0  0  0
    0.4119    6.8150   -1.5059 C   0  0  0  0  0  0  0  0  0  0  0  0
    0.1002    7.2513   -0.0812 C   0  0  0  0  0  0  0  0  0  0  0  0
    1.1040    8.3309    0.3448 C   0  0  0  0  0  0  0  0  0  0  0  0
    0.9425    9.5499   -0.5686 C   0  0  0  0  0  0  0  0  0  0  0  0
   -0.4866   10.0779   -0.4396 C   0  0  0  0  0  0  0  0  0  0  0  0
   -0.7530   10.4483    1.0220 C   0  0  0  0  0  0  0  0  0  0  0  0
    0.2422   11.5278    1.4570 C   0  0  0  0  0  0  0  0  0  0  0  0
    0.0723   12.7606    0.5646 C   0  0  0  0  0  0  0  0  0  0  0  0
   -1.3582   13.2916    0.6949 C   0  0  0  0  0  0  0  0  0  0  0  0
   -1.6350   13.6713    2.1524 C   0  0  0  0  0  0  0  0  0  0  0  0
   -0.6531   14.7571    2.6063 C   0  0  0  0  0  0  0  0  0  0  0  0
    1.9446    4.2398    1.4188 C   0  0  0  0  0  0  0  0  0  0  0  0
    1.0512    3.0422    1.0328 C   0  0  1  0  0  0  0  0  0  0  0  0
    1.3309    2.4343   -0.3442 C   0  0  2  0  0  0  0  0  0  0  0  0
    2.8328    2.1348   -0.5654 C   0  0  0  0  0  0  0  0  0  0  0  0
    3.3883    1.1589   -1.2796 C   0  0  0  0  0  0  0  0  0  0  0  0
    2.6366    0.1115   -2.0070 C   0  0  0  0  0  0  0  0  0  0  0  0
    4.7929    1.0931   -1.2634 O   0  0  0  0  0  0  0  0  0  0  0  0
    3.7577    2.8929    0.1795 O   0  0  0  0  0  0  0  0  0  0  0  0
    0.6639    3.1534   -1.3871 O   0  0  0  0  0  0  0  0  0  0  0  0
    1.1876    1.9844    2.0085 O   0  0  0  0  0  0  0  0  0  0  0  0
    1.9579    5.3670    0.4785 O   0  0  0  0  0  0  0  0  0  0  0  0
    3.1768   -0.8175   -2.5503 O   0  0  0  0  0  0  0  0  0  0  0  0
    1.3048    0.2658   -1.9603 O   0  0  0  0  0  0  0  0  0  0  0  0
   -0.8124   16.0200    1.7525 C   0  0  0  0  0  0  0  0  0  0  0  0
   -2.2350   16.5733    1.8440 C   0  0  0  0  0  0  0  0  0  0  0  0
   -2.5694   16.9340    3.2822 C   0  0  0  0  0  0  0  0  0  0  0  0
  1  2  2  0
  1  3  1  0
  1 25  1  0
  3  4  1  0
  4  5  1  0
  5  6  1  0
  6  7  1  0
  7  8  1  0
  8  9  1  0
  9 10  1  0
 10 11  1  0
 11 12  1  0
 12 13  1  0
 13 14  1  0
 14 28  1  0
 15 16  1  0
 15 25  1  0
 16 24  1  1
 17 23  1  6
 17 18  1  0
 17 16  1  0
 18 19  2  0
 18 22  1  0
 19 20  1  0
 19 21  1  0
 20 26  2  0
 20 27  1  0
 28 29  1  0
 29 30  1  0
M  END
>  <DRUGBANK_ID>  (1) 
DB08438

>  <COMMON_NAME>  (1) 
(2E,4R,5S)-2,3,4,5-TETRAHYDROXY-6-(PALMITOYLOXY)HEX-2-ENOIC ACID

$$$$
