
     RDKit          3D

 23 23  0  0  0  0  0  0  0  0999 V2000
   -1.4422    0.3347   -0.2281 C   0  0  0  0  0  0  0  0  0  0  0  0
   -1.0213   -1.0626    0.2138 C   0  0  0  0  0  0  0  0  0  0  0  0
    0.3898   -1.3787   -0.2786 C   0  0  0  0  0  0  0  0  0  0  0  0
    1.4387   -0.3568    0.2367 C   0  0  0  0  0  0  0  0  0  0  0  0
    0.9813    1.0635   -0.2084 C   0  0  0  0  0  0  0  0  0  0  0  0
   -0.4469    1.4010    0.2228 C   0  0  0  0  0  0  0  0  0  0  0  0
    1.5529   -0.4039    1.7942 C   0  0  0  0  0  0  0  0  0  0  0  0
    2.8458   -0.6591   -0.3532 C   0  0  0  0  0  0  0  0  0  0  0  0
    2.8939   -0.6124   -1.8002 N   0  0  0  0  0  0  0  0  0  0  0  0
    3.6041    0.3375   -2.4852 C   0  0  0  0  0  0  0  0  0  0  0  0
    3.4672    0.3635   -3.8360 O   0  0  0  0  0  0  0  0  0  0  0  0
    4.3358    1.1541   -1.9322 O   0  0  0  0  0  0  0  0  0  0  0  0
    2.6581   -0.5460   -4.5970 C   0  0  0  0  0  0  0  0  0  0  0  0
    3.0176   -1.9156   -4.3797 O   0  0  0  0  0  0  0  0  0  0  0  0
    1.1778   -0.2940   -4.3135 C   0  0  0  0  0  0  0  0  0  0  0  0
    4.2622   -2.3891   -4.6593 C   0  0  0  0  0  0  0  0  0  0  0  0
    5.2961   -1.4783   -5.3196 C   0  0  0  0  0  0  0  0  0  0  0  0
    4.5350   -3.5557   -4.3801 O   0  0  0  0  0  0  0  0  0  0  0  0
    6.5163   -1.3308   -4.4123 C   0  0  0  0  0  0  0  0  0  0  0  0
    5.7128   -2.0617   -6.6670 C   0  0  0  0  0  0  0  0  0  0  0  0
    1.9329   -1.7705    2.3362 C   0  0  0  0  0  0  0  0  0  0  0  0
    3.0931   -1.8020    3.0202 O   0  0  0  0  0  0  0  0  0  0  0  0
    1.2612   -2.7787    2.1809 O   0  0  0  0  0  0  0  0  0  0  0  0
  1  2  1  0
  2  3  1  0
  3  4  1  0
  4  5  1  0
  4  7  1  0
  4  8  1  0
  5  6  1  0
  6  1  1  0
  7 21  1  0
  8  9  1  0
  9 10  1  0
 10 11  1  0
 10 12  2  0
 11 13  1  0
 13 14  1  0
 13 15  1  0
 14 16  1  0
 16 17  1  0
 16 18  2  0
 17 19  1  0
 17 20  1  0
 21 22  1  0
 21 23  2  0
M  END
>  <DRUGBANK_ID>  (1) 
DB08872

>  <SECONDARY_ACCESSION_NUMBERS>  (1) 
DB04922

>  <COMMON_NAME>  (1) 
Gabapentin enacarbil

>  <CAS_NUMBER>  (1) 
478296-72-9

>  <UNII>  (1) 
75OCL1SPBQ

>  <SYNONYMS>  (1) 
Gabapentin enacarbil; Gabapentina enacarbilo; Gabapentine enacarbil; Gabapentinum enacarbilum

$$$$
