
     RDKit          3D

 27 28  0  0  1  0  0  0  0  0999 V2000
    1.0612   -0.0304   -0.0625 C   0  0  0  0  0  0  0  0  0  0  0  0
    0.6025    0.1407    1.3602 C   0  0  0  0  0  0  0  0  0  0  0  0
    1.1517    1.4344    1.9014 C   0  0  0  0  0  0  0  0  0  0  0  0
    0.5928    2.7250    1.3244 C   0  0  0  0  0  0  0  0  0  0  0  0
   -0.9527    2.7488    1.0292 C   0  0  0  0  0  0  0  0  0  0  0  0
   -1.8130    3.0040    2.2375 C   0  0  0  0  0  0  0  0  0  0  0  0
   -1.7152    4.4927    2.5345 C   0  0  0  0  0  0  0  0  0  0  0  0
    1.2266    3.9077    2.1424 C   0  0  0  0  0  0  0  0  0  0  0  0
    1.7398    4.8401    1.5016 O   0  0  0  0  0  0  0  0  0  0  0  0
    1.0526    4.0740    3.5739 N   0  0  0  0  0  0  0  0  0  0  0  0
    0.2481    3.3778    4.5283 C   0  0  0  0  0  0  0  0  0  0  0  0
   -0.9211    4.0529    5.1899 C   0  0  0  0  0  0  0  0  0  0  0  0
   -1.9818    3.2298    5.3518 C   0  0  0  0  0  0  0  0  0  0  0  0
   -1.8224    1.8553    5.3513 N   0  0  0  0  0  0  0  0  0  0  0  0
   -0.5599    1.3197    5.1336 C   0  0  0  0  0  0  0  0  0  0  0  0
   -0.3521    0.1022    5.2247 O   0  0  0  0  0  0  0  0  0  0  0  0
    0.4444    2.1195    4.6840 N   0  0  0  0  0  0  0  0  0  0  0  0
   -2.9023    0.9621    5.8005 C   0  0  1  0  0  0  0  0  0  0  0  0
   -3.2187   -0.2861    4.9461 C   0  0  0  0  0  0  0  0  0  0  0  0
   -2.5887   -1.4454    5.6988 C   0  0  1  0  0  0  0  0  0  0  0  0
   -2.6068   -0.9347    7.1382 C   0  0  2  0  0  0  0  0  0  0  0  0
   -2.5414    0.5037    7.1210 O   0  0  0  0  0  0  0  0  0  0  0  0
   -1.4694   -1.5460    7.9715 C   0  0  0  0  0  0  0  0  0  0  0  0
   -0.3272   -0.7003    8.0663 O   0  0  0  0  0  0  0  0  0  0  0  0
   -3.2575   -2.7075    5.5792 O   0  0  0  0  0  0  0  0  0  0  0  0
   -4.5710   -0.4753    4.8954 F   0  0  0  0  0  0  0  0  0  0  0  0
   -2.7972   -0.1833    3.6704 F   0  0  0  0  0  0  0  0  0  0  0  0
  1  2  1  0
  2  3  1  0
  3  4  1  0
  4  5  1  0
  4  8  1  0
  5  6  1  0
  6  7  1  0
  8  9  2  0
  8 10  1  0
 10 11  1  0
 11 12  1  0
 11 17  2  0
 12 13  2  0
 13 14  1  0
 14 15  1  0
 15 16  2  0
 15 17  1  0
 18 14  1  6
 18 19  1  0
 18 22  1  0
 19 20  1  0
 19 26  1  0
 19 27  1  0
 20 21  1  0
 20 25  1  1
 21 22  1  0
 21 23  1  1
 23 24  1  0
M  END
>  <DRUGBANK_ID>  (1) 
DB12906

>  <COMMON_NAME>  (1) 
LY-2334737

>  <CAS_NUMBER>  (1) 
892128-60-8

>  <UNII>  (1) 
YLR364XYSA

$$$$
