FMD
     RDKit          3D

 28 30  0  0  0  0  0  0  0  0999 V2000
    0.3006   12.1804    5.0948 F   0  0  0  0  0  0  0  0  0  0  0  0
   -0.0464   11.1287    5.8513 C   0  0  0  0  0  0  0  0  0  0  0  0
   -0.0112    9.8589    5.3063 C   0  0  0  0  0  0  0  0  0  0  0  0
    0.3241    9.6998    3.9286 C   0  0  0  0  0  0  0  0  0  0  0  0
    0.5998    9.4325    2.7809 C   0  0  0  0  0  0  0  0  0  0  0  0
    1.0164    9.0181    1.4401 C   0  0  1  0  0  0  0  0  0  0  0  0
    2.4358    8.9058    1.4991 O   0  0  0  0  0  0  0  0  0  0  0  0
    0.4306    7.6549    0.9407 C   0  0  1  0  0  0  0  0  0  0  0  0
   -1.0497    7.6121    1.0004 N   0  0  0  0  0  0  0  0  0  0  0  0
    0.9053    7.2832   -0.5176 C   0  0  2  0  0  0  0  0  0  0  0  0
    1.6033    6.0290   -0.5361 O   0  0  0  0  0  0  0  0  0  0  0  0
    1.8069    8.3166   -1.1880 C   0  0  0  0  0  0  0  0  0  0  0  0
   -0.3118    8.7932    6.1543 C   0  0  0  0  0  0  0  0  0  0  0  0
   -0.7352    8.9822    7.4783 C   0  0  0  0  0  0  0  0  0  0  0  0
   -1.0334    7.7457    8.0763 N   0  0  0  0  0  0  0  0  0  0  0  0
   -0.7805    6.6852    7.2077 C   0  0  0  0  0  0  0  0  0  0  0  0
   -0.9766    5.5038    7.4119 O   0  0  0  0  0  0  0  0  0  0  0  0
   -0.7970   10.2560    8.0144 C   0  0  0  0  0  0  0  0  0  0  0  0
   -0.4186   11.3313    7.1861 C   0  0  0  0  0  0  0  0  0  0  0  0
   -0.3168    7.3501    5.9392 C   0  0  0  0  0  0  0  0  0  0  0  0
   -0.0914    6.8220    4.7369 C   0  0  0  0  0  0  0  0  0  0  0  0
   -0.3705    5.5121    4.3768 C   0  0  0  0  0  0  0  0  0  0  0  0
   -1.5167    4.7553    4.3205 C   0  0  0  0  0  0  0  0  0  0  0  0
   -2.8021    5.0771    4.6334 O   0  0  0  0  0  0  0  0  0  0  0  0
   -3.0918    6.4223    4.9950 C   0  0  0  0  0  0  0  0  0  0  0  0
   -1.1084    3.4762    3.8688 C   0  0  0  0  0  0  0  0  0  0  0  0
    0.2410    3.5225    3.5812 C   0  0  0  0  0  0  0  0  0  0  0  0
    0.6770    4.7861    3.8632 N   0  0  0  0  0  0  0  0  0  0  0  0
  1  2  1  0
  2  3  2  0
  2 19  1  0
  3  4  1  0
  3 13  1  0
  4  5  3  0
  5  6  1  0
  6  7  1  1
  6  8  1  0
  8  9  1  6
 10 12  1  1
 10 11  1  0
 10  8  1  0
 13 14  2  0
 13 20  1  0
 14 15  1  0
 14 18  1  0
 15 16  1  0
 16 17  2  0
 16 20  1  0
 18 19  2  0
 20 21  2  0
 21 22  1  0
 22 23  2  0
 22 28  1  0
 23 24  1  0
 23 26  1  0
 24 25  1  0
 26 27  2  0
 27 28  1  0
M  END
>  <DRUGBANK_ID>  (1) 
DB03737

>  <SECONDARY_ACCESSION_NUMBERS>  (1) 
EXPT01454

>  <COMMON_NAME>  (1) 
4-((3r,4s,5r)-4-Amino-3,5-Dihydroxy-Hex-1-Ynyl)-5-Fluoro-3-[1-(3-Methoxy-1h-Pyrrol-2-Yl)-Meth-(Z)-Ylidene]-1,3-Dihydro-Indol-2-One

$$$$
