
     RDKit          3D

 13 13  0  0  0  0  0  0  0  0999 V2000
    1.0901   -0.0388   -0.0018 S   0  0  0  0  0  0  0  0  0  0  0  0
    0.5432    1.2391    1.1042 C   0  0  0  0  0  0  0  0  0  0  0  0
    0.9013    2.5572    0.7956 C   0  0  0  0  0  0  0  0  0  0  0  0
    0.5858    3.5880    1.6820 C   0  0  0  0  0  0  0  0  0  0  0  0
    0.3997    0.1629   -1.2533 O   0  0  0  0  0  0  0  0  0  0  0  0
    0.5104   -1.4111    0.6220 O   0  0  0  0  0  0  0  0  0  0  0  0
   -0.0917    3.2754    2.8671 C   0  0  0  0  0  0  0  0  0  0  0  0
    2.5351   -0.0810    0.0877 O   0  0  0  0  0  0  0  0  0  0  0  0
   -0.1676    0.9395    2.2691 C   0  0  0  0  0  0  0  0  0  0  0  0
   -0.4797    1.9698    3.1575 C   0  0  0  0  0  0  0  0  0  0  0  0
    0.9004    4.9109    1.5037 O   0  0  0  0  0  0  0  0  0  0  0  0
   -0.3864    4.2423    3.7901 O   0  0  0  0  0  0  0  0  0  0  0  0
    1.5678    5.2301    0.2843 C   0  0  0  0  0  0  0  0  0  0  0  0
  2  1  1  0
  3  2  2  0
  4  3  1  0
  5  1  2  0
  6  1  1  0
  7 10  1  0
  7  4  2  0
  8  1  2  0
  9  2  1  0
 10  9  2  0
 11  4  1  0
 12  7  1  0
 13 11  1  0
M  END
>  <DRUGBANK_ID>  (1) 
DB15992

>  <COMMON_NAME>  (1) 
Sulfogaiacol

>  <CAS_NUMBER>  (1) 
7134-11-4

>  <UNII>  (1) 
6L00O0WHZR

>  <SYNONYMS>  (1) 
4-Guaiacolsulfonic acid; Sulfogaiacol

$$$$
