
     RDKit          3D

 33 36  0  0  0  0  0  0  0  0999 V2000
    0.4766   -1.5865    0.1236 C   0  0  0  0  0  0  0  0  0  0  0  0
    1.7138   -1.0450    0.2610 C   0  0  0  0  0  0  0  0  0  0  0  0
    1.6505    0.4344   -0.0815 C   0  0  1  0  0  0  0  0  0  0  0  0
   -0.3877   -0.7159   -0.5369 N   0  0  0  0  0  0  0  0  0  0  0  0
    0.3702    0.4990   -0.9188 C   0  0  1  0  0  0  0  0  0  0  0  0
   -0.8816    1.3262   -0.5307 C   0  0  2  0  0  0  0  0  0  0  0  0
   -1.4364   -0.0088    0.0026 C   0  0  0  0  0  0  0  0  0  0  0  0
   -1.6021    2.0598   -1.6500 C   0  0  2  0  0  0  0  0  0  0  0  0
   -1.8103    1.1966   -2.7608 O   0  0  0  0  0  0  0  0  0  0  0  0
   -0.7181    3.2203   -2.1145 C   0  0  0  0  0  0  0  0  0  0  0  0
   -2.3488   -0.2930    0.7355 O   0  0  0  0  0  0  0  0  0  0  0  0
    0.0233   -2.9759    0.4757 C   0  0  0  0  0  0  0  0  0  0  0  0
   -1.1045   -3.4189    0.3403 O   0  0  0  0  0  0  0  0  0  0  0  0
    0.9902   -3.7654    0.9864 O   0  0  0  0  0  0  0  0  0  0  0  0
    1.5292    1.3803    1.1107 C   0  0  0  0  0  0  0  0  0  0  0  0
    3.1304   -1.9398    0.7109 S   0  0  0  0  0  0  0  0  0  0  0  0
    4.6159   -0.9610    0.4846 C   0  0  2  0  0  0  0  0  0  0  0  0
    4.7572    0.1375    1.5051 C   0  0  0  0  0  0  0  0  0  0  0  0
    5.6345    1.1179    0.9013 N   0  0  0  0  0  0  0  0  0  0  0  0
    5.4717    1.0186   -0.5749 C   0  0  1  0  0  0  0  0  0  0  0  0
    4.7622   -0.2966   -0.8710 C   0  0  0  0  0  0  0  0  0  0  0  0
    4.7803    2.2937   -1.1478 C   0  0  0  0  0  0  0  0  0  0  0  0
    3.8853    2.2376   -1.9962 O   0  0  0  0  0  0  0  0  0  0  0  0
    5.1666    3.5396   -0.7034 N   0  0  0  0  0  0  0  0  0  0  0  0
    6.2887    3.8750    0.0702 C   0  0  0  0  0  0  0  0  0  0  0  0
    7.4984    3.1969   -0.0907 C   0  0  0  0  0  0  0  0  0  0  0  0
    8.6157    3.5222    0.6557 C   0  0  0  0  0  0  0  0  0  0  0  0
    8.5603    4.6188    1.4995 C   0  0  0  0  0  0  0  0  0  0  0  0
    7.3827    5.3811    1.6091 C   0  0  0  0  0  0  0  0  0  0  0  0
    6.2190    4.9565    0.9497 C   0  0  0  0  0  0  0  0  0  0  0  0
    7.5071    6.6781    2.3330 C   0  0  0  0  0  0  0  0  0  0  0  0
    6.4050    7.4497    2.3922 O   0  0  0  0  0  0  0  0  0  0  0  0
    8.5767    7.0564    2.7857 O   0  0  0  0  0  0  0  0  0  0  0  0
  2  1  2  0
  3  2  1  0
  3 15  1  1
  4  1  1  0
  5  3  1  0
  5  4  1  1
  6  5  1  0
  6  8  1  0
  7  4  1  0
  6  7  1  6
  8 10  1  6
  8  9  1  0
 11  7  2  0
 12  1  1  0
 13 12  2  0
 14 12  1  0
 16  2  1  0
 17 16  1  6
 18 17  1  0
 19 18  1  0
 20 19  1  0
 20 22  1  1
 21 17  1  0
 21 20  1  0
 23 22  2  0
 24 22  1  0
 25 24  1  0
 26 25  2  0
 27 26  1  0
 28 27  2  0
 29 28  1  0
 30 25  1  0
 30 29  2  0
 31 29  1  0
 32 31  1  0
 33 31  2  0
M  END
>  <DRUGBANK_ID>  (1) 
DB00303

>  <SECONDARY_ACCESSION_NUMBERS>  (1) 
APRD00952

>  <COMMON_NAME>  (1) 
Ertapenem

>  <CAS_NUMBER>  (1) 
153832-46-3

>  <UNII>  (1) 
G32F6EID2H

>  <SYNONYMS>  (1) 
(1R,5S,6S,8R,2'S,4'S)-2-(2-(3-carboxyphenylcarbamoyl)pyrrolidin-4-ylthio)-6-(1-hydroxyethyl)-1-methylcarbapenem-3-carboxylic acid; (4R,5S,6S)-3-((3S,5S)-5-((3-carboxyphenyl)carbamoyl)pyrrolidin-3-ylthio)-6-((R)-1-hydroxyethyl)-4-methyl-7-oxo-1-aza-bicyclo[3.2.0]hept-2-ene-2-carboxylic acid; Ertapenem

$$$$
