
     RDKit          3D

 19 19  0  0  0  0  0  0  0  0999 V2000
    1.1191   -0.2158   -0.1687 C   0  0  0  0  0  0  0  0  0  0  0  0
   -0.9690    0.5492   -1.3302 C   0  0  0  0  0  0  0  0  0  0  0  0
    0.1205    6.8734    6.1144 C   0  0  0  0  0  0  0  0  0  0  0  0
   -0.4242    6.6372    1.1384 C   0  0  0  0  0  0  0  0  0  0  0  0
    1.3599    4.6044    1.6799 C   0  0  0  0  0  0  0  0  0  0  0  0
   -0.1723    3.0432    2.5654 C   0  0  0  0  0  0  0  0  0  0  0  0
    1.1430    4.1623    0.3446 C   0  0  0  0  0  0  0  0  0  0  0  0
   -0.0516    2.3647    1.3132 C   0  0  0  0  0  0  0  0  0  0  0  0
    0.3937    4.3000    2.7261 C   0  0  0  0  0  0  0  0  0  0  0  0
    0.5576    2.9496    0.1797 C   0  0  0  0  0  0  0  0  0  0  0  0
    0.4973    0.6104   -1.2205 N   0  0  0  0  0  0  0  0  0  0  0  0
    2.5593    2.1117   -1.2627 O   0  0  0  0  0  0  0  0  0  0  0  0
    0.4563    2.8434   -2.4453 O   0  0  0  0  0  0  0  0  0  0  0  0
    0.7397    6.8618    4.8034 O   0  0  0  0  0  0  0  0  0  0  0  0
    0.1233    7.3449    2.1724 O   0  0  0  0  0  0  0  0  0  0  0  0
   -0.4986    5.2713    3.6134 O   0  0  0  0  0  0  0  0  0  0  0  0
   -0.4219    6.9993    3.6426 P   0  0  0  0  0  0  0  0  0  0  0  0
   -0.3378    8.8946    3.6746 S   0  0  0  0  0  0  0  0  0  0  0  0
    1.0906    2.1776   -1.3527 S   0  0  0  0  0  0  0  0  0  0  0  0
  7  5  2  0
  8  6  1  0
  9  5  1  0
  9  6  2  0
 10  7  1  0
 10  8  2  0
 11  1  1  0
 11  2  1  0
 14  3  1  0
 15  4  1  0
 16  9  1  0
 17 14  1  0
 17 15  1  0
 17 16  1  0
 18 17  2  0
 19 10  1  0
 19 11  1  0
 19 12  2  0
 19 13  2  0
M  END
>  <DRUGBANK_ID>  (1) 
DB11408

>  <COMMON_NAME>  (1) 
Famphur

>  <CAS_NUMBER>  (1) 
52-85-7

>  <UNII>  (1) 
02UOP4Z0O0

>  <SYNONYMS>  (1) 
Famophos; O-[4-(dimethylsulfamoyl)phenyl] O,O-dimethyl thiophosphate; Phosphorothioic acid, O-(4-((dimethylamino)sulfonyl)phenyl) O,O-dimethyl ester

$$$$
