LN1
     RDKit          3D

 34 36  0  0  0  0  0  0  0  0999 V2000
    3.9361   -3.5513    2.4140 O   0  0  0  0  0  0  0  0  0  0  0  0
    4.5158   -4.2098    1.5506 C   0  0  0  0  0  0  0  0  0  0  0  0
    4.0777   -4.2793    0.1806 C   0  0  0  0  0  0  0  0  0  0  0  0
    3.9445   -5.4531   -0.6507 C   0  0  0  0  0  0  0  0  0  0  0  0
    3.4574   -5.1345   -1.8928 C   0  0  0  0  0  0  0  0  0  0  0  0
    3.1594   -5.8536   -3.1511 C   0  0  0  0  0  0  0  0  0  0  0  0
    2.5240   -5.2768   -4.1951 C   0  0  0  0  0  0  0  0  0  0  0  0
    1.9726   -3.9947   -4.0083 C   0  0  0  0  0  0  0  0  0  0  0  0
    2.3890   -3.3804   -2.8977 C   0  0  0  0  0  0  0  0  0  0  0  0
    3.1563   -3.7823   -1.8098 N   0  0  0  0  0  0  0  0  0  0  0  0
    3.8544   -3.1397   -0.5723 C   0  0  0  0  0  0  0  0  0  0  0  0
    4.2937   -1.7826   -0.2189 N   0  0  0  0  0  0  0  0  0  0  0  0
    4.6783   -1.0275    1.0339 C   0  0  1  0  0  0  0  0  0  0  0  0
    5.9692   -0.1321    0.7872 C   0  0  0  0  0  0  0  0  0  0  0  0
    6.6809   -0.4544   -0.3167 O   0  0  0  0  0  0  0  0  0  0  0  0
    6.3795    0.7420    1.5474 O   0  0  0  0  0  0  0  0  0  0  0  0
    3.5034   -0.1448    1.6181 C   0  0  2  0  0  0  0  0  0  0  0  0
    3.4697    1.6253    0.9743 S   0  0  0  0  0  0  0  0  0  0  0  0
    1.9244    1.8779    1.3582 O   0  0  0  0  0  0  0  0  0  0  0  0
    3.6466    1.5840   -0.5077 O   0  0  0  0  0  0  0  0  0  0  0  0
    3.8655    0.1771    3.1015 C   0  0  0  0  0  0  0  0  0  0  0  0
    2.0997   -0.8692    1.5233 C   0  0  0  0  0  0  0  0  0  0  0  0
    1.5302   -1.2537    0.1749 O   0  0  0  0  0  0  0  0  0  0  0  0
    1.1861   -0.3035   -0.7651 C   0  0  0  0  0  0  0  0  0  0  0  0
    1.1335    0.8548   -0.5415 O   0  0  0  0  0  0  0  0  0  0  0  0
    0.9149   -0.6795   -2.2266 C   0  0  0  0  0  0  0  0  0  0  0  0
    2.2030   -0.5067   -3.1917 C   0  0  0  0  0  0  0  0  0  0  0  0
    3.4687   -0.7599   -2.6089 C   0  0  0  0  0  0  0  0  0  0  0  0
    2.2200   -0.7844   -4.5602 C   0  0  0  0  0  0  0  0  0  0  0  0
    3.3957   -1.4188   -5.1996 C   0  0  0  0  0  0  0  0  0  0  0  0
    4.5586   -1.8137   -4.5004 C   0  0  0  0  0  0  0  0  0  0  0  0
    5.3587   -2.8771   -4.8742 O   0  0  0  0  0  0  0  0  0  0  0  0
    4.6552   -1.4173   -3.1932 C   0  0  0  0  0  0  0  0  0  0  0  0
    5.6005   -2.0937   -2.4086 O   0  0  0  0  0  0  0  0  0  0  0  0
  1  2  2  0
  3  2  1  0
  3  4  1  0
  5  4  2  0
  5  6  1  0
  7  6  2  0
  8  7  1  0
  9  8  2  0
  9 10  1  0
 10  5  1  0
 11  3  2  0
 11 10  1  0
 12 11  1  0
 13 14  1  0
 13 12  1  6
 14 15  1  0
 16 14  2  0
 17 13  1  0
 17 21  1  1
 17 22  1  0
 18 20  2  0
 18 19  1  0
 18 17  1  0
 22 23  1  0
 24 23  1  0
 25 24  2  0
 26 24  1  0
 27 26  1  0
 27 29  1  0
 28 27  2  0
 30 29  2  0
 31 30  1  0
 32 31  1  0
 33 28  1  0
 33 31  2  0
 34 33  1  0
M  END
>  <DRUGBANK_ID>  (1) 
DB08116

>  <COMMON_NAME>  (1) 
(3R)-4-{[(3,4-dihydroxyphenyl)acetyl]oxy}-N-(2-formylindolizin-3-yl)-3-sulfino-D-valine

$$$$
