
     RDKit          3D

 37 41  0  0  1  0  0  0  0  0999 V2000
  -14.1692    7.4320    4.0528 N   0  0  0  0  0  0  0  0  0  0  0  0
  -12.8934    7.0083    3.7144 C   0  0  0  0  0  0  0  0  0  0  0  0
  -12.6552    6.0253    2.7367 C   0  0  0  0  0  0  0  0  0  0  0  0
  -13.5040    5.2916    1.9329 N   0  0  0  0  0  0  0  0  0  0  0  0
  -12.7087    4.5944    1.1514 C   0  0  0  0  0  0  0  0  0  0  0  0
  -11.3851    4.8342    1.4156 N   0  0  0  0  0  0  0  0  0  0  0  0
  -10.2792    4.2667    0.6741 C   0  0  2  0  0  0  0  0  0  0  0  0
   -9.4753    3.4849    1.5507 O   0  0  0  0  0  0  0  0  0  0  0  0
   -8.0672    3.7222    1.3149 C   0  0  2  0  0  0  0  0  0  0  0  0
   -7.4381    4.3698    2.5625 C   0  0  0  0  0  0  0  0  0  0  0  0
   -7.4201    3.4526    3.6680 O   0  0  0  0  0  0  0  0  0  0  0  0
   -9.0321    2.9693    4.0693 P   0  0  1  0  0  0  0  0  0  0  0  0
   -8.9257    1.6353    3.1700 O   0  0  0  0  0  0  0  0  0  0  0  0
   -8.9157    3.6963    5.3701 O   0  0  0  0  0  0  0  0  0  0  0  0
  -10.6440    2.4861    4.4706 O   0  0  0  0  0  0  0  0  0  0  0  0
  -10.6604    1.7744    5.6946 C   0  0  0  0  0  0  0  0  0  0  0  0
   -9.6713    0.6149    5.6144 C   0  0  0  0  0  0  0  0  0  0  0  0
   -8.1128    0.9528    5.4990 C   0  0  0  0  0  0  0  0  0  0  0  0
   -7.5866    1.8095    6.6123 C   0  0  0  0  0  0  0  0  0  0  0  0
   -7.6904    1.0420    7.8640 C   0  0  0  0  0  0  0  0  0  0  0  0
   -7.0120   -0.3049    7.6758 C   0  0  2  0  0  0  0  0  0  0  0  0
   -7.9208   -1.6358    6.7381 S   0  0  0  0  0  0  0  0  0  0  0  0
   -6.8096   -2.8683    7.2855 C   0  0  0  0  0  0  0  0  0  0  0  0
   -6.7208   -2.5026    8.7668 C   0  0  2  0  0  0  0  0  0  0  0  0
   -7.8505   -3.0154    9.5213 N   0  0  0  0  0  0  0  0  0  0  0  0
   -8.6454   -2.0170   10.0640 C   0  0  0  0  0  0  0  0  0  0  0  0
   -9.6927   -2.1567   10.6217 O   0  0  0  0  0  0  0  0  0  0  0  0
   -7.9969   -0.8195    9.8547 N   0  0  0  0  0  0  0  0  0  0  0  0
   -6.8308   -0.9746    9.0059 C   0  0  2  0  0  0  0  0  0  0  0  0
   -7.9986    4.5802    0.0588 C   0  0  1  0  0  0  0  0  0  0  0  0
   -7.8412    3.7545   -1.1072 O   0  0  0  0  0  0  0  0  0  0  0  0
   -9.3556    5.2774    0.0119 C   0  0  1  0  0  0  0  0  0  0  0  0
   -9.7830    5.5812   -1.3132 O   0  0  0  0  0  0  0  0  0  0  0  0
  -11.3305    5.7449    2.4363 C   0  0  0  0  0  0  0  0  0  0  0  0
  -10.2403    6.2876    3.0028 N   0  0  0  0  0  0  0  0  0  0  0  0
  -10.5891    7.1948    3.9418 C   0  0  0  0  0  0  0  0  0  0  0  0
  -11.8277    7.6018    4.3015 N   0  0  0  0  0  0  0  0  0  0  0  0
  1  2  1  0
  2  3  2  0
  2 37  1  0
  3  4  1  0
  3 34  1  0
  4  5  2  0
  5  6  1  0
  6 34  1  0
  7  6  1  1
  7  8  1  0
  7 32  1  0
  8  9  1  0
  9 30  1  0
  9 10  1  1
 10 11  1  0
 12 11  1  0
 12 13  1  0
 12 14  2  0
 12 15  1  0
 15 16  1  0
 16 17  1  0
 17 18  1  0
 18 19  1  0
 19 20  1  0
 21 22  1  0
 21 29  1  0
 21 20  1  1
 22 23  1  0
 24 23  1  6
 24 25  1  0
 24 29  1  0
 25 26  1  0
 26 27  2  0
 26 28  1  0
 29 28  1  1
 30 31  1  6
 30 32  1  0
 32 33  1  6
 34 35  2  0
 35 36  1  0
 36 37  2  0
M  END
>  <DRUGBANK_ID>  (1) 
DB04651

>  <COMMON_NAME>  (1) 
BIOTINOL-5-AMP

$$$$
