
     RDKit          3D

 30 33  0  0  1  0  0  0  0  0999 V2000
    1.2534    0.1440    0.3130 C   0  0  0  0  0  0  0  0  0  0  0  0
    0.5759    1.4292    0.2898 N   0  0  0  0  0  0  0  0  0  0  0  0
   -0.2685    2.0848   -0.5624 C   0  0  0  0  0  0  0  0  0  0  0  0
   -0.6664    3.1859   -0.1893 O   0  0  0  0  0  0  0  0  0  0  0  0
   -0.7064    1.5412   -1.9478 C   0  0  2  0  0  0  0  0  0  0  0  0
   -0.3396    0.0966   -2.2351 C   0  0  2  0  0  0  0  0  0  0  0  0
    1.0225    0.2705   -2.9022 C   0  0  2  0  0  0  0  0  0  0  0  0
    0.8076    1.5467   -3.7178 C   0  0  1  0  0  0  0  0  0  0  0  0
   -0.1293    2.3456   -3.0002 O   0  0  0  0  0  0  0  0  0  0  0  0
    2.0654    2.2276   -3.9655 N   0  0  0  0  0  0  0  0  0  0  0  0
    3.0451    1.5706   -4.6689 C   0  0  0  0  0  0  0  0  0  0  0  0
    4.1603    2.2352   -4.6827 N   0  0  0  0  0  0  0  0  0  0  0  0
    3.9045    3.3916   -3.9919 C   0  0  0  0  0  0  0  0  0  0  0  0
    2.5885    3.4268   -3.5454 C   0  0  0  0  0  0  0  0  0  0  0  0
    2.0271    4.4304   -2.8485 N   0  0  0  0  0  0  0  0  0  0  0  0
    2.9205    5.4279   -2.6407 C   0  0  0  0  0  0  0  0  0  0  0  0
    4.2245    5.5072   -2.9933 N   0  0  0  0  0  0  0  0  0  0  0  0
    4.7566    4.4679   -3.6786 C   0  0  0  0  0  0  0  0  0  0  0  0
    6.0943    4.5149   -4.0059 N   0  0  0  0  0  0  0  0  0  0  0  0
    6.7842    3.4844   -4.7620 C   0  0  0  0  0  0  0  0  0  0  0  0
    7.2335    3.9526   -6.1256 C   0  0  0  0  0  0  0  0  0  0  0  0
    7.5100    5.2977   -6.3950 C   0  0  0  0  0  0  0  0  0  0  0  0
    7.9584    5.6929   -7.6529 C   0  0  0  0  0  0  0  0  0  0  0  0
    8.1492    4.7472   -8.6585 C   0  0  0  0  0  0  0  0  0  0  0  0
    7.8849    3.4037   -8.4039 C   0  0  0  0  0  0  0  0  0  0  0  0
    7.4302    3.0027   -7.1475 C   0  0  0  0  0  0  0  0  0  0  0  0
    8.1783    1.9940   -9.9037 I   0  0  0  0  0  0  0  0  0  0  0  0
    2.3250    6.7979   -1.7965 Cl  0  0  0  0  0  0  0  0  0  0  0  0
    1.4204   -0.8613   -3.6678 O   0  0  0  0  0  0  0  0  0  0  0  0
   -1.2221   -0.6149   -3.1139 O   0  0  0  0  0  0  0  0  0  0  0  0
  1  2  1  0
  2  3  1  0
  3  4  2  0
  5  3  1  1
  5  6  1  0
  5  9  1  0
  6  7  1  0
  6 30  1  6
  7  8  1  0
  7 29  1  6
  8  9  1  0
  8 10  1  1
 10 11  1  0
 10 14  1  0
 11 12  2  0
 12 13  1  0
 13 14  2  0
 13 18  1  0
 14 15  1  0
 15 16  2  0
 16 17  1  0
 16 28  1  0
 17 18  2  0
 18 19  1  0
 19 20  1  0
 20 21  1  0
 21 22  2  0
 21 26  1  0
 22 23  1  0
 23 24  2  0
 24 25  1  0
 25 26  2  0
 25 27  1  0
M  END
>  <DRUGBANK_ID>  (1) 
DB12885

>  <COMMON_NAME>  (1) 
Namodenoson

>  <CAS_NUMBER>  (1) 
163042-96-4

>  <UNII>  (1) 
Z07JR07J6C

>  <SYNONYMS>  (1) 
2-Chloro-N(6)-(3-iodobenzyl)adenosine-5'-N-methyluronamide

$$$$
