
     RDKit          3D

 39 44  0  0  1  0  0  0  0  0999 V2000
   -0.8416    1.2984    5.6933 C   0  0  0  0  0  0  0  0  0  0  0  0
   -0.4113    1.5364    4.2437 C   0  0  1  0  0  0  0  0  0  0  0  0
   -1.1673    2.6175    3.5137 C   0  0  1  0  0  0  0  0  0  0  0  0
   -0.5907    2.9180    2.1164 C   0  0  2  0  0  0  0  0  0  0  0  0
    0.9053    2.9863    2.0336 C   0  0  1  0  0  0  0  0  0  0  0  0
    1.3791    1.6202    2.6068 C   0  0  1  0  0  0  0  0  0  0  0  0
    0.9758    1.4594    3.9894 O   0  0  0  0  0  0  0  0  0  0  0  0
    1.0905    0.5297    1.5851 O   0  0  0  0  0  0  0  0  0  0  0  0
   -0.1773   -0.1294    1.6890 C   0  0  1  0  0  0  0  0  0  0  0  0
   -1.4682    0.5303    1.0299 C   0  0  0  0  0  0  0  0  0  0  0  0
   -2.7820    0.1504    1.6396 C   0  0  0  0  0  0  0  0  0  0  0  0
   -2.5338   -0.9814    2.6448 C   0  0  2  0  0  0  0  0  0  0  0  0
   -1.8671   -2.0125    1.6828 C   0  0  1  0  0  0  0  0  0  0  0  0
   -0.4270   -1.5592    1.1692 C   0  0  0  0  0  0  0  0  0  0  0  0
   -1.9105   -3.4183    2.2186 C   0  0  0  0  0  0  0  0  0  0  0  0
   -3.3480   -3.6195    2.6464 C   0  0  0  0  0  0  0  0  0  0  0  0
   -3.7856   -2.6116    3.7557 C   0  0  1  0  0  0  0  0  0  0  0  0
   -3.8748   -1.1767    3.3398 C   0  0  1  0  0  0  0  0  0  0  0  0
   -4.3319   -0.1139    4.4888 C   0  0  0  0  0  0  0  0  0  0  0  0
   -5.7690   -0.3091    4.8536 C   0  0  0  0  0  0  0  0  0  0  0  0
   -5.9251   -1.6717    5.4298 C   0  0  1  0  0  0  0  0  0  0  0  0
   -5.0904   -2.9657    4.3339 C   0  0  1  0  0  0  0  0  0  0  0  0
   -6.1159   -3.4515    3.4627 C   0  0  0  0  0  0  0  0  0  0  0  0
   -6.6278   -3.3706    5.0012 C   0  0  0  0  0  0  0  0  0  0  0  0
   -5.3021   -2.5963    6.3124 C   0  0  2  0  0  0  0  0  0  0  0  0
   -4.7340   -2.0596    7.8727 C   0  0  0  0  0  0  0  0  0  0  0  0
   -4.0576   -2.8974    8.6989 C   0  0  0  0  0  0  0  0  0  0  0  0
   -3.4254   -2.2184    9.8451 C   0  0  0  0  0  0  0  0  0  0  0  0
   -2.8685   -2.7809   10.8238 O   0  0  0  0  0  0  0  0  0  0  0  0
   -3.5468   -0.9005    9.6879 O   0  0  0  0  0  0  0  0  0  0  0  0
   -4.2040   -0.6533    8.4097 C   0  0  0  0  0  0  0  0  0  0  0  0
   -4.6266   -4.3050    4.9982 O   0  0  0  0  0  0  0  0  0  0  0  0
   -7.2924   -1.7609    6.4782 C   0  0  0  0  0  0  0  0  0  0  0  0
   -1.6818   -1.1264    3.9754 C   0  0  0  0  0  0  0  0  0  0  0  0
   -0.6427   -1.7590    4.1419 O   0  0  0  0  0  0  0  0  0  0  0  0
    1.3313    3.0453    0.6532 O   0  0  0  0  0  0  0  0  0  0  0  0
   -1.4411    3.7148    1.3110 O   0  0  0  0  0  0  0  0  0  0  0  0
   -1.6761    4.9170    1.9734 C   0  0  0  0  0  0  0  0  0  0  0  0
   -2.5524    2.2980    3.4738 O   0  0  0  0  0  0  0  0  0  0  0  0
  2  1  1  1
  2  3  1  0
  2  7  1  0
  3  4  1  0
  3 39  1  6
  4  5  1  0
  4 37  1  1
  5  6  1  0
  5 36  1  6
  6  7  1  0
  6  8  1  6
  9 10  1  0
  9 14  1  0
  9  8  1  6
 10 11  1  0
 11 12  1  0
 12 13  1  0
 12 18  1  0
 12 34  1  1
 13 14  1  1
 13 15  1  0
 15 16  1  0
 17 16  1  6
 17 18  1  0
 17 22  1  0
 18 19  1  1
 19 20  1  0
 20 21  1  0
 21 22  1  0
 21 25  1  0
 21 33  1  1
 22 23  1  0
 22 32  1  1
 23 24  1  0
 24 25  1  0
 25 26  1  1
 26 27  2  0
 26 31  1  0
 27 28  1  0
 28 29  2  0
 28 30  1  0
 30 31  1  0
 34 35  2  0
 37 38  1  0
M  END
>  <DRUGBANK_ID>  (1) 
DB13756

>  <COMMON_NAME>  (1) 
Peruvoside

>  <CAS_NUMBER>  (1) 
1182-87-2

>  <UNII>  (1) 
CT36KGC6A6

$$$$
