330
     RDKit          3D

 31 35  0  0  0  0  0  0  0  0999 V2000
    1.3040   -2.3583    0.1806 C   0  0  0  0  0  0  0  0  0  0  0  0
    2.5583   -1.7135    0.0905 C   0  0  0  0  0  0  0  0  0  0  0  0
    2.5219   -0.3262    0.0478 C   0  0  0  0  0  0  0  0  0  0  0  0
    1.3347    0.4409    0.0561 C   0  0  0  0  0  0  0  0  0  0  0  0
    1.7097    1.8201    0.0144 C   0  0  0  0  0  0  0  0  0  0  0  0
    3.6283    0.5945   -0.0211 C   0  0  0  0  0  0  0  0  0  0  0  0
    3.8230   -2.4648    0.0384 C   0  0  0  0  0  0  0  0  0  0  0  0
    4.1537   -3.3314   -1.0345 C   0  0  0  0  0  0  0  0  0  0  0  0
    5.3274   -4.0974   -0.9748 C   0  0  0  0  0  0  0  0  0  0  0  0
    6.0999   -4.1209    0.1853 C   0  0  0  0  0  0  0  0  0  0  0  0
    5.7872   -3.2767    1.2415 C   0  0  0  0  0  0  0  0  0  0  0  0
    4.6981   -2.4118    1.1395 C   0  0  0  0  0  0  0  0  0  0  0  0
    0.1116   -0.2932    0.0628 C   0  0  0  0  0  0  0  0  0  0  0  0
    0.0731   -1.6623    0.0906 C   0  0  0  0  0  0  0  0  0  0  0  0
   -1.1262    0.3137    0.0246 C   0  0  0  0  0  0  0  0  0  0  0  0
   -2.0601   -0.7461   -0.0136 C   0  0  0  0  0  0  0  0  0  0  0  0
   -1.5723    1.6424    0.0249 C   0  0  0  0  0  0  0  0  0  0  0  0
   -3.4513   -0.4118   -0.0368 C   0  0  0  0  0  0  0  0  0  0  0  0
   -2.9088    1.9641    0.0172 C   0  0  0  0  0  0  0  0  0  0  0  0
   -3.8504    0.9571   -0.0134 C   0  0  0  0  0  0  0  0  0  0  0  0
   -1.9186   -3.3222   -0.1034 C   0  0  0  0  0  0  0  0  0  0  0  0
   -1.5752   -4.2154   -1.3270 C   0  0  0  0  0  0  0  0  0  0  0  0
   -0.1069   -4.5636   -1.4272 C   0  0  0  0  0  0  0  0  0  0  0  0
    1.1658    2.8893    0.2927 O   0  0  0  0  0  0  0  0  0  0  0  0
    3.0253    1.7788   -0.3262 N   0  0  0  0  0  0  0  0  0  0  0  0
    4.8262    0.5058    0.2084 O   0  0  0  0  0  0  0  0  0  0  0  0
   -3.1854    3.2982    0.0438 O   0  0  0  0  0  0  0  0  0  0  0  0
    3.2721   -3.3839   -2.0907 O   0  0  0  0  0  0  0  0  0  0  0  0
    3.5626   -4.3129   -3.1323 C   0  0  0  0  0  0  0  0  0  0  0  0
   -1.3139   -1.9721   -0.0258 N   0  0  0  0  0  0  0  0  0  0  0  0
    0.3033   -5.3083   -0.2844 O   0  0  0  0  0  0  0  0  0  0  0  0
  1 14  2  0
  1  2  1  0
  2  3  2  0
  2  7  1  0
  3  4  1  0
  3  6  1  0
  4 13  2  0
  4  5  1  0
  5 24  2  0
  5 25  1  0
  6 25  1  0
  6 26  2  0
  7 12  1  0
  7  8  2  0
  8 28  1  0
  8  9  1  0
  9 10  2  0
 10 11  1  0
 11 12  2  0
 13 15  1  0
 13 14  1  0
 14 30  1  0
 15 16  2  0
 15 17  1  0
 16 18  1  0
 16 30  1  0
 17 19  2  0
 18 20  2  0
 19 20  1  0
 19 27  1  0
 21 22  1  0
 21 30  1  0
 22 23  1  0
 23 31  1  0
 28 29  1  0
M  END
>  <DRUGBANK_ID>  (1) 
DB07006

>  <COMMON_NAME>  (1) 
9-HYDROXY-6-(3-HYDROXYPROPYL)-4-(2-METHOXYPHENYL)PYRROLO[3,4-C]CARBAZOLE-1,3(2H,6H)-DIONE

$$$$
