
     RDKit          3D

 30 33  0  0  1  0  0  0  0  0999 V2000
   -2.2769   -8.4439    2.5004 C   0  0  0  0  0  0  0  0  0  0  0  0
   -1.5511   -7.5079    1.5714 C   0  0  0  0  0  0  0  0  0  0  0  0
   -0.9993   -6.3059    2.2046 O   0  0  0  0  0  0  0  0  0  0  0  0
   -1.7886   -5.1933    2.4989 C   0  0  0  0  0  0  0  0  0  0  0  0
   -1.4085   -3.9241    1.9673 C   0  0  0  0  0  0  0  0  0  0  0  0
   -2.0955   -2.7668    2.4405 C   0  0  0  0  0  0  0  0  0  0  0  0
   -3.1370   -2.8311    3.3545 C   0  0  0  0  0  0  0  0  0  0  0  0
   -3.9310   -1.3984    3.8786 Cl  0  0  0  0  0  0  0  0  0  0  0  0
   -3.4976   -4.0530    3.8566 C   0  0  0  0  0  0  0  0  0  0  0  0
   -4.4764   -4.1336    4.7717 F   0  0  0  0  0  0  0  0  0  0  0  0
   -2.8087   -5.2157    3.4924 C   0  0  0  0  0  0  0  0  0  0  0  0
   -3.1164   -6.4155    4.3157 C   0  0  2  0  0  0  0  0  0  0  0  0
   -4.5061   -7.0745    4.1333 C   0  0  0  0  0  0  0  0  0  0  0  0
   -4.6186   -7.8972    5.2894 N   0  0  0  0  0  0  0  0  0  0  0  0
   -3.6731   -7.5977    6.2528 C   0  0  0  0  0  0  0  0  0  0  0  0
   -3.5009   -8.2241    7.2664 O   0  0  0  0  0  0  0  0  0  0  0  0
   -2.9107   -6.3649    5.8203 C   0  0  0  0  0  0  0  0  0  0  0  0
   -0.3134   -3.7878    0.8809 C   0  0  2  0  0  0  0  0  0  0  0  0
    0.0420   -2.3375    0.4631 C   0  0  0  0  0  0  0  0  0  0  0  0
   -0.6380   -4.5763   -0.3288 N   0  0  0  0  0  0  0  0  0  0  0  0
   -1.8682   -5.1391   -0.4779 N   0  0  0  0  0  0  0  0  0  0  0  0
   -1.7940   -5.7944   -1.6361 C   0  0  0  0  0  0  0  0  0  0  0  0
   -2.9167   -6.6312   -2.1111 C   0  0  0  0  0  0  0  0  0  0  0  0
   -0.5883   -5.5342   -2.3108 C   0  0  0  0  0  0  0  0  0  0  0  0
    0.1581   -4.7574   -1.4431 C   0  0  0  0  0  0  0  0  0  0  0  0
    1.3855   -4.2609   -1.6910 N   0  0  0  0  0  0  0  0  0  0  0  0
    1.8035   -4.6007   -2.9307 C   0  0  0  0  0  0  0  0  0  0  0  0
    1.1706   -5.3524   -3.8600 N   0  0  0  0  0  0  0  0  0  0  0  0
   -0.0431   -5.8461   -3.5551 C   0  0  0  0  0  0  0  0  0  0  0  0
   -0.7090   -6.6111   -4.4832 N   0  0  0  0  0  0  0  0  0  0  0  0
  1  2  1  0
  2  3  1  0
  3  4  1  0
  4  5  2  0
  4 11  1  0
  5  6  1  0
  6  7  2  0
  7  8  1  0
  7  9  1  0
  9 10  1  0
  9 11  2  0
 12 13  1  0
 12 17  1  0
 12 11  1  1
 13 14  1  0
 14 15  1  0
 15 16  2  0
 15 17  1  0
 18 20  1  0
 18 19  1  6
 18  5  1  0
 20 21  1  0
 20 25  1  0
 21 22  2  0
 22 23  1  0
 22 24  1  0
 24 25  2  0
 24 29  1  0
 25 26  1  0
 26 27  2  0
 27 28  1  0
 28 29  2  0
 29 30  1  0
M  END
>  <DRUGBANK_ID>  (1) 
DB14867

>  <COMMON_NAME>  (1) 
Parsaclisib

>  <CAS_NUMBER>  (1) 
1426698-88-5

>  <UNII>  (1) 
OS7097575K

>  <SYNONYMS>  (1) 
INCB050465; Parsaclisib

$$$$
