Sialyllactose.mol
     RDKit          3D

 13 14  0  0  0  0  0  0  0  0999 V2000
    1.1207   -0.2877   -0.0249 N   0  0  0  0  0  0  0  0  0  0  0  0
    0.5561    0.1381    1.2610 C   0  0  0  0  0  0  0  0  0  0  0  0
    1.0070    1.5343    1.6899 C   0  0  0  0  0  0  0  0  0  0  0  0
    0.5956    2.6692    0.7959 C   0  0  0  0  0  0  0  0  0  0  0  0
   -0.0644    2.6629   -0.4172 C   0  0  0  0  0  0  0  0  0  0  0  0
   -0.0613    3.9369   -0.9245 N   0  0  0  0  0  0  0  0  0  0  0  0
    0.4765    4.8029   -0.0023 C   0  0  0  0  0  0  0  0  0  0  0  0
    0.6537    6.1898   -0.0565 C   0  0  0  0  0  0  0  0  0  0  0  0
    1.2011    6.8129    1.0730 C   0  0  0  0  0  0  0  0  0  0  0  0
    1.5679    6.0660    2.1873 C   0  0  0  0  0  0  0  0  0  0  0  0
    2.0950    6.6479    3.3038 O   0  0  0  0  0  0  0  0  0  0  0  0
    1.4196    4.6845    2.2143 C   0  0  0  0  0  0  0  0  0  0  0  0
    0.8608    4.0403    1.0963 C   0  0  0  0  0  0  0  0  0  0  0  0
  1  2  1  0
  2  3  1  0
  3  4  1  0
  4  5  2  0
  4 13  1  0
  5  6  1  0
  6  7  1  0
  7  8  1  0
  7 13  2  0
  8  9  2  0
  9 10  1  0
 10 11  1  0
 10 12  2  0
 12 13  1  0
M  END
>  <DRUGBANK_ID>  (1) 
DB08839

>  <COMMON_NAME>  (1) 
Serotonin

>  <CAS_NUMBER>  (1) 
50-67-9

>  <UNII>  (1) 
333DO1RDJY

>  <SYNONYMS>  (1) 
3-(2-Aminoethyl)-1H-indol-5-ol; 5-HT; 5-Hydroxytryptamine; Enteramine; s√©rotonine; thrombocytin; thrombotonin

$$$$
