
     RDKit          3D

 16 15  0  0  0  0  0  0  0  0999 V2000
    1.3219   -0.4622   -2.1834 C   0  0  2  0  0  0  0  0  0  0  0  0
    0.6090    0.8747   -2.5570 C   0  0  2  0  0  0  0  0  0  0  0  0
    1.1167   -0.8897   -0.7026 C   0  0  1  0  0  0  0  0  0  0  0  0
    1.4106   -2.3770   -0.4288 C   0  0  0  0  0  0  0  0  0  0  0  0
    1.4953    0.1139    0.2243 O   0  0  0  0  0  0  0  0  0  0  0  0
    0.4945   -3.2177   -0.2754 O   0  0  0  0  0  0  0  0  0  0  0  0
    2.7249   -0.3116   -2.4544 O   0  0  0  0  0  0  0  0  0  0  0  0
    1.0940    1.9676   -1.7585 O   0  0  0  0  0  0  0  0  0  0  0  0
   -0.9413    0.9069   -2.4897 C   0  0  0  0  0  0  0  0  0  0  0  0
   -1.5100    0.2288   -1.3590 O   0  0  0  0  0  0  0  0  0  0  0  0
    2.8388   -2.8079   -0.4242 C   0  0  0  0  0  0  0  0  0  0  0  0
    3.3292   -2.7469   -1.7554 O   0  0  0  0  0  0  0  0  0  0  0  0
   -1.8816   -1.3220   -1.6213 P   0  0  0  0  0  0  0  0  0  0  0  0
   -3.4473   -1.4631   -1.7348 O   0  0  0  0  0  0  0  0  0  0  0  0
   -1.0608   -2.0284   -2.6414 O   0  0  0  0  0  0  0  0  0  0  0  0
   -1.7379   -2.0222   -0.1822 O   0  0  0  0  0  0  0  0  0  0  0  0
  1  7  1  1
  1  2  1  0
  2  9  1  0
  2  8  1  1
  3  4  1  0
  3  5  1  1
  3  1  1  0
  6  4  2  0
  9 10  1  0
 10 13  1  0
 11  4  1  0
 11 12  1  0
 13 14  1  0
 13 15  2  0
 13 16  1  0
M  END
>  <DRUGBANK_ID>  (1) 
DB04493

>  <SECONDARY_ACCESSION_NUMBERS>  (1) 
EXPT01383

>  <COMMON_NAME>  (1) 
Fructose-6-phosphate

>  <CAS_NUMBER>  (1) 
643-13-0

>  <UNII>  (1) 
2012QM764Y

>  <SYNONYMS>  (1) 
D-Fructose 6-phosphate; D-Fructose 6-phosphoric acid; keto-D-fructose 6-phosphate; Neuberg ester

$$$$
