
     RDKit          3D

 42 48  0  0  0  0  0  0  0  0999 V2000
    1.6673   -1.9986   -0.0462 C   0  0  0  0  0  0  0  0  0  0  0  0
    2.7599   -1.1714    0.0275 C   0  0  0  0  0  0  0  0  0  0  0  0
    2.6371    0.2124   -0.1666 C   0  0  0  0  0  0  0  0  0  0  0  0
    1.4375    0.6654   -0.7378 C   0  0  0  0  0  0  0  0  0  0  0  0
    0.9363    1.9093   -0.9734 N   0  0  0  0  0  0  0  0  0  0  0  0
   -0.4581    1.8585   -1.1923 C   0  0  0  0  0  0  0  0  0  0  0  0
   -0.8777    0.5384   -1.1956 C   0  0  0  0  0  0  0  0  0  0  0  0
    0.4523   -1.4185   -0.2950 C   0  0  0  0  0  0  0  0  0  0  0  0
    0.3450   -0.1579   -0.8842 C   0  0  0  0  0  0  0  0  0  0  0  0
   -2.2408   -0.1986   -1.1141 C   0  0  0  0  0  0  0  0  0  0  0  0
   -0.8044   -2.1218   -0.1570 C   0  0  2  0  0  0  0  0  0  0  0  0
   -2.1029   -1.7594   -0.7320 C   0  0  2  0  0  0  0  0  0  0  0  0
   -2.1392   -3.2028   -1.6752 N   0  0  0  0  0  0  0  0  0  0  0  0
   -2.9931   -4.0430   -0.8530 C   0  0  0  0  0  0  0  0  0  0  0  0
   -2.5190   -3.9736    0.6772 C   0  0  1  0  0  0  0  0  0  0  0  0
   -1.0748   -3.3378    0.8111 C   0  0  0  0  0  0  0  0  0  0  0  0
   -3.7021   -3.2151    1.3366 C   0  0  0  0  0  0  0  0  0  0  0  0
   -3.5667   -2.4051    2.5100 N   0  0  0  0  0  0  0  0  0  0  0  0
   -0.7669   -4.0042   -1.8962 C   0  0  0  0  0  0  0  0  0  0  0  0
   -4.7500   -3.3836    0.6981 O   0  0  0  0  0  0  0  0  0  0  0  0
   -4.4621   -0.9982    3.0193 C   0  0  2  0  0  0  0  0  0  0  0  0
   -4.3336    0.9000    3.4921 C   0  0  0  0  0  0  0  0  0  0  0  0
   -3.4075   -0.3871    2.3897 O   0  0  0  0  0  0  0  0  0  0  0  0
   -2.7671    0.2134    3.5301 C   0  0  2  0  0  0  0  0  0  0  0  0
   -2.9917    1.4361    3.1789 N   0  0  0  0  0  0  0  0  0  0  0  0
   -2.3425    1.5266    1.8178 C   0  0  2  0  0  0  0  0  0  0  0  0
   -0.9878    0.1597    1.7174 C   0  0  0  0  0  0  0  0  0  0  0  0
   -1.3927   -0.2518    3.5227 C   0  0  1  0  0  0  0  0  0  0  0  0
   -0.9681   -1.1139    2.7597 N   0  0  0  0  0  0  0  0  0  0  0  0
   -0.1017   -1.7878    4.2388 C   0  0  0  0  0  0  0  0  0  0  0  0
    0.1166   -0.3170    5.0736 C   0  0  0  0  0  0  0  0  0  0  0  0
   -0.0664    0.4046    3.8641 C   0  0  0  0  0  0  0  0  0  0  0  0
   -3.1392   -0.2494    4.8947 O   0  0  0  0  0  0  0  0  0  0  0  0
   -4.7019    1.5117    4.5275 O   0  0  0  0  0  0  0  0  0  0  0  0
    0.1287    0.4635    1.3901 O   0  0  0  0  0  0  0  0  0  0  0  0
   -2.2192    3.0522    1.3056 C   0  0  0  0  0  0  0  0  0  0  0  0
   -1.0307    3.8736    1.8623 C   0  0  0  0  0  0  0  0  0  0  0  0
   -5.7646   -1.3470    2.2778 C   0  0  0  0  0  0  0  0  0  0  0  0
   -5.6671   -0.9746    0.7707 C   0  0  0  0  0  0  0  0  0  0  0  0
   -6.2325   -2.8797    2.5623 C   0  0  0  0  0  0  0  0  0  0  0  0
    0.2609    3.2341    1.5238 C   0  0  0  0  0  0  0  0  0  0  0  0
   -0.7895    5.2585    1.2587 C   0  0  0  0  0  0  0  0  0  0  0  0
  1  2  2  0
  2  3  1  0
  3  4  2  0
  4  5  1  0
  5  6  1  0
  6  7  2  0
  7 10  1  0
  7  9  1  0
  8  1  1  0
  8  9  2  0
  8 11  1  0
  9  4  1  0
 12 10  1  6
 11 12  1  0
 11 16  1  1
 12 13  1  0
 13 14  1  0
 13 19  1  0
 14 15  1  0
 15 16  1  0
 15 17  1  1
 17 18  1  0
 17 20  2  0
 21 18  1  6
 21 22  1  0
 21 38  1  0
 22 25  1  0
 22 34  2  0
 23 21  1  0
 24 23  1  0
 24 25  1  0
 24 28  1  0
 24 33  1  1
 25 26  1  0
 26 27  1  0
 26 36  1  1
 27 29  1  0
 27 35  2  0
 28 29  1  0
 29 30  1  0
 30 31  1  0
 31 32  1  0
 28 32  1  6
 36 37  1  0
 37 41  1  0
 38 39  1  0
 38 40  1  0
 42 37  1  0
M  END
>  <DRUGBANK_ID>  (1) 
DB11274

>  <COMMON_NAME>  (1) 
Dihydro-alpha-ergocryptine

>  <CAS_NUMBER>  (1) 
25447-66-9

>  <UNII>  (1) 
202229IR8Y

>  <SYNONYMS>  (1) 
9,10-dihydro-α-ergocryptine; alpha-Dihydroergocriptine; dihydro-α-ergocryptine; α-dihydroergocryptine

$$$$
