
     RDKit          3D

 13 14  0  0  0  0  0  0  0  0999 V2000
    0.9559    0.1468    0.0953 O   0  0  0  0  0  0  0  0  0  0  0  0
    4.9399    0.2423    0.1550 N   0  0  0  0  0  0  0  0  0  0  0  0
    2.8743    1.3867   -0.0041 N   0  0  0  0  0  0  0  0  0  0  0  0
    4.8634    2.4990   -0.1056 N   0  0  0  0  0  0  0  0  0  0  0  0
    4.3342   -1.0184    0.1500 C   0  0  0  0  0  0  0  0  0  0  0  0
    2.9363   -1.0833    0.1375 C   0  0  0  0  0  0  0  0  0  0  0  0
    5.0644   -2.2150    0.2039 C   0  0  0  0  0  0  0  0  0  0  0  0
    2.2686   -2.3088    0.0860 C   0  0  0  0  0  0  0  0  0  0  0  0
    4.3922   -3.4327    0.0094 C   0  0  0  0  0  0  0  0  0  0  0  0
    2.1879    0.1976    0.0927 C   0  0  0  0  0  0  0  0  0  0  0  0
    3.0043   -3.4694   -0.1138 C   0  0  0  0  0  0  0  0  0  0  0  0
    6.5396   -2.2199    0.4714 C   0  0  0  0  0  0  0  0  0  0  0  0
    4.1677    1.3499    0.0144 C   0  0  0  0  0  0  0  0  0  0  0  0
  1 10  2  0
  2  5  1  0
  2 13  1  0
  3 10  1  0
  3 13  2  0
  4 13  1  0
  5  6  2  0
  5  7  1  0
  6  8  1  0
  6 10  1  0
  7  9  2  0
  7 12  1  0
  8 11  2  0
  9 11  1  0
M  END
>  <DRUGBANK_ID>  (1) 
DB01825

>  <SECONDARY_ACCESSION_NUMBERS>  (1) 
EXPT02114

>  <COMMON_NAME>  (1) 
2-amino-8-methyl-4(1H)-quinazolinone

>  <CAS_NUMBER>  (1) 
116836-27-2

>  <UNII>  (1) 
X6X2DD92TW

$$$$
