
     RDKit          3D

 20 22  0  0  1  0  0  0  0  0999 V2000
    1.2869    1.3876    0.2557 C   0  0  0  0  0  0  0  0  0  0  0  0
    2.4778    0.6803    0.1251 C   0  0  0  0  0  0  0  0  0  0  0  0
    2.4902   -0.7019    0.0027 C   0  0  0  0  0  0  0  0  0  0  0  0
    1.2853   -1.3850   -0.0016 C   0  0  0  0  0  0  0  0  0  0  0  0
    0.0706   -0.7064    0.1191 C   0  0  0  0  0  0  0  0  0  0  0  0
    0.0659    0.7067    0.2263 C   0  0  0  0  0  0  0  0  0  0  0  0
   -1.2335    1.5059    0.2186 C   0  0  0  0  0  0  0  0  0  0  0  0
   -2.3943    0.6778   -0.3674 C   0  0  2  0  0  0  0  0  0  0  0  0
   -2.3627   -0.6091    0.4933 C   0  0  0  0  0  0  0  0  0  0  0  0
   -1.2112   -1.4944    0.0422 C   0  0  0  0  0  0  0  0  0  0  0  0
   -2.3088    0.4490   -1.8532 N   0  0  0  0  0  0  0  0  0  0  0  0
   -3.2166   -0.3550   -2.5810 C   0  0  0  0  0  0  0  0  0  0  0  0
   -2.7698   -0.4732   -3.8476 C   0  0  0  0  0  0  0  0  0  0  0  0
   -1.6145    0.2202   -3.9812 N   0  0  0  0  0  0  0  0  0  0  0  0
   -1.3087    0.8850   -2.7974 C   0  0  0  0  0  0  0  0  0  0  0  0
   -0.0453    1.9542   -2.8274 S   0  0  0  0  0  0  0  0  0  0  0  0
   -4.5057   -0.9430   -2.0960 C   0  0  0  0  0  0  0  0  0  0  0  0
   -4.3354   -2.0098   -1.1330 N   0  0  0  0  0  0  0  0  0  0  0  0
    1.2913   -2.7185   -0.1461 F   0  0  0  0  0  0  0  0  0  0  0  0
    3.6345    1.3533    0.0828 F   0  0  0  0  0  0  0  0  0  0  0  0
  1  2  2  0
  1  6  1  0
  2  3  1  0
  2 20  1  0
  3  4  2  0
  4  5  1  0
  4 19  1  0
  5  6  2  0
  5 10  1  0
  6  7  1  0
  7  8  1  0
  8  9  1  0
  8 11  1  6
  9 10  1  0
 11 12  1  0
 11 15  1  0
 12 13  2  0
 12 17  1  0
 13 14  1  0
 14 15  1  0
 15 16  2  0
 17 18  1  0
M  END
>  <DRUGBANK_ID>  (1) 
DB12979

>  <COMMON_NAME>  (1) 
Nepicastat

>  <CAS_NUMBER>  (1) 
173997-05-2

>  <UNII>  (1) 
VPG12K4540

>  <SYNONYMS>  (1) 
(S)-5-aminomethyl-1-(5,7-difluoro-1,2,3,4-tetrahydronaphthalen-2-yl)-1,3-dihydroimidazole-2-thione; NÃ©picastat; Nepicastat; Nepicastatum

$$$$
