
     RDKit          3D

 36 40  0  0  1  0  0  0  0  0999 V2000
    4.9526   -8.1326   -1.6825 C   0  0  0  0  0  0  0  0  0  0  0  0
    4.6370   -8.6864   -0.3190 C   0  0  0  0  0  0  0  0  0  0  0  0
    3.9029   -7.8310    0.5916 C   0  0  0  0  0  0  0  0  0  0  0  0
    4.3989   -7.7346    1.8231 N   0  0  0  0  0  0  0  0  0  0  0  0
    3.4651   -7.0658    2.5346 O   0  0  0  0  0  0  0  0  0  0  0  0
    2.4612   -6.7783    1.7075 C   0  0  0  0  0  0  0  0  0  0  0  0
    1.6760   -5.7265    2.1782 C   0  0  0  0  0  0  0  0  0  0  0  0
    0.8075   -5.6910    3.3610 C   0  0  0  0  0  0  0  0  0  0  0  0
    2.6633   -7.1780    0.4001 C   0  0  0  0  0  0  0  0  0  0  0  0
    1.9345   -6.9224   -0.8374 C   0  0  0  0  0  0  0  0  0  0  0  0
    1.9847   -7.7862   -1.7764 O   0  0  0  0  0  0  0  0  0  0  0  0
    1.2186   -5.8228   -1.1383 O   0  0  0  0  0  0  0  0  0  0  0  0
    0.9411   -4.5642   -0.5009 C   0  0  1  0  0  0  0  0  0  0  0  0
   -0.3563   -4.5967    0.3417 C   0  0  0  0  0  0  0  0  0  0  0  0
   -1.4832   -5.6442    0.1302 C   0  0  0  0  0  0  0  0  0  0  0  0
   -0.2002   -3.8187    1.4461 C   0  0  0  0  0  0  0  0  0  0  0  0
    1.2833   -3.1336    1.6912 C   0  0  2  0  0  0  0  0  0  0  0  0
    1.0323   -1.6524    1.9603 C   0  0  2  0  0  0  0  0  0  0  0  0
   -0.2252   -0.9441    1.5049 C   0  0  0  0  0  0  0  0  0  0  0  0
    2.1358   -0.7847    1.4457 C   0  0  0  0  0  0  0  0  0  0  0  0
    3.5824   -1.1430    1.4150 C   0  0  2  0  0  0  0  0  0  0  0  0
    4.1592   -1.4146    2.7374 C   0  0  1  0  0  0  0  0  0  0  0  0
    3.7248   -2.8661    2.8459 C   0  0  1  0  0  0  0  0  0  0  0  0
    4.5828   -3.9962    3.1588 C   0  0  0  0  0  0  0  0  0  0  0  0
    4.9961   -4.7355    2.1003 C   0  0  0  0  0  0  0  0  0  0  0  0
    6.3002   -5.6459    2.6489 C   0  0  0  0  0  0  0  0  0  0  0  0
    6.7781   -5.2358    4.0075 O   0  0  0  0  0  0  0  0  0  0  0  0
    4.0062   -4.4525    0.5346 C   0  0  1  0  0  0  0  0  0  0  0  0
    4.3593   -5.3495   -0.5194 O   0  0  0  0  0  0  0  0  0  0  0  0
    2.2092   -3.7572    0.3005 C   0  0  1  0  0  0  0  0  0  0  0  0
    2.3422   -2.6304   -0.6397 O   0  0  0  0  0  0  0  0  0  0  0  0
    2.2698   -3.1758    3.1175 C   0  0  0  0  0  0  0  0  0  0  0  0
    1.8818   -3.3102    4.2797 O   0  0  0  0  0  0  0  0  0  0  0  0
    4.5607   -0.0955    1.5992 C   0  0  0  0  0  0  0  0  0  0  0  0
    6.0275    0.0587    1.3456 C   0  0  0  0  0  0  0  0  0  0  0  0
    3.9352    1.0695    0.7917 C   0  0  0  0  0  0  0  0  0  0  0  0
  1  2  1  0
  2  3  1  0
  3  4  2  0
  3  9  1  0
  4  5  1  0
  5  6  1  0
  6  7  1  0
  6  9  2  0
  7  8  1  0
  9 10  1  0
 10 11  2  0
 10 12  1  0
 13 14  1  0
 13 12  1  1
 14 16  2  0
 14 15  1  0
 17 16  1  1
 17 18  1  0
 17 32  1  0
 18 20  1  0
 18 19  1  6
 21 20  1  1
 21 34  1  0
 22 21  1  0
 22 23  1  0
 22 34  1  6
 23 24  1  1
 23 32  1  0
 24 25  2  0
 25 26  1  0
 26 27  1  0
 28 25  1  0
 28 29  1  1
 30 28  1  0
 30 13  1  0
 30 17  1  0
 30 31  1  6
 32 33  2  0
 34 35  1  0
 34 36  1  0
M  END
>  <DRUGBANK_ID>  (1) 
DB15109

>  <COMMON_NAME>  (1) 
Ingenol disoxate

>  <CAS_NUMBER>  (1) 
1383547-60-1

>  <UNII>  (1) 
3B100VJ4ZW

>  <SYNONYMS>  (1) 
Ingenol disoxate

$$$$
