BAT
     RDKit          3D

 32 33  0  0  0  0  0  0  0  0999 V2000
    0.8468    0.0726   -0.0519 C   0  0  1  0  0  0  0  0  0  0  0  0
    0.3860    0.7549   -1.3442 C   0  0  0  0  0  0  0  0  0  0  0  0
    0.2665    0.8463    1.1549 C   0  0  0  0  0  0  0  0  0  0  0  0
   -2.4164    0.0199    0.6911 C   0  0  0  0  0  0  0  0  0  0  0  0
   -2.9464    1.0807    0.0019 C   0  0  0  0  0  0  0  0  0  0  0  0
   -3.9139    0.6823   -0.9591 C   0  0  0  0  0  0  0  0  0  0  0  0
   -4.0654   -0.6855   -1.0121 C   0  0  0  0  0  0  0  0  0  0  0  0
    0.5209   -1.4369    0.0068 C   0  0  1  0  0  0  0  0  0  0  0  0
    1.0480   -2.2134   -1.2150 C   0  0  0  0  0  0  0  0  0  0  0  0
    2.5706   -2.2143   -1.3678 C   0  0  0  0  0  0  0  0  0  0  0  0
    3.2492   -2.9258   -0.2125 C   0  0  0  0  0  0  0  0  0  0  0  0
    2.9926   -2.9028   -2.6534 C   0  0  0  0  0  0  0  0  0  0  0  0
    0.9131   -1.9609    1.4141 C   0  0  0  0  0  0  0  0  0  0  0  0
    0.3999   -3.3924    3.3667 C   0  0  2  0  0  0  0  0  0  0  0  0
   -0.1778   -4.8342    3.3858 C   0  0  0  0  0  0  0  0  0  0  0  0
   -1.7834   -6.0941    4.7015 C   0  0  0  0  0  0  0  0  0  0  0  0
   -0.0691   -2.5037    4.5468 C   0  0  0  0  0  0  0  0  0  0  0  0
   -1.5641   -2.5068    4.8391 C   0  0  0  0  0  0  0  0  0  0  0  0
   -2.5067   -3.1074    3.9846 C   0  0  0  0  0  0  0  0  0  0  0  0
   -3.8351   -3.2771    4.3504 C   0  0  0  0  0  0  0  0  0  0  0  0
   -4.2683   -2.7910    5.5697 C   0  0  0  0  0  0  0  0  0  0  0  0
   -3.3641   -2.1601    6.4252 C   0  0  0  0  0  0  0  0  0  0  0  0
   -2.0243   -1.9961    6.0568 C   0  0  0  0  0  0  0  0  0  0  0  0
    1.1082    1.8685   -1.7142 N   0  0  0  0  0  0  0  0  0  0  0  0
    0.0562   -2.8045    2.0477 N   0  0  0  0  0  0  0  0  0  0  0  0
   -0.5400   -5.3534    4.6200 N   0  0  0  0  0  0  0  0  0  0  0  0
   -0.5817    0.3950   -2.0061 O   0  0  0  0  0  0  0  0  0  0  0  0
    0.7053    2.5045   -2.9129 O   0  0  0  0  0  0  0  0  0  0  0  0
    1.9187   -1.5586    2.0202 O   0  0  0  0  0  0  0  0  0  0  0  0
   -0.3958   -5.4510    2.3407 O   0  0  0  0  0  0  0  0  0  0  0  0
   -1.2521    0.1935    1.9954 S   0  0  0  0  0  0  0  0  0  0  0  0
   -3.1259   -1.4656    0.1906 S   0  0  0  0  0  0  0  0  0  0  0  0
  1  8  1  0
  1  3  1  1
  1  2  1  0
  2 24  1  0
  2 27  2  0
  3 31  1  0
  4  5  2  0
  4 31  1  0
  4 32  1  0
  5  6  1  0
  6  7  2  0
  7 32  1  0
  8  9  1  6
  8 13  1  0
  9 10  1  0
 10 11  1  0
 10 12  1  0
 13 25  1  0
 13 29  2  0
 14 25  1  0
 14 17  1  1
 14 15  1  0
 15 26  1  0
 15 30  2  0
 16 26  1  0
 17 18  1  0
 18 19  2  0
 18 23  1  0
 19 20  1  0
 20 21  2  0
 21 22  1  0
 22 23  2  0
 24 28  1  0
M  END
>  <DRUGBANK_ID>  (1) 
DB03880

>  <SECONDARY_ACCESSION_NUMBERS>  (1) 
EXPT00627

>  <COMMON_NAME>  (1) 
Batimastat

>  <CAS_NUMBER>  (1) 
130370-60-4

>  <UNII>  (1) 
BK349F52C9

>  <SYNONYMS>  (1) 
Batimastat

$$$$
