4MU
     RDKit          3D

 13 14  0  0  0  0  0  0  0  0999 V2000
    1.2366    1.5910    0.0461 C   0  0  0  0  0  0  0  0  0  0  0  0
    2.4915    0.9754    0.0429 C   0  0  0  0  0  0  0  0  0  0  0  0
    2.5766   -0.4097    0.0017 C   0  0  0  0  0  0  0  0  0  0  0  0
   -2.2224   -0.8844   -0.0018 C   0  0  0  0  0  0  0  0  0  0  0  0
   -2.3435    0.5843   -0.0222 C   0  0  0  0  0  0  0  0  0  0  0  0
   -1.2917    1.4195   -0.0117 C   0  0  0  0  0  0  0  0  0  0  0  0
   -3.2172   -1.5961    0.0379 O   0  0  0  0  0  0  0  0  0  0  0  0
   -0.9401   -1.4021   -0.0363 O   0  0  0  0  0  0  0  0  0  0  0  0
   -1.4994    2.9069   -0.0255 C   0  0  0  0  0  0  0  0  0  0  0  0
    0.0566    0.8353    0.0076 C   0  0  0  0  0  0  0  0  0  0  0  0
    0.1855   -0.5564   -0.0217 C   0  0  0  0  0  0  0  0  0  0  0  0
    1.4295   -1.1879   -0.0288 C   0  0  0  0  0  0  0  0  0  0  0  0
    3.7843   -1.0386   -0.0070 O   0  0  0  0  0  0  0  0  0  0  0  0
  1  2  2  0
  1 10  1  0
  2  3  1  0
  3 12  2  0
  3 13  1  0
  4  5  1  0
  4  7  2  0
  4  8  1  0
  5  6  2  0
  6  9  1  0
  6 10  1  0
  8 11  1  0
 10 11  2  0
 11 12  1  0
M  END
>  <DRUGBANK_ID>  (1) 
DB07118

>  <COMMON_NAME>  (1) 
Hymecromone

>  <CAS_NUMBER>  (1) 
90-33-5

>  <UNII>  (1) 
3T5NG4Q468

>  <SYNONYMS>  (1) 
4-methylumbelliferone; himecromona; Hymecromone

$$$$
