
     RDKit          3D

 42 45  0  0  0  0  0  0  0  0999 V2000
    4.7572   -4.0737   -0.2154 O   0  0  0  0  0  0  0  0  0  0  0  0
   10.8603   -3.7757   -0.4305 O   0  0  0  0  0  0  0  0  0  0  0  0
   11.6401   -1.0215   -2.0727 O   0  0  0  0  0  0  0  0  0  0  0  0
    9.9166   -0.1968   -3.0694 O   0  0  0  0  0  0  0  0  0  0  0  0
   10.5889    0.3316    1.7572 O   0  0  0  0  0  0  0  0  0  0  0  0
    4.9375   -1.9528   -1.1132 N   0  0  0  0  0  0  0  0  0  0  0  0
    2.1040   -1.6373   -1.3606 N   0  0  0  0  0  0  0  0  0  0  0  0
    2.1153    0.5421   -0.9694 N   0  0  0  0  0  0  0  0  0  0  0  0
    2.6110   -3.1416    1.3852 N   0  0  0  0  0  0  0  0  0  0  0  0
    9.3982    2.2103    2.0653 N   0  0  0  0  0  0  0  0  0  0  0  0
    4.4032   -0.5644   -1.1737 C   0  0  2  0  0  0  0  0  0  0  0  0
    2.8831   -0.5809   -1.2044 C   0  0  0  0  0  0  0  0  0  0  0  0
    4.5551   -2.8594   -0.1028 C   0  0  0  0  0  0  0  0  0  0  0  0
    5.6358   -2.5291   -2.2863 C   0  0  0  0  0  0  0  0  0  0  0  0
    3.8361   -2.3422    1.1765 C   0  0  2  0  0  0  0  0  0  0  0  0
    0.8177   -1.1775   -1.2998 C   0  0  0  0  0  0  0  0  0  0  0  0
    7.0816   -2.9095   -2.0115 C   0  0  0  0  0  0  0  0  0  0  0  0
    5.9309   -1.5731    2.3897 C   0  0  0  0  0  0  0  0  0  0  0  0
    4.6929   -2.4403    2.4407 C   0  0  0  0  0  0  0  0  0  0  0  0
    9.4658   -2.2236   -1.8803 C   0  0  0  0  0  0  0  0  0  0  0  0
    5.8453   -0.1774    2.5018 C   0  0  0  0  0  0  0  0  0  0  0  0
    7.1887   -2.1552    2.1939 C   0  0  0  0  0  0  0  0  0  0  0  0
    0.7998    0.1760   -1.0533 C   0  0  0  0  0  0  0  0  0  0  0  0
   -0.3563   -2.0102   -1.4312 C   0  0  0  0  0  0  0  0  0  0  0  0
    8.1286   -2.0252   -2.3165 C   0  0  0  0  0  0  0  0  0  0  0  0
    9.7396   -3.3675   -1.1037 C   0  0  0  0  0  0  0  0  0  0  0  0
    8.2673    0.0313    2.2026 C   0  0  0  0  0  0  0  0  0  0  0  0
    7.4137   -4.1008   -1.3793 C   0  0  0  0  0  0  0  0  0  0  0  0
    7.0119    0.6061    2.4217 C   0  0  0  0  0  0  0  0  0  0  0  0
    8.3510   -1.3580    2.1168 C   0  0  0  0  0  0  0  0  0  0  0  0
    4.9069    0.2824   -2.3472 C   0  0  0  0  0  0  0  0  0  0  0  0
    8.7110   -4.3006   -0.8956 C   0  0  0  0  0  0  0  0  0  0  0  0
   10.4455   -1.1530   -2.2851 C   0  0  0  0  0  0  0  0  0  0  0  0
   -0.5845   -3.0676   -0.5438 C   0  0  0  0  0  0  0  0  0  0  0  0
   -1.3109   -1.7261   -2.4122 C   0  0  0  0  0  0  0  0  0  0  0  0
    9.5039    0.8463    2.0000 C   0  0  0  0  0  0  0  0  0  0  0  0
    4.5331    0.5290    2.6847 C   0  0  0  0  0  0  0  0  0  0  0  0
    7.3114   -3.5920    1.8167 C   0  0  0  0  0  0  0  0  0  0  0  0
   -1.7628   -3.8113   -0.6131 C   0  0  0  0  0  0  0  0  0  0  0  0
   -2.5108   -2.4384   -2.4500 C   0  0  0  0  0  0  0  0  0  0  0  0
   -2.7273   -3.4936   -1.5647 C   0  0  0  0  0  0  0  0  0  0  0  0
   12.0756   -3.1423   -0.7540 C   0  0  0  0  0  0  0  0  0  0  0  0
  1 13  2  0
  2 26  1  0
  2 42  1  0
  3 33  2  0
  4 33  1  0
  5 36  2  0
  6 13  1  0
  6 14  1  0
  7 12  2  0
  7 16  1  0
  8 12  1  0
  8 23  1  0
 10 36  1  0
 11 31  1  6
 11 12  1  0
 11  6  1  0
 13 15  1  0
 14 17  1  0
 15  9  1  1
 15 19  1  0
 16 23  2  0
 16 24  1  0
 17 25  1  0
 17 28  2  0
 18 19  1  0
 18 21  2  0
 18 22  1  0
 20 25  2  0
 20 26  1  0
 20 33  1  0
 21 29  1  0
 21 37  1  0
 22 30  2  0
 22 38  1  0
 24 34  2  0
 24 35  1  0
 26 32  2  0
 27 29  2  0
 27 30  1  0
 27 36  1  0
 28 32  1  0
 34 39  1  0
 35 40  2  0
 39 41  2  0
 40 41  1  0
M  END
>  <DRUGBANK_ID>  (1) 
DB09272

>  <COMMON_NAME>  (1) 
Eluxadoline

>  <CAS_NUMBER>  (1) 
864821-90-9

>  <UNII>  (1) 
45TPJ4MBQ1

>  <SYNONYMS>  (1) 
5-({(4-carbamoyl-2,6-dimethyl-L-phenylalanyl)[(1S)-1-(4-phenyl-1H-imidazol-2-yl)ethyl]amino}methyl)-2-methoxybenzoic acid; Eluxadoline

$$$$
