5PP
     RDKit          3D

 19 20  0  0  0  0  0  0  0  0999 V2000
    2.2662   -0.0351   -0.2136 O   0  0  0  0  0  0  0  0  0  0  0  0
    0.9037   -0.1177   -0.1690 C   0  0  0  0  0  0  0  0  0  0  0  0
    0.1898   -1.2977   -0.0171 C   0  0  0  0  0  0  0  0  0  0  0  0
    0.7928   -2.5270    0.0628 O   0  0  0  0  0  0  0  0  0  0  0  0
    1.6195   -2.7962    1.1332 C   0  0  0  0  0  0  0  0  0  0  0  0
    1.8438   -1.9490    2.2262 C   0  0  0  0  0  0  0  0  0  0  0  0
    2.7653   -2.3037    3.2104 C   0  0  0  0  0  0  0  0  0  0  0  0
    3.4327   -3.5222    3.1335 C   0  0  0  0  0  0  0  0  0  0  0  0
    3.1869   -4.3863    2.0656 C   0  0  0  0  0  0  0  0  0  0  0  0
    2.2879   -4.0189    1.0646 C   0  0  0  0  0  0  0  0  0  0  0  0
   -1.2074   -1.2654   -0.0084 C   0  0  0  0  0  0  0  0  0  0  0  0
   -1.8852   -0.0404   -0.0268 C   0  0  0  0  0  0  0  0  0  0  0  0
   -1.1691    1.1557   -0.0900 C   0  0  0  0  0  0  0  0  0  0  0  0
    0.2247    1.0887   -0.2324 C   0  0  0  0  0  0  0  0  0  0  0  0
   -1.8816    2.4846    0.0121 C   0  0  0  0  0  0  0  0  0  0  0  0
   -1.5137    3.2845    1.2770 C   0  0  0  0  0  0  0  0  0  0  0  0
   -0.0467    3.7338    1.3645 C   0  0  0  0  0  0  0  0  0  0  0  0
    0.4262    4.4954    0.1196 C   0  0  0  0  0  0  0  0  0  0  0  0
   -0.2850    5.8278   -0.0016 C   0  0  0  0  0  0  0  0  0  0  0  0
  1  2  1  0
  2  3  2  0
  2 14  1  0
  3  4  1  0
  3 11  1  0
  4  5  1  0
  5  6  2  0
  5 10  1  0
  6  7  1  0
  7  8  2  0
  8  9  1  0
  9 10  2  0
 11 12  2  0
 12 13  1  0
 13 14  2  0
 13 15  1  0
 15 16  1  0
 16 17  1  0
 17 18  1  0
 18 19  1  0
M  END
>  <DRUGBANK_ID>  (1) 
DB07178

>  <COMMON_NAME>  (1) 
5-PENTYL-2-PHENOXYPHENOL

$$$$
