
     RDKit          3D

 25 27  0  0  0  0  0  0  0  0999 V2000
   -0.8825   -1.4719    0.0302 C   0  0  1  0  0  0  0  0  0  0  0  0
   -2.2452   -0.7142   -0.0365 C   0  0  0  0  0  0  0  0  0  0  0  0
   -2.2748    0.7488   -0.1714 N   0  0  0  0  0  0  0  0  0  0  0  0
   -0.9670    1.7837   -0.0624 S   0  0  0  0  0  0  0  0  0  0  0  0
   -0.8160    2.4742   -1.3196 O   0  0  0  0  0  0  0  0  0  0  0  0
   -0.9664    2.4541    1.2245 O   0  0  0  0  0  0  0  0  0  0  0  0
    0.3789   -0.6498   -0.0530 C   0  0  0  0  0  0  0  0  0  0  0  0
    0.3764    0.7183   -0.0187 C   0  0  0  0  0  0  0  0  0  0  0  0
    1.7361   -1.0914   -0.1663 C   0  0  0  0  0  0  0  0  0  0  0  0
    2.6338   -0.0475   -0.0529 C   0  0  0  0  0  0  0  0  0  0  0  0
    1.8800    1.4596    0.0293 S   0  0  0  0  0  0  0  0  0  0  0  0
    4.7666    0.6012   -1.2721 O   0  0  0  0  0  0  0  0  0  0  0  0
    4.7257    0.6118    1.2752 O   0  0  0  0  0  0  0  0  0  0  0  0
    4.3750    0.0418   -0.0041 S   0  0  0  0  0  0  0  0  0  0  0  0
    4.8776   -1.5591   -0.0118 N   0  0  0  0  0  0  0  0  0  0  0  0
   -3.5160    1.4131   -0.0794 C   0  0  0  0  0  0  0  0  0  0  0  0
   -3.8024    2.3649   -1.0535 C   0  0  0  0  0  0  0  0  0  0  0  0
   -4.8642    3.2215   -0.8655 C   0  0  0  0  0  0  0  0  0  0  0  0
   -5.7264    3.0003    0.2090 C   0  0  0  0  0  0  0  0  0  0  0  0
   -5.4522    2.0266    1.1695 C   0  0  0  0  0  0  0  0  0  0  0  0
   -4.3179    1.2477    1.0461 C   0  0  0  0  0  0  0  0  0  0  0  0
   -4.9364    4.2571   -1.7523 O   0  0  0  0  0  0  0  0  0  0  0  0
   -5.9363    5.2194   -1.4532 C   0  0  0  0  0  0  0  0  0  0  0  0
   -0.9062   -2.1646    1.3323 N   0  0  0  0  0  0  0  0  0  0  0  0
    0.1725   -3.1071    1.5342 C   0  0  0  0  0  0  0  0  0  0  0  0
  1  2  1  0
  1  7  1  0
  1 24  1  1
  2  3  1  0
  3 16  1  0
  3  4  1  0
  4  8  1  0
  4  5  2  0
  4  6  2  0
  7  9  1  0
  7  8  2  0
  8 11  1  0
  9 10  2  0
 10 11  1  0
 10 14  1  0
 12 14  2  0
 13 14  2  0
 14 15  1  0
 16 21  1  0
 16 17  2  0
 17 18  1  0
 18 19  2  0
 18 22  1  0
 19 20  1  0
 20 21  2  0
 22 23  1  0
 24 25  1  0
M  END
>  <DRUGBANK_ID>  (1) 
DB02220

>  <SECONDARY_ACCESSION_NUMBERS>  (1) 
EXPT00492

>  <COMMON_NAME>  (1) 
AL7089A

>  <CAS_NUMBER>  (1) 
220402-83-5

$$$$
