
     RDKit          3D

 23 24  0  0  1  0  0  0  0  0999 V2000
   -2.0117   -6.0291   -3.8621 C   0  0  0  0  0  0  0  0  0  0  0  0
   -2.2485    2.5421   -2.2726 C   0  0  0  0  0  0  0  0  0  0  0  0
   -2.6692   -5.1988   -4.9907 C   0  0  2  0  0  0  0  0  0  0  0  0
   -1.7954    1.2873   -3.0167 C   0  0  2  0  0  0  0  0  0  0  0  0
   -1.8056   -5.1109   -6.2513 C   0  0  1  0  0  0  0  0  0  0  0  0
   -0.8737    1.6617   -4.1783 C   0  0  1  0  0  0  0  0  0  0  0  0
   -2.5294   -4.3059   -7.3429 C   0  0  1  0  0  0  0  0  0  0  0  0
   -0.3869    0.3718   -4.8070 C   0  0  1  0  0  0  0  0  0  0  0  0
   -3.0551   -2.9462   -6.8493 C   0  0  2  0  0  0  0  0  0  0  0  0
   -1.5303   -0.5753   -5.1858 C   0  0  2  0  0  0  0  0  0  0  0  0
   -3.6816   -3.0697   -5.4347 C   0  0  1  0  0  0  0  0  0  0  0  0
   -2.6172   -0.6974   -4.0959 C   0  0  1  0  0  0  0  0  0  0  0  0
   -0.8462   -6.7394   -4.2714 O   0  0  0  0  0  0  0  0  0  0  0  0
   -3.0953    2.1795   -1.1861 O   0  0  0  0  0  0  0  0  0  0  0  0
   -0.5500   -4.4961   -5.9046 O   0  0  0  0  0  0  0  0  0  0  0  0
   -1.5557    2.4447   -5.1664 O   0  0  0  0  0  0  0  0  0  0  0  0
   -1.6310   -4.1034   -8.4426 O   0  0  0  0  0  0  0  0  0  0  0  0
    0.4369    0.6292   -5.9481 O   0  0  0  0  0  0  0  0  0  0  0  0
   -3.9416   -2.3118   -7.7796 O   0  0  0  0  0  0  0  0  0  0  0  0
   -0.9025   -1.8591   -5.3757 O   0  0  0  0  0  0  0  0  0  0  0  0
   -2.9021   -3.8489   -4.5129 O   0  0  0  0  0  0  0  0  0  0  0  0
   -2.9448    0.5950   -3.5449 O   0  0  0  0  0  0  0  0  0  0  0  0
   -4.1937   -1.4593   -4.6889 S   0  0  0  0  0  0  0  0  0  0  0  0
  3  1  1  1
  4  2  1  6
  5  3  1  0
  5 15  1  1
  6  4  1  0
  6 16  1  6
  7  5  1  0
  7 17  1  6
  8  6  1  0
  8 18  1  6
  9  7  1  0
  9 19  1  6
 10  8  1  0
 10 20  1  1
 11  9  1  0
 11 23  1  1
 12 10  1  0
 12 23  1  6
 13  1  1  0
 14  2  1  0
 21  3  1  0
 21 11  1  0
 22  4  1  0
 22 12  1  0
M  END
>  <DRUGBANK_ID>  (1) 
DB04396

>  <SECONDARY_ACCESSION_NUMBERS>  (1) 
EXPT03030

>  <COMMON_NAME>  (1) 
Thiodigalactoside

>  <CAS_NUMBER>  (1) 
51555-87-4

$$$$
