
     RDKit          3D

 14 14  0  0  1  0  0  0  0  0999 V2000
    4.2124   -2.1111    1.4139 C   0  0  0  0  0  0  0  0  0  0  0  0
    4.5015   -2.7710    2.6055 C   0  0  0  0  0  0  0  0  0  0  0  0
    4.9449   -2.0444    3.7047 C   0  0  0  0  0  0  0  0  0  0  0  0
    5.1315   -0.6665    3.6117 C   0  0  0  0  0  0  0  0  0  0  0  0
    4.8450   -0.0040    2.4144 C   0  0  0  0  0  0  0  0  0  0  0  0
    4.3657   -0.7196    1.3056 C   0  0  0  0  0  0  0  0  0  0  0  0
    3.9245    0.0203    0.0475 C   0  0  2  0  0  0  0  0  0  0  0  0
    2.3876    0.0829    0.0366 C   0  0  0  0  0  0  0  0  0  0  0  0
    1.8770    1.2046   -0.8183 C   0  0  0  0  0  0  0  0  0  0  0  0
    1.2073    1.0661   -1.8334 O   0  0  0  0  0  0  0  0  0  0  0  0
    2.2261    2.4234   -0.3729 O   0  0  0  0  0  0  0  0  0  0  0  0
    4.4755   -0.6609   -1.2304 C   0  0  0  0  0  0  0  0  0  0  0  0
    4.0643    0.0054   -2.4630 N   0  0  0  0  0  0  0  0  0  0  0  0
    5.2396   -2.8567    5.1913 Cl  0  0  0  0  0  0  0  0  0  0  0  0
  1  2  2  0
  1  6  1  0
  2  3  1  0
  3  4  2  0
  3 14  1  0
  4  5  1  0
  5  6  2  0
  7 12  1  6
  7  8  1  0
  7  6  1  0
  8  9  1  0
  9 10  2  0
  9 11  1  0
 12 13  1  0
M  END
>  <DRUGBANK_ID>  (1) 
DB12098

>  <COMMON_NAME>  (1) 
L-Baclofen

>  <CAS_NUMBER>  (1) 
66514-99-6

>  <UNII>  (1) 
3OHN4989XM

>  <SYNONYMS>  (1) 
(S)-Baclofen

$$$$
