
     RDKit          3D

 17 17  0  0  0  0  0  0  0  0999 V2000
    0.7972   -0.0234    0.0339 C   0  0  0  0  0  0  0  0  0  0  0  0
    0.2988   -0.2352    1.4603 C   0  0  0  0  0  0  0  0  0  0  0  0
   -0.2617    0.7023    2.0733 O   0  0  0  0  0  0  0  0  0  0  0  0
    0.3912   -1.4703    2.0672 N   0  0  0  0  0  0  0  0  0  0  0  0
    1.1851   -2.5313    1.6281 C   0  0  0  0  0  0  0  0  0  0  0  0
    2.3938   -2.1769    1.1643 C   0  0  0  0  0  0  0  0  0  0  0  0
    3.3074   -3.1647    0.9400 C   0  0  0  0  0  0  0  0  0  0  0  0
    3.0774   -4.5103    0.7175 C   0  0  0  0  0  0  0  0  0  0  0  0
    1.8782   -4.8874    1.3210 C   0  0  0  0  0  0  0  0  0  0  0  0
    0.9571   -3.8994    1.8234 C   0  0  0  0  0  0  0  0  0  0  0  0
    3.9882   -5.5184   -0.0396 C   0  0  0  0  0  0  0  0  0  0  0  0
    3.6913   -6.7185    0.0635 O   0  0  0  0  0  0  0  0  0  0  0  0
    5.0683   -5.2439   -0.9155 N   0  0  0  0  0  0  0  0  0  0  0  0
    5.7898   -4.0144   -1.3887 C   0  0  0  0  0  0  0  0  0  0  0  0
    7.2041   -3.8941   -0.7826 C   0  0  0  0  0  0  0  0  0  0  0  0
    5.6718   -3.7203   -2.8757 C   0  0  0  0  0  0  0  0  0  0  0  0
    5.1209   -2.8341   -0.8314 C   0  0  0  0  0  0  0  0  0  0  0  0
  1  2  1  0
  2  3  2  0
  2  4  1  0
  4  5  1  0
  5  6  2  0
  5 10  1  0
  6  7  1  0
  7  8  2  0
  8  9  1  0
  8 11  1  0
  9 10  2  0
 11 12  2  0
 11 13  1  0
 13 14  1  0
 14 15  1  0
 14 16  1  0
 14 17  1  0
M  END
>  <DRUGBANK_ID>  (1) 
DB12311

>  <COMMON_NAME>  (1) 
CP1-1189

>  <CAS_NUMBER>  (1) 
183619-38-7

>  <UNII>  (1) 
9JX1L8VH4Z

$$$$
