P40
     RDKit          3D

 32 36  0  0  0  0  0  0  0  0999 V2000
    0.5649   -0.1042   -0.2254 C   0  0  0  0  0  0  0  0  0  0  0  0
    0.4618   -0.7755    1.1577 C   0  0  0  0  0  0  0  0  0  0  0  0
    1.8930    2.1131    1.3958 C   0  0  0  0  0  0  0  0  0  0  0  0
    0.9084    1.3598    2.3615 C   0  0  0  0  0  0  0  0  0  0  0  0
   -2.9158    3.2413   -4.1963 C   0  0  0  0  0  0  0  0  0  0  0  0
   -3.8723    2.3705   -4.7557 C   0  0  0  0  0  0  0  0  0  0  0  0
   -4.0983    1.1174   -4.1440 C   0  0  0  0  0  0  0  0  0  0  0  0
   -3.3003    0.6872   -3.1194 C   0  0  0  0  0  0  0  0  0  0  0  0
   -4.6247    2.7753   -5.9521 C   0  0  0  0  0  0  0  0  0  0  0  0
   -5.9982    2.7008   -5.9255 C   0  0  0  0  0  0  0  0  0  0  0  0
   -6.9429    3.2813   -6.7285 C   0  0  0  0  0  0  0  0  0  0  0  0
   -6.4209    3.6901   -7.9390 C   0  0  0  0  0  0  0  0  0  0  0  0
   -8.3897    3.3639   -6.2930 C   0  0  0  0  0  0  0  0  0  0  0  0
   -8.2970    2.8017   -3.6826 C   0  0  0  0  0  0  0  0  0  0  0  0
   -6.8659    3.0275   -3.3335 C   0  0  0  0  0  0  0  0  0  0  0  0
   -7.4298    1.5945   -3.5831 C   0  0  0  0  0  0  0  0  0  0  0  0
   -0.2690    2.9124   -1.6500 N   0  0  0  0  0  0  0  0  0  0  0  0
   -1.0117    3.4607   -2.6168 C   0  0  0  0  0  0  0  0  0  0  0  0
    1.0721   -0.1087    2.3367 N   0  0  0  0  0  0  0  0  0  0  0  0
    2.5102   -0.3950    2.4889 C   0  0  0  0  0  0  0  0  0  0  0  0
    3.4011    0.3162    1.4664 C   0  0  0  0  0  0  0  0  0  0  0  0
    3.2538    1.7413    1.6036 O   0  0  0  0  0  0  0  0  0  0  0  0
   -5.0158    3.5843   -8.1639 C   0  0  0  0  0  0  0  0  0  0  0  0
   -4.1085    3.1696   -7.1547 C   0  0  0  0  0  0  0  0  0  0  0  0
   -2.6424    2.9961   -7.3912 C   0  0  0  0  0  0  0  0  0  0  0  0
   -9.2250    3.6760   -7.1489 O   0  0  0  0  0  0  0  0  0  0  0  0
   -2.0761    2.7805   -3.1978 C   0  0  0  0  0  0  0  0  0  0  0  0
   -2.2610    1.4701   -2.7341 C   0  0  0  0  0  0  0  0  0  0  0  0
   -1.4762    0.8754   -1.9291 N   0  0  0  0  0  0  0  0  0  0  0  0
   -0.5536    1.6259   -1.3743 C   0  0  0  0  0  0  0  0  0  0  0  0
   -0.2319    1.1080   -0.1816 N   0  0  0  0  0  0  0  0  0  0  0  0
   -8.8692    3.1461   -4.9822 N   0  0  0  0  0  0  0  0  0  0  0  0
  1  2  1  0
  1 31  1  0
  2 19  1  0
  3  4  1  0
  3 22  1  0
  4 19  1  0
  5  6  2  0
  5 27  1  0
  6  7  1  0
  6  9  1  0
  7  8  2  0
  8 28  1  0
  9 10  2  0
  9 24  1  0
 10 11  1  0
 11 12  2  0
 11 13  1  0
 12 23  1  0
 13 26  2  0
 13 32  1  0
 14 15  1  0
 14 16  1  0
 14 32  1  0
 15 16  1  0
 17 18  1  0
 17 30  2  0
 18 27  2  0
 19 20  1  0
 20 21  1  0
 21 22  1  0
 23 24  2  0
 24 25  1  0
 27 28  1  0
 28 29  2  0
 29 30  1  0
 30 31  1  0
M  END
>  <DRUGBANK_ID>  (1) 
DB08351

>  <COMMON_NAME>  (1) 
N-cyclopropyl-4-methyl-3-{2-[(2-morpholin-4-ylethyl)amino]quinazolin-6-yl}benzamide

$$$$
