TFK
     RDKit          3D

 33 34  0  0  0  0  0  0  0  0999 V2000
   -2.7758    3.4273   -0.6333 C   0  0  0  0  0  0  0  0  0  0  0  0
   -1.8357    2.5549    0.1481 C   0  0  0  0  0  0  0  0  0  0  0  0
   -0.3789    2.2644   -0.3289 C   0  0  2  0  0  0  0  0  0  0  0  0
    0.4883    1.4026    0.7127 C   0  0  0  0  0  0  0  0  0  0  0  0
   -0.2830    0.7749    1.8563 C   0  0  0  0  0  0  0  0  0  0  0  0
    1.2216    0.1870    0.1693 C   0  0  0  0  0  0  0  0  0  0  0  0
    0.3468    3.9989   -2.0440 C   0  0  0  0  0  0  0  0  0  0  0  0
    1.3948    5.0230   -2.5001 C   0  0  0  0  0  0  0  0  0  0  0  0
    3.4824    5.7737   -3.5278 C   0  0  0  0  0  0  0  0  0  0  0  0
    4.6555    5.4999   -4.4546 C   0  0  0  0  0  0  0  0  0  0  0  0
    4.8575    4.2330   -4.8076 C   0  0  0  0  0  0  0  0  0  0  0  0
    4.1669    3.1492   -4.1943 C   0  0  0  0  0  0  0  0  0  0  0  0
    2.9922    3.3637   -3.5933 C   0  0  0  0  0  0  0  0  0  0  0  0
    2.1650    2.1533   -3.4623 C   0  0  0  0  0  0  0  0  0  0  0  0
    0.9547    2.0346   -4.1519 C   0  0  0  0  0  0  0  0  0  0  0  0
    0.0109    1.0920   -3.7333 C   0  0  0  0  0  0  0  0  0  0  0  0
    0.4050    0.0515   -2.9198 C   0  0  0  0  0  0  0  0  0  0  0  0
    1.7474   -0.0517   -2.5736 C   0  0  0  0  0  0  0  0  0  0  0  0
    2.5742    1.0705   -2.6952 C   0  0  0  0  0  0  0  0  0  0  0  0
    7.7944    7.1466   -8.1337 C   0  0  0  0  0  0  0  0  0  0  0  0
    0.4052    3.4660   -0.7680 N   0  0  0  0  0  0  0  0  0  0  0  0
    2.6249    4.6689   -3.2327 N   0  0  0  0  0  0  0  0  0  0  0  0
    5.3732    6.5730   -5.0947 N   0  0  0  0  0  0  0  0  0  0  0  0
    6.6632    7.3035   -7.1824 N   0  0  0  0  0  0  0  0  0  0  0  0
   -2.3449    1.9761    1.1207 O   0  0  0  0  0  0  0  0  0  0  0  0
   -0.5163    3.6532   -2.8477 O   0  0  0  0  0  0  0  0  0  0  0  0
    3.2726    6.9249   -3.1411 O   0  0  0  0  0  0  0  0  0  0  0  0
    7.8842    6.9451   -4.9946 O   0  0  0  0  0  0  0  0  0  0  0  0
    7.0370    5.0049   -6.3522 O   0  0  0  0  0  0  0  0  0  0  0  0
   -2.3845    3.9145   -1.8169 F   0  0  0  0  0  0  0  0  0  0  0  0
   -3.1194    4.5170    0.1087 F   0  0  0  0  0  0  0  0  0  0  0  0
   -3.9361    2.7578   -0.8951 F   0  0  0  0  0  0  0  0  0  0  0  0
    6.8731    6.3396   -5.8109 S   0  0  0  0  0  0  0  0  0  0  0  0
  1  2  1  0
  1 30  1  0
  1 31  1  0
  1 32  1  0
  2 25  2  0
  3 21  1  1
  3  4  1  0
  3  2  1  0
  4  5  1  0
  4  6  1  0
  7  8  1  0
  7 21  1  0
  7 26  2  0
  8 22  1  0
  9 10  1  0
  9 22  1  0
  9 27  2  0
 10 11  2  0
 10 23  1  0
 11 12  1  0
 12 13  2  0
 13 14  1  0
 13 22  1  0
 14 15  2  0
 14 19  1  0
 15 16  1  0
 16 17  2  0
 17 18  1  0
 18 19  2  0
 20 24  1  0
 23 33  1  0
 24 33  1  0
 28 33  2  0
 29 33  2  0
M  END
>  <DRUGBANK_ID>  (1) 
DB08614

>  <COMMON_NAME>  (1) 
3-[[(METHYLAMINO)SULFONYL]AMINO]-2-OXO-6-PHENYL-N-[3,3,3-TRIFLUORO-1-(1-METHYLETHYL)-2-OXOPHENYL]-1(2H)-PYRIDINE ACETAMIDE

$$$$
