HF1
     RDKit          3D

 17 17  0  0  0  0  0  0  0  0999 V2000
    1.0033   -0.0682   -0.0731 P   0  0  0  0  0  0  0  0  0  0  0  0
    0.9686    1.3623   -0.6193 O   0  0  0  0  0  0  0  0  0  0  0  0
    0.9848   -1.1450   -1.3020 O   0  0  0  0  0  0  0  0  0  0  0  0
   -0.7267   -0.0682   -0.0731 O   0  0  0  0  0  0  0  0  0  0  0  0
    3.5555   -0.8932    0.6893 C   0  0  0  0  0  0  0  0  0  0  0  0
    5.4625   -0.2624    2.2374 C   0  0  0  0  0  0  0  0  0  0  0  0
    2.4884   -0.0460    3.6831 C   0  0  0  0  0  0  0  0  0  0  0  0
    3.2158   -1.2436    3.7112 C   0  0  0  0  0  0  0  0  0  0  0  0
    2.5031   -2.4558    3.6513 C   0  0  0  0  0  0  0  0  0  0  0  0
    3.1530   -3.6598    3.5604 O   0  0  0  0  0  0  0  0  0  0  0  0
    1.1119   -2.4932    3.5751 C   0  0  0  0  0  0  0  0  0  0  0  0
    0.4008   -1.2929    3.5488 C   0  0  0  0  0  0  0  0  0  0  0  0
    1.0980   -0.0930    3.5949 C   0  0  0  0  0  0  0  0  0  0  0  0
    0.4093    1.0574    3.5010 F   0  0  0  0  0  0  0  0  0  0  0  0
    5.0100   -1.2834    3.7083 S   0  0  0  0  0  0  0  0  0  0  0  0
    5.0382   -0.8291    0.8722 C   0  0  0  0  0  0  0  0  0  0  0  0
    2.8333   -0.0682   -0.0731 C   0  0  0  0  0  0  0  0  0  0  0  0
  1  2  2  0
  1  3  1  0
  1  4  1  0
  1 17  1  0
  5 16  1  0
  5 17  2  0
  6 15  1  0
  6 16  1  0
  7  8  2  0
  7 13  1  0
  8  9  1  0
  8 15  1  0
  9 10  1  0
  9 11  2  0
 11 12  1  0
 12 13  2  0
 13 14  1  0
M  END
>  <DRUGBANK_ID>  (1) 
DB07894

>  <COMMON_NAME>  (1) 
4-(2-HYDROXY-4-FLUOROPHENYLTHIO)-BUTYLPHOSPHONIC ACID

$$$$
