
     RDKit          3D

 26 29  0  0  1  0  0  0  0  0999 V2000
    0.8444    0.0847    0.0604 O   0  0  0  0  0  0  0  0  0  0  0  0
    0.2719    1.3082   -0.0300 C   0  0  0  0  0  0  0  0  0  0  0  0
    0.9578    2.2951   -0.1666 O   0  0  0  0  0  0  0  0  0  0  0  0
   -1.2532    1.2734    0.0094 C   0  0  1  0  0  0  0  0  0  0  0  0
   -1.8053    0.0704    0.5635 O   0  0  0  0  0  0  0  0  0  0  0  0
   -2.4973    0.4878    1.7559 C   0  0  1  0  0  0  0  0  0  0  0  0
   -1.9133    1.7080    2.1855 O   0  0  0  0  0  0  0  0  0  0  0  0
   -1.7586    2.3744    0.9241 C   0  0  2  0  0  0  0  0  0  0  0  0
   -3.1020    2.8695    0.3712 C   0  0  0  0  0  0  0  0  0  0  0  0
   -3.1964    3.9295   -0.2385 O   0  0  0  0  0  0  0  0  0  0  0  0
   -4.1571    1.9756    0.5362 N   0  0  0  0  0  0  0  0  0  0  0  0
   -5.4458    2.2907   -0.0892 C   0  0  0  0  0  0  0  0  0  0  0  0
   -5.9526    1.2158   -1.0206 C   0  0  0  0  0  0  0  0  0  0  0  0
   -6.0659   -0.1177   -0.6142 C   0  0  0  0  0  0  0  0  0  0  0  0
   -6.6276   -1.1450   -1.3365 C   0  0  0  0  0  0  0  0  0  0  0  0
   -7.0727   -0.8475   -2.5932 C   0  0  0  0  0  0  0  0  0  0  0  0
   -6.9808    0.4703   -3.0622 C   0  0  0  0  0  0  0  0  0  0  0  0
   -6.4184    1.4994   -2.2901 C   0  0  0  0  0  0  0  0  0  0  0  0
   -3.9880    0.7681    1.4062 C   0  0  2  0  0  0  0  0  0  0  0  0
   -4.8806    0.8010    2.6957 C   0  0  0  0  0  0  0  0  0  0  0  0
   -6.3956    1.0153    2.5873 C   0  0  0  0  0  0  0  0  0  0  0  0
   -7.2550    0.0588    2.0236 C   0  0  0  0  0  0  0  0  0  0  0  0
   -8.5223    0.4142    1.5434 C   0  0  0  0  0  0  0  0  0  0  0  0
   -9.0683    1.6376    1.8920 C   0  0  0  0  0  0  0  0  0  0  0  0
   -8.3176    2.5172    2.6676 C   0  0  0  0  0  0  0  0  0  0  0  0
   -6.9694    2.2449    2.9459 C   0  0  0  0  0  0  0  0  0  0  0  0
  1  2  1  0
  2  3  2  0
  4  2  1  1
  4  5  1  0
  4  8  1  0
  6  5  1  6
  6  7  1  0
  6 19  1  0
  8  7  1  0
  8  9  1  6
  9 10  2  0
  9 11  1  0
 11 12  1  0
 12 13  1  0
 13 14  2  0
 13 18  1  0
 14 15  1  0
 15 16  2  0
 16 17  1  0
 17 18  2  0
 19 11  1  0
 19 20  1  1
 20 21  1  0
 21 22  2  0
 21 26  1  0
 22 23  1  0
 23 24  2  0
 24 25  1  0
 25 26  2  0
M  END
>  <DRUGBANK_ID>  (1) 
DB18013

>  <COMMON_NAME>  (1) 
Udonitrectag

>  <CAS_NUMBER>  (1) 
1458063-04-1

>  <UNII>  (1) 
2GOW9TT6AD

>  <SYNONYMS>  (1) 
(1s,4r,5r,7s)-2-oxo-3,4-bis(phenylmethyl)-6,8-dioxa-3-azabicyclo(3.2.1)octane-7-carboxylate; (1s,4r,5r,7s)-3, 4-dibenzyl-2-oxo-6, 8-dioxa-3-azabicyclo (3.2.1) octane-7-carboxylic acid; 3, 4-dibenzyl-2-oxo-6, 8-dioxa-3-azabicyclo (3.2.1) octane-7-carboxylic acid, (1s,4r,5r,7s)-; 6,8-dioxa-3-azabicyclo(3.2.1)octane-7-carboxylic acid, 2-oxo-3,4-bis(phenylmethyl)-, (1s,4r,5r,7s)-; Rec-0559 (nerve growth factor mimetic)

$$$$
