
     RDKit          3D

 12 11  0  0  1  0  0  0  0  0999 V2000
    0.9776   -0.0931   -0.3189 N   0  0  0  0  0  0  0  0  0  0  0  0
    0.3937   -1.3094    0.2717 C   0  0  1  0  0  0  0  0  0  0  0  0
    0.8048   -1.6558    1.7098 C   0  0  0  0  0  0  0  0  0  0  0  0
    0.4169   -0.4230    3.0991 S   0  0  0  0  0  0  0  0  0  0  0  0
    1.0103    1.2543    2.4733 C   0  0  0  0  0  0  0  0  0  0  0  0
    2.8403    1.2543    2.4733 P   0  0  0  0  0  0  0  0  0  0  0  0
    2.8718   -0.2458    1.8668 O   0  0  0  0  0  0  0  0  0  0  0  0
    2.7485    2.0432    1.0259 O   0  0  0  0  0  0  0  0  0  0  0  0
    4.3886    1.2543    2.4733 O   0  0  0  0  0  0  0  0  0  0  0  0
   -1.1313   -1.2335    0.2427 C   0  0  0  0  0  0  0  0  0  0  0  0
   -1.7241   -2.1422   -0.5570 O   0  0  0  0  0  0  0  0  0  0  0  0
   -1.7890   -0.4175    0.8898 O   0  0  0  0  0  0  0  0  0  0  0  0
  2  1  1  1
  2  3  1  0
  2 10  1  0
  3  4  1  0
  4  5  1  0
  5  6  1  0
  6  7  1  0
  6  8  1  0
  6  9  2  0
 10 11  1  0
 10 12  2  0
M  END
>  <DRUGBANK_ID>  (1) 
DB02461

>  <SECONDARY_ACCESSION_NUMBERS>  (1) 
EXPT01078

>  <COMMON_NAME>  (1) 
S-Methyl Phosphocysteine

>  <UNII>  (1) 
R021QK26O0

$$$$
