
     RDKit          3D

 31 32  0  0  0  0  0  0  0  0999 V2000
    1.4684   -0.8136    0.4761 C   0  0  0  0  0  0  0  0  0  0  0  0
    0.5639   -1.7818    0.0397 C   0  0  0  0  0  0  0  0  0  0  0  0
    0.8429    0.2036    1.1105 C   0  0  0  0  0  0  0  0  0  0  0  0
    2.9795   -0.9019    0.2552 C   0  0  0  0  0  0  0  0  0  0  0  0
   -0.8856   -1.5912    0.0162 C   0  0  0  0  0  0  0  0  0  0  0  0
   -0.5773    0.3850    0.9879 C   0  0  0  0  0  0  0  0  0  0  0  0
    3.8128    0.1627   -0.0439 O   0  0  0  0  0  0  0  0  0  0  0  0
    3.4587   -1.9983    0.2827 O   0  0  0  0  0  0  0  0  0  0  0  0
   -1.4573   -0.4062    0.3281 C   0  0  0  0  0  0  0  0  0  0  0  0
   -1.7918   -2.5656   -0.2441 O   0  0  0  0  0  0  0  0  0  0  0  0
    3.5581    1.5762   -0.1397 C   0  0  0  0  0  0  0  0  0  0  0  0
   -2.6690    0.1547    0.0409 O   0  0  0  0  0  0  0  0  0  0  0  0
   -1.2356   -3.8152    0.0510 C   0  0  0  0  0  0  0  0  0  0  0  0
    2.9011    1.9912   -1.4823 C   0  0  0  0  0  0  0  0  0  0  0  0
   -3.7340   -0.7195   -0.3023 C   0  0  0  0  0  0  0  0  0  0  0  0
    1.4734    1.5153   -1.8115 C   0  0  0  0  0  0  0  0  0  0  0  0
    0.2697    2.0749   -0.9883 C   0  0  0  0  0  0  0  0  0  0  0  0
   -0.2118    3.4088   -0.5907 N   0  0  0  0  0  0  0  0  0  0  0  0
   -0.9871    3.4902    0.8008 C   0  0  0  0  0  0  0  0  0  0  0  0
    0.9308    4.3128   -0.6620 C   0  0  0  0  0  0  0  0  0  0  0  0
   -0.3941    3.1765    2.4106 C   0  0  0  0  0  0  0  0  0  0  0  0
   -1.7394    4.8063    0.7075 C   0  0  0  0  0  0  0  0  0  0  0  0
    1.8937    3.9814    0.4126 C   0  0  0  0  0  0  0  0  0  0  0  0
    0.7036    4.0421    3.0654 C   0  0  0  0  0  0  0  0  0  0  0  0
    0.5374    5.4243    2.9180 C   0  0  0  0  0  0  0  0  0  0  0  0
    2.0203    3.5427    3.3059 C   0  0  0  0  0  0  0  0  0  0  0  0
    1.6481    6.2575    2.7674 C   0  0  0  0  0  0  0  0  0  0  0  0
    3.1327    4.4181    3.2451 C   0  0  0  0  0  0  0  0  0  0  0  0
    2.9465    5.7744    2.9414 C   0  0  0  0  0  0  0  0  0  0  0  0
    4.0735    6.5236    2.7147 O   0  0  0  0  0  0  0  0  0  0  0  0
    3.8410    7.9203    2.5179 C   0  0  0  0  0  0  0  0  0  0  0  0
  1  2  2  0
  1  3  1  0
  1  4  1  0
  2  5  1  0
  3  6  2  0
  4  7  1  0
  4  8  2  0
  5  9  2  0
  5 10  1  0
  6  9  1  0
  7 11  1  0
  9 12  1  0
 10 13  1  0
 11 14  1  0
 12 15  1  0
 14 16  1  0
 16 17  1  0
 17 18  1  0
 18 19  1  0
 18 20  1  0
 19 21  1  0
 19 22  1  0
 20 23  1  0
 21 24  1  0
 24 25  2  0
 24 26  1  0
 25 27  1  0
 26 28  2  0
 27 29  2  0
 28 29  1  0
 29 30  1  0
 30 31  1  0
M  END
>  <DRUGBANK_ID>  (1) 
DB12554

>  <COMMON_NAME>  (1) 
Mebeverine

>  <CAS_NUMBER>  (1) 
3625-06-7

>  <UNII>  (1) 
7F80CC3NNV

>  <SYNONYMS>  (1) 
Mebeverina; Mebeverine; Mebeverinum

$$$$
