
     RDKit          3D

 28 31  0  0  0  0  0  0  0  0999 V2000
    1.0833   -0.3731   -0.5570 O   0  0  0  0  0  0  0  0  0  0  0  0
    0.4576    0.2986   -1.5476 C   0  0  0  0  0  0  0  0  0  0  0  0
    1.0580    1.1649   -2.1651 O   0  0  0  0  0  0  0  0  0  0  0  0
   -1.0442    0.0928   -1.6154 C   0  0  0  0  0  0  0  0  0  0  0  0
   -1.7282   -1.1647   -1.2128 C   0  0  0  0  0  0  0  0  0  0  0  0
   -1.3197   -1.5645    0.2193 C   0  0  0  0  0  0  0  0  0  0  0  0
   -1.7550   -0.7036    1.4328 C   0  0  0  0  0  0  0  0  0  0  0  0
   -2.2886   -1.2993    2.5723 C   0  0  0  0  0  0  0  0  0  0  0  0
   -2.4743   -0.3310    3.5828 C   0  0  0  0  0  0  0  0  0  0  0  0
   -2.0904    0.9030    3.0573 C   0  0  0  0  0  0  0  0  0  0  0  0
   -2.2237    2.0582    3.8401 C   0  0  0  0  0  0  0  0  0  0  0  0
   -2.6405    1.9759    5.1585 C   0  0  0  0  0  0  0  0  0  0  0  0
   -3.0143    0.7579    5.6839 C   0  0  0  0  0  0  0  0  0  0  0  0
   -3.5914    0.6956    7.2993 Cl  0  0  0  0  0  0  0  0  0  0  0  0
   -2.9541   -0.4013    4.9084 C   0  0  0  0  0  0  0  0  0  0  0  0
   -1.6283    0.6802    1.7687 N   0  0  0  0  0  0  0  0  0  0  0  0
   -1.0122    1.9693    0.8041 S   0  0  0  0  0  0  0  0  0  0  0  0
    0.4072    1.6673    0.6200 O   0  0  0  0  0  0  0  0  0  0  0  0
   -1.9918    2.1748   -0.2361 O   0  0  0  0  0  0  0  0  0  0  0  0
   -0.9319    3.5367    1.4591 C   0  0  0  0  0  0  0  0  0  0  0  0
   -1.6396    4.5079    0.7469 C   0  0  0  0  0  0  0  0  0  0  0  0
   -1.5499    5.7735    1.2458 C   0  0  0  0  0  0  0  0  0  0  0  0
   -0.7842    6.0718    2.3714 C   0  0  0  0  0  0  0  0  0  0  0  0
   -0.0167    5.0582    2.9985 C   0  0  0  0  0  0  0  0  0  0  0  0
   -0.0484    3.7804    2.4892 C   0  0  0  0  0  0  0  0  0  0  0  0
   -0.8796    7.3880    2.7519 N   0  0  0  0  0  0  0  0  0  0  0  0
   -1.6559    8.0281    1.9049 C   0  0  0  0  0  0  0  0  0  0  0  0
   -2.3348    7.1489    0.6198 S   0  0  0  0  0  0  0  0  0  0  0  0
  1  2  1  0
  2  3  2  0
  2  4  1  0
  4  5  1  0
  5  6  1  0
  6  7  1  0
  7  8  2  0
  7 16  1  0
  8  9  1  0
  9 10  2  0
  9 15  1  0
 10 11  1  0
 10 16  1  0
 11 12  2  0
 12 13  1  0
 13 14  1  0
 13 15  2  0
 16 17  1  0
 17 18  2  0
 17 19  2  0
 17 20  1  0
 20 21  2  0
 20 25  1  0
 21 22  1  0
 22 23  2  0
 22 28  1  0
 23 24  1  0
 23 26  1  0
 24 25  2  0
 26 27  2  0
 27 28  1  0
M  END
>  <DRUGBANK_ID>  (1) 
DB14801

>  <COMMON_NAME>  (1) 
Lanifibranor

>  <CAS_NUMBER>  (1) 
927961-18-0

>  <UNII>  (1) 
28Q8AG0PYL

>  <SYNONYMS>  (1) 
Lanifibranor

$$$$
