
     RDKit          3D

 36 40  0  0  0  0  0  0  0  0999 V2000
    1.4556   -0.2905    0.0086 C   0  0  0  0  0  0  0  0  0  0  0  0
   -4.3154    2.7806    3.2645 C   0  0  0  0  0  0  0  0  0  0  0  0
    0.5441   -1.3497    0.0172 C   0  0  0  0  0  0  0  0  0  0  0  0
    1.0068    1.0178   -0.0205 C   0  0  0  0  0  0  0  0  0  0  0  0
   -3.3658    3.3476    2.4320 C   0  0  0  0  0  0  0  0  0  0  0  0
   -4.8252    1.5039    3.0065 C   0  0  0  0  0  0  0  0  0  0  0  0
   -2.4113   -1.0388   -8.1219 C   0  0  0  0  0  0  0  0  0  0  0  0
   -6.1842   -3.2929   -7.8955 C   0  0  0  0  0  0  0  0  0  0  0  0
   -0.8277   -1.1041    0.0232 C   0  0  0  0  0  0  0  0  0  0  0  0
   -0.3493    1.2591    0.0249 C   0  0  0  0  0  0  0  0  0  0  0  0
   -2.9307    2.6289    1.3484 C   0  0  0  0  0  0  0  0  0  0  0  0
   -4.2998    0.7364    1.9782 C   0  0  0  0  0  0  0  0  0  0  0  0
   -6.2006   -1.8817   -7.7229 C   0  0  0  0  0  0  0  0  0  0  0  0
   -2.9994   -2.2184   -7.6653 C   0  0  0  0  0  0  0  0  0  0  0  0
   -2.9883    0.1913   -7.8033 C   0  0  0  0  0  0  0  0  0  0  0  0
   -5.7505   -3.8875   -6.7610 C   0  0  0  0  0  0  0  0  0  0  0  0
   -5.1607   -1.4414   -2.5839 C   0  0  0  0  0  0  0  0  0  0  0  0
   -3.4786   -0.7472   -4.1677 C   0  0  0  0  0  0  0  0  0  0  0  0
   -5.0335   -0.0999   -1.8785 C   0  0  0  0  0  0  0  0  0  0  0  0
   -3.2653    0.5747   -3.4454 C   0  0  0  0  0  0  0  0  0  0  0  0
   -5.9539   -0.5495   -4.6643 C   0  0  0  0  0  0  0  0  0  0  0  0
   -4.9496    1.5901   -5.6328 C   0  0  0  0  0  0  0  0  0  0  0  0
   -1.2863    0.2164    0.0570 C   0  0  0  0  0  0  0  0  0  0  0  0
   -3.3286    1.3008    1.1547 C   0  0  0  0  0  0  0  0  0  0  0  0
   -6.1396    0.9677   -4.8585 C   0  0  0  0  0  0  0  0  0  0  0  0
   -4.9513   -1.2186   -7.4612 C   0  0  0  0  0  0  0  0  0  0  0  0
   -4.1555   -2.2190   -6.9671 C   0  0  0  0  0  0  0  0  0  0  0  0
   -4.3248    0.1398   -7.4054 C   0  0  0  0  0  0  0  0  0  0  0  0
   -2.7648    0.5280    0.0132 C   0  0  0  0  0  0  0  0  0  0  0  0
   -3.0551    1.2845   -1.2637 C   0  0  0  0  0  0  0  0  0  0  0  0
   -4.5927   -3.3829   -6.3489 N   0  0  0  0  0  0  0  0  0  0  0  0
   -4.8537   -1.2638   -3.9988 N   0  0  0  0  0  0  0  0  0  0  0  0
   -3.6788    0.4133   -2.1116 N   0  0  0  0  0  0  0  0  0  0  0  0
   -7.3089    1.2204   -5.6597 O   0  0  0  0  0  0  0  0  0  0  0  0
   -2.6216    2.3582   -1.6069 O   0  0  0  0  0  0  0  0  0  0  0  0
   -4.9963    1.3230   -7.0719 O   0  0  0  0  0  0  0  0  0  0  0  0
  3  1  2  0
  4  1  1  0
  5  2  2  0
  6  2  1  0
  9  3  1  0
 10  4  2  0
 11  5  1  0
 12  6  2  0
 13  8  2  0
 14  7  2  0
 15  7  1  0
 16  8  1  0
 19 17  1  0
 20 18  1  0
 23  9  2  0
 23 10  1  0
 24 11  2  0
 24 12  1  0
 25 21  1  0
 25 22  1  0
 26 13  1  0
 27 14  1  0
 27 26  2  0
 28 15  2  0
 28 26  1  0
 29 23  1  0
 29 24  1  0
 30 29  1  0
 31 16  2  0
 31 27  1  0
 32 17  1  0
 32 18  1  0
 32 21  1  0
 33 19  1  0
 33 20  1  0
 33 30  1  0
 34 25  1  0
 35 30  2  0
 36 22  1  0
 36 28  1  0
M  END
>  <DRUGBANK_ID>  (1) 
DB14067

>  <COMMON_NAME>  (1) 
Dofequidar

>  <CAS_NUMBER>  (1) 
129716-58-1

>  <UNII>  (1) 
0BJK6B565B

>  <SYNONYMS>  (1) 
Dofequidar

$$$$
