
     RDKit          3D

 26 28  0  0  0  0  0  0  0  0999 V2000
   -0.3404   -1.2574   -0.0407 C   0  0  0  0  0  0  0  0  0  0  0  0
    0.9512   -0.6952    0.0126 N   0  0  0  0  0  0  0  0  0  0  0  0
    0.9182    0.6598    0.1417 N   0  0  0  0  0  0  0  0  0  0  0  0
   -1.1878   -0.1619   -0.0346 C   0  0  0  0  0  0  0  0  0  0  0  0
   -0.3680    0.9998    0.0305 C   0  0  0  0  0  0  0  0  0  0  0  0
   -0.7157   -2.6276   -0.0751 N   0  0  0  0  0  0  0  0  0  0  0  0
    0.1433   -3.6260    0.3489 C   0  0  0  0  0  0  0  0  0  0  0  0
   -0.7670    2.4763    0.0166 C   0  0  0  0  0  0  0  0  0  0  0  0
   -0.1842   -4.9213   -0.0224 N   0  0  0  0  0  0  0  0  0  0  0  0
    2.2158   -1.2998   -0.1658 C   0  0  0  0  0  0  0  0  0  0  0  0
    1.1653   -3.3658    0.9734 O   0  0  0  0  0  0  0  0  0  0  0  0
    0.7464   -6.0081    0.0805 C   0  0  0  0  0  0  0  0  0  0  0  0
    2.6035   -8.1362    0.2339 C   0  0  0  0  0  0  0  0  0  0  0  0
    3.7564   -9.4095    0.3078 Cl  0  0  0  0  0  0  0  0  0  0  0  0
    1.8688   -5.9614    0.9251 C   0  0  0  0  0  0  0  0  0  0  0  0
    0.5719   -7.1619   -0.6934 C   0  0  0  0  0  0  0  0  0  0  0  0
    1.4902   -8.2284   -0.6018 C   0  0  0  0  0  0  0  0  0  0  0  0
    2.7948   -7.0022    1.0008 C   0  0  0  0  0  0  0  0  0  0  0  0
   -0.2208    3.2044    1.2630 C   0  0  0  0  0  0  0  0  0  0  0  0
   -0.2152    3.1934   -1.2373 C   0  0  0  0  0  0  0  0  0  0  0  0
   -2.3007    2.6317    0.0077 C   0  0  0  0  0  0  0  0  0  0  0  0
    2.4288   -2.1579   -1.2502 C   0  0  0  0  0  0  0  0  0  0  0  0
    3.1634   -1.1856    0.8643 C   0  0  0  0  0  0  0  0  0  0  0  0
    4.3265   -1.9541    0.8072 C   0  0  0  0  0  0  0  0  0  0  0  0
    3.5772   -2.9462   -1.2770 C   0  0  0  0  0  0  0  0  0  0  0  0
    4.5219   -2.8446   -0.2521 C   0  0  0  0  0  0  0  0  0  0  0  0
  2  1  1  0
  3  2  1  0
  3  5  2  0
  4  1  2  0
  5  4  1  0
  6  1  1  0
  7  6  1  0
  8  5  1  0
  9  7  1  0
 10  2  1  0
 11  7  2  0
 12  9  1  0
 13 17  2  0
 13 18  1  0
 14 13  1  0
 15 12  1  0
 16 12  2  0
 17 16  1  0
 18 15  2  0
 19  8  1  0
 20  8  1  0
 21  8  1  0
 22 10  2  0
 23 10  1  0
 24 23  2  0
 25 22  1  0
 26 24  1  0
 26 25  2  0
M  END
>  <DRUGBANK_ID>  (1) 
DB01807

>  <SECONDARY_ACCESSION_NUMBERS>  (1) 
EXPT01987

>  <COMMON_NAME>  (1) 
N-[(3Z)-5-Tert-butyl-2-phenyl-1,2-dihydro-3H-pyrazol-3-ylidene]-N'-(4-chlorophenyl)urea

$$$$
