
     RDKit          3D

 41 45  0  0  1  0  0  0  0  0999 V2000
    0.8810    0.1118   -0.0462 O   0  0  0  0  0  0  0  0  0  0  0  0
    0.2719   -1.0892   -0.1055 C   0  0  0  0  0  0  0  0  0  0  0  0
    0.9558   -2.0959   -0.1808 O   0  0  0  0  0  0  0  0  0  0  0  0
   -1.2614   -1.0488    0.0428 C   0  0  0  0  0  0  0  0  0  0  0  0
   -1.8230   -0.3651    1.2320 N   0  0  0  0  0  0  0  0  0  0  0  0
   -1.8970    1.0415    1.2805 C   0  0  0  0  0  0  0  0  0  0  0  0
   -2.9864    1.6373    0.6436 C   0  0  0  0  0  0  0  0  0  0  0  0
   -3.2191    3.0007    0.7836 C   0  0  0  0  0  0  0  0  0  0  0  0
   -2.3509    3.7743    1.5500 C   0  0  0  0  0  0  0  0  0  0  0  0
   -1.2635    3.1827    2.2037 C   0  0  0  0  0  0  0  0  0  0  0  0
   -1.0405    1.8029    2.1044 C   0  0  0  0  0  0  0  0  0  0  0  0
    0.0436    1.1467    2.9175 C   0  0  0  0  0  0  0  0  0  0  0  0
   -0.6160    0.2341    3.9742 C   0  0  0  0  0  0  0  0  0  0  0  0
   -1.0536   -1.1262    3.3901 C   0  0  2  0  0  0  0  0  0  0  0  0
   -0.0824   -1.9089    2.6439 N   0  0  0  0  0  0  0  0  0  0  0  0
    0.2327   -3.2407    2.7206 C   0  0  0  0  0  0  0  0  0  0  0  0
    0.8797   -3.8024    1.8322 O   0  0  0  0  0  0  0  0  0  0  0  0
    0.0010   -3.9136    4.0425 C   0  0  0  0  0  0  0  0  0  0  0  0
    0.6100   -3.1239    5.2537 C   0  0  0  0  0  0  0  0  0  0  0  0
    2.2588   -2.8394    5.0611 C   0  0  1  0  0  0  0  0  0  0  0  0
    2.3827   -1.9325    3.3531 C   0  0  0  0  0  0  0  0  0  0  0  0
    2.2304   -0.6009    3.7951 C   0  0  0  0  0  0  0  0  0  0  0  0
    3.1459   -1.1622    4.8334 C   0  0  0  0  0  0  0  0  0  0  0  0
    4.0882   -2.7027    4.2181 C   0  0  0  0  0  0  0  0  0  0  0  0
    4.2302   -3.9725    5.0801 C   0  0  0  0  0  0  0  0  0  0  0  0
    3.0147   -4.1617    6.3792 C   0  0  0  0  0  0  0  0  0  0  0  0
    2.1525   -2.7893    7.1590 C   0  0  0  0  0  0  0  0  0  0  0  0
    2.0051   -2.9708    8.4833 C   0  0  0  0  0  0  0  0  0  0  0  0
    1.8470   -1.8933    9.3273 C   0  0  0  0  0  0  0  0  0  0  0  0
    1.8317   -0.5449    8.9005 C   0  0  0  0  0  0  0  0  0  0  0  0
    2.0402   -0.1493    7.5287 C   0  0  0  0  0  0  0  0  0  0  0  0
    2.2075   -1.1613    6.4467 C   0  0  0  0  0  0  0  0  0  0  0  0
    3.8989   -2.2703    6.3460 C   0  0  0  0  0  0  0  0  0  0  0  0
    4.6262   -3.0887    7.3316 O   0  0  0  0  0  0  0  0  0  0  0  0
    4.4709   -1.1340    6.5311 O   0  0  0  0  0  0  0  0  0  0  0  0
    0.4627   -5.3910    3.8918 C   0  0  0  0  0  0  0  0  0  0  0  0
   -0.4547   -6.1903    4.7894 C   0  0  0  0  0  0  0  0  0  0  0  0
   -1.6252   -5.2809    5.1143 C   0  0  0  0  0  0  0  0  0  0  0  0
   -1.4864   -4.0731    4.2333 C   0  0  0  0  0  0  0  0  0  0  0  0
   -2.1790   -1.0344    2.3982 C   0  0  0  0  0  0  0  0  0  0  0  0
   -3.3109   -1.4229    2.6727 O   0  0  0  0  0  0  0  0  0  0  0  0
  1  2  1  0
  2  3  2  0
  2  4  1  0
  4  5  1  0
  5  6  1  0
  5 40  1  0
  6  7  2  0
  6 11  1  0
  7  8  1  0
  8  9  2  0
  9 10  1  0
 10 11  2  0
 11 12  1  0
 12 13  1  0
 14 13  1  0
 14 15  1  6
 14 40  1  0
 15 16  1  0
 16 17  2  0
 16 18  1  0
 18 19  1  0
 18 36  1  0
 18 39  1  0
 20 19  1  1
 20 21  1  0
 20 33  1  0
 21 22  1  0
 22 23  1  0
 23 24  2  0
 23 32  1  0
 24 25  1  0
 25 26  2  0
 26 27  1  0
 27 28  1  0
 27 32  2  0
 28 29  2  0
 29 30  1  0
 30 31  2  0
 31 32  1  0
 33 34  1  0
 33 35  2  0
 36 37  1  0
 37 38  1  0
 38 39  1  0
 40 41  2  0
M  END
>  <DRUGBANK_ID>  (1) 
DB15356

>  <COMMON_NAME>  (1) 
SLV-334

>  <CAS_NUMBER>  (1) 
182821-33-6

>  <UNII>  (1) 
3613ZP748K

$$$$
