GF1
     RDKit          3D

 17 19  0  0  0  0  0  0  0  0999 V2000
    1.0065   -0.0594   -0.2126 O   0  0  0  0  0  0  0  0  0  0  0  0
    2.2308   -0.0296   -0.1698 C   0  0  0  0  0  0  0  0  0  0  0  0
    3.0294   -0.9075    0.5143 N   0  0  0  0  0  0  0  0  0  0  0  0
    2.4553   -1.9647    1.3544 C   0  0  2  0  0  0  0  0  0  0  0  0
    1.6432   -1.3485    2.5114 C   0  0  0  0  0  0  0  0  0  0  0  0
    0.3456   -1.7359    2.5711 O   0  0  0  0  0  0  0  0  0  0  0  0
    2.1080   -0.5781    3.3425 O   0  0  0  0  0  0  0  0  0  0  0  0
    3.5194   -2.8528    1.9956 C   0  0  0  0  0  0  0  0  0  0  0  0
    3.0896    1.0523   -0.7700 C   0  0  2  0  0  0  0  0  0  0  0  0
    4.5212    0.6164   -0.4381 C   0  0  2  0  0  0  0  0  0  0  0  0
    4.3620   -0.6546    0.3259 C   0  0  0  0  0  0  0  0  0  0  0  0
    5.3309   -1.2840    0.7372 O   0  0  0  0  0  0  0  0  0  0  0  0
    2.9877    2.4170   -0.0530 C   0  0  1  0  0  0  0  0  0  0  0  0
    2.9268    2.2171    1.4764 C   0  0  0  0  0  0  0  0  0  0  0  0
    4.3512    1.7590    1.8228 C   0  0  0  0  0  0  0  0  0  0  0  0
    4.4072    2.9700   -0.2264 C   0  0  0  0  0  0  0  0  0  0  0  0
    5.0555    1.7618    0.4465 C   0  0  2  0  0  0  0  0  0  0  0  0
  1  2  2  0
  9  2  1  1
  3  2  1  0
  3 11  1  0
  4  3  1  0
  4  5  1  0
  4  8  1  1
  5  6  1  0
  7  5  2  0
 10  9  1  0
 10 11  1  1
 12 11  2  0
 13  9  1  0
 13 16  1  0
 13 14  1  1
 15 14  1  0
 17 15  1  1
 17 10  1  0
 17 16  1  0
M  END
>  <DRUGBANK_ID>  (1) 
DB07823

>  <COMMON_NAME>  (1) 
(2S)-2-[(3aR,4R,7S,7aS)-1,3-dioxooctahydro-2H-4,7-methanoisoindol-2-yl]propanoic acid

$$$$
