
     RDKit          3D

 39 42  0  0  0  0  0  0  0  0999 V2000
    1.0566   -0.0141   -0.1079 C   0  0  0  0  0  0  0  0  0  0  0  0
    0.6087   -0.4264    1.2502 C   0  0  0  0  0  0  0  0  0  0  0  0
    0.6235   -1.6975    1.6806 C   0  0  0  0  0  0  0  0  0  0  0  0
    1.0628   -2.8317    0.8230 C   0  0  0  0  0  0  0  0  0  0  0  0
    0.1964   -2.0547    3.0566 C   0  0  0  0  0  0  0  0  0  0  0  0
    0.4925   -3.1130    3.5736 O   0  0  0  0  0  0  0  0  0  0  0  0
   -0.6727   -1.0697    3.7329 C   0  0  0  0  0  0  0  0  0  0  0  0
   -1.3439   -1.5547    4.9870 C   0  0  0  0  0  0  0  0  0  0  0  0
   -0.8229   -0.7981    6.2154 C   0  0  0  0  0  0  0  0  0  0  0  0
   -1.1085    0.7017    6.1194 C   0  0  0  0  0  0  0  0  0  0  0  0
   -2.6136    0.9039    5.8540 C   0  0  0  0  0  0  0  0  0  0  0  0
   -3.4060    0.2990    7.0257 C   0  0  0  0  0  0  0  0  0  0  0  0
   -2.9569    0.9358    8.3200 C   0  0  0  0  0  0  0  0  0  0  0  0
   -3.1940    2.3942    8.1346 C   0  0  0  0  0  0  0  0  0  0  0  0
   -4.6882    2.7132    7.8624 C   0  0  0  0  0  0  0  0  0  0  0  0
   -5.4541    2.4220    9.1171 C   0  0  0  0  0  0  0  0  0  0  0  0
   -4.9918    3.3513   10.2562 C   0  0  0  0  0  0  0  0  0  0  0  0
   -5.1996    5.1859   10.0208 P   0  0  0  0  0  0  0  0  0  0  0  0
   -6.9756    5.4302    9.8413 C   0  0  0  0  0  0  0  0  0  0  0  0
   -7.8998    4.3749    9.8738 C   0  0  0  0  0  0  0  0  0  0  0  0
   -9.2703    4.5761    9.7344 C   0  0  0  0  0  0  0  0  0  0  0  0
   -9.7638    5.8663    9.6828 C   0  0  0  0  0  0  0  0  0  0  0  0
   -8.8806    6.9366    9.7396 C   0  0  0  0  0  0  0  0  0  0  0  0
   -7.5038    6.7167    9.7564 C   0  0  0  0  0  0  0  0  0  0  0  0
   -4.6921    5.9798   11.5501 C   0  0  0  0  0  0  0  0  0  0  0  0
   -4.7162    7.3792   11.5917 C   0  0  0  0  0  0  0  0  0  0  0  0
   -4.5383    8.0932   12.7654 C   0  0  0  0  0  0  0  0  0  0  0  0
   -4.3200    7.4064   13.9455 C   0  0  0  0  0  0  0  0  0  0  0  0
   -4.2484    6.0132   13.9310 C   0  0  0  0  0  0  0  0  0  0  0  0
   -4.3811    5.3016   12.7311 C   0  0  0  0  0  0  0  0  0  0  0  0
   -4.2788    5.9793    8.6651 C   0  0  0  0  0  0  0  0  0  0  0  0
   -4.3918    7.2741    8.2129 C   0  0  0  0  0  0  0  0  0  0  0  0
   -3.6265    7.7484    7.1201 C   0  0  0  0  0  0  0  0  0  0  0  0
   -2.7896    6.9171    6.3739 C   0  0  0  0  0  0  0  0  0  0  0  0
   -2.6261    5.6385    6.8084 C   0  0  0  0  0  0  0  0  0  0  0  0
   -3.3057    5.2947    7.9718 C   0  0  0  0  0  0  0  0  0  0  0  0
   -0.7662    0.1658    3.2212 C   0  0  0  0  0  0  0  0  0  0  0  0
    0.0768    0.6411    2.1189 C   0  0  0  0  0  0  0  0  0  0  0  0
    0.2575    1.8247    1.9366 O   0  0  0  0  0  0  0  0  0  0  0  0
  1  2  1  0
  2  3  2  0
  2 38  1  0
  3  4  1  0
  3  5  1  0
  5  6  2  0
  5  7  1  0
  7  8  1  0
  7 37  2  0
  8  9  1  0
  9 10  1  0
 10 11  1  0
 11 12  1  0
 12 13  1  0
 13 14  1  0
 14 15  1  0
 15 16  1  0
 16 17  1  0
 17 18  1  0
 18 19  1  0
 18 25  1  0
 18 31  1  0
 19 20  2  0
 19 24  1  0
 20 21  1  0
 21 22  2  0
 22 23  1  0
 23 24  2  0
 25 26  2  0
 25 30  1  0
 26 27  1  0
 27 28  2  0
 28 29  1  0
 29 30  2  0
 31 32  2  0
 31 36  1  0
 32 33  1  0
 33 34  2  0
 34 35  1  0
 35 36  2  0
 37 38  1  0
 38 39  2  0
M  CHG  1  18   1
M  END
>  <DRUGBANK_ID>  (1) 
DB18089

>  <COMMON_NAME>  (1) 
Visometin cation

>  <CAS_NUMBER>  (1) 
934960-96-0

>  <UNII>  (1) 
207SW1QYQC

>  <SYNONYMS>  (1) 
(10-(4,5-dimethyl-3,6-dioxo-1,4-cyclohexadien-1-yl)decyl)triphenylphosphonium; Phosphonium, (10-(4,5-dimethyl-3,6-dioxo-1,4-cyclohexadien-1-yl)decyl)triphenyl-; Skq-1 cation; Skq-1 ion

$$$$
