
     RDKit          3D

 11 11  0  0  0  0  0  0  0  0999 V2000
    1.4248   -0.2817    0.0086 C   0  0  0  0  0  0  0  0  0  0  0  0
    0.5211   -1.3458    0.0255 C   0  0  0  0  0  0  0  0  0  0  0  0
   -0.8581   -1.1095   -0.0203 C   0  0  0  0  0  0  0  0  0  0  0  0
   -1.3383    0.1985   -0.1358 C   0  0  0  0  0  0  0  0  0  0  0  0
   -0.4076    1.2395   -0.2503 C   0  0  0  0  0  0  0  0  0  0  0  0
    0.9578    1.0166   -0.1291 C   0  0  0  0  0  0  0  0  0  0  0  0
   -2.8138    0.5203   -0.1708 C   0  0  0  0  0  0  0  0  0  0  0  0
   -3.3404    1.2888    1.0497 C   0  0  0  0  0  0  0  0  0  0  0  0
   -2.7744    2.6789    1.2317 C   0  0  0  0  0  0  0  0  0  0  0  0
   -3.2841    3.7143    0.8510 O   0  0  0  0  0  0  0  0  0  0  0  0
   -1.5577    2.6866    1.8142 O   0  0  0  0  0  0  0  0  0  0  0  0
  1  2  2  0
  1  6  1  0
  2  3  1  0
  3  4  2  0
  4  5  1  0
  4  7  1  0
  5  6  2  0
  7  8  1  0
  8  9  1  0
  9 10  2  0
  9 11  1  0
M  END
>  <DRUGBANK_ID>  (1) 
DB02024

>  <SECONDARY_ACCESSION_NUMBERS>  (1) 
EXPT01708

>  <COMMON_NAME>  (1) 
3-phenylpropionic acid

>  <CAS_NUMBER>  (1) 
501-52-0

>  <UNII>  (1) 
5Q445IN5CU

>  <SYNONYMS>  (1) 
3-phenyl-propionic acid; 3-phenylpropanoic acid; 3-phenylpropionic acid; 3-Phenylpropions√§ure; 3PP; beta-Phenylpropionic acid; Hydrocinnamic acid; Phenylpropanoate

$$$$
