
     RDKit          3D

 36 41  0  0  1  0  0  0  0  0999 V2000
    2.4749   -0.0451   -0.0117 C   0  0  0  0  0  0  0  0  0  0  0  0
    0.9861    0.0411   -0.0411 C   0  0  0  0  0  0  0  0  0  0  0  0
    0.2927   -1.1247   -0.1669 C   0  0  0  0  0  0  0  0  0  0  0  0
   -1.0805   -1.0965   -0.3151 C   0  0  0  0  0  0  0  0  0  0  0  0
   -1.7710    0.1131   -0.1732 C   0  0  0  0  0  0  0  0  0  0  0  0
   -0.9880    1.2509   -0.0167 C   0  0  0  0  0  0  0  0  0  0  0  0
    0.3702    1.2400    0.0283 N   0  0  0  0  0  0  0  0  0  0  0  0
   -1.5634   -2.4237   -0.5712 C   0  0  0  0  0  0  0  0  0  0  0  0
   -1.0051   -3.5731   -0.1849 N   0  0  0  0  0  0  0  0  0  0  0  0
   -1.8839   -4.5570   -0.5391 C   0  0  0  0  0  0  0  0  0  0  0  0
   -2.7016   -3.9025   -1.4935 C   0  0  0  0  0  0  0  0  0  0  0  0
   -2.5274   -2.5441   -1.4835 O   0  0  0  0  0  0  0  0  0  0  0  0
   -2.0481   -5.8942    0.3220 C   0  0  0  0  0  0  0  0  0  0  0  0
   -2.7044   -6.8543   -0.0196 O   0  0  0  0  0  0  0  0  0  0  0  0
   -1.5494   -6.0116    1.7132 N   0  0  0  0  0  0  0  0  0  0  0  0
   -1.7535   -4.9966    2.7917 C   0  0  0  0  0  0  0  0  0  0  0  0
   -3.0789   -5.2784    3.2743 C   0  0  0  0  0  0  0  0  0  0  0  0
   -3.9768   -4.9928    2.2075 C   0  0  0  0  0  0  0  0  0  0  0  0
   -4.8234   -5.7671    1.2887 O   0  0  0  0  0  0  0  0  0  0  0  0
   -4.8561   -4.9995   -0.0004 C   0  0  0  0  0  0  0  0  0  0  0  0
   -4.3923   -3.7819    0.2985 N   0  0  0  0  0  0  0  0  0  0  0  0
   -3.6913   -3.8156    1.5327 C   0  0  0  0  0  0  0  0  0  0  0  0
   -2.5956   -3.0238    1.9121 N   0  0  0  0  0  0  0  0  0  0  0  0
   -1.5349   -3.6444    2.5410 C   0  0  0  0  0  0  0  0  0  0  0  0
   -0.4296   -2.8922    3.0153 N   0  0  0  0  0  0  0  0  0  0  0  0
   -0.5589   -1.4178    3.0441 C   0  0  0  0  0  0  0  0  0  0  0  0
    0.8084   -0.8222    3.4310 C   0  0  0  0  0  0  0  0  0  0  0  0
    1.4131   -1.9205    4.2730 C   0  0  1  0  0  0  0  0  0  0  0  0
    0.8568   -1.8494    5.5871 O   0  0  0  0  0  0  0  0  0  0  0  0
    0.9457   -3.2248    3.5261 C   0  0  0  0  0  0  0  0  0  0  0  0
   -5.3132   -5.5705   -1.3137 N   0  0  0  0  0  0  0  0  0  0  0  0
   -4.7166   -5.5514   -2.8589 C   0  0  0  0  0  0  0  0  0  0  0  0
   -5.3441   -4.4789   -3.8454 C   0  0  0  0  0  0  0  0  0  0  0  0
   -6.7673   -4.5711   -3.8294 O   0  0  0  0  0  0  0  0  0  0  0  0
   -7.2207   -4.3704   -2.4864 C   0  0  0  0  0  0  0  0  0  0  0  0
   -6.7729   -5.4914   -1.5126 C   0  0  0  0  0  0  0  0  0  0  0  0
  1  2  1  0
  2  3  2  0
  2  7  1  0
  3  4  1  0
  4  5  2  0
  4  8  1  0
  5  6  1  0
  6  7  2  0
  8  9  2  0
  8 12  1  0
  9 10  1  0
 10 11  2  0
 10 13  1  0
 11 12  1  0
 13 14  2  0
 13 15  1  0
 15 16  1  0
 16 17  2  0
 16 24  1  0
 17 18  1  0
 18 19  1  0
 18 22  2  0
 19 20  1  0
 20 21  2  0
 20 31  1  0
 21 22  1  0
 22 23  1  0
 23 24  2  0
 24 25  1  0
 25 26  1  0
 25 30  1  0
 26 27  1  0
 28 27  1  0
 28 29  1  1
 28 30  1  0
 31 32  1  0
 31 36  1  0
 32 33  1  0
 33 34  1  0
 34 35  1  0
 35 36  1  0
M  END
>  <DRUGBANK_ID>  (1) 
DB18060

>  <COMMON_NAME>  (1) 
Emavusertib

>  <CAS_NUMBER>  (1) 
1801344-14-8

>  <UNII>  (1) 
MH5DMF9JKY

>  <SYNONYMS>  (1) 
4-oxazolecarboxamide, n-(5-((3r)-3-hydroxy-1-pyrrolidinyl)-2-(4-morpholinyl)oxazolo(4,5-b)pyridin-6-yl)-2-(2-methyl-4-pyridinyl)-

$$$$
