
     RDKit          3D

 14 14  0  0  0  0  0  0  0  0999 V2000
    0.7674    1.1367   -0.0084 C   0  0  0  0  0  0  0  0  0  0  0  0
    0.3600   -1.3566   -0.0686 C   0  0  0  0  0  0  0  0  0  0  0  0
    2.3819   -0.3852   -1.0730 C   0  0  0  0  0  0  0  0  0  0  0  0
   -0.5512    1.3546   -0.0319 C   0  0  0  0  0  0  0  0  0  0  0  0
   -0.9596   -1.1265   -0.0497 C   0  0  0  0  0  0  0  0  0  0  0  0
    3.5502    0.5917   -0.9177 C   0  0  0  0  0  0  0  0  0  0  0  0
    1.3637   -0.2475    0.0634 C   0  0  1  0  0  0  0  0  0  0  0  0
   -1.5441    0.2484    0.1300 C   0  0  1  0  0  0  0  0  0  0  0  0
    4.2248    0.4821    0.4564 C   0  0  1  0  0  0  0  0  0  0  0  0
    4.8946   -0.8899    0.6381 C   0  0  0  0  0  0  0  0  0  0  0  0
   -2.0597    0.3596    1.4879 N   0  0  0  0  0  0  0  0  0  0  0  0
    5.2133    1.5735    0.5658 N   0  0  0  0  0  0  0  0  0  0  0  0
    6.0999   -1.0983    0.7275 O   0  0  0  0  0  0  0  0  0  0  0  0
    4.0237   -1.9180    0.6884 O   0  0  0  0  0  0  0  0  0  0  0  0
  4  1  2  0
  5  2  2  0
  6  3  1  0
  7  1  1  0
  7  2  1  0
  7  3  1  6
  8  4  1  0
  8  5  1  0
  9  6  1  0
  9 10  1  0
  9 12  1  6
  8 11  1  1
 13 10  2  0
 14 10  1  0
M  END
>  <DRUGBANK_ID>  (1) 
DB02725

>  <SECONDARY_ACCESSION_NUMBERS>  (1) 
EXPT00424

>  <COMMON_NAME>  (1) 
2-Amino-4-(4-Amino-Cyclohexa-2,5-Dienyl)-Butyric Acid

$$$$
