1188
     RDKit          3D

 15 16  0  0  0  0  0  0  0  0999 V2000
    0.8753   -0.2111    0.0044 O   0  0  0  0  0  0  0  0  0  0  0  0
   -1.1887    1.0479    1.2391 O   0  0  0  0  0  0  0  0  0  0  0  0
    0.3636    1.0028   -0.4994 N   0  0  0  0  0  0  0  0  0  0  0  0
    2.0586    0.8511   -2.3721 C   0  0  0  0  0  0  0  0  0  0  0  0
    1.8529   -0.6351   -2.7089 C   0  0  0  0  0  0  0  0  0  0  0  0
    3.3310    1.1215   -1.5424 C   0  0  0  0  0  0  0  0  0  0  0  0
    3.1083   -1.2752   -3.2778 C   0  0  0  0  0  0  0  0  0  0  0  0
    4.5588    0.4195   -2.1074 C   0  0  0  0  0  0  0  0  0  0  0  0
    4.2998   -1.0639   -2.3507 C   0  0  0  0  0  0  0  0  0  0  0  0
    0.8208    1.4559   -1.7285 C   0  0  0  0  0  0  0  0  0  0  0  0
    0.1448    2.4603   -2.3252 C   0  0  0  0  0  0  0  0  0  0  0  0
   -1.0406    3.0287   -1.7094 C   0  0  0  0  0  0  0  0  0  0  0  0
   -0.7525    1.4698    0.1654 C   0  0  0  0  0  0  0  0  0  0  0  0
   -1.4706    2.5653   -0.5246 C   0  0  0  0  0  0  0  0  0  0  0  0
   -1.7859    4.1260   -2.4035 C   0  0  0  0  0  0  0  0  0  0  0  0
  1  3  1  0
  2 13  2  0
  3 10  1  0
  3 13  1  0
  4  5  1  0
  4  6  1  0
  4 10  1  0
  5  7  1  0
  6  8  1  0
  7  9  1  0
  8  9  1  0
 10 11  2  0
 11 12  1  0
 12 14  2  0
 12 15  1  0
 13 14  1  0
M  END
>  <DRUGBANK_ID>  (1) 
DB01188

>  <SECONDARY_ACCESSION_NUMBERS>  (1) 
APRD00871

>  <COMMON_NAME>  (1) 
Ciclopirox

>  <CAS_NUMBER>  (1) 
29342-05-0

>  <UNII>  (1) 
19W019ZDRJ

>  <SYNONYMS>  (1) 
6-cyclohexyl-1-hydroxy-4-methyl-2(1H)-pyridinone; Ciclopirox; Ciclopiroxum

$$$$
