199
     RDKit          3D

 31 35  0  0  0  0  0  0  0  0999 V2000
   -0.9407   -1.5182    0.0237 C   0  0  0  0  0  0  0  0  0  0  0  0
   -2.1329   -0.7756    0.0212 C   0  0  0  0  0  0  0  0  0  0  0  0
   -2.0647    0.6241    0.0124 C   0  0  0  0  0  0  0  0  0  0  0  0
   -0.9409    1.3564    0.0092 N   0  0  0  0  0  0  0  0  0  0  0  0
    0.1548    0.5905   -0.0150 C   0  0  0  0  0  0  0  0  0  0  0  0
    1.3980    1.1174   -0.0547 N   0  0  0  0  0  0  0  0  0  0  0  0
    2.2781    0.1108   -0.2971 C   0  0  0  0  0  0  0  0  0  0  0  0
    1.6662   -1.1042   -0.0819 C   0  0  0  0  0  0  0  0  0  0  0  0
    0.2652   -0.8023   -0.0207 C   0  0  0  0  0  0  0  0  0  0  0  0
    2.2867   -2.3522   -0.0238 N   0  0  0  0  0  0  0  0  0  0  0  0
   -5.1292   -2.5448    1.3622 C   0  0  0  0  0  0  0  0  0  0  0  0
   -6.0967   -2.2540    0.3938 C   0  0  0  0  0  0  0  0  0  0  0  0
   -5.7057   -1.5684   -0.7580 C   0  0  0  0  0  0  0  0  0  0  0  0
   -4.3878   -1.1505   -0.9190 C   0  0  0  0  0  0  0  0  0  0  0  0
   -3.4379   -1.4105    0.0760 C   0  0  0  0  0  0  0  0  0  0  0  0
   -3.8025   -2.1704    1.1887 C   0  0  0  0  0  0  0  0  0  0  0  0
    3.6410   -2.6615    0.0215 C   0  0  0  0  0  0  0  0  0  0  0  0
    4.0160   -3.8352   -0.0806 O   0  0  0  0  0  0  0  0  0  0  0  0
    5.3907    0.5088    1.0767 C   0  0  0  0  0  0  0  0  0  0  0  0
    6.3757    0.5298    0.1034 C   0  0  0  0  0  0  0  0  0  0  0  0
    6.5752   -0.4747   -0.7799 N   0  0  0  0  0  0  0  0  0  0  0  0
    5.7135   -1.5257   -0.7246 C   0  0  0  0  0  0  0  0  0  0  0  0
    4.6763   -1.6181    0.1930 C   0  0  0  0  0  0  0  0  0  0  0  0
    4.5779   -0.6217    1.1705 C   0  0  0  0  0  0  0  0  0  0  0  0
   -8.1916   -2.1863    1.6915 C   0  0  0  0  0  0  0  0  0  0  0  0
   -8.9747   -3.3548    2.3242 C   0  0  0  0  0  0  0  0  0  0  0  0
   -9.7910   -4.0645    1.3109 N   0  0  0  0  0  0  0  0  0  0  0  0
   -8.8761   -4.6101    0.2788 C   0  0  0  0  0  0  0  0  0  0  0  0
   -8.0712   -3.4909   -0.4280 C   0  0  0  0  0  0  0  0  0  0  0  0
   -7.3819   -2.6892    0.5812 N   0  0  0  0  0  0  0  0  0  0  0  0
  -10.5789   -5.1223    1.9279 C   0  0  0  0  0  0  0  0  0  0  0  0
  1  2  2  0
  1  9  1  0
  2  3  1  0
  2 15  1  0
  3  4  2  0
  4  5  1  0
  5  6  1  0
  5  9  2  0
  6  7  1  0
  7  8  2  0
  8  9  1  0
  8 10  1  0
 10 17  1  0
 11 12  2  0
 11 16  1  0
 12 13  1  0
 12 30  1  0
 13 14  2  0
 14 15  1  0
 15 16  2  0
 17 18  2  0
 17 23  1  0
 19 20  2  0
 19 24  1  0
 20 21  1  0
 21 22  2  0
 22 23  1  0
 23 24  2  0
 25 26  1  0
 25 30  1  0
 26 27  1  0
 27 28  1  0
 27 31  1  0
 28 29  1  0
 29 30  1  0
M  END
>  <DRUGBANK_ID>  (1) 
DB06876

>  <COMMON_NAME>  (1) 
N-{5-[4-(4-METHYLPIPERAZIN-1-YL)PHENYL]-1H-PYRROLO[2,3-B]PYRIDIN-3-YL}NICOTINAMIDE

$$$$
