
     RDKit          3D

 15 15  0  0  0  0  0  0  0  0999 V2000
    0.9643    0.0834    0.0421 C   0  0  0  0  0  0  0  0  0  0  0  0
    0.4576    0.1561   -1.3891 C   0  0  0  0  0  0  0  0  0  0  0  0
   -0.2730   -0.7747   -1.8526 O   0  0  0  0  0  0  0  0  0  0  0  0
    0.8127    1.3032   -2.2371 N   0  0  0  0  0  0  0  0  0  0  0  0
    1.6579    2.3798   -1.7009 C   0  0  0  0  0  0  0  0  0  0  0  0
    1.4034    3.7168   -1.9378 C   0  0  0  0  0  0  0  0  0  0  0  0
    2.2687    4.6791   -1.4767 C   0  0  0  0  0  0  0  0  0  0  0  0
    3.4028    4.3161   -0.7839 C   0  0  0  0  0  0  0  0  0  0  0  0
    3.6910    2.9718   -0.5262 C   0  0  0  0  0  0  0  0  0  0  0  0
    2.7705    2.0071   -0.9852 C   0  0  0  0  0  0  0  0  0  0  0  0
    2.9548    0.6861   -0.7613 O   0  0  0  0  0  0  0  0  0  0  0  0
    1.8907    6.5640   -1.8036 As  0  0  0  0  0  5  0  0  0  0  0  0
    1.8102    6.8696   -3.6264 O   0  0  0  0  0  0  0  0  0  0  0  0
    0.2702    7.0109   -1.0313 O   0  0  0  0  0  0  0  0  0  0  0  0
    3.0922    7.4909   -1.1412 O   0  0  0  0  0  0  0  0  0  0  0  0
  1  2  1  0
  2  3  2  0
  2  4  1  0
  4  5  1  0
  5  6  2  0
  5 10  1  0
  6  7  1  0
  7  8  2  0
  7 12  1  0
  8  9  1  0
  9 10  2  0
 10 11  1  0
 12 13  1  0
 12 14  1  0
 12 15  2  0
M  END
>  <DRUGBANK_ID>  (1) 
DB13268

>  <COMMON_NAME>  (1) 
Acetarsol

>  <CAS_NUMBER>  (1) 
97-44-9

>  <UNII>  (1) 
806529YU1N

>  <SYNONYMS>  (1) 
Acetarsol

$$$$
