
     RDKit          3D

 20 22  0  0  0  0  0  0  0  0999 V2000
    1.6833    0.5502    0.1556 O   0  0  0  0  0  0  0  0  0  0  0  0
   -1.9161    0.8525    0.0356 O   0  0  0  0  0  0  0  0  0  0  0  0
   -0.7424   -1.4995    0.6730 O   0  0  0  0  0  0  0  0  0  0  0  0
    1.4275   -1.7822   -2.6366 O   0  0  0  0  0  0  0  0  0  0  0  0
    1.1317    3.0966   -1.1776 N   0  0  0  0  0  0  0  0  0  0  0  0
    0.8553    4.3874   -1.4693 N   0  0  0  0  0  0  0  0  0  0  0  0
   -0.4489    3.9424    1.8007 N   0  0  0  0  0  0  0  0  0  0  0  0
   -0.9054    6.2328    1.0792 N   0  0  0  0  0  0  0  0  0  0  0  0
   -0.3442    7.1664   -1.0839 N   0  0  0  0  0  0  0  0  0  0  0  0
    0.4648    1.2605    0.3991 C   0  0  2  0  0  0  0  0  0  0  0  0
   -0.6106    0.6131   -0.4745 C   0  0  1  0  0  0  0  0  0  0  0  0
   -0.1901   -0.8403   -0.4758 C   0  0  1  0  0  0  0  0  0  0  0  0
    1.3442   -0.7511   -0.4046 C   0  0  1  0  0  0  0  0  0  0  0  0
    0.6228    2.6849    0.0266 C   0  0  0  0  0  0  0  0  0  0  0  0
    2.0590   -0.8692   -1.7564 C   0  0  0  0  0  0  0  0  0  0  0  0
    0.1363    3.8218    0.5935 C   0  0  0  0  0  0  0  0  0  0  0  0
    0.2175    4.8633   -0.3786 C   0  0  0  0  0  0  0  0  0  0  0  0
   -0.3452    6.1444   -0.1575 C   0  0  0  0  0  0  0  0  0  0  0  0
   -0.9242    5.1984    1.9617 C   0  0  0  0  0  0  0  0  0  0  0  0
   -1.5302    7.5024    1.4790 C   0  0  0  0  0  0  0  0  0  0  0  0
  1 10  1  0
  1 13  1  0
  4 15  1  0
  5  6  1  0
  5 14  1  0
  6 17  2  0
  7 16  1  0
  7 19  2  0
  8 18  2  0
  8 19  1  0
  8 20  1  0
  9 18  1  0
 10 11  1  0
 10 14  1  6
 11  2  1  1
 11 12  1  0
 12  3  1  1
 12 13  1  0
 13 15  1  6
 14 16  2  0
 16 17  1  0
 17 18  1  0
M  CHG  1   8   1
M  END
>  <DRUGBANK_ID>  (1) 
DB03986

>  <SECONDARY_ACCESSION_NUMBERS>  (1) 
EXPT01451

>  <COMMON_NAME>  (1) 
6-methyl-formycin A

>  <SYNONYMS>  (1) 
2-(7-amino-6-methyl-3H-pyrazolo[4,3-d]pyrimidin-3-yl)-5-hydroxymethyl-tetrahydro-furan-3,4-diol

$$$$
