
     RDKit          3D

  5  3  0  0  0  0  0  0  0  0999 V2000
    0.9296    0.0709    0.0054 I   0  0  0  0  0  0  0  0  0  0  0  0
    0.0123   -0.1626   -1.5663 O   0  0  0  0  0  0  0  0  0  0  0  0
    0.0123    0.3043    1.5771 O   0  0  0  0  0  0  0  0  0  0  0  0
    2.9796    0.0709    0.0054 O   0  0  0  0  0  0  0  0  0  0  0  0
    0.9906   -0.0501    0.0861 K   0  0  0  0  0 15  0  0  0  0  0  0
  1  2  1  0
  1  3  1  0
  1  4  1  0
M  CHG  5   1   2   2  -1   3  -1   4  -1   5   1
M  END
>  <DRUGBANK_ID>  (1) 
DB15923

>  <COMMON_NAME>  (1) 
Potassium iodate

>  <CAS_NUMBER>  (1) 
7758-05-6

>  <UNII>  (1) 
I139E44NHL

>  <SYNONYMS>  (1) 
Iodic acid, potassium salt

$$$$
