1548992
     RDKit          3D

 15 15  0  0  0  0  0  0  0  0999 V2000
    0.8778    0.0817   -0.3381 S   0  0  0  0  0  0  0  0  0  0  0  0
    3.3978   -3.2999   -3.4279 S   0  0  0  0  0  0  0  0  0  0  0  0
    1.6220    2.8478    3.4129 N   0  0  0  0  0  0  0  0  0  0  0  0
    3.0372   -2.1364   -1.1591 N   0  0  0  0  0  0  0  0  0  0  0  0
    0.8324    3.7255    1.5518 N   0  0  0  0  0  0  0  0  0  0  0  0
    5.2723   -2.4332   -1.8803 N   0  0  0  0  0  0  0  0  0  0  0  0
    0.9482    2.3525    1.3816 C   0  0  0  0  0  0  0  0  0  0  0  0
    0.4972    1.7969    0.0644 C   0  0  0  0  0  0  0  0  0  0  0  0
    2.6946    0.0713   -0.1323 C   0  0  0  0  0  0  0  0  0  0  0  0
    1.4427    1.7884    2.5498 C   0  0  0  0  0  0  0  0  0  0  0  0
    3.1079   -1.3831    0.0743 C   0  0  0  0  0  0  0  0  0  0  0  0
    1.7796    0.4130    2.9906 C   0  0  0  0  0  0  0  0  0  0  0  0
    1.2193    3.9806    2.7705 C   0  0  0  0  0  0  0  0  0  0  0  0
    3.9507   -2.5554   -2.0345 C   0  0  0  0  0  0  0  0  0  0  0  0
    6.1584   -1.8765   -0.8798 C   0  0  0  0  0  0  0  0  0  0  0  0
  1  8  1  0
  1  9  1  0
  2 14  2  0
  3 10  1  0
  3 13  1  0
  4 11  1  0
  4 14  1  0
  5  7  1  0
  5 13  2  0
  6 14  1  0
  6 15  1  0
  7  8  1  0
  7 10  2  0
  9 11  1  0
 10 12  1  0
M  END
>  <DRUGBANK_ID>  (1) 
DB08805

>  <COMMON_NAME>  (1) 
Metiamide

>  <CAS_NUMBER>  (1) 
34839-70-8

>  <UNII>  (1) 
3K7670861M

>  <SYNONYMS>  (1) 
Methiamide; Metiamida; Metiamide; Metiamidum

$$$$
