
     RDKit          3D

 33 37  0  0  1  0  0  0  0  0999 V2000
   10.0795    0.6404    2.9580 C   0  0  0  0  0  0  0  0  0  0  0  0
   14.6753    1.5573    3.7096 C   0  0  0  0  0  0  0  0  0  0  0  0
   13.0232    4.3817    0.5822 C   0  0  0  0  0  0  0  0  0  0  0  0
    7.1297    0.2828    1.2007 C   0  0  0  0  0  0  0  0  0  0  0  0
    7.8676   -1.5081    2.6468 C   0  0  0  0  0  0  0  0  0  0  0  0
    8.3326    0.1915    0.4780 C   0  0  0  0  0  0  0  0  0  0  0  0
    8.9953   -1.6817    1.8477 C   0  0  0  0  0  0  0  0  0  0  0  0
   13.6422   -3.5525    1.9849 C   0  0  0  0  0  0  0  0  0  0  0  0
   12.9941   -4.4752   -2.1789 C   0  0  0  0  0  0  0  0  0  0  0  0
   13.2389   -2.3335    2.8130 C   0  0  0  0  0  0  0  0  0  0  0  0
   12.5637   -2.9979   -1.5799 C   0  0  0  0  0  0  0  0  0  0  0  0
   12.1079    1.1226    3.4736 C   0  0  0  0  0  0  0  0  0  0  0  0
   11.1529    2.5783    2.6033 C   0  0  0  0  0  0  0  0  0  0  0  0
   12.8468   -5.0646    0.1394 C   0  0  0  0  0  0  0  0  0  0  0  0
   11.2945    0.6440    0.2947 C   0  0  0  0  0  0  0  0  0  0  0  0
    5.5657   -0.7155    2.8867 C   0  0  0  0  0  0  0  0  0  0  0  0
   13.1243    3.3126    3.2483 C   0  0  0  0  0  0  0  0  0  0  0  0
    6.8917   -0.5996    2.2595 C   0  0  0  0  0  0  0  0  0  0  0  0
    9.2930   -0.8022    0.7838 C   0  0  0  0  0  0  0  0  0  0  0  0
   12.8917   -3.8467    0.7236 C   0  0  0  0  0  0  0  0  0  0  0  0
   12.1462   -5.1198   -1.2100 C   0  0  0  0  0  0  0  0  0  0  0  0
   12.2930   -2.7632   -0.0029 C   0  0  0  0  0  0  0  0  0  0  0  0
   12.1515   -1.4282    2.2195 C   0  0  1  0  0  0  0  0  0  0  0  0
   10.7013   -0.7470    0.1385 C   0  0  2  0  0  0  0  0  0  0  0  0
   12.5716    0.0857    2.3566 C   0  0  1  0  0  0  0  0  0  0  0  0
   11.7260   -1.7481    0.7128 C   0  0  0  0  0  0  0  0  0  0  0  0
   11.5522    0.9347    1.7593 C   0  0  2  0  0  0  0  0  0  0  0  0
   12.4085    2.4996    1.9194 C   0  0  1  0  0  0  0  0  0  0  0  0
    5.3519   -1.5945    3.8154 N   0  0  0  0  0  0  0  0  0  0  0  0
   10.9435   -5.3592   -1.4544 O   0  0  0  0  0  0  0  0  0  0  0  0
    4.0017   -1.6073    4.1621 O   0  0  0  0  0  0  0  0  0  0  0  0
   14.4476    2.9551    3.6685 O   0  0  0  0  0  0  0  0  0  0  0  0
   12.7530    2.9978    0.6615 O   0  0  0  0  0  0  0  0  0  0  0  0
  6  4  2  0
  7  5  1  0
 10  8  1  0
 11  9  1  0
 13 12  1  0
 18  4  1  0
 18  5  2  0
 18 16  1  0
 19  6  1  0
 19  7  2  0
 20  8  1  0
 20 14  2  0
 21  9  1  0
 21 14  1  0
 22 11  1  0
 22 20  1  0
 23 10  1  6
 24 15  1  0
 24 19  1  1
 25 12  1  1
 25 23  1  0
 26 22  2  0
 26 23  1  0
 26 24  1  0
 27  1  1  1
 27 15  1  0
 27 25  1  0
 28 13  1  0
 28 17  1  1
 28 27  1  0
 28 33  1  0
 29 16  2  0
 30 21  2  0
 31 29  1  0
 32  2  1  0
 32 17  1  0
 33  3  1  0
M  END
>  <DRUGBANK_ID>  (1) 
DB06680

>  <COMMON_NAME>  (1) 
Asoprisnil

>  <CAS_NUMBER>  (1) 
199396-76-4

>  <UNII>  (1) 
72W09924WP

>  <SYNONYMS>  (1) 
Asoprisnil

$$$$
