
     RDKit          3D

 27 29  0  0  1  0  0  0  0  0999 V2000
    0.6770   -0.1183    0.0734 C   0  0  0  0  0  0  0  0  0  0  0  0
    5.7104    1.7112    1.6735 C   0  0  0  0  0  0  0  0  0  0  0  0
    2.9906    4.9999    0.5634 C   0  0  0  0  0  0  0  0  0  0  0  0
    0.2295    1.0975    0.9984 C   0  0  2  0  0  0  0  0  0  0  0  0
    4.9477    4.1657    0.8793 C   0  0  0  0  0  0  0  0  0  0  0  0
   -0.6102    2.2334    0.3601 C   0  0  2  0  0  0  0  0  0  0  0  0
    0.3294    3.4629    0.3049 C   0  0  2  0  0  0  0  0  0  0  0  0
    4.0177    3.1886    1.2306 C   0  0  0  0  0  0  0  0  0  0  0  0
    6.3450    3.8761    0.9759 C   0  0  0  0  0  0  0  0  0  0  0  0
    1.3892    3.2232    1.3904 C   0  0  2  0  0  0  0  0  0  0  0  0
    4.3784    1.9268    1.6368 N   0  0  0  0  0  0  0  0  0  0  0  0
    6.6658    2.5967    1.3390 N   0  0  0  0  0  0  0  0  0  0  0  0
    4.2671    5.2806    0.4636 N   0  0  0  0  0  0  0  0  0  0  0  0
    2.7474    3.7418    1.0777 N   0  0  0  0  0  0  0  0  0  0  0  0
   -1.7636    2.5465    1.1265 O   0  0  0  0  0  0  0  0  0  0  0  0
   -0.2749    4.7381    0.3318 O   0  0  0  0  0  0  0  0  0  0  0  0
   -0.1425    1.3453   -2.8549 O   0  0  0  0  0  0  0  0  0  0  0  0
    2.3438    1.2637   -1.0224 O   0  0  0  0  0  0  0  0  0  0  0  0
    1.6105    3.0030   -2.4468 O   0  0  0  0  0  0  0  0  0  0  0  0
    9.3970    4.7245    2.3881 O   0  0  0  0  0  0  0  0  0  0  0  0
    9.0470    2.7291    0.8822 O   0  0  0  0  0  0  0  0  0  0  0  0
   10.9892    3.6972    1.0399 O   0  0  0  0  0  0  0  0  0  0  0  0
    0.5178    0.1152   -1.3450 O   0  0  0  0  0  0  0  0  0  0  0  0
    1.4691    1.7650    1.5190 O   0  0  0  0  0  0  0  0  0  0  0  0
    1.0944    1.6391   -1.9264 P   0  0  0  0  0  0  0  0  0  0  0  0
    9.5695    4.2744    0.8193 P   0  0  0  0  0  0  0  0  0  0  0  0
    7.6256    5.0646    0.5173 S   0  0  0  0  0  0  0  0  0  0  0  0
  4  1  1  6
  6  4  1  0
  6 15  1  1
  7  6  1  0
  7 16  1  1
  8  5  2  0
  9  5  1  0
 10  7  1  0
 10 14  1  6
 11  2  2  0
 11  8  1  0
 12  2  1  0
 12  9  2  0
 13  3  2  0
 13  5  1  0
 14  3  1  0
 14  8  1  0
 23  1  1  0
 24  4  1  0
 24 10  1  0
 25 17  1  0
 25 18  1  0
 25 19  2  0
 25 23  1  0
 26 20  1  0
 26 21  1  0
 26 22  2  0
 27  9  1  0
 27 26  1  0
M  CHG  1  11   1
M  END
>  <DRUGBANK_ID>  (1) 
DB03146

>  <SECONDARY_ACCESSION_NUMBERS>  (1) 
EXPT02944; EXPT02575; DB02682

>  <COMMON_NAME>  (1) 
2-deazo-6-thiophosphate guanosine-5'-monophosphate

$$$$
