
     RDKit          3D

 38 41  0  0  1  0  0  0  0  0999 V2000
    5.7597    0.1122    0.2643 C   0  0  0  0  0  0  0  0  0  0  0  0
    4.5717   -0.5489    0.9146 C   0  0  0  0  0  0  0  0  0  0  0  0
    4.0930   -1.5087    0.3575 O   0  0  0  0  0  0  0  0  0  0  0  0
    3.9569   -0.0303    2.0449 N   0  0  0  0  0  0  0  0  0  0  0  0
    4.0583    1.1816    3.0091 C   0  0  0  0  0  0  0  0  0  0  0  0
    2.9309    2.2232    2.7392 C   0  0  0  0  0  0  0  0  0  0  0  0
    3.1683    2.8541    1.3854 C   0  0  0  0  0  0  0  0  0  0  0  0
    4.4483    3.5578    1.2003 N   0  0  0  0  0  0  0  0  0  0  0  0
    5.5320    2.7372    1.6826 C   0  0  0  0  0  0  0  0  0  0  0  0
    5.3979    1.9584    2.9459 C   0  0  0  0  0  0  0  0  0  0  0  0
    4.7009    3.8717   -0.2388 C   0  0  0  0  0  0  0  0  0  0  0  0
    4.5394    2.8569   -1.4352 C   0  0  0  0  0  0  0  0  0  0  0  0
    3.1261    2.2396   -1.6235 C   0  0  2  0  0  0  0  0  0  0  0  0
    3.0794    0.6381   -1.6804 C   0  0  0  0  0  0  0  0  0  0  0  0
    2.1944   -0.0562   -2.6244 N   0  0  0  0  0  0  0  0  0  0  0  0
    2.8736   -0.4028   -3.8950 C   0  0  0  0  0  0  0  0  0  0  0  0
    0.7713    0.1130   -2.3984 C   0  0  0  0  0  0  0  0  0  0  0  0
    0.3321    0.5635   -1.3373 O   0  0  0  0  0  0  0  0  0  0  0  0
   -0.2109   -0.0366   -3.5466 C   0  0  0  0  0  0  0  0  0  0  0  0
   -0.0589   -1.1124   -4.4024 C   0  0  0  0  0  0  0  0  0  0  0  0
   -0.8570   -1.2530   -5.5353 C   0  0  0  0  0  0  0  0  0  0  0  0
   -1.8215   -0.3005   -5.8522 C   0  0  0  0  0  0  0  0  0  0  0  0
   -2.0122    0.7885   -5.0088 C   0  0  0  0  0  0  0  0  0  0  0  0
   -1.2391    0.9003   -3.8352 C   0  0  0  0  0  0  0  0  0  0  0  0
    2.3518    3.1500   -2.5409 C   0  0  0  0  0  0  0  0  0  0  0  0
    1.5727    2.6086   -3.5114 C   0  0  0  0  0  0  0  0  0  0  0  0
    0.6564    3.2714   -4.2723 C   0  0  0  0  0  0  0  0  0  0  0  0
    0.5188    4.6149   -4.1104 C   0  0  0  0  0  0  0  0  0  0  0  0
    1.3829    5.2663   -3.2375 C   0  0  0  0  0  0  0  0  0  0  0  0
    2.3157    4.5381   -2.4847 C   0  0  0  0  0  0  0  0  0  0  0  0
    1.4140    6.9782   -3.1053 Cl  0  0  0  0  0  0  0  0  0  0  0  0
   -0.6086    5.3659   -5.1546 Cl  0  0  0  0  0  0  0  0  0  0  0  0
    3.9227    0.6399    4.4410 C   0  0  0  0  0  0  0  0  0  0  0  0
    2.7411    0.0527    4.9083 C   0  0  0  0  0  0  0  0  0  0  0  0
    2.6919   -0.4651    6.2055 C   0  0  0  0  0  0  0  0  0  0  0  0
    3.8137   -0.4198    7.0377 C   0  0  0  0  0  0  0  0  0  0  0  0
    4.9885    0.1499    6.5903 C   0  0  0  0  0  0  0  0  0  0  0  0
    5.0207    0.7021    5.3273 C   0  0  0  0  0  0  0  0  0  0  0  0
  1  2  1  0
  2  3  2  0
  2  4  1  0
  4  5  1  0
  5  6  1  0
  5 10  1  0
  5 33  1  0
  6  7  1  0
  7  8  1  0
  8  9  1  0
  8 11  1  0
  9 10  1  0
 11 12  1  0
 13 25  1  0
 13 14  1  6
 13 12  1  0
 14 15  1  0
 15 16  1  0
 15 17  1  0
 17 18  2  0
 17 19  1  0
 19 20  2  0
 19 24  1  0
 20 21  1  0
 21 22  2  0
 22 23  1  0
 23 24  2  0
 25 26  2  0
 25 30  1  0
 26 27  1  0
 27 28  2  0
 28 29  1  0
 28 32  1  0
 29 30  2  0
 29 31  1  0
 33 34  2  0
 33 38  1  0
 34 35  1  0
 35 36  2  0
 36 37  1  0
 37 38  2  0
M  END
>  <DRUGBANK_ID>  (1) 
DB06660

>  <COMMON_NAME>  (1) 
Saredutant

>  <CAS_NUMBER>  (1) 
142001-63-6

>  <UNII>  (1) 
720U2QK8I5

>  <SYNONYMS>  (1) 
Saredutant

$$$$
