2ED
     RDKit          3D

 24 23  0  0  0  0  0  0  0  0999 V2000
    5.8259    3.6984    2.2966 O   0  0  0  0  0  0  0  0  0  0  0  0
    5.9325    4.3583   -1.5138 O   0  0  0  0  0  0  0  0  0  0  0  0
    2.1830    2.5576   -0.7340 O   0  0  0  0  0  0  0  0  0  0  0  0
    4.1049    3.8777    0.0459 C   0  0  2  0  0  0  0  0  0  0  0  0
    2.5835    3.6111    0.1362 C   0  0  1  0  0  0  0  0  0  0  0  0
    1.7995    4.8178   -0.2719 C   0  0  0  0  0  0  0  0  0  0  0  0
    1.0089    5.4811    0.5711 C   0  0  0  0  0  0  0  0  0  0  0  0
    0.2126    6.6707    0.1474 C   0  0  0  0  0  0  0  0  0  0  0  0
   -1.2744    6.3548    0.2790 C   0  0  0  0  0  0  0  0  0  0  0  0
    5.3620    4.7999    1.9970 C   0  0  0  0  0  0  0  0  0  0  0  0
    5.6873    6.0315    2.7978 C   0  0  0  0  0  0  0  0  0  0  0  0
    4.5355    4.9993    0.9175 N   0  0  0  0  0  0  0  0  0  0  0  0
    4.5300    4.1311   -1.4123 C   0  0  0  0  0  0  0  0  0  0  0  0
   -1.6449    6.0108    1.7273 C   0  0  0  0  0  0  0  0  0  0  0  0
   -1.2854    7.1682    2.6658 C   0  0  0  0  0  0  0  0  0  0  0  0
   -2.0576    8.4283    2.2654 C   0  0  0  0  0  0  0  0  0  0  0  0
   -3.5630    8.1624    2.3556 C   0  0  0  0  0  0  0  0  0  0  0  0
   -3.9341    7.7725    3.7902 C   0  0  0  0  0  0  0  0  0  0  0  0
   -3.5688    8.9114    4.7469 C   0  0  0  0  0  0  0  0  0  0  0  0
   -4.3305   10.1812    4.3558 C   0  0  0  0  0  0  0  0  0  0  0  0
   -5.8413    9.9337    4.4316 C   0  0  0  0  0  0  0  0  0  0  0  0
   -6.2586    9.5609    5.8586 C   0  0  0  0  0  0  0  0  0  0  0  0
   -5.8931   10.6664    6.8500 C   0  0  0  0  0  0  0  0  0  0  0  0
   -6.5971   11.9620    6.4808 C   0  0  0  0  0  0  0  0  0  0  0  0
  1 10  2  0
  2 13  1  0
  4 12  1  0
  4 13  1  6
  5  6  1  0
  5  4  1  0
  5  3  1  6
  6  7  2  0
  7  8  1  0
  8  9  1  0
  9 14  1  0
 10 11  1  0
 10 12  1  0
 14 15  1  0
 15 16  1  0
 16 17  1  0
 17 18  1  0
 18 19  1  0
 19 20  1  0
 20 21  1  0
 21 22  1  0
 22 23  1  0
 23 24  1  0
M  END
>  <DRUGBANK_ID>  (1) 
DB06960

>  <COMMON_NAME>  (1) 
N-[(1R,2R,3E)-2-hydroxy-1-(hydroxymethyl)heptadec-3-en-1-yl]acetamide

$$$$
