1291
     RDKit          3D

 17 17  0  0  1  0  0  0  0  0999 V2000
    1.0187   -0.0787    0.1134 O   0  0  0  0  0  0  0  0  0  0  0  0
    1.8424    3.2368   -5.2595 O   0  0  0  0  0  0  0  0  0  0  0  0
    3.3770   -0.1891   -4.3888 O   0  0  0  0  0  0  0  0  0  0  0  0
    2.4784    2.2200    1.0888 N   0  0  0  0  0  0  0  0  0  0  0  0
    1.3867    0.9376   -2.4546 N   0  0  0  0  0  0  0  0  0  0  0  0
    2.9841    3.1003    2.1497 C   0  0  0  0  0  0  0  0  0  0  0  0
    1.0055    2.1131    1.0364 C   0  0  0  0  0  0  0  0  0  0  0  0
    0.5441    1.2507   -0.1485 C   0  0  0  0  0  0  0  0  0  0  0  0
    2.5300    2.5911    3.5242 C   0  0  0  0  0  0  0  0  0  0  0  0
    4.5223    3.0647    2.0890 C   0  0  0  0  0  0  0  0  0  0  0  0
    2.5259    4.5484    1.9142 C   0  0  0  0  0  0  0  0  0  0  0  0
    0.9937    1.8172   -1.4934 C   0  0  0  0  0  0  0  0  0  0  0  0
    0.9417    3.1894   -1.7409 C   0  0  0  0  0  0  0  0  0  0  0  0
    1.6876    1.4282   -3.6901 C   0  0  0  0  0  0  0  0  0  0  0  0
    1.2442    3.6822   -3.0000 C   0  0  0  0  0  0  0  0  0  0  0  0
    1.5964    2.7832   -3.9990 C   0  0  0  0  0  0  0  0  0  0  0  0
    2.1349    0.4275   -4.7335 C   0  0  0  0  0  0  0  0  0  0  0  0
  1  8  1  0
  2 16  1  0
  3 17  1  0
  4  6  1  0
  4  7  1  0
  5 12  2  0
  5 14  1  0
  6  9  1  0
  6 10  1  0
  6 11  1  0
  7  8  1  0
  8 12  1  0
 12 13  1  0
 13 15  2  0
 14 16  2  0
 14 17  1  0
 15 16  1  0
M  END
>  <DRUGBANK_ID>  (1) 
DB01291

>  <COMMON_NAME>  (1) 
Pirbuterol

>  <CAS_NUMBER>  (1) 
38677-81-5

>  <UNII>  (1) 
OG645J8RVW

>  <SYNONYMS>  (1) 
(+/-)-pirbuterol; Pirbuterol; Pirbuterolum

$$$$
