
     RDKit          3D

 11 11  0  0  0  0  0  0  0  0999 V2000
    0.8022   -0.1134   -0.0070 O   0  0  0  0  0  0  0  0  0  0  0  0
    0.2427   -0.6743   -1.0808 C   0  0  0  0  0  0  0  0  0  0  0  0
    0.8697   -1.2161   -1.9710 O   0  0  0  0  0  0  0  0  0  0  0  0
   -1.2815   -0.6227   -1.0534 C   0  0  0  0  0  0  0  0  0  0  0  0
   -1.8968    0.4622   -0.7299 N   0  0  0  0  0  0  0  0  0  0  0  0
   -3.2619    0.4595   -0.7417 C   0  0  0  0  0  0  0  0  0  0  0  0
   -3.9252    1.4527   -0.4672 O   0  0  0  0  0  0  0  0  0  0  0  0
   -3.9038   -0.6963   -1.0758 N   0  0  0  0  0  0  0  0  0  0  0  0
   -3.2657   -1.8475   -1.3898 C   0  0  0  0  0  0  0  0  0  0  0  0
   -3.8694   -2.8859   -1.6361 O   0  0  0  0  0  0  0  0  0  0  0  0
   -1.9135   -1.7802   -1.4036 N   0  0  0  0  0  0  0  0  0  0  0  0
  1  2  1  0
  2  3  2  0
  2  4  1  0
  4  5  2  0
  4 11  1  0
  5  6  1  0
  6  7  2  0
  6  8  1  0
  8  9  1  0
  9 10  2  0
  9 11  1  0
M  END
>  <DRUGBANK_ID>  (1) 
DB03209

>  <SECONDARY_ACCESSION_NUMBERS>  (1) 
EXPT02456

>  <COMMON_NAME>  (1) 
Oteracil

>  <CAS_NUMBER>  (1) 
937-13-3

>  <UNII>  (1) 
5VT6420TIG

>  <SYNONYMS>  (1) 
5-azaorotic acid; Allantoxanic acid; Oteracil; Oxonate; Oxonic Acid

$$$$
