
     RDKit          3D

 10  9  0  0  1  0  0  0  0  0999 V2000
    1.3843    2.3769   -1.2226 C   0  0  0  0  0  0  0  0  0  0  0  0
    0.9675    3.0252   -2.5454 C   0  0  0  0  0  0  0  0  0  0  0  0
    0.6833    2.9923   -0.0153 C   0  0  0  0  0  0  0  0  0  0  0  0
   -0.4808    2.7567   -2.9526 C   0  0  0  0  0  0  0  0  0  0  0  0
    1.0288    2.2754    1.2905 C   0  0  2  0  0  0  0  0  0  0  0  0
    0.1977    0.9717    1.3265 C   0  0  0  0  0  0  0  0  0  0  0  0
    0.5685    3.1036    2.4250 N   0  0  0  0  0  0  0  0  0  0  0  0
   -1.4122    3.4057   -2.1017 O   0  0  0  0  0  0  0  0  0  0  0  0
    0.5917   -0.1706    1.4101 O   0  0  0  0  0  0  0  0  0  0  0  0
   -1.1347    1.2735    1.2260 O   0  0  0  0  0  0  0  0  0  0  0  0
  2  1  1  0
  3  1  1  0
  4  2  1  0
  5  7  1  1
  5  6  1  0
  5  3  1  0
  8  4  1  0
  9  6  2  0
 10  6  1  0
M  END
>  <DRUGBANK_ID>  (1) 
DB02233

>  <SECONDARY_ACCESSION_NUMBERS>  (1) 
EXPT01147

>  <COMMON_NAME>  (1) 
6-hydroxy-D-norleucine

$$$$
