
     RDKit          3D

 19 21  0  0  0  0  0  0  0  0999 V2000
    1.0736    0.0849   -0.0427 C   0  0  0  0  0  0  0  0  0  0  0  0
    3.1606   -4.2252  -10.2184 C   0  0  0  0  0  0  0  0  0  0  0  0
    1.7307   -4.4674  -10.3336 C   0  0  0  0  0  0  0  0  0  0  0  0
    3.6740   -3.5219   -9.1901 C   0  0  0  0  0  0  0  0  0  0  0  0
    1.1180   -2.0425   -4.1273 C   0  0  0  0  0  0  0  0  0  0  0  0
    2.0273   -0.0314   -5.0961 C   0  0  0  0  0  0  0  0  0  0  0  0
    0.7797   -1.3383   -2.9636 C   0  0  0  0  0  0  0  0  0  0  0  0
    1.6607    0.6910   -3.9450 C   0  0  0  0  0  0  0  0  0  0  0  0
    0.9080   -3.9674   -9.3925 C   0  0  0  0  0  0  0  0  0  0  0  0
    0.8383   -2.6398   -7.2476 C   0  0  0  0  0  0  0  0  0  0  0  0
    1.6866   -1.3860   -5.2274 C   0  0  0  0  0  0  0  0  0  0  0  0
    1.0224    0.0346   -2.8869 C   0  0  0  0  0  0  0  0  0  0  0  0
    1.8606   -2.0914   -6.4909 C   0  0  0  0  0  0  0  0  0  0  0  0
    2.8137   -2.9928   -8.1852 C   0  0  0  0  0  0  0  0  0  0  0  0
    3.0747   -2.2925   -7.0981 N   0  0  0  0  0  0  0  0  0  0  0  0
    1.4499   -3.2365   -8.3279 N   0  0  0  0  0  0  0  0  0  0  0  0
   -1.0006    0.8145   -1.4558 O   0  0  0  0  0  0  0  0  0  0  0  0
    1.0732    2.2518   -1.4890 O   0  0  0  0  0  0  0  0  0  0  0  0
    0.4420    0.9425   -1.4641 S   0  0  0  0  0  0  0  0  0  0  0  0
  3  2  1  0
  4  2  2  0
  7  5  2  0
  8  6  1  0
  9  3  2  0
 11  5  1  0
 11  6  2  0
 12  7  1  0
 12  8  2  0
 13 10  2  0
 13 11  1  0
 14  4  1  0
 15 13  1  0
 15 14  2  0
 16  9  1  0
 16 10  1  0
 16 14  1  0
 19  1  1  0
 19 12  1  0
 19 17  2  0
 19 18  2  0
M  END
>  <DRUGBANK_ID>  (1) 
DB13593

>  <COMMON_NAME>  (1) 
Zolimidine

>  <CAS_NUMBER>  (1) 
1222-57-7

>  <UNII>  (1) 
YCF001N8QB

>  <SYNONYMS>  (1) 
Zolimidine

$$$$
