D13
     RDKit          3D

 27 30  0  0  0  0  0  0  0  0999 V2000
   -4.6854    8.5041   -4.8933 C   0  0  0  0  0  0  0  0  0  0  0  0
   -4.8226    9.7324   -5.3559 N   0  0  0  0  0  0  0  0  0  0  0  0
   -5.5940    9.6296   -6.4929 C   0  0  0  0  0  0  0  0  0  0  0  0
   -5.9434    8.3137   -6.7417 C   0  0  0  0  0  0  0  0  0  0  0  0
   -5.3441    7.6115   -5.7175 N   0  0  0  0  0  0  0  0  0  0  0  0
   -5.9842   10.7610   -7.3160 C   0  0  0  0  0  0  0  0  0  0  0  0
   -5.0127   11.5532   -7.9239 C   0  0  0  0  0  0  0  0  0  0  0  0
   -5.4312   12.5844   -8.7499 C   0  0  0  0  0  0  0  0  0  0  0  0
   -6.7273   12.8781   -8.9939 N   0  0  0  0  0  0  0  0  0  0  0  0
   -7.6486   12.1025   -8.3852 C   0  0  0  0  0  0  0  0  0  0  0  0
   -7.3323   11.0417   -7.5530 C   0  0  0  0  0  0  0  0  0  0  0  0
   -6.7111    7.7114   -7.8266 C   0  0  0  0  0  0  0  0  0  0  0  0
   -6.2973    7.9027   -9.1527 C   0  0  0  0  0  0  0  0  0  0  0  0
   -7.0695    7.4194  -10.2091 C   0  0  0  0  0  0  0  0  0  0  0  0
   -6.4273    7.7059  -12.1648 I   0  0  0  0  0  0  0  0  0  0  0  0
   -8.2672    6.7538   -9.9588 C   0  0  0  0  0  0  0  0  0  0  0  0
   -8.6853    6.5591   -8.6411 C   0  0  0  0  0  0  0  0  0  0  0  0
   -7.9071    7.0288   -7.5773 C   0  0  0  0  0  0  0  0  0  0  0  0
   -4.0234    8.0968   -3.6483 C   0  0  0  0  0  0  0  0  0  0  0  0
   -4.4459    8.6354   -2.4251 C   0  0  0  0  0  0  0  0  0  0  0  0
   -3.8516    8.2476   -1.2095 C   0  0  0  0  0  0  0  0  0  0  0  0
   -2.8181    7.3078   -1.1940 C   0  0  0  0  0  0  0  0  0  0  0  0
   -2.4127    6.7501   -2.4178 C   0  0  0  0  0  0  0  0  0  0  0  0
   -2.9846    7.1613   -3.6338 C   0  0  0  0  0  0  0  0  0  0  0  0
   -1.8223    6.9315    0.2768 S   0  0  0  0  0  0  0  0  0  0  0  0
   -1.5126    5.4659    0.1931 O   0  0  0  0  0  0  0  0  0  0  0  0
   -2.9607    7.1884    1.6466 C   0  0  0  0  0  0  0  0  0  0  0  0
  1  2  2  0
  1  5  1  0
  1 19  1  0
  2  3  1  0
  3  4  2  0
  3  6  1  0
  4  5  1  0
  4 12  1  0
  6  7  2  0
  6 11  1  0
  7  8  1  0
  8  9  2  0
  9 10  1  0
 10 11  2  0
 12 13  2  0
 12 18  1  0
 13 14  1  0
 14 15  1  0
 14 16  2  0
 16 17  1  0
 17 18  2  0
 19 20  2  0
 19 24  1  0
 20 21  1  0
 21 22  2  0
 22 23  1  0
 23 24  2  0
 25 27  1  0
 25 26  2  0
 25 22  1  0
M  END
>  <DRUGBANK_ID>  (1) 
DB07607

>  <COMMON_NAME>  (1) 
4-[5-(3-IODO-PHENYL)-2-(4-METHANESULFINYL-PHENYL)-1H-IMIDAZOL-4-YL]-PYRIDINE

$$$$
