SM3
     RDKit          3D

 19 20  0  0  0  0  0  0  0  0999 V2000
   -2.0491   -3.4542    3.0968 C   0  0  0  0  0  0  0  0  0  0  0  0
   -2.9379   -3.4929    2.0172 C   0  0  0  0  0  0  0  0  0  0  0  0
   -3.5606   -2.2860    1.7985 C   0  0  0  0  0  0  0  0  0  0  0  0
   -3.0390   -1.0943    2.9280 S   0  0  0  0  0  0  0  0  0  0  0  0
   -2.0010   -2.2328    3.6938 C   0  0  0  0  0  0  0  0  0  0  0  0
   -1.1311   -1.9110    4.8980 C   0  0  0  0  0  0  0  0  0  0  0  0
   -0.1615   -0.7967    4.5393 C   0  0  0  0  0  0  0  0  0  0  0  0
   -0.1838    0.2975    5.1854 O   0  0  0  0  0  0  0  0  0  0  0  0
    0.8021   -0.9848    3.4452 N   0  0  0  0  0  0  0  0  0  0  0  0
    0.9059   -2.2474    2.6997 C   0  0  2  0  0  0  0  0  0  0  0  0
   -0.5485   -2.8956    2.5432 B   0  0  0  0  0  0  0  0  0  0  0  0
   -1.6757   -2.2273    3.2732 O   0  0  0  0  0  0  0  0  0  0  0  0
   -0.8180   -4.0958    1.6849 O   0  0  0  0  0  0  0  0  0  0  0  0
    1.8104   -3.2083    3.4540 C   0  0  0  0  0  0  0  0  0  0  0  0
    2.6876   -2.7810    4.3547 C   0  0  0  0  0  0  0  0  0  0  0  0
    1.6154   -4.5606    3.2262 C   0  0  0  0  0  0  0  0  0  0  0  0
    2.1913   -5.3968    4.2116 C   0  0  0  0  0  0  0  0  0  0  0  0
    3.1240   -5.0157    5.0654 C   0  0  0  0  0  0  0  0  0  0  0  0
    3.3157   -3.6682    5.1950 C   0  0  0  0  0  0  0  0  0  0  0  0
  1  2  1  0
  1  5  2  0
  2  3  2  0
  3  4  1  0
  4  5  1  0
  5  6  1  0
  6  7  1  0
  7  8  2  0
  7  9  1  0
 10 14  1  0
 10 11  1  0
 10  9  1  1
 11 12  1  0
 11 13  1  0
 14 15  2  0
 14 16  1  0
 15 19  1  0
 16 17  2  0
 17 18  1  0
 18 19  2  0
M  END
>  <DRUGBANK_ID>  (1) 
DB08552

>  <COMMON_NAME>  (1) 
(1R)-1-(2-thienylacetylamino)-1-phenylmethylboronic acid

$$$$
