
     RDKit          3D

 38 41  0  0  0  0  0  0  0  0999 V2000
    1.0857    0.1217   -0.0219 C   0  0  0  0  0  0  0  0  0  0  0  0
    0.4147   -0.0965    0.9785 O   0  0  0  0  0  0  0  0  0  0  0  0
    0.4682    0.4572   -1.2252 N   0  0  0  0  0  0  0  0  0  0  0  0
    2.4848    0.0745   -0.0075 N   0  0  0  0  0  0  0  0  0  0  0  0
    3.4378   -2.0148    2.9682 C   0  0  0  0  0  0  0  0  0  0  0  0
    4.4896   -1.2380    3.5007 C   0  0  0  0  0  0  0  0  0  0  0  0
    4.9486   -0.0853    2.8555 C   0  0  0  0  0  0  0  0  0  0  0  0
    4.3010    0.3223    1.6662 C   0  0  0  0  0  0  0  0  0  0  0  0
    3.1946   -0.3950    1.1526 C   0  0  0  0  0  0  0  0  0  0  0  0
    2.8216   -1.6108    1.7666 C   0  0  0  0  0  0  0  0  0  0  0  0
    1.7858   -2.6678    0.8207 Cl  0  0  0  0  0  0  0  0  0  0  0  0
    4.8524    1.7424    0.8274 Cl  0  0  0  0  0  0  0  0  0  0  0  0
    3.1795   -3.1238    3.7390 O   0  0  0  0  0  0  0  0  0  0  0  0
    2.0974   -3.9639    3.3631 C   0  0  0  0  0  0  0  0  0  0  0  0
    5.9899    0.6874    3.3174 O   0  0  0  0  0  0  0  0  0  0  0  0
    2.3035    1.5565   -4.7323 N   0  0  0  0  0  0  0  0  0  0  0  0
    0.5970    1.8447   -3.1163 N   0  0  0  0  0  0  0  0  0  0  0  0
    1.2410    2.1862   -4.2318 C   0  0  0  0  0  0  0  0  0  0  0  0
    2.1802    0.0729   -2.8899 C   0  0  0  0  0  0  0  0  0  0  0  0
    2.7621    0.4821   -4.0660 C   0  0  0  0  0  0  0  0  0  0  0  0
    1.1021    0.8016   -2.4342 C   0  0  0  0  0  0  0  0  0  0  0  0
    3.9053   -0.1995   -4.5235 N   0  0  0  0  0  0  0  0  0  0  0  0
    5.7123    1.7131   -7.0919 C   0  0  0  0  0  0  0  0  0  0  0  0
    5.8139    0.7910   -8.1312 C   0  0  0  0  0  0  0  0  0  0  0  0
    5.1843   -0.4484   -8.0025 C   0  0  0  0  0  0  0  0  0  0  0  0
    4.5992   -0.8152   -6.7869 C   0  0  0  0  0  0  0  0  0  0  0  0
    4.5614    0.0957   -5.7261 C   0  0  0  0  0  0  0  0  0  0  0  0
    5.0816    1.3759   -5.9103 C   0  0  0  0  0  0  0  0  0  0  0  0
    6.5664    1.1213   -9.2271 N   0  0  0  0  0  0  0  0  0  0  0  0
    7.9663    2.5441  -11.3249 N   0  0  0  0  0  0  0  0  0  0  0  0
    6.5027    2.3316  -11.3641 C   0  0  0  0  0  0  0  0  0  0  0  0
    7.9816    1.4533   -9.0242 C   0  0  0  0  0  0  0  0  0  0  0  0
    8.3994    2.6351   -9.9154 C   0  0  0  0  0  0  0  0  0  0  0  0
    5.9832    1.1189  -10.5618 C   0  0  0  0  0  0  0  0  0  0  0  0
    8.7374    1.5907  -12.1372 C   0  0  0  0  0  0  0  0  0  0  0  0
   -0.9949    0.4829   -1.2349 C   0  0  0  0  0  0  0  0  0  0  0  0
    8.7284    0.0954  -11.8188 C   0  0  0  0  0  0  0  0  0  0  0  0
    6.6323    0.3116    4.5370 C   0  0  0  0  0  0  0  0  0  0  0  0
  2  1  2  0
  3  1  1  0
  4  1  1  0
  6  5  2  0
  7  6  1  0
  8  7  2  0
  9  4  1  0
  9  8  1  0
 10  5  1  0
 10  9  2  0
 11 10  1  0
 12  8  1  0
 13  5  1  0
 14 13  1  0
 15  7  1  0
 15 38  1  0
 18 16  2  0
 18 17  1  0
 20 16  1  0
 20 19  2  0
 21  3  1  0
 21 17  2  0
 21 19  1  0
 22 20  1  0
 24 23  2  0
 25 24  1  0
 26 25  2  0
 27 22  1  0
 27 26  1  0
 28 23  1  0
 28 27  2  0
 29 24  1  0
 31 30  1  0
 32 29  1  0
 33 30  1  0
 33 32  1  0
 34 29  1  0
 34 31  1  0
 35 30  1  0
 35 37  1  0
 36  3  1  0
M  END
>  <DRUGBANK_ID>  (1) 
DB11886

>  <COMMON_NAME>  (1) 
Infigratinib

>  <CAS_NUMBER>  (1) 
872511-34-7

>  <UNII>  (1) 
A4055ME1VK

>  <SYNONYMS>  (1) 
Infigratinib

$$$$
