
     RDKit          3D

 29 31  0  0  0  0  0  0  0  0999 V2000
    1.0085    0.0773    0.0069 C   0  0  0  0  0  0  0  0  0  0  0  0
    0.4065    1.4973   -0.0439 C   0  0  0  0  0  0  0  0  0  0  0  0
    0.9372    2.1969   -1.2928 C   0  0  0  0  0  0  0  0  0  0  0  0
   -1.1086    1.4748   -0.0508 C   0  0  0  0  0  0  0  0  0  0  0  0
   -1.8038    0.3365   -0.1283 C   0  0  0  0  0  0  0  0  0  0  0  0
   -3.2566    0.3462   -0.0372 C   0  0  0  0  0  0  0  0  0  0  0  0
   -3.9685    1.4277   -0.0258 N   0  0  0  0  0  0  0  0  0  0  0  0
   -3.2574    2.6109   -0.0564 N   0  0  0  0  0  0  0  0  0  0  0  0
   -1.8861    2.7426   -0.0020 C   0  0  0  0  0  0  0  0  0  0  0  0
   -1.3376    3.8381    0.0488 O   0  0  0  0  0  0  0  0  0  0  0  0
   -3.8611   -0.9173    0.0381 O   0  0  0  0  0  0  0  0  0  0  0  0
   -3.1579   -2.1657    0.1009 C   0  0  0  0  0  0  0  0  0  0  0  0
   -3.3165   -3.0872   -0.9435 C   0  0  0  0  0  0  0  0  0  0  0  0
   -2.5653   -4.2770   -0.9639 C   0  0  0  0  0  0  0  0  0  0  0  0
   -1.6704   -4.5684    0.0728 C   0  0  0  0  0  0  0  0  0  0  0  0
   -1.5484   -3.6581    1.1342 C   0  0  0  0  0  0  0  0  0  0  0  0
   -2.2996   -2.4762    1.1651 C   0  0  0  0  0  0  0  0  0  0  0  0
   -2.0722   -1.4254    2.5205 Cl  0  0  0  0  0  0  0  0  0  0  0  0
   -0.9644   -5.8105    0.1075 N   0  0  0  0  0  0  0  0  0  0  0  0
   -1.0929   -6.6539    1.2220 C   0  0  0  0  0  0  0  0  0  0  0  0
   -1.8214   -6.4411    2.1890 O   0  0  0  0  0  0  0  0  0  0  0  0
   -0.3695   -7.8125    1.1835 N   0  0  0  0  0  0  0  0  0  0  0  0
    0.4578   -8.1730    0.1675 C   0  0  0  0  0  0  0  0  0  0  0  0
    1.1061   -9.2059    0.1471 O   0  0  0  0  0  0  0  0  0  0  0  0
    0.5207   -7.1995   -0.9667 C   0  0  0  0  0  0  0  0  0  0  0  0
   -0.1732   -6.0945   -1.0065 N   0  0  0  0  0  0  0  0  0  0  0  0
    1.3797   -7.4502   -2.0946 C   0  0  0  0  0  0  0  0  0  0  0  0
    2.1017   -7.7166   -2.9732 N   0  0  0  0  0  0  0  0  0  0  0  0
   -4.4317   -2.8017   -2.2285 Cl  0  0  0  0  0  0  0  0  0  0  0  0
  1  2  1  0
  2  3  1  0
  2  4  1  0
  4  5  2  0
  4  9  1  0
  5  6  1  0
  6  7  2  0
  6 11  1  0
  7  8  1  0
  8  9  1  0
  9 10  2  0
 11 12  1  0
 12 13  2  0
 12 17  1  0
 13 14  1  0
 13 29  1  0
 14 15  2  0
 15 16  1  0
 15 19  1  0
 16 17  2  0
 17 18  1  0
 19 20  1  0
 19 26  1  0
 20 21  2  0
 20 22  1  0
 22 23  1  0
 23 24  2  0
 23 25  1  0
 25 26  2  0
 25 27  1  0
 27 28  3  0
M  END
>  <DRUGBANK_ID>  (1) 
DB12914

>  <COMMON_NAME>  (1) 
Resmetirom

>  <CAS_NUMBER>  (1) 
920509-32-6

>  <UNII>  (1) 
RE0V0T1ES0

>  <SYNONYMS>  (1) 
Resmetirom

$$$$
