
     RDKit          3D

 33 36  0  0  0  0  0  0  0  0999 V2000
    1.1505   -0.0699   -0.0513 C   0  0  0  0  0  0  0  0  0  0  0  0
    0.5654    1.3059    0.2391 C   0  0  0  0  0  0  0  0  0  0  0  0
    1.0909    2.3076   -0.8002 C   0  0  0  0  0  0  0  0  0  0  0  0
   -0.9304    1.2856    0.2797 C   0  0  0  0  0  0  0  0  0  0  0  0
   -1.8244    0.2169    0.3354 C   0  0  0  0  0  0  0  0  0  0  0  0
   -1.6453   -1.1481    0.3927 N   0  0  0  0  0  0  0  0  0  0  0  0
   -2.7085   -1.9101    0.3236 C   0  0  0  0  0  0  0  0  0  0  0  0
   -2.5776   -3.2940    0.3896 N   0  0  0  0  0  0  0  0  0  0  0  0
   -3.0029   -4.1429   -0.7339 C   0  0  1  0  0  0  0  0  0  0  0  0
   -2.5391   -3.5585   -2.0776 C   0  0  0  0  0  0  0  0  0  0  0  0
   -3.0307   -4.3913   -3.2562 C   0  0  0  0  0  0  0  0  0  0  0  0
   -2.5785   -5.8461   -3.1392 C   0  0  2  0  0  0  0  0  0  0  0  0
   -3.1312   -6.6030   -4.2593 N   0  0  0  0  0  0  0  0  0  0  0  0
   -3.0254   -6.4427   -1.7982 C   0  0  0  0  0  0  0  0  0  0  0  0
   -2.5298   -5.6033   -0.6057 C   0  0  0  0  0  0  0  0  0  0  0  0
   -4.0968   -1.3490    0.2038 C   0  0  0  0  0  0  0  0  0  0  0  0
   -4.2743   -0.0155    0.2458 C   0  0  0  0  0  0  0  0  0  0  0  0
   -5.5500    0.5620    0.2689 N   0  0  0  0  0  0  0  0  0  0  0  0
   -5.8611    1.9287    0.1625 C   0  0  0  0  0  0  0  0  0  0  0  0
   -5.3715    2.6846   -0.9056 C   0  0  0  0  0  0  0  0  0  0  0  0
   -5.4878    4.0718   -0.9138 C   0  0  0  0  0  0  0  0  0  0  0  0
   -6.2595    4.7146    0.0469 C   0  0  0  0  0  0  0  0  0  0  0  0
   -6.8514    3.9608    1.0685 C   0  0  0  0  0  0  0  0  0  0  0  0
   -6.6020    2.5813    1.1546 C   0  0  0  0  0  0  0  0  0  0  0  0
   -6.4824    6.4801    0.0639 S   0  0  0  0  0  0  0  0  0  0  0  0
   -7.8895    6.7373   -0.1180 O   0  0  0  0  0  0  0  0  0  0  0  0
   -5.7800    6.9788    1.2383 O   0  0  0  0  0  0  0  0  0  0  0  0
   -5.6796    7.1307   -1.3216 N   0  0  0  0  0  0  0  0  0  0  0  0
   -6.2173    6.6828   -2.6301 C   0  0  0  0  0  0  0  0  0  0  0  0
   -5.6958    8.6254   -1.2947 C   0  0  0  0  0  0  0  0  0  0  0  0
   -3.1044    0.7898    0.3243 N   0  0  0  0  0  0  0  0  0  0  0  0
   -3.0203    2.1444    0.4040 N   0  0  0  0  0  0  0  0  0  0  0  0
   -1.7384    2.4339    0.3171 C   0  0  0  0  0  0  0  0  0  0  0  0
  1  2  1  0
  2  3  1  0
  2  4  1  0
  4  5  2  0
  4 33  1  0
  5  6  1  0
  5 31  1  0
  6  7  2  0
  7  8  1  0
  7 16  1  0
  9  8  1  1
  9 10  1  0
  9 15  1  0
 10 11  1  0
 11 12  1  0
 12 13  1  6
 12 14  1  0
 14 15  1  0
 16 17  2  0
 17 18  1  0
 17 31  1  0
 18 19  1  0
 19 20  2  0
 19 24  1  0
 20 21  1  0
 21 22  2  0
 22 23  1  0
 22 25  1  0
 23 24  2  0
 25 26  2  0
 25 27  2  0
 25 28  1  0
 28 29  1  0
 28 30  1  0
 31 32  1  0
 32 33  2  0
M  END
>  <DRUGBANK_ID>  (1) 
DB01888

>  <SECONDARY_ACCESSION_NUMBERS>  (1) 
EXPT01046

>  <COMMON_NAME>  (1) 
4-[5-(Trans-4-Aminocyclohexylamino)-3-Isopropylpyrazolo[1,5-a]Pyrimidin-7-Ylamino]-N,N-Dimethylbenzenesulfonamide

$$$$
