
     RDKit          3D

 18 19  0  0  0  0  0  0  0  0999 V2000
    0.9375    0.0921   -0.0088 C   0  0  0  0  0  0  0  0  0  0  0  0
    0.5124    0.7670    1.2890 C   0  0  0  0  0  0  0  0  0  0  0  0
    0.9850    2.1324    1.3841 O   0  0  0  0  0  0  0  0  0  0  0  0
    2.3309    2.2701    1.4780 C   0  0  0  0  0  0  0  0  0  0  0  0
    3.1442    1.3621    1.5209 O   0  0  0  0  0  0  0  0  0  0  0  0
    2.7390    3.6768    1.5029 C   0  0  0  0  0  0  0  0  0  0  0  0
    2.2125    4.5548    2.3565 C   0  0  0  0  0  0  0  0  0  0  0  0
    2.6699    5.8655    2.4725 N   0  0  0  0  0  0  0  0  0  0  0  0
    3.6760    6.2805    1.6869 C   0  0  0  0  0  0  0  0  0  0  0  0
    4.2520    5.4874    0.7751 N   0  0  0  0  0  0  0  0  0  0  0  0
    3.8651    4.0948    0.6851 C   0  0  0  0  0  0  0  0  0  0  0  0
    4.4662    3.3318   -0.0556 O   0  0  0  0  0  0  0  0  0  0  0  0
    5.3873    5.9428   -0.1159 C   0  0  0  0  0  0  0  0  0  0  0  0
    5.4839    7.4732   -0.1484 C   0  0  0  0  0  0  0  0  0  0  0  0
    5.4531    8.0228    1.2501 C   0  0  0  0  0  0  0  0  0  0  0  0
    4.1213    7.6919    1.8601 C   0  0  0  0  0  0  0  0  0  0  0  0
    5.2282    5.4864   -1.5688 C   0  0  0  0  0  0  0  0  0  0  0  0
    1.9946    6.7385    3.4776 C   0  0  0  0  0  0  0  0  0  0  0  0
  1  2  1  0
  2  3  1  0
  3  4  1  0
  4  5  2  0
  4  6  1  0
  6  7  2  0
  6 11  1  0
  7  8  1  0
  8  9  2  0
  8 18  1  0
  9 10  1  0
  9 16  1  0
 10 11  1  0
 10 13  1  0
 11 12  2  0
 13 14  1  0
 13 17  1  0
 14 15  1  0
 15 16  1  0
M  CHG  1   8   1
M  END
>  <DRUGBANK_ID>  (1) 
DB13289

>  <COMMON_NAME>  (1) 
Rimazolium

>  <CAS_NUMBER>  (1) 
35615-72-6

>  <UNII>  (1) 
967Y95129A

$$$$
