
     RDKit          3D

 15 15  0  0  0  0  0  0  0  0999 V2000
   -2.1302    0.1249    0.7571 C   0  0  0  0  0  0  0  0  0  0  0  0
   -1.5016   -1.1072    0.9389 C   0  0  0  0  0  0  0  0  0  0  0  0
   -1.3703    1.3254    0.8831 C   0  0  0  0  0  0  0  0  0  0  0  0
   -0.1141   -1.1395    1.2567 C   0  0  0  0  0  0  0  0  0  0  0  0
    0.0490    1.3403    1.1565 C   0  0  0  0  0  0  0  0  0  0  0  0
    0.6634    0.0689    1.3675 C   0  0  0  0  0  0  0  0  0  0  0  0
    0.8766    2.6193    0.7234 C   0  0  0  0  0  0  0  0  0  0  0  0
    2.0512    0.0021    1.4294 O   0  0  0  0  0  0  0  0  0  0  0  0
    0.3841    3.7111    0.3512 O   0  0  0  0  0  0  0  0  0  0  0  0
    2.2052    2.4519    0.4839 O   0  0  0  0  0  0  0  0  0  0  0  0
    0.0202   -1.2324   -1.6192 C   0  0  0  0  0  0  0  0  0  0  0  0
    1.3409   -0.9502   -1.3577 C   0  0  0  0  0  0  0  0  0  0  0  0
    0.1549    0.8931   -1.6637 C   0  0  0  0  0  0  0  0  0  0  0  0
   -0.6990   -0.0892   -1.8277 N   0  0  0  0  0  0  0  0  0  0  0  0
    1.4175    0.4256   -1.3712 N   0  0  0  0  0  0  0  0  0  0  0  0
  2  1  2  0
  3  1  1  0
  4  2  1  0
  5  3  2  0
  6  4  2  0
  6  5  1  0
  7  5  1  0
  8  6  1  0
  9  7  2  0
 10  7  1  0
 12 11  2  0
 14 11  1  0
 14 13  2  0
 15 12  1  0
 15 13  1  0
M  END
>  <DRUGBANK_ID>  (1) 
DB13860

>  <COMMON_NAME>  (1) 
Imidazole salicylate

>  <CAS_NUMBER>  (1) 
36364-49-5

>  <UNII>  (1) 
4JVD4X01MJ

>  <SYNONYMS>  (1) 
Imidazole salicylate; Imidazole-2-hydroxybenzoate; Imidazoli salicylas; Imidazolsalicylat; Salicilato de imidazol

$$$$
