4824
     RDKit          3D

 24 27  0  0  0  0  0  0  0  0999 V2000
    1.8896   -0.9016    0.0025 O   0  0  0  0  0  0  0  0  0  0  0  0
    2.2128    1.3837    0.0081 O   0  0  0  0  0  0  0  0  0  0  0  0
    0.7262   -5.3374   -4.5051 O   0  0  0  0  0  0  0  0  0  0  0  0
    0.8794   -5.2210    4.5690 O   0  0  0  0  0  0  0  0  0  0  0  0
    0.7681   -1.8289   -0.0231 C   0  0  0  0  0  0  0  0  0  0  0  0
   -0.4067   -0.8953    0.0352 C   0  0  0  0  0  0  0  0  0  0  0  0
    0.8598   -2.6290   -1.3414 C   0  0  0  0  0  0  0  0  0  0  0  0
    0.8199   -2.7212    1.2338 C   0  0  0  0  0  0  0  0  0  0  0  0
    0.0330    0.4089   -0.0096 C   0  0  0  0  0  0  0  0  0  0  0  0
    1.4885    0.4034   -0.0134 C   0  0  0  0  0  0  0  0  0  0  0  0
   -1.7671   -1.1835    0.1006 C   0  0  0  0  0  0  0  0  0  0  0  0
    1.9698   -3.4668   -1.5987 C   0  0  0  0  0  0  0  0  0  0  0  0
    0.7787   -2.1629    2.5252 C   0  0  0  0  0  0  0  0  0  0  0  0
   -0.2191   -2.6863   -2.2401 C   0  0  0  0  0  0  0  0  0  0  0  0
    0.8692   -4.1266    1.1396 C   0  0  0  0  0  0  0  0  0  0  0  0
   -0.8471    1.4786   -0.0211 C   0  0  0  0  0  0  0  0  0  0  0  0
   -2.6754   -0.1286    0.0608 C   0  0  0  0  0  0  0  0  0  0  0  0
   -2.2176    1.1967    0.0033 C   0  0  0  0  0  0  0  0  0  0  0  0
    1.9361   -4.4040   -2.6380 C   0  0  0  0  0  0  0  0  0  0  0  0
    0.7874   -2.9842    3.6593 C   0  0  0  0  0  0  0  0  0  0  0  0
   -0.2361   -3.5874   -3.2953 C   0  0  0  0  0  0  0  0  0  0  0  0
    0.9303   -4.9399    2.2589 C   0  0  0  0  0  0  0  0  0  0  0  0
    0.8288   -4.4508   -3.4774 C   0  0  0  0  0  0  0  0  0  0  0  0
    0.8701   -4.3659    3.5110 C   0  0  0  0  0  0  0  0  0  0  0  0
  1  5  1  0
  1 10  1  0
  2 10  2  0
  3 23  1  0
  4 24  1  0
  5  6  1  0
  5  7  1  0
  5  8  1  0
  6  9  2  0
  6 11  1  0
  7 12  2  0
  7 14  1  0
  8 13  2  0
  8 15  1  0
  9 10  1  0
  9 16  1  0
 11 17  2  0
 12 19  1  0
 13 20  1  0
 14 21  2  0
 15 22  2  0
 16 18  2  0
 17 18  1  0
 19 23  2  0
 20 24  2  0
 21 23  1  0
 22 24  1  0
M  END
>  <DRUGBANK_ID>  (1) 
DB04824

>  <COMMON_NAME>  (1) 
Phenolphthalein

>  <CAS_NUMBER>  (1) 
77-09-8

>  <UNII>  (1) 
6QK969R2IF

>  <SYNONYMS>  (1) 
3,3-Bis(4-hydroxyphenyl)phthalide; Fenolftalein; Fenolftaleina; Phenolphtaleine; Phenolphthalein; Phenolphthaleinum; Phthalimetten; Phthalin; Yellow phenolphthalein

$$$$
