PL7
     RDKit          3D

 27 27  0  0  0  0  0  0  0  0999 V2000
    0.7208    0.3491   -1.0304 O   0  0  0  0  0  0  0  0  0  0  0  0
    0.1227   -0.7846   -1.3792 C   0  0  0  0  0  0  0  0  0  0  0  0
    0.7985   -1.7063   -1.8282 O   0  0  0  0  0  0  0  0  0  0  0  0
   -1.3257   -0.7744   -1.0792 C   0  0  0  0  0  0  0  0  0  0  0  0
   -1.6808   -1.2761    0.3137 C   0  0  0  0  0  0  0  0  0  0  0  0
   -1.1586   -0.4659    1.5001 C   0  0  0  0  0  0  0  0  0  0  0  0
   -2.1803    0.4011    2.2887 C   0  0  0  0  0  0  0  0  0  0  0  0
   -1.8584    1.2352    3.1163 O   0  0  0  0  0  0  0  0  0  0  0  0
   -3.4645    0.1538    2.0088 O   0  0  0  0  0  0  0  0  0  0  0  0
    0.0747   -0.4431    1.9458 N   0  0  0  0  0  0  0  0  0  0  0  0
    0.9725   -1.1362    1.1289 O   0  0  0  0  0  0  0  0  0  0  0  0
    2.3362   -0.6754    1.2817 C   0  0  0  0  0  0  0  0  0  0  0  0
    2.7018    0.8195    1.0031 C   0  0  1  0  0  0  0  0  0  0  0  0
    2.0179    1.7889    1.9608 C   0  0  0  0  0  0  0  0  0  0  0  0
    2.5442    2.3497    2.9091 O   0  0  0  0  0  0  0  0  0  0  0  0
    4.1661    1.0195    1.0096 N   0  0  0  0  0  0  0  0  0  0  0  0
    4.9456    1.5956    0.0361 C   0  0  0  0  0  0  0  0  0  0  0  0
    6.1259    1.8458    0.2932 O   0  0  0  0  0  0  0  0  0  0  0  0
    4.3931    1.7764   -1.3951 C   0  0  0  0  0  0  0  0  0  0  0  0
    3.7955    0.6746   -2.0754 O   0  0  0  0  0  0  0  0  0  0  0  0
    4.5537   -0.4554   -2.2447 C   0  0  0  0  0  0  0  0  0  0  0  0
    5.4681   -0.9449   -1.3128 C   0  0  0  0  0  0  0  0  0  0  0  0
    6.0858   -2.1804   -1.4625 C   0  0  0  0  0  0  0  0  0  0  0  0
    5.7860   -2.9657   -2.5593 C   0  0  0  0  0  0  0  0  0  0  0  0
    4.8694   -2.5039   -3.5030 C   0  0  0  0  0  0  0  0  0  0  0  0
    4.2807   -1.2380   -3.3673 C   0  0  0  0  0  0  0  0  0  0  0  0
    0.7240    2.0130    1.6475 O   0  0  0  0  0  0  0  0  0  0  0  0
  1  2  1  0
  2  3  2  0
  2  4  1  0
  4  5  1  0
  5  6  1  0
  6  7  1  0
  6 10  2  0
  7  8  2  0
  7  9  1  0
 10 11  1  0
 11 12  1  0
 13 12  1  1
 13 14  1  0
 13 16  1  0
 14 15  2  0
 14 27  1  0
 16 17  1  0
 17 18  2  0
 17 19  1  0
 19 20  1  0
 20 21  1  0
 21 22  2  0
 21 26  1  0
 22 23  1  0
 23 24  2  0
 24 25  1  0
 25 26  2  0
M  END
>  <DRUGBANK_ID>  (1) 
DB08401

>  <COMMON_NAME>  (1) 
(2E)-2-({(2S)-2-CARBOXY-2-[(PHENOXYACETYL)AMINO]ETHOXY}IMINO)PENTANEDIOIC ACID

$$$$
