ZZ1
     RDKit          3D

 12 13  0  0  0  0  0  0  0  0999 V2000
   -3.1646    0.9628    0.0044 O   0  0  0  0  0  0  0  0  0  0  0  0
   -2.0253    0.5125   -0.0030 C   0  0  0  0  0  0  0  0  0  0  0  0
   -0.9074    1.3259   -0.0034 O   0  0  0  0  0  0  0  0  0  0  0  0
    0.3883    0.7766   -0.0029 C   0  0  0  0  0  0  0  0  0  0  0  0
    1.4411    1.6909   -0.0209 C   0  0  0  0  0  0  0  0  0  0  0  0
    2.7501    1.2214   -0.0174 C   0  0  0  0  0  0  0  0  0  0  0  0
    2.9920   -0.1517    0.0097 C   0  0  0  0  0  0  0  0  0  0  0  0
    1.9247   -1.0588    0.0254 C   0  0  0  0  0  0  0  0  0  0  0  0
    0.5996   -0.6039    0.0122 C   0  0  0  0  0  0  0  0  0  0  0  0
   -0.5694   -1.4935   -0.0029 C   0  0  0  0  0  0  0  0  0  0  0  0
   -0.3857   -2.9812   -0.0190 C   0  0  0  0  0  0  0  0  0  0  0  0
   -1.7909   -0.9398   -0.0163 C   0  0  0  0  0  0  0  0  0  0  0  0
  1  2  2  0
  2  3  1  0
  2 12  1  0
  3  4  1  0
  4  5  2  0
  4  9  1  0
  5  6  1  0
  6  7  2  0
  7  8  1  0
  8  9  2  0
  9 10  1  0
 10 11  1  0
 10 12  2  0
M  END
>  <DRUGBANK_ID>  (1) 
DB08785

>  <COMMON_NAME>  (1) 
4-Methylcoumarin

>  <CAS_NUMBER>  (1) 
607-71-6

>  <UNII>  (1) 
2YZ8R79U9H

>  <SYNONYMS>  (1) 
4-Methyl-2H-1-benzopyran-2-one

$$$$
