
     RDKit          3D

  9  9  0  0  0  0  0  0  0  0999 V2000
    1.0798    0.0356   -0.0895 C   0  0  0  0  0  0  0  0  0  0  0  0
    0.6160    1.0701    0.8839 C   0  0  0  0  0  0  0  0  0  0  0  0
    0.9025    2.4036    0.6458 C   0  0  0  0  0  0  0  0  0  0  0  0
    0.5923    3.4027    1.4903 N   0  0  0  0  0  0  0  0  0  0  0  0
   -0.0437    3.0426    2.6127 C   0  0  0  0  0  0  0  0  0  0  0  0
   -0.3416    4.1191    3.6128 C   0  0  0  0  0  0  0  0  0  0  0  0
   -0.4080    1.7781    2.9216 N   0  0  0  0  0  0  0  0  0  0  0  0
   -0.0677    0.8083    2.0532 C   0  0  0  0  0  0  0  0  0  0  0  0
   -0.3041   -0.4952    2.4862 N   0  0  0  0  0  0  0  0  0  0  0  0
  1  2  1  0
  2  3  2  0
  2  8  1  0
  3  4  1  0
  4  5  2  0
  5  6  1  0
  5  7  1  0
  7  8  2  0
  8  9  1  0
M  END
>  <DRUGBANK_ID>  (1) 
DB02372

>  <SECONDARY_ACCESSION_NUMBERS>  (1) 
EXPT03272

>  <COMMON_NAME>  (1) 
2,5-Dimethylpyrimidin-4-Amine

>  <UNII>  (1) 
J1SE9T8ANX

$$$$
