
     RDKit          3D

 14 13  0  0  0  0  0  0  0  0999 V2000
    0.9251    0.0526   -0.0126 C   0  0  0  0  0  0  0  0  0  0  0  0
    0.3837    1.0203    0.9391 N   0  0  0  0  0  0  0  0  0  0  0  0
   -1.0799    1.0125    1.0030 C   0  0  0  0  0  0  0  0  0  0  0  0
   -1.6444   -0.2975    1.4565 C   0  0  0  0  0  0  0  0  0  0  0  0
   -2.3834   -0.4623    2.5058 C   0  0  0  0  0  0  0  0  0  0  0  0
   -3.1221   -0.6158    3.5614 C   0  0  0  0  0  0  0  0  0  0  0  0
    0.4614    0.3226   -1.4491 C   0  0  0  0  0  0  0  0  0  0  0  0
    0.9160   -0.7655   -2.4188 C   0  0  0  0  0  0  0  0  0  0  0  0
    0.4078   -2.1569   -2.0332 C   0  0  0  0  0  0  0  0  0  0  0  0
   -1.0519   -2.2052   -1.9639 N   0  0  0  0  0  0  0  0  0  0  0  0
   -1.5564   -3.4985   -1.5156 C   0  0  0  0  0  0  0  0  0  0  0  0
   -1.1524   -3.8399   -0.1124 C   0  0  0  0  0  0  0  0  0  0  0  0
   -1.9733   -4.0353    0.8742 C   0  0  0  0  0  0  0  0  0  0  0  0
   -2.8019   -4.2304    1.8530 C   0  0  0  0  0  0  0  0  0  0  0  0
  1  2  1  0
  1  7  1  0
  2  3  1  0
  3  4  1  0
  4  5  2  0
  5  6  2  0
  7  8  1  0
  8  9  1  0
  9 10  1  0
 10 11  1  0
 11 12  1  0
 12 13  2  0
 13 14  2  0
M  END
>  <DRUGBANK_ID>  (1) 
DB04188

>  <SECONDARY_ACCESSION_NUMBERS>  (1) 
EXPT02139

>  <COMMON_NAME>  (1) 
MDL72527

>  <CAS_NUMBER>  (1) 
99207-33-7

>  <UNII>  (1) 
G28L05X0YB

$$$$
