
     RDKit          3D

 22 24  0  0  0  0  0  0  0  0999 V2000
    1.0444    0.0935    0.1136 O   0  0  0  0  0  0  0  0  0  0  0  0
   -4.2032   -2.8710    1.0038 O   0  0  0  0  0  0  0  0  0  0  0  0
    2.9586    0.4147   -0.9942 O   0  0  0  0  0  0  0  0  0  0  0  0
   -2.0031   -2.4841    1.6948 N   0  0  0  0  0  0  0  0  0  0  0  0
   -2.5826   -4.0651    0.0486 N   0  0  0  0  0  0  0  0  0  0  0  0
   -0.6246   -2.8334    1.6724 C   0  0  0  0  0  0  0  0  0  0  0  0
   -2.3505   -1.4408    2.5960 C   0  0  0  0  0  0  0  0  0  0  0  0
    0.3875   -1.9134    1.3771 C   0  0  0  0  0  0  0  0  0  0  0  0
   -1.9921   -0.1160    2.3088 C   0  0  0  0  0  0  0  0  0  0  0  0
    0.2566   -0.3892    1.2417 C   0  0  2  0  0  0  0  0  0  0  0  0
   -1.1846    0.1570    1.0652 C   0  0  0  0  0  0  0  0  0  0  0  0
   -2.9900   -3.1282    0.9525 C   0  0  0  0  0  0  0  0  0  0  0  0
   -0.2838   -4.1998    1.8658 C   0  0  0  0  0  0  0  0  0  0  0  0
    1.6541   -2.4895    1.1767 C   0  0  0  0  0  0  0  0  0  0  0  0
   -3.0078   -1.7428    3.7955 C   0  0  0  0  0  0  0  0  0  0  0  0
   -2.3395    0.9044    3.2089 C   0  0  0  0  0  0  0  0  0  0  0  0
    1.0336   -4.6576    1.8346 C   0  0  0  0  0  0  0  0  0  0  0  0
    2.0262   -3.7737    1.5220 C   0  0  0  0  0  0  0  0  0  0  0  0
   -3.3167   -0.7268    4.7029 C   0  0  0  0  0  0  0  0  0  0  0  0
   -2.9977    0.5968    4.4027 C   0  0  0  0  0  0  0  0  0  0  0  0
    2.3945    0.2270    0.0849 C   0  0  0  0  0  0  0  0  0  0  0  0
    3.2135    0.1009    1.3613 C   0  0  0  0  0  0  0  0  0  0  0  0
  1 21  1  0
  2 12  2  0
  3 21  2  0
  4  6  1  0
  4  7  1  0
  4 12  1  0
  5 12  1  0
  6  8  2  0
  6 13  1  0
  7  9  2  0
  7 15  1  0
  8 10  1  0
  8 14  1  0
  9 11  1  0
  9 16  1  0
 10  1  1  6
 10 11  1  0
 13 17  2  0
 14 18  2  0
 15 19  2  0
 16 20  2  0
 17 18  1  0
 19 20  1  0
 21 22  1  0
M  END
>  <DRUGBANK_ID>  (1) 
DB09119

>  <COMMON_NAME>  (1) 
Eslicarbazepine acetate

>  <CAS_NUMBER>  (1) 
236395-14-5

>  <UNII>  (1) 
BEA68ZVB2K

>  <SYNONYMS>  (1) 
(10S)-10-acetoxy-10,11-dihydro-5H-dibenz[b,f]azepine-5-carboxamide; (10S)-5-carbamoyl-10,11-dihydro-5H-dibenzo[b,f]azepin-10-yl acetate; ESL; Eslicarbazepine acetate

$$$$
