
     RDKit          3D

 18 20  0  0  1  0  0  0  0  0999 V2000
    0.3554   -0.1141    1.7048 C   0  0  0  0  0  0  0  0  0  0  0  0
    1.7188   -1.2137    3.0627 C   0  0  1  0  0  0  0  0  0  0  0  0
   -0.4060   -1.1248    0.2032 C   0  0  0  0  0  0  0  0  0  0  0  0
    0.3620   -6.7589    3.1154 C   0  0  0  0  0  0  0  0  0  0  0  0
    1.0952   -6.7804    4.2716 C   0  0  0  0  0  0  0  0  0  0  0  0
    1.8395   -5.6059    4.6818 C   0  0  0  0  0  0  0  0  0  0  0  0
    0.3838   -5.6056    2.4081 C   0  0  0  0  0  0  0  0  0  0  0  0
    1.2435   -4.5248    2.7065 C   0  0  0  0  0  0  0  0  0  0  0  0
    1.8225   -4.3795    3.9095 C   0  0  0  0  0  0  0  0  0  0  0  0
    2.1366   -2.7687    4.2231 C   0  0  0  0  0  0  0  0  0  0  0  0
    2.6884   -2.2307    1.9738 C   0  0  1  0  0  0  0  0  0  0  0  0
    1.5209   -3.4823    1.7322 C   0  0  2  0  0  0  0  0  0  0  0  0
    2.9340   -1.5025    0.7050 N   0  0  0  0  0  0  0  0  0  0  0  0
   -0.3892   -7.7926    2.6527 O   0  0  0  0  0  0  0  0  0  0  0  0
   -1.0033   -2.2524    2.1670 C   0  0  0  0  0  0  0  0  0  0  0  0
    0.4218   -2.6041    1.9893 C   0  0  0  0  0  0  0  0  0  0  0  0
   -1.5411   -2.1718    0.7477 C   0  0  0  0  0  0  0  0  0  0  0  0
    1.2181   -4.0001    0.3627 C   0  0  0  0  0  0  0  0  0  0  0  0
  1  3  1  0
  2  1  1  6
  2 11  1  0
  3 17  1  0
  4  5  1  0
  4 14  1  0
  5  6  2  0
  6  9  1  0
  7  4  2  0
  8  9  2  0
  8  7  1  0
  8 12  1  0
  9 10  1  0
 10  2  1  0
 11 12  1  0
 11 13  1  6
 12 16  1  0
 12 18  1  6
 15 17  1  0
 16 15  1  0
M  END
>  <DRUGBANK_ID>  (1) 
DB01209

>  <SECONDARY_ACCESSION_NUMBERS>  (1) 
APRD00912

>  <COMMON_NAME>  (1) 
Dezocine

>  <CAS_NUMBER>  (1) 
53648-55-8

>  <UNII>  (1) 
VHX8K5SV4X

>  <SYNONYMS>  (1) 
(−)-13β-amino-5,6,7,8,9,10,11α,12-octahydro-5α-methyl-5,11-methanobenzocyclodecen-3-ol; Dezocina; Dezocine; Dezocinum

$$$$
