
     RDKit          3D

 13 13  0  0  1  0  0  0  0  0999 V2000
    0.8528    0.0160   -0.0641 C   0  0  0  0  0  0  0  0  0  0  0  0
    0.3831    0.7654   -1.3366 C   0  0  2  0  0  0  0  0  0  0  0  0
    0.3910   -1.4240    0.0085 C   0  0  0  0  0  0  0  0  0  0  0  0
    0.8768   -3.7887   -0.0254 C   0  0  0  0  0  0  0  0  0  0  0  0
   -0.4804   -4.0909   -0.0994 C   0  0  0  0  0  0  0  0  0  0  0  0
   -1.4102   -3.0577   -0.0803 C   0  0  0  0  0  0  0  0  0  0  0  0
   -0.9741   -1.7428    0.0405 C   0  0  0  0  0  0  0  0  0  0  0  0
    1.3196   -2.4697    0.0104 C   0  0  0  0  0  0  0  0  0  0  0  0
   -1.0906    0.9254   -1.4325 N   0  0  0  0  0  0  0  0  0  0  0  0
    0.9802    0.0908   -2.5851 C   0  0  0  0  0  0  0  0  0  0  0  0
    0.0758   -0.3877   -3.4728 O   0  0  0  0  0  0  0  0  0  0  0  0
    2.1852   -0.0110   -2.7860 O   0  0  0  0  0  0  0  0  0  0  0  0
    1.8226   -4.7701    0.0055 O   0  0  0  0  0  0  0  0  0  0  0  0
  1  2  1  0
  2 10  1  0
  2  9  1  6
  3  1  1  0
  3  7  2  0
  3  8  1  0
  4  8  2  0
  4 13  1  0
  5  4  1  0
  6  5  2  0
  7  6  1  0
 11 10  1  0
 12 10  2  0
M  END
>  <DRUGBANK_ID>  (1) 
DB03552

>  <SECONDARY_ACCESSION_NUMBERS>  (1) 
EXPT01333; EXPT02254; DB02387

>  <COMMON_NAME>  (1) 
3-Tyrosine

>  <CAS_NUMBER>  (1) 
587-33-7

>  <UNII>  (1) 
D5YF57V4QW

>  <SYNONYMS>  (1) 
3-(m-Hydroxyphenyl)alanine; 3-Hydroxy-L-phenylalanine; 3-Hydroxyphenylalanine; L-m-Tyr; L-m-Tyrosine; L-mTyr; m-L-Tyrosine; m-tyrosine; meta-tyrosine

$$$$
