
     RDKit          3D

 39 38  0  0  0  0  0  0  0  0999 V2000
    1.0815   -0.4017    0.7209 C   0  0  0  0  0  0  0  0  0  0  0  0
    3.4304    2.5951   -1.9352 C   0  0  0  0  0  0  0  0  0  0  0  0
   -7.5728   -4.2305  -13.7927 C   0  0  0  0  0  0  0  0  0  0  0  0
   -7.8255   -1.8300  -14.3419 C   0  0  0  0  0  0  0  0  0  0  0  0
    0.6087    0.2398   -0.5298 C   0  0  0  0  0  0  0  0  0  0  0  0
    2.6379    1.4291   -2.3952 C   0  0  0  0  0  0  0  0  0  0  0  0
    1.1311   -0.6928   -1.6854 C   0  0  0  0  0  0  0  0  0  0  0  0
    1.1644    1.9674   -2.5257 C   0  0  0  0  0  0  0  0  0  0  0  0
    0.3138   -1.8788   -2.0644 C   0  0  0  0  0  0  0  0  0  0  0  0
    0.7675    2.6501   -3.7885 C   0  0  0  0  0  0  0  0  0  0  0  0
   -1.1763   -1.5605   -2.1584 C   0  0  0  0  0  0  0  0  0  0  0  0
    1.2673    1.9212   -5.0333 C   0  0  0  0  0  0  0  0  0  0  0  0
   -1.5598   -0.7413   -3.3566 C   0  0  0  0  0  0  0  0  0  0  0  0
    0.5415    0.6421   -5.3349 C   0  0  0  0  0  0  0  0  0  0  0  0
   -1.0190   -1.5461   -4.5715 C   0  0  0  0  0  0  0  0  0  0  0  0
   -0.9562    1.0503   -5.4140 C   0  0  0  0  0  0  0  0  0  0  0  0
   -1.7325   -2.7742   -4.8783 C   0  0  0  0  0  0  0  0  0  0  0  0
   -1.3344    1.8258   -6.5832 C   0  0  0  0  0  0  0  0  0  0  0  0
   -3.2453   -2.5082   -4.9550 C   0  0  0  0  0  0  0  0  0  0  0  0
   -0.8257    1.1435   -7.8641 C   0  0  0  0  0  0  0  0  0  0  0  0
   -3.6187   -1.6197   -6.1193 C   0  0  0  0  0  0  0  0  0  0  0  0
   -1.5052   -0.1815   -8.1234 C   0  0  0  0  0  0  0  0  0  0  0  0
   -3.0591   -2.3938   -7.3374 C   0  0  0  0  0  0  0  0  0  0  0  0
   -3.0037    0.2034   -8.1747 C   0  0  0  0  0  0  0  0  0  0  0  0
   -3.7500   -3.6267   -7.6575 C   0  0  0  0  0  0  0  0  0  0  0  0
   -3.4026    0.9845   -9.3283 C   0  0  0  0  0  0  0  0  0  0  0  0
   -5.2655   -3.3791   -7.7417 C   0  0  0  0  0  0  0  0  0  0  0  0
   -2.9050    0.3150  -10.6202 C   0  0  0  0  0  0  0  0  0  0  0  0
   -5.6363   -2.5005   -8.9028 C   0  0  0  0  0  0  0  0  0  0  0  0
   -3.5852   -0.9993  -10.8801 C   0  0  0  0  0  0  0  0  0  0  0  0
   -5.0857   -3.2442  -10.1647 C   0  0  0  0  0  0  0  0  0  0  0  0
   -5.1117   -0.6603  -10.9378 C   0  0  0  0  0  0  0  0  0  0  0  0
   -5.9175   -4.3124  -10.6890 C   0  0  0  0  0  0  0  0  0  0  0  0
   -5.6022   -0.1402  -12.2014 C   0  0  0  0  0  0  0  0  0  0  0  0
   -7.3565   -3.8174  -10.9225 C   0  0  0  0  0  0  0  0  0  0  0  0
   -5.1963   -1.0634  -13.3646 C   0  0  0  0  0  0  0  0  0  0  0  0
   -7.7450   -2.6930  -11.9410 C   0  0  0  0  0  0  0  0  0  0  0  0
   -5.6741   -2.5470  -13.5175 C   0  0  0  0  0  0  0  0  0  0  0  0
   -7.1754   -2.8131  -13.3590 N   0  0  0  0  0  0  0  0  0  0  0  0
  5  1  1  0
  6  2  1  0
  7  5  1  0
  8  6  1  0
  9  7  1  0
 10  8  1  0
 11  9  1  0
 12 10  1  0
 13 11  1  0
 14 12  1  0
 15 13  1  0
 16 14  1  0
 17 15  1  0
 18 16  1  0
 19 17  1  0
 20 18  1  0
 21 19  1  0
 22 20  1  0
 23 21  1  0
 24 22  1  0
 25 23  1  0
 26 24  1  0
 27 25  1  0
 28 26  1  0
 29 27  1  0
 30 28  1  0
 31 29  1  0
 32 30  1  0
 33 31  1  0
 34 32  1  0
 35 33  1  0
 36 34  1  0
 37 35  1  0
 38 36  1  0
 39  3  1  0
 39  4  1  0
 39 37  1  0
 39 38  1  0
M  CHG  1  39   1
M  END
>  <DRUGBANK_ID>  (1) 
DB14143

>  <COMMON_NAME>  (1) 
Distearyldimonium

>  <CAS_NUMBER>  (1) 
14357-21-2

>  <UNII>  (1) 
251IW5I21C

>  <SYNONYMS>  (1) 
Dimethyldioctadecylammonium; Dimethyldistearylammonium; Dioctadecyldimethylammonium; Dioctadecyldimethylammonium ion; Distearyldimethylammonium

$$$$
