
     RDKit          3D

 39 43  0  0  1  0  0  0  0  0999 V2000
    0.6028   -0.3291    0.2067 C   0  0  0  0  0  0  0  0  0  0  0  0
    0.1618    0.0488   -1.0984 O   0  0  0  0  0  0  0  0  0  0  0  0
    0.9234    1.1147   -1.7284 C   0  0  2  0  0  0  0  0  0  0  0  0
    2.4077    0.8486   -1.5249 C   0  0  2  0  0  0  0  0  0  0  0  0
    2.6491   -0.6069   -1.7799 O   0  0  0  0  0  0  0  0  0  0  0  0
    3.4931   -1.3116   -3.0237 P   0  0  1  0  0  0  0  0  0  0  0  0
    4.4355    0.2313   -3.7572 S   0  0  0  0  0  0  0  0  0  0  0  0
    4.6665   -2.1564   -2.6347 O   0  0  0  0  0  0  0  0  0  0  0  0
    2.6680   -1.6922   -4.4223 O   0  0  0  0  0  0  0  0  0  0  0  0
    2.9204   -0.9648   -5.7559 C   0  0  0  0  0  0  0  0  0  0  0  0
    1.8166    0.1139   -5.9167 C   0  0  1  0  0  0  0  0  0  0  0  0
    1.8252    0.8701   -4.6641 O   0  0  0  0  0  0  0  0  0  0  0  0
    1.8277    2.3135   -4.9193 C   0  0  2  0  0  0  0  0  0  0  0  0
    1.2309    2.4130   -6.2904 C   0  0  0  0  0  0  0  0  0  0  0  0
    1.9162    1.2310   -6.9665 C   0  0  2  0  0  0  0  0  0  0  0  0
    1.2644    0.9244   -8.1789 O   0  0  0  0  0  0  0  0  0  0  0  0
    3.0111    3.1711   -4.5537 N   0  0  0  0  0  0  0  0  0  0  0  0
    4.0785    3.0217   -3.7186 C   0  0  0  0  0  0  0  0  0  0  0  0
    4.6812    4.0783   -3.2773 N   0  0  0  0  0  0  0  0  0  0  0  0
    4.0965    5.0302   -3.9670 C   0  0  0  0  0  0  0  0  0  0  0  0
    3.0880    4.5473   -4.7944 C   0  0  0  0  0  0  0  0  0  0  0  0
    2.3239    5.3314   -5.5663 N   0  0  0  0  0  0  0  0  0  0  0  0
    2.6511    6.6487   -5.3669 C   0  0  0  0  0  0  0  0  0  0  0  0
    3.5984    7.2113   -4.5703 N   0  0  0  0  0  0  0  0  0  0  0  0
    4.3741    6.3816   -3.8735 C   0  0  0  0  0  0  0  0  0  0  0  0
    5.3730    6.8289   -3.0252 N   0  0  0  0  0  0  0  0  0  0  0  0
    2.6583    1.6103   -0.1627 C   0  0  1  0  0  0  0  0  0  0  0  0
    4.1022    2.1489    0.0386 C   0  0  0  0  0  0  0  0  0  0  0  0
    4.4525    3.4450   -0.3910 O   0  0  0  0  0  0  0  0  0  0  0  0
    1.6162    2.6242   -0.0513 O   0  0  0  0  0  0  0  0  0  0  0  0
    0.6623    2.5237   -1.1339 C   0  0  1  0  0  0  0  0  0  0  0  0
    0.7147    3.7487   -2.0145 N   0  0  0  0  0  0  0  0  0  0  0  0
   -0.1579    3.8977   -3.1038 C   0  0  0  0  0  0  0  0  0  0  0  0
   -0.1304    4.9819   -3.8931 C   0  0  0  0  0  0  0  0  0  0  0  0
    0.5621    6.1655   -3.3931 C   0  0  0  0  0  0  0  0  0  0  0  0
    0.3153    7.2944   -3.8581 O   0  0  0  0  0  0  0  0  0  0  0  0
    1.5037    5.9206   -2.4632 N   0  0  0  0  0  0  0  0  0  0  0  0
    1.5669    4.8059   -1.6849 C   0  0  0  0  0  0  0  0  0  0  0  0
    2.3848    4.8295   -0.7785 O   0  0  0  0  0  0  0  0  0  0  0  0
  1  2  1  0
  3  2  1  1
  3  4  1  0
  3 31  1  0
  4 27  1  0
  4  5  1  1
  5  6  1  0
  6  7  1  6
  6  8  2  0
  6  9  1  0
  9 10  1  0
 11 10  1  1
 11 12  1  0
 11 15  1  0
 13 12  1  0
 13 14  1  0
 13 17  1  6
 15 14  1  0
 15 16  1  6
 17 18  1  0
 17 21  1  0
 18 19  2  0
 19 20  1  0
 20 21  2  0
 20 25  1  0
 21 22  1  0
 22 23  2  0
 23 24  1  0
 24 25  2  0
 25 26  1  0
 27 30  1  0
 27 28  1  6
 28 29  1  0
 31 30  1  0
 31 32  1  6
 32 33  1  0
 32 38  1  0
 33 34  2  0
 34 35  1  0
 35 36  2  0
 35 37  1  0
 37 38  1  0
 38 39  2  0
M  END
>  <DRUGBANK_ID>  (1) 
DB15062

>  <COMMON_NAME>  (1) 
Inarigivir

>  <CAS_NUMBER>  (1) 
475650-36-3

>  <UNII>  (1) 
TQ0A9FIV71

$$$$
