
     RDKit          3D

  9  9  0  0  0  0  0  0  0  0999 V2000
    1.1063    0.6539    0.0112 C   0  0  0  0  0  0  0  0  0  0  0  0
    1.0481   -0.7546    0.0196 C   0  0  0  0  0  0  0  0  0  0  0  0
   -0.6923    2.4646   -0.0178 C   0  0  0  0  0  0  0  0  0  0  0  0
   -0.9406   -2.4331   -0.0203 C   0  0  0  0  0  0  0  0  0  0  0  0
   -0.1982    1.1086    0.0016 C   0  0  0  0  0  0  0  0  0  0  0  0
   -0.2866   -1.0984    0.0176 C   0  0  0  0  0  0  0  0  0  0  0  0
   -1.8674    2.8285   -0.0279 O   0  0  0  0  0  0  0  0  0  0  0  0
   -1.7204   -2.6187    1.1516 O   0  0  0  0  0  0  0  0  0  0  0  0
   -1.0574    0.0354    0.0050 O   0  0  0  0  0  0  0  0  0  0  0  0
  2  1  1  0
  5  1  2  0
  5  3  1  0
  6  2  2  0
  6  4  1  0
  7  3  2  0
  8  4  1  0
  9  5  1  0
  9  6  1  0
M  END
>  <DRUGBANK_ID>  (1) 
DB12298

>  <COMMON_NAME>  (1) 
5-Hydroxymethylfurfural

>  <CAS_NUMBER>  (1) 
67-47-0

>  <UNII>  (1) 
70ETD81LF0

>  <SYNONYMS>  (1) 
5-(hydroxymethyl)-2-furaldehyde; 5-(Hydroxymethyl)-2-furfural; 5-(Hydroxymethyl)furfural; 5-Hydroxymethyl-2-furaldehyde; Hydroxymethylfurfural

$$$$
