H16
     RDKit          3D

 22 24  0  0  0  0  0  0  0  0999 V2000
   -1.3435    0.3513   -0.2688 C   0  0  0  0  0  0  0  0  0  0  0  0
   -0.9722   -0.9330    0.4776 C   0  0  0  0  0  0  0  0  0  0  0  0
    0.5084   -1.2066    0.3049 C   0  0  0  0  0  0  0  0  0  0  0  0
    1.5130   -0.1227    0.5798 C   0  0  0  0  0  0  0  0  0  0  0  0
    1.0679    1.1946   -0.0474 C   0  0  0  0  0  0  0  0  0  0  0  0
   -0.4083    1.4759    0.2070 C   0  0  0  0  0  0  0  0  0  0  0  0
    2.5385   -0.7591   -3.9009 N   0  0  0  0  0  0  0  0  0  0  0  0
    1.8721    0.3372   -4.3770 C   0  0  0  0  0  0  0  0  0  0  0  0
    2.3402    0.9593   -5.3077 O   0  0  0  0  0  0  0  0  0  0  0  0
    0.5994    0.7322   -3.6597 C   0  0  0  0  0  0  0  0  0  0  0  0
   -0.0469   -0.2177   -2.9347 C   0  0  0  0  0  0  0  0  0  0  0  0
   -1.5781    0.1283   -2.1174 S   0  0  0  0  0  0  0  0  0  0  0  0
    1.9103   -1.7549   -3.1665 C   0  0  0  0  0  0  0  0  0  0  0  0
    0.5478   -1.6070   -2.8473 C   0  0  0  0  0  0  0  0  0  0  0  0
   -0.0639   -2.6880   -2.1787 C   0  0  0  0  0  0  0  0  0  0  0  0
    0.7162   -3.7290   -1.6447 C   0  0  0  0  0  0  0  0  0  0  0  0
    2.0731   -3.8253   -1.9347 C   0  0  0  0  0  0  0  0  0  0  0  0
    2.6595   -2.8674   -2.7570 C   0  0  0  0  0  0  0  0  0  0  0  0
    0.0487   -4.7445   -0.4148 Cl  0  0  0  0  0  0  0  0  0  0  0  0
    0.1388    2.1729   -3.8691 C   0  0  0  0  0  0  0  0  0  0  0  0
    1.0377    3.3090   -3.3371 C   0  0  0  0  0  0  0  0  0  0  0  0
    2.3936    3.3981   -4.0098 C   0  0  0  0  0  0  0  0  0  0  0  0
  1  2  1  0
  1  6  1  0
  1 12  1  0
  2  3  1  0
  3  4  1  0
  4  5  1  0
  5  6  1  0
  7  8  1  0
  7 13  1  0
  8  9  2  0
  8 10  1  0
 10 11  2  0
 10 20  1  0
 11 12  1  0
 11 14  1  0
 13 14  2  0
 13 18  1  0
 14 15  1  0
 15 16  2  0
 16 17  1  0
 16 19  1  0
 17 18  2  0
 20 21  1  0
 21 22  1  0
M  END
>  <DRUGBANK_ID>  (1) 
DB07868

>  <COMMON_NAME>  (1) 
6-CHLORO-4-(CYCLOHEXYLSULFANYL)-3-PROPYLQUINOLIN-2(1H)-ONE

$$$$
