
     RDKit          3D

 41 44  0  0  0  0  0  0  0  0999 V2000
    1.8558    0.2539   -1.2697 O   0  0  0  0  0  0  0  0  0  0  0  0
    3.1745    2.6776    2.0811 O   0  0  0  0  0  0  0  0  0  0  0  0
   -1.4073    0.8857    4.5203 O   0  0  0  0  0  0  0  0  0  0  0  0
    6.6879   -3.5357   -1.0941 O   0  0  0  0  0  0  0  0  0  0  0  0
    6.7207    0.8612   -1.4096 O   0  0  0  0  0  0  0  0  0  0  0  0
    7.0476   -1.5578   -1.9923 O   0  0  0  0  0  0  0  0  0  0  0  0
    0.4120   -1.2828   -0.3180 N   0  0  0  0  0  0  0  0  0  0  0  0
    1.3224    2.1832    0.8848 N   0  0  0  0  0  0  0  0  0  0  0  0
    0.7111    0.9823    3.7875 N   0  0  0  0  0  0  0  0  0  0  0  0
    0.3383    1.2031    0.3922 C   0  0  1  0  0  0  0  0  0  0  0  0
   -0.8452    1.7364   -0.3776 C   0  0  0  0  0  0  0  0  0  0  0  0
   -2.0706    0.8388   -0.1364 C   0  0  0  0  0  0  0  0  0  0  0  0
   -1.9914   -0.5939   -0.6483 C   0  0  0  0  0  0  0  0  0  0  0  0
   -0.9872   -1.5256   -0.0428 C   0  0  0  0  0  0  0  0  0  0  0  0
    0.9316    0.0212   -0.4876 C   0  0  0  0  0  0  0  0  0  0  0  0
    1.2093   -2.4825   -0.7301 C   0  0  0  0  0  0  0  0  0  0  0  0
    1.9317    0.7913    2.9695 C   0  0  2  0  0  0  0  0  0  0  0  0
    2.1571    1.9825    1.9785 C   0  0  0  0  0  0  0  0  0  0  0  0
    1.2332   -3.6868    0.2447 C   0  0  0  0  0  0  0  0  0  0  0  0
    2.0447   -0.5376    2.2680 C   0  0  0  0  0  0  0  0  0  0  0  0
    0.1055   -4.1746    0.9048 C   0  0  0  0  0  0  0  0  0  0  0  0
    2.4051   -4.4280    0.4796 C   0  0  0  0  0  0  0  0  0  0  0  0
    3.2744   -0.8051    1.4594 C   0  0  0  0  0  0  0  0  0  0  0  0
    0.1647   -5.1894    1.8521 C   0  0  0  0  0  0  0  0  0  0  0  0
    2.5159   -5.3524    1.5286 C   0  0  0  0  0  0  0  0  0  0  0  0
    1.3815   -5.7323    2.2291 C   0  0  0  0  0  0  0  0  0  0  0  0
    3.9101    0.0584    0.5756 C   0  0  0  0  0  0  0  0  0  0  0  0
    3.7518   -2.0856    1.5111 C   0  0  0  0  0  0  0  0  0  0  0  0
   -0.4988    0.3574    3.8825 C   0  0  0  0  0  0  0  0  0  0  0  0
    4.9968   -0.3250   -0.2287 C   0  0  0  0  0  0  0  0  0  0  0  0
    1.4435   -6.8010    3.2008 C   0  0  0  0  0  0  0  0  0  0  0  0
    4.8134   -2.4995    0.7075 C   0  0  0  0  0  0  0  0  0  0  0  0
    5.4282   -1.6516   -0.2203 C   0  0  0  0  0  0  0  0  0  0  0  0
   -0.7814   -0.8826    3.1133 C   0  0  0  0  0  0  0  0  0  0  0  0
    0.8202   -8.0121    2.8779 C   0  0  0  0  0  0  0  0  0  0  0  0
    2.1795   -6.6816    4.3845 C   0  0  0  0  0  0  0  0  0  0  0  0
    5.6088    0.8375   -0.9143 C   0  0  0  0  0  0  0  0  0  0  0  0
    6.4647   -2.1932   -1.1703 C   0  0  0  0  0  0  0  0  0  0  0  0
    0.9444   -9.1052    3.7163 C   0  0  0  0  0  0  0  0  0  0  0  0
    2.3498   -7.7964    5.1970 C   0  0  0  0  0  0  0  0  0  0  0  0
    1.7103   -8.9955    4.8747 C   0  0  0  0  0  0  0  0  0  0  0  0
  1 15  2  0
  2 18  2  0
  3 29  2  0
  4 38  1  0
  5 37  2  0
  6 38  2  0
  7 14  1  0
  7 15  1  0
  7 16  1  0
  8 18  1  0
  9 29  1  0
 10 11  1  0
 10 15  1  0
 10  8  1  6
 11 12  1  0
 12 13  1  0
 13 14  1  0
 16 19  1  0
 17  9  1  0
 17 18  1  0
 17 20  1  6
 19 21  2  0
 19 22  1  0
 20 23  1  0
 21 24  1  0
 22 25  2  0
 23 27  2  0
 23 28  1  0
 24 26  2  0
 25 26  1  0
 26 31  1  0
 27 30  1  0
 28 32  2  0
 29 34  1  0
 30 33  2  0
 30 37  1  0
 31 35  2  0
 31 36  1  0
 32 33  1  0
 33 38  1  0
 35 39  1  0
 36 40  2  0
 39 41  2  0
 40 41  1  0
M  END
>  <DRUGBANK_ID>  (1) 
DB03268

>  <SECONDARY_ACCESSION_NUMBERS>  (1) 
EXPT00063

>  <COMMON_NAME>  (1) 
RU82197

>  <SYNONYMS>  (1) 
4-[2-Acetylamino-2-(1-biphenyl-4-ylmethyl-2-oxo-azepan-3-ylcarbamoyl)-ethyl]-2-formyl-benzoic acid

$$$$
