
     RDKit          3D

 17 18  0  0  0  0  0  0  0  0999 V2000
    1.4036    0.0015   -0.0131 C   0  0  0  0  0  0  0  0  0  0  0  0
    0.6845    1.2050   -0.0109 C   0  0  0  0  0  0  0  0  0  0  0  0
   -0.7080    1.0908   -0.0190 C   0  0  0  0  0  0  0  0  0  0  0  0
   -1.3834   -0.0802   -0.0018 N   0  0  0  0  0  0  0  0  0  0  0  0
   -0.6432   -1.2073    0.0027 C   0  0  0  0  0  0  0  0  0  0  0  0
    0.7377   -1.2182   -0.0078 C   0  0  0  0  0  0  0  0  0  0  0  0
    0.2862    4.7261   -1.0923 C   0  0  0  0  0  0  0  0  0  0  0  0
    0.9589    3.4111   -1.2129 C   0  0  0  0  0  0  0  0  0  0  0  0
    0.7342    5.7384   -0.2443 C   0  0  0  0  0  0  0  0  0  0  0  0
   -0.8410    4.9809   -1.8610 C   0  0  0  0  0  0  0  0  0  0  0  0
    1.1516    2.9888   -2.3573 O   0  0  0  0  0  0  0  0  0  0  0  0
   -0.0052    6.9091   -0.1119 C   0  0  0  0  0  0  0  0  0  0  0  0
   -1.5540    6.1338   -1.7873 N   0  0  0  0  0  0  0  0  0  0  0  0
   -1.1236    7.0674   -0.9099 C   0  0  0  0  0  0  0  0  0  0  0  0
    1.3548    2.5870    0.0479 C   0  0  0  0  0  0  0  0  0  0  0  0
    0.9417    3.2190    1.3933 C   0  0  0  0  0  0  0  0  0  0  0  0
    2.8948    2.4750    0.0346 C   0  0  0  0  0  0  0  0  0  0  0  0
  1  6  2  0
  2  1  1  0
  2  3  2  0
  3  4  1  0
  4  5  2  0
  6  5  1  0
  7  8  1  0
  7  9  2  0
  7 10  1  0
  8 15  1  0
  8 11  2  0
  9 12  1  0
 10 13  2  0
 12 14  2  0
 13 14  1  0
 15  2  1  0
 15 16  1  0
 15 17  1  0
M  END
>  <DRUGBANK_ID>  (1) 
DB01011

>  <SECONDARY_ACCESSION_NUMBERS>  (1) 
APRD01111; EXPT02271

>  <COMMON_NAME>  (1) 
Metyrapone

>  <CAS_NUMBER>  (1) 
54-36-4

>  <UNII>  (1) 
ZS9KD92H6V

>  <SYNONYMS>  (1) 
Metirapona; MÃ©tyrapone; Metyrapone; Metyraponum

$$$$
