
     RDKit          3D

 20 20  0  0  0  0  0  0  0  0999 V2000
    0.2897    1.4942    0.0447 C   0  0  0  0  0  0  0  0  0  0  0  0
   -1.1376    1.0151    0.0223 C   0  0  0  0  0  0  0  0  0  0  0  0
   -1.3389   -0.4531    0.0033 C   0  0  0  0  0  0  0  0  0  0  0  0
   -0.3846   -1.4017    0.0062 C   0  0  0  0  0  0  0  0  0  0  0  0
    1.0449   -1.0552    0.0113 C   0  0  0  0  0  0  0  0  0  0  0  0
    1.4178    0.4335   -0.0137 C   0  0  0  0  0  0  0  0  0  0  0  0
    2.0868    0.6766   -1.4004 C   0  0  0  0  0  0  0  0  0  0  0  0
    2.2353    0.7343    1.2823 C   0  0  0  0  0  0  0  0  0  0  0  0
   -0.8717   -2.8324   -0.0075 C   0  0  0  0  0  0  0  0  0  0  0  0
    2.0352   -1.9841    0.0029 C   0  0  0  0  0  0  0  0  0  0  0  0
    3.4753   -1.7170   -0.0306 C   0  0  0  0  0  0  0  0  0  0  0  0
    4.4653   -2.6264   -0.0063 C   0  0  0  0  0  0  0  0  0  0  0  0
    5.8543   -2.1580   -0.0041 C   0  0  0  0  0  0  0  0  0  0  0  0
    6.9090   -2.9878    0.0035 C   0  0  0  0  0  0  0  0  0  0  0  0
    8.3144   -2.6465    0.0083 C   0  0  0  0  0  0  0  0  0  0  0  0
    9.2794   -3.6001    0.0099 C   0  0  0  0  0  0  0  0  0  0  0  0
   10.6900   -3.2299    0.0119 C   0  0  0  0  0  0  0  0  0  0  0  0
   11.7290   -4.0784    0.0126 C   0  0  0  0  0  0  0  0  0  0  0  0
    8.9012   -5.0670    0.0084 C   0  0  0  0  0  0  0  0  0  0  0  0
    4.0827   -4.0743    0.0104 C   0  0  0  0  0  0  0  0  0  0  0  0
  1  2  1  0
  1  6  1  0
  2  3  1  0
  3  4  2  0
  4  5  1  0
  4  9  1  0
  5 10  2  0
  5  6  1  0
  6  7  1  0
  6  8  1  0
 10 11  1  0
 11 12  2  0
 12 13  1  0
 12 20  1  0
 13 14  2  0
 14 15  1  0
 15 16  2  0
 16 17  1  0
 16 19  1  0
 17 18  2  0
M  END
>  <DRUGBANK_ID>  (1) 
DB02914

>  <SECONDARY_ACCESSION_NUMBERS>  (1) 
EXPT00525

>  <COMMON_NAME>  (1) 
Anhydrovitamin A

>  <CAS_NUMBER>  (1) 
1224-78-8

>  <UNII>  (1) 
235BBF3K97

>  <SYNONYMS>  (1) 
Anhydro-retinol

$$$$
