219
     RDKit          3D

 25 26  0  0  1  0  0  0  0  0999 V2000
    0.9215    0.2549    0.8996 O   0  0  0  0  0  0  0  0  0  0  0  0
   -1.5666    0.0616    0.5229 O   0  0  0  0  0  0  0  0  0  0  0  0
   -1.9372    2.0137    1.5960 O   0  0  0  0  0  0  0  0  0  0  0  0
    0.8760    0.4813   -1.6968 N   0  0  0  0  0  0  0  0  0  0  0  0
    1.0427    1.2338    2.7431 C   0  0  0  0  0  0  0  0  0  0  0  0
    0.5809   -0.1746    3.2468 C   0  0  0  0  0  0  0  0  0  0  0  0
    0.5854    2.4283    3.4972 C   0  0  0  0  0  0  0  0  0  0  0  0
    0.5163    1.4649    1.3862 C   0  0  0  0  0  0  0  0  0  0  0  0
    1.0090   -0.3025    4.6606 C   0  0  0  0  0  0  0  0  0  0  0  0
    0.9989    2.2454    4.8982 C   0  0  0  0  0  0  0  0  0  0  0  0
    0.4713    0.9093    5.4072 C   0  0  0  0  0  0  0  0  0  0  0  0
    1.2784    2.7635    0.7634 C   0  0  0  0  0  0  0  0  0  0  0  0
   -0.2313   -0.5373   -1.8790 C   0  0  0  0  0  0  0  0  0  0  0  0
   -1.1174    1.2258    1.2316 C   0  0  0  0  0  0  0  0  0  0  0  0
    1.9692   -0.3333   -0.8346 C   0  0  0  0  0  0  0  0  0  0  0  0
    1.7171    1.1175   -2.7746 C   0  0  0  0  0  0  0  0  0  0  0  0
   -0.9702   -0.9530   -0.4692 C   0  0  0  0  0  0  0  0  0  0  0  0
   -0.1161    1.6445   -1.3283 C   0  0  0  0  0  0  0  0  0  0  0  0
    0.5241    3.9521    0.7962 C   0  0  0  0  0  0  0  0  0  0  0  0
    2.4808    2.8465   -0.0247 C   0  0  0  0  0  0  0  0  0  0  0  0
    2.8514   -1.4178   -1.3542 C   0  0  0  0  0  0  0  0  0  0  0  0
    0.9220    2.0599   -3.6451 C   0  0  0  0  0  0  0  0  0  0  0  0
    0.8484    5.0851    0.0411 C   0  0  0  0  0  0  0  0  0  0  0  0
    2.7706    3.9769   -0.8407 C   0  0  0  0  0  0  0  0  0  0  0  0
    1.9483    5.0917   -0.8050 C   0  0  0  0  0  0  0  0  0  0  0  0
  1  8  1  0
  2 14  1  0
  2 17  1  0
  3 14  2  0
  4 13  1  0
  4 15  1  0
  4 16  1  0
  4 18  1  0
  5  6  1  0
  5  7  1  0
  5  8  1  0
  6  9  1  0
  7 10  1  0
  8 12  1  0
  8 14  1  0
  9 11  1  0
 10 11  1  0
 12 19  2  0
 12 20  1  0
 13 17  1  0
 15 21  1  0
 16 22  1  0
 19 23  1  0
 20 24  2  0
 23 25  2  0
 24 25  1  0
M  CHG  1   4   1
M  END
>  <DRUGBANK_ID>  (1) 
DB00219

>  <SECONDARY_ACCESSION_NUMBERS>  (1) 
APRD00189

>  <COMMON_NAME>  (1) 
Oxyphenonium

>  <CAS_NUMBER>  (1) 
14214-84-7

>  <UNII>  (1) 
D2G5508Y7I

>  <SYNONYMS>  (1) 
Oxyphenonium cation; Oxyphenonium ion

$$$$
