
     RDKit          3D

 17 17  0  0  0  0  0  0  0  0999 V2000
    0.6925    0.5698   -0.6171 C   0  0  0  0  0  0  0  0  0  0  0  0
    0.3841   -0.0162   -1.9501 C   0  0  0  0  0  0  0  0  0  0  0  0
    1.0035   -1.4112   -2.1028 C   0  0  0  0  0  0  0  0  0  0  0  0
    0.2433   -2.6660   -0.9946 S   0  0  0  0  0  0  0  0  0  0  0  0
    1.1402   -2.7104    0.5862 C   0  0  0  0  0  0  0  0  0  0  0  0
    1.3882   -1.5100    1.2710 C   0  0  0  0  0  0  0  0  0  0  0  0
    1.5127   -1.3108    2.6371 C   0  0  0  0  0  0  0  0  0  0  0  0
    1.7469   -2.4411    3.3622 C   0  0  0  0  0  0  0  0  0  0  0  0
    1.7199   -3.7055    2.6918 C   0  0  0  0  0  0  0  0  0  0  0  0
    1.3807   -3.8536    1.3204 C   0  0  0  0  0  0  0  0  0  0  0  0
    1.3981   -5.1581    0.8875 O   0  0  0  0  0  0  0  0  0  0  0  0
    1.3907   -5.3993   -0.5174 C   0  0  0  0  0  0  0  0  0  0  0  0
    2.1763   -2.3056    4.8050 C   0  0  0  0  0  0  0  0  0  0  0  0
    1.1677   -2.8844    5.7893 C   0  0  0  0  0  0  0  0  0  0  0  0
    0.9860   -4.3235    5.6146 N   0  0  0  0  0  0  0  0  0  0  0  0
    1.5579   -0.0695    3.2229 O   0  0  0  0  0  0  0  0  0  0  0  0
    1.1899    1.0736    2.4431 C   0  0  0  0  0  0  0  0  0  0  0  0
  1  2  1  0
  2  3  1  0
  3  4  1  0
  4  5  1  0
  5  6  2  0
  5 10  1  0
  6  7  1  0
  7  8  2  0
  7 16  1  0
  8  9  1  0
  8 13  1  0
  9 10  2  0
 10 11  1  0
 11 12  1  0
 13 14  1  0
 14 15  1  0
 16 17  1  0
M  END
>  <DRUGBANK_ID>  (1) 
DB01458

>  <COMMON_NAME>  (1) 
2,5-Dimethoxy-4-(n)-propylthiophenethylamine

>  <CAS_NUMBER>  (1) 
207740-26-9

>  <UNII>  (1) 
TJG366J9BA

>  <SYNONYMS>  (1) 
2,5-dimethoxy-4-propylthiophenethylamine

$$$$
