
     RDKit          3D

 18 18  0  0  0  0  0  0  0  0999 V2000
    1.0784   -0.0549   -0.0289 C   0  0  0  0  0  0  0  0  0  0  0  0
   -1.6170   -2.3288    1.1714 C   0  0  0  0  0  0  0  0  0  0  0  0
   -2.1925    0.7044   -1.2878 C   0  0  0  0  0  0  0  0  0  0  0  0
   -0.2254   -0.0549   -0.0289 C   0  0  0  0  0  0  0  0  0  0  0  0
   -1.9296   -1.5623   -0.1098 C   0  0  0  0  0  0  0  0  0  0  0  0
   -6.7968   -0.8407   -1.2590 C   0  0  0  0  0  0  0  0  0  0  0  0
   -5.7503   -1.6691   -0.9514 C   0  0  0  0  0  0  0  0  0  0  0  0
   -6.8527    0.4247   -0.6648 C   0  0  0  0  0  0  0  0  0  0  0  0
   -4.9110   -1.2697    0.0838 C   0  0  0  0  0  0  0  0  0  0  0  0
   -5.7750    0.9462    0.0949 C   0  0  0  0  0  0  0  0  0  0  0  0
   -4.7639    0.0738    0.5011 C   0  0  0  0  0  0  0  0  0  0  0  0
   -5.8035    2.4002    0.3850 C   0  0  0  0  0  0  0  0  0  0  0  0
   -3.6800    0.5308    1.4511 C   0  0  0  0  0  0  0  0  0  0  0  0
   -1.7454   -0.0549   -0.0289 C   0  0  0  0  0  0  0  0  0  0  0  0
   -6.7808    3.1256    0.1953 O   0  0  0  0  0  0  0  0  0  0  0  0
   -4.6319    2.9118    0.7746 O   0  0  0  0  0  0  0  0  0  0  0  0
   -4.0408    0.9840    2.5358 O   0  0  0  0  0  0  0  0  0  0  0  0
   -2.3414    0.4989    1.1532 O   0  0  0  0  0  0  0  0  0  0  0  0
  4  1  3  0
  5  2  1  0
  7  6  2  0
  8  6  1  0
  9  7  1  0
 10  8  2  0
 11  9  2  0
 11 10  1  0
 12 10  1  0
 13 11  1  0
 14  3  1  0
 14  4  1  0
 14  5  1  0
 15 12  2  0
 16 12  1  0
 17 13  2  0
 18 13  1  0
 18 14  1  0
M  END
>  <DRUGBANK_ID>  (1) 
DB11449

>  <COMMON_NAME>  (1) 
Phthalofyne

>  <CAS_NUMBER>  (1) 
131-67-9

>  <UNII>  (1) 
TA9XO4D05J

>  <SYNONYMS>  (1) 
Ftalofino; Ftalofyne; Ftalofynum; Phthalofyne

$$$$
