
     RDKit          3D

 25 28  0  0  0  0  0  0  0  0999 V2000
    1.6760   -0.0341   -0.0296 C   0  0  0  0  0  0  0  0  0  0  0  0
    0.9281   -1.1197   -0.3450 C   0  0  0  0  0  0  0  0  0  0  0  0
   -0.2898   -0.9164   -0.9868 C   0  0  0  0  0  0  0  0  0  0  0  0
   -1.0328    0.2777   -0.9884 C   0  0  0  0  0  0  0  0  0  0  0  0
   -0.2673    1.3881   -0.4091 C   0  0  0  0  0  0  0  0  0  0  0  0
    1.0969    1.2278   -0.1241 C   0  0  0  0  0  0  0  0  0  0  0  0
   -3.1611    0.5210   -1.1694 S   0  0  0  0  0  0  0  0  0  0  0  0
   -2.4964    1.2199   -0.0329 O   0  0  0  0  0  0  0  0  0  0  0  0
   -3.3067    1.1718   -2.4303 O   0  0  0  0  0  0  0  0  0  0  0  0
   -5.4699   -0.0037   -0.2300 C   0  0  0  0  0  0  0  0  0  0  0  0
   -6.5061    1.4860   -0.1382 C   0  0  0  0  0  0  0  0  0  0  0  0
   -6.2493    2.5524   -0.9643 C   0  0  0  0  0  0  0  0  0  0  0  0
   -5.6315    3.8854   -0.8117 C   0  0  0  0  0  0  0  0  0  0  0  0
   -4.2697    4.0703   -0.6043 C   0  0  0  0  0  0  0  0  0  0  0  0
   -3.6601    3.0343    0.0689 C   0  0  0  0  0  0  0  0  0  0  0  0
   -4.4168    1.8110    0.2903 C   0  0  0  0  0  0  0  0  0  0  0  0
   -5.4029    1.6754   -1.1781 C   0  0  0  0  0  0  0  0  0  0  0  0
   -5.9657    0.2706   -1.8847 N   0  0  0  0  0  0  0  0  0  0  0  0
   -5.9899   -0.7310   -1.0946 C   0  0  0  0  0  0  0  0  0  0  0  0
   -3.8697    0.1153    0.9772 N   0  0  0  0  0  0  0  0  0  0  0  0
   -2.7987   -0.0626    2.0180 C   0  0  0  0  0  0  0  0  0  0  0  0
   -1.5525   -0.9380    1.6250 C   0  0  0  0  0  0  0  0  0  0  0  0
   -1.7384   -2.2274    0.8556 N   0  0  0  0  0  0  0  0  0  0  0  0
   -2.4996   -2.1497   -0.3850 C   0  0  0  0  0  0  0  0  0  0  0  0
   -3.7908   -1.4969   -0.0173 C   0  0  0  0  0  0  0  0  0  0  0  0
  1  2  2  0
  1  6  1  0
  2  3  1  0
  3  4  2  0
  4  5  1  0
  4  7  1  0
  5  6  2  0
  7  8  2  0
  7  9  2  0
  7 10  1  0
 10 11  2  0
 10 19  1  0
 11 12  1  0
 12 13  2  0
 12 17  1  0
 13 14  1  0
 14 15  2  0
 15 16  1  0
 16 17  2  0
 16 20  1  0
 17 18  1  0
 18 19  2  0
 20 21  1  0
 20 25  1  0
 21 22  1  0
 22 23  1  0
 23 24  1  0
 24 25  1  0
M  END
>  <DRUGBANK_ID>  (1) 
DB12680

>  <COMMON_NAME>  (1) 
Intepirdine

>  <CAS_NUMBER>  (1) 
607742-69-8

>  <UNII>  (1) 
2IOB2M82HY

>  <SYNONYMS>  (1) 
Intepirdine

$$$$
