R8D
     RDKit          3D

 28 31  0  0  0  0  0  0  0  0999 V2000
   -2.0731   -0.5375   -0.3735 Cl  0  0  0  0  0  0  0  0  0  0  0  0
   -0.4119   -0.1435   -0.0972 C   0  0  0  0  0  0  0  0  0  0  0  0
    0.1660    1.1363   -0.0205 C   0  0  0  0  0  0  0  0  0  0  0  0
   -0.4500    2.3801   -0.0825 O   0  0  0  0  0  0  0  0  0  0  0  0
   -1.8181    2.4808   -0.0136 C   0  0  0  0  0  0  0  0  0  0  0  0
   -2.4934    3.0407   -1.1030 C   0  0  0  0  0  0  0  0  0  0  0  0
   -3.8952    3.0448   -1.1256 C   0  0  0  0  0  0  0  0  0  0  0  0
   -4.6008    3.6107   -2.2369 C   0  0  0  0  0  0  0  0  0  0  0  0
   -5.1824    4.0826   -3.1262 N   0  0  0  0  0  0  0  0  0  0  0  0
   -2.5315    2.0205    1.0950 C   0  0  0  0  0  0  0  0  0  0  0  0
   -3.9235    1.9620    1.0323 C   0  0  0  0  0  0  0  0  0  0  0  0
   -4.7913    1.1395    2.2705 Cl  0  0  0  0  0  0  0  0  0  0  0  0
   -4.6112    2.4750   -0.0669 C   0  0  0  0  0  0  0  0  0  0  0  0
    0.3947   -1.2821   -0.0223 C   0  0  0  0  0  0  0  0  0  0  0  0
    1.7761   -1.1812    0.0563 C   0  0  0  0  0  0  0  0  0  0  0  0
    2.3796    0.0711    0.1002 C   0  0  0  0  0  0  0  0  0  0  0  0
    1.5754    1.2214    0.0764 C   0  0  0  0  0  0  0  0  0  0  0  0
    3.7488    0.0251    0.1119 O   0  0  0  0  0  0  0  0  0  0  0  0
    4.4770    1.2629    0.0349 C   0  0  0  0  0  0  0  0  0  0  0  0
    4.2882    2.0181   -1.2465 C   0  0  0  0  0  0  0  0  0  0  0  0
    4.3990    3.3592   -1.2749 N   0  0  0  0  0  0  0  0  0  0  0  0
    4.1362    3.6694   -2.5644 N   0  0  0  0  0  0  0  0  0  0  0  0
    3.8566    2.5897   -3.3482 C   0  0  0  0  0  0  0  0  0  0  0  0
    3.5659    2.6057   -4.6623 N   0  0  0  0  0  0  0  0  0  0  0  0
    3.3037    1.3681   -5.1493 C   0  0  0  0  0  0  0  0  0  0  0  0
    3.2989    0.1871   -4.4169 C   0  0  0  0  0  0  0  0  0  0  0  0
    3.6203    0.2330   -3.0633 C   0  0  0  0  0  0  0  0  0  0  0  0
    3.9240    1.4879   -2.5142 C   0  0  0  0  0  0  0  0  0  0  0  0
  1  2  1  0
  2  3  2  0
  2 14  1  0
  3  4  1  0
  3 17  1  0
  4  5  1  0
  5  6  2  0
  5 10  1  0
  6  7  1  0
  7  8  1  0
  7 13  2  0
  8  9  3  0
 10 11  2  0
 11 12  1  0
 11 13  1  0
 14 15  2  0
 15 16  1  0
 16 17  2  0
 16 18  1  0
 18 19  1  0
 19 20  1  0
 20 21  2  0
 20 28  1  0
 21 22  1  0
 22 23  1  0
 23 24  1  0
 23 28  2  0
 24 25  2  0
 25 26  1  0
 26 27  2  0
 27 28  1  0
M  END
>  <DRUGBANK_ID>  (1) 
DB08459

>  <COMMON_NAME>  (1) 
3-chloro-5-[2-chloro-5-(1H-pyrazolo[3,4-b]pyridin-3-ylmethoxy)phenoxy]benzonitrile

$$$$
