BHG
     RDKit          3D

 18 18  0  0  0  0  0  0  0  0999 V2000
    0.0177    1.8389   -0.2309 C   0  0  1  0  0  0  0  0  0  0  0  0
    0.0500    2.8698    0.7941 O   0  0  0  0  0  0  0  0  0  0  0  0
    0.9816    0.6579    0.0475 C   0  0  2  0  0  0  0  0  0  0  0  0
    2.3520    1.0412   -0.2393 O   0  0  0  0  0  0  0  0  0  0  0  0
    0.6155   -0.6184   -0.7249 C   0  0  1  0  0  0  0  0  0  0  0  0
    1.3675   -1.7468   -0.2558 O   0  0  0  0  0  0  0  0  0  0  0  0
   -0.8847   -0.9551   -0.8924 C   0  0  1  0  0  0  0  0  0  0  0  0
   -1.4291   -1.8375    0.0912 O   0  0  0  0  0  0  0  0  0  0  0  0
   -1.7102    0.3059   -1.2453 C   0  0  2  0  0  0  0  0  0  0  0  0
   -1.3396    1.5407   -0.5874 O   0  0  0  0  0  0  0  0  0  0  0  0
   -3.2293    0.0353   -0.9946 C   0  0  0  0  0  0  0  0  0  0  0  0
   -4.0215    1.1954   -1.2097 O   0  0  0  0  0  0  0  0  0  0  0  0
   -0.1037    2.5602    2.1840 C   0  0  0  0  0  0  0  0  0  0  0  0
   -1.4918    2.0690    2.5863 C   0  0  0  0  0  0  0  0  0  0  0  0
   -1.7710    0.6686    2.1104 C   0  0  0  0  0  0  0  0  0  0  0  0
   -0.7525   -0.3692    2.5605 C   0  0  0  0  0  0  0  0  0  0  0  0
   -1.1611   -1.0506    3.8193 C   0  0  0  0  0  0  0  0  0  0  0  0
   -2.5756   -1.5822    3.7228 C   0  0  0  0  0  0  0  0  0  0  0  0
  1  2  1  1
  1  3  1  0
  1 10  1  0
  2 13  1  0
  3  4  1  6
  3  5  1  0
  5  6  1  1
  5  7  1  0
  7  8  1  1
  7  9  1  0
  9 10  1  0
  9 11  1  1
 11 12  1  0
 13 14  1  0
 14 15  1  0
 15 16  1  0
 16 17  1  0
 17 18  1  0
M  END
>  <DRUGBANK_ID>  (1) 
DB04141

>  <SECONDARY_ACCESSION_NUMBERS>  (1) 
EXPT00697

>  <COMMON_NAME>  (1) 
2-Hexyloxy-6-Hydroxymethyl-Tetrahydro-Pyran-3,4,5-Triol

$$$$
