
     RDKit          3D

 10  9  0  0  1  0  0  0  0  0999 V2000
   -1.7528    4.1568   -0.3044 C   0  0  0  0  0  0  0  0  0  0  0  0
   -1.8302    3.5277   -1.6943 C   0  0  0  0  0  0  0  0  0  0  0  0
   -1.4644    4.5774   -2.7318 C   0  0  0  0  0  0  0  0  0  0  0  0
   -0.9564    2.2601   -1.8313 C   0  0  0  0  0  0  0  0  0  0  0  0
   -1.4339    1.1023   -0.9234 C   0  0  2  0  0  0  0  0  0  0  0  0
   -0.8302   -0.1662   -1.4006 N   0  0  0  0  0  0  0  0  0  0  0  0
   -3.2639    1.1023   -0.9234 P   0  0  0  0  0  0  0  0  0  0  0  0
   -3.1458   -0.5014   -0.5189 O   0  0  0  0  0  0  0  0  0  0  0  0
   -3.2707    1.6739    0.6194 O   0  0  0  0  0  0  0  0  0  0  0  0
   -4.8122    1.1023   -0.9234 O   0  0  0  0  0  0  0  0  0  0  0  0
  1  2  1  0
  2  3  1  0
  2  4  1  0
  5  7  1  0
  5  6  1  6
  5  4  1  0
  7  8  1  0
  7  9  1  0
  7 10  2  0
M  END
>  <DRUGBANK_ID>  (1) 
DB02386

>  <SECONDARY_ACCESSION_NUMBERS>  (1) 
EXPT02610

>  <COMMON_NAME>  (1) 
Leucine Phosphonic Acid

$$$$
