
     RDKit          3D

 21 24  0  0  1  0  0  0  0  0999 V2000
   -1.0471   -2.7100    0.4284 C   0  0  0  0  0  0  0  0  0  0  0  0
   -0.1509   -1.5977    0.0566 C   0  0  2  0  0  0  0  0  0  0  0  0
    0.5240   -2.0599   -1.4141 C   0  0  0  0  0  0  0  0  0  0  0  0
    0.0665   -1.1363   -2.4088 C   0  0  0  0  0  0  0  0  0  0  0  0
    0.7620    0.1265   -1.6497 C   0  0  0  0  0  0  0  0  0  0  0  0
    1.6413   -0.0529   -0.2494 N   0  0  0  0  0  0  0  0  0  0  0  0
    1.1675   -1.2454    0.7034 C   0  0  2  0  0  0  0  0  0  0  0  0
    2.0362   -2.5134    0.6538 C   0  0  0  0  0  0  0  0  0  0  0  0
    3.1578   -2.6543   -0.1923 C   0  0  0  0  0  0  0  0  0  0  0  0
    3.1694   -4.0295   -0.5458 C   0  0  0  0  0  0  0  0  0  0  0  0
    3.8845   -4.7748   -1.5295 C   0  0  0  0  0  0  0  0  0  0  0  0
    3.6896   -6.1568   -1.5923 C   0  0  0  0  0  0  0  0  0  0  0  0
    2.7391   -6.7953   -0.8051 C   0  0  0  0  0  0  0  0  0  0  0  0
    1.8924   -6.0553    0.0482 C   0  0  0  0  0  0  0  0  0  0  0  0
    2.1737   -4.6816    0.1581 C   0  0  0  0  0  0  0  0  0  0  0  0
    1.4885   -3.7468    0.9090 O   0  0  0  0  0  0  0  0  0  0  0  0
    3.7478   -1.4475   -0.8526 C   0  0  0  0  0  0  0  0  0  0  0  0
    3.1529   -0.1226   -0.2701 C   0  0  0  0  0  0  0  0  0  0  0  0
   -1.2158   -0.4453    0.7790 C   0  0  0  0  0  0  0  0  0  0  0  0
   -1.7285   -0.7616    2.2214 O   0  0  0  0  0  0  0  0  0  0  0  0
   -2.3568   -2.0010    2.7018 C   0  0  0  0  0  0  0  0  0  0  0  0
  2  3  1  0
  2  7  1  0
  2  1  1  1
  2 19  1  0
  3  4  1  0
  4  5  1  0
  5  6  1  0
  6  7  1  0
  6 18  1  0
  7  8  1  6
  8  9  2  0
  8 16  1  0
  9 10  1  0
  9 17  1  0
 10 11  2  0
 10 15  1  0
 11 12  1  0
 12 13  2  0
 13 14  1  0
 14 15  2  0
 15 16  1  0
 17 18  1  0
 19 20  1  0
 20 21  1  0
M  END
>  <DRUGBANK_ID>  (1) 
DB12057

>  <COMMON_NAME>  (1) 
ORM-12741

>  <CAS_NUMBER>  (1) 
610782-82-6

>  <UNII>  (1) 
C5D3YG7ZR8

$$$$
