
     RDKit          3D

 20 21  0  0  1  0  0  0  0  0999 V2000
    0.9682   -0.0194    0.0552 C   0  0  0  0  0  0  0  0  0  0  0  0
    0.3992   -1.0424   -0.9349 C   0  0  0  0  0  0  0  0  0  0  0  0
    1.0655   -2.3878   -0.5795 C   0  0  0  0  0  0  0  0  0  0  0  0
   -1.0841   -1.0747   -0.9214 N   0  0  0  0  0  0  0  0  0  0  0  0
   -1.8155    0.1142   -1.0124 C   0  0  0  0  0  0  0  0  0  0  0  0
   -1.3365    1.2401   -1.1187 O   0  0  0  0  0  0  0  0  0  0  0  0
   -3.1880   -0.0026   -0.9718 N   0  0  0  0  0  0  0  0  0  0  0  0
   -3.8792   -1.1727   -0.9525 C   0  0  0  0  0  0  0  0  0  0  0  0
   -5.2476   -1.2339   -0.9136 N   0  0  0  0  0  0  0  0  0  0  0  0
   -6.0506   -2.4633   -0.9405 C   0  0  1  0  0  0  0  0  0  0  0  0
   -6.8743   -2.5772    0.3247 C   0  0  0  0  0  0  0  0  0  0  0  0
   -6.8655   -2.5912   -2.2036 C   0  0  0  0  0  0  0  0  0  0  0  0
   -7.1665   -3.8717   -2.7052 C   0  0  0  0  0  0  0  0  0  0  0  0
   -7.7824   -4.0155   -3.9463 C   0  0  0  0  0  0  0  0  0  0  0  0
   -8.2080   -2.8862   -4.6401 C   0  0  0  0  0  0  0  0  0  0  0  0
   -8.0295   -1.6199   -4.0901 C   0  0  0  0  0  0  0  0  0  0  0  0
   -7.3188   -1.4703   -2.9048 C   0  0  0  0  0  0  0  0  0  0  0  0
   -3.1584   -2.2923   -0.9787 C   0  0  0  0  0  0  0  0  0  0  0  0
   -1.7214   -2.2910   -0.9882 C   0  0  0  0  0  0  0  0  0  0  0  0
   -1.2316   -3.4222   -1.0339 O   0  0  0  0  0  0  0  0  0  0  0  0
  1  2  1  0
  2  3  1  0
  2  4  1  0
  4  5  1  0
  4 19  1  0
  5  6  2  0
  5  7  1  0
  7  8  1  0
  8  9  1  0
  8 18  2  0
 10  9  1  0
 10 11  1  1
 10 12  1  0
 12 13  2  0
 12 17  1  0
 13 14  1  0
 14 15  2  0
 15 16  1  0
 16 17  2  0
 18 19  1  0
 19 20  2  0
M  END
>  <DRUGBANK_ID>  (1) 
DB14921

>  <COMMON_NAME>  (1) 
Mavacamten

>  <CAS_NUMBER>  (1) 
1642288-47-8

>  <UNII>  (1) 
QX45B99R3J

>  <SYNONYMS>  (1) 
6-(((1S)-1-Phenylethyl)amino)-3-(propan-2-yl)-1,2,3,4 tetrahydropyrimidine-2,4-dione; Mavacamten; MYK-461

$$$$
