
     RDKit          3D

 33 38  0  0  1  0  0  0  0  0999 V2000
    1.2860   -0.1117    0.9622 F   0  0  0  0  0  0  0  0  0  0  0  0
    2.5726   -0.0653    0.5934 C   0  0  0  0  0  0  0  0  0  0  0  0
    3.2076    1.1371    0.3170 C   0  0  0  0  0  0  0  0  0  0  0  0
    2.7443    2.5628    0.1155 C   0  0  2  0  0  0  0  0  0  0  0  0
    1.9911    2.8466   -1.2304 C   0  0  0  0  0  0  0  0  0  0  0  0
    0.6848    2.1961   -1.4156 N   0  0  0  0  0  0  0  0  0  0  0  0
    0.7459    0.7727   -1.7840 C   0  0  0  0  0  0  0  0  0  0  0  0
   -0.5520   -0.0840   -1.7210 C   0  0  0  0  0  0  0  0  0  0  0  0
   -1.3589    0.1559   -0.4548 C   0  0  0  0  0  0  0  0  0  0  0  0
   -1.2421    1.5945   -0.2095 C   0  0  0  0  0  0  0  0  0  0  0  0
   -0.0044    2.3757   -0.1690 C   0  0  0  0  0  0  0  0  0  0  0  0
   -2.8341   -0.0696   -0.4880 N   0  0  0  0  0  0  0  0  0  0  0  0
   -3.6408    0.5453    0.6618 C   0  0  0  0  0  0  0  0  0  0  0  0
   -3.8733    2.1100    0.8033 C   0  0  0  0  0  0  0  0  0  0  0  0
   -5.0264    2.5702    1.3010 N   0  0  0  0  0  0  0  0  0  0  0  0
   -5.0308    3.8184    2.0061 N   0  0  0  0  0  0  0  0  0  0  0  0
   -3.9230    4.5897    2.0150 C   0  0  0  0  0  0  0  0  0  0  0  0
   -3.8747    5.8633    2.5309 O   0  0  0  0  0  0  0  0  0  0  0  0
   -4.6381    6.6512    1.6296 C   0  0  0  0  0  0  0  0  0  0  0  0
   -4.6325    6.1322    0.1645 C   0  0  0  0  0  0  0  0  0  0  0  0
   -3.5590    5.1942   -0.1723 O   0  0  0  0  0  0  0  0  0  0  0  0
   -3.1845    4.4357    0.9255 C   0  0  0  0  0  0  0  0  0  0  0  0
   -2.8871    3.1127    0.8537 C   0  0  0  0  0  0  0  0  0  0  0  0
    4.0719    3.3565    0.0799 C   0  0  0  0  0  0  0  0  0  0  0  0
    5.1172    2.3454    0.0408 N   0  0  0  0  0  0  0  0  0  0  0  0
    4.5596    1.0825    0.1249 C   0  0  0  0  0  0  0  0  0  0  0  0
    5.2855   -0.0923    0.0734 C   0  0  0  0  0  0  0  0  0  0  0  0
    6.7306    0.0492    0.0245 C   0  0  0  0  0  0  0  0  0  0  0  0
    7.2806    1.2757    0.0316 C   0  0  0  0  0  0  0  0  0  0  0  0
    6.4746    2.5494    0.0323 C   0  0  0  0  0  0  0  0  0  0  0  0
    7.0097    3.6310    0.0393 O   0  0  0  0  0  0  0  0  0  0  0  0
    4.5867   -1.2961    0.0859 C   0  0  0  0  0  0  0  0  0  0  0  0
    3.2101   -1.2781    0.3162 C   0  0  0  0  0  0  0  0  0  0  0  0
  1  2  1  0
  2  3  2  0
  2 33  1  0
  3 26  1  0
  4  3  1  0
  4 24  1  0
  4  5  1  6
  5  6  1  0
  6  7  1  0
  6 11  1  0
  7  8  1  0
  8  9  1  0
  9 10  1  0
  9 12  1  0
 10 11  1  0
 12 13  1  0
 13 14  1  0
 14 15  2  0
 14 23  1  0
 15 16  1  0
 16 17  2  0
 17 18  1  0
 17 22  1  0
 18 19  1  0
 19 20  1  0
 20 21  1  0
 21 22  1  0
 22 23  2  0
 24 25  1  0
 25 26  1  0
 25 30  1  0
 26 27  2  0
 27 28  1  0
 27 32  1  0
 28 29  2  0
 29 30  1  0
 30 31  2  0
 32 33  2  0
M  END
>  <DRUGBANK_ID>  (1) 
DB15345

>  <COMMON_NAME>  (1) 
GSK-945237

>  <CAS_NUMBER>  (1) 
944406-54-6

>  <UNII>  (1) 
U9T63BZ3AS

$$$$
