
     RDKit          3D

 30 31  0  0  0  0  0  0  0  0999 V2000
    5.6218    7.9913    1.2105 C   0  0  1  0  0  0  0  0  0  0  0  0
    4.7658    9.2333    1.3796 C   0  0  0  0  0  0  0  0  0  0  0  0
    3.3108    8.8011    1.1499 C   0  0  2  0  0  0  0  0  0  0  0  0
    3.3229    7.2851    0.9367 C   0  0  1  0  0  0  0  0  0  0  0  0
    4.6754    6.8227    1.4934 C   0  0  1  0  0  0  0  0  0  0  0  0
    6.2104    7.9811   -0.0918 O   0  0  0  0  0  0  0  0  0  0  0  0
    2.7858    9.4441   -0.0138 O   0  0  0  0  0  0  0  0  0  0  0  0
    5.1878    5.5458    0.8582 C   0  0  0  0  0  0  0  0  0  0  0  0
    2.0892    6.5472    1.4812 C   0  0  0  0  0  0  0  0  0  0  0  0
    6.3876    5.0215    1.5586 C   0  0  0  0  0  0  0  0  0  0  0  0
    6.4044    3.8455    2.1829 C   0  0  0  0  0  0  0  0  0  0  0  0
    5.2397    2.8978    2.2132 C   0  0  0  0  0  0  0  0  0  0  0  0
    5.6256    1.5346    1.6524 C   0  0  0  0  0  0  0  0  0  0  0  0
    6.7315    0.8549    2.4547 C   0  0  0  0  0  0  0  0  0  0  0  0
    6.3507    0.7298    3.9149 C   0  0  0  0  0  0  0  0  0  0  0  0
    6.2298   -0.5406    4.3974 N   0  0  0  0  0  0  0  0  0  0  0  0
    5.8221   -0.7678    5.7693 C   0  0  0  0  0  0  0  0  0  0  0  0
    4.6047   -1.6646    5.8251 C   0  0  0  0  0  0  0  0  0  0  0  0
    1.2431    5.9478    0.6459 C   0  0  0  0  0  0  0  0  0  0  0  0
    0.0360    5.0713    0.7347 C   0  0  2  0  0  0  0  0  0  0  0  0
    0.1099    3.8119   -0.1824 C   0  0  0  0  0  0  0  0  0  0  0  0
    0.3970    3.9883   -1.7140 C   0  0  0  0  0  0  0  0  0  0  0  0
    1.7739    4.4904   -2.1197 C   0  0  0  0  0  0  0  0  0  0  0  0
    1.9772    5.8549   -2.4130 C   0  0  0  0  0  0  0  0  0  0  0  0
    3.2617    6.3981   -2.3995 C   0  0  0  0  0  0  0  0  0  0  0  0
    4.3574    5.5658   -2.2188 C   0  0  0  0  0  0  0  0  0  0  0  0
    4.1735    4.1952   -2.0285 C   0  0  0  0  0  0  0  0  0  0  0  0
    2.8890    3.6514   -2.0219 C   0  0  0  0  0  0  0  0  0  0  0  0
    6.1468    1.7186    4.6344 O   0  0  0  0  0  0  0  0  0  0  0  0
   -1.1060    5.8414    0.3648 O   0  0  0  0  0  0  0  0  0  0  0  0
  1  2  1  0
  1  5  1  0
  1  6  1  6
  2  3  1  0
  3  4  1  0
  3  7  1  6
  4  5  1  0
  4  9  1  1
  5  8  1  6
  8 10  1  0
  9 19  2  0
 10 11  2  0
 11 12  1  0
 12 13  1  0
 13 14  1  0
 14 15  1  0
 15 16  1  0
 15 29  2  0
 16 17  1  0
 17 18  1  0
 20 30  1  6
 20 21  1  0
 20 19  1  0
 21 22  1  0
 22 23  1  0
 23 24  2  0
 23 28  1  0
 24 25  1  0
 25 26  2  0
 26 27  1  0
 27 28  2  0
M  END
>  <DRUGBANK_ID>  (1) 
DB00905

>  <SECONDARY_ACCESSION_NUMBERS>  (1) 
APRD00826; DB06863

>  <COMMON_NAME>  (1) 
Bimatoprost

>  <CAS_NUMBER>  (1) 
155206-00-1

>  <UNII>  (1) 
QXS94885MZ

>  <SYNONYMS>  (1) 
(Z)-7-((1R,2R,3R,5S)-3,5-Dihydroxy-2-((1E,3S)-3-hydroxy-5-phenyl-1-pentenyl)cyclopentyl)-N-ethyl-5-heptenamide; Bimatoprost; Bimatoprostum

$$$$
