
     RDKit          3D

 32 33  0  0  1  0  0  0  0  0999 V2000
   -0.4827    1.5702    0.5396 C   0  0  0  0  0  0  0  0  0  0  0  0
   -1.4526    1.1804   -0.5708 C   0  0  0  0  0  0  0  0  0  0  0  0
   -1.7118    2.4631   -1.2834 C   0  0  0  0  0  0  0  0  0  0  0  0
   -0.9165    0.0246   -1.4892 C   0  0  2  0  0  0  0  0  0  0  0  0
    0.5605   -0.1040   -1.5390 N   0  0  0  0  0  0  0  0  0  0  0  0
   -1.4367    0.0154   -2.9842 C   0  0  0  0  0  0  0  0  0  0  0  0
   -2.2327   -0.8500   -3.3636 O   0  0  0  0  0  0  0  0  0  0  0  0
   -1.0100    0.9607   -3.9068 N   0  0  0  0  0  0  0  0  0  0  0  0
   -0.1278    2.1065   -3.6590 C   0  0  1  0  0  0  0  0  0  0  0  0
    1.1763    2.1952   -4.4323 C   0  0  0  0  0  0  0  0  0  0  0  0
    0.8364    2.4284   -5.8927 C   0  0  0  0  0  0  0  0  0  0  0  0
    2.0475    3.3421   -3.8441 C   0  0  0  0  0  0  0  0  0  0  0  0
   -0.7182    3.5161   -3.8439 C   0  0  0  0  0  0  0  0  0  0  0  0
   -0.2961    4.4493   -3.1627 O   0  0  0  0  0  0  0  0  0  0  0  0
   -1.5774    3.6956   -4.9055 O   0  0  0  0  0  0  0  0  0  0  0  0
   -2.1468    5.0493   -5.1442 C   0  0  0  0  0  0  0  0  0  0  0  0
   -3.4639    5.1469   -4.3733 C   0  0  1  0  0  0  0  0  0  0  0  0
   -3.1387    4.6621   -3.0215 C   0  0  0  0  0  0  0  0  0  0  0  0
   -2.1404    5.4926   -2.4525 O   0  0  0  0  0  0  0  0  0  0  0  0
   -4.1606    6.4001   -4.2165 O   0  0  0  0  0  0  0  0  0  0  0  0
   -3.4971    7.4879   -3.5080 C   0  0  0  0  0  0  0  0  0  0  0  0
   -3.4514    7.4734   -2.0072 N   0  0  0  0  0  0  0  0  0  0  0  0
   -3.7183    6.4905   -1.0610 C   0  0  0  0  0  0  0  0  0  0  0  0
   -2.9926    6.5473    0.0283 N   0  0  0  0  0  0  0  0  0  0  0  0
   -2.4668    7.7609   -0.0681 C   0  0  0  0  0  0  0  0  0  0  0  0
   -2.7460    8.3990   -1.2574 C   0  0  0  0  0  0  0  0  0  0  0  0
   -2.5598    9.7127   -1.5248 N   0  0  0  0  0  0  0  0  0  0  0  0
   -2.2016   10.3748   -0.4514 C   0  0  0  0  0  0  0  0  0  0  0  0
   -2.0729   11.7117   -0.4954 N   0  0  0  0  0  0  0  0  0  0  0  0
   -1.9313    9.8190    0.7844 N   0  0  0  0  0  0  0  0  0  0  0  0
   -1.9865    8.4722    1.0708 C   0  0  0  0  0  0  0  0  0  0  0  0
   -1.7775    8.0000    2.1587 O   0  0  0  0  0  0  0  0  0  0  0  0
  1  2  1  0
  2  3  1  0
  4  6  1  0
  4  5  1  6
  4  2  1  0
  6  7  2  0
  6  8  1  0
  9  8  1  6
  9 10  1  0
  9 13  1  0
 10 11  1  0
 10 12  1  0
 13 14  2  0
 13 15  1  0
 15 16  1  0
 17 16  1  6
 17 18  1  0
 17 20  1  0
 18 19  1  0
 20 21  1  0
 21 22  1  0
 22 23  1  0
 22 26  1  0
 23 24  2  0
 24 25  1  0
 25 26  2  0
 25 31  1  0
 26 27  1  0
 27 28  2  0
 28 29  1  0
 28 30  1  0
 30 31  1  0
 31 32  2  0
M  END
>  <DRUGBANK_ID>  (1) 
DB17744

>  <COMMON_NAME>  (1) 
Valine-valine-ganciclovir

>  <CAS_NUMBER>  (1) 
897937-73-4

>  <UNII>  (1) 
ZW811N4EW6

>  <SYNONYMS>  (1) 
L-valine, l-valyl-, 2-((2-amino-1,6-dihydro-6-oxo-9h-purin-9-yl)methoxy)-3-hydroxypropyl ester; Valganciclovir n-valyl impurity

$$$$
