
     RDKit          3D

 22 23  0  0  0  0  0  0  0  0999 V2000
    1.5632    0.0484   -1.1518 O   0  0  0  0  0  0  0  0  0  0  0  0
    3.5765    1.2127    0.0729 C   0  0  0  0  0  0  0  0  0  0  0  0
    3.1014    2.7515   -0.5061 S   0  0  0  0  0  0  0  0  0  0  0  0
    4.0883    5.8515   -0.2962 N   0  0  0  0  0  0  0  0  0  0  0  0
    2.0187    5.4427    1.1323 O   0  0  0  0  0  0  0  0  0  0  0  0
    4.3074    5.6344    2.1960 O   0  0  0  0  0  0  0  0  0  0  0  0
    3.4439    5.2263    1.1115 S   0  0  0  0  0  0  0  0  0  0  0  0
    3.7572    3.4976    0.8847 C   0  0  0  0  0  0  0  0  0  0  0  0
    4.6524    2.6241    1.4874 C   0  0  0  0  0  0  0  0  0  0  0  0
    4.1969    1.2647    1.3212 C   0  0  0  0  0  0  0  0  0  0  0  0
    3.3739    2.3903    4.2612 C   0  0  0  0  0  0  0  0  0  0  0  0
    3.9674    1.0580    4.6280 C   0  0  0  0  0  0  0  0  0  0  0  0
    3.6600    0.0844    3.5830 N   0  0  0  0  0  0  0  0  0  0  0  0
    4.3770    0.0476    2.2630 C   0  0  1  0  0  0  0  0  0  0  0  0
    3.9516   -1.3346    1.6109 C   0  0  0  0  0  0  0  0  0  0  0  0
    0.9824    1.0900    1.5912 C   0  0  0  0  0  0  0  0  0  0  0  0
    0.0926    0.0146    1.7041 O   0  0  0  0  0  0  0  0  0  0  0  0
    0.7525   -1.2228    2.0010 C   0  0  0  0  0  0  0  0  0  0  0  0
    1.5945   -1.9588    0.9168 C   0  0  0  0  0  0  0  0  0  0  0  0
    2.9100   -1.3526    0.5259 N   0  0  0  0  0  0  0  0  0  0  0  0
    2.9239   -0.2310   -0.7660 S   0  0  0  0  0  0  0  0  0  0  0  0
    3.9542   -0.5351   -1.7404 O   0  0  0  0  0  0  0  0  0  0  0  0
  2 10  2  0
  2  3  1  0
  3  8  1  0
  7  4  1  0
  7  5  2  0
  7  6  2  0
  8  7  1  0
  9  8  2  0
 10  9  1  0
 10 14  1  0
 12 11  1  0
 13 12  1  0
 14 13  1  1
 15 14  1  0
 17 16  1  0
 18 17  1  0
 19 18  1  0
 20 15  1  0
 20 19  1  0
 21  1  2  0
 21  2  1  0
 21 20  1  0
 22 21  2  0
M  END
>  <DRUGBANK_ID>  (1) 
DB03877

>  <SECONDARY_ACCESSION_NUMBERS>  (1) 
EXPT00489

>  <COMMON_NAME>  (1) 
AL-4623

>  <CAS_NUMBER>  (1) 
138890-59-2

>  <UNII>  (1) 
1M7AKN51DU

$$$$
