
     RDKit          3D

 24 26  0  0  0  0  0  0  0  0999 V2000
    5.4826   -7.1887    2.1581 C   0  0  0  0  0  0  0  0  0  0  0  0
    4.9246   -6.1227   -0.4015 C   0  0  0  0  0  0  0  0  0  0  0  0
    3.9001   -6.2299    0.5484 C   0  0  0  0  0  0  0  0  0  0  0  0
    3.7305   -2.3708    1.2033 C   0  0  0  0  0  0  0  0  0  0  0  0
    2.4705   -3.2844    1.2246 C   0  0  1  0  0  0  0  0  0  0  0  0
    2.4361   -4.2056   -0.0520 C   0  0  1  0  0  0  0  0  0  0  0  0
    2.5100   -5.7382    0.1998 C   0  0  0  0  0  0  0  0  0  0  0  0
    2.4715   -4.0521    2.5545 C   0  0  0  0  0  0  0  0  0  0  0  0
    1.2160   -3.8839   -0.9336 C   0  0  0  0  0  0  0  0  0  0  0  0
    4.1855   -6.7871    1.8182 C   0  0  0  0  0  0  0  0  0  0  0  0
    3.5189   -0.8807    1.0358 C   0  0  0  0  0  0  0  0  0  0  0  0
    2.9755   -0.3332   -0.1332 C   0  0  0  0  0  0  0  0  0  0  0  0
    2.9262    1.0543   -0.3060 C   0  0  0  0  0  0  0  0  0  0  0  0
    4.0134   -0.0100    2.0272 C   0  0  0  0  0  0  0  0  0  0  0  0
    3.9783    1.3764    1.8598 C   0  0  0  0  0  0  0  0  0  0  0  0
    3.4243    1.8926    0.6859 C   0  0  0  0  0  0  0  0  0  0  0  0
    6.4561   -7.0670    1.1969 C   0  0  0  0  0  0  0  0  0  0  0  0
    6.1874   -6.5516   -0.0477 C   0  0  0  0  0  0  0  0  0  0  0  0
    7.2826   -6.5146   -0.8485 O   0  0  0  0  0  0  0  0  0  0  0  0
    8.2865   -7.0245    0.0522 C   0  0  0  0  0  0  0  0  0  0  0  0
    7.7617   -7.4256    1.3345 O   0  0  0  0  0  0  0  0  0  0  0  0
    4.4656    2.3008    2.7499 O   0  0  0  0  0  0  0  0  0  0  0  0
    5.0680    1.7755    3.9306 C   0  0  0  0  0  0  0  0  0  0  0  0
    3.3676    3.2444    0.4751 O   0  0  0  0  0  0  0  0  0  0  0  0
  1 10  2  0
  2 18  1  0
  3  2  2  0
  3  7  1  0
  3 10  1  0
  4 11  1  0
  5  8  1  1
  5  6  1  0
  5  4  1  0
  6  9  1  1
  6  7  1  0
 11 12  2  0
 12 13  1  0
 13 16  2  0
 14 11  1  0
 15 14  2  0
 15 16  1  0
 15 22  1  0
 16 24  1  0
 17 18  2  0
 17  1  1  0
 18 19  1  0
 19 20  1  0
 20 21  1  0
 21 17  1  0
 22 23  1  0
M  END
>  <DRUGBANK_ID>  (1) 
DB14129

>  <COMMON_NAME>  (1) 
Macelignan

>  <CAS_NUMBER>  (1) 
107534-93-0

>  <UNII>  (1) 
8PP3614Z43

>  <SYNONYMS>  (1) 
(8R,8'S)-7-(3,4-methylenedioxyphenyl)-7'-(4-hydroxy-3-methoxyphenyl)-8,8'-dimethylbutane; Anwulignan; Austrobailignan 6

$$$$
