
     RDKit          3D

 39 40  0  0  1  0  0  0  0  0999 V2000
    3.0693   -0.8741    0.7146 C   0  0  0  0  0  0  0  0  0  0  0  0
    2.5927   -0.7107    2.1459 C   0  0  0  0  0  0  0  0  0  0  0  0
    3.0981    0.6133    2.7102 C   0  0  0  0  0  0  0  0  0  0  0  0
    2.5712    1.7814    1.8763 C   0  0  0  0  0  0  0  0  0  0  0  0
    1.0433    1.7745    1.8808 C   0  0  0  0  0  0  0  0  0  0  0  0
    0.5509    1.9125    3.3169 C   0  0  0  0  0  0  0  0  0  0  0  0
    1.1059    3.2146    3.8872 C   0  0  0  0  0  0  0  0  0  0  0  0
    0.6270    4.3446    2.9989 C   0  0  0  0  0  0  0  0  0  0  0  0
   -0.8603    4.2040    3.0016 C   0  0  0  0  0  0  0  0  0  0  0  0
   -1.1749    4.2123    4.5189 C   0  0  0  0  0  0  0  0  0  0  0  0
   -0.4765    5.5457    4.9949 C   0  0  0  0  0  0  0  0  0  0  0  0
   -1.1472    6.3861    3.8350 C   0  0  0  0  0  0  0  0  0  0  0  0
   -2.8247    5.4744    3.6090 C   0  0  0  0  0  0  0  0  0  0  0  0
   -2.3491    6.0105    5.3610 C   0  0  0  0  0  0  0  0  0  0  0  0
   -1.7653    7.9928    5.6290 C   0  0  0  0  0  0  0  0  0  0  0  0
   -2.7894    9.5175    4.7321 C   0  0  0  0  0  0  0  0  0  0  0  0
   -4.5977    9.3790    4.6981 O   0  0  0  0  0  0  0  0  0  0  0  0
   -5.8399    8.3414    4.1792 C   0  0  0  0  0  0  0  0  0  0  0  0
   -5.0193    8.1624    2.9786 C   0  0  0  0  0  0  0  0  0  0  0  0
   -3.4154    8.0461    3.0780 C   0  0  0  0  0  0  0  0  0  0  0  0
   -2.9111    7.1891    4.2106 O   0  0  0  0  0  0  0  0  0  0  0  0
   -3.4870    7.3586    5.8331 P   0  0  1  0  0  0  0  0  0  0  0  0
   -4.8956    7.9278    5.9050 O   0  0  0  0  0  0  0  0  0  0  0  0
   -4.3276    5.9657    6.3472 O   0  0  0  0  0  0  0  0  0  0  0  0
   -4.0961    7.5379    7.5494 C   0  0  0  0  0  0  0  0  0  0  0  0
   -3.9268    8.8528    8.2885 O   0  0  0  0  0  0  0  0  0  0  0  0
   -4.6132   10.0054    7.7148 C   0  0  2  0  0  0  0  0  0  0  0  0
   -6.0594    9.7578    7.4430 C   0  0  0  0  0  0  0  0  0  0  0  0
   -3.8752   10.4532    6.5503 C   0  0  0  0  0  0  0  0  0  0  0  0
   -4.6137   11.3018    5.3509 N   0  0  0  0  0  0  0  0  0  0  0  0
   -5.4108   11.1594    4.0323 C   0  0  0  0  0  0  0  0  0  0  0  0
   -5.4199   12.1542    3.2049 N   0  0  0  0  0  0  0  0  0  0  0  0
   -4.7521   13.0031    3.9766 C   0  0  0  0  0  0  0  0  0  0  0  0
   -4.1555   12.5120    5.1192 C   0  0  0  0  0  0  0  0  0  0  0  0
   -3.3573   13.0536    6.0035 N   0  0  0  0  0  0  0  0  0  0  0  0
   -3.2843   14.3333    5.7298 C   0  0  0  0  0  0  0  0  0  0  0  0
   -3.8855   15.0100    4.7115 N   0  0  0  0  0  0  0  0  0  0  0  0
   -4.6297   14.3362    3.8024 C   0  0  0  0  0  0  0  0  0  0  0  0
   -5.2946   14.8932    2.7421 N   0  0  0  0  0  0  0  0  0  0  0  0
  1  2  1  0
  2  3  1  0
  3  4  1  0
  4  5  1  0
  5  6  1  0
  6  7  1  0
  7  8  1  0
  8  9  1  0
  9 10  1  0
 10 11  1  0
 11 12  1  0
 12 13  1  0
 13 14  1  0
 14 15  1  0
 15 16  1  0
 16 17  1  0
 17 18  1  0
 18 19  1  0
 19 20  1  0
 20 21  1  0
 21 22  1  0
 22 23  1  6
 22 24  2  0
 22 25  1  0
 25 26  1  0
 27 29  1  0
 27 28  1  6
 27 26  1  0
 29 30  1  0
 30 31  1  0
 30 34  1  0
 31 32  2  0
 32 33  1  0
 33 34  2  0
 33 38  1  0
 34 35  1  0
 35 36  2  0
 36 37  1  0
 37 38  2  0
 38 39  1  0
M  END
>  <DRUGBANK_ID>  (1) 
DB14925

>  <COMMON_NAME>  (1) 
Tenofovir exalidex

>  <CAS_NUMBER>  (1) 
911208-73-6

>  <UNII>  (1) 
K7J545MEMA

>  <SYNONYMS>  (1) 
Tenofovir exalidex

$$$$
