
     RDKit          3D

 30 33  0  0  0  0  0  0  0  0999 V2000
   -0.8733    1.3469   -0.5354 C   0  0  2  0  0  0  0  0  0  0  0  0
    0.1228    0.5355    0.1493 C   0  0  1  0  0  0  0  0  0  0  0  0
   -2.3546    1.0991   -0.0866 C   0  0  1  0  0  0  0  0  0  0  0  0
   -0.8589    1.3659   -2.0588 C   0  0  0  0  0  0  0  0  0  0  0  0
   -0.0884   -0.8174   -0.3596 C   0  0  1  0  0  0  0  0  0  0  0  0
    1.5747    0.9148   -0.0572 C   0  0  0  0  0  0  0  0  0  0  0  0
   -2.6157    2.6142   -1.0092 C   0  0  2  0  0  0  0  0  0  0  0  0
   -2.6378   -0.4128   -0.6308 C   0  0  0  0  0  0  0  0  0  0  0  0
   -2.5793    0.8191    1.5370 C   0  0  0  0  0  0  0  0  0  0  0  0
   -2.1106    2.0903   -2.3576 C   0  0  0  0  0  0  0  0  0  0  0  0
    0.8257   -1.6106    0.4503 C   0  0  1  0  0  0  0  0  0  0  0  0
   -1.5129   -1.3606   -0.1893 C   0  0  0  0  0  0  0  0  0  0  0  0
    2.6593   -0.2210    0.5433 C   0  0  0  0  0  0  0  0  0  0  0  0
   -2.5604    3.7464    0.0243 C   0  0  0  0  0  0  0  0  0  0  0  0
   -3.5143    3.5143   -1.7453 O   0  0  0  0  0  0  0  0  0  0  0  0
    2.2205   -1.8755    0.5703 C   0  0  0  0  0  0  0  0  0  0  0  0
    0.7400   -1.3192    2.0965 C   0  0  0  0  0  0  0  0  0  0  0  0
   -1.7069    3.6353    1.2069 C   0  0  0  0  0  0  0  0  0  0  0  0
   -3.4249    4.6350    0.1684 O   0  0  0  0  0  0  0  0  0  0  0  0
   -4.8301    3.2966   -1.8452 C   0  0  0  0  0  0  0  0  0  0  0  0
    2.0267   -3.1494    1.2627 C   0  0  0  0  0  0  0  0  0  0  0  0
   -0.1771   -2.3611    2.6010 C   0  0  0  0  0  0  0  0  0  0  0  0
   -5.0135    1.9184   -1.3309 C   0  0  0  0  0  0  0  0  0  0  0  0
   -5.6289    4.0350   -2.3191 O   0  0  0  0  0  0  0  0  0  0  0  0
    0.3211   -3.4647    1.6451 C   0  0  0  0  0  0  0  0  0  0  0  0
   -5.5651    1.8922    0.0480 C   0  0  0  0  0  0  0  0  0  0  0  0
   -0.4105   -4.1662    0.9559 O   0  0  0  0  0  0  0  0  0  0  0  0
   -7.0283    2.0347   -0.1819 C   0  0  0  0  0  0  0  0  0  0  0  0
   -7.4652    1.0165   -1.2522 C   0  0  0  0  0  0  0  0  0  0  0  0
   -7.0924   -0.4043   -0.8358 C   0  0  0  0  0  0  0  0  0  0  0  0
  1  2  1  0
  1  3  1  0
  1  4  1  6
  2  5  1  0
  2  6  1  6
  3  7  1  0
  3  8  1  0
  3  9  1  1
  4 10  1  0
  5 11  1  0
  5 12  1  1
  6 13  1  0
  7 10  1  0
  7 15  1  6
  7 14  1  0
  8 12  1  0
 11 16  1  0
 11 17  1  1
 13 16  1  0
 14 18  1  0
 14 19  2  0
 15 20  1  0
 16 21  2  0
 17 22  1  0
 20 23  1  0
 20 24  2  0
 21 25  1  0
 22 25  1  0
 23 26  1  0
 25 27  2  0
 26 28  1  0
 28 29  1  0
 29 30  1  0
M  END
>  <DRUGBANK_ID>  (1) 
DB14677

>  <COMMON_NAME>  (1) 
Gestonorone caproate

>  <CAS_NUMBER>  (1) 
1253-28-7

>  <UNII>  (1) 
U38E620NS6

>  <SYNONYMS>  (1) 
Gestonorone caproate; Gestonorone hexanoate

$$$$
