
     RDKit          3D

 33 35  0  0  1  0  0  0  0  0999 V2000
    2.9859   -1.0907    0.6363 C   0  0  0  0  0  0  0  0  0  0  0  0
    2.2480   -0.9137   -0.5701 O   0  0  0  0  0  0  0  0  0  0  0  0
    1.2614    0.1453   -0.6086 C   0  0  2  0  0  0  0  0  0  0  0  0
    1.2731    1.0766    0.6529 C   0  0  1  0  0  0  0  0  0  0  0  0
    0.3263    2.2613    0.5750 C   0  0  0  0  0  0  0  0  0  0  0  0
   -1.1072    1.8368    0.4626 C   0  0  0  0  0  0  0  0  0  0  0  0
   -1.2308    0.9262   -0.7639 C   0  0  1  0  0  0  0  0  0  0  0  0
   -2.5775    1.1238   -1.5115 C   0  0  0  0  0  0  0  0  0  0  0  0
   -1.3824    1.7333   -1.9448 O   0  0  0  0  0  0  0  0  0  0  0  0
   -0.1679   -0.3290   -0.9280 C   0  0  1  0  0  0  0  0  0  0  0  0
   -0.4599   -1.3218   -2.0343 C   0  0  1  0  0  0  0  0  0  0  0  0
   -1.7204   -2.0998   -1.8065 C   0  0  0  0  0  0  0  0  0  0  0  0
   -0.1688   -0.8635   -3.3484 O   0  0  0  0  0  0  0  0  0  0  0  0
    0.5794   -2.0089   -2.8999 C   0  0  2  0  0  0  0  0  0  0  0  0
    0.2548   -3.3048   -3.5906 C   0  0  0  0  0  0  0  0  0  0  0  0
   -0.7426   -3.2016   -4.7194 C   0  0  0  0  0  0  0  0  0  0  0  0
   -0.4632   -3.4824   -6.0014 C   0  0  0  0  0  0  0  0  0  0  0  0
   -1.4887   -3.3127   -7.0798 C   0  0  0  0  0  0  0  0  0  0  0  0
    0.9006   -3.9585   -6.4001 C   0  0  0  0  0  0  0  0  0  0  0  0
    1.3235    0.4835    2.0339 O   0  0  0  0  0  0  0  0  0  0  0  0
    0.7853   -0.3057    2.9909 C   0  0  0  0  0  0  0  0  0  0  0  0
    1.4630   -0.5755    3.9816 O   0  0  0  0  0  0  0  0  0  0  0  0
   -0.5912   -0.8727    2.9583 C   0  0  0  0  0  0  0  0  0  0  0  0
   -1.4160   -0.8009    1.9229 C   0  0  0  0  0  0  0  0  0  0  0  0
   -2.8153   -1.1441    1.6666 C   0  0  0  0  0  0  0  0  0  0  0  0
   -3.4157   -0.9427    0.4719 C   0  0  0  0  0  0  0  0  0  0  0  0
   -4.7571   -1.1266   -0.0956 C   0  0  0  0  0  0  0  0  0  0  0  0
   -5.2110   -0.8217   -1.3460 C   0  0  0  0  0  0  0  0  0  0  0  0
   -6.5773   -1.0093   -1.8167 C   0  0  0  0  0  0  0  0  0  0  0  0
   -7.0711   -0.6397   -3.0217 C   0  0  0  0  0  0  0  0  0  0  0  0
   -8.4789   -0.9724   -3.3166 C   0  0  0  0  0  0  0  0  0  0  0  0
   -8.9192   -0.6072   -4.5283 O   0  0  0  0  0  0  0  0  0  0  0  0
   -9.2134   -1.5642   -2.5086 O   0  0  0  0  0  0  0  0  0  0  0  0
  1  2  1  0
  3  4  1  0
  3 10  1  0
  3  2  1  1
  4  5  1  0
  4 20  1  1
  5  6  1  0
  7  6  1  1
  7  8  1  0
  7  9  1  0
 10  7  1  6
  8  9  1  0
 11 13  1  0
 11 14  1  0
 11 10  1  0
 11 12  1  6
 13 14  1  0
 14 15  1  6
 15 16  1  0
 16 17  2  3
 17 18  1  0
 17 19  1  0
 20 21  1  0
 21 22  2  0
 21 23  1  0
 23 24  2  0
 24 25  1  0
 25 26  2  0
 26 27  1  0
 27 28  2  0
 28 29  1  0
 29 30  2  0
 30 31  1  0
 31 32  1  0
 31 33  2  0
M  END
>  <DRUGBANK_ID>  (1) 
DB02640

>  <SECONDARY_ACCESSION_NUMBERS>  (1) 
EXPT01509

>  <COMMON_NAME>  (1) 
Fumagillin

>  <CAS_NUMBER>  (1) 
23110-15-8

>  <UNII>  (1) 
7OW73204U1

>  <SYNONYMS>  (1) 
fumagilina; Fumagillin

$$$$
