
     RDKit          3D

 11 11  0  0  1  0  0  0  0  0999 V2000
    0.7708    1.2829   -0.1452 C   0  0  0  0  0  0  0  0  0  0  0  0
   -1.4177   -0.0267   -1.8643 C   0  0  0  0  0  0  0  0  0  0  0  0
    1.4905    0.0005    0.3060 C   0  0  2  0  0  0  0  0  0  0  0  0
   -0.7131    1.2363    0.2294 C   0  0  1  0  0  0  0  0  0  0  0  0
   -1.3614   -0.0411   -0.3294 C   0  0  2  0  0  0  0  0  0  0  0  0
    0.7173   -1.2521   -0.2056 C   0  0  1  0  0  0  0  0  0  0  0  0
    1.6114   -0.0155    1.7858 N   0  0  0  0  0  0  0  0  0  0  0  0
   -2.0096   -1.2259   -2.3487 O   0  0  0  0  0  0  0  0  0  0  0  0
   -0.8384    1.2645    1.6561 O   0  0  0  0  0  0  0  0  0  0  0  0
    1.2562   -2.4463    0.3300 O   0  0  0  0  0  0  0  0  0  0  0  0
   -0.6652   -1.2148    0.1380 O   0  0  0  0  0  0  0  0  0  0  0  0
  3  1  1  0
  3  7  1  1
  4  1  1  0
  4  9  1  1
  5  2  1  6
  5  4  1  0
  6  3  1  0
  6 10  1  1
  8  2  1  0
 11  5  1  0
 11  6  1  0
M  END
>  <DRUGBANK_ID>  (1) 
DB02700

>  <SECONDARY_ACCESSION_NUMBERS>  (1) 
EXPT01559

>  <COMMON_NAME>  (1) 
3-Deoxy-D-Glucosamine

$$$$
