
     RDKit          3D

 31 32  0  0  1  0  0  0  0  0999 V2000
    0.0443   -0.6466   -0.0903 C   0  0  0  0  0  0  0  0  0  0  0  0
   -1.7211   -0.4015    0.2318 C   0  0  2  0  0  0  0  0  0  0  0  0
   -3.3966   -1.5759    0.5976 C   0  0  0  0  0  0  0  0  0  0  0  0
   -3.7971   -2.2640   -0.2952 O   0  0  0  0  0  0  0  0  0  0  0  0
   -4.4572   -1.6621    1.9673 N   0  0  0  0  0  0  0  0  0  0  0  0
   -5.7118   -2.6656    2.9051 C   0  0  1  0  0  0  0  0  0  0  0  0
   -5.0355   -3.4881    4.0743 C   0  0  0  0  0  0  0  0  0  0  0  0
   -3.6298   -4.2823    3.3977 S   0  0  0  0  0  0  0  0  0  0  0  0
   -2.3603   -3.0328    4.3215 S   0  0  0  0  0  0  0  0  0  0  0  0
   -1.3117   -2.8081    2.9364 C   0  0  0  0  0  0  0  0  0  0  0  0
   -0.9685   -1.3535    2.9889 C   0  0  0  0  0  0  0  0  0  0  0  0
   -2.1406   -0.4188    2.8814 C   0  0  0  0  0  0  0  0  0  0  0  0
   -2.7250    0.6481    3.3980 C   0  0  0  0  0  0  0  0  0  0  0  0
   -3.7767    1.4191    2.5442 C   0  0  2  0  0  0  0  0  0  0  0  0
   -3.3778    2.1133    1.2276 C   0  0  0  0  0  0  0  0  0  0  0  0
   -1.9266    2.0079    0.9857 C   0  0  0  0  0  0  0  0  0  0  0  0
   -1.0862    2.4564    1.7540 O   0  0  0  0  0  0  0  0  0  0  0  0
   -1.7802    1.0732   -0.0612 N   0  0  0  0  0  0  0  0  0  0  0  0
   -4.3970    2.3335    3.4266 O   0  0  0  0  0  0  0  0  0  0  0  0
   -5.6107    2.7253    2.9688 C   0  0  0  0  0  0  0  0  0  0  0  0
   -5.7798    3.6152    2.1500 O   0  0  0  0  0  0  0  0  0  0  0  0
   -6.6963    1.9746    3.6611 C   0  0  0  0  0  0  0  0  0  0  0  0
   -7.2325    0.8219    2.8355 C   0  0  1  0  0  0  0  0  0  0  0  0
   -8.2842   -0.0055    3.6316 C   0  0  2  0  0  0  0  0  0  0  0  0
   -7.9953   -1.4227    3.3426 N   0  0  0  0  0  0  0  0  0  0  0  0
   -6.7971   -1.8828    3.8729 C   0  0  0  0  0  0  0  0  0  0  0  0
   -6.5426   -1.5452    5.0369 O   0  0  0  0  0  0  0  0  0  0  0  0
   -9.7312    0.4427    3.3501 C   0  0  0  0  0  0  0  0  0  0  0  0
  -10.7263   -0.3833    4.1368 C   0  0  0  0  0  0  0  0  0  0  0  0
   -9.9116    1.9305    3.6865 C   0  0  0  0  0  0  0  0  0  0  0  0
   -7.6956    1.2733    1.5691 O   0  0  0  0  0  0  0  0  0  0  0  0
  2  1  1  6
  2  3  1  0
  2 18  1  0
  3  4  2  0
  3  5  1  0
  6  5  1  0
  6  7  1  1
  6 26  1  0
  7  8  1  0
  8  9  1  0
  9 10  1  0
 10 11  1  0
 11 12  1  0
 12 13  2  0
 14 13  1  1
 14 15  1  0
 14 19  1  0
 15 16  1  0
 16 17  2  0
 16 18  1  0
 19 20  1  0
 20 21  2  0
 20 22  1  0
 22 23  1  0
 23 24  1  0
 23 31  1  6
 24 25  1  0
 24 28  1  6
 25 26  1  0
 26 27  2  0
 28 29  1  0
 28 30  1  0
M  END
>  <DRUGBANK_ID>  (1) 
DB12279

>  <COMMON_NAME>  (1) 
OBP-801

>  <CAS_NUMBER>  (1) 
328548-11-4

>  <UNII>  (1) 
30Q3VS5HZ4

$$$$
