
     RDKit          3D

 37 43  0  0  1  0  0  0  0  0999 V2000
   -1.5033   -0.2027   -1.1405 N   0  0  0  0  0  0  0  0  0  0  0  0
   -0.4421   -0.1445   -0.3295 C   0  0  0  0  0  0  0  0  0  0  0  0
    0.3554    0.6991   -0.9811 N   0  0  0  0  0  0  0  0  0  0  0  0
    1.6115    0.5336   -0.7386 C   0  0  0  0  0  0  0  0  0  0  0  0
    2.0661   -0.3117    0.2697 C   0  0  0  0  0  0  0  0  0  0  0  0
    1.1447   -0.9953    1.1010 C   0  0  0  0  0  0  0  0  0  0  0  0
   -0.2094   -0.9216    0.8208 C   0  0  0  0  0  0  0  0  0  0  0  0
   -1.2328   -1.6197    1.7430 C   0  0  0  0  0  0  0  0  0  0  0  0
   -0.7716   -2.4285    2.6036 O   0  0  0  0  0  0  0  0  0  0  0  0
   -2.6183   -1.4165    1.8267 N   0  0  0  0  0  0  0  0  0  0  0  0
   -3.4837   -0.5722    1.0069 C   0  0  2  0  0  0  0  0  0  0  0  0
   -4.9632   -0.3151    1.3910 C   0  0  0  0  0  0  0  0  0  0  0  0
   -5.5754    0.6622    0.3192 C   0  0  0  0  0  0  0  0  0  0  0  0
   -4.5442    1.0284   -0.7690 C   0  0  2  0  0  0  0  0  0  0  0  0
   -5.0568    1.9188   -1.7418 O   0  0  0  0  0  0  0  0  0  0  0  0
   -4.1785   -0.3134   -1.4568 C   0  0  0  0  0  0  0  0  0  0  0  0
   -3.7065   -1.3318   -0.3945 C   0  0  0  0  0  0  0  0  0  0  0  0
   -3.4207    1.7818   -0.0221 C   0  0  0  0  0  0  0  0  0  0  0  0
   -2.9126    0.9187    1.1272 C   0  0  0  0  0  0  0  0  0  0  0  0
    3.4890   -0.4579    0.3164 C   0  0  0  0  0  0  0  0  0  0  0  0
    4.0925   -1.6838    0.0841 C   0  0  0  0  0  0  0  0  0  0  0  0
    5.4822   -1.7633   -0.0407 C   0  0  0  0  0  0  0  0  0  0  0  0
    6.3325   -0.6369    0.0502 C   0  0  0  0  0  0  0  0  0  0  0  0
    5.6496    0.5961    0.2312 C   0  0  0  0  0  0  0  0  0  0  0  0
    4.2715    0.6858    0.3874 C   0  0  0  0  0  0  0  0  0  0  0  0
    7.8284   -0.8985    0.4004 C   0  0  1  0  0  0  0  0  0  0  0  0
    8.5142   -1.8496   -0.5961 C   0  0  0  0  0  0  0  0  0  0  0  0
    9.2862   -0.7180   -0.0653 C   0  0  2  0  0  0  0  0  0  0  0  0
   10.1019   -0.6335    1.1986 C   0  0  0  0  0  0  0  0  0  0  0  0
    9.1738    0.2099    1.9503 N   0  0  0  0  0  0  0  0  0  0  0  0
    7.9893   -0.6701    1.8923 C   0  0  0  0  0  0  0  0  0  0  0  0
    8.9545    1.6156    1.4143 C   0  0  0  0  0  0  0  0  0  0  0  0
    8.5537    2.0658   -0.0430 C   0  0  0  0  0  0  0  0  0  0  0  0
    9.6268    2.0952   -1.1118 C   0  0  0  0  0  0  0  0  0  0  0  0
   10.8031    2.7345   -0.6563 O   0  0  0  0  0  0  0  0  0  0  0  0
   11.2681    2.2530    0.6019 C   0  0  0  0  0  0  0  0  0  0  0  0
   10.2289    2.4079    1.7156 C   0  0  0  0  0  0  0  0  0  0  0  0
  1  2  1  0
  2  3  2  0
  2  7  1  0
  3  4  1  0
  4  5  2  0
  5  6  1  0
  5 20  1  0
  6  7  2  0
  7  8  1  0
  8  9  2  0
  8 10  1  0
 11 10  1  1
 11 12  1  0
 11 17  1  0
 11 19  1  0
 12 13  1  0
 13 14  1  0
 14 15  1  6
 14 16  1  0
 14 18  1  0
 16 17  1  0
 18 19  1  0
 20 21  2  0
 20 25  1  0
 21 22  1  0
 22 23  2  0
 23 24  1  0
 24 25  2  0
 26 27  1  0
 26 28  1  0
 26 31  1  0
 26 23  1  6
 28 27  1  6
 28 29  1  0
 29 30  1  0
 30 31  1  0
 30 32  1  0
 32 33  1  0
 32 37  1  0
 33 34  1  0
 34 35  1  0
 35 36  1  0
 36 37  1  0
M  END
>  <DRUGBANK_ID>  (1) 
DB18152

>  <COMMON_NAME>  (1) 
Zilurgisertib

>  <CAS_NUMBER>  (1) 
2173389-57-4

>  <UNII>  (1) 
L5Z9S25HO2

$$$$
