
     RDKit          3D

 16 17  0  0  0  0  0  0  0  0999 V2000
    1.8142    0.2086   -0.4522 C   0  0  0  0  0  0  0  0  0  0  0  0
    1.0891    1.2714   -0.0650 N   0  0  0  0  0  0  0  0  0  0  0  0
   -0.0474    0.8316    0.7241 C   0  0  2  0  0  0  0  0  0  0  0  0
    0.1763   -0.7029    0.7150 C   0  0  2  0  0  0  0  0  0  0  0  0
    1.4674   -0.9525    0.0014 N   0  0  0  0  0  0  0  0  0  0  0  0
   -1.3967    1.1891    0.1105 C   0  0  0  0  0  0  0  0  0  0  0  0
   -0.9776   -1.3866   -0.0212 C   0  0  1  0  0  0  0  0  0  0  0  0
   -1.7504   -0.1044   -1.0686 S   0  0  0  0  0  0  0  0  0  0  0  0
   -2.7002   -4.1275   -3.4535 C   0  0  0  0  0  0  0  0  0  0  0  0
   -3.1055   -3.0392   -2.5044 C   0  0  0  0  0  0  0  0  0  0  0  0
   -2.9689   -3.4490   -1.0359 C   0  0  0  0  0  0  0  0  0  0  0  0
   -1.5307   -3.7591   -0.6113 C   0  0  0  0  0  0  0  0  0  0  0  0
   -0.5768   -2.5976   -0.8665 C   0  0  0  0  0  0  0  0  0  0  0  0
   -3.4442   -4.7039   -4.2405 O   0  0  0  0  0  0  0  0  0  0  0  0
   -1.3958   -4.4438   -3.3884 O   0  0  0  0  0  0  0  0  0  0  0  0
    2.8803    0.3939   -1.2289 N   0  0  0  0  0  0  0  0  0  0  0  0
  1  2  1  0
  1  5  2  0
  1 16  1  0
  2  3  1  0
  3  4  1  0
  3  6  1  6
  4  5  1  6
  4  7  1  0
  6  8  1  0
  7  8  1  0
  7 13  1  6
  9 10  1  0
  9 14  2  0
  9 15  1  0
 10 11  1  0
 11 12  1  0
 12 13  1  0
M  END
>  <DRUGBANK_ID>  (1) 
DB03353

>  <SECONDARY_ACCESSION_NUMBERS>  (1) 
EXPT01870

>  <COMMON_NAME>  (1) 
2-Iminobiotin

>  <CAS_NUMBER>  (1) 
13395-35-2

>  <UNII>  (1) 
HXH71NRQ5C

>  <SYNONYMS>  (1) 
Guanidinobiotin; Hexahydro-2-imino-1h-thieno(3,4-d)imidazole-4-pentanoic acid

$$$$
