
     RDKit          3D

 34 35  0  0  0  0  0  0  0  0999 V2000
   -1.6396   -2.2259    1.5750 C   0  0  0  0  0  0  0  0  0  0  0  0
   -0.3810   -2.5336    2.4739 C   0  0  2  0  0  0  0  0  0  0  0  0
   -0.8616   -3.0462    3.7445 O   0  0  0  0  0  0  0  0  0  0  0  0
   -2.0517   -5.0721    3.5427 C   0  0  0  0  0  0  0  0  0  0  0  0
   -0.7406   -4.4070    3.8600 C   0  0  0  0  0  0  0  0  0  0  0  0
   -2.2084   -3.0529   -2.7829 C   0  0  0  0  0  0  0  0  0  0  0  0
   -1.7894   -4.3181   -2.2304 C   0  0  0  0  0  0  0  0  0  0  0  0
   -3.0667   -5.0838   -1.9641 C   0  0  1  0  0  0  0  0  0  0  0  0
   -3.2891   -6.7236   -0.1269 C   0  0  2  0  0  0  0  0  0  0  0  0
   -2.5485   -6.3978   -1.4003 C   0  0  1  0  0  0  0  0  0  0  0  0
   -2.1103   -6.6023    3.4872 C   0  0  1  0  0  0  0  0  0  0  0  0
   -3.1213   -7.0897    2.4091 C   0  0  0  0  0  0  0  0  0  0  0  0
   -2.4180   -7.0268    1.0305 C   0  0  0  0  0  0  0  0  0  0  0  0
   -1.4554   -1.9970    0.0922 C   0  0  0  0  0  0  0  0  0  0  0  0
   -2.3729   -1.6135   -0.9664 C   0  0  0  0  0  0  0  0  0  0  0  0
   -1.4263   -1.5157   -1.8201 C   0  0  0  0  0  0  0  0  0  0  0  0
    0.3108   -4.9571    4.1353 O   0  0  0  0  0  0  0  0  0  0  0  0
   -0.8523   -7.2397    3.3126 O   0  0  0  0  0  0  0  0  0  0  0  0
   -3.4283   -8.5708    2.6382 C   0  0  0  0  0  0  0  0  0  0  0  0
   -4.4339   -6.2349    2.5000 C   0  0  0  0  0  0  0  0  0  0  0  0
   -1.1949   -7.0964    0.8958 O   0  0  0  0  0  0  0  0  0  0  0  0
   -4.4638   -7.6310   -0.3572 C   0  0  0  0  0  0  0  0  0  0  0  0
   -2.7384   -7.3910   -2.4086 O   0  0  0  0  0  0  0  0  0  0  0  0
   -4.0003   -4.2530   -1.0244 C   0  0  0  0  0  0  0  0  0  0  0  0
   -2.1844   -1.0749   -2.8490 C   0  0  0  0  0  0  0  0  0  0  0  0
    0.4461   -1.2699    2.7184 C   0  0  0  0  0  0  0  0  0  0  0  0
    1.7403   -1.1885    2.3300 C   0  0  0  0  0  0  0  0  0  0  0  0
    2.5803   -0.0458    2.5077 C   0  0  0  0  0  0  0  0  0  0  0  0
    2.5481    0.6194    3.7146 N   0  0  0  0  0  0  0  0  0  0  0  0
    3.2971    1.6958    3.6608 C   0  0  0  0  0  0  0  0  0  0  0  0
    3.4239    0.4868    1.5591 C   0  0  0  0  0  0  0  0  0  0  0  0
    4.1537    1.9147    2.1865 S   0  0  0  0  0  0  0  0  0  0  0  0
    3.4224    2.6680    4.7803 C   0  0  0  0  0  0  0  0  0  0  0  0
   -0.2800   -0.0915    3.3355 C   0  0  0  0  0  0  0  0  0  0  0  0
  2  1  1  0
  2 26  1  1
  3  2  1  0
  5  3  1  0
  5  4  1  0
  5 17  2  0
  7  6  1  0
  8  7  1  0
  8 24  1  1
  9 22  1  6
 10  8  1  0
 10  9  1  0
 10 23  1  6
 11  4  1  0
 11 18  1  6
 12 11  1  0
 12 19  1  0
 12 20  1  0
 13 12  1  0
 13  9  1  0
 13 21  2  0
 14  1  1  0
 15 14  2  0
 15 25  1  0
 16 15  1  0
 16  6  1  0
 26 27  2  0
 26 34  1  0
 27 28  1  0
 28 29  1  0
 30 29  2  0
 30 33  1  0
 31 28  2  0
 32 30  1  0
 32 31  1  0
M  END
>  <DRUGBANK_ID>  (1) 
DB01873

>  <SECONDARY_ACCESSION_NUMBERS>  (1) 
EXPT01350

>  <COMMON_NAME>  (1) 
Epothilone D

>  <CAS_NUMBER>  (1) 
189453-10-9

>  <UNII>  (1) 
T0358E0YUF

>  <SYNONYMS>  (1) 
(-)-desoxyepothilone B; 12,13-desoxyepothilone B; Desoxyepothilone B

$$$$
