
     RDKit          3D

 20 23  0  0  0  0  0  0  0  0999 V2000
   -0.9666    0.5071   -0.0867 C   0  0  2  0  0  0  0  0  0  0  0  0
    0.6953    0.4576    0.5420 C   0  0  0  0  0  0  0  0  0  0  0  0
   -1.3680   -0.9411   -0.0602 C   0  0  2  0  0  0  0  0  0  0  0  0
   -1.7052    0.6196   -1.6700 C   0  0  0  0  0  0  0  0  0  0  0  0
   -1.5840    1.6308    0.7011 C   0  0  0  0  0  0  0  0  0  0  0  0
    1.4763   -0.7533    0.3944 C   0  0  0  0  0  0  0  0  0  0  0  0
    1.4968    1.5955    0.8037 C   0  0  0  0  0  0  0  0  0  0  0  0
   -0.1247   -1.1228   -1.2821 C   0  0  2  0  0  0  0  0  0  0  0  0
   -2.9152   -0.8841    0.3636 C   0  0  0  0  0  0  0  0  0  0  0  0
   -0.7946    1.1761   -2.5628 C   0  0  0  0  0  0  0  0  0  0  0  0
   -3.0766    1.7339    0.5067 C   0  0  0  0  0  0  0  0  0  0  0  0
    0.8244   -1.8679   -0.3034 C   0  0  0  0  0  0  0  0  0  0  0  0
    2.8963   -0.8271    0.4516 C   0  0  0  0  0  0  0  0  0  0  0  0
    2.9389    1.5546    0.6226 C   0  0  0  0  0  0  0  0  0  0  0  0
    0.3011    0.2003   -2.3479 N   0  0  0  0  0  0  0  0  0  0  0  0
   -3.7731    0.3963    0.2431 C   0  0  0  0  0  0  0  0  0  0  0  0
    3.6208    0.3288    0.4693 C   0  0  0  0  0  0  0  0  0  0  0  0
    3.5235    2.7614    0.2890 O   0  0  0  0  0  0  0  0  0  0  0  0
    1.3713    1.1522   -2.0110 C   0  0  0  0  0  0  0  0  0  0  0  0
    4.9302    2.7481    0.0123 C   0  0  0  0  0  0  0  0  0  0  0  0
  1  2  1  0
  1  3  1  0
  1  4  1  6
  1  5  1  0
  2  6  2  0
  2  7  1  0
  3  8  1  0
  3  9  1  6
  4 10  1  0
  5 11  1  0
  6 12  1  0
  6 13  1  0
  7 14  2  0
  8 15  1  0
  8 12  1  1
  9 16  1  0
 10 15  1  0
 11 16  1  0
 13 17  2  0
 14 18  1  0
 14 17  1  0
 15 19  1  0
 18 20  1  0
M  END
>  <DRUGBANK_ID>  (1) 
DB00514

>  <SECONDARY_ACCESSION_NUMBERS>  (1) 
APRD00655

>  <COMMON_NAME>  (1) 
Dextromethorphan

>  <CAS_NUMBER>  (1) 
125-71-3

>  <UNII>  (1) 
7355X3ROTS

>  <SYNONYMS>  (1) 
(+)-dextromethorphan; D-methorphan; delta-Methorphan; Dex; Dextromethorfan; Dextromethorphan; Dextrom√©thorphane; Dextromethorphanum; Dextrometorfano; DM

$$$$
