
     RDKit          3D

 32 34  0  0  0  0  0  0  0  0999 V2000
   -1.0226    1.7200    0.1236 C   0  0  0  0  0  0  0  0  0  0  0  0
   -2.0818    0.7798    0.0189 N   0  0  0  0  0  0  0  0  0  0  0  0
   -0.8678   -1.0240    0.7518 N   0  0  0  0  0  0  0  0  0  0  0  0
    0.3704   -0.0793    0.8968 C   0  0  0  0  0  0  0  0  0  0  0  0
    0.3066    1.2211    0.5233 C   0  0  0  0  0  0  0  0  0  0  0  0
    1.5949    1.7595    0.4320 N   0  0  0  0  0  0  0  0  0  0  0  0
    2.5536    0.8370    0.3672 C   0  0  0  0  0  0  0  0  0  0  0  0
    2.0915   -0.4750    0.3907 N   0  0  0  0  0  0  0  0  0  0  0  0
    2.5573   -2.5144   -0.0686 C   0  0  2  0  0  0  0  0  0  0  0  0
    3.0413   -3.4126    1.0306 O   0  0  0  0  0  0  0  0  0  0  0  0
    4.3564   -3.7703    0.7444 C   0  0  1  0  0  0  0  0  0  0  0  0
    4.1384   -4.1236   -0.7245 C   0  0  1  0  0  0  0  0  0  0  0  0
    3.4336   -5.3891   -0.7511 O   0  0  0  0  0  0  0  0  0  0  0  0
    3.1451   -3.1618   -1.3838 C   0  0  1  0  0  0  0  0  0  0  0  0
    2.5621   -3.8025   -2.5031 O   0  0  0  0  0  0  0  0  0  0  0  0
    5.1851   -1.1835    0.7032 O   0  0  0  0  0  0  0  0  0  0  0  0
    5.8740   -2.0391   -1.3060 O   0  0  0  0  0  0  0  0  0  0  0  0
    4.7256   -1.1117   -0.9631 P   0  0  2  0  0  0  0  0  0  0  0  0
    4.2661   -1.0398   -2.6294 O   0  0  0  0  0  0  0  0  0  0  0  0
    3.7991   -1.3342    0.2591 O   0  0  0  0  0  0  0  0  0  0  0  0
    3.4876   -0.0441    2.6016 O   0  0  0  0  0  0  0  0  0  0  0  0
    3.1871   -1.3452    1.9412 P   0  0  2  0  0  0  0  0  0  0  0  0
    3.1931   -2.5749    2.9761 O   0  0  0  0  0  0  0  0  0  0  0  0
    1.3991   -1.9081    1.0894 O   0  0  0  0  0  0  0  0  0  0  0  0
    0.5189   -3.1532   -1.0941 O   0  0  0  0  0  0  0  0  0  0  0  0
    0.8997   -1.5549   -0.5289 P   0  0  0  0  0  0  0  0  0  0  0  0
    0.4003   -1.2017   -2.1471 O   0  0  0  0  0  0  0  0  0  0  0  0
    5.4565   -2.6728    1.1061 C   0  0  0  0  0  0  0  0  0  0  0  0
   -2.0102   -0.5667    0.2665 C   0  0  0  0  0  0  0  0  0  0  0  0
   -3.1695   -1.3090   -0.0285 N   0  0  0  0  0  0  0  0  0  0  0  0
   -1.2477    2.9038   -0.0940 O   0  0  0  0  0  0  0  0  0  0  0  0
    1.8340   -0.1186   -2.0928 S   0  0  0  0  0  0  0  0  0  0  0  0
  1  2  1  0
  1  5  1  0
  2 29  1  0
  3  4  1  0
  4  5  2  0
  4  8  1  0
  5  6  1  0
  6  7  2  0
  7  8  1  0
  9  8  1  1
  9 10  1  0
  9 14  1  0
 10 11  1  0
 11 12  1  0
 11 28  1  6
 12 13  1  1
 12 14  1  0
 14 15  1  1
 16 18  1  0
 18 17  2  0
 18 20  1  0
 18 19  1  6
 20 22  1  0
 22 21  2  0
 22 24  1  0
 22 23  1  1
 24 26  1  0
 26 32  2  0
 26 25  1  0
 26 27  1  0
 28 16  1  0
 29  3  2  0
 29 30  1  0
 31  1  2  0
M  END
>  <DRUGBANK_ID>  (1) 
DB01864

>  <SECONDARY_ACCESSION_NUMBERS>  (1) 
EXPT01651

>  <COMMON_NAME>  (1) 
5'-Guanosine-Diphosphate-Monothiophosphate

>  <CAS_NUMBER>  (1) 
37589-80-3

>  <UNII>  (1) 
EJ7Q9D2M9D

>  <SYNONYMS>  (1) 
gamma-Thio-GTP; GTP gamma S; Guanosine 5'-(gamma-S)triphosphate; guanosine 5'-[gamma-thio]triphosphate; Guanosine 5'-O-(3-thiotriphosphate)

$$$$
