
     RDKit          3D

 33 36  0  0  0  0  0  0  0  0999 V2000
    0.4628   -1.1048   -0.0590 C   0  0  1  0  0  0  0  0  0  0  0  0
    0.8555   -1.8826   -1.3505 C   0  0  0  0  0  0  0  0  0  0  0  0
    0.8318   -2.0257    1.2020 C   0  0  0  0  0  0  0  0  0  0  0  0
   -0.2902   -2.4221    2.0054 O   0  0  0  0  0  0  0  0  0  0  0  0
   -0.1173   -2.3446   -2.2505 C   0  0  0  0  0  0  0  0  0  0  0  0
    0.2114   -3.2387   -3.2745 C   0  0  0  0  0  0  0  0  0  0  0  0
    1.5348   -3.6035   -3.5038 C   0  0  0  0  0  0  0  0  0  0  0  0
    2.5262   -3.1377   -2.6593 C   0  0  0  0  0  0  0  0  0  0  0  0
    2.1822   -2.3140   -1.5882 C   0  0  0  0  0  0  0  0  0  0  0  0
   -4.6287    1.4840    1.1047 C   0  0  0  0  0  0  0  0  0  0  0  0
   -3.3733    0.9070    1.1082 C   0  0  0  0  0  0  0  0  0  0  0  0
   -2.5245    1.1543    0.0321 C   0  0  0  0  0  0  0  0  0  0  0  0
   -2.9223    1.9834   -1.0174 C   0  0  0  0  0  0  0  0  0  0  0  0
   -4.1956    2.5207   -1.0350 C   0  0  0  0  0  0  0  0  0  0  0  0
   -5.0397    2.3012    0.0533 C   0  0  0  0  0  0  0  0  0  0  0  0
   -5.4686    1.2186    2.1112 F   0  0  0  0  0  0  0  0  0  0  0  0
   -2.0822    2.2587   -2.0271 F   0  0  0  0  0  0  0  0  0  0  0  0
   -1.2390    0.5214   -0.0094 C   0  0  0  0  0  0  0  0  0  0  0  0
    4.5133    1.8575    0.3776 C   0  0  2  0  0  0  0  0  0  0  0  0
    5.1537    1.9250   -1.0246 C   0  0  1  0  0  0  0  0  0  0  0  0
    5.0305    0.5582   -1.6860 C   0  0  0  0  0  0  0  0  0  0  0  0
    5.6991   -0.5136   -0.9057 N   0  0  0  0  0  0  0  0  0  0  0  0
    5.3719   -0.5068    0.5202 C   0  0  0  0  0  0  0  0  0  0  0  0
    5.2972    0.8357    1.2259 C   0  0  0  0  0  0  0  0  0  0  0  0
    4.5605    2.8923   -1.7737 F   0  0  0  0  0  0  0  0  0  0  0  0
    7.1401   -0.4408   -0.9473 C   0  0  0  0  0  0  0  0  0  0  0  0
    2.9810    1.7168    0.3297 N   0  0  0  0  0  0  0  0  0  0  0  0
    2.2890    0.5361    0.2732 C   0  0  0  0  0  0  0  0  0  0  0  0
    1.0027    0.3301   -0.0188 N   0  0  0  0  0  0  0  0  0  0  0  0
    2.3115    2.9852    0.1832 C   0  0  0  0  0  0  0  0  0  0  0  0
    2.7869   -0.5455    0.5897 O   0  0  0  0  0  0  0  0  0  0  0  0
   -1.0145   -0.7909    0.0038 C   0  0  0  0  0  0  0  0  0  0  0  0
   -0.0154    1.3256   -0.0911 C   0  0  0  0  0  0  0  0  0  0  0  0
  1 32  1  0
  1  2  1  0
  1  3  1  1
  2  5  2  0
  3  4  1  0
  5  6  1  0
  6  7  2  0
  7  8  1  0
  8  9  2  0
  9  2  1  0
 10 11  2  0
 10 16  1  0
 11 12  1  0
 12 18  1  0
 12 13  2  0
 13 14  1  0
 13 17  1  0
 14 15  2  0
 15 10  1  0
 18 33  1  0
 19 20  1  0
 19 24  1  0
 19 27  1  6
 20 21  1  0
 20 25  1  6
 21 22  1  0
 22 23  1  0
 22 26  1  0
 23 24  1  0
 27 28  1  0
 27 30  1  0
 28 29  1  0
 28 31  2  0
 29  1  1  0
 32 18  2  0
 33 29  1  0
M  END
>  <DRUGBANK_ID>  (1) 
DB08037

>  <COMMON_NAME>  (1) 
MK-0731

>  <CAS_NUMBER>  (1) 
845256-65-7

>  <UNII>  (1) 
8HIJ5G3O02

$$$$
