
     RDKit          3D

 11 11  0  0  1  0  0  0  0  0999 V2000
    1.0757    0.9693   -0.0103 C   0  0  0  0  0  0  0  0  0  0  0  0
   -0.2935    1.4387    0.0148 C   0  0  0  0  0  0  0  0  0  0  0  0
    1.3779   -0.3341   -0.0360 C   0  0  0  0  0  0  0  0  0  0  0  0
   -1.3418    0.5926    0.0493 C   0  0  0  0  0  0  0  0  0  0  0  0
    0.3419   -1.4051    0.0168 C   0  0  1  0  0  0  0  0  0  0  0  0
   -1.1413   -0.9114    0.0746 C   0  0  1  0  0  0  0  0  0  0  0  0
   -2.7807    0.9823   -0.0145 C   0  0  0  0  0  0  0  0  0  0  0  0
   -1.7506   -1.5157    1.2765 N   0  0  0  0  0  0  0  0  0  0  0  0
    0.5359   -2.2577   -1.1138 O   0  0  0  0  0  0  0  0  0  0  0  0
   -3.0596    2.2954   -0.0399 O   0  0  0  0  0  0  0  0  0  0  0  0
   -3.6798    0.1465   -0.0487 O   0  0  0  0  0  0  0  0  0  0  0  0
  2  1  1  0
  3  1  2  0
  4  2  2  0
  5  3  1  0
  5  9  1  6
  6  4  1  0
  6  5  1  0
  6  8  1  1
  7  4  1  0
 10  7  1  0
 11  7  2  0
M  END
>  <DRUGBANK_ID>  (1) 
DB02124

>  <SECONDARY_ACCESSION_NUMBERS>  (1) 
EXPT01743

>  <COMMON_NAME>  (1) 
(2s,3s)-Trans-2,3-Dihydro-3-Hydroxyanthranilic Acid

$$$$
