670
     RDKit          3D

 26 29  0  0  0  0  0  0  0  0999 V2000
    0.9329    0.1131    0.0210 O   0  0  0  0  0  0  0  0  0  0  0  0
    6.6405    2.5281   -0.3977 O   0  0  0  0  0  0  0  0  0  0  0  0
    4.3801   -0.7060    1.0085 N   0  0  0  0  0  0  0  0  0  0  0  0
    7.0072   -0.1851    2.3414 N   0  0  0  0  0  0  0  0  0  0  0  0
    2.9299    0.9764   -0.8751 N   0  0  0  0  0  0  0  0  0  0  0  0
    4.8471    3.3293   -1.3347 N   0  0  0  0  0  0  0  0  0  0  0  0
    1.2232    2.6630   -0.9936 N   0  0  0  0  0  0  0  0  0  0  0  0
    4.6971    0.5996    1.6098 C   0  0  0  0  0  0  0  0  0  0  0  0
    5.0284   -1.7262    1.8724 C   0  0  0  0  0  0  0  0  0  0  0  0
    6.2294    0.7832    1.5748 C   0  0  0  0  0  0  0  0  0  0  0  0
    6.5728   -1.5318    1.9248 C   0  0  0  0  0  0  0  0  0  0  0  0
    2.9301   -0.9224    0.8541 C   0  0  0  0  0  0  0  0  0  0  0  0
    6.8212    0.1052    3.7485 C   0  0  0  0  0  0  0  0  0  0  0  0
    2.1657    0.0934   -0.0801 C   0  0  0  0  0  0  0  0  0  0  0  0
    3.9812    0.4838   -1.7032 C   0  0  0  0  0  0  0  0  0  0  0  0
    2.5378    2.3524   -1.0779 C   0  0  0  0  0  0  0  0  0  0  0  0
    5.2751    1.0129   -1.6751 C   0  0  0  0  0  0  0  0  0  0  0  0
    3.4620    3.4016   -1.2930 C   0  0  0  0  0  0  0  0  0  0  0  0
    3.7235   -0.5704   -2.5970 C   0  0  0  0  0  0  0  0  0  0  0  0
    5.6067    2.2787   -1.0171 C   0  0  0  0  0  0  0  0  0  0  0  0
    6.3178    0.4395   -2.4088 C   0  0  0  0  0  0  0  0  0  0  0  0
    3.0331    4.7326   -1.3478 C   0  0  0  0  0  0  0  0  0  0  0  0
    4.7419   -1.0666   -3.4229 C   0  0  0  0  0  0  0  0  0  0  0  0
    6.0444   -0.5844   -3.3037 C   0  0  0  0  0  0  0  0  0  0  0  0
    1.6923    5.0184   -1.3119 C   0  0  0  0  0  0  0  0  0  0  0  0
    0.8323    3.9527   -1.1627 C   0  0  0  0  0  0  0  0  0  0  0  0
  1 14  2  0
  2 20  2  0
  3  8  1  0
  3  9  1  0
  3 12  1  0
  4 10  1  0
  4 11  1  0
  4 13  1  0
  5 14  1  0
  5 15  1  0
  5 16  1  0
  6 18  1  0
  6 20  1  0
  7 16  1  0
  7 26  2  0
  8 10  1  0
  9 11  1  0
 12 14  1  0
 15 17  2  0
 15 19  1  0
 16 18  2  0
 17 20  1  0
 17 21  1  0
 18 22  1  0
 19 23  2  0
 21 24  2  0
 22 25  2  0
 23 24  1  0
 25 26  1  0
M  END
>  <DRUGBANK_ID>  (1) 
DB00670

>  <SECONDARY_ACCESSION_NUMBERS>  (1) 
APRD00515

>  <COMMON_NAME>  (1) 
Pirenzepine

>  <CAS_NUMBER>  (1) 
28797-61-7

>  <UNII>  (1) 
3G0285N20N

>  <SYNONYMS>  (1) 
11-((4-Methyl-1-piperazinyl)acetyl)-5,11-dihydro-6H-pyrido(2,3-b)(1,4)benzodiazepin-6-one; Pirenzepin; Pirenzepina; Pirenz√©pine; Pirenzepine; Pirenzepinum

$$$$
