
     RDKit          3D

 16 12  0  0  0  0  0  0  0  0999 V2000
    1.1912   -0.0193    0.0584 C   0  0  0  0  0  0  0  0  0  0  0  0
    0.6225   -0.9856    1.1307 C   0  0  0  0  0  0  0  0  0  0  0  0
    1.0361   -2.4446    0.9088 C   0  0  0  0  0  0  0  0  0  0  0  0
    2.7686   -0.1289    0.1351 C   0  0  0  0  0  0  0  0  0  0  0  0
    0.6623    1.4258    0.2570 C   0  0  0  0  0  0  0  0  0  0  0  0
    0.9347    2.4201   -0.8686 C   0  0  0  0  0  0  0  0  0  0  0  0
    0.6113   -0.4013   -1.2228 O   0  0  0  0  0  0  0  0  0  0  0  0
    0.5544   -2.9027   -0.1572 O   0  0  0  0  0  0  0  0  0  0  0  0
    1.6121   -2.9803    1.8935 O   0  0  0  0  0  0  0  0  0  0  0  0
    2.1687    2.6632   -1.0798 O   0  0  0  0  0  0  0  0  0  0  0  0
   -0.0402    2.6982   -1.5771 O   0  0  0  0  0  0  0  0  0  0  0  0
    3.3505    0.1859   -0.9374 O   0  0  0  0  0  0  0  0  0  0  0  0
    3.1824   -0.2265    1.3374 O   0  0  0  0  0  0  0  0  0  0  0  0
   -1.0767   -0.6733   -0.8752 Li  0  0  0  0  0 15  0  0  0  0  0  0
    1.4105    0.8031    2.6739 Li  0  0  0  0  0 15  0  0  0  0  0  0
    2.9384    1.4431   -2.0067 Li  0  0  0  0  0 15  0  0  0  0  0  0
  1  7  1  0
  1  2  1  0
  1  4  1  0
  2  3  1  0
  3  9  1  0
  3  8  2  0
  4 12  1  0
  4 13  2  0
  5  1  1  0
  6  5  1  0
  6 11  1  0
  6 10  2  0
M  CHG  6   9  -1  11  -1  12  -1  14   1  15   1  16   1
M  END
>  <DRUGBANK_ID>  (1) 
DB14507

>  <SECONDARY_ACCESSION_NUMBERS>  (1) 
DBSALT001430

>  <COMMON_NAME>  (1) 
Lithium citrate

>  <CAS_NUMBER>  (1) 
919-16-4

>  <UNII>  (1) 
3655633623

>  <SYNONYMS>  (1) 
Anhydrous lithium citrate; Citric acid, trilithium salt; Lithium citrate (anhydrous); Trilithium citrate

$$$$
