
     RDKit          3D

 12 12  0  0  0  0  0  0  0  0999 V2000
    1.0215   -0.1132   -0.1078 O   0  0  0  0  0  0  0  0  0  0  0  0
    2.2519   -0.0732   -0.0547 C   0  0  0  0  0  0  0  0  0  0  0  0
    3.0201    1.1692   -0.4172 C   0  0  0  0  0  0  0  0  0  0  0  0
    4.9255   -4.8967    1.1795 O   0  0  0  0  0  0  0  0  0  0  0  0
    4.3062   -3.7063    0.9150 C   0  0  0  0  0  0  0  0  0  0  0  0
    3.2127   -3.7098    0.0485 C   0  0  0  0  0  0  0  0  0  0  0  0
    2.5575   -2.5158   -0.2543 C   0  0  0  0  0  0  0  0  0  0  0  0
    3.0020   -1.3086    0.2951 C   0  0  0  0  0  0  0  0  0  0  0  0
    4.0962   -1.3050    1.1703 C   0  0  0  0  0  0  0  0  0  0  0  0
    4.7526   -2.5089    1.4961 C   0  0  0  0  0  0  0  0  0  0  0  0
    5.7899   -2.3653    2.3867 O   0  0  0  0  0  0  0  0  0  0  0  0
    6.4855   -3.5509    2.7706 C   0  0  0  0  0  0  0  0  0  0  0  0
  1  2  2  0
  2  3  1  0
  2  8  1  0
  4  5  1  0
  5  6  2  0
  5 10  1  0
  6  7  1  0
  7  8  2  0
  8  9  1  0
  9 10  2  0
 10 11  1  0
 11 12  1  0
M  END
>  <DRUGBANK_ID>  (1) 
DB12618

>  <COMMON_NAME>  (1) 
Apocynin

>  <CAS_NUMBER>  (1) 
498-02-2

>  <UNII>  (1) 
B6J7B9UDTR

>  <SYNONYMS>  (1) 
Acetovanillone

$$$$
