
     RDKit          3D

 31 34  0  0  0  0  0  0  0  0999 V2000
    4.5452   -1.3999    0.0052 C   0  0  0  0  0  0  0  0  0  0  0  0
    5.9194   -1.6342    0.0666 C   0  0  0  0  0  0  0  0  0  0  0  0
    6.4092   -2.9387    0.1076 C   0  0  0  0  0  0  0  0  0  0  0  0
    5.5356   -4.0300    0.1072 C   0  0  0  0  0  0  0  0  0  0  0  0
    4.1515   -3.8307    0.0487 C   0  0  0  0  0  0  0  0  0  0  0  0
    3.6868   -2.5018   -0.0500 C   0  0  0  0  0  0  0  0  0  0  0  0
    3.1524   -4.9719    0.1121 C   0  0  0  0  0  0  0  0  0  0  0  0
    2.3036   -4.9707    1.3623 C   0  0  0  0  0  0  0  0  0  0  0  0
    1.3598   -3.9727    1.5375 C   0  0  0  0  0  0  0  0  0  0  0  0
    0.6208   -3.8899    2.6979 C   0  0  0  0  0  0  0  0  0  0  0  0
    0.7654   -4.8348    3.7117 C   0  0  0  0  0  0  0  0  0  0  0  0
    1.6261   -5.9044    3.5053 C   0  0  0  0  0  0  0  0  0  0  0  0
    2.4262   -5.9580    2.3535 C   0  0  0  0  0  0  0  0  0  0  0  0
    6.2425   -5.6045    0.1532 Cl  0  0  0  0  0  0  0  0  0  0  0  0
    0.1301   -4.7732    4.9213 O   0  0  0  0  0  0  0  0  0  0  0  0
   -0.6237   -3.6031    5.2474 C   0  0  2  0  0  0  0  0  0  0  0  0
    3.9685   -0.0008    0.0405 C   0  0  2  0  0  0  0  0  0  0  0  0
    4.4360    0.6703   -1.1327 O   0  0  0  0  0  0  0  0  0  0  0  0
    3.9198    2.0033   -1.2481 C   0  0  1  0  0  0  0  0  0  0  0  0
    4.3778    2.8553   -0.0595 C   0  0  2  0  0  0  0  0  0  0  0  0
    3.9393    2.2090    1.2638 C   0  0  1  0  0  0  0  0  0  0  0  0
    4.3783    0.7394    1.3327 C   0  0  1  0  0  0  0  0  0  0  0  0
    3.8280    0.1125    2.4992 O   0  0  0  0  0  0  0  0  0  0  0  0
    3.8769    4.1871   -0.1727 O   0  0  0  0  0  0  0  0  0  0  0  0
    4.4796    2.9383    2.3737 O   0  0  0  0  0  0  0  0  0  0  0  0
    4.4366    2.5963   -2.5633 C   0  0  0  0  0  0  0  0  0  0  0  0
    4.0059    1.7943   -3.6622 O   0  0  0  0  0  0  0  0  0  0  0  0
   -1.8738   -3.4010    4.3978 C   0  0  0  0  0  0  0  0  0  0  0  0
   -2.0386   -1.9900    4.2065 O   0  0  0  0  0  0  0  0  0  0  0  0
   -0.9546   -1.2871    4.8291 C   0  0  0  0  0  0  0  0  0  0  0  0
    0.1245   -2.2790    5.2039 C   0  0  0  0  0  0  0  0  0  0  0  0
  1  2  2  0
  1  6  1  0
  2  3  1  0
  3  4  2  0
  4  5  1  0
  4 14  1  0
  5  6  2  0
  5  7  1  0
  7  8  1  0
  8  9  2  0
  8 13  1  0
  9 10  1  0
 10 11  2  0
 11 12  1  0
 11 15  1  0
 12 13  2  0
 16 15  1  6
 16 28  1  0
 16 31  1  0
 17 18  1  0
 17  1  1  1
 18 19  1  0
 19 20  1  0
 19 26  1  6
 20 24  1  6
 21 20  1  0
 21 22  1  0
 21 25  1  1
 22 17  1  0
 22 23  1  1
 26 27  1  0
 28 29  1  0
 29 30  1  0
 30 31  1  0
M  END
>  <DRUGBANK_ID>  (1) 
DB09038

>  <COMMON_NAME>  (1) 
Empagliflozin

>  <CAS_NUMBER>  (1) 
864070-44-0

>  <UNII>  (1) 
HDC1R2M35U

>  <SYNONYMS>  (1) 
(1S)-1,5-anhydro-1-(4-chloro-3-{4-[(3S)-tetrahydrofuran-3-yloxy]benzyl}phenyl)-D-glucitol; 1-chloro-4-(glucopyranos-1-yl)-2-(4-(tetrahydrofuran-3-yloxy)benzyl)benzene; Empagliflozin; Empagliflozina; Empagliflozine; Empagliflozinum

$$$$
