
     RDKit          3D

 25 27  0  0  0  0  0  0  0  0999 V2000
    1.4023   -0.3625   -0.0139 C   0  0  0  0  0  0  0  0  0  0  0  0
    0.4975   -1.4271   -0.0319 C   0  0  0  0  0  0  0  0  0  0  0  0
   -0.8857   -1.1771   -0.0512 C   0  0  0  0  0  0  0  0  0  0  0  0
   -1.3310    0.1429    0.0631 C   0  0  0  0  0  0  0  0  0  0  0  0
   -0.4132    1.1080    0.4019 C   0  0  0  0  0  0  0  0  0  0  0  0
    0.9303    0.9256    0.1493 C   0  0  0  0  0  0  0  0  0  0  0  0
   -2.6539    0.5338   -0.1544 N   0  0  0  0  0  0  0  0  0  0  0  0
   -3.2077    1.7740   -0.3522 C   0  0  0  0  0  0  0  0  0  0  0  0
   -4.4504    1.7995   -0.3253 O   0  0  0  0  0  0  0  0  0  0  0  0
   -2.5582    3.1723   -0.6129 C   0  0  0  0  0  0  0  0  0  0  0  0
   -1.4272    3.8682   -0.9679 C   0  0  0  0  0  0  0  0  0  0  0  0
   -1.1523    5.5115   -1.0112 C   0  0  0  0  0  0  0  0  0  0  0  0
   -2.0947    6.8526   -0.9137 C   0  0  0  0  0  0  0  0  0  0  0  0
   -2.6840    6.5813    0.3044 C   0  0  0  0  0  0  0  0  0  0  0  0
   -3.8416    7.1222    0.8180 C   0  0  0  0  0  0  0  0  0  0  0  0
   -4.1313    8.4206    0.4769 C   0  0  0  0  0  0  0  0  0  0  0  0
   -3.2709    9.0889   -0.3755 C   0  0  0  0  0  0  0  0  0  0  0  0
   -2.2798    8.3251   -1.1229 C   0  0  0  0  0  0  0  0  0  0  0  0
   -1.3322    9.2619   -2.2106 Cl  0  0  0  0  0  0  0  0  0  0  0  0
   -5.4981    9.1360    1.2366 Cl  0  0  0  0  0  0  0  0  0  0  0  0
   -1.8351    5.6757    0.9178 N   0  0  0  0  0  0  0  0  0  0  0  0
   -0.5811    5.7898    0.2474 C   0  0  0  0  0  0  0  0  0  0  0  0
    0.5039    6.6905    0.5300 C   0  0  0  0  0  0  0  0  0  0  0  0
    1.7092    6.4242    0.4815 O   0  0  0  0  0  0  0  0  0  0  0  0
    0.0779    7.9595    0.6428 O   0  0  0  0  0  0  0  0  0  0  0  0
  1  2  2  0
  1  6  1  0
  2  3  1  0
  3  4  2  0
  4  5  1  0
  4  7  1  0
  5  6  2  0
  7  8  1  0
  8  9  2  0
  8 10  1  0
 10 11  2  0
 11 12  1  0
 12 13  1  0
 12 22  2  0
 13 14  1  0
 13 18  2  0
 14 15  2  0
 14 21  1  0
 15 16  1  0
 16 17  2  0
 16 20  1  0
 17 18  1  0
 18 19  1  0
 21 22  1  0
 22 23  1  0
 23 24  2  0
 23 25  1  0
M  END
>  <DRUGBANK_ID>  (1) 
DB06741

>  <COMMON_NAME>  (1) 
Gavestinel

>  <CAS_NUMBER>  (1) 
153436-22-7

>  <UNII>  (1) 
318X4QY113

>  <SYNONYMS>  (1) 
Gavestinel

$$$$
