
     RDKit          3D

 20 20  0  0  1  0  0  0  0  0999 V2000
   -3.2785    0.5659    3.5569 P   0  0  0  0  0  0  0  0  0  0  0  0
    2.3708   -3.4393    1.1957 P   0  0  0  0  0  0  0  0  0  0  0  0
   -2.1204   -0.1821    4.3611 O   0  0  0  0  0  0  0  0  0  0  0  0
    1.4778   -2.0802    1.7859 O   0  0  0  0  0  0  0  0  0  0  0  0
   -4.6627    0.2468    4.2767 O   0  0  0  0  0  0  0  0  0  0  0  0
   -3.4904   -0.2557    2.1975 O   0  0  0  0  0  0  0  0  0  0  0  0
    2.9987   -2.3433    0.1507 O   0  0  0  0  0  0  0  0  0  0  0  0
    3.3725   -3.1255    2.4486 O   0  0  0  0  0  0  0  0  0  0  0  0
    0.0624   -2.8931   -0.5205 O   0  0  0  0  0  0  0  0  0  0  0  0
   -0.4656    1.7067    1.2294 O   0  0  0  0  0  0  0  0  0  0  0  0
   -1.0641   -0.2102   -0.9940 O   0  0  0  0  0  0  0  0  0  0  0  0
   -0.4712   -1.6536    2.8495 O   0  0  0  0  0  0  0  0  0  0  0  0
   -3.0902    2.0163    3.3843 O   0  0  0  0  0  0  0  0  0  0  0  0
    3.1700   -4.6557    0.6675 O   0  0  0  0  0  0  0  0  0  0  0  0
   -0.7782    0.2284    4.1021 C   0  0  0  0  0  0  0  0  0  0  0  0
    0.1101   -2.3942    1.8212 C   0  0  1  0  0  0  0  0  0  0  0  0
   -0.2277   -0.2441    2.7480 C   0  0  2  0  0  0  0  0  0  0  0  0
   -0.5232   -2.0557    0.4852 C   0  0  1  0  0  0  0  0  0  0  0  0
   -0.7325    0.3176    1.3914 C   0  0  2  0  0  0  0  0  0  0  0  0
   -0.3070   -0.5561    0.1817 C   0  0  2  0  0  0  0  0  0  0  0  0
  1  3  1  0
  1  5  1  0
  1  6  1  0
  1 13  2  0
  2  4  1  0
  2  7  1  0
  2  8  1  0
  2 14  2  0
  3 15  1  0
 12 16  1  0
 12 17  1  0
 16 18  1  0
 16  4  1  6
 17 19  1  0
 17 15  1  1
 18  9  1  6
 18 20  1  0
 19 10  1  6
 19 20  1  0
 20 11  1  6
M  END
>  <DRUGBANK_ID>  (1) 
DB02835

>  <SECONDARY_ACCESSION_NUMBERS>  (1) 
EXPT01519

>  <COMMON_NAME>  (1) 
Alpha-D-Glucose 1,6-Bisphosphate

>  <CAS_NUMBER>  (1) 
10139-18-1

>  <UNII>  (1) 
DRX17R6AM2

$$$$
