294
     RDKit          3D

 30 32  0  0  0  0  0  0  0  0999 V2000
    0.7736   -1.2701   -0.1804 C   0  0  0  0  0  0  0  0  0  0  0  0
    3.0074    0.0239   -2.3111 C   0  0  0  0  0  0  0  0  0  0  0  0
    2.4339    1.1405   -2.9110 C   0  0  0  0  0  0  0  0  0  0  0  0
    2.3004    1.2097   -4.2896 C   0  0  0  0  0  0  0  0  0  0  0  0
    2.8727    0.2379   -5.1051 C   0  0  0  0  0  0  0  0  0  0  0  0
    3.5564   -0.8296   -4.5070 C   0  0  0  0  0  0  0  0  0  0  0  0
    3.5741   -0.9739   -3.1097 C   0  0  0  0  0  0  0  0  0  0  0  0
    2.0733    1.2255   -7.1107 C   0  0  0  0  0  0  0  0  0  0  0  0
    2.4627    2.5674   -7.0626 C   0  0  0  0  0  0  0  0  0  0  0  0
    1.6990    3.5417   -7.7078 C   0  0  0  0  0  0  0  0  0  0  0  0
    0.5787    3.1760   -8.4678 C   0  0  0  0  0  0  0  0  0  0  0  0
    0.2527    1.8144   -8.5860 C   0  0  0  0  0  0  0  0  0  0  0  0
    0.9689    0.8473   -7.8736 C   0  0  0  0  0  0  0  0  0  0  0  0
   -0.3021    4.2213   -9.1086 C   0  0  0  0  0  0  0  0  0  0  0  0
    3.0217    0.0127    3.7658 O   0  0  0  0  0  0  0  0  0  0  0  0
    2.9774    0.0042    2.3519 N   0  0  0  0  0  0  0  0  0  0  0  0
    1.7377   -0.0183    1.7805 C   0  0  0  0  0  0  0  0  0  0  0  0
    0.7624   -0.0277    2.5444 O   0  0  0  0  0  0  0  0  0  0  0  0
    1.5567   -0.0138    0.2427 C   0  0  0  0  0  0  0  0  0  0  0  0
    0.7478    1.2431   -0.1331 C   0  0  0  0  0  0  0  0  0  0  0  0
   -0.7049    1.1783    0.2988 C   0  0  0  0  0  0  0  0  0  0  0  0
   -1.2965   -0.0009   -0.2422 O   0  0  0  0  0  0  0  0  0  0  0  0
   -0.6915   -1.1988    0.2392 C   0  0  0  0  0  0  0  0  0  0  0  0
    3.1762   -0.0119   -0.5404 S   0  0  0  0  0  0  0  0  0  0  0  0
    3.8377    1.2378   -0.1893 O   0  0  0  0  0  0  0  0  0  0  0  0
    3.8254   -1.2610   -0.2022 O   0  0  0  0  0  0  0  0  0  0  0  0
    2.8037    0.2389   -6.4836 O   0  0  0  0  0  0  0  0  0  0  0  0
   -0.3632    4.1073  -10.4626 F   0  0  0  0  0  0  0  0  0  0  0  0
   -1.5888    4.1432   -8.6661 F   0  0  0  0  0  0  0  0  0  0  0  0
    0.0974    5.4989   -8.8546 F   0  0  0  0  0  0  0  0  0  0  0  0
  1 19  1  0
  1 23  1  0
  2  3  2  0
  2  7  1  0
  2 24  1  0
  3  4  1  0
  4  5  2  0
  5  6  1  0
  5 27  1  0
  6  7  2  0
  8  9  2  0
  8 13  1  0
  8 27  1  0
  9 10  1  0
 10 11  2  0
 11 12  1  0
 11 14  1  0
 12 13  2  0
 14 28  1  0
 14 29  1  0
 14 30  1  0
 15 16  1  0
 16 17  1  0
 17 18  2  0
 17 19  1  0
 19 20  1  0
 19 24  1  0
 20 21  1  0
 21 22  1  0
 22 23  1  0
 24 25  2  0
 24 26  2  0
M  END
>  <DRUGBANK_ID>  (1) 
DB06945

>  <COMMON_NAME>  (1) 
N-hydroxy-4-({4-[4-(trifluoromethyl)phenoxy]phenyl}sulfonyl)tetrahydro-2H-pyran-4-carboxamide

$$$$
