
     RDKit          3D

 36 39  0  0  0  0  0  0  0  0999 V2000
    1.9781   -0.8422    0.1966 C   0  0  2  0  0  0  0  0  0  0  0  0
    0.5809    0.7163   -0.2885 N   0  0  0  0  0  0  0  0  0  0  0  0
    1.8122    0.7636    0.2893 C   0  0  0  0  0  0  0  0  0  0  0  0
    0.5169   -0.7386   -0.4316 C   0  0  2  0  0  0  0  0  0  0  0  0
    2.0069   -1.6170    1.4877 N   0  0  0  0  0  0  0  0  0  0  0  0
   -2.9837    1.3175    3.0964 C   0  0  0  0  0  0  0  0  0  0  0  0
   -0.5621    1.4608   -0.0622 C   0  0  0  0  0  0  0  0  0  0  0  0
   -2.6881    1.7401    4.3620 N   0  0  0  0  0  0  0  0  0  0  0  0
   -3.0512    0.0081    3.0980 N   0  0  0  0  0  0  0  0  0  0  0  0
    2.1642   -2.9999    1.4282 C   0  0  0  0  0  0  0  0  0  0  0  0
   -2.8391   -0.3771    4.4017 N   0  0  0  0  0  0  0  0  0  0  0  0
   -2.6217    0.6741    5.1815 N   0  0  0  0  0  0  0  0  0  0  0  0
   -1.7464    0.8057    0.0945 C   0  0  0  0  0  0  0  0  0  0  0  0
   -0.5702   -1.3247    0.2925 O   0  0  0  0  0  0  0  0  0  0  0  0
    2.2356   -3.7738    2.7481 C   0  0  1  0  0  0  0  0  0  0  0  0
   -0.5419    2.9809   -0.0843 C   0  0  0  0  0  0  0  0  0  0  0  0
    1.0017   -4.6964    2.7482 C   0  0  0  0  0  0  0  0  0  0  0  0
   -3.3387    2.3878    1.8033 S   0  0  0  0  0  0  0  0  0  0  0  0
   -1.8271   -0.7094    0.0559 C   0  0  0  0  0  0  0  0  0  0  0  0
    2.4339    1.7338    0.6396 O   0  0  0  0  0  0  0  0  0  0  0  0
   -3.1225    1.4227    0.2837 C   0  0  0  0  0  0  0  0  0  0  0  0
    3.6334   -4.3834    2.9766 C   0  0  0  0  0  0  0  0  0  0  0  0
    3.0782   -1.2895   -0.6362 O   0  0  0  0  0  0  0  0  0  0  0  0
    2.2624   -3.6087    0.3600 O   0  0  0  0  0  0  0  0  0  0  0  0
    0.6625    3.5775   -0.1335 O   0  0  0  0  0  0  0  0  0  0  0  0
    1.1254   -6.0394    2.7134 O   0  0  0  0  0  0  0  0  0  0  0  0
   -1.5484    3.6737   -0.1328 O   0  0  0  0  0  0  0  0  0  0  0  0
   -0.1323   -4.2229    2.7571 O   0  0  0  0  0  0  0  0  0  0  0  0
    4.8145   -3.6395    2.7685 C   0  0  0  0  0  0  0  0  0  0  0  0
    3.8054   -5.6826    3.4681 C   0  0  0  0  0  0  0  0  0  0  0  0
   -2.4674    3.0572    4.8922 C   0  0  0  0  0  0  0  0  0  0  0  0
    6.1746   -5.5860    3.2457 C   0  0  0  0  0  0  0  0  0  0  0  0
    6.0822   -4.2324    2.9382 C   0  0  0  0  0  0  0  0  0  0  0  0
    5.0348   -6.3240    3.4683 C   0  0  0  0  0  0  0  0  0  0  0  0
    7.3524   -6.2422    3.4274 O   0  0  0  0  0  0  0  0  0  0  0  0
    3.5317   -0.5070   -1.7086 C   0  0  0  0  0  0  0  0  0  0  0  0
  1 23  1  0
  1  5  1  1
  2  3  1  0
  2  4  1  0
  3  1  1  0
  4  1  1  0
  6 18  1  0
  7  2  1  0
  8  6  1  0
  9  6  2  0
 10  5  1  0
 11  9  1  0
 11 12  2  0
 12  8  1  0
 13  7  2  0
  4 14  1  1
 15 10  1  6
 16  7  1  0
 17 15  1  0
 18 21  1  0
 19 14  1  0
 19 13  1  0
 20  3  2  0
 21 13  1  0
 22 15  1  0
 24 10  2  0
 25 16  1  0
 26 17  1  0
 27 16  2  0
 28 17  2  0
 29 22  2  0
 30 22  1  0
 31  8  1  0
 32 33  2  0
 32 34  1  0
 33 29  1  0
 34 30  2  0
 35 32  1  0
 36 23  1  0
M  END
>  <DRUGBANK_ID>  (1) 
DB04570

>  <COMMON_NAME>  (1) 
Latamoxef

>  <CAS_NUMBER>  (1) 
64952-97-2

>  <UNII>  (1) 
VUF6C936Z3

>  <SYNONYMS>  (1) 
Festamoxin; Lamoxactam; Latamoxef; Latamoxefum; Moxalactam

$$$$
