D25
     RDKit          3D

 16 18  0  0  0  0  0  0  0  0999 V2000
    1.0141    0.7634   -0.0646 C   0  0  0  0  0  0  0  0  0  0  0  0
   -0.3562    1.0992    0.0201 C   0  0  0  0  0  0  0  0  0  0  0  0
   -0.8914    2.4817   -0.0065 C   0  0  0  0  0  0  0  0  0  0  0  0
   -0.5687    3.4415   -0.9391 C   0  0  0  0  0  0  0  0  0  0  0  0
    1.0490   -0.6055   -0.0204 C   0  0  0  0  0  0  0  0  0  0  0  0
   -1.7767    3.0154    0.8788 O   0  0  0  0  0  0  0  0  0  0  0  0
   -1.9687    4.3606    0.5901 N   0  0  0  0  0  0  0  0  0  0  0  0
   -1.2883    4.5920   -0.5415 C   0  0  0  0  0  0  0  0  0  0  0  0
   -1.3706    5.8636   -1.2419 C   0  0  0  0  0  0  0  0  0  0  0  0
   -1.8802    5.9050   -2.5467 C   0  0  0  0  0  0  0  0  0  0  0  0
   -2.0166    7.1252   -3.2109 C   0  0  0  0  0  0  0  0  0  0  0  0
   -1.6514    8.3092   -2.5724 C   0  0  0  0  0  0  0  0  0  0  0  0
   -1.1398    8.2745   -1.2750 C   0  0  0  0  0  0  0  0  0  0  0  0
   -0.9790    7.0525   -0.6167 C   0  0  0  0  0  0  0  0  0  0  0  0
   -1.1251    0.0094    0.1318 N   0  0  0  0  0  0  0  0  0  0  0  0
   -0.2531   -1.0114    0.0414 N   0  0  0  0  0  0  0  0  0  0  0  0
  1  2  1  0
  1  5  2  0
  2  3  1  0
  2 15  2  0
  3  4  2  0
  3  6  1  0
  4  8  1  0
  5 16  1  0
  6  7  1  0
  7  8  2  0
  8  9  1  0
  9 10  2  0
  9 14  1  0
 10 11  1  0
 11 12  2  0
 12 13  1  0
 13 14  2  0
 15 16  1  0
M  END
>  <DRUGBANK_ID>  (1) 
DB07613

>  <COMMON_NAME>  (1) 
3-phenyl-5-(1H-pyrazol-3-yl)isoxazole

$$$$
