1622
     RDKit          3D

 30 33  0  0  0  0  0  0  0  0999 V2000
    0.0608    1.7796    0.4654 S   0  0  0  0  0  0  0  0  0  0  0  0
    4.8170   -2.2306   -0.8086 S   0  0  0  0  0  0  0  0  0  0  0  0
    5.2223   -2.7641    0.4691 O   0  0  0  0  0  0  0  0  0  0  0  0
    4.3706   -3.1105   -1.8781 O   0  0  0  0  0  0  0  0  0  0  0  0
   -2.8508   -2.4019    2.2279 N   0  0  0  0  0  0  0  0  0  0  0  0
   -4.5333   -4.6014    1.2115 N   0  0  0  0  0  0  0  0  0  0  0  0
    0.0382   -1.2432    0.7559 N   0  0  0  0  0  0  0  0  0  0  0  0
    6.1464   -1.3153   -1.4065 N   0  0  0  0  0  0  0  0  0  0  0  0
   -2.7379   -3.7408    2.7896 C   0  0  0  0  0  0  0  0  0  0  0  0
   -4.2124   -2.1323    1.7654 C   0  0  0  0  0  0  0  0  0  0  0  0
   -2.2233   -1.3218    2.9710 C   0  0  0  0  0  0  0  0  0  0  0  0
   -3.1689   -4.7973    1.7472 C   0  0  0  0  0  0  0  0  0  0  0  0
   -4.6635   -3.2180    0.7313 C   0  0  0  0  0  0  0  0  0  0  0  0
   -0.7238   -1.5825    3.1617 C   0  0  0  0  0  0  0  0  0  0  0  0
   -0.0041   -2.1548    1.9166 C   0  0  0  0  0  0  0  0  0  0  0  0
   -5.5399   -4.8145    2.2356 C   0  0  0  0  0  0  0  0  0  0  0  0
    1.2897   -0.7277    0.3957 C   0  0  0  0  0  0  0  0  0  0  0  0
   -1.1163   -0.7078    0.1588 C   0  0  0  0  0  0  0  0  0  0  0  0
    1.4091    0.6508    0.1243 C   0  0  0  0  0  0  0  0  0  0  0  0
   -1.2743    0.6857    0.0062 C   0  0  0  0  0  0  0  0  0  0  0  0
    2.3535   -1.5918    0.1119 C   0  0  0  0  0  0  0  0  0  0  0  0
    3.4976   -1.0874   -0.5018 C   0  0  0  0  0  0  0  0  0  0  0  0
   -2.1082   -1.5152   -0.3840 C   0  0  0  0  0  0  0  0  0  0  0  0
    2.5496    1.1426   -0.4859 C   0  0  0  0  0  0  0  0  0  0  0  0
    3.5673    0.2645   -0.8450 C   0  0  0  0  0  0  0  0  0  0  0  0
   -2.4614    1.2388   -0.4949 C   0  0  0  0  0  0  0  0  0  0  0  0
   -3.2858   -0.9533   -0.9125 C   0  0  0  0  0  0  0  0  0  0  0  0
   -3.4947    0.4137   -0.9016 C   0  0  0  0  0  0  0  0  0  0  0  0
    6.6861   -0.2987   -0.4684 C   0  0  0  0  0  0  0  0  0  0  0  0
    7.2610   -2.2163   -1.8219 C   0  0  0  0  0  0  0  0  0  0  0  0
  1 19  1  0
  1 20  1  0
  2  3  2  0
  2  4  2  0
  2  8  1  0
  2 22  1  0
  5  9  1  0
  5 10  1  0
  5 11  1  0
  6 12  1  0
  6 13  1  0
  6 16  1  0
  7 15  1  0
  7 17  1  0
  7 18  1  0
  8 29  1  0
  8 30  1  0
  9 12  1  0
 10 13  1  0
 11 14  1  0
 14 15  1  0
 17 19  2  0
 17 21  1  0
 18 20  2  0
 18 23  1  0
 19 24  1  0
 20 26  1  0
 21 22  2  0
 22 25  1  0
 23 27  2  0
 24 25  2  0
 26 28  2  0
 27 28  1  0
M  END
>  <DRUGBANK_ID>  (1) 
DB01622

>  <COMMON_NAME>  (1) 
Thioproperazine

>  <CAS_NUMBER>  (1) 
316-81-4

>  <UNII>  (1) 
YJ050AQ56X

>  <SYNONYMS>  (1) 
(Thioproperazine)-2-dimethylsulfamido-(10-(3-1-methylpiperazinyl-4)propyl)-phenothiazine; 2-dimethylsulfamido-(10-(3-1-methylpiperazinyl-4)propyl)-phenothiazine; N,N-Dimethyl-10-[3-(4-methyl-1-piperazinyl)propyl]-10H-phenothiazine-2-sulfonamide; N,N-Dimethyl-10-[3-(4-methyl-1-piperazinyl)propyl]phenothiazine-2-sulfonamide; Thioperazine; Thioproperazin; Thioproperazine; Thioproperazinum; Tioproferazina; Tioproperazina

$$$$
