
     RDKit          3D

 22 22  0  0  0  0  0  0  0  0999 V2000
    0.5347    0.9649   -1.0002 O   0  0  0  0  0  0  0  0  0  0  0  0
   -0.5517    1.1783   -0.1442 C   0  0  1  0  0  0  0  0  0  0  0  0
   -1.5750    0.3910   -0.8849 C   0  0  1  0  0  0  0  0  0  0  0  0
    0.5885   -0.4136   -1.2613 C   0  0  1  0  0  0  0  0  0  0  0  0
   -0.8463   -0.9259   -1.2009 C   0  0  1  0  0  0  0  0  0  0  0  0
   -2.7526    0.3278   -0.1309 O   0  0  0  0  0  0  0  0  0  0  0  0
   -0.9563   -1.9494   -0.1910 O   0  0  0  0  0  0  0  0  0  0  0  0
    1.7846   -0.5884   -2.1040 C   0  0  0  0  0  0  0  0  0  0  0  0
    1.5417   -3.9927   -3.1835 O   0  0  0  0  0  0  0  0  0  0  0  0
    1.3373   -1.7441   -2.5724 O   0  0  0  0  0  0  0  0  0  0  0  0
    2.7413   -3.0451   -1.1672 O   0  0  0  0  0  0  0  0  0  0  0  0
    1.2796   -3.3125   -1.8445 P   0  0  0  0  0  0  0  0  0  0  0  0
    1.2219   -4.8808   -1.1165 O   0  0  0  0  0  0  0  0  0  0  0  0
   -0.4415    0.8249    1.2386 O   0  0  0  0  0  0  0  0  0  0  0  0
   -0.0062   -0.2412    2.3289 P   0  0  2  0  0  0  0  0  0  0  0  0
   -1.5013   -0.6007    2.2313 O   0  0  0  0  0  0  0  0  0  0  0  0
   -0.0791   -1.7961    2.8166 O   0  0  0  0  0  0  0  0  0  0  0  0
    1.2266   -0.9051    1.3639 O   0  0  0  0  0  0  0  0  0  0  0  0
    1.8526    1.3689    1.8461 O   0  0  0  0  0  0  0  0  0  0  0  0
    3.4120   -0.1712    0.9311 O   0  0  0  0  0  0  0  0  0  0  0  0
    1.9487    0.4668    0.5962 P   0  0  0  0  0  0  0  0  0  0  0  0
    2.6708    1.8387   -0.1715 O   0  0  0  0  0  0  0  0  0  0  0  0
  1  4  1  0
  2  1  1  0
  2  3  1  0
  2 14  1  1
  3  5  1  0
  3  6  1  1
  4  5  1  0
  4  8  1  6
  5  7  1  1
  8 10  1  0
 10 12  1  0
 12  9  2  0
 12 11  1  0
 12 13  1  0
 14 15  1  0
 15 16  2  0
 15 18  1  0
 15 17  1  1
 18 21  1  0
 21 19  2  0
 21 20  1  0
 21 22  1  0
M  END
>  <DRUGBANK_ID>  (1) 
DB01632

>  <SECONDARY_ACCESSION_NUMBERS>  (1) 
EXPT02663

>  <COMMON_NAME>  (1) 
5-O-phosphono-alpha-D-ribofuranosyl diphosphate

>  <CAS_NUMBER>  (1) 
13270-65-0

>  <UNII>  (1) 
W5555R4ERG

>  <SYNONYMS>  (1) 
5-O-phosphono-α-D-ribofuranosyl diphosphate; 5-Phospho-alpha-D-ribose 1-diphosphate; 5-Phosphoribosyl 1-pyrophosphate; 5-Phosphoribosyl diphosphate; Phosphoribosyl pyrophosphate; Phosphoribosylpyrophosphate; PRib-PP; PRPP; α-D-ribofuranose 5-(dihydrogen phosphate) 1-(trihydrogen diphosphate)

$$$$
