
     RDKit          3D

 28 32  0  0  0  0  0  0  0  0999 V2000
   -2.0078   -0.4368    1.7830 C   0  0  0  0  0  0  0  0  0  0  0  0
   -2.5750   -1.7867    3.0964 C   0  0  0  0  0  0  0  0  0  0  0  0
   -0.5030   -2.7556    2.9406 C   0  0  0  0  0  0  0  0  0  0  0  0
   -1.7973   -3.0603    0.2962 C   0  0  0  0  0  0  0  0  0  0  0  0
   -0.6206   -3.7470   -0.1234 C   0  0  0  0  0  0  0  0  0  0  0  0
    1.7505   -0.7141   -0.1431 C   0  0  0  0  0  0  0  0  0  0  0  0
    2.1459   -4.2969   -0.0577 C   0  0  0  0  0  0  0  0  0  0  0  0
    3.5131   -4.7181   -0.6295 C   0  0  0  0  0  0  0  0  0  0  0  0
   -1.7276   -3.4030    3.0758 C   0  0  1  0  0  0  0  0  0  0  0  0
   -1.8067   -4.4862    3.9901 O   0  0  0  0  0  0  0  0  0  0  0  0
   -1.1531   -2.2864    1.4818 C   0  0  2  0  0  0  0  0  0  0  0  0
   -0.5254   -0.9388    1.4146 C   0  0  2  0  0  0  0  0  0  0  0  0
    0.0761   -0.0170    2.5362 C   0  0  0  0  0  0  0  0  0  0  0  0
    0.6466   -1.5526    0.4506 C   0  0  1  0  0  0  0  0  0  0  0  0
    1.3462   -3.4248   -1.2355 C   0  0  2  0  0  0  0  0  0  0  0  0
    0.6225   -4.1109   -2.2955 O   0  0  0  0  0  0  0  0  0  0  0  0
    3.0685   -1.7338   -0.6538 C   0  0  2  0  0  0  0  0  0  0  0  0
    4.4985   -1.6890   -0.8103 O   0  0  0  0  0  0  0  0  0  0  0  0
    2.5816   -2.8916   -1.9010 C   0  0  2  0  0  0  0  0  0  0  0  0
    2.5127   -1.7901   -3.0277 C   0  0  0  0  0  0  0  0  0  0  0  0
    4.0555   -7.1960   -3.5019 C   0  0  0  0  0  0  0  0  0  0  0  0
    2.3201   -7.6245   -2.1477 C   0  0  0  0  0  0  0  0  0  0  0  0
    3.1087   -6.5434   -2.5096 C   0  0  0  0  0  0  0  0  0  0  0  0
    3.7274   -8.5966   -3.6637 O   0  0  0  0  0  0  0  0  0  0  0  0
    2.7020   -8.8846   -2.8765 C   0  0  0  0  0  0  0  0  0  0  0  0
    2.1638  -10.0347   -2.7987 O   0  0  0  0  0  0  0  0  0  0  0  0
    3.2348   -4.7313   -2.1080 C   0  0  2  0  0  0  0  0  0  0  0  0
    0.2492   -2.6025   -0.6491 C   0  0  1  0  0  0  0  0  0  0  0  0
  1  2  1  0
  1 12  1  0
  2  9  1  0
 11  3  1  6
  4  5  1  0
 28  5  1  1
 14  6  1  6
  7  8  1  0
  9  3  1  0
  9 10  1  1
 11  4  1  0
 12 11  1  0
 12 13  1  1
 14 12  1  0
 14 28  1  0
 15  7  1  0
 15 16  1  6
 17  6  1  0
 17 19  1  0
 17 18  1  6
 19 15  1  0
 19 20  1  6
 21 24  1  0
 21 23  1  0
 22 23  2  0
 24 25  1  0
 25 22  1  0
 25 26  2  0
 27 19  1  0
 27  8  1  0
 27 23  1  1
 28 15  1  0
M  END
>  <DRUGBANK_ID>  (1) 
DB03671

>  <SECONDARY_ACCESSION_NUMBERS>  (1) 
EXPT01244

>  <COMMON_NAME>  (1) 
Digoxigenin

>  <CAS_NUMBER>  (1) 
1672-46-4

>  <UNII>  (1) 
NQ1SX9LNAU

>  <SYNONYMS>  (1) 
Lanadigenin

$$$$
