12H
     RDKit          3D

 15 14  0  0  0  0  0  0  0  0999 V2000
    0.9642   -0.0981    0.0587 C   0  0  0  0  0  0  0  0  0  0  0  0
    0.5165    1.3344   -0.2080 C   0  0  0  0  0  0  0  0  0  0  0  0
    1.0256    1.8723   -1.5502 C   0  0  0  0  0  0  0  0  0  0  0  0
    0.4750    1.1153   -2.7599 C   0  0  0  0  0  0  0  0  0  0  0  0
   -1.0565    1.0757   -2.7161 C   0  0  0  0  0  0  0  0  0  0  0  0
   -1.5886    2.5000   -2.8846 C   0  0  0  0  0  0  0  0  0  0  0  0
   -1.1077    3.0656   -4.2251 C   0  0  0  0  0  0  0  0  0  0  0  0
   -1.6002    2.1694   -5.3657 C   0  0  0  0  0  0  0  0  0  0  0  0
   -3.1323    2.1388   -5.3643 C   0  0  0  0  0  0  0  0  0  0  0  0
   -3.6917    3.5389   -5.6305 C   0  0  0  0  0  0  0  0  0  0  0  0
   -3.1799    4.1164   -6.9503 C   0  0  0  0  0  0  0  0  0  0  0  0
   -3.6504    3.3123   -8.1377 C   0  0  0  0  0  0  0  0  0  0  0  0
    0.3766   -1.0400   -0.8259 O   0  0  0  0  0  0  0  0  0  0  0  0
   -4.4186    3.6983   -8.9929 O   0  0  0  0  0  0  0  0  0  0  0  0
   -3.1447    2.0621   -8.1805 O   0  0  0  0  0  0  0  0  0  0  0  0
  1  2  1  0
  1 13  1  0
  2  3  1  0
  3  4  1  0
  4  5  1  0
  5  6  1  0
  6  7  1  0
  7  8  1  0
  8  9  1  0
  9 10  1  0
 10 11  1  0
 11 12  1  0
 12 14  2  0
 12 15  1  0
M  END
>  <DRUGBANK_ID>  (1) 
DB03704

>  <SECONDARY_ACCESSION_NUMBERS>  (1) 
EXPT00021

>  <COMMON_NAME>  (1) 
12-Hydroxydodecanoic Acid

>  <CAS_NUMBER>  (1) 
505-95-3

>  <UNII>  (1) 
SUH3LR2K9D

$$$$
