
     RDKit          3D

 22 25  0  0  1  0  0  0  0  0999 V2000
    1.1442    0.4178    0.3191 C   0  0  0  0  0  0  0  0  0  0  0  0
    1.5506   -0.3890    1.5340 C   0  0  0  0  0  0  0  0  0  0  0  0
    2.8257   -0.1449    2.0240 C   0  0  0  0  0  0  0  0  0  0  0  0
    3.5071   -1.4549    2.2328 C   0  0  0  0  0  0  0  0  0  0  0  0
    3.7622   -1.9653    3.3066 O   0  0  0  0  0  0  0  0  0  0  0  0
    3.4576   -2.1404    0.9252 C   0  0  0  0  0  0  0  0  0  0  0  0
    2.1532   -2.3023    0.6221 C   0  0  0  0  0  0  0  0  0  0  0  0
    1.0331   -1.9330    1.7143 C   0  0  2  0  0  0  0  0  0  0  0  0
    0.3919   -3.4350    1.5112 C   0  0  1  0  0  0  0  0  0  0  0  0
   -0.7873   -3.9048    2.4860 C   0  0  0  0  0  0  0  0  0  0  0  0
   -1.1021   -5.3973    2.5310 C   0  0  0  0  0  0  0  0  0  0  0  0
   -1.5801   -5.9554    1.2387 C   0  0  2  0  0  0  0  0  0  0  0  0
   -0.3518   -5.2934    0.1208 C   0  0  1  0  0  0  0  0  0  0  0  0
    0.0149   -3.8437    0.1194 C   0  0  2  0  0  0  0  0  0  0  0  0
    1.1142   -3.7005   -0.9648 C   0  0  0  0  0  0  0  0  0  0  0  0
    1.6695   -2.3428   -0.8383 C   0  0  0  0  0  0  0  0  0  0  0  0
    0.6934   -6.3540    0.0704 C   0  0  0  0  0  0  0  0  0  0  0  0
   -0.3707   -7.3233   -0.3830 C   0  0  0  0  0  0  0  0  0  0  0  0
   -1.7707   -6.4311   -0.1016 C   0  0  0  0  0  0  0  0  0  0  0  0
   -2.7829   -5.9895   -0.6873 O   0  0  0  0  0  0  0  0  0  0  0  0
   -2.2768   -7.4228    1.5537 C   0  0  0  0  0  0  0  0  0  0  0  0
    0.9408   -2.0062    3.2755 C   0  0  0  0  0  0  0  0  0  0  0  0
  1  2  1  0
  2  3  2  0
  2  8  1  0
  3  4  1  0
  4  5  2  0
  4  6  1  0
  6  7  2  0
  7  8  1  0
  7 16  1  0
  8  9  1  0
  8 22  1  1
  9 10  1  1
  9 14  1  0
 10 11  1  0
 11 12  1  0
 12 13  1  0
 12 19  1  0
 12 21  1  6
 13 14  1  0
 13 17  1  1
 14 15  1  6
 15 16  1  0
 17 18  1  0
 18 19  1  0
 19 20  2  0
M  END
>  <DRUGBANK_ID>  (1) 
DB12194

>  <COMMON_NAME>  (1) 
Atamestane

>  <CAS_NUMBER>  (1) 
96301-34-7

>  <UNII>  (1) 
62GA3K28B6

>  <SYNONYMS>  (1) 
Atamestane

$$$$
