
     RDKit          3D

 33 37  0  0  0  0  0  0  0  0999 V2000
    1.3626    0.0339   -0.0714 C   0  0  0  0  0  0  0  0  0  0  0  0
    1.3031    0.6239   -1.4860 C   0  0  0  0  0  0  0  0  0  0  0  0
    1.2856   -0.3788   -2.6382 C   0  0  0  0  0  0  0  0  0  0  0  0
    0.5600   -1.6486   -2.4753 N   0  0  0  0  0  0  0  0  0  0  0  0
   -0.8388   -1.8997   -2.4519 C   0  0  0  0  0  0  0  0  0  0  0  0
   -1.0139   -3.2173   -2.5131 N   0  0  0  0  0  0  0  0  0  0  0  0
    0.2040   -3.8618   -2.4890 C   0  0  0  0  0  0  0  0  0  0  0  0
    0.2358   -5.3503   -2.4673 C   0  0  0  0  0  0  0  0  0  0  0  0
   -0.5020   -6.0915   -3.4166 C   0  0  0  0  0  0  0  0  0  0  0  0
   -0.5209   -7.5045   -3.4218 C   0  0  0  0  0  0  0  0  0  0  0  0
    0.1709   -8.2190   -2.4477 C   0  0  0  0  0  0  0  0  0  0  0  0
    0.1651   -9.9494   -2.5412 Cl  0  0  0  0  0  0  0  0  0  0  0  0
    0.8398   -7.5100   -1.4452 C   0  0  0  0  0  0  0  0  0  0  0  0
    1.6467   -8.3348   -0.1512 Cl  0  0  0  0  0  0  0  0  0  0  0  0
    0.8678   -6.0920   -1.4540 C   0  0  0  0  0  0  0  0  0  0  0  0
    1.2367   -2.9169   -2.4749 C   0  0  0  0  0  0  0  0  0  0  0  0
    2.7141   -3.0905   -2.5168 C   0  0  0  0  0  0  0  0  0  0  0  0
    3.5835   -2.6314   -1.5704 C   0  0  0  0  0  0  0  0  0  0  0  0
    4.9210   -2.8932   -1.7722 C   0  0  0  0  0  0  0  0  0  0  0  0
    5.4031   -3.5777   -2.8381 N   0  0  0  0  0  0  0  0  0  0  0  0
    4.4954   -3.9870   -3.7196 C   0  0  0  0  0  0  0  0  0  0  0  0
    4.9859   -4.7019   -4.8298 N   0  0  0  0  0  0  0  0  0  0  0  0
    4.1586   -5.3283   -5.8517 C   0  0  0  0  0  0  0  0  0  0  0  0
    3.3426   -4.4958   -6.8044 C   0  0  0  0  0  0  0  0  0  0  0  0
    2.6553   -5.3941   -5.8188 C   0  0  0  0  0  0  0  0  0  0  0  0
    3.1814   -3.7471   -3.5991 N   0  0  0  0  0  0  0  0  0  0  0  0
   -2.1321   -1.0380   -2.1453 C   0  0  0  0  0  0  0  0  0  0  0  0
   -2.6860    0.0785   -3.0413 C   0  0  0  0  0  0  0  0  0  0  0  0
   -1.9997    1.4238   -2.9095 C   0  0  0  0  0  0  0  0  0  0  0  0
   -1.9243    1.8798   -1.5138 N   0  0  0  0  0  0  0  0  0  0  0  0
   -1.0267    3.0607   -1.4718 C   0  0  0  0  0  0  0  0  0  0  0  0
   -1.6211    0.8041   -0.5519 C   0  0  0  0  0  0  0  0  0  0  0  0
   -2.2490   -0.5774   -0.6808 C   0  0  0  0  0  0  0  0  0  0  0  0
  1  2  1  0
  2  3  1  0
  3  4  1  0
  4  5  1  0
  4 16  1  0
  5  6  2  0
  5 27  1  0
  6  7  1  0
  7  8  1  0
  7 16  2  0
  8  9  2  0
  8 15  1  0
  9 10  1  0
 10 11  2  0
 11 12  1  0
 11 13  1  0
 13 14  1  0
 13 15  2  0
 16 17  1  0
 17 18  2  0
 17 26  1  0
 18 19  1  0
 19 20  2  0
 20 21  1  0
 21 22  1  0
 21 26  2  0
 22 23  1  0
 23 24  1  0
 23 25  1  0
 24 25  1  0
 27 28  1  0
 27 33  1  0
 28 29  1  0
 29 30  1  0
 30 31  1  0
 30 32  1  0
 32 33  1  0
M  END
>  <DRUGBANK_ID>  (1) 
DB03084

>  <SECONDARY_ACCESSION_NUMBERS>  (1) 
EXPT00348

>  <COMMON_NAME>  (1) 
Cyclopropyl-{4-[5-(3,4-Dichlorophenyl)-2-[(1-Methyl)-Piperidin]-4-Yl-3-Propyl-3h-Imidazol-4-Yl]-Pyrimidin-2-Yl}Amine

$$$$
