PNB
     RDKit          3D

 24 24  0  0  0  0  0  0  0  0999 V2000
    0.8786    0.0767    0.0600 N   0  0  0  0  0  0  0  0  0  0  0  0
    0.2807    1.1618    0.0607 O   0  0  0  0  0  0  0  0  0  0  0  0
    0.3273   -1.0327    0.0129 O   0  0  0  0  0  0  0  0  0  0  0  0
    5.1762    0.2044    0.1341 C   0  0  0  0  0  0  0  0  0  0  0  0
    4.4569   -1.0193    0.3081 C   0  0  0  0  0  0  0  0  0  0  0  0
    3.0584   -1.0780    0.2195 C   0  0  0  0  0  0  0  0  0  0  0  0
    2.3450    0.1120    0.1313 C   0  0  0  0  0  0  0  0  0  0  0  0
    3.0261    1.3380    0.0720 C   0  0  0  0  0  0  0  0  0  0  0  0
    4.4273    1.3739   -0.0086 C   0  0  0  0  0  0  0  0  0  0  0  0
    6.7112    0.2561   -0.0789 C   0  0  0  0  0  0  0  0  0  0  0  0
    7.1415    0.7043   -1.4025 O   0  0  0  0  0  0  0  0  0  0  0  0
    6.5511   -0.1455   -2.7889 P   0  0  1  0  0  0  0  0  0  0  0  0
    7.9387   -0.7459   -3.0258 O   0  0  0  0  0  0  0  0  0  0  0  0
    5.7993   -1.2262   -1.8753 O   0  0  0  0  0  0  0  0  0  0  0  0
    5.9265   -1.0444   -4.2555 C   0  0  0  0  0  0  0  0  0  0  0  0
    4.9560   -2.2084   -3.9051 C   0  0  0  0  0  0  0  0  0  0  0  0
    3.6657   -1.6139   -3.2913 C   0  0  0  0  0  0  0  0  0  0  0  0
    2.8670   -0.5963   -4.1258 C   0  0  0  0  0  0  0  0  0  0  0  0
    1.6693   -0.8316   -4.3157 O   0  0  0  0  0  0  0  0  0  0  0  0
    3.3384    0.6121   -4.6065 N   0  0  0  0  0  0  0  0  0  0  0  0
    4.6205    1.3265   -4.5369 C   0  0  0  0  0  0  0  0  0  0  0  0
    5.6996    1.3250   -5.7456 C   0  0  0  0  0  0  0  0  0  0  0  0
    6.6921    2.0009   -5.7706 O   0  0  0  0  0  0  0  0  0  0  0  0
    5.5561    0.3154   -6.6617 O   0  0  0  0  0  0  0  0  0  0  0  0
  1  2  2  0
  1  3  1  0
  1  7  1  0
  4  5  2  0
  4  9  1  0
  4 10  1  0
  5  6  1  0
  6  7  2  0
  7  8  1  0
  8  9  2  0
 10 11  1  0
 12 11  1  0
 12 13  2  0
 12 14  1  0
 12 15  1  0
 15 16  1  0
 16 17  1  0
 17 18  1  0
 18 19  2  0
 18 20  1  0
 20 21  1  0
 21 22  1  0
 22 23  2  0
 22 24  1  0
M  CHG  2   1   1   3  -1
M  END
>  <DRUGBANK_ID>  (1) 
DB08409

>  <COMMON_NAME>  (1) 
4-NITRO-BENZYLPHOSPHONOBUTANOYL-GLYCINE

$$$$
