
     RDKit          3D

 43 46  0  0  0  0  0  0  0  0999 V2000
    1.2614   -0.1411   -0.2618 O   0  0  0  0  0  0  0  0  0  0  0  0
    2.4613   -0.0968   -0.0914 C   0  0  0  0  0  0  0  0  0  0  0  0
    3.3425   -1.1484    0.0648 N   0  0  0  0  0  0  0  0  0  0  0  0
    4.5424   -0.7283    0.5623 C   0  0  0  0  0  0  0  0  0  0  0  0
    3.2801    1.1305    0.0464 C   0  0  0  0  0  0  0  0  0  0  0  0
    4.5117    0.7235    0.4142 C   0  0  0  0  0  0  0  0  0  0  0  0
    2.8003    2.5028   -0.2512 C   0  0  0  0  0  0  0  0  0  0  0  0
    5.6755    1.6580    0.5478 C   0  0  0  0  0  0  0  0  0  0  0  0
    5.4575   -1.5096    1.1604 C   0  0  0  0  0  0  0  0  0  0  0  0
    5.3472   -2.9818    1.3123 C   0  0  0  0  0  0  0  0  0  0  0  0
    5.2898   -3.7787    0.2875 N   0  0  0  0  0  0  0  0  0  0  0  0
    5.2554   -5.0559    0.8021 C   0  0  0  0  0  0  0  0  0  0  0  0
    5.3919   -3.6791    2.6287 C   0  0  0  0  0  0  0  0  0  0  0  0
    5.3952   -4.9676    2.2384 C   0  0  0  0  0  0  0  0  0  0  0  0
    5.3773   -3.1390    4.0196 C   0  0  0  0  0  0  0  0  0  0  0  0
    5.4637   -6.2050    3.0798 C   0  0  0  0  0  0  0  0  0  0  0  0
    5.1060   -6.1831    0.0824 C   0  0  0  0  0  0  0  0  0  0  0  0
    5.2373   -6.1349   -1.3281 C   0  0  0  0  0  0  0  0  0  0  0  0
    4.2422   -6.5542   -2.2027 N   0  0  0  0  0  0  0  0  0  0  0  0
    4.5954   -6.2386   -3.5270 C   0  0  0  0  0  0  0  0  0  0  0  0
    6.2999   -5.6897   -2.0759 C   0  0  0  0  0  0  0  0  0  0  0  0
    5.9342   -5.8719   -3.4280 C   0  0  0  0  0  0  0  0  0  0  0  0
    7.5922   -5.1050   -1.6099 C   0  0  0  0  0  0  0  0  0  0  0  0
    6.8755   -5.6088   -4.5180 C   0  0  0  0  0  0  0  0  0  0  0  0
    3.7053   -6.4895   -4.6613 C   0  0  0  0  0  0  0  0  0  0  0  0
    3.8832   -6.0937   -5.9567 C   0  0  0  0  0  0  0  0  0  0  0  0
    4.8151   -5.2350   -6.4726 N   0  0  0  0  0  0  0  0  0  0  0  0
    4.8594   -5.1282   -7.8110 C   0  0  0  0  0  0  0  0  0  0  0  0
    3.2736   -6.5820   -7.1957 C   0  0  0  0  0  0  0  0  0  0  0  0
    3.8254   -6.0086   -8.2930 C   0  0  0  0  0  0  0  0  0  0  0  0
    2.2890   -7.6860   -7.3227 C   0  0  0  0  0  0  0  0  0  0  0  0
    3.6683   -6.2038   -9.7457 C   0  0  0  0  0  0  0  0  0  0  0  0
    5.7615   -4.5999   -8.4570 O   0  0  0  0  0  0  0  0  0  0  0  0
    6.2188    1.7251    1.9609 C   0  0  0  0  0  0  0  0  0  0  0  0
    4.0793   -3.4051    4.8173 C   0  0  0  0  0  0  0  0  0  0  0  0
    3.5845   -4.8312    4.9533 C   0  0  0  0  0  0  0  0  0  0  0  0
    3.8666   -5.4580    6.1141 O   0  0  0  0  0  0  0  0  0  0  0  0
    2.9541   -5.4034    4.0739 O   0  0  0  0  0  0  0  0  0  0  0  0
    7.1675   -6.8461   -5.4069 C   0  0  0  0  0  0  0  0  0  0  0  0
    6.1311   -7.8911   -5.8681 C   0  0  0  0  0  0  0  0  0  0  0  0
    5.9701   -7.9811   -7.2144 O   0  0  0  0  0  0  0  0  0  0  0  0
    5.5264   -8.6639   -5.1369 O   0  0  0  0  0  0  0  0  0  0  0  0
    1.0291   -7.0547   -7.8831 C   0  0  0  0  0  0  0  0  0  0  0  0
  1  2  2  0
  2  3  1  0
  2  5  1  0
  3  4  1  0
  4  6  1  0
  4  9  2  0
  5  6  2  0
  5  7  1  0
  6  8  1  0
  8 34  1  0
  9 10  1  0
 10 11  2  0
 10 13  1  0
 11 12  1  0
 12 14  1  0
 12 17  2  0
 13 14  2  0
 13 15  1  0
 14 16  1  0
 15 35  1  0
 17 18  1  0
 18 19  1  0
 18 21  2  0
 19 20  1  0
 20 22  2  0
 20 25  1  0
 21 22  1  0
 21 23  1  0
 22 24  1  0
 24 39  1  0
 25 26  2  0
 26 27  1  0
 26 29  1  0
 27 28  1  0
 28 30  1  0
 28 33  2  0
 29 30  2  0
 29 31  1  0
 30 32  1  0
 31 43  1  0
 35 36  1  0
 36 37  1  0
 36 38  2  0
 39 40  1  0
 40 41  1  0
 40 42  2  0
M  END
>  <DRUGBANK_ID>  (1) 
DB04363

>  <SECONDARY_ACCESSION_NUMBERS>  (1) 
EXPT02129

>  <COMMON_NAME>  (1) 
Mesobiliverdin IV alpha

$$$$
