BP3
     RDKit          3D

 15 16  0  0  0  0  0  0  0  0999 V2000
   -0.7084   -1.4071   -0.0260 C   0  0  0  0  0  0  0  0  0  0  0  0
    0.4953   -0.6794   -0.0529 C   0  0  0  0  0  0  0  0  0  0  0  0
    1.7385   -1.2640   -0.0980 O   0  0  0  0  0  0  0  0  0  0  0  0
    0.4874    0.7177   -0.0283 C   0  0  0  0  0  0  0  0  0  0  0  0
    1.6670    1.4087   -0.0205 O   0  0  0  0  0  0  0  0  0  0  0  0
   -0.7018    1.4253    0.0011 C   0  0  0  0  0  0  0  0  0  0  0  0
   -1.9075    0.7295   -0.0073 C   0  0  0  0  0  0  0  0  0  0  0  0
   -1.9106   -0.6719   -0.0231 C   0  0  0  0  0  0  0  0  0  0  0  0
   -0.7554   -2.8826    0.0269 C   0  0  0  0  0  0  0  0  0  0  0  0
   -0.2220   -3.6222    1.1031 C   0  0  0  0  0  0  0  0  0  0  0  0
   -0.2458   -5.0198    1.0997 C   0  0  0  0  0  0  0  0  0  0  0  0
   -0.8229   -5.7070    0.0356 C   0  0  0  0  0  0  0  0  0  0  0  0
   -1.3818   -4.9997   -1.0245 C   0  0  0  0  0  0  0  0  0  0  0  0
   -1.3504   -3.6010   -1.0289 C   0  0  0  0  0  0  0  0  0  0  0  0
    0.5019   -2.8600    2.4799 Cl  0  0  0  0  0  0  0  0  0  0  0  0
  1  2  2  0
  1  8  1  0
  1  9  1  0
  2  3  1  0
  2  4  1  0
  4  5  1  0
  4  6  2  0
  6  7  1  0
  7  8  2  0
  9 10  2  0
  9 14  1  0
 10 11  1  0
 10 15  1  0
 11 12  2  0
 12 13  1  0
 13 14  2  0
M  END
>  <DRUGBANK_ID>  (1) 
DB01925

>  <SECONDARY_ACCESSION_NUMBERS>  (1) 
EXPT00742

>  <COMMON_NAME>  (1) 
2'-Chloro-Biphenyl-2,3-Diol

>  <UNII>  (1) 
1L6MBD62DN

$$$$
