72145
     RDKit          3D

 36 40  0  0  1  0  0  0  0  0999 V2000
   -2.1774   -0.0590    0.5134 O   0  0  0  0  0  0  0  0  0  0  0  0
   -2.9797   -4.4074    2.2935 O   0  0  0  0  0  0  0  0  0  0  0  0
   -1.2045   -6.6288    2.9158 O   0  0  0  0  0  0  0  0  0  0  0  0
    1.1830   -6.4345    2.7239 O   0  0  0  0  0  0  0  0  0  0  0  0
    1.0229   -2.6116   -0.8715 O   0  0  0  0  0  0  0  0  0  0  0  0
    3.4220   -1.2248   -0.3497 O   0  0  0  0  0  0  0  0  0  0  0  0
   -2.0339    2.2387    0.3036 O   0  0  0  0  0  0  0  0  0  0  0  0
    3.1764    1.7054    0.4373 O   0  0  0  0  0  0  0  0  0  0  0  0
    0.2979   -1.5163    3.6201 N   0  0  0  0  0  0  0  0  0  0  0  0
    0.8962    2.9031    0.2147 N   0  0  0  0  0  0  0  0  0  0  0  0
   -0.9905   -1.6640    2.3488 C   0  0  0  0  0  0  0  0  0  0  0  0
   -1.2278   -1.1593    0.5576 C   0  0  0  0  0  0  0  0  0  0  0  0
   -0.8630   -3.0931    2.0224 C   0  0  0  0  0  0  0  0  0  0  0  0
    1.4121   -0.7357    3.1369 C   0  0  0  0  0  0  0  0  0  0  0  0
    0.5048   -3.0832    1.6740 C   0  0  0  0  0  0  0  0  0  0  0  0
    1.3153   -1.5688    1.8670 C   0  0  0  0  0  0  0  0  0  0  0  0
   -0.1307   -0.6117   -0.4126 C   0  0  0  0  0  0  0  0  0  0  0  0
   -1.6275   -4.2622    2.2007 C   0  0  0  0  0  0  0  0  0  0  0  0
   -0.2043    0.7671   -0.2835 C   0  0  0  0  0  0  0  0  0  0  0  0
    1.3415   -2.6595    4.1319 C   0  0  0  0  0  0  0  0  0  0  0  0
    1.1736   -4.2976    1.7090 C   0  0  0  0  0  0  0  0  0  0  0  0
    1.0951   -1.2301   -0.7735 C   0  0  0  0  0  0  0  0  0  0  0  0
   -0.8540   -5.4072    2.3984 C   0  0  0  0  0  0  0  0  0  0  0  0
   -1.5382    1.0896    0.1916 C   0  0  0  0  0  0  0  0  0  0  0  0
    0.5054   -5.3826    2.1985 C   0  0  0  0  0  0  0  0  0  0  0  0
    0.9508    1.5638   -0.2268 C   0  0  0  0  0  0  0  0  0  0  0  0
    2.3091   -0.4575   -0.6056 C   0  0  0  0  0  0  0  0  0  0  0  0
    2.2219    0.9095   -0.2086 C   0  0  0  0  0  0  0  0  0  0  0  0
    0.0942   -7.1396    3.3238 C   0  0  0  0  0  0  0  0  0  0  0  0
   -3.8127   -3.3420    1.8448 C   0  0  0  0  0  0  0  0  0  0  0  0
    2.1902   -3.4284   -0.6582 C   0  0  0  0  0  0  0  0  0  0  0  0
    4.6980   -1.0912   -0.9443 C   0  0  0  0  0  0  0  0  0  0  0  0
    4.5219    1.2997    0.6160 C   0  0  0  0  0  0  0  0  0  0  0  0
    3.0081   -3.4357   -1.8911 C   0  0  0  0  0  0  0  0  0  0  0  0
    4.7508   -0.1964   -2.1655 C   0  0  0  0  0  0  0  0  0  0  0  0
    4.7887    0.3175    1.7675 C   0  0  0  0  0  0  0  0  0  0  0  0
  1 12  1  0
  1 24  1  0
  2 18  1  0
  2 30  1  0
  3 23  1  0
  3 29  1  0
  4 25  1  0
  4 29  1  0
  5 22  1  0
  5 31  1  0
  6 27  1  0
  6 32  1  0
  7 24  2  0
  8 28  1  0
  8 33  1  0
  9 11  1  0
  9 14  1  0
  9 20  1  0
 10 26  1  0
 11 12  1  0
 11 13  1  0
 12 17  1  0
 13 15  2  0
 13 18  1  0
 14 16  1  0
 15 16  1  0
 15 21  1  0
 17 19  2  0
 17 22  1  0
 18 23  2  0
 19 24  1  0
 19 26  1  0
 21 25  2  0
 22 27  2  0
 23 25  1  0
 26 28  2  0
 27 28  1  0
 31 34  1  0
 32 35  1  0
 33 36  1  0
M  END
>  <DRUGBANK_ID>  (1) 
DB13711

>  <COMMON_NAME>  (1) 
Tritoqualine

>  <CAS_NUMBER>  (1) 
14504-73-5

>  <UNII>  (1) 
F4MW5166YH

>  <SYNONYMS>  (1) 
Hypostamin; Hypostamine; Inhibostamin; Tritocualina; Tritoqualine; Tritoqualinum

$$$$
