
     RDKit          3D

 24 24  0  0  1  0  0  0  0  0999 V2000
   -0.7164    0.9458   -3.2689 P   0  0  0  0  0  0  0  0  0  0  0  0
    0.5856    0.3553   -2.4925 O   0  0  0  0  0  0  0  0  0  0  0  0
   -1.9919    0.7055   -2.3512 O   0  0  0  0  0  0  0  0  0  0  0  0
   -1.1187   -0.0046   -4.4924 O   0  0  0  0  0  0  0  0  0  0  0  0
   -0.6607    2.3863   -3.5998 O   0  0  0  0  0  0  0  0  0  0  0  0
    1.0210   -1.0125   -2.3601 C   0  0  1  0  0  0  0  0  0  0  0  0
    0.0496   -1.9533   -3.0256 C   0  0  1  0  0  0  0  0  0  0  0  0
    2.4432   -1.2777   -2.8996 C   0  0  2  0  0  0  0  0  0  0  0  0
    0.4059   -3.4401   -2.9580 C   0  0  2  0  0  0  0  0  0  0  0  0
   -1.2440   -1.6547   -2.4805 O   0  0  0  0  0  0  0  0  0  0  0  0
    2.8009   -2.8003   -2.7966 C   0  0  1  0  0  0  0  0  0  0  0  0
    3.3547   -0.5151   -2.1010 O   0  0  0  0  0  0  0  0  0  0  0  0
    1.7825   -3.6450   -3.5699 C   0  0  2  0  0  0  0  0  0  0  0  0
   -0.5819   -4.1441   -3.7120 O   0  0  0  0  0  0  0  0  0  0  0  0
   -1.1946   -2.1548   -0.8251 P   0  0  0  0  0  0  0  0  0  0  0  0
    4.0648   -3.0483   -3.3906 O   0  0  0  0  0  0  0  0  0  0  0  0
    1.7696   -3.1760   -4.9294 O   0  0  0  0  0  0  0  0  0  0  0  0
   -1.7993   -0.7030   -0.4341 O   0  0  0  0  0  0  0  0  0  0  0  0
   -2.6138   -2.8794   -1.1780 O   0  0  0  0  0  0  0  0  0  0  0  0
   -1.1505   -2.6024    0.6565 O   0  0  0  0  0  0  0  0  0  0  0  0
    4.9098   -4.3364   -2.9334 P   0  0  0  0  0  0  0  0  0  0  0  0
    5.9386   -4.3921   -4.1508 O   0  0  0  0  0  0  0  0  0  0  0  0
    5.7113   -3.6808   -1.7205 O   0  0  0  0  0  0  0  0  0  0  0  0
    4.1501   -5.5726   -2.6633 O   0  0  0  0  0  0  0  0  0  0  0  0
  1  2  1  0
  1  3  1  0
  1  4  1  0
  1  5  2  0
  6  7  1  0
  6  8  1  0
  6  2  1  6
  7  9  1  0
  7 10  1  1
  8 11  1  0
  8 12  1  1
  9 13  1  0
  9 14  1  6
 10 15  1  0
 11 13  1  0
 11 16  1  6
 13 17  1  6
 15 18  1  0
 15 19  1  0
 15 20  2  0
 16 21  1  0
 21 22  1  0
 21 23  1  0
 21 24  2  0
M  END
>  <DRUGBANK_ID>  (1) 
DB03401

>  <SECONDARY_ACCESSION_NUMBERS>  (1) 
EXPT01811

>  <COMMON_NAME>  (1) 
1D-myo-inositol 1,4,5-trisphosphate

>  <CAS_NUMBER>  (1) 
85166-31-0

>  <UNII>  (1) 
MU34XVK5NR

>  <SYNONYMS>  (1) 
1,4,5-Insp3; D-myo-Inositol 1,4,5-trisphosphate; D-myo-Inositol-1,4,5-triphosphate; Inositol 1,4,5-trisphosphate; Ins(1,4,5)P3; InsP3; IP3

$$$$
