
     RDKit          3D

  5  3  0  0  0  0  0  0  0  0999 V2000
    0.5648    0.9688    1.3533 K   0  0  0  0  0 15  0  0  0  0  0  0
    1.0842   -0.3023   -0.6455 O   0  0  0  0  0  0  0  0  0  0  0  0
    2.9087    0.6582    0.2065 O   0  0  0  0  0  0  0  0  0  0  0  0
    2.3261   -0.2388   -0.4627 C   0  0  0  0  0  0  0  0  0  0  0  0
    3.0839   -1.2536   -0.8156 O   0  0  0  0  0  0  0  0  0  0  0  0
  2  4  2  0
  3  4  1  0
  4  5  1  0
M  CHG  2   1   1   3  -1
M  END
>  <DRUGBANK_ID>  (1) 
DB11098

>  <COMMON_NAME>  (1) 
Potassium bicarbonate

>  <CAS_NUMBER>  (1) 
298-14-6

>  <UNII>  (1) 
HM5Z15LEBN

>  <SYNONYMS>  (1) 
Carbonic acid, monopotassium salt; Potassium bicarbonate; Potassium hydrogen carbonate

$$$$
