CIU
     RDKit          3D

 17 18  0  0  0  0  0  0  0  0999 V2000
   -1.4921    0.3393   -0.0836 C   0  0  0  0  0  0  0  0  0  0  0  0
   -1.1042   -1.0473    0.4617 C   0  0  0  0  0  0  0  0  0  0  0  0
    0.3118   -1.3479   -0.0009 C   0  0  0  0  0  0  0  0  0  0  0  0
    1.3264   -0.2875    0.4579 C   0  0  0  0  0  0  0  0  0  0  0  0
    0.9131    1.1162    0.0213 C   0  0  0  0  0  0  0  0  0  0  0  0
   -0.5256    1.4282    0.3900 C   0  0  0  0  0  0  0  0  0  0  0  0
    0.8028   -2.6962    0.2142 N   0  0  0  0  0  0  0  0  0  0  0  0
    1.1383   -3.6779   -0.6724 C   0  0  0  0  0  0  0  0  0  0  0  0
    1.4679   -4.7706   -0.2247 O   0  0  0  0  0  0  0  0  0  0  0  0
    1.0308   -3.5171   -2.0298 N   0  0  0  0  0  0  0  0  0  0  0  0
    0.9418   -2.3639   -2.8326 C   0  0  0  0  0  0  0  0  0  0  0  0
   -0.1106    2.0246   -4.6848 I   0  0  0  0  0  0  0  0  0  0  0  0
    1.7383   -1.2547   -2.5568 C   0  0  0  0  0  0  0  0  0  0  0  0
    1.4371   -0.0053   -3.1023 C   0  0  0  0  0  0  0  0  0  0  0  0
    0.3860    0.1280   -3.9969 C   0  0  0  0  0  0  0  0  0  0  0  0
   -0.3083   -1.0068   -4.4126 C   0  0  0  0  0  0  0  0  0  0  0  0
   -0.0206   -2.2628   -3.8414 C   0  0  0  0  0  0  0  0  0  0  0  0
  1  2  1  0
  1  6  1  0
  2  3  1  0
  3  4  1  0
  3  7  1  0
  4  5  1  0
  5  6  1  0
  7  8  1  0
  8  9  2  0
  8 10  1  0
 10 11  1  0
 11 13  2  0
 11 17  1  0
 12 15  1  0
 13 14  1  0
 14 15  2  0
 15 16  1  0
 16 17  2  0
M  END
>  <DRUGBANK_ID>  (1) 
DB02029

>  <SECONDARY_ACCESSION_NUMBERS>  (1) 
EXPT00923

>  <COMMON_NAME>  (1) 
N-Cyclohexyl-N'-(4-Iodophenyl)Urea

$$$$
