
     RDKit          3D

 25 27  0  0  0  0  0  0  0  0999 V2000
   -1.6000   -0.0804    0.1366 C   0  0  0  0  0  0  0  0  0  0  0  0
   -0.9513    1.1518    0.5788 C   0  0  0  0  0  0  0  0  0  0  0  0
    0.4195    1.1172    0.9009 C   0  0  0  0  0  0  0  0  0  0  0  0
    0.9865   -0.3661    0.7311 C   0  0  0  0  0  0  0  0  0  0  0  0
    0.3358   -1.4810    0.2621 C   0  0  0  0  0  0  0  0  0  0  0  0
   -0.9824   -1.3530    0.0125 C   0  0  0  0  0  0  0  0  0  0  0  0
   -1.9341   -3.1487   -0.3741 I   0  0  0  0  0  0  0  0  0  0  0  0
    2.2702   -0.8035    0.8265 F   0  0  0  0  0  0  0  0  0  0  0  0
    1.3476    2.6592    0.7929 N   0  0  0  0  0  0  0  0  0  0  0  0
    2.6672    3.2541   -0.2451 C   0  0  0  0  0  0  0  0  0  0  0  0
    3.2660    2.7315   -1.5922 C   0  0  0  0  0  0  0  0  0  0  0  0
    4.7808    2.6622   -1.5769 C   0  0  0  0  0  0  0  0  0  0  0  0
    5.5333    3.3882   -0.7269 C   0  0  0  0  0  0  0  0  0  0  0  0
    4.9503    3.9171    0.4847 C   0  0  0  0  0  0  0  0  0  0  0  0
    3.5839    3.7989    0.6421 N   0  0  0  0  0  0  0  0  0  0  0  0
    3.2740    4.0105    1.9585 C   0  0  0  0  0  0  0  0  0  0  0  0
    4.2688    4.5057    2.6175 N   0  0  0  0  0  0  0  0  0  0  0  0
    5.3095    4.4719    1.7108 C   0  0  0  0  0  0  0  0  0  0  0  0
    2.6404    1.5733   -2.8581 C   0  0  0  0  0  0  0  0  0  0  0  0
    3.4654    0.9222   -3.6125 O   0  0  0  0  0  0  0  0  0  0  0  0
    1.3397    1.0988   -3.0334 N   0  0  0  0  0  0  0  0  0  0  0  0
    0.3431    1.3009   -2.1151 O   0  0  0  0  0  0  0  0  0  0  0  0
    1.0369    1.9990   -1.2020 C   0  0  0  0  0  0  0  0  0  0  0  0
    2.5317    1.0553   -0.2549 C   0  0  0  0  0  0  0  0  0  0  0  0
    3.3475    0.1646   -0.9616 O   0  0  0  0  0  0  0  0  0  0  0  0
  1  2  2  0
  1  6  1  0
  2  3  1  0
  3  4  2  0
  3  9  1  0
  4  5  1  0
  4  8  1  0
  5  6  2  0
  6  7  1  0
  9 10  1  0
 10 11  2  0
 10 15  1  0
 11 12  1  0
 11 19  1  0
 12 13  2  0
 13 14  1  0
 14 15  1  0
 14 18  2  0
 15 16  1  0
 16 17  2  0
 17 18  1  0
 19 20  2  0
 19 21  1  0
 21 22  1  0
 22 23  1  0
 23 24  1  0
 24 25  1  0
M  END
>  <DRUGBANK_ID>  (1) 
DB11982

>  <COMMON_NAME>  (1) 
GDC-0623

>  <CAS_NUMBER>  (1) 
1168091-68-6

>  <UNII>  (1) 
HW67545I4Q

$$$$
