BN3
     RDKit          3D

 28 29  0  0  0  0  0  0  0  0999 V2000
    1.1954   -1.4708    0.0052 C   0  0  0  0  0  0  0  0  0  0  0  0
   -0.0150   -2.1847    0.0022 C   0  0  0  0  0  0  0  0  0  0  0  0
   -1.2498   -1.5142   -0.0003 C   0  0  0  0  0  0  0  0  0  0  0  0
   -1.2206   -0.0906   -0.0024 C   0  0  0  0  0  0  0  0  0  0  0  0
   -2.6111    0.9503    0.0002 Cl  0  0  0  0  0  0  0  0  0  0  0  0
   -0.0038    0.6114   -0.0028 C   0  0  0  0  0  0  0  0  0  0  0  0
    1.1961   -0.0799    0.0017 C   0  0  0  0  0  0  0  0  0  0  0  0
   -2.5807   -3.6718    0.0205 N   0  0  0  0  0  0  0  0  0  0  0  0
   -2.5599   -2.2674    0.0022 C   0  0  0  0  0  0  0  0  0  0  0  0
   -3.5788   -1.6092   -0.0319 O   0  0  0  0  0  0  0  0  0  0  0  0
   -3.7477   -5.7077   -0.1467 N   0  0  0  0  0  0  0  0  0  0  0  0
   -5.0095   -6.4029   -0.1603 C   0  0  0  0  0  0  0  0  0  0  0  0
   -5.2440   -7.3633    0.7979 C   0  0  0  0  0  0  0  0  0  0  0  0
   -6.5495   -7.8584    0.9056 C   0  0  0  0  0  0  0  0  0  0  0  0
   -7.5284   -7.7835   -0.0564 C   0  0  0  0  0  0  0  0  0  0  0  0
   -8.6146   -8.6157   -0.1116 O   0  0  0  0  0  0  0  0  0  0  0  0
   -8.7808   -9.7242    0.8202 C   0  0  0  0  0  0  0  0  0  0  0  0
   -7.8218  -10.9405    0.6688 C   0  0  0  0  0  0  0  0  0  0  0  0
   -6.3643  -10.7081    1.0766 C   0  0  0  0  0  0  0  0  0  0  0  0
   -7.3154   -6.8123   -1.0091 C   0  0  0  0  0  0  0  0  0  0  0  0
   -6.0880   -6.0942   -1.0330 C   0  0  0  0  0  0  0  0  0  0  0  0
   -3.8037   -4.3275    0.0727 C   0  0  0  0  0  0  0  0  0  0  0  0
   -4.8619   -3.7762    0.3276 O   0  0  0  0  0  0  0  0  0  0  0  0
    2.6835    0.7820    0.0035 Cl  0  0  0  0  0  0  0  0  0  0  0  0
   -5.9244   -4.9144   -2.2873 Cl  0  0  0  0  0  0  0  0  0  0  0  0
   -6.2339  -10.3337    2.5768 C   0  0  0  0  0  0  0  0  0  0  0  0
   -5.0423  -10.6295    3.1242 O   0  0  0  0  0  0  0  0  0  0  0  0
   -7.0715   -9.7534    3.2528 O   0  0  0  0  0  0  0  0  0  0  0  0
  1  2  2  0
  1  7  1  0
  2  3  1  0
  3  4  2  0
  3  9  1  0
  4  5  1  0
  4  6  1  0
  6  7  2  0
  7 24  1  0
  8  9  1  0
  8 22  1  0
  9 10  2  0
 11 12  1  0
 11 22  1  0
 12 13  2  0
 12 21  1  0
 13 14  1  0
 14 15  2  0
 15 16  1  0
 15 20  1  0
 16 17  1  0
 17 18  1  0
 18 19  1  0
 19 26  1  0
 20 21  2  0
 21 25  1  0
 22 23  2  0
 26 27  1  0
 26 28  2  0
M  END
>  <DRUGBANK_ID>  (1) 
DB04643

>  <COMMON_NAME>  (1) 
4-{3-CHLORO-4-[3-(2,4-DICHLORO-BENZOYL)-UREIDO]-PHENOXY}-BUTYRIC ACID

$$$$
