
     RDKit          3D

 11 10  0  0  1  0  0  0  0  0999 V2000
   -0.8577   -0.3629   -2.2624 C   0  0  0  0  0  0  0  0  0  0  0  0
    0.1306    0.4610   -1.3544 C   0  0  2  0  0  0  0  0  0  0  0  0
    0.8299   -0.0885   -0.0910 C   0  0  0  0  0  0  0  0  0  0  0  0
   -0.6277    1.6533   -0.8998 N   0  0  0  0  0  0  0  0  0  0  0  0
   -1.8776    0.1205   -2.7189 O   0  0  0  0  0  0  0  0  0  0  0  0
   -0.5168   -1.6199   -2.5994 O   0  0  0  0  0  0  0  0  0  0  0  0
   -0.0608   -0.8424    0.9089 C   0  0  0  0  0  0  0  0  0  0  0  0
   -0.6026   -2.1498    0.3388 C   0  0  0  0  0  0  0  0  0  0  0  0
    0.5200   -3.0780   -0.1553 C   0  0  0  0  0  0  0  0  0  0  0  0
    1.3135   -3.5790    0.9506 N   0  0  0  0  0  0  0  0  0  0  0  0
    2.4104   -4.3843    0.4319 C   0  0  0  0  0  0  0  0  0  0  0  0
  1  5  2  0
  1  6  1  0
  2  4  1  1
  2  3  1  0
  2  1  1  0
  3  7  1  0
  7  8  1  0
  8  9  1  0
  9 10  1  0
 10 11  1  0
M  END
>  <DRUGBANK_ID>  (1) 
DB01714

>  <SECONDARY_ACCESSION_NUMBERS>  (1) 
EXPT02190

>  <COMMON_NAME>  (1) 
Epsilon-N-methyllysine

>  <CAS_NUMBER>  (1) 
1188-07-4

>  <UNII>  (1) 
FCR6T2IYVU

>  <SYNONYMS>  (1) 
N-Epsilon-methyllysine; N(6)-Methyllysine

$$$$
