
     RDKit          3D

 11 11  0  0  1  0  0  0  0  0999 V2000
    0.9329    0.0194    0.0029 C   0  0  0  0  0  0  0  0  0  0  0  0
    0.8405    3.6103    2.6044 C   0  0  0  0  0  0  0  0  0  0  0  0
    1.3062    2.3007    2.4887 C   0  0  0  0  0  0  0  0  0  0  0  0
   -0.4749    3.8582    3.0011 C   0  0  0  0  0  0  0  0  0  0  0  0
    0.9178   -0.1998    2.5421 C   0  0  0  0  0  0  0  0  0  0  0  0
   -0.8487    1.4814    3.2050 C   0  0  0  0  0  0  0  0  0  0  0  0
    0.4257   -0.7906    1.1976 C   0  0  1  0  0  0  0  0  0  0  0  0
    0.4608    1.2207    2.7818 C   0  0  0  0  0  0  0  0  0  0  0  0
   -1.3125    2.7850    3.2898 C   0  0  0  0  0  0  0  0  0  0  0  0
   -1.0369   -0.9016    1.1158 N   0  0  0  0  0  0  0  0  0  0  0  0
   -2.6177    2.9621    3.6407 O   0  0  0  0  0  0  0  0  0  0  0  0
  3  2  2  0
  4  2  1  0
  7  1  1  6
  7  5  1  0
  7 10  1  0
  8  3  1  0
  8  5  1  0
  8  6  2  0
  9  4  2  0
  9  6  1  0
 11  9  1  0
M  END
>  <DRUGBANK_ID>  (1) 
DB13703

>  <COMMON_NAME>  (1) 
Gepefrine

>  <CAS_NUMBER>  (1) 
18840-47-6

>  <UNII>  (1) 
V51RRX51VH

>  <SYNONYMS>  (1) 
Gepefrine

$$$$
