
     RDKit          3D

 32 35  0  0  0  0  0  0  0  0999 V2000
    0.8359   -2.1275   -0.0084 C   0  0  0  0  0  0  0  0  0  0  0  0
   -0.1198   -0.9544   -0.0016 C   0  0  0  0  0  0  0  0  0  0  0  0
   -1.5228   -1.1820   -0.0023 C   0  0  0  0  0  0  0  0  0  0  0  0
   -2.3842   -0.0689   -0.0146 C   0  0  0  0  0  0  0  0  0  0  0  0
   -1.8818    1.2353   -0.0006 C   0  0  0  0  0  0  0  0  0  0  0  0
   -0.5044    1.4534    0.0007 C   0  0  0  0  0  0  0  0  0  0  0  0
    0.3779    0.3671   -0.0049 C   0  0  0  0  0  0  0  0  0  0  0  0
    1.7981    0.6012   -0.0056 C   0  0  0  0  0  0  0  0  0  0  0  0
    2.9523    0.6964    0.0017 N   0  0  0  0  0  0  0  0  0  0  0  0
   -2.0835   -2.5455    0.0491 C   0  0  0  0  0  0  0  0  0  0  0  0
   -2.8466   -2.9277   -0.9919 N   0  0  0  0  0  0  0  0  0  0  0  0
   -3.2896   -4.1899   -0.9856 C   0  0  0  0  0  0  0  0  0  0  0  0
   -4.0769   -4.5825   -2.0279 N   0  0  0  0  0  0  0  0  0  0  0  0
   -3.0359   -5.0872   -0.0293 N   0  0  0  0  0  0  0  0  0  0  0  0
   -2.2950   -4.6688    1.0138 C   0  0  0  0  0  0  0  0  0  0  0  0
   -1.8019   -3.3903    1.1025 C   0  0  0  0  0  0  0  0  0  0  0  0
   -2.0496   -5.6196    2.0814 C   0  0  0  0  0  0  0  0  0  0  0  0
   -2.2924   -5.4136    3.4253 C   0  0  0  0  0  0  0  0  0  0  0  0
   -1.9856   -6.6137    4.0046 N   0  0  0  0  0  0  0  0  0  0  0  0
   -2.1422   -7.0087    5.3977 C   0  0  0  0  0  0  0  0  0  0  0  0
   -3.0852   -8.1776    5.5524 C   0  0  0  0  0  0  0  0  0  0  0  0
   -4.2232   -7.9851    6.2692 N   0  0  0  0  0  0  0  0  0  0  0  0
   -5.0963   -9.0294    6.3791 C   0  0  0  0  0  0  0  0  0  0  0  0
   -4.8528  -10.2633    5.7792 C   0  0  0  0  0  0  0  0  0  0  0  0
   -3.6757  -10.4545    5.0769 C   0  0  0  0  0  0  0  0  0  0  0  0
   -2.7731   -9.4093    4.9807 C   0  0  0  0  0  0  0  0  0  0  0  0
   -6.3729   -8.8095    7.1880 C   0  0  0  0  0  0  0  0  0  0  0  0
   -6.0187   -8.4719    8.6369 C   0  0  0  0  0  0  0  0  0  0  0  0
   -7.1911   -7.6763    6.5691 C   0  0  0  0  0  0  0  0  0  0  0  0
   -7.1833   -9.9966    7.1936 O   0  0  0  0  0  0  0  0  0  0  0  0
   -1.4297   -7.4464    3.0992 N   0  0  0  0  0  0  0  0  0  0  0  0
   -1.5239   -6.8708    1.9067 N   0  0  0  0  0  0  0  0  0  0  0  0
  1  2  1  0
  2  3  2  0
  2  7  1  0
  3  4  1  0
  3 10  1  0
  4  5  2  0
  5  6  1  0
  6  7  2  0
  7  8  1  0
  8  9  3  0
 10 11  2  0
 10 16  1  0
 11 12  1  0
 12 13  1  0
 12 14  2  0
 14 15  1  0
 15 16  2  0
 15 17  1  0
 17 18  2  0
 17 32  1  0
 18 19  1  0
 19 20  1  0
 19 31  1  0
 20 21  1  0
 21 22  2  0
 21 26  1  0
 22 23  1  0
 23 24  2  0
 23 27  1  0
 24 25  1  0
 25 26  2  0
 27 28  1  0
 27 29  1  0
 27 30  1  0
 31 32  2  0
M  END
>  <DRUGBANK_ID>  (1) 
DB17506

>  <COMMON_NAME>  (1) 
Etrumadenant

>  <CAS_NUMBER>  (1) 
2239273-34-6

>  <UNII>  (1) 
W0ZE0NT8IF

$$$$
