
     RDKit          3D

 21 23  0  0  0  0  0  0  0  0999 V2000
    1.4177   -0.2440    0.0156 C   0  0  0  0  0  0  0  0  0  0  0  0
    0.5100   -1.3130    0.0190 C   0  0  0  0  0  0  0  0  0  0  0  0
   -0.8650   -1.0838   -0.0104 C   0  0  0  0  0  0  0  0  0  0  0  0
   -1.3391    0.2226   -0.0022 C   0  0  0  0  0  0  0  0  0  0  0  0
   -0.4275    1.2909    0.0197 C   0  0  0  0  0  0  0  0  0  0  0  0
    0.9703    1.0715   -0.0411 C   0  0  0  0  0  0  0  0  0  0  0  0
    2.0560    2.4754   -0.2593 S   0  0  0  0  0  0  0  0  0  0  0  0
    3.8000    2.0363   -0.3435 C   0  0  0  0  0  0  0  0  0  0  0  0
    4.4126    1.3369   -1.3847 C   0  0  0  0  0  0  0  0  0  0  0  0
    5.8343    1.4512   -1.5921 C   0  0  0  0  0  0  0  0  0  0  0  0
    6.5566    2.4313   -0.8056 C   0  0  0  0  0  0  0  0  0  0  0  0
    6.0614    2.4015    0.5033 C   0  0  0  0  0  0  0  0  0  0  0  0
    7.0992    1.7912    1.2655 N   0  0  0  0  0  0  0  0  0  0  0  0
    8.1736    1.7492    0.4514 C   0  0  0  0  0  0  0  0  0  0  0  0
    8.7697    0.7567   -0.3530 N   0  0  0  0  0  0  0  0  0  0  0  0
   10.0249    1.0111   -0.9053 C   0  0  0  0  0  0  0  0  0  0  0  0
   10.3579    0.2916   -2.0226 O   0  0  0  0  0  0  0  0  0  0  0  0
    9.3897   -0.5504   -2.6631 C   0  0  0  0  0  0  0  0  0  0  0  0
    4.6604    2.5285    0.6615 C   0  0  0  0  0  0  0  0  0  0  0  0
   10.8201    1.8716   -0.4839 O   0  0  0  0  0  0  0  0  0  0  0  0
    7.8526    2.7931   -0.3613 N   0  0  0  0  0  0  0  0  0  0  0  0
  1  2  2  0
  1  6  1  0
  2  3  1  0
  3  4  2  0
  4  5  1  0
  5  6  2  0
  6  7  1  0
  7  8  1  0
  8  9  2  0
  8 19  1  0
  9 10  1  0
 10 11  2  0
 11 12  1  0
 11 21  1  0
 12 13  1  0
 12 19  2  0
 13 14  2  0
 14 15  1  0
 14 21  1  0
 15 16  1  0
 16 17  1  0
 16 20  2  0
 17 18  1  0
M  END
>  <DRUGBANK_ID>  (1) 
DB11410

>  <COMMON_NAME>  (1) 
Fenbendazole

>  <CAS_NUMBER>  (1) 
43210-67-9

>  <UNII>  (1) 
621BVT9M36

>  <SYNONYMS>  (1) 
[5-(phenylthio)-1H-benzimidazol-2-yl]carbamic acid methyl ester; 2-(methoxycarbonylamino)-5-(phenylthio)benzimidazole; 5-(phenylthio)-2-benzimidazolecarbamic acid methyl ester; Fenbendazol; Fenbendazole; Fenbendazolum; Methyl [5-(phenylthio)-1H-benzimidazol-2-yl]carbamate; methyl 5-(phenylthio)-2-benzimidazolecarbamate

$$$$
