808
     RDKit          3D

 24 26  0  0  1  0  0  0  0  0999 V2000
   -2.1932   -0.3997    0.1241 Cl  0  0  0  0  0  0  0  0  0  0  0  0
   -0.7989    2.6804   -0.3434 S   0  0  0  0  0  0  0  0  0  0  0  0
    4.4700   -0.9716   -0.0321 O   0  0  0  0  0  0  0  0  0  0  0  0
   -0.8421    3.3841    0.9184 O   0  0  0  0  0  0  0  0  0  0  0  0
   -0.4091    3.3454   -1.5559 O   0  0  0  0  0  0  0  0  0  0  0  0
    4.1192    2.5349    0.1858 N   0  0  0  0  0  0  0  0  0  0  0  0
    4.5826    1.2700   -0.0919 N   0  0  0  0  0  0  0  0  0  0  0  0
   -2.4420    2.3895   -0.3969 N   0  0  0  0  0  0  0  0  0  0  0  0
    4.2678    3.6775   -0.7211 C   0  0  0  0  0  0  0  0  0  0  0  0
    3.1940    4.7238   -0.2517 C   0  0  0  0  0  0  0  0  0  0  0  0
    2.5909    4.0648    0.9724 C   0  0  0  0  0  0  0  0  0  0  0  0
    3.1886    2.8201    1.1894 C   0  0  0  0  0  0  0  0  0  0  0  0
    5.7116    4.1722   -0.6215 C   0  0  0  0  0  0  0  0  0  0  0  0
    1.4944    4.4229    1.7409 C   0  0  0  0  0  0  0  0  0  0  0  0
    2.6910    1.9198    2.1342 C   0  0  0  0  0  0  0  0  0  0  0  0
    0.9752    3.4923    2.6764 C   0  0  0  0  0  0  0  0  0  0  0  0
    1.5202    2.2179    2.8101 C   0  0  0  0  0  0  0  0  0  0  0  0
    3.8459    0.0886   -0.1509 C   0  0  0  0  0  0  0  0  0  0  0  0
    2.3281    0.0326   -0.2681 C   0  0  0  0  0  0  0  0  0  0  0  0
    1.4827    1.1475   -0.4695 C   0  0  0  0  0  0  0  0  0  0  0  0
    0.0840    1.1286   -0.2277 C   0  0  0  0  0  0  0  0  0  0  0  0
    1.7014   -1.1984   -0.0668 C   0  0  0  0  0  0  0  0  0  0  0  0
   -0.5047   -0.1109   -0.0341 C   0  0  0  0  0  0  0  0  0  0  0  0
    0.3022   -1.2654   -0.0062 C   0  0  0  0  0  0  0  0  0  0  0  0
  1 23  1  0
  2  4  2  0
  2  5  2  0
  2  8  1  0
  2 21  1  0
  3 18  2  0
  6  7  1  0
  6  9  1  0
  6 12  1  0
  7 18  1  0
  9 10  1  0
  9 13  1  0
 10 11  1  0
 11 12  2  0
 11 14  1  0
 12 15  1  0
 14 16  2  0
 15 17  2  0
 16 17  1  0
 18 19  1  0
 19 20  2  0
 19 22  1  0
 20 21  1  0
 21 23  2  0
 22 24  2  0
 23 24  1  0
M  END
>  <DRUGBANK_ID>  (1) 
DB00808

>  <SECONDARY_ACCESSION_NUMBERS>  (1) 
APRD01031

>  <COMMON_NAME>  (1) 
Indapamide

>  <CAS_NUMBER>  (1) 
26807-65-8

>  <UNII>  (1) 
F089I0511L

>  <SYNONYMS>  (1) 
Indapamid; Indapamida; Indapamide; Indapamidum; Metindamide

$$$$
