
     RDKit          3D

 14 14  0  0  1  0  0  0  0  0999 V2000
   -0.6502   -0.6525   -0.6837 C   0  0  0  0  0  0  0  0  0  0  0  0
   -1.1928   -2.0994   -0.5646 C   0  0  0  0  0  0  0  0  0  0  0  0
   -0.5018   -3.1969   -1.4633 C   0  0  1  0  0  0  0  0  0  0  0  0
    1.0461   -3.4173   -1.3332 C   0  0  0  0  0  0  0  0  0  0  0  0
    1.5505   -3.9540   -0.0837 O   0  0  0  0  0  0  0  0  0  0  0  0
    0.9843   -3.1312    1.3288 P   0  0  0  0  0  0  0  0  0  0  0  0
    1.1953   -1.7556    0.6430 O   0  0  0  0  0  0  0  0  0  0  0  0
   -0.2756   -4.1086    1.1422 O   0  0  0  0  0  0  0  0  0  0  0  0
    0.4775   -2.3948    2.5930 O   0  0  0  0  0  0  0  0  0  0  0  0
   -1.1234   -4.5545   -1.4000 N   0  0  0  0  0  0  0  0  0  0  0  0
    0.6206   -0.1520   -0.9737 C   0  0  0  0  0  0  0  0  0  0  0  0
    0.7209    1.0559   -0.3169 N   0  0  0  0  0  0  0  0  0  0  0  0
   -0.5664    1.4001   -0.0206 C   0  0  0  0  0  0  0  0  0  0  0  0
   -1.3804    0.3911   -0.1307 N   0  0  0  0  0  0  0  0  0  0  0  0
  1  2  1  0
  1 11  2  0
  1 14  1  0
  2  3  1  0
  3  4  1  0
  3 10  1  1
  4  5  1  0
  5  6  1  0
  6  7  1  0
  6  8  1  0
  6  9  2  0
 11 12  1  0
 12 13  1  0
 13 14  2  0
M  END
>  <DRUGBANK_ID>  (1) 
DB03997

>  <SECONDARY_ACCESSION_NUMBERS>  (1) 
EXPT01781

>  <COMMON_NAME>  (1) 
L-histidinol phosphate

>  <CAS_NUMBER>  (1) 
25679-93-0

>  <SYNONYMS>  (1) 
phosphoric acid mono-[2-amino-3-(3H-imidazol-4-yl)-propyl]ester

$$$$
