
     RDKit          3D

 35 37  0  0  0  0  0  0  0  0999 V2000
    4.2805   -6.3159    6.8475 N   0  0  0  0  0  0  0  0  0  0  0  0
    3.4068   -6.6592    5.8295 C   0  0  0  0  0  0  0  0  0  0  0  0
    2.0221   -6.2417    6.2520 C   0  0  1  0  0  0  0  0  0  0  0  0
    2.1801   -6.0171    7.7773 C   0  0  0  0  0  0  0  0  0  0  0  0
    3.6474   -5.6662    7.9568 C   0  0  0  0  0  0  0  0  0  0  0  0
    3.7036   -7.0694    4.7379 O   0  0  0  0  0  0  0  0  0  0  0  0
    1.7178   -4.8874    5.6345 C   0  0  0  0  0  0  0  0  0  0  0  0
    1.5742   -4.6526    4.1110 C   0  0  1  0  0  0  0  0  0  0  0  0
    0.4999   -5.6635    3.7445 C   0  0  0  0  0  0  0  0  0  0  0  0
   -0.3913   -6.5022    3.4405 N   0  0  0  0  0  0  0  0  0  0  0  0
    1.4094   -3.5149    3.2755 N   0  0  0  0  0  0  0  0  0  0  0  0
    2.2331   -2.8669    2.4031 C   0  0  0  0  0  0  0  0  0  0  0  0
    1.8809   -1.8102    1.8803 O   0  0  0  0  0  0  0  0  0  0  0  0
    4.2805   -3.7146    3.3862 N   0  0  0  0  0  0  0  0  0  0  0  0
    5.3128   -4.7188    3.0599 C   0  0  0  0  0  0  0  0  0  0  0  0
    4.7127   -5.5386    1.9278 C   0  0  1  0  0  0  0  0  0  0  0  0
    3.5639   -4.7286    1.3946 C   0  0  1  0  0  0  0  0  0  0  0  0
    3.5893   -3.4032    2.1538 C   0  0  1  0  0  0  0  0  0  0  0  0
    4.6348   -5.1877    0.4299 C   0  0  0  0  0  0  0  0  0  0  0  0
    5.5178   -4.1794   -0.2387 C   0  0  0  0  0  0  0  0  0  0  0  0
    4.2729   -6.2801   -0.5599 C   0  0  0  0  0  0  0  0  0  0  0  0
    4.0787   -3.2103    4.6732 C   0  0  0  0  0  0  0  0  0  0  0  0
    2.8268   -2.0796    5.1243 C   0  0  2  0  0  0  0  0  0  0  0  0
    4.7499   -3.7475    5.5683 O   0  0  0  0  0  0  0  0  0  0  0  0
    3.4363   -1.0013    6.0538 C   0  0  0  0  0  0  0  0  0  0  0  0
    1.4675   -2.4382    5.7793 N   0  0  0  0  0  0  0  0  0  0  0  0
    0.1174   -2.4037    5.4186 C   0  0  0  0  0  0  0  0  0  0  0  0
   -0.4897   -1.6660    4.1794 C   0  0  0  0  0  0  0  0  0  0  0  0
   -0.6408   -3.0525    6.1641 O   0  0  0  0  0  0  0  0  0  0  0  0
   -1.8476   -1.6137    4.2685 F   0  0  0  0  0  0  0  0  0  0  0  0
   -0.0186   -0.4054    4.0748 F   0  0  0  0  0  0  0  0  0  0  0  0
   -0.3339   -2.2487    2.9577 F   0  0  0  0  0  0  0  0  0  0  0  0
    2.3180   -0.3528    6.9043 C   0  0  0  0  0  0  0  0  0  0  0  0
    4.5146   -1.5133    7.0205 C   0  0  0  0  0  0  0  0  0  0  0  0
    4.0304    0.0301    5.0979 C   0  0  0  0  0  0  0  0  0  0  0  0
  1  2  1  0
  1  5  1  0
  2  3  1  0
  2  6  2  0
  3  4  1  0
  3  7  1  6
  4  5  1  0
  8  9  1  1
  8  7  1  0
  8 11  1  0
  9 10  3  0
 11 12  1  0
 12 13  2  0
 14 15  1  0
 14 18  1  0
 14 22  1  0
 16 15  1  1
 16 17  1  0
 16 19  1  0
 17 18  1  0
 17 19  1  6
 18 12  1  1
 19 20  1  0
 19 21  1  0
 22 24  2  0
 23 26  1  1
 23 25  1  0
 23 22  1  0
 25 33  1  0
 25 34  1  0
 25 35  1  0
 26 27  1  0
 27 29  2  0
 27 28  1  0
 28 31  1  0
 28 32  1  0
 28 30  1  0
M  END
>  <DRUGBANK_ID>  (1) 
DB16691

>  <COMMON_NAME>  (1) 
Nirmatrelvir

>  <CAS_NUMBER>  (1) 
2628280-40-8

>  <UNII>  (1) 
7R9A5P7H32

$$$$
