
     RDKit          3D

 38 41  0  0  1  0  0  0  0  0999 V2000
    0.4738   -6.4996   -0.8009 C   0  0  0  0  0  0  0  0  0  0  0  0
    1.2313   -6.0255    0.4555 C   0  0  0  0  0  0  0  0  0  0  0  0
    1.7457   -7.2701    1.2004 C   0  0  0  0  0  0  0  0  0  0  0  0
    2.2986   -5.1724   -0.2713 C   0  0  0  0  0  0  0  0  0  0  0  0
    2.2079   -3.9366   -0.5169 O   0  0  0  0  0  0  0  0  0  0  0  0
    3.4111   -5.8308   -0.6357 O   0  0  0  0  0  0  0  0  0  0  0  0
    0.2599   -5.4381    1.3592 O   0  0  0  0  0  0  0  0  0  0  0  0
    0.6418   -4.6848    2.4488 C   0  0  0  0  0  0  0  0  0  0  0  0
   -0.2303   -4.5729    3.5726 C   0  0  0  0  0  0  0  0  0  0  0  0
    0.0140   -3.6720    4.7471 C   0  0  0  0  0  0  0  0  0  0  0  0
    1.0393   -2.6510    4.6761 C   0  0  0  0  0  0  0  0  0  0  0  0
    1.7707   -2.7801    3.4505 C   0  0  0  0  0  0  0  0  0  0  0  0
    1.7427   -3.8625    2.5128 C   0  0  0  0  0  0  0  0  0  0  0  0
    3.4067   -4.3585    2.0561 Cl  0  0  0  0  0  0  0  0  0  0  0  0
    1.7643   -1.6220    5.9609 C   0  0  0  0  0  0  0  0  0  0  0  0
    1.3924   -1.6027    7.1085 O   0  0  0  0  0  0  0  0  0  0  0  0
    3.1921   -1.0211    5.7929 N   0  0  0  0  0  0  0  0  0  0  0  0
    4.4677   -1.1284    4.6994 C   0  0  0  0  0  0  0  0  0  0  0  0
   -0.7767   -4.0903    5.8246 O   0  0  0  0  0  0  0  0  0  0  0  0
   -0.3971   -3.6456    7.1329 C   0  0  0  0  0  0  0  0  0  0  0  0
    0.8060   -4.4250    7.7556 C   0  0  2  0  0  0  0  0  0  0  0  0
    1.4868   -5.4802    6.8411 C   0  0  0  0  0  0  0  0  0  0  0  0
    2.8655   -5.3636    6.4412 N   0  0  0  0  0  0  0  0  0  0  0  0
    3.7727   -5.0478    7.4992 C   0  0  0  0  0  0  0  0  0  0  0  0
    3.9771   -3.5562    7.9069 C   0  0  0  0  0  0  0  0  0  0  0  0
    4.9052   -3.2127    6.7808 C   0  0  0  0  0  0  0  0  0  0  0  0
    3.8709   -3.5231    5.4666 C   0  0  0  0  0  0  0  0  0  0  0  0
    3.2732   -4.8400    5.1910 C   0  0  0  0  0  0  0  0  0  0  0  0
    6.1829   -4.0467    7.3520 C   0  0  0  0  0  0  0  0  0  0  0  0
    7.2254   -3.0267    7.3336 C   0  0  0  0  0  0  0  0  0  0  0  0
    8.2836   -2.7273    8.1437 C   0  0  0  0  0  0  0  0  0  0  0  0
    9.0427   -1.6084    7.7882 C   0  0  0  0  0  0  0  0  0  0  0  0
    8.7483   -0.8565    6.6348 C   0  0  0  0  0  0  0  0  0  0  0  0
    7.5668   -1.0863    5.9660 C   0  0  0  0  0  0  0  0  0  0  0  0
    6.7641   -2.0390    6.5281 C   0  0  0  0  0  0  0  0  0  0  0  0
    5.4105   -1.8571    6.8317 O   0  0  0  0  0  0  0  0  0  0  0  0
   10.3386   -1.1161    8.7956 Cl  0  0  0  0  0  0  0  0  0  0  0  0
    0.4007   -5.1046    8.9701 O   0  0  0  0  0  0  0  0  0  0  0  0
  1  2  1  0
  2  3  1  0
  2  4  1  0
  2  7  1  0
  4  5  2  0
  4  6  1  0
  7  8  1  0
  8  9  2  0
  8 13  1  0
  9 10  1  0
 10 11  2  0
 10 19  1  0
 11 12  1  0
 11 15  1  0
 12 13  2  0
 13 14  1  0
 15 16  2  0
 15 17  1  0
 17 18  1  0
 19 20  1  0
 21 38  1  1
 21 22  1  0
 21 20  1  0
 22 23  1  0
 23 24  1  0
 23 28  1  0
 24 25  1  0
 25 26  1  0
 26 27  1  0
 26 29  1  0
 26 36  1  0
 27 28  1  0
 29 30  1  0
 30 31  1  0
 30 35  2  0
 31 32  2  0
 32 33  1  0
 32 37  1  0
 33 34  2  0
 34 35  1  0
 35 36  1  0
M  END
>  <DRUGBANK_ID>  (1) 
DB12002

>  <COMMON_NAME>  (1) 
AZD-4818

>  <CAS_NUMBER>  (1) 
1003566-93-5

>  <UNII>  (1) 
S5UP6P540K

$$$$
