
     RDKit          3D

 17 17  0  0  0  0  0  0  0  0999 V2000
    1.2678    0.0493   -0.1211 C   0  0  0  0  0  0  0  0  0  0  0  0
    0.6264    1.0400   -1.1083 C   0  0  0  0  0  0  0  0  0  0  0  0
    1.0905    0.6331   -2.5028 C   0  0  0  0  0  0  0  0  0  0  0  0
   -0.9247    1.1246   -1.1214 C   0  0  0  0  0  0  0  0  0  0  0  0
   -1.4865    1.5159    0.1862 N   0  0  0  0  0  0  0  0  0  0  0  0
   -2.9448    1.3014    0.2573 C   0  0  0  0  0  0  0  0  0  0  0  0
   -3.4563   -0.1470    0.0119 C   0  0  0  0  0  0  0  0  0  0  0  0
   -3.0982   -1.0901    1.0764 O   0  0  0  0  0  0  0  0  0  0  0  0
   -1.7919   -1.4156    1.1218 C   0  0  0  0  0  0  0  0  0  0  0  0
   -0.9720   -1.0544    0.2955 O   0  0  0  0  0  0  0  0  0  0  0  0
   -1.2349   -2.2738    2.1541 C   0  0  0  0  0  0  0  0  0  0  0  0
   -1.7018   -3.5744    2.2235 C   0  0  0  0  0  0  0  0  0  0  0  0
   -1.0165   -4.4861    3.0170 C   0  0  0  0  0  0  0  0  0  0  0  0
    0.1385   -4.1025    3.7144 C   0  0  0  0  0  0  0  0  0  0  0  0
    0.6607   -2.8146    3.5991 C   0  0  0  0  0  0  0  0  0  0  0  0
    1.8035   -2.4510    4.2881 N   0  0  0  0  0  0  0  0  0  0  0  0
   -0.0311   -1.9037    2.8028 C   0  0  0  0  0  0  0  0  0  0  0  0
  1  2  1  0
  2  3  1  0
  2  4  1  0
  4  5  1  0
  5  6  1  0
  6  7  1  0
  7  8  1  0
  8  9  1  0
  9 10  2  0
  9 11  1  0
 11 12  2  0
 11 17  1  0
 12 13  1  0
 13 14  2  0
 14 15  1  0
 15 16  1  0
 15 17  2  0
M  END
>  <DRUGBANK_ID>  (1) 
DB13578

>  <COMMON_NAME>  (1) 
Metabutethamine

>  <CAS_NUMBER>  (1) 
4439-25-2

>  <UNII>  (1) 
PSJ9VIF3RV

$$$$
