HBY
     RDKit          3D

 22 23  0  0  0  0  0  0  0  0999 V2000
   -2.4242    0.7077   -0.3295 C   0  0  2  0  0  0  0  0  0  0  0  0
   -2.3027   -0.5858    0.4661 C   0  0  0  0  0  0  0  0  0  0  0  0
    0.0157   -0.6511   -0.0356 C   0  0  0  0  0  0  0  0  0  0  0  0
    0.0342    0.7641    0.0326 C   0  0  0  0  0  0  0  0  0  0  0  0
    1.2863    1.3891    0.0569 C   0  0  0  0  0  0  0  0  0  0  0  0
    2.4769    0.6546    0.0200 C   0  0  0  0  0  0  0  0  0  0  0  0
    2.4267   -0.7345   -0.0567 C   0  0  0  0  0  0  0  0  0  0  0  0
    1.1967   -1.3916   -0.0948 C   0  0  0  0  0  0  0  0  0  0  0  0
   -1.2857    2.8267    0.5066 C   0  0  0  0  0  0  0  0  0  0  0  0
   -2.6110    4.8139    0.9174 C   0  0  0  0  0  0  0  0  0  0  0  0
   -2.2258    5.0051    2.3895 C   0  0  0  0  0  0  0  0  0  0  0  0
   -1.8241    5.7702    0.0146 C   0  0  0  0  0  0  0  0  0  0  0  0
   -2.4160    0.3747   -1.8559 C   0  0  0  0  0  0  0  0  0  0  0  0
   -3.7707   -2.1800   -1.6946 C   0  0  0  0  0  0  0  0  0  0  0  0
    4.8524    0.7099    0.0187 C   0  0  0  0  0  0  0  0  0  0  0  0
   -1.2243    1.5002    0.0624 N   0  0  0  0  0  0  0  0  0  0  0  0
   -1.2110   -1.3421    0.0780 N   0  0  0  0  0  0  0  0  0  0  0  0
   -0.3064    3.4488    0.9227 O   0  0  0  0  0  0  0  0  0  0  0  0
   -2.5205    3.4198    0.4701 O   0  0  0  0  0  0  0  0  0  0  0  0
    3.6166    1.4118    0.0550 O   0  0  0  0  0  0  0  0  0  0  0  0
   -3.3265   -1.0413    1.7070 S   0  0  0  0  0  0  0  0  0  0  0  0
   -3.8640   -0.5630   -2.5310 S   0  0  0  0  0  0  0  0  0  0  0  0
  1  2  1  0
  1 13  1  6
  1 16  1  0
  2 17  1  0
  2 21  2  0
  3  4  2  0
  3  8  1  0
  3 17  1  0
  4  5  1  0
  4 16  1  0
  5  6  2  0
  6  7  1  0
  6 20  1  0
  7  8  2  0
  9 16  1  0
  9 18  2  0
  9 19  1  0
 10 11  1  0
 10 12  1  0
 10 19  1  0
 13 22  1  0
 14 22  1  0
 15 20  1  0
M  END
>  <DRUGBANK_ID>  (1) 
DB07885

>  <SECONDARY_ACCESSION_NUMBERS>  (1) 
DB13079

>  <COMMON_NAME>  (1) 
Talviraline

>  <CAS_NUMBER>  (1) 
163451-80-7

>  <UNII>  (1) 
XZ4KT6MO4X

>  <SYNONYMS>  (1) 
Isopropyl (2S)-3,4-dihydro-7-methoxy-2-((methylthio)methyl)-3-thioxo-1(2H)-quinoxalinecarboxylate; Talviraline

$$$$
