
     RDKit          3D

 28 31  0  0  0  0  0  0  0  0999 V2000
    1.4715    0.8134   -0.0866 O   0  0  0  0  0  0  0  0  0  0  0  0
   -1.2706   -1.0657    0.0903 O   0  0  0  0  0  0  0  0  0  0  0  0
    1.9342   -2.0892   -1.4721 O   0  0  0  0  0  0  0  0  0  0  0  0
   -0.8501    1.5972    1.7945 O   0  0  0  0  0  0  0  0  0  0  0  0
    5.3689    2.7867   -3.0421 N   0  0  0  0  0  0  0  0  0  0  0  0
    5.0256    1.9471   -0.9384 N   0  0  0  0  0  0  0  0  0  0  0  0
    1.5155   -2.2248    6.5633 N   0  0  0  0  0  0  0  0  0  0  0  0
    2.9564   -2.5685    4.8049 N   0  0  0  0  0  0  0  0  0  0  0  0
   -0.1503   -0.7796   -0.7843 C   0  0  1  0  0  0  0  0  0  0  0  0
    0.1426    0.7051   -0.5549 C   0  0  1  0  0  0  0  0  0  0  0  0
    1.1439   -1.5254   -0.4336 C   0  0  2  0  0  0  0  0  0  0  0  0
   -0.9789    1.2478    0.3775 C   0  0  1  0  0  0  0  0  0  0  0  0
    1.9250   -0.4970    0.2867 C   0  0  0  0  0  0  0  0  0  0  0  0
   -2.0268    0.1632    0.1895 C   0  0  0  0  0  0  0  0  0  0  0  0
    2.5701   -1.1929   -2.2827 C   0  0  0  0  0  0  0  0  0  0  0  0
   -0.2625    0.7758    2.7071 C   0  0  0  0  0  0  0  0  0  0  0  0
    3.5106   -0.2213   -1.9011 C   0  0  0  0  0  0  0  0  0  0  0  0
    1.0821    0.5380    2.6479 C   0  0  0  0  0  0  0  0  0  0  0  0
   -0.8190    0.4140    3.9148 C   0  0  0  0  0  0  0  0  0  0  0  0
    2.2540   -1.3347   -3.6107 C   0  0  0  0  0  0  0  0  0  0  0  0
    3.9728    0.7489   -2.7731 C   0  0  0  0  0  0  0  0  0  0  0  0
    1.7301   -0.4893    3.3585 C   0  0  0  0  0  0  0  0  0  0  0  0
   -0.0740   -0.3784    4.8389 C   0  0  0  0  0  0  0  0  0  0  0  0
    2.8423   -0.4789   -4.5289 C   0  0  0  0  0  0  0  0  0  0  0  0
    1.1462   -0.9733    4.4855 C   0  0  0  0  0  0  0  0  0  0  0  0
    3.6440    0.5968   -4.1116 C   0  0  0  0  0  0  0  0  0  0  0  0
    4.8194    1.8635   -2.2156 C   0  0  0  0  0  0  0  0  0  0  0  0
    1.9074   -1.9624    5.3071 C   0  0  0  0  0  0  0  0  0  0  0  0
 10  1  1  1
  1 13  1  0
  9  2  1  1
  2 14  1  0
  3 15  1  0
  4 16  1  0
  5 27  1  0
  6 27  2  0
  7 28  1  0
  8 28  2  0
  9 10  1  0
  9 11  1  0
 10 12  1  0
 11  3  1  6
 11 13  1  0
 12  4  1  1
 12 14  1  0
 15 17  2  0
 15 20  1  0
 16 18  2  0
 16 19  1  0
 17 21  1  0
 18 22  1  0
 19 23  2  0
 20 24  2  0
 21 26  2  0
 21 27  1  0
 22 25  2  0
 23 25  1  0
 24 26  1  0
 25 28  1  0
M  END
>  <DRUGBANK_ID>  (1) 
DB04793

>  <COMMON_NAME>  (1) 
1,4:3,6-Dianhydro-2-O-(3-carbamimidoylphenyl)-5-O-(4-carbamimidoylphenyl)-D-glucitol

$$$$
