
     RDKit          3D

 13 13  0  0  0  0  0  0  0  0999 V2000
    0.8219   -0.1955    0.2841 O   0  0  0  0  0  0  0  0  0  0  0  0
    0.5601   -0.9393   -0.8983 C   0  0  0  0  0  0  0  0  0  0  0  0
    1.1741   -0.3727   -2.1869 C   0  0  0  0  0  0  0  0  0  0  0  0
    2.6197   -0.4217   -2.1869 O   0  0  0  0  0  0  0  0  0  0  0  0
    3.2501    0.4812   -1.3992 C   0  0  0  0  0  0  0  0  0  0  0  0
    2.7093    1.2567   -0.6189 O   0  0  0  0  0  0  0  0  0  0  0  0
    4.7096    0.3529   -1.4227 C   0  0  0  0  0  0  0  0  0  0  0  0
    5.3939    0.2932   -0.1967 C   0  0  0  0  0  0  0  0  0  0  0  0
    6.7875    0.3189   -0.1756 C   0  0  0  0  0  0  0  0  0  0  0  0
    7.4919    0.4250   -1.3750 C   0  0  0  0  0  0  0  0  0  0  0  0
    6.8088    0.4930   -2.5961 C   0  0  0  0  0  0  0  0  0  0  0  0
    5.4153    0.4528   -2.6187 C   0  0  0  0  0  0  0  0  0  0  0  0
    4.7302    0.5665   -3.7939 O   0  0  0  0  0  0  0  0  0  0  0  0
  1  2  1  0
  2  3  1  0
  3  4  1  0
  4  5  1  0
  5  6  2  0
  5  7  1  0
  7  8  2  0
  7 12  1  0
  8  9  1  0
  9 10  2  0
 10 11  1  0
 11 12  2  0
 12 13  1  0
M  END
>  <DRUGBANK_ID>  (1) 
DB11323

>  <COMMON_NAME>  (1) 
Glycol salicylate

>  <CAS_NUMBER>  (1) 
87-28-5

>  <UNII>  (1) 
3I1VBB7AXH

>  <SYNONYMS>  (1) 
2-hydroxybenzoic acid 2-hydroxyethyl ester; 2-hydroxyethyl 2-oxidanylbenzoate; 2-hydroxyethyl salicylate; Ethylene glycol monosalicylate; Ethylene glycol salicylate; Glycol salicylate

$$$$
