426
     RDKit          3D

 28 31  0  0  0  0  0  0  0  0999 V2000
    0.8938    0.0751   -0.0035 N   0  0  0  0  0  0  0  0  0  0  0  0
    0.2676   -0.6510   -0.8668 C   0  0  0  0  0  0  0  0  0  0  0  0
    0.9414   -1.4458   -1.7496 N   0  0  0  0  0  0  0  0  0  0  0  0
   -1.2183   -0.6222   -0.8670 C   0  0  0  0  0  0  0  0  0  0  0  0
   -1.9179   -1.8028   -1.0741 C   0  0  0  0  0  0  0  0  0  0  0  0
   -3.3112   -1.7689   -1.1277 C   0  0  0  0  0  0  0  0  0  0  0  0
   -3.9787   -2.9131   -1.4938 C   0  0  0  0  0  0  0  0  0  0  0  0
   -5.3342   -2.8314   -1.7694 C   0  0  0  0  0  0  0  0  0  0  0  0
   -6.1358   -1.7628   -1.3672 C   0  0  0  0  0  0  0  0  0  0  0  0
   -5.4629   -0.5984   -0.9813 C   0  0  0  0  0  0  0  0  0  0  0  0
   -4.0452   -0.5751   -0.9121 C   0  0  0  0  0  0  0  0  0  0  0  0
   -3.3166    0.5922   -0.6542 C   0  0  0  0  0  0  0  0  0  0  0  0
   -1.9140    0.5712   -0.6474 C   0  0  0  0  0  0  0  0  0  0  0  0
   -7.6493   -1.8338   -1.3655 C   0  0  0  0  0  0  0  0  0  0  0  0
   -8.2927   -0.7881   -1.1839 O   0  0  0  0  0  0  0  0  0  0  0  0
   -8.3587   -3.0100   -1.6102 N   0  0  0  0  0  0  0  0  0  0  0  0
   -7.8927   -4.3382   -1.5940 C   0  0  0  0  0  0  0  0  0  0  0  0
   -6.9904   -4.7309   -0.5966 C   0  0  0  0  0  0  0  0  0  0  0  0
   -6.2108   -5.8555   -0.7789 C   0  0  0  0  0  0  0  0  0  0  0  0
   -6.4628   -6.6722   -1.8593 C   0  0  0  0  0  0  0  0  0  0  0  0
   -7.5328   -6.4431   -2.7235 C   0  0  0  0  0  0  0  0  0  0  0  0
   -7.9425   -7.3616   -3.6513 O   0  0  0  0  0  0  0  0  0  0  0  0
   -7.6086   -8.7463   -3.4488 C   0  0  0  0  0  0  0  0  0  0  0  0
   -7.7913   -9.3401   -2.0389 C   0  0  0  0  0  0  0  0  0  0  0  0
   -6.8957  -10.5735   -2.0056 C   0  0  0  0  0  0  0  0  0  0  0  0
   -5.9781  -10.5016   -3.2286 C   0  0  0  0  0  0  0  0  0  0  0  0
   -6.1876   -9.1360   -3.8690 C   0  0  0  0  0  0  0  0  0  0  0  0
   -8.2104   -5.2185   -2.6424 C   0  0  0  0  0  0  0  0  0  0  0  0
  1  2  2  0
  2  3  1  0
  2  4  1  0
  4  5  2  0
  4 13  1  0
  5  6  1  0
  6  7  2  0
  6 11  1  0
  7  8  1  0
  8  9  2  0
  9 10  1  0
  9 14  1  0
 10 11  2  0
 11 12  1  0
 12 13  2  0
 14 15  2  0
 14 16  1  0
 16 17  1  0
 17 18  2  0
 17 28  1  0
 18 19  1  0
 19 20  2  0
 20 21  1  0
 21 22  1  0
 21 28  2  0
 22 23  1  0
 23 24  1  0
 23 27  1  0
 24 25  1  0
 25 26  1  0
 26 27  1  0
M  END
>  <DRUGBANK_ID>  (1) 
DB07076

>  <COMMON_NAME>  (1) 
6-[(Z)-AMINO(IMINO)METHYL]-N-[3-(CYCLOPENTYLOXY)PHENYL]-2-NAPHTHAMIDE

$$$$
