
     RDKit          3D

 22 23  0  0  0  0  0  0  0  0999 V2000
    1.2692    0.0164    0.1385 C   0  0  0  0  0  0  0  0  0  0  0  0
    0.7027    2.3832   -0.4940 N   0  0  0  0  0  0  0  0  0  0  0  0
    0.6856   -0.7374    0.9034 O   0  0  0  0  0  0  0  0  0  0  0  0
    0.5290    0.9492   -0.8065 C   0  0  1  0  0  0  0  0  0  0  0  0
    2.6206    0.0229    0.0606 N   0  0  0  0  0  0  0  0  0  0  0  0
   -5.7851    2.5606   -1.0266 O   0  0  0  0  0  0  0  0  0  0  0  0
   -0.1340    3.2630   -1.3393 C   0  0  0  0  0  0  0  0  0  0  0  0
   -4.4580    2.8312   -1.1814 C   0  0  0  0  0  0  0  0  0  0  0  0
   -1.6421    3.0927   -1.2335 C   0  0  0  0  0  0  0  0  0  0  0  0
   -5.7169    3.9220    1.5530 C   0  0  0  0  0  0  0  0  0  0  0  0
   -5.3845    4.7282    2.6331 C   0  0  0  0  0  0  0  0  0  0  0  0
   -6.6335    3.6813   -0.8208 C   0  0  0  0  0  0  0  0  0  0  0  0
   -6.3123    4.4934    0.4163 C   0  0  0  0  0  0  0  0  0  0  0  0
   -4.7375    4.1998    3.6804 F   0  0  0  0  0  0  0  0  0  0  0  0
   -3.6793    1.7071   -1.2394 C   0  0  0  0  0  0  0  0  0  0  0  0
   -3.8437    4.0880   -1.2229 C   0  0  0  0  0  0  0  0  0  0  0  0
   -2.3077    1.8533   -1.2994 C   0  0  0  0  0  0  0  0  0  0  0  0
   -2.4529    4.2242   -1.2119 C   0  0  0  0  0  0  0  0  0  0  0  0
   -6.2389    6.6674    1.4907 C   0  0  0  0  0  0  0  0  0  0  0  0
   -5.6907    6.0836    2.6309 C   0  0  0  0  0  0  0  0  0  0  0  0
   -6.5468    5.8761    0.3872 C   0  0  0  0  0  0  0  0  0  0  0  0
    0.7539    0.6138   -2.2820 C   0  0  0  0  0  0  0  0  0  0  0  0
  2  4  1  0
  3  1  2  0
  4  1  1  0
  4 22  1  6
  5  1  1  0
  6  8  1  0
  7  2  1  0
  8 16  1  0
  8 15  2  0
  9  7  1  0
 10 13  2  0
 11 10  1  0
 12  6  1  0
 13 12  1  0
 14 11  1  0
 15 17  1  0
 16 18  2  0
 17  9  2  0
 18  9  1  0
 19 21  2  0
 20 19  1  0
 20 11  2  0
 21 13  1  0
M  END
>  <DRUGBANK_ID>  (1) 
DB06654

>  <COMMON_NAME>  (1) 
Safinamide

>  <CAS_NUMBER>  (1) 
133865-89-1

>  <UNII>  (1) 
90ENL74SIG

>  <SYNONYMS>  (1) 
Safinamida; Safinamide

$$$$
