1069
     RDKit          3D

 20 22  0  0  1  0  0  0  0  0999 V2000
    0.0479    1.6962    0.1337 S   0  0  0  0  0  0  0  0  0  0  0  0
    0.0521   -1.3249    0.6105 N   0  0  0  0  0  0  0  0  0  0  0  0
   -2.2666   -1.2201    3.1777 N   0  0  0  0  0  0  0  0  0  0  0  0
   -0.8075   -1.5721    3.2081 C   0  0  0  0  0  0  0  0  0  0  0  0
   -0.1150   -2.1807    1.8563 C   0  0  0  0  0  0  0  0  0  0  0  0
    1.3283   -0.7623    0.3562 C   0  0  0  0  0  0  0  0  0  0  0  0
   -1.0366   -0.8884   -0.1952 C   0  0  0  0  0  0  0  0  0  0  0  0
   -0.6434   -2.6316    4.3261 C   0  0  0  0  0  0  0  0  0  0  0  0
    1.4521    0.6064    0.0572 C   0  0  0  0  0  0  0  0  0  0  0  0
   -1.1907    0.5183   -0.4355 C   0  0  0  0  0  0  0  0  0  0  0  0
   -2.9013   -0.7272    4.3892 C   0  0  0  0  0  0  0  0  0  0  0  0
   -2.4643   -0.1172    2.2761 C   0  0  0  0  0  0  0  0  0  0  0  0
    2.4187   -1.6047    0.1235 C   0  0  0  0  0  0  0  0  0  0  0  0
   -2.1353   -1.7307   -0.4752 C   0  0  0  0  0  0  0  0  0  0  0  0
    2.6471    1.1326   -0.4505 C   0  0  0  0  0  0  0  0  0  0  0  0
   -2.4364    1.0560   -0.7959 C   0  0  0  0  0  0  0  0  0  0  0  0
    3.5963   -1.0848   -0.4389 C   0  0  0  0  0  0  0  0  0  0  0  0
   -3.3793   -1.1711   -0.8259 C   0  0  0  0  0  0  0  0  0  0  0  0
    3.7012    0.2715   -0.7187 C   0  0  0  0  0  0  0  0  0  0  0  0
   -3.5316    0.2116   -0.9713 C   0  0  0  0  0  0  0  0  0  0  0  0
  1  9  1  0
  1 10  1  0
  2  5  1  0
  2  6  1  0
  2  7  1  0
  3  4  1  0
  3 11  1  0
  3 12  1  0
  4  5  1  0
  4  8  1  0
  6  9  2  0
  6 13  1  0
  7 10  2  0
  7 14  1  0
  9 15  1  0
 10 16  1  0
 13 17  2  0
 14 18  2  0
 15 19  2  0
 16 20  2  0
 17 19  1  0
 18 20  1  0
M  END
>  <DRUGBANK_ID>  (1) 
DB01069

>  <SECONDARY_ACCESSION_NUMBERS>  (1) 
APRD00601

>  <COMMON_NAME>  (1) 
Promethazine

>  <CAS_NUMBER>  (1) 
60-87-7

>  <UNII>  (1) 
FF28EJQ494

>  <SYNONYMS>  (1) 
(2-dimethylamino-2-methyl)ethyl-N-dibenzoparathiazine; 10-(2-Dimethylaminopropyl)phenothiazine; 10-[2-(dimethylamino)propyl]phenothiazine; N-(2'-dimethylamino-2'-methyl)ethylphenothiazine; N,N,alpha-trimethyl-10H-phenothiazine-10-ethanamine; N,N,Î±-trimethyl-10H-phenothiazine-10-ethanamine; Proazamine; Prometazina; Promethazine; Promethazinum

$$$$
