BTO
     RDKit          3D

 20 21  0  0  0  0  0  0  0  0999 V2000
    1.3896   -0.2028   -0.0129 C   0  0  0  0  0  0  0  0  0  0  0  0
    0.8841    1.0967   -0.0186 C   0  0  0  0  0  0  0  0  0  0  0  0
   -0.5030    1.3001    0.0380 C   0  0  0  0  0  0  0  0  0  0  0  0
   -1.3905    0.2222   -0.0297 C   0  0  0  0  0  0  0  0  0  0  0  0
   -0.8715   -1.0734   -0.0296 C   0  0  0  0  0  0  0  0  0  0  0  0
    0.5132   -1.2846   -0.0016 C   0  0  0  0  0  0  0  0  0  0  0  0
   -1.0266    2.6430    0.3116 N   0  0  0  0  0  0  0  0  0  0  0  0
   -0.2090    3.5662    0.4316 O   0  0  0  0  0  0  0  0  0  0  0  0
   -2.2515    2.7655    0.4546 O   0  0  0  0  0  0  0  0  0  0  0  0
   -1.7491   -2.2117    0.0540 C   0  0  0  0  0  0  0  0  0  0  0  0
   -1.6827   -3.0675    1.1244 N   0  0  0  0  0  0  0  0  0  0  0  0
   -2.6007   -3.9520    0.8272 C   0  0  0  0  0  0  0  0  0  0  0  0
   -3.0634   -5.1091    1.6310 C   0  0  0  0  0  0  0  0  0  0  0  0
   -4.5623   -5.0617    1.9481 C   0  0  0  0  0  0  0  0  0  0  0  0
   -5.4771   -5.0945    0.7197 C   0  0  0  0  0  0  0  0  0  0  0  0
   -5.3243   -6.3500   -0.1013 C   0  0  0  0  0  0  0  0  0  0  0  0
   -6.2045   -7.1699   -0.3228 O   0  0  0  0  0  0  0  0  0  0  0  0
   -4.0886   -6.5249   -0.6025 O   0  0  0  0  0  0  0  0  0  0  0  0
   -3.1881   -3.7246   -0.3853 O   0  0  0  0  0  0  0  0  0  0  0  0
   -2.6617   -2.5301   -0.8710 N   0  0  0  0  0  0  0  0  0  0  0  0
  1  6  2  0
  1  2  1  0
  2  3  2  0
  3  4  1  0
  3  7  1  0
  4  5  2  0
  5 10  1  0
  5  6  1  0
  7  8  1  0
  7  9  2  0
 10 11  1  0
 10 20  2  0
 11 12  2  0
 12 13  1  0
 12 19  1  0
 13 14  1  0
 14 15  1  0
 15 16  1  0
 16 17  2  0
 16 18  1  0
 19 20  1  0
M  CHG  2   7   1   8  -1
M  END
>  <DRUGBANK_ID>  (1) 
DB07498

>  <COMMON_NAME>  (1) 
4-[3-(3-NITROPHENYL)-1,2,4-OXADIAZOL-5-YL]BUTANOIC ACID

$$$$
