4822
     RDKit          3D

 21 24  0  0  0  0  0  0  0  0999 V2000
    0.0126   -1.8839    0.0002 S   0  0  0  0  0  0  0  0  0  0  0  0
   -0.5437    5.5919   -0.5486 N   0  0  0  0  0  0  0  0  0  0  0  0
    0.0069    2.6727   -0.2185 C   0  0  0  0  0  0  0  0  0  0  0  0
    1.0632    3.7487    0.0570 C   0  0  0  0  0  0  0  0  0  0  0  0
   -1.0499    3.2401   -1.1471 C   0  0  0  0  0  0  0  0  0  0  0  0
    0.5021    5.1430    0.3841 C   0  0  0  0  0  0  0  0  0  0  0  0
   -1.5926    4.5588   -0.5980 C   0  0  0  0  0  0  0  0  0  0  0  0
    0.0261    1.3345    0.0900 C   0  0  0  0  0  0  0  0  0  0  0  0
   -1.3040    0.5922    0.1379 C   0  0  0  0  0  0  0  0  0  0  0  0
    1.3560    0.6078    0.1201 C   0  0  0  0  0  0  0  0  0  0  0  0
    0.0088    5.8225   -1.8899 C   0  0  0  0  0  0  0  0  0  0  0  0
   -1.3806   -0.8008    0.0357 C   0  0  0  0  0  0  0  0  0  0  0  0
    1.4097   -0.7967    0.0930 C   0  0  0  0  0  0  0  0  0  0  0  0
   -2.5381    1.2600    0.3332 C   0  0  0  0  0  0  0  0  0  0  0  0
    2.6072    1.2481    0.0065 C   0  0  0  0  0  0  0  0  0  0  0  0
   -2.6348   -1.4430   -0.0103 C   0  0  0  0  0  0  0  0  0  0  0  0
    2.6515   -1.4656    0.0466 C   0  0  0  0  0  0  0  0  0  0  0  0
    3.8331    0.5963    0.0023 C   0  0  0  0  0  0  0  0  0  0  0  0
   -3.7762    0.6445    0.1585 C   0  0  0  0  0  0  0  0  0  0  0  0
   -3.8254   -0.7251    0.0006 C   0  0  0  0  0  0  0  0  0  0  0  0
    3.8571   -0.7772    0.0294 C   0  0  0  0  0  0  0  0  0  0  0  0
  1 12  1  0
  1 13  1  0
  2  6  1  0
  2  7  1  0
  2 11  1  0
  3  4  1  0
  3  5  1  0
  3  8  2  3
  4  6  1  0
  5  7  1  0
  8  9  1  0
  8 10  1  0
  9 12  2  0
  9 14  1  0
 10 13  2  0
 10 15  1  0
 12 16  1  0
 13 17  1  0
 14 19  2  0
 15 18  2  0
 16 20  2  0
 17 21  2  0
 18 21  1  0
 19 20  1  0
M  END
>  <DRUGBANK_ID>  (1) 
DB13292

>  <COMMON_NAME>  (1) 
Pimethixene

>  <CAS_NUMBER>  (1) 
314-03-4

>  <UNII>  (1) 
T46J20J26F

>  <SYNONYMS>  (1) 
Pimethixene

$$$$
