NGH
     RDKit          3D

 21 21  0  0  0  0  0  0  0  0999 V2000
    1.3797   -0.2087    0.1452 C   0  0  0  0  0  0  0  0  0  0  0  0
    0.5224   -1.3022    0.0663 C   0  0  0  0  0  0  0  0  0  0  0  0
   -0.8615   -1.1217    0.0152 C   0  0  0  0  0  0  0  0  0  0  0  0
   -1.3856    0.1723    0.0167 C   0  0  0  0  0  0  0  0  0  0  0  0
   -0.5305    1.2695    0.0694 C   0  0  0  0  0  0  0  0  0  0  0  0
    0.8550    1.0712    0.0845 C   0  0  0  0  0  0  0  0  0  0  0  0
   -1.7782   -2.1374   -0.0064 O   0  0  0  0  0  0  0  0  0  0  0  0
   -1.2401   -3.4539    0.0868 C   0  0  0  0  0  0  0  0  0  0  0  0
    1.8319    2.4950   -0.2337 S   0  0  0  0  0  0  0  0  0  0  0  0
    1.2206    3.0706   -1.4213 O   0  0  0  0  0  0  0  0  0  0  0  0
    1.8940    3.2755    0.9749 O   0  0  0  0  0  0  0  0  0  0  0  0
    3.4574    2.0416   -0.5906 N   0  0  0  0  0  0  0  0  0  0  0  0
    3.7833    0.9962   -1.6568 C   0  0  0  0  0  0  0  0  0  0  0  0
    4.2932    3.3171   -0.6796 C   0  0  0  0  0  0  0  0  0  0  0  0
    3.7428    4.3128   -1.7704 C   0  0  0  0  0  0  0  0  0  0  0  0
    4.0667    5.6425   -1.7447 N   0  0  0  0  0  0  0  0  0  0  0  0
    3.5952    6.2431   -2.9810 O   0  0  0  0  0  0  0  0  0  0  0  0
    3.0823    3.9867   -2.7624 O   0  0  0  0  0  0  0  0  0  0  0  0
    3.5836    1.4548   -3.0931 C   0  0  0  0  0  0  0  0  0  0  0  0
    4.7682    2.3099   -3.5687 C   0  0  0  0  0  0  0  0  0  0  0  0
    3.4663    0.3852   -4.1541 C   0  0  0  0  0  0  0  0  0  0  0  0
  1  2  2  0
  1  6  1  0
  2  3  1  0
  3  4  2  0
  3  7  1  0
  4  5  1  0
  5  6  2  0
  6  9  1  0
  7  8  1  0
  9 10  2  0
  9 11  2  0
  9 12  1  0
 12 13  1  0
 12 14  1  0
 13 19  1  0
 14 15  1  0
 15 16  1  0
 15 18  2  0
 16 17  1  0
 19 20  1  0
 19 21  1  0
M  END
>  <DRUGBANK_ID>  (1) 
DB08271

>  <COMMON_NAME>  (1) 
N-ISOBUTYL-N-[4-METHOXYPHENYLSULFONYL]GLYCYL HYDROXAMIC ACID

>  <UNII>  (1) 
9P3H27MP46

$$$$
