LIH
     RDKit          3D

 25 28  0  0  0  0  0  0  0  0999 V2000
    0.0364    0.8227   -0.0103 C   0  0  0  0  0  0  0  0  0  0  0  0
    1.3262    1.4018   -0.0055 C   0  0  0  0  0  0  0  0  0  0  0  0
    2.3345   -0.6377    0.0188 C   0  0  0  0  0  0  0  0  0  0  0  0
    0.0516   -0.5775    0.0038 C   0  0  0  0  0  0  0  0  0  0  0  0
   -1.2517    1.4807   -0.0304 C   0  0  0  0  0  0  0  0  0  0  0  0
   -2.4339    0.7137   -0.0218 C   0  0  0  0  0  0  0  0  0  0  0  0
   -2.2842   -0.6597   -0.0074 C   0  0  0  0  0  0  0  0  0  0  0  0
   -1.4566    2.9687   -0.0356 C   0  0  0  0  0  0  0  0  0  0  0  0
   -5.8137    0.4850   -1.0941 C   0  0  0  0  0  0  0  0  0  0  0  0
   -6.7434    0.9570   -0.1599 C   0  0  0  0  0  0  0  0  0  0  0  0
   -7.9900    0.3603   -0.0357 C   0  0  0  0  0  0  0  0  0  0  0  0
   -8.3088   -0.7360   -0.8359 C   0  0  0  0  0  0  0  0  0  0  0  0
   -3.8051    1.3541    0.0217 C   0  0  0  0  0  0  0  0  0  0  0  0
   -5.2479   -1.2013   -2.8163 C   0  0  0  0  0  0  0  0  0  0  0  0
   -6.1483   -0.6352   -1.8934 C   0  0  0  0  0  0  0  0  0  0  0  0
   -7.4121   -1.2520   -1.7636 C   0  0  0  0  0  0  0  0  0  0  0  0
   -6.8738   -2.8221   -3.3785 C   0  0  0  0  0  0  0  0  0  0  0  0
   -5.6114   -2.3037   -3.5723 C   0  0  0  0  0  0  0  0  0  0  0  0
    2.4544    0.6796    0.0237 N   0  0  0  0  0  0  0  0  0  0  0  0
    1.1806   -1.2905    0.0121 N   0  0  0  0  0  0  0  0  0  0  0  0
   -1.0841   -1.2901    0.0022 N   0  0  0  0  0  0  0  0  0  0  0  0
   -7.7697   -2.3239   -2.4962 N   0  0  0  0  0  0  0  0  0  0  0  0
   -4.5519    1.0543   -1.1717 N   0  0  0  0  0  0  0  0  0  0  0  0
    1.5821    2.7588   -0.1746 N   0  0  0  0  0  0  0  0  0  0  0  0
    3.5043   -1.3526    0.0109 N   0  0  0  0  0  0  0  0  0  0  0  0
  1  2  2  0
  1  4  1  0
  1  5  1  0
  2 19  1  0
  2 24  1  0
  3 19  2  0
  3 20  1  0
  3 25  1  0
  4 20  2  0
  4 21  1  0
  5  6  2  0
  5  8  1  0
  6  7  1  0
  6 13  1  0
  7 21  2  0
  9 10  2  0
  9 15  1  0
  9 23  1  0
 10 11  1  0
 11 12  2  0
 12 16  1  0
 13 23  1  0
 14 15  2  0
 14 18  1  0
 15 16  1  0
 16 22  2  0
 17 18  2  0
 17 22  1  0
M  END
>  <DRUGBANK_ID>  (1) 
DB03351

>  <SECONDARY_ACCESSION_NUMBERS>  (1) 
EXPT02031

>  <COMMON_NAME>  (1) 
Sri-9439

$$$$
