CHD
     RDKit          3D

 29 32  0  0  0  0  0  0  0  0999 V2000
   -2.4737    1.5628    0.9887 C   0  0  0  0  0  0  0  0  0  0  0  0
   -3.0894    1.5670   -0.4047 C   0  0  0  0  0  0  0  0  0  0  0  0
   -3.8600    0.2774   -0.6561 C   0  0  1  0  0  0  0  0  0  0  0  0
   -4.3536    0.2740   -1.9926 O   0  0  0  0  0  0  0  0  0  0  0  0
   -2.9658   -0.9366   -0.4579 C   0  0  0  0  0  0  0  0  0  0  0  0
   -2.2573   -0.9636    0.9106 C   0  0  1  0  0  0  0  0  0  0  0  0
   -1.3428   -2.2005    1.0327 C   0  0  0  0  0  0  0  0  0  0  0  0
   -0.0245   -2.1032    0.2734 C   0  0  1  0  0  0  0  0  0  0  0  0
   -0.2118   -2.3227   -1.1185 O   0  0  0  0  0  0  0  0  0  0  0  0
    0.6964   -0.7838    0.5593 C   0  0  2  0  0  0  0  0  0  0  0  0
   -0.2130    0.4683    0.3726 C   0  0  1  0  0  0  0  0  0  0  0  0
   -1.5111    0.3690    1.2441 C   0  0  1  0  0  0  0  0  0  0  0  0
    0.5672    1.7925    0.5827 C   0  0  0  0  0  0  0  0  0  0  0  0
    1.9019    1.8538   -0.1701 C   0  0  2  0  0  0  0  0  0  0  0  0
    1.6514    2.0427   -1.5720 O   0  0  0  0  0  0  0  0  0  0  0  0
    2.7803    0.5995    0.1250 C   0  0  1  0  0  0  0  0  0  0  0  0
    1.9389   -0.6245   -0.3123 C   0  0  1  0  0  0  0  0  0  0  0  0
    2.9281   -1.7703   -0.3301 C   0  0  0  0  0  0  0  0  0  0  0  0
    4.1674   -1.1413   -0.9554 C   0  0  0  0  0  0  0  0  0  0  0  0
    4.0313    0.4157   -0.7842 C   0  0  2  0  0  0  0  0  0  0  0  0
    3.1578    0.4739    1.6428 C   0  0  0  0  0  0  0  0  0  0  0  0
   -1.1675    0.3990    2.7583 C   0  0  0  0  0  0  0  0  0  0  0  0
    5.3412    1.1760   -0.3841 C   0  0  2  0  0  0  0  0  0  0  0  0
    6.3941    0.2192    0.1876 C   0  0  0  0  0  0  0  0  0  0  0  0
    5.1987    2.4206    0.5378 C   0  0  0  0  0  0  0  0  0  0  0  0
    5.4196    3.7703   -0.1138 C   0  0  0  0  0  0  0  0  0  0  0  0
    3.4467    4.9535   -0.8759 O   0  0  0  0  0  0  0  0  0  0  0  0
    4.2933    4.1055   -1.0604 C   0  0  0  0  0  0  0  0  0  0  0  0
    4.2495    3.2853   -2.1287 O   0  0  0  0  0  0  0  0  0  0  0  0
  1  2  1  0
  1 12  1  0
  2  3  1  0
  3  4  1  6
  3  5  1  0
  6  5  1  6
  6  7  1  0
  6 12  1  0
  7  8  1  0
  8  9  1  6
 10  8  1  6
 10 11  1  0
 10 17  1  0
 11 12  1  0
 11 13  1  1
 12 22  1  1
 13 14  1  0
 14 15  1  6
 14 16  1  0
 16 17  1  0
 16 20  1  0
 16 21  1  1
 17 18  1  1
 18 19  1  0
 20 19  1  1
 20 23  1  0
 23 25  1  0
 23 24  1  1
 25 26  1  0
 26 28  1  0
 27 28  2  0
 28 29  1  0
M  END
>  <DRUGBANK_ID>  (1) 
DB02659

>  <SECONDARY_ACCESSION_NUMBERS>  (1) 
EXPT00906

>  <COMMON_NAME>  (1) 
Cholic Acid

>  <CAS_NUMBER>  (1) 
81-25-4

>  <UNII>  (1) 
G1JO7801AE

>  <SYNONYMS>  (1) 
Cholic Acid

$$$$
