477
     RDKit          3D

 21 23  0  0  0  0  0  0  0  0999 V2000
    1.2945    1.0219   -0.2693 Cl  0  0  0  0  0  0  0  0  0  0  0  0
    7.4775    0.3270   -0.0528 S   0  0  0  0  0  0  0  0  0  0  0  0
    5.5669   -2.2444    0.0678 N   0  0  0  0  0  0  0  0  0  0  0  0
    1.7340   -3.0924   -0.0833 N   0  0  0  0  0  0  0  0  0  0  0  0
    4.7961   -3.5614    0.0968 C   0  0  0  0  0  0  0  0  0  0  0  0
    3.8069   -3.8465    1.2154 C   0  0  0  0  0  0  0  0  0  0  0  0
    2.5707   -3.0044    1.1861 C   0  0  0  0  0  0  0  0  0  0  0  0
    5.0135   -0.9108   -0.0250 C   0  0  0  0  0  0  0  0  0  0  0  0
    6.9959   -2.4754   -0.0360 C   0  0  0  0  0  0  0  0  0  0  0  0
    5.7304    0.2674   -0.0474 C   0  0  0  0  0  0  0  0  0  0  0  0
    7.8880   -1.3888   -0.0657 C   0  0  0  0  0  0  0  0  0  0  0  0
    3.6517   -0.5858   -0.1143 C   0  0  0  0  0  0  0  0  0  0  0  0
    7.6076   -3.7618   -0.0908 C   0  0  0  0  0  0  0  0  0  0  0  0
    5.1242    1.5756   -0.0692 C   0  0  0  0  0  0  0  0  0  0  0  0
    9.2725   -1.5802   -0.0899 C   0  0  0  0  0  0  0  0  0  0  0  0
    0.7251   -2.0422    0.0478 C   0  0  0  0  0  0  0  0  0  0  0  0
    2.3255   -2.9825   -1.4728 C   0  0  0  0  0  0  0  0  0  0  0  0
    2.9971    0.6871   -0.1436 C   0  0  0  0  0  0  0  0  0  0  0  0
    8.9939   -3.9420   -0.0965 C   0  0  0  0  0  0  0  0  0  0  0  0
    3.7549    1.7741   -0.0875 C   0  0  0  0  0  0  0  0  0  0  0  0
    9.8260   -2.8450   -0.0897 C   0  0  0  0  0  0  0  0  0  0  0  0
  1 18  1  0
  2 10  1  0
  2 11  1  0
  3  5  1  0
  3  8  1  0
  3  9  1  0
  4  7  1  0
  4 16  1  0
  4 17  1  0
  5  6  1  0
  6  7  1  0
  8 10  2  0
  8 12  1  0
  9 11  2  0
  9 13  1  0
 10 14  1  0
 11 15  1  0
 12 18  2  0
 13 19  2  0
 14 20  2  0
 15 21  2  0
 18 20  1  0
 19 21  1  0
M  END
>  <DRUGBANK_ID>  (1) 
DB00477

>  <SECONDARY_ACCESSION_NUMBERS>  (1) 
APRD00482

>  <COMMON_NAME>  (1) 
Chlorpromazine

>  <CAS_NUMBER>  (1) 
50-53-3

>  <UNII>  (1) 
U42B7VYA4P

>  <SYNONYMS>  (1) 
3-(2-chloro-10H-phenothiazin-10-yl)-N,N-dimethyl-1-propanamine; 3-(2-chlorophenothiazin-10-yl)-N,N-dimethyl-propan-1-amine; Chlorpromazine; Chlorpromazinum; Clorpromazina; CPZ; N-(3-dimethylaminopropyl)-3-chlorophenothiazine

$$$$
