
     RDKit          3D

 22 23  0  0  0  0  0  0  0  0999 V2000
   -0.0865    1.9810    0.0075 C   0  0  0  0  0  0  0  0  0  0  0  0
    1.2579    1.4260    0.0049 C   0  0  0  0  0  0  0  0  0  0  0  0
   -1.1722    1.0623    0.0244 C   0  0  0  0  0  0  0  0  0  0  0  0
   -0.2501    3.5123    0.0154 C   0  0  0  0  0  0  0  0  0  0  0  0
    1.4375    0.0174    0.0084 C   0  0  0  0  0  0  0  0  0  0  0  0
    2.2867    2.3405    0.0076 O   0  0  0  0  0  0  0  0  0  0  0  0
   -0.9378   -0.3249    0.0193 C   0  0  0  0  0  0  0  0  0  0  0  0
   -2.5069    1.3565    0.1182 O   0  0  0  0  0  0  0  0  0  0  0  0
   -1.4967    4.0976    0.0075 N   0  0  0  0  0  0  0  0  0  0  0  0
    0.7304    4.2687    0.0175 O   0  0  0  0  0  0  0  0  0  0  0  0
    0.3427   -0.8355    0.0158 C   0  0  0  0  0  0  0  0  0  0  0  0
    2.9303   -0.8710   -0.0038 Cl  0  0  0  0  0  0  0  0  0  0  0  0
    3.6460    1.9356    0.0202 C   0  0  0  0  0  0  0  0  0  0  0  0
   -2.2342   -1.4761    0.0097 Cl  0  0  0  0  0  0  0  0  0  0  0  0
   -1.7451    5.5369   -0.0129 C   0  0  0  0  0  0  0  0  0  0  0  0
   -2.6600    5.8957   -1.2075 C   0  0  1  0  0  0  0  0  0  0  0  0
   -3.9606    5.1624   -1.3010 N   0  0  0  0  0  0  0  0  0  0  0  0
   -3.0371    7.3695   -1.3148 C   0  0  0  0  0  0  0  0  0  0  0  0
   -4.7926    5.9601   -2.2335 C   0  0  0  0  0  0  0  0  0  0  0  0
   -4.6652    4.9594   -0.0199 C   0  0  0  0  0  0  0  0  0  0  0  0
   -4.1787    7.3576   -2.3186 C   0  0  0  0  0  0  0  0  0  0  0  0
   -4.9760    6.2164    0.7826 C   0  0  0  0  0  0  0  0  0  0  0  0
  1  2  2  0
  1  3  1  0
  1  4  1  0
  2  5  1  0
  2  6  1  0
  3  7  2  0
  3  8  1  0
  4  9  1  0
  4 10  2  0
  5 11  2  0
  5 12  1  0
  6 13  1  0
  7 14  1  0
  7 11  1  0
  9 15  1  0
 16 15  1  1
 16 17  1  0
 16 18  1  0
 17 19  1  0
 17 20  1  0
 18 21  1  0
 19 21  1  0
 20 22  1  0
M  END
>  <DRUGBANK_ID>  (1) 
DB12518

>  <COMMON_NAME>  (1) 
Raclopride

>  <CAS_NUMBER>  (1) 
84225-95-6

>  <UNII>  (1) 
430K3SOZ7G

>  <SYNONYMS>  (1) 
Racloprida; Raclopride; Raclopridum

$$$$
