
     RDKit          3D

 40 46  0  0  1  0  0  0  0  0999 V2000
   -7.3934    8.4481    3.5937 C   0  0  2  0  0  0  0  0  0  0  0  0
   -6.0090    8.5622    2.9617 C   0  0  0  0  0  0  0  0  0  0  0  0
   -5.2786    8.5515    4.2729 C   0  0  0  0  0  0  0  0  0  0  0  0
   -4.3175    9.2539    4.5502 O   0  0  0  0  0  0  0  0  0  0  0  0
   -5.8948    7.6197    5.1230 O   0  0  0  0  0  0  0  0  0  0  0  0
   -7.2999    7.4826    4.7603 C   0  0  2  0  0  0  0  0  0  0  0  0
   -8.1541    6.0386    4.6189 C   0  0  0  0  0  0  0  0  0  0  0  0
   -9.2225    5.7146    3.8955 C   0  0  0  0  0  0  0  0  0  0  0  0
   -8.8002    6.8758    2.5498 C   0  0  1  0  0  0  0  0  0  0  0  0
   -9.0164    6.0018    1.4078 C   0  0  0  0  0  0  0  0  0  0  0  0
   -8.5707    8.2182    2.8810 O   0  0  0  0  0  0  0  0  0  0  0  0
   -9.4596    3.7030    4.1197 C   0  0  0  0  0  0  0  0  0  0  0  0
   -9.3259    3.0493    5.1260 O   0  0  0  0  0  0  0  0  0  0  0  0
   -8.9490    2.8406    2.9233 C   0  0  0  0  0  0  0  0  0  0  0  0
   -9.3957    3.9557    2.5506 C   0  0  0  0  0  0  0  0  0  0  0  0
   -7.8874    4.7414    3.7646 C   0  0  0  0  0  0  0  0  0  0  0  0
   -6.9973    4.1794    4.3961 O   0  0  0  0  0  0  0  0  0  0  0  0
  -10.0154    3.4954    1.0252 C   0  0  0  0  0  0  0  0  0  0  0  0
  -11.0772    4.3069    0.4431 O   0  0  0  0  0  0  0  0  0  0  0  0
   -9.5787    2.4333   -0.0526 C   0  0  0  0  0  0  0  0  0  0  0  0
   -9.7961    1.9340   -1.5704 C   0  0  1  0  0  0  0  0  0  0  0  0
   -8.7124    2.3258   -2.7127 C   0  0  0  0  0  0  0  0  0  0  0  0
   -7.3263    1.8711   -2.2819 C   0  0  1  0  0  0  0  0  0  0  0  0
   -6.3746    3.0261   -2.3634 O   0  0  0  0  0  0  0  0  0  0  0  0
   -6.6653    4.0301   -1.4104 C   0  0  1  0  0  0  0  0  0  0  0  0
   -6.2926    3.3786   -0.1400 C   0  0  0  0  0  0  0  0  0  0  0  0
   -6.9790    4.0774    0.8914 C   0  0  0  0  0  0  0  0  0  0  0  0
   -6.2160    5.3033    1.0520 C   0  0  2  0  0  0  0  0  0  0  0  0
   -6.3885    6.0252    2.2173 O   0  0  0  0  0  0  0  0  0  0  0  0
   -6.5666    6.1108   -0.2845 C   0  0  2  0  0  0  0  0  0  0  0  0
   -8.1523    6.5520   -0.9613 C   0  0  0  0  0  0  0  0  0  0  0  0
   -5.9861    5.3042   -1.3524 O   0  0  0  0  0  0  0  0  0  0  0  0
   -7.4911    1.0118   -0.8971 C   0  0  2  0  0  0  0  0  0  0  0  0
   -6.1402    0.6996   -0.4691 O   0  0  0  0  0  0  0  0  0  0  0  0
   -8.4004   -0.1731   -1.0174 C   0  0  1  0  0  0  0  0  0  0  0  0
   -8.1180   -0.7838    0.4130 C   0  0  0  0  0  0  0  0  0  0  0  0
   -9.7176    0.3865   -1.4568 O   0  0  0  0  0  0  0  0  0  0  0  0
   -8.5002    1.7466    0.4194 C   0  0  0  0  0  0  0  0  0  0  0  0
   -8.2055    1.9113    1.9118 C   0  0  0  0  0  0  0  0  0  0  0  0
   -6.8608    1.5473    2.1957 O   0  0  0  0  0  0  0  0  0  0  0  0
  1  2  1  6
  1  6  1  0
  1 11  1  0
  2  3  1  0
  3  5  1  0
  3  4  2  0
  6  5  1  6
  6  7  1  0
  7  8  2  0
  7 16  1  0
  8 12  1  0
  9  8  1  0
  9 11  1  0
  9 10  1  6
 12 14  1  0
 12 13  2  0
 14 15  2  0
 14 39  1  0
 15 16  1  0
 15 18  1  0
 16 17  2  0
 18 20  2  0
 18 19  1  0
 20 38  1  0
 21 20  1  0
 21 22  1  6
 21 37  1  0
 23 22  1  0
 23 24  1  1
 25 26  1  0
 25 32  1  0
 25 24  1  6
 26 27  1  0
 28 27  1  0
 28 29  1  1
 28 30  1  0
 30 31  1  6
 30 32  1  0
 33 23  1  0
 33 35  1  0
 33 38  1  0
 33 34  1  1
 35 37  1  0
 35 36  1  1
 38 39  2  0
 39 40  1  0
M  END
>  <DRUGBANK_ID>  (1) 
DB17273

>  <COMMON_NAME>  (1) 
Granaticin B

>  <CAS_NUMBER>  (1) 
19879-03-9

>  <UNII>  (1) 
JS606MEA30

>  <SYNONYMS>  (1) 
8,11-ethanofuro(2,3-e)naphtho(2,3-c:6,7-c')dipyran-2,6,13(9h)-trione, 3,3a,5,8,11,13b-hexahydro-7,8,12-trihydroxy-5,9-dimethyl-15-(((2s,5s,6s)-tetrahydro-5-hydroxy-6-methyl-2h-pyran-2-yl)oxy)-, (3as,5s,8s,9r,11r,13bs,15r)-

$$$$
