
     RDKit          3D

 35 37  0  0  1  0  0  0  0  0999 V2000
    1.1309   -0.5104   -0.5772 C   0  0  0  0  0  0  0  0  0  0  0  0
    0.5878   -0.3323    1.5559 C   0  0  0  0  0  0  0  0  0  0  0  0
    0.0757    1.5195    3.8713 C   0  0  0  0  0  0  0  0  0  0  0  0
   -0.0419    1.0302    0.0814 C   0  0  2  0  0  0  0  0  0  0  0  0
    1.9007    0.9379    0.6616 C   0  0  1  0  0  0  0  0  0  0  0  0
   -0.7223    2.2698    2.8226 C   0  0  2  0  0  0  0  0  0  0  0  0
    1.3566    2.1078   -0.8056 C   0  0  2  0  0  0  0  0  0  0  0  0
    2.1117    3.5836   -1.4977 C   0  0  1  0  0  0  0  0  0  0  0  0
   -0.0491    3.2748   -1.9381 C   0  0  2  0  0  0  0  0  0  0  0  0
   -0.8130    4.6153    1.8411 C   0  0  1  0  0  0  0  0  0  0  0  0
    0.4073    4.6528   -0.4725 C   0  0  2  0  0  0  0  0  0  0  0  0
    3.2298    3.5669   -0.5214 C   0  0  2  0  0  0  0  0  0  0  0  0
   -2.1483    4.1275    0.6319 C   0  0  2  0  0  0  0  0  0  0  0  0
   -0.7543    1.5160   -1.4240 C   0  0  2  0  0  0  0  0  0  0  0  0
    0.2273    3.5613    2.8755 C   0  0  2  0  0  0  0  0  0  0  0  0
    1.2332    3.8727    0.9244 C   0  0  0  0  0  0  0  0  0  0  0  0
    3.1489    2.7209    1.2192 C   0  0  2  0  0  0  0  0  0  0  0  0
   -2.4475    2.5595    0.6920 C   0  0  2  0  0  0  0  0  0  0  0  0
    0.6913    2.3592    1.1757 N   0  0  0  0  0  0  0  0  0  0  0  0
    2.1039    4.8511    1.9929 N   0  0  0  0  0  0  0  0  0  0  0  0
    0.7290   -0.9125   -1.8078 O   0  0  0  0  0  0  0  0  0  0  0  0
    1.1700   -1.0957    2.5382 O   0  0  0  0  0  0  0  0  0  0  0  0
   -0.5116    0.2850    4.1200 O   0  0  0  0  0  0  0  0  0  0  0  0
   -0.2193    2.8306   -0.1719 O   0  0  0  0  0  0  0  0  0  0  0  0
    1.8392    4.3214   -2.9564 O   0  0  0  0  0  0  0  0  0  0  0  0
    0.9367    2.5299   -3.0775 O   0  0  0  0  0  0  0  0  0  0  0  0
   -0.0272    5.9210    1.7492 O   0  0  0  0  0  0  0  0  0  0  0  0
   -0.4748    5.7626   -0.4907 O   0  0  0  0  0  0  0  0  0  0  0  0
    3.7228    4.8758   -0.6077 O   0  0  0  0  0  0  0  0  0  0  0  0
   -2.4672    4.6631   -0.7295 O   0  0  0  0  0  0  0  0  0  0  0  0
    2.5821    6.1122    1.7907 O   0  0  0  0  0  0  0  0  0  0  0  0
    3.1995    1.2358    1.0991 O   0  0  0  0  0  0  0  0  0  0  0  0
   -2.0784    2.0945    2.1397 O   0  0  0  0  0  0  0  0  0  0  0  0
   -2.1488    1.7477   -0.8525 O   0  0  0  0  0  0  0  0  0  0  0  0
    2.0845    3.0232    2.7112 O   0  0  0  0  0  0  0  0  0  0  0  0
  4  1  1  6
  5  2  1  6
  6  3  1  1
  7  5  1  0
  7 24  1  1
  8  7  1  0
  8 25  1  6
  9 26  1  1
 10 27  1  1
 11  9  1  0
 11 28  1  1
 12  8  1  0
 12 29  1  1
 13 10  1  0
 13 30  1  6
 14  4  1  0
 14  9  1  0
 14 34  1  1
 15  6  1  0
 15 10  1  0
 15 35  1  6
 16 11  1  0
 17 12  1  0
 17 35  1  6
 18 13  1  0
 18 34  1  6
 19  4  1  0
 19 16  2  0
 20 16  1  0
 21  1  1  0
 22  2  1  0
 23  3  1  0
 31 20  1  0
 32  5  1  0
 32 17  1  0
 33  6  1  0
 33 18  1  0
M  END
>  <DRUGBANK_ID>  (1) 
DB01922

>  <SECONDARY_ACCESSION_NUMBERS>  (1) 
EXPT01998

>  <COMMON_NAME>  (1) 
Maltosyl-Alpha (1,4)-D-Gluconhydroximo-1,5-Lactam

$$$$
