
     RDKit          3D

 28 27  0  0  0  0  0  0  0  0999 V2000
    0.6770    1.2160    0.0070 C   0  0  0  0  0  0  0  0  0  0  0  0
    1.4420    0.0470   -0.0030 C   0  0  0  0  0  0  0  0  0  0  0  0
    0.7650   -1.1660   -0.0050 C   0  0  0  0  0  0  0  0  0  0  0  0
   -0.6110   -1.1650    0.0090 C   0  0  0  0  0  0  0  0  0  0  0  0
   -1.3480   -0.0500   -0.0030 N   0  0  0  0  0  0  0  0  0  0  0  0
   -0.7010    1.1260   -0.0040 C   0  0  0  0  0  0  0  0  0  0  0  0
    1.5340   -2.4770   -0.0224 C   0  0  0  0  0  0  0  0  0  0  0  0
    0.9061   -3.5820   -0.0241 O   0  0  0  0  0  0  0  0  0  0  0  0
    2.9539   -2.4672   -0.0368 O   0  0  0  0  0  0  0  0  0  0  0  0
    0.6770    1.2160    0.0070 C   0  0  0  0  0  0  0  0  0  0  0  0
    1.4420    0.0470   -0.0030 C   0  0  0  0  0  0  0  0  0  0  0  0
    0.7650   -1.1660   -0.0050 C   0  0  0  0  0  0  0  0  0  0  0  0
   -0.6110   -1.1650    0.0090 C   0  0  0  0  0  0  0  0  0  0  0  0
   -1.3480   -0.0500   -0.0030 N   0  0  0  0  0  0  0  0  0  0  0  0
   -0.7010    1.1260   -0.0040 C   0  0  0  0  0  0  0  0  0  0  0  0
    1.5340   -2.4770   -0.0224 C   0  0  0  0  0  0  0  0  0  0  0  0
    0.9061   -3.5820   -0.0241 O   0  0  0  0  0  0  0  0  0  0  0  0
    2.9539   -2.4672   -0.0368 O   0  0  0  0  0  0  0  0  0  0  0  0
    0.6770    1.2160    0.0070 C   0  0  0  0  0  0  0  0  0  0  0  0
    1.4420    0.0470   -0.0030 C   0  0  0  0  0  0  0  0  0  0  0  0
    0.7650   -1.1660   -0.0050 C   0  0  0  0  0  0  0  0  0  0  0  0
   -0.6110   -1.1650    0.0090 C   0  0  0  0  0  0  0  0  0  0  0  0
   -1.3480   -0.0500   -0.0030 N   0  0  0  0  0  0  0  0  0  0  0  0
   -0.7010    1.1260   -0.0040 C   0  0  0  0  0  0  0  0  0  0  0  0
    1.5340   -2.4770   -0.0224 C   0  0  0  0  0  0  0  0  0  0  0  0
    0.9061   -3.5820   -0.0241 O   0  0  0  0  0  0  0  0  0  0  0  0
    2.9539   -2.4672   -0.0368 O   0  0  0  0  0  0  0  0  0  0  0  0
    1.0834   -0.0296   -0.0465 Cr  0  0  0  0  0 15  0  0  0  0  0  0
  1  2  2  0
  1  6  1  0
  2  3  1  0
  3  4  2  0
  3  7  1  0
  4  5  1  0
  5  6  2  0
  7  8  2  0
  7  9  1  0
 10 11  2  0
 10 15  1  0
 11 12  1  0
 12 13  2  0
 12 16  1  0
 13 14  1  0
 14 15  2  0
 16 17  2  0
 16 18  1  0
 19 20  2  0
 19 24  1  0
 20 21  1  0
 21 22  2  0
 21 25  1  0
 22 23  1  0
 23 24  2  0
 25 26  2  0
 25 27  1  0
M  CHG  4   9  -1  18  -1  27  -1  28   3
M  END
>  <DRUGBANK_ID>  (1) 
DB14529

>  <SECONDARY_ACCESSION_NUMBERS>  (1) 
DBSALT001747

>  <COMMON_NAME>  (1) 
Chromium nicotinate

>  <CAS_NUMBER>  (1) 
64452-96-6

>  <UNII>  (1) 
A150AY412V

>  <SYNONYMS>  (1) 
Chromium(III) nicotinate

$$$$
