
     RDKit          3D

 16 15  0  0  0  0  0  0  0  0999 V2000
    0.9791    0.1145   -0.0074 C   0  0  0  0  0  0  0  0  0  0  0  0
   -0.7411    0.5503   -1.8436 C   0  0  0  0  0  0  0  0  0  0  0  0
    0.1436    1.1807   -0.7411 C   0  0  1  0  0  0  0  0  0  0  0  0
    5.9990    0.2457   -0.1910 C   0  0  0  0  0  0  0  0  0  0  0  0
    0.4585   -0.7601    0.6868 O   0  0  0  0  0  0  0  0  0  0  0  0
    7.1952    0.4355   -0.2703 O   0  0  0  0  0  0  0  0  0  0  0  0
    2.3306    0.1365   -0.1389 N   0  0  0  0  0  0  0  0  0  0  0  0
   -2.7043    0.1751   -0.4130 O   0  0  0  0  0  0  0  0  0  0  0  0
   -1.7747   -0.4467   -1.2879 C   0  0  0  0  0  0  0  0  0  0  0  0
    5.3683   -0.5496   -1.0788 O   0  0  0  0  0  0  0  0  0  0  0  0
   -0.5507    2.0016    0.1883 O   0  0  0  0  0  0  0  0  0  0  0  0
   -1.4792    1.6886   -2.5757 C   0  0  0  0  0  0  0  0  0  0  0  0
    0.1581   -0.1777   -2.8719 C   0  0  0  0  0  0  0  0  0  0  0  0
    5.0731    0.8379    0.8435 C   0  0  0  0  0  0  0  0  0  0  0  0
    3.1386    1.1626   -0.7631 C   0  0  0  0  0  0  0  0  0  0  0  0
    4.0692    1.8147    0.2444 C   0  0  0  0  0  0  0  0  0  0  0  0
  2  3  1  0
  3  1  1  0
  3 11  1  1
  4 14  1  0
  5  1  2  0
  6  4  2  0
  7  1  1  0
  8  9  1  0
  9  2  1  0
 10  4  1  0
 12  2  1  0
 13  2  1  0
 14 16  1  0
 15  7  1  0
 16 15  1  0
M  END
>  <DRUGBANK_ID>  (1) 
DB14044

>  <COMMON_NAME>  (1) 
Hopantenic acid

>  <CAS_NUMBER>  (1) 
18679-90-8

>  <UNII>  (1) 
H473MVB16U

>  <SYNONYMS>  (1) 
Acide hopantenique; Acido hopantenico; Acidum hopantenicum; D-Homopantothenic acid; Hopantenic acid; Hopanteninsaeure; N-pantoyl-GABA; Pantocalcin

$$$$
