214
     RDKit          3D

 24 25  0  0  0  0  0  0  0  0999 V2000
    1.0672   -0.4156    0.0055 S   0  0  0  0  0  0  0  0  0  0  0  0
    0.6310   -0.9036   -1.2894 O   0  0  0  0  0  0  0  0  0  0  0  0
    0.6798   -0.9657    1.2828 O   0  0  0  0  0  0  0  0  0  0  0  0
    0.4899    3.8865    0.0687 O   0  0  0  0  0  0  0  0  0  0  0  0
    2.0132    2.5005    0.8353 N   0  0  0  0  0  0  0  0  0  0  0  0
    3.9560    2.6950   -0.4655 N   0  0  0  0  0  0  0  0  0  0  0  0
    0.1567    1.5055    0.0726 N   0  0  0  0  0  0  0  0  0  0  0  0
    5.2650   -1.5177   -0.0170 N   0  0  0  0  0  0  0  0  0  0  0  0
    2.6325    1.4527    0.2502 C   0  0  0  0  0  0  0  0  0  0  0  0
    3.3731   -0.3954   -0.0907 C   0  0  0  0  0  0  0  0  0  0  0  0
    4.5650    1.0459   -0.1844 C   0  0  0  0  0  0  0  0  0  0  0  0
    4.2062    4.0179   -0.2404 C   0  0  0  0  0  0  0  0  0  0  0  0
    3.1723    1.0966   -1.7383 C   0  0  0  0  0  0  0  0  0  0  0  0
    3.5767    0.9922    1.8298 C   0  0  0  0  0  0  0  0  0  0  0  0
    0.8240    2.7561    0.3274 C   0  0  0  0  0  0  0  0  0  0  0  0
    3.8998   -1.5937   -0.0354 C   0  0  0  0  0  0  0  0  0  0  0  0
    5.8707    1.0921   -0.0939 C   0  0  0  0  0  0  0  0  0  0  0  0
    4.7723    4.4610   -1.3713 C   0  0  0  0  0  0  0  0  0  0  0  0
    5.4352    5.6117   -1.2423 C   0  0  0  0  0  0  0  0  0  0  0  0
    3.6981    4.8832    0.7572 C   0  0  0  0  0  0  0  0  0  0  0  0
    6.1259   -0.2444   -0.0246 C   0  0  0  0  0  0  0  0  0  0  0  0
    5.2103    6.4346   -0.1268 C   0  0  0  0  0  0  0  0  0  0  0  0
    4.2837    6.1061    0.8581 C   0  0  0  0  0  0  0  0  0  0  0  0
    6.4104    5.7583   -2.3319 C   0  0  0  0  0  0  0  0  0  0  0  0
  1  2  2  0
  1  3  2  0
  1  7  1  0
  1 10  1  0
  4 15  2  0
  5  9  1  0
  5 15  1  0
  6 11  1  0
  6 12  1  0
  7 15  1  0
  8 16  2  0
  8 21  1  0
  9 13  1  0
  9 14  1  0
 10 11  2  0
 10 16  1  0
 11 17  1  0
 12 18  2  0
 12 20  1  0
 17 21  2  0
 18 19  1  0
 19 22  2  0
 19 24  1  0
 20 23  2  0
 22 23  1  0
M  END
>  <DRUGBANK_ID>  (1) 
DB00214

>  <SECONDARY_ACCESSION_NUMBERS>  (1) 
APRD00295; APRD00217

>  <COMMON_NAME>  (1) 
Torasemide

>  <CAS_NUMBER>  (1) 
56211-40-6

>  <UNII>  (1) 
W31X2H97FB

>  <SYNONYMS>  (1) 
1-Isopropyl-3-((4-m-toluidino-3-pyridyl)sulfonyl)urea; N-(((1-Methylethyl)amino)carbonyl)-4-((3-methylphenyl)amino)-3-pyridinesulfonamide; Torasemida; Torasemide; Toras√©mide; Torasemidum; Torsemide

$$$$
