
     RDKit          3D

 28 32  0  0  1  0  0  0  0  0999 V2000
   -2.0774   -0.0676   -0.0569 C   0  0  0  0  0  0  0  0  0  0  0  0
   -0.6353   -0.0888    0.0138 N   0  0  0  0  0  0  0  0  0  0  0  0
    0.1874   -1.1854    0.0237 C   0  0  0  0  0  0  0  0  0  0  0  0
    1.4708   -0.6908    0.0132 C   0  0  0  0  0  0  0  0  0  0  0  0
    2.6234   -1.3984   -0.0259 N   0  0  0  0  0  0  0  0  0  0  0  0
    3.9132   -0.8493   -0.0802 C   0  0  0  0  0  0  0  0  0  0  0  0
    4.6677   -1.1328   -1.1571 N   0  0  0  0  0  0  0  0  0  0  0  0
    5.8405   -0.4836   -1.2525 C   0  0  0  0  0  0  0  0  0  0  0  0
    6.3038    0.3722   -0.2916 C   0  0  0  0  0  0  0  0  0  0  0  0
    5.5200    0.5378    0.8303 C   0  0  0  0  0  0  0  0  0  0  0  0
    4.3178   -0.0484    0.9281 N   0  0  0  0  0  0  0  0  0  0  0  0
    6.0227    1.3530    1.8432 N   0  0  0  0  0  0  0  0  0  0  0  0
    6.1596    2.7620    1.4574 C   0  0  0  0  0  0  0  0  0  0  0  0
    6.5343    3.6714    2.6326 C   0  0  2  0  0  0  0  0  0  0  0  0
    7.9432    3.4031    3.1377 C   0  0  0  0  0  0  0  0  0  0  0  0
    7.7591    2.3284    4.2046 C   0  0  0  0  0  0  0  0  0  0  0  0
    6.2314    2.0894    4.2548 C   0  0  2  0  0  0  0  0  0  0  0  0
    5.8353    0.9555    3.2518 C   0  0  0  0  0  0  0  0  0  0  0  0
    5.7136    3.3815    3.7806 N   0  0  0  0  0  0  0  0  0  0  0  0
    4.5678    3.9765    4.2771 C   0  0  0  0  0  0  0  0  0  0  0  0
    3.9651    3.4491    5.2008 O   0  0  0  0  0  0  0  0  0  0  0  0
    4.0778    5.3289    3.8666 C   0  0  2  0  0  0  0  0  0  0  0  0
    3.3621    5.7271    2.5979 C   0  0  0  0  0  0  0  0  0  0  0  0
    4.6896    6.3063    2.9460 C   0  0  0  0  0  0  0  0  0  0  0  0
    4.7972    7.6182    3.3474 F   0  0  0  0  0  0  0  0  0  0  0  0
    5.5946    6.1776    1.9272 F   0  0  0  0  0  0  0  0  0  0  0  0
    1.3117    0.7114    0.0009 C   0  0  0  0  0  0  0  0  0  0  0  0
    0.0284    1.0830    0.0040 N   0  0  0  0  0  0  0  0  0  0  0  0
  1  2  1  0
  2  3  1  0
  2 28  1  0
  3  4  2  0
  4  5  1  0
  4 27  1  0
  5  6  1  0
  6  7  2  0
  6 11  1  0
  7  8  1  0
  8  9  2  0
  9 10  1  0
 10 11  2  0
 10 12  1  0
 12 13  1  0
 12 18  1  0
 14 13  1  6
 14 15  1  0
 14 19  1  0
 15 16  1  0
 17 16  1  6
 17 18  1  0
 17 19  1  0
 19 20  1  0
 20 21  2  0
 22 20  1  6
 22 23  1  0
 22 24  1  0
 23 24  1  0
 24 25  1  0
 24 26  1  0
 27 28  2  0
M  END
>  <DRUGBANK_ID>  (1) 
DB15003

>  <COMMON_NAME>  (1) 
PF-06700841

>  <CAS_NUMBER>  (1) 
1883299-62-4

>  <UNII>  (1) 
3X8387Q25N

$$$$
