282
     RDKit          3D

 13 12  0  0  0  0  0  0  0  0999 V2000
    1.0404   -0.0832    0.0381 P   0  0  0  0  0  0  0  0  0  0  0  0
    3.4804    0.2735    1.7262 P   0  0  0  0  0  0  0  0  0  0  0  0
    3.4469   -1.3858   -0.2749 O   0  0  0  0  0  0  0  0  0  0  0  0
    1.1531   -1.3907   -0.9811 O   0  0  0  0  0  0  0  0  0  0  0  0
    1.1795   -1.0530    1.3815 O   0  0  0  0  0  0  0  0  0  0  0  0
    4.8546    0.8565    1.0289 O   0  0  0  0  0  0  0  0  0  0  0  0
    2.6128    1.6826    1.6217 O   0  0  0  0  0  0  0  0  0  0  0  0
   -0.5080   -0.0832    0.0381 O   0  0  0  0  0  0  0  0  0  0  0  0
    3.9965    0.5753    3.1544 O   0  0  0  0  0  0  0  0  0  0  0  0
    1.4174    1.0070   -2.7286 N   0  0  0  0  0  0  0  0  0  0  0  0
    2.8704   -0.0832    0.0381 C   0  0  0  0  0  0  0  0  0  0  0  0
    3.3134    0.9458   -1.0494 C   0  0  0  0  0  0  0  0  0  0  0  0
    2.8195    0.6987   -2.4708 C   0  0  0  0  0  0  0  0  0  0  0  0
  1  4  1  0
  1  5  1  0
  1  8  2  0
  1 11  1  0
  2  6  1  0
  2  7  1  0
  2  9  2  0
  2 11  1  0
  3 11  1  0
 10 13  1  0
 11 12  1  0
 12 13  1  0
M  END
>  <DRUGBANK_ID>  (1) 
DB00282

>  <SECONDARY_ACCESSION_NUMBERS>  (1) 
APRD01161

>  <COMMON_NAME>  (1) 
Pamidronic acid

>  <CAS_NUMBER>  (1) 
40391-99-9

>  <UNII>  (1) 
OYY3447OMC

>  <SYNONYMS>  (1) 
Acide pamidronique; Acido pamidronico; Acidum pamidronicum; Pamidronate; Pamidronic acid

$$$$
