
     RDKit          3D

 29 32  0  0  0  0  0  0  0  0999 V2000
   -3.0555   -0.0626   -0.0391 C   0  0  0  0  0  0  0  0  0  0  0  0
   -2.8423    1.3086    0.0397 C   0  0  0  0  0  0  0  0  0  0  0  0
   -1.5410    1.8471    0.0689 C   0  0  0  0  0  0  0  0  0  0  0  0
   -0.4417    1.0093    0.0088 C   0  0  0  0  0  0  0  0  0  0  0  0
   -0.6447   -0.3343   -0.0864 C   0  0  0  0  0  0  0  0  0  0  0  0
   -1.9524   -0.8843   -0.0899 C   0  0  0  0  0  0  0  0  0  0  0  0
    0.5165   -1.1789   -0.1610 C   0  0  0  0  0  0  0  0  0  0  0  0
    1.8147   -0.8009   -0.0401 C   0  0  0  0  0  0  0  0  0  0  0  0
    2.0119    0.6901    0.0005 C   0  0  0  0  0  0  0  0  0  0  0  0
    3.1245    1.1804   -0.0171 O   0  0  0  0  0  0  0  0  0  0  0  0
    0.8673    1.5112    0.0345 O   0  0  0  0  0  0  0  0  0  0  0  0
    3.1562   -1.6603    0.1260 C   0  0  0  0  0  0  0  0  0  0  0  0
    3.0513   -2.6601    1.3415 C   0  0  0  0  0  0  0  0  0  0  0  0
    1.8811   -3.6957    1.4438 C   0  0  0  0  0  0  0  0  0  0  0  0
    1.6604   -4.7096    0.2742 C   0  0  0  0  0  0  0  0  0  0  0  0
    1.0697   -5.9524    0.4229 C   0  0  0  0  0  0  0  0  0  0  0  0
    0.9331   -6.8278   -0.6899 C   0  0  0  0  0  0  0  0  0  0  0  0
    1.2617   -6.4441   -1.9885 C   0  0  0  0  0  0  0  0  0  0  0  0
    1.5611   -5.1413   -2.2068 C   0  0  0  0  0  0  0  0  0  0  0  0
    1.7752   -4.3498   -1.0893 C   0  0  0  0  0  0  0  0  0  0  0  0
    1.2804   -7.5267   -3.3131 Cl  0  0  0  0  0  0  0  0  0  0  0  0
    1.9867   -4.3710    2.6996 O   0  0  0  0  0  0  0  0  0  0  0  0
    3.8209   -2.2862   -1.1609 C   0  0  0  0  0  0  0  0  0  0  0  0
    3.5890   -1.9261   -2.4858 C   0  0  0  0  0  0  0  0  0  0  0  0
    3.8316   -3.0076   -3.3999 C   0  0  0  0  0  0  0  0  0  0  0  0
    4.4435   -4.0670   -2.7791 C   0  0  0  0  0  0  0  0  0  0  0  0
    4.8371   -3.7269   -1.1529 S   0  0  0  0  0  0  0  0  0  0  0  0
    4.6626   -5.6407   -3.4593 Cl  0  0  0  0  0  0  0  0  0  0  0  0
    0.0168   -2.4110   -0.3506 O   0  0  0  0  0  0  0  0  0  0  0  0
  1  2  2  0
  1  6  1  0
  2  3  1  0
  3  4  2  0
  4  5  1  0
  4 11  1  0
  5  6  2  0
  5  7  1  0
  7  8  2  0
  7 29  1  0
  8  9  1  0
  8 12  1  0
  9 10  2  0
  9 11  1  0
 12 13  1  0
 12 23  1  0
 13 14  1  0
 14 15  1  0
 14 22  1  0
 15 16  2  0
 15 20  1  0
 16 17  1  0
 17 18  2  0
 18 19  1  0
 18 21  1  0
 19 20  2  0
 23 24  2  0
 23 27  1  0
 24 25  1  0
 25 26  2  0
 26 27  1  0
 26 28  1  0
M  END
>  <DRUGBANK_ID>  (1) 
DB13451

>  <COMMON_NAME>  (1) 
Tioclomarol

>  <CAS_NUMBER>  (1) 
22619-35-8

>  <UNII>  (1) 
E5B7C16LFK

>  <SYNONYMS>  (1) 
Tioclomarol

$$$$
