TFL
     RDKit          3D

 20 22  0  0  0  0  0  0  0  0999 V2000
    1.2659   -0.2025    0.0285 C   0  0  0  0  0  0  0  0  0  0  0  0
    0.3810   -1.2757   -0.0106 C   0  0  0  0  0  0  0  0  0  0  0  0
   -1.0264   -1.1362   -0.1206 C   0  0  0  0  0  0  0  0  0  0  0  0
   -1.7272    0.0848   -0.2159 C   0  0  0  0  0  0  0  0  0  0  0  0
   -0.8594    1.1931   -0.1149 C   0  0  0  0  0  0  0  0  0  0  0  0
    0.5996    1.0383   -0.0348 C   0  0  0  0  0  0  0  0  0  0  0  0
   -3.2686    0.0043   -0.3408 C   0  0  0  0  0  0  0  0  0  0  0  0
   -4.2176    0.6004   -1.1096 N   0  0  0  0  0  0  0  0  0  0  0  0
   -5.5830    0.1586   -0.9245 C   0  0  0  0  0  0  0  0  0  0  0  0
   -4.0103   -1.3527    0.4220 S   0  0  0  0  0  0  0  0  0  0  0  0
   -5.5814   -0.9221   -0.0356 C   0  0  0  0  0  0  0  0  0  0  0  0
   -6.7180   -1.5894    0.4114 C   0  0  0  0  0  0  0  0  0  0  0  0
   -7.9632   -1.1748    0.0042 C   0  0  0  0  0  0  0  0  0  0  0  0
   -8.0740   -0.1318   -0.9111 C   0  0  0  0  0  0  0  0  0  0  0  0
   -6.8927    0.5188   -1.4246 C   0  0  0  0  0  0  0  0  0  0  0  0
   -9.0616   -1.8010    0.4968 O   0  0  0  0  0  0  0  0  0  0  0  0
    2.6394   -0.4061    0.1236 N   0  0  0  0  0  0  0  0  0  0  0  0
    3.6519    0.6483    0.2246 C   0  0  0  0  0  0  0  0  0  0  0  0
    3.2049   -1.7640    0.2802 C   0  0  0  0  0  0  0  0  0  0  0  0
   -3.8538    1.5225   -2.1748 C   0  0  0  0  0  0  0  0  0  0  0  0
  1  2  2  0
  1  6  1  0
  1 17  1  0
  2  3  1  0
  3  4  2  0
  4  5  1  0
  4  7  1  0
  5  6  2  0
  7  8  2  0
  7 10  1  0
  8  9  1  0
  8 20  1  0
  9 11  2  0
  9 15  1  0
 10 11  1  0
 11 12  1  0
 12 13  2  0
 13 14  1  0
 13 16  1  0
 14 15  2  0
 17 18  1  0
 17 19  1  0
M  CHG  1   8   1
M  END
>  <DRUGBANK_ID>  (1) 
DB08615

>  <COMMON_NAME>  (1) 
2-[4-(DIMETHYLAMINO)PHENYL]-6-HYDROXY-3-METHYL-1,3-BENZOTHIAZOL-3-IUM

$$$$
