BGL
     RDKit          3D

 20 20  0  0  0  0  0  0  0  0999 V2000
    1.6319   -0.1626    0.0810 C   0  0  1  0  0  0  0  0  0  0  0  0
    2.9959   -0.4501    0.3712 O   0  0  0  0  0  0  0  0  0  0  0  0
    0.6884   -1.3782    0.3521 C   0  0  2  0  0  0  0  0  0  0  0  0
    0.8806   -2.4705   -0.5940 O   0  0  0  0  0  0  0  0  0  0  0  0
   -0.8255   -1.0328    0.4859 C   0  0  1  0  0  0  0  0  0  0  0  0
   -1.6808   -1.9750    1.1304 O   0  0  0  0  0  0  0  0  0  0  0  0
   -1.1415    0.4825    0.7845 C   0  0  2  0  0  0  0  0  0  0  0  0
   -2.4044    0.8976    0.2233 O   0  0  0  0  0  0  0  0  0  0  0  0
   -0.0219    1.5033    0.4308 C   0  0  2  0  0  0  0  0  0  0  0  0
    1.2709    1.0146    0.8039 O   0  0  0  0  0  0  0  0  0  0  0  0
   -0.3024    2.8822    1.0565 C   0  0  0  0  0  0  0  0  0  0  0  0
    0.6719    3.8410    0.6343 O   0  0  0  0  0  0  0  0  0  0  0  0
    0.8264   -2.2585   -2.0161 C   0  0  0  0  0  0  0  0  0  0  0  0
   -0.5310   -1.8888   -2.6265 C   0  0  0  0  0  0  0  0  0  0  0  0
   -0.9550   -0.4461   -2.4262 C   0  0  0  0  0  0  0  0  0  0  0  0
    0.0023    0.6185   -2.8661 C   0  0  0  0  0  0  0  0  0  0  0  0
   -0.2067    0.9795   -4.2765 C   0  0  0  0  0  0  0  0  0  0  0  0
   -1.6416    1.5100   -4.3852 C   0  0  0  0  0  0  0  0  0  0  0  0
   -1.9636    2.6971   -3.4435 C   0  0  0  0  0  0  0  0  0  0  0  0
   -0.9635    3.8241   -3.6325 C   0  0  0  0  0  0  0  0  0  0  0  0
  1  2  1  1
  1  3  1  0
  1 10  1  0
  3  4  1  6
  3  5  1  0
  4 13  1  0
  5  6  1  1
  5  7  1  0
  7  8  1  6
  7  9  1  0
  9 10  1  0
  9 11  1  1
 11 12  1  0
 13 14  1  0
 14 15  1  0
 15 16  1  0
 16 17  1  0
 17 18  1  0
 18 19  1  0
 19 20  1  0
M  END
>  <DRUGBANK_ID>  (1) 
DB03152

>  <SECONDARY_ACCESSION_NUMBERS>  (1) 
EXPT00687

>  <COMMON_NAME>  (1) 
B-2-Octylglucoside

$$$$
