BC1
     RDKit          3D

 25 27  0  0  0  0  0  0  0  0999 V2000
    1.1509    0.0535    0.0364 O   0  0  0  0  0  0  0  0  0  0  0  0
    0.6132    1.2764    0.2265 C   0  0  0  0  0  0  0  0  0  0  0  0
    1.2773    2.2806    0.3037 O   0  0  0  0  0  0  0  0  0  0  0  0
   -0.8567    1.2098    0.2655 C   0  0  0  0  0  0  0  0  0  0  0  0
   -1.3142    0.6868   -1.0521 C   0  0  0  0  0  0  0  0  0  0  0  0
   -1.1405   -0.7039   -1.3851 N   0  0  0  0  0  0  0  0  0  0  0  0
   -2.0614   -1.6804   -1.6715 C   0  0  0  0  0  0  0  0  0  0  0  0
   -1.5375   -2.7629   -1.9767 O   0  0  0  0  0  0  0  0  0  0  0  0
   -3.6205   -1.5133   -1.5267 C   0  0  0  0  0  0  0  0  0  0  0  0
   -4.4421   -1.6309   -2.8001 C   0  0  0  0  0  0  0  0  0  0  0  0
   -5.1236   -1.7285   -3.8565 N   0  0  0  0  0  0  0  0  0  0  0  0
   -4.1564   -2.5588   -0.6004 C   0  0  0  0  0  0  0  0  0  0  0  0
   -3.9150   -3.9189   -0.9305 C   0  0  0  0  0  0  0  0  0  0  0  0
   -4.3503   -4.9309   -0.1122 C   0  0  0  0  0  0  0  0  0  0  0  0
   -5.0753   -4.5815    1.0112 C   0  0  0  0  0  0  0  0  0  0  0  0
   -5.3539   -3.2295    1.3124 C   0  0  0  0  0  0  0  0  0  0  0  0
   -4.8997   -2.1694    0.5161 C   0  0  0  0  0  0  0  0  0  0  0  0
   -5.1367   -0.7877    0.7368 N   0  0  0  0  0  0  0  0  0  0  0  0
   -4.7635    0.2515   -0.1561 C   0  0  0  0  0  0  0  0  0  0  0  0
   -4.0989   -0.0816   -1.3281 C   0  0  0  0  0  0  0  0  0  0  0  0
   -3.7638    0.8951   -2.3524 C   0  0  0  0  0  0  0  0  0  0  0  0
   -3.8730    2.2407   -2.0865 C   0  0  0  0  0  0  0  0  0  0  0  0
   -4.4653    2.6024   -0.8863 C   0  0  0  0  0  0  0  0  0  0  0  0
   -4.9450    1.6303    0.0334 C   0  0  0  0  0  0  0  0  0  0  0  0
   -5.9261   -0.3692    1.8920 C   0  0  0  0  0  0  0  0  0  0  0  0
  1  2  1  0
  2  3  2  0
  2  4  1  0
  4  5  1  0
  5  6  1  0
  6  7  1  0
  7  8  2  0
  7  9  1  0
  9 10  1  0
  9 12  1  0
  9 20  1  0
 10 11  3  0
 12 13  1  0
 12 17  2  0
 13 14  2  0
 14 15  1  0
 15 16  2  0
 16 17  1  0
 17 18  1  0
 18 19  1  0
 18 25  1  0
 19 20  2  0
 19 24  1  0
 20 21  1  0
 21 22  2  0
 22 23  1  0
 23 24  2  0
M  END
>  <DRUGBANK_ID>  (1) 
DB07441

>  <COMMON_NAME>  (1) 
3-{[(9-CYANO-9,10-DIHYDRO-10-METHYLACRIDIN-9-YL)CARBONYL]AMINO}PROPANOIC ACID

$$$$
