
     RDKit          3D

 29 33  0  0  1  0  0  0  0  0999 V2000
   -0.8581   -1.3498   -3.5461 C   0  0  0  0  0  0  0  0  0  0  0  0
    0.5679   -1.9288   -3.6106 C   0  0  0  0  0  0  0  0  0  0  0  0
    1.2952   -2.2119   -2.2389 C   0  0  1  0  0  0  0  0  0  0  0  0
    0.5123   -1.4704   -1.3073 O   0  0  0  0  0  0  0  0  0  0  0  0
    1.5321   -3.8141   -2.3339 C   0  0  0  0  0  0  0  0  0  0  0  0
    2.2697   -4.9165   -1.5635 C   0  0  0  0  0  0  0  0  0  0  0  0
    2.4943   -6.0075   -2.1205 O   0  0  0  0  0  0  0  0  0  0  0  0
    2.7968   -4.6582   -0.3635 O   0  0  0  0  0  0  0  0  0  0  0  0
    2.6080   -3.3226    0.0655 C   0  0  0  0  0  0  0  0  0  0  0  0
    3.3167   -2.3589   -0.8702 C   0  0  0  0  0  0  0  0  0  0  0  0
    2.6793   -1.7044   -1.8805 C   0  0  0  0  0  0  0  0  0  0  0  0
    3.3598   -0.7182   -2.6961 C   0  0  0  0  0  0  0  0  0  0  0  0
    4.6931   -0.6969   -2.6542 C   0  0  0  0  0  0  0  0  0  0  0  0
    5.3879   -1.5389   -1.8052 N   0  0  0  0  0  0  0  0  0  0  0  0
    6.8300   -1.4146   -1.9912 C   0  0  0  0  0  0  0  0  0  0  0  0
    6.9235   -0.3280   -3.0129 C   0  0  0  0  0  0  0  0  0  0  0  0
    8.0293    0.2632   -3.5721 C   0  0  0  0  0  0  0  0  0  0  0  0
    7.8163    1.2738   -4.5139 C   0  0  0  0  0  0  0  0  0  0  0  0
    8.9133    1.9099   -5.1052 C   0  0  0  0  0  0  0  0  0  0  0  0
    8.7002    2.9117   -6.0377 C   0  0  0  0  0  0  0  0  0  0  0  0
    9.7544    3.5170   -6.5997 F   0  0  0  0  0  0  0  0  0  0  0  0
    7.4083    3.2801   -6.3820 C   0  0  0  0  0  0  0  0  0  0  0  0
    7.2093    4.2501   -7.2850 F   0  0  0  0  0  0  0  0  0  0  0  0
    6.3085    2.6527   -5.7985 C   0  0  0  0  0  0  0  0  0  0  0  0
    6.4776    1.6446   -4.8587 C   0  0  0  0  0  0  0  0  0  0  0  0
    5.3960    1.0563   -4.3064 N   0  0  0  0  0  0  0  0  0  0  0  0
    5.6602    0.0980   -3.4038 C   0  0  0  0  0  0  0  0  0  0  0  0
    4.8105   -2.3762   -0.8808 C   0  0  0  0  0  0  0  0  0  0  0  0
    5.4461   -3.1390   -0.1657 O   0  0  0  0  0  0  0  0  0  0  0  0
  1  2  1  0
  3  5  1  0
  3 11  1  0
  3  4  1  1
  3  2  1  0
  5  6  1  0
  6  7  2  0
  6  8  1  0
  8  9  1  0
  9 10  1  0
 10 11  2  0
 10 28  1  0
 11 12  1  0
 12 13  2  0
 13 14  1  0
 13 27  1  0
 14 15  1  0
 14 28  1  0
 15 16  1  0
 16 17  1  0
 16 27  2  0
 17 18  2  0
 18 19  1  0
 18 25  1  0
 19 20  2  0
 20 21  1  0
 20 22  1  0
 22 23  1  0
 22 24  2  0
 24 25  1  0
 25 26  2  0
 26 27  1  0
 28 29  2  0
M  END
>  <DRUGBANK_ID>  (1) 
DB16138

>  <COMMON_NAME>  (1) 
Diflomotecan

>  <CAS_NUMBER>  (1) 
220997-97-7

>  <UNII>  (1) 
QKT1LC4J1P

>  <SYNONYMS>  (1) 
Diflomotecan

$$$$
