
     RDKit          3D

 11 12  0  0  0  0  0  0  0  0999 V2000
    0.9112    0.4498    0.0788 S   0  0  0  0  0  0  0  0  0  0  0  0
    2.5272    0.1009    0.0780 C   0  0  0  0  0  0  0  0  0  0  0  0
    3.5276    1.0307    0.0785 N   0  0  0  0  0  0  0  0  0  0  0  0
    4.7710    0.4545    0.0785 C   0  0  0  0  0  0  0  0  0  0  0  0
    6.1886    1.3052    0.0790 S   0  0  0  0  0  0  0  0  0  0  0  0
    4.5578   -0.9968    0.0781 C   0  0  0  0  0  0  0  0  0  0  0  0
    5.4369   -2.0685    0.0789 C   0  0  0  0  0  0  0  0  0  0  0  0
    4.8893   -3.3601    0.0798 C   0  0  0  0  0  0  0  0  0  0  0  0
    3.4956   -3.5580    0.0777 C   0  0  0  0  0  0  0  0  0  0  0  0
    2.6244   -2.4701    0.0764 C   0  0  0  0  0  0  0  0  0  0  0  0
    3.1795   -1.2034    0.0773 C   0  0  0  0  0  0  0  0  0  0  0  0
  1  2  2  0
  2  3  1  0
  2 11  1  0
  3  4  1  0
  4  5  2  0
  4  6  1  0
  6  7  2  0
  6 11  1  0
  7  8  1  0
  8  9  2  0
  9 10  1  0
 10 11  2  0
M  END
>  <DRUGBANK_ID>  (1) 
DB17936

>  <COMMON_NAME>  (1) 
Isoindolin-1,3-Dithione

>  <CAS_NUMBER>  (1) 
18138-19-7

>  <UNII>  (1) 
7R978066MK

>  <SYNONYMS>  (1) 
1h-isoindole-1,3(2h)-dithione; Dithiophthalimide; Phthalimide, dithio-

$$$$
