
     RDKit          3D

  2  1  0  0  0  0  0  0  0  0999 V2000
    0.9930    0.0108   -0.0992 H   0  0  0  0  0  0  0  0  0  0  0  0
    1.9930    0.0108   -0.0992 H   0  0  0  0  0  0  0  0  0  0  0  0
  1  2  1  0
M  END
>  <DRUGBANK_ID>  (1) 
DB15127

>  <COMMON_NAME>  (1) 
Hydrogen

>  <CAS_NUMBER>  (1) 
1333-74-0

>  <UNII>  (1) 
7YNJ3PO35Z

>  <SYNONYMS>  (1) 
Dihydrogen; Molecular hydrogen; Protium

$$$$
