PCB
     RDKit          3D

 24 25  0  0  0  0  0  0  0  0999 V2000
    0.7596   -1.2163    0.0511 C   0  0  0  0  0  0  0  0  0  0  0  0
    1.3815    0.0429   -0.0044 C   0  0  0  0  0  0  0  0  0  0  0  0
    3.1008    0.1981   -0.1452 Cl  0  0  0  0  0  0  0  0  0  0  0  0
    0.6210    1.2219    0.0061 C   0  0  0  0  0  0  0  0  0  0  0  0
   -0.7896    1.1741    0.0221 C   0  0  0  0  0  0  0  0  0  0  0  0
   -1.4197   -0.0690    0.0094 C   0  0  0  0  0  0  0  0  0  0  0  0
   -3.1099   -0.3888   -0.0256 Cl  0  0  0  0  0  0  0  0  0  0  0  0
   -0.6440   -1.2387    0.0267 C   0  0  0  0  0  0  0  0  0  0  0  0
   -1.6084    2.7556    0.0495 S   0  0  0  0  0  0  0  0  0  0  0  0
   -1.2469    3.3649    1.3194 O   0  0  0  0  0  0  0  0  0  0  0  0
   -1.2614    3.4028   -1.1997 O   0  0  0  0  0  0  0  0  0  0  0  0
   -3.3603    2.5555    0.0592 C   0  0  0  0  0  0  0  0  0  0  0  0
    1.4942   -2.4978    0.1176 C   0  0  0  0  0  0  0  0  0  0  0  0
    2.3455   -2.8604    1.1754 C   0  0  0  0  0  0  0  0  0  0  0  0
    2.5006   -1.8751    2.5913 Cl  0  0  0  0  0  0  0  0  0  0  0  0
    3.0670   -4.0631    1.1381 C   0  0  0  0  0  0  0  0  0  0  0  0
    2.9188   -4.9639    0.0616 C   0  0  0  0  0  0  0  0  0  0  0  0
    2.0265   -4.6472   -0.9611 C   0  0  0  0  0  0  0  0  0  0  0  0
    1.6343   -5.5946   -2.3428 Cl  0  0  0  0  0  0  0  0  0  0  0  0
    1.3333   -3.4273   -0.9222 C   0  0  0  0  0  0  0  0  0  0  0  0
    3.9148   -6.4376    0.1545 S   0  0  0  0  0  0  0  0  0  0  0  0
    5.2947   -5.9868    0.0692 O   0  0  0  0  0  0  0  0  0  0  0  0
    3.4491   -7.1572    1.3228 O   0  0  0  0  0  0  0  0  0  0  0  0
    3.6297   -7.4771   -1.2411 C   0  0  0  0  0  0  0  0  0  0  0  0
  1  2  2  0
  1  8  1  0
  1 13  1  0
  2  3  1  0
  2  4  1  0
  4  5  2  0
  5  6  1  0
  5  9  1  0
  6  7  1  0
  6  8  2  0
  9 10  2  0
  9 11  2  0
  9 12  1  0
 13 14  2  0
 13 20  1  0
 14 15  1  0
 14 16  1  0
 16 17  2  0
 17 18  1  0
 17 21  1  0
 18 19  1  0
 18 20  2  0
 21 22  2  0
 21 23  2  0
 21 24  1  0
M  END
>  <DRUGBANK_ID>  (1) 
DB08373

>  <COMMON_NAME>  (1) 
4,4'-BIS([H]METHYLSULFONYL)-2,2',5,5'-TETRACHLOROBIPHENYL

>  <UNII>  (1) 
RX2C8QLH24

$$$$
