
     RDKit          3D

 40 41  0  0  0  0  0  0  0  0999 V2000
   -3.1043  -34.4639   22.1378 C   0  0  0  0  0  0  0  0  0  0  0  0
   -3.1527  -34.0510   20.7177 C   0  0  0  0  0  0  0  0  0  0  0  0
  -10.8819  -22.2233    5.1604 C   0  0  0  0  0  0  0  0  0  0  0  0
  -10.8516  -21.8699    3.6844 C   0  0  1  0  0  0  0  0  0  0  0  0
   -2.2309  -35.4253   22.5595 C   0  0  0  0  0  0  0  0  0  0  0  0
   -9.5994  -22.4572    3.0325 C   0  0  0  0  0  0  0  0  0  0  0  0
   -4.0584  -33.7667   23.1485 C   0  0  0  0  0  0  0  0  0  0  0  0
   -3.9925  -33.1921   20.1066 C   0  0  0  0  0  0  0  0  0  0  0  0
  -10.2579  -23.2930    5.6942 C   0  0  0  0  0  0  0  0  0  0  0  0
  -12.2242  -22.2516    3.0116 C   0  0  0  0  0  0  0  0  0  0  0  0
   -4.8852  -31.3169   16.9202 C   0  0  0  0  0  0  0  0  0  0  0  0
   -9.0876  -24.9758    8.8550 C   0  0  0  0  0  0  0  0  0  0  0  0
   -3.9645  -32.7680   18.7068 C   0  0  0  0  0  0  0  0  0  0  0  0
  -10.1168  -23.6254    7.0899 C   0  0  0  0  0  0  0  0  0  0  0  0
   -5.6915  -29.9994   14.9833 C   0  0  0  0  0  0  0  0  0  0  0  0
   -8.2854  -26.2864   10.7996 C   0  0  0  0  0  0  0  0  0  0  0  0
   -9.2160  -24.5627    7.4757 C   0  0  0  0  0  0  0  0  0  0  0  0
   -4.8025  -31.7874   18.2874 C   0  0  0  0  0  0  0  0  0  0  0  0
   -8.2840  -25.9171    9.3778 C   0  0  0  0  0  0  0  0  0  0  0  0
   -5.6939  -30.3683   16.4127 C   0  0  0  0  0  0  0  0  0  0  0  0
   -7.4588  -27.2498   11.2689 C   0  0  0  0  0  0  0  0  0  0  0  0
   -6.5232  -29.0418   14.5132 C   0  0  0  0  0  0  0  0  0  0  0  0
   -9.6794  -23.2362    1.9394 C   0  0  0  0  0  0  0  0  0  0  0  0
   -7.4161  -27.6616   12.6659 C   0  0  0  0  0  0  0  0  0  0  0  0
   -6.5894  -28.6153   13.1257 C   0  0  0  0  0  0  0  0  0  0  0  0
  -10.9425  -23.4342    1.1516 C   0  0  0  0  0  0  0  0  0  0  0  0
   -2.2056  -35.9644   23.9844 C   0  0  0  0  0  0  0  0  0  0  0  0
   -3.7002  -34.1089   24.6264 C   0  0  0  0  0  0  0  0  0  0  0  0
  -12.0188  -22.3977    1.4884 C   0  0  0  0  0  0  0  0  0  0  0  0
   -1.1566  -36.0999   21.7301 C   0  0  0  0  0  0  0  0  0  0  0  0
   -8.2747  -22.1460    3.7146 C   0  0  0  0  0  0  0  0  0  0  0  0
   -3.9553  -32.2171   23.1107 C   0  0  0  0  0  0  0  0  0  0  0  0
   -5.5078  -34.2416   22.8905 C   0  0  0  0  0  0  0  0  0  0  0  0
   -3.4054  -35.5784   24.8304 C   0  0  0  0  0  0  0  0  0  0  0  0
  -12.8017  -23.5713    3.5824 C   0  0  0  0  0  0  0  0  0  0  0  0
  -13.2690  -21.1384    3.2626 C   0  0  0  0  0  0  0  0  0  0  0  0
   -2.9785  -33.4882   17.8219 C   0  0  0  0  0  0  0  0  0  0  0  0
  -10.9964  -22.8935    8.0654 C   0  0  0  0  0  0  0  0  0  0  0  0
   -9.2254  -25.5993   11.7663 C   0  0  0  0  0  0  0  0  0  0  0  0
   -4.7246  -30.7421   14.0829 C   0  0  0  0  0  0  0  0  0  0  0  0
  2  1  1  0
  3  9  2  0
  4  3  1  1
  5  1  2  0
  6  4  1  0
  7  1  1  0
  8  2  2  0
  9 14  1  0
 10  4  1  0
 11 18  1  0
 12 19  2  0
 13  8  1  0
 14 17  2  0
 15 20  1  0
 16 21  2  0
 17 12  1  0
 18 13  2  0
 19 16  1  0
 20 11  2  0
 21 24  1  0
 22 15  2  0
 23  6  2  0
 24 25  2  0
 25 22  1  0
 26 29  1  0
 26 23  1  0
 27  5  1  0
 28  7  1  0
 29 10  1  0
 30  5  1  0
 31  6  1  0
 32  7  1  0
 33  7  1  0
 34 28  1  0
 34 27  1  0
 35 10  1  0
 36 10  1  0
 37 13  1  0
 38 14  1  0
 39 16  1  0
 40 15  1  0
M  END
>  <DRUGBANK_ID>  (1) 
DB15909

>  <COMMON_NAME>  (1) 
alpha-Carotene

>  <CAS_NUMBER>  (1) 
7488-99-5

>  <UNII>  (1) 
45XWE1Z69V

>  <SYNONYMS>  (1) 
(6'R)-beta,epsilon-Carotene; (all-e)-1,3,3-trimethyl-2-(3,7,12,16-tetramethyl-18-(2,6,6-trimethyl-2-cyclohexen-1-yl)-1,3,5,7,9,11,13,15,17-octadecanonaenyl)cyclohexene; 1,3,3-trimethyl-2-((1e,3e,5e,7e,9e,11e,13e,15e,17e)-3,7,12,16-tetramethyl-18-(2,6,6-trimethyl-2-cyclohexen-1-yl)-1,3,5,7,9,11,13,15,17-octadecanonaen-1-yl)cyclohexene

$$$$
