
     RDKit          3D

 32 36  0  0  1  0  0  0  0  0999 V2000
   -6.9047    4.6162   12.7304 C   0  0  0  0  0  0  0  0  0  0  0  0
   -2.9137   -0.4042   11.2834 C   0  0  0  0  0  0  0  0  0  0  0  0
   -4.8840    3.2269    6.3306 C   0  0  0  0  0  0  0  0  0  0  0  0
   -8.1408   -0.1288   11.0481 C   0  0  0  0  0  0  0  0  0  0  0  0
   -2.9153   -0.3217    7.6192 C   0  0  0  0  0  0  0  0  0  0  0  0
   -4.2062   -1.0935    8.0073 C   0  0  0  0  0  0  0  0  0  0  0  0
   -2.3722    3.0675    5.6375 C   0  0  0  0  0  0  0  0  0  0  0  0
   -2.7959    2.8069    6.9238 C   0  0  0  0  0  0  0  0  0  0  0  0
   -2.9805    0.6243    5.3570 C   0  0  0  0  0  0  0  0  0  0  0  0
   -4.5192    1.4754   10.2804 C   0  0  0  0  0  0  0  0  0  0  0  0
   -7.5693    1.8136    9.5639 C   0  0  0  0  0  0  0  0  0  0  0  0
   -5.4365   -1.5161   12.2459 C   0  0  0  0  0  0  0  0  0  0  0  0
   -6.3971    3.2838   12.3446 C   0  0  0  0  0  0  0  0  0  0  0  0
   -2.9213   -1.6615   12.0017 C   0  0  0  0  0  0  0  0  0  0  0  0
   -3.4264    0.6900    6.6104 C   0  0  0  0  0  0  0  0  0  0  0  0
   -3.2107    1.9388    4.7967 C   0  0  0  0  0  0  0  0  0  0  0  0
   -5.2483    0.0241    8.4548 C   0  0  1  0  0  0  0  0  0  0  0  0
   -5.7447    0.2451    9.8339 C   0  0  2  0  0  0  0  0  0  0  0  0
   -6.4320    2.4246    8.7437 C   0  0  1  0  0  0  0  0  0  0  0  0
   -5.7267   -0.0666   12.8211 C   0  0  0  0  0  0  0  0  0  0  0  0
   -4.8909    1.9337   11.6279 C   0  0  2  0  0  0  0  0  0  0  0  0
   -5.4308    1.4324    7.8199 C   0  0  1  0  0  0  0  0  0  0  0  0
   -4.1333    2.0322    7.0933 C   0  0  2  0  0  0  0  0  0  0  0  0
   -6.9704    0.7743   10.5557 C   0  0  2  0  0  0  0  0  0  0  0  0
   -6.1759    1.1593   11.8946 C   0  0  1  0  0  0  0  0  0  0  0  0
   -6.9794    2.1568   12.6252 N   0  0  0  0  0  0  0  0  0  0  0  0
   -1.8630   -2.2648   12.1124 O   0  0  0  0  0  0  0  0  0  0  0  0
   -4.0543    2.1495    3.9375 O   0  0  0  0  0  0  0  0  0  0  0  0
   -6.4737    3.7931    8.4600 O   0  0  0  0  0  0  0  0  0  0  0  0
   -5.4353    0.1328   14.0063 O   0  0  0  0  0  0  0  0  0  0  0  0
   -4.1250   -2.1305   12.4321 O   0  0  0  0  0  0  0  0  0  0  0  0
   -5.2461    3.2974   11.6411 O   0  0  0  0  0  0  0  0  0  0  0  0
  6  5  1  0
  8  7  2  0
 13  1  1  0
 14  2  1  0
 15  5  1  0
 15  9  2  0
 16  7  1  0
 16  9  1  0
 17  6  1  6
 18 10  1  6
 18 17  1  0
 19 11  1  0
 19 29  1  6
 20 12  1  0
 21 10  1  6
 22 17  1  0
 22 19  1  1
 23  8  1  0
 23 15  1  0
 23 22  1  0
 23  3  1  6
 24 11  1  0
 24 18  1  0
 24  4  1  1
 25 21  1  0
 25 24  1  0
 25 20  1  1
 26 13  2  0
 26 25  1  0
 27 14  2  0
 28 16  2  0
 30 20  2  0
 31 12  1  0
 31 14  1  0
 32 13  1  0
 32 21  1  0
M  END
>  <DRUGBANK_ID>  (1) 
DB11921

>  <COMMON_NAME>  (1) 
Deflazacort

>  <CAS_NUMBER>  (1) 
14484-47-0

>  <UNII>  (1) 
KR5YZ6AE4B

>  <SYNONYMS>  (1) 
Deflazacort

$$$$
