
     RDKit          3D

 29 31  0  0  0  0  0  0  0  0999 V2000
    2.1519   -0.0564    0.0093 C   0  0  0  0  0  0  0  0  0  0  0  0
    0.6859    0.1149   -0.0208 C   0  0  0  0  0  0  0  0  0  0  0  0
    0.0498    1.2571   -0.0541 N   0  0  0  0  0  0  0  0  0  0  0  0
   -1.2756    0.9201    0.0121 C   0  0  0  0  0  0  0  0  0  0  0  0
   -1.4343   -0.4927    0.0175 C   0  0  0  0  0  0  0  0  0  0  0  0
   -0.1175   -0.9853   -0.0057 O   0  0  0  0  0  0  0  0  0  0  0  0
   -2.4734   -1.5615    0.0347 C   0  0  0  0  0  0  0  0  0  0  0  0
   -2.1956   -2.7686    0.0188 O   0  0  0  0  0  0  0  0  0  0  0  0
   -3.8461   -1.3413    0.0356 N   0  0  0  0  0  0  0  0  0  0  0  0
   -4.5205   -0.0715    0.1141 C   0  0  0  0  0  0  0  0  0  0  0  0
   -5.0492    0.4735   -1.2623 C   0  0  0  0  0  0  0  0  0  0  0  0
   -6.3900   -0.0493   -1.5952 C   0  0  0  0  0  0  0  0  0  0  0  0
   -6.4700   -1.4248   -1.7837 C   0  0  0  0  0  0  0  0  0  0  0  0
   -7.6719   -2.0407   -1.5030 C   0  0  0  0  0  0  0  0  0  0  0  0
   -8.7978   -1.2670   -1.1895 C   0  0  0  0  0  0  0  0  0  0  0  0
   -8.7212    0.1288   -1.1137 C   0  0  0  0  0  0  0  0  0  0  0  0
   -7.5136    0.7557   -1.3553 C   0  0  0  0  0  0  0  0  0  0  0  0
   -5.1398    0.1812    1.5919 C   0  0  0  0  0  0  0  0  0  0  0  0
   -4.5509    0.3564    2.6547 O   0  0  0  0  0  0  0  0  0  0  0  0
   -6.5961   -0.0432    1.8474 C   0  0  0  0  0  0  0  0  0  0  0  0
   -7.0107   -1.1756    1.2377 N   0  0  0  0  0  0  0  0  0  0  0  0
   -7.2604    0.6393    2.5665 O   0  0  0  0  0  0  0  0  0  0  0  0
   -2.2418    2.0395    0.0632 C   0  0  0  0  0  0  0  0  0  0  0  0
   -2.6168    2.7323   -1.0901 C   0  0  0  0  0  0  0  0  0  0  0  0
   -3.8331    3.4539   -1.1502 C   0  0  0  0  0  0  0  0  0  0  0  0
   -4.7249    3.4503   -0.0773 C   0  0  0  0  0  0  0  0  0  0  0  0
   -4.3240    2.8263    1.0969 C   0  0  0  0  0  0  0  0  0  0  0  0
   -3.0320    2.2199    1.1979 C   0  0  0  0  0  0  0  0  0  0  0  0
   -2.7058    1.4321    2.2332 F   0  0  0  0  0  0  0  0  0  0  0  0
  1  2  1  0
  2  3  2  0
  2  6  1  0
  3  4  1  0
  4  5  2  0
  4 23  1  0
  5  6  1  0
  5  7  1  0
  7  8  2  0
  7  9  1  0
  9 10  1  0
 10 11  1  0
 10 18  1  0
 11 12  1  0
 12 13  2  0
 12 17  1  0
 13 14  1  0
 14 15  2  0
 15 16  1  0
 16 17  2  0
 18 19  2  0
 18 20  1  0
 20 21  1  0
 20 22  2  0
 23 24  2  0
 23 28  1  0
 24 25  1  0
 25 26  2  0
 26 27  1  0
 27 28  2  0
 28 29  1  0
M  END
>  <DRUGBANK_ID>  (1) 
DB18301

>  <COMMON_NAME>  (1) 
Dazcapistat

>  <CAS_NUMBER>  (1) 
2221010-42-8

>  <UNII>  (1) 
AX895U92WU

>  <SYNONYMS>  (1) 
5-oxazolecarboxamide, n-(3-amino-2,3-dioxo-1-(phenylmethyl)propyl)-4-(2-fluorophenyl)-2-methyl-; N-(3-amino-2,3-dioxo-1-(phenylmethyl)propyl)-4-(2-fluorophenyl)-2-methyl-5-oxazolecarboxamide; N-(4-amino-3,4-dioxo-1-phenylbutan-2-yl)-4-(2-fluorophenyl)-2-methyloxazole-5-carboxamide

$$$$
