
     RDKit          3D

 28 32  0  0  0  0  0  0  0  0999 V2000
    0.9692   -0.1295    0.0845 C   0  0  0  0  0  0  0  0  0  0  0  0
    0.3682   -1.3174   -0.6839 C   0  0  0  0  0  0  0  0  0  0  0  0
    0.7272   -1.1537   -2.1658 C   0  0  0  0  0  0  0  0  0  0  0  0
    0.9571   -2.5413   -0.1827 O   0  0  0  0  0  0  0  0  0  0  0  0
    0.2708   -3.7248   -0.6235 C   0  0  0  0  0  0  0  0  0  0  0  0
   -1.1118   -3.7950    0.0166 C   0  0  0  0  0  0  0  0  0  0  0  0
   -1.7835   -2.5184   -0.1104 N   0  0  0  0  0  0  0  0  0  0  0  0
   -1.1239   -1.3552   -0.4422 C   0  0  0  0  0  0  0  0  0  0  0  0
   -1.9653   -0.3380   -0.4624 N   0  0  0  0  0  0  0  0  0  0  0  0
   -3.1987   -0.8591   -0.1019 C   0  0  0  0  0  0  0  0  0  0  0  0
   -4.4732   -0.2541    0.0484 C   0  0  0  0  0  0  0  0  0  0  0  0
   -5.5125   -1.0923    0.3851 N   0  0  0  0  0  0  0  0  0  0  0  0
   -5.2907   -2.4281    0.5407 C   0  0  0  0  0  0  0  0  0  0  0  0
   -4.0992   -3.0685    0.4363 N   0  0  0  0  0  0  0  0  0  0  0  0
   -3.1036   -2.2263    0.1086 C   0  0  0  0  0  0  0  0  0  0  0  0
   -6.4371   -3.2809    0.8873 C   0  0  0  0  0  0  0  0  0  0  0  0
   -7.5635   -3.4649    0.1094 C   0  0  0  0  0  0  0  0  0  0  0  0
   -8.6075   -4.2894    0.4271 N   0  0  0  0  0  0  0  0  0  0  0  0
   -8.5199   -4.9536    1.5816 C   0  0  0  0  0  0  0  0  0  0  0  0
   -9.5457   -5.7897    1.9423 N   0  0  0  0  0  0  0  0  0  0  0  0
   -7.4844   -4.8646    2.4143 N   0  0  0  0  0  0  0  0  0  0  0  0
   -6.4696   -4.0381    2.0408 C   0  0  0  0  0  0  0  0  0  0  0  0
   -4.7509    1.0568   -0.3037 N   0  0  0  0  0  0  0  0  0  0  0  0
   -5.2307    2.0497    0.6695 C   0  0  0  0  0  0  0  0  0  0  0  0
   -6.0923    3.0849   -0.0954 C   0  0  0  0  0  0  0  0  0  0  0  0
   -5.3697    3.6812   -1.1946 O   0  0  0  0  0  0  0  0  0  0  0  0
   -4.9076    2.6627   -2.1010 C   0  0  0  0  0  0  0  0  0  0  0  0
   -3.9740    1.6717   -1.3879 C   0  0  0  0  0  0  0  0  0  0  0  0
  1  2  1  0
  2  3  1  0
  2  4  1  0
  2  8  1  0
  4  5  1  0
  5  6  1  0
  6  7  1  0
  7  8  1  0
  7 15  1  0
  8  9  2  0
  9 10  1  0
 10 11  1  0
 10 15  2  0
 11 12  2  0
 11 23  1  0
 12 13  1  0
 13 14  2  0
 13 16  1  0
 14 15  1  0
 16 17  2  0
 16 22  1  0
 17 18  1  0
 18 19  2  0
 19 20  1  0
 19 21  1  0
 21 22  2  0
 23 24  1  0
 23 28  1  0
 24 25  1  0
 25 26  1  0
 26 27  1  0
 27 28  1  0
M  END
>  <DRUGBANK_ID>  (1) 
DB15186

>  <COMMON_NAME>  (1) 
Paxalisib

>  <CAS_NUMBER>  (1) 
1382979-44-3

>  <UNII>  (1) 
P5DKZ70636

>  <SYNONYMS>  (1) 
5-(6,6-dimethyl-4-morpholino-8,9-dihydro-6H-[1,4]oxazino[3,4-e]purin-2-yl)pyrimidin-2-amine

$$$$
