
     RDKit          3D

 35 36  0  0  0  0  0  0  0  0999 V2000
    0.9328   -0.6791    0.1652 C   0  0  0  0  0  0  0  0  0  0  0  0
    0.7497    1.7032   -1.8850 C   0  0  0  0  0  0  0  0  0  0  0  0
   -3.7290    4.4777    2.9321 C   0  0  0  0  0  0  0  0  0  0  0  0
    3.9332    4.4692   -0.6897 C   0  0  0  0  0  0  0  0  0  0  0  0
    3.2993    0.6045   -0.9538 C   0  0  0  0  0  0  0  0  0  0  0  0
   -2.4457    2.6445   -4.6941 C   0  0  0  0  0  0  0  0  0  0  0  0
   -0.5829   -3.4654   -1.2929 C   0  0  0  0  0  0  0  0  0  0  0  0
   -2.5081   -2.9517   -4.5022 C   0  0  0  0  0  0  0  0  0  0  0  0
   -1.3400    1.3420    3.0134 C   0  0  0  0  0  0  0  0  0  0  0  0
   -0.0687    4.8031    0.9146 C   0  0  0  0  0  0  0  0  0  0  0  0
    1.2162    4.7441    0.1007 C   0  0  0  0  0  0  0  0  0  0  0  0
   -2.7375    3.0678    1.4330 C   0  0  0  0  0  0  0  0  0  0  0  0
   -1.5301    0.6419    1.4976 C   0  0  0  0  0  0  0  0  0  0  0  0
   -1.9991    2.7250    3.5538 C   0  0  0  0  0  0  0  0  0  0  0  0
   -3.7719    2.2822    2.1215 C   0  0  0  0  0  0  0  0  0  0  0  0
    0.5007    2.6435    1.4780 C   0  0  0  0  0  0  0  0  0  0  0  0
   -2.0879    1.2683   -2.3120 C   0  0  0  0  0  0  0  0  0  0  0  0
   -1.5554   -0.7937   -1.1697 C   0  0  0  0  0  0  0  0  0  0  0  0
   -1.4871    2.8369   -0.0183 C   0  0  0  0  0  0  0  0  0  0  0  0
    0.3230    0.7532   -0.3910 C   0  0  0  0  0  0  0  0  0  0  0  0
   -0.6888    3.6474    1.6564 C   0  0  0  0  0  0  0  0  0  0  0  0
   -1.7147    0.6071   -1.1357 C   0  0  0  0  0  0  0  0  0  0  0  0
    2.0877    3.6447    0.0170 C   0  0  0  0  0  0  0  0  0  0  0  0
    1.7842    2.5384    0.6057 C   0  0  0  0  0  0  0  0  0  0  0  0
   -2.2245    0.5636   -3.5044 C   0  0  0  0  0  0  0  0  0  0  0  0
   -1.5910   -1.5056   -2.3411 C   0  0  0  0  0  0  0  0  0  0  0  0
   -2.0627   -0.8501   -3.4936 C   0  0  0  0  0  0  0  0  0  0  0  0
   -0.9804    1.4047    0.0330 C   0  0  0  0  0  0  0  0  0  0  0  0
   -1.9074    4.0250   -0.0608 N   0  0  0  0  0  0  0  0  0  0  0  0
   -3.4697    2.9485    3.3408 N   0  0  0  0  0  0  0  0  0  0  0  0
    3.2870    3.3117   -0.4643 O   0  0  0  0  0  0  0  0  0  0  0  0
    2.3063    1.3655   -0.1862 O   0  0  0  0  0  0  0  0  0  0  0  0
   -2.4462    1.2082   -4.7024 O   0  0  0  0  0  0  0  0  0  0  0  0
   -1.1521   -2.7993   -2.4080 O   0  0  0  0  0  0  0  0  0  0  0  0
   -2.4709   -1.5284   -4.6222 O   0  0  0  0  0  0  0  0  0  0  0  0
 11 10  2  0
 13  9  1  0
 14  9  1  0
 15 12  1  0
 20  1  1  0
 20  2  1  0
 21 10  1  0
 21 12  1  0
 21 16  2  0
 22 17  2  0
 22 18  1  0
 23 11  1  0
 24 16  1  0
 24 23  2  0
 25 17  1  0
 26 18  2  0
 27 25  2  0
 27 26  1  0
 28 13  1  0
 28 19  1  0
 28 20  1  0
 28 22  1  0
 29 19  3  0
 30  3  1  0
 30 14  1  0
 30 15  1  0
 31  4  1  0
 31 23  1  0
 32  5  1  0
 32 24  1  0
 33  6  1  0
 33 25  1  0
 34  7  1  0
 34 26  1  0
 35  8  1  0
 35 27  1  0
M  END
>  <DRUGBANK_ID>  (1) 
DB12923

>  <COMMON_NAME>  (1) 
Gallopamil

>  <CAS_NUMBER>  (1) 
16662-47-8

>  <UNII>  (1) 
39WPC8JHR8

>  <SYNONYMS>  (1) 
Gallopamil

$$$$
