
     RDKit          3D

 28 30  0  0  0  0  0  0  0  0999 V2000
   -2.8688   -0.5999    0.7658 C   0  0  0  0  0  0  0  0  0  0  0  0
   -2.9168    0.7579    1.1753 C   0  0  0  0  0  0  0  0  0  0  0  0
   -1.6569    1.4093    1.3370 C   0  0  0  0  0  0  0  0  0  0  0  0
   -1.6369   -1.3612    0.8411 C   0  0  0  0  0  0  0  0  0  0  0  0
    1.9458    1.2190    0.0841 N   0  0  0  0  0  0  0  0  0  0  0  0
    2.2387    0.0283   -0.7530 C   0  0  0  0  0  0  0  0  0  0  0  0
    2.0168   -1.2747    0.1464 C   0  0  0  0  0  0  0  0  0  0  0  0
    0.9621    1.4581    0.8932 C   0  0  0  0  0  0  0  0  0  0  0  0
   -0.3554    0.6503    1.2270 C   0  0  0  0  0  0  0  0  0  0  0  0
   -0.3571   -0.7606    1.1097 C   0  0  0  0  0  0  0  0  0  0  0  0
    0.8208   -1.5482    0.8213 N   0  0  0  0  0  0  0  0  0  0  0  0
    2.8992   -2.1454    0.1878 O   0  0  0  0  0  0  0  0  0  0  0  0
    1.8213    0.0157   -2.1877 O   0  0  0  0  0  0  0  0  0  0  0  0
    0.5390   -0.0144   -2.6322 C   0  0  0  0  0  0  0  0  0  0  0  0
   -0.4322   -0.0133   -1.5870 C   0  0  0  0  0  0  0  0  0  0  0  0
    0.1342   -0.0987   -3.7766 O   0  0  0  0  0  0  0  0  0  0  0  0
   -1.2138    1.2255   -1.4257 C   0  0  0  0  0  0  0  0  0  0  0  0
   -2.3428    1.4533   -2.3060 C   0  0  0  0  0  0  0  0  0  0  0  0
   -3.5589    1.0775   -1.8862 O   0  0  0  0  0  0  0  0  0  0  0  0
   -2.1687    1.9685   -3.4257 O   0  0  0  0  0  0  0  0  0  0  0  0
    1.0177    2.7354    1.6259 C   0  0  0  0  0  0  0  0  0  0  0  0
    1.3582    3.9532    1.0018 C   0  0  0  0  0  0  0  0  0  0  0  0
    1.3846    5.0969    1.7970 C   0  0  0  0  0  0  0  0  0  0  0  0
    0.8832    5.0422    3.1014 C   0  0  0  0  0  0  0  0  0  0  0  0
    0.3748    3.8656    3.6281 C   0  0  0  0  0  0  0  0  0  0  0  0
    0.5959    2.6912    2.9620 C   0  0  0  0  0  0  0  0  0  0  0  0
    0.3288    1.2551    3.9108 Cl  0  0  0  0  0  0  0  0  0  0  0  0
   -4.5052    1.8485    0.8627 Br  0  0  0  0  0  0  0  0  0  0  0  0
  1  2  2  0
  2  3  1  0
  2 28  1  0
  3  9  2  0
  4  1  1  0
  5  6  1  0
  5  8  2  0
  6  7  1  0
  6 13  1  0
  7 12  2  0
  8  9  1  0
  8 21  1  0
  9 10  1  0
 10  4  2  0
 10 11  1  0
 11  7  1  0
 13 14  1  0
 14 15  1  0
 14 16  2  0
 15 17  1  0
 17 18  1  0
 18 19  1  0
 18 20  2  0
 21 22  2  0
 22 23  1  0
 23 24  2  0
 24 25  1  0
 25 26  2  0
 26 21  1  0
 26 27  1  0
M  END
>  <DRUGBANK_ID>  (1) 
DB14715

>  <COMMON_NAME>  (1) 
Cinazepam

>  <CAS_NUMBER>  (1) 
172986-25-3

>  <UNII>  (1) 
U4SS7UFXC7

$$$$
