
     RDKit          3D

 23 24  0  0  0  0  0  0  0  0999 V2000
    0.8965    0.0189    0.0782 C   0  0  0  0  0  0  0  0  0  0  0  0
    0.3456    1.3607   -0.3705 C   0  0  0  0  0  0  0  0  0  0  0  0
    0.7848    1.6100   -1.8074 C   0  0  0  0  0  0  0  0  0  0  0  0
   -0.2832    1.8399   -3.0587 C   0  0  0  0  0  0  0  0  0  0  0  0
    0.2163    3.2339   -3.6208 C   0  0  0  0  0  0  0  0  0  0  0  0
    1.9997    1.7596   -1.8736 O   0  0  0  0  0  0  0  0  0  0  0  0
   -0.4039    0.7541   -4.3159 C   0  0  0  0  0  0  0  0  0  0  0  0
   -1.6647    1.8662   -2.3933 C   0  0  0  0  0  0  0  0  0  0  0  0
    0.0486    1.0239   -5.6266 C   0  0  0  0  0  0  0  0  0  0  0  0
   -0.7896   -0.5894   -4.1510 C   0  0  0  0  0  0  0  0  0  0  0  0
    0.5526   -0.0165   -6.4455 C   0  0  0  0  0  0  0  0  0  0  0  0
   -0.3838   -1.6281   -4.9929 C   0  0  0  0  0  0  0  0  0  0  0  0
    0.3573   -1.3479   -6.1157 C   0  0  0  0  0  0  0  0  0  0  0  0
   -2.1594    0.6475   -1.8758 C   0  0  0  0  0  0  0  0  0  0  0  0
   -2.4003    3.0120   -2.1329 C   0  0  0  0  0  0  0  0  0  0  0  0
   -3.4340    0.4962   -1.3897 C   0  0  0  0  0  0  0  0  0  0  0  0
   -3.6059    2.8969   -1.4417 C   0  0  0  0  0  0  0  0  0  0  0  0
   -4.1569    1.6432   -1.1531 C   0  0  0  0  0  0  0  0  0  0  0  0
    1.7479    3.4129   -4.0499 C   0  0  0  0  0  0  0  0  0  0  0  0
    2.3100    2.3429   -4.9021 N   0  0  0  0  0  0  0  0  0  0  0  0
    1.8164    4.8215   -4.6929 C   0  0  0  0  0  0  0  0  0  0  0  0
    3.4929    2.6013   -5.6931 C   0  0  0  0  0  0  0  0  0  0  0  0
    2.5545    1.0340   -4.2669 C   0  0  0  0  0  0  0  0  0  0  0  0
  2  1  1  0
  3  2  1  0
  3  6  2  0
  4  3  1  0
  5  4  1  0
  5 19  1  0
  7  4  1  0
  8  4  1  0
  9  7  2  0
 10  7  1  0
 11  9  1  0
 12 10  2  0
 13 11  2  0
 13 12  1  0
 14  8  2  0
 15  8  1  0
 16 14  1  0
 17 15  2  0
 18 16  2  0
 18 17  1  0
 19 20  1  0
 19 21  1  0
 20 22  1  0
 20 23  1  0
M  END
>  <DRUGBANK_ID>  (1) 
DB00333

>  <SECONDARY_ACCESSION_NUMBERS>  (1) 
APRD00485

>  <COMMON_NAME>  (1) 
Methadone

>  <CAS_NUMBER>  (1) 
76-99-3

>  <UNII>  (1) 
UC6VBE7V1Z

>  <SYNONYMS>  (1) 
(+-)-Methadone; (+/-)-Methadone; (Â±)-methadone; 6-Dimethylamino-4,4-diphenyl-3-heptanone; dl-Methadone; Metadona; Methadone; Methadonum

$$$$
