
     RDKit          3D

 28 29  0  0  0  0  0  0  0  0999 V2000
   -1.8857    0.0398   -0.0101 C   0  0  0  0  0  0  0  0  0  0  0  0
   -1.1700   -1.1599    0.0113 C   0  0  0  0  0  0  0  0  0  0  0  0
    0.2339   -1.1998    0.0372 C   0  0  0  0  0  0  0  0  0  0  0  0
    0.9416    0.0004    0.0284 C   0  0  0  0  0  0  0  0  0  0  0  0
    0.2597    1.2253    0.0203 C   0  0  0  0  0  0  0  0  0  0  0  0
   -1.1436    1.2284    0.0014 C   0  0  0  0  0  0  0  0  0  0  0  0
    0.9861    2.4900    0.0433 C   0  0  0  0  0  0  0  0  0  0  0  0
    0.8506    3.3823    1.1003 C   0  0  0  0  0  0  0  0  0  0  0  0
    1.5336    4.5432    1.2056 N   0  0  0  0  0  0  0  0  0  0  0  0
    2.4237    4.8395    0.2034 C   0  0  0  0  0  0  0  0  0  0  0  0
    2.6070    4.0029   -0.8847 C   0  0  0  0  0  0  0  0  0  0  0  0
    1.8848    2.8266   -0.9742 C   0  0  0  0  0  0  0  0  0  0  0  0
   -3.4153    0.0778   -0.0429 C   0  0  0  0  0  0  0  0  0  0  0  0
   -3.9337    0.8174    1.2061 C   0  0  0  0  0  0  0  0  0  0  0  0
   -3.8835    0.8168   -1.3125 C   0  0  0  0  0  0  0  0  0  0  0  0
   -4.0465   -1.3314   -0.0560 C   0  0  0  0  0  0  0  0  0  0  0  0
    0.8749   -2.5531    0.0263 C   0  0  0  0  0  0  0  0  0  0  0  0
    0.5407   -3.3350    1.2170 N   0  0  0  0  0  0  0  0  0  0  0  0
    1.2345   -4.6339    1.2701 C   0  0  0  0  0  0  0  0  0  0  0  0
    2.7609   -4.4439    1.3305 C   0  0  0  0  0  0  0  0  0  0  0  0
    0.7885   -5.3608    2.5506 C   0  0  0  0  0  0  0  0  0  0  0  0
    0.8431   -5.4983    0.0600 C   0  0  0  0  0  0  0  0  0  0  0  0
    2.3117    0.0635    0.0359 O   0  0  0  0  0  0  0  0  0  0  0  0
    3.4773    4.2935   -1.8628 F   0  0  0  0  0  0  0  0  0  0  0  0
    3.2255    6.1147    0.3074 C   0  0  0  0  0  0  0  0  0  0  0  0
    4.0869    6.3344   -0.7277 F   0  0  0  0  0  0  0  0  0  0  0  0
    2.4349    7.2264    0.3569 F   0  0  0  0  0  0  0  0  0  0  0  0
    3.9991    6.1582    1.4314 F   0  0  0  0  0  0  0  0  0  0  0  0
  1  2  2  0
  1 13  1  0
  2  3  1  0
  3  4  2  0
  3 17  1  0
  4  5  1  0
  4 23  1  0
  5  6  2  0
  5  7  1  0
  6  1  1  0
  7  8  2  0
  8  9  1  0
  9 10  2  0
 10 11  1  0
 10 25  1  0
 11 12  2  0
 11 24  1  0
 12  7  1  0
 13 14  1  0
 13 15  1  0
 13 16  1  0
 17 18  1  0
 18 19  1  0
 19 20  1  0
 19 21  1  0
 19 22  1  0
 25 27  1  0
 25 28  1  0
 25 26  1  0
M  END
>  <DRUGBANK_ID>  (1) 
DB15609

>  <COMMON_NAME>  (1) 
JPC-3210

>  <CAS_NUMBER>  (1) 
1609655-35-7

$$$$
