
     RDKit          3D

 14 15  0  0  1  0  0  0  0  0999 V2000
    0.9386   -0.1244    0.0446 C   0  0  0  0  0  0  0  0  0  0  0  0
    0.3603   -0.1886   -1.3832 C   0  0  2  0  0  0  0  0  0  0  0  0
   -0.6634    0.9539   -1.6211 C   0  0  1  0  0  0  0  0  0  0  0  0
   -1.4818    0.7134   -2.8973 C   0  0  1  0  0  0  0  0  0  0  0  0
   -2.2656   -0.6076   -2.7671 C   0  0  2  0  0  0  0  0  0  0  0  0
   -1.3665   -1.7158   -2.3961 C   0  0  0  0  0  0  0  0  0  0  0  0
   -1.5286   -3.0226   -2.4809 N   0  0  0  0  0  0  0  0  0  0  0  0
   -0.4058   -3.5790   -1.9146 N   0  0  0  0  0  0  0  0  0  0  0  0
    0.4342   -2.6415   -1.4901 N   0  0  0  0  0  0  0  0  0  0  0  0
   -0.1899   -1.4815   -1.7503 N   0  0  0  0  0  0  0  0  0  0  0  0
    0.5226   -1.1775    0.9026 O   0  0  0  0  0  0  0  0  0  0  0  0
   -1.6056    1.0695   -0.5428 O   0  0  0  0  0  0  0  0  0  0  0  0
   -2.4050    1.7988   -3.0837 O   0  0  0  0  0  0  0  0  0  0  0  0
   -2.8893   -0.9047   -4.0109 O   0  0  0  0  0  0  0  0  0  0  0  0
  2  1  1  1
  3  2  1  0
  3 12  1  1
  4  3  1  0
  4 13  1  1
  5  4  1  0
  5 14  1  6
  6  5  1  0
  7  6  2  0
  8  7  1  0
  9  8  2  0
 10  2  1  0
 10  6  1  0
 10  9  1  0
 11  1  1  0
M  END
>  <DRUGBANK_ID>  (1) 
DB02294

>  <SECONDARY_ACCESSION_NUMBERS>  (1) 
EXPT01666

>  <COMMON_NAME>  (1) 
(5R,6S,7S,8S)-5-hydroxymethyl-6,7,8-trihydroxy-tetrazolo[1,5-A]piperidine

$$$$
