
     RDKit          3D

 34 37  0  0  0  0  0  0  0  0999 V2000
    0.2931   -0.7881    0.2044 C   0  0  0  0  0  0  0  0  0  0  0  0
   -0.0256   -0.0177   -1.0604 C   0  0  0  0  0  0  0  0  0  0  0  0
    1.5522   -0.9767   -2.1441 C   0  0  0  0  0  0  0  0  0  0  0  0
    2.5794    0.4889   -3.2127 C   0  0  0  0  0  0  0  0  0  0  0  0
    2.1615    2.4806   -3.1386 C   0  0  0  0  0  0  0  0  0  0  0  0
    0.9430    3.4368   -2.2661 C   0  0  0  0  0  0  0  0  0  0  0  0
   -0.2893    2.0866   -1.1360 C   0  0  0  0  0  0  0  0  0  0  0  0
    2.6590    2.9549   -4.2780 C   0  0  0  0  0  0  0  0  0  0  0  0
    2.0746    2.5570   -5.5232 C   0  0  0  0  0  0  0  0  0  0  0  0
    2.6080    3.2586   -6.4920 C   0  0  0  0  0  0  0  0  0  0  0  0
    3.5728    4.1693   -6.0133 C   0  0  0  0  0  0  0  0  0  0  0  0
    4.1352    4.4503   -4.6908 C   0  0  0  0  0  0  0  0  0  0  0  0
    3.6475    3.7394   -3.7755 N   0  0  0  0  0  0  0  0  0  0  0  0
    5.3905    5.2244   -4.3743 C   0  0  0  0  0  0  0  0  0  0  0  0
    5.0554    6.6105   -4.8982 C   0  0  0  0  0  0  0  0  0  0  0  0
    4.5163    6.4837   -6.3301 C   0  0  0  0  0  0  0  0  0  0  0  0
    5.5399    5.5756   -7.1071 O   0  0  0  0  0  0  0  0  0  0  0  0
    6.0649    4.1899   -6.5094 C   0  0  0  0  0  0  0  0  0  0  0  0
    6.5292    4.4805   -5.0998 C   0  0  0  0  0  0  0  0  0  0  0  0
    5.2276    2.7153   -6.5565 C   0  0  0  0  0  0  0  0  0  0  0  0
    7.0596    3.6028   -7.4670 C   0  0  0  0  0  0  0  0  0  0  0  0
    2.8264    6.2496   -6.4640 C   0  0  0  0  0  0  0  0  0  0  0  0
    4.3542    7.8428   -6.9857 C   0  0  0  0  0  0  0  0  0  0  0  0
    1.1234    1.5734   -5.9198 N   0  0  0  0  0  0  0  0  0  0  0  0
    0.2296    0.8618   -5.1601 C   0  0  0  0  0  0  0  0  0  0  0  0
   -0.4812   -0.0203   -5.6287 O   0  0  0  0  0  0  0  0  0  0  0  0
    0.3219    1.1050   -3.7995 C   0  0  0  0  0  0  0  0  0  0  0  0
    0.6649    0.5205   -2.6832 N   0  0  0  0  0  0  0  0  0  0  0  0
    1.9027    0.7343   -1.2414 C   0  0  0  0  0  0  0  0  0  0  0  0
    1.6122    1.9015   -1.3610 C   0  0  0  0  0  0  0  0  0  0  0  0
    0.3256    1.8880   -2.8677 N   0  0  0  0  0  0  0  0  0  0  0  0
    2.1297    0.7634    0.3330 C   0  0  0  0  0  0  0  0  0  0  0  0
    2.1086    0.7494    1.5071 N   0  0  0  0  0  0  0  0  0  0  0  0
   -1.4239   -0.4192   -1.6375 C   0  0  0  0  0  0  0  0  0  0  0  0
  1  2  1  0
  2  3  1  0
  2  7  1  0
  2 34  1  0
  3  4  1  0
  4  5  1  0
  5  6  2  0
  5  8  1  0
  6  7  1  0
  8  9  1  0
  8 13  2  0
  9 10  2  0
  9 24  1  0
 10 11  1  0
 11 12  2  0
 12 13  1  0
 12 14  1  0
 14 15  1  0
 14 19  1  0
 15 16  1  0
 16 17  1  0
 16 22  1  0
 16 23  1  0
 17 18  1  0
 18 19  1  0
 18 20  1  0
 18 21  1  0
 24 25  1  0
 25 26  2  0
 25 27  1  0
 27 28  1  0
 27 31  2  0
 28 29  1  0
 29 30  2  0
 29 32  1  0
 30 31  1  0
 32 33  3  0
M  END
>  <DRUGBANK_ID>  (1) 
DB12504

>  <COMMON_NAME>  (1) 
JNJ-40346527

>  <CAS_NUMBER>  (1) 
1142363-52-7

>  <UNII>  (1) 
3NU609VYNF

$$$$
