
     RDKit          3D

 38 41  0  0  1  0  0  0  0  0999 V2000
    1.0806    0.0426    0.0411 H   0  0  0  0  0  0  0  0  0  0  0  0
    2.1506    0.0426    0.0411 C   0  0  2  0  0  0  0  0  0  0  0  0
    2.6573    1.3953    0.5143 C   0  0  0  0  0  0  0  0  0  0  0  0
    2.6406   -1.0078    0.9452 N   0  0  0  0  0  0  0  0  0  0  0  0
    3.4857   -2.0914    0.4232 C   0  0  0  0  0  0  0  0  0  0  0  0
    3.9094   -2.9996    1.2049 O   0  0  0  0  0  0  0  0  0  0  0  0
    3.8529   -2.1258   -1.0513 C   0  0  0  0  0  0  0  0  0  0  0  0
    2.6696   -2.2072   -1.8320 O   0  0  0  0  0  0  0  0  0  0  0  0
    1.9596   -3.3895   -1.4934 C   0  0  0  0  0  0  0  0  0  0  0  0
    2.7242   -4.4505   -1.7353 F   0  0  0  0  0  0  0  0  0  0  0  0
    1.6383   -3.3594   -0.2031 F   0  0  0  0  0  0  0  0  0  0  0  0
    2.6573   -0.2240   -1.3670 C   0  0  0  0  0  0  0  0  0  0  0  0
    3.0638    0.8314   -2.1629 C   0  0  0  0  0  0  0  0  0  0  0  0
    3.4706    0.5535   -3.4506 C   0  0  0  0  0  0  0  0  0  0  0  0
    3.8694    1.5804   -4.2460 F   0  0  0  0  0  0  0  0  0  0  0  0
    3.5226   -0.7344   -3.9595 C   0  0  0  0  0  0  0  0  0  0  0  0
    3.0942   -1.7520   -3.1375 C   0  0  0  0  0  0  0  0  0  0  0  0
    3.0912   -3.4181   -3.6861 Cl  0  0  0  0  0  0  0  0  0  0  0  0
    2.6586   -1.5145   -1.8448 C   0  0  0  0  0  0  0  0  0  0  0  0
    2.1887   -2.6625   -0.9663 C   0  0  0  0  0  0  0  0  0  0  0  0
    1.0829   -3.3071   -1.5812 O   0  0  0  0  0  0  0  0  0  0  0  0
   -0.1034   -2.5760   -1.8539 C   0  0  0  0  0  0  0  0  0  0  0  0
   -1.3126   -3.1295   -1.5452 C   0  0  0  0  0  0  0  0  0  0  0  0
   -2.5054   -2.4173   -1.8075 C   0  0  0  0  0  0  0  0  0  0  0  0
   -2.4725   -1.1736   -2.3588 C   0  0  0  0  0  0  0  0  0  0  0  0
   -1.2319   -0.5918   -2.6798 C   0  0  0  0  0  0  0  0  0  0  0  0
   -1.0944    0.6933   -3.2426 C   0  0  0  0  0  0  0  0  0  0  0  0
    0.1396    1.1833   -3.5280 C   0  0  0  0  0  0  0  0  0  0  0  0
    1.2885    0.4027   -3.2667 C   0  0  0  0  0  0  0  0  0  0  0  0
    2.6497    0.9209   -3.6118 C   0  0  0  0  0  0  0  0  0  0  0  0
    1.2070   -0.7954   -2.7294 N   0  0  0  0  0  0  0  0  0  0  0  0
   -0.0300   -1.2836   -2.4347 C   0  0  0  0  0  0  0  0  0  0  0  0
   -2.3291    1.5318   -3.5305 C   0  0  0  0  0  0  0  0  0  0  0  0
   -3.2311    1.9319   -2.6342 N   0  0  0  0  0  0  0  0  0  0  0  0
   -4.1397    2.6248   -3.3870 C   0  0  0  0  0  0  0  0  0  0  0  0
   -3.8548    2.6918   -4.6798 N   0  0  0  0  0  0  0  0  0  0  0  0
   -2.6864    1.9844   -4.7522 N   0  0  0  0  0  0  0  0  0  0  0  0
   -2.0843    1.7613   -6.0738 C   0  0  0  0  0  0  0  0  0  0  0  0
  2  1  1  6
  2  3  1  0
  2  4  1  0
  2 12  1  0
  4  5  1  0
  5  6  2  0
  5  7  1  0
  7  8  1  0
  8  9  1  0
  9 10  1  0
  9 11  1  0
 12 13  2  0
 12 19  1  0
 13 14  1  0
 14 15  1  0
 14 16  2  0
 16 17  1  0
 17 18  1  0
 17 19  2  0
 19 20  1  0
 20 21  1  0
 21 22  1  0
 22 23  2  0
 22 32  1  0
 23 24  1  0
 24 25  2  0
 25 26  1  0
 26 27  1  0
 26 32  2  0
 27 28  2  0
 27 33  1  0
 28 29  1  0
 29 30  1  0
 29 31  2  0
 31 32  1  0
 33 34  2  0
 33 37  1  0
 34 35  1  0
 35 36  2  0
 36 37  1  0
 37 38  1  0
M  ISO  1   1   2
M  END
>  <DRUGBANK_ID>  (1) 
DB18303

>  <COMMON_NAME>  (1) 
Deucrictibant

>  <CAS_NUMBER>  (1) 
2340111-58-0

>  <UNII>  (1) 
69GCA2KX22

>  <SYNONYMS>  (1) 
Acetamide, N-[(1S)-1-[3-chloro-5-fluoro-2-[[[2-methyl-4-(1-methyl-1H-1,2,4-triazol-5- yl)-8-quinolinyl]oxy]methyl]phenyl]ethyl-1-d]-2-(difluoromethoxy)-; N-[(1S)-1-[3-chloro-5-fluoro-2-({[2-methyl-4-(1-methyl-1H-1,2,4-triazol-5-yl)quinolin-8-yl]oxy}methyl)phenyl](1-2H)ethyl]-2-(difluoromethoxy)acetamide; N-{(1S)-1-[3-chloro-5-fluoro-2-({[2-methyl-4-(1-methyl-1H-1,2,4-triazol-5-yl)quinolin-8- yl]oxy}methyl)phenyl](1-2H)ethyl}-2-(difluoromethoxy)acetamide

$$$$
