ZYT
     RDKit          3D

 14 15  0  0  0  0  0  0  0  0999 V2000
    0.9315   -0.0191    0.1566 C   0  0  0  0  0  0  0  0  0  0  0  0
    0.4490    0.0767    1.8980 S   0  0  0  0  0  0  0  0  0  0  0  0
    0.8729   -1.4908    2.4782 C   0  0  0  0  0  0  0  0  0  0  0  0
    1.6296   -1.6331    3.6105 N   0  0  0  0  0  0  0  0  0  0  0  0
    0.4873   -2.6455    1.9925 N   0  0  0  0  0  0  0  0  0  0  0  0
    1.0329   -3.5586    2.8371 C   0  0  0  0  0  0  0  0  0  0  0  0
    0.8893   -4.8740    2.7016 O   0  0  0  0  0  0  0  0  0  0  0  0
    1.7233   -2.9788    3.8800 C   0  0  0  0  0  0  0  0  0  0  0  0
    2.4172   -3.5745    5.0587 C   0  0  0  0  0  0  0  0  0  0  0  0
    1.4748   -4.3212    5.9736 C   0  0  0  0  0  0  0  0  0  0  0  0
    0.6484   -5.3948    5.6877 C   0  0  0  0  0  0  0  0  0  0  0  0
   -0.1253   -5.8191    6.7995 C   0  0  0  0  0  0  0  0  0  0  0  0
    0.1816   -5.1005    7.9292 C   0  0  0  0  0  0  0  0  0  0  0  0
    1.3499   -3.8875    7.6285 S   0  0  0  0  0  0  0  0  0  0  0  0
  1  2  1  0
  2  3  1  0
  3  4  1  0
  3  5  2  0
  4  8  1  0
  5  6  1  0
  6  7  1  0
  6  8  2  0
  8  9  1  0
  9 10  1  0
 10 11  2  0
 10 14  1  0
 11 12  1  0
 12 13  2  0
 13 14  1  0
M  END
>  <DRUGBANK_ID>  (1) 
DB08779

>  <COMMON_NAME>  (1) 
2-(methylsulfanyl)-5-(thiophen-2-ylmethyl)-1H-imidazol-4-ol

$$$$
