
     RDKit          3D

 36 37  0  0  0  0  0  0  0  0999 V2000
   -2.9454  -25.4154    0.8396 C   0  0  0  0  0  0  0  0  0  0  0  0
   -3.0432  -23.9812    0.3453 C   0  0  0  0  0  0  0  0  0  0  0  0
   -4.5058  -23.5886    0.1294 C   0  0  0  0  0  0  0  0  0  0  0  0
   -5.3103  -23.6866    1.4306 C   0  0  0  0  0  0  0  0  0  0  0  0
   -4.7178  -22.7759    2.5119 C   0  0  0  0  0  0  0  0  0  0  0  0
   -4.7590  -21.3092    2.0678 C   0  0  0  0  0  0  0  0  0  0  0  0
   -6.2040  -20.8508    1.8304 C   0  0  0  0  0  0  0  0  0  0  0  0
   -7.0602  -21.0276    3.0843 C   0  0  0  0  0  0  0  0  0  0  0  0
   -6.4785  -20.2253    4.1991 C   0  0  0  0  0  0  0  0  0  0  0  0
   -7.1571  -19.2511    4.7962 C   0  0  0  0  0  0  0  0  0  0  0  0
   -6.5194  -18.3374    5.7882 C   0  0  0  0  0  0  0  0  0  0  0  0
   -6.6032  -16.8986    5.2783 C   0  0  0  0  0  0  0  0  0  0  0  0
   -8.0594  -16.4664    5.0705 C   0  0  0  0  0  0  0  0  0  0  0  0
   -8.8527  -16.6207    6.3729 C   0  0  0  0  0  0  0  0  0  0  0  0
   -8.2602  -15.7306    7.4725 C   0  0  0  0  0  0  0  0  0  0  0  0
   -8.3674  -14.2623    7.0777 C   0  0  0  0  0  0  0  0  0  0  0  0
   -9.8264  -13.9240    6.8037 C   0  0  0  0  0  0  0  0  0  0  0  0
  -10.6488  -13.9645    8.0562 C   0  0  0  0  0  0  0  0  0  0  0  0
  -11.0223  -12.7950    8.6115 O   0  0  0  0  0  0  0  0  0  0  0  0
  -11.0903  -11.5279    7.9225 C   0  0  0  0  0  0  0  0  0  0  0  0
   -9.7313  -10.8116    7.8167 C   0  0  1  0  0  0  0  0  0  0  0  0
   -9.4395  -10.1889    4.5854 N   0  0  0  0  0  0  0  0  0  0  0  0
   -8.6037  -10.1704    5.8103 C   0  0  1  0  0  0  0  0  0  0  0  0
   -9.1804   -9.2276    3.6036 C   0  0  0  0  0  0  0  0  0  0  0  0
  -10.0089   -9.1361    2.5138 N   0  0  0  0  0  0  0  0  0  0  0  0
   -8.7494   -8.9461    6.7451 C   0  0  2  0  0  0  0  0  0  0  0  0
   -8.9338  -11.2649    6.6952 O   0  0  0  0  0  0  0  0  0  0  0  0
  -10.5002  -11.0500    4.4080 C   0  0  0  0  0  0  0  0  0  0  0  0
   -9.9491   -9.3292    7.5924 C   0  0  2  0  0  0  0  0  0  0  0  0
  -11.4353  -10.8365    3.4898 C   0  0  0  0  0  0  0  0  0  0  0  0
  -11.0833   -9.8605    2.4534 C   0  0  0  0  0  0  0  0  0  0  0  0
   -8.2444   -8.4314    3.7431 O   0  0  0  0  0  0  0  0  0  0  0  0
   -8.9177   -7.6564    6.1955 O   0  0  0  0  0  0  0  0  0  0  0  0
  -11.8972   -9.7390    1.3671 N   0  0  0  0  0  0  0  0  0  0  0  0
  -10.0416   -8.6280    8.8249 O   0  0  0  0  0  0  0  0  0  0  0  0
  -10.9270  -15.0257    8.6070 O   0  0  0  0  0  0  0  0  0  0  0  0
  1  2  1  0
  2  3  1  0
  3  4  1  0
  4  5  1  0
  5  6  1  0
  6  7  1  0
  7  8  1  0
  8  9  1  0
  9 10  2  0
 10 11  1  0
 11 12  1  0
 12 13  1  0
 13 14  1  0
 14 15  1  0
 15 16  1  0
 16 17  1  0
 17 18  1  0
 18 19  1  0
 18 36  2  0
 19 20  1  0
 21 27  1  0
 21 29  1  0
 21 20  1  6
 23 22  1  6
 24 22  1  0
 25 24  1  0
 26 23  1  0
 26 33  1  6
 27 23  1  0
 28 22  1  0
 29 26  1  0
 29 35  1  1
 30 28  2  0
 31 30  1  0
 31 25  2  0
 32 24  2  0
 34 31  1  0
M  END
>  <DRUGBANK_ID>  (1) 
DB05494

>  <COMMON_NAME>  (1) 
Elacytarabine

>  <CAS_NUMBER>  (1) 
188181-42-2

>  <UNII>  (1) 
TA7WJG93AR

>  <SYNONYMS>  (1) 
Elacytarabine

$$$$
