
     RDKit          3D

 21 23  0  0  0  0  0  0  0  0999 V2000
   -1.5577    0.1554    0.0051 N   0  0  0  0  0  0  0  0  0  0  0  0
   -1.3123   -1.0328   -0.8042 C   0  0  0  0  0  0  0  0  0  0  0  0
    0.1685   -0.9982   -1.1560 C   0  0  0  0  0  0  0  0  0  0  0  0
    0.8203    0.2397   -1.6549 N   0  0  0  0  0  0  0  0  0  0  0  0
    0.4707    1.3690   -0.7682 C   0  0  0  0  0  0  0  0  0  0  0  0
   -1.0654    1.4162   -0.6118 C   0  0  0  0  0  0  0  0  0  0  0  0
   -2.6367    0.1299    0.8940 C   0  0  0  0  0  0  0  0  0  0  0  0
   -2.6401   -0.5750    2.1252 C   0  0  0  0  0  0  0  0  0  0  0  0
   -3.7603   -0.3675    2.9956 C   0  0  0  0  0  0  0  0  0  0  0  0
   -4.8389    0.4434    2.6332 C   0  0  0  0  0  0  0  0  0  0  0  0
   -4.8600    1.0648    1.4070 C   0  0  0  0  0  0  0  0  0  0  0  0
   -3.7631    0.8959    0.5384 C   0  0  0  0  0  0  0  0  0  0  0  0
   -1.4583   -1.7831    2.8343 S   0  0  0  0  0  0  0  0  0  0  0  0
    0.1922   -1.6906    2.1119 C   0  0  0  0  0  0  0  0  0  0  0  0
    0.9899   -0.5252    2.0384 C   0  0  0  0  0  0  0  0  0  0  0  0
    2.2175   -0.6017    1.2256 C   0  0  0  0  0  0  0  0  0  0  0  0
    2.5771   -1.7718    0.4472 C   0  0  0  0  0  0  0  0  0  0  0  0
    1.8317   -2.9388    0.6788 C   0  0  0  0  0  0  0  0  0  0  0  0
    0.6686   -2.8878    1.4914 C   0  0  0  0  0  0  0  0  0  0  0  0
    3.3367   -1.7035   -0.9043 C   0  0  0  0  0  0  0  0  0  0  0  0
    0.3671    0.8061    2.5094 C   0  0  0  0  0  0  0  0  0  0  0  0
  1  2  1  0
  1  6  1  0
  1  7  1  0
  2  3  1  0
  3  4  1  0
  4  5  1  0
  5  6  1  0
  7  8  1  0
  7 12  2  0
  8  9  2  0
  8 13  1  0
  9 10  1  0
 10 11  2  0
 11 12  1  0
 13 14  1  0
 14 15  2  0
 14 19  1  0
 15 16  1  0
 15 21  1  0
 16 17  2  0
 17 18  1  0
 17 20  1  0
 18 19  2  0
M  END
>  <DRUGBANK_ID>  (1) 
DB09068

>  <SECONDARY_ACCESSION_NUMBERS>  (1) 
DB05700

>  <COMMON_NAME>  (1) 
Vortioxetine

>  <CAS_NUMBER>  (1) 
508233-74-7

>  <UNII>  (1) 
3O2K1S3WQV

>  <SYNONYMS>  (1) 
Vortioxetina; Vortioxetine; Vortiox√©tine; vortioxetinum

$$$$
