
     RDKit          3D

 21 23  0  0  0  0  0  0  0  0999 V2000
   -1.5254    1.7539    0.0669 C   0  0  0  0  0  0  0  0  0  0  0  0
   -2.8230    1.2378    0.0352 C   0  0  0  0  0  0  0  0  0  0  0  0
   -3.0378   -0.1378   -0.0434 C   0  0  0  0  0  0  0  0  0  0  0  0
   -1.9503   -0.9971   -0.0910 C   0  0  0  0  0  0  0  0  0  0  0  0
   -0.6490   -0.4810   -0.0779 C   0  0  0  0  0  0  0  0  0  0  0  0
   -0.4487    0.8818    0.0166 C   0  0  0  0  0  0  0  0  0  0  0  0
    0.8441    1.4184    0.0517 O   0  0  0  0  0  0  0  0  0  0  0  0
    0.5034   -1.3472   -0.1473 C   0  0  0  0  0  0  0  0  0  0  0  0
    1.7509   -0.8801    0.0465 C   0  0  0  0  0  0  0  0  0  0  0  0
    1.9738    0.6020    0.0573 C   0  0  0  0  0  0  0  0  0  0  0  0
    2.9989   -1.7466    0.1329 C   0  0  0  0  0  0  0  0  0  0  0  0
    3.0295   -2.5963    1.4177 C   0  0  0  0  0  0  0  0  0  0  0  0
    2.0963   -4.3661    2.8507 C   0  0  0  0  0  0  0  0  0  0  0  0
    2.0098   -3.4995    1.7719 C   0  0  0  0  0  0  0  0  0  0  0  0
    4.1225   -2.5222    2.2890 C   0  0  0  0  0  0  0  0  0  0  0  0
    4.2212   -3.4010    3.3790 C   0  0  0  0  0  0  0  0  0  0  0  0
    3.2094   -4.3197    3.6589 C   0  0  0  0  0  0  0  0  0  0  0  0
    3.2154   -2.6155   -1.1399 C   0  0  0  0  0  0  0  0  0  0  0  0
    3.2271   -1.7908   -2.4218 C   0  0  0  0  0  0  0  0  0  0  0  0
    0.1517   -2.6467   -0.4193 O   0  0  0  0  0  0  0  0  0  0  0  0
    3.0910    1.0923    0.0150 O   0  0  0  0  0  0  0  0  0  0  0  0
  1  2  2  0
  1  6  1  0
  2  3  1  0
  3  4  2  0
  4  5  1  0
  5  8  1  0
  6  5  2  0
  7  6  1  0
  7 10  1  0
  8  9  2  0
  8 20  1  0
  9 10  1  0
  9 11  1  0
 10 21  2  0
 11 12  1  0
 11 18  1  0
 12 15  2  0
 13 14  2  0
 13 17  1  0
 14 12  1  0
 15 16  1  0
 16 17  2  0
 18 19  1  0
M  END
>  <DRUGBANK_ID>  (1) 
DB00946

>  <SECONDARY_ACCESSION_NUMBERS>  (1) 
APRD00228

>  <COMMON_NAME>  (1) 
Phenprocoumon

>  <CAS_NUMBER>  (1) 
435-97-2

>  <UNII>  (1) 
Q08SIO485D

>  <SYNONYMS>  (1) 
3-(1-Phenylpropyl)-4-hydroxycoumarin; 3-(1'-Phenyl-propyl)-4-oxycoumarin; 3-(alpha-Ethylbenzyl)-4-hydroxycoumarin; 3-(alpha-Phenylpropyl)-4-hydroxycoumarin; 4-Hydroxy-3-(1-phenylpropyl)-2H-1-benzopyran-2-one; 4-hydroxy-3-(1-phenylpropyl)-2H-chromen-2-one; Fenprocumon; Fenprocumone; Phenprocoumarol; Phenprocoumarole; Phenprocoumon; Phenprocoumone; Phenprocoumonum; Phenprocumone

$$$$
