
     RDKit          3D

 43 50  0  0  0  0  0  0  0  0999 V2000
    5.4434   -9.8288   -5.7982 C   0  0  0  0  0  0  0  0  0  0  0  0
    5.6067  -11.0943   -6.3735 C   0  0  0  0  0  0  0  0  0  0  0  0
    5.7876  -11.2626   -7.7563 C   0  0  0  0  0  0  0  0  0  0  0  0
    5.7856  -10.1064   -8.5397 C   0  0  0  0  0  0  0  0  0  0  0  0
    5.9410   -9.8969   -9.8938 N   0  0  0  0  0  0  0  0  0  0  0  0
    5.8444   -8.5525  -10.1861 C   0  0  0  0  0  0  0  0  0  0  0  0
    5.6123   -7.8918   -9.0033 C   0  0  0  0  0  0  0  0  0  0  0  0
    5.4342   -8.6819   -6.5970 C   0  0  0  0  0  0  0  0  0  0  0  0
    5.6012   -8.8563   -7.9760 C   0  0  0  0  0  0  0  0  0  0  0  0
    5.3821   -6.4651   -8.6533 C   0  0  0  0  0  0  0  0  0  0  0  0
    5.3180   -7.2731   -6.1657 C   0  0  0  0  0  0  0  0  0  0  0  0
    5.8101   -6.1838   -7.1615 C   0  0  2  0  0  0  0  0  0  0  0  0
    5.3835   -4.8216   -6.7143 N   0  0  0  0  0  0  0  0  0  0  0  0
    5.7437   -4.6511   -5.2764 C   0  0  0  0  0  0  0  0  0  0  0  0
    4.8786   -5.5811   -4.3692 C   0  0  1  0  0  0  0  0  0  0  0  0
    4.8321   -6.9711   -4.9475 C   0  0  0  0  0  0  0  0  0  0  0  0
    5.4125   -5.8193   -2.9157 C   0  0  0  0  0  0  0  0  0  0  0  0
    4.3894   -6.1045   -1.9581 N   0  0  0  0  0  0  0  0  0  0  0  0
    5.9798   -3.7752   -7.5471 C   0  0  0  0  0  0  0  0  0  0  0  0
    6.6106   -5.8319   -2.6452 O   0  0  0  0  0  0  0  0  0  0  0  0
    4.7973   -6.0360   -0.5532 C   0  0  1  0  0  0  0  0  0  0  0  0
    4.8693   -7.5583    0.5418 C   0  0  0  0  0  0  0  0  0  0  0  0
    3.9328   -6.0778    0.6225 O   0  0  0  0  0  0  0  0  0  0  0  0
    5.0651   -5.9041    1.5517 C   0  0  2  0  0  0  0  0  0  0  0  0
    5.2715   -7.1878    1.8692 N   0  0  0  0  0  0  0  0  0  0  0  0
    5.6338   -7.5286    3.3289 C   0  0  2  0  0  0  0  0  0  0  0  0
    5.5760   -6.2613    4.3594 C   0  0  0  0  0  0  0  0  0  0  0  0
    4.7015   -4.8697    2.5526 C   0  0  1  0  0  0  0  0  0  0  0  0
    5.3468   -5.0163    3.7999 N   0  0  0  0  0  0  0  0  0  0  0  0
    5.5318   -3.6912    4.3728 C   0  0  0  0  0  0  0  0  0  0  0  0
    5.7618   -2.7551    3.1962 C   0  0  0  0  0  0  0  0  0  0  0  0
    5.2119   -3.5072    2.0476 C   0  0  0  0  0  0  0  0  0  0  0  0
    6.3262   -5.5834    0.9824 O   0  0  0  0  0  0  0  0  0  0  0  0
    4.3953   -8.6988    0.3174 O   0  0  0  0  0  0  0  0  0  0  0  0
    5.8922   -6.3580    5.5458 O   0  0  0  0  0  0  0  0  0  0  0  0
    7.0971   -8.1011    3.4467 C   0  0  0  0  0  0  0  0  0  0  0  0
    8.1527   -7.2305    2.7748 C   0  0  0  0  0  0  0  0  0  0  0  0
    8.3876   -5.9112    3.2212 C   0  0  0  0  0  0  0  0  0  0  0  0
    9.0359   -4.9827    2.4027 C   0  0  0  0  0  0  0  0  0  0  0  0
    9.6310   -5.4073    1.2222 C   0  0  0  0  0  0  0  0  0  0  0  0
    9.5422   -6.7475    0.8439 C   0  0  0  0  0  0  0  0  0  0  0  0
    8.7458   -7.6383    1.5719 C   0  0  0  0  0  0  0  0  0  0  0  0
    4.3812   -4.4090   -0.4116 C   0  0  0  0  0  0  0  0  0  0  0  0
  1  2  2  0
  2  3  1  0
  3  4  2  0
  4  5  1  0
  5  6  1  0
  6  7  2  0
  7 10  1  0
  7  9  1  0
  8  1  1  0
  8  9  2  0
  8 11  1  0
  9  4  1  0
 12 10  1  6
 11 12  1  0
 11 16  2  0
 12 13  1  0
 13 14  1  0
 13 19  1  0
 14 15  1  0
 15 16  1  0
 15 17  1  1
 17 18  1  0
 17 20  2  0
 21 22  1  0
 21 18  1  0
 21 43  1  1
 22 25  1  0
 22 34  2  0
 23 21  1  0
 24 23  1  0
 24 25  1  0
 24 28  1  0
 24 33  1  6
 25 26  1  0
 26 27  1  0
 26 36  1  6
 27 29  1  0
 27 35  2  0
 28 29  1  0
 29 30  1  0
 30 31  1  0
 31 32  1  0
 28 32  1  6
 36 37  1  0
 37 38  2  0
 38 39  1  0
 39 40  2  0
 40 41  1  0
 41 42  2  0
 42 37  1  0
M  END
>  <DRUGBANK_ID>  (1) 
DB00696

>  <SECONDARY_ACCESSION_NUMBERS>  (1) 
APRD00677

>  <COMMON_NAME>  (1) 
Ergotamine

>  <CAS_NUMBER>  (1) 
113-15-5

>  <UNII>  (1) 
PR834Q503T

>  <SYNONYMS>  (1) 
(5'α)-12'-hydroxy-2'-methyl-5'-(phenylmethyl)ergotoman-3',6',18-trione; 12'-Hydroxy-2'-methyl-5'alpha-(phenylmethyl)ergotaman-3',6',18-trione; 12'-hydroxy-2'-methyl-5'α-(phenylmethyl)ergotaman-3',6',18-trione; Ergotamin; Ergotamina; Ergotamine; Ergotaminum

$$$$
