HTA
     RDKit          3D

 27 27  0  0  0  0  0  0  0  0999 V2000
   -2.0055    0.0688   -0.4753 C   0  0  0  0  0  0  0  0  0  0  0  0
   -1.6387    0.9366    0.7201 C   0  0  0  0  0  0  0  0  0  0  0  0
   -0.6558    0.3372    1.7520 C   0  0  2  0  0  0  0  0  0  0  0  0
    0.2472   -0.7516    1.1917 C   0  0  0  0  0  0  0  0  0  0  0  0
   -1.4158   -0.2932    2.9358 C   0  0  0  0  0  0  0  0  0  0  0  0
   -0.4703   -0.8755    4.0041 C   0  0  0  0  0  0  0  0  0  0  0  0
    0.4168    0.2111    4.6159 C   0  0  0  0  0  0  0  0  0  0  0  0
   -1.2557   -1.5869    5.0954 C   0  0  0  0  0  0  0  0  0  0  0  0
    2.4285   -1.8053    1.0393 C   0  0  2  0  0  0  0  0  0  0  0  0
    2.6135   -2.9093    2.1038 C   0  0  0  0  0  0  0  0  0  0  0  0
    3.7478   -1.1406    0.6644 C   0  0  0  0  0  0  0  0  0  0  0  0
    4.6452   -2.0054   -0.1709 C   0  0  0  0  0  0  0  0  0  0  0  0
    5.1284   -1.5258   -1.3872 C   0  0  0  0  0  0  0  0  0  0  0  0
    5.0781   -3.2560    0.2824 C   0  0  0  0  0  0  0  0  0  0  0  0
    6.0323   -2.2869   -2.1245 C   0  0  0  0  0  0  0  0  0  0  0  0
    5.9674   -4.0191   -0.4558 C   0  0  0  0  0  0  0  0  0  0  0  0
    6.4402   -3.5431   -1.6693 C   0  0  0  0  0  0  0  0  0  0  0  0
    2.6890   -5.3587    2.4872 C   0  0  0  0  0  0  0  0  0  0  0  0
    7.7204   -3.9623   -3.5958 C   0  0  0  0  0  0  0  0  0  0  0  0
   -1.0017   -0.0734   -1.4209 N   0  0  0  0  0  0  0  0  0  0  0  0
    1.5563   -0.7582    1.5710 N   0  0  0  0  0  0  0  0  0  0  0  0
    2.4013   -4.2052    1.6626 N   0  0  0  0  0  0  0  0  0  0  0  0
   -1.2498   -1.1093   -2.3658 O   0  0  0  0  0  0  0  0  0  0  0  0
   -3.1078   -0.4628   -0.5928 O   0  0  0  0  0  0  0  0  0  0  0  0
   -0.1722   -1.6273    0.4352 O   0  0  0  0  0  0  0  0  0  0  0  0
    2.9842   -2.6394    3.2459 O   0  0  0  0  0  0  0  0  0  0  0  0
    7.2955   -4.3905   -2.3119 O   0  0  0  0  0  0  0  0  0  0  0  0
  1  2  1  0
  1 20  1  0
  1 24  2  0
  3  5  1  1
  3  4  1  0
  3  2  1  0
  4 21  1  0
  4 25  2  0
  5  6  1  0
  6  7  1  0
  6  8  1  0
  9 21  1  0
  9 11  1  1
  9 10  1  0
 10 22  1  0
 10 26  2  0
 11 12  1  0
 12 13  2  0
 12 14  1  0
 13 15  1  0
 14 16  2  0
 15 17  2  0
 16 17  1  0
 17 27  1  0
 18 22  1  0
 19 27  1  0
 20 23  1  0
M  END
>  <DRUGBANK_ID>  (1) 
DB07926

>  <COMMON_NAME>  (1) 
N-[3-(N'-HYDROXYCARBOXAMIDO)-2-(2-METHYLPROPYL)-PROPANOYL]-O-TYROSINE-N-METHYLAMIDE

$$$$
