
     RDKit          3D

 28 27  0  0  0  0  0  0  0  0999 V2000
    1.0722   -0.0173    0.0670 C   0  0  0  0  0  0  0  0  0  0  0  0
    0.5655    1.1455    0.9046 C   0  0  0  0  0  0  0  0  0  0  0  0
   -0.4331    1.0397    1.8790 C   0  0  0  0  0  0  0  0  0  0  0  0
   -0.9189    2.1132    2.4645 C   0  0  0  0  0  0  0  0  0  0  0  0
   -1.8320    2.0187    3.3434 O   0  0  0  0  0  0  0  0  0  0  0  0
   -0.4086    3.3538    2.0978 C   0  0  0  0  0  0  0  0  0  0  0  0
    0.8878    3.3623    1.5363 C   0  0  0  0  0  0  0  0  0  0  0  0
    1.2186    2.2748    0.7298 O   0  0  0  0  0  0  0  0  0  0  0  0
   -0.9281   -0.2413    2.2402 O   0  0  0  0  0  0  0  0  0  0  0  0
    0.9522   -0.0616   -0.0626 C   0  0  0  0  0  0  0  0  0  0  0  0
    0.4455   -1.3329    0.5988 C   0  0  0  0  0  0  0  0  0  0  0  0
    1.3001   -2.4352    0.4870 C   0  0  0  0  0  0  0  0  0  0  0  0
    0.8988   -3.6371    0.8415 C   0  0  0  0  0  0  0  0  0  0  0  0
    1.6714   -4.6402    0.7323 O   0  0  0  0  0  0  0  0  0  0  0  0
   -0.3918   -3.7825    1.3388 C   0  0  0  0  0  0  0  0  0  0  0  0
   -0.9873   -2.6292    1.8965 C   0  0  0  0  0  0  0  0  0  0  0  0
   -0.6737   -1.4158    1.2865 O   0  0  0  0  0  0  0  0  0  0  0  0
    2.6161   -2.2547   -0.0150 O   0  0  0  0  0  0  0  0  0  0  0  0
    1.0960    0.0275    0.0059 C   0  0  0  0  0  0  0  0  0  0  0  0
    0.5893   -1.3411   -0.4189 C   0  0  0  0  0  0  0  0  0  0  0  0
    0.8144   -2.4318    0.4283 C   0  0  0  0  0  0  0  0  0  0  0  0
    0.6812   -3.6647   -0.0116 C   0  0  0  0  0  0  0  0  0  0  0  0
    0.8938   -4.6560    0.7548 O   0  0  0  0  0  0  0  0  0  0  0  0
    0.3020   -3.8563   -1.3357 C   0  0  0  0  0  0  0  0  0  0  0  0
   -0.3881   -2.7906   -1.9554 C   0  0  0  0  0  0  0  0  0  0  0  0
    0.0009   -1.5045   -1.5849 O   0  0  0  0  0  0  0  0  0  0  0  0
    1.1910   -2.2054    1.7786 O   0  0  0  0  0  0  0  0  0  0  0  0
    0.9014    0.0159    0.0048 Ga  0  0  0  0  0 15  0  0  0  0  0  0
  1  2  1  0
  2  3  2  0
  2  8  1  0
  3  4  1  0
  3  9  1  0
  4  5  2  0
  4  6  1  0
  6  7  2  0
  7  8  1  0
 10 11  1  0
 11 12  2  0
 11 17  1  0
 12 13  1  0
 12 18  1  0
 13 14  2  0
 13 15  1  0
 15 16  2  0
 16 17  1  0
 19 20  1  0
 20 21  2  0
 20 26  1  0
 21 22  1  0
 21 27  1  0
 22 23  2  0
 22 24  1  0
 24 25  2  0
 25 26  1  0
M  CHG  4   9  -1  18  -1  27  -1  28   3
M  END
>  <DRUGBANK_ID>  (1) 
DB05420

>  <COMMON_NAME>  (1) 
Gallium maltolate

>  <CAS_NUMBER>  (1) 
108560-70-9

>  <UNII>  (1) 
17LEI49C2G

$$$$
