
     RDKit          3D

 33 36  0  0  1  0  0  0  0  0999 V2000
   -1.1685    0.7783    1.0306 O   0  0  0  0  0  0  0  0  0  0  0  0
    2.0000    5.0951   -3.1758 O   0  0  0  0  0  0  0  0  0  0  0  0
   -1.1854   -4.1398    4.8813 O   0  0  0  0  0  0  0  0  0  0  0  0
   -0.3640   -1.3700    5.7934 O   0  0  0  0  0  0  0  0  0  0  0  0
   -1.6747    2.5807    7.1038 O   0  0  0  0  0  0  0  0  0  0  0  0
    2.8514    5.9120   -0.7486 O   0  0  0  0  0  0  0  0  0  0  0  0
    0.5653    2.5291   -3.3347 O   0  0  0  0  0  0  0  0  0  0  0  0
   -3.3440   -4.4943    3.2280 O   0  0  0  0  0  0  0  0  0  0  0  0
    0.6237   -2.2964    4.0399 O   0  0  0  0  0  0  0  0  0  0  0  0
    0.3462    2.6526    2.6792 O   0  0  0  0  0  0  0  0  0  0  0  0
   -3.4147    0.4305    0.8185 O   0  0  0  0  0  0  0  0  0  0  0  0
    0.3212    0.6372    1.2942 C   0  0  1  0  0  0  0  0  0  0  0  0
    0.9827    1.9889    1.5479 C   0  0  1  0  0  0  0  0  0  0  0  0
    0.8078   -0.1623    2.5266 C   0  0  0  0  0  0  0  0  0  0  0  0
   -2.3009    0.0153    1.2115 C   0  0  0  0  0  0  0  0  0  0  0  0
    1.7127    4.2980   -2.1021 C   0  0  0  0  0  0  0  0  0  0  0  0
   -1.4198   -3.3456    3.7975 C   0  0  0  0  0  0  0  0  0  0  0  0
   -0.2866   -0.0578    5.2917 C   0  0  0  0  0  0  0  0  0  0  0  0
   -1.1165    1.9574    6.0323 C   0  0  0  0  0  0  0  0  0  0  0  0
    1.0214    3.1008   -2.1818 C   0  0  0  0  0  0  0  0  0  0  0  0
    2.1555    4.7373   -0.8506 C   0  0  0  0  0  0  0  0  0  0  0  0
   -0.6799   -2.2735    3.5719 C   0  0  0  0  0  0  0  0  0  0  0  0
   -2.5409   -3.4292    2.9911 C   0  0  0  0  0  0  0  0  0  0  0  0
    0.1208    1.9166    3.8414 C   0  0  0  0  0  0  0  0  0  0  0  0
    0.3595    0.5444    4.0000 C   0  0  0  0  0  0  0  0  0  0  0  0
    1.1689    2.8249    0.2688 C   0  0  0  0  0  0  0  0  0  0  0  0
   -2.2168   -1.2629    1.9909 C   0  0  0  0  0  0  0  0  0  0  0  0
   -1.0959    0.6185    6.1783 C   0  0  0  0  0  0  0  0  0  0  0  0
   -0.5489    2.5976    4.9017 C   0  0  0  0  0  0  0  0  0  0  0  0
    1.9088    4.0135    0.3192 C   0  0  0  0  0  0  0  0  0  0  0  0
    0.7524    2.3825   -1.0118 C   0  0  0  0  0  0  0  0  0  0  0  0
   -2.8879   -2.4525    2.0014 C   0  0  0  0  0  0  0  0  0  0  0  0
   -1.4315   -1.1768    3.0779 C   0  0  0  0  0  0  0  0  0  0  0  0
  1 15  1  0
  2 16  1  0
  3 17  1  0
  4 18  1  0
  5 19  1  0
  6 21  1  0
  7 20  1  0
  8 23  1  0
  9 22  1  0
 10 13  1  0
 10 24  1  0
 11 15  2  0
 12 13  1  0
 12 14  1  0
 12  1  1  1
 13 26  1  6
 14 25  1  0
 15 27  1  0
 16 20  2  0
 16 21  1  0
 17 22  2  0
 17 23  1  0
 18 25  1  0
 18 28  2  0
 19 28  1  0
 19 29  2  0
 20 31  1  0
 21 30  2  0
 22 33  1  0
 23 32  2  0
 24 25  2  0
 24 29  1  0
 26 30  1  0
 26 31  2  0
 27 32  1  0
 27 33  2  0
M  END
>  <DRUGBANK_ID>  (1) 
DB12116

>  <COMMON_NAME>  (1) 
Epigallocatechin gallate

>  <CAS_NUMBER>  (1) 
989-51-5

>  <UNII>  (1) 
BQM438CTEL

>  <SYNONYMS>  (1) 
EGCG; Epigallocatechin gallate; Epigallocatechin-3-gallate

$$$$
