937
     RDKit          3D

 15 15  0  0  1  0  0  0  0  0999 V2000
    1.1114   -0.0056    0.0132 O   0  0  0  0  0  0  0  0  0  0  0  0
    3.8831   -1.9481   -0.4718 N   0  0  0  0  0  0  0  0  0  0  0  0
    3.1227   -1.2240    0.5770 C   0  0  0  0  0  0  0  0  0  0  0  0
    4.6963   -3.0602    0.0478 C   0  0  0  0  0  0  0  0  0  0  0  0
    3.0536   -2.3182   -1.6377 C   0  0  0  0  0  0  0  0  0  0  0  0
    2.3366   -0.0351   -0.0032 C   0  0  0  0  0  0  0  0  0  0  0  0
    3.9755   -0.7462    1.7597 C   0  0  0  0  0  0  0  0  0  0  0  0
    3.9336   -4.1843    0.7437 C   0  0  0  0  0  0  0  0  0  0  0  0
    1.8857   -3.2610   -1.3805 C   0  0  0  0  0  0  0  0  0  0  0  0
    3.0729    1.1463   -0.5269 C   0  0  0  0  0  0  0  0  0  0  0  0
    2.6174    2.4016   -0.1190 C   0  0  0  0  0  0  0  0  0  0  0  0
    4.2000    1.0425   -1.3485 C   0  0  0  0  0  0  0  0  0  0  0  0
    3.3093    3.5471   -0.5046 C   0  0  0  0  0  0  0  0  0  0  0  0
    4.9113    2.1876   -1.7008 C   0  0  0  0  0  0  0  0  0  0  0  0
    4.4550    3.4392   -1.2934 C   0  0  0  0  0  0  0  0  0  0  0  0
  1  6  2  0
  2  3  1  0
  2  4  1  0
  2  5  1  0
  3  6  1  0
  3  7  1  0
  4  8  1  0
  5  9  1  0
  6 10  1  0
 10 11  2  0
 10 12  1  0
 11 13  1  0
 12 14  2  0
 13 15  2  0
 14 15  1  0
M  END
>  <DRUGBANK_ID>  (1) 
DB00937

>  <SECONDARY_ACCESSION_NUMBERS>  (1) 
APRD00919

>  <COMMON_NAME>  (1) 
Diethylpropion

>  <CAS_NUMBER>  (1) 
90-84-6

>  <UNII>  (1) 
Q94YYU22B8

>  <SYNONYMS>  (1) 
(±)-diethylpropion; 1-phenyl-2-diethylamino-1-propanone; 2-(diethylamino)-1-phenyl-1-propanone; 2-(diethylamino)propiophenone; alpha-Benzoyltriethylamine; alpha-Diethylaminopropiophenone; Amfepramone; Amfépramone; Amfepramonum; Anfepramona; Diethylcathinone

$$$$
