
     RDKit          3D

 11 11  0  0  0  0  0  0  0  0999 V2000
    0.7196    1.2621   -0.2167 C   0  0  0  0  0  0  0  0  0  0  0  0
    1.3755   -0.0435    0.2469 C   0  0  0  0  0  0  0  0  0  0  0  0
   -0.7415    1.2244    0.2564 C   0  0  0  0  0  0  0  0  0  0  0  0
    1.4310    2.5324    0.2817 C   0  0  0  0  0  0  0  0  0  0  0  0
    0.7037   -1.3029   -0.2399 C   0  0  0  0  0  0  0  0  0  0  0  0
    2.3862   -0.1033    0.9476 O   0  0  0  0  0  0  0  0  0  0  0  0
   -1.4488   -0.0165   -0.2537 C   0  0  0  0  0  0  0  0  0  0  0  0
    2.8713    2.6017   -0.2333 C   0  0  0  0  0  0  0  0  0  0  0  0
    0.6910    3.7926   -0.1891 C   0  0  0  0  0  0  0  0  0  0  0  0
   -0.7466   -1.2818    0.2375 C   0  0  0  0  0  0  0  0  0  0  0  0
   -1.5076   -2.4894   -0.2775 C   0  0  0  0  0  0  0  0  0  0  0  0
  1  2  1  0
  1  3  1  0
  1  4  1  0
  2  5  1  0
  2  6  2  0
  3  7  1  0
  4  8  1  0
  4  9  1  0
  5 10  1  0
  7 10  1  0
 10 11  1  0
M  END
>  <DRUGBANK_ID>  (1) 
DB15920

>  <COMMON_NAME>  (1) 
Menthone

>  <CAS_NUMBER>  (1) 
89-80-5

>  <UNII>  (1) 
9NH5J4V8FN

>  <SYNONYMS>  (1) 
DL-Menthone; Menthone G

$$$$
