
     RDKit          3D

 36 40  0  0  1  0  0  0  0  0999 V2000
    1.2721   -2.5598    0.2001 C   0  0  0  0  0  0  0  0  0  0  0  0
    0.4704   -1.4211   -0.4719 C   0  0  2  0  0  0  0  0  0  0  0  0
    0.9437   -0.0516    0.1495 C   0  0  0  0  0  0  0  0  0  0  0  0
    1.5324   -0.1607    1.5277 N   0  0  0  0  0  0  0  0  0  0  0  0
    2.9503   -0.0955    1.5683 C   0  0  0  0  0  0  0  0  0  0  0  0
    3.5448    1.0352    1.0236 C   0  0  0  0  0  0  0  0  0  0  0  0
    4.8917    1.2656    1.2586 C   0  0  0  0  0  0  0  0  0  0  0  0
    5.6158    0.3551    2.0154 C   0  0  0  0  0  0  0  0  0  0  0  0
    4.9634   -0.7677    2.4873 C   0  0  0  0  0  0  0  0  0  0  0  0
    3.6549   -1.0122    2.2669 N   0  0  0  0  0  0  0  0  0  0  0  0
    0.7756   -0.5584    2.6510 C   0  0  0  0  0  0  0  0  0  0  0  0
   -0.4432   -0.4907    2.7785 O   0  0  0  0  0  0  0  0  0  0  0  0
    1.3689   -1.0099    3.9099 C   0  0  0  0  0  0  0  0  0  0  0  0
    2.2054   -0.1057    4.5447 C   0  0  0  0  0  0  0  0  0  0  0  0
    2.6735   -0.3853    5.8113 C   0  0  0  0  0  0  0  0  0  0  0  0
    2.2259   -1.5249    6.4867 C   0  0  0  0  0  0  0  0  0  0  0  0
    1.3501   -2.4258    5.8702 C   0  0  0  0  0  0  0  0  0  0  0  0
    0.9158   -2.1700    4.5702 C   0  0  0  0  0  0  0  0  0  0  0  0
    2.6361   -1.7161    7.8466 C   0  0  0  0  0  0  0  0  0  0  0  0
    2.9678   -1.8224    8.9456 N   0  0  0  0  0  0  0  0  0  0  0  0
   -1.0179   -1.4909   -0.5883 N   0  0  0  0  0  0  0  0  0  0  0  0
   -1.6975   -1.4875    0.7156 C   0  0  0  0  0  0  0  0  0  0  0  0
   -1.3689   -2.7368    1.5715 C   0  0  0  0  0  0  0  0  0  0  0  0
   -1.5549   -3.9986    0.8194 N   0  0  0  0  0  0  0  0  0  0  0  0
   -1.2916   -4.0307   -0.6392 C   0  0  0  0  0  0  0  0  0  0  0  0
   -1.5534   -2.6649   -1.3040 C   0  0  0  0  0  0  0  0  0  0  0  0
   -2.4595   -4.9062    1.3481 C   0  0  0  0  0  0  0  0  0  0  0  0
   -2.1023   -6.2597    1.3988 C   0  0  0  0  0  0  0  0  0  0  0  0
   -2.9659   -7.2063    1.9484 C   0  0  0  0  0  0  0  0  0  0  0  0
   -4.2060   -6.8097    2.4492 C   0  0  0  0  0  0  0  0  0  0  0  0
   -4.5776   -5.4678    2.4122 C   0  0  0  0  0  0  0  0  0  0  0  0
   -3.7021   -4.5185    1.8839 C   0  0  0  0  0  0  0  0  0  0  0  0
   -4.0322   -3.1847    1.8157 O   0  0  0  0  0  0  0  0  0  0  0  0
   -5.1024   -2.8355    2.6814 C   0  0  0  0  0  0  0  0  0  0  0  0
   -6.2252   -3.8327    2.5057 C   0  0  0  0  0  0  0  0  0  0  0  0
   -5.8180   -5.1484    2.9042 O   0  0  0  0  0  0  0  0  0  0  0  0
  2 21  1  0
  2  3  1  0
  2  1  1  1
  3  4  1  0
  4  5  1  0
  4 11  1  0
  5  6  2  0
  5 10  1  0
  6  7  1  0
  7  8  2  0
  8  9  1  0
  9 10  2  0
 11 12  2  0
 11 13  1  0
 13 14  2  0
 13 18  1  0
 14 15  1  0
 15 16  2  0
 16 17  1  0
 16 19  1  0
 17 18  2  0
 19 20  3  0
 21 22  1  0
 21 26  1  0
 22 23  1  0
 23 24  1  0
 24 25  1  0
 24 27  1  0
 25 26  1  0
 27 28  2  0
 27 32  1  0
 28 29  1  0
 29 30  2  0
 30 31  1  0
 31 32  2  0
 31 36  1  0
 32 33  1  0
 33 34  1  0
 34 35  1  0
 35 36  1  0
M  END
>  <DRUGBANK_ID>  (1) 
DB12540

>  <COMMON_NAME>  (1) 
Lecozotan

>  <CAS_NUMBER>  (1) 
434283-16-6

>  <UNII>  (1) 
48854OTZ5E

>  <SYNONYMS>  (1) 
Lecozotan

$$$$
