
     RDKit          3D

 10  9  0  0  0  0  0  0  0  0999 V2000
    0.6832    0.0956    0.0613 C   0  0  0  0  0  0  0  0  0  0  0  0
    0.1413   -0.7022    1.2293 C   0  0  0  0  0  0  0  0  0  0  0  0
    0.8356   -0.4819    2.5724 C   0  0  0  0  0  0  0  0  0  0  0  0
    0.1476   -0.2407    3.5583 O   0  0  0  0  0  0  0  0  0  0  0  0
    2.3626   -0.5236    2.7188 C   0  0  0  0  0  0  0  0  0  0  0  0
    3.0692   -1.8821    2.5452 C   0  0  0  0  0  0  0  0  0  0  0  0
    3.0721   -2.4601    1.1182 C   0  0  0  0  0  0  0  0  0  0  0  0
    3.7228   -1.4924    0.1268 C   0  0  0  0  0  0  0  0  0  0  0  0
    3.7421   -3.8181    1.0114 C   0  0  0  0  0  0  0  0  0  0  0  0
    1.7423   -2.7843    0.7680 O   0  0  0  0  0  0  0  0  0  0  0  0
  1  2  1  0
  2  3  1  0
  3  4  2  0
  3  5  1  0
  5  6  1  0
  6  7  1  0
  7  8  1  0
  7  9  1  0
  7 10  1  0
M  END
>  <DRUGBANK_ID>  (1) 
DB03711

>  <SECONDARY_ACCESSION_NUMBERS>  (1) 
EXPT02062

>  <COMMON_NAME>  (1) 
6-Hydroxy-6-Methyl-Heptan-3-One

>  <UNII>  (1) 
G2CVU7ZB99

$$$$
