1035
     RDKit          3D

 17 17  0  0  0  0  0  0  0  0999 V2000
    1.0278   -0.0455   -0.1388 O   0  0  0  0  0  0  0  0  0  0  0  0
    4.3842    3.1304    1.7390 N   0  0  0  0  0  0  0  0  0  0  0  0
    2.9875    0.4295    0.8754 N   0  0  0  0  0  0  0  0  0  0  0  0
    5.0216   -3.4700   -3.7047 N   0  0  0  0  0  0  0  0  0  0  0  0
    4.8795    2.1417    0.7669 C   0  0  0  0  0  0  0  0  0  0  0  0
    5.0001    4.4518    1.5429 C   0  0  0  0  0  0  0  0  0  0  0  0
    2.9229    3.2184    1.8464 C   0  0  0  0  0  0  0  0  0  0  0  0
    4.4300    0.6845    0.9810 C   0  0  0  0  0  0  0  0  0  0  0  0
    4.7101    5.1348    0.2096 C   0  0  0  0  0  0  0  0  0  0  0  0
    2.1555    3.4192    0.5362 C   0  0  0  0  0  0  0  0  0  0  0  0
    2.2578   -0.1609   -0.1063 C   0  0  0  0  0  0  0  0  0  0  0  0
    2.9508   -1.0117   -1.0686 C   0  0  0  0  0  0  0  0  0  0  0  0
    2.6134   -0.9783   -2.4163 C   0  0  0  0  0  0  0  0  0  0  0  0
    3.9221   -1.8948   -0.5883 C   0  0  0  0  0  0  0  0  0  0  0  0
    3.2841   -1.8336   -3.2890 C   0  0  0  0  0  0  0  0  0  0  0  0
    4.6186   -2.6997   -1.4701 C   0  0  0  0  0  0  0  0  0  0  0  0
    4.2778   -2.7067   -2.8211 C   0  0  0  0  0  0  0  0  0  0  0  0
  1 11  2  0
  2  5  1  0
  2  6  1  0
  2  7  1  0
  3  8  1  0
  3 11  1  0
  4 17  1  0
  5  8  1  0
  6  9  1  0
  7 10  1  0
 11 12  1  0
 12 13  2  0
 12 14  1  0
 13 15  1  0
 14 16  2  0
 15 17  2  0
 16 17  1  0
M  END
>  <DRUGBANK_ID>  (1) 
DB01035

>  <SECONDARY_ACCESSION_NUMBERS>  (1) 
APRD00509

>  <COMMON_NAME>  (1) 
Procainamide

>  <CAS_NUMBER>  (1) 
51-06-9

>  <UNII>  (1) 
L39WTC366D

>  <SYNONYMS>  (1) 
p-Amino-N-(2-diethylaminoethyl)benzamide; p-Aminobenzoic diethylaminoethylamide; Procainamida; Procainamide; Proca√Ønamide; Procainamidum

$$$$
