
     RDKit          3D

 30 33  0  0  1  0  0  0  0  0999 V2000
   -1.1693   -0.1039   -1.1777 C   0  0  0  0  0  0  0  0  0  0  0  0
    0.3184    0.2078   -1.2394 C   0  0  1  0  0  0  0  0  0  0  0  0
    1.0904   -0.5968   -2.0966 O   0  0  0  0  0  0  0  0  0  0  0  0
    1.7858    0.2159   -3.0127 C   0  0  0  0  0  0  0  0  0  0  0  0
    1.6041    1.7732   -2.7892 C   0  0  1  0  0  0  0  0  0  0  0  0
    0.7279    2.7900   -3.5239 N   0  0  0  0  0  0  0  0  0  0  0  0
    0.9323    4.0174   -3.1243 C   0  0  0  0  0  0  0  0  0  0  0  0
    1.3592    5.1150   -3.8356 N   0  0  0  0  0  0  0  0  0  0  0  0
    0.4988    4.4893   -1.5193 S   0  0  0  0  0  0  0  0  0  0  0  0
   -0.0828    2.8725   -0.9796 C   0  0  0  0  0  0  0  0  0  0  0  0
    0.7850    1.6750   -1.4365 C   0  0  1  0  0  0  0  0  0  0  0  0
    2.7647    2.0969   -3.7736 C   0  0  0  0  0  0  0  0  0  0  0  0
    2.4537    1.7445   -5.1518 C   0  0  0  0  0  0  0  0  0  0  0  0
    2.8872    2.3646   -6.2957 C   0  0  0  0  0  0  0  0  0  0  0  0
    2.3500    2.0534   -7.5814 N   0  0  0  0  0  0  0  0  0  0  0  0
    1.3277    1.1905   -7.9817 C   0  0  0  0  0  0  0  0  0  0  0  0
    1.2362    0.8980   -9.2133 O   0  0  0  0  0  0  0  0  0  0  0  0
    0.3725    0.4975   -7.0871 C   0  0  0  0  0  0  0  0  0  0  0  0
   -0.3166    1.2077   -6.1493 N   0  0  0  0  0  0  0  0  0  0  0  0
   -0.8692    0.4672   -5.1432 C   0  0  0  0  0  0  0  0  0  0  0  0
   -0.8390   -0.9273   -5.1323 C   0  0  0  0  0  0  0  0  0  0  0  0
   -0.2208   -1.6234   -6.1238 N   0  0  0  0  0  0  0  0  0  0  0  0
    0.3850   -0.8883   -7.0831 C   0  0  0  0  0  0  0  0  0  0  0  0
   -1.3971   -1.7316   -4.0019 C   0  0  0  0  0  0  0  0  0  0  0  0
   -0.5076   -1.9384   -3.0065 F   0  0  0  0  0  0  0  0  0  0  0  0
   -2.5110   -1.1759   -3.4513 F   0  0  0  0  0  0  0  0  0  0  0  0
    3.8538    3.3359   -6.0773 C   0  0  0  0  0  0  0  0  0  0  0  0
    4.2854    3.6470   -4.7486 C   0  0  0  0  0  0  0  0  0  0  0  0
    3.7462    3.0258   -3.6075 C   0  0  0  0  0  0  0  0  0  0  0  0
    3.9963    3.5003   -2.3851 F   0  0  0  0  0  0  0  0  0  0  0  0
  2  3  1  0
  2  1  1  6
  3  4  1  0
  5  4  1  0
  5  6  1  0
  5 12  1  1
  6  7  2  0
  7  8  1  0
  7  9  1  0
  9 10  1  0
 11 10  1  6
 11  2  1  0
 11  5  1  0
 12 13  2  0
 12 29  1  0
 13 14  1  0
 14 15  1  0
 14 27  2  0
 15 16  1  0
 16 17  2  0
 16 18  1  0
 18 19  2  0
 18 23  1  0
 19 20  1  0
 20 21  2  0
 21 22  1  0
 21 24  1  0
 22 23  2  0
 24 25  1  0
 24 26  1  0
 27 28  1  0
 28 29  2  0
 29 30  1  0
M  END
>  <DRUGBANK_ID>  (1) 
DB15391

>  <COMMON_NAME>  (1) 
Elenbecestat

>  <CAS_NUMBER>  (1) 
1388651-30-6

>  <UNII>  (1) 
RXJ96XL94H

>  <SYNONYMS>  (1) 
Elenbecestat

$$$$
