
     RDKit          3D

 21 23  0  0  0  0  0  0  0  0999 V2000
    1.2605   -0.7418    0.3517 C   0  0  0  0  0  0  0  0  0  0  0  0
    2.3546   -1.5847    0.0984 C   0  0  0  0  0  0  0  0  0  0  0  0
    3.5307   -1.0748   -0.4476 C   0  0  0  0  0  0  0  0  0  0  0  0
    3.6403    0.2866   -0.7250 C   0  0  0  0  0  0  0  0  0  0  0  0
    2.5756    1.1444   -0.4508 C   0  0  0  0  0  0  0  0  0  0  0  0
    1.3871    0.6344    0.0697 C   0  0  0  0  0  0  0  0  0  0  0  0
    0.0054    1.7407    0.3271 S   0  0  0  0  0  0  0  0  0  0  0  0
    0.0090   -1.2854    0.7016 N   0  0  0  0  0  0  0  0  0  0  0  0
   -2.2646   -1.6251   -0.1359 C   0  0  0  0  0  0  0  0  0  0  0  0
   -1.1852   -0.7766    0.1555 C   0  0  0  0  0  0  0  0  0  0  0  0
   -1.3244    0.6101   -0.0700 C   0  0  0  0  0  0  0  0  0  0  0  0
   -2.5414    1.1303   -0.5186 C   0  0  0  0  0  0  0  0  0  0  0  0
   -3.6137    0.2749   -0.7668 C   0  0  0  0  0  0  0  0  0  0  0  0
   -3.4795   -1.0975   -0.5779 C   0  0  0  0  0  0  0  0  0  0  0  0
   -0.0570   -2.1828    1.8642 C   0  0  0  0  0  0  0  0  0  0  0  0
   -0.7773   -1.5880    3.1383 C   0  0  0  0  0  0  0  0  0  0  0  0
   -2.2412   -1.1810    2.9085 C   0  0  0  0  0  0  0  0  0  0  0  0
   -0.7397   -2.6294    4.3570 N   0  0  0  0  0  0  0  0  0  0  0  0
    0.7054   -2.9262    4.7674 C   0  0  0  0  0  0  0  0  0  0  0  0
   -1.4237   -2.0272    5.5949 C   0  0  0  0  0  0  0  0  0  0  0  0
   -1.4385   -3.9387    3.9978 C   0  0  0  0  0  0  0  0  0  0  0  0
  1  2  2  0
  1  8  1  0
  2  3  1  0
  3  4  2  0
  4  5  1  0
  5  6  2  0
  6  1  1  0
  6  7  1  0
  7 11  1  0
  8 15  1  0
  9 10  1  0
 10 11  2  0
 10  8  1  0
 11 12  1  0
 12 13  2  0
 13 14  1  0
 14  9  2  0
 15 16  1  0
 16 17  1  0
 16 18  1  0
 18 19  1  0
 18 20  1  0
 18 21  1  0
M  CHG  1  18   1
M  END
>  <DRUGBANK_ID>  (1) 
DB13420

>  <COMMON_NAME>  (1) 
Thiazinam

>  <CAS_NUMBER>  (1) 
2338-21-8

>  <UNII>  (1) 
666W2P28N2

>  <SYNONYMS>  (1) 
Thiazinamium

$$$$
