43P
     RDKit          3D

 20 22  0  0  0  0  0  0  0  0999 V2000
    2.3631   -1.0630    0.0303 O   0  0  0  0  0  0  0  0  0  0  0  0
    1.2353   -0.2866    0.0081 C   0  0  0  0  0  0  0  0  0  0  0  0
    0.0399   -0.9953    0.0157 C   0  0  0  0  0  0  0  0  0  0  0  0
   -1.1735   -0.3203    0.0345 C   0  0  0  0  0  0  0  0  0  0  0  0
   -2.2808   -1.1203    0.0640 O   0  0  0  0  0  0  0  0  0  0  0  0
   -1.2255    1.0801    0.0274 C   0  0  0  0  0  0  0  0  0  0  0  0
   -2.5366    1.8322    0.0255 C   0  0  0  0  0  0  0  0  0  0  0  0
   -3.3811    1.5498   -1.2155 C   0  0  0  0  0  0  0  0  0  0  0  0
   -0.0018    1.7902    0.0175 C   0  0  0  0  0  0  0  0  0  0  0  0
    1.2367    1.1160   -0.0091 C   0  0  0  0  0  0  0  0  0  0  0  0
    2.4871    1.8709   -0.1170 C   0  0  0  0  0  0  0  0  0  0  0  0
    2.8741    2.7567    0.8190 N   0  0  0  0  0  0  0  0  0  0  0  0
    4.0978    3.1548    0.4170 N   0  0  0  0  0  0  0  0  0  0  0  0
    4.5056    2.5887   -0.7509 C   0  0  0  0  0  0  0  0  0  0  0  0
    3.4769    1.7703   -1.1360 C   0  0  0  0  0  0  0  0  0  0  0  0
    3.3888    0.9698   -2.3403 C   0  0  0  0  0  0  0  0  0  0  0  0
    2.4359    1.0487   -3.3234 C   0  0  0  0  0  0  0  0  0  0  0  0
    2.8017    0.1060   -4.2414 N   0  0  0  0  0  0  0  0  0  0  0  0
    3.9264   -0.5129   -3.7666 C   0  0  0  0  0  0  0  0  0  0  0  0
    4.3178    0.0019   -2.6217 N   0  0  0  0  0  0  0  0  0  0  0  0
  1  2  1  0
  2  3  2  0
  2 10  1  0
  3  4  1  0
  4  5  1  0
  4  6  2  0
  6  7  1  0
  6  9  1  0
  7  8  1  0
  9 10  2  0
 10 11  1  0
 11 12  2  0
 11 15  1  0
 12 13  1  0
 13 14  1  0
 14 15  2  0
 15 16  1  0
 16 17  2  0
 16 20  1  0
 17 18  1  0
 18 19  1  0
 19 20  2  0
M  END
>  <DRUGBANK_ID>  (1) 
DB03749

>  <SECONDARY_ACCESSION_NUMBERS>  (1) 
EXPT00195

>  <COMMON_NAME>  (1) 
4-(1h-Imidazol-4-Yl)-3-(5-Ethyl-2,4-Dihydroxy-Phenyl)-1h-Pyrazole

$$$$
