ChEBI
     RDKit          3D

 18 18  0  0  1  0  0  0  0  0999 V2000
    1.2874   -0.5363   -0.3799 C   0  0  1  0  0  0  0  0  0  0  0  0
    1.5987    0.7550    0.1451 O   0  0  0  0  0  0  0  0  0  0  0  0
   -0.2346   -0.7059   -0.4768 C   0  0  2  0  0  0  0  0  0  0  0  0
    0.3725    1.4266    0.3594 C   0  0  1  0  0  0  0  0  0  0  0  0
   -0.6910    0.7284   -0.4809 C   0  0  2  0  0  0  0  0  0  0  0  0
    0.0969    1.4047    1.7757 N   0  0  0  0  0  0  0  0  0  0  0  0
   -2.0146    0.8973   -0.0057 O   0  0  0  0  0  0  0  0  0  0  0  0
   -0.8059   -1.4454    0.6087 O   0  0  0  0  0  0  0  0  0  0  0  0
    1.9697   -0.7302   -1.7616 C   0  0  0  0  0  0  0  0  0  0  0  0
    1.2796   -3.3125   -1.8445 P   0  0  0  0  0  0  0  0  0  0  0  0
    1.3373   -1.7441   -2.5724 O   0  0  0  0  0  0  0  0  0  0  0  0
    2.4228   -3.7903   -2.7326 O   0  0  0  0  0  0  0  0  0  0  0  0
    1.9873   -2.8874   -0.4587 O   0  0  0  0  0  0  0  0  0  0  0  0
    1.2219   -4.8808   -1.1165 O   0  0  0  0  0  0  0  0  0  0  0  0
   -0.0226    2.5187    2.5653 C   0  0  0  0  0  0  0  0  0  0  0  0
   -0.3581    2.4031    3.7264 O   0  0  0  0  0  0  0  0  0  0  0  0
    0.2821    3.8733    1.9123 C   0  0  0  0  0  0  0  0  0  0  0  0
    1.6743    3.9023    1.4394 N   0  0  0  0  0  0  0  0  0  0  0  0
  1  2  1  0
  1  3  1  0
  1  9  1  6
  2  4  1  0
  3  5  1  0
  3  8  1  1
  4  5  1  0
  4  6  1  1
  5  7  1  1
  9 11  1  0
 11 10  1  0
 12 10  2  0
 13 10  1  0
 14 10  1  0
 15  6  1  0
 16 15  2  0
 17 15  1  0
 18 17  1  0
M  END
>  <DRUGBANK_ID>  (1) 
DB02236

>  <SECONDARY_ACCESSION_NUMBERS>  (1) 
EXPT01547

>  <COMMON_NAME>  (1) 
Glycinamide Ribonucleotide

$$$$
