
     RDKit          3D

 18 19  0  0  1  0  0  0  0  0999 V2000
    2.8448   -1.1683    0.1211 C   0  0  0  0  0  0  0  0  0  0  0  0
    1.5994   -0.4205   -0.3093 C   0  0  2  0  0  0  0  0  0  0  0  0
    1.6014    1.0594    0.1057 C   0  0  0  0  0  0  0  0  0  0  0  0
    0.2256    1.7597   -0.1001 C   0  0  2  0  0  0  0  0  0  0  0  0
   -0.7312    0.9490    0.7312 C   0  0  0  0  0  0  0  0  0  0  0  0
   -0.8230   -0.5539    0.3523 C   0  0  0  0  0  0  0  0  0  0  0  0
    0.4990   -1.2402    0.3720 C   0  0  0  0  0  0  0  0  0  0  0  0
   -1.8427   -1.2299    1.2818 C   0  0  0  0  0  0  0  0  0  0  0  0
   -1.2419   -0.8854   -1.0497 C   0  0  0  0  0  0  0  0  0  0  0  0
   -0.2233    1.9494   -1.5059 O   0  0  0  0  0  0  0  0  0  0  0  0
   -1.3636    1.8306   -2.3013 C   0  0  0  0  0  0  0  0  0  0  0  0
   -1.2117    1.8931   -3.5008 O   0  0  0  0  0  0  0  0  0  0  0  0
   -2.7739    1.4106   -1.8394 C   0  0  0  0  0  0  0  0  0  0  0  0
   -3.3635    1.8083   -0.6398 C   0  0  0  0  0  0  0  0  0  0  0  0
   -4.2077    0.9126    0.0595 C   0  0  0  0  0  0  0  0  0  0  0  0
   -4.5935   -0.2796   -0.5415 C   0  0  0  0  0  0  0  0  0  0  0  0
   -4.2644   -0.5768   -1.8196 N   0  0  0  0  0  0  0  0  0  0  0  0
   -3.3577    0.2673   -2.4466 C   0  0  0  0  0  0  0  0  0  0  0  0
  2  1  1  1
  2  3  1  0
  2  7  1  0
  3  4  1  0
  4  5  1  0
  4 10  1  6
  5  6  1  0
  6  7  1  0
  6  8  1  0
  6  9  1  0
 10 11  1  0
 11 12  2  0
 11 13  1  0
 13 14  2  0
 13 18  1  0
 14 15  1  0
 15 16  2  0
 16 17  1  0
 17 18  2  0
M  END
>  <DRUGBANK_ID>  (1) 
DB13709

>  <COMMON_NAME>  (1) 
Ciclonicate

>  <CAS_NUMBER>  (1) 
53449-58-4

>  <UNII>  (1) 
7H634NXI03

>  <SYNONYMS>  (1) 
Ciclonicate

$$$$
