
     RDKit          3D

 22 25  0  0  0  0  0  0  0  0999 V2000
   -0.0689   -1.0168   -0.3768 C   0  0  0  0  0  0  0  0  0  0  0  0
    5.3084   -1.1293    4.2595 C   0  0  0  0  0  0  0  0  0  0  0  0
    1.2286   -2.6960   -1.6151 C   0  0  0  0  0  0  0  0  0  0  0  0
   -0.0321   -4.2548    2.4225 C   0  0  0  0  0  0  0  0  0  0  0  0
    1.1883   -4.2481    3.1930 C   0  0  0  0  0  0  0  0  0  0  0  0
    3.3134   -2.5875    2.7636 C   0  0  0  0  0  0  0  0  0  0  0  0
    2.3092   -0.8515    3.0110 C   0  0  0  0  0  0  0  0  0  0  0  0
    3.1011   -1.1615    0.6973 C   0  0  0  0  0  0  0  0  0  0  0  0
    4.3478   -0.8564    1.7290 C   0  0  0  0  0  0  0  0  0  0  0  0
   -0.6549   -4.2471   -0.9477 C   0  0  0  0  0  0  0  0  0  0  0  0
    1.4251   -5.0556    0.3849 C   0  0  0  0  0  0  0  0  0  0  0  0
   -0.4108   -2.7764   -0.3480 C   0  0  0  0  0  0  0  0  0  0  0  0
    0.4694   -4.0434    0.9938 C   0  0  2  0  0  0  0  0  0  0  0  0
    0.1997   -5.6186   -0.0509 C   0  0  0  0  0  0  0  0  0  0  0  0
    1.6066   -2.8375    2.8457 C   0  0  1  0  0  0  0  0  0  0  0  0
    2.8937   -2.3304    4.0279 C   0  0  2  0  0  0  0  0  0  0  0  0
    2.0961   -2.4677    1.0223 C   0  0  1  0  0  0  0  0  0  0  0  0
    3.1064   -0.0303    3.9424 C   0  0  1  0  0  0  0  0  0  0  0  0
    4.0197   -1.0821    3.5407 C   0  0  1  0  0  0  0  0  0  0  0  0
    0.9658   -2.8950    0.0954 C   0  0  1  0  0  0  0  0  0  0  0  0
   -0.2138   -6.6668    0.5615 O   0  0  0  0  0  0  0  0  0  0  0  0
    3.3967    1.2759    3.5883 O   0  0  0  0  0  0  0  0  0  0  0  0
  5  4  1  0
  7  6  1  0
  9  8  1  0
 12  1  1  0
 12 10  2  0
 13  4  1  1
 13 11  1  0
 14 10  1  0
 14 11  1  0
 15  5  1  6
 16  6  1  6
 16 15  1  0
 17  8  1  1
 17 15  1  0
 18  7  1  0
 18 22  1  6
 19  2  1  1
 19  9  1  0
 19 16  1  0
 19 18  1  0
 20  3  1  6
 20 12  1  0
 20 13  1  0
 20 17  1  0
 21 14  2  0
M  END
>  <DRUGBANK_ID>  (1) 
DB13710

>  <COMMON_NAME>  (1) 
Metenolone

>  <CAS_NUMBER>  (1) 
153-00-4

>  <UNII>  (1) 
9062ZT8Q5C

>  <SYNONYMS>  (1) 
Metenolona; Metenolone; Methenolone

$$$$
