
     RDKit          3D

 31 34  0  0  0  0  0  0  0  0999 V2000
    0.6837    0.0223    0.3534 C   0  0  0  0  0  0  0  0  0  0  0  0
    0.1680   -1.3753    0.0089 C   0  0  0  0  0  0  0  0  0  0  0  0
    0.8595   -2.4653    0.8337 N   0  0  0  0  0  0  0  0  0  0  0  0
    0.4700   -2.1149    2.3089 C   0  0  0  0  0  0  0  0  0  0  0  0
    0.2956   -3.8949    0.5522 C   0  0  0  0  0  0  0  0  0  0  0  0
    0.5742   -4.4834   -0.8330 C   0  0  0  0  0  0  0  0  0  0  0  0
    2.3620   -2.4897    0.7760 C   0  0  0  0  0  0  0  0  0  0  0  0
    2.9667   -2.8791   -0.5613 C   0  0  0  0  0  0  0  0  0  0  0  0
    2.8397   -1.9651   -1.7813 C   0  0  0  0  0  0  0  0  0  0  0  0
    3.2408   -0.5385   -1.5639 N   0  0  0  0  0  0  0  0  0  0  0  0
    4.3901   -0.2620   -0.8504 C   0  0  0  0  0  0  0  0  0  0  0  0
    5.2664   -1.3934   -0.4086 C   0  0  0  0  0  0  0  0  0  0  0  0
    5.4816   -1.6786    0.9779 C   0  0  0  0  0  0  0  0  0  0  0  0
    6.2322   -2.7846    1.3838 C   0  0  0  0  0  0  0  0  0  0  0  0
    6.6695   -3.6970    0.4299 C   0  0  0  0  0  0  0  0  0  0  0  0
    6.3843   -3.4943   -0.9206 C   0  0  0  0  0  0  0  0  0  0  0  0
    5.7811   -2.3073   -1.3487 C   0  0  0  0  0  0  0  0  0  0  0  0
    4.7234    1.0389   -0.4925 C   0  0  0  0  0  0  0  0  0  0  0  0
    3.9055    2.1154   -0.9074 C   0  0  0  0  0  0  0  0  0  0  0  0
    4.3383    3.3942   -0.4981 C   0  0  0  0  0  0  0  0  0  0  0  0
    5.5137    3.6025    0.2394 C   0  0  0  0  0  0  0  0  0  0  0  0
    6.3169    2.5383    0.6136 C   0  0  0  0  0  0  0  0  0  0  0  0
    7.3841    2.6686    1.4852 N   0  0  0  0  0  0  0  0  0  0  0  0
    5.8767    1.2838    0.2702 C   0  0  0  0  0  0  0  0  0  0  0  0
    2.7465    1.8367   -1.6880 C   0  0  0  0  0  0  0  0  0  0  0  0
    2.4352    0.5008   -2.0565 C   0  0  0  0  0  0  0  0  0  0  0  0
    1.2129    0.2761   -2.7731 C   0  0  0  0  0  0  0  0  0  0  0  0
    0.2953    1.2942   -3.0926 C   0  0  0  0  0  0  0  0  0  0  0  0
   -1.0211    0.9766   -3.4425 N   0  0  0  0  0  0  0  0  0  0  0  0
    0.6207    2.5874   -2.7312 C   0  0  0  0  0  0  0  0  0  0  0  0
    1.8225    2.8583   -2.0680 C   0  0  0  0  0  0  0  0  0  0  0  0
  1  2  1  0
  2  3  1  0
  3  4  1  0
  3  5  1  0
  3  7  1  0
  5  6  1  0
  7  8  1  0
  8  9  1  0
  9 10  1  0
 10 11  2  0
 10 26  1  0
 11 12  1  0
 11 18  1  0
 12 13  2  0
 12 17  1  0
 13 14  1  0
 14 15  2  0
 15 16  1  0
 16 17  2  0
 18 19  2  0
 18 24  1  0
 19 20  1  0
 19 25  1  0
 20 21  2  0
 21 22  1  0
 22 23  1  0
 22 24  2  0
 25 26  2  0
 25 31  1  0
 26 27  1  0
 27 28  2  0
 28 29  1  0
 28 30  1  0
 30 31  2  0
M  CHG  2   3   1  10   1
M  END
>  <DRUGBANK_ID>  (1) 
DB02166

>  <SECONDARY_ACCESSION_NUMBERS>  (1) 
EXPT02661

>  <COMMON_NAME>  (1) 
Propidium

>  <CAS_NUMBER>  (1) 
36015-30-2

>  <UNII>  (1) 
74NX23J96Y

$$$$
