
     RDKit          3D

 15 15  0  0  1  0  0  0  0  0999 V2000
    2.1198   -5.2195    0.0631 B   0  0  0  0  0  0  0  0  0  0  0  0
    2.9969   -4.7581   -1.1930 C   0  0  2  0  0  0  0  0  0  0  0  0
    4.3974   -5.3011   -1.1255 C   0  0  0  0  0  0  0  0  0  0  0  0
    5.1717   -4.3986   -2.1329 C   0  0  0  0  0  0  0  0  0  0  0  0
    4.4855   -3.0380   -1.9864 C   0  0  0  0  0  0  0  0  0  0  0  0
    3.2333   -3.3026   -1.1816 N   0  0  0  0  0  0  0  0  0  0  0  0
    2.4026   -2.2928   -0.5099 C   0  0  0  0  0  0  0  0  0  0  0  0
    2.7180   -1.0635   -0.5774 O   0  0  0  0  0  0  0  0  0  0  0  0
    1.1748   -2.7243    0.2753 C   0  0  2  0  0  0  0  0  0  0  0  0
   -0.0207   -2.8087   -0.6596 C   0  0  0  0  0  0  0  0  0  0  0  0
   -0.0629   -4.1842   -1.3050 C   0  0  0  0  0  0  0  0  0  0  0  0
   -1.2992   -2.5800    0.1300 C   0  0  0  0  0  0  0  0  0  0  0  0
    0.9003   -1.7425    1.3343 N   0  0  0  0  0  0  0  0  0  0  0  0
    2.7333   -5.2622    1.4312 O   0  0  0  0  0  0  0  0  0  0  0  0
    0.6839   -5.6093   -0.1274 O   0  0  0  0  0  0  0  0  0  0  0  0
  1 14  1  0
  1 15  1  0
  2  1  1  1
  2  3  1  0
  2  6  1  0
  3  4  1  0
  4  5  1  0
  5  6  1  0
  6  7  1  0
  7  8  2  0
  9 13  1  1
  9 10  1  0
  9  7  1  0
 10 11  1  0
 10 12  1  0
M  END
>  <DRUGBANK_ID>  (1) 
DB06182

>  <COMMON_NAME>  (1) 
Talabostat

>  <CAS_NUMBER>  (1) 
149682-77-9

>  <UNII>  (1) 
KZ1O2SH88Z

>  <SYNONYMS>  (1) 
Talabostat

$$$$
