380
     RDKit          3D

 19 20  0  0  1  0  0  0  0  0999 V2000
   -2.5912    0.5327    4.5303 O   0  0  0  0  0  0  0  0  0  0  0  0
    1.9101    0.5398    5.1784 O   0  0  0  0  0  0  0  0  0  0  0  0
    3.4335    3.5447    2.1650 O   0  0  0  0  0  0  0  0  0  0  0  0
    1.4047    5.1965   -1.4103 O   0  0  0  0  0  0  0  0  0  0  0  0
    0.0429    0.0274    2.1591 N   0  0  0  0  0  0  0  0  0  0  0  0
    1.4889    1.7450   -0.3472 N   0  0  0  0  0  0  0  0  0  0  0  0
   -0.3424    0.5176    4.8469 N   0  0  0  0  0  0  0  0  0  0  0  0
    2.0488    4.2684    0.5425 N   0  0  0  0  0  0  0  0  0  0  0  0
   -0.0286    1.4937    1.8642 C   0  0  2  0  0  0  0  0  0  0  0  0
    0.1469    1.7837    0.3060 C   0  0  0  0  0  0  0  0  0  0  0  0
   -1.2444   -0.4160    2.7454 C   0  0  0  0  0  0  0  0  0  0  0  0
    1.1120   -0.4170    3.0956 C   0  0  0  0  0  0  0  0  0  0  0  0
    0.8228    2.3901    2.7674 C   0  0  0  0  0  0  0  0  0  0  0  0
    2.6439    1.8453    0.5576 C   0  0  0  0  0  0  0  0  0  0  0  0
    1.6974    2.7868   -1.3762 C   0  0  0  0  0  0  0  0  0  0  0  0
   -1.4724    0.2539    4.1057 C   0  0  0  0  0  0  0  0  0  0  0  0
    0.9532    0.2210    4.4773 C   0  0  0  0  0  0  0  0  0  0  0  0
    2.7787    3.2809    1.1556 C   0  0  0  0  0  0  0  0  0  0  0  0
    1.6587    4.1980   -0.7734 C   0  0  0  0  0  0  0  0  0  0  0  0
  1 16  2  0
  2 17  2  0
  3 18  2  0
  4 19  2  0
  5 11  1  0
  5 12  1  0
  6 10  1  0
  6 14  1  0
  6 15  1  0
  7 16  1  0
  7 17  1  0
  8 18  1  0
  8 19  1  0
  9 13  1  1
  9 10  1  0
  9  5  1  0
 11 16  1  0
 12 17  1  0
 14 18  1  0
 15 19  1  0
M  END
>  <DRUGBANK_ID>  (1) 
DB00380

>  <SECONDARY_ACCESSION_NUMBERS>  (1) 
APRD00090; DB02444

>  <COMMON_NAME>  (1) 
Dexrazoxane

>  <CAS_NUMBER>  (1) 
24584-09-6

>  <UNII>  (1) 
048L81261F

>  <SYNONYMS>  (1) 
(+)-(S)-4,4'-Propylenedi-2,6-piperazinedione; (+)-1,2-Bis(3,5-dioxo-1-piperazinyl)propane; 4-[(2S)-2-(3,5-dioxopiperazin-1-yl)propyl]piperazine-2,6-dione; Dexrazoxan; Dexrazoxane; Dexrazoxano; Dexrazoxanum; Dextrorazoxane

$$$$
