
     RDKit          3D

 36 39  0  0  1  0  0  0  0  0999 V2000
    2.3710   11.2133    3.4876 C   0  0  0  0  0  0  0  0  0  0  0  0
    3.6086   10.4276    3.9069 C   0  0  0  0  0  0  0  0  0  0  0  0
    4.2303   10.7112    4.9259 O   0  0  0  0  0  0  0  0  0  0  0  0
    3.8821    9.3156    3.1279 N   0  0  0  0  0  0  0  0  0  0  0  0
    3.8120    9.3854    1.6809 C   0  0  0  0  0  0  0  0  0  0  0  0
    3.0461    8.1843    1.1500 C   0  0  0  0  0  0  0  0  0  0  0  0
    3.6768    6.9320    1.5909 N   0  0  0  0  0  0  0  0  0  0  0  0
    3.8493    6.8395    3.0570 C   0  0  0  0  0  0  0  0  0  0  0  0
    4.5658    8.0991    3.6216 C   0  0  0  0  0  0  0  0  0  0  0  0
    3.9859    5.8371    0.7888 C   0  0  0  0  0  0  0  0  0  0  0  0
    4.3268    4.7541    1.2661 O   0  0  0  0  0  0  0  0  0  0  0  0
    3.8500    5.9933   -0.7252 C   0  0  2  0  0  0  0  0  0  0  0  0
    2.3790    5.8731   -1.1557 C   0  0  0  0  0  0  0  0  0  0  0  0
    2.0247    6.8464   -2.2794 C   0  0  0  0  0  0  0  0  0  0  0  0
    2.7763    6.8661   -3.4629 C   0  0  0  0  0  0  0  0  0  0  0  0
    2.3880    7.6483   -4.5465 C   0  0  0  0  0  0  0  0  0  0  0  0
    1.2158    8.3934   -4.4756 C   0  0  0  0  0  0  0  0  0  0  0  0
    0.4426    8.3835   -3.3080 C   0  0  0  0  0  0  0  0  0  0  0  0
    0.8985    7.6798   -2.1829 C   0  0  0  0  0  0  0  0  0  0  0  0
   -0.9282    8.9898   -3.3479 C   0  0  0  0  0  0  0  0  0  0  0  0
   -1.7364    8.9878   -2.2518 N   0  0  0  0  0  0  0  0  0  0  0  0
   -1.3571    9.4795   -4.4660 N   0  0  0  0  0  0  0  0  0  0  0  0
    4.8140    5.1810   -1.5409 N   0  0  0  0  0  0  0  0  0  0  0  0
    6.5331    5.3574   -1.2947 S   0  0  0  0  0  0  0  0  0  0  0  0
    6.8008    5.2360    0.1029 O   0  0  0  0  0  0  0  0  0  0  0  0
    7.1192    4.4224   -2.2573 O   0  0  0  0  0  0  0  0  0  0  0  0
    7.0569    7.0346   -1.7635 C   0  0  0  0  0  0  0  0  0  0  0  0
    6.2165    8.0686   -1.4151 C   0  0  0  0  0  0  0  0  0  0  0  0
    6.4584    9.3737   -1.7786 C   0  0  0  0  0  0  0  0  0  0  0  0
    7.6354    9.7226   -2.4084 C   0  0  0  0  0  0  0  0  0  0  0  0
    7.7265   10.9881   -2.9903 C   0  0  0  0  0  0  0  0  0  0  0  0
    8.8462   11.2985   -3.7274 C   0  0  0  0  0  0  0  0  0  0  0  0
    9.8998   11.1388   -2.9052 C   0  0  0  0  0  0  0  0  0  0  0  0
    9.9668    9.7819   -2.4460 C   0  0  0  0  0  0  0  0  0  0  0  0
    8.7417    8.8889   -2.3829 C   0  0  0  0  0  0  0  0  0  0  0  0
    8.3528    7.4269   -2.2138 C   0  0  0  0  0  0  0  0  0  0  0  0
  1  2  1  0
  2  3  2  0
  2  4  1  0
  4  5  1  0
  4  9  1  0
  5  6  1  0
  6  7  1  0
  7  8  1  0
  7 10  1  0
  8  9  1  0
 10 11  2  0
 12 23  1  0
 12 13  1  6
 12 10  1  0
 13 14  1  0
 14 15  2  0
 14 19  1  0
 15 16  1  0
 16 17  2  0
 17 18  1  0
 18 19  2  0
 18 20  1  0
 20 21  1  0
 20 22  2  0
 23 24  1  0
 24 25  2  0
 24 26  2  0
 24 27  1  0
 27 28  2  0
 27 36  1  0
 28 29  1  0
 29 30  2  0
 30 31  1  0
 30 35  1  0
 31 32  2  0
 32 33  1  0
 33 34  2  0
 34 35  1  0
 35 36  2  0
M  END
>  <DRUGBANK_ID>  (1) 
DB04125

>  <SECONDARY_ACCESSION_NUMBERS>  (1) 
EXPT01411

>  <COMMON_NAME>  (1) 
N-Alpha-(2-Naphthylsulfonyl)-N(3-Amidino-L-Phenylalaninyl)-4-Acetyl-Piperazine

$$$$
