
     RDKit          3D

 13 13  0  0  1  0  0  0  0  0999 V2000
    1.8526    0.0756   -0.6775 C   0  0  0  0  0  0  0  0  0  0  0  0
   -0.0106   -1.1830    0.5283 C   0  0  0  0  0  0  0  0  0  0  0  0
    0.9080    0.0399    0.5304 C   0  0  2  0  0  0  0  0  0  0  0  0
   -1.1001   -0.8065   -0.4678 C   0  0  1  0  0  0  0  0  0  0  0  0
   -0.1023    1.1878    0.4678 C   0  0  2  0  0  0  0  0  0  0  0  0
   -0.4978    1.7054    1.8606 C   0  0  0  0  0  0  0  0  0  0  0  0
   -1.2939    0.6710   -0.2648 N   0  0  0  0  0  0  0  0  0  0  0  0
   -0.3387    2.8492    2.2620 O   0  0  0  0  0  0  0  0  0  0  0  0
   -1.0520    0.7793    2.6723 O   0  0  0  0  0  0  0  0  0  0  0  0
   -1.8929   -2.2756   -2.5393 O   0  0  0  0  0  0  0  0  0  0  0  0
   -0.6977   -0.1695   -3.0733 O   0  0  0  0  0  0  0  0  0  0  0  0
    0.5241   -2.2081   -2.2016 O   0  0  0  0  0  0  0  0  0  0  0  0
   -0.6289   -1.3283   -2.2137 S   0  0  0  0  0  0  0  0  0  0  0  0
  3  1  1  6
  3  2  1  0
  4  2  1  0
  4 13  1  6
  5  3  1  0
  5  6  1  1
  7  4  1  0
  7  5  1  0
  8  6  2  0
  9  6  1  0
 13 10  1  0
 13 11  2  0
 13 12  2  0
M  END
>  <DRUGBANK_ID>  (1) 
DB02248

>  <SECONDARY_ACCESSION_NUMBERS>  (1) 
EXPT00681

>  <COMMON_NAME>  (1) 
3-Methyl-5-Sulfo-Pyrrolidine-2-Carboxylic Acid

$$$$
