
     RDKit          3D

 22 21  0  0  1  0  0  0  0  0999 V2000
    8.8056    1.7592    2.5286 S   0  0  0  0  0  0  0  0  0  0  0  0
   10.9684    1.1558    1.2849 O   0  0  0  0  0  0  0  0  0  0  0  0
    4.1719    3.8650    1.4241 O   0  0  0  0  0  0  0  0  0  0  0  0
    3.6730   -1.4195   -2.7469 O   0  0  0  0  0  0  0  0  0  0  0  0
    3.1183    1.9702    1.3001 O   0  0  0  0  0  0  0  0  0  0  0  0
    2.5242   -2.2132   -0.9297 O   0  0  0  0  0  0  0  0  0  0  0  0
    4.8628    1.2634    2.8943 O   0  0  0  0  0  0  0  0  0  0  0  0
    5.4300   -3.0089    0.5990 O   0  0  0  0  0  0  0  0  0  0  0  0
    6.1931   -1.6997    2.1570 N   0  0  0  0  0  0  0  0  0  0  0  0
    4.2474    0.0814    0.8116 N   0  0  0  0  0  0  0  0  0  0  0  0
    6.6889    1.5382    0.8686 N   0  0  0  0  0  0  0  0  0  0  0  0
    5.6791    2.1379    0.1164 C   0  0  1  0  0  0  0  0  0  0  0  0
    6.5544   -0.4056    2.5404 C   0  0  1  0  0  0  0  0  0  0  0  0
    9.9432    2.1009    1.1017 C   0  0  0  0  0  0  0  0  0  0  0  0
    8.1459   -0.0053    2.0464 C   0  0  0  0  0  0  0  0  0  0  0  0
    6.0977    0.9445   -0.9710 C   0  0  0  0  0  0  0  0  0  0  0  0
    4.1889   -0.6289   -0.5299 C   0  0  0  0  0  0  0  0  0  0  0  0
    6.6993   -0.8739   -0.5180 C   0  0  0  0  0  0  0  0  0  0  0  0
    4.1407    2.5924    1.0080 C   0  0  0  0  0  0  0  0  0  0  0  0
    3.3145   -1.4865   -1.3946 C   0  0  0  0  0  0  0  0  0  0  0  0
    5.0491    0.2844    2.1329 C   0  0  0  0  0  0  0  0  0  0  0  0
    6.1555   -2.0218    0.8297 C   0  0  0  0  0  0  0  0  0  0  0  0
  1 14  1  0
  1 15  1  0
  2 14  1  0
  3 19  1  0
  4 20  1  0
  5 19  2  0
  6 20  2  0
  7 21  2  0
  8 22  2  0
  9 22  1  0
 10 17  1  0
 10 21  1  0
 12 19  1  0
 12 16  1  0
 12 11  1  1
 13 21  1  0
 13 15  1  6
 13  9  1  0
 16 18  1  0
 17 20  1  0
 18 22  1  0
M  END
>  <DRUGBANK_ID>  (1) 
DB04153

>  <SECONDARY_ACCESSION_NUMBERS>  (1) 
EXPT00464

>  <COMMON_NAME>  (1) 
S-Hydroxymethyl Glutathione

$$$$
