
     RDKit          3D

 29 31  0  0  0  0  0  0  0  0999 V2000
    1.3880   -0.6390    0.0093 N   0  0  0  0  0  0  0  0  0  0  0  0
    1.2847    0.7382    0.0263 C   0  0  0  0  0  0  0  0  0  0  0  0
    0.1875   -1.1980   -0.0000 C   0  0  0  0  0  0  0  0  0  0  0  0
   -1.1154   -0.0491    0.0056 S   0  0  0  0  0  0  0  0  0  0  0  0
    0.0017    1.2342    0.0259 C   0  0  0  0  0  0  0  0  0  0  0  0
    0.2472  -10.7557    3.2934 C   0  0  0  0  0  0  0  0  0  0  0  0
   -0.6995  -11.7680    2.5744 C   0  0  0  0  0  0  0  0  0  0  0  0
    0.1387   -9.1078    1.3172 C   0  0  0  0  0  0  0  0  0  0  0  0
   -0.0379   -2.6071   -0.0079 C   0  0  0  0  0  0  0  0  0  0  0  0
    0.0539   -7.7354    1.5258 N   0  0  0  0  0  0  0  0  0  0  0  0
    1.0253   -9.8945    2.2589 C   0  0  0  0  0  0  0  0  0  0  0  0
   -1.2465   -3.1934    0.0021 C   0  0  0  0  0  0  0  0  0  0  0  0
   -0.5318  -12.9660    2.4722 O   0  0  0  0  0  0  0  0  0  0  0  0
   -0.4169   -9.7272    0.4121 O   0  0  0  0  0  0  0  0  0  0  0  0
   -0.7898   -6.8820    0.7596 C   0  0  0  0  0  0  0  0  0  0  0  0
    2.4763    1.6830   -0.0218 C   0  0  0  0  0  0  0  0  0  0  0  0
   -1.4012   -4.6521   -0.0123 C   0  0  0  0  0  0  0  0  0  0  0  0
   -0.6427   -5.4926    0.8310 C   0  0  0  0  0  0  0  0  0  0  0  0
   -1.7911  -11.2024    2.0176 O   0  0  0  0  0  0  0  0  0  0  0  0
    1.2633  -11.6406    4.0959 C   0  0  0  0  0  0  0  0  0  0  0  0
   -0.6077   -9.8625    4.2332 C   0  0  0  0  0  0  0  0  0  0  0  0
   -2.4740   -6.5809   -0.9773 C   0  0  0  0  0  0  0  0  0  0  0  0
    4.5761    1.8040   -0.4055 C   0  0  0  0  0  0  0  0  0  0  0  0
   -1.7577   -7.3949   -0.1090 C   0  0  0  0  0  0  0  0  0  0  0  0
    3.3630    1.4607   -1.2853 C   0  0  0  0  0  0  0  0  0  0  0  0
    3.7419    1.2947    0.7903 C   0  0  0  0  0  0  0  0  0  0  0  0
   -2.3259   -5.2064   -0.9055 C   0  0  0  0  0  0  0  0  0  0  0  0
    2.3714  -10.9320    4.8658 C   0  0  0  0  0  0  0  0  0  0  0  0
    0.1410   -8.7915    5.0190 C   0  0  0  0  0  0  0  0  0  0  0  0
  2  1  1  0
  3  1  2  0
  4  3  1  0
  5  2  2  0
  5  4  1  0
  6 11  1  0
  7  6  1  0
  8 10  1  0
  9  3  1  0
 10 15  1  0
 11  8  1  0
 12  9  2  0
 13  7  2  0
 14  8  2  0
 15 18  2  0
 16  2  1  0
 17 12  1  0
 18 17  1  0
 19  7  1  0
 20  6  1  0
 21  6  1  0
 22 27  1  0
 23 26  1  0
 24 22  2  0
 24 15  1  0
 25 16  1  0
 25 23  1  0
 26 16  1  0
 27 17  2  0
 28 20  1  0
 29 21  1  0
M  END
>  <DRUGBANK_ID>  (1) 
DB00587

>  <SECONDARY_ACCESSION_NUMBERS>  (1) 
APRD00637

>  <COMMON_NAME>  (1) 
Cinalukast

>  <CAS_NUMBER>  (1) 
128312-51-6

>  <UNII>  (1) 
5E1O433QAI

>  <SYNONYMS>  (1) 
3'-((E)-2-(4-cyclobutyl-2-thiazolyl)vinyl)-2,2-diethylsuccinanilic acid; Cinalukast

$$$$
