
     RDKit          3D

 30 34  0  0  0  0  0  0  0  0999 V2000
    2.4148    0.7035   -0.0024 C   0  0  0  0  0  0  0  0  0  0  0  0
    2.4567   -0.6849    0.0009 C   0  0  0  0  0  0  0  0  0  0  0  0
    1.2672   -1.4127    0.0131 C   0  0  0  0  0  0  0  0  0  0  0  0
    1.1821    1.3624    0.0358 C   0  0  0  0  0  0  0  0  0  0  0  0
   -0.0154    0.6590    0.1027 C   0  0  0  0  0  0  0  0  0  0  0  0
    0.0294   -0.7456    0.0640 C   0  0  0  0  0  0  0  0  0  0  0  0
   -1.1855   -1.4474    0.0740 C   0  0  0  0  0  0  0  0  0  0  0  0
   -2.3888   -0.7489    0.1359 C   0  0  0  0  0  0  0  0  0  0  0  0
   -2.3465    0.6406    0.1754 C   0  0  0  0  0  0  0  0  0  0  0  0
   -1.1756    1.3377    0.1769 N   0  0  0  0  0  0  0  0  0  0  0  0
   -3.6126    1.4517   -0.0222 C   0  0  0  0  0  0  0  0  0  0  0  0
   -4.3873    1.1526   -1.2060 O   0  0  0  0  0  0  0  0  0  0  0  0
   -3.8094    1.3978   -2.4245 C   0  0  0  0  0  0  0  0  0  0  0  0
   -4.6191    1.9318   -3.4281 C   0  0  0  0  0  0  0  0  0  0  0  0
   -4.1181    2.1005   -4.7307 C   0  0  0  0  0  0  0  0  0  0  0  0
   -2.7897    1.7775   -5.0230 C   0  0  0  0  0  0  0  0  0  0  0  0
   -1.9944    1.2207   -4.0309 C   0  0  0  0  0  0  0  0  0  0  0  0
   -2.5143    1.0166   -2.7623 C   0  0  0  0  0  0  0  0  0  0  0  0
   -2.2066    1.9845   -6.3370 C   0  0  0  0  0  0  0  0  0  0  0  0
   -1.5939    0.9995   -7.1654 C   0  0  0  0  0  0  0  0  0  0  0  0
   -1.0903    1.6998   -8.2387 C   0  0  0  0  0  0  0  0  0  0  0  0
   -1.3812    3.0109   -7.9970 N   0  0  0  0  0  0  0  0  0  0  0  0
   -2.0917    3.2092   -6.8729 N   0  0  0  0  0  0  0  0  0  0  0  0
   -1.4742   -0.4318   -6.9785 C   0  0  0  0  0  0  0  0  0  0  0  0
   -0.2223   -1.0364   -6.8777 C   0  0  0  0  0  0  0  0  0  0  0  0
   -0.1740   -2.4023   -6.6526 C   0  0  0  0  0  0  0  0  0  0  0  0
   -1.2677   -3.1852   -6.5311 N   0  0  0  0  0  0  0  0  0  0  0  0
   -2.4669   -2.5714   -6.6224 C   0  0  0  0  0  0  0  0  0  0  0  0
   -2.6212   -1.2123   -6.8327 C   0  0  0  0  0  0  0  0  0  0  0  0
   -0.9666    4.1488   -8.7824 C   0  0  0  0  0  0  0  0  0  0  0  0
  1  2  2  0
  2  3  1  0
  3  6  2  0
  4  1  1  0
  5  4  2  0
  5  6  1  0
  6  7  1  0
  7  8  2  0
  8  9  1  0
  9 10  2  0
  9 11  1  0
 10  5  1  0
 11 12  1  0
 12 13  1  0
 13 14  2  0
 14 15  1  0
 15 16  2  0
 16 17  1  0
 16 19  1  0
 17 18  2  0
 18 13  1  0
 19 20  1  0
 20 21  2  0
 20 24  1  0
 21 22  1  0
 22 23  1  0
 22 30  1  0
 23 19  2  0
 24 25  2  0
 25 26  1  0
 26 27  2  0
 27 28  1  0
 28 29  2  0
 29 24  1  0
M  END
>  <DRUGBANK_ID>  (1) 
DB08387

>  <COMMON_NAME>  (1) 
Mardepodect

>  <CAS_NUMBER>  (1) 
898562-94-2

>  <UNII>  (1) 
R9Y8EY0G42

>  <SYNONYMS>  (1) 
2-[4-(1-Methyl-4-pyridin-4-yl-lH-pyrazol-3-yl)-phenoxymethyl]-quinoline succinic acid; Mardepodect

$$$$
