1261
     RDKit          3D

 28 30  0  0  1  0  0  0  0  0999 V2000
   -0.7672   11.6289    0.2358 F   0  0  0  0  0  0  0  0  0  0  0  0
   -0.4758    9.5907    0.8963 F   0  0  0  0  0  0  0  0  0  0  0  0
   -2.4518   10.4626    1.0187 F   0  0  0  0  0  0  0  0  0  0  0  0
    4.0269   10.4527   -2.1193 F   0  0  0  0  0  0  0  0  0  0  0  0
    8.9414    8.4331   -3.2589 F   0  0  0  0  0  0  0  0  0  0  0  0
    8.5202   11.1449   -3.2780 F   0  0  0  0  0  0  0  0  0  0  0  0
    0.8952    5.4523   -4.3318 O   0  0  0  0  0  0  0  0  0  0  0  0
    0.8900    7.4761   -3.2857 N   0  0  0  0  0  0  0  0  0  0  0  0
   -0.6616    9.2289   -1.8348 N   0  0  0  0  0  0  0  0  0  0  0  0
   -2.3265    9.3674   -3.1844 N   0  0  0  0  0  0  0  0  0  0  0  0
    5.0609    5.4326   -2.8474 N   0  0  0  0  0  0  0  0  0  0  0  0
   -2.6406   10.0338   -1.9891 N   0  0  0  0  0  0  0  0  0  0  0  0
    1.4780    8.3964   -2.3645 C   0  0  0  0  0  0  0  0  0  0  0  0
    0.5891    8.8572   -1.2849 C   0  0  0  0  0  0  0  0  0  0  0  0
   -0.2726    8.0238   -4.0240 C   0  0  0  0  0  0  0  0  0  0  0  0
   -1.1187    8.8522   -3.0667 C   0  0  0  0  0  0  0  0  0  0  0  0
    2.6381    5.7237   -2.6967 C   0  0  0  0  0  0  0  0  0  0  0  0
    3.9911    6.4104   -3.0266 C   0  0  1  0  0  0  0  0  0  0  0  0
    1.4099    6.2056   -3.5220 C   0  0  0  0  0  0  0  0  0  0  0  0
    4.3007    7.6588   -2.1664 C   0  0  0  0  0  0  0  0  0  0  0  0
   -1.6148    9.9203   -1.1649 C   0  0  0  0  0  0  0  0  0  0  0  0
    5.4679    8.5586   -2.3787 C   0  0  0  0  0  0  0  0  0  0  0  0
   -1.3572   10.4036    0.2298 C   0  0  0  0  0  0  0  0  0  0  0  0
    5.2502    9.9568   -2.3807 C   0  0  0  0  0  0  0  0  0  0  0  0
    6.7417    8.0687   -2.5951 C   0  0  0  0  0  0  0  0  0  0  0  0
    7.7463    8.9439   -2.9467 C   0  0  0  0  0  0  0  0  0  0  0  0
    6.2692   10.8394   -2.6761 C   0  0  0  0  0  0  0  0  0  0  0  0
    7.5166   10.3147   -2.9788 C   0  0  0  0  0  0  0  0  0  0  0  0
  1 23  1  0
  2 23  1  0
  3 23  1  0
  4 24  1  0
  5 26  1  0
  6 28  1  0
  7 19  2  0
  8 13  1  0
  8 15  1  0
  8 19  1  0
  9 14  1  0
  9 16  1  0
  9 21  1  0
 10 12  1  0
 10 16  2  0
 12 21  2  0
 13 14  1  0
 15 16  1  0
 17 19  1  0
 18 20  1  0
 18 17  1  0
 18 11  1  1
 20 22  1  0
 21 23  1  0
 22 24  2  0
 22 25  1  0
 24 27  1  0
 25 26  2  0
 26 28  1  0
 27 28  2  0
M  END
>  <DRUGBANK_ID>  (1) 
DB01261

>  <SECONDARY_ACCESSION_NUMBERS>  (1) 
DB07214

>  <COMMON_NAME>  (1) 
Sitagliptin

>  <CAS_NUMBER>  (1) 
486460-32-6

>  <UNII>  (1) 
QFP0P1DV7Z

>  <SYNONYMS>  (1) 
Sitagliptin; Sitagliptina; Sitagliptine; Sitagliptinum

$$$$
