4IG
     RDKit          3D

 34 37  0  0  0  0  0  0  0  0999 V2000
    1.1586    0.1618   -0.2055 C   0  0  0  0  0  0  0  0  0  0  0  0
    0.0633    0.9277   -0.0289 N   0  0  0  0  0  0  0  0  0  0  0  0
   -1.1082    0.3074    0.0231 C   0  0  0  0  0  0  0  0  0  0  0  0
   -1.2497   -1.0175    0.0135 N   0  0  0  0  0  0  0  0  0  0  0  0
   -0.1234   -1.7765   -0.0766 C   0  0  0  0  0  0  0  0  0  0  0  0
    1.1486   -1.2465   -0.2713 C   0  0  0  0  0  0  0  0  0  0  0  0
    2.2892    0.9181   -0.4970 N   0  0  0  0  0  0  0  0  0  0  0  0
   -2.2360    1.0766    0.0593 N   0  0  0  0  0  0  0  0  0  0  0  0
   -0.3351   -3.2649    0.0366 C   0  0  0  0  0  0  0  0  0  0  0  0
   -1.0985   -3.6568    1.2869 C   0  0  0  0  0  0  0  0  0  0  0  0
    2.6907   -3.0893   -1.2289 C   0  0  0  0  0  0  0  0  0  0  0  0
    3.8335   -3.8931   -1.0050 C   0  0  0  0  0  0  0  0  0  0  0  0
    4.6847   -3.7438    0.1283 C   0  0  0  0  0  0  0  0  0  0  0  0
    4.4473   -2.7567    1.0567 C   0  0  0  0  0  0  0  0  0  0  0  0
    3.2601   -2.0753    0.7682 C   0  0  0  0  0  0  0  0  0  0  0  0
    2.3723   -2.1236   -0.3115 C   0  0  0  0  0  0  0  0  0  0  0  0
    5.7373   -4.5973    0.2013 O   0  0  0  0  0  0  0  0  0  0  0  0
    6.4601   -4.5980    1.4256 C   0  0  2  0  0  0  0  0  0  0  0  0
    6.3920   -3.4090    2.3993 C   0  0  0  0  0  0  0  0  0  0  0  0
    5.3800   -2.4862    2.1490 N   0  0  0  0  0  0  0  0  0  0  0  0
    5.3983   -1.3910    3.1426 C   0  0  0  0  0  0  0  0  0  0  0  0
    5.4027    0.0400    2.6541 C   0  0  0  0  0  0  0  0  0  0  0  0
    4.1770    0.3702    1.8939 C   0  0  0  0  0  0  0  0  0  0  0  0
    2.9283    0.2275    2.6119 O   0  0  0  0  0  0  0  0  0  0  0  0
    2.5251   -0.9138    3.4169 C   0  0  0  0  0  0  0  0  0  0  0  0
    7.1495   -3.3081    3.3502 O   0  0  0  0  0  0  0  0  0  0  0  0
   10.2008   -5.2305    1.8180 C   0  0  0  0  0  0  0  0  0  0  0  0
    8.8496   -5.1278    2.1110 C   0  0  0  0  0  0  0  0  0  0  0  0
    7.9244   -4.8331    1.0927 C   0  0  0  0  0  0  0  0  0  0  0  0
    8.3971   -4.6626   -0.2152 C   0  0  0  0  0  0  0  0  0  0  0  0
    9.7486   -4.7993   -0.4882 C   0  0  0  0  0  0  0  0  0  0  0  0
   10.6589   -5.0794    0.5192 C   0  0  0  0  0  0  0  0  0  0  0  0
   11.0686   -5.4679    2.8092 F   0  0  0  0  0  0  0  0  0  0  0  0
   10.1716   -4.6463   -1.7483 F   0  0  0  0  0  0  0  0  0  0  0  0
  1  2  2  0
  1  6  1  0
  1  7  1  0
  2  3  1  0
  3  4  2  0
  3  8  1  0
  4  5  1  0
  5  6  2  0
  5  9  1  0
  6 16  1  0
  9 10  1  0
 11 12  2  0
 11 16  1  0
 12 13  1  0
 13 14  2  0
 13 17  1  0
 14 15  1  0
 14 20  1  0
 15 16  2  0
 17 18  1  0
 18 19  1  0
 18 29  1  6
 19 20  1  0
 19 26  2  0
 20 21  1  0
 21 22  1  0
 22 23  1  0
 23 24  1  0
 24 25  1  0
 27 28  2  0
 27 32  1  0
 27 33  1  0
 28 29  1  0
 29 30  2  0
 30 31  1  0
 31 32  2  0
 31 34  1  0
M  END
>  <DRUGBANK_ID>  (1) 
DB07113

>  <COMMON_NAME>  (1) 
(2S)-6-(2,4-DIAMINO-6-ETHYLPYRIMIDIN-5-YL)-2-(3,5-DIFLUOROPHENYL)-4-(3-METHOXYPROPYL)-2H-1,4-BENZOXAZIN-3(4H)-ONE

$$$$
