1611
     RDKit          3D

 23 24  0  0  1  0  0  0  0  0999 V2000
    3.2773    0.4333    0.0038 Cl  0  0  0  0  0  0  0  0  0  0  0  0
   -6.1628   -5.5205    3.2042 O   0  0  0  0  0  0  0  0  0  0  0  0
   -5.7500   -6.2766    0.1193 N   0  0  0  0  0  0  0  0  0  0  0  0
   -2.7704   -2.3970   -0.2208 N   0  0  0  0  0  0  0  0  0  0  0  0
   -1.6242    1.5935    0.0202 N   0  0  0  0  0  0  0  0  0  0  0  0
   -4.4551   -3.6485   -1.1952 C   0  0  0  0  0  0  0  0  0  0  0  0
   -3.8972   -5.0579   -1.2581 C   0  0  0  0  0  0  0  0  0  0  0  0
   -4.1157   -2.7800    0.0435 C   0  0  0  0  0  0  0  0  0  0  0  0
   -4.3267   -5.9808   -0.1256 C   0  0  0  0  0  0  0  0  0  0  0  0
   -5.9169   -7.1140    1.3281 C   0  0  0  0  0  0  0  0  0  0  0  0
   -4.1264   -3.1103    1.5608 C   0  0  0  0  0  0  0  0  0  0  0  0
   -6.8578   -5.3115   -0.1147 C   0  0  0  0  0  0  0  0  0  0  0  0
   -2.4000   -1.0722   -0.0254 C   0  0  0  0  0  0  0  0  0  0  0  0
   -5.4124   -6.6074    2.7019 C   0  0  0  0  0  0  0  0  0  0  0  0
   -6.8924   -4.1151    0.7987 C   0  0  0  0  0  0  0  0  0  0  0  0
   -1.0436   -0.7642   -0.0121 C   0  0  0  0  0  0  0  0  0  0  0  0
   -3.3474   -0.0473   -0.0004 C   0  0  0  0  0  0  0  0  0  0  0  0
   -0.7064    0.6143    0.0024 C   0  0  0  0  0  0  0  0  0  0  0  0
   -0.0229   -1.7427   -0.0120 C   0  0  0  0  0  0  0  0  0  0  0  0
   -2.9190    1.2574    0.0265 C   0  0  0  0  0  0  0  0  0  0  0  0
    0.6260    0.9384   -0.0080 C   0  0  0  0  0  0  0  0  0  0  0  0
    1.3073   -1.3851    0.0013 C   0  0  0  0  0  0  0  0  0  0  0  0
    1.6265   -0.0328   -0.0035 C   0  0  0  0  0  0  0  0  0  0  0  0
  1 23  1  0
  2 14  1  0
  3  9  1  0
  3 10  1  0
  3 12  1  0
  4  8  1  0
  4 13  1  0
  5 18  2  0
  5 20  1  0
  6  7  1  0
  6  8  1  0
  7  9  1  0
  8 11  1  0
 10 14  1  0
 12 15  1  0
 13 16  2  0
 13 17  1  0
 16 18  1  0
 16 19  1  0
 17 20  2  0
 18 21  1  0
 19 22  2  0
 21 23  2  0
 22 23  1  0
M  END
>  <DRUGBANK_ID>  (1) 
DB01611

>  <COMMON_NAME>  (1) 
Hydroxychloroquine

>  <CAS_NUMBER>  (1) 
118-42-3

>  <UNII>  (1) 
4QWG6N8QKH

>  <SYNONYMS>  (1) 
(±)-hydroxychloroquine; 2-((4-((7-chloro-4-quinolyl)amino)pentyl)ethylamino)ethanol; 2-(N-(4-(7-chlor-4-chinolylamino)-4-methylbutyl)ethylamino)ethanol; 7-chloro-4-(4-(ethyl(2-hydroxyethyl)amino)-1-methylbutylamino)quinoline; 7-chloro-4-(4-(N-ethyl-N-β-hydroxyethylamino)-1-methylbutylamino)quinoline; 7-chloro-4-[4-(N-ethyl-N-β-hydroxyethylamino)-1-methylbutylamino]quinoline; 7-chloro-4-[5-(N-ethyl-N-2-hydroxyethylamino)-2-pentyl]aminoquinoline; Hidroxicloroquina; Hydroxychloroquine; Hydroxychloroquinum; Oxichlorochine; Oxichloroquine

$$$$
