GK5
     RDKit          3D

 26 29  0  0  0  0  0  0  0  0999 V2000
    2.5237   -0.0037   -0.0539 C   0  0  0  0  0  0  0  0  0  0  0  0
   -3.5888    4.0574   -0.1696 C   0  0  0  0  0  0  0  0  0  0  0  0
   -2.8951    3.3073   -1.2323 C   0  0  0  0  0  0  0  0  0  0  0  0
   -3.4193    2.5959    0.0462 C   0  0  0  0  0  0  0  0  0  0  0  0
    3.8044   -7.9826    3.5750 C   0  0  0  0  0  0  0  0  0  0  0  0
    2.5703   -7.1149    3.6322 C   0  0  0  0  0  0  0  0  0  0  0  0
    3.9446   -6.5007    3.4876 C   0  0  0  0  0  0  0  0  0  0  0  0
    1.0191   -0.0400   -0.0536 C   0  0  0  0  0  0  0  0  0  0  0  0
    0.3800    1.1663    0.0067 C   0  0  0  0  0  0  0  0  0  0  0  0
   -0.9982    1.1883    0.0184 C   0  0  0  0  0  0  0  0  0  0  0  0
   -1.8339    0.0700   -0.0539 C   0  0  0  0  0  0  0  0  0  0  0  0
   -3.3512    0.1207   -0.1221 C   0  0  0  0  0  0  0  0  0  0  0  0
   -3.9949   -0.9198   -0.0783 O   0  0  0  0  0  0  0  0  0  0  0  0
   -4.0287    1.3469   -0.2395 N   0  0  0  0  0  0  0  0  0  0  0  0
   -1.1886   -1.1586   -0.0727 C   0  0  0  0  0  0  0  0  0  0  0  0
    0.2231   -1.2159   -0.1001 C   0  0  0  0  0  0  0  0  0  0  0  0
    0.8623   -2.5093   -0.0892 C   0  0  0  0  0  0  0  0  0  0  0  0
    1.6713   -2.7745    0.9852 C   0  0  0  0  0  0  0  0  0  0  0  0
    2.4555   -3.8944    0.9786 C   0  0  0  0  0  0  0  0  0  0  0  0
    2.3873   -4.8830    0.0045 C   0  0  0  0  0  0  0  0  0  0  0  0
    1.5040   -4.6433   -1.0597 C   0  0  0  0  0  0  0  0  0  0  0  0
    0.7595   -3.4529   -1.1130 C   0  0  0  0  0  0  0  0  0  0  0  0
    3.1873   -6.1564    0.0062 C   0  0  0  0  0  0  0  0  0  0  0  0
    3.0616   -6.9424   -0.9206 O   0  0  0  0  0  0  0  0  0  0  0  0
    4.0695   -6.4976    1.0120 N   0  0  0  0  0  0  0  0  0  0  0  0
    4.4534   -5.8665    2.2502 C   0  0  0  0  0  0  0  0  0  0  0  0
  1  8  1  0
  2  3  1  0
  2  4  1  0
  3  4  1  0
  4 14  1  0
  5  6  1  0
  5  7  1  0
  6  7  1  0
  7 26  1  0
  8  9  2  0
  8 16  1  0
  9 10  1  0
 10 11  2  0
 11 12  1  0
 11 15  1  0
 12 13  2  0
 12 14  1  0
 15 16  2  0
 16 17  1  0
 17 18  2  0
 17 22  1  0
 18 19  1  0
 19 20  2  0
 20 21  1  0
 20 23  1  0
 21 22  2  0
 23 24  2  0
 23 25  1  0
 25 26  1  0
M  END
>  <DRUGBANK_ID>  (1) 
DB07835

>  <COMMON_NAME>  (1) 
N~3~-cyclopropyl-N~4~'-(cyclopropylmethyl)-6-methylbiphenyl-3,4'-dicarboxamide

>  <UNII>  (1) 
ATH2GHG7LR

$$$$
