
     RDKit          3D

 23 24  0  0  0  0  0  0  0  0999 V2000
    0.5860   -1.1031   -0.4387 C   0  0  0  0  0  0  0  0  0  0  0  0
    0.3452   -0.1259   -1.7069 C   0  0  0  0  0  0  0  0  0  0  0  0
    5.4033    1.7362   -1.2493 C   0  0  0  0  0  0  0  0  0  0  0  0
    5.3639    1.1595    0.1642 C   0  0  0  0  0  0  0  0  0  0  0  0
    4.3196    1.2151   -2.1652 C   0  0  0  0  0  0  0  0  0  0  0  0
    3.9686    1.2629    0.7024 C   0  0  0  0  0  0  0  0  0  0  0  0
   -1.1202    4.4133    1.8982 C   0  0  0  0  0  0  0  0  0  0  0  0
   -0.6928    3.1166    1.7508 C   0  0  0  0  0  0  0  0  0  0  0  0
    0.6166    4.7158    3.5859 C   0  0  0  0  0  0  0  0  0  0  0  0
   -0.4570    5.1944    2.8233 C   0  0  0  0  0  0  0  0  0  0  0  0
    3.1608    0.6567   -1.7369 C   0  0  0  0  0  0  0  0  0  0  0  0
    1.0989    3.4448    3.3872 C   0  0  0  0  0  0  0  0  0  0  0  0
    0.4959    2.6838    2.4128 C   0  0  0  0  0  0  0  0  0  0  0  0
    2.9301    0.6045   -0.2202 C   0  0  2  0  0  0  0  0  0  0  0  0
    2.4609   -0.1948   -2.8071 C   0  0  0  0  0  0  0  0  0  0  0  0
    2.5179    2.8782    4.2009 Cl  0  0  0  0  0  0  0  0  0  0  0  0
   -0.8666    6.4516    2.9986 F   0  0  0  0  0  0  0  0  0  0  0  0
    1.3206    1.6146    1.9433 N   0  0  0  0  0  0  0  0  0  0  0  0
    3.1123   -0.6386   -3.7494 O   0  0  0  0  0  0  0  0  0  0  0  0
    1.5384    3.0059   -0.1943 O   0  0  0  0  0  0  0  0  0  0  0  0
   -0.0089    1.1285    0.1393 O   0  0  0  0  0  0  0  0  0  0  0  0
    1.1484   -0.5617   -2.7672 O   0  0  0  0  0  0  0  0  0  0  0  0
    1.3451    1.6731    0.2896 S   0  0  0  0  0  0  0  0  0  0  0  0
  2  1  1  0
  4  3  1  0
  5  3  1  0
  6  4  1  0
  8  7  2  0
 10  7  1  0
 10  9  2  0
 11  5  2  0
 12  9  1  0
 13  8  1  0
 13 12  2  0
 14  6  1  0
 14 11  1  0
 14 23  1  6
 15 11  1  0
 16 12  1  0
 17 10  1  0
 18 13  1  0
 19 15  2  0
 22  2  1  0
 22 15  1  0
 23 18  1  0
 23 20  2  0
 23 21  2  0
M  END
>  <DRUGBANK_ID>  (1) 
DB05943

>  <COMMON_NAME>  (1) 
Resatorvid

>  <CAS_NUMBER>  (1) 
243984-11-4

>  <UNII>  (1) 
H2MZ648C31

>  <SYNONYMS>  (1) 
Resatorvid

$$$$
