
     RDKit          3D

 17 18  0  0  1  0  0  0  0  0999 V2000
    0.3898    1.2161   -1.9406 C   0  0  0  0  0  0  0  0  0  0  0  0
    0.5978    1.3365   -0.4205 C   0  0  1  0  0  0  0  0  0  0  0  0
    1.3366    2.5536   -0.3196 O   0  0  0  0  0  0  0  0  0  0  0  0
    1.6998    2.8941    1.0132 C   0  0  0  0  0  0  0  0  0  0  0  0
    0.4606    3.0030    1.8879 C   0  0  1  0  0  0  0  0  0  0  0  0
   -0.1964    4.2276    1.5779 O   0  0  0  0  0  0  0  0  0  0  0  0
   -1.6021    4.2841    1.4357 C   0  0  1  0  0  0  0  0  0  0  0  0
   -1.8683    4.5918    0.0739 O   0  0  0  0  0  0  0  0  0  0  0  0
   -2.4796    3.0774    1.8560 C   0  0  2  0  0  0  0  0  0  0  0  0
   -3.5520    3.4763    2.7288 O   0  0  0  0  0  0  0  0  0  0  0  0
   -1.6647    1.9652    2.4989 C   0  0  1  0  0  0  0  0  0  0  0  0
   -2.3939    0.7350    2.5687 O   0  0  0  0  0  0  0  0  0  0  0  0
   -0.3847    1.7479    1.6990 C   0  0  1  0  0  0  0  0  0  0  0  0
   -0.6518    1.4831    0.2877 O   0  0  0  0  0  0  0  0  0  0  0  0
    1.3562    0.0258    0.0286 C   0  0  0  0  0  0  0  0  0  0  0  0
    0.6203   -1.1132    0.0661 O   0  0  0  0  0  0  0  0  0  0  0  0
    2.5277    0.0167    0.4002 O   0  0  0  0  0  0  0  0  0  0  0  0
  2  3  1  0
  2 14  1  0
  2 15  1  0
  2  1  1  6
  3  4  1  0
  5  4  1  6
  5  6  1  0
  5 13  1  0
  6  7  1  0
  7  8  1  6
  7  9  1  0
  9 11  1  0
  9 10  1  1
 11 12  1  6
 11 13  1  0
 13 14  1  6
 15 16  1  0
 15 17  2  0
M  END
>  <DRUGBANK_ID>  (1) 
DB04386

>  <SECONDARY_ACCESSION_NUMBERS>  (1) 
EXPT00886

>  <COMMON_NAME>  (1) 
4,6-O-(1-Carboxyethylidene)-Beta-D-Glucose

$$$$
