DCX
     RDKit          3D

 14 13  0  0  0  0  0  0  0  0999 V2000
    1.0895   -0.0145    0.0421 C   0  0  0  0  0  0  0  0  0  0  0  0
    1.5382   -1.9828   -1.2127 O   0  0  0  0  0  0  0  0  0  0  0  0
    0.2797   -2.4695    2.6459 C   0  0  0  0  0  0  0  0  0  0  0  0
    0.1714   -9.1606    5.5604 C   0  0  0  0  0  0  0  0  0  0  0  0
    1.1542   -8.7385    4.4776 C   0  0  0  0  0  0  0  0  0  0  0  0
    0.4105   -8.3077    3.2151 C   0  0  0  0  0  0  0  0  0  0  0  0
   -0.5548   -7.1554    3.5002 C   0  0  0  0  0  0  0  0  0  0  0  0
    0.1907   -5.9792    4.1555 C   0  0  0  0  0  0  0  0  0  0  0  0
    1.2046   -5.4001    3.1826 C   0  0  0  0  0  0  0  0  0  0  0  0
    0.4789   -4.8969    1.9677 C   0  0  0  0  0  0  0  0  0  0  0  0
   -0.4884   -3.7522    2.3693 C   0  0  0  0  0  0  0  0  0  0  0  0
    1.2966   -2.1143    1.5636 C   0  0  0  0  0  0  0  0  0  0  0  0
    0.4795   -1.7318   -0.1236 P   0  0  0  0  0  0  0  0  0  0  0  0
   -0.1305   -3.4492   -0.2893 C   0  0  0  0  0  0  0  0  0  0  0  0
  1 13  1  0
  2 13  2  0
  3 11  1  0
  3 12  1  0
  4  5  1  0
  5  6  1  0
  6  7  1  0
  7  8  1  0
  8  9  1  0
  9 10  1  0
 10 11  1  0
 12 13  1  0
 13 14  1  0
M  END
>  <DRUGBANK_ID>  (1) 
DB07641

>  <COMMON_NAME>  (1) 
Decyl(dimethyl)phosphine oxide

>  <CAS_NUMBER>  (1) 
2190-95-6

>  <UNII>  (1) 
BQ0G8CN4H9

$$$$
