
     RDKit          3D

 14 15  0  0  0  0  0  0  0  0999 V2000
    1.7762   -1.9293    0.0097 C   0  0  0  0  0  0  0  0  0  0  0  0
    0.4104   -1.7025   -0.0115 C   0  0  0  0  0  0  0  0  0  0  0  0
    2.6347   -0.8424    0.0136 C   0  0  0  0  0  0  0  0  0  0  0  0
   -2.8061    3.5586   -0.5920 C   0  0  0  0  0  0  0  0  0  0  0  0
   -3.1245    2.6328    0.5826 C   0  0  0  0  0  0  0  0  0  0  0  0
   -0.1168   -0.3995   -0.0312 C   0  0  0  0  0  0  0  0  0  0  0  0
    2.1124    0.4571    0.0367 C   0  0  0  0  0  0  0  0  0  0  0  0
    0.7213    0.7323    0.0246 C   0  0  0  0  0  0  0  0  0  0  0  0
   -0.9322    2.5882    0.0497 C   0  0  0  0  0  0  0  0  0  0  0  0
   -1.9951   -0.4360   -0.2732 Br  0  0  0  0  0  0  0  0  0  0  0  0
    2.9881    1.4765    0.0539 F   0  0  0  0  0  0  0  0  0  0  0  0
   -1.3751    3.2862   -0.9573 N   0  0  0  0  0  0  0  0  0  0  0  0
   -1.7913    2.4061    1.0932 N   0  0  0  0  0  0  0  0  0  0  0  0
    0.3311    2.0994    0.1940 N   0  0  0  0  0  0  0  0  0  0  0  0
  2  1  2  0
  3  1  1  0
  5  4  1  0
  6  2  1  0
  7  3  2  0
  8  6  2  0
  8  7  1  0
 10  6  1  0
 11  7  1  0
 12  4  1  0
 12  9  2  0
 13  5  1  0
 13  9  1  0
 14  8  1  0
 14  9  1  0
M  END
>  <DRUGBANK_ID>  (1) 
DB11543

>  <COMMON_NAME>  (1) 
Romifidine

>  <CAS_NUMBER>  (1) 
65896-16-4

>  <UNII>  (1) 
876351L05K

>  <SYNONYMS>  (1) 
Romifidine

$$$$
