37A
     RDKit          3D

 28 31  0  0  0  0  0  0  0  0999 V2000
    0.9202    0.0441    0.0411 O   0  0  0  0  0  0  0  0  0  0  0  0
    2.1523   -0.0048    0.0494 C   0  0  0  0  0  0  0  0  0  0  0  0
    2.9743    0.9958   -0.7717 C   0  0  2  0  0  0  0  0  0  0  0  0
    4.1818    0.4617   -1.3249 O   0  0  0  0  0  0  0  0  0  0  0  0
    3.4156    2.1822    0.0776 C   0  0  2  0  0  0  0  0  0  0  0  0
    3.4109    3.4926   -0.7451 C   0  0  0  0  0  0  0  0  0  0  0  0
    4.4623    3.5803   -1.7803 N   0  0  0  0  0  0  0  0  0  0  0  0
    4.5365    4.7331   -2.5304 C   0  0  0  0  0  0  0  0  0  0  0  0
    3.6902    5.6313   -2.3944 O   0  0  0  0  0  0  0  0  0  0  0  0
    5.5079    4.9506   -3.4389 N   0  0  0  0  0  0  0  0  0  0  0  0
    6.6368    4.2334   -3.8276 O   0  0  0  0  0  0  0  0  0  0  0  0
    5.4330    2.4913   -1.8198 C   0  0  0  0  0  0  0  0  0  0  0  0
    4.7767    1.8407    0.4122 O   0  0  0  0  0  0  0  0  0  0  0  0
    5.2141    1.3252   -0.8421 C   0  0  1  0  0  0  0  0  0  0  0  0
    2.8529   -0.8968    0.8215 N   0  0  0  0  0  0  0  0  0  0  0  0
    2.1862   -1.9401    1.5765 C   0  0  0  0  0  0  0  0  0  0  0  0
    2.5318   -3.3388    1.1236 C   0  0  0  0  0  0  0  0  0  0  0  0
    1.6805   -4.3942    1.4811 C   0  0  0  0  0  0  0  0  0  0  0  0
    2.0182   -5.7111    1.1712 C   0  0  0  0  0  0  0  0  0  0  0  0
    3.1677   -6.0028    0.4216 C   0  0  0  0  0  0  0  0  0  0  0  0
    4.0276   -4.9545    0.0836 C   0  0  0  0  0  0  0  0  0  0  0  0
    3.7163   -3.6400    0.4368 C   0  0  0  0  0  0  0  0  0  0  0  0
    3.3987   -7.3671   -0.0562 C   0  0  0  0  0  0  0  0  0  0  0  0
    4.5565   -8.0838    0.2698 C   0  0  0  0  0  0  0  0  0  0  0  0
    4.7127   -9.4044   -0.1574 C   0  0  0  0  0  0  0  0  0  0  0  0
    2.4183   -7.9944   -0.8446 C   0  0  0  0  0  0  0  0  0  0  0  0
    2.5512   -9.3257   -1.2290 C   0  0  0  0  0  0  0  0  0  0  0  0
    3.7089  -10.0245   -0.9015 C   0  0  0  0  0  0  0  0  0  0  0  0
  1  2  2  0
  2 15  1  0
  3  2  1  1
  3  5  1  0
  3  4  1  0
  4 14  1  0
  5  6  1  6
  5 13  1  0
  6  7  1  0
  7 12  1  0
  7  8  1  0
  8  9  2  0
  8 10  1  0
 10 11  1  0
 14 12  1  6
 13 14  1  0
 15 16  1  0
 16 17  1  0
 17 22  1  0
 17 18  2  0
 18 19  1  0
 19 20  2  0
 20 21  1  0
 20 23  1  0
 21 22  2  0
 23 24  2  0
 23 26  1  0
 24 25  1  0
 25 28  2  0
 26 27  2  0
 27 28  1  0
M  END
>  <DRUGBANK_ID>  (1) 
DB07026

>  <COMMON_NAME>  (1) 
(1S,5S,7R)-N~7~-(BIPHENYL-4-YLMETHYL)-N~3~-HYDROXY-6,8-DIOXA-3-AZABICYCLO[3.2.1]OCTANE-3,7-DICARBOXAMIDE

$$$$
