371
     RDKit          3D

 15 14  0  0  0  0  0  0  0  0999 V2000
    1.3076   -0.1456    0.0055 O   0  0  0  0  0  0  0  0  0  0  0  0
   -1.7439    0.2953    3.2156 O   0  0  0  0  0  0  0  0  0  0  0  0
    3.1376   -0.8686   -1.1061 O   0  0  0  0  0  0  0  0  0  0  0  0
   -1.6704    2.0442    1.7122 O   0  0  0  0  0  0  0  0  0  0  0  0
    3.3748    0.7675    0.3867 N   0  0  0  0  0  0  0  0  0  0  0  0
   -3.5355    0.8373    2.0173 N   0  0  0  0  0  0  0  0  0  0  0  0
    0.6490   -0.0832    2.4913 C   0  0  0  0  0  0  0  0  0  0  0  0
    2.0937    0.1470    3.0187 C   0  0  0  0  0  0  0  0  0  0  0  0
    0.5077    0.5038    1.0504 C   0  0  0  0  0  0  0  0  0  0  0  0
   -0.3606    0.5246    3.5094 C   0  0  0  0  0  0  0  0  0  0  0  0
    0.3375   -1.5914    2.4169 C   0  0  0  0  0  0  0  0  0  0  0  0
    2.5452    1.6458    3.0837 C   0  0  0  0  0  0  0  0  0  0  0  0
    1.9692    2.4855    4.1874 C   0  0  0  0  0  0  0  0  0  0  0  0
    2.6295   -0.1176   -0.3068 C   0  0  0  0  0  0  0  0  0  0  0  0
   -2.2572    1.1427    2.2902 C   0  0  0  0  0  0  0  0  0  0  0  0
  1  9  1  0
  1 14  1  0
  2 10  1  0
  2 15  1  0
  3 14  2  0
  4 15  2  0
  5 14  1  0
  6 15  1  0
  7  8  1  0
  7  9  1  0
  7 10  1  0
  7 11  1  0
  8 12  1  0
 12 13  1  0
M  END
>  <DRUGBANK_ID>  (1) 
DB00371

>  <SECONDARY_ACCESSION_NUMBERS>  (1) 
APRD01095

>  <COMMON_NAME>  (1) 
Meprobamate

>  <CAS_NUMBER>  (1) 
57-53-4

>  <UNII>  (1) 
9I7LNY769Q

>  <SYNONYMS>  (1) 
Meprobamat; Meprobamate; Meprobamato; Meprobamatum; Meprobamic acid

$$$$
