507
     RDKit          3D

 21 22  0  0  0  0  0  0  0  0999 V2000
   -0.9356    0.1665    1.0373 S   0  0  0  0  0  0  0  0  0  0  0  0
   -1.4199   -1.0046   -1.8688 O   0  0  0  0  0  0  0  0  0  0  0  0
   -1.3699   -4.2836    0.3807 O   0  0  0  0  0  0  0  0  0  0  0  0
   -0.4964   -3.1266   -2.1580 O   0  0  0  0  0  0  0  0  0  0  0  0
   -1.5541    2.8903   -0.0045 O   0  0  0  0  0  0  0  0  0  0  0  0
    0.5562    3.5154   -0.0362 O   0  0  0  0  0  0  0  0  0  0  0  0
   -0.1014   -2.4034    0.5930 N   0  0  0  0  0  0  0  0  0  0  0  0
    1.4034   -0.5874    0.3475 N   0  0  0  0  0  0  0  0  0  0  0  0
   -0.3397    2.6719    0.0940 N   0  0  0  0  0  0  0  0  0  0  0  0
   -2.5226   -2.3281   -0.0311 C   0  0  0  0  0  0  0  0  0  0  0  0
   -2.5623   -1.3707   -1.0622 C   0  0  0  0  0  0  0  0  0  0  0  0
   -1.3030   -3.0532    0.3586 C   0  0  0  0  0  0  0  0  0  0  0  0
   -3.6634   -2.5883    0.7513 C   0  0  0  0  0  0  0  0  0  0  0  0
   -3.6882   -0.5342   -1.1427 C   0  0  0  0  0  0  0  0  0  0  0  0
   -4.8199   -1.8348    0.5744 C   0  0  0  0  0  0  0  0  0  0  0  0
    0.2056   -1.0546    0.6410 C   0  0  0  0  0  0  0  0  0  0  0  0
   -4.8056   -0.7640   -0.3185 C   0  0  0  0  0  0  0  0  0  0  0  0
    0.0858    1.3297    0.3383 C   0  0  0  0  0  0  0  0  0  0  0  0
    1.3419    0.7985    0.1779 C   0  0  0  0  0  0  0  0  0  0  0  0
   -0.4004   -1.9182   -2.2044 C   0  0  0  0  0  0  0  0  0  0  0  0
    0.9061   -1.2613   -2.5736 C   0  0  0  0  0  0  0  0  0  0  0  0
  1 16  1  0
  1 18  1  0
  2 11  1  0
  2 20  1  0
  3 12  2  0
  4 20  2  0
  5  9  1  0
  6  9  2  0
  7 12  1  0
  7 16  1  0
  8 16  2  0
  8 19  1  0
  9 18  1  0
 10 11  2  0
 10 12  1  0
 10 13  1  0
 11 14  1  0
 13 15  2  0
 14 17  2  0
 15 17  1  0
 18 19  2  0
 20 21  1  0
M  CHG  2   5  -1   9   1
M  END
>  <DRUGBANK_ID>  (1) 
DB00507

>  <SECONDARY_ACCESSION_NUMBERS>  (1) 
APRD00558

>  <COMMON_NAME>  (1) 
Nitazoxanide

>  <CAS_NUMBER>  (1) 
55981-09-4

>  <UNII>  (1) 
SOA12P041N

>  <SYNONYMS>  (1) 
Nitaxozanid; Nitaxozanide; Nitazoxanida; Nitazoxanide; Nitazoxanidum

$$$$
