SBA
     RDKit          3D

 29 29  0  0  0  0  0  0  0  0999 V2000
    2.2586    3.3753    9.7367 C   0  0  0  0  0  0  0  0  0  0  0  0
    2.2804    2.1970   10.4798 C   0  0  0  0  0  0  0  0  0  0  0  0
    2.9506    1.0650    9.9941 C   0  0  0  0  0  0  0  0  0  0  0  0
    3.6223    1.1382    8.7679 C   0  0  0  0  0  0  0  0  0  0  0  0
    3.5720    2.3084    8.0128 C   0  0  0  0  0  0  0  0  0  0  0  0
    2.9174    3.4347    8.5105 C   0  0  0  0  0  0  0  0  0  0  0  0
    2.8484   -0.2487   10.7271 C   0  0  0  0  0  0  0  0  0  0  0  0
    2.2569   -1.2760    9.9015 O   0  0  0  0  0  0  0  0  0  0  0  0
    0.9630   -1.0856    9.5428 C   0  0  0  0  0  0  0  0  0  0  0  0
    0.2542   -0.1380    9.8783 O   0  0  0  0  0  0  0  0  0  0  0  0
    0.4391   -2.0665    8.7546 N   0  0  0  0  0  0  0  0  0  0  0  0
    1.1325   -3.2517    8.2676 C   0  0  2  0  0  0  0  0  0  0  0  0
    0.9135   -3.5045    6.7682 C   0  0  0  0  0  0  0  0  0  0  0  0
   -0.2125   -2.9478    6.2093 N   0  0  0  0  0  0  0  0  0  0  0  0
   -0.6385   -3.1663    4.8163 C   0  0  2  0  0  0  0  0  0  0  0  0
   -2.1641   -2.9741    4.6268 C   0  0  2  0  0  0  0  0  0  0  0  0
   -0.2364   -4.5273    4.2442 C   0  0  0  0  0  0  0  0  0  0  0  0
   -0.6170   -4.7678    2.7812 C   0  0  0  0  0  0  0  0  0  0  0  0
    0.0123   -3.7070    1.8800 C   0  0  0  0  0  0  0  0  0  0  0  0
   -0.1374   -6.1622    2.3993 C   0  0  0  0  0  0  0  0  0  0  0  0
    0.7241   -4.5076    9.0690 C   0  0  0  0  0  0  0  0  0  0  0  0
    1.4707   -5.7942    8.6420 C   0  0  0  0  0  0  0  0  0  0  0  0
    2.9865   -5.6121    8.7367 C   0  0  0  0  0  0  0  0  0  0  0  0
    1.0359   -6.9945    9.4759 C   0  0  0  0  0  0  0  0  0  0  0  0
    1.6471   -4.2895    6.1745 O   0  0  0  0  0  0  0  0  0  0  0  0
   -2.3053   -1.8191    3.7916 O   0  0  0  0  0  0  0  0  0  0  0  0
   -2.9302   -2.9183    5.9602 C   0  0  0  0  0  0  0  0  0  0  0  0
   -4.2663   -2.4426    5.8154 O   0  0  0  0  0  0  0  0  0  0  0  0
   -4.2920   -1.0371    5.5811 C   0  0  0  0  0  0  0  0  0  0  0  0
  1  2  2  0
  1  6  1  0
  2  3  1  0
  3  4  2  0
  3  7  1  0
  4  5  1  0
  5  6  2  0
  7  8  1  0
  8  9  1  0
  9 10  2  0
  9 11  1  0
 12 21  1  1
 12 13  1  0
 12 11  1  0
 13 14  1  0
 13 25  2  0
 15 17  1  1
 15 16  1  0
 15 14  1  0
 16 27  1  0
 16 26  1  1
 17 18  1  0
 18 19  1  0
 18 20  1  0
 21 22  1  0
 22 23  1  0
 22 24  1  0
 27 28  1  0
 28 29  1  0
M  END
>  <DRUGBANK_ID>  (1) 
DB08526

>  <COMMON_NAME>  (1) 
CARBOBENZYLOXY-(L)-LEUCINYL-(L)LEUCINYL METHOXYMETHYLKETONE

$$$$
