288
     RDKit          3D

 25 27  0  0  0  0  0  0  0  0999 V2000
    7.0974    6.2734    2.5499 C   0  0  0  0  0  0  0  0  0  0  0  0
    7.0998    5.0284    3.1656 C   0  0  0  0  0  0  0  0  0  0  0  0
    7.1940    6.0368    1.1513 C   0  0  0  0  0  0  0  0  0  0  0  0
    7.0209    7.4337    3.3489 C   0  0  0  0  0  0  0  0  0  0  0  0
    7.2610    4.0894    2.1551 N   0  0  0  0  0  0  0  0  0  0  0  0
    6.9787    4.8826    4.5622 C   0  0  0  0  0  0  0  0  0  0  0  0
    7.3711    4.6785    0.8960 C   0  0  0  0  0  0  0  0  0  0  0  0
    6.9641    7.3042    4.7406 C   0  0  0  0  0  0  0  0  0  0  0  0
    6.9279    6.0495    5.3415 C   0  0  0  0  0  0  0  0  0  0  0  0
    7.5541    4.1105   -0.4736 C   0  0  0  0  0  0  0  0  0  0  0  0
    6.9620    8.7200    5.7249 Cl  0  0  0  0  0  0  0  0  0  0  0  0
    7.9715    2.7882   -0.5902 N   0  0  0  0  0  0  0  0  0  0  0  0
    7.3179    4.7541   -1.4784 O   0  0  0  0  0  0  0  0  0  0  0  0
    7.5767    1.9104   -1.7429 C   0  0  0  0  0  0  0  0  0  0  0  0
    7.7562    0.3603   -1.5036 C   0  0  2  0  0  0  0  0  0  0  0  0
    7.1743   -0.1841   -0.2276 N   0  0  0  0  0  0  0  0  0  0  0  0
    9.1149   -0.0332   -1.6924 O   0  0  0  0  0  0  0  0  0  0  0  0
    5.7642    0.2920    0.0093 C   0  0  0  0  0  0  0  0  0  0  0  0
    8.1562   -0.0863    0.8804 C   0  0  0  0  0  0  0  0  0  0  0  0
    5.6663    1.7384    0.4644 C   0  0  0  0  0  0  0  0  0  0  0  0
    4.8928   -0.3916    1.0770 C   0  0  0  0  0  0  0  0  0  0  0  0
    7.7271   -0.5728    2.2520 C   0  0  0  0  0  0  0  0  0  0  0  0
    4.4319    2.0218    1.2446 C   0  0  0  0  0  0  0  0  0  0  0  0
    3.9134    0.6607    1.6122 C   0  0  0  0  0  0  0  0  0  0  0  0
    7.3418   -1.9358    2.1762 O   0  0  0  0  0  0  0  0  0  0  0  0
  1  2  2  0
  1  3  1  0
  1  4  1  0
  2  5  1  0
  2  6  1  0
  3  7  2  0
  4  8  2  0
  5  7  1  0
  6  9  2  0
  7 10  1  0
  8  9  1  0
  8 11  1  0
 10 12  1  0
 10 13  2  0
 12 14  1  0
 15 17  1  1
 15 16  1  0
 15 14  1  0
 16 18  1  0
 16 19  1  0
 18 20  1  0
 18 21  1  0
 19 22  1  0
 20 23  1  0
 21 24  1  0
 22 25  1  0
 23 24  1  0
M  END
>  <DRUGBANK_ID>  (1) 
DB03288

>  <SECONDARY_ACCESSION_NUMBERS>  (1) 
EXPT00098

>  <COMMON_NAME>  (1) 
5-Chloro-1h-Indole-2-Carboxylic Acid{[Cyclopentyl-(2-Hydroxy-Ethyl)-Carbamoyl]-Methyl}-Amide

$$$$
