
     RDKit          3D

 30 32  0  0  1  0  0  0  0  0999 V2000
    0.9358   -0.1109   -0.0253 O   0  0  0  0  0  0  0  0  0  0  0  0
    0.4643    0.0684    1.3068 C   0  0  0  0  0  0  0  0  0  0  0  0
    0.9564   -1.0826    2.1999 C   0  0  1  0  0  0  0  0  0  0  0  0
    2.3845   -1.0713    2.2378 O   0  0  0  0  0  0  0  0  0  0  0  0
    0.4691   -0.9625    3.6116 C   0  0  0  0  0  0  0  0  0  0  0  0
    0.1614   -2.0868    4.3703 C   0  0  0  0  0  0  0  0  0  0  0  0
   -0.2820   -2.0355    5.6456 N   0  0  0  0  0  0  0  0  0  0  0  0
   -0.3893   -0.8032    6.2070 C   0  0  0  0  0  0  0  0  0  0  0  0
   -0.0942    0.3806    5.5306 C   0  0  0  0  0  0  0  0  0  0  0  0
   -0.1816    1.9720    6.1979 Cl  0  0  0  0  0  0  0  0  0  0  0  0
    0.3430    0.2849    4.2270 C   0  0  0  0  0  0  0  0  0  0  0  0
   -0.8982   -0.7846    7.5713 C   0  0  0  0  0  0  0  0  0  0  0  0
   -0.2921   -1.3751    8.6164 C   0  0  0  0  0  0  0  0  0  0  0  0
   -0.7676   -1.2721   10.0533 C   0  0  0  0  0  0  0  0  0  0  0  0
   -1.9575   -0.4134   10.1794 N   0  0  0  0  0  0  0  0  0  0  0  0
   -2.8032   -0.4121    9.0122 C   0  0  0  0  0  0  0  0  0  0  0  0
   -2.1532   -0.0276    7.7319 C   0  0  0  0  0  0  0  0  0  0  0  0
   -2.2204    0.2472   11.3752 C   0  0  0  0  0  0  0  0  0  0  0  0
   -1.4048    0.2396   12.2936 O   0  0  0  0  0  0  0  0  0  0  0  0
   -3.3584    1.0092   11.5507 N   0  0  0  0  0  0  0  0  0  0  0  0
   -4.5561    1.1074   10.8286 C   0  0  0  0  0  0  0  0  0  0  0  0
   -5.1651   -0.0455   10.3406 C   0  0  0  0  0  0  0  0  0  0  0  0
   -5.9795    0.0550    9.2102 C   0  0  0  0  0  0  0  0  0  0  0  0
   -6.3366    1.3106    8.7213 C   0  0  0  0  0  0  0  0  0  0  0  0
   -5.8284    2.4150    9.3946 C   0  0  0  0  0  0  0  0  0  0  0  0
   -4.9439    2.3411   10.4319 N   0  0  0  0  0  0  0  0  0  0  0  0
   -7.2770    1.4612    7.5645 C   0  0  0  0  0  0  0  0  0  0  0  0
   -8.4589    2.0159    7.9438 F   0  0  0  0  0  0  0  0  0  0  0  0
   -6.7923    2.2455    6.5641 F   0  0  0  0  0  0  0  0  0  0  0  0
   -7.5963    0.2720    6.9776 F   0  0  0  0  0  0  0  0  0  0  0  0
  1  2  1  0
  3  2  1  0
  3  4  1  1
  3  5  1  0
  5  6  2  0
  5 11  1  0
  6  7  1  0
  7  8  2  0
  8  9  1  0
  8 12  1  0
  9 10  1  0
  9 11  2  0
 12 13  2  0
 12 17  1  0
 13 14  1  0
 14 15  1  0
 15 16  1  0
 15 18  1  0
 16 17  1  0
 18 19  2  0
 18 20  1  0
 20 21  1  0
 21 22  2  0
 21 26  1  0
 22 23  1  0
 23 24  2  0
 24 25  1  0
 24 27  1  0
 25 26  2  0
 27 28  1  0
 27 29  1  0
 27 30  1  0
M  END
>  <DRUGBANK_ID>  (1) 
DB16060

>  <COMMON_NAME>  (1) 
V116517

>  <CAS_NUMBER>  (1) 
1073616-61-1

>  <UNII>  (1) 
TBJ73RQT8F

$$$$
