2E1
     RDKit          3D

 25 27  0  0  0  0  0  0  0  0999 V2000
    0.8168   -1.3257    0.3660 C   0  0  0  0  0  0  0  0  0  0  0  0
   -0.6975   -1.2520    0.0757 C   0  0  0  0  0  0  0  0  0  0  0  0
   -0.4053    1.1963    0.1482 C   0  0  0  0  0  0  0  0  0  0  0  0
    1.0651    1.0848    0.4929 C   0  0  0  0  0  0  0  0  0  0  0  0
   -1.2107    0.0398    0.5901 N   0  0  0  0  0  0  0  0  0  0  0  0
   -2.5118    0.1253    1.0379 C   0  0  0  0  0  0  0  0  0  0  0  0
   -3.7506    0.7521    0.5718 C   0  0  0  0  0  0  0  0  0  0  0  0
   -4.2173    1.4969   -0.6914 C   0  0  0  0  0  0  0  0  0  0  0  0
    1.6224   -0.1615   -0.0933 N   0  0  0  0  0  0  0  0  0  0  0  0
   -5.2901    2.0818   -0.7355 O   0  0  0  0  0  0  0  0  0  0  0  0
   -3.4888    1.5511   -1.8968 N   0  0  0  0  0  0  0  0  0  0  0  0
   -2.1493    1.1604   -2.0344 C   0  0  0  0  0  0  0  0  0  0  0  0
   -1.6546    0.0766   -2.9517 C   0  0  0  0  0  0  0  0  0  0  0  0
   -4.6817    0.5881    1.5526 N   0  0  0  0  0  0  0  0  0  0  0  0
   -4.0899   -0.1206    2.5266 N   0  0  0  0  0  0  0  0  0  0  0  0
   -2.7987   -0.4544    2.2635 C   0  0  0  0  0  0  0  0  0  0  0  0
   -1.8852   -1.1548    3.1742 C   0  0  0  0  0  0  0  0  0  0  0  0
   -2.0784   -2.5096    3.4724 C   0  0  0  0  0  0  0  0  0  0  0  0
   -1.0886   -3.2152    4.1665 C   0  0  0  0  0  0  0  0  0  0  0  0
   -1.3289   -4.8867    4.5179 Cl  0  0  0  0  0  0  0  0  0  0  0  0
    0.0990   -2.5839    4.5497 C   0  0  0  0  0  0  0  0  0  0  0  0
    1.0911   -3.2368    5.2266 O   0  0  0  0  0  0  0  0  0  0  0  0
    0.3087   -1.2467    4.2552 C   0  0  0  0  0  0  0  0  0  0  0  0
   -0.6892   -0.5370    3.5984 C   0  0  0  0  0  0  0  0  0  0  0  0
   -0.4171    0.7843    3.3578 O   0  0  0  0  0  0  0  0  0  0  0  0
  1  2  1  0
  1  9  1  0
  2  5  1  0
  3  4  1  0
  3  5  1  0
  4  9  1  0
  5  6  1  0
  6  7  1  0
  6 16  2  0
  7  8  1  0
  7 14  2  0
  8 10  2  0
  8 11  1  0
 11 12  1  0
 12 13  1  0
 14 15  1  0
 15 16  1  0
 16 17  1  0
 17 18  2  0
 17 24  1  0
 18 19  1  0
 19 20  1  0
 19 21  2  0
 21 22  1  0
 21 23  1  0
 23 24  2  0
 24 25  1  0
M  END
>  <DRUGBANK_ID>  (1) 
DB06958

>  <COMMON_NAME>  (1) 
5-(5-CHLORO-2,4-DIHYDROXYPHENYL)-N-ETHYL-4-PIPERAZIN-1-YL-1H-PYRAZOLE-3-CARBOXAMIDE

$$$$
