
     RDKit          3D

 19 20  0  0  0  0  0  0  0  0999 V2000
    1.6919    1.1893    0.0006 C   0  0  0  0  0  0  0  0  0  0  0  0
    1.5592   -1.2099   -0.0515 C   0  0  0  0  0  0  0  0  0  0  0  0
    4.1239   -2.1520    1.6011 C   0  0  0  0  0  0  0  0  0  0  0  0
    5.0118   -0.0450    2.3393 C   0  0  0  0  0  0  0  0  0  0  0  0
    0.2892    1.2506   -0.0079 C   0  0  0  0  0  0  0  0  0  0  0  0
    0.1687   -1.1524   -0.0379 C   0  0  0  0  0  0  0  0  0  0  0  0
    4.4078   -2.7254    2.8370 C   0  0  0  0  0  0  0  0  0  0  0  0
    5.3342   -0.6313    3.5742 C   0  0  0  0  0  0  0  0  0  0  0  0
    2.3547   -0.0506   -0.0178 C   0  0  0  0  0  0  0  0  0  0  0  0
    4.3755   -0.7950    1.3338 C   0  0  0  0  0  0  0  0  0  0  0  0
   -0.4643    0.0777   -0.0186 C   0  0  0  0  0  0  0  0  0  0  0  0
    5.0075   -1.9636    3.8234 C   0  0  0  0  0  0  0  0  0  0  0  0
    3.8981   -0.1363    0.0195 C   0  0  0  0  0  0  0  0  0  0  0  0
    4.5612   -0.6808   -1.3057 C   0  0  0  0  0  0  0  0  0  0  0  0
   -2.1815    0.1393   -0.0123 Cl  0  0  0  0  0  0  0  0  0  0  0  0
    5.3365   -2.6763    5.3520 Cl  0  0  0  0  0  0  0  0  0  0  0  0
    4.0485    0.3165   -2.7289 Cl  0  0  0  0  0  0  0  0  0  0  0  0
    6.3630   -0.5512   -1.2126 Cl  0  0  0  0  0  0  0  0  0  0  0  0
    4.1911   -2.3922   -1.7332 Cl  0  0  0  0  0  0  0  0  0  0  0  0
  5  1  2  0
  6  2  1  0
  7  3  2  0
  8  4  1  0
  9  1  1  0
  9  2  2  0
 10  3  1  0
 10  4  2  0
 11  5  1  0
 11  6  2  0
 12  7  1  0
 12  8  2  0
 13  9  1  0
 13 10  1  0
 14 13  1  0
 15 11  1  0
 16 12  1  0
 17 14  1  0
 18 14  1  0
 19 14  1  0
M  END
>  <DRUGBANK_ID>  (1) 
DB13424

>  <COMMON_NAME>  (1) 
Clofenotane

>  <CAS_NUMBER>  (1) 
50-29-3

>  <UNII>  (1) 
CIW5S16655

>  <SYNONYMS>  (1) 
Clofenotane; DDT; Dichlorodiphenyltrichloroethane

$$$$
