370
     RDKit          3D

 20 23  0  0  1  0  0  0  0  0999 V2000
    0.9642    1.9129   -0.6292 N   0  0  0  0  0  0  0  0  0  0  0  0
   -0.3906    2.1758    1.6503 N   0  0  0  0  0  0  0  0  0  0  0  0
    3.0774    1.1598   -0.1212 N   0  0  0  0  0  0  0  0  0  0  0  0
   -0.5283    1.6767   -0.8234 C   0  0  0  0  0  0  0  0  0  0  0  0
   -0.9705    2.6384    0.2240 C   0  0  0  0  0  0  0  0  0  0  0  0
    1.3278    3.1836    0.4739 C   0  0  0  0  0  0  0  0  0  0  0  0
    0.7667    3.0224    1.9487 C   0  0  0  0  0  0  0  0  0  0  0  0
   -1.4748    0.5195   -0.3733 C   0  0  0  0  0  0  0  0  0  0  0  0
    1.8537    0.8462   -0.6453 C   0  0  0  0  0  0  0  0  0  0  0  0
   -1.1074   -0.7800   -0.4663 C   0  0  0  0  0  0  0  0  0  0  0  0
    0.1344   -1.0955   -1.2726 C   0  0  0  0  0  0  0  0  0  0  0  0
    1.4838   -0.5255   -0.8283 C   0  0  0  0  0  0  0  0  0  0  0  0
    0.3636    0.8639    1.9425 C   0  0  0  0  0  0  0  0  0  0  0  0
   -2.8013    0.8232    0.1691 C   0  0  0  0  0  0  0  0  0  0  0  0
   -1.9924   -1.7681    0.0865 C   0  0  0  0  0  0  0  0  0  0  0  0
    2.4205   -1.5041   -0.4438 C   0  0  0  0  0  0  0  0  0  0  0  0
   -3.6371   -0.1336    0.7458 C   0  0  0  0  0  0  0  0  0  0  0  0
   -3.2273   -1.4094    0.7038 C   0  0  0  0  0  0  0  0  0  0  0  0
    3.6137   -1.1597    0.1747 C   0  0  0  0  0  0  0  0  0  0  0  0
    3.8766    0.1845    0.3365 C   0  0  0  0  0  0  0  0  0  0  0  0
  1  4  1  0
  1  6  1  0
  1  9  1  0
  2  5  1  0
  2  7  1  0
  2 13  1  0
  3  9  2  0
  3 20  1  0
  4  5  1  0
  4  8  1  0
  6  7  1  0
  8 10  2  0
  8 14  1  0
  9 12  1  0
 10 11  1  0
 10 15  1  0
 11 12  1  0
 12 16  2  0
 14 17  2  0
 15 18  2  0
 16 19  1  0
 17 18  1  0
 19 20  2  0
M  END
>  <DRUGBANK_ID>  (1) 
DB00370

>  <SECONDARY_ACCESSION_NUMBERS>  (1) 
APRD00685

>  <COMMON_NAME>  (1) 
Mirtazapine

>  <CAS_NUMBER>  (1) 
85650-52-8

>  <UNII>  (1) 
A051Q2099Q

>  <SYNONYMS>  (1) 
1,2,3,4,10,14b-Hexahydro-2-methylpyrazino(2,1-a)pyrido(2,3-c)benzazepine; 6-Azamianserin; Mepirzapine; Mirtazapin; Mirtazapina; Mirtazapine; Mirtazapinum

$$$$
