457
     RDKit          3D

 28 31  0  0  0  0  0  0  0  0999 V2000
    1.1244   -0.0402    0.2233 O   0  0  0  0  0  0  0  0  0  0  0  0
    4.0506   -1.7279   -0.3482 O   0  0  0  0  0  0  0  0  0  0  0  0
    5.2933   10.1106    3.8736 O   0  0  0  0  0  0  0  0  0  0  0  0
    6.6573    9.2622    6.2702 O   0  0  0  0  0  0  0  0  0  0  0  0
    3.6423    3.3430    2.2349 N   0  0  0  0  0  0  0  0  0  0  0  0
    3.1094    0.8080    0.9723 N   0  0  0  0  0  0  0  0  0  0  0  0
    4.2643    5.5764    2.7576 N   0  0  0  0  0  0  0  0  0  0  0  0
    4.7997    3.7945    4.1957 N   0  0  0  0  0  0  0  0  0  0  0  0
    6.0219    4.0952    6.1304 N   0  0  0  0  0  0  0  0  0  0  0  0
    2.4661    2.5804    2.6637 C   0  0  0  0  0  0  0  0  0  0  0  0
    3.9892    3.1716    0.8241 C   0  0  0  0  0  0  0  0  0  0  0  0
    2.6661    1.0776    2.3499 C   0  0  0  0  0  0  0  0  0  0  0  0
    4.2342    1.6458    0.5237 C   0  0  0  0  0  0  0  0  0  0  0  0
    4.2388    4.2633    3.0700 C   0  0  0  0  0  0  0  0  0  0  0  0
    2.3633   -0.0156    0.1283 C   0  0  0  0  0  0  0  0  0  0  0  0
    4.8361    6.4618    3.6269 C   0  0  0  0  0  0  0  0  0  0  0  0
    3.0559   -0.8942   -0.8113 C   0  0  0  0  0  0  0  0  0  0  0  0
    5.4666    6.0410    4.7957 C   0  0  0  0  0  0  0  0  0  0  0  0
    5.4274    4.6613    5.0164 C   0  0  0  0  0  0  0  0  0  0  0  0
    4.8271    7.8526    3.4077 C   0  0  0  0  0  0  0  0  0  0  0  0
    6.0892    6.9802    5.6766 C   0  0  0  0  0  0  0  0  0  0  0  0
    2.7788   -1.2339   -2.1282 C   0  0  0  0  0  0  0  0  0  0  0  0
    5.4264    8.8006    4.2825 C   0  0  0  0  0  0  0  0  0  0  0  0
    6.0762    8.3507    5.4365 C   0  0  0  0  0  0  0  0  0  0  0  0
    3.6388   -2.3050   -2.4835 C   0  0  0  0  0  0  0  0  0  0  0  0
    4.3699   -2.5884   -1.3554 C   0  0  0  0  0  0  0  0  0  0  0  0
    5.8740   11.1299    4.6894 C   0  0  0  0  0  0  0  0  0  0  0  0
    7.3263    8.8445    7.4495 C   0  0  0  0  0  0  0  0  0  0  0  0
  1 15  2  0
  2 17  1  0
  2 26  1  0
  3 23  1  0
  3 27  1  0
  4 24  1  0
  4 28  1  0
  5 10  1  0
  5 11  1  0
  5 14  1  0
  6 12  1  0
  6 13  1  0
  6 15  1  0
  7 14  2  0
  7 16  1  0
  8 14  1  0
  8 19  2  0
  9 19  1  0
 10 12  1  0
 11 13  1  0
 15 17  1  0
 16 18  2  0
 16 20  1  0
 17 22  2  0
 18 19  1  0
 18 21  1  0
 20 23  2  0
 21 24  2  0
 22 25  1  0
 23 24  1  0
 25 26  2  0
M  END
>  <DRUGBANK_ID>  (1) 
DB00457

>  <SECONDARY_ACCESSION_NUMBERS>  (1) 
APRD00020

>  <COMMON_NAME>  (1) 
Prazosin

>  <CAS_NUMBER>  (1) 
19216-56-9

>  <UNII>  (1) 
XM03YJ541D

>  <SYNONYMS>  (1) 
1-(4-Amino-6,7-dimethoxy-2-quinazolinyl)-4-(2-furanylcarbonyl)piperazine; 2-(4-(2-Furoyl)piperazin-1-yl)-4-amino-6,7-dimethoxyquinazoline; Prazosin; Prazosina; Prazosine; Prazosinum

$$$$
