1296
     RDKit          3D

 12 12  0  0  1  0  0  0  0  0999 V2000
    0.7328    1.1801   -0.2324 O   0  0  0  0  0  0  0  0  0  0  0  0
   -1.4586   -2.4040   -0.3011 O   0  0  0  0  0  0  0  0  0  0  0  0
    1.3892   -2.4256    0.2785 O   0  0  0  0  0  0  0  0  0  0  0  0
   -0.5779    1.4392    1.6805 O   0  0  0  0  0  0  0  0  0  0  0  0
    3.5494    1.2076    0.1098 O   0  0  0  0  0  0  0  0  0  0  0  0
   -2.8401    0.0416    0.2521 N   0  0  0  0  0  0  0  0  0  0  0  0
   -0.7536   -1.2663    0.2216 C   0  0  1  0  0  0  0  0  0  0  0  0
    0.7158   -1.2744   -0.2322 C   0  0  1  0  0  0  0  0  0  0  0  0
   -1.4419    0.0404   -0.2117 C   0  0  2  0  0  0  0  0  0  0  0  0
    1.4333    0.0079    0.2164 C   0  0  1  0  0  0  0  0  0  0  0  0
   -0.6021    1.2558    0.2743 C   0  0  2  0  0  0  0  0  0  0  0  0
    2.8617    0.0429   -0.3442 C   0  0  0  0  0  0  0  0  0  0  0  0
  1 10  1  0
  1 11  1  0
 11  4  1  1
  5 12  1  0
  7  2  1  6
  7  8  1  0
  7  9  1  0
  8 10  1  0
  8  3  1  1
  9 11  1  0
  9  6  1  1
 10 12  1  6
M  END
>  <DRUGBANK_ID>  (1) 
DB01296

>  <SECONDARY_ACCESSION_NUMBERS>  (1) 
EXPT01563

>  <COMMON_NAME>  (1) 
Glucosamine

>  <CAS_NUMBER>  (1) 
3416-24-8

>  <UNII>  (1) 
N08U5BOQ1K

>  <SYNONYMS>  (1) 
2-amino-2-deoxy-D-glucose; Chitosamine; D-Glucosamine; Glucosamina; Glucosamine

$$$$
