187
     RDKit          3D

 21 21  0  0  1  0  0  0  0  0999 V2000
    0.9788   -0.0034    0.0605 O   0  0  0  0  0  0  0  0  0  0  0  0
    1.8363   -2.3351   -1.7818 O   0  0  0  0  0  0  0  0  0  0  0  0
    7.5750    3.1300   -1.5125 O   0  0  0  0  0  0  0  0  0  0  0  0
    5.5840    2.4582   -2.2670 O   0  0  0  0  0  0  0  0  0  0  0  0
   -1.6994   -3.0983   -1.3796 N   0  0  0  0  0  0  0  0  0  0  0  0
    0.4944   -1.9605   -1.4557 C   0  0  0  0  0  0  0  0  0  0  0  0
   -0.2563   -3.2863   -1.4386 C   0  0  0  0  0  0  0  0  0  0  0  0
   -2.4048   -4.3764   -1.4013 C   0  0  0  0  0  0  0  0  0  0  0  0
    0.2949   -1.2437   -0.0885 C   0  0  0  0  0  0  0  0  0  0  0  0
   -2.0619   -5.2307   -0.1801 C   0  0  0  0  0  0  0  0  0  0  0  0
   -3.8959   -4.0596   -1.4138 C   0  0  0  0  0  0  0  0  0  0  0  0
    5.1065    0.0399   -0.1291 C   0  0  0  0  0  0  0  0  0  0  0  0
    6.5979    0.0896   -0.3005 C   0  0  0  0  0  0  0  0  0  0  0  0
    2.3340   -0.0578    0.1837 C   0  0  0  0  0  0  0  0  0  0  0  0
    4.4591   -1.1865   -0.0209 C   0  0  0  0  0  0  0  0  0  0  0  0
    4.3529    1.2122    0.0178 C   0  0  0  0  0  0  0  0  0  0  0  0
    3.0990   -1.2213    0.2603 C   0  0  0  0  0  0  0  0  0  0  0  0
    2.9693    1.1686    0.1191 C   0  0  0  0  0  0  0  0  0  0  0  0
    7.1039    0.7118   -1.5999 C   0  0  0  0  0  0  0  0  0  0  0  0
    6.6993    2.1541   -1.8376 C   0  0  0  0  0  0  0  0  0  0  0  0
    8.9789    2.8807   -1.5797 C   0  0  0  0  0  0  0  0  0  0  0  0
  1  9  1  0
  1 14  1  0
  2  6  1  0
  3 20  1  0
  3 21  1  0
  4 20  2  0
  5  7  1  0
  5  8  1  0
  6  7  1  0
  6  9  1  0
  8 10  1  0
  8 11  1  0
 12 13  1  0
 12 15  2  0
 12 16  1  0
 13 19  1  0
 14 17  2  0
 14 18  1  0
 15 17  1  0
 16 18  2  0
 19 20  1  0
M  END
>  <DRUGBANK_ID>  (1) 
DB00187

>  <SECONDARY_ACCESSION_NUMBERS>  (1) 
APRD00954

>  <COMMON_NAME>  (1) 
Esmolol

>  <CAS_NUMBER>  (1) 
81147-92-4

>  <UNII>  (1) 
MDY902UXSR

>  <SYNONYMS>  (1) 
(±)-esmolol; (±)-methyl p-(2-hydroxy-3-(isopropylamino)propoxy)hydrocinnamate; 3-[4-(2-Hydroxy-3-isopropylamino-propoxy)-phenyl]-propionic acid methyl ester; Esmolol; Methyl 4-(2-hydroxy-3-((1-methylethyl)amino)propoxy)benzenepropanoate; methyl p-(2-hydroxy-3-(isopropylamino)propoxy)hydrocinnamate

$$$$
