
     RDKit          3D

  7  6  0  0  1  0  0  0  0  0999 V2000
    0.9706   -0.0214   -0.0932 N   0  0  0  0  0  0  0  0  0  0  0  0
    0.4806   -0.9757    0.9118 C   0  0  1  0  0  0  0  0  0  0  0  0
    0.9872   -0.5693    2.2860 C   0  0  0  0  0  0  0  0  0  0  0  0
    0.3339    1.2274    2.7181 Se  0  0  0  0  0  2  0  0  0  0  0  0
   -1.0394   -0.9757    0.9118 C   0  0  0  0  0  0  0  0  0  0  0  0
   -1.7494   -2.1714    0.6243 O   0  0  0  0  0  0  0  0  0  0  0  0
   -1.6749    0.0944    1.1692 O   0  0  0  0  0  0  0  0  0  0  0  0
  2  1  1  6
  2  3  1  0
  2  5  1  0
  3  4  1  0
  5  6  1  0
  5  7  2  0
M  END
>  <DRUGBANK_ID>  (1) 
DB02345

>  <SECONDARY_ACCESSION_NUMBERS>  (1) 
EXPT01033

>  <COMMON_NAME>  (1) 
Selenocysteine

>  <CAS_NUMBER>  (1) 
10236-58-5

>  <UNII>  (1) 
0CH9049VIS

>  <SYNONYMS>  (1) 
3-selenyl-L-alanine; L-selenocysteine; Selenium cysteine

$$$$
