SC3
     RDKit          3D

 26 29  0  0  0  0  0  0  0  0999 V2000
    1.9526    0.9386    0.0235 N   0  0  0  0  0  0  0  0  0  0  0  0
    2.1595   -0.4348    0.0193 C   0  0  0  0  0  0  0  0  0  0  0  0
    1.0285   -1.2524    0.0076 N   0  0  0  0  0  0  0  0  0  0  0  0
   -0.2513   -0.7157    0.0050 C   0  0  0  0  0  0  0  0  0  0  0  0
   -0.4698    0.6334   -0.0561 C   0  0  0  0  0  0  0  0  0  0  0  0
    0.6894    1.5292   -0.1648 C   0  0  0  0  0  0  0  0  0  0  0  0
   -1.8918    0.7503   -0.0046 N   0  0  0  0  0  0  0  0  0  0  0  0
   -2.4346   -0.5955   -0.0105 C   0  0  0  0  0  0  0  0  0  0  0  0
   -1.4197   -1.4461    0.0292 N   0  0  0  0  0  0  0  0  0  0  0  0
   -3.7769   -1.0028    0.1024 N   0  0  0  0  0  0  0  0  0  0  0  0
   -4.1323   -2.0467    1.1236 C   0  0  0  0  0  0  0  0  0  0  0  0
   -4.5985   -3.4242    0.5643 C   0  0  0  0  0  0  0  0  0  0  0  0
   -5.7149   -3.2504   -0.4317 N   0  0  0  0  0  0  0  0  0  0  0  0
   -5.2659   -2.3401   -1.5455 C   0  0  0  0  0  0  0  0  0  0  0  0
   -4.7702   -0.9480   -1.0088 C   0  0  0  0  0  0  0  0  0  0  0  0
   -2.6664    2.0198    0.0379 C   0  0  0  0  0  0  0  0  0  0  0  0
   -2.4884    2.8655    1.2964 C   0  0  0  0  0  0  0  0  0  0  0  0
   -1.2897    3.5352    1.5639 C   0  0  0  0  0  0  0  0  0  0  0  0
   -1.0016    4.1405    2.7847 C   0  0  0  0  0  0  0  0  0  0  0  0
   -1.9934    4.2286    3.7394 C   0  0  0  0  0  0  0  0  0  0  0  0
   -3.2649    3.7429    3.4377 C   0  0  0  0  0  0  0  0  0  0  0  0
   -3.5139    3.0664    2.2279 C   0  0  0  0  0  0  0  0  0  0  0  0
    0.6296    2.7187   -0.4948 O   0  0  0  0  0  0  0  0  0  0  0  0
    3.1580    1.7899    0.0028 C   0  0  0  0  0  0  0  0  0  0  0  0
    3.2993   -0.9098    0.0065 O   0  0  0  0  0  0  0  0  0  0  0  0
    1.2413   -2.6821    0.0001 C   0  0  0  0  0  0  0  0  0  0  0  0
  1  2  1  0
  1  6  1  0
  1 24  1  0
  2  3  1  0
  2 25  2  0
  3  4  1  0
  3 26  1  0
  4  5  2  0
  4  9  1  0
  5  6  1  0
  5  7  1  0
  6 23  2  0
  7  8  1  0
  7 16  1  0
  8  9  2  0
  8 10  1  0
 10 11  1  0
 10 15  1  0
 11 12  1  0
 12 13  1  0
 13 14  1  0
 14 15  1  0
 16 17  1  0
 17 18  2  0
 17 22  1  0
 18 19  1  0
 19 20  2  0
 20 21  1  0
 21 22  2  0
M  CHG  1  13   1
M  END
>  <DRUGBANK_ID>  (1) 
DB08530

>  <COMMON_NAME>  (1) 
7-BENZYL-1,3-DIMETHYL-8-PIPERAZIN-1-YL-3,7-DIHYDRO-PURINE-2,6-DIONE

$$$$
