
     RDKit          3D

 38 40  0  0  1  0  0  0  0  0999 V2000
    0.6013   -0.8929    0.7096 C   0  0  0  0  0  0  0  0  0  0  0  0
    5.0752    1.4650   -1.8614 C   0  0  0  0  0  0  0  0  0  0  0  0
    2.3185   -1.3979   -4.7579 C   0  0  0  0  0  0  0  0  0  0  0  0
    0.0720    0.8945    1.4284 C   0  0  2  0  0  0  0  0  0  0  0  0
    3.7216    2.1569   -0.8840 C   0  0  2  0  0  0  0  0  0  0  0  0
    1.7431   -0.3544   -3.9231 C   0  0  2  0  0  0  0  0  0  0  0  0
    2.4335    0.9798   -4.3137 C   0  0  2  0  0  0  0  0  0  0  0  0
   -1.3355    1.4715    0.6495 C   0  0  2  0  0  0  0  0  0  0  0  0
    3.5086    1.4691    0.4958 C   0  0  2  0  0  0  0  0  0  0  0  0
    3.7752    0.6443   -3.7482 C   0  0  1  0  0  0  0  0  0  0  0  0
    3.5464   -0.1069   -2.0376 C   0  0  1  0  0  0  0  0  0  0  0  0
   -0.4984    3.5211   -0.9193 C   0  0  1  0  0  0  0  0  0  0  0  0
    0.9556    0.5898   -0.5032 C   0  0  1  0  0  0  0  0  0  0  0  0
   -1.1482    2.1581   -1.0056 C   0  0  1  0  0  0  0  0  0  0  0  0
    2.5376    0.2043    0.3784 C   0  0  1  0  0  0  0  0  0  0  0  0
    0.7039    3.4879    0.0744 C   0  0  1  0  0  0  0  0  0  0  0  0
    2.9191   -1.3684   -1.9305 C   0  0  2  0  0  0  0  0  0  0  0  0
    1.1465    1.3817   -1.7424 C   0  0  2  0  0  0  0  0  0  0  0  0
    0.4786   -1.2458   -1.0149 O   0  0  0  0  0  0  0  0  0  0  0  0
    5.4969   -0.2766   -2.3254 O   0  0  0  0  0  0  0  0  0  0  0  0
    1.8079    2.2270   -3.9112 O   0  0  0  0  0  0  0  0  0  0  0  0
   -2.0515    2.3762    1.4260 O   0  0  0  0  0  0  0  0  0  0  0  0
    3.1826    2.3631    1.5710 O   0  0  0  0  0  0  0  0  0  0  0  0
    4.6429   -0.1594   -4.5159 O   0  0  0  0  0  0  0  0  0  0  0  0
    4.7307   -0.1659   -0.6366 O   0  0  0  0  0  0  0  0  0  0  0  0
   -0.1123    3.9418   -2.2869 O   0  0  0  0  0  0  0  0  0  0  0  0
   -0.6318   -0.2106   -0.5255 O   0  0  0  0  0  0  0  0  0  0  0  0
    1.7036    4.5189   -0.2278 O   0  0  0  0  0  0  0  0  0  0  0  0
   -0.4369   -0.0379   -5.9804 O   0  0  0  0  0  0  0  0  0  0  0  0
   -0.1819   -2.4103   -6.7439 O   0  0  0  0  0  0  0  0  0  0  0  0
   -1.6317   -1.8051   -5.0096 O   0  0  0  0  0  0  0  0  0  0  0  0
    1.5032   -1.2219   -5.7711 O   0  0  0  0  0  0  0  0  0  0  0  0
    0.8146    2.4989    1.3066 O   0  0  0  0  0  0  0  0  0  0  0  0
    2.3209    2.3390   -1.7301 O   0  0  0  0  0  0  0  0  0  0  0  0
    1.7684   -1.1674   -2.7401 O   0  0  0  0  0  0  0  0  0  0  0  0
   -0.2580    1.5670   -2.1034 O   0  0  0  0  0  0  0  0  0  0  0  0
    3.0255   -1.2982   -0.4061 O   0  0  0  0  0  0  0  0  0  0  0  0
   -0.1511   -1.5297   -5.3693 P   0  0  0  0  0  0  0  0  0  0  0  0
  4  1  1  6
  5  2  1  6
  6  3  1  6
  7  6  1  0
  7 21  1  1
  8  4  1  0
  8 22  1  1
  9  5  1  0
  9 23  1  1
 10  7  1  0
 10 24  1  6
 11 10  1  0
 11 25  1  6
 12 26  1  6
 13 27  1  6
 14  8  1  0
 14 12  1  0
 14 36  1  6
 15  9  1  0
 15 13  1  0
 15 37  1  6
 16 12  1  0
 16 28  1  1
 17 11  1  0
 17 37  1  1
 18 13  1  0
 18 36  1  1
 19  1  1  0
 20  2  1  0
 32  3  1  0
 33  4  1  0
 33 16  1  0
 34  5  1  0
 34 18  1  0
 35  6  1  0
 35 17  1  0
 38 29  1  0
 38 30  1  0
 38 31  2  0
 38 32  1  0
M  END
>  <DRUGBANK_ID>  (1) 
DB02755

>  <SECONDARY_ACCESSION_NUMBERS>  (1) 
EXPT02479

>  <COMMON_NAME>  (1) 
1-3 Sugar Ring of Pentamannosyl 6-Phosphate

$$$$
