
     RDKit          3D

 18 20  0  0  0  0  0  0  0  0999 V2000
   -2.0359   -0.7234    0.0175 N   0  0  0  0  0  0  0  0  0  0  0  0
   -1.9963    0.6547   -0.0430 C   0  0  0  0  0  0  0  0  0  0  0  0
   -0.9122    1.3651   -0.1208 N   0  0  0  0  0  0  0  0  0  0  0  0
    0.2190    0.6335   -0.0606 C   0  0  0  0  0  0  0  0  0  0  0  0
    0.3253   -0.7394   -0.0091 C   0  0  0  0  0  0  0  0  0  0  0  0
   -0.8995   -1.5157    0.0069 C   0  0  0  0  0  0  0  0  0  0  0  0
    1.6376   -1.1328    0.0038 N   0  0  0  0  0  0  0  0  0  0  0  0
    2.3193   -0.0045   -0.0016 C   0  0  0  0  0  0  0  0  0  0  0  0
    1.5031    1.1031   -0.0262 N   0  0  0  0  0  0  0  0  0  0  0  0
    1.4833    4.7164   -0.6003 C   0  0  1  0  0  0  0  0  0  0  0  0
    1.5687    3.3355   -1.2083 C   0  0  0  0  0  0  0  0  0  0  0  0
    1.9736    2.4757   -0.0188 C   0  0  1  0  0  0  0  0  0  0  0  0
    1.5240    3.1394    1.1805 O   0  0  0  0  0  0  0  0  0  0  0  0
    1.0668    4.4657    0.8444 C   0  0  2  0  0  0  0  0  0  0  0  0
   -0.4458    4.6447    1.0807 C   0  0  0  0  0  0  0  0  0  0  0  0
   -1.3415    3.8108    0.3739 O   0  0  0  0  0  0  0  0  0  0  0  0
    2.7739    5.3323   -0.6621 O   0  0  0  0  0  0  0  0  0  0  0  0
   -0.9719   -2.7462    0.0007 O   0  0  0  0  0  0  0  0  0  0  0  0
  2  1  1  0
  3  2  2  0
  4  3  1  0
  4  5  2  0
  5  6  1  0
  6  1  1  0
  7  5  1  0
  7  8  2  0
  8  9  1  0
  9  4  1  0
 10 17  1  1
 11 10  1  0
 12  9  1  6
 12 11  1  0
 13 12  1  0
 14 10  1  0
 14 13  1  0
 14 15  1  6
 16 15  1  0
 18  6  2  0
M  END
>  <DRUGBANK_ID>  (1) 
DB02380

>  <SECONDARY_ACCESSION_NUMBERS>  (1) 
EXPT00134

>  <COMMON_NAME>  (1) 
Deoxyinosine

>  <CAS_NUMBER>  (1) 
890-38-0

>  <UNII>  (1) 
HN0RQ6SBWQ

>  <SYNONYMS>  (1) 
2'-deoxyinosine; 9-(2-deoxy-Î²-D-erythro-pentofuranosyl)-9H-purin-6-ol; Deoxyinosine

$$$$
