283
     RDKit          3D

 20 21  0  0  0  0  0  0  0  0999 V2000
    1.3564   -0.1868   -0.0864 C   0  0  0  0  0  0  0  0  0  0  0  0
    0.4592   -1.2374   -0.0843 C   0  0  0  0  0  0  0  0  0  0  0  0
   -1.3974    0.2390   -0.0225 C   0  0  0  0  0  0  0  0  0  0  0  0
   -0.4859    1.3241   -0.0137 C   0  0  0  0  0  0  0  0  0  0  0  0
    0.9015    1.1175   -0.1093 C   0  0  0  0  0  0  0  0  0  0  0  0
    1.7253    2.2114   -0.2425 O   0  0  0  0  0  0  0  0  0  0  0  0
    3.1541    1.9724   -0.4386 C   0  0  0  0  0  0  0  0  0  0  0  0
    4.7070    0.1716    3.1966 C   0  0  0  0  0  0  0  0  0  0  0  0
    4.1636    0.8018    1.9246 C   0  0  0  0  0  0  0  0  0  0  0  0
    3.6975    1.3423    0.8334 C   0  0  0  0  0  0  0  0  0  0  0  0
   -0.9076   -1.0625   -0.0677 C   0  0  0  0  0  0  0  0  0  0  0  0
   -2.7033   -2.3628    1.2617 O   0  0  0  0  0  0  0  0  0  0  0  0
   -2.6479   -2.6056   -1.2540 O   0  0  0  0  0  0  0  0  0  0  0  0
   -1.9701   -2.4946    0.0237 S   0  0  0  0  0  0  0  0  0  0  0  0
   -0.1760   -3.9535    1.4634 C   0  0  0  0  0  0  0  0  0  0  0  0
   -0.9497   -3.8532    0.2105 N   0  0  0  0  0  0  0  0  0  0  0  0
   -0.1793   -4.4647   -0.9153 C   0  0  0  0  0  0  0  0  0  0  0  0
    1.1848   -4.8972   -0.3181 C   0  0  1  0  0  0  0  0  0  0  0  0
    2.6352   -3.8521   -0.7730 S   0  0  0  0  0  0  0  0  0  0  0  0
    0.8993   -4.9935    1.1795 C   0  0  0  0  0  0  0  0  0  0  0  0
  1  2  2  0
  1  5  1  0
  2 11  1  0
  3 11  2  0
  3  4  1  0
  4  5  2  0
  5  6  1  0
  6  7  1  0
  7 10  1  0
  8  9  1  0
  9 10  3  0
 11 14  1  0
 12 14  2  0
 13 14  2  0
 14 16  1  0
 15 16  1  0
 15 20  1  0
 16 17  1  0
 17 18  1  0
 18 20  1  0
 18 19  1  1
M  END
>  <DRUGBANK_ID>  (1) 
DB06943

>  <COMMON_NAME>  (1) 
(3S)-1-{[4-(but-2-yn-1-yloxy)phenyl]sulfonyl}pyrrolidine-3-thiol

$$$$
