1351
     RDKit          3D

 16 16  0  0  0  0  0  0  0  0999 V2000
   -2.4121   -1.0827   -0.1204 O   0  0  0  0  0  0  0  0  0  0  0  0
    2.3801   -1.1972    0.1228 O   0  0  0  0  0  0  0  0  0  0  0  0
    0.0452    2.6486   -0.0075 O   0  0  0  0  0  0  0  0  0  0  0  0
   -1.1349    0.7315    0.0263 N   0  0  0  0  0  0  0  0  0  0  0  0
    1.1749    0.6936   -0.0073 N   0  0  0  0  0  0  0  0  0  0  0  0
   -0.0120   -1.4539   -0.1096 C   0  0  0  0  0  0  0  0  0  0  0  0
   -0.0545   -2.4741    1.0739 C   0  0  0  0  0  0  0  0  0  0  0  0
   -1.2416   -3.4605    1.1133 C   0  0  0  0  0  0  0  0  0  0  0  0
    0.0774   -2.0664   -1.5298 C   0  0  0  0  0  0  0  0  0  0  0  0
   -1.3222   -4.3881   -0.1001 C   0  0  0  0  0  0  0  0  0  0  0  0
   -1.2771   -0.6166   -0.0436 C   0  0  0  0  0  0  0  0  0  0  0  0
    1.2737   -0.6648    0.0453 C   0  0  0  0  0  0  0  0  0  0  0  0
    0.1646   -1.0982   -2.6879 C   0  0  0  0  0  0  0  0  0  0  0  0
   -0.0488   -5.2064   -0.2723 C   0  0  0  0  0  0  0  0  0  0  0  0
   -2.5897   -5.2096   -0.1642 C   0  0  0  0  0  0  0  0  0  0  0  0
    0.0298    1.4171    0.0001 C   0  0  0  0  0  0  0  0  0  0  0  0
  1 11  2  0
  2 12  2  0
  3 16  2  0
  4 11  1  0
  4 16  1  0
  5 12  1  0
  5 16  1  0
  6  7  1  0
  6  9  1  0
  6 11  1  0
  6 12  1  0
  7  8  1  0
  8 10  1  0
  9 13  1  0
 10 14  1  0
 10 15  1  0
M  END
>  <DRUGBANK_ID>  (1) 
DB01351

>  <COMMON_NAME>  (1) 
Amobarbital

>  <CAS_NUMBER>  (1) 
57-43-2

>  <UNII>  (1) 
GWH6IJ239E

>  <SYNONYMS>  (1) 
5-ethyl-5-(3-methylbutyl)-2,4,6(1H,3H,5H)-pyrimidinetrione; 5-ethyl-5-(3-methylbutyl)barbituric acid; 5-ethyl-5-isoamylbarbituric acid; 5-ethyl-5-isopentylbarbituric acid; Amobarbital; Amobarbitale; Amylobarbitone; Barbamil; Barbamyl

$$$$
