
     RDKit          3D

 29 33  0  0  1  0  0  0  0  0999 V2000
    0.3965   -0.3275   -2.6528 C   0  0  0  0  0  0  0  0  0  0  0  0
   -0.6723    0.6115   -2.3138 N   0  0  0  0  0  0  0  0  0  0  0  0
   -0.2108    1.8031   -1.5101 C   0  0  1  0  0  0  0  0  0  0  0  0
    0.4762    2.8635   -2.3059 C   0  0  0  0  0  0  0  0  0  0  0  0
    0.7312    4.1077   -1.4229 C   0  0  0  0  0  0  0  0  0  0  0  0
   -0.5486    4.7668   -0.9127 C   0  0  2  0  0  0  0  0  0  0  0  0
   -1.5701    5.1425   -1.9970 C   0  0  0  0  0  0  0  0  0  0  0  0
   -2.2062    6.3784   -1.4384 C   0  0  0  0  0  0  0  0  0  0  0  0
   -1.0912    6.9651   -0.6034 C   0  0  0  0  0  0  0  0  0  0  0  0
   -0.3191    5.8935   -0.0775 O   0  0  0  0  0  0  0  0  0  0  0  0
   -1.1211    3.7946    0.0085 C   0  0  0  0  0  0  0  0  0  0  0  0
   -1.2607    2.5519   -0.8072 C   0  0  2  0  0  0  0  0  0  0  0  0
   -1.4981    1.7087    0.2301 N   0  0  0  0  0  0  0  0  0  0  0  0
   -3.2769    1.9256    0.6503 C   0  0  0  0  0  0  0  0  0  0  0  0
   -3.9970    0.6838    2.1566 C   0  0  0  0  0  0  0  0  0  0  0  0
   -2.3303   -0.3783    2.4663 C   0  0  0  0  0  0  0  0  0  0  0  0
   -0.7746    0.4611    1.3838 C   0  0  0  0  0  0  0  0  0  0  0  0
   -1.9772    0.2389   -2.7206 C   0  0  0  0  0  0  0  0  0  0  0  0
   -2.1621   -0.7995   -3.3726 O   0  0  0  0  0  0  0  0  0  0  0  0
   -3.2254    1.0683   -2.3934 C   0  0  0  0  0  0  0  0  0  0  0  0
   -3.7676    0.9868   -0.9372 C   0  0  0  0  0  0  0  0  0  0  0  0
   -2.7202    0.2448    0.4338 C   0  0  0  0  0  0  0  0  0  0  0  0
   -2.2925    1.5006    2.0435 C   0  0  0  0  0  0  0  0  0  0  0  0
   -3.2300    2.8797    2.4070 C   0  0  0  0  0  0  0  0  0  0  0  0
   -4.6367    3.1142    1.3148 C   0  0  0  0  0  0  0  0  0  0  0  0
   -4.7994    2.4295   -0.3705 C   0  0  0  0  0  0  0  0  0  0  0  0
   -6.0570    2.8402   -0.6541 C   0  0  0  0  0  0  0  0  0  0  0  0
   -6.5801    3.2751    0.5573 C   0  0  0  0  0  0  0  0  0  0  0  0
   -5.8923    3.1991    1.7167 O   0  0  0  0  0  0  0  0  0  0  0  0
  1  2  1  0
  2 18  1  0
  3  4  1  0
  3 12  1  0
  3  2  1  6
  4  5  1  0
  6  5  1  6
  6  7  1  0
  6 10  1  0
  6 11  1  0
  7  8  1  0
  8  9  1  0
  9 10  1  0
 12 11  1  0
 12 13  1  1
 13 14  1  0
 13 17  1  0
 14 15  1  0
 15 16  1  0
 16 17  1  0
 18 19  2  0
 18 20  1  0
 20 21  1  0
 21 22  2  0
 21 26  1  0
 22 23  1  0
 23 24  2  0
 24 25  1  0
 25 26  2  0
 25 29  1  0
 26 27  1  0
 27 28  2  0
 28 29  1  0
M  END
>  <DRUGBANK_ID>  (1) 
DB16967

>  <COMMON_NAME>  (1) 
Enadoline

>  <CAS_NUMBER>  (1) 
124378-77-4

>  <UNII>  (1) 
KJL283326C

$$$$
