MPX
     RDKit          3D

 21 22  0  0  0  0  0  0  0  0999 V2000
    1.7648   -0.7006   -0.1498 C   0  0  0  0  0  0  0  0  0  0  0  0
    0.7063   -1.7408   -0.3244 C   0  0  0  0  0  0  0  0  0  0  0  0
   -0.7143   -1.5289   -0.7905 C   0  0  0  0  0  0  0  0  0  0  0  0
   -1.0529   -0.2253   -1.1586 C   0  0  0  0  0  0  0  0  0  0  0  0
    0.3040    0.6223   -0.8661 C   0  0  0  0  0  0  0  0  0  0  0  0
    1.6017    0.5737   -0.5016 C   0  0  0  0  0  0  0  0  0  0  0  0
   -2.7080    0.3871   -0.9033 N   0  0  0  0  0  0  0  0  0  0  0  0
   -3.4868    1.7597   -0.4784 C   0  0  0  0  0  0  0  0  0  0  0  0
   -5.1584    1.8773   -0.4526 S   0  0  0  0  0  0  0  0  0  0  0  0
   -2.8544    2.9801    0.0549 N   0  0  0  0  0  0  0  0  0  0  0  0
   -1.5252    3.2472    0.2052 N   0  0  0  0  0  0  0  0  0  0  0  0
   -1.1737    2.1355   -0.4893 C   0  0  0  0  0  0  0  0  0  0  0  0
   -1.3555    0.8016    0.9308 C   0  0  0  0  0  0  0  0  0  0  0  0
   -0.5449    0.7844    2.1357 N   0  0  0  0  0  0  0  0  0  0  0  0
   -0.7520   -0.5552    2.8121 C   0  0  0  0  0  0  0  0  0  0  0  0
   -1.1178    1.9990    2.6476 C   0  0  0  0  0  0  0  0  0  0  0  0
   -0.8744    3.1898    1.5809 C   0  0  0  0  0  0  0  0  0  0  0  0
    3.4292   -0.8378    0.3335 S   0  0  0  0  0  0  0  0  0  0  0  0
    4.0969   -0.1128   -1.0522 N   0  0  0  0  0  0  0  0  0  0  0  0
    3.7314   -0.0218    1.4358 O   0  0  0  0  0  0  0  0  0  0  0  0
    3.7178   -2.2854    0.2440 O   0  0  0  0  0  0  0  0  0  0  0  0
  1  2  2  0
  1  6  1  0
  1 18  1  0
  2  3  1  0
  3  4  2  0
  4  5  1  0
  4  7  1  0
  5  6  2  0
  7  8  1  0
  8  9  2  0
  8 10  1  0
 10 11  1  0
 11 12  1  0
 11 17  1  0
 12 13  1  0
 13 14  1  0
 14 15  1  0
 14 16  1  0
 16 17  1  0
 18 19  1  0
 18 20  2  0
 18 21  2  0
M  END
>  <DRUGBANK_ID>  (1) 
DB08202

>  <COMMON_NAME>  (1) 
4-({[(4-METHYLPIPERAZIN-1-YL)AMINO]CARBONOTHIOYL}AMINO)BENZENESULFONAMIDE

$$$$
