
     RDKit          3D

  9  9  0  0  0  0  0  0  0  0999 V2000
    1.0919   -0.1192   -0.3363 C   0  0  0  0  0  0  0  0  0  0  0  0
    3.0183    2.3013    1.2153 C   0  0  0  0  0  0  0  0  0  0  0  0
    0.4575    0.9829    2.5365 C   0  0  0  0  0  0  0  0  0  0  0  0
    0.5028    1.2717   -0.5572 C   0  0  0  0  0  0  0  0  0  0  0  0
    1.7929    2.9398    0.5712 C   0  0  0  0  0  0  0  0  0  0  0  0
   -0.1314    2.0224    1.5877 C   0  0  0  0  0  0  0  0  0  0  0  0
    1.4460    2.3254   -0.6541 O   0  0  0  0  0  0  0  0  0  0  0  0
   -0.5666    1.5348    0.3399 O   0  0  0  0  0  0  0  0  0  0  0  0
    0.7062    3.1509    1.4555 O   0  0  0  0  0  0  0  0  0  0  0  0
  4  1  1  0
  5  2  1  0
  6  3  1  0
  7  4  1  0
  7  5  1  0
  8  4  1  0
  8  6  1  0
  9  5  1  0
  9  6  1  0
M  END
>  <DRUGBANK_ID>  (1) 
DB09117

>  <COMMON_NAME>  (1) 
Paraldehyde

>  <CAS_NUMBER>  (1) 
123-63-7

>  <UNII>  (1) 
S6M3YBG8QA

>  <SYNONYMS>  (1) 
Paraldehyde

$$$$
