
     RDKit          3D

 19 19  0  0  0  0  0  0  0  0999 V2000
    1.0691   -0.1551    0.1632 C   0  0  0  0  0  0  0  0  0  0  0  0
    0.5945   -0.7265   -1.1837 C   0  0  0  0  0  0  0  0  0  0  0  0
    1.1377   -2.1533   -1.3217 C   0  0  0  0  0  0  0  0  0  0  0  0
   -0.9083   -0.5713   -1.2269 C   0  0  0  0  0  0  0  0  0  0  0  0
   -1.6290   -1.7187   -0.9214 C   0  0  0  0  0  0  0  0  0  0  0  0
   -2.9186   -1.6325   -0.4505 C   0  0  0  0  0  0  0  0  0  0  0  0
   -3.7015   -0.5601   -0.7922 C   0  0  0  0  0  0  0  0  0  0  0  0
   -3.0347    0.6407   -1.0689 C   0  0  0  0  0  0  0  0  0  0  0  0
   -1.6228    0.6431   -1.2811 C   0  0  0  0  0  0  0  0  0  0  0  0
   -0.8794    2.2407   -1.6522 S   0  0  0  0  0  0  0  0  0  0  0  0
   -1.5473    2.6922   -2.8700 O   0  0  0  0  0  0  0  0  0  0  0  0
   -0.9585    3.0067   -0.4332 O   0  0  0  0  0  0  0  0  0  0  0  0
    0.8359    2.0982   -2.0831 C   0  0  0  0  0  0  0  0  0  0  0  0
   -5.1822   -0.7631   -0.9173 C   0  0  0  0  0  0  0  0  0  0  0  0
   -5.9200    0.2209   -0.9358 O   0  0  0  0  0  0  0  0  0  0  0  0
   -5.7512   -2.0704   -1.0567 N   0  0  0  0  0  0  0  0  0  0  0  0
   -5.3150   -3.3719   -1.3170 C   0  0  0  0  0  0  0  0  0  0  0  0
   -6.0880   -4.3870   -1.1470 N   0  0  0  0  0  0  0  0  0  0  0  0
   -4.0851   -3.6680   -1.7770 N   0  0  0  0  0  0  0  0  0  0  0  0
  1  2  1  0
  2  3  1  0
  2  4  1  0
  4  5  2  0
  4  9  1  0
  5  6  1  0
  6  7  2  0
  7  8  1  0
  7 14  1  0
  8  9  2  0
  9 10  1  0
 10 11  2  0
 10 12  2  0
 10 13  1  0
 14 15  2  0
 14 16  1  0
 16 17  1  0
 17 18  2  0
 17 19  1  0
M  END
>  <DRUGBANK_ID>  (1) 
DB06468

>  <COMMON_NAME>  (1) 
Cariporide

>  <CAS_NUMBER>  (1) 
159138-80-4

>  <UNII>  (1) 
7E3392891K

>  <SYNONYMS>  (1) 
Cariporide

$$$$
