
     RDKit          3D

 12 12  0  0  1  0  0  0  0  0999 V2000
    2.2876    1.0374   -0.0780 C   0  0  0  0  0  0  0  0  0  0  0  0
    0.8446    0.6357   -0.0702 C   0  0  0  0  0  0  0  0  0  0  0  0
   -0.1167    1.5259    0.2063 C   0  0  0  0  0  0  0  0  0  0  0  0
   -1.5702    1.1935    0.2211 C   0  0  0  0  0  0  0  0  0  0  0  0
   -1.8828   -0.3150    0.2227 C   0  0  2  0  0  0  0  0  0  0  0  0
   -0.9340   -1.0340   -0.7619 C   0  0  0  0  0  0  0  0  0  0  0  0
    0.5431   -0.7945   -0.4419 C   0  0  2  0  0  0  0  0  0  0  0  0
    0.9586   -1.6411    0.6202 O   0  0  0  0  0  0  0  0  0  0  0  0
   -3.3847   -0.5867   -0.0857 C   0  0  0  0  0  0  0  0  0  0  0  0
   -4.2947    0.4278    0.6208 C   0  0  0  0  0  0  0  0  0  0  0  0
   -3.6840   -0.5921   -1.5890 C   0  0  0  0  0  0  0  0  0  0  0  0
   -3.7035   -1.8871    0.4236 O   0  0  0  0  0  0  0  0  0  0  0  0
  1  2  1  0
  2  3  2  0
  2  7  1  0
  3  4  1  0
  4  5  1  0
  5  6  1  0
  5  9  1  6
  6  7  1  0
  7  8  1  1
  9 10  1  0
  9 11  1  0
  9 12  1  0
M  END
>  <DRUGBANK_ID>  (1) 
DB13315

>  <COMMON_NAME>  (1) 
Sobrerol

>  <CAS_NUMBER>  (1) 
42370-41-2

>  <UNII>  (1) 
AI0NX02O35

$$$$
