1463
     RDKit          3D

 16 18  0  0  1  0  0  0  0  0999 V2000
    0.9600   -0.1633   -0.0229 N   0  0  0  0  0  0  0  0  0  0  0  0
   -1.0612    1.7521   -2.2021 C   0  0  0  0  0  0  0  0  0  0  0  0
   -0.9513   -0.3931   -1.6640 C   0  0  0  0  0  0  0  0  0  0  0  0
    0.4390    1.5951   -1.8111 C   0  0  0  0  0  0  0  0  0  0  0  0
    0.5105    0.0700   -1.4035 C   0  0  0  0  0  0  0  0  0  0  0  0
   -1.7556    0.8192   -1.2128 C   0  0  0  0  0  0  0  0  0  0  0  0
   -1.3000    1.0384   -3.5455 C   0  0  0  0  0  0  0  0  0  0  0  0
   -1.2048   -0.4377   -3.1751 C   0  0  0  0  0  0  0  0  0  0  0  0
    0.9851    2.6063   -0.8141 C   0  0  0  0  0  0  0  0  0  0  0  0
    0.5957   -1.4490    0.5503 C   0  0  0  0  0  0  0  0  0  0  0  0
    2.3293    2.5154   -0.4218 C   0  0  0  0  0  0  0  0  0  0  0  0
    0.2318    3.6909   -0.3388 C   0  0  0  0  0  0  0  0  0  0  0  0
    1.0981   -2.6114   -0.2909 C   0  0  0  0  0  0  0  0  0  0  0  0
    2.9088    3.4678    0.4144 C   0  0  0  0  0  0  0  0  0  0  0  0
    0.8345    4.6900    0.4272 C   0  0  0  0  0  0  0  0  0  0  0  0
    2.1626    4.5745    0.8118 C   0  0  0  0  0  0  0  0  0  0  0  0
  1  5  1  0
  1 10  1  0
  2  4  1  0
  2  6  1  0
  2  7  1  0
  3  5  1  0
  3  6  1  0
  3  8  1  0
  4  5  1  0
  4  9  1  0
  7  8  1  0
  9 11  2  0
  9 12  1  0
 10 13  1  0
 11 14  1  0
 12 15  2  0
 14 16  2  0
 15 16  1  0
M  END
>  <DRUGBANK_ID>  (1) 
DB01463

>  <COMMON_NAME>  (1) 
Fencamfamin

>  <CAS_NUMBER>  (1) 
1209-98-9

>  <UNII>  (1) 
NME1I5IGBK

>  <SYNONYMS>  (1) 
Fencamfamin; Fencamfamina; Fencamfamine; Fencamfaminum; Fencanfamina; Phencamphamine

$$$$
