
     RDKit          3D

  4  3  0  0  0  0  0  0  0  0999 V2000
    0.9999    0.0908    0.0420 Mo  0  0  0  0  0  5  0  0  0  0  0  0
   -0.2951    2.3320   -0.0477 S   0  0  0  0  0  0  0  0  0  0  0  0
    0.0154   -1.6131    0.1102 O   0  0  0  0  0  0  0  0  0  0  0  0
    2.9689    0.0908    0.0420 O   0  0  0  0  0  0  0  0  0  0  0  0
  1  2  1  0
  1  3  2  0
  1  4  2  0
M  END
>  <DRUGBANK_ID>  (1) 
DB03328

>  <SECONDARY_ACCESSION_NUMBERS>  (1) 
EXPT02214

>  <COMMON_NAME>  (1) 
Dioxo(sulfanyl)molybdenum

$$$$
