
     RDKit          3D

 25 28  0  0  0  0  0  0  0  0999 V2000
   -4.9095   -0.7606   -0.2737 C   0  0  2  0  0  0  0  0  0  0  0  0
   -4.7698   -0.2539   -1.7550 C   0  0  1  0  0  0  0  0  0  0  0  0
   -3.8007   -1.7352    0.1887 C   0  0  1  0  0  0  0  0  0  0  0  0
   -6.2388   -1.4596    0.1622 C   0  0  0  0  0  0  0  0  0  0  0  0
   -6.1158    0.5331   -2.2230 C   0  0  2  0  0  0  0  0  0  0  0  0
   -3.2846    0.3038   -1.6891 C   0  0  0  0  0  0  0  0  0  0  0  0
   -2.2961   -1.9965   -0.0968 C   0  0  0  0  0  0  0  0  0  0  0  0
   -3.7776   -1.5161    1.8223 C   0  0  0  0  0  0  0  0  0  0  0  0
   -4.1572   -2.9080   -0.8373 C   0  0  0  0  0  0  0  0  0  0  0  0
   -7.3518   -0.5398   -0.1234 C   0  0  0  0  0  0  0  0  0  0  0  0
   -7.3607   -0.1851   -1.6156 C   0  0  1  0  0  0  0  0  0  0  0  0
   -6.7578    1.2222   -3.6749 C   0  0  0  0  0  0  0  0  0  0  0  0
   -2.0578   -0.8682   -1.2265 C   0  0  0  0  0  0  0  0  0  0  0  0
   -1.5507   -3.1480    0.4351 C   0  0  0  0  0  0  0  0  0  0  0  0
   -2.6649   -2.3007    2.4162 C   0  0  0  0  0  0  0  0  0  0  0  0
   -8.4826    0.8075   -1.8684 C   0  0  2  0  0  0  0  0  0  0  0  0
   -7.4804   -1.5024   -2.4595 C   0  0  0  0  0  0  0  0  0  0  0  0
   -8.3058    1.0455   -3.3721 C   0  0  0  0  0  0  0  0  0  0  0  0
   -2.7324   -3.3823    1.4177 C   0  0  0  0  0  0  0  0  0  0  0  0
   -1.1172   -4.7186    1.5534 Cl  0  0  0  0  0  0  0  0  0  0  0  0
   -8.4479    1.9605   -0.9187 O   0  0  0  0  0  0  0  0  0  0  0  0
   -3.6682   -4.1992    1.2466 O   0  0  0  0  0  0  0  0  0  0  0  0
   -7.3690    2.4124   -0.2224 C   0  0  0  0  0  0  0  0  0  0  0  0
   -6.3901    3.1852   -1.0048 C   0  0  0  0  0  0  0  0  0  0  0  0
   -7.2307    2.3123    1.0491 O   0  0  0  0  0  0  0  0  0  0  0  0
  1  2  1  0
  1  3  1  0
  1  4  1  6
  2  5  1  0
  2  6  1  1
  3  7  1  0
  3  8  1  0
  3  9  1  1
  4 10  1  0
  5 11  1  0
  5 12  1  6
  6 13  1  0
  7 14  2  0
  7 13  1  0
  8 15  1  0
 10 11  1  0
 11 16  1  0
 11 17  1  6
 12 18  1  0
 14 19  1  0
 14 20  1  0
 15 19  1  0
 16 18  1  0
 16 21  1  1
 19 22  2  0
 21 23  1  0
 23 24  1  0
 23 25  2  0
M  END
>  <DRUGBANK_ID>  (1) 
DB15984

>  <COMMON_NAME>  (1) 
Clostebol acetate

>  <CAS_NUMBER>  (1) 
855-19-6

>  <UNII>  (1) 
780ZZX4P14

>  <SYNONYMS>  (1) 
4-Chlorotestosterone acetate; Chlorotestosterone acetate; Clostebol acetate

$$$$
