
     RDKit          3D

 12 12  0  0  0  0  0  0  0  0999 V2000
    0.9842   -2.4802    0.8339 C   0  0  2  0  0  0  0  0  0  0  0  0
    0.4338   -1.5081   -0.2542 C   0  0  2  0  0  0  0  0  0  0  0  0
    0.9552   -0.0710   -0.0307 C   0  0  0  0  0  0  0  0  0  0  0  0
    0.5954   -2.0209    2.1358 O   0  0  0  0  0  0  0  0  0  0  0  0
   -1.0490   -1.4900   -0.3110 N   0  0  0  0  0  0  0  0  0  0  0  0
   -1.6121   -2.8079   -0.5916 C   0  0  0  0  0  0  0  0  0  0  0  0
    2.4722   -2.7468    0.8398 C   0  0  0  0  0  0  0  0  0  0  0  0
    3.3844   -2.1351   -0.0260 C   0  0  0  0  0  0  0  0  0  0  0  0
    2.9532   -3.6857    1.7685 C   0  0  0  0  0  0  0  0  0  0  0  0
    4.7472   -2.4148    0.0567 C   0  0  0  0  0  0  0  0  0  0  0  0
    4.3157   -3.9557    1.8610 C   0  0  0  0  0  0  0  0  0  0  0  0
    5.2088   -3.3266    1.0038 C   0  0  0  0  0  0  0  0  0  0  0  0
  1  4  1  1
  2  3  1  1
  2  1  1  0
  5  2  1  0
  6  5  1  0
  7  1  1  0
  8  7  2  0
  9  7  1  0
 10  8  1  0
 11  9  2  0
 12 10  2  0
 12 11  1  0
M  END
>  <DRUGBANK_ID>  (1) 
DB01364

>  <COMMON_NAME>  (1) 
Ephedrine

>  <CAS_NUMBER>  (1) 
299-42-3

>  <UNII>  (1) 
GN83C131XS

>  <SYNONYMS>  (1) 
(-)-Ephedrine; (1R,2S)-1-Phenyl-1-hydroxy-2-methylaminopropane; Efedrina; Ephedrine; L-Ephedrine; L-erythro-2-(Methylamino)-1-phenylpropan-1-ol; L(âˆ’)-ephedrine

$$$$
