
     RDKit          3D

 42 49  0  0  0  0  0  0  0  0999 V2000
    1.0175    0.0544    0.1904 C   0  0  0  0  0  0  0  0  0  0  0  0
    0.6634   -1.4158    0.0774 N   0  0  0  0  0  0  0  0  0  0  0  0
    0.6033    0.6421    1.4949 C   0  0  0  0  0  0  0  0  0  0  0  0
    0.3818   -0.2136    2.5227 O   0  0  0  0  0  0  0  0  0  0  0  0
    0.5064    1.9005    1.8569 N   0  0  0  0  0  0  0  0  0  0  0  0
    0.5051    0.9920   -0.9617 C   0  0  0  0  0  0  0  0  0  0  0  0
    2.5473    0.0936    0.0795 C   0  0  0  0  0  0  0  0  0  0  0  0
    1.9583   -3.4618   -3.3663 C   0  0  0  0  0  0  0  0  0  0  0  0
    3.1026   -4.4027   -3.8870 C   0  0  0  0  0  0  0  0  0  0  0  0
    0.3214   -3.9833   -3.1515 C   0  0  0  0  0  0  0  0  0  0  0  0
   -1.8022   -3.9593   -2.4784 C   0  0  0  0  0  0  0  0  0  0  0  0
   -2.5009   -2.8530   -2.1059 C   0  0  2  0  0  0  0  0  0  0  0  0
   -3.1796   -2.3724   -3.3351 N   0  0  0  0  0  0  0  0  0  0  0  0
    0.1319   -3.9717   -0.8958 C   0  0  0  0  0  0  0  0  0  0  0  0
   -0.9879   -3.1092   -2.0049 C   0  0  1  0  0  0  0  0  0  0  0  0
   -1.7177   -3.5228   -5.0555 C   0  0  0  0  0  0  0  0  0  0  0  0
   -3.1197   -3.1963   -4.6152 C   0  0  0  0  0  0  0  0  0  0  0  0
   -0.7150   -4.3279   -3.7371 C   0  0  2  0  0  0  0  0  0  0  0  0
   -0.8558   -5.6480   -2.1355 C   0  0  2  0  0  0  0  0  0  0  0  0
   -1.3773   -4.7605   -0.2892 C   0  0  0  0  0  0  0  0  0  0  0  0
   -0.7575   -3.5688    0.0534 C   0  0  0  0  0  0  0  0  0  0  0  0
   -0.3165   -2.2270    0.7701 C   0  0  0  0  0  0  0  0  0  0  0  0
   -0.9815   -1.8492    1.7247 O   0  0  0  0  0  0  0  0  0  0  0  0
   -1.9437   -4.9628    1.2483 O   0  0  0  0  0  0  0  0  0  0  0  0
    0.4952   -4.7235   -4.1919 C   0  0  0  0  0  0  0  0  0  0  0  0
    0.5702   -6.3998   -2.6193 O   0  0  0  0  0  0  0  0  0  0  0  0
    1.2070   -5.7630   -3.7644 C   0  0  0  0  0  0  0  0  0  0  0  0
    2.5976   -5.6672   -3.9799 C   0  0  0  0  0  0  0  0  0  0  0  0
    3.3635   -6.7604   -4.1861 O   0  0  0  0  0  0  0  0  0  0  0  0
   -0.0856    0.5220    3.5872 N   0  0  0  0  0  0  0  0  0  0  0  0
    0.0942    1.7706    3.1647 C   0  0  0  0  0  0  0  0  0  0  0  0
    0.0153    2.8962    4.0397 C   0  0  0  0  0  0  0  0  0  0  0  0
    0.1392    5.2160    5.5169 C   0  0  0  0  0  0  0  0  0  0  0  0
    1.0829    4.2154    5.7073 C   0  0  0  0  0  0  0  0  0  0  0  0
   -0.8143    3.9570    3.7118 C   0  0  0  0  0  0  0  0  0  0  0  0
   -0.8464    5.0614    4.5478 C   0  0  0  0  0  0  0  0  0  0  0  0
   -2.6932   -0.9768   -3.4418 C   0  0  0  0  0  0  0  0  0  0  0  0
   -1.1991   -0.5590   -3.7988 C   0  0  0  0  0  0  0  0  0  0  0  0
   -0.1174   -1.1090   -4.9321 C   0  0  0  0  0  0  0  0  0  0  0  0
   -0.2335   -1.6071   -3.6275 C   0  0  0  0  0  0  0  0  0  0  0  0
    0.8518    2.9701    5.1495 C   0  0  0  0  0  0  0  0  0  0  0  0
   -0.9884   -1.7951   -1.4286 O   0  0  0  0  0  0  0  0  0  0  0  0
  1  2  1  0
  1  3  1  0
  1  6  1  0
  2 22  1  0
  3  5  2  0
  4  3  1  0
  4 30  1  0
  7  1  1  0
  8  9  2  0
  8 10  1  0
  9 28  1  0
 10 11  1  0
 10 25  2  0
 12 11  1  6
 12 13  1  0
 13 37  1  0
 13 17  1  0
 14 15  1  0
 15 12  1  0
 15 42  1  6
 16 17  1  0
 18 16  1  6
 18 19  1  0
 18 15  1  0
 18 25  1  0
 19 20  1  0
 19 26  1  1
 20 21  2  0
 21 14  1  0
 21 22  1  0
 22 23  2  0
 24 20  1  0
 26 27  1  0
 27 25  1  0
 28 27  2  0
 28 29  1  0
 30 31  2  0
 31 32  1  0
 31  5  1  0
 32 35  1  0
 32 41  2  0
 33 34  2  0
 35 36  2  0
 36 33  1  0
 37 38  1  0
 39 40  1  0
 39 38  1  0
 40 38  1  0
 41 34  1  0
M  END
>  <DRUGBANK_ID>  (1) 
DB11691

>  <COMMON_NAME>  (1) 
Naldemedine

>  <CAS_NUMBER>  (1) 
916072-89-4

>  <UNII>  (1) 
03KSI6WLXH

>  <SYNONYMS>  (1) 
Naldemedine

$$$$
