C3M
     RDKit          3D

 26 28  0  0  0  0  0  0  0  0999 V2000
   -1.0397   -1.3227   -0.5242 N   0  0  0  0  0  0  0  0  0  0  0  0
   -1.3439   -1.0289    0.8996 C   0  0  1  0  0  0  0  0  0  0  0  0
   -0.7766   -2.1497    1.8165 C   0  0  0  0  0  0  0  0  0  0  0  0
    0.7313   -2.2089    1.8848 C   0  0  0  0  0  0  0  0  0  0  0  0
    1.5544   -1.3337    1.1672 C   0  0  0  0  0  0  0  0  0  0  0  0
    2.9056   -1.1729    1.3701 C   0  0  0  0  0  0  0  0  0  0  0  0
    3.5271   -2.0761    2.1883 C   0  0  0  0  0  0  0  0  0  0  0  0
    2.7649   -3.0477    2.8491 C   0  0  0  0  0  0  0  0  0  0  0  0
    1.3735   -3.1243    2.6986 C   0  0  0  0  0  0  0  0  0  0  0  0
   -1.0244    0.4545    1.3738 C   0  0  2  0  0  0  0  0  0  0  0  0
    0.3372    0.9125    1.4610 O   0  0  0  0  0  0  0  0  0  0  0  0
   -1.5348    0.6457    2.8007 C   0  0  0  0  0  0  0  0  0  0  0  0
   -1.0520    1.9517    3.2944 N   0  0  0  0  0  0  0  0  0  0  0  0
   -1.4575    2.3302    4.8652 S   0  0  0  0  0  0  0  0  0  0  0  0
   -1.1419    1.1663    5.6908 O   0  0  0  0  0  0  0  0  0  0  0  0
   -0.9169    3.6260    5.1657 O   0  0  0  0  0  0  0  0  0  0  0  0
   -3.2038    2.4954    4.7698 C   0  0  0  0  0  0  0  0  0  0  0  0
   -4.0222    1.5341    5.2535 C   0  0  0  0  0  0  0  0  0  0  0  0
   -5.1285    2.1194    5.9047 C   0  0  0  0  0  0  0  0  0  0  0  0
   -5.4149    3.6662    6.0888 C   0  0  0  0  0  0  0  0  0  0  0  0
   -5.3986    5.2814    6.6114 C   0  0  0  0  0  0  0  0  0  0  0  0
   -6.0473    6.3402    5.9006 C   0  0  0  0  0  0  0  0  0  0  0  0
   -5.8374    6.0711    4.5867 C   0  0  0  0  0  0  0  0  0  0  0  0
   -6.2291    4.7756    4.3794 C   0  0  0  0  0  0  0  0  0  0  0  0
   -5.2316    3.8931    4.8104 C   0  0  0  0  0  0  0  0  0  0  0  0
   -3.8240    3.7104    4.4796 C   0  0  0  0  0  0  0  0  0  0  0  0
  2  1  1  6
  2  3  1  0
  3  4  1  0
  4  5  2  0
  4  9  1  0
  5  6  1  0
  6  7  2  0
  7  8  1  0
  8  9  2  0
 10 12  1  0
 10 11  1  1
 10  2  1  0
 12 13  1  0
 13 14  1  0
 14 15  2  0
 14 16  2  0
 14 17  1  0
 17 18  2  0
 17 26  1  0
 18 19  1  0
 19 20  2  0
 20 21  1  0
 20 25  1  0
 21 22  2  0
 22 23  1  0
 23 24  2  0
 24 25  1  0
 25 26  2  0
M  END
>  <DRUGBANK_ID>  (1) 
DB07522

>  <COMMON_NAME>  (1) 
N-[(2R,3S)-3-AMINO-2-HYDROXY-4-PHENYLBUTYL]NAPHTHALENE-2-SULFONAMIDE

$$$$
