
     RDKit          3D

 25 28  0  0  0  0  0  0  0  0999 V2000
    0.4732    1.4034   -0.0259 C   0  0  0  0  0  0  0  0  0  0  0  0
   -0.4160   -1.3614   -0.0206 N   0  0  0  0  0  0  0  0  0  0  0  0
    0.9002   -1.0048   -0.0032 N   0  0  0  0  0  0  0  0  0  0  0  0
    1.4216    0.2528   -0.0295 C   0  0  0  0  0  0  0  0  0  0  0  0
    2.6437    0.4448   -0.0368 O   0  0  0  0  0  0  0  0  0  0  0  0
   -1.3145   -0.4261   -0.0283 C   0  0  0  0  0  0  0  0  0  0  0  0
   -2.7669   -0.7818   -0.0369 C   0  0  0  0  0  0  0  0  0  0  0  0
   -4.6688   -1.7914    1.1186 C   0  0  0  0  0  0  0  0  0  0  0  0
   -3.2993   -1.4947    1.0466 C   0  0  0  0  0  0  0  0  0  0  0  0
   -3.5982   -0.2991   -1.0594 C   0  0  0  0  0  0  0  0  0  0  0  0
   -4.9626   -0.6281   -1.0188 C   0  0  0  0  0  0  0  0  0  0  0  0
   -5.4600   -1.3611    0.0513 C   0  0  0  0  0  0  0  0  0  0  0  0
   -6.7925   -1.5192   -0.2385 N   0  0  0  0  0  0  0  0  0  0  0  0
   -5.9600   -0.3428   -1.9178 N   0  0  0  0  0  0  0  0  0  0  0  0
   -7.0571   -0.8971   -1.4367 C   0  0  0  0  0  0  0  0  0  0  0  0
   -8.3845   -0.8383   -2.0381 C   0  0  0  0  0  0  0  0  0  0  0  0
  -10.6956   -0.0945   -1.9432 C   0  0  0  0  0  0  0  0  0  0  0  0
   -9.4482   -0.2639   -1.3351 C   0  0  0  0  0  0  0  0  0  0  0  0
   -8.5936   -1.2623   -3.3546 C   0  0  0  0  0  0  0  0  0  0  0  0
   -9.8341   -1.0590   -3.9731 C   0  0  0  0  0  0  0  0  0  0  0  0
  -10.8999   -0.5016   -3.2613 C   0  0  0  0  0  0  0  0  0  0  0  0
  -12.0848   -0.4087   -3.9411 O   0  0  0  0  0  0  0  0  0  0  0  0
  -13.2104    0.0341   -3.1870 C   0  0  0  0  0  0  0  0  0  0  0  0
   -0.9998    1.0507    0.0604 C   0  0  0  0  0  0  0  0  0  0  0  0
   -1.5181    1.5467    1.4104 C   0  0  0  0  0  0  0  0  0  0  0  0
  1  4  1  0
  2  6  2  0
  3  2  1  0
  4  3  1  0
  4  5  2  0
  6  7  1  0
  7 10  2  0
  8  9  2  0
  8 12  1  0
  9  7  1  0
 10 11  1  0
 11 14  1  0
 12 11  2  0
 13 12  1  0
 13 15  1  0
 14 15  2  0
 15 16  1  0
 16 19  2  0
 17 18  2  0
 17 21  1  0
 18 16  1  0
 19 20  1  0
 20 21  2  0
 21 22  1  0
 22 23  1  0
 24  1  1  0
 24  6  1  0
 24 25  1  0
M  END
>  <DRUGBANK_ID>  (1) 
DB11450

>  <COMMON_NAME>  (1) 
Pimobendan

>  <CAS_NUMBER>  (1) 
74150-27-9

>  <UNII>  (1) 
34AP3BBP9T

>  <SYNONYMS>  (1) 
dl-Pimobendan; Pimobendan; Pimobendane; Pimobendanum

$$$$
