1029
     RDKit          3D

 32 36  0  0  0  0  0  0  0  0999 V2000
   -0.7981    2.0223    0.0325 O   0  0  0  0  0  0  0  0  0  0  0  0
   -0.5596   -1.5079    0.0342 N   0  0  0  0  0  0  0  0  0  0  0  0
   -2.1263    0.1086    0.0142 N   0  0  0  0  0  0  0  0  0  0  0  0
   -8.2931   -3.2532   -2.6095 N   0  0  0  0  0  0  0  0  0  0  0  0
   -8.5246   -1.1203   -1.8890 N   0  0  0  0  0  0  0  0  0  0  0  0
   -8.5368   -3.1412   -1.2937 N   0  0  0  0  0  0  0  0  0  0  0  0
   -8.6822   -1.8978   -0.8257 N   0  0  0  0  0  0  0  0  0  0  0  0
    0.1619   -0.2359   -0.0032 C   0  0  0  0  0  0  0  0  0  0  0  0
    1.0898   -0.1570   -1.2175 C   0  0  0  0  0  0  0  0  0  0  0  0
    1.0486   -0.2015    1.2433 C   0  0  0  0  0  0  0  0  0  0  0  0
    2.3691    0.4317   -0.6336 C   0  0  0  0  0  0  0  0  0  0  0  0
    2.4728   -0.2720    0.7088 C   0  0  0  0  0  0  0  0  0  0  0  0
   -0.9492    0.8011   -0.0018 C   0  0  0  0  0  0  0  0  0  0  0  0
   -1.8122   -1.1950    0.0962 C   0  0  0  0  0  0  0  0  0  0  0  0
   -2.8025   -2.3140    0.2206 C   0  0  0  0  0  0  0  0  0  0  0  0
   -3.4353    0.7732    0.0730 C   0  0  0  0  0  0  0  0  0  0  0  0
   -2.8572   -3.0986   -1.1274 C   0  0  0  0  0  0  0  0  0  0  0  0
   -4.3139    0.5036   -1.1299 C   0  0  0  0  0  0  0  0  0  0  0  0
   -1.5891   -3.9085   -1.3757 C   0  0  0  0  0  0  0  0  0  0  0  0
   -4.7666   -0.7834   -1.3852 C   0  0  0  0  0  0  0  0  0  0  0  0
   -4.7766    1.4803   -2.0007 C   0  0  0  0  0  0  0  0  0  0  0  0
   -1.3408   -4.8392   -0.2079 C   0  0  0  0  0  0  0  0  0  0  0  0
   -5.4154   -1.1914   -2.5139 C   0  0  0  0  0  0  0  0  0  0  0  0
   -5.6341    1.1163   -3.0561 C   0  0  0  0  0  0  0  0  0  0  0  0
   -5.9080   -0.2308   -3.3479 C   0  0  0  0  0  0  0  0  0  0  0  0
   -6.7231   -0.6732   -4.4610 C   0  0  0  0  0  0  0  0  0  0  0  0
   -7.8825   -1.4685   -4.2811 C   0  0  0  0  0  0  0  0  0  0  0  0
   -6.2775   -0.3590   -5.7515 C   0  0  0  0  0  0  0  0  0  0  0  0
   -8.6173   -1.8475   -5.4049 C   0  0  0  0  0  0  0  0  0  0  0  0
   -7.0468   -0.6944   -6.8524 C   0  0  0  0  0  0  0  0  0  0  0  0
   -8.2869   -1.9517   -2.9610 C   0  0  0  0  0  0  0  0  0  0  0  0
   -8.2087   -1.4439   -6.6796 C   0  0  0  0  0  0  0  0  0  0  0  0
  1 13  2  0
  2  8  1  0
  2 14  2  0
  3 13  1  0
  3 14  1  0
  3 16  1  0
  4  6  1  0
  4 31  2  0
  5  7  2  0
  5 31  1  0
  6  7  1  0
  8  9  1  0
  8 10  1  0
  8 13  1  0
  9 11  1  0
 10 12  1  0
 11 12  1  0
 14 15  1  0
 15 17  1  0
 16 18  1  0
 17 19  1  0
 18 20  2  0
 18 21  1  0
 19 22  1  0
 20 23  1  0
 21 24  2  0
 23 25  2  0
 24 25  1  0
 25 26  1  0
 26 27  1  0
 26 28  2  0
 27 29  2  0
 27 31  1  0
 28 30  1  0
 29 32  1  0
 30 32  2  0
M  END
>  <DRUGBANK_ID>  (1) 
DB01029

>  <SECONDARY_ACCESSION_NUMBERS>  (1) 
APRD00413

>  <COMMON_NAME>  (1) 
Irbesartan

>  <CAS_NUMBER>  (1) 
138402-11-6

>  <UNII>  (1) 
J0E2756Z7N

>  <SYNONYMS>  (1) 
2-butyl-3-{[2'-(1H-tetrazol-5-yl)biphenyl-4-yl]methyl}-1,3-diazaspiro[4.4]non-1-en-4-one; Irbesartan

$$$$
