C08
     RDKit          3D

 29 31  0  0  0  0  0  0  0  0999 V2000
    2.1445   -3.5975   -0.0032 C   0  0  0  0  0  0  0  0  0  0  0  0
    1.0362   -4.3471    0.0007 C   0  0  0  0  0  0  0  0  0  0  0  0
    0.7947   -5.6940   -0.0055 C   0  0  0  0  0  0  0  0  0  0  0  0
   -0.5594   -5.8679   -0.0062 C   0  0  0  0  0  0  0  0  0  0  0  0
   -1.1527   -4.7097   -0.0045 C   0  0  0  0  0  0  0  0  0  0  0  0
   -2.6572   -4.4928   -0.0040 C   0  0  0  0  0  0  0  0  0  0  0  0
   -3.0562   -3.7130    1.2382 C   0  0  0  0  0  0  0  0  0  0  0  0
   -2.3502   -2.3669    1.2399 C   0  0  0  0  0  0  0  0  0  0  0  0
   -2.7496   -1.5837   -0.0000 C   0  0  0  0  0  0  0  0  0  0  0  0
   -4.2540   -1.3668    0.0005 C   0  0  0  0  0  0  0  0  0  0  0  0
   -4.6531   -0.5869    1.2427 C   0  0  0  0  0  0  0  0  0  0  0  0
   -3.9471    0.7592    1.2444 C   0  0  0  0  0  0  0  0  0  0  0  0
   -4.3465    1.5424    0.0044 C   0  0  0  0  0  0  0  0  0  0  0  0
   -0.2191   -3.7272   -0.0033 N   0  0  0  0  0  0  0  0  0  0  0  0
   -0.2770   -2.3142   -0.0022 B   0  0  0  0  0  0  0  0  0  0  0  0
   -0.8731   -1.9921    1.2343 F   0  0  0  0  0  0  0  0  0  0  0  0
    0.8852   -1.6243   -0.0012 N   0  0  0  0  0  0  0  0  0  0  0  0
    5.8571   -1.3150   -0.0031 C   0  0  0  0  0  0  0  0  0  0  0  0
    5.8050    0.2041   -0.0019 C   0  0  0  0  0  0  0  0  0  0  0  0
    5.0710    0.6868   -1.2423 C   0  0  0  0  0  0  0  0  0  0  0  0
    3.6561    0.1313   -1.2421 C   0  0  0  0  0  0  0  0  0  0  0  0
    2.9232    0.6121   -0.0004 C   0  0  0  0  0  0  0  0  0  0  0  0
    2.8710    2.1313    0.0008 C   0  0  0  0  0  0  0  0  0  0  0  0
    1.6176    2.7987    0.0018 O   0  0  0  0  0  0  0  0  0  0  0  0
    3.9492    2.8041    0.0008 O   0  0  0  0  0  0  0  0  0  0  0  0
    4.5676   -2.1197   -0.0031 C   0  0  0  0  0  0  0  0  0  0  0  0
    3.3668   -1.4803   -0.0021 C   0  0  0  0  0  0  0  0  0  0  0  0
    2.0773   -2.2851   -0.0022 C   0  0  0  0  0  0  0  0  0  0  0  0
   -0.9920   -1.9251   -1.1535 F   0  0  0  0  0  0  0  0  0  0  0  0
  1  2  1  0
  1 28  2  0
  2  3  2  0
  2 14  1  0
  3  4  1  0
  4  5  2  0
  5  6  1  0
  5 14  1  0
  6  7  1  0
  7  8  1  0
  8  9  1  0
  9 10  1  0
 10 11  1  0
 11 12  1  0
 12 13  1  0
 14 15  1  0
 15 16  1  0
 15 17  1  0
 15 29  1  0
 17 18  2  0
 17 28  1  0
 18 19  1  0
 18 26  1  0
 19 20  1  0
 20 21  1  0
 21 22  1  0
 22 23  1  0
 23 24  1  0
 23 25  2  0
 26 27  2  0
 27 28  1  0
M  CHG  2  15  -1  17   1
M  END
>  <DRUGBANK_ID>  (1) 
DB07509

>  <COMMON_NAME>  (1) 
difluoro(5-{2-[(5-octyl-1H-pyrrol-2-yl-kappaN)methylidene]-2H-pyrrol-5-yl-kappaN}pentanoato)boron

$$$$
