
     RDKit          3D

 12 12  0  0  0  0  0  0  0  0999 V2000
    1.0136    0.2243    0.0050 C   0  0  0  0  0  0  0  0  0  0  0  0
    0.5737   -0.7851    1.0679 C   0  0  0  0  0  0  0  0  0  0  0  0
   -0.9446   -0.6573    1.2568 C   0  0  0  0  0  0  0  0  0  0  0  0
    0.9903   -2.2227    0.7673 C   0  0  0  0  0  0  0  0  0  0  0  0
    0.8258   -3.2094    1.6686 C   0  0  0  0  0  0  0  0  0  0  0  0
    1.1936   -4.6231    1.4110 C   0  0  0  0  0  0  0  0  0  0  0  0
    1.0596   -5.4658    2.2889 O   0  0  0  0  0  0  0  0  0  0  0  0
    1.7081   -4.9573    0.0639 C   0  0  0  0  0  0  0  0  0  0  0  0
    2.0253   -6.3638   -0.3091 C   0  0  0  0  0  0  0  0  0  0  0  0
    1.8985   -3.9828   -0.8261 C   0  0  0  0  0  0  0  0  0  0  0  0
    1.6167   -2.5781   -0.5442 C   0  0  0  0  0  0  0  0  0  0  0  0
    1.9241   -1.7790   -1.4229 O   0  0  0  0  0  0  0  0  0  0  0  0
  1  2  1  0
  2  3  1  0
  2  4  1  0
  4  5  2  0
  4 11  1  0
  5  6  1  0
  6  7  2  0
  6  8  1  0
  8  9  1  0
  8 10  2  0
 10 11  1  0
 11 12  2  0
M  END
>  <DRUGBANK_ID>  (1) 
DB16447

>  <COMMON_NAME>  (1) 
Thymoquinone

>  <CAS_NUMBER>  (1) 
490-91-5

>  <UNII>  (1) 
O60IE26NUF

>  <SYNONYMS>  (1) 
2-Isopropyl-5-methyl-p-benzoquinone; p-Cymene-2,5-dione; p-Mentha-3,6-diene-2,5-dione; Thymoquinon

$$$$
