
     RDKit          3D

 41 44  0  0  1  0  0  0  0  0999 V2000
   -8.9228   -3.6713   -7.2561 C   0  0  1  0  0  0  0  0  0  0  0  0
   -8.7499   -3.4150   -8.7395 C   0  0  0  0  0  0  0  0  0  0  0  0
   -7.4961   -3.3011   -8.0492 C   0  0  0  0  0  0  0  0  0  0  0  0
   -7.4961   -1.5134   -8.0264 C   0  0  2  0  0  0  0  0  0  0  0  0
   -7.5743   -2.5505   -6.2194 N   0  0  0  0  0  0  0  0  0  0  0  0
   -8.4059   -1.2143   -4.9986 C   0  0  0  0  0  0  0  0  0  0  0  0
   -9.1349   -0.1174   -5.3923 O   0  0  0  0  0  0  0  0  0  0  0  0
   -9.2658   -1.6091   -3.8555 C   0  0  2  0  0  0  0  0  0  0  0  0
  -10.8207   -1.6301   -4.1954 C   0  0  0  0  0  0  0  0  0  0  0  0
  -11.2227   -2.1390   -5.5895 N   0  0  0  0  0  0  0  0  0  0  0  0
  -11.3294   -3.7387   -5.8079 C   0  0  0  0  0  0  0  0  0  0  0  0
  -10.7729   -3.8897   -7.1735 C   0  0  0  0  0  0  0  0  0  0  0  0
  -11.0521   -1.2457   -6.6269 C   0  0  0  0  0  0  0  0  0  0  0  0
  -11.8588   -0.3725   -6.8780 O   0  0  0  0  0  0  0  0  0  0  0  0
   -9.8667   -1.3964   -7.4902 C   0  0  0  0  0  0  0  0  0  0  0  0
   -8.5545   -1.6076   -6.7422 C   0  0  0  0  0  0  0  0  0  0  0  0
   -8.7993   -3.2924   -5.3591 C   0  0  0  0  0  0  0  0  0  0  0  0
   -6.2954   -1.8428   -6.9662 C   0  0  0  0  0  0  0  0  0  0  0  0
   -8.5202   -1.4233   -2.7192 N   0  0  0  0  0  0  0  0  0  0  0  0
   -8.0922   -0.2417   -2.2810 C   0  0  0  0  0  0  0  0  0  0  0  0
   -7.4656   -0.2643   -1.2258 O   0  0  0  0  0  0  0  0  0  0  0  0
   -8.4090    1.0494   -3.0926 C   0  0  2  0  0  0  0  0  0  0  0  0
   -7.3322    1.2703   -4.1605 C   0  0  0  0  0  0  0  0  0  0  0  0
   -8.3940    2.1840   -2.1688 N   0  0  0  0  0  0  0  0  0  0  0  0
   -9.4103    1.9728   -1.1465 C   0  0  0  0  0  0  0  0  0  0  0  0
   -7.4856   -1.2603   -9.4319 C   0  0  0  0  0  0  0  0  0  0  0  0
   -7.2583   -2.1813  -10.1839 O   0  0  0  0  0  0  0  0  0  0  0  0
   -8.0773   -0.0895   -9.7051 N   0  0  0  0  0  0  0  0  0  0  0  0
   -7.9354    1.1632   -8.9794 C   0  0  0  0  0  0  0  0  0  0  0  0
   -6.8225    1.8559   -9.6924 C   0  0  0  0  0  0  0  0  0  0  0  0
   -7.0743    3.0947  -10.2162 C   0  0  0  0  0  0  0  0  0  0  0  0
   -6.3327    3.9131  -10.9805 C   0  0  0  0  0  0  0  0  0  0  0  0
   -5.0608    3.5110  -11.0980 C   0  0  0  0  0  0  0  0  0  0  0  0
   -4.6490    2.3313  -10.4584 C   0  0  0  0  0  0  0  0  0  0  0  0
   -5.5401    1.4259   -9.8698 C   0  0  0  0  0  0  0  0  0  0  0  0
   -9.2545    1.8879   -8.8284 C   0  0  0  0  0  0  0  0  0  0  0  0
  -10.2045    1.5269   -7.9361 C   0  0  0  0  0  0  0  0  0  0  0  0
  -11.3824    2.1991   -7.6805 C   0  0  0  0  0  0  0  0  0  0  0  0
  -11.5451    3.4252   -8.2347 C   0  0  0  0  0  0  0  0  0  0  0  0
  -10.5374    3.9197   -8.9835 C   0  0  0  0  0  0  0  0  0  0  0  0
   -9.6745    2.9970   -9.4932 C   0  0  0  0  0  0  0  0  0  0  0  0
  1  2  1  6
  1  5  1  0
  1 12  1  0
  2  3  1  0
  4  3  1  0
  4  5  1  0
  4 26  1  6
  5  6  1  0
  6  7  2  0
  8  6  1  0
  8  9  1  0
  8 19  1  1
  9 10  1  0
 10 11  1  0
 10 13  1  0
 11 12  1  0
 13 14  2  0
 13 15  1  0
 15 16  1  0
 16 17  1  0
 16 18  1  0
 19 20  1  0
 20 21  2  0
 22 24  1  0
 22 23  1  6
 22 20  1  0
 24 25  1  0
 26 27  2  0
 26 28  1  0
 28 29  1  0
 29 30  1  0
 29 36  1  0
 30 31  2  0
 30 35  1  0
 31 32  1  0
 32 33  2  0
 33 34  1  0
 34 35  2  0
 36 37  2  0
 36 41  1  0
 37 38  1  0
 38 39  2  0
 39 40  1  0
 40 41  2  0
M  END
>  <DRUGBANK_ID>  (1) 
DB16305

>  <COMMON_NAME>  (1) 
Xevinapant

>  <CAS_NUMBER>  (1) 
1071992-99-8

>  <UNII>  (1) 
N65WC8PXDD

>  <SYNONYMS>  (1) 
(5S,8S, 10aR)-N-benzhydryl-5-((S)-2-(methylamino)propanamido)-3-(3-methylbutanoyl)-6-oxodecahydropyrrolo[1,2-a][1,5] diazocine-8-carboxyamide; Iap inhibitor at-406; PYRROLO(1,2-A)(1,5)DIAZOCINE-8-CARBOXAMIDE, N-(DIPHENYLMETHYL)DECAHYDRO-5-(((2S)-2-(METHYLAMINO)-1-OXOPROPYL)AMINO)-3-(3-METHYL-1-OXOBUTYL)-6-OXO-, (5S,8S,10AR)-; Xevinapant

$$$$
