1326
     RDKit          3D

 31 34  0  0  1  0  0  0  0  0999 V2000
   -2.1820   -0.5732   -4.7349 S   0  0  0  0  0  0  0  0  0  0  0  0
   -0.0553   -5.0519   -3.2319 S   0  0  0  0  0  0  0  0  0  0  0  0
   -0.0259   -0.2585   -0.6631 O   0  0  0  0  0  0  0  0  0  0  0  0
   -1.0417   -2.4644    0.3154 O   0  0  0  0  0  0  0  0  0  0  0  0
   -1.1224    4.4619   -3.3152 O   0  0  0  0  0  0  0  0  0  0  0  0
   -1.2806   -4.3898   -0.7327 O   0  0  0  0  0  0  0  0  0  0  0  0
   -2.2645    3.7764   -0.3217 O   0  0  0  0  0  0  0  0  0  0  0  0
   -1.6876   -1.0239   -2.0915 N   0  0  0  0  0  0  0  0  0  0  0  0
   -1.0918    2.2244   -3.0995 N   0  0  0  0  0  0  0  0  0  0  0  0
    1.2405   -2.9676   -4.6026 N   0  0  0  0  0  0  0  0  0  0  0  0
    2.2299   -4.8525   -4.6328 N   0  0  0  0  0  0  0  0  0  0  0  0
    2.3176   -2.7544   -5.3502 N   0  0  0  0  0  0  0  0  0  0  0  0
    2.9470   -3.9099   -5.3379 N   0  0  0  0  0  0  0  0  0  0  0  0
   -2.3210   -0.1201   -3.0313 C   0  0  1  0  0  0  0  0  0  0  0  0
   -1.4235    1.0127   -2.3663 C   0  0  1  0  0  0  0  0  0  0  0  0
   -0.7822   -0.1309   -1.6283 C   0  0  0  0  0  0  0  0  0  0  0  0
   -1.8004   -2.3925   -2.0311 C   0  0  0  0  0  0  0  0  0  0  0  0
   -2.1567   -3.0477   -3.1781 C   0  0  0  0  0  0  0  0  0  0  0  0
   -2.6504   -2.3445   -4.4752 C   0  0  0  0  0  0  0  0  0  0  0  0
   -1.8043   -4.5300   -3.4307 C   0  0  0  0  0  0  0  0  0  0  0  0
   -1.6381    3.4742   -2.7724 C   0  0  0  0  0  0  0  0  0  0  0  0
   -1.3113   -3.1699   -0.7972 C   0  0  0  0  0  0  0  0  0  0  0  0
   -2.7995    3.6940   -1.6442 C   0  0  1  0  0  0  0  0  0  0  0  0
   -3.9913    2.7160   -1.5659 C   0  0  0  0  0  0  0  0  0  0  0  0
    1.1174   -4.2696   -4.2338 C   0  0  0  0  0  0  0  0  0  0  0  0
   -3.8528    1.3768   -1.2054 C   0  0  0  0  0  0  0  0  0  0  0  0
   -5.3272    3.0911   -1.5661 C   0  0  0  0  0  0  0  0  0  0  0  0
   -4.8020    0.3675   -1.3114 C   0  0  0  0  0  0  0  0  0  0  0  0
   -6.3499    2.1106   -1.3992 C   0  0  0  0  0  0  0  0  0  0  0  0
   -6.0936    0.7403   -1.4197 C   0  0  0  0  0  0  0  0  0  0  0  0
    0.3692   -1.8853   -4.4505 C   0  0  0  0  0  0  0  0  0  0  0  0
 14  1  1  6
  1 19  1  0
  2 20  1  0
  2 25  1  0
  3 16  2  0
  4 22  1  0
  5 21  2  0
  6 22  2  0
  8 14  1  0
  8 16  1  0
  8 17  1  0
  9 21  1  0
 10 12  1  0
 10 25  1  0
 10 31  1  0
 11 13  1  0
 11 25  2  0
 12 13  2  0
 14 15  1  0
 15  9  1  6
 15 16  1  0
 17 18  2  0
 17 22  1  0
 18 19  1  0
 18 20  1  0
 23 24  1  0
 23 21  1  0
 23  7  1  1
 24 26  2  0
 24 27  1  0
 26 28  1  0
 27 29  2  0
 28 30  2  0
 29 30  1  0
M  END
>  <DRUGBANK_ID>  (1) 
DB01326

>  <COMMON_NAME>  (1) 
Cefamandole

>  <CAS_NUMBER>  (1) 
34444-01-4

>  <UNII>  (1) 
5CKP8C2LLI

>  <SYNONYMS>  (1) 
(6R,7R)-7-(R)-Mandelamido-3-(((1-methyl-1H-tetrazol-5-yl)thio)methyl)-8-oxo-5-thia-1-azabicyclo(4.2.0)oct-2-ene-carboxylic acid; (6R,7R)-7-{[(2R)-2-hydroxy-2-phenylacetyl]amino}-3-{[(1-methyl-1H-tetrazol-5-yl)sulfanyl]methyl}-8-oxo-5-thia-1-azabicyclo[4.2.0]oct-2-ene-2-carboxylic acid; Cefadole; Cefamandol; CÃ©famandole; Cefamandole; Cefamandolum; Cephadole; Cephamandole; L-Cefamandole

$$$$
