IP7
     RDKit          3D

 32 36  0  0  0  0  0  0  0  0999 V2000
    2.3174   -0.0587    0.1979 N   0  0  0  0  0  0  0  0  0  0  0  0
    0.9222    0.0085    0.0258 C   0  0  0  0  0  0  0  0  0  0  0  0
    0.3553    1.2277    0.0610 N   0  0  0  0  0  0  0  0  0  0  0  0
   -0.9971    1.2786    0.0246 C   0  0  0  0  0  0  0  0  0  0  0  0
   -1.8180    0.1721   -0.0344 C   0  0  0  0  0  0  0  0  0  0  0  0
   -1.2135   -1.0729   -0.0897 C   0  0  0  0  0  0  0  0  0  0  0  0
    0.1822   -1.1870   -0.0481 C   0  0  0  0  0  0  0  0  0  0  0  0
    0.8802   -2.3839   -0.2710 N   0  0  0  0  0  0  0  0  0  0  0  0
    0.1957   -3.6344   -0.1040 C   0  0  0  0  0  0  0  0  0  0  0  0
    0.2604   -4.6192   -1.1996 C   0  0  0  0  0  0  0  0  0  0  0  0
    1.0046   -4.2374   -2.3163 C   0  0  0  0  0  0  0  0  0  0  0  0
    1.3917   -5.1477   -3.2930 C   0  0  0  0  0  0  0  0  0  0  0  0
    0.8965   -6.4457   -3.1582 C   0  0  0  0  0  0  0  0  0  0  0  0
    0.1154   -6.8332   -2.0357 C   0  0  0  0  0  0  0  0  0  0  0  0
   -0.2321   -5.9139   -1.0278 C   0  0  0  0  0  0  0  0  0  0  0  0
   -0.9423   -6.4260    0.0377 O   0  0  0  0  0  0  0  0  0  0  0  0
   -1.5553   -5.6383    1.1104 C   0  0  0  0  0  0  0  0  0  0  0  0
   -0.5919   -5.1856    2.2254 C   0  0  0  0  0  0  0  0  0  0  0  0
   -0.5008   -3.8309    2.6127 C   0  0  0  0  0  0  0  0  0  0  0  0
    0.6975   -3.3650    3.1745 C   0  0  0  0  0  0  0  0  0  0  0  0
    1.6969   -4.2740    3.4889 C   0  0  0  0  0  0  0  0  0  0  0  0
    1.4603   -5.6111    3.2205 C   0  0  0  0  0  0  0  0  0  0  0  0
    0.3559   -6.0793    2.5936 N   0  0  0  0  0  0  0  0  0  0  0  0
    2.4755   -4.7261   -4.1936 C   0  0  0  0  0  0  0  0  0  0  0  0
    2.3706   -4.6783   -5.5937 C   0  0  0  0  0  0  0  0  0  0  0  0
    3.5172   -4.4598   -6.3981 C   0  0  0  0  0  0  0  0  0  0  0  0
    4.7506   -4.2591   -5.7520 C   0  0  0  0  0  0  0  0  0  0  0  0
    6.1547   -4.0191   -5.9964 C   0  0  0  0  0  0  0  0  0  0  0  0
    6.1145   -2.6409   -5.7407 C   0  0  0  0  0  0  0  0  0  0  0  0
    5.6050   -2.7523   -4.4184 N   0  0  0  0  0  0  0  0  0  0  0  0
    4.6267   -3.7452   -4.4646 C   0  0  0  0  0  0  0  0  0  0  0  0
    3.6439   -4.1851   -3.6049 C   0  0  0  0  0  0  0  0  0  0  0  0
  1  2  1  0
  2  3  2  0
  2  7  1  0
  3  4  1  0
  4  5  2  0
  5  6  1  0
  6  7  2  0
  7  8  1  0
  8  9  1  0
  9 10  1  0
 10 11  2  0
 10 15  1  0
 11 12  1  0
 12 24  1  0
 12 13  2  0
 13 14  1  0
 14 15  2  0
 15 16  1  0
 16 17  1  0
 17 18  1  0
 18 23  1  0
 18 19  2  0
 19 20  1  0
 20 21  2  0
 21 22  1  0
 22 23  2  0
 24 32  1  0
 24 25  2  0
 25 26  1  0
 26 27  2  0
 27 28  1  0
 27 31  1  0
 28 29  2  0
 29 30  1  0
 30 31  1  0
 31 32  2  0
M  END
>  <DRUGBANK_ID>  (1) 
DB07994

>  <COMMON_NAME>  (1) 
N~3~-[5-(1H-INDOL-6-YL)-2-(PYRIDIN-2-YLMETHOXY)BENZYL]PYRIDINE-2,3-DIAMINE

$$$$
