
     RDKit          3D

 41 44  0  0  1  0  0  0  0  0999 V2000
    0.9623   -0.1107    0.0259 C   0  0  0  0  0  0  0  0  0  0  0  0
    0.4348    0.8736    0.9354 N   0  0  0  0  0  0  0  0  0  0  0  0
   -0.0583    2.0499    0.3700 C   0  0  0  0  0  0  0  0  0  0  0  0
   -1.0611    2.0061   -0.6358 C   0  0  0  0  0  0  0  0  0  0  0  0
   -1.7995    3.1666   -0.9387 C   0  0  0  0  0  0  0  0  0  0  0  0
   -3.1099    3.1004   -1.4535 N   0  0  0  0  0  0  0  0  0  0  0  0
   -3.9311    4.1361   -1.8360 C   0  0  0  0  0  0  0  0  0  0  0  0
   -4.4332    4.0343   -2.9597 O   0  0  0  0  0  0  0  0  0  0  0  0
   -4.2701    5.2135   -0.9926 N   0  0  0  0  0  0  0  0  0  0  0  0
   -4.2389    5.3735    0.5105 C   0  0  2  0  0  0  0  0  0  0  0  0
   -5.5685    5.8058    1.2270 N   0  0  0  0  0  0  0  0  0  0  0  0
   -5.8031    6.0865    2.5146 C   0  0  0  0  0  0  0  0  0  0  0  0
   -7.2976    6.3432    2.9736 C   0  0  0  0  0  0  0  0  0  0  0  0
   -7.5544    7.6195    3.3513 N   0  0  0  0  0  0  0  0  0  0  0  0
   -8.8028    7.9118    3.8157 C   0  0  0  0  0  0  0  0  0  0  0  0
   -9.8108    6.9860    4.0232 C   0  0  0  0  0  0  0  0  0  0  0  0
   -9.5408    5.6731    3.6726 C   0  0  0  0  0  0  0  0  0  0  0  0
   -8.2831    5.3482    3.1158 C   0  0  0  0  0  0  0  0  0  0  0  0
   -4.7873    6.1167    3.7910 C   0  0  0  0  0  0  0  0  0  0  0  0
   -5.1785    6.4968    5.0976 C   0  0  0  0  0  0  0  0  0  0  0  0
   -4.2903    6.4356    6.2072 C   0  0  0  0  0  0  0  0  0  0  0  0
   -3.0177    5.8995    6.0812 C   0  0  0  0  0  0  0  0  0  0  0  0
   -2.6431    5.4075    4.8531 C   0  0  0  0  0  0  0  0  0  0  0  0
   -3.4799    5.5842    3.7289 C   0  0  0  0  0  0  0  0  0  0  0  0
   -2.9724    5.1345    2.5072 N   0  0  0  0  0  0  0  0  0  0  0  0
   -2.5139    3.7050    2.4871 C   0  0  0  0  0  0  0  0  0  0  0  0
   -3.1445    2.4562    1.7629 C   0  0  0  0  0  0  0  0  0  0  0  0
   -2.4810    1.5375    1.3720 O   0  0  0  0  0  0  0  0  0  0  0  0
   -4.5855    2.0754    1.9861 C   0  0  0  0  0  0  0  0  0  0  0  0
   -4.4631    1.2897    3.2790 C   0  0  0  0  0  0  0  0  0  0  0  0
   -5.4161    3.2215    2.3445 C   0  0  0  0  0  0  0  0  0  0  0  0
   -5.1745    1.2974    0.7676 C   0  0  0  0  0  0  0  0  0  0  0  0
   -5.4487    2.0612   -0.4708 O   0  0  0  0  0  0  0  0  0  0  0  0
   -6.4861    2.8857   -0.7963 C   0  0  0  0  0  0  0  0  0  0  0  0
   -7.3751    3.3675    0.2741 C   0  0  0  0  0  0  0  0  0  0  0  0
   -6.6720    3.3314   -1.9221 O   0  0  0  0  0  0  0  0  0  0  0  0
   -3.2163    6.0210    1.4208 C   0  0  0  0  0  0  0  0  0  0  0  0
   -3.0649    7.2436    1.4665 O   0  0  0  0  0  0  0  0  0  0  0  0
   -1.3367    4.3882   -0.5054 C   0  0  0  0  0  0  0  0  0  0  0  0
   -0.3625    4.4451    0.4779 C   0  0  0  0  0  0  0  0  0  0  0  0
    0.2802    3.2846    0.9206 C   0  0  0  0  0  0  0  0  0  0  0  0
  1  2  1  0
  2  3  1  0
  3  4  2  0
  3 41  1  0
  4  5  1  0
  5  6  1  0
  5 39  2  0
  6  7  1  0
  7  8  2  0
  7  9  1  0
 10  9  1  6
 10 11  1  0
 10 37  1  0
 11 12  2  0
 12 13  1  0
 12 19  1  0
 13 14  2  0
 13 18  1  0
 14 15  1  0
 15 16  2  0
 16 17  1  0
 17 18  2  0
 19 20  1  0
 19 24  2  0
 20 21  2  0
 21 22  1  0
 22 23  2  0
 23 24  1  0
 24 25  1  0
 25 26  1  0
 25 37  1  0
 26 27  1  0
 27 28  2  0
 27 29  1  0
 29 30  1  0
 29 31  1  0
 29 32  1  0
 32 33  1  0
 33 34  1  0
 34 35  1  0
 34 36  2  0
 37 38  2  0
 39 40  1  0
 40 41  2  0
M  END
>  <DRUGBANK_ID>  (1) 
DB17270

>  <COMMON_NAME>  (1) 
Ceclazepide

>  <CAS_NUMBER>  (1) 
1801749-44-9

>  <UNII>  (1) 
99B5ZR9276

>  <SYNONYMS>  (1) 
(r)-1-(1-(4-acetoxy-3,3-dimethyl-2-oxo-butyl)-2-oxo-5-(pyridin-2-yl)-2,3-dihydro-1h-benzo(e)(1,4)diazepin-3-yl)-3-(3-methylamino-phenyl)-urea; Urea, n-((3r)-1-(4-(acetyloxy)-3,3-dimethyl-2-oxobutyl)-2,3-dihydro-2-oxo-5-(2-pyridinyl)-1h-1,4-benzodiazepin-3-yl)-n'-(3-(methylamino)phenyl)-

$$$$
