
     RDKit          3D

 37 40  0  0  1  0  0  0  0  0999 V2000
   -0.6812   -0.6116    1.0405 O   0  0  0  0  0  0  0  0  0  0  0  0
   -2.4917    0.2379    0.2070 O   0  0  0  0  0  0  0  0  0  0  0  0
    0.5497   -1.2604   -5.8409 O   0  0  0  0  0  0  0  0  0  0  0  0
   -4.6512   -0.6954    1.4213 O   0  0  0  0  0  0  0  0  0  0  0  0
    1.7579    0.7703   -6.2340 O   0  0  0  0  0  0  0  0  0  0  0  0
    1.0862   -4.2107   -5.9950 O   0  0  0  0  0  0  0  0  0  0  0  0
   -3.1790   -1.7371   -1.7166 N   0  0  0  0  0  0  0  0  0  0  0  0
   -2.4528   -1.6775    1.7960 N   0  0  0  0  0  0  0  0  0  0  0  0
   -1.0907   -0.6848   -1.2783 C   0  0  2  0  0  0  0  0  0  0  0  0
   -1.8688    0.3765   -2.0225 C   0  0  2  0  0  0  0  0  0  0  0  0
   -1.7475   -2.0513   -1.6341 C   0  0  2  0  0  0  0  0  0  0  0  0
   -3.2459   -0.3263   -2.2095 C   0  0  0  0  0  0  0  0  0  0  0  0
   -0.9613    0.6800   -3.1571 C   0  0  0  0  0  0  0  0  0  0  0  0
   -1.0609   -2.8997   -2.7019 C   0  0  0  0  0  0  0  0  0  0  0  0
   -3.9929   -2.0727   -0.4507 C   0  0  0  0  0  0  0  0  0  0  0  0
   -1.4849   -0.3033    0.0465 C   0  0  0  0  0  0  0  0  0  0  0  0
   -0.7089   -0.3303   -4.0495 C   0  0  0  0  0  0  0  0  0  0  0  0
   -3.7552   -1.4500    1.0091 C   0  0  0  0  0  0  0  0  0  0  0  0
   -0.2134    1.8373   -3.2583 C   0  0  0  0  0  0  0  0  0  0  0  0
    0.3060   -3.2399   -2.5960 C   0  0  0  0  0  0  0  0  0  0  0  0
   -1.7318   -3.2596   -3.8665 C   0  0  0  0  0  0  0  0  0  0  0  0
    0.2670   -0.2768   -4.9727 C   0  0  0  0  0  0  0  0  0  0  0  0
    0.7149    1.9511   -4.3068 C   0  0  0  0  0  0  0  0  0  0  0  0
    0.9504    0.8696   -5.1445 C   0  0  0  0  0  0  0  0  0  0  0  0
    1.0312   -3.7473   -3.6393 C   0  0  0  0  0  0  0  0  0  0  0  0
   -0.9860   -3.7350   -4.9469 C   0  0  0  0  0  0  0  0  0  0  0  0
   -1.3289   -2.8940    1.1397 C   0  0  0  0  0  0  0  0  0  0  0  0
   -2.0084   -0.2595    2.8489 C   0  0  0  0  0  0  0  0  0  0  0  0
    0.3994   -3.9420   -4.8445 C   0  0  0  0  0  0  0  0  0  0  0  0
    0.3287   -2.4453    0.4226 C   0  0  0  0  0  0  0  0  0  0  0  0
   -1.7723    1.3303    2.1713 C   0  0  0  0  0  0  0  0  0  0  0  0
    1.4371   -0.5685   -6.7074 C   0  0  0  0  0  0  0  0  0  0  0  0
    1.3553   -1.3368    1.0718 C   0  0  0  0  0  0  0  0  0  0  0  0
   -3.0899    1.9918    1.7261 C   0  0  0  0  0  0  0  0  0  0  0  0
    1.6401   -2.0510    2.3283 C   0  0  0  0  0  0  0  0  0  0  0  0
   -4.0288    1.7088    2.8506 C   0  0  0  0  0  0  0  0  0  0  0  0
    2.4997   -4.3285   -5.8269 C   0  0  0  0  0  0  0  0  0  0  0  0
  1 16  1  0
  2 16  2  0
  3 22  1  0
  3 32  1  0
  4 18  2  0
  5 24  1  0
  5 32  1  0
  6 29  1  0
  6 37  1  0
  7 11  1  0
  7 12  1  0
  7 15  1  0
  8 18  1  0
  8 27  1  0
  8 28  1  0
  9 10  1  0
  9 11  1  0
  9 16  1  1
 10 12  1  0
 10 13  1  6
 11 14  1  6
 13 17  1  0
 13 19  2  0
 14 20  2  0
 14 21  1  0
 15 18  1  0
 17 22  2  0
 19 23  1  0
 20 25  1  0
 21 26  2  0
 22 24  1  0
 23 24  2  0
 25 29  2  0
 26 29  1  0
 27 30  1  0
 28 31  1  0
 30 33  1  0
 31 34  1  0
 33 35  1  0
 34 36  1  0
M  END
>  <DRUGBANK_ID>  (1) 
DB06199

>  <COMMON_NAME>  (1) 
Atrasentan

>  <CAS_NUMBER>  (1) 
173937-91-2

>  <UNII>  (1) 
V6D7VK2215

>  <SYNONYMS>  (1) 
Atrasentan

$$$$
