
     RDKit          3D

 32 36  0  0  0  0  0  0  0  0999 V2000
    2.3452   -0.3826   -0.9245 C   0  0  0  0  0  0  0  0  0  0  0  0
    0.8768   -0.4623   -1.1434 N   0  0  0  0  0  0  0  0  0  0  0  0
    0.2788   -1.5409   -0.3098 C   0  0  0  0  0  0  0  0  0  0  0  0
   -1.2659   -1.4058   -0.2769 C   0  0  0  0  0  0  0  0  0  0  0  0
   -1.8467   -0.1377    0.2252 N   0  0  0  0  0  0  0  0  0  0  0  0
   -2.2370    0.0548    1.6703 C   0  0  0  0  0  0  0  0  0  0  0  0
   -1.2932    0.3314    2.8844 C   0  0  0  0  0  0  0  0  0  0  0  0
   -0.6908    1.5801    3.1949 C   0  0  0  0  0  0  0  0  0  0  0  0
    0.5258    1.6771    4.0216 C   0  0  0  0  0  0  0  0  0  0  0  0
    1.0287    0.5644    4.6979 C   0  0  0  0  0  0  0  0  0  0  0  0
    2.4186    0.4392    5.1137 N   0  0  0  0  0  0  0  0  0  0  0  0
    3.1672   -0.6553    5.6451 C   0  0  0  0  0  0  0  0  0  0  0  0
    4.3184   -0.5001    5.9818 O   0  0  0  0  0  0  0  0  0  0  0  0
    2.5066   -1.9735    5.7221 C   0  0  0  0  0  0  0  0  0  0  0  0
    2.0679   -2.4420    6.9080 N   0  0  0  0  0  0  0  0  0  0  0  0
    1.2402   -3.4421    6.5814 N   0  0  0  0  0  0  0  0  0  0  0  0
    1.1193   -3.6343    5.2217 C   0  0  0  0  0  0  0  0  0  0  0  0
    2.0002   -2.7463    4.6146 C   0  0  0  0  0  0  0  0  0  0  0  0
    2.0978   -2.4220    3.2687 N   0  0  0  0  0  0  0  0  0  0  0  0
    2.9210   -1.3486    2.7492 C   0  0  0  0  0  0  0  0  0  0  0  0
    2.5118   -0.1017    2.1781 C   0  0  0  0  0  0  0  0  0  0  0  0
    1.3475    0.4818    1.7425 C   0  0  0  0  0  0  0  0  0  0  0  0
    1.4979    1.8182    1.3716 C   0  0  0  0  0  0  0  0  0  0  0  0
    2.8192    1.9896    1.2869 N   0  0  0  0  0  0  0  0  0  0  0  0
    3.4215    0.9110    1.8823 C   0  0  0  0  0  0  0  0  0  0  0  0
    4.7235    0.8388    2.0835 N   0  0  0  0  0  0  0  0  0  0  0  0
    5.0373   -0.3542    2.6209 C   0  0  0  0  0  0  0  0  0  0  0  0
    4.2555   -1.4182    2.9464 N   0  0  0  0  0  0  0  0  0  0  0  0
    0.1429   -0.5017    4.6932 C   0  0  0  0  0  0  0  0  0  0  0  0
   -0.8592   -0.7067    3.7053 C   0  0  0  0  0  0  0  0  0  0  0  0
   -1.3837    0.9919   -0.6050 C   0  0  0  0  0  0  0  0  0  0  0  0
    0.1302    0.8183   -0.9377 C   0  0  0  0  0  0  0  0  0  0  0  0
  1  2  1  0
  2  3  1  0
  2 32  1  0
  3  4  1  0
  4  5  1  0
  5  6  1  0
  5 31  1  0
  6  7  1  0
  7  8  2  0
  7 30  1  0
  8  9  1  0
  9 10  2  0
 10 11  1  0
 10 29  1  0
 11 12  1  0
 12 13  2  0
 12 14  1  0
 14 15  2  0
 14 18  1  0
 15 16  1  0
 16 17  1  0
 17 18  2  0
 18 19  1  0
 19 20  1  0
 20 21  2  0
 20 28  1  0
 21 22  1  0
 21 25  1  0
 22 23  2  0
 23 24  1  0
 24 25  1  0
 25 26  2  0
 26 27  1  0
 27 28  2  0
 29 30  2  0
 31 32  1  0
M  END
>  <DRUGBANK_ID>  (1) 
DB17383

>  <COMMON_NAME>  (1) 
FN-1501

>  <CAS_NUMBER>  (1) 
1429515-59-2

>  <UNII>  (1) 
6MC966B505

>  <SYNONYMS>  (1) 
4-((7h-pyrrolo (2,3-d)pyrimidin-4-yl)amino)-n-(4-((4-methylpiperazin-1-yl)methyl)phenyl)-1h-pyrazole-3-carboxamide

$$$$
