
     RDKit          3D

 22 23  0  0  0  0  0  0  0  0999 V2000
    2.3673   -0.1202    0.0125 C   0  0  0  0  0  0  0  0  0  0  0  0
    1.7094    1.1312   -0.0010 C   0  0  0  0  0  0  0  0  0  0  0  0
    1.6650   -1.3065   -0.0006 C   0  0  0  0  0  0  0  0  0  0  0  0
    3.8301   -0.1465    0.0494 C   0  0  0  0  0  0  0  0  0  0  0  0
    0.3190    1.1757   -0.0144 C   0  0  0  0  0  0  0  0  0  0  0  0
    0.2771   -1.2550   -0.0174 C   0  0  0  0  0  0  0  0  0  0  0  0
    4.6139   -1.1858    0.0748 N   0  0  0  0  0  0  0  0  0  0  0  0
   -0.3891   -0.0239   -0.0165 C   0  0  0  0  0  0  0  0  0  0  0  0
    6.0258   -0.9856    0.1200 N   0  0  0  0  0  0  0  0  0  0  0  0
   -2.1076    0.0049   -0.0115 Cl  0  0  0  0  0  0  0  0  0  0  0  0
    6.6937    0.2368    0.1196 C   0  0  0  0  0  0  0  0  0  0  0  0
    8.0816    0.2653    0.1413 N   0  0  0  0  0  0  0  0  0  0  0  0
    5.9217    1.2446    0.0847 N   0  0  0  0  0  0  0  0  0  0  0  0
    8.9742    1.3487    0.1221 N   0  0  0  0  0  0  0  0  0  0  0  0
    8.5084    2.5464    0.2205 C   0  0  0  0  0  0  0  0  0  0  0  0
    9.2239    3.8098    0.2280 C   0  0  0  0  0  0  0  0  0  0  0  0
   10.2743    4.0127   -0.6433 C   0  0  0  0  0  0  0  0  0  0  0  0
    8.6944    4.8461    1.0221 C   0  0  0  0  0  0  0  0  0  0  0  0
   10.8937    5.2555   -0.6383 C   0  0  0  0  0  0  0  0  0  0  0  0
    9.3247    6.0822    1.0299 C   0  0  0  0  0  0  0  0  0  0  0  0
   10.4412    6.2694    0.2166 C   0  0  0  0  0  0  0  0  0  0  0  0
   11.2854    7.7646    0.2727 Cl  0  0  0  0  0  0  0  0  0  0  0  0
  1  2  2  0
  1  3  1  0
  1  4  1  0
  2  5  1  0
  3  6  2  0
  4  7  2  0
  5  8  2  0
  6  8  1  0
  7  9  1  0
  8 10  1  0
  9 11  1  0
 11 12  1  0
 11 13  2  0
 12 14  1  0
 14 15  2  0
 15 16  1  0
 16 17  2  0
 16 18  1  0
 17 19  1  0
 18 20  2  0
 19 21  2  0
 20 21  1  0
 21 22  1  0
M  END
>  <DRUGBANK_ID>  (1) 
DB11542

>  <COMMON_NAME>  (1) 
Robenidine

>  <CAS_NUMBER>  (1) 
25875-51-8

>  <UNII>  (1) 
4888ME6C4E

>  <SYNONYMS>  (1) 
Robenidina; Robenidine; Robenidinum

$$$$
