
     RDKit          3D

  8  7  0  0  0  0  0  0  0  0999 V2000
    1.0286   -0.0626    0.0726 P   0  0  0  0  0  0  0  0  0  0  0  0
    0.8585   -0.8092    1.5244 O   0  0  0  0  0  0  0  0  0  0  0  0
    0.9201    1.5000    0.5218 O   0  0  0  0  0  0  0  0  0  0  0  0
   -0.7014   -0.0626    0.0726 O   0  0  0  0  0  0  0  0  0  0  0  0
    2.5769   -0.0626    0.0726 O   0  0  0  0  0  0  0  0  0  0  0  0
   -0.3205   -2.4760   -0.7531 N   0  0  0  0  0  0  0  0  0  0  0  0
    0.9680   -2.2287    1.4309 C   0  0  0  0  0  0  0  0  0  0  0  0
   -0.2237   -2.8508    0.6714 C   0  0  0  0  0  0  0  0  0  0  0  0
  1  2  1  0
  1  3  1  0
  1  4  1  0
  1  5  2  0
  2  7  1  0
  6  8  1  0
  7  8  1  0
M  END
>  <DRUGBANK_ID>  (1) 
DB01738

>  <SECONDARY_ACCESSION_NUMBERS>  (1) 
EXPT02671; DB04403

>  <COMMON_NAME>  (1) 
Phosphorylcolamine

>  <CAS_NUMBER>  (1) 
1071-23-4

>  <UNII>  (1) 
78A2BX7AEU

>  <SYNONYMS>  (1) 
2-aminoethyl dihydrogen phosphate; Colamine phosphate; Colamine phosphoric acid; O-Phosphoethanolamine; Phosphorylethanolamine

$$$$
