
     RDKit          3D

  6  6  0  0  0  0  0  0  0  0999 V2000
    1.5407   -0.0037    0.2062 C   0  0  0  0  0  0  0  0  0  0  0  0
    0.7768   -1.2560   -0.2111 C   0  0  0  0  0  0  0  0  0  0  0  0
   -0.6724   -1.1845    0.2532 C   0  0  0  0  0  0  0  0  0  0  0  0
   -1.3016    0.0051   -0.2237 O   0  0  0  0  0  0  0  0  0  0  0  0
   -0.6627    1.1850    0.2642 C   0  0  0  0  0  0  0  0  0  0  0  0
    0.7818    1.2505   -0.2138 C   0  0  0  0  0  0  0  0  0  0  0  0
  1  2  1  0
  1  6  1  0
  2  3  1  0
  3  4  1  0
  4  5  1  0
  5  6  1  0
M  END
>  <DRUGBANK_ID>  (1) 
DB02412

>  <SECONDARY_ACCESSION_NUMBERS>  (1) 
EXPT02719

>  <COMMON_NAME>  (1) 
Tetrahydropyran

>  <CAS_NUMBER>  (1) 
142-68-7

>  <UNII>  (1) 
V06I3ILG6B

$$$$
