K10
     RDKit          3D

 23 25  0  0  0  0  0  0  0  0999 V2000
    1.4666   -0.4699   -0.3734 N   0  0  0  0  0  0  0  0  0  0  0  0
    0.5461   -1.4570   -0.0295 C   0  0  0  0  0  0  0  0  0  0  0  0
    0.8422   -2.2067    1.0495 N   0  0  0  0  0  0  0  0  0  0  0  0
   -0.0054   -3.1959    1.3825 C   0  0  0  0  0  0  0  0  0  0  0  0
   -1.1349   -3.5755    0.7698 N   0  0  0  0  0  0  0  0  0  0  0  0
   -1.4432   -2.7634   -0.2661 C   0  0  0  0  0  0  0  0  0  0  0  0
   -0.6937   -1.6830   -0.6635 C   0  0  0  0  0  0  0  0  0  0  0  0
   -1.5083   -1.0311   -1.6215 C   0  0  0  0  0  0  0  0  0  0  0  0
   -2.5856   -1.7640   -1.9552 N   0  0  0  0  0  0  0  0  0  0  0  0
   -2.5157   -2.8521   -1.1334 N   0  0  0  0  0  0  0  0  0  0  0  0
   -3.5120   -3.9357   -1.2788 C   0  0  0  0  0  0  0  0  0  0  0  0
   -4.9444   -3.3899   -1.1001 C   0  0  0  0  0  0  0  0  0  0  0  0
   -3.4183   -4.5822   -2.6808 C   0  0  0  0  0  0  0  0  0  0  0  0
   -3.3120   -5.0623   -0.2445 C   0  0  0  0  0  0  0  0  0  0  0  0
   -1.2412    0.2939   -2.2430 C   0  0  0  0  0  0  0  0  0  0  0  0
   -1.5307    1.4020   -1.2212 C   0  0  0  0  0  0  0  0  0  0  0  0
   -0.9117    1.4224    0.0497 C   0  0  0  0  0  0  0  0  0  0  0  0
   -0.8431    2.5193    0.9067 C   0  0  0  0  0  0  0  0  0  0  0  0
   -1.6607    3.5866    0.6157 C   0  0  0  0  0  0  0  0  0  0  0  0
   -2.4295    3.5582   -0.5563 C   0  0  0  0  0  0  0  0  0  0  0  0
   -2.3330    2.5087   -1.5068 C   0  0  0  0  0  0  0  0  0  0  0  0
   -3.1954    2.6049   -2.7326 C   0  0  0  0  0  0  0  0  0  0  0  0
    0.0645    2.4599    2.1039 C   0  0  0  0  0  0  0  0  0  0  0  0
  1  2  1  0
  2  3  2  0
  2  7  1  0
  3  4  1  0
  4  5  2  0
  5  6  1  0
  6  7  2  0
  6 10  1  0
  7  8  1  0
  8  9  2  0
  8 15  1  0
  9 10  1  0
 10 11  1  0
 11 12  1  0
 11 13  1  0
 11 14  1  0
 15 16  1  0
 16 17  2  0
 16 21  1  0
 17 18  1  0
 18 19  2  0
 18 23  1  0
 19 20  1  0
 20 21  2  0
 21 22  1  0
M  END
>  <DRUGBANK_ID>  (1) 
DB08035

>  <COMMON_NAME>  (1) 
1-TERT-BUTYL-3-(2,5-DIMETHYLBENZYL)-1H-PYRAZOLO[3,4-D]PYRIMIDIN-4-AMINE

$$$$
