
     RDKit          3D

 26 29  0  0  0  0  0  0  0  0999 V2000
    0.3438   -0.3332    0.4056 C   0  0  0  0  0  0  0  0  0  0  0  0
    0.2626    0.9649    0.0896 N   0  0  0  0  0  0  0  0  0  0  0  0
   -0.8574   -1.0434    0.2540 C   0  0  0  0  0  0  0  0  0  0  0  0
   -2.8473   -3.7999   -1.4810 C   0  0  0  0  0  0  0  0  0  0  0  0
    1.5614   -0.7249    0.5778 N   0  0  0  0  0  0  0  0  0  0  0  0
   -2.0398   -0.4827    0.0648 C   0  0  0  0  0  0  0  0  0  0  0  0
    1.5250    1.4586   -0.0773 N   0  0  0  0  0  0  0  0  0  0  0  0
   -3.4485   -2.4673   -1.1229 N   0  0  0  0  0  0  0  0  0  0  0  0
   -1.6917   -4.8186   -0.7261 C   0  0  0  0  0  0  0  0  0  0  0  0
   -2.1268    0.9255   -0.0070 N   0  0  0  0  0  0  0  0  0  0  0  0
   -0.9780    1.5919   -0.0328 C   0  0  0  0  0  0  0  0  0  0  0  0
    2.2784    0.3599    0.1756 C   0  0  0  0  0  0  0  0  0  0  0  0
   -3.2753   -4.0358   -2.7332 N   0  0  0  0  0  0  0  0  0  0  0  0
   -3.3239   -1.4266   -0.0166 C   0  0  0  0  0  0  0  0  0  0  0  0
   -1.8525   -4.9167    0.6317 N   0  0  0  0  0  0  0  0  0  0  0  0
   -4.2198   -3.0893   -3.0892 C   0  0  0  0  0  0  0  0  0  0  0  0
   -4.4051   -2.1762   -2.0955 C   0  0  0  0  0  0  0  0  0  0  0  0
   -0.3567   -5.1741   -1.2473 C   0  0  0  0  0  0  0  0  0  0  0  0
   -0.6894   -2.4392   -0.0396 C   0  0  0  0  0  0  0  0  0  0  0  0
    0.0196   -5.0168   -2.5347 F   0  0  0  0  0  0  0  0  0  0  0  0
    3.7509    0.2241    0.0286 C   0  0  0  0  0  0  0  0  0  0  0  0
   -0.7414   -5.2314    1.4108 C   0  0  0  0  0  0  0  0  0  0  0  0
    0.7607   -5.3936   -0.3838 C   0  0  0  0  0  0  0  0  0  0  0  0
   -0.2496   -2.4471   -1.5379 C   0  0  0  0  0  0  0  0  0  0  0  0
    0.5498   -5.5083    0.9699 C   0  0  0  0  0  0  0  0  0  0  0  0
    1.2689   -2.4669   -1.5966 C   0  0  0  0  0  0  0  0  0  0  0  0
  2  1  1  0
  3  1  1  0
  4  8  1  0
  5  1  2  0
  6  3  2  0
  7  2  1  0
  7 12  2  0
  8 14  1  0
  9  4  1  0
 10 11  2  0
 10  6  1  0
 11  2  1  0
 12  5  1  0
 13  4  2  0
 14  6  1  0
 15  9  2  0
 16 17  2  0
 16 13  1  0
 17  8  1  0
 18  9  1  0
 19  3  1  0
 20 18  1  0
 21 12  1  0
 22 15  1  0
 23 18  2  0
 24 19  1  0
 25 22  2  0
 25 23  1  0
 26 24  1  0
M  END
>  <DRUGBANK_ID>  (1) 
DB06579

>  <COMMON_NAME>  (1) 
Adipiplon

>  <CAS_NUMBER>  (1) 
840486-93-3

>  <UNII>  (1) 
OPL214POJ1

>  <SYNONYMS>  (1) 
Adipiplon

$$$$
