PS4
     RDKit          3D

 32 34  0  0  0  0  0  0  0  0999 V2000
   -0.4290    5.9428  -12.7925 C   0  0  0  0  0  0  0  0  0  0  0  0
    4.8587    7.4672   -2.4203 C   0  0  0  0  0  0  0  0  0  0  0  0
    4.2556    8.5707   -3.0530 C   0  0  0  0  0  0  0  0  0  0  0  0
    5.8984    8.8569   -0.7771 C   0  0  0  0  0  0  0  0  0  0  0  0
    5.3528    9.9787   -1.4086 C   0  0  0  0  0  0  0  0  0  0  0  0
    2.4490    6.9116   -6.1362 C   0  0  0  0  0  0  0  0  0  0  0  0
    3.2072    6.1186   -7.1678 C   0  0  0  0  0  0  0  0  0  0  0  0
    3.3499    4.0675   -8.6219 C   0  0  2  0  0  0  0  0  0  0  0  0
    4.3046    4.7846   -9.5510 C   0  0  0  0  0  0  0  0  0  0  0  0
    1.1128    3.2622   -8.3201 C   0  0  0  0  0  0  0  0  0  0  0  0
    2.1228    3.5452   -9.4164 C   0  0  0  0  0  0  0  0  0  0  0  0
    3.4939    4.6356  -14.8731 C   0  0  0  0  0  0  0  0  0  0  0  0
    3.5008    5.5505  -12.3164 C   0  0  0  0  0  0  0  0  0  0  0  0
    2.3906    5.8079  -13.1061 C   0  0  0  0  0  0  0  0  0  0  0  0
    6.3195    3.2275  -12.1081 O   0  0  0  0  0  0  0  0  0  0  0  0
    5.4013    3.9307  -11.6873 C   0  0  0  0  0  0  0  0  0  0  0  0
    4.4726    4.6112  -12.6576 C   0  0  0  0  0  0  0  0  0  0  0  0
    2.3874    5.3595  -14.4114 C   0  0  0  0  0  0  0  0  0  0  0  0
    4.5253    4.2513  -14.0011 C   0  0  0  0  0  0  0  0  0  0  0  0
    1.0798    6.8037  -12.4336 S   0  0  0  0  0  0  0  0  0  0  0  0
    1.1005    8.0419  -13.1683 O   0  0  0  0  0  0  0  0  0  0  0  0
    1.2169    6.7914  -10.9789 O   0  0  0  0  0  0  0  0  0  0  0  0
    5.1894    3.9561  -10.3284 N   0  0  0  0  0  0  0  0  0  0  0  0
    1.4116    4.3237   -7.2577 C   0  0  0  0  0  0  0  0  0  0  0  0
    2.6882    4.9204   -7.6269 N   0  0  0  0  0  0  0  0  0  0  0  0
    4.2768    6.5989   -7.5486 O   0  0  0  0  0  0  0  0  0  0  0  0
    3.3306    6.9982   -4.8871 C   0  0  2  0  0  0  0  0  0  0  0  0
    2.8775    5.9546   -3.9413 N   0  0  0  0  0  0  0  0  0  0  0  0
    3.3259    8.4143   -4.2501 C   0  0  0  0  0  0  0  0  0  0  0  0
    4.5195    9.8396   -2.5270 C   0  0  0  0  0  0  0  0  0  0  0  0
    5.6325    7.5977   -1.2792 C   0  0  0  0  0  0  0  0  0  0  0  0
    6.2362    6.1802   -0.5144 Cl  0  0  0  0  0  0  0  0  0  0  0  0
  1 20  1  0
  2  3  2  0
  2 31  1  0
  3 29  1  0
  3 30  1  0
  4  5  1  0
  4 31  2  0
  5 30  2  0
  6  7  1  0
  7 25  1  0
  7 26  2  0
  8  9  1  6
  8 11  1  0
  8 25  1  0
  9 23  1  0
 10 11  1  0
 10 24  1  0
 12 18  2  0
 12 19  1  0
 13 14  2  0
 13 17  1  0
 14 18  1  0
 14 20  1  0
 15 16  2  0
 16 17  1  0
 16 23  1  0
 17 19  2  0
 20 21  2  0
 20 22  2  0
 24 25  1  0
 27 29  1  0
 27 28  1  1
 27  6  1  0
 31 32  1  0
M  END
>  <DRUGBANK_ID>  (1) 
DB08429

>  <COMMON_NAME>  (1) 
N-({(2S)-1-[(3R)-3-amino-4-(3-chlorophenyl)butanoyl]pyrrolidin-2-yl}methyl)-3-(methylsulfonyl)benzamide

$$$$
