
     RDKit          3D

 12 12  0  0  0  0  0  0  0  0999 V2000
    1.1125    0.0210    0.0873 C   0  0  0  0  0  0  0  0  0  0  0  0
    0.6023   -0.5642   -1.1438 N   0  0  0  0  0  0  0  0  0  0  0  0
   -0.8755   -0.5707   -1.2344 C   0  0  0  0  0  0  0  0  0  0  0  0
   -1.4527    0.8439   -1.2094 C   0  0  0  0  0  0  0  0  0  0  0  0
   -1.3652   -1.2863   -2.5218 C   0  0  0  0  0  0  0  0  0  0  0  0
   -2.1546   -2.2369   -2.4817 O   0  0  0  0  0  0  0  0  0  0  0  0
   -0.9864   -0.7456   -3.8621 C   0  0  0  0  0  0  0  0  0  0  0  0
    0.3484   -0.4659   -4.1649 C   0  0  0  0  0  0  0  0  0  0  0  0
    0.7094    0.1144   -5.3740 C   0  0  0  0  0  0  0  0  0  0  0  0
   -0.2536    0.3030   -6.3538 C   0  0  0  0  0  0  0  0  0  0  0  0
   -1.5772   -0.0703   -6.1094 C   0  0  0  0  0  0  0  0  0  0  0  0
   -1.9589   -0.5485   -4.8491 C   0  0  0  0  0  0  0  0  0  0  0  0
  1  2  1  0
  2  3  1  0
  3  4  1  0
  3  5  1  0
  5  6  2  0
  5  7  1  0
  7  8  2  0
  7 12  1  0
  8  9  1  0
  9 10  2  0
 10 11  1  0
 11 12  2  0
M  END
>  <DRUGBANK_ID>  (1) 
DB15339

>  <COMMON_NAME>  (1) 
Methcathinone

>  <CAS_NUMBER>  (1) 
5650-44-2

>  <UNII>  (1) 
386QA522QG

>  <SYNONYMS>  (1) 
COSMOS

$$$$
