
     RDKit          3D

 30 32  0  0  0  0  0  0  0  0999 V2000
    2.2202   -0.3839    0.0338 F   0  0  0  0  0  0  0  0  0  0  0  0
    3.2253    1.4521    0.0169 O   0  0  0  0  0  0  0  0  0  0  0  0
    2.8783    4.4847   -1.2587 O   0  0  0  0  0  0  0  0  0  0  0  0
   -1.0413    5.5313    2.8728 O   0  0  0  0  0  0  0  0  0  0  0  0
   -2.3198    5.2976   -0.4164 N   0  0  0  0  0  0  0  0  0  0  0  0
    1.0594    2.3411   -0.1864 N   0  0  0  0  0  0  0  0  0  0  0  0
   -1.8817    3.0773    1.0899 N   0  0  0  0  0  0  0  0  0  0  0  0
   -1.2321    1.3108    1.6978 N   0  0  0  0  0  0  0  0  0  0  0  0
   -0.1581    3.1957    3.4775 N   0  0  0  0  0  0  0  0  0  0  0  0
   -0.2825    1.4591    3.0087 N   0  0  0  0  0  0  0  0  0  0  0  0
    0.3043    3.6072   -0.1606 C   0  0  2  0  0  0  0  0  0  0  0  0
   -0.3560    3.8375    1.2681 C   0  0  1  0  0  0  0  0  0  0  0  0
   -0.4438    3.9015   -1.4683 C   0  0  0  0  0  0  0  0  0  0  0  0
   -1.4470    5.3723    0.7237 C   0  0  0  0  0  0  0  0  0  0  0  0
   -1.3742    5.1226   -1.4877 C   0  0  0  0  0  0  0  0  0  0  0  0
   -1.7216    2.7163    2.6589 C   0  0  0  0  0  0  0  0  0  0  0  0
   -3.3967    4.3136   -0.2462 C   0  0  0  0  0  0  0  0  0  0  0  0
   -2.8336    3.0031   -0.1147 C   0  0  0  0  0  0  0  0  0  0  0  0
    0.3693    1.0281   -0.2844 C   0  0  0  0  0  0  0  0  0  0  0  0
    2.4510    2.4035   -0.0286 C   0  0  0  0  0  0  0  0  0  0  0  0
    3.1579    3.7497   -0.0733 C   0  0  0  0  0  0  0  0  0  0  0  0
    0.9193   -0.1887   -0.0687 C   0  0  0  0  0  0  0  0  0  0  0  0
   -1.0037    0.8105   -0.4666 C   0  0  0  0  0  0  0  0  0  0  0  0
   -1.3505    4.3459    2.5961 C   0  0  0  0  0  0  0  0  0  0  0  0
    0.1473   -1.3655   -0.0008 C   0  0  0  0  0  0  0  0  0  0  0  0
   -1.8797   -0.2649   -0.2280 C   0  0  0  0  0  0  0  0  0  0  0  0
   -1.2428   -1.4193   -0.0372 C   0  0  0  0  0  0  0  0  0  0  0  0
    0.6798    3.7329    4.4895 C   0  0  0  0  0  0  0  0  0  0  0  0
    3.1718    3.6970   -2.4098 C   0  0  0  0  0  0  0  0  0  0  0  0
    1.8160    4.5864    3.9432 C   0  0  0  0  0  0  0  0  0  0  0  0
  1 22  1  0
  2 20  2  0
  3 21  1  0
  3 29  1  0
  4 24  2  0
  5 14  1  0
  5 15  1  0
  5 17  1  0
  6 19  1  0
  6 20  1  0
  7  8  1  0
  7 18  1  0
  7 24  1  0
  8 10  2  0
  9 10  1  0
  9 24  1  0
  9 28  1  0
 11  6  1  6
 11 12  1  0
 11 13  1  0
 12 14  1  0
 12 16  1  6
 13 15  1  0
 17 18  1  0
 19 22  2  0
 19 23  1  0
 20 21  1  0
 22 25  1  0
 23 26  2  0
 25 27  2  0
 26 27  1  0
 28 30  1  0
M  END
>  <DRUGBANK_ID>  (1) 
DB09172

>  <COMMON_NAME>  (1) 
Brifentanil

>  <CAS_NUMBER>  (1) 
101345-71-5

>  <UNII>  (1) 
6GDT77PQBW

>  <SYNONYMS>  (1) 
Brifentanil

$$$$
