1610
     RDKit          3D

 25 26  0  0  1  0  0  0  0  0999 V2000
    0.8916    0.1546    0.1767 O   0  0  0  0  0  0  0  0  0  0  0  0
    2.4125   -2.5554    0.1604 O   0  0  0  0  0  0  0  0  0  0  0  0
    0.4860    0.0906    2.9435 O   0  0  0  0  0  0  0  0  0  0  0  0
    2.5355   -1.4009   -1.7958 O   0  0  0  0  0  0  0  0  0  0  0  0
    4.4489    4.2932   -3.7490 O   0  0  0  0  0  0  0  0  0  0  0  0
    2.7271    1.4094   -0.6852 N   0  0  0  0  0  0  0  0  0  0  0  0
    4.9751   -1.4549    0.9209 N   0  0  0  0  0  0  0  0  0  0  0  0
    4.1665    0.4673   -2.5792 N   0  0  0  0  0  0  0  0  0  0  0  0
    2.9560    3.5430   -1.3031 N   0  0  0  0  0  0  0  0  0  0  0  0
    5.0327    2.1037   -4.0703 N   0  0  0  0  0  0  0  0  0  0  0  0
    5.5601   -0.0698   -4.4112 N   0  0  0  0  0  0  0  0  0  0  0  0
    5.2304   -2.8479   -1.2095 C   0  0  0  0  0  0  0  0  0  0  0  0
    4.5969   -1.6671   -0.5058 C   0  0  1  0  0  0  0  0  0  0  0  0
    0.4955   -1.0946    0.8117 C   0  0  1  0  0  0  0  0  0  0  0  0
    0.9814   -2.3857    0.0893 C   0  0  0  0  0  0  0  0  0  0  0  0
    4.7046   -2.9674   -2.6492 C   0  0  0  0  0  0  0  0  0  0  0  0
    6.7392   -2.6975   -1.2391 C   0  0  0  0  0  0  0  0  0  0  0  0
    3.0845   -1.8950   -0.8105 C   0  0  0  0  0  0  0  0  0  0  0  0
    2.2682    0.4886    0.3301 C   0  0  0  0  0  0  0  0  0  0  0  0
    0.9214   -1.0984    2.2876 C   0  0  0  0  0  0  0  0  0  0  0  0
    3.5441    1.4093   -1.8073 C   0  0  0  0  0  0  0  0  0  0  0  0
    3.6472    2.7326   -2.1733 C   0  0  0  0  0  0  0  0  0  0  0  0
    2.4192    2.7282   -0.4357 C   0  0  0  0  0  0  0  0  0  0  0  0
    4.3919    3.1133   -3.3733 C   0  0  0  0  0  0  0  0  0  0  0  0
    4.8987    0.8684   -3.6836 C   0  0  0  0  0  0  0  0  0  0  0  0
  1 14  1  0
  1 19  1  0
  2 15  1  0
  2 18  1  0
  3 20  1  0
  4 18  2  0
  5 24  2  0
  6 19  1  0
  6 21  1  0
  6 23  1  0
  8 21  1  0
  8 25  1  0
  9 22  1  0
  9 23  2  0
 10 24  1  0
 10 25  2  0
 11 25  1  0
 12 13  1  0
 12 16  1  0
 12 17  1  0
 13  7  1  1
 13 18  1  0
 14 15  1  6
 14 20  1  0
 21 22  2  0
 22 24  1  0
M  END
>  <DRUGBANK_ID>  (1) 
DB01610

>  <COMMON_NAME>  (1) 
Valganciclovir

>  <CAS_NUMBER>  (1) 
175865-60-8

>  <UNII>  (1) 
GCU97FKN3R

>  <SYNONYMS>  (1) 
Valganciclovir

$$$$
