
     RDKit          3D

 42 45  0  0  1  0  0  0  0  0999 V2000
    6.8337   -8.8936   -8.6289 C   0  0  0  0  0  0  0  0  0  0  0  0
    6.4278   -7.6552   -7.9836 O   0  0  0  0  0  0  0  0  0  0  0  0
    7.0124   -6.4610   -8.2297 C   0  0  0  0  0  0  0  0  0  0  0  0
    7.4840   -5.8250   -9.2815 C   0  0  0  0  0  0  0  0  0  0  0  0
    8.2696   -4.5058   -9.1918 C   0  0  0  0  0  0  0  0  0  0  0  0
    8.5246   -3.7375   -8.0703 C   0  0  0  0  0  0  0  0  0  0  0  0
    7.5669   -4.0851   -7.2529 C   0  0  0  0  0  0  0  0  0  0  0  0
    7.0922   -5.4595   -7.3209 C   0  0  0  0  0  0  0  0  0  0  0  0
    9.5997   -2.8016   -7.4660 C   0  0  1  0  0  0  0  0  0  0  0  0
    9.0625   -1.8703   -6.4553 O   0  0  0  0  0  0  0  0  0  0  0  0
   10.9716   -3.4470   -6.8302 C   0  0  2  0  0  0  0  0  0  0  0  0
   11.5744   -4.6765   -7.6138 N   0  0  0  0  0  0  0  0  0  0  0  0
   11.3842   -6.0472   -7.7887 C   0  0  0  0  0  0  0  0  0  0  0  0
   11.6516   -6.6430   -8.8462 O   0  0  0  0  0  0  0  0  0  0  0  0
   11.0830   -6.9557   -6.6833 C   0  0  2  0  0  0  0  0  0  0  0  0
   12.3081   -6.5734   -5.2500 C   0  0  0  0  0  0  0  0  0  0  0  0
    9.6930   -8.3568   -7.0908 N   0  0  0  0  0  0  0  0  0  0  0  0
    8.0615   -8.6440   -6.4207 C   0  0  0  0  0  0  0  0  0  0  0  0
    7.6171   -9.8572   -6.3126 O   0  0  0  0  0  0  0  0  0  0  0  0
    6.8966   -7.4685   -5.4091 C   0  0  0  0  0  0  0  0  0  0  0  0
    7.5437   -6.8488   -3.8546 N   0  0  0  0  0  0  0  0  0  0  0  0
    8.7587   -6.1694   -3.8806 C   0  0  0  0  0  0  0  0  0  0  0  0
   10.3588   -6.9213   -3.9714 C   0  0  0  0  0  0  0  0  0  0  0  0
   10.5995   -6.4779   -2.7316 O   0  0  0  0  0  0  0  0  0  0  0  0
    9.4217   -6.9417   -2.0268 C   0  0  0  0  0  0  0  0  0  0  0  0
    7.9440   -6.8217   -2.4849 C   0  0  0  0  0  0  0  0  0  0  0  0
   11.0041   -3.5320   -5.2793 C   0  0  0  0  0  0  0  0  0  0  0  0
   11.8344   -3.0398   -4.5119 O   0  0  0  0  0  0  0  0  0  0  0  0
   10.0975   -4.3678   -4.7457 N   0  0  0  0  0  0  0  0  0  0  0  0
    8.9719   -5.0832   -5.4566 C   0  0  1  0  0  0  0  0  0  0  0  0
    8.9720   -7.1005   -5.4601 C   0  0  0  0  0  0  0  0  0  0  0  0
    8.9423   -8.7224   -4.1471 C   0  0  0  0  0  0  0  0  0  0  0  0
    7.8363   -9.2003   -3.4341 C   0  0  0  0  0  0  0  0  0  0  0  0
    7.9729   -9.2866   -1.7697 C   0  0  0  0  0  0  0  0  0  0  0  0
    9.6153   -9.4286   -1.4747 C   0  0  0  0  0  0  0  0  0  0  0  0
   10.3566   -9.1362   -2.9031 C   0  0  0  0  0  0  0  0  0  0  0  0
    7.0792   -4.4826   -4.7359 C   0  0  0  0  0  0  0  0  0  0  0  0
    6.2836   -3.8107   -5.2949 O   0  0  0  0  0  0  0  0  0  0  0  0
    6.1229   -5.3138   -3.4358 C   0  0  1  0  0  0  0  0  0  0  0  0
    5.0768   -6.7346   -3.7496 C   0  0  0  0  0  0  0  0  0  0  0  0
    6.7812   -4.7979   -1.7927 C   0  0  0  0  0  0  0  0  0  0  0  0
    5.5767   -4.5302   -2.3835 O   0  0  0  0  0  0  0  0  0  0  0  0
  1  2  1  0
  2  3  1  0
  3  4  2  0
  3  8  1  0
  4  5  1  0
  5  6  2  0
  6  7  1  0
  7  8  2  0
  9  6  1  0
  9 10  1  1
 11 27  1  0
 11 12  1  6
 11  9  1  0
 12 13  1  0
 13 14  2  0
 15 17  1  0
 15 16  1  6
 15 13  1  0
 17 18  1  0
 18 19  2  0
 18 20  1  0
 20 21  1  0
 21 22  1  0
 21 26  1  0
 22 23  1  0
 23 24  1  0
 24 25  1  0
 25 26  1  0
 27 28  2  0
 27 29  1  0
 30 29  1  0
 30 31  1  1
 30 37  1  0
 31 32  1  0
 32 33  2  0
 32 36  1  0
 33 34  1  0
 34 35  1  0
 35 36  1  0
 37 38  2  0
 39 41  1  0
 39 42  1  0
 39 40  1  6
 39 37  1  0
 41 42  1  0
M  END
>  <DRUGBANK_ID>  (1) 
DB16070

>  <COMMON_NAME>  (1) 
Zetomipzomib

>  <CAS_NUMBER>  (1) 
1629677-75-3

>  <UNII>  (1) 
O4BT6C02M2

>  <SYNONYMS>  (1) 
(2S,3R)-N-[(2S)-3-(cyclopent-1-en-1-yl)-1-[(2R)-2-methyloxiran-2-yl]-1-oxopropan-2-yl]-3-hydroxy-3-(4-methoxyphenyl)-2-[(2S)-2-[2-(morpholin-4-yl)acetamido]propanamido]propanamide

$$$$
