
     RDKit          3D

 23 20  0  0  0  0  0  0  0  0999 V2000
    0.5860   -1.0370    0.0050 C   0  0  0  0  0  0  0  0  0  0  0  0
   -0.8760   -0.8170   -0.0050 C   0  0  0  0  0  0  0  0  0  0  0  0
    0.1930    1.0600    0.0000 C   0  0  0  0  0  0  0  0  0  0  0  0
    1.1870    0.2110   -0.0030 N   0  0  0  0  0  0  0  0  0  0  0  0
   -1.1050    0.4700    0.0030 N   0  0  0  0  0  0  0  0  0  0  0  0
    0.5860   -1.0370    0.0050 C   0  0  0  0  0  0  0  0  0  0  0  0
   -0.8760   -0.8170   -0.0050 C   0  0  0  0  0  0  0  0  0  0  0  0
    0.1930    1.0600    0.0000 C   0  0  0  0  0  0  0  0  0  0  0  0
    1.1870    0.2110   -0.0030 N   0  0  0  0  0  0  0  0  0  0  0  0
   -1.1050    0.4700    0.0030 N   0  0  0  0  0  0  0  0  0  0  0  0
    0.5860   -1.0370    0.0050 C   0  0  0  0  0  0  0  0  0  0  0  0
   -0.8760   -0.8170   -0.0050 C   0  0  0  0  0  0  0  0  0  0  0  0
    0.1930    1.0600    0.0000 C   0  0  0  0  0  0  0  0  0  0  0  0
    1.1870    0.2110   -0.0030 N   0  0  0  0  0  0  0  0  0  0  0  0
   -1.1050    0.4700    0.0030 N   0  0  0  0  0  0  0  0  0  0  0  0
    0.5860   -1.0370    0.0050 C   0  0  0  0  0  0  0  0  0  0  0  0
   -0.8760   -0.8170   -0.0050 C   0  0  0  0  0  0  0  0  0  0  0  0
    0.1930    1.0600    0.0000 C   0  0  0  0  0  0  0  0  0  0  0  0
    1.1870    0.2110   -0.0030 N   0  0  0  0  0  0  0  0  0  0  0  0
   -1.1050    0.4700    0.0030 N   0  0  0  0  0  0  0  0  0  0  0  0
   -0.6010    0.4393    1.9622 Cu  0  0  0  0  0 15  0  0  0  0  0  0
    3.2711    0.6436    1.4466 O   0  0  0  0  0  0  0  0  0  0  0  0
    2.6703    1.0875   -2.0059 O   0  0  0  0  0  0  0  0  0  0  0  0
  2  1  2  0
  4  1  1  0
  4  3  2  0
  5  2  1  0
  5  3  1  0
  7  6  2  0
  9  6  1  0
  9  8  2  0
 10  7  1  0
 10  8  1  0
 12 11  2  0
 14 11  1  0
 14 13  2  0
 15 12  1  0
 15 13  1  0
 17 16  2  0
 19 16  1  0
 19 18  2  0
 20 17  1  0
 20 18  1  0
M  CHG  5   5  -1  10  -1  15  -1  20  -1  21   4
M  END
>  <DRUGBANK_ID>  (1) 
DB03840

>  <SECONDARY_ACCESSION_NUMBERS>  (1) 
EXPT01866

>  <COMMON_NAME>  (1) 
Tetra(Imidazole)Diaquacopper (Ii)

$$$$
