
     RDKit          3D

 42 47  0  0  1  0  0  0  0  0999 V2000
    1.2364    0.1199    0.0622 C   0  0  0  0  0  0  0  0  0  0  0  0
    0.5359    1.4164    0.4544 C   0  0  0  0  0  0  0  0  0  0  0  0
    1.0661    2.5624   -0.4017 C   0  0  0  0  0  0  0  0  0  0  0  0
   -0.9174    1.3727    0.4580 O   0  0  0  0  0  0  0  0  0  0  0  0
   -1.5515    1.1723   -0.7407 C   0  0  0  0  0  0  0  0  0  0  0  0
   -1.2529    0.1310   -1.6140 C   0  0  0  0  0  0  0  0  0  0  0  0
   -0.5482   -0.9371   -1.2350 F   0  0  0  0  0  0  0  0  0  0  0  0
   -1.7828    0.0303   -2.8871 C   0  0  0  0  0  0  0  0  0  0  0  0
   -2.8417    0.8190   -3.2837 C   0  0  0  0  0  0  0  0  0  0  0  0
   -3.2966    1.7827   -2.3313 C   0  0  0  0  0  0  0  0  0  0  0  0
   -2.6213    1.9940   -1.0901 C   0  0  0  0  0  0  0  0  0  0  0  0
   -3.4485    0.4153   -4.5988 C   0  0  0  0  0  0  0  0  0  0  0  0
   -3.0834    0.9226   -5.8104 N   0  0  0  0  0  0  0  0  0  0  0  0
   -4.0993    0.4865   -6.6806 N   0  0  0  0  0  0  0  0  0  0  0  0
   -4.7016    1.2660   -7.8810 C   0  0  1  0  0  0  0  0  0  0  0  0
   -6.4131    2.2253   -7.6260 C   0  0  0  0  0  0  0  0  0  0  0  0
   -3.2304    1.9405   -8.8274 C   0  0  0  0  0  0  0  0  0  0  0  0
   -3.3439    3.1519   -9.4820 C   0  0  0  0  0  0  0  0  0  0  0  0
   -3.5986    4.2313   -8.3423 C   0  0  0  0  0  0  0  0  0  0  0  0
   -2.7908    4.7116   -7.3296 C   0  0  0  0  0  0  0  0  0  0  0  0
   -2.7794    4.3032   -5.9180 C   0  0  0  0  0  0  0  0  0  0  0  0
   -3.7143    3.5255   -5.3395 C   0  0  0  0  0  0  0  0  0  0  0  0
   -4.6066    3.1868   -6.2323 C   0  0  0  0  0  0  0  0  0  0  0  0
   -5.3987    2.1833   -5.7302 F   0  0  0  0  0  0  0  0  0  0  0  0
   -4.6069    3.6666   -7.7036 C   0  0  0  0  0  0  0  0  0  0  0  0
   -2.2886    3.5968  -10.3828 C   0  0  0  0  0  0  0  0  0  0  0  0
   -2.5416    4.2165  -11.4767 O   0  0  0  0  0  0  0  0  0  0  0  0
   -0.9998    3.5612   -9.7580 C   0  0  0  0  0  0  0  0  0  0  0  0
    0.0647    4.2724  -10.2981 C   0  0  0  0  0  0  0  0  0  0  0  0
    1.2166    4.3130   -9.5494 C   0  0  0  0  0  0  0  0  0  0  0  0
    2.3533    4.7102  -10.1332 F   0  0  0  0  0  0  0  0  0  0  0  0
    1.2319    3.8787   -8.2164 C   0  0  0  0  0  0  0  0  0  0  0  0
    0.1123    3.2485   -7.6540 C   0  0  0  0  0  0  0  0  0  0  0  0
   -0.9380    2.9090   -8.5010 C   0  0  0  0  0  0  0  0  0  0  0  0
   -1.9266    1.9630   -8.0836 O   0  0  0  0  0  0  0  0  0  0  0  0
   -4.6182   -0.6692   -6.1868 C   0  0  0  0  0  0  0  0  0  0  0  0
   -4.2020   -0.7640   -4.8663 C   0  0  0  0  0  0  0  0  0  0  0  0
   -4.5577   -1.9245   -4.1837 C   0  0  0  0  0  0  0  0  0  0  0  0
   -4.1505   -2.1701   -2.8904 N   0  0  0  0  0  0  0  0  0  0  0  0
   -5.2578   -2.8646   -4.8643 N   0  0  0  0  0  0  0  0  0  0  0  0
   -5.6379   -2.6022   -6.1387 C   0  0  0  0  0  0  0  0  0  0  0  0
   -5.3904   -1.5128   -6.8685 N   0  0  0  0  0  0  0  0  0  0  0  0
  1  2  1  0
  2  3  1  0
  2  4  1  0
  4  5  1  0
  5  6  2  0
  5 11  1  0
  6  7  1  0
  6  8  1  0
  8  9  2  0
  9 10  1  0
  9 12  1  0
 10 11  2  0
 12 13  2  0
 12 37  1  0
 13 14  1  0
 14 36  1  0
 15 14  1  0
 15 16  1  1
 15 17  1  0
 17 18  2  0
 17 35  1  0
 18 19  1  0
 18 26  1  0
 19 20  2  0
 19 25  1  0
 20 21  1  0
 21 22  2  0
 22 23  1  0
 23 24  1  0
 23 25  2  0
 26 27  2  0
 26 28  1  0
 28 29  2  0
 28 34  1  0
 29 30  1  0
 30 31  1  0
 30 32  2  0
 32 33  1  0
 33 34  2  0
 34 35  1  0
 36 37  2  0
 36 42  1  0
 37 38  1  0
 38 39  1  0
 38 40  2  0
 40 41  1  0
 41 42  2  0
M  END
>  <DRUGBANK_ID>  (1) 
DB14989

>  <COMMON_NAME>  (1) 
Umbralisib

>  <CAS_NUMBER>  (1) 
1532533-67-7

>  <UNII>  (1) 
38073MQB2A

>  <SYNONYMS>  (1) 
Umbralisib

$$$$
