677
     RDKit          3D

 27 30  0  0  0  0  0  0  0  0999 V2000
    0.6047    7.8792    0.2096 F   0  0  0  0  0  0  0  0  0  0  0  0
    0.9682    6.5903    0.1846 C   0  0  0  0  0  0  0  0  0  0  0  0
    0.9109    5.9034   -1.0096 C   0  0  0  0  0  0  0  0  0  0  0  0
    1.2585    4.5640   -1.0034 C   0  0  0  0  0  0  0  0  0  0  0  0
    1.1825    3.9065   -2.1718 F   0  0  0  0  0  0  0  0  0  0  0  0
    1.3983    5.9504    1.3484 C   0  0  0  0  0  0  0  0  0  0  0  0
    1.4402    6.6363    2.4984 F   0  0  0  0  0  0  0  0  0  0  0  0
    1.8107    4.6097    1.3407 C   0  0  0  0  0  0  0  0  0  0  0  0
    1.7505    3.8899    0.1502 C   0  0  0  0  0  0  0  0  0  0  0  0
    2.2812    2.4832   -0.0864 C   0  0  1  0  0  0  0  0  0  0  0  0
    3.4972    2.6939   -1.0276 C   0  0  0  0  0  0  0  0  0  0  0  0
    2.7422    1.4353    0.9895 C   0  0  1  0  0  0  0  0  0  0  0  0
    1.7850    1.2174    2.0843 N   0  0  0  0  0  0  0  0  0  0  0  0
    2.9581    0.0824    0.2193 C   0  0  0  0  0  0  0  0  0  0  0  0
    3.7486    0.2328   -0.9943 N   0  0  0  0  0  0  0  0  0  0  0  0
    4.0034    1.4326   -1.5928 C   0  0  0  0  0  0  0  0  0  0  0  0
    4.7258    1.2959   -2.6829 N   0  0  0  0  0  0  0  0  0  0  0  0
    4.3161   -0.7434   -1.7706 C   0  0  0  0  0  0  0  0  0  0  0  0
    4.3585   -2.1302   -1.6596 C   0  0  0  0  0  0  0  0  0  0  0  0
    5.0746   -2.8213   -2.6428 C   0  0  0  0  0  0  0  0  0  0  0  0
    4.9350   -0.0514   -2.8136 C   0  0  0  0  0  0  0  0  0  0  0  0
    5.6518   -0.7519   -3.8020 C   0  0  0  0  0  0  0  0  0  0  0  0
    5.7051   -2.1487   -3.6994 C   0  0  0  0  0  0  0  0  0  0  0  0
    6.6565   -3.1005   -4.8712 S   0  0  0  0  0  0  0  0  0  0  0  0
    7.9971   -2.5359   -4.8843 O   0  0  0  0  0  0  0  0  0  0  0  0
    6.4514   -4.4989   -4.5570 O   0  0  0  0  0  0  0  0  0  0  0  0
    5.9242   -2.8174   -6.4601 C   0  0  0  0  0  0  0  0  0  0  0  0
  2  1  1  0
  2  6  2  0
  3  2  1  0
  4  3  2  0
  4  9  1  0
  5  4  1  0
  6  7  1  0
  8  6  1  0
  9  8  2  0
 10 11  1  0
 10  9  1  1
 12 10  1  0
 12 13  1  1
 14 12  1  0
 14 15  1  0
 15 16  1  0
 16 11  1  0
 16 17  2  0
 18 15  1  0
 18 21  2  0
 19 18  1  0
 20 19  2  0
 20 23  1  0
 21 17  1  0
 22 21  1  0
 23 22  2  0
 24 23  1  0
 24 27  1  0
 25 24  2  0
 26 24  2  0
M  END
>  <DRUGBANK_ID>  (1) 
DB07193

>  <COMMON_NAME>  (1) 
(2R,3R)-7-(methylsulfonyl)-3-(2,4,5-trifluorophenyl)-1,2,3,4-tetrahydropyrido[1,2-a]benzimidazol-2-amine

$$$$
