
     RDKit          3D

 32 36  0  0  0  0  0  0  0  0999 V2000
   -0.7588    1.0756    0.0889 C   0  0  0  0  0  0  0  0  0  0  0  0
   -1.5038   -0.1208    0.0297 C   0  0  0  0  0  0  0  0  0  0  0  0
   -0.8806   -1.3594    0.1669 C   0  0  0  0  0  0  0  0  0  0  0  0
    0.4520   -1.3685    0.4627 C   0  0  0  0  0  0  0  0  0  0  0  0
    1.1735   -0.2992   -0.0274 C   0  0  0  0  0  0  0  0  0  0  0  0
    0.6246    0.9985   -0.0606 C   0  0  0  0  0  0  0  0  0  0  0  0
    2.0834   -0.8361   -0.9955 N   0  0  0  0  0  0  0  0  0  0  0  0
    1.4427   -2.0508   -2.0225 C   0  0  0  0  0  0  0  0  0  0  0  0
    2.1504   -2.6838   -3.0540 C   0  0  0  0  0  0  0  0  0  0  0  0
    3.0796   -1.5624   -2.9405 C   0  0  0  0  0  0  0  0  0  0  0  0
    2.7408   -0.4666   -3.4145 O   0  0  0  0  0  0  0  0  0  0  0  0
    3.9958   -1.8160   -1.7171 C   0  0  0  0  0  0  0  0  0  0  0  0
    3.5374   -1.1004   -0.6662 C   0  0  0  0  0  0  0  0  0  0  0  0
    4.2676   -1.1306    0.5255 N   0  0  0  0  0  0  0  0  0  0  0  0
    5.3642   -1.9917    0.5485 C   0  0  0  0  0  0  0  0  0  0  0  0
    5.4959   -2.9663   -0.3874 C   0  0  0  0  0  0  0  0  0  0  0  0
    4.4020   -3.0100   -1.1632 C   0  0  0  0  0  0  0  0  0  0  0  0
    2.9153   -4.0439   -3.3584 C   0  0  0  0  0  0  0  0  0  0  0  0
    4.0682   -4.3435   -3.0383 O   0  0  0  0  0  0  0  0  0  0  0  0
    2.4623   -5.0043   -4.1938 N   0  0  0  0  0  0  0  0  0  0  0  0
    1.5237   -4.8169   -5.2071 C   0  0  0  0  0  0  0  0  0  0  0  0
    1.7284   -5.2652   -6.6271 C   0  0  0  0  0  0  0  0  0  0  0  0
    1.7973   -3.8033   -6.2822 C   0  0  0  0  0  0  0  0  0  0  0  0
   -1.5128   -2.6426   -0.0963 C   0  0  0  0  0  0  0  0  0  0  0  0
   -1.9642   -3.7205   -0.2928 C   0  0  0  0  0  0  0  0  0  0  0  0
   -2.5573   -5.0342   -0.5060 C   0  0  0  0  0  0  0  0  0  0  0  0
   -1.8890   -6.2064   -0.1518 C   0  0  0  0  0  0  0  0  0  0  0  0
   -2.4882   -7.4525   -0.3616 C   0  0  0  0  0  0  0  0  0  0  0  0
   -3.6865   -7.5219   -1.0638 C   0  0  0  0  0  0  0  0  0  0  0  0
   -4.3657   -6.3727   -1.4185 N   0  0  0  0  0  0  0  0  0  0  0  0
   -3.8293   -5.1419   -1.0622 C   0  0  0  0  0  0  0  0  0  0  0  0
   -5.4586   -6.4446   -2.0590 O   0  0  0  0  0  0  0  0  0  0  0  0
  1  2  2  0
  1  6  1  0
  2  3  1  0
  3  4  2  0
  3 24  1  0
  4  5  1  0
  5  6  2  0
  5  7  1  0
  7  8  1  0
  7 13  1  0
  8  9  2  0
  9 10  1  0
  9 18  1  0
 10 11  2  0
 10 12  1  0
 12 13  2  0
 12 17  1  0
 13 14  1  0
 14 15  2  0
 15 16  1  0
 16 17  2  0
 18 19  2  0
 18 20  1  0
 20 21  1  0
 21 22  1  0
 21 23  1  0
 22 23  1  0
 24 25  3  0
 25 26  1  0
 26 27  2  0
 26 31  1  0
 27 28  1  0
 28 29  2  0
 29 30  1  0
 30 31  2  0
 30 32  1  0
M  CHG  2  30   1  32  -1
M  END
>  <DRUGBANK_ID>  (1) 
DB13029

>  <COMMON_NAME>  (1) 
MK-0873

>  <CAS_NUMBER>  (1) 
500355-52-2

>  <UNII>  (1) 
K4KAC9XCCO

$$$$
