
     RDKit          3D

 14 15  0  0  0  0  0  0  0  0999 V2000
    1.0231   -1.4170    0.0292 C   0  0  0  0  0  0  0  0  0  0  0  0
    2.2112   -0.6772   -0.0005 C   0  0  0  0  0  0  0  0  0  0  0  0
    2.1837    0.7157   -0.0155 C   0  0  0  0  0  0  0  0  0  0  0  0
    0.9738    1.4120    0.0040 C   0  0  0  0  0  0  0  0  0  0  0  0
   -0.2018    0.6560   -0.0173 C   0  0  0  0  0  0  0  0  0  0  0  0
   -1.5098    1.0676   -0.0564 N   0  0  0  0  0  0  0  0  0  0  0  0
   -2.3246   -0.0108   -0.2416 C   0  0  0  0  0  0  0  0  0  0  0  0
   -1.5813   -1.1611   -0.0649 C   0  0  0  0  0  0  0  0  0  0  0  0
   -0.2126   -0.7411   -0.0089 C   0  0  0  0  0  0  0  0  0  0  0  0
   -2.1225   -2.5562   -0.0157 C   0  0  0  0  0  0  0  0  0  0  0  0
   -3.0125   -2.8482    1.1974 C   0  0  0  0  0  0  0  0  0  0  0  0
   -4.2668   -2.0008    1.3065 C   0  0  0  0  0  0  0  0  0  0  0  0
   -5.4203   -2.6617    1.0698 O   0  0  0  0  0  0  0  0  0  0  0  0
   -4.2883   -0.8214    1.6319 O   0  0  0  0  0  0  0  0  0  0  0  0
  1  2  2  0
  1  9  1  0
  2  3  1  0
  3  4  2  0
  4  5  1  0
  5  6  1  0
  5  9  2  0
  6  7  1  0
  7  8  2  0
  8  9  1  0
  8 10  1  0
 10 11  1  0
 11 12  1  0
 12 13  1  0
 12 14  2  0
M  END
>  <DRUGBANK_ID>  (1) 
DB02758

>  <SECONDARY_ACCESSION_NUMBERS>  (1) 
EXPT01908

>  <COMMON_NAME>  (1) 
Indolepropionic acid

>  <CAS_NUMBER>  (1) 
830-96-6

>  <UNII>  (1) 
JF49U1Q7KN

>  <SYNONYMS>  (1) 
1H-Indole-3-propionic acid; 3-(3-Indole)propionic acid; 3-(3-Indolyl)propanoic acid; 3-(3-Indolyl)propionic acid; 3-(Indol-3-yl)propionic acid; 3-indolepropionic acid; beta-Indolylpropionate; Indole-3-propionic acid; Indolylpropionic acid

$$$$
