
     RDKit          3D

 10  9  0  0  1  0  0  0  0  0999 V2000
    1.4517   -6.1189    4.2023 C   0  0  0  0  0  0  0  0  0  0  0  0
    1.0592   -5.4364    2.9027 C   0  0  0  0  0  0  0  0  0  0  0  0
   -0.4338   -5.6218    2.6168 C   0  0  0  0  0  0  0  0  0  0  0  0
   -1.3383   -5.0198    3.7057 C   0  0  0  0  0  0  0  0  0  0  0  0
   -1.1209   -3.5162    3.8784 C   0  0  0  0  0  0  0  0  0  0  0  0
   -1.5291   -2.7532    2.6120 C   0  0  2  0  0  0  0  0  0  0  0  0
   -0.8477   -1.3947    2.5797 C   0  0  0  0  0  0  0  0  0  0  0  0
   -2.9776   -2.6811    2.5011 N   0  0  0  0  0  0  0  0  0  0  0  0
   -3.7022   -3.3797    1.5761 C   0  0  0  0  0  0  0  0  0  0  0  0
   -4.9273   -3.4451    1.5947 O   0  0  0  0  0  0  0  0  0  0  0  0
  1  2  1  0
  2  3  1  0
  3  4  1  0
  4  5  1  0
  6  8  1  0
  6  7  1  1
  6  5  1  0
  8  9  1  0
  9 10  2  0
M  END
>  <DRUGBANK_ID>  (1) 
DB03061

>  <SECONDARY_ACCESSION_NUMBERS>  (1) 
EXPT02365

>  <COMMON_NAME>  (1) 
(R)-N-(1-Methyl-Hexyl)-Formamide

$$$$
