TFM
     RDKit          3D

 16 16  0  0  0  0  0  0  0  0999 V2000
    0.8212   -0.1179    0.1683 N   0  0  0  0  0  0  0  0  0  0  0  0
    0.2391    1.0863    0.4216 C   0  0  0  0  0  0  0  0  0  0  0  0
   -1.5166    1.1974    0.3931 S   0  0  0  0  0  0  0  0  0  0  0  0
    0.8494    2.1950    0.6752 N   0  0  0  0  0  0  0  0  0  0  0  0
    2.2523    2.2922    0.6268 C   0  0  0  0  0  0  0  0  0  0  0  0
    2.9866    1.7945   -0.4575 C   0  0  0  0  0  0  0  0  0  0  0  0
    4.3769    1.8691   -0.4861 C   0  0  0  0  0  0  0  0  0  0  0  0
    5.0637    2.5394    0.5298 C   0  0  0  0  0  0  0  0  0  0  0  0
    4.3268    3.1393    1.5632 C   0  0  0  0  0  0  0  0  0  0  0  0
    2.9372    2.9743    1.6339 C   0  0  0  0  0  0  0  0  0  0  0  0
   -2.1327   -0.4332   -0.0860 C   0  0  0  0  0  0  0  0  0  0  0  0
   -1.7661   -0.8264   -1.5092 C   0  0  0  0  0  0  0  0  0  0  0  0
    6.5699    2.5883    0.5334 C   0  0  0  0  0  0  0  0  0  0  0  0
    7.0619    3.8530    0.4506 F   0  0  0  0  0  0  0  0  0  0  0  0
    7.0956    2.0498    1.6687 F   0  0  0  0  0  0  0  0  0  0  0  0
    7.1344    1.8961   -0.4967 F   0  0  0  0  0  0  0  0  0  0  0  0
  1  2  1  0
  2  3  1  0
  2  4  2  0
  3 11  1  0
  4  5  1  0
  5  6  2  0
  5 10  1  0
  6  7  1  0
  7  8  2  0
  8  9  1  0
  8 13  1  0
  9 10  2  0
 11 12  1  0
 13 14  1  0
 13 15  1  0
 13 16  1  0
M  END
>  <DRUGBANK_ID>  (1) 
DB02991

>  <SECONDARY_ACCESSION_NUMBERS>  (1) 
EXPT03044

>  <COMMON_NAME>  (1) 
S-Ethyl-N-[4-(Trifluoromethyl)Phenyl]Isothiourea

$$$$
