
     RDKit          3D

 26 27  0  0  0  0  0  0  0  0999 V2000
    0.9506   -0.0274   -0.0562 C   0  0  0  0  0  0  0  0  0  0  0  0
   -0.3238   -1.3415   -2.5543 C   0  0  0  0  0  0  0  0  0  0  0  0
    0.9927    4.3518   -2.1165 C   0  0  0  0  0  0  0  0  0  0  0  0
    3.2957    4.8993   -6.7279 C   0  0  0  0  0  0  0  0  0  0  0  0
   -0.0765    6.1083   -4.1662 C   0  0  0  0  0  0  0  0  0  0  0  0
    3.3739    3.5575   -6.3464 C   0  0  0  0  0  0  0  0  0  0  0  0
    2.0580    5.4723   -6.7603 C   0  0  0  0  0  0  0  0  0  0  0  0
   -1.2944    5.2122   -3.8426 C   0  0  0  0  0  0  0  0  0  0  0  0
   -0.3090    7.0342   -5.3675 C   0  0  0  0  0  0  0  0  0  0  0  0
    2.2682    2.8685   -5.7808 C   0  0  0  0  0  0  0  0  0  0  0  0
    0.9721    4.6760   -6.4068 C   0  0  0  0  0  0  0  0  0  0  0  0
   -1.4732    4.0536   -4.8231 C   0  0  0  0  0  0  0  0  0  0  0  0
   -1.4353    7.9857   -5.1545 C   0  0  0  0  0  0  0  0  0  0  0  0
    0.5027    0.6738   -1.2967 C   0  0  0  0  0  0  0  0  0  0  0  0
   -0.0015    0.1109   -2.4007 C   0  0  0  0  0  0  0  0  0  0  0  0
    0.5155    2.9502   -2.4314 C   0  0  0  0  0  0  0  0  0  0  0  0
    1.0391    3.4989   -5.6901 C   0  0  0  0  0  0  0  0  0  0  0  0
   -0.2388    3.0433   -4.9557 C   0  0  0  0  0  0  0  0  0  0  0  0
   -0.9673    8.9709   -4.1548 C   0  0  0  0  0  0  0  0  0  0  0  0
    0.0526    2.3934   -3.5861 C   0  0  0  0  0  0  0  0  0  0  0  0
    0.6943    2.1264   -1.2125 C   0  0  0  0  0  0  0  0  0  0  0  0
   -0.2300    0.9181   -3.6239 C   0  0  0  0  0  0  0  0  0  0  0  0
   -0.5765   10.1117   -4.4267 O   0  0  0  0  0  0  0  0  0  0  0  0
   -0.8325    8.4677   -2.9196 O   0  0  0  0  0  0  0  0  0  0  0  0
    1.0127    2.6322   -0.1392 O   0  0  0  0  0  0  0  0  0  0  0  0
   -0.5829    0.3529   -4.6562 O   0  0  0  0  0  0  0  0  0  0  0  0
  6  4  2  0
  7  4  1  0
  8  5  1  0
  9  5  1  0
 10  6  1  0
 11  7  2  0
 12  8  1  0
 13  9  1  0
 14  1  1  0
 15  2  1  0
 15 14  2  0
 16  3  1  0
 17 10  2  0
 17 11  1  0
 18 12  1  0
 18 17  1  0
 19 13  1  0
 20 16  2  0
 20 18  1  0
 21 14  1  0
 21 16  1  0
 22 15  1  0
 22 20  1  0
 23 19  2  0
 24 19  1  0
 25 21  2  0
 26 22  2  0
M  END
>  <DRUGBANK_ID>  (1) 
DB06739

>  <COMMON_NAME>  (1) 
Seratrodast

>  <CAS_NUMBER>  (1) 
112665-43-7

>  <UNII>  (1) 
4U58JM421N

>  <SYNONYMS>  (1) 
Seratrodast

$$$$
