NFG
     RDKit          3D

 24 25  0  0  0  0  0  0  0  0999 V2000
    0.5647    1.2458   -0.2484 C   0  0  1  0  0  0  0  0  0  0  0  0
    1.3092    2.3640    0.3171 O   0  0  0  0  0  0  0  0  0  0  0  0
    1.2738   -0.0782   -0.0491 C   0  0  2  0  0  0  0  0  0  0  0  0
    2.4456   -0.0986   -0.7288 F   0  0  0  0  0  0  0  0  0  0  0  0
    0.5687   -1.3483   -0.4013 C   0  0  1  0  0  0  0  0  0  0  0  0
    1.3061   -2.4357    0.1883 O   0  0  0  0  0  0  0  0  0  0  0  0
   -0.8308   -1.2937    0.1784 C   0  0  2  0  0  0  0  0  0  0  0  0
   -1.5868   -2.4138   -0.2703 O   0  0  0  0  0  0  0  0  0  0  0  0
   -1.4815    0.0222   -0.2675 C   0  0  1  0  0  0  0  0  0  0  0  0
   -2.9126    0.0609    0.2510 C   0  0  0  0  0  0  0  0  0  0  0  0
   -3.5523    1.2430   -0.2139 O   0  0  0  0  0  0  0  0  0  0  0  0
   -0.7783    1.1787    0.2432 O   0  0  0  0  0  0  0  0  0  0  0  0
    1.4844    2.5015    1.6714 C   0  0  0  0  0  0  0  0  0  0  0  0
    2.2739    1.7019    2.5199 C   0  0  0  0  0  0  0  0  0  0  0  0
    3.1330    0.6189    2.0815 N   0  0  0  0  0  0  0  0  0  0  0  0
    3.1190   -0.4189    2.7457 O   0  0  0  0  0  0  0  0  0  0  0  0
    3.8138    0.8122    1.0616 O   0  0  0  0  0  0  0  0  0  0  0  0
    2.4434    1.9867    3.8790 C   0  0  0  0  0  0  0  0  0  0  0  0
    1.9455    3.1751    4.3881 C   0  0  0  0  0  0  0  0  0  0  0  0
    2.1537    3.4552    5.8103 N   0  0  0  0  0  0  0  0  0  0  0  0
    1.7277    4.5312    6.2510 O   0  0  0  0  0  0  0  0  0  0  0  0
    2.7248    2.5892    6.4845 O   0  0  0  0  0  0  0  0  0  0  0  0
    1.2769    4.0711    3.5494 C   0  0  0  0  0  0  0  0  0  0  0  0
    0.9999    3.7071    2.2156 C   0  0  0  0  0  0  0  0  0  0  0  0
  1  2  1  1
  1  3  1  0
  1 12  1  0
  2 13  1  0
  3  4  1  6
  3  5  1  0
  5  7  1  0
  5  6  1  1
  7  8  1  6
  7  9  1  0
  9 12  1  0
  9 10  1  1
 10 11  1  0
 13 14  2  0
 13 24  1  0
 14 15  1  0
 14 18  1  0
 15 16  1  0
 15 17  2  0
 18 19  2  0
 19 20  1  0
 19 23  1  0
 20 21  1  0
 20 22  2  0
 23 24  2  0
M  CHG  4  15   1  16  -1  20   1  21  -1
M  END
>  <DRUGBANK_ID>  (1) 
DB02658

>  <SECONDARY_ACCESSION_NUMBERS>  (1) 
EXPT02330

>  <COMMON_NAME>  (1) 
2,4-Dinitrophenyl 2-Deoxy-2-Fluoro-Beta-D-Allopyranoside

$$$$
