
     RDKit          3D

 14 15  0  0  0  0  0  0  0  0999 V2000
   -2.2327    0.7967   -0.0587 C   0  0  0  0  0  0  0  0  0  0  0  0
   -2.2432   -0.6077   -0.0382 C   0  0  0  0  0  0  0  0  0  0  0  0
   -1.0548   -1.2867    0.1065 C   0  0  0  0  0  0  0  0  0  0  0  0
    0.0998   -0.5254    0.2021 C   0  0  0  0  0  0  0  0  0  0  0  0
    0.1519    0.8546    0.1103 C   0  0  0  0  0  0  0  0  0  0  0  0
   -1.0359    1.5378    0.0166 C   0  0  0  0  0  0  0  0  0  0  0  0
    1.5831    1.3247    0.1078 C   0  0  0  0  0  0  0  0  0  0  0  0
    2.3692    0.0260   -0.2789 C   0  0  0  0  0  0  0  0  0  0  0  0
    1.4540   -1.0882    0.2520 C   0  0  0  0  0  0  0  0  0  0  0  0
    2.6284   -0.1080   -1.7287 N   0  0  0  0  0  0  0  0  0  0  0  0
    3.4583   -1.2734   -2.1420 C   0  0  0  0  0  0  0  0  0  0  0  0
    2.8351   -2.6614   -1.8864 C   0  0  0  0  0  0  0  0  0  0  0  0
    2.1374   -3.2517   -2.6890 O   0  0  0  0  0  0  0  0  0  0  0  0
    3.0227   -3.1883   -0.6221 N   0  0  0  0  0  0  0  0  0  0  0  0
  1  2  2  0
  1  6  1  0
  2  3  1  0
  3  4  2  0
  4  5  1  0
  4  9  1  0
  5  6  2  0
  5  7  1  0
  7  8  1  0
  8  9  1  0
  8 10  1  0
 10 11  1  0
 11 12  1  0
 12 13  2  0
 12 14  1  0
M  END
>  <DRUGBANK_ID>  (1) 
DB12664

>  <SECONDARY_ACCESSION_NUMBERS>  (1) 
DB06296

>  <COMMON_NAME>  (1) 
Indantadol

>  <CAS_NUMBER>  (1) 
202844-10-8

>  <UNII>  (1) 
Z3867B9SQP

>  <SYNONYMS>  (1) 
Indantadol

$$$$
