4837
     RDKit          3D

 20 21  0  0  1  0  0  0  0  0999 V2000
   -1.9312   -0.7679    0.6067 Cl  0  0  0  0  0  0  0  0  0  0  0  0
    0.1102    3.3594    1.1240 O   0  0  0  0  0  0  0  0  0  0  0  0
   -1.8175    1.9405   -2.8637 N   0  0  0  0  0  0  0  0  0  0  0  0
   -0.5231    2.5517    0.1070 C   0  0  0  0  0  0  0  0  0  0  0  0
   -0.1324    3.1954   -1.2956 C   0  0  0  0  0  0  0  0  0  0  0  0
   -0.4259    2.3708   -2.6096 C   0  0  0  0  0  0  0  0  0  0  0  0
    0.2047    1.1250    0.2126 C   0  0  0  0  0  0  0  0  0  0  0  0
   -2.0560    2.7212    0.4083 C   0  0  0  0  0  0  0  0  0  0  0  0
   -0.3184   -0.2041    0.2771 C   0  0  0  0  0  0  0  0  0  0  0  0
    1.6291    1.1790    0.1099 C   0  0  0  0  0  0  0  0  0  0  0  0
   -2.6489    1.9918    1.4315 C   0  0  0  0  0  0  0  0  0  0  0  0
   -2.9399    3.3649   -0.5112 C   0  0  0  0  0  0  0  0  0  0  0  0
   -2.0985    1.3857   -4.1796 C   0  0  0  0  0  0  0  0  0  0  0  0
   -2.2119    0.8461   -1.9958 C   0  0  0  0  0  0  0  0  0  0  0  0
    0.5054   -1.3330    0.0908 C   0  0  0  0  0  0  0  0  0  0  0  0
    2.4439    0.0358    0.0329 C   0  0  0  0  0  0  0  0  0  0  0  0
   -4.0041    1.6213    1.3575 C   0  0  0  0  0  0  0  0  0  0  0  0
   -4.2923    2.9911   -0.5853 C   0  0  0  0  0  0  0  0  0  0  0  0
    1.8760   -1.2237   -0.0051 C   0  0  0  0  0  0  0  0  0  0  0  0
   -4.8077    2.0834    0.3094 C   0  0  0  0  0  0  0  0  0  0  0  0
  1  9  1  0
  2  4  1  0
  3  6  1  0
  3 13  1  0
  3 14  1  0
  4  5  1  0
  4  7  1  0
  4  8  1  0
  5  6  1  0
  7  9  2  0
  7 10  1  0
  8 11  2  0
  8 12  1  0
  9 15  1  0
 10 16  2  0
 11 17  1  0
 12 18  2  0
 15 19  2  0
 16 19  1  0
 17 20  2  0
 18 20  1  0
M  END
>  <DRUGBANK_ID>  (1) 
DB04837

>  <COMMON_NAME>  (1) 
Clofedanol

>  <CAS_NUMBER>  (1) 
791-35-5

>  <UNII>  (1) 
42C50P12AP

>  <SYNONYMS>  (1) 
Chlophedianol; Clofedanol; Clofedanolum; Clofedianolo

$$$$
