D4G
     RDKit          3D

 14 15  0  0  0  0  0  0  0  0999 V2000
    0.6847    1.2641    0.0020 C   0  0  0  0  0  0  0  0  0  0  0  0
   -0.6949    1.1307    0.0021 C   0  0  0  0  0  0  0  0  0  0  0  0
   -1.3378   -0.0530    0.0047 N   0  0  0  0  0  0  0  0  0  0  0  0
   -0.5652   -1.1578    0.0048 C   0  0  0  0  0  0  0  0  0  0  0  0
    0.8218   -1.1260   -0.0017 C   0  0  0  0  0  0  0  0  0  0  0  0
    1.4714    0.1137   -0.0026 C   0  0  0  0  0  0  0  0  0  0  0  0
    3.2639    0.1248   -0.0102 S   0  0  0  0  0  0  0  0  0  0  0  0
    3.8678    2.0997   -0.0026 S   0  0  0  0  0  0  0  0  0  0  0  0
    5.6602    2.1113   -0.0166 C   0  0  0  0  0  0  0  0  0  0  0  0
    6.4472    0.9611   -0.0179 C   0  0  0  0  0  0  0  0  0  0  0  0
    7.8267    1.0949   -0.0335 C   0  0  0  0  0  0  0  0  0  0  0  0
    8.4693    2.2789   -0.0404 N   0  0  0  0  0  0  0  0  0  0  0  0
    7.6963    3.3834   -0.0338 C   0  0  0  0  0  0  0  0  0  0  0  0
    6.3093    3.3512   -0.0252 C   0  0  0  0  0  0  0  0  0  0  0  0
  1  2  2  0
  1  6  1  0
  2  3  1  0
  3  4  2  0
  4  5  1  0
  5  6  2  0
  6  7  1  0
  7  8  1  0
  8  9  1  0
  9 10  2  0
  9 14  1  0
 10 11  1  0
 11 12  2  0
 12 13  1  0
 13 14  2  0
M  END
>  <DRUGBANK_ID>  (1) 
DB07623

>  <COMMON_NAME>  (1) 
4,4'-DIPYRIDYL DISULFIDE

>  <UNII>  (1) 
EI4LXL5JH8

$$$$
