
     RDKit          3D

 22 21  0  0  1  0  0  0  0  0999 V2000
    0.9717    0.1194    0.0247 C   0  0  0  0  0  0  0  0  0  0  0  0
    4.8941    2.2285    1.4959 C   0  0  0  0  0  0  0  0  0  0  0  0
    4.0591    1.1506    0.8389 C   0  0  0  0  0  0  0  0  0  0  0  0
    5.7983    1.6045    2.5439 C   0  0  0  0  0  0  0  0  0  0  0  0
    3.2402    0.3811    1.8990 C   0  0  0  0  0  0  0  0  0  0  0  0
    8.5416    2.3239    3.6914 C   0  0  0  0  0  0  0  0  0  0  0  0
    0.4953   -0.0421    1.5115 C   0  0  1  0  0  0  0  0  0  0  0  0
    6.8579    0.6623    1.9366 C   0  0  1  0  0  0  0  0  0  0  0  0
    2.1346    1.2710    2.5690 C   0  0  0  0  0  0  0  0  0  0  0  0
    8.3957    0.8038    3.7434 C   0  0  0  0  0  0  0  0  0  0  0  0
    7.7728    1.3035    0.8710 C   0  0  0  0  0  0  0  0  0  0  0  0
    8.0376    2.9246    4.9338 N   0  0  0  0  0  0  0  0  0  0  0  0
    0.8931    1.0758    2.3207 N   0  0  0  0  0  0  0  0  0  0  0  0
    7.6675    0.0447    3.0101 N   0  0  0  0  0  0  0  0  0  0  0  0
    2.5133    2.1634    3.3589 O   0  0  0  0  0  0  0  0  0  0  0  0
    9.1340    0.2238    4.7129 O   0  0  0  0  0  0  0  0  0  0  0  0
    8.9854    1.4548    0.9370 O   0  0  0  0  0  0  0  0  0  0  0  0
    7.1202    1.7957   -0.1994 O   0  0  0  0  0  0  0  0  0  0  0  0
   -1.3008   -0.9159    0.1105 O   0  0  0  0  0  0  0  0  0  0  0  0
   -1.2475   -1.3245    2.5652 O   0  0  0  0  0  0  0  0  0  0  0  0
   -2.8831   -0.0421    1.5115 O   0  0  0  0  0  0  0  0  0  0  0  0
   -1.3347   -0.0421    1.5115 P   0  0  0  0  0  0  0  0  0  0  0  0
  3  2  1  0
  4  2  1  0
  5  3  1  0
  7  1  1  6
  8  4  1  1
  8 14  1  0
  9  5  1  0
  9 15  1  0
 10  6  1  0
 10 16  1  0
 11  8  1  0
 12  6  1  0
 13  7  1  0
 13  9  2  3
 14 10  2  3
 17 11  2  0
 18 11  1  0
 22  7  1  0
 22 19  1  0
 22 20  1  0
 22 21  2  0
M  CHG  1  15  -1
M  END
>  <DRUGBANK_ID>  (1) 
DB01868

>  <SECONDARY_ACCESSION_NUMBERS>  (1) 
EXPT02767

>  <COMMON_NAME>  (1) 
Glycyl-L-a-Aminopimelyl-E-(D-2-Aminoethyl)Phosphonate

$$$$
