3781
     RDKit          3D

 20 22  0  0  1  0  0  0  0  0999 V2000
   -0.0106   -1.8967   -0.1119 S   0  0  0  0  0  0  0  0  0  0  0  0
    0.0144    1.2639   -0.3596 N   0  0  0  0  0  0  0  0  0  0  0  0
    2.0665    2.7357    1.6559 N   0  0  0  0  0  0  0  0  0  0  0  0
   -2.3804    1.3938   -0.0501 N   0  0  0  0  0  0  0  0  0  0  0  0
    0.6983    3.2303    1.3242 C   0  0  0  0  0  0  0  0  0  0  0  0
    0.0566    2.7357   -0.0681 C   0  0  0  0  0  0  0  0  0  0  0  0
    1.2407    0.5784   -0.6487 C   0  0  0  0  0  0  0  0  0  0  0  0
    0.6624    4.7825    1.2547 C   0  0  0  0  0  0  0  0  0  0  0  0
   -1.2540    0.6367   -0.1375 C   0  0  0  0  0  0  0  0  0  0  0  0
    1.3542   -0.8196   -0.4493 C   0  0  0  0  0  0  0  0  0  0  0  0
   -1.3609   -0.7638   -0.0812 C   0  0  0  0  0  0  0  0  0  0  0  0
    2.8437    3.4597    2.6613 C   0  0  0  0  0  0  0  0  0  0  0  0
    2.0375    1.3504    2.1471 C   0  0  0  0  0  0  0  0  0  0  0  0
    2.4529    1.2764   -0.8509 C   0  0  0  0  0  0  0  0  0  0  0  0
    2.6100   -1.4308   -0.2703 C   0  0  0  0  0  0  0  0  0  0  0  0
   -2.6282   -1.3693    0.0039 C   0  0  0  0  0  0  0  0  0  0  0  0
    3.6954    0.6707   -0.5942 C   0  0  0  0  0  0  0  0  0  0  0  0
    3.7740   -0.6787   -0.2887 C   0  0  0  0  0  0  0  0  0  0  0  0
   -3.5947    0.7742    0.0100 C   0  0  0  0  0  0  0  0  0  0  0  0
   -3.7616   -0.5922    0.0220 C   0  0  0  0  0  0  0  0  0  0  0  0
  1 10  1  0
  1 11  1  0
  2  6  1  0
  2  7  1  0
  2  9  1  0
  3  5  1  0
  3 12  1  0
  3 13  1  0
  4  9  1  0
  4 19  2  0
  5  6  1  0
  5  8  1  0
  7 10  2  0
  7 14  1  0
  9 11  2  0
 10 15  1  0
 11 16  1  0
 14 17  2  0
 15 18  2  0
 16 20  2  0
 17 18  1  0
 19 20  1  0
M  END
>  <DRUGBANK_ID>  (1) 
DB08802

>  <COMMON_NAME>  (1) 
Isothipendyl

>  <CAS_NUMBER>  (1) 
482-15-5

>  <UNII>  (1) 
WVZ7K9P0JY

>  <SYNONYMS>  (1) 
Isothipendyl; Isothipendylum; Isotipendilo

$$$$
