
     RDKit          3D

 19 19  0  0  1  0  0  0  0  0999 V2000
    2.5039    1.8391    0.1324 C   0  0  0  0  0  0  0  0  0  0  0  0
    1.1750    1.1488    0.2004 C   0  0  0  0  0  0  0  0  0  0  0  0
   -0.0219    1.7326    0.1055 C   0  0  0  0  0  0  0  0  0  0  0  0
   -0.1726    3.2140   -0.0882 C   0  0  0  0  0  0  0  0  0  0  0  0
   -1.2633    0.9113    0.1563 C   0  0  0  0  0  0  0  0  0  0  0  0
   -2.3456    1.4331   -0.0294 O   0  0  0  0  0  0  0  0  0  0  0  0
   -1.1404   -0.5870    0.3839 C   0  0  0  0  0  0  0  0  0  0  0  0
   -2.4784   -1.3129    0.1282 C   0  0  0  0  0  0  0  0  0  0  0  0
   -2.6422   -2.1226   -1.2018 C   0  0  0  0  0  0  0  0  0  0  0  0
   -1.5764   -3.1952   -1.4397 C   0  0  1  0  0  0  0  0  0  0  0  0
   -1.6996   -4.1688   -0.2016 C   0  0  0  0  0  0  0  0  0  0  0  0
   -1.9149   -3.9844   -2.5923 O   0  0  0  0  0  0  0  0  0  0  0  0
   -0.1974   -2.5154   -1.9566 C   0  0  0  0  0  0  0  0  0  0  0  0
   -0.1715   -1.1599   -2.2216 N   0  0  0  0  0  0  0  0  0  0  0  0
    0.8623   -3.1230   -2.1122 O   0  0  0  0  0  0  0  0  0  0  0  0
    0.0826   -1.1329    0.6394 C   0  0  0  0  0  0  0  0  0  0  0  0
    0.5103   -2.5718    0.8764 C   0  0  0  0  0  0  0  0  0  0  0  0
    1.3058   -0.3100    0.3646 C   0  0  0  0  0  0  0  0  0  0  0  0
    2.3914   -0.8250    0.1648 O   0  0  0  0  0  0  0  0  0  0  0  0
  1  2  1  0
  2  3  2  0
  2 18  1  0
  3  4  1  0
  3  5  1  0
  5  6  2  0
  5  7  1  0
  7  8  1  0
  7 16  2  0
  8  9  1  0
 10  9  1  0
 10 11  1  1
 10 12  1  0
 10 13  1  0
 13 14  1  0
 13 15  2  0
 16 17  1  0
 16 18  1  0
 18 19  2  0
M  END
>  <DRUGBANK_ID>  (1) 
DB16041

>  <COMMON_NAME>  (1) 
EPI-589

>  <CAS_NUMBER>  (1) 
1147883-03-1

>  <UNII>  (1) 
I4ZSB1Q2DU

$$$$
