
     RDKit          3D

 31 34  0  0  1  0  0  0  0  0999 V2000
   -8.9515    3.8833  -10.2642 C   0  0  0  0  0  0  0  0  0  0  0  0
   -7.4505    3.6773  -10.2504 C   0  0  0  0  0  0  0  0  0  0  0  0
   -7.0814    2.2946  -10.1230 O   0  0  0  0  0  0  0  0  0  0  0  0
   -7.2788    1.7459   -8.8851 C   0  0  0  0  0  0  0  0  0  0  0  0
   -6.1798    1.2603   -8.2327 C   0  0  0  0  0  0  0  0  0  0  0  0
   -6.3203    0.6823   -6.9623 C   0  0  0  0  0  0  0  0  0  0  0  0
   -7.5657    0.4600   -6.3396 C   0  0  0  0  0  0  0  0  0  0  0  0
   -8.6666    0.9714   -7.0099 C   0  0  0  0  0  0  0  0  0  0  0  0
   -8.5382    1.5475   -8.2882 C   0  0  0  0  0  0  0  0  0  0  0  0
   -9.6649    1.8009   -8.9414 F   0  0  0  0  0  0  0  0  0  0  0  0
   -7.7019   -0.2782   -4.9902 C   0  0  0  0  0  0  0  0  0  0  0  0
   -7.2875   -1.7768   -4.9219 C   0  0  0  0  0  0  0  0  0  0  0  0
   -8.2318   -2.8312   -4.5589 C   0  0  0  0  0  0  0  0  0  0  0  0
   -7.9641   -4.2596   -4.6987 C   0  0  0  0  0  0  0  0  0  0  0  0
   -6.6514   -4.5406   -5.1084 C   0  0  0  0  0  0  0  0  0  0  0  0
   -5.7086   -3.5507   -5.3875 C   0  0  0  0  0  0  0  0  0  0  0  0
   -5.9863   -2.2010   -5.2152 C   0  0  0  0  0  0  0  0  0  0  0  0
   -4.5576   -1.2325   -5.1211 Cl  0  0  0  0  0  0  0  0  0  0  0  0
   -8.9683   -5.5247   -4.8023 C   0  0  2  0  0  0  0  0  0  0  0  0
  -10.3262   -5.1833   -5.6393 C   0  0  1  0  0  0  0  0  0  0  0  0
  -11.5882   -5.5888   -4.6742 C   0  0  2  0  0  0  0  0  0  0  0  0
  -11.5343   -7.1441   -4.6652 C   0  0  1  0  0  0  0  0  0  0  0  0
  -10.0770   -7.5199   -4.5267 C   0  0  1  0  0  0  0  0  0  0  0  0
   -9.6349   -6.1876   -3.7794 O   0  0  0  0  0  0  0  0  0  0  0  0
   -8.7173   -7.8842   -4.0177 C   0  0  0  0  0  0  0  0  0  0  0  0
   -8.1776   -6.7637   -4.9606 O   0  0  0  0  0  0  0  0  0  0  0  0
   -9.8256   -8.6052   -5.7461 C   0  0  0  0  0  0  0  0  0  0  0  0
  -11.0197   -9.2459   -6.2512 O   0  0  0  0  0  0  0  0  0  0  0  0
  -12.3991   -7.8466   -3.7961 O   0  0  0  0  0  0  0  0  0  0  0  0
  -12.8665   -5.1087   -5.0709 O   0  0  0  0  0  0  0  0  0  0  0  0
  -10.4602   -3.8396   -6.0893 O   0  0  0  0  0  0  0  0  0  0  0  0
  1  2  1  0
  2  3  1  0
  3  4  1  0
  4  5  2  0
  4  9  1  0
  5  6  1  0
  6  7  2  0
  7  8  1  0
  7 11  1  0
  8  9  2  0
  9 10  1  0
 11 12  1  0
 12 13  2  0
 12 17  1  0
 13 14  1  0
 14 15  2  0
 15 16  1  0
 16 17  2  0
 17 18  1  0
 19 20  1  0
 19 24  1  0
 19 26  1  0
 19 14  1  1
 20 21  1  0
 20 31  1  1
 21 22  1  0
 21 30  1  6
 22 23  1  0
 22 29  1  1
 23 24  1  0
 23 25  1  0
 23 27  1  6
 25 26  1  0
 27 28  1  0
M  END
>  <DRUGBANK_ID>  (1) 
DB11939

>  <COMMON_NAME>  (1) 
Henagliflozin

>  <CAS_NUMBER>  (1) 
1623804-44-3

>  <UNII>  (1) 
21P2M98388

$$$$
