
     RDKit          3D

  9  8  0  0  0  0  0  0  0  0999 V2000
    1.0009    0.0992    0.0177 N   0  0  0  0  0  0  0  0  0  0  0  0
    0.5481    1.3359   -0.6074 C   0  0  0  0  0  0  0  0  0  0  0  0
    1.0123    1.4432   -2.0620 C   0  0  0  0  0  0  0  0  0  0  0  0
    0.4575    0.3328   -2.9603 C   0  0  0  0  0  0  0  0  0  0  0  0
   -1.0694    0.3044   -3.0001 C   0  0  0  0  0  0  0  0  0  0  0  0
   -1.5833    1.5043   -3.6368 N   0  0  0  0  0  0  0  0  0  0  0  0
   -2.3741    1.4542   -4.7281 C   0  0  0  0  0  0  0  0  0  0  0  0
   -2.7836    2.6493   -5.1802 N   0  0  0  0  0  0  0  0  0  0  0  0
   -2.7014    0.3556   -5.2995 N   0  0  0  0  0  0  0  0  0  0  0  0
  1  2  1  0
  2  3  1  0
  3  4  1  0
  4  5  1  0
  5  6  1  0
  6  7  1  0
  7  8  1  0
  7  9  2  0
M  END
>  <DRUGBANK_ID>  (1) 
DB08838

>  <COMMON_NAME>  (1) 
Agmatine

>  <CAS_NUMBER>  (1) 
306-60-5

>  <UNII>  (1) 
70J407ZL5Q

>  <SYNONYMS>  (1) 
(4-aminobutyl) guanidine; (4-aminobutyl)guanidine; 1-amino-4-guanidobutane; N-(4-aminobutyl)guanidine

$$$$
