BOS
     RDKit          3D

 20 21  0  0  0  0  0  0  0  0999 V2000
    1.0625    0.0469    0.0289 N   0  0  0  0  0  0  0  0  0  0  0  0
    0.4401    1.6030   -0.1863 S   0  0  0  0  0  0  0  0  0  0  0  0
    1.1146    2.1271   -1.3543 O   0  0  0  0  0  0  0  0  0  0  0  0
   -0.9914    1.4856   -0.0931 O   0  0  0  0  0  0  0  0  0  0  0  0
    0.9718    2.5223    1.2226 C   0  0  0  0  0  0  0  0  0  0  0  0
    0.9274    3.9245    1.2103 C   0  0  0  0  0  0  0  0  0  0  0  0
    1.1338    4.6536    2.3999 C   0  0  0  0  0  0  0  0  0  0  0  0
    1.2941    3.9691    3.6043 C   0  0  0  0  0  0  0  0  0  0  0  0
    1.1229    2.5919    3.5662 C   0  0  0  0  0  0  0  0  0  0  0  0
    1.1868    1.8503    2.4017 C   0  0  0  0  0  0  0  0  0  0  0  0
    1.6486    4.6406    4.7989 N   0  0  0  0  0  0  0  0  0  0  0  0
    2.0631    4.1460    6.0375 C   0  0  0  0  0  0  0  0  0  0  0  0
    2.2847    4.9356    6.9562 O   0  0  0  0  0  0  0  0  0  0  0  0
    2.2631    2.6914    6.3072 C   0  0  0  0  0  0  0  0  0  0  0  0
    3.0660    1.9336    5.4246 C   0  0  0  0  0  0  0  0  0  0  0  0
    3.0279    0.5359    5.4505 C   0  0  0  0  0  0  0  0  0  0  0  0
    2.3789   -0.1093    6.4929 C   0  0  0  0  0  0  0  0  0  0  0  0
    1.7305    0.6426    7.4766 C   0  0  0  0  0  0  0  0  0  0  0  0
    1.5885    2.0381    7.3548 C   0  0  0  0  0  0  0  0  0  0  0  0
    0.4350    2.8042    8.4930 S   0  0  0  0  0  0  0  0  0  0  0  0
  1  2  1  0
  2  3  2  0
  2  4  2  0
  2  5  1  0
  5  6  2  0
  5 10  1  0
  6  7  1  0
  7  8  2  0
  8  9  1  0
  8 11  1  0
  9 10  2  0
 11 12  1  0
 12 13  2  0
 12 14  1  0
 14 15  2  0
 14 19  1  0
 15 16  1  0
 16 17  2  0
 17 18  1  0
 18 19  2  0
 19 20  1  0
M  END
>  <DRUGBANK_ID>  (1) 
DB07476

>  <COMMON_NAME>  (1) 
N-[4-(AMINOSULFONYL)PHENYL]-2-MERCAPTOBENZAMIDE

$$$$
