R22
     RDKit          3D

 26 28  0  0  0  0  0  0  0  0999 V2000
    0.0380   -1.7407    0.0173 C   0  0  0  0  0  0  0  0  0  0  0  0
    1.2185   -1.0016   -0.0773 C   0  0  0  0  0  0  0  0  0  0  0  0
    1.2109    0.3894   -0.0150 C   0  0  0  0  0  0  0  0  0  0  0  0
   -0.0155    1.0573    0.0393 C   0  0  0  0  0  0  0  0  0  0  0  0
   -1.2211    0.3345    0.0731 C   0  0  0  0  0  0  0  0  0  0  0  0
   -1.1834   -1.0702    0.0897 C   0  0  0  0  0  0  0  0  0  0  0  0
    0.0066   -3.1238    0.0228 O   0  0  0  0  0  0  0  0  0  0  0  0
    2.5200    1.1170   -0.0058 C   0  0  0  0  0  0  0  0  0  0  0  0
   -2.5365    1.0561    0.0281 C   0  0  0  0  0  0  0  0  0  0  0  0
    3.5330   -5.2894   -0.0123 N   0  0  0  0  0  0  0  0  0  0  0  0
    3.3488   -4.4886    1.0814 C   0  0  0  0  0  0  0  0  0  0  0  0
    2.0448   -3.7647    1.1769 C   0  0  0  0  0  0  0  0  0  0  0  0
    1.2111   -3.8232    0.1082 C   0  0  0  0  0  0  0  0  0  0  0  0
    1.5082   -4.6998   -1.0455 C   0  0  0  0  0  0  0  0  0  0  0  0
    2.6431   -5.4288   -1.0457 C   0  0  0  0  0  0  0  0  0  0  0  0
    2.9999   -6.4150   -2.1279 C   0  0  0  0  0  0  0  0  0  0  0  0
    4.2423   -4.3877    1.9298 O   0  0  0  0  0  0  0  0  0  0  0  0
    1.7106   -2.6954    2.9419 I   0  0  0  0  0  0  0  0  0  0  0  0
    0.5103   -4.8375   -2.1679 C   0  0  0  0  0  0  0  0  0  0  0  0
    1.1906   -4.3829   -3.8327 S   0  0  0  0  0  0  0  0  0  0  0  0
    1.6886   -2.6301   -3.5876 C   0  0  0  0  0  0  0  0  0  0  0  0
    0.4770   -1.7958   -3.4062 C   0  0  0  0  0  0  0  0  0  0  0  0
    0.6175   -0.4371   -3.3871 O   0  0  0  0  0  0  0  0  0  0  0  0
   -0.6286    0.0740   -3.1745 C   0  0  0  0  0  0  0  0  0  0  0  0
   -1.5563   -0.9290   -3.0447 C   0  0  0  0  0  0  0  0  0  0  0  0
   -0.8544   -2.1191   -3.2448 C   0  0  0  0  0  0  0  0  0  0  0  0
  1  2  2  0
  1  6  1  0
  1  7  1  0
  2  3  1  0
  3  4  2  0
  3  8  1  0
  4  5  1  0
  5  6  2  0
  5  9  1  0
  7 13  1  0
 10 11  1  0
 10 15  1  0
 11 12  1  0
 11 17  2  0
 12 13  2  0
 12 18  1  0
 13 14  1  0
 14 15  2  0
 14 19  1  0
 15 16  1  0
 19 20  1  0
 20 21  1  0
 21 22  1  0
 22 23  1  0
 22 26  2  0
 23 24  1  0
 24 25  2  0
 25 26  1  0
M  END
>  <DRUGBANK_ID>  (1) 
DB08457

>  <COMMON_NAME>  (1) 
4-(3,5-DIMETHYLPHENOXY)-5-(FURAN-2-YLMETHYLSULFANYLMETHYL)-3-IODO-6-METHYLPYRIDIN-2(1H)-ONE

$$$$
