HXS
     RDKit          3D

 20 21  0  0  0  0  0  0  0  0999 V2000
   -1.0552    2.8753   -3.9007 C   0  0  0  0  0  0  0  0  0  0  0  0
    0.0607    2.1255   -4.2504 C   0  0  0  0  0  0  0  0  0  0  0  0
    0.0954    0.7539   -4.0289 C   0  0  0  0  0  0  0  0  0  0  0  0
   -1.0083    0.1172   -3.4549 C   0  0  0  0  0  0  0  0  0  0  0  0
   -2.1565    0.8532   -3.1138 C   0  0  0  0  0  0  0  0  0  0  0  0
    1.1486    2.7060   -4.8316 O   0  0  0  0  0  0  0  0  0  0  0  0
   -2.1604    2.2383   -3.3397 C   0  0  0  0  0  0  0  0  0  0  0  0
   -3.4252    0.1517   -2.6177 C   0  0  2  0  0  0  0  0  0  0  0  0
   -4.4383    0.1192   -3.7938 C   0  0  0  0  0  0  0  0  0  0  0  0
   -5.4013   -1.0642   -3.7606 C   0  0  0  0  0  0  0  0  0  0  0  0
   -3.9161    0.7554   -1.2277 C   0  0  2  0  0  0  0  0  0  0  0  0
   -3.3218    0.0351    0.0192 C   0  0  0  0  0  0  0  0  0  0  0  0
   -2.8487   -1.3935   -0.2133 C   0  0  0  0  0  0  0  0  0  0  0  0
   -5.4306    0.8815   -1.0768 C   0  0  0  0  0  0  0  0  0  0  0  0
   -6.0846    2.1100   -1.2483 C   0  0  0  0  0  0  0  0  0  0  0  0
   -7.4830    2.1690   -1.3263 C   0  0  0  0  0  0  0  0  0  0  0  0
   -8.2158    0.9832   -1.2828 C   0  0  0  0  0  0  0  0  0  0  0  0
   -9.5634    0.9569   -1.4871 O   0  0  0  0  0  0  0  0  0  0  0  0
   -7.5890   -0.2226   -1.0516 C   0  0  0  0  0  0  0  0  0  0  0  0
   -6.2091   -0.2655   -0.8640 C   0  0  0  0  0  0  0  0  0  0  0  0
  1  2  2  0
  1  7  1  0
  2  3  1  0
  2  6  1  0
  3  4  2  0
  4  5  1  0
  5  7  2  0
  8  9  1  6
  8  5  1  0
  9 10  1  0
 11 14  1  0
 11 12  1  1
 11  8  1  0
 12 13  1  0
 14 15  2  0
 14 20  1  0
 15 16  1  0
 16 17  2  0
 17 18  1  0
 17 19  1  0
 19 20  2  0
M  END
>  <DRUGBANK_ID>  (1) 
DB07931

>  <SECONDARY_ACCESSION_NUMBERS>  (1) 
DB08959

>  <COMMON_NAME>  (1) 
Hexestrol

>  <CAS_NUMBER>  (1) 
84-16-2

>  <UNII>  (1) 
10BI795R7D

>  <SYNONYMS>  (1) 
4,4'-(1,2-diethylethylene)diphenol; Erythrohexestrol; Hexanoestrol; Hexestrol; Hexoestrolum; Meso-3,4-di(p-hydroxyphenyl)-n-hexane; Meso-hexestrol; Mesohexestrol; Synoestrolum

$$$$
