
     RDKit          3D

 26 27  0  0  0  0  0  0  0  0999 V2000
    1.4767   -0.1560    0.0272 C   0  0  0  0  0  0  0  0  0  0  0  0
    0.6217   -1.2966   -0.0173 C   0  0  0  0  0  0  0  0  0  0  0  0
    0.8932    1.1301    0.0161 C   0  0  0  0  0  0  0  0  0  0  0  0
    2.9605   -0.2598    0.1881 C   0  0  0  0  0  0  0  0  0  0  0  0
   -0.7914   -1.1121   -0.0134 C   0  0  0  0  0  0  0  0  0  0  0  0
    0.9525   -2.6187   -0.0937 O   0  0  0  0  0  0  0  0  0  0  0  0
   -0.4989    1.2844    0.0767 C   0  0  0  0  0  0  0  0  0  0  0  0
    3.8094    0.7991    0.2868 N   0  0  0  0  0  0  0  0  0  0  0  0
    3.5499   -1.3302    0.2983 O   0  0  0  0  0  0  0  0  0  0  0  0
   -1.3400    0.1761    0.0153 C   0  0  0  0  0  0  0  0  0  0  0  0
   -1.7575   -2.1035   -0.0012 O   0  0  0  0  0  0  0  0  0  0  0  0
    2.2502   -3.1441   -0.0877 C   0  0  0  0  0  0  0  0  0  0  0  0
   -1.1966    2.8941    0.3628 S   0  0  0  0  0  0  0  0  0  0  0  0
    5.2309    0.4380    0.4006 C   0  0  0  0  0  0  0  0  0  0  0  0
   -1.3350   -3.4654    0.0930 C   0  0  0  0  0  0  0  0  0  0  0  0
   -0.5096    3.3403    1.8435 N   0  0  0  0  0  0  0  0  0  0  0  0
   -0.6862    3.8012   -0.6332 O   0  0  0  0  0  0  0  0  0  0  0  0
   -2.6086    2.7569    0.6427 O   0  0  0  0  0  0  0  0  0  0  0  0
    5.9968    1.0065   -0.7792 C   0  0  0  0  0  0  0  0  0  0  0  0
    6.1548    2.4696   -0.6702 N   0  0  0  0  0  0  0  0  0  0  0  0
    7.3987    0.4515   -1.0193 C   0  0  0  0  0  0  0  0  0  0  0  0
    7.2464    2.8112   -1.5911 C   0  0  0  0  0  0  0  0  0  0  0  0
    6.4122    2.9434    0.7061 C   0  0  0  0  0  0  0  0  0  0  0  0
    8.0079    1.5221   -1.9083 C   0  0  0  0  0  0  0  0  0  0  0  0
    7.6171    2.3359    1.3785 C   0  0  0  0  0  0  0  0  0  0  0  0
    8.7276    3.0091    1.6841 C   0  0  0  0  0  0  0  0  0  0  0  0
  1  2  2  0
  1  3  1  0
  1  4  1  0
  2  5  1  0
  2  6  1  0
  3  7  2  0
  4  8  1  0
  4  9  2  0
  5 10  2  0
  5 11  1  0
  6 12  1  0
  7 13  1  0
  7 10  1  0
  8 14  1  0
 11 15  1  0
 13 16  1  0
 13 17  2  0
 13 18  2  0
 14 19  1  0
 19 20  1  0
 19 21  1  0
 20 22  1  0
 20 23  1  0
 21 24  1  0
 22 24  1  0
 23 25  1  0
 25 26  2  0
M  END
>  <DRUGBANK_ID>  (1) 
DB13523

>  <COMMON_NAME>  (1) 
Veralipride

>  <CAS_NUMBER>  (1) 
66644-81-3

>  <UNII>  (1) 
S7064109UD

>  <SYNONYMS>  (1) 
Veraliprida; Veralipride; Veralipridum

$$$$
