
     RDKit          3D

 29 32  0  0  0  0  0  0  0  0999 V2000
   -0.8705   -0.0053    0.5458 N   0  0  0  0  0  0  0  0  0  0  0  0
   -0.6559   -1.2057    0.0135 C   0  0  0  0  0  0  0  0  0  0  0  0
   -5.9296   -2.0119   -0.5970 C   0  0  0  0  0  0  0  0  0  0  0  0
    0.6638   -1.3211   -0.3365 O   0  0  0  0  0  0  0  0  0  0  0  0
    0.1413    0.8340    0.0779 C   0  0  0  0  0  0  0  0  0  0  0  0
   -6.8983   -1.3973   -1.4843 C   0  0  0  0  0  0  0  0  0  0  0  0
   -6.1551   -1.4513    0.7486 C   0  0  0  0  0  0  0  0  0  0  0  0
   -7.7783   -0.7485   -0.6780 N   0  0  0  0  0  0  0  0  0  0  0  0
    1.1665   -0.0473   -0.1500 C   0  0  0  0  0  0  0  0  0  0  0  0
   -7.3125   -0.7363    0.6731 O   0  0  0  0  0  0  0  0  0  0  0  0
   -4.6152   -1.5185   -1.0430 C   0  0  0  0  0  0  0  0  0  0  0  0
   -1.5492   -2.4185   -0.1476 C   0  0  0  0  0  0  0  0  0  0  0  0
   -6.8614   -1.4206   -2.7208 O   0  0  0  0  0  0  0  0  0  0  0  0
   -5.4170   -1.5479    1.7295 O   0  0  0  0  0  0  0  0  0  0  0  0
    0.1144    2.3953    0.0519 C   0  0  0  0  0  0  0  0  0  0  0  0
   -4.1902   -0.1091   -1.0265 C   0  0  0  0  0  0  0  0  0  0  0  0
   -2.6873    2.1681   -1.3451 C   0  0  0  0  0  0  0  0  0  0  0  0
   -0.4931    3.1108   -1.2223 C   0  0  0  0  0  0  0  0  0  0  0  0
   -4.3506    0.6541   -2.1682 C   0  0  0  0  0  0  0  0  0  0  0  0
   -3.4221    0.3424    0.0219 C   0  0  0  0  0  0  0  0  0  0  0  0
   -3.5637    1.7799   -2.3498 C   0  0  0  0  0  0  0  0  0  0  0  0
   -2.7514    1.5317   -0.1278 C   0  0  0  0  0  0  0  0  0  0  0  0
   -1.9080    3.2672   -1.4677 O   0  0  0  0  0  0  0  0  0  0  0  0
    2.6116    0.0872   -0.1134 C   0  0  0  0  0  0  0  0  0  0  0  0
   -2.1780   -2.8136   -1.3694 C   0  0  0  0  0  0  0  0  0  0  0  0
   -2.0292   -3.0891    0.9916 C   0  0  0  0  0  0  0  0  0  0  0  0
   -3.0274   -4.1024    0.9423 C   0  0  0  0  0  0  0  0  0  0  0  0
   -3.2417   -3.8134   -1.4154 C   0  0  0  0  0  0  0  0  0  0  0  0
   -3.6871   -4.4202   -0.2400 C   0  0  0  0  0  0  0  0  0  0  0  0
  2  1  2  0
  3 11  1  0
  4  2  1  0
  5  1  1  0
  6  3  1  0
  7  3  1  0
  8  6  1  0
  8 10  1  0
  9  5  2  0
  9  4  1  0
 10  7  1  0
 11 16  1  0
 12  2  1  0
 13  6  2  0
 14  7  2  0
 15  5  1  0
 16 20  1  0
 16 19  2  0
 17 23  1  0
 18 15  1  0
 19 21  1  0
 20 22  2  0
 21 17  2  0
 22 17  1  0
 23 18  1  0
 24  9  1  0
 25 12  2  0
 26 12  1  0
 27 26  2  0
 28 25  1  0
 29 27  1  0
 29 28  2  0
M  END
>  <DRUGBANK_ID>  (1) 
DB04971

>  <COMMON_NAME>  (1) 
Reglitazar

>  <CAS_NUMBER>  (1) 
170861-63-9

>  <UNII>  (1) 
P9UTN18JVV

>  <SYNONYMS>  (1) 
Reglitazar; Reglixane

$$$$
