
     RDKit          3D

 29 33  0  0  0  0  0  0  0  0999 V2000
    0.9017   -0.0741    0.1388 C   0  0  0  0  0  0  0  0  0  0  0  0
    0.1678   -0.9180   -0.8481 C   0  0  0  0  0  0  0  0  0  0  0  0
    0.5566   -2.2425   -1.0555 C   0  0  0  0  0  0  0  0  0  0  0  0
    0.0812   -2.9373   -2.1614 C   0  0  0  0  0  0  0  0  0  0  0  0
   -0.8638   -2.3390   -2.9853 C   0  0  0  0  0  0  0  0  0  0  0  0
   -1.3481   -3.0279   -4.0258 F   0  0  0  0  0  0  0  0  0  0  0  0
   -1.3107   -1.0406   -2.7494 C   0  0  0  0  0  0  0  0  0  0  0  0
   -0.7796   -0.3098   -1.6828 C   0  0  0  0  0  0  0  0  0  0  0  0
    0.2998    0.6847    0.8330 O   0  0  0  0  0  0  0  0  0  0  0  0
    2.4354   -0.1817    0.1806 C   0  0  0  0  0  0  0  0  0  0  0  0
    3.1670   -0.7069   -1.0841 C   0  0  0  0  0  0  0  0  0  0  0  0
    2.7757   -0.0726   -2.4574 C   0  0  0  0  0  0  0  0  0  0  0  0
    3.3065    1.2865   -2.6859 N   0  0  0  0  0  0  0  0  0  0  0  0
    2.7633    1.9523   -3.8803 C   0  0  0  0  0  0  0  0  0  0  0  0
    3.5012    3.2904   -4.0595 C   0  0  1  0  0  0  0  0  0  0  0  0
    3.0369    4.1584   -5.1344 C   0  0  0  0  0  0  0  0  0  0  0  0
    3.1682    4.1041   -6.4832 C   0  0  0  0  0  0  0  0  0  0  0  0
    2.7449    5.2505   -7.1312 C   0  0  0  0  0  0  0  0  0  0  0  0
    2.6372    6.4751   -6.4043 C   0  0  0  0  0  0  0  0  0  0  0  0
    2.8626    6.5315   -5.0185 C   0  0  0  0  0  0  0  0  0  0  0  0
    2.5287    5.3016   -4.5517 C   0  0  0  0  0  0  0  0  0  0  0  0
    1.7922    5.1221   -3.2567 N   0  0  0  0  0  0  0  0  0  0  0  0
    3.2703    4.4002   -2.8951 C   0  0  1  0  0  0  0  0  0  0  0  0
    3.6743    3.5788   -1.6542 C   0  0  0  0  0  0  0  0  0  0  0  0
    3.1041    2.1771   -1.5443 C   0  0  0  0  0  0  0  0  0  0  0  0
    0.8061    6.5840   -3.6243 C   0  0  0  0  0  0  0  0  0  0  0  0
    1.4412    7.9401   -4.3473 C   0  0  0  0  0  0  0  0  0  0  0  0
    2.8222    7.6785   -4.1131 N   0  0  0  0  0  0  0  0  0  0  0  0
    2.8306    7.5928   -2.5026 C   0  0  0  0  0  0  0  0  0  0  0  0
  1  2  1  0
  1  9  2  0
  1 10  1  0
  2  3  2  0
  2  8  1  0
  4  3  1  0
  5  4  2  0
  5  6  1  0
  7  5  1  0
  8  7  2  0
 10 11  1  0
 11 12  1  0
 12 13  1  0
 14 13  1  0
 15 14  1  1
 15 16  1  0
 15 23  1  0
 16 17  2  0
 17 18  1  0
 18 19  2  0
 19 20  1  0
 21 20  2  0
 21 16  1  0
 22 21  1  0
 23 22  1  0
 23 24  1  1
 24 25  1  0
 25 13  1  0
 26 22  1  0
 27 26  1  0
 28 27  1  0
 28 29  1  0
 28 20  1  0
M  END
>  <DRUGBANK_ID>  (1) 
DB06077

>  <COMMON_NAME>  (1) 
Lumateperone

>  <CAS_NUMBER>  (1) 
313368-91-1

>  <UNII>  (1) 
70BSQ12069

>  <SYNONYMS>  (1) 
Lumateperone

$$$$
