
     RDKit          3D

 15 15  0  0  0  0  0  0  0  0999 V2000
    1.0649   -0.0926   -0.0871 O   0  0  0  0  0  0  0  0  0  0  0  0
    0.4556    0.6170   -1.0757 C   0  0  0  0  0  0  0  0  0  0  0  0
    0.7160    0.5119   -2.4437 C   0  0  0  0  0  0  0  0  0  0  0  0
   -0.0764    1.2177   -3.3751 C   0  0  0  0  0  0  0  0  0  0  0  0
   -1.1836    1.9572   -2.9380 C   0  0  0  0  0  0  0  0  0  0  0  0
   -1.9240    2.7590   -3.8359 N   0  0  0  0  0  0  0  0  0  0  0  0
   -2.9457    3.6412   -3.6338 C   0  0  0  0  0  0  0  0  0  0  0  0
   -3.4204    4.2817   -4.5748 O   0  0  0  0  0  0  0  0  0  0  0  0
   -3.4740    3.8067   -2.4024 N   0  0  0  0  0  0  0  0  0  0  0  0
   -1.5057    1.8737   -1.5905 C   0  0  0  0  0  0  0  0  0  0  0  0
   -0.6439    1.3349   -0.6522 C   0  0  0  0  0  0  0  0  0  0  0  0
    2.4760   -0.0590   -0.0964 C   0  0  0  0  0  0  0  0  0  0  0  0
    2.9187   -0.7267    0.9921 F   0  0  0  0  0  0  0  0  0  0  0  0
    2.9745   -0.6660   -1.1914 F   0  0  0  0  0  0  0  0  0  0  0  0
    2.9285    1.2098   -0.0283 F   0  0  0  0  0  0  0  0  0  0  0  0
  1  2  1  0
  1 12  1  0
  2  3  2  0
  2 11  1  0
  3  4  1  0
  4  5  2  0
  5  6  1  0
  6  7  1  0
  7  8  2  0
  7  9  1  0
 10  5  1  0
 11 10  2  0
 12 13  1  0
 12 14  1  0
 12 15  1  0
M  END
>  <DRUGBANK_ID>  (1) 
DB15610

>  <COMMON_NAME>  (1) 
(4-(trifluoromethoxy)phenyl)urea

>  <CAS_NUMBER>  (1) 
82971-90-2

>  <UNII>  (1) 
SQP4E8O29W

$$$$
