
     RDKit          3D

 31 34  0  0  0  0  0  0  0  0999 V2000
    1.0390    0.0247    0.1177 C   0  0  0  0  0  0  0  0  0  0  0  0
    0.5200    1.3046    0.4600 O   0  0  0  0  0  0  0  0  0  0  0  0
    0.9575    1.8074    1.6557 C   0  0  0  0  0  0  0  0  0  0  0  0
    2.2720    1.6897    2.0803 C   0  0  0  0  0  0  0  0  0  0  0  0
    2.6600    2.3316    3.2462 C   0  0  0  0  0  0  0  0  0  0  0  0
    1.7390    3.1042    3.9497 C   0  0  0  0  0  0  0  0  0  0  0  0
    0.4342    3.1391    3.4710 C   0  0  0  0  0  0  0  0  0  0  0  0
    0.0307    2.5219    2.3318 N   0  0  0  0  0  0  0  0  0  0  0  0
    2.1922    3.7919    5.1582 C   0  0  0  0  0  0  0  0  0  0  0  0
    3.3384    4.4607    5.2384 C   0  0  0  0  0  0  0  0  0  0  0  0
    3.8604    5.0709    6.5749 C   0  0  0  0  0  0  0  0  0  0  0  0
    4.9972    5.8240    6.6986 C   0  0  0  0  0  0  0  0  0  0  0  0
    5.0615    7.1032    7.8501 C   0  0  0  0  0  0  0  0  0  0  0  0
    5.3159    6.2156    5.5149 N   0  0  0  0  0  0  0  0  0  0  0  0
    4.5559    7.2373    5.3722 C   0  0  0  0  0  0  0  0  0  0  0  0
    5.5111    8.1253    4.7181 N   0  0  0  0  0  0  0  0  0  0  0  0
    3.1756    7.1345    6.1509 N   0  0  0  0  0  0  0  0  0  0  0  0
    2.8732    5.8472    6.9758 C   0  0  0  0  0  0  0  0  0  0  0  0
    1.6566    4.8165    7.2919 N   0  0  0  0  0  0  0  0  0  0  0  0
    1.0785    4.4009    8.6365 C   0  0  2  0  0  0  0  0  0  0  0  0
    0.1374    5.4858    9.0730 C   0  0  0  0  0  0  0  0  0  0  0  0
   -0.5944    4.8894   10.2450 C   0  0  0  0  0  0  0  0  0  0  0  0
    0.2708    4.8550   11.5106 C   0  0  2  0  0  0  0  0  0  0  0  0
    1.1314    3.6161   11.2369 C   0  0  0  0  0  0  0  0  0  0  0  0
    1.9020    3.7897    9.8570 C   0  0  0  0  0  0  0  0  0  0  0  0
   -0.4668    4.7198   12.7254 O   0  0  0  0  0  0  0  0  0  0  0  0
   -1.8598    5.0211   12.6104 C   0  0  0  0  0  0  0  0  0  0  0  0
   -2.1785    6.5084   12.2903 C   0  0  0  0  0  0  0  0  0  0  0  0
   -1.5740    7.1583   11.1699 O   0  0  0  0  0  0  0  0  0  0  0  0
    1.4013    3.7089    6.4003 C   0  0  0  0  0  0  0  0  0  0  0  0
    0.6202    2.8124    6.5412 O   0  0  0  0  0  0  0  0  0  0  0  0
  1  2  1  0
  2  3  1  0
  3  4  2  0
  4  5  1  0
  5  6  2  0
  6  7  1  0
  6  9  1  0
  7  8  2  0
  8  3  1  0
  9 10  2  0
 10 11  1  0
 11 12  2  0
 12 13  1  0
 12 14  1  0
 14 15  2  0
 15 16  1  0
 15 17  1  0
 17 18  2  0
 18 11  1  0
 18 19  1  0
 19 30  1  0
 20 19  1  6
 20 21  1  0
 21 22  1  0
 22 23  1  0
 23 24  1  0
 23 26  1  1
 24 25  1  0
 25 20  1  0
 26 27  1  0
 27 28  1  0
 28 29  1  0
 30  9  1  0
 30 31  2  0
M  END
>  <DRUGBANK_ID>  (1) 
DB11974

>  <COMMON_NAME>  (1) 
PF-04691502

>  <CAS_NUMBER>  (1) 
1013101-36-4

>  <UNII>  (1) 
4W39NS61KI

$$$$
