
     RDKit          3D

 15 14  0  0  1  0  0  0  0  0999 V2000
    0.5681   -0.2013   -0.4677 C   0  0  0  0  0  0  0  0  0  0  0  0
    0.5920    4.2760    1.1143 C   0  0  0  0  0  0  0  0  0  0  0  0
    0.1383    1.1800   -0.0516 C   0  0  0  0  0  0  0  0  0  0  0  0
    1.5116    3.2487    1.7322 C   0  0  0  0  0  0  0  0  0  0  0  0
    4.8974    0.8926   -0.5415 C   0  0  0  0  0  0  0  0  0  0  0  0
    4.6618    0.0613    0.7594 C   0  0  1  0  0  0  0  0  0  0  0  0
    3.2407   -0.3005    1.1736 C   0  0  0  0  0  0  0  0  0  0  0  0
    5.2645   -1.2869    0.6286 N   0  0  0  0  0  0  0  0  0  0  0  0
    2.6867   -1.3560    0.9687 O   0  0  0  0  0  0  0  0  0  0  0  0
    2.6709    0.6759    1.8728 O   0  0  0  0  0  0  0  0  0  0  0  0
    2.6828    3.3896   -1.5998 O   0  0  0  0  0  0  0  0  0  0  0  0
    0.9571    2.2537   -0.5778 O   0  0  0  0  0  0  0  0  0  0  0  0
    2.6739    2.9631    0.9377 O   0  0  0  0  0  0  0  0  0  0  0  0
    4.4171    2.2537   -0.5778 O   0  0  0  0  0  0  0  0  0  0  0  0
    2.6871    2.2537   -0.5778 P   0  0  0  0  0  0  0  0  0  0  0  0
  3  1  1  0
  4  2  1  0
  6  5  1  0
  6  8  1  6
  7  6  1  0
  9  7  2  0
 10  7  1  0
 12  3  1  0
 13  4  1  0
 14  5  1  0
 15 11  2  0
 15 12  1  0
 15 13  1  0
 15 14  1  0
M  END
>  <DRUGBANK_ID>  (1) 
DB02364

>  <SECONDARY_ACCESSION_NUMBERS>  (1) 
EXPT02876

>  <COMMON_NAME>  (1) 
2-Amino-3-(Diethoxy-Phosphoryloxy)-Propionic Acid

$$$$
