
     RDKit          3D

  7  6  0  0  0  0  0  0  0  0999 V2000
   -0.6336   -0.4568   -1.8843 C   0  0  0  0  0  0  0  0  0  0  0  0
    0.2647    0.5060   -1.0754 C   0  0  2  0  0  0  0  0  0  0  0  0
    1.0406   -0.0912    0.1037 C   0  0  0  0  0  0  0  0  0  0  0  0
   -0.4710   -1.7788   -1.6771 O   0  0  0  0  0  0  0  0  0  0  0  0
   -1.4594   -0.0452   -2.6958 O   0  0  0  0  0  0  0  0  0  0  0  0
   -0.5345    1.6690   -0.6105 N   0  0  0  0  0  0  0  0  0  0  0  0
    0.0299   -1.1064    1.2403 S   0  0  0  0  0  0  0  0  0  0  0  0
  2  6  1  1
  2  3  1  0
  2  1  1  0
  4  1  1  0
  5  1  2  0
  7  3  1  0
M  END
>  <DRUGBANK_ID>  (1) 
DB00151

>  <SECONDARY_ACCESSION_NUMBERS>  (1) 
NUTR00018; DB04443; DB09485

>  <COMMON_NAME>  (1) 
Cysteine

>  <CAS_NUMBER>  (1) 
52-90-4

>  <UNII>  (1) 
K848JZ4886

>  <SYNONYMS>  (1) 
(2R)-2-amino-3-mercaptopropanoic acid; (2R)-2-amino-3-sulfanylpropanoic acid; (R)-2-Amino-3-mercaptopropanoic acid; Cisteina; Cisteinum; Cys; Cysteine; Cysteinum; Free Cysteine; L-2-Amino-3-mercaptopropionic acid; L-Cys; L-Cystein; L-cysteine; L-Zystein

$$$$
