
     RDKit          3D

  4  3  0  0  0  0  0  0  0  0999 V2000
    0.9507    0.0901   -0.0459 C   0  0  0  0  0  0  0  0  0  0  0  0
    0.4612    0.7446    1.2299 C   0  0  0  0  0  0  0  0  0  0  0  0
    0.9394    2.0913    1.3218 N   0  0  0  0  0  0  0  0  0  0  0  0
    1.3081    3.1408    1.4001 C   0  0  0  0  0  0  0  0  0  0  0  0
  1  2  1  0
  2  3  1  0
  3  4  3  0
M  CHG  1   3   1
M  END
>  <DRUGBANK_ID>  (1) 
DB03399

>  <SECONDARY_ACCESSION_NUMBERS>  (1) 
EXPT01344

>  <COMMON_NAME>  (1) 
Ethyl Isocyanide

$$$$
