
     RDKit          3D

  8  7  0  0  0  0  0  0  0  0999 V2000
    0.9580   -0.0520    0.1779 C   0  0  0  0  0  0  0  0  0  0  0  0
    0.5713    0.5080   -1.1923 C   0  0  0  0  0  0  0  0  0  0  0  0
    1.1195   -0.3149   -2.3806 C   0  0  0  0  0  0  0  0  0  0  0  0
    0.5978   -1.7633   -2.2847 C   0  0  0  0  0  0  0  0  0  0  0  0
    0.5838    0.2815   -3.6998 C   0  0  0  0  0  0  0  0  0  0  0  0
    2.6543   -0.3419   -2.4938 C   0  0  0  0  0  0  0  0  0  0  0  0
    3.3618    0.4509   -1.6645 O   0  0  0  0  0  0  0  0  0  0  0  0
    3.2421   -1.0290   -3.3243 O   0  0  0  0  0  0  0  0  0  0  0  0
  1  2  1  0
  2  3  1  0
  3  4  1  0
  3  5  1  0
  3  6  1  0
  6  7  1  0
  6  8  2  0
M  END
>  <DRUGBANK_ID>  (1) 
DB17706

>  <COMMON_NAME>  (1) 
2,2-Dimethylbutyrate

>  <CAS_NUMBER>  (1) 
595-37-9

>  <UNII>  (1) 
AY606CN05O

>  <SYNONYMS>  (1) 
2,2-dimethylbutanoic acid; 2,2-dimethylbutyric acid; Dimebutic acid

$$$$
