
     RDKit          3D

 40 44  0  0  1  0  0  0  0  0999 V2000
   -4.6053   -4.2703   -4.0350 C   0  0  0  0  0  0  0  0  0  0  0  0
   -4.6079   -2.3358   -3.9331 C   0  0  2  0  0  0  0  0  0  0  0  0
   -5.6224   -2.7932   -2.4231 C   0  0  0  0  0  0  0  0  0  0  0  0
   -6.9178   -2.4039   -2.7077 C   0  0  0  0  0  0  0  0  0  0  0  0
   -6.4732   -0.9596   -2.8125 C   0  0  2  0  0  0  0  0  0  0  0  0
   -7.7018   -0.4122   -2.2371 C   0  0  0  0  0  0  0  0  0  0  0  0
   -8.1192    0.8869   -2.7783 C   0  0  0  0  0  0  0  0  0  0  0  0
   -7.3462    1.5171   -3.9344 C   0  0  0  0  0  0  0  0  0  0  0  0
   -5.9032    1.2441   -3.8814 C   0  0  0  0  0  0  0  0  0  0  0  0
   -5.8182   -0.2410   -3.9728 C   0  0  1  0  0  0  0  0  0  0  0  0
   -4.4253   -0.3198   -3.6852 C   0  0  1  0  0  0  0  0  0  0  0  0
   -3.2555    0.4130   -2.0336 C   0  0  0  0  0  0  0  0  0  0  0  0
   -3.7105    0.5441   -0.8584 O   0  0  0  0  0  0  0  0  0  0  0  0
   -1.5909   -0.6230   -2.0197 C   0  0  0  0  0  0  0  0  0  0  0  0
   -1.4248   -1.7927   -3.1398 C   0  0  0  0  0  0  0  0  0  0  0  0
   -2.8451   -2.1922   -4.3635 C   0  0  1  0  0  0  0  0  0  0  0  0
   -2.4065   -3.4783   -4.7572 C   0  0  0  0  0  0  0  0  0  0  0  0
   -1.7941   -3.3568   -6.1008 C   0  0  0  0  0  0  0  0  0  0  0  0
   -0.7369   -3.9476   -5.3965 C   0  0  2  0  0  0  0  0  0  0  0  0
   -0.4191   -2.2777   -4.2103 C   0  0  2  0  0  0  0  0  0  0  0  0
    0.8022   -2.8203   -3.7396 C   0  0  0  0  0  0  0  0  0  0  0  0
    0.9663   -2.9894   -5.0573 C   0  0  0  0  0  0  0  0  0  0  0  0
    1.4244   -4.3278   -5.3986 C   0  0  0  0  0  0  0  0  0  0  0  0
    2.1832   -5.0325   -4.7597 O   0  0  0  0  0  0  0  0  0  0  0  0
    0.4314   -4.6978   -6.3949 C   0  0  0  0  0  0  0  0  0  0  0  0
    0.6890   -6.2084   -6.7487 C   0  0  0  0  0  0  0  0  0  0  0  0
    0.5000   -3.9683   -7.7270 C   0  0  0  0  0  0  0  0  0  0  0  0
    1.5862   -1.9076   -5.9266 C   0  0  0  0  0  0  0  0  0  0  0  0
    2.1005   -1.0101   -6.6477 N   0  0  0  0  0  0  0  0  0  0  0  0
    0.1260   -0.4624   -4.2262 C   0  0  0  0  0  0  0  0  0  0  0  0
   -2.9346   -1.2503   -5.6854 C   0  0  0  0  0  0  0  0  0  0  0  0
   -7.4616    3.0019   -3.7501 C   0  0  0  0  0  0  0  0  0  0  0  0
   -7.7934    1.0006   -5.2926 C   0  0  0  0  0  0  0  0  0  0  0  0
   -5.3182   -0.6785   -1.7642 N   0  0  0  0  0  0  0  0  0  0  0  0
   -3.8502   -1.6125   -1.9136 C   0  0  0  0  0  0  0  0  0  0  0  0
   -3.1322   -1.2394   -2.8525 O   0  0  0  0  0  0  0  0  0  0  0  0
   -3.5364   -3.0421   -1.3772 C   0  0  0  0  0  0  0  0  0  0  0  0
   -4.3818   -3.2749   -0.1011 C   0  0  0  0  0  0  0  0  0  0  0  0
   -4.0733   -3.9209   -2.2022 F   0  0  0  0  0  0  0  0  0  0  0  0
   -2.3333   -3.6576   -1.5984 F   0  0  0  0  0  0  0  0  0  0  0  0
  2  1  1  1
  2  3  1  0
  2 11  1  0
  2 16  1  0
  3  4  1  0
  4  5  1  0
  5  6  1  0
  5 10  1  0
  5 34  1  1
  6  7  1  0
  7  8  1  0
  8  9  1  0
  8 32  1  0
  8 33  1  0
 10  9  1  1
 10 11  1  0
 11 12  1  1
 12 13  2  0
 12 14  1  0
 14 15  2  0
 15 16  1  0
 15 20  1  0
 16 17  1  0
 16 31  1  6
 17 18  1  0
 19 18  1  6
 19 20  1  0
 19 25  1  0
 20 21  1  0
 20 30  1  6
 21 22  2  0
 22 23  1  0
 22 28  1  0
 23 24  2  0
 23 25  1  0
 25 26  1  0
 25 27  1  0
 28 29  3  0
 34 35  1  0
 35 36  2  0
 35 37  1  0
 37 38  1  0
 37 39  1  0
 37 40  1  0
M  END
>  <DRUGBANK_ID>  (1) 
DB12513

>  <COMMON_NAME>  (1) 
Omaveloxolone

>  <CAS_NUMBER>  (1) 
1474034-05-3

>  <UNII>  (1) 
G69Z98951Q

>  <SYNONYMS>  (1) 
Omaveloxolone; Propanamide, N-(2-cyano-3,12-dioxo-28-noroleana-1,9(11)-dien-17-yl)-2,2-difluoro-

$$$$
