SB8
     RDKit          3D

 21 22  0  0  0  0  0  0  0  0999 V2000
    1.3864   -0.1455    0.2281 C   0  0  0  0  0  0  0  0  0  0  0  0
    0.5694   -1.2610    0.4539 C   0  0  0  0  0  0  0  0  0  0  0  0
   -0.8128   -1.0755    0.6482 C   0  0  0  0  0  0  0  0  0  0  0  0
   -1.3760    0.1903    0.4376 C   0  0  0  0  0  0  0  0  0  0  0  0
   -0.5395    1.3049    0.3022 C   0  0  0  0  0  0  0  0  0  0  0  0
    0.8381    1.1328    0.1768 C   0  0  0  0  0  0  0  0  0  0  0  0
    1.0927   -2.6488    0.1706 C   0  0  0  0  0  0  0  0  0  0  0  0
    0.3539   -3.6116    0.0558 O   0  0  0  0  0  0  0  0  0  0  0  0
    2.5427   -2.8959    0.0331 C   0  0  0  0  0  0  0  0  0  0  0  0
    3.3411   -2.4860    1.0987 C   0  0  0  0  0  0  0  0  0  0  0  0
    4.6936   -2.7860    1.1087 C   0  0  0  0  0  0  0  0  0  0  0  0
    5.2439   -3.5377    0.0729 C   0  0  0  0  0  0  0  0  0  0  0  0
    4.4442   -3.9714   -0.9887 C   0  0  0  0  0  0  0  0  0  0  0  0
    3.0909   -3.6197   -1.0352 C   0  0  0  0  0  0  0  0  0  0  0  0
   -2.6874    0.4262    0.0946 O   0  0  0  0  0  0  0  0  0  0  0  0
   -3.5319   -0.6807   -0.2549 C   0  0  0  0  0  0  0  0  0  0  0  0
   -3.3207   -1.3987   -1.6157 C   0  0  0  0  0  0  0  0  0  0  0  0
   -1.9981   -1.9265   -1.8996 N   0  0  0  0  0  0  0  0  0  0  0  0
   -1.7276   -3.2501   -1.5239 O   0  0  0  0  0  0  0  0  0  0  0  0
   -0.9313   -1.1354   -2.2480 C   0  0  0  0  0  0  0  0  0  0  0  0
   -0.9828    0.0469   -2.5396 O   0  0  0  0  0  0  0  0  0  0  0  0
  1  2  2  0
  1  6  1  0
  2  3  1  0
  2  7  1  0
  3  4  2  0
  4  5  1  0
  4 15  1  0
  5  6  2  0
  7  8  2  0
  7  9  1  0
  9 10  2  0
  9 14  1  0
 10 11  1  0
 11 12  2  0
 12 13  1  0
 13 14  2  0
 15 16  1  0
 16 17  1  0
 17 18  1  0
 18 19  1  0
 18 20  1  0
 20 21  2  0
M  END
>  <DRUGBANK_ID>  (1) 
DB08524

>  <COMMON_NAME>  (1) 
2-(3-BENZOYLPHENOXY)ETHYL(HYDROXY)FORMAMIDE

$$$$
