
     RDKit          3D

 30 33  0  0  0  0  0  0  0  0999 V2000
   -0.6333   -4.9947   -5.3821 C   0  0  0  0  0  0  0  0  0  0  0  0
   -0.4975   -3.6262   -5.2379 C   0  0  0  0  0  0  0  0  0  0  0  0
   -0.8077   -3.0300   -4.0217 C   0  0  0  0  0  0  0  0  0  0  0  0
   -1.0413   -5.7592   -4.2969 C   0  0  0  0  0  0  0  0  0  0  0  0
   -1.1814   -7.1058   -4.4707 O   0  0  0  0  0  0  0  0  0  0  0  0
   -1.2904   -5.1696   -3.0435 C   0  0  0  0  0  0  0  0  0  0  0  0
   -1.1690   -3.7845   -2.8832 C   0  0  0  0  0  0  0  0  0  0  0  0
   -1.3012   -3.1081   -1.5113 C   0  0  1  0  0  0  0  0  0  0  0  0
   -1.6598   -6.0228   -1.9029 C   0  0  0  0  0  0  0  0  0  0  0  0
   -1.8042   -7.2324   -2.0704 O   0  0  0  0  0  0  0  0  0  0  0  0
   -1.8696   -5.4298   -0.5699 C   0  0  0  0  0  0  0  0  0  0  0  0
   -1.6930   -4.0464   -0.3695 C   0  0  0  0  0  0  0  0  0  0  0  0
   -1.9177   -3.5391    0.9265 C   0  0  0  0  0  0  0  0  0  0  0  0
   -2.3050   -4.3822    1.9844 C   0  0  0  0  0  0  0  0  0  0  0  0
   -2.4746   -5.7522    1.7551 C   0  0  0  0  0  0  0  0  0  0  0  0
   -2.2590   -6.2709    0.4898 C   0  0  0  0  0  0  0  0  0  0  0  0
   -2.4461   -7.6092    0.2869 O   0  0  0  0  0  0  0  0  0  0  0  0
   -2.5390   -3.8372    3.3650 C   0  0  0  0  0  0  0  0  0  0  0  0
   -3.8846   -4.0637    3.7549 O   0  0  0  0  0  0  0  0  0  0  0  0
   -0.0038   -2.2622   -1.2192 C   0  0  2  0  0  0  0  0  0  0  0  0
    0.0025   -1.1638   -2.1489 O   0  0  0  0  0  0  0  0  0  0  0  0
    1.1890   -0.3801   -2.2242 C   0  0  1  0  0  0  0  0  0  0  0  0
    2.4495   -1.2321   -2.3971 C   0  0  2  0  0  0  0  0  0  0  0  0
    2.5283   -2.3077   -1.3108 C   0  0  1  0  0  0  0  0  0  0  0  0
    1.2557   -3.1498   -1.2963 C   0  0  1  0  0  0  0  0  0  0  0  0
    1.0606    0.5731   -3.4299 C   0  0  0  0  0  0  0  0  0  0  0  0
   -0.1530    1.3185   -3.3631 O   0  0  0  0  0  0  0  0  0  0  0  0
    3.6023   -0.3897   -2.3624 O   0  0  0  0  0  0  0  0  0  0  0  0
    3.6686   -3.1478   -1.5309 O   0  0  0  0  0  0  0  0  0  0  0  0
    1.2810   -4.0767   -0.2104 O   0  0  0  0  0  0  0  0  0  0  0  0
  1  2  2  0
  2  3  1  0
  3  7  2  0
  4  1  1  0
  4  5  1  0
  6  4  2  0
  6  9  1  0
  6  7  1  0
  8  7  1  6
  8 12  1  0
  9 10  2  0
 11  9  1  0
 11 12  2  0
 12 13  1  0
 13 14  2  0
 14 15  1  0
 14 18  1  0
 15 16  2  0
 16 11  1  0
 16 17  1  0
 18 19  1  0
 20 21  1  6
 20 25  1  0
 20  8  1  0
 21 22  1  0
 22 23  1  0
 22 26  1  6
 23 24  1  0
 23 28  1  1
 24 25  1  0
 24 29  1  6
 25 30  1  1
 26 27  1  0
M  END
>  <DRUGBANK_ID>  (1) 
DB15477

>  <COMMON_NAME>  (1) 
Alloin

>  <CAS_NUMBER>  (1) 
8015-61-0

>  <UNII>  (1) 
W41H6S09F4

>  <SYNONYMS>  (1) 
Aloin; Aloin, Cape; Aloin, curaco

$$$$
