
     RDKit          3D

 31 33  0  0  1  0  0  0  0  0999 V2000
    1.2171    1.8874   -1.4090 C   0  0  0  0  0  0  0  0  0  0  0  0
   -3.1768   -2.7470   -5.6330 C   0  0  0  0  0  0  0  0  0  0  0  0
   -2.6713    1.0261   -3.7691 C   0  0  0  0  0  0  0  0  0  0  0  0
    0.3537    0.5970   -1.3648 C   0  0  2  0  0  0  0  0  0  0  0  0
   -3.1763   -0.1358   -5.3656 C   0  0  0  0  0  0  0  0  0  0  0  0
   -0.3170   -1.3991   -2.4089 C   0  0  2  0  0  0  0  0  0  0  0  0
    0.8761   -0.4176   -2.3975 C   0  0  2  0  0  0  0  0  0  0  0  0
   -3.7764   -0.6781   -6.4854 C   0  0  0  0  0  0  0  0  0  0  0  0
   -2.6118   -0.9917   -4.4407 C   0  0  0  0  0  0  0  0  0  0  0  0
   -1.5426   -0.5488   -2.2134 C   0  0  2  0  0  0  0  0  0  0  0  0
   -4.3691    0.1509   -7.4122 N   0  0  0  0  0  0  0  0  0  0  0  0
   -3.7783   -2.0206   -6.6113 N   0  0  0  0  0  0  0  0  0  0  0  0
   -2.5620   -2.3303   -4.5055 N   0  0  0  0  0  0  0  0  0  0  0  0
   -3.1083    1.1584   -4.9718 N   0  0  0  0  0  0  0  0  0  0  0  0
   -2.1649   -0.1795   -3.4516 N   0  0  0  0  0  0  0  0  0  0  0  0
   -0.4057   -2.3073   -1.2894 O   0  0  0  0  0  0  0  0  0  0  0  0
    1.8264   -0.6066    0.1285 O   0  0  0  0  0  0  0  0  0  0  0  0
    1.6378   -3.0612   -1.4876 O   0  0  0  0  0  0  0  0  0  0  0  0
    2.3606   -2.6395    0.6045 O   0  0  0  0  0  0  0  0  0  0  0  0
   -3.3322    3.5523   -3.5771 O   0  0  0  0  0  0  0  0  0  0  0  0
   -1.9117    3.5502   -0.9865 O   0  0  0  0  0  0  0  0  0  0  0  0
   -4.1006    3.5438   -1.4145 O   0  0  0  0  0  0  0  0  0  0  0  0
   -0.0516    3.5194   -4.4599 O   0  0  0  0  0  0  0  0  0  0  0  0
   -0.9906    2.4566   -2.5387 O   0  0  0  0  0  0  0  0  0  0  0  0
    1.1665    2.5571   -2.6656 O   0  0  0  0  0  0  0  0  0  0  0  0
   -1.0957    0.5845   -1.4263 O   0  0  0  0  0  0  0  0  0  0  0  0
    2.2497   -0.9468   -2.2009 O   0  0  0  0  0  0  0  0  0  0  0  0
   -1.4954    4.7415   -3.0037 O   0  0  0  0  0  0  0  0  0  0  0  0
    2.3082   -1.8401   -0.7205 P   0  0  0  0  0  0  0  0  0  0  0  0
   -2.8702    4.1095   -2.1651 P   0  0  0  0  0  0  0  0  0  0  0  0
   -0.1645    3.6493   -2.8347 P   0  0  1  0  0  0  0  0  0  0  0  0
  4  1  1  6
  6 16  1  1
  7  4  1  0
  7  6  1  0
  7 27  1  1
  8  5  2  0
  9  5  1  0
 10  6  1  0
 10 15  1  6
 11  8  1  0
 12  2  2  0
 12  8  1  0
 13  2  1  0
 13  9  2  0
 14  3  2  0
 14  5  1  0
 15  3  1  0
 15  9  1  0
 25  1  1  0
 26  4  1  0
 26 10  1  0
 29 17  1  0
 29 18  1  0
 29 19  2  0
 29 27  1  0
 30 20  1  0
 30 21  1  0
 30 22  2  0
 30 28  1  0
 31 23  1  6
 31 24  2  0
 31 25  1  0
 31 28  1  0
M  END
>  <DRUGBANK_ID>  (1) 
DB01842

>  <SECONDARY_ACCESSION_NUMBERS>  (1) 
EXPT02498

>  <COMMON_NAME>  (1) 
3'-Phosphate-Adenosine-5'-Diphosphate

$$$$
