
     RDKit          3D

 10  9  0  0  0  0  0  0  0  0999 V2000
    1.0519    0.0012    0.0649 C   0  0  0  0  0  0  0  0  0  0  0  0
    0.6190    1.4294    0.3583 C   0  0  0  0  0  0  0  0  0  0  0  0
    1.0944    2.3906   -0.7332 C   0  0  0  0  0  0  0  0  0  0  0  0
    0.5285    2.0368   -2.1133 C   0  0  0  0  0  0  0  0  0  0  0  0
   -1.0054    2.0676   -2.1397 C   0  0  0  0  0  0  0  0  0  0  0  0
   -1.5677    3.4692   -1.8560 C   0  0  0  0  0  0  0  0  0  0  0  0
   -1.0748    4.5108   -2.8826 C   0  0  0  0  0  0  0  0  0  0  0  0
   -1.5380    4.1137   -4.2899 C   0  0  0  0  0  0  0  0  0  0  0  0
   -1.5671    5.8477   -2.4933 N   0  0  0  0  0  0  0  0  0  0  0  0
   -1.0347    6.8310   -3.4153 N   0  0  0  0  0  0  0  0  0  0  0  0
  1  2  1  0
  2  3  1  0
  3  4  1  0
  4  5  1  0
  5  6  1  0
  6  7  1  0
  7  8  1  0
  7  9  1  0
  9 10  1  0
M  END
>  <DRUGBANK_ID>  (1) 
DB09249

>  <COMMON_NAME>  (1) 
Octamoxin

>  <CAS_NUMBER>  (1) 
4684-87-1

>  <UNII>  (1) 
0HXY3M6S54

>  <SYNONYMS>  (1) 
2-octylhydrazine; Octamoxin

$$$$
