1186
     RDKit          3D

 22 25  0  0  1  0  0  0  0  0999 V2000
    0.4294    1.8942    1.0819 S   0  0  0  0  0  0  0  0  0  0  0  0
    1.4102    0.1958    3.7975 N   0  0  0  0  0  0  0  0  0  0  0  0
    0.2054   -3.1584    7.0588 N   0  0  0  0  0  0  0  0  0  0  0  0
   -0.6153    1.0225    5.4713 C   0  0  1  0  0  0  0  0  0  0  0  0
    1.2201    0.7602    5.2049 C   0  0  1  0  0  0  0  0  0  0  0  0
   -1.8892    0.4708    4.0828 C   0  0  0  0  0  0  0  0  0  0  0  0
   -1.1111   -0.1683    2.7695 C   0  0  2  0  0  0  0  0  0  0  0  0
    0.0136    0.0567    3.5347 C   0  0  0  0  0  0  0  0  0  0  0  0
    2.1340   -0.1406    6.1933 C   0  0  0  0  0  0  0  0  0  0  0  0
   -0.8962    0.1710    6.6708 C   0  0  0  0  0  0  0  0  0  0  0  0
    1.2723   -1.2398    6.7108 C   0  0  0  0  0  0  0  0  0  0  0  0
   -0.1034   -0.9710    6.9320 C   0  0  0  0  0  0  0  0  0  0  0  0
    1.9296   -1.1484    3.7003 C   0  0  0  0  0  0  0  0  0  0  0  0
   -1.0028    0.6599    1.4363 C   0  0  0  0  0  0  0  0  0  0  0  0
   -0.7566   -2.1685    7.1292 C   0  0  0  0  0  0  0  0  0  0  0  0
   -2.2142    0.2523    7.0491 C   0  0  0  0  0  0  0  0  0  0  0  0
    1.4546   -2.6079    6.8280 C   0  0  0  0  0  0  0  0  0  0  0  0
    1.5372   -2.0876    2.5785 C   0  0  0  0  0  0  0  0  0  0  0  0
   -2.1568   -2.1774    7.2442 C   0  0  0  0  0  0  0  0  0  0  0  0
   -2.8546   -0.9454    7.2416 C   0  0  0  0  0  0  0  0  0  0  0  0
    1.5824   -1.3355    1.2920 C   0  0  0  0  0  0  0  0  0  0  0  0
    0.4128    3.0466    2.4924 C   0  0  0  0  0  0  0  0  0  0  0  0
  1 14  1  0
  1 22  1  0
  2  5  1  0
  2  8  1  0
  2 13  1  0
  3 15  1  0
  3 17  1  0
  4  5  1  0
  4  6  1  6
  4 10  1  0
  5  9  1  1
  6  7  1  0
  7  8  1  0
  7 14  1  6
  9 11  1  0
 10 12  2  0
 10 16  1  0
 11 12  1  0
 11 17  2  0
 12 15  1  0
 13 18  1  0
 15 19  2  0
 16 20  2  0
 18 21  1  0
 19 20  1  0
M  END
>  <DRUGBANK_ID>  (1) 
DB01186

>  <SECONDARY_ACCESSION_NUMBERS>  (1) 
APRD00663

>  <COMMON_NAME>  (1) 
Pergolide

>  <CAS_NUMBER>  (1) 
66104-22-1

>  <UNII>  (1) 
24MJ822NZ9

>  <SYNONYMS>  (1) 
Pergolida; Pergolide; Pergolidum

$$$$
