
     RDKit          3D

 22 26  0  0  1  0  0  0  0  0999 V2000
    0.5987    0.9180   -0.0322 C   0  0  0  0  0  0  0  0  0  0  0  0
    0.1320    0.6724   -1.4812 C   0  0  0  0  0  0  0  0  0  0  0  0
    0.6486   -6.5216   -6.0146 C   0  0  0  0  0  0  0  0  0  0  0  0
    0.6601   -5.4579   -6.9183 C   0  0  0  0  0  0  0  0  0  0  0  0
    0.7937   -1.5300    0.0989 C   0  0  0  0  0  0  0  0  0  0  0  0
    0.6477   -6.2931   -4.6510 C   0  0  0  0  0  0  0  0  0  0  0  0
    0.6744   -4.1241   -6.4979 C   0  0  0  0  0  0  0  0  0  0  0  0
    0.5934   -5.0907   -1.5725 C   0  0  0  0  0  0  0  0  0  0  0  0
    1.7561   -0.8920   -1.4192 C   0  0  0  0  0  0  0  0  0  0  0  0
    1.8854   -2.3518    0.4327 C   0  0  0  0  0  0  0  0  0  0  0  0
    1.5850   -4.4125   -0.6735 C   0  0  0  0  0  0  0  0  0  0  0  0
    0.3629   -0.3688   -3.7399 C   0  0  0  0  0  0  0  0  0  0  0  0
    0.6396   -4.9741   -4.2119 C   0  0  0  0  0  0  0  0  0  0  0  0
    0.5842   -4.4592   -2.9285 C   0  0  0  0  0  0  0  0  0  0  0  0
    0.6643   -3.8975   -5.1210 C   0  0  0  0  0  0  0  0  0  0  0  0
    0.7540   -1.3828   -4.7838 C   0  0  0  0  0  0  0  0  0  0  0  0
    0.4826   -3.1104   -3.0968 C   0  0  0  0  0  0  0  0  0  0  0  0
    0.3086   -2.2550   -1.9514 C   0  0  2  0  0  0  0  0  0  0  0  0
    0.5800   -0.6594   -2.2367 C   0  0  2  0  0  0  0  0  0  0  0  0
    1.4460   -3.0066   -0.8041 N   0  0  0  0  0  0  0  0  0  0  0  0
    0.6474   -2.7144   -4.3884 N   0  0  0  0  0  0  0  0  0  0  0  0
    1.0213   -1.0916   -5.9793 O   0  0  0  0  0  0  0  0  0  0  0  0
  2  1  1  0
  4  3  2  0
  6  3  1  0
  7  4  1  0
  9  5  1  0
 10  5  1  0
 11  8  1  0
 13  6  2  0
 14  8  1  0
 14 13  1  0
 15  7  2  0
 15 13  1  0
 16 12  1  0
 17 14  2  0
 18 17  1  0
 19  2  1  1
 19  9  1  0
 19 12  1  0
 19 18  1  0
 20 10  1  0
 20 11  1  0
 18 20  1  1
 21 15  1  0
 21 16  1  0
 21 17  1  0
 22 16  2  0
M  END
>  <DRUGBANK_ID>  (1) 
DB13793

>  <COMMON_NAME>  (1) 
Vinburnine

>  <CAS_NUMBER>  (1) 
4880-88-0

>  <UNII>  (1) 
G54D0HMY25

>  <SYNONYMS>  (1) 
Vinburnina

$$$$
