
     RDKit          3D

 41 44  0  0  0  0  0  0  0  0999 V2000
    2.4653    0.0000    0.0878 C   0  0  0  0  0  0  0  0  0  0  0  0
    0.9799   -0.0704    0.3959 C   0  0  0  0  0  0  0  0  0  0  0  0
    0.2711    1.1360    0.4900 C   0  0  0  0  0  0  0  0  0  0  0  0
   -1.1226    1.1637    0.3826 C   0  0  0  0  0  0  0  0  0  0  0  0
   -1.8386   -0.0251    0.3435 C   0  0  0  0  0  0  0  0  0  0  0  0
   -1.1620   -1.2424    0.4423 C   0  0  0  0  0  0  0  0  0  0  0  0
    0.2493   -1.2962    0.3966 C   0  0  0  0  0  0  0  0  0  0  0  0
    0.9248   -2.5986    0.1356 C   0  0  0  0  0  0  0  0  0  0  0  0
    1.8423   -2.9488    1.1399 C   0  0  0  0  0  0  0  0  0  0  0  0
    2.5869   -4.1095    1.0927 C   0  0  0  0  0  0  0  0  0  0  0  0
    2.4859   -4.9413    0.0562 N   0  0  0  0  0  0  0  0  0  0  0  0
    1.5843   -4.6230   -0.9136 C   0  0  0  0  0  0  0  0  0  0  0  0
    0.7583   -3.4891   -0.9757 C   0  0  0  0  0  0  0  0  0  0  0  0
   -0.1788   -3.3147   -2.1233 N   0  0  0  0  0  0  0  0  0  0  0  0
   -0.1977   -4.3131   -3.1755 C   0  0  0  0  0  0  0  0  0  0  0  0
   -0.6108   -2.0436   -2.4545 C   0  0  0  0  0  0  0  0  0  0  0  0
    0.1073   -1.1412   -2.0128 O   0  0  0  0  0  0  0  0  0  0  0  0
   -1.7351   -1.6089   -3.4552 C   0  0  0  0  0  0  0  0  0  0  0  0
   -3.1270   -2.1164   -3.0242 C   0  0  0  0  0  0  0  0  0  0  0  0
   -1.3583   -2.1814   -4.8288 C   0  0  0  0  0  0  0  0  0  0  0  0
   -1.8053   -0.0357   -3.6464 C   0  0  0  0  0  0  0  0  0  0  0  0
   -1.0347    0.9129   -2.9335 C   0  0  0  0  0  0  0  0  0  0  0  0
   -1.0502    2.2932   -3.1279 C   0  0  0  0  0  0  0  0  0  0  0  0
   -1.8805    2.7840   -4.1029 C   0  0  0  0  0  0  0  0  0  0  0  0
   -2.6522    1.9030   -4.8658 C   0  0  0  0  0  0  0  0  0  0  0  0
   -2.6282    0.5137   -4.6283 C   0  0  0  0  0  0  0  0  0  0  0  0
   -3.4935    2.4510   -5.9718 C   0  0  0  0  0  0  0  0  0  0  0  0
   -3.1325    1.9499   -7.1820 F   0  0  0  0  0  0  0  0  0  0  0  0
   -4.8079    2.1573   -5.8027 F   0  0  0  0  0  0  0  0  0  0  0  0
   -3.4108    3.8045   -6.0779 F   0  0  0  0  0  0  0  0  0  0  0  0
   -0.1842    3.2133   -2.3115 C   0  0  0  0  0  0  0  0  0  0  0  0
    0.5351    4.0736   -3.0804 F   0  0  0  0  0  0  0  0  0  0  0  0
   -0.9174    3.9847   -1.4609 F   0  0  0  0  0  0  0  0  0  0  0  0
    0.7485    2.5884   -1.5566 F   0  0  0  0  0  0  0  0  0  0  0  0
    3.4386   -4.3742    2.1271 N   0  0  0  0  0  0  0  0  0  0  0  0
    2.9242   -4.5326    3.4839 C   0  0  0  0  0  0  0  0  0  0  0  0
    3.8429   -3.7780    4.4649 C   0  0  0  0  0  0  0  0  0  0  0  0
    5.2451   -4.2381    4.3375 N   0  0  0  0  0  0  0  0  0  0  0  0
    5.6974   -3.9685    2.9488 C   0  0  0  0  0  0  0  0  0  0  0  0
    4.8322   -4.7183    1.8985 C   0  0  0  0  0  0  0  0  0  0  0  0
    6.0993   -3.5725    5.3108 C   0  0  0  0  0  0  0  0  0  0  0  0
  1  2  1  0
  2  3  2  0
  2  7  1  0
  3  4  1  0
  4  5  2  0
  5  6  1  0
  6  7  2  0
  7  8  1  0
  8  9  2  0
  8 13  1  0
  9 10  1  0
 10 11  2  0
 10 35  1  0
 11 12  1  0
 12 13  2  0
 13 14  1  0
 14 15  1  0
 14 16  1  0
 16 17  2  0
 16 18  1  0
 18 19  1  0
 18 20  1  0
 18 21  1  0
 21 22  2  0
 21 26  1  0
 22 23  1  0
 23 24  2  0
 23 31  1  0
 24 25  1  0
 25 26  2  0
 25 27  1  0
 27 28  1  0
 27 29  1  0
 27 30  1  0
 31 32  1  0
 31 33  1  0
 31 34  1  0
 35 36  1  0
 35 40  1  0
 36 37  1  0
 37 38  1  0
 38 39  1  0
 38 41  1  0
 39 40  1  0
M  END
>  <DRUGBANK_ID>  (1) 
DB09048

>  <COMMON_NAME>  (1) 
Netupitant

>  <CAS_NUMBER>  (1) 
290297-26-6

>  <UNII>  (1) 
7732P08TIR

>  <SYNONYMS>  (1) 
2-[3,5-Bis(trifluoromethyl)phenyl]-N,2-dimethyl-N-[4-(2-methylphenyl)-6-(4-methyl-1-piperazinyl)-3-pyridinyl]propanamide; Netupitant

$$$$
