PRD
     RDKit          3D

 25 27  0  0  0  0  0  0  0  0999 V2000
   -0.0248    0.6330   -0.2331 C   0  0  0  0  0  0  0  0  0  0  0  0
   -0.0642   -0.7586   -0.0814 C   0  0  0  0  0  0  0  0  0  0  0  0
   -1.2259   -1.3908    0.0492 N   0  0  0  0  0  0  0  0  0  0  0  0
    1.0991   -1.4265   -0.1132 N   0  0  0  0  0  0  0  0  0  0  0  0
    2.2987   -0.7682   -0.3365 C   0  0  0  0  0  0  0  0  0  0  0  0
    2.4698    0.6074   -0.5807 C   0  0  0  0  0  0  0  0  0  0  0  0
    3.7072    1.3183   -0.6389 N   0  0  0  0  0  0  0  0  0  0  0  0
    3.8475    2.8386   -0.6478 C   0  0  0  0  0  0  0  0  0  0  0  0
    1.2224    1.2527   -0.5386 C   0  0  0  0  0  0  0  0  0  0  0  0
   -1.2467    1.2963   -0.0661 C   0  0  0  0  0  0  0  0  0  0  0  0
   -1.3204    2.6941   -0.1897 N   0  0  0  0  0  0  0  0  0  0  0  0
   -2.4105    0.6591    0.0551 N   0  0  0  0  0  0  0  0  0  0  0  0
   -2.3628   -0.6835    0.0564 C   0  0  0  0  0  0  0  0  0  0  0  0
   -3.5473   -1.3539    0.0339 N   0  0  0  0  0  0  0  0  0  0  0  0
    4.9495    0.6491   -0.1569 C   0  0  0  0  0  0  0  0  0  0  0  0
    4.9584   -0.0745    1.1952 C   0  0  0  0  0  0  0  0  0  0  0  0
    4.0127   -0.0251    2.2373 C   0  0  0  0  0  0  0  0  0  0  0  0
    4.0616   -0.9859    3.2524 C   0  0  0  0  0  0  0  0  0  0  0  0
    4.9679   -2.0374    3.2199 C   0  0  0  0  0  0  0  0  0  0  0  0
    6.0244   -2.0050    2.3240 C   0  0  0  0  0  0  0  0  0  0  0  0
    6.0378   -1.0051    1.3459 C   0  0  0  0  0  0  0  0  0  0  0  0
    2.8820    0.7296    2.4025 O   0  0  0  0  0  0  0  0  0  0  0  0
    2.9313    2.0691    2.0059 C   0  0  0  0  0  0  0  0  0  0  0  0
    6.9548   -2.9941    2.4886 O   0  0  0  0  0  0  0  0  0  0  0  0
    8.1467   -2.8939    1.7179 C   0  0  0  0  0  0  0  0  0  0  0  0
  1  2  1  0
  1  9  1  0
  1 10  2  0
  2  3  2  0
  2  4  1  0
  3 13  1  0
  4  5  2  0
  5  6  1  0
  6  7  1  0
  6  9  2  0
  7  8  1  0
  7 15  1  0
 10 11  1  0
 10 12  1  0
 12 13  2  0
 13 14  1  0
 15 16  1  0
 16 17  2  0
 16 21  1  0
 17 18  1  0
 17 22  1  0
 18 19  2  0
 19 20  1  0
 20 21  2  0
 20 24  1  0
 22 23  1  0
 24 25  1  0
M  END
>  <DRUGBANK_ID>  (1) 
DB02583

>  <SECONDARY_ACCESSION_NUMBERS>  (1) 
EXPT02658

>  <COMMON_NAME>  (1) 
N6-(2,5-Dimethoxy-Benzyl)-N6-Methyl-Pyrido[2,3-D]Pyrimidine-2,4,6-Triamine

>  <CAS_NUMBER>  (1) 
175354-76-4

$$$$
