
     RDKit          3D

 37 39  0  0  0  0  0  0  0  0999 V2000
   -1.4187    1.2691    0.1199 O   0  0  0  0  0  0  0  0  0  0  0  0
    0.2101    2.0810   -1.5146 O   0  0  0  0  0  0  0  0  0  0  0  0
   -1.1527   -1.4477    0.9142 O   0  0  0  0  0  0  0  0  0  0  0  0
    1.4357   -1.7186   -0.1755 O   0  0  0  0  0  0  0  0  0  0  0  0
    2.2592    1.0513    0.1365 O   0  0  0  0  0  0  0  0  0  0  0  0
   -3.9952    1.0554   -1.0525 O   0  0  0  0  0  0  0  0  0  0  0  0
   -3.6377    6.6858   -1.4900 O   0  0  0  0  0  0  0  0  0  0  0  0
    0.7046    4.8534   -5.6069 O   0  0  0  0  0  0  0  0  0  0  0  0
   -0.6813    6.5339   -5.3239 O   0  0  0  0  0  0  0  0  0  0  0  0
   -3.6409    4.1951    3.7071 N   0  0  0  0  0  0  0  0  0  0  0  0
   -6.2530    5.2734    2.5511 N   0  0  0  0  0  0  0  0  0  0  0  0
   -2.7816    5.6109    0.2580 N   0  0  0  0  0  0  0  0  0  0  0  0
   -8.1230    3.3290    5.2594 N   0  0  0  0  0  0  0  0  0  0  0  0
   -0.2151    5.4279   -5.0167 N   0  0  0  0  0  0  0  0  0  0  0  0
   -0.8821   -1.0146   -0.4301 C   0  0  2  0  0  0  0  0  0  0  0  0
    0.6012   -0.6226   -0.5461 C   0  0  1  0  0  0  0  0  0  0  0  0
   -1.7502    0.1925   -0.7847 C   0  0  1  0  0  0  0  0  0  0  0  0
    0.9090    0.6182    0.3089 C   0  0  2  0  0  0  0  0  0  0  0  0
   -4.2759    3.7176    2.4857 C   0  0  0  0  0  0  0  0  0  0  0  0
   -4.6991    4.7203    4.5185 C   0  0  0  0  0  0  0  0  0  0  0  0
   -5.0665    4.8804    1.8061 C   0  0  0  0  0  0  0  0  0  0  0  0
   -5.7840    5.6681    3.9005 C   0  0  0  0  0  0  0  0  0  0  0  0
   -0.0690    1.7343   -0.1126 C   0  0  2  0  0  0  0  0  0  0  0  0
   -2.6057    5.1604    3.4382 C   0  0  0  0  0  0  0  0  0  0  0  0
   -7.2957    4.2550    2.3988 C   0  0  0  0  0  0  0  0  0  0  0  0
   -3.2458   -0.1091   -0.7007 C   0  0  0  0  0  0  0  0  0  0  0  0
   -1.7402    4.6163    2.3257 C   0  0  0  0  0  0  0  0  0  0  0  0
   -7.1324    2.8457    3.0017 C   0  0  0  0  0  0  0  0  0  0  0  0
   -2.3584    4.4239    0.9494 C   0  0  0  0  0  0  0  0  0  0  0  0
   -7.0164    2.7594    4.5222 C   0  0  0  0  0  0  0  0  0  0  0  0
   -0.4604    3.1116   -2.1057 C   0  0  0  0  0  0  0  0  0  0  0  0
   -1.5670    3.6964   -1.5662 C   0  0  0  0  0  0  0  0  0  0  0  0
   -2.1118    4.9230   -1.9528 C   0  0  0  0  0  0  0  0  0  0  0  0
   -2.9226    5.7483   -1.0698 C   0  0  0  0  0  0  0  0  0  0  0  0
   -0.1272    3.5922   -3.3478 C   0  0  0  0  0  0  0  0  0  0  0  0
   -0.7461    4.7799   -3.8347 C   0  0  0  0  0  0  0  0  0  0  0  0
   -1.7411    5.4580   -3.1446 C   0  0  0  0  0  0  0  0  0  0  0  0
  1 17  1  0
  1 23  1  0
  2 31  1  0
  6 26  1  0
  7 34  2  0
  8 14  1  0
  9 14  2  0
 10 19  1  0
 10 20  1  0
 10 24  1  0
 11 21  1  0
 11 22  1  0
 11 25  1  0
 12 29  1  0
 12 34  1  0
 13 30  1  0
 14 36  1  0
 15  3  1  1
 15 16  1  0
 15 17  1  0
 16  4  1  1
 16 18  1  0
 17 26  1  1
 18  5  1  6
 18 23  1  0
 19 21  1  0
 20 22  1  0
 23  2  1  6
 24 27  1  0
 25 28  1  0
 27 29  1  0
 28 30  1  0
 31 32  2  0
 31 35  1  0
 32 33  1  0
 33 34  1  0
 33 37  2  0
 35 36  2  0
 36 37  1  0
M  CHG  2   8  -1  14   1
M  END
>  <DRUGBANK_ID>  (1) 
DB03235

>  <SECONDARY_ACCESSION_NUMBERS>  (1) 
EXPT01954

>  <COMMON_NAME>  (1) 
N-{3-[4-(3-aminopropyl)piperazin-1-yl]propyl}-3-(alpha-D-galactopyranosyloxy)-5-nitrobenzamide

$$$$
