
     RDKit          3D

 32 36  0  0  0  0  0  0  0  0999 V2000
   -1.2129    0.2587    0.3046 O   0  0  0  0  0  0  0  0  0  0  0  0
    6.2340   -3.6489   -6.0751 O   0  0  0  0  0  0  0  0  0  0  0  0
    2.8271   -0.5334   -3.9240 C   0  0  1  0  0  0  0  0  0  0  0  0
    1.1509   -0.5669   -3.6359 C   0  0  2  0  0  0  0  0  0  0  0  0
    0.7342    0.5156   -2.3969 C   0  0  1  0  0  0  0  0  0  0  0  0
    3.8657   -1.7908   -4.5289 C   0  0  1  0  0  0  0  0  0  0  0  0
    0.8153    2.2350   -2.0025 C   0  0  2  0  0  0  0  0  0  0  0  0
    3.4433    0.7520   -3.3013 C   0  0  0  0  0  0  0  0  0  0  0  0
    2.5702    2.1452   -2.7390 C   0  0  0  0  0  0  0  0  0  0  0  0
   -0.2105    2.6730   -0.4358 C   0  0  0  0  0  0  0  0  0  0  0  0
    0.6502   -2.3092   -3.0162 C   0  0  0  0  0  0  0  0  0  0  0  0
    3.0973   -3.5284   -4.7384 C   0  0  0  0  0  0  0  0  0  0  0  0
   -0.8009    0.2889   -2.5799 C   0  0  0  0  0  0  0  0  0  0  0  0
    4.1168   -1.6382   -5.9490 C   0  0  0  0  0  0  0  0  0  0  0  0
    1.5893   -3.7268   -3.7656 C   0  0  0  0  0  0  0  0  0  0  0  0
    4.2155   -3.5063   -7.3819 C   0  0  2  0  0  0  0  0  0  0  0  0
    2.8351   -1.5818   -2.9488 C   0  0  0  0  0  0  0  0  0  0  0  0
    3.4324   -4.2575   -6.0027 C   0  0  0  0  0  0  0  0  0  0  0  0
   -0.9097    1.3509   -0.5404 C   0  0  2  0  0  0  0  0  0  0  0  0
    1.6170    0.1834   -1.0240 C   0  0  0  0  0  0  0  0  0  0  0  0
    5.0314   -2.8412   -6.3186 C   0  0  2  0  0  0  0  0  0  0  0  0
   -1.5802    1.3178   -1.8773 C   0  0  0  0  0  0  0  0  0  0  0  0
    5.2909   -1.7092   -3.7655 C   0  0  0  0  0  0  0  0  0  0  0  0
    2.8824   -5.5498   -6.6668 C   0  0  0  0  0  0  0  0  0  0  0  0
    2.9735   -2.9163   -8.1675 C   0  0  0  0  0  0  0  0  0  0  0  0
   -1.6796    3.6435   -0.0249 C   0  0  0  0  0  0  0  0  0  0  0  0
   -0.2576    2.5536    1.3723 C   0  0  0  0  0  0  0  0  0  0  0  0
    1.7007   -5.1542   -7.6324 C   0  0  0  0  0  0  0  0  0  0  0  0
    1.6944   -3.6191   -7.8052 C   0  0  0  0  0  0  0  0  0  0  0  0
    5.3688   -2.8588   -8.3590 C   0  0  0  0  0  0  0  0  0  0  0  0
    1.5914   -5.9742   -8.9525 C   0  0  0  0  0  0  0  0  0  0  0  0
    0.3632   -5.3643   -6.9027 C   0  0  0  0  0  0  0  0  0  0  0  0
  3  4  1  0
  3  6  1  0
  3  8  1  0
  3 17  1  6
  4  5  1  0
  4 11  1  1
  5  7  1  0
  5 13  1  0
  5 20  1  1
  6 12  1  0
  6 14  1  0
  6 23  1  1
  7  9  1  1
  7 10  1  0
  8  9  1  0
 10 19  1  0
 10 26  1  0
 10 27  1  0
 11 15  1  0
 12 15  1  0
 12 18  2  0
 13 22  1  0
 14 21  1  0
 16 18  1  0
 16 21  1  0
 16 25  1  0
 16 30  1  6
 18 24  1  0
 19 22  1  0
 19  1  1  1
 21  2  1  1
 24 28  1  0
 25 29  1  0
 28 29  1  0
 28 31  1  0
 28 32  1  0
M  END
>  <DRUGBANK_ID>  (1) 
DB14555

>  <COMMON_NAME>  (1) 
Ursadiol

>  <CAS_NUMBER>  (1) 
37384-13-7

>  <UNII>  (1) 
3D089V7L0K

>  <SYNONYMS>  (1) 
Coflodiol

$$$$
