
     RDKit          3D

 37 38  0  0  0  0  0  0  0  0999 V2000
    1.0531    0.6495   -1.3489 C   0  0  0  0  0  0  0  0  0  0  0  0
    0.0830   -0.8870   -0.2456 C   0  0  0  0  0  0  0  0  0  0  0  0
    0.4598   -0.8093    1.8254 C   0  0  0  0  0  0  0  0  0  0  0  0
    0.1295   -0.1356    3.0479 C   0  0  0  0  0  0  0  0  0  0  0  0
   -0.0322   -0.8465    4.3383 C   0  0  0  0  0  0  0  0  0  0  0  0
   -0.1488    0.0879    5.2824 C   0  0  0  0  0  0  0  0  0  0  0  0
    0.0436    1.4528    4.9249 C   0  0  0  0  0  0  0  0  0  0  0  0
    0.4078    1.9307    3.6603 C   0  0  0  0  0  0  0  0  0  0  0  0
    0.2551    1.1270    2.6659 C   0  0  0  0  0  0  0  0  0  0  0  0
    0.2725    1.6441    1.4603 O   0  0  0  0  0  0  0  0  0  0  0  0
    0.2470    0.8773    0.4193 C   0  0  0  0  0  0  0  0  0  0  0  0
    1.9641   -0.4491   -0.0542 C   0  0  0  0  0  0  0  0  0  0  0  0
    1.8022   -1.7457    0.4390 C   0  0  0  0  0  0  0  0  0  0  0  0
    0.1892   -3.0446    0.1178 C   0  0  0  0  0  0  0  0  0  0  0  0
    0.0330   -4.2359    0.4411 O   0  0  0  0  0  0  0  0  0  0  0  0
   -1.3411   -2.6820   -0.1089 O   0  0  0  0  0  0  0  0  0  0  0  0
    0.9496    3.2256    3.2452 C   0  0  0  0  0  0  0  0  0  0  0  0
    1.4301    3.4953    2.1458 O   0  0  0  0  0  0  0  0  0  0  0  0
    0.9593    4.1695    4.3466 C   0  0  0  0  0  0  0  0  0  0  0  0
   -0.2637   -2.1989    4.6983 O   0  0  0  0  0  0  0  0  0  0  0  0
   -0.4488   -3.4305    3.8926 C   0  0  0  0  0  0  0  0  0  0  0  0
   -1.4602   -3.3582    2.7663 C   0  0  0  0  0  0  0  0  0  0  0  0
   -0.9313   -2.2758    2.0481 C   0  0  0  0  0  0  0  0  0  0  0  0
    1.2607   -3.1460    2.0909 S   0  0  0  0  0  0  0  0  0  0  0  0
    2.8142   -2.4811    2.6259 C   0  0  0  0  0  0  0  0  0  0  0  0
    3.2657   -1.1900    3.1522 C   0  0  0  0  0  0  0  0  0  0  0  0
    3.7473   -1.2199    4.3822 C   0  0  0  0  0  0  0  0  0  0  0  0
    3.7912   -2.5260    4.8715 C   0  0  0  0  0  0  0  0  0  0  0  0
    3.2460   -3.7251    4.2638 C   0  0  0  0  0  0  0  0  0  0  0  0
    2.9485   -3.7874    2.9645 C   0  0  0  0  0  0  0  0  0  0  0  0
    2.3502   -5.1314    2.0362 C   0  0  0  0  0  0  0  0  0  0  0  0
    3.5564   -5.5847    1.3870 C   0  0  0  0  0  0  0  0  0  0  0  0
    4.2274   -6.0368    2.6177 C   0  0  0  0  0  0  0  0  0  0  0  0
    2.9196   -4.8554    4.9245 O   0  0  0  0  0  0  0  0  0  0  0  0
    4.7422   -2.7749    5.9032 C   0  0  0  0  0  0  0  0  0  0  0  0
    4.9599   -3.9414    6.2035 O   0  0  0  0  0  0  0  0  0  0  0  0
    5.4358   -1.5790    6.4410 C   0  0  0  0  0  0  0  0  0  0  0  0
  1  2  1  0
  2  3  1  0
  3  4  1  0
  4  5  2  0
  4  9  1  0
  5  6  1  0
  5 20  1  0
  6  7  2  0
  7  8  1  0
  8  9  2  0
  8 17  1  0
  9 10  1  0
 10 11  1  0
 11 12  1  0
 12 13  1  0
 13 14  1  0
 14 15  2  0
 14 16  1  0
 17 18  2  0
 17 19  1  0
 20 21  1  0
 21 22  1  0
 22 23  1  0
 23 24  1  0
 24 25  1  0
 25 26  2  0
 25 30  1  0
 26 27  1  0
 27 28  2  0
 28 29  1  0
 28 35  1  0
 29 30  2  0
 29 34  1  0
 30 31  1  0
 31 32  1  0
 32 33  1  0
 35 36  2  0
 35 37  1  0
M  END
>  <DRUGBANK_ID>  (1) 
DB12435

>  <COMMON_NAME>  (1) 
Tipelukast

>  <CAS_NUMBER>  (1) 
125961-82-2

>  <UNII>  (1) 
08379P260O

>  <SYNONYMS>  (1) 
Tipelukast

$$$$
