
     RDKit          3D

 31 36  0  0  0  0  0  0  0  0999 V2000
    0.3412    1.0227   -0.1648 C   0  0  0  0  0  0  0  0  0  0  0  0
   -1.0017    0.3214    0.1645 C   0  0  0  0  0  0  0  0  0  0  0  0
   -0.3127   -1.0050   -0.2434 C   0  0  0  0  0  0  0  0  0  0  0  0
    1.0170   -0.3322    0.1655 C   0  0  0  0  0  0  0  0  0  0  0  0
   -1.6624    0.5403    1.5544 C   0  0  0  0  0  0  0  0  0  0  0  0
   -2.0392    1.8376    1.9472 C   0  0  0  0  0  0  0  0  0  0  0  0
   -2.7766    2.0636    3.0995 C   0  0  0  0  0  0  0  0  0  0  0  0
   -3.1636    0.9952    3.9203 C   0  0  0  0  0  0  0  0  0  0  0  0
   -3.9580    1.2305    5.1341 C   0  0  0  0  0  0  0  0  0  0  0  0
   -3.3649    0.8208    6.2902 N   0  0  0  0  0  0  0  0  0  0  0  0
   -4.0159    1.0778    7.4464 C   0  0  0  0  0  0  0  0  0  0  0  0
   -3.3433    0.6549    8.6798 C   0  0  0  0  0  0  0  0  0  0  0  0
   -3.9337    0.8748    9.8634 C   0  0  0  0  0  0  0  0  0  0  0  0
   -5.1539    1.4908    9.9154 N   0  0  0  0  0  0  0  0  0  0  0  0
   -5.8547    1.9257    8.8276 C   0  0  0  0  0  0  0  0  0  0  0  0
   -5.2544    1.7157    7.5045 C   0  0  0  0  0  0  0  0  0  0  0  0
   -5.8602    2.1138    6.3197 C   0  0  0  0  0  0  0  0  0  0  0  0
   -5.2118    1.8714    5.0971 C   0  0  0  0  0  0  0  0  0  0  0  0
   -5.8497    2.2642    3.8346 C   0  0  0  0  0  0  0  0  0  0  0  0
   -6.1598    1.3036    2.8559 C   0  0  0  0  0  0  0  0  0  0  0  0
   -6.7552    1.6763    1.6537 C   0  0  0  0  0  0  0  0  0  0  0  0
   -7.0775    3.0115    1.4290 C   0  0  0  0  0  0  0  0  0  0  0  0
   -6.7876    3.9744    2.3943 C   0  0  0  0  0  0  0  0  0  0  0  0
   -6.1325    3.6105    3.5688 C   0  0  0  0  0  0  0  0  0  0  0  0
   -6.9973    2.4873    9.1047 N   0  0  0  0  0  0  0  0  0  0  0  0
   -7.0620    2.4206   10.4808 N   0  0  0  0  0  0  0  0  0  0  0  0
   -5.9242    1.8046   11.0077 C   0  0  0  0  0  0  0  0  0  0  0  0
   -5.6964    1.6041   12.1960 O   0  0  0  0  0  0  0  0  0  0  0  0
   -2.8121   -0.3022    3.5320 C   0  0  0  0  0  0  0  0  0  0  0  0
   -2.0298   -0.5168    2.3999 C   0  0  0  0  0  0  0  0  0  0  0  0
   -2.0093    0.6396   -0.8509 N   0  0  0  0  0  0  0  0  0  0  0  0
  1  4  1  0
  2  1  1  0
  2  3  1  0
  2 31  1  0
  4  3  1  0
  5  2  1  0
  5 30  1  0
  6  5  2  0
  7  6  1  0
  8  7  2  0
  8 29  1  0
  9  8  1  0
  9 18  1  0
 10  9  2  0
 10 11  1  0
 12 11  1  0
 13 12  2  0
 14 13  1  0
 14 27  1  0
 15 14  1  0
 15 25  2  0
 16 15  1  0
 16 11  2  0
 17 16  1  0
 18 17  2  0
 18 19  1  0
 19 20  2  0
 19 24  1  0
 20 21  1  0
 21 22  2  0
 22 23  1  0
 23 24  2  0
 26 25  1  0
 26 27  1  0
 27 28  2  0
 30 29  2  0
M  END
>  <DRUGBANK_ID>  (1) 
DB16828

>  <COMMON_NAME>  (1) 
MK-2206

>  <CAS_NUMBER>  (1) 
1032349-93-1

>  <UNII>  (1) 
51HZG6MP1K

>  <SYNONYMS>  (1) 
1,2,4-Triazolo(3,4-f)(1,6)naphthyridin-3(2H)-one, 8-(4-(1-aminocyclobutyl)phenyl)-9-phenyl-; 8-(4-(1-aminocyclobutyl)phenyl)-9-phenyl-[1,2,4]triazolo[3,4-f][1,6]naphthyridin-3(2H)-one; MK-2206 free base

$$$$
