ChEBI
     RDKit          3D

 14 13  0  0  1  0  0  0  0  0999 V2000
   -0.6995   -0.2176   -1.8992 C   0  0  0  0  0  0  0  0  0  0  0  0
    0.4485    0.5813   -2.5766 C   0  0  1  0  0  0  0  0  0  0  0  0
    1.0253    1.7828   -1.7662 C   0  0  2  0  0  0  0  0  0  0  0  0
    0.6968    1.6983   -0.2919 C   0  0  0  0  0  0  0  0  0  0  0  0
   -0.3363   -1.1813   -0.7585 C   0  0  0  0  0  0  0  0  0  0  0  0
   -0.1453   -2.3719   -0.8831 O   0  0  0  0  0  0  0  0  0  0  0  0
   -0.2002   -0.6016    0.4508 O   0  0  0  0  0  0  0  0  0  0  0  0
    1.5014   -0.3744   -3.1001 C   0  0  0  0  0  0  0  0  0  0  0  0
    1.8082   -0.5113   -4.2710 O   0  0  0  0  0  0  0  0  0  0  0  0
    2.0951   -1.1051   -2.1414 O   0  0  0  0  0  0  0  0  0  0  0  0
    0.4760    3.1468   -2.2340 C   0  0  0  0  0  0  0  0  0  0  0  0
    1.1392    4.1215   -2.5317 O   0  0  0  0  0  0  0  0  0  0  0  0
   -0.8745    3.2144   -2.2314 O   0  0  0  0  0  0  0  0  0  0  0  0
    2.4587    1.7945   -1.8067 O   0  0  0  0  0  0  0  0  0  0  0  0
  2  1  1  1
  3 11  1  0
  3 14  1  0
  3  4  1  1
  3  2  1  0
  5  1  1  0
  6  5  2  0
  7  5  1  0
  8  2  1  0
  9  8  2  0
 10  8  1  0
 12 11  2  0
 13 11  1  0
M  END
>  <DRUGBANK_ID>  (1) 
DB04072

>  <SECONDARY_ACCESSION_NUMBERS>  (1) 
EXPT02174

>  <COMMON_NAME>  (1) 
Alpha-Methylisocitric Acid

$$$$
