L09
     RDKit          3D

 28 30  0  0  0  0  0  0  0  0999 V2000
    1.0261    0.0297   -0.0274 C   0  0  0  0  0  0  0  0  0  0  0  0
    0.4407    1.2614   -0.7717 C   0  0  0  0  0  0  0  0  0  0  0  0
    1.0405    1.2695   -2.1783 C   0  0  0  0  0  0  0  0  0  0  0  0
   -1.0877    1.1460   -0.7634 C   0  0  0  0  0  0  0  0  0  0  0  0
    0.6580    2.5689   -0.0668 C   0  0  0  0  0  0  0  0  0  0  0  0
    0.4868    3.9280   -0.5005 C   0  0  0  0  0  0  0  0  0  0  0  0
    0.7684    4.6765    0.6208 C   0  0  0  0  0  0  0  0  0  0  0  0
    1.0157    6.0282    0.7332 N   0  0  0  0  0  0  0  0  0  0  0  0
    1.6522    6.7572    1.8027 C   0  0  0  0  0  0  0  0  0  0  0  0
    1.4452    7.9432    1.8120 O   0  0  0  0  0  0  0  0  0  0  0  0
    2.4027    6.1373    2.7914 N   0  0  0  0  0  0  0  0  0  0  0  0
    2.9264    4.8393    2.8762 C   0  0  0  0  0  0  0  0  0  0  0  0
    3.4809    4.2109    1.7516 C   0  0  0  0  0  0  0  0  0  0  0  0
    3.5553    2.8087    1.6929 C   0  0  0  0  0  0  0  0  0  0  0  0
    3.1046    2.0226    2.7633 C   0  0  0  0  0  0  0  0  0  0  0  0
    3.1985    0.3053    2.6047 Cl  0  0  0  0  0  0  0  0  0  0  0  0
    2.6427    2.6458    3.9454 C   0  0  0  0  0  0  0  0  0  0  0  0
    2.4616    1.8315    5.2041 C   0  0  0  0  0  0  0  0  0  0  0  0
    3.4289    2.2054    6.2071 O   0  0  0  0  0  0  0  0  0  0  0  0
    4.7518    2.0716    5.8722 C   0  0  0  0  0  0  0  0  0  0  0  0
    5.3560    2.5502    4.7114 C   0  0  0  0  0  0  0  0  0  0  0  0
    6.6966    2.3975    4.4290 C   0  0  0  0  0  0  0  0  0  0  0  0
    7.4641    1.8539    5.4194 C   0  0  0  0  0  0  0  0  0  0  0  0
    6.9637    1.4354    6.6056 N   0  0  0  0  0  0  0  0  0  0  0  0
    5.6210    1.5451    6.8004 C   0  0  0  0  0  0  0  0  0  0  0  0
    2.5876    4.0713    4.0114 C   0  0  0  0  0  0  0  0  0  0  0  0
    0.7029    3.7755    1.6300 N   0  0  0  0  0  0  0  0  0  0  0  0
    0.7070    2.5119    1.2583 N   0  0  0  0  0  0  0  0  0  0  0  0
  1  2  1  0
  2  3  1  0
  2  4  1  0
  2  5  1  0
  5  6  1  0
  5 28  2  0
  6  7  2  0
  7  8  1  0
  7 27  1  0
  8  9  1  0
  9 10  2  0
  9 11  1  0
 11 12  1  0
 12 13  2  0
 12 26  1  0
 13 14  1  0
 14 15  2  0
 15 16  1  0
 15 17  1  0
 17 18  1  0
 17 26  2  0
 18 19  1  0
 19 20  1  0
 20 21  2  0
 20 25  1  0
 21 22  1  0
 22 23  2  0
 23 24  1  0
 24 25  2  0
 27 28  1  0
M  END
>  <DRUGBANK_ID>  (1) 
DB08064

>  <COMMON_NAME>  (1) 
N-(3-TERT-BUTYL-1H-PYRAZOL-5-YL)-N'-{4-CHLORO-3-[(PYRIDIN-3-YLOXY)METHYL]PHENYL}UREA

$$$$
