
     RDKit          3D

 39 42  0  0  1  0  0  0  0  0999 V2000
    6.4458    1.1727   -2.0697 O   0  0  0  0  0  0  0  0  0  0  0  0
    9.9274    0.3883    4.2034 O   0  0  0  0  0  0  0  0  0  0  0  0
    8.2829   -1.1106    4.0261 O   0  0  0  0  0  0  0  0  0  0  0  0
    3.3005   -2.4169    1.4267 O   0  0  0  0  0  0  0  0  0  0  0  0
    5.3400    2.0249    0.6523 O   0  0  0  0  0  0  0  0  0  0  0  0
    7.3546    1.4674    0.2648 O   0  0  0  0  0  0  0  0  0  0  0  0
    5.0103   -0.0810   -0.8311 N   0  0  0  0  0  0  0  0  0  0  0  0
    5.5048   -2.1748    1.3482 N   0  0  0  0  0  0  0  0  0  0  0  0
    7.8838   -0.4708   -0.3484 C   0  0  0  0  0  0  0  0  0  0  0  0
    9.2116   -0.4487   -1.0622 C   0  0  0  0  0  0  0  0  0  0  0  0
    7.4929   -1.7625   -0.6034 C   0  0  0  0  0  0  0  0  0  0  0  0
    8.2831   -0.7531    1.2224 C   0  0  0  0  0  0  0  0  0  0  0  0
    9.7828   -1.8577   -1.0625 C   0  0  0  0  0  0  0  0  0  0  0  0
    8.5613   -2.6366   -1.0395 C   0  0  0  0  0  0  0  0  0  0  0  0
    8.5250    0.5263    2.2112 C   0  0  1  0  0  0  0  0  0  0  0  0
    6.3640    0.2593   -1.3022 C   0  0  0  0  0  0  0  0  0  0  0  0
    7.4989    1.9785    2.4771 C   0  0  0  0  0  0  0  0  0  0  0  0
    4.2912   -1.3888   -0.6455 C   0  0  1  0  0  0  0  0  0  0  0  0
    8.8772   -0.2073    3.5533 C   0  0  0  0  0  0  0  0  0  0  0  0
    5.8130    1.8659    2.8904 C   0  0  0  0  0  0  0  0  0  0  0  0
    4.5650   -2.3081   -1.8956 C   0  0  0  0  0  0  0  0  0  0  0  0
    4.2774   -2.0592    0.7824 C   0  0  0  0  0  0  0  0  0  0  0  0
    5.9393   -2.9652   -2.1764 C   0  0  0  0  0  0  0  0  0  0  0  0
    5.7540    1.7082    4.2979 C   0  0  0  0  0  0  0  0  0  0  0  0
    6.3705   -4.0205   -0.7762 C   0  0  0  0  0  0  0  0  0  0  0  0
    6.2754   -3.5637    0.8019 C   0  0  0  0  0  0  0  0  0  0  0  0
   11.0373    0.5806    3.3503 C   0  0  0  0  0  0  0  0  0  0  0  0
    5.9215   -0.6149    1.6815 C   0  0  0  0  0  0  0  0  0  0  0  0
    6.8557    1.1858    4.9047 C   0  0  0  0  0  0  0  0  0  0  0  0
    4.6977    2.1920    4.9786 C   0  0  0  0  0  0  0  0  0  0  0  0
    7.4133   -5.0113   -1.1031 C   0  0  0  0  0  0  0  0  0  0  0  0
    7.2261   -4.1361    1.7095 C   0  0  0  0  0  0  0  0  0  0  0  0
   11.2709   -0.6661    2.5024 C   0  0  0  0  0  0  0  0  0  0  0  0
    8.2798   -5.5285   -0.0752 C   0  0  0  0  0  0  0  0  0  0  0  0
    8.1766   -5.1109    1.2817 C   0  0  0  0  0  0  0  0  0  0  0  0
    6.8064    0.6649    6.1274 C   0  0  0  0  0  0  0  0  0  0  0  0
    4.8636    2.1113    6.3261 C   0  0  0  0  0  0  0  0  0  0  0  0
    6.2911    1.0416    0.7658 C   0  0  0  0  0  0  0  0  0  0  0  0
    5.8217    1.2300    6.8817 C   0  0  0  0  0  0  0  0  0  0  0  0
  1 16  2  0
  2 19  1  0
  2 27  1  0
  3 19  2  0
  4 22  2  0
  5 38  1  0
  6 38  2  0
  7 16  1  0
  8 22  1  0
  8 26  1  0
  8 28  1  0
  9 10  1  0
  9 11  1  0
  9 12  1  0
  9 16  1  0
 10 13  1  0
 11 14  1  0
 15 12  1  6
 13 14  1  0
 15 17  1  0
 15 19  1  0
 17 20  1  0
 18 21  1  0
 18 22  1  0
 18  7  1  1
 20 24  1  0
 21 23  1  0
 23 25  1  0
 24 29  2  0
 24 30  1  0
 25 26  2  0
 25 31  1  0
 26 32  1  0
 27 33  1  0
 28 38  1  0
 29 36  1  0
 30 37  2  0
 31 34  2  0
 32 35  2  0
 34 35  1  0
 36 39  2  0
 37 39  1  0
M  END
>  <DRUGBANK_ID>  (1) 
DB05796

>  <SECONDARY_ACCESSION_NUMBERS>  (1) 
DB12995

>  <COMMON_NAME>  (1) 
Daglutril

>  <CAS_NUMBER>  (1) 
182821-27-8

>  <UNII>  (1) 
KKV299446X

>  <SYNONYMS>  (1) 
((3S)-3-{1-((2R)-2-Ethoxycarbonyl-4-phenylbutyl)cyclopentanecarboxamido}-2-oxo-2,3,4,5-tetrahydro-1H-1-benzazepin-1-yl)acetic acid; Daglutril

$$$$
