1197
     RDKit          3D

 14 14  0  0  1  0  0  0  0  0999 V2000
    3.0839   -3.4607   -0.4555 S   0  0  0  0  0  0  0  0  0  0  0  0
    1.0434   -0.1052    1.7001 O   0  0  0  0  0  0  0  0  0  0  0  0
   -1.6229   -3.5972    0.4386 O   0  0  0  0  0  0  0  0  0  0  0  0
   -3.2850   -3.7378    1.9481 O   0  0  0  0  0  0  0  0  0  0  0  0
   -1.0174   -0.8769    0.9963 N   0  0  0  0  0  0  0  0  0  0  0  0
   -2.2452   -1.5668    1.5100 C   0  0  1  0  0  0  0  0  0  0  0  0
   -3.2960   -1.0046    0.5396 C   0  0  0  0  0  0  0  0  0  0  0  0
   -2.9400    0.4595    0.4024 C   0  0  0  0  0  0  0  0  0  0  0  0
   -1.4256    0.4979    0.6264 C   0  0  0  0  0  0  0  0  0  0  0  0
    0.3332   -1.0603    1.3841 C   0  0  0  0  0  0  0  0  0  0  0  0
    0.9714   -2.4645    1.1378 C   0  0  1  0  0  0  0  0  0  0  0  0
   -2.4457   -3.0818    1.3800 C   0  0  0  0  0  0  0  0  0  0  0  0
    2.5096   -2.4771    1.0023 C   0  0  0  0  0  0  0  0  0  0  0  0
    0.5901   -3.4885    2.2101 C   0  0  0  0  0  0  0  0  0  0  0  0
  1 13  1  0
  2 10  2  0
  3 12  1  0
  4 12  2  0
  5  6  1  0
  5  9  1  0
  5 10  1  0
  6  7  1  0
  6 12  1  6
  7  8  1  0
  8  9  1  0
 11 14  1  1
 11 13  1  0
 11 10  1  0
M  END
>  <DRUGBANK_ID>  (1) 
DB01197

>  <SECONDARY_ACCESSION_NUMBERS>  (1) 
APRD00164

>  <COMMON_NAME>  (1) 
Captopril

>  <CAS_NUMBER>  (1) 
62571-86-2

>  <UNII>  (1) 
9G64RSX1XD

>  <SYNONYMS>  (1) 
(2S)-1-[(2S)-2-methyl-3-sulfanylpropanoyl]pyrrolidine-2-carboxylic acid; Captopril; Captoprilum; Captopryl; CP; D-2-methyl-3-mercaptopropanoyl-L-proline; D-3-mercapto-2-methylpropanoyl-L-proline; L-Captopril

$$$$
