
     RDKit          3D

 41 46  0  0  0  0  0  0  0  0999 V2000
    2.0653   -0.5474   -0.3770 C   0  0  1  0  0  0  0  0  0  0  0  0
    0.6906   -0.6777    0.2388 C   0  0  1  0  0  0  0  0  0  0  0  0
    2.7363    0.7988   -0.0043 C   0  0  1  0  0  0  0  0  0  0  0  0
    3.0637   -1.6408   -0.0221 C   0  0  0  0  0  0  0  0  0  0  0  0
   -0.1267    0.5203   -0.3384 C   0  0  1  0  0  0  0  0  0  0  0  0
    0.0631   -2.0583   -0.0463 C   0  0  0  0  0  0  0  0  0  0  0  0
    4.1222    0.5235   -0.6301 C   0  0  2  0  0  0  0  0  0  0  0  0
    1.9664    1.9501   -0.6649 C   0  0  0  0  0  0  0  0  0  0  0  0
    2.7460    1.0853    1.5061 C   0  0  0  0  0  0  0  0  0  0  0  0
    4.4429   -0.9999   -0.2639 C   0  0  1  0  0  0  0  0  0  0  0  0
   -1.5541    0.4784    0.2378 C   0  0  2  0  0  0  0  0  0  0  0  0
    0.5271    1.9250   -0.1973 C   0  0  0  0  0  0  0  0  0  0  0  0
   -1.3675   -2.1914    0.4828 C   0  0  0  0  0  0  0  0  0  0  0  0
    5.1337    1.4932   -0.3701 O   0  0  0  0  0  0  0  0  0  0  0  0
    5.4430   -1.3138    0.9382 N   0  0  0  0  0  0  0  0  0  0  0  0
   -2.1791   -1.0430   -0.0813 C   0  0  1  0  0  0  0  0  0  0  0  0
   -2.5260    1.6351   -0.2716 C   0  0  0  0  0  0  0  0  0  0  0  0
   -1.2389    0.8644    1.7007 C   0  0  0  0  0  0  0  0  0  0  0  0
    6.3157    1.4932   -1.0642 C   0  0  0  0  0  0  0  0  0  0  0  0
    4.9626   -0.7438    2.2638 C   0  0  0  0  0  0  0  0  0  0  0  0
    5.6941   -2.8406    1.0433 C   0  0  0  0  0  0  0  0  0  0  0  0
    6.7893   -0.6892    0.6581 C   0  0  0  0  0  0  0  0  0  0  0  0
   -3.7066   -1.2604   -0.1071 C   0  0  0  0  0  0  0  0  0  0  0  0
   -4.0133    1.2997   -0.0672 C   0  0  1  0  0  0  0  0  0  0  0  0
    6.4764    0.5569   -2.2396 C   0  0  0  0  0  0  0  0  0  0  0  0
    7.2899    2.0805   -0.5999 O   0  0  0  0  0  0  0  0  0  0  0  0
    5.8273   -1.0854    3.4455 C   0  0  0  0  0  0  0  0  0  0  0  0
    6.5582   -3.1388    2.2713 C   0  0  0  0  0  0  0  0  0  0  0  0
   -4.4108   -0.0609   -0.7317 C   0  0  1  0  0  0  0  0  0  0  0  0
   -4.3890    1.4471    1.4877 N   0  0  0  0  0  0  0  0  0  0  0  0
    5.8963   -2.5948    3.5293 C   0  0  0  0  0  0  0  0  0  0  0  0
   -4.3511   -0.0784   -2.2302 O   0  0  0  0  0  0  0  0  0  0  0  0
   -3.8603    0.3167    2.4575 C   0  0  0  0  0  0  0  0  0  0  0  0
   -3.9738    2.9483    1.8778 C   0  0  0  0  0  0  0  0  0  0  0  0
   -5.9041    1.3383    1.5938 C   0  0  0  0  0  0  0  0  0  0  0  0
   -3.4049   -0.0121   -3.2213 C   0  0  0  0  0  0  0  0  0  0  0  0
   -3.4969    0.7882    3.8598 C   0  0  0  0  0  0  0  0  0  0  0  0
   -3.9126    3.1796    3.3647 C   0  0  0  0  0  0  0  0  0  0  0  0
   -2.0104    0.3103   -2.8472 C   0  0  0  0  0  0  0  0  0  0  0  0
   -3.6668   -0.1835   -4.3794 O   0  0  0  0  0  0  0  0  0  0  0  0
   -2.9616    2.2063    4.0305 C   0  0  0  0  0  0  0  0  0  0  0  0
  1  2  1  0
  1  3  1  0
  1  4  1  1
  2  5  1  0
  2  6  1  6
  3  7  1  0
  3  8  1  0
  3  9  1  1
  4 10  1  0
  5 11  1  0
  5 12  1  1
  6 13  1  0
  7 10  1  0
  7 14  1  1
  8 12  1  0
 10 15  1  1
 11 16  1  0
 11 17  1  0
 11 18  1  1
 16 13  1  1
 14 19  1  0
 15 20  1  0
 15 21  1  0
 15 22  1  0
 16 23  1  0
 17 24  1  0
 19 25  1  0
 19 26  2  0
 20 27  1  0
 21 28  1  0
 23 29  1  0
 24 30  1  1
 24 29  1  0
 27 31  1  0
 28 31  1  0
 29 32  1  6
 30 33  1  0
 30 34  1  0
 30 35  1  0
 32 36  1  0
 33 37  1  0
 34 38  1  0
 36 39  1  0
 36 40  2  0
 37 41  1  0
 38 41  1  0
M  CHG  2  15   1  30   1
M  END
>  <DRUGBANK_ID>  (1) 
DB01337

>  <COMMON_NAME>  (1) 
Pancuronium

>  <CAS_NUMBER>  (1) 
16974-53-1

>  <UNII>  (1) 
J76UF062FS

>  <SYNONYMS>  (1) 
Pancuronium

$$$$
