
     RDKit          3D

 10 10  0  0  0  0  0  0  0  0999 V2000
    0.9409   -0.0344   -0.0687 O   0  0  0  0  0  0  0  0  0  0  0  0
    0.3807    0.9470    0.6807 C   0  0  0  0  0  0  0  0  0  0  0  0
    1.1006    1.6735    1.3538 O   0  0  0  0  0  0  0  0  0  0  0  0
   -1.1391    0.9372    0.6558 C   0  0  0  0  0  0  0  0  0  0  0  0
   -1.6667    1.1253   -0.6805 N   0  0  0  0  0  0  0  0  0  0  0  0
   -1.9845    0.0013   -1.5475 C   0  0  0  0  0  0  0  0  0  0  0  0
   -1.9103    0.6610   -2.9361 C   0  0  0  0  0  0  0  0  0  0  0  0
   -2.1248    2.0573   -2.6000 N   0  0  0  0  0  0  0  0  0  0  0  0
   -1.7931    2.3298   -1.3092 C   0  0  0  0  0  0  0  0  0  0  0  0
   -1.6318    3.4866   -0.7954 N   0  0  0  0  0  0  0  0  0  0  0  0
  1  2  1  0
  2  3  2  0
  2  4  1  0
  4  5  1  0
  5  6  1  0
  5  9  1  0
  6  7  1  0
  7  8  1  0
  8  9  1  0
  9 10  2  0
M  END
>  <DRUGBANK_ID>  (1) 
DB17624

>  <COMMON_NAME>  (1) 
Cyclocreatine

>  <CAS_NUMBER>  (1) 
35404-50-3

>  <UNII>  (1) 
6732XGX1RK

>  <SYNONYMS>  (1) 
1-carboxymethyl-2-imino-imidazolidine; 2-imino-1-imidazolidineacetic acid

$$$$
