SXO
     RDKit          3D

 31 30  0  0  0  0  0  0  0  0999 V2000
   -2.0074    1.7602   -1.3937 O   0  0  0  0  0  0  0  0  0  0  0  0
   -3.3743    1.3863   -0.6905 P   0  0  0  0  0  0  0  0  0  0  0  0
   -3.8046    2.9143   -0.5925 O   0  0  0  0  0  0  0  0  0  0  0  0
   -4.5767    0.8919   -1.3930 O   0  0  0  0  0  0  0  0  0  0  0  0
   -2.8692    0.6964    0.6476 O   0  0  0  0  0  0  0  0  0  0  0  0
   -1.7499   -0.2342    0.6015 C   0  0  0  0  0  0  0  0  0  0  0  0
   -1.9231   -1.7083    0.0454 C   0  0  0  0  0  0  0  0  0  0  0  0
   -0.7916   -2.6140    0.6703 C   0  0  0  0  0  0  0  0  0  0  0  0
   -3.2346   -2.2828    0.6208 C   0  0  0  0  0  0  0  0  0  0  0  0
   -1.8149   -1.8582   -1.5639 C   0  0  2  0  0  0  0  0  0  0  0  0
   -0.4497   -1.9907   -1.9216 O   0  0  0  0  0  0  0  0  0  0  0  0
   -2.9832   -1.0211   -2.3541 C   0  0  0  0  0  0  0  0  0  0  0  0
   -4.0873   -1.3477   -2.0564 O   0  0  0  0  0  0  0  0  0  0  0  0
   -2.7057    0.0287   -3.2571 N   0  0  0  0  0  0  0  0  0  0  0  0
   -3.4927    1.1576   -3.9232 C   0  0  0  0  0  0  0  0  0  0  0  0
   -2.9120    2.6195   -3.8417 C   0  0  0  0  0  0  0  0  0  0  0  0
   -1.6393    2.9331   -4.5928 C   0  0  0  0  0  0  0  0  0  0  0  0
   -1.6493    3.8058   -5.4676 O   0  0  0  0  0  0  0  0  0  0  0  0
   -0.4333    2.4004   -4.2599 N   0  0  0  0  0  0  0  0  0  0  0  0
   -0.0117    1.2889   -3.4330 C   0  0  0  0  0  0  0  0  0  0  0  0
    0.1748   -0.0877   -4.0746 C   0  0  0  0  0  0  0  0  0  0  0  0
    1.2896   -0.5200   -5.3416 S   0  0  0  0  0  0  0  0  0  0  0  0
    1.1756    0.8752   -6.3633 C   0  0  0  0  0  0  0  0  0  0  0  0
    0.1269    1.4889   -6.5152 O   0  0  0  0  0  0  0  0  0  0  0  0
    2.4119    1.2129   -7.1179 C   0  0  0  0  0  0  0  0  0  0  0  0
    3.5852    1.6534   -6.2402 C   0  0  0  0  0  0  0  0  0  0  0  0
    4.0732    0.5935   -5.2431 C   0  0  0  0  0  0  0  0  0  0  0  0
    4.3283   -0.7605   -5.9399 C   0  0  0  0  0  0  0  0  0  0  0  0
    5.4916   -0.6577   -6.9132 C   0  0  0  0  0  0  0  0  0  0  0  0
    6.7601   -0.2372   -6.1846 C   0  0  0  0  0  0  0  0  0  0  0  0
    7.1113   -1.2494   -5.1049 C   0  0  0  0  0  0  0  0  0  0  0  0
  2  1  1  0
  2  5  1  0
  2  3  1  0
  4  2  2  0
  5  6  1  0
  6  7  1  0
  7  8  1  0
  9  7  1  0
 10 11  1  6
 10 12  1  0
 10  7  1  0
 12 14  1  0
 13 12  2  0
 14 15  1  0
 15 16  1  0
 17 16  1  0
 17 18  2  0
 19 17  1  0
 20 19  1  0
 21 20  1  0
 22 21  1  0
 23 22  1  0
 23 24  2  0
 25 23  1  0
 26 25  1  0
 26 27  1  0
 28 27  1  0
 28 29  1  0
 29 30  1  0
 31 30  1  0
M  END
>  <DRUGBANK_ID>  (1) 
DB08586

>  <COMMON_NAME>  (1) 
S-[2-({N-[(2S)-2-hydroxy-3,3-dimethyl-4-(phosphonooxy)butanoyl]-beta-alanyl}amino)ethyl] octanethioate

$$$$
