425
     RDKit          3D

 23 25  0  0  0  0  0  0  0  0999 V2000
    1.0019    0.0182    0.0056 O   0  0  0  0  0  0  0  0  0  0  0  0
    3.0413   -2.7473   -1.4499 N   0  0  0  0  0  0  0  0  0  0  0  0
    1.8700   -3.1863   -3.3073 N   0  0  0  0  0  0  0  0  0  0  0  0
    2.9861    0.2170    1.1262 N   0  0  0  0  0  0  0  0  0  0  0  0
    2.6184   -1.5250   -1.9445 C   0  0  0  0  0  0  0  0  0  0  0  0
    1.8851   -1.8303   -3.0751 C   0  0  0  0  0  0  0  0  0  0  0  0
    2.5789   -3.7184   -2.3341 C   0  0  0  0  0  0  0  0  0  0  0  0
    2.9666   -0.2055   -1.3488 C   0  0  0  0  0  0  0  0  0  0  0  0
    1.2908   -0.8682   -3.9852 C   0  0  0  0  0  0  0  0  0  0  0  0
    3.7987   -3.0586   -0.3176 C   0  0  0  0  0  0  0  0  0  0  0  0
    4.1155   -4.3383   -0.0398 C   0  0  0  0  0  0  0  0  0  0  0  0
    2.9318   -5.0716   -2.0574 C   0  0  0  0  0  0  0  0  0  0  0  0
    2.2414    0.0146   -0.0287 C   0  0  0  0  0  0  0  0  0  0  0  0
    3.6602   -5.3715   -0.9638 C   0  0  0  0  0  0  0  0  0  0  0  0
   -0.0741   -0.9130   -4.2761 C   0  0  0  0  0  0  0  0  0  0  0  0
    2.0951    0.0737   -4.6402 C   0  0  0  0  0  0  0  0  0  0  0  0
    4.9012   -4.7329    1.1724 C   0  0  0  0  0  0  0  0  0  0  0  0
    0.2309    0.7479   -6.0257 C   0  0  0  0  0  0  0  0  0  0  0  0
   -0.5902   -0.1455   -5.3259 C   0  0  0  0  0  0  0  0  0  0  0  0
    1.5563    0.9136   -5.6164 C   0  0  0  0  0  0  0  0  0  0  0  0
    4.4368    0.2549    1.2272 C   0  0  0  0  0  0  0  0  0  0  0  0
    2.2503    0.4255    2.3649 C   0  0  0  0  0  0  0  0  0  0  0  0
   -0.2900    1.4566   -7.2405 C   0  0  0  0  0  0  0  0  0  0  0  0
  1 13  2  0
  2  5  1  0
  2  7  1  0
  2 10  1  0
  3  6  1  0
  3  7  2  0
  4 13  1  0
  4 21  1  0
  4 22  1  0
  5  6  2  0
  5  8  1  0
  6  9  1  0
  7 12  1  0
  8 13  1  0
  9 15  2  0
  9 16  1  0
 10 11  2  0
 11 14  1  0
 11 17  1  0
 12 14  2  0
 15 19  1  0
 16 20  2  0
 18 19  2  0
 18 20  1  0
 18 23  1  0
M  END
>  <DRUGBANK_ID>  (1) 
DB00425

>  <SECONDARY_ACCESSION_NUMBERS>  (1) 
APRD00095

>  <COMMON_NAME>  (1) 
Zolpidem

>  <CAS_NUMBER>  (1) 
82626-48-0

>  <UNII>  (1) 
7K383OQI23

>  <SYNONYMS>  (1) 
N,N,6-Trimethyl-2-(4-methylphenyl)imidazo(1,2-a)pyridine-3-acetamide; Zolpidem; Zolpidemum

$$$$
