718
     RDKit          3D

 34 35  0  0  0  0  0  0  0  0999 V2000
    0.9101    0.0133   -0.0417 P   0  0  0  0  0  0  0  0  0  0  0  0
    3.1961    1.3329   -0.4610 O   0  0  0  0  0  0  0  0  0  0  0  0
   -0.8751   -1.8644   -3.1629 O   0  0  0  0  0  0  0  0  0  0  0  0
    3.0170   -0.7061    2.5546 O   0  0  0  0  0  0  0  0  0  0  0  0
    1.0507   -1.7045   -0.6291 O   0  0  0  0  0  0  0  0  0  0  0  0
    0.9999    0.0760    1.6193 O   0  0  0  0  0  0  0  0  0  0  0  0
   -2.2860   -3.1296   -1.9821 O   0  0  0  0  0  0  0  0  0  0  0  0
    1.2533   -1.8624    3.3684 O   0  0  0  0  0  0  0  0  0  0  0  0
   -0.6383    0.0133   -0.0417 O   0  0  0  0  0  0  0  0  0  0  0  0
    2.9409   -0.6721   -2.7623 N   0  0  0  0  0  0  0  0  0  0  0  0
    3.3870   -2.9670   -2.3638 N   0  0  0  0  0  0  0  0  0  0  0  0
    0.1525   -0.5897   -1.8885 N   0  0  0  0  0  0  0  0  0  0  0  0
   -0.2938   -3.1241   -0.2582 N   0  0  0  0  0  0  0  0  0  0  0  0
    0.8995   -5.0407   -0.7023 N   0  0  0  0  0  0  0  0  0  0  0  0
   -2.9938   -0.9412   -2.7777 C   0  0  0  0  0  0  0  0  0  0  0  0
    3.1901   -3.1274    2.5476 C   0  0  0  0  0  0  0  0  0  0  0  0
   -2.7908    0.5047   -2.2537 C   0  0  0  0  0  0  0  0  0  0  0  0
   -2.9628   -0.9516   -4.2941 C   0  0  0  0  0  0  0  0  0  0  0  0
   -4.2293   -1.5281   -2.1145 C   0  0  0  0  0  0  0  0  0  0  0  0
    3.2781   -3.5252    1.0968 C   0  0  0  0  0  0  0  0  0  0  0  0
    4.6275   -3.0027    2.9886 C   0  0  0  0  0  0  0  0  0  0  0  0
    2.4591   -4.2635    3.2720 C   0  0  0  0  0  0  0  0  0  0  0  0
   -2.0542   -2.0964   -2.5981 C   0  0  0  0  0  0  0  0  0  0  0  0
    2.3663   -1.8558    2.8573 C   0  0  0  0  0  0  0  0  0  0  0  0
    3.3328    0.7290   -2.8562 C   0  0  0  0  0  0  0  0  0  0  0  0
    2.7672    1.6787   -1.7718 C   0  0  0  0  0  0  0  0  0  0  0  0
    2.7401    0.0133   -0.0417 C   0  0  0  0  0  0  0  0  0  0  0  0
    1.7934   -1.1093   -2.2088 C   0  0  0  0  0  0  0  0  0  0  0  0
    0.2564   -2.4390   -2.4193 C   0  0  0  0  0  0  0  0  0  0  0  0
    2.1486    0.4427    2.3844 C   0  0  0  0  0  0  0  0  0  0  0  0
    2.2517   -2.7213   -1.6885 C   0  0  0  0  0  0  0  0  0  0  0  0
    3.7362   -1.8128   -2.9342 C   0  0  0  0  0  0  0  0  0  0  0  0
    1.0721   -3.6959   -0.7502 C   0  0  0  0  0  0  0  0  0  0  0  0
   -0.7501   -1.7983   -0.7615 C   0  0  0  0  0  0  0  0  0  0  0  0
  1  5  1  0
  1  6  1  0
  1  9  2  0
  1 27  1  0
  2 26  1  0
  2 27  1  0
  3 23  1  0
  3 29  1  0
  4 24  1  0
  4 30  1  0
  5 29  1  0
  6 30  1  0
  7 23  2  0
  8 24  2  0
 10 25  1  0
 10 28  1  0
 10 32  1  0
 11 31  1  0
 11 32  2  0
 12 28  2  0
 12 34  1  0
 13 33  1  0
 13 34  2  0
 14 33  1  0
 15 17  1  0
 15 18  1  0
 15 19  1  0
 15 23  1  0
 16 20  1  0
 16 21  1  0
 16 22  1  0
 16 24  1  0
 25 26  1  0
 28 31  1  0
 31 33  2  0
M  END
>  <DRUGBANK_ID>  (1) 
DB00718

>  <SECONDARY_ACCESSION_NUMBERS>  (1) 
APRD00781

>  <COMMON_NAME>  (1) 
Adefovir dipivoxil

>  <CAS_NUMBER>  (1) 
142340-99-6

>  <UNII>  (1) 
U6Q8Z01514

>  <SYNONYMS>  (1) 
Adefovir di(pivaloyloxymethyl) ester; Adefovir dipivoxil; Adefovir pivoxil; bis-POM PMEA

$$$$
