LK7
     RDKit          3D

 19 20  0  0  0  0  0  0  0  0999 V2000
   -2.1608    2.9653    0.0159 C   0  0  0  0  0  0  0  0  0  0  0  0
   -2.7359    2.4097   -1.2573 C   0  0  0  0  0  0  0  0  0  0  0  0
   -2.0288    1.8010   -2.2307 C   0  0  0  0  0  0  0  0  0  0  0  0
   -2.7662    1.3352   -3.4520 C   0  0  0  0  0  0  0  0  0  0  0  0
   -2.2320    0.8407   -4.4392 O   0  0  0  0  0  0  0  0  0  0  0  0
   -0.5849    1.4411   -2.0777 C   0  0  2  0  0  0  0  0  0  0  0  0
    0.2608    1.9107   -3.1473 N   0  0  0  0  0  0  0  0  0  0  0  0
    1.0060    0.8917   -3.7095 C   0  0  0  0  0  0  0  0  0  0  0  0
    1.9268    1.0697   -4.8666 C   0  0  0  0  0  0  0  0  0  0  0  0
    2.5627    0.2152   -5.4409 O   0  0  0  0  0  0  0  0  0  0  0  0
    2.0114    2.3616   -5.2524 O   0  0  0  0  0  0  0  0  0  0  0  0
    0.7251   -0.2784   -3.1077 C   0  0  0  0  0  0  0  0  0  0  0  0
   -0.3002   -0.0807   -2.0073 C   0  0  2  0  0  0  0  0  0  0  0  0
   -1.4908   -1.0467   -2.1081 C   0  0  0  0  0  0  0  0  0  0  0  0
   -1.0961   -2.4771   -2.4071 C   0  0  0  0  0  0  0  0  0  0  0  0
   -0.1360   -2.5442   -3.6055 C   0  0  0  0  0  0  0  0  0  0  0  0
    1.1248   -1.6679   -3.4777 C   0  0  2  0  0  0  0  0  0  0  0  0
    2.1382   -2.1878   -2.6095 O   0  0  0  0  0  0  0  0  0  0  0  0
    1.7692   -2.4787   -1.2786 C   0  0  0  0  0  0  0  0  0  0  0  0
  1  2  1  0
  2  3  2  0
  3  4  1  0
  4  5  2  0
  6 13  1  0
  6  7  1  0
  6  3  1  6
  7  8  1  0
  8 12  2  0
  8  9  1  0
  9 10  2  0
  9 11  1  0
 12 17  1  0
 12 13  1  0
 13 14  1  6
 14 15  1  0
 15 16  1  0
 16 17  1  0
 17 18  1  1
 18 19  1  0
M  END
>  <DRUGBANK_ID>  (1) 
DB08110

>  <COMMON_NAME>  (1) 
(1R,4S,7AS)-1-(1-FORMYLPROP-1-EN-1-YL)-4-METHOXY-2,4,5,6,7,7A-HEXAHYDRO-1H-ISOINDOLE-3-CARBOXYLIC ACID

$$$$
