
     RDKit          3D

 13 13  0  0  1  0  0  0  0  0999 V2000
   -0.8378    0.7530    0.1058 C   0  0  1  0  0  0  0  0  0  0  0  0
   -1.3966   -0.6414   -0.2154 C   0  0  1  0  0  0  0  0  0  0  0  0
    0.6779    0.8716   -0.1442 C   0  0  2  0  0  0  0  0  0  0  0  0
   -0.4935   -1.7469    0.3443 C   0  0  2  0  0  0  0  0  0  0  0  0
   -0.6099   -1.8369    1.8731 C   0  0  0  0  0  0  0  0  0  0  0  0
    1.4706   -0.4027    0.2298 C   0  0  2  0  0  0  0  0  0  0  0  0
   -1.5435    1.7547   -0.6463 O   0  0  0  0  0  0  0  0  0  0  0  0
   -2.7423   -0.7864    0.2504 O   0  0  0  0  0  0  0  0  0  0  0  0
    1.1821    1.9997    0.5945 O   0  0  0  0  0  0  0  0  0  0  0  0
   -1.0475   -2.7786    2.5172 O   0  0  0  0  0  0  0  0  0  0  0  0
   -0.2136   -0.7121    2.5100 O   0  0  0  0  0  0  0  0  0  0  0  0
    2.7429   -0.4059   -0.4035 O   0  0  0  0  0  0  0  0  0  0  0  0
    0.8283   -1.6035   -0.1613 O   0  0  0  0  0  0  0  0  0  0  0  0
  1  7  1  6
  2  1  1  0
  2  8  1  1
  3  1  1  0
  3  9  1  1
  4  2  1  0
  4  5  1  1
  6  3  1  0
  6 12  1  6
 10  5  2  0
 11  5  1  0
 13  4  1  0
 13  6  1  0
M  END
>  <DRUGBANK_ID>  (1) 
DB02945

>  <SECONDARY_ACCESSION_NUMBERS>  (1) 
EXPT01842

>  <COMMON_NAME>  (1) 
alpha-L-iduronic acid

>  <CAS_NUMBER>  (1) 
71031-08-8

>  <UNII>  (1) 
E850Z98K7Y

>  <SYNONYMS>  (1) 
L-iduronic acid; Î±-L-iduronic acid

$$$$
