
     RDKit          3D

  9  8  0  0  0  0  0  0  0  0999 V2000
    1.0804   -0.0408   -0.0433 N   0  0  0  0  0  0  0  0  0  0  0  0
    1.0734   -0.0322   -0.0598 Cl  0  0  0  0  0  0  0  0  0  0  0  0
    3.4734   -0.0322   -0.0598 Te  0  0  0  0  0  5  0  0  0  0  0  0
    1.9511   -1.8397   -0.4791 Cl  0  0  0  0  0  0  0  0  0  0  0  0
    4.3321   -0.0270    2.1813 Cl  0  0  0  0  0  0  0  0  0  0  0  0
    3.9105    1.0817   -0.6807 O   0  0  0  0  0  0  0  0  0  0  0  0
    4.7457    0.5984   -1.8499 C   0  0  0  0  0  0  0  0  0  0  0  0
    4.6677   -0.8698   -1.7470 C   0  0  0  0  0  0  0  0  0  0  0  0
    3.9071   -1.1404   -0.6707 O   0  0  0  0  0  0  0  0  0  0  0  0
  2  3  1  0
  3  4  1  0
  3  5  1  0
  3  6  1  0
  3  9  1  0
  6  7  1  0
  7  8  1  0
  8  9  1  0
M  CHG  2   1   1   3  -1
M  END
>  <DRUGBANK_ID>  (1) 
DB17740

>  <COMMON_NAME>  (1) 
Ammonium trichlorotellurate

>  <CAS_NUMBER>  (1) 
106566-58-9

>  <UNII>  (1) 
708681952A

>  <SYNONYMS>  (1) 
Ammonium trichloro [dioxoethylene-O,O') tellurium (IV); Ammonium trichloro(dioxyethylene-o,o')tellurium(iv); Ammonium trichlorotellurate; Ossirene

$$$$
