
     RDKit          3D

 16 16  0  0  0  0  0  0  0  0999 V2000
   -0.0448    2.0339    0.3536 O   0  0  0  0  0  0  0  0  0  0  0  0
    0.0746   -2.1316    0.3197 O   0  0  0  0  0  0  0  0  0  0  0  0
   -2.4074   -0.7476   -0.2762 O   0  0  0  0  0  0  0  0  0  0  0  0
    2.4710   -0.6066   -0.2924 O   0  0  0  0  0  0  0  0  0  0  0  0
   -2.4638    3.4649   -0.0526 O   0  0  0  0  0  0  0  0  0  0  0  0
    4.2160    3.4859   -0.0162 O   0  0  0  0  0  0  0  0  0  0  0  0
    3.0362    2.7488   -1.7766 O   0  0  0  0  0  0  0  0  0  0  0  0
    2.2547    2.2647    0.3101 N   0  0  0  0  0  0  0  0  0  0  0  0
    0.0391   -0.7979   -0.2052 C   0  0  1  0  0  0  0  0  0  0  0  0
   -1.2489   -0.0903    0.2394 C   0  0  1  0  0  0  0  0  0  0  0  0
    1.2841   -0.0097    0.2397 C   0  0  2  0  0  0  0  0  0  0  0  0
   -1.2176    1.3844   -0.1825 C   0  0  1  0  0  0  0  0  0  0  0  0
    1.1528    1.4707   -0.1852 C   0  0  1  0  0  0  0  0  0  0  0  0
   -2.4697    2.0964    0.3422 C   0  0  0  0  0  0  0  0  0  0  0  0
    3.1571    2.8251   -0.5567 C   0  0  0  0  0  0  0  0  0  0  0  0
    4.4575    3.5879    1.3919 C   0  0  0  0  0  0  0  0  0  0  0  0
  1 12  1  0
  1 13  1  0
  5 14  1  0
  6 15  1  0
  6 16  1  0
  7 15  2  0
  8 15  1  0
  9  2  1  1
  9 10  1  0
  9 11  1  0
 10  3  1  6
 10 12  1  0
 11  4  1  6
 11 13  1  0
 12 14  1  1
 13  8  1  1
M  END
>  <DRUGBANK_ID>  (1) 
DB03657

>  <SECONDARY_ACCESSION_NUMBERS>  (1) 
EXPT01010

>  <COMMON_NAME>  (1) 
1-deoxy-1-methoxycarbamido-beta-D-glucopyranose

>  <CAS_NUMBER>  (1) 
188679-87-0

>  <SYNONYMS>  (1) 
N-(Methoxycarbonyl)-Î²-D-glucopyranosylamine

$$$$
