C4M
     RDKit          3D

 27 28  0  0  0  0  0  0  0  0999 V2000
    0.9552   -0.0785   -0.0387 C   0  0  0  0  0  0  0  0  0  0  0  0
    0.4499   -0.3221    1.2799 O   0  0  0  0  0  0  0  0  0  0  0  0
    0.8462   -1.5278    1.8006 C   0  0  0  0  0  0  0  0  0  0  0  0
    2.1760   -1.9053    1.7186 C   0  0  0  0  0  0  0  0  0  0  0  0
    2.6097   -3.1771    2.0821 C   0  0  0  0  0  0  0  0  0  0  0  0
    4.0454   -3.4177    1.6391 C   0  0  0  0  0  0  0  0  0  0  0  0
    1.6736   -4.0387    2.7418 C   0  0  0  0  0  0  0  0  0  0  0  0
    0.3210   -3.6223    2.9390 C   0  0  0  0  0  0  0  0  0  0  0  0
   -0.6853   -4.5309    3.6235 C   0  0  0  0  0  0  0  0  0  0  0  0
   -0.0902   -2.3600    2.4323 C   0  0  0  0  0  0  0  0  0  0  0  0
   -1.5298   -1.9268    2.5225 C   0  0  0  0  0  0  0  0  0  0  0  0
    2.0932   -5.6750    3.3730 S   0  0  0  0  0  0  0  0  0  0  0  0
    1.7950   -5.7548    4.7773 O   0  0  0  0  0  0  0  0  0  0  0  0
    1.5522   -6.6787    2.4661 O   0  0  0  0  0  0  0  0  0  0  0  0
    3.7583   -5.7432    3.2236 N   0  0  0  0  0  0  0  0  0  0  0  0
    4.5003   -4.6982    3.9731 C   0  0  0  0  0  0  0  0  0  0  0  0
    4.4723   -4.9229    5.4157 C   0  0  1  0  0  0  0  0  0  0  0  0
    4.9861   -6.2668    5.3194 O   0  0  0  0  0  0  0  0  0  0  0  0
    5.2229   -3.7859    6.1853 C   0  0  1  0  0  0  0  0  0  0  0  0
    4.7767   -2.4305    5.7186 N   0  0  0  0  0  0  0  0  0  0  0  0
    4.9035   -3.8422    7.7140 C   0  0  0  0  0  0  0  0  0  0  0  0
    5.2675   -5.1218    8.4357 C   0  0  0  0  0  0  0  0  0  0  0  0
    5.8077   -5.1916    9.6985 C   0  0  0  0  0  0  0  0  0  0  0  0
    6.0158   -6.4596   10.2929 C   0  0  0  0  0  0  0  0  0  0  0  0
    5.7224   -7.6687    9.6393 C   0  0  0  0  0  0  0  0  0  0  0  0
    5.1637   -7.6160    8.4037 C   0  0  0  0  0  0  0  0  0  0  0  0
    4.9247   -6.3576    7.9047 C   0  0  0  0  0  0  0  0  0  0  0  0
  1  2  1  0
  2  3  1  0
  3  4  2  0
  3 10  1  0
  4  5  1  0
  5  6  1  0
  5  7  2  0
  7  8  1  0
  7 12  1  0
  8  9  1  0
  8 10  2  0
 10 11  1  0
 12 13  2  0
 12 14  2  0
 12 15  1  0
 15 16  1  0
 16 17  1  0
 17 18  1  6
 17 19  1  0
 19 20  1  6
 19 21  1  0
 21 22  1  0
 22 23  2  0
 22 27  1  0
 23 24  1  0
 24 25  2  0
 25 26  1  0
 26 27  2  0
M  END
>  <DRUGBANK_ID>  (1) 
DB07527

>  <COMMON_NAME>  (1) 
N-[(2R,3S)-3-AMINO-2-HYDROXY-4-PHENYLBUTYL]-4-METHOXY-2,3,6-TRIMETHYLBENZENESULFONAMIDE

$$$$
