
     RDKit          3D

 27 29  0  0  0  0  0  0  0  0999 V2000
    0.6910   -8.9759    6.5636 S   0  0  0  0  0  0  0  0  0  0  0  0
    0.7478   -7.2134    6.8036 C   0  0  2  0  0  0  0  0  0  0  0  0
   -0.2109   -6.3985    6.0612 N   0  0  0  0  0  0  0  0  0  0  0  0
   -0.1388   -6.1920    4.7086 C   0  0  0  0  0  0  0  0  0  0  0  0
    0.3562   -7.1572    3.5610 C   0  0  2  0  0  0  0  0  0  0  0  0
    0.4783   -8.6552    3.8916 C   0  0  0  0  0  0  0  0  0  0  0  0
    1.4692   -9.0638    4.9504 C   0  0  0  0  0  0  0  0  0  0  0  0
    2.1462   -6.5574    6.7741 C   0  0  0  0  0  0  0  0  0  0  0  0
    2.0113   -5.2089    7.4971 C   0  0  0  0  0  0  0  0  0  0  0  0
    0.9962   -4.3499    6.7555 C   0  0  0  0  0  0  0  0  0  0  0  0
   -0.3878   -5.0808    6.7645 C   0  0  1  0  0  0  0  0  0  0  0  0
   -1.5066   -4.0140    6.5924 C   0  0  0  0  0  0  0  0  0  0  0  0
   -1.4280   -2.8686    6.9994 O   0  0  0  0  0  0  0  0  0  0  0  0
   -2.7182   -4.4886    6.2391 O   0  0  0  0  0  0  0  0  0  0  0  0
    1.2671   -6.2618    2.7876 N   0  0  0  0  0  0  0  0  0  0  0  0
    0.4932   -5.1748    2.2716 C   0  0  0  0  0  0  0  0  0  0  0  0
    0.9326   -3.6829    2.4099 C   0  0  2  0  0  0  0  0  0  0  0  0
   -0.0061   -2.8875    1.4515 C   0  0  0  0  0  0  0  0  0  0  0  0
   -0.6803   -5.4096    1.9277 O   0  0  0  0  0  0  0  0  0  0  0  0
    2.7435   -3.5020    2.2153 S   0  0  0  0  0  0  0  0  0  0  0  0
    0.5199   -2.9983    0.0486 C   0  0  0  0  0  0  0  0  0  0  0  0
    1.1402   -1.8793   -0.4989 C   0  0  0  0  0  0  0  0  0  0  0  0
    1.8997   -2.0187   -1.6487 C   0  0  0  0  0  0  0  0  0  0  0  0
    2.0604   -3.2753   -2.2355 C   0  0  0  0  0  0  0  0  0  0  0  0
    1.4489   -4.3978   -1.6887 C   0  0  0  0  0  0  0  0  0  0  0  0
    0.6272   -4.2488   -0.5853 C   0  0  0  0  0  0  0  0  0  0  0  0
   -0.3903   -5.0026    4.4120 O   0  0  0  0  0  0  0  0  0  0  0  0
  1  2  1  0
  1  7  1  0
  2  3  1  0
  2  8  1  6
  3  4  1  0
  3 11  1  0
  4  5  1  0
  4 27  2  0
  5  6  1  0
  5 15  1  1
  6  7  1  0
  8  9  1  0
  9 10  1  0
 10 11  1  0
 11 12  1  6
 12 13  2  0
 12 14  1  0
 15 16  1  0
 16 19  2  0
 17 20  1  6
 17 18  1  0
 17 16  1  0
 18 21  1  0
 21 22  2  0
 21 26  1  0
 22 23  1  0
 23 24  2  0
 24 25  1  0
 25 26  2  0
M  END
>  <DRUGBANK_ID>  (1) 
DB00886

>  <SECONDARY_ACCESSION_NUMBERS>  (1) 
APRD00443

>  <COMMON_NAME>  (1) 
Omapatrilat

>  <CAS_NUMBER>  (1) 
167305-00-2

>  <UNII>  (1) 
36NLI90E7T

>  <SYNONYMS>  (1) 
Omapatrilat; Omapatrilate

$$$$
