024
     RDKit          3D

 27 29  0  0  0  0  0  0  0  0999 V2000
    2.6611    0.4279    0.0787 S   0  0  0  0  0  0  0  0  0  0  0  0
    2.1434   -1.2233    0.0187 C   0  0  0  0  0  0  0  0  0  0  0  0
    0.7501   -1.2981   -0.0812 C   0  0  0  0  0  0  0  0  0  0  0  0
    0.1749    0.0042   -0.2538 C   0  0  0  0  0  0  0  0  0  0  0  0
    1.0683    1.0246   -0.0396 C   0  0  0  0  0  0  0  0  0  0  0  0
    3.1082   -2.3189    0.0543 C   0  0  0  0  0  0  0  0  0  0  0  0
    2.8785   -3.5289    0.0332 O   0  0  0  0  0  0  0  0  0  0  0  0
    4.4045   -1.9206    0.0737 O   0  0  0  0  0  0  0  0  0  0  0  0
    0.7425    2.4535    0.0005 C   0  0  0  0  0  0  0  0  0  0  0  0
   -0.1046    2.9532    1.0213 C   0  0  0  0  0  0  0  0  0  0  0  0
   -0.5019    4.2946    1.0554 C   0  0  0  0  0  0  0  0  0  0  0  0
   -0.0364    5.1027    0.0176 C   0  0  0  0  0  0  0  0  0  0  0  0
    0.7600    4.6257   -1.0164 C   0  0  0  0  0  0  0  0  0  0  0  0
    1.1037    3.2871   -1.0576 C   0  0  0  0  0  0  0  0  0  0  0  0
   -1.5853    0.4795   -0.8367 Br  0  0  0  0  0  0  0  0  0  0  0  0
    0.1634   -2.5278   -0.0779 O   0  0  0  0  0  0  0  0  0  0  0  0
   -1.2490   -2.5721    0.0148 C   0  0  0  0  0  0  0  0  0  0  0  0
   -1.8797   -2.0800    1.3281 C   0  0  0  0  0  0  0  0  0  0  0  0
   -2.9301   -1.2343    1.1942 O   0  0  0  0  0  0  0  0  0  0  0  0
   -1.4934   -2.4200    2.4378 O   0  0  0  0  0  0  0  0  0  0  0  0
   -1.3661    4.7501    2.0383 N   0  0  0  0  0  0  0  0  0  0  0  0
   -1.6864    6.1590    2.2965 C   0  0  0  0  0  0  0  0  0  0  0  0
   -2.5812    6.7462    1.1929 C   0  0  0  0  0  0  0  0  0  0  0  0
   -2.9292    8.2011    1.4749 C   0  0  0  0  0  0  0  0  0  0  0  0
   -1.6766    9.0443    1.7019 C   0  0  0  0  0  0  0  0  0  0  0  0
   -0.8177    8.4792    2.8308 C   0  0  0  0  0  0  0  0  0  0  0  0
   -0.4428    7.0211    2.5801 C   0  0  0  0  0  0  0  0  0  0  0  0
  1  2  1  0
  1  5  1  0
  2  3  2  0
  2  6  1  0
  3  4  1  0
  3 16  1  0
  4  5  2  0
  4 15  1  0
  5  9  1  0
  6  7  2  0
  6  8  1  0
  9 10  2  0
  9 14  1  0
 10 11  1  0
 11 12  2  0
 11 21  1  0
 12 13  1  0
 13 14  2  0
 16 17  1  0
 17 18  1  0
 18 19  1  0
 18 20  2  0
 21 22  1  0
 22 23  1  0
 22 27  1  0
 23 24  1  0
 24 25  1  0
 25 26  1  0
 26 27  1  0
M  END
>  <DRUGBANK_ID>  (1) 
DB06829

>  <COMMON_NAME>  (1) 
4-BROMO-3-(CARBOXYMETHOXY)-5-[3-(CYCLOHEXYLAMINO)PHENYL]THIOPHENE-2-CARBOXYLIC ACID

$$$$
