
     RDKit          3D

 13 13  0  0  0  0  0  0  0  0999 V2000
   -2.7378   -0.3829   -0.1012 C   0  0  0  0  0  0  0  0  0  0  0  0
   -1.2950   -0.1519    0.0912 C   0  0  0  0  0  0  0  0  0  0  0  0
   -0.3342   -1.0909    0.4389 C   0  0  0  0  0  0  0  0  0  0  0  0
   -0.3215   -2.6034    0.3144 C   0  0  0  0  0  0  0  0  0  0  0  0
    0.2854   -3.2073   -0.9854 C   0  0  0  0  0  0  0  0  0  0  0  0
    1.6847   -2.9425   -1.2180 O   0  0  0  0  0  0  0  0  0  0  0  0
    1.9474   -1.2326   -1.2389 P   0  0  0  0  0  0  0  0  0  0  0  0
    3.4964   -1.6353   -1.5917 O   0  0  0  0  0  0  0  0  0  0  0  0
    1.4725   -1.2579   -2.8112 O   0  0  0  0  0  0  0  0  0  0  0  0
    2.1824    0.2976   -1.2576 O   0  0  0  0  0  0  0  0  0  0  0  0
    0.8290   -0.1973    1.3949 S   0  0  0  0  0  0  0  0  0  0  0  0
    0.3672    1.2204    0.5028 C   0  0  0  0  0  0  0  0  0  0  0  0
   -0.8240    1.1473   -0.0204 N   0  0  0  0  0  0  0  0  0  0  0  0
  1  2  1  0
  2  3  2  0
  2 13  1  0
  3  4  1  0
  3 11  1  0
  4  5  1  0
  5  6  1  0
  6  7  1  0
  7  8  1  0
  7  9  1  0
  7 10  2  0
 11 12  1  0
 12 13  2  0
M  END
>  <DRUGBANK_ID>  (1) 
DB03145

>  <SECONDARY_ACCESSION_NUMBERS>  (1) 
EXPT03154

>  <COMMON_NAME>  (1) 
4-Methyl-5-Hydroxyethylthiazole Phosphate

$$$$
