
     RDKit          3D

 12 13  0  0  0  0  0  0  0  0999 V2000
    1.2098    0.0451   -0.0138 I   0  0  0  0  0  0  0  0  0  0  0  0
    6.4845    2.8309   -0.0183 O   0  0  0  0  0  0  0  0  0  0  0  0
    6.4389   -1.2152   -0.0149 N   0  0  0  0  0  0  0  0  0  0  0  0
    4.0014    1.2066   -0.0142 N   0  0  0  0  0  0  0  0  0  0  0  0
    4.0231   -1.0263   -0.0133 N   0  0  0  0  0  0  0  0  0  0  0  0
    7.6589    0.8479   -0.0160 N   0  0  0  0  0  0  0  0  0  0  0  0
    8.7340   -1.1635   -0.0138 N   0  0  0  0  0  0  0  0  0  0  0  0
    5.3107    0.8285   -0.0146 C   0  0  0  0  0  0  0  0  0  0  0  0
    5.2900   -0.5316   -0.0140 C   0  0  0  0  0  0  0  0  0  0  0  0
    6.5025    1.6051   -0.0162 C   0  0  0  0  0  0  0  0  0  0  0  0
    7.5798   -0.4531   -0.0156 C   0  0  0  0  0  0  0  0  0  0  0  0
    3.2579    0.0527   -0.0136 C   0  0  0  0  0  0  0  0  0  0  0  0
  1 12  1  0
  2 10  2  0
  3  9  1  0
  3 11  1  0
  4  8  1  0
  4 12  1  0
  5  9  1  0
  5 12  2  0
  6 10  1  0
  6 11  2  0
  7 11  1  0
  8  9  2  0
  8 10  1  0
M  END
>  <DRUGBANK_ID>  (1) 
DB02985

>  <SECONDARY_ACCESSION_NUMBERS>  (1) 
EXPT00334

>  <COMMON_NAME>  (1) 
8-iodo-guanine

$$$$
