
     RDKit          3D

 25 28  0  0  1  0  0  0  0  0999 V2000
    1.5876    0.7721    0.7753 C   0  0  0  0  0  0  0  0  0  0  0  0
    1.4761    1.9102    1.9744 C   0  0  0  0  0  0  0  0  0  0  0  0
    2.4063    2.7002    2.7740 C   0  0  0  0  0  0  0  0  0  0  0  0
    1.5707    2.2853    3.8925 C   0  0  0  0  0  0  0  0  0  0  0  0
    2.2149    1.7327    4.7891 O   0  0  0  0  0  0  0  0  0  0  0  0
    0.2616    3.0100    3.9406 C   0  0  0  0  0  0  0  0  0  0  0  0
   -0.7192    2.7454    3.0893 C   0  0  0  0  0  0  0  0  0  0  0  0
   -0.1611    1.8561    2.0903 C   0  0  0  0  0  0  0  0  0  0  0  0
   -0.8906    1.1349    1.3852 O   0  0  0  0  0  0  0  0  0  0  0  0
   -1.6996    3.7711    3.0306 N   0  0  0  0  0  0  0  0  0  0  0  0
   -2.2091    4.0777    1.6827 C   0  0  0  0  0  0  0  0  0  0  0  0
   -0.9811    4.6772    1.0577 C   0  0  2  0  0  0  0  0  0  0  0  0
   -0.1354    5.3231    2.1812 C   0  0  2  0  0  0  0  0  0  0  0  0
   -0.8588    4.9261    3.5239 C   0  0  2  0  0  0  0  0  0  0  0  0
    0.0039    4.1562    4.7845 C   0  0  1  0  0  0  0  0  0  0  0  0
   -0.1991    3.0718    6.0325 C   0  0  0  0  0  0  0  0  0  0  0  0
    0.2981    1.6261    6.0050 O   0  0  0  0  0  0  0  0  0  0  0  0
   -0.2038    0.6417    5.1670 C   0  0  0  0  0  0  0  0  0  0  0  0
   -1.3630    0.6594    4.7275 O   0  0  0  0  0  0  0  0  0  0  0  0
    0.7364   -0.1939    4.5692 N   0  0  0  0  0  0  0  0  0  0  0  0
   -1.3577    6.1130    4.1498 O   0  0  0  0  0  0  0  0  0  0  0  0
   -2.2169    7.0213    3.5158 C   0  0  0  0  0  0  0  0  0  0  0  0
   -0.7758    6.0828    1.0786 N   0  0  0  0  0  0  0  0  0  0  0  0
    0.0107    6.5546   -0.0405 C   0  0  0  0  0  0  0  0  0  0  0  0
    2.9569    3.8269    3.7516 N   0  0  0  0  0  0  0  0  0  0  0  0
  1  2  1  0
  2  3  2  0
  2  8  1  0
  3  4  1  0
  3 25  1  0
  4  6  1  0
  4  5  2  0
  6  7  2  0
  6 15  1  0
  7  8  1  0
  7 10  1  0
  8  9  2  0
 10 11  1  0
 10 14  1  0
 12 11  1  1
 12 13  1  0
 12 23  1  0
 13 14  1  0
 13 23  1  6
 14 15  1  0
 14 21  1  1
 15 16  1  6
 16 17  1  0
 17 18  1  0
 18 19  2  0
 18 20  1  0
 21 22  1  0
 23 24  1  0
M  END
>  <DRUGBANK_ID>  (1) 
DB06478

>  <COMMON_NAME>  (1) 
Porfiromycin

>  <CAS_NUMBER>  (1) 
801-52-5

>  <UNII>  (1) 
H1WK901OA6

>  <SYNONYMS>  (1) 
Porfiromycin

$$$$
