
     RDKit          3D

 26 27  0  0  0  0  0  0  0  0999 V2000
    1.4573   -0.1296   -0.0321 C   0  0  0  0  0  0  0  0  0  0  0  0
    0.5822   -1.1554   -0.3143 C   0  0  0  0  0  0  0  0  0  0  0  0
   -0.7247   -0.8262   -0.6860 C   0  0  0  0  0  0  0  0  0  0  0  0
   -1.2771    0.4415   -0.3782 C   0  0  0  0  0  0  0  0  0  0  0  0
   -0.3908    1.4467   -0.0423 C   0  0  0  0  0  0  0  0  0  0  0  0
    0.9777    1.1790   -0.0077 C   0  0  0  0  0  0  0  0  0  0  0  0
   -2.7771    0.6900   -0.3552 C   0  0  0  0  0  0  0  0  0  0  0  0
   -3.5296    1.5734    1.1314 S   0  0  0  0  0  0  0  0  0  0  0  0
   -3.3246    0.5162    2.6531 C   0  0  0  0  0  0  0  0  0  0  0  0
   -4.1133   -0.8116    2.6644 C   0  0  0  0  0  0  0  0  0  0  0  0
   -3.7110   -1.7279    1.5462 C   0  0  0  0  0  0  0  0  0  0  0  0
   -2.1396   -1.6594    1.4383 C   0  0  0  0  0  0  0  0  0  0  0  0
   -1.3047   -2.2723    2.4733 C   0  0  0  0  0  0  0  0  0  0  0  0
   -1.8818   -3.6108    2.2673 C   0  0  0  0  0  0  0  0  0  0  0  0
   -1.6026   -4.6334    1.1719 C   0  0  0  0  0  0  0  0  0  0  0  0
   -0.2019   -5.0416    1.1787 C   0  0  0  0  0  0  0  0  0  0  0  0
    0.2177   -6.2197    1.1200 O   0  0  0  0  0  0  0  0  0  0  0  0
    0.6357   -4.0180    1.3196 O   0  0  0  0  0  0  0  0  0  0  0  0
   -4.8177   -3.5045    1.5618 S   0  0  0  0  0  0  0  0  0  0  0  0
   -4.2984   -4.6807    3.2424 C   0  0  0  0  0  0  0  0  0  0  0  0
   -2.7689   -5.1423    3.9868 C   0  0  0  0  0  0  0  0  0  0  0  0
   -1.8793   -4.1638    4.6921 C   0  0  0  0  0  0  0  0  0  0  0  0
   -0.4399   -4.1901    4.5529 C   0  0  0  0  0  0  0  0  0  0  0  0
    0.1522   -5.3588    4.1410 C   0  0  0  0  0  0  0  0  0  0  0  0
   -0.6829   -6.4467    3.8179 C   0  0  0  0  0  0  0  0  0  0  0  0
   -2.1029   -6.3265    3.6131 C   0  0  0  0  0  0  0  0  0  0  0  0
  1  2  2  0
  1  6  1  0
  2  3  1  0
  3  4  2  0
  4  5  1  0
  4  7  1  0
  5  6  2  0
  7  8  1  0
  8  9  1  0
  9 10  1  0
 10 11  1  0
 11 12  1  0
 11 19  1  0
 12 13  1  0
 13 14  1  0
 14 15  1  0
 15 16  1  0
 16 17  2  0
 16 18  1  0
 19 20  1  0
 20 21  1  0
 21 22  2  0
 21 26  1  0
 22 23  1  0
 23 24  2  0
 24 25  1  0
 25 26  2  0
M  END
>  <DRUGBANK_ID>  (1) 
DB12109

>  <COMMON_NAME>  (1) 
Devimistat

>  <CAS_NUMBER>  (1) 
95809-78-2

>  <UNII>  (1) 
E76113IR49

>  <SYNONYMS>  (1) 
6,8-bis-benzylsulfanyl-octanoic acid; 6,8-bis(benzylthio)octanoic acid; Octanoic acid, 6,8-bis((phenylmethyl)thio)-

$$$$
