
     RDKit          3D

 15 15  0  0  0  0  0  0  0  0999 V2000
    1.3543    0.1640   -0.4889 C   0  0  1  0  0  0  0  0  0  0  0  0
   -0.5248   -1.1846   -0.3517 N   0  0  0  0  0  0  0  0  0  0  0  0
    0.1569    0.9529   -0.3355 N   0  0  0  0  0  0  0  0  0  0  0  0
    2.6295    0.6998    0.1479 C   0  0  0  0  0  0  0  0  0  0  0  0
   -0.9685    0.1419   -0.4345 C   0  0  0  0  0  0  0  0  0  0  0  0
   -2.1293    0.5101   -0.3893 O   0  0  0  0  0  0  0  0  0  0  0  0
    0.8933   -1.2286   -0.0252 C   0  0  2  0  0  0  0  0  0  0  0  0
    1.2395   -1.4872    1.4617 C   0  0  0  0  0  0  0  0  0  0  0  0
    0.7314   -0.4221    2.4537 C   0  0  0  0  0  0  0  0  0  0  0  0
   -0.7818   -0.3640    2.5393 C   0  0  0  0  0  0  0  0  0  0  0  0
   -1.3938   -1.6652    2.9920 C   0  0  0  0  0  0  0  0  0  0  0  0
   -0.9569   -1.9488    4.4131 C   0  0  0  0  0  0  0  0  0  0  0  0
   -1.4296   -0.8689    5.3539 C   0  0  0  0  0  0  0  0  0  0  0  0
   -2.3135   -1.0002    6.1937 O   0  0  0  0  0  0  0  0  0  0  0  0
   -0.8290    0.3243    5.1830 O   0  0  0  0  0  0  0  0  0  0  0  0
  1  3  1  0
  1  4  1  1
  2  5  1  0
  3  5  1  0
  5  6  2  0
  7  1  1  0
  7  2  1  0
  7  8  1  1
  8  9  1  0
  9 10  1  0
 10 11  1  0
 11 12  1  0
 12 13  1  0
 13 14  2  0
 13 15  1  0
M  END
>  <DRUGBANK_ID>  (1) 
DB03775

>  <SECONDARY_ACCESSION_NUMBERS>  (1) 
EXPT01280

>  <COMMON_NAME>  (1) 
Dethiobiotin

>  <CAS_NUMBER>  (1) 
533-48-2

>  <UNII>  (1) 
71U5JB52KS

>  <SYNONYMS>  (1) 
(+)-dethiobiotin; (4R-cis)-5-methyl-2-oxo-4-imidazolidinehexanoic acid; (4R,5S)-5-methyl-2-oxo-4-imidazolidinehexanoic acid; (4R,5S)-dethiobiotin; d-Dethiobiotin

$$$$
