
     RDKit          3D

  9  9  0  0  1  0  0  0  0  0999 V2000
   -1.0977    0.0473    1.2494 C   0  0  0  0  0  0  0  0  0  0  0  0
    0.5372   -0.8932    3.7673 C   0  0  0  0  0  0  0  0  0  0  0  0
    0.9131    0.4909    4.2972 C   0  0  0  0  0  0  0  0  0  0  0  0
    0.4167    0.1135    1.4534 C   0  0  2  0  0  0  0  0  0  0  0  0
    0.9523   -1.0505    2.3047 C   0  0  1  0  0  0  0  0  0  0  0  0
    0.4802    1.6178    3.3591 C   0  0  2  0  0  0  0  0  0  0  0  0
    2.3830   -1.0851    2.2470 O   0  0  0  0  0  0  0  0  0  0  0  0
   -0.8906    1.9429    3.4896 O   0  0  0  0  0  0  0  0  0  0  0  0
    0.8344    1.3711    2.0048 O   0  0  0  0  0  0  0  0  0  0  0  0
  3  2  1  0
  4  1  1  1
  5  2  1  0
  5  4  1  0
  5  7  1  1
  6  3  1  0
  6  8  1  6
  9  4  1  0
  9  6  1  0
M  END
>  <DRUGBANK_ID>  (1) 
DB03872

>  <SECONDARY_ACCESSION_NUMBERS>  (1) 
EXPT00876

>  <COMMON_NAME>  (1) 
2,3-Dideoxyfucose

$$$$
