
     RDKit          3D

 28 31  0  0  0  0  0  0  0  0999 V2000
   -0.6085   -5.4065    1.4387 C   0  0  0  0  0  0  0  0  0  0  0  0
   -0.9019   -4.0791    0.7227 C   0  0  0  0  0  0  0  0  0  0  0  0
    0.2764   -3.4256    0.0791 C   0  0  0  0  0  0  0  0  0  0  0  0
    1.0261   -3.2226    1.1829 C   0  0  0  0  0  0  0  0  0  0  0  0
    1.5494   -4.4210    1.9457 C   0  0  2  0  0  0  0  0  0  0  0  0
    0.7252   -5.6464    1.4363 C   0  0  0  0  0  0  0  0  0  0  0  0
    1.2429   -1.8665    1.7596 C   0  0  0  0  0  0  0  0  0  0  0  0
    1.1513   -1.7288    3.3534 C   0  0  2  0  0  0  0  0  0  0  0  0
    2.0398   -2.8492    4.1248 C   0  0  2  0  0  0  0  0  0  0  0  0
    1.4298   -4.2508    3.5237 C   0  0  2  0  0  0  0  0  0  0  0  0
    2.7571   -2.6630    5.8779 C   0  0  1  0  0  0  0  0  0  0  0  0
    2.4860   -4.0382    6.0872 C   0  0  2  0  0  0  0  0  0  0  0  0
    1.7724   -5.2646    5.6482 C   0  0  0  0  0  0  0  0  0  0  0  0
    1.9488   -5.5047    4.1974 C   0  0  2  0  0  0  0  0  0  0  0  0
    3.7605   -3.6891    7.3558 C   0  0  0  0  0  0  0  0  0  0  0  0
    2.8206   -4.3946    8.3636 C   0  0  2  0  0  0  0  0  0  0  0  0
    1.9061   -3.5202    7.6785 C   0  0  2  0  0  0  0  0  0  0  0  0
   -1.9199   -3.4135    0.8667 O   0  0  0  0  0  0  0  0  0  0  0  0
    3.0038   -4.4568    1.4507 C   0  0  0  0  0  0  0  0  0  0  0  0
    3.3044   -5.7866    3.9424 O   0  0  0  0  0  0  0  0  0  0  0  0
    4.2074   -3.8077    5.2617 C   0  0  0  0  0  0  0  0  0  0  0  0
    2.9397   -4.2481    9.8631 C   0  0  0  0  0  0  0  0  0  0  0  0
    0.4273   -3.5798    7.9347 C   0  0  0  0  0  0  0  0  0  0  0  0
   -0.0830   -4.8359    8.6000 C   0  0  0  0  0  0  0  0  0  0  0  0
   -0.3032   -2.6232    7.6857 O   0  0  0  0  0  0  0  0  0  0  0  0
    2.2310   -2.1499    8.2403 O   0  0  0  0  0  0  0  0  0  0  0  0
   -0.5988   -4.6020    9.8931 O   0  0  0  0  0  0  0  0  0  0  0  0
   -0.5781   -1.7483    3.8265 Cl  0  0  0  0  0  0  0  0  0  0  0  0
  1  2  1  0
  1  6  2  0
  2  3  1  0
  2 18  2  0
  3  4  2  0
  4  5  1  0
  4  7  1  0
  5  6  1  0
  5 10  1  0
  5 19  1  1
  7  8  1  0
  9  8  1  1
  8 28  1  1
  9 10  1  0
  9 11  1  0
 10 14  1  1
 11 12  1  0
 11 15  1  6
 12 13  1  0
 12 17  1  0
 12 21  1  1
 13 14  1  0
 14 20  1  1
 15 16  1  0
 16 17  1  0
 16 22  1  1
 17 26  1  1
 17 23  1  0
 23 24  1  0
 23 25  2  0
 24 27  1  0
M  END
>  <DRUGBANK_ID>  (1) 
DB00240

>  <SECONDARY_ACCESSION_NUMBERS>  (1) 
APRD00783

>  <COMMON_NAME>  (1) 
Alclometasone

>  <CAS_NUMBER>  (1) 
67452-97-5

>  <UNII>  (1) 
136H45TB7B

>  <SYNONYMS>  (1) 
(7alpha,11beta,16alpha)-7-chloro-11,17,21-trihydroxy-16-methylpregna-1,4-diene-3,20-dione; 7α-Chloro-16α-methylprednisolone; Alclometasone

$$$$
