
     RDKit          3D

 36 39  0  0  1  0  0  0  0  0999 V2000
    1.8999   -0.2927   -0.7331 C   0  0  0  0  0  0  0  0  0  0  0  0
    0.8812   -0.5202   -1.8798 C   0  0  0  0  0  0  0  0  0  0  0  0
    1.1818   -1.9421   -2.2778 C   0  0  0  0  0  0  0  0  0  0  0  0
   -0.5639   -0.5329   -1.8828 O   0  0  0  0  0  0  0  0  0  0  0  0
    1.1246    0.7497   -2.6294 C   0  0  0  0  0  0  0  0  0  0  0  0
    0.3901    1.9733   -1.9104 C   0  0  0  0  0  0  0  0  0  0  0  0
    0.4984    2.3361   -0.4939 O   0  0  0  0  0  0  0  0  0  0  0  0
    0.1549    1.6112    0.6305 C   0  0  0  0  0  0  0  0  0  0  0  0
   -0.1980    0.2674    0.7269 C   0  0  0  0  0  0  0  0  0  0  0  0
    0.3102   -0.6013    1.6999 C   0  0  0  0  0  0  0  0  0  0  0  0
    0.4866   -0.0555    2.9364 C   0  0  0  0  0  0  0  0  0  0  0  0
    0.3851   -1.1596    3.8666 C   0  0  0  0  0  0  0  0  0  0  0  0
    0.0458   -1.1667    5.1957 C   0  0  0  0  0  0  0  0  0  0  0  0
   -0.0716   -2.3888    5.8503 C   0  0  0  0  0  0  0  0  0  0  0  0
    0.1063   -3.6033    5.1720 C   0  0  0  0  0  0  0  0  0  0  0  0
    0.3782   -3.6200    3.8124 C   0  0  0  0  0  0  0  0  0  0  0  0
    0.4839   -2.3939    3.1779 C   0  0  0  0  0  0  0  0  0  0  0  0
    0.6952   -2.1332    1.7028 C   0  0  1  0  0  0  0  0  0  0  0  0
   -0.2237   -2.9106    0.9190 O   0  0  0  0  0  0  0  0  0  0  0  0
    2.2436   -2.5477    1.4007 C   0  0  0  0  0  0  0  0  0  0  0  0
    2.5921   -3.7206    1.9892 F   0  0  0  0  0  0  0  0  0  0  0  0
    2.4719   -2.7913    0.0788 F   0  0  0  0  0  0  0  0  0  0  0  0
    3.1361   -1.6109    1.7926 F   0  0  0  0  0  0  0  0  0  0  0  0
    0.5482    1.3315    2.9997 C   0  0  0  0  0  0  0  0  0  0  0  0
    0.4823    2.1702    1.8423 C   0  0  0  0  0  0  0  0  0  0  0  0
    0.3734    1.9991    4.2329 C   0  0  0  0  0  0  0  0  0  0  0  0
    0.9292    1.9866    5.4979 C   0  0  0  0  0  0  0  0  0  0  0  0
    0.2035    2.7341    6.3421 N   0  0  0  0  0  0  0  0  0  0  0  0
   -0.8408    3.1924    5.5777 N   0  0  0  0  0  0  0  0  0  0  0  0
   -0.8280    2.6145    4.3724 C   0  0  0  0  0  0  0  0  0  0  0  0
   -1.7960    4.1778    6.1075 C   0  0  0  0  0  0  0  0  0  0  0  0
   -2.4571    3.5772    7.3627 C   0  0  0  0  0  0  0  0  0  0  0  0
   -0.9926    5.4264    6.5313 C   0  0  0  0  0  0  0  0  0  0  0  0
   -2.9598    4.6871    5.1728 C   0  0  0  0  0  0  0  0  0  0  0  0
   -3.1980    4.2866    3.8851 N   0  0  0  0  0  0  0  0  0  0  0  0
   -3.7664    5.5084    5.5895 O   0  0  0  0  0  0  0  0  0  0  0  0
  1  2  1  0
  2  3  1  0
  2  4  1  0
  2  5  1  0
  5  6  1  0
  6  7  1  0
  7  8  1  0
  8  9  2  0
  8 25  1  0
  9 10  1  0
 10 11  2  0
 11 12  1  0
 11 24  1  0
 12 13  2  0
 12 17  1  0
 13 14  1  0
 14 15  2  0
 15 16  1  0
 16 17  2  0
 18 17  1  0
 18 10  1  0
 18 20  1  0
 18 19  1  6
 20 21  1  0
 20 22  1  0
 20 23  1  0
 24 25  2  0
 24 26  1  0
 26 27  1  0
 26 30  2  0
 27 28  2  0
 28 29  1  0
 29 30  1  0
 29 31  1  0
 31 32  1  0
 31 33  1  0
 31 34  1  0
 34 35  1  0
 34 36  2  0
M  END
>  <DRUGBANK_ID>  (1) 
DB18174

>  <COMMON_NAME>  (1) 
JTT-251

>  <CAS_NUMBER>  (1) 
1627957-25-8

>  <UNII>  (1) 
VZ3FG834W3

$$$$
