
     RDKit          3D

 20 21  0  0  0  0  0  0  0  0999 V2000
    1.0737   -0.0333   -0.1141 C   0  0  0  0  0  0  0  0  0  0  0  0
    0.5917   -1.4293   -0.4508 C   0  0  0  0  0  0  0  0  0  0  0  0
    0.5627    0.3796    1.1619 O   0  0  0  0  0  0  0  0  0  0  0  0
    0.6052    1.0115   -1.1410 C   0  0  0  0  0  0  0  0  0  0  0  0
    1.4722   -2.5009   -0.2737 C   0  0  0  0  0  0  0  0  0  0  0  0
   -0.7380   -1.6909   -0.8150 C   0  0  0  0  0  0  0  0  0  0  0  0
    0.9530   -0.2639    2.3039 C   0  0  0  0  0  0  0  0  0  0  0  0
    1.1157    2.4176   -0.8250 C   0  0  0  0  0  0  0  0  0  0  0  0
    1.0282   -3.8129   -0.4075 C   0  0  0  0  0  0  0  0  0  0  0  0
   -1.1920   -3.0052   -0.9054 C   0  0  0  0  0  0  0  0  0  0  0  0
    2.2750   -0.6758    2.5156 C   0  0  0  0  0  0  0  0  0  0  0  0
    0.0155   -0.3923    3.3457 C   0  0  0  0  0  0  0  0  0  0  0  0
    2.5789    2.4580   -0.8299 N   0  0  0  0  0  0  0  0  0  0  0  0
   -0.3096   -4.0594   -0.7115 C   0  0  0  0  0  0  0  0  0  0  0  0
    2.6742   -1.1930    3.7495 C   0  0  0  0  0  0  0  0  0  0  0  0
    0.4458   -0.8532    4.5978 C   0  0  0  0  0  0  0  0  0  0  0  0
    3.0513    3.7997   -0.5262 C   0  0  0  0  0  0  0  0  0  0  0  0
    1.7641   -1.2614    4.7991 C   0  0  0  0  0  0  0  0  0  0  0  0
   -1.3281   -0.1031    3.3038 O   0  0  0  0  0  0  0  0  0  0  0  0
   -1.9164    0.0581    2.0196 C   0  0  0  0  0  0  0  0  0  0  0  0
  1  2  1  0
  1  3  1  0
  1  4  1  0
  2  5  2  0
  2  6  1  0
  3  7  1  0
  4  8  1  0
  5  9  1  0
  6 10  2  0
  7 11  2  0
  7 12  1  0
  8 13  1  0
  9 14  2  0
 10 14  1  0
 11 15  1  0
 12 16  2  0
 12 19  1  0
 13 17  1  0
 15 18  2  0
 16 18  1  0
 19 20  1  0
M  END
>  <DRUGBANK_ID>  (1) 
DB09186

>  <COMMON_NAME>  (1) 
Nisoxetine

>  <CAS_NUMBER>  (1) 
53179-07-0

>  <UNII>  (1) 
17NV064B2D

>  <SYNONYMS>  (1) 
nisoxetina; Nisoxetine

$$$$
