589
     RDKit          3D

 25 28  0  0  1  0  0  0  0  0999 V2000
    0.7565   -0.1719    0.4363 O   0  0  0  0  0  0  0  0  0  0  0  0
    5.9868   -0.2979   -0.9818 N   0  0  0  0  0  0  0  0  0  0  0  0
    2.8927   -0.3312    1.2243 N   0  0  0  0  0  0  0  0  0  0  0  0
    7.0610   -5.8609   -2.1765 N   0  0  0  0  0  0  0  0  0  0  0  0
    2.3766    0.4683   -1.0053 N   0  0  0  0  0  0  0  0  0  0  0  0
    6.0369   -1.7453   -0.9973 C   0  0  1  0  0  0  0  0  0  0  0  0
    5.6053   -2.4202    0.3727 C   0  0  0  0  0  0  0  0  0  0  0  0
    5.4317   -2.5578   -2.2104 C   0  0  0  0  0  0  0  0  0  0  0  0
    4.4679   -0.5480    1.4418 C   0  0  2  0  0  0  0  0  0  0  0  0
    5.5636    0.1452    0.4975 C   0  0  0  0  0  0  0  0  0  0  0  0
    6.0230   -3.9146   -2.0576 C   0  0  0  0  0  0  0  0  0  0  0  0
    6.1554   -3.7493    0.4906 C   0  0  0  0  0  0  0  0  0  0  0  0
    6.3329   -4.3703   -0.7501 C   0  0  0  0  0  0  0  0  0  0  0  0
    4.8872   -1.9423    1.4132 C   0  0  0  0  0  0  0  0  0  0  0  0
    6.9734   -5.5796   -0.8298 C   0  0  0  0  0  0  0  0  0  0  0  0
    5.9166    0.3754   -2.4078 C   0  0  0  0  0  0  0  0  0  0  0  0
    6.4986   -4.8519   -2.9346 C   0  0  0  0  0  0  0  0  0  0  0  0
    6.5570   -4.3613    1.6647 C   0  0  0  0  0  0  0  0  0  0  0  0
    7.3866   -6.2335    0.3374 C   0  0  0  0  0  0  0  0  0  0  0  0
    7.1501   -5.6069    1.5802 C   0  0  0  0  0  0  0  0  0  0  0  0
    1.9250   -0.0412    0.2146 C   0  0  0  0  0  0  0  0  0  0  0  0
    1.7959    0.3759   -2.3667 C   0  0  0  0  0  0  0  0  0  0  0  0
    3.7213    0.5199   -1.1398 C   0  0  0  0  0  0  0  0  0  0  0  0
    2.2889    1.5872   -3.1992 C   0  0  0  0  0  0  0  0  0  0  0  0
    4.5505    2.0591   -0.8021 C   0  0  0  0  0  0  0  0  0  0  0  0
  1 21  2  0
  2  6  1  0
  2 10  1  0
  2 16  1  0
  3 21  1  0
  4 15  1  0
  4 17  1  0
  5 21  1  0
  5 22  1  0
  5 23  1  0
  6  7  1  0
  6  8  1  6
  7 12  1  0
  7 14  2  0
  8 11  1  0
  9  3  1  6
  9 10  1  0
  9 14  1  0
 11 13  1  0
 11 17  2  0
 12 13  2  0
 12 18  1  0
 13 15  1  0
 15 19  2  0
 18 20  2  0
 19 20  1  0
 22 24  1  0
 23 25  1  0
M  END
>  <DRUGBANK_ID>  (1) 
DB00589

>  <SECONDARY_ACCESSION_NUMBERS>  (1) 
APRD00636

>  <COMMON_NAME>  (1) 
Lisuride

>  <CAS_NUMBER>  (1) 
18016-80-3

>  <UNII>  (1) 
E0QN3D755O

>  <SYNONYMS>  (1) 
Lisurid; Lisurida; Lisuride; Lisuridum; N'-((8alpha)-9,10-Didehydro-6-methylergolin-8-yl)-N,N-diethylurea

$$$$
