
     RDKit          3D

 12 13  0  0  1  0  0  0  0  0999 V2000
    1.3503   -0.5452    0.0076 C   0  0  0  0  0  0  0  0  0  0  0  0
   -1.4803    1.9286    1.4085 C   0  0  0  0  0  0  0  0  0  0  0  0
    0.3121   -1.6133    0.3550 C   0  0  1  0  0  0  0  0  0  0  0  0
    0.7627    0.7905    0.4138 C   0  0  2  0  0  0  0  0  0  0  0  0
   -0.8470   -1.3137   -0.6203 C   0  0  2  0  0  0  0  0  0  0  0  0
   -1.7021   -0.2422    0.0798 C   0  0  1  0  0  0  0  0  0  0  0  0
   -0.8076    0.9333    0.4984 C   0  0  1  0  0  0  0  0  0  0  0  0
   -1.4870    3.2434    0.8758 O   0  0  0  0  0  0  0  0  0  0  0  0
    0.8516   -2.9202    0.2896 O   0  0  0  0  0  0  0  0  0  0  0  0
   -1.5712   -2.4615   -1.0318 O   0  0  0  0  0  0  0  0  0  0  0  0
   -2.7288    0.1962   -0.8090 O   0  0  0  0  0  0  0  0  0  0  0  0
   -0.0173    1.4627   -0.5774 O   0  0  0  0  0  0  0  0  0  0  0  0
  3  1  1  0
  3  9  1  6
  4  1  1  6
  5  3  1  0
  5 10  1  1
  6  5  1  0
  6 11  1  6
  7  4  1  0
  7  6  1  0
  7  2  1  1
  8  2  1  0
 12  4  1  0
 12  7  1  0
M  END
>  <DRUGBANK_ID>  (1) 
DB02394

>  <SECONDARY_ACCESSION_NUMBERS>  (1) 
EXPT02443

>  <COMMON_NAME>  (1) 
Oxiranpseudoglucose

$$$$
