
     RDKit          3D

 37 42  0  0  1  0  0  0  0  0999 V2000
    0.3065    3.0276    1.3598 C   0  0  0  0  0  0  0  0  0  0  0  0
   -1.2618    2.5571    2.0046 C   0  0  0  0  0  0  0  0  0  0  0  0
   -2.5163    1.7460    1.0104 C   0  0  0  0  0  0  0  0  0  0  0  0
   -2.1589    1.3427   -0.7663 C   0  0  0  0  0  0  0  0  0  0  0  0
   -0.4646    1.6880   -1.4810 C   0  0  0  0  0  0  0  0  0  0  0  0
    0.7628    2.6471   -0.3803 C   0  0  0  0  0  0  0  0  0  0  0  0
    1.9941    1.9928   -0.3045 C   0  0  1  0  0  0  0  0  0  0  0  0
    2.8981    2.6245   -1.3239 C   0  0  0  0  0  0  0  0  0  0  0  0
    3.3981    2.3426    0.0818 C   0  0  1  0  0  0  0  0  0  0  0  0
    3.8643    3.3818    1.1007 C   0  0  0  0  0  0  0  0  0  0  0  0
    3.5058    2.8974    2.5155 C   0  0  0  0  0  0  0  0  0  0  0  0
    3.9112    3.8524    3.6263 C   0  0  0  0  0  0  0  0  0  0  0  0
    3.4176    5.2706    3.3729 C   0  0  0  0  0  0  0  0  0  0  0  0
    3.8994    5.7742    2.0187 C   0  0  0  0  0  0  0  0  0  0  0  0
    3.4658    4.8447    0.8760 C   0  0  0  0  0  0  0  0  0  0  0  0
    1.1065    0.8677    0.1372 C   0  0  0  0  0  0  0  0  0  0  0  0
    1.4483   -0.3047    0.2337 O   0  0  0  0  0  0  0  0  0  0  0  0
   -0.4729    1.4160    0.4471 N   0  0  0  0  0  0  0  0  0  0  0  0
   -1.1995    3.0890   -0.2110 C   0  0  0  0  0  0  0  0  0  0  0  0
   -0.7974    3.8290   -1.3131 N   0  0  0  0  0  0  0  0  0  0  0  0
   -1.8387    4.2542   -2.1683 C   0  0  0  0  0  0  0  0  0  0  0  0
   -3.0144    4.5438   -1.4619 C   0  0  0  0  0  0  0  0  0  0  0  0
   -2.5977    4.0732    0.1049 S   0  0  0  0  0  0  0  0  0  0  0  0
   -4.2734    6.0350   -1.4563 S   0  0  0  0  0  0  0  0  0  0  0  0
   -3.1576    7.7403   -2.1217 C   0  0  0  0  0  0  0  0  0  0  0  0
   -1.4188    8.2458   -1.7193 C   0  0  0  0  0  0  0  0  0  0  0  0
   -0.4608    7.1112   -1.5991 N   0  0  0  0  0  0  0  0  0  0  0  0
   -1.4506    6.4792   -0.8316 C   0  0  0  0  0  0  0  0  0  0  0  0
   -1.2468    6.4890    0.6209 C   0  0  0  0  0  0  0  0  0  0  0  0
    0.1102    5.9855    0.5713 C   0  0  0  0  0  0  0  0  0  0  0  0
    0.6315    6.5086   -0.7850 C   0  0  0  0  0  0  0  0  0  0  0  0
   -4.3753    2.5448    1.5924 S   0  0  0  0  0  0  0  0  0  0  0  0
   -4.9418    3.5359    0.6824 O   0  0  0  0  0  0  0  0  0  0  0  0
   -5.1717    1.3550    1.7686 O   0  0  0  0  0  0  0  0  0  0  0  0
   -4.3299    3.4991    3.1524 C   0  0  0  0  0  0  0  0  0  0  0  0
   -3.5796    4.8405    3.3600 C   0  0  0  0  0  0  0  0  0  0  0  0
   -3.3647    3.6471    4.2706 C   0  0  0  0  0  0  0  0  0  0  0  0
  1  2  2  0
  1  6  1  0
  2  3  1  0
  3  4  2  0
  3 32  1  0
  4  5  1  0
  5  6  2  0
  7  8  1  0
  7  9  1  0
  7 16  1  6
  7  6  1  0
  8  9  1  0
  9 10  1  1
 10 11  1  0
 10 15  1  0
 11 12  1  0
 12 13  1  0
 13 14  1  0
 14 15  1  0
 16 17  2  0
 16 18  1  0
 18 19  1  0
 19 20  2  0
 19 23  1  0
 20 21  1  0
 21 22  2  0
 22 23  1  0
 22 24  1  0
 24 25  1  0
 25 26  1  0
 26 27  1  0
 27 28  1  0
 27 31  1  0
 28 29  1  0
 29 30  1  0
 30 31  1  0
 32 33  2  0
 32 34  2  0
 32 35  1  0
 35 36  1  0
 35 37  1  0
 36 37  1  0
M  END
>  <DRUGBANK_ID>  (1) 
DB12284

>  <COMMON_NAME>  (1) 
LY-2608204

>  <CAS_NUMBER>  (1) 
1234703-40-2

>  <UNII>  (1) 
5A0L003HEY

$$$$
