
     RDKit          3D

 25 29  0  0  1  0  0  0  0  0999 V2000
    0.7279   -2.5733    0.1474 C   0  0  0  0  0  0  0  0  0  0  0  0
   -0.5890   -1.5537   -0.0107 N   0  0  1  0  0  0  0  0  0  0  0  0
   -2.1777   -2.2663   -0.7259 C   0  0  0  0  0  0  0  0  0  0  0  0
   -2.3072   -3.3369    0.2759 C   0  0  0  0  0  0  0  0  0  0  0  0
   -2.7274   -2.7410    1.7271 C   0  0  1  0  0  0  0  0  0  0  0  0
   -3.3575   -3.7664    2.6667 C   0  0  1  0  0  0  0  0  0  0  0  0
   -4.7882   -3.5941    2.5571 O   0  0  0  0  0  0  0  0  0  0  0  0
   -4.9476   -2.2549    2.2730 C   0  0  0  0  0  0  0  0  0  0  0  0
   -6.0796   -1.4741    2.3416 C   0  0  0  0  0  0  0  0  0  0  0  0
   -7.2956   -1.9867    2.6656 O   0  0  0  0  0  0  0  0  0  0  0  0
   -5.9855   -0.1013    2.0522 C   0  0  0  0  0  0  0  0  0  0  0  0
   -4.7820    0.4700    1.5888 C   0  0  0  0  0  0  0  0  0  0  0  0
   -3.6806   -0.3563    1.3998 C   0  0  0  0  0  0  0  0  0  0  0  0
   -2.4407   -0.0330    0.6504 C   0  0  0  0  0  0  0  0  0  0  0  0
   -1.2069   -0.9817    1.2499 C   0  0  1  0  0  0  0  0  0  0  0  0
   -1.4613   -2.1623    2.2883 C   0  0  1  0  0  0  0  0  0  0  0  0
   -1.4987   -1.4942    3.5520 O   0  0  0  0  0  0  0  0  0  0  0  0
   -0.5584   -3.4652    2.5273 C   0  0  0  0  0  0  0  0  0  0  0  0
   -1.0907   -4.8757    2.0813 C   0  0  0  0  0  0  0  0  0  0  0  0
   -2.6015   -5.0205    2.2730 C   0  0  0  0  0  0  0  0  0  0  0  0
   -3.2058   -6.0871    1.8952 O   0  0  0  0  0  0  0  0  0  0  0  0
   -3.7936   -1.6970    1.7922 C   0  0  0  0  0  0  0  0  0  0  0  0
    0.3652   -0.3237   -0.3727 C   0  0  0  0  0  0  0  0  0  0  0  0
    0.7226   -0.4523   -1.7764 C   0  0  0  0  0  0  0  0  0  0  0  0
   -0.0915    0.1847   -2.6068 C   0  0  0  0  0  0  0  0  0  0  0  0
  2  3  1  0
  2 15  1  0
  2 23  1  0
  2  1  1  1
  3  4  1  0
  5  4  1  6
  5  6  1  0
  5 16  1  0
  5 22  1  0
  6  7  1  6
  6 20  1  0
  7  8  1  0
  8  9  1  0
  8 22  2  0
  9 10  1  0
  9 11  2  0
 11 12  1  0
 12 13  2  0
 13 14  1  0
 13 22  1  0
 15 14  1  6
 15 16  1  0
 16 17  1  1
 16 18  1  0
 18 19  1  0
 19 20  1  0
 20 21  2  0
 23 24  1  0
 24 25  2  0
M  CHG  1   2   1
M  END
>  <DRUGBANK_ID>  (1) 
DB04509

>  <SECONDARY_ACCESSION_NUMBERS>  (1) 
EXPT02359

>  <COMMON_NAME>  (1) 
N-Methylnaloxonium

$$$$
