
     RDKit          3D

  7  6  0  0  0  0  0  0  0  0999 V2000
    0.9493    0.0940    0.0450 C   0  0  0  0  0  0  0  0  0  0  0  0
    0.4162    1.4554    0.4550 C   0  0  0  0  0  0  0  0  0  0  0  0
    0.8109    2.4829   -0.4880 N   0  0  0  0  0  0  0  0  0  0  0  0
   -0.0189    3.2856   -1.2192 C   0  0  0  0  0  0  0  0  0  0  0  0
    0.4216    4.1309   -1.9891 O   0  0  0  0  0  0  0  0  0  0  0  0
   -1.3353    3.0439   -0.9990 O   0  0  0  0  0  0  0  0  0  0  0  0
   -2.2399    3.8610   -1.7477 C   0  0  0  0  0  0  0  0  0  0  0  0
  1  2  1  0
  2  3  1  0
  3  4  1  0
  4  5  2  0
  4  6  1  0
  6  7  1  0
M  END
>  <DRUGBANK_ID>  (1) 
DB03919

>  <SECONDARY_ACCESSION_NUMBERS>  (1) 
EXPT02149

>  <COMMON_NAME>  (1) 
Ethyl-Carbamic Acid Methyl Ester

>  <UNII>  (1) 
RA2E9801WV

$$$$
