
     RDKit          3D

 36 38  0  0  0  0  0  0  0  0999 V2000
    1.0976    0.0217    0.0020 P   0  0  0  0  0  0  0  0  0  0  0  0
    1.0739   -1.6265   -0.6219 C   0  0  0  0  0  0  0  0  0  0  0  0
    2.2521   -2.3701   -0.4479 O   0  0  0  0  0  0  0  0  0  0  0  0
    3.6030   -1.8810   -0.7802 C   0  0  0  0  0  0  0  0  0  0  0  0
    4.0692   -0.4056   -1.4617 C   0  0  0  0  0  0  0  0  0  0  0  0
    3.7583   -1.6095   -2.2373 C   0  0  0  0  0  0  0  0  0  0  0  0
    4.5370   -2.6792    0.1037 C   0  0  0  0  0  0  0  0  0  0  0  0
    2.9900   -3.5364    3.8050 N   0  0  0  0  0  0  0  0  0  0  0  0
    2.8748   -3.6114    2.1624 C   0  0  0  0  0  0  0  0  0  0  0  0
    4.2120   -2.6082    1.5692 N   0  0  0  0  0  0  0  0  0  0  0  0
    5.0981   -1.9323    2.9048 C   0  0  0  0  0  0  0  0  0  0  0  0
    6.2032   -1.1165    2.9373 N   0  0  0  0  0  0  0  0  0  0  0  0
    6.4164   -0.6798    4.2178 C   0  0  0  0  0  0  0  0  0  0  0  0
    5.5827   -0.4900    5.2874 N   0  0  0  0  0  0  0  0  0  0  0  0
    4.4051   -1.1771    5.3574 C   0  0  0  0  0  0  0  0  0  0  0  0
    4.2918   -2.3533    4.3479 C   0  0  0  0  0  0  0  0  0  0  0  0
    7.7210   -0.4028    4.4746 N   0  0  0  0  0  0  0  0  0  0  0  0
    2.4669    0.9298    2.0595 C   0  0  0  0  0  0  0  0  0  0  0  0
    1.1959    0.7267    1.4442 O   0  0  0  0  0  0  0  0  0  0  0  0
   -1.1953    0.9289    0.9566 C   0  0  0  0  0  0  0  0  0  0  0  0
   -0.6324    0.0217    0.0020 O   0  0  0  0  0  0  0  0  0  0  0  0
    2.3692   -1.1011    3.0283 C   0  0  0  0  0  0  0  0  0  0  0  0
    1.2935   -1.5037    3.9301 C   0  0  0  0  0  0  0  0  0  0  0  0
    0.3827   -2.5612    3.3302 C   0  0  0  0  0  0  0  0  0  0  0  0
    3.1784   -1.9689    2.9442 O   0  0  0  0  0  0  0  0  0  0  0  0
    3.0239   -0.2789    2.2982 O   0  0  0  0  0  0  0  0  0  0  0  0
    1.3968   -1.9339    5.3795 C   0  0  0  0  0  0  0  0  0  0  0  0
    0.8501   -0.1184    4.0255 C   0  0  0  0  0  0  0  0  0  0  0  0
   -1.6111   -0.8128    2.6903 C   0  0  0  0  0  0  0  0  0  0  0  0
   -2.1099   -1.9359    1.7365 C   0  0  0  0  0  0  0  0  0  0  0  0
   -1.3885   -3.2747    1.3776 C   0  0  0  0  0  0  0  0  0  0  0  0
   -1.6462   -0.9856    3.9152 O   0  0  0  0  0  0  0  0  0  0  0  0
   -1.2386    0.4088    2.2798 O   0  0  0  0  0  0  0  0  0  0  0  0
   -3.3116   -2.3358    2.5617 C   0  0  0  0  0  0  0  0  0  0  0  0
   -2.6191   -1.3942    0.4356 C   0  0  0  0  0  0  0  0  0  0  0  0
    2.6460    0.0217    0.0020 O   0  0  0  0  0  0  0  0  0  0  0  0
  1  2  1  0
  1 19  1  0
  1 21  1  0
  1 36  2  0
  2  3  1  0
  3  4  1  0
  4  5  1  0
  4  6  1  0
  4  7  1  0
  5  6  1  0
  7 10  1  0
  8  9  2  0
  8 16  1  0
  9 10  1  0
 10 11  1  0
 11 12  1  0
 11 16  2  0
 12 13  2  0
 13 14  1  0
 13 17  1  0
 14 15  2  0
 15 16  1  0
 18 19  1  0
 18 26  1  0
 20 21  1  0
 20 33  1  0
 22 23  1  0
 22 25  2  0
 22 26  1  0
 23 24  1  0
 23 27  1  0
 23 28  1  0
 29 30  1  0
 29 32  2  0
 29 33  1  0
 30 31  1  0
 30 34  1  0
 30 35  1  0
M  END
>  <DRUGBANK_ID>  (1) 
DB05020

>  <COMMON_NAME>  (1) 
Besifovir dipivoxil

>  <CAS_NUMBER>  (1) 
441785-26-8

>  <UNII>  (1) 
S9I9P4J8IU

$$$$
