
     RDKit          3D

 34 37  0  0  0  0  0  0  0  0999 V2000
    1.0002   -0.2581    0.0017 C   0  0  0  0  0  0  0  0  0  0  0  0
    0.5588   -0.2546    1.4515 C   0  0  0  0  0  0  0  0  0  0  0  0
    1.0922    0.9539    2.2379 C   0  0  0  0  0  0  0  0  0  0  0  0
    0.5595    2.2630    1.7850 N   0  0  0  0  0  0  0  0  0  0  0  0
   -0.3703    2.8864    2.8312 C   0  0  0  0  0  0  0  0  0  0  0  0
    0.1600    4.1442    3.5918 C   0  0  0  0  0  0  0  0  0  0  0  0
    0.1405    5.1265    2.5302 C   0  0  0  0  0  0  0  0  0  0  0  0
    1.0460    2.7382    0.5067 C   0  0  0  0  0  0  0  0  0  0  0  0
    2.0269    2.2073   -0.0332 O   0  0  0  0  0  0  0  0  0  0  0  0
    0.5518    3.9542   -0.2860 C   0  0  0  0  0  0  0  0  0  0  0  0
    0.0640    3.9401   -1.5333 C   0  0  0  0  0  0  0  0  0  0  0  0
   -0.3286    5.2287   -2.1780 C   0  0  0  0  0  0  0  0  0  0  0  0
   -1.5358    5.1462   -2.8933 C   0  0  0  0  0  0  0  0  0  0  0  0
   -2.0719    6.2729   -3.5124 C   0  0  0  0  0  0  0  0  0  0  0  0
   -1.4591    7.5196   -3.3715 C   0  0  0  0  0  0  0  0  0  0  0  0
   -0.3075    7.6232   -2.5948 C   0  0  0  0  0  0  0  0  0  0  0  0
    0.3261    6.5060   -2.0710 C   0  0  0  0  0  0  0  0  0  0  0  0
    1.5734    6.8607   -1.4565 N   0  0  0  0  0  0  0  0  0  0  0  0
    1.8768    6.3261   -0.3543 C   0  0  0  0  0  0  0  0  0  0  0  0
    0.9893    5.2731    0.1886 C   0  0  0  0  0  0  0  0  0  0  0  0
    2.8979    6.6907    0.5258 N   0  0  0  0  0  0  0  0  0  0  0  0
   -1.9840    8.7316   -3.9801 C   0  0  0  0  0  0  0  0  0  0  0  0
   -1.1882    9.5250   -4.8221 C   0  0  0  0  0  0  0  0  0  0  0  0
   -1.5888   10.8237   -5.1551 C   0  0  0  0  0  0  0  0  0  0  0  0
   -2.8452   11.2960   -4.7550 C   0  0  0  0  0  0  0  0  0  0  0  0
   -3.7089   10.4053   -4.1075 C   0  0  0  0  0  0  0  0  0  0  0  0
   -3.2577    9.1758   -3.6455 C   0  0  0  0  0  0  0  0  0  0  0  0
   -3.2682   12.6992   -5.0894 C   0  0  0  0  0  0  0  0  0  0  0  0
   -2.5451   13.4028   -5.7975 O   0  0  0  0  0  0  0  0  0  0  0  0
   -4.5215   13.1062   -4.6754 N   0  0  0  0  0  0  0  0  0  0  0  0
   -5.0159   13.1308   -3.3110 C   0  0  0  0  0  0  0  0  0  0  0  0
   -6.4987   12.8831   -3.5139 C   0  0  0  0  0  0  0  0  0  0  0  0
   -6.8067   13.6980   -4.7726 C   0  0  0  0  0  0  0  0  0  0  0  0
   -5.4992   13.6906   -5.5770 C   0  0  0  0  0  0  0  0  0  0  0  0
  1  2  1  0
  2  3  1  0
  3  4  1  0
  4  5  1  0
  4  8  1  0
  5  6  1  0
  6  7  1  0
  8  9  2  0
  8 10  1  0
 10 11  2  0
 10 20  1  0
 11 12  1  0
 12 13  2  0
 12 17  1  0
 13 14  1  0
 14 15  2  0
 15 16  1  0
 15 22  1  0
 16 17  2  0
 17 18  1  0
 18 19  2  0
 19 20  1  0
 19 21  1  0
 22 23  2  0
 22 27  1  0
 23 24  1  0
 24 25  2  0
 25 26  1  0
 25 28  1  0
 26 27  2  0
 28 29  2  0
 28 30  1  0
 30 31  1  0
 30 34  1  0
 31 32  1  0
 32 33  1  0
 33 34  1  0
M  END
>  <DRUGBANK_ID>  (1) 
DB12303

>  <COMMON_NAME>  (1) 
Motolimod

>  <CAS_NUMBER>  (1) 
926927-61-9

>  <UNII>  (1) 
WP6PY72ZH3

>  <SYNONYMS>  (1) 
{2-amino-8-[4-(pyrrolidinylcarbonyl)phenyl](3H-benzo[f]azepin-4-yl)}-N,N-dipropycarboxamide; Motolimod

$$$$
