
     RDKit          3D

 28 32  0  0  0  0  0  0  0  0999 V2000
    2.4123   -0.0818   -0.0031 C   0  0  0  0  0  0  0  0  0  0  0  0
    0.9113   -0.0417    0.0332 C   0  0  0  0  0  0  0  0  0  0  0  0
    0.1809   -1.2252    0.0163 C   0  0  0  0  0  0  0  0  0  0  0  0
   -1.2072   -1.1519    0.0356 C   0  0  0  0  0  0  0  0  0  0  0  0
   -1.8294    0.0941    0.1108 C   0  0  0  0  0  0  0  0  0  0  0  0
   -1.0388    1.2380    0.1590 C   0  0  0  0  0  0  0  0  0  0  0  0
    0.3228    1.1824    0.0897 N   0  0  0  0  0  0  0  0  0  0  0  0
   -1.6501    2.5839    0.0990 C   0  0  0  0  0  0  0  0  0  0  0  0
   -1.4313    3.5351   -0.9652 C   0  0  0  0  0  0  0  0  0  0  0  0
   -2.1810    4.6252   -0.6230 C   0  0  0  0  0  0  0  0  0  0  0  0
   -2.7917    4.3028    0.5394 N   0  0  0  0  0  0  0  0  0  0  0  0
   -2.5409    3.0745    1.0053 N   0  0  0  0  0  0  0  0  0  0  0  0
   -3.6449    5.3590    1.0605 C   0  0  0  0  0  0  0  0  0  0  0  0
   -3.7759    6.2915   -0.1666 C   0  0  0  0  0  0  0  0  0  0  0  0
   -2.5532    5.9794   -1.0655 C   0  0  0  0  0  0  0  0  0  0  0  0
   -0.6591    3.4246   -2.1831 C   0  0  0  0  0  0  0  0  0  0  0  0
    0.3865    4.3243   -2.3784 C   0  0  0  0  0  0  0  0  0  0  0  0
    1.1352    4.1987   -3.5257 C   0  0  0  0  0  0  0  0  0  0  0  0
    0.9113    3.2604   -4.4697 N   0  0  0  0  0  0  0  0  0  0  0  0
   -0.0934    2.3886   -4.2758 C   0  0  0  0  0  0  0  0  0  0  0  0
   -0.9294    2.4178   -3.1449 C   0  0  0  0  0  0  0  0  0  0  0  0
   -1.9750    1.4579   -3.0443 C   0  0  0  0  0  0  0  0  0  0  0  0
   -2.1669    0.4610   -4.0039 C   0  0  0  0  0  0  0  0  0  0  0  0
   -1.3356    0.4580   -5.1185 C   0  0  0  0  0  0  0  0  0  0  0  0
   -0.3228    1.4181   -5.2414 C   0  0  0  0  0  0  0  0  0  0  0  0
   -3.2473   -0.5441   -3.7824 C   0  0  0  0  0  0  0  0  0  0  0  0
   -3.9436   -0.5324   -2.7694 O   0  0  0  0  0  0  0  0  0  0  0  0
   -3.4502   -1.4978   -4.7384 N   0  0  0  0  0  0  0  0  0  0  0  0
  1  2  1  0
  2  3  2  0
  2  7  1  0
  3  4  1  0
  4  5  2  0
  5  6  1  0
  6  7  2  0
  6  8  1  0
  8  9  1  0
  8 12  2  0
  9 10  2  0
  9 16  1  0
 10 11  1  0
 10 15  1  0
 11 12  1  0
 11 13  1  0
 13 14  1  0
 14 15  1  0
 16 17  2  0
 16 21  1  0
 17 18  1  0
 18 19  2  0
 19 20  1  0
 20 21  2  0
 20 25  1  0
 21 22  1  0
 22 23  2  0
 23 24  1  0
 23 26  1  0
 24 25  2  0
 26 27  2  0
 26 28  1  0
M  END
>  <DRUGBANK_ID>  (1) 
DB11911

>  <COMMON_NAME>  (1) 
Galunisertib

>  <CAS_NUMBER>  (1) 
700874-72-2

>  <UNII>  (1) 
3OKH1W5LZE

>  <SYNONYMS>  (1) 
Galunisertib; Galunisertibum

$$$$
