
     RDKit          3D

 20 20  0  0  1  0  0  0  0  0999 V2000
    0.6133   -2.2946    0.8021 O   0  0  0  0  0  0  0  0  0  0  0  0
    1.7891    2.8054    3.8194 O   0  0  0  0  0  0  0  0  0  0  0  0
    1.5648    0.9241    4.9793 O   0  0  0  0  0  0  0  0  0  0  0  0
    0.2812    1.3216   -0.1428 N   0  0  0  0  0  0  0  0  0  0  0  0
    3.2354   -1.1122   -0.3880 C   0  0  0  0  0  0  0  0  0  0  0  0
    2.4523    0.2016   -0.2157 C   0  0  0  0  0  0  0  0  0  0  0  0
    3.5186   -1.8276    0.9518 C   0  0  0  0  0  0  0  0  0  0  0  0
    4.5826   -0.8537   -1.0701 C   0  0  0  0  0  0  0  0  0  0  0  0
    0.9198   -0.0033   -0.1914 C   0  0  1  0  0  0  0  0  0  0  0  0
    4.1964   -3.1618    0.7323 C   0  0  0  0  0  0  0  0  0  0  0  0
    5.3693   -2.1558   -1.2374 C   0  0  0  0  0  0  0  0  0  0  0  0
    5.5376   -2.9092    0.0807 C   0  0  0  0  0  0  0  0  0  0  0  0
    0.4212   -0.8886    0.9938 C   0  0  2  0  0  0  0  0  0  0  0  0
    0.9563   -0.4025    2.3757 C   0  0  0  0  0  0  0  0  0  0  0  0
    0.5016    1.0220    2.7531 C   0  0  1  0  0  0  0  0  0  0  0  0
   -1.0483    1.0701    2.7745 C   0  0  0  0  0  0  0  0  0  0  0  0
   -1.6995    0.0859    3.7602 C   0  0  0  0  0  0  0  0  0  0  0  0
    1.2887    1.5586    3.9620 C   0  0  0  0  0  0  0  0  0  0  0  0
   -1.3214    0.4398    5.1802 C   0  0  0  0  0  0  0  0  0  0  0  0
   -3.2133    0.0769    3.6479 C   0  0  0  0  0  0  0  0  0  0  0  0
  2 18  1  0
  3 18  2  0
  5  6  1  0
  5  7  1  0
  5  8  1  0
  6  9  1  0
  7 10  1  0
  8 11  1  0
  9  4  1  1
 10 12  1  0
 11 12  1  0
 13 14  1  0
 13  9  1  0
 13  1  1  6
 15 14  1  1
 15 16  1  0
 15 18  1  0
 16 17  1  0
 17 19  1  0
 17 20  1  0
M  END
>  <DRUGBANK_ID>  (1) 
DB07542

>  <COMMON_NAME>  (1) 
5-Amino-6-cyclohexyl-4-hydroxy-2-isobutyl-hexanoic acid

$$$$
