139
     RDKit          3D

  8  7  0  0  0  0  0  0  0  0999 V2000
    1.0420    0.2990    0.1028 O   0  0  0  0  0  0  0  0  0  0  0  0
   -2.1157   -2.1840    0.8262 O   0  0  0  0  0  0  0  0  0  0  0  0
    1.0578    1.2515   -1.9204 O   0  0  0  0  0  0  0  0  0  0  0  0
    0.0199   -2.0878    0.1586 O   0  0  0  0  0  0  0  0  0  0  0  0
   -1.0728    0.6598   -0.9095 C   0  0  0  0  0  0  0  0  0  0  0  0
   -1.5971   -0.7647   -1.0615 C   0  0  0  0  0  0  0  0  0  0  0  0
    0.4270    0.7754   -0.9885 C   0  0  0  0  0  0  0  0  0  0  0  0
   -1.1363   -1.7130    0.0261 C   0  0  0  0  0  0  0  0  0  0  0  0
  1  7  1  0
  2  8  1  0
  3  7  2  0
  4  8  2  0
  5  6  1  0
  5  7  1  0
  6  8  1  0
M  END
>  <DRUGBANK_ID>  (1) 
DB00139

>  <SECONDARY_ACCESSION_NUMBERS>  (1) 
NUTR00054

>  <COMMON_NAME>  (1) 
Succinic acid

>  <CAS_NUMBER>  (1) 
110-15-6

>  <UNII>  (1) 
AB6MNQ6J6L

>  <SYNONYMS>  (1) 
1,2-ethanedicarboxylic acid; Acide butanedioïque; Acide succinique; Acidum succinicum; Amber acid; Asuccin; Bernsteinsäure; Butandisäure; Butanedioic acid; Butanedionic acid; Dihydrofumaric acid; Ethylenesuccinic acid; Spirit of amber; Succinic acid

$$$$
