
     RDKit          3D

 14 14  0  0  0  0  0  0  0  0999 V2000
    0.8860    0.0390   -0.2050 C   0  0  0  0  0  0  0  0  0  0  0  0
   -0.5452   -1.3842    4.6851 C   0  0  0  0  0  0  0  0  0  0  0  0
    0.0941   -0.3830    3.9612 C   0  0  0  0  0  0  0  0  0  0  0  0
   -0.3880   -2.7086    4.2770 C   0  0  0  0  0  0  0  0  0  0  0  0
   -1.4559   -3.9603    0.2011 C   0  0  0  0  0  0  0  0  0  0  0  0
    0.8046   -0.6983    2.8142 C   0  0  0  0  0  0  0  0  0  0  0  0
    0.3586   -3.0183    3.1339 C   0  0  0  0  0  0  0  0  0  0  0  0
   -2.0477   -3.6387    1.5633 C   0  0  0  0  0  0  0  0  0  0  0  0
   -1.5559   -2.7843   -0.7687 C   0  0  0  0  0  0  0  0  0  0  0  0
    1.2743   -2.2517    0.8639 C   0  0  0  0  0  0  0  0  0  0  0  0
    0.5215   -1.4557   -0.2742 C   0  0  0  0  0  0  0  0  0  0  0  0
    0.8363   -1.9971    2.2970 C   0  0  0  0  0  0  0  0  0  0  0  0
   -3.8159   -3.6131    1.5869 Cl  0  0  0  0  0  0  0  0  0  0  0  0
   -0.9458   -1.5257   -0.3397 N   0  0  0  0  0  0  0  0  0  0  0  0
  3  2  2  0
  4  2  1  0
  6  3  1  0
  7  4  2  0
  8  5  1  0
  9  5  1  0
 11  1  1  0
 11 10  1  0
 12  6  2  0
 12  7  1  0
 12 10  1  0
 13  8  1  0
 14  9  1  0
 14 11  1  0
M  END
>  <DRUGBANK_ID>  (1) 
DB13852

>  <COMMON_NAME>  (1) 
Mefenorex

>  <CAS_NUMBER>  (1) 
17243-57-1

>  <UNII>  (1) 
K98M4N387W

$$$$
