
     RDKit          3D

 10 11  0  0  0  0  0  0  0  0999 V2000
   -1.4386   -1.0529   -0.1409 C   0  0  0  0  0  0  0  0  0  0  0  0
   -1.7282    0.1189    0.7730 C   0  0  0  0  0  0  0  0  0  0  0  0
   -0.9738    1.2393    0.1101 C   0  0  0  0  0  0  0  0  0  0  0  0
   -1.1355    2.4264    0.3444 O   0  0  0  0  0  0  0  0  0  0  0  0
    0.0821    0.6825   -0.6370 N   0  0  0  0  0  0  0  0  0  0  0  0
   -0.0525   -0.7492   -0.6805 C   0  0  0  0  0  0  0  0  0  0  0  0
    0.9877   -1.2197    0.1647 N   0  0  0  0  0  0  0  0  0  0  0  0
    1.6856   -0.1644    0.7174 C   0  0  0  0  0  0  0  0  0  0  0  0
    2.4596   -0.2572    1.6579 O   0  0  0  0  0  0  0  0  0  0  0  0
    1.3954    1.0641   -0.1272 C   0  0  0  0  0  0  0  0  0  0  0  0
  1  2  1  0
  1  6  1  0
  2  3  1  0
  3  4  2  0
  3  5  1  0
  5  6  1  0
  5 10  1  0
  6  7  1  0
  7  8  1  0
  8  9  2  0
  8 10  1  0
M  END
>  <DRUGBANK_ID>  (1) 
DB13018

>  <COMMON_NAME>  (1) 
Dimiracetam

>  <CAS_NUMBER>  (1) 
126100-97-8

>  <UNII>  (1) 
4AW7F70MZO

>  <SYNONYMS>  (1) 
Dimiracetam

$$$$
