DCQ
     RDKit          3D

 23 23  0  0  0  0  0  0  0  0999 V2000
    2.8787   -0.2759    0.0320 O   0  0  0  0  0  0  0  0  0  0  0  0
    1.6713    0.0062    0.0271 C   0  0  0  0  0  0  0  0  0  0  0  0
    1.2261    1.3996   -0.0717 C   0  0  0  0  0  0  0  0  0  0  0  0
    2.1590    2.4173   -0.1514 O   0  0  0  0  0  0  0  0  0  0  0  0
    3.5469    2.1304   -0.1800 C   0  0  0  0  0  0  0  0  0  0  0  0
   -0.0952    1.6864   -0.0609 C   0  0  0  0  0  0  0  0  0  0  0  0
   -0.6434    2.9644   -0.0888 O   0  0  0  0  0  0  0  0  0  0  0  0
    0.2474    4.0738   -0.1145 C   0  0  0  0  0  0  0  0  0  0  0  0
   -1.1055    0.5805   -0.0142 C   0  0  0  0  0  0  0  0  0  0  0  0
   -2.3116    0.8436    0.0365 O   0  0  0  0  0  0  0  0  0  0  0  0
    0.6945   -1.0880    0.1194 C   0  0  0  0  0  0  0  0  0  0  0  0
    1.4673   -2.3706    0.3469 C   0  0  0  0  0  0  0  0  0  0  0  0
   -0.6391   -0.8465    0.0032 C   0  0  0  0  0  0  0  0  0  0  0  0
   -1.7930   -1.8587   -0.0662 C   0  0  0  0  0  0  0  0  0  0  0  0
   -1.8117   -2.7241   -1.3443 C   0  0  0  0  0  0  0  0  0  0  0  0
   -0.5409   -3.5315   -1.4679 C   0  0  0  0  0  0  0  0  0  0  0  0
   -0.3527   -4.4035   -0.1911 C   0  0  0  0  0  0  0  0  0  0  0  0
   -1.3504   -5.5301   -0.1517 C   0  0  0  0  0  0  0  0  0  0  0  0
   -1.1077   -6.3921   -1.3785 C   0  0  0  0  0  0  0  0  0  0  0  0
    0.3142   -6.9811   -1.3562 C   0  0  0  0  0  0  0  0  0  0  0  0
    0.5118   -7.8729   -0.1256 C   0  0  0  0  0  0  0  0  0  0  0  0
   -0.5500   -8.9716   -0.0800 C   0  0  0  0  0  0  0  0  0  0  0  0
   -0.4696   -9.8307   -1.3322 C   0  0  0  0  0  0  0  0  0  0  0  0
  1  2  2  0
  2  3  1  0
  2 11  1  0
  3  4  1  0
  3  6  2  0
  4  5  1  0
  6  7  1  0
  6  9  1  0
  7  8  1  0
  9 10  2  0
  9 13  1  0
 11 12  1  0
 11 13  2  0
 13 14  1  0
 14 15  1  0
 15 16  1  0
 16 17  1  0
 17 18  1  0
 18 19  1  0
 19 20  1  0
 20 21  1  0
 21 22  1  0
 22 23  1  0
M  END
>  <DRUGBANK_ID>  (1) 
DB07640

>  <COMMON_NAME>  (1) 
2-decyl-5,6-dimethoxy-3-methylcyclohexa-2,5-diene-1,4-dione

>  <UNII>  (1) 
DP8EJ59CQN

$$$$
