357
     RDKit          3D

 24 25  0  0  0  0  0  0  0  0999 V2000
    1.0760    0.3628   -0.2479 C   0  0  0  0  0  0  0  0  0  0  0  0
    1.0926   -1.1695   -0.4560 C   0  0  0  0  0  0  0  0  0  0  0  0
   -0.1638   -1.7399   -0.4394 C   0  0  0  0  0  0  0  0  0  0  0  0
   -1.4324   -0.9524   -0.2199 C   0  0  0  0  0  0  0  0  0  0  0  0
    2.0905    1.0761   -0.0904 O   0  0  0  0  0  0  0  0  0  0  0  0
   -2.7789   -1.6686    0.0664 C   0  0  0  0  0  0  0  0  0  0  0  0
   -3.3335   -2.5003   -1.0638 C   0  0  0  0  0  0  0  0  0  0  0  0
   -0.7177   -3.8677   -1.7247 C   0  0  0  0  0  0  0  0  0  0  0  0
   -0.3991   -3.2391   -0.4173 C   0  0  0  0  0  0  0  0  0  0  0  0
   -1.3517    0.3855   -0.1377 C   0  0  0  0  0  0  0  0  0  0  0  0
   -2.5178    1.3217   -0.0280 C   0  0  0  0  0  0  0  0  0  0  0  0
   -0.1236    0.9917   -0.1388 N   0  0  0  0  0  0  0  0  0  0  0  0
    2.3424   -1.8956   -0.2888 N   0  0  0  0  0  0  0  0  0  0  0  0
    3.6714   -1.2762   -0.1631 C   0  0  0  0  0  0  0  0  0  0  0  0
    2.4345   -3.3552    0.0000 C   0  0  0  0  0  0  0  0  0  0  0  0
    1.9219   -3.8718    1.4418 C   0  0  0  0  0  0  0  0  0  0  0  0
    0.6701   -3.4921    2.0665 O   0  0  0  0  0  0  0  0  0  0  0  0
    0.5047   -2.1072    2.2944 C   0  0  0  0  0  0  0  0  0  0  0  0
   -1.0292   -3.0385   -2.7991 C   0  0  0  0  0  0  0  0  0  0  0  0
   -1.8939   -3.5080   -3.7528 C   0  0  0  0  0  0  0  0  0  0  0  0
   -2.2364   -4.8537   -3.7538 C   0  0  0  0  0  0  0  0  0  0  0  0
   -1.7392   -5.7381   -2.7834 C   0  0  0  0  0  0  0  0  0  0  0  0
   -2.0246   -7.1979   -2.8479 C   0  0  0  0  0  0  0  0  0  0  0  0
   -1.0037   -5.2362   -1.7263 C   0  0  0  0  0  0  0  0  0  0  0  0
  1  2  1  0
  1  5  2  0
  1 12  1  0
  2  3  2  0
  2 13  1  0
  3  4  1  0
  3  9  1  0
  4  6  1  0
  4 10  2  0
  6  7  1  0
  8  9  1  0
  8 19  2  0
  8 24  1  0
 10 11  1  0
 10 12  1  0
 13 14  1  0
 13 15  1  0
 15 16  1  0
 16 17  1  0
 17 18  1  0
 19 20  1  0
 20 21  2  0
 21 22  1  0
 22 23  1  0
 22 24  2  0
M  END
>  <DRUGBANK_ID>  (1) 
DB07018

>  <COMMON_NAME>  (1) 
5-ETHYL-3-[(2-METHOXYETHYL)METHYLAMINO]-6-METHYL-4-(3-METHYLBENZYL)PYRIDIN-2(1H)-ONE

$$$$
