
     RDKit          3D

 21 23  0  0  0  0  0  0  0  0999 V2000
   -2.4302    0.0175   -0.1333 C   0  0  0  0  0  0  0  0  0  0  0  0
    6.8194    3.5185   -0.5342 C   0  0  0  0  0  0  0  0  0  0  0  0
    4.3334   -0.1616    4.3619 C   0  0  0  0  0  0  0  0  0  0  0  0
    7.4046    2.2528   -0.5127 C   0  0  0  0  0  0  0  0  0  0  0  0
    5.4380    3.6448   -0.6400 C   0  0  0  0  0  0  0  0  0  0  0  0
    3.5448   -1.1583    3.8154 C   0  0  0  0  0  0  0  0  0  0  0  0
    4.7457    0.8942    3.5614 C   0  0  0  0  0  0  0  0  0  0  0  0
    6.6093    1.1070   -0.5928 C   0  0  0  0  0  0  0  0  0  0  0  0
    4.6457    2.5024   -0.7249 C   0  0  0  0  0  0  0  0  0  0  0  0
    3.2149   -1.1321    2.4543 C   0  0  0  0  0  0  0  0  0  0  0  0
    4.3196    0.9550    2.2337 C   0  0  0  0  0  0  0  0  0  0  0  0
    1.0693   -1.2651    0.1934 C   0  0  0  0  0  0  0  0  0  0  0  0
    1.1129    1.2436    0.2417 C   0  0  0  0  0  0  0  0  0  0  0  0
   -0.3754   -1.2110   -0.2721 C   0  0  0  0  0  0  0  0  0  0  0  0
   -0.3425    1.2122   -0.2139 C   0  0  0  0  0  0  0  0  0  0  0  0
    4.3396   -0.0173   -0.7223 C   0  0  0  0  0  0  0  0  0  0  0  0
    5.2151    1.2192   -0.6926 C   0  0  0  0  0  0  0  0  0  0  0  0
    3.5803   -0.0631    1.6251 C   0  0  0  0  0  0  0  0  0  0  0  0
    1.8527   -0.0173   -0.2096 C   0  0  0  0  0  0  0  0  0  0  0  0
   -1.0228   -0.0017    0.2482 N   0  0  0  0  0  0  0  0  0  0  0  0
    3.2514   -0.0119    0.2737 N   0  0  0  0  0  0  0  0  0  0  0  0
  4  2  2  0
  5  2  1  0
  6  3  2  0
  7  3  1  0
  8  4  1  0
  9  5  2  0
 10  6  1  0
 11  7  2  0
 14 12  1  0
 15 13  1  0
 17  8  2  0
 17  9  1  0
 17 16  1  0
 18 10  2  0
 18 11  1  0
 19 12  1  0
 19 13  1  0
 20  1  1  0
 20 14  1  0
 20 15  1  0
 21 16  1  0
 21 18  1  0
 21 19  1  0
M  END
>  <DRUGBANK_ID>  (1) 
DB13489

>  <COMMON_NAME>  (1) 
Bamipine

>  <CAS_NUMBER>  (1) 
4945-47-5

>  <UNII>  (1) 
Y6BHZ28O92

>  <SYNONYMS>  (1) 
Bamipine

$$$$
