
     RDKit          3D

  9  8  0  0  1  0  0  0  0  0999 V2000
   -0.4825    0.2126    2.2519 C   0  0  0  0  0  0  0  0  0  0  0  0
    0.3649   -0.9331    2.7793 C   0  0  0  0  0  0  0  0  0  0  0  0
    0.4870   -1.5180    0.2505 C   0  0  0  0  0  0  0  0  0  0  0  0
    1.3373   -2.1737   -0.8290 C   0  0  0  0  0  0  0  0  0  0  0  0
    0.8759   -1.9017    1.6917 C   0  0  2  0  0  0  0  0  0  0  0  0
    1.2096   -3.6653   -0.8857 C   0  0  0  0  0  0  0  0  0  0  0  0
    0.3634   -3.2456    1.9886 N   0  0  0  0  0  0  0  0  0  0  0  0
    0.5217   -4.2892   -1.6822 O   0  0  0  0  0  0  0  0  0  0  0  0
    1.9096   -4.2947    0.0729 O   0  0  0  0  0  0  0  0  0  0  0  0
  2  1  1  0
  4  3  1  0
  5  7  1  1
  5  3  1  0
  5  2  1  0
  6  4  1  0
  8  6  2  0
  9  6  1  0
M  END
>  <DRUGBANK_ID>  (1) 
DB04235

>  <SECONDARY_ACCESSION_NUMBERS>  (1) 
EXPT03223

>  <COMMON_NAME>  (1) 
4-Amino Hexanoic Acid

>  <UNII>  (1) 
R907014A4Q

$$$$
