
     RDKit          3D

 22 23  0  0  1  0  0  0  0  0999 V2000
    1.0159    0.0588   -0.1257 N   0  0  0  0  0  0  0  0  0  0  0  0
    0.3218    1.2258   -0.1614 C   0  0  0  0  0  0  0  0  0  0  0  0
   -0.9053    1.2874   -0.0488 O   0  0  0  0  0  0  0  0  0  0  0  0
    1.0981    2.4682   -0.2522 C   0  0  0  0  0  0  0  0  0  0  0  0
    2.1657    2.6175   -1.1274 C   0  0  0  0  0  0  0  0  0  0  0  0
    2.8643    3.8206   -1.1536 C   0  0  0  0  0  0  0  0  0  0  0  0
    2.5732    4.7965   -0.2169 C   0  0  0  0  0  0  0  0  0  0  0  0
    1.5534    4.6243    0.6458 N   0  0  0  0  0  0  0  0  0  0  0  0
    0.7508    3.5285    0.5716 C   0  0  0  0  0  0  0  0  0  0  0  0
    1.3678    5.6391    1.6890 C   0  0  2  0  0  0  0  0  0  0  0  0
    1.3567    5.0124    2.9818 O   0  0  0  0  0  0  0  0  0  0  0  0
    0.0551    5.2333    3.5591 C   0  0  1  0  0  0  0  0  0  0  0  0
    0.1655    5.2178    5.1200 C   0  0  0  0  0  0  0  0  0  0  0  0
   -1.1205    5.2875    5.7504 O   0  0  0  0  0  0  0  0  0  0  0  0
   -1.8725    6.7411    5.1899 P   0  0  0  0  0  0  0  0  0  0  0  0
   -2.8250    5.6919    4.3450 O   0  0  0  0  0  0  0  0  0  0  0  0
   -2.7541    6.6351    6.5597 O   0  0  0  0  0  0  0  0  0  0  0  0
   -2.5456    8.0422    4.6882 O   0  0  0  0  0  0  0  0  0  0  0  0
   -0.4286    6.5386    2.8360 C   0  0  2  0  0  0  0  0  0  0  0  0
   -1.7512    6.9335    2.5627 O   0  0  0  0  0  0  0  0  0  0  0  0
    0.0668    6.3416    1.4452 C   0  0  1  0  0  0  0  0  0  0  0  0
    0.2201    7.5449    0.7095 O   0  0  0  0  0  0  0  0  0  0  0  0
  1  2  1  0
  2  3  2  0
  2  4  1  0
  4  5  2  0
  4  9  1  0
  5  6  1  0
  6  7  2  0
  7  8  1  0
  8  9  2  0
 10  8  1  6
 10 11  1  0
 10 21  1  0
 11 12  1  0
 12 13  1  1
 12 19  1  0
 13 14  1  0
 14 15  1  0
 15 16  1  0
 15 17  1  0
 15 18  2  0
 19 20  1  6
 19 21  1  0
 21 22  1  1
M  CHG  1   8   1
M  END
>  <DRUGBANK_ID>  (1) 
DB03227

>  <SECONDARY_ACCESSION_NUMBERS>  (1) 
EXPT02366

>  <COMMON_NAME>  (1) 
Nicotinamide Mononucleotide

>  <UNII>  (1) 
2KG6QX4W0V

$$$$
