
     RDKit          3D

 10 10  0  0  0  0  0  0  0  0999 V2000
    1.1579    1.2045   -0.0008 C   0  0  0  0  0  0  0  0  0  0  0  0
   -0.2400    1.1932   -0.0613 C   0  0  0  0  0  0  0  0  0  0  0  0
    1.8375   -0.0082    0.0774 C   0  0  0  0  0  0  0  0  0  0  0  0
    1.8396    2.5191   -0.0220 C   0  0  0  0  0  0  0  0  0  0  0  0
   -0.9233    0.0208   -0.0387 N   0  0  0  0  0  0  0  0  0  0  0  0
    1.1211   -1.1982    0.0103 C   0  0  0  0  0  0  0  0  0  0  0  0
    3.2010    2.5595    0.0530 N   0  0  0  0  0  0  0  0  0  0  0  0
    1.1685    3.5408   -0.1150 O   0  0  0  0  0  0  0  0  0  0  0  0
   -0.2667   -1.1622   -0.0607 C   0  0  0  0  0  0  0  0  0  0  0  0
   -2.3938    0.0185    0.0954 C   0  0  0  0  0  0  0  0  0  0  0  0
  1  2  2  0
  1  3  1  0
  1  4  1  0
  2  5  1  0
  3  6  2  0
  4  7  1  0
  4  8  2  0
  5  9  2  0
  5 10  1  0
  6  9  1  0
M  CHG  1   5   1
M  END
>  <DRUGBANK_ID>  (1) 
DB11710

>  <COMMON_NAME>  (1) 
Trigonellamide

>  <CAS_NUMBER>  (1) 
3106-60-3

>  <UNII>  (1) 
UM47085BXC

$$$$
