
     RDKit          3D

 24 26  0  0  1  0  0  0  0  0999 V2000
    0.7388   -3.5499   -0.0213 N   0  0  0  0  0  0  0  0  0  0  0  0
   -0.2472   -3.4754    0.9015 C   0  0  0  0  0  0  0  0  0  0  0  0
    1.9133   -2.7189   -0.0692 C   0  0  1  0  0  0  0  0  0  0  0  0
    0.4109   -4.5004   -0.9434 C   0  0  0  0  0  0  0  0  0  0  0  0
   -1.1164   -4.4556    0.4486 C   0  0  0  0  0  0  0  0  0  0  0  0
   -0.4604   -2.7074    2.0358 C   0  0  0  0  0  0  0  0  0  0  0  0
    2.7045   -2.8082    1.1617 O   0  0  0  0  0  0  0  0  0  0  0  0
    2.7811   -3.1967   -1.2011 C   0  0  1  0  0  0  0  0  0  0  0  0
   -0.7385   -5.0856   -0.6654 N   0  0  0  0  0  0  0  0  0  0  0  0
   -2.2659   -4.7353    1.1462 C   0  0  0  0  0  0  0  0  0  0  0  0
   -1.6382   -2.9995    2.7503 C   0  0  0  0  0  0  0  0  0  0  0  0
    3.9391   -3.5324    0.9392 C   0  0  1  0  0  0  0  0  0  0  0  0
    3.7229   -4.1957   -0.5094 C   0  0  1  0  0  0  0  0  0  0  0  0
    2.2729   -3.4570   -2.4907 O   0  0  0  0  0  0  0  0  0  0  0  0
   -2.5221   -4.0077    2.3020 C   0  0  0  0  0  0  0  0  0  0  0  0
   -1.8888   -2.1982    3.9918 C   0  0  0  0  0  0  0  0  0  0  0  0
    5.2256   -2.5058    1.2685 C   0  0  0  0  0  0  0  0  0  0  0  0
    3.1573   -5.5001   -0.4879 O   0  0  0  0  0  0  0  0  0  0  0  0
   -3.7908   -4.4226    2.9637 C   0  0  0  0  0  0  0  0  0  0  0  0
    5.2013   -1.1161    0.7172 O   0  0  0  0  0  0  0  0  0  0  0  0
    4.7337   -1.0361   -0.9465 P   0  0  0  0  0  0  0  0  0  0  0  0
    6.2049   -0.3187   -1.0818 O   0  0  0  0  0  0  0  0  0  0  0  0
    5.5489   -2.3855   -1.2938 O   0  0  0  0  0  0  0  0  0  0  0  0
    4.3152   -0.9646   -2.4355 O   0  0  0  0  0  0  0  0  0  0  0  0
  1  2  1  0
  1  4  1  0
  2  5  2  0
  2  6  1  0
  3  7  1  0
  3  8  1  0
  3  1  1  1
  4  9  2  0
  5 10  1  0
  5  9  1  0
  6 11  2  0
  7 12  1  0
  8 13  1  0
  8 14  1  6
 10 15  2  0
 11 16  1  0
 11 15  1  0
 12 13  1  0
 12 17  1  6
 13 18  1  1
 15 19  1  0
 17 20  1  0
 20 21  1  0
 21 22  1  0
 21 23  1  0
 21 24  2  0
M  END
>  <DRUGBANK_ID>  (1) 
DB02030

>  <SECONDARY_ACCESSION_NUMBERS>  (1) 
EXPT02761

>  <COMMON_NAME>  (1) 
Alpha-Ribazole-5'-Phosphate

>  <UNII>  (1) 
TT4G266KJN

$$$$
