
     RDKit          3D

 14 12  0  0  0  0  0  0  0  0999 V2000
    1.0726   -0.0290   -0.0624 O   0  0  0  0  0  0  0  0  0  0  0  0
   -1.6308   -0.0888    0.0288 O   0  0  0  0  0  0  0  0  0  0  0  0
   -1.5562   -1.3674    1.9771 O   0  0  0  0  0  0  0  0  0  0  0  0
    3.3359   -2.8690    2.0032 O   0  0  0  0  0  0  0  0  0  0  0  0
   -0.2172    1.7145    3.5085 O   0  0  0  0  0  0  0  0  0  0  0  0
    3.2613   -1.5904    0.0549 O   0  0  0  0  0  0  0  0  0  0  0  0
    0.9062    2.1474    1.5118 O   0  0  0  0  0  0  0  0  0  0  0  0
    0.5992   -0.7635    1.0569 C   0  0  0  0  0  0  0  0  0  0  0  0
    1.1059   -2.1943    0.9750 C   0  0  0  0  0  0  0  0  0  0  0  0
    1.1059   -0.1191    2.3369 C   0  0  0  0  0  0  0  0  0  0  0  0
   -0.9208   -0.7635    1.0569 C   0  0  0  0  0  0  0  0  0  0  0  0
    2.6259   -2.1943    0.9750 C   0  0  0  0  0  0  0  0  0  0  0  0
    0.5992    1.3117    2.4187 C   0  0  0  0  0  0  0  0  0  0  0  0
    0.9368   -0.0617    0.0469 Ga  0  0  0  0  0 15  0  0  0  0  0  0
  1  8  1  0
  2 11  1  0
  3 11  2  0
  4 12  1  0
  5 13  1  0
  6 12  2  0
  7 13  2  0
  8  9  1  0
  8 10  1  0
  8 11  1  0
  9 12  1  0
 10 13  1  0
M  CHG  4   2  -1   4  -1   5  -1  14   3
M  ISO  1  14  67
M  END
>  <DRUGBANK_ID>  (1) 
DB06784

>  <SECONDARY_ACCESSION_NUMBERS>  (1) 
DB09412

>  <COMMON_NAME>  (1) 
Gallium citrate Ga-67

>  <CAS_NUMBER>  (1) 
41183-64-6

>  <UNII>  (1) 
4LJK511Z86

>  <SYNONYMS>  (1) 
Gallium (67 Ga) citrate; Gallium citrate Ga 67; Gallium citrate Ga-67; Gallium-67 Citrate

$$$$
