31U
     RDKit          3D

 26 27  0  0  0  0  0  0  0  0999 V2000
   -3.9992    0.5133   -1.7704 N   0  0  0  0  0  0  0  0  0  0  0  0
   -3.8831    1.9893   -1.7465 C   0  0  2  0  0  0  0  0  0  0  0  0
   -4.3589    2.7905   -0.5470 C   0  0  0  0  0  0  0  0  0  0  0  0
   -4.0286    3.9686   -0.3587 O   0  0  0  0  0  0  0  0  0  0  0  0
   -5.2243    2.1423    0.2663 N   0  0  0  0  0  0  0  0  0  0  0  0
   -5.4090    2.5714    1.6195 C   0  0  0  0  0  0  0  0  0  0  0  0
   -6.6367    1.9127    2.1672 C   0  0  0  0  0  0  0  0  0  0  0  0
   -6.9641    0.5484    2.0235 C   0  0  0  0  0  0  0  0  0  0  0  0
   -8.2141    0.0780    2.4291 C   0  0  0  0  0  0  0  0  0  0  0  0
   -9.1329    0.9568    3.0130 C   0  0  0  0  0  0  0  0  0  0  0  0
  -10.5295    0.5134    3.3085 C   0  0  0  0  0  0  0  0  0  0  0  0
  -11.4407    1.3014    3.7897 N   0  0  0  0  0  0  0  0  0  0  0  0
  -10.9392   -0.7554    3.0595 N   0  0  0  0  0  0  0  0  0  0  0  0
   -8.7462    2.2795    3.2591 C   0  0  0  0  0  0  0  0  0  0  0  0
   -7.5287    2.7579    2.8071 C   0  0  0  0  0  0  0  0  0  0  0  0
   -4.7995    2.3891   -2.9065 C   0  0  0  0  0  0  0  0  0  0  0  0
   -4.5051    1.3478   -3.9668 C   0  0  0  0  0  0  0  0  0  0  0  0
   -4.1723    0.0859   -3.1667 C   0  0  0  0  0  0  0  0  0  0  0  0
   -3.7269   -0.4524   -0.7929 C   0  0  0  0  0  0  0  0  0  0  0  0
   -3.2756   -0.0123    0.6407 C   0  0  2  0  0  0  0  0  0  0  0  0
   -2.1526    0.9320    0.5998 N   0  0  0  0  0  0  0  0  0  0  0  0
   -3.1175   -1.1193    1.6919 C   0  0  0  0  0  0  0  0  0  0  0  0
   -2.8886   -0.5715    3.1334 C   0  0  0  0  0  0  0  0  0  0  0  0
   -4.0825    0.1554    3.7371 C   0  0  0  0  0  0  0  0  0  0  0  0
   -2.5924   -1.7037    4.0888 C   0  0  0  0  0  0  0  0  0  0  0  0
   -3.9620   -1.6427   -1.0240 O   0  0  0  0  0  0  0  0  0  0  0  0
  1 19  1  0
  2  1  1  0
  2  3  1  1
  3  5  1  0
  4  3  2  0
  6  5  1  0
  6  7  1  0
  7  8  2  0
  7 15  1  0
  8  9  1  0
  9 10  2  0
 10 11  1  0
 11 12  2  0
 11 13  1  0
 14 10  1  0
 15 14  2  0
 16  2  1  0
 16 17  1  0
 17 18  1  0
 18  1  1  0
 19 26  2  0
 20 22  1  0
 20 21  1  6
 20 19  1  0
 22 23  1  0
 23 24  1  0
 25 23  1  0
M  END
>  <DRUGBANK_ID>  (1) 
DB06996

>  <COMMON_NAME>  (1) 
D-leucyl-N-(4-carbamimidoylbenzyl)-L-prolinamide

$$$$
