
     RDKit          3D

 22 25  0  0  1  0  0  0  0  0999 V2000
    2.4325    3.7597   -1.8393 C   0  0  0  0  0  0  0  0  0  0  0  0
    3.1174    2.7163   -2.8114 C   0  0  0  0  0  0  0  0  0  0  0  0
    2.2426    1.4447   -3.2574 C   0  0  1  0  0  0  0  0  0  0  0  0
    2.4236   -0.5576   -3.4508 C   0  0  0  0  0  0  0  0  0  0  0  0
    1.0311   -1.1625   -3.4777 C   0  0  0  0  0  0  0  0  0  0  0  0
    1.0831    0.2043   -3.0568 C   0  0  1  0  0  0  0  0  0  0  0  0
    2.1773    0.7790   -4.4400 C   0  0  1  0  0  0  0  0  0  0  0  0
    1.2313    0.8513   -5.6776 C   0  0  0  0  0  0  0  0  0  0  0  0
   -0.2433    1.4893   -5.3122 C   0  0  0  0  0  0  0  0  0  0  0  0
   -1.0100    0.8708   -4.0883 C   0  0  1  0  0  0  0  0  0  0  0  0
   -0.2226    0.8108   -2.8014 C   0  0  1  0  0  0  0  0  0  0  0  0
   -0.7381   -0.1583   -1.7326 C   0  0  0  0  0  0  0  0  0  0  0  0
   -2.1437    0.0832   -1.5573 C   0  0  0  0  0  0  0  0  0  0  0  0
   -2.8775    0.1266   -3.0472 C   0  0  0  0  0  0  0  0  0  0  0  0
   -4.1250   -0.1905   -3.4646 C   0  0  0  0  0  0  0  0  0  0  0  0
   -4.9981    0.1222   -2.3328 C   0  0  0  0  0  0  0  0  0  0  0  0
   -6.0130   -0.5307   -2.1436 O   0  0  0  0  0  0  0  0  0  0  0  0
   -4.3813    1.2126   -1.4545 C   0  0  0  0  0  0  0  0  0  0  0  0
   -3.1517    2.1605   -2.4797 C   0  0  0  0  0  0  0  0  0  0  0  0
   -2.4443    1.3735   -3.7323 C   0  0  1  0  0  0  0  0  0  0  0  0
    3.9582    0.6911   -4.4398 C   0  0  0  0  0  0  0  0  0  0  0  0
    1.6072    2.4750   -4.2338 O   0  0  0  0  0  0  0  0  0  0  0  0
  1  2  1  0
  3  4  1  0
  3  7  1  0
  3 22  1  1
  3  2  1  0
  4  5  1  0
  6  5  1  6
  6  7  1  0
  6 11  1  0
  7  8  1  0
  7 21  1  6
  8  9  1  0
 10  9  1  6
 10 11  1  0
 10 20  1  0
 11 12  1  1
 12 13  1  0
 13 14  1  0
 14 15  2  0
 14 20  1  0
 15 16  1  0
 16 17  2  0
 16 18  1  0
 18 19  1  0
 20 19  1  1
M  END
>  <DRUGBANK_ID>  (1) 
DB12787

>  <COMMON_NAME>  (1) 
Norethandrolone

>  <CAS_NUMBER>  (1) 
52-78-8

>  <UNII>  (1) 
P7W01638W6

>  <SYNONYMS>  (1) 
Norethandrolone

$$$$
