
     RDKit          3D

 16 15  0  0  1  0  0  0  0  0999 V2000
    1.0004    0.0326   -0.1119 C   0  0  0  0  0  0  0  0  0  0  0  0
   -1.6921   -3.5952    1.4047 C   0  0  0  0  0  0  0  0  0  0  0  0
   -1.0361   -2.3074    1.8921 C   0  0  0  0  0  0  0  0  0  0  0  0
   -1.2000   -4.7759    2.2357 C   0  0  0  0  0  0  0  0  0  0  0  0
    0.4886   -2.3076    1.7164 C   0  0  0  0  0  0  0  0  0  0  0  0
   -1.6640   -4.5908    3.6759 C   0  0  0  0  0  0  0  0  0  0  0  0
    0.7505   -3.8770   -0.3617 C   0  0  0  0  0  0  0  0  0  0  0  0
    0.5374   -1.3139   -0.6553 C   0  0  1  0  0  0  0  0  0  0  0  0
    1.0119   -2.4803    0.2552 C   0  0  1  0  0  0  0  0  0  0  0  0
   -3.1725   -4.5716    3.7735 C   0  0  0  0  0  0  0  0  0  0  0  0
    1.2817   -4.1640   -1.7357 C   0  0  0  0  0  0  0  0  0  0  0  0
   -0.8947   -1.2705   -0.9465 N   0  0  0  0  0  0  0  0  0  0  0  0
   -3.8543   -5.4420    4.2791 O   0  0  0  0  0  0  0  0  0  0  0  0
   -3.7544   -3.5007    3.1941 O   0  0  0  0  0  0  0  0  0  0  0  0
    1.9662   -5.1066   -2.0517 O   0  0  0  0  0  0  0  0  0  0  0  0
    0.7244   -3.3463   -2.6545 O   0  0  0  0  0  0  0  0  0  0  0  0
  3  2  1  0
  4  2  1  0
  5  3  1  0
  6  4  1  0
  8  1  1  1
  8 12  1  0
  9  5  1  1
  9  7  1  0
  9  8  1  0
 10  6  1  0
 11  7  1  0
 13 10  2  0
 14 10  1  0
 15 11  2  0
 16 11  1  0
M  END
>  <DRUGBANK_ID>  (1) 
DB02941

>  <SECONDARY_ACCESSION_NUMBERS>  (1) 
EXPT01858

>  <COMMON_NAME>  (1) 
3-(1-Aminoethyl)Nonanedioic Acid

$$$$
