1600
     RDKit          3D

 18 19  0  0  1  0  0  0  0  0999 V2000
   -1.0217   -0.0447    0.0020 S   0  0  0  0  0  0  0  0  0  0  0  0
   -0.4979    3.9786    2.0803 O   0  0  0  0  0  0  0  0  0  0  0  0
   -1.3263   -3.1138   -0.1286 O   0  0  0  0  0  0  0  0  0  0  0  0
   -2.1920    2.6230    1.5156 O   0  0  0  0  0  0  0  0  0  0  0  0
   -0.2590    2.6979    0.0291 C   0  0  0  0  0  0  0  0  0  0  0  0
    0.1320    1.2333    0.0369 C   0  0  0  0  0  0  0  0  0  0  0  0
    0.1868   -1.2606   -0.0188 C   0  0  0  0  0  0  0  0  0  0  0  0
    1.4161    0.7287    0.0158 C   0  0  0  0  0  0  0  0  0  0  0  0
   -1.0168    3.0778   -1.2409 C   0  0  0  0  0  0  0  0  0  0  0  0
    1.4452   -0.6902   -0.0184 C   0  0  0  0  0  0  0  0  0  0  0  0
   -0.1773   -2.6740   -0.0586 C   0  0  0  0  0  0  0  0  0  0  0  0
   -1.0752    3.0635    1.2636 C   0  0  0  0  0  0  0  0  0  0  0  0
    0.9177   -3.6821   -0.0156 C   0  0  0  0  0  0  0  0  0  0  0  0
    1.8102   -3.7015    1.0644 C   0  0  0  0  0  0  0  0  0  0  0  0
    1.0185   -4.6479   -1.0235 C   0  0  0  0  0  0  0  0  0  0  0  0
    2.8071   -4.6745    1.1295 C   0  0  0  0  0  0  0  0  0  0  0  0
    1.9838   -5.6537   -0.9224 C   0  0  0  0  0  0  0  0  0  0  0  0
    2.8900   -5.6528    0.1398 C   0  0  0  0  0  0  0  0  0  0  0  0
  1  6  1  0
  1  7  1  0
  2 12  1  0
  3 11  2  0
  4 12  2  0
  5  6  1  0
  5  9  1  0
  5 12  1  0
  6  8  2  0
  7 10  2  0
  7 11  1  0
  8 10  1  0
 11 13  1  0
 13 14  2  0
 13 15  1  0
 14 16  1  0
 15 17  2  0
 16 18  2  0
 17 18  1  0
M  END
>  <DRUGBANK_ID>  (1) 
DB01600

>  <COMMON_NAME>  (1) 
Tiaprofenic acid

>  <CAS_NUMBER>  (1) 
33005-95-7

>  <UNII>  (1) 
1LS1T6R34C

>  <SYNONYMS>  (1) 
2-(5-Benzoyl-thiophen-2-yl)-propionic acid; 2-(5-Benzyl-2-thienyl)propionsäure; 5-benzoyl-α-methyl-2-thiopheneacetic acid; 5-benzoyl-α-methylthiophene-2-acetic acid; Acide tiaprofenique; Acido tiaprofenico; Acidum tiaprofenicum; Tiaprofenic acid; Tiaprofensäure; α-methyl-5-benzoyl-2-thienylacetic acid

$$$$
