OX4
     RDKit          3D

 19 20  0  0  0  0  0  0  0  0999 V2000
    1.5312   -1.4655   -0.0017 O   0  0  0  0  0  0  0  0  0  0  0  0
    0.3705   -0.7440   -0.0026 C   0  0  0  0  0  0  0  0  0  0  0  0
    0.4579    0.6461   -0.0009 C   0  0  0  0  0  0  0  0  0  0  0  0
    1.6586    1.2428   -0.0008 F   0  0  0  0  0  0  0  0  0  0  0  0
   -0.6872    1.4400    0.0017 C   0  0  0  0  0  0  0  0  0  0  0  0
   -1.9537    0.8479    0.0042 C   0  0  0  0  0  0  0  0  0  0  0  0
   -2.0481   -0.5558   -0.0001 C   0  0  0  0  0  0  0  0  0  0  0  0
   -0.8828   -1.3536   -0.0046 C   0  0  0  0  0  0  0  0  0  0  0  0
   -3.1705    1.7231    0.0143 C   0  0  0  0  0  0  0  0  0  0  0  0
   -3.0558    3.0162    0.0224 N   0  0  0  0  0  0  0  0  0  0  0  0
   -4.3085    3.6920    0.0325 O   0  0  0  0  0  0  0  0  0  0  0  0
   -4.0909    5.0659    0.0110 C   0  0  0  0  0  0  0  0  0  0  0  0
   -2.9855    5.6083    0.0451 O   0  0  0  0  0  0  0  0  0  0  0  0
   -5.4031    5.8759    0.0052 C   0  0  0  0  0  0  0  0  0  0  0  0
   -6.4491    5.2543   -0.9260 C   0  0  0  0  0  0  0  0  0  0  0  0
   -7.7237    6.0913   -1.0293 C   0  0  0  0  0  0  0  0  0  0  0  0
   -7.4284    7.5153   -1.4811 C   0  0  0  0  0  0  0  0  0  0  0  0
   -6.4247    8.1768   -0.5465 C   0  0  0  0  0  0  0  0  0  0  0  0
   -5.1444    7.3454   -0.4151 C   0  0  0  0  0  0  0  0  0  0  0  0
  1  2  1  0
  2  8  2  0
  2  3  1  0
  3  5  2  0
  3  4  1  0
  5  6  1  0
  6  9  1  0
  6  7  2  0
  7  8  1  0
  9 10  2  0
 10 11  1  0
 11 12  1  0
 12 13  2  0
 12 14  1  0
 14 15  1  0
 14 19  1  0
 15 16  1  0
 16 17  1  0
 17 18  1  0
 18 19  1  0
M  END
>  <DRUGBANK_ID>  (1) 
DB08334

>  <COMMON_NAME>  (1) 
3-FLUORO-4-HYDROXYBENZALDEHYDE O-(CYCLOHEXYLCARBONYL)OXIME

$$$$
