
     RDKit          3D

 17 18  0  0  0  0  0  0  0  0999 V2000
   -0.2075   -0.6592   -0.0047 C   0  0  0  0  0  0  0  0  0  0  0  0
   -0.1906    0.7112    0.0006 C   0  0  0  0  0  0  0  0  0  0  0  0
    0.9932    1.4156    0.0097 C   0  0  0  0  0  0  0  0  0  0  0  0
    2.1901    0.6856    0.0030 C   0  0  0  0  0  0  0  0  0  0  0  0
    2.1829   -0.7271   -0.0307 C   0  0  0  0  0  0  0  0  0  0  0  0
    0.9497   -1.3991   -0.0174 C   0  0  0  0  0  0  0  0  0  0  0  0
   -1.4642   -1.1753   -0.0018 O   0  0  0  0  0  0  0  0  0  0  0  0
   -2.2414    0.0339    0.0807 C   0  0  0  0  0  0  0  0  0  0  0  0
   -1.4444    1.2361   -0.0022 O   0  0  0  0  0  0  0  0  0  0  0  0
    3.4655   -1.4467   -0.0739 C   0  0  0  0  0  0  0  0  0  0  0  0
    3.5596   -2.7853   -0.1663 C   0  0  0  0  0  0  0  0  0  0  0  0
    4.8341   -3.5658   -0.1199 C   0  0  0  0  0  0  0  0  0  0  0  0
    4.9144   -4.4900    1.1327 C   0  0  0  0  0  0  0  0  0  0  0  0
    4.9113   -4.3226   -1.3250 O   0  0  0  0  0  0  0  0  0  0  0  0
    3.7664   -5.5232    1.1713 C   0  0  0  0  0  0  0  0  0  0  0  0
    6.2494   -5.2548    1.1043 C   0  0  0  0  0  0  0  0  0  0  0  0
    4.8605   -3.6408    2.4194 C   0  0  0  0  0  0  0  0  0  0  0  0
  1  2  1  0
  1  6  2  0
  1  7  1  0
  2  3  2  0
  2  9  1  0
  3  4  1  0
  4  5  2  0
  5  6  1  0
  5 10  1  0
  7  8  1  0
  8  9  1  0
 10 11  2  0
 11 12  1  0
 12 13  1  0
 12 14  1  0
 13 15  1  0
 13 16  1  0
 13 17  1  0
M  END
>  <DRUGBANK_ID>  (1) 
DB09118

>  <COMMON_NAME>  (1) 
Stiripentol

>  <CAS_NUMBER>  (1) 
49763-96-4

>  <UNII>  (1) 
R02XOT8V8I

>  <SYNONYMS>  (1) 
1-(1,3-Benzodioxol-5-yl)-4,4-dimethyl-1-penten-3-ol; 4,4-Dimethyl-1-((3,4-methylenedioxy)phenyl)-1-penten-3-ol; Estiripentol; Stiripentol; Stiripentolum

$$$$
