
     RDKit          3D

 33 32  0  0  0  0  0  0  0  0999 V2000
   -0.9198   -0.9384    0.4035 C   0  0  2  0  0  0  0  0  0  0  0  0
    1.1205   -1.2040    0.6729 C   0  0  2  0  0  0  0  0  0  0  0  0
   -1.6175    0.6386    0.5918 C   0  0  2  0  0  0  0  0  0  0  0  0
   -1.7595   -2.0889    0.8334 C   0  0  0  0  0  0  0  0  0  0  0  0
    1.6730    0.8917    0.7331 C   0  0  1  0  0  0  0  0  0  0  0  0
    1.9132   -2.5519   -0.4851 C   0  0  0  0  0  0  0  0  0  0  0  0
   -0.1600    1.8356    0.5000 C   0  0  0  0  0  0  0  0  0  0  0  0
   -2.3062    0.5556    1.9023 O   0  0  0  0  0  0  0  0  0  0  0  0
   -2.4193   -2.8378   -0.3016 C   0  0  0  0  0  0  0  0  0  0  0  0
    2.6473    1.0252    1.7825 O   0  0  0  0  0  0  0  0  0  0  0  0
    1.2806   -3.4230   -1.3861 C   0  0  0  0  0  0  0  0  0  0  0  0
   -2.2974   -4.1613   -0.4283 C   0  0  0  0  0  0  0  0  0  0  0  0
    1.7173   -3.8391   -2.7788 C   0  0  2  0  0  0  0  0  0  0  0  0
   -1.4795   -4.9843    0.5250 C   0  0  0  0  0  0  0  0  0  0  0  0
    0.8917   -3.5010   -4.0956 C   0  0  0  0  0  0  0  0  0  0  0  0
    1.6859   -5.2575   -2.6362 O   0  0  0  0  0  0  0  0  0  0  0  0
   -2.3621   -5.9193    1.3271 C   0  0  0  0  0  0  0  0  0  0  0  0
    0.7982   -2.0427   -4.5679 C   0  0  0  0  0  0  0  0  0  0  0  0
   -3.0573   -6.9303    0.4243 C   0  0  0  0  0  0  0  0  0  0  0  0
    2.2035   -1.3638   -4.5699 C   0  0  0  0  0  0  0  0  0  0  0  0
   -2.0450   -7.7376   -0.3714 C   0  0  0  0  0  0  0  0  0  0  0  0
    3.0806   -2.0247   -5.6015 C   0  0  0  0  0  0  0  0  0  0  0  0
   -2.0656   -9.0651   -0.1620 O   0  0  0  0  0  0  0  0  0  0  0  0
   -1.2449   -7.2478   -1.1560 O   0  0  0  0  0  0  0  0  0  0  0  0
    2.4368   -1.8581   -6.9583 C   0  0  0  0  0  0  0  0  0  0  0  0
    0.7987    0.0652   -0.5188 C   0  0  0  0  0  0  0  0  0  0  0  0
    0.3553    0.1968    1.6075 C   0  0  0  0  0  0  0  0  0  0  0  0
    0.5831    1.2508   -1.5915 C   0  0  0  0  0  0  0  0  0  0  0  0
    0.2443   -1.1745   -1.4400 C   0  0  0  0  0  0  0  0  0  0  0  0
    2.7319   -0.2615   -0.5570 N   0  0  0  0  0  0  0  0  0  0  0  0
    0.7126    1.4680    2.6168 O   0  0  0  0  0  0  0  0  0  0  0  0
    1.2497    1.2188   -2.8170 O   0  0  0  0  0  0  0  0  0  0  0  0
    1.0583   -1.0637   -2.4872 O   0  0  0  0  0  0  0  0  0  0  0  0
  1  2  1  0
  1  3  1  0
  1  4  1  1
  2  5  1  0
  2  6  1  6
  3  7  1  0
  3  8  1  1
  4  9  1  0
  5  7  1  0
  5 10  1  1
  6 11  2  0
  9 12  2  0
 11 13  1  0
 12 14  1  0
 13 16  1  1
 13 15  1  0
 14 17  1  0
 15 18  1  0
 17 19  1  0
 18 20  1  0
 19 21  1  0
 20 22  1  0
 21 23  1  0
 21 24  2  0
 22 25  1  0
 26 27  1  0
 26 28  1  0
 26 29  1  0
 26 30  1  0
 27 31  1  0
 28 32  1  0
 29 33  1  0
M  END
>  <DRUGBANK_ID>  (1) 
DB01160

>  <SECONDARY_ACCESSION_NUMBERS>  (1) 
APRD00926

>  <COMMON_NAME>  (1) 
Dinoprost tromethamine

>  <CAS_NUMBER>  (1) 
38562-01-5

>  <UNII>  (1) 
CT6BBQ5A68

>  <SYNONYMS>  (1) 
Dinoprost trometamol; Dinoprost tromethamine; PGF2-alpha THAM; PGF2A THAM; PGF2alpha THAM; Prostaglandin F2-alpha THAM; Prostaglandin F2a tromethamine; Prostaglandin F2alpha tham; Prostin F2 Alpha

$$$$
