
     RDKit          3D

 17 17  0  0  0  0  0  0  0  0999 V2000
    0.5677    0.6329   -0.0875 C   0  0  0  0  0  0  0  0  0  0  0  0
    0.5360   -0.7534   -0.0116 C   0  0  0  0  0  0  0  0  0  0  0  0
   -0.6825   -1.4252   -0.0061 C   0  0  0  0  0  0  0  0  0  0  0  0
   -1.8767   -0.6948   -0.0301 C   0  0  0  0  0  0  0  0  0  0  0  0
   -1.8508    0.7091   -0.0993 C   0  0  0  0  0  0  0  0  0  0  0  0
   -0.6054    1.3487   -0.1886 C   0  0  0  0  0  0  0  0  0  0  0  0
   -3.1353    1.5171   -0.0643 C   0  0  0  0  0  0  0  0  0  0  0  0
   -3.3057    2.4032    1.2309 C   0  0  0  0  0  0  0  0  0  0  0  0
   -3.1949    2.3181   -1.2430 O   0  0  0  0  0  0  0  0  0  0  0  0
   -2.1930    3.3820    1.3768 N   0  0  0  0  0  0  0  0  0  0  0  0
    1.7317   -1.4088    0.0389 O   0  0  0  0  0  0  0  0  0  0  0  0
    1.7416    1.3243   -0.0615 O   0  0  0  0  0  0  0  0  0  0  0  0
   -2.1976    4.1895    2.6018 C   0  0  0  0  0  0  0  0  0  0  0  0
   -2.1238    3.3036    3.8456 C   0  0  0  0  0  0  0  0  0  0  0  0
   -0.9770    5.1121    2.5444 C   0  0  0  0  0  0  0  0  0  0  0  0
   -4.6516    3.1567    1.2312 C   0  0  0  0  0  0  0  0  0  0  0  0
   -5.8532    2.2296    1.2331 C   0  0  0  0  0  0  0  0  0  0  0  0
  1  2  2  0
  1  6  1  0
  1 12  1  0
  2  3  1  0
  2 11  1  0
  3  4  2  0
  4  5  1  0
  5  6  2  0
  5  7  1  0
  7  8  1  0
  7  9  1  0
  8 10  1  0
  8 16  1  0
 10 13  1  0
 13 14  1  0
 13 15  1  0
 16 17  1  0
M  END
>  <DRUGBANK_ID>  (1) 
DB00221

>  <SECONDARY_ACCESSION_NUMBERS>  (1) 
APRD00750

>  <COMMON_NAME>  (1) 
Isoetharine

>  <CAS_NUMBER>  (1) 
79490-84-9

>  <UNII>  (1) 
YV0SN3276Q

>  <SYNONYMS>  (1) 
Isoetarina; Isoetarine; Isoetarinum; Isoetharine

$$$$
