
     RDKit          3D

 15 14  0  0  1  0  0  0  0  0999 V2000
    0.4945   -6.4497    2.9471 C   0  0  0  0  0  0  0  0  0  0  0  0
    0.3192   -6.3773    1.3975 C   0  0  2  0  0  0  0  0  0  0  0  0
    0.4098   -7.7102    0.6743 C   0  0  0  0  0  0  0  0  0  0  0  0
    1.1867   -8.6720    1.3693 O   0  0  0  0  0  0  0  0  0  0  0  0
    1.4180   -5.5257    0.8269 C   0  0  0  0  0  0  0  0  0  0  0  0
    1.5842   -5.1662   -0.6669 C   0  0  0  0  0  0  0  0  0  0  0  0
    0.7378   -4.1492   -1.1803 O   0  0  0  0  0  0  0  0  0  0  0  0
    0.8373   -2.7056   -0.4566 P   0  0  2  0  0  0  0  0  0  0  0  0
   -0.3615   -2.9546    0.5848 O   0  0  0  0  0  0  0  0  0  0  0  0
    0.5523   -1.5297   -1.3072 O   0  0  0  0  0  0  0  0  0  0  0  0
    2.3336   -2.7840    0.1445 O   0  0  0  0  0  0  0  0  0  0  0  0
    2.9102   -2.7331    1.7748 P   0  0  0  0  0  0  0  0  0  0  0  0
    1.4102   -2.4169    2.2471 O   0  0  0  0  0  0  0  0  0  0  0  0
    3.2511   -4.2888    1.6729 O   0  0  0  0  0  0  0  0  0  0  0  0
    3.4264   -2.6875    3.2338 O   0  0  0  0  0  0  0  0  0  0  0  0
  2  5  1  0
  2  3  1  0
  2  1  1  1
  3  4  1  0
  5  6  1  0
  6  7  1  0
  8 10  2  0
  8 11  1  0
  8  9  1  0
  8  7  1  0
 11 12  1  0
 12 13  1  0
 12 14  1  0
 12 15  2  0
M  END
>  <DRUGBANK_ID>  (1) 
DB01799

>  <SECONDARY_ACCESSION_NUMBERS>  (1) 
EXPT01334

>  <COMMON_NAME>  (1) 
4-Hydroxy-3-Methyl Butyl Diphosphate

$$$$
