1533
     RDKit          3D

 19 20  0  0  1  0  0  0  0  0999 V2000
   -1.0563    0.0229    0.0094 S   0  0  0  0  0  0  0  0  0  0  0  0
    1.3547    4.7134    1.3215 S   0  0  0  0  0  0  0  0  0  0  0  0
   -2.5104    5.0305   -1.2527 N   0  0  0  0  0  0  0  0  0  0  0  0
   -1.8148    4.6351   -0.0040 C   0  0  0  0  0  0  0  0  0  0  0  0
   -2.8784    6.4652   -1.2695 C   0  0  0  0  0  0  0  0  0  0  0  0
   -1.7939    4.6296   -2.4845 C   0  0  0  0  0  0  0  0  0  0  0  0
   -1.3953    3.1743    0.0379 C   0  0  0  0  0  0  0  0  0  0  0  0
   -2.6335    4.9374    1.2652 C   0  0  0  0  0  0  0  0  0  0  0  0
   -0.1196    2.6909    0.0793 C   0  0  0  0  0  0  0  0  0  0  0  0
   -1.7502    7.4916   -1.1074 C   0  0  0  0  0  0  0  0  0  0  0  0
   -0.4130    5.2330   -2.7203 C   0  0  0  0  0  0  0  0  0  0  0  0
    0.1466    1.2641    0.0490 C   0  0  0  0  0  0  0  0  0  0  0  0
    0.9882    3.6218    0.0319 C   0  0  0  0  0  0  0  0  0  0  0  0
    1.4064    0.6658    0.0397 C   0  0  0  0  0  0  0  0  0  0  0  0
    1.9469    3.7414   -0.9700 C   0  0  0  0  0  0  0  0  0  0  0  0
    1.3843   -0.7517    0.0069 C   0  0  0  0  0  0  0  0  0  0  0  0
    2.8715    4.7983   -0.7464 C   0  0  0  0  0  0  0  0  0  0  0  0
    0.1005   -1.2338   -0.0045 C   0  0  0  0  0  0  0  0  0  0  0  0
    2.6214    5.4497    0.4378 C   0  0  0  0  0  0  0  0  0  0  0  0
  1 12  1  0
  1 18  1  0
  2 13  1  0
  2 19  1  0
  3  4  1  0
  3  5  1  0
  3  6  1  0
  4  7  1  0
  4  8  1  0
  5 10  1  0
  6 11  1  0
  7  9  2  3
  9 12  1  0
  9 13  1  0
 12 14  2  0
 13 15  2  0
 14 16  1  0
 15 17  1  0
 16 18  2  0
 17 19  2  0
M  END
>  <DRUGBANK_ID>  (1) 
DB01533

>  <COMMON_NAME>  (1) 
Diethylthiambutene

>  <CAS_NUMBER>  (1) 
86-14-6

>  <UNII>  (1) 
2Z91X9052O

>  <SYNONYMS>  (1) 
Diethylthiambutene

$$$$
