
     RDKit          3D

 24 25  0  0  1  0  0  0  0  0999 V2000
    0.7511    0.1856    0.0178 O   0  0  0  0  0  0  0  0  0  0  0  0
    2.4426   -0.6803    5.7474 O   0  0  0  0  0  0  0  0  0  0  0  0
    1.0169    3.4897    3.8698 O   0  0  0  0  0  0  0  0  0  0  0  0
    1.9881    2.1549    5.9465 O   0  0  0  0  0  0  0  0  0  0  0  0
    6.8408   -2.0011    1.0530 O   0  0  0  0  0  0  0  0  0  0  0  0
    5.1472   -4.6494    1.0951 O   0  0  0  0  0  0  0  0  0  0  0  0
    0.5018   -0.6384    1.1685 C   0  0  1  0  0  0  0  0  0  0  0  0
    1.1444   -2.0293    0.9912 C   0  0  0  0  0  0  0  0  0  0  0  0
    0.8972    0.0677    2.4605 C   0  0  0  0  0  0  0  0  0  0  0  0
    2.6653   -2.0512    1.0161 C   0  0  0  0  0  0  0  0  0  0  0  0
    0.7802    1.4517    2.5607 C   0  0  0  0  0  0  0  0  0  0  0  0
    1.4321   -0.6327    3.5573 C   0  0  0  0  0  0  0  0  0  0  0  0
    1.8567    0.0065    4.7198 C   0  0  0  0  0  0  0  0  0  0  0  0
    1.1491    2.1246    3.7325 C   0  0  0  0  0  0  0  0  0  0  0  0
    3.3162   -3.2812    1.0372 C   0  0  0  0  0  0  0  0  0  0  0  0
    3.4572   -0.8950    1.0685 C   0  0  0  0  0  0  0  0  0  0  0  0
    1.6821    1.4000    4.8325 C   0  0  0  0  0  0  0  0  0  0  0  0
    4.7159   -3.3582    1.0626 C   0  0  0  0  0  0  0  0  0  0  0  0
    4.8402   -0.9632    1.0810 C   0  0  0  0  0  0  0  0  0  0  0  0
    5.4924   -2.1898    1.0614 C   0  0  0  0  0  0  0  0  0  0  0  0
    2.6895   -2.0738    5.6421 C   0  0  0  0  0  0  0  0  0  0  0  0
    0.4810    4.1962    2.7518 C   0  0  0  0  0  0  0  0  0  0  0  0
    2.4690    1.4779    7.1036 C   0  0  0  0  0  0  0  0  0  0  0  0
    7.6873   -3.1203    0.9908 C   0  0  0  0  0  0  0  0  0  0  0  0
  2 13  1  0
  2 21  1  0
  3 14  1  0
  3 22  1  0
  4 17  1  0
  4 23  1  0
  5 20  1  0
  5 24  1  0
  6 18  1  0
  7  1  1  6
  7  8  1  0
  7  9  1  0
  8 10  1  0
  9 11  2  0
  9 12  1  0
 10 15  2  0
 10 16  1  0
 11 14  1  0
 12 13  2  0
 13 17  1  0
 14 17  2  0
 15 18  1  0
 16 19  2  0
 18 20  2  0
 19 20  1  0
M  END
>  <DRUGBANK_ID>  (1) 
DB05284

>  <COMMON_NAME>  (1) 
CA4P

>  <CAS_NUMBER>  (1) 
222030-63-9

$$$$
