
     RDKit          3D

 31 30  0  0  1  0  0  0  0  0999 V2000
   -4.7858   -1.1177    2.2359 C   0  0  0  0  0  0  0  0  0  0  0  0
   -8.9600   -1.1149    0.1463 C   0  0  0  0  0  0  0  0  0  0  0  0
   -3.3303   -1.3148    1.9776 C   0  0  0  0  0  0  0  0  0  0  0  0
   -8.8816    0.4158    0.1850 C   0  0  0  0  0  0  0  0  0  0  0  0
   -2.9940   -2.0945    0.6115 C   0  0  0  0  0  0  0  0  0  0  0  0
   -7.7829    0.8185    1.0940 C   0  0  0  0  0  0  0  0  0  0  0  0
   -3.5784   -1.7910   -1.0568 C   0  0  0  0  0  0  0  0  0  0  0  0
   -6.6551    0.1876    0.4102 C   0  0  0  0  0  0  0  0  0  0  0  0
   -2.9176   -0.7124   -2.2607 C   0  0  0  0  0  0  0  0  0  0  0  0
   -1.3089    0.2267   -1.9400 C   0  0  0  0  0  0  0  0  0  0  0  0
   -6.3797    0.6330   -1.0200 C   0  0  0  0  0  0  0  0  0  0  0  0
   -0.4437   -0.2558   -2.9566 C   0  0  0  0  0  0  0  0  0  0  0  0
   -6.0377    2.1032   -0.9644 C   0  0  0  0  0  0  0  0  0  0  0  0
   -2.3131    2.8486    3.4759 C   0  0  0  0  0  0  0  0  0  0  0  0
   -1.0123    0.5217   -4.1064 C   0  0  0  0  0  0  0  0  0  0  0  0
   -2.6437    1.7023    2.4469 C   0  0  0  0  0  0  0  0  0  0  0  0
   -5.0754    2.3737    0.1735 C   0  0  0  0  0  0  0  0  0  0  0  0
   -1.2695    2.8363   -3.1866 C   0  0  0  0  0  0  0  0  0  0  0  0
   -3.2142    4.1248   -2.2456 C   0  0  0  0  0  0  0  0  0  0  0  0
   -2.8446    2.8251   -2.9945 C   0  0  2  0  0  0  0  0  0  0  0  0
   -1.9213    4.2104    3.1339 N   0  0  0  0  0  0  0  0  0  0  0  0
   -2.3197    0.1154   -0.2191 O   0  0  0  0  0  0  0  0  0  0  0  0
   -4.4043    0.1568    0.3088 O   0  0  0  0  0  0  0  0  0  0  0  0
   -2.6093    3.8420    1.1103 O   0  0  0  0  0  0  0  0  0  0  0  0
   -3.4063    2.8087   -0.6343 O   0  0  0  0  0  0  0  0  0  0  0  0
   -0.6529    1.9097   -4.1130 O   0  0  0  0  0  0  0  0  0  0  0  0
   -1.9797    1.3965    1.1026 O   0  0  0  0  0  0  0  0  0  0  0  0
   -2.3260    4.0930   -1.0376 O   0  0  0  0  0  0  0  0  0  0  0  0
   -3.5093    1.5766   -2.3591 O   0  0  0  0  0  0  0  0  0  0  0  0
   -3.6086    0.9509   -0.7275 P   0  0  1  0  0  0  0  0  0  0  0  0
   -2.1529    2.7448    0.0325 P   0  0  2  0  0  0  0  0  0  0  0  0
  3  1  1  0
  4  2  1  0
  5  3  1  0
  6  4  1  0
  7  5  1  0
  8  6  1  0
  9  7  1  0
 10  9  1  0
 11  8  1  0
 12 10  1  0
 13 11  1  0
 15 12  1  0
 16 14  1  0
 17 13  1  0
 20 29  1  0
 20 19  1  1
 20 18  1  0
 21 14  1  0
 26 15  1  0
 26 18  1  0
 27 16  1  0
 28 19  1  0
 30 17  1  0
 30 22  1  1
 30 23  2  0
 30 29  1  0
 31 24  1  1
 31 25  2  0
 31 27  1  0
 31 28  1  0
M  END
>  <DRUGBANK_ID>  (1) 
DB03565

>  <SECONDARY_ACCESSION_NUMBERS>  (1) 
EXPT01580

>  <COMMON_NAME>  (1) 
1-O-Octyl-2-Heptylphosphonyl-Sn-Glycero-3-Phosphoethanolamine

$$$$
