4838
     RDKit          3D

 20 21  0  0  1  0  0  0  0  0999 V2000
    0.9834   -0.0015   -0.0012 O   0  0  0  0  0  0  0  0  0  0  0  0
    2.9496   -0.0465    1.0674 O   0  0  0  0  0  0  0  0  0  0  0  0
    2.8585   -1.0263   -2.1879 O   0  0  0  0  0  0  0  0  0  0  0  0
   -1.4800   -1.1399   -2.6682 C   0  0  0  0  0  0  0  0  0  0  0  0
   -2.2863    0.1847   -2.7782 C   0  0  0  0  0  0  0  0  0  0  0  0
   -1.4612    1.4412   -2.5738 C   0  0  0  0  0  0  0  0  0  0  0  0
   -0.7350   -1.1579   -1.3118 C   0  0  0  0  0  0  0  0  0  0  0  0
    0.1955    0.0473   -1.2013 C   0  0  0  0  0  0  0  0  0  0  0  0
   -0.5826    1.3585   -1.3038 C   0  0  0  0  0  0  0  0  0  0  0  0
   -2.4891   -2.2829   -2.7311 C   0  0  0  0  0  0  0  0  0  0  0  0
   -0.4942   -1.4195   -3.8344 C   0  0  0  0  0  0  0  0  0  0  0  0
   -0.7025    1.7220   -3.8429 C   0  0  0  0  0  0  0  0  0  0  0  0
    2.3527    0.0372    0.0060 C   0  0  0  0  0  0  0  0  0  0  0  0
    3.1491    0.0911   -1.3384 C   0  0  0  0  0  0  0  0  0  0  0  0
    3.0430    1.4230   -2.0826 C   0  0  0  0  0  0  0  0  0  0  0  0
    2.3396    1.5434   -3.2788 C   0  0  0  0  0  0  0  0  0  0  0  0
    3.6299    2.5937   -1.5995 C   0  0  0  0  0  0  0  0  0  0  0  0
    2.0635    2.7876   -3.8627 C   0  0  0  0  0  0  0  0  0  0  0  0
    3.3028    3.8486   -2.1450 C   0  0  0  0  0  0  0  0  0  0  0  0
    2.4598    3.9519   -3.2411 C   0  0  0  0  0  0  0  0  0  0  0  0
  1  8  1  0
  1 13  1  0
  2 13  2  0
  3 14  1  0
  4  5  1  0
  4  7  1  0
  4 10  1  0
  4 11  1  0
  5  6  1  0
  6  9  1  0
  6 12  1  0
  7  8  1  0
  8  9  1  0
 13 14  1  0
 14 15  1  0
 15 16  2  0
 15 17  1  0
 16 18  1  0
 17 19  2  0
 18 20  2  0
 19 20  1  0
M  END
>  <DRUGBANK_ID>  (1) 
DB04838

>  <COMMON_NAME>  (1) 
Cyclandelate

>  <CAS_NUMBER>  (1) 
456-59-7

>  <UNII>  (1) 
4139O1OAY2

>  <SYNONYMS>  (1) 
3,3,5-Trimethylcyclohexyl mandelate; 3,5,5-Trimethylcyclohexyl amygdalate; Ciclandelato; Cyclandelate; Cyclandelatum

$$$$
