
     RDKit          3D

 34 34  0  0  0  0  0  0  0  0999 V2000
    0.9701    0.1064    0.1437 C   0  0  0  0  0  0  0  0  0  0  0  0
    0.5176    0.6081   -1.2176 C   0  0  0  0  0  0  0  0  0  0  0  0
    1.0184   -0.3278   -2.3181 C   0  0  0  0  0  0  0  0  0  0  0  0
    0.4709   -1.7460   -2.1250 C   0  0  0  0  0  0  0  0  0  0  0  0
   -1.0609   -1.7334   -2.1399 C   0  0  0  0  0  0  0  0  0  0  0  0
   -1.5592   -1.2015   -3.4870 C   0  0  0  0  0  0  0  0  0  0  0  0
   -1.0472   -2.1062   -4.6121 C   0  0  0  0  0  0  0  0  0  0  0  0
   -1.5724   -3.5225   -4.3830 C   0  0  0  0  0  0  0  0  0  0  0  0
   -3.1048   -3.4675   -4.3326 C   0  0  0  0  0  0  0  0  0  0  0  0
   -3.6456   -2.8767   -5.6440 C   0  0  0  0  0  0  0  0  0  0  0  0
   -3.2170   -3.7938   -6.7488 C   0  0  0  0  0  0  0  0  0  0  0  0
   -3.8680   -5.1075   -6.3656 C   0  0  0  0  0  0  0  0  0  0  0  0
   -5.3342   -5.2677   -6.6055 C   0  0  0  0  0  0  0  0  0  0  0  0
   -5.5895   -4.9013   -8.0910 C   0  0  0  0  0  0  0  0  0  0  0  0
   -4.9911   -5.7507   -9.1479 O   0  0  0  0  0  0  0  0  0  0  0  0
   -3.6541   -5.9885   -9.2651 C   0  0  0  0  0  0  0  0  0  0  0  0
   -2.6544   -6.6300   -8.5239 C   0  0  0  0  0  0  0  0  0  0  0  0
   -1.4251   -6.2103   -9.0263 C   0  0  0  0  0  0  0  0  0  0  0  0
   -1.7017   -5.8890  -10.3330 C   0  0  0  0  0  0  0  0  0  0  0  0
   -3.0680   -5.6835  -10.4832 O   0  0  0  0  0  0  0  0  0  0  0  0
   -0.7668   -5.8150  -11.4163 C   0  0  0  0  0  0  0  0  0  0  0  0
   -1.0295   -5.6293  -12.6066 O   0  0  0  0  0  0  0  0  0  0  0  0
    0.4911   -6.0478  -10.9280 O   0  0  0  0  0  0  0  0  0  0  0  0
    1.5319   -6.1322  -11.8965 C   0  0  0  0  0  0  0  0  0  0  0  0
    1.3616   -7.2816  -12.8910 C   0  0  0  0  0  0  0  0  0  0  0  0
    1.3200   -7.0525  -14.1002 O   0  0  0  0  0  0  0  0  0  0  0  0
    1.2422   -8.5731  -12.3856 N   0  0  0  0  0  0  0  0  0  0  0  0
    1.4882   -8.9595  -11.0056 C   0  0  0  0  0  0  0  0  0  0  0  0
    1.0049   -9.6419  -13.3625 C   0  0  0  0  0  0  0  0  0  0  0  0
   -0.3214   -9.5076  -14.1106 C   0  0  0  0  0  0  0  0  0  0  0  0
   -0.4143   -9.6026  -15.3294 O   0  0  0  0  0  0  0  0  0  0  0  0
   -1.3811   -9.3905  -13.2543 O   0  0  0  0  0  0  0  0  0  0  0  0
   -2.6657   -9.2232  -13.8863 C   0  0  0  0  0  0  0  0  0  0  0  0
   -2.7612   -7.8822  -14.5935 C   0  0  0  0  0  0  0  0  0  0  0  0
  1  2  1  0
  2  3  1  0
  3  4  1  0
  4  5  1  0
  5  6  1  0
  6  7  1  0
  7  8  1  0
  8  9  1  0
  9 10  1  0
 10 11  1  0
 11 12  1  0
 12 13  1  0
 13 14  1  0
 14 15  1  0
 15 16  1  0
 16 17  2  0
 16 20  1  0
 17 18  1  0
 18 19  2  0
 19 20  1  0
 19 21  1  0
 21 22  2  0
 21 23  1  0
 23 24  1  0
 24 25  1  0
 25 26  2  0
 25 27  1  0
 27 28  1  0
 27 29  1  0
 29 30  1  0
 30 31  2  0
 30 32  1  0
 32 33  1  0
 33 34  1  0
M  END
>  <DRUGBANK_ID>  (1) 
DB12642

>  <COMMON_NAME>  (1) 
Olumacostat glasaretil

>  <CAS_NUMBER>  (1) 
1261491-89-7

>  <UNII>  (1) 
4W6JDK2PLY

>  <SYNONYMS>  (1) 
Olumacostat glasaretil

$$$$
