
     RDKit          3D

 13 13  0  0  0  0  0  0  0  0999 V2000
    1.1807    0.1466    0.0038 N   0  0  0  0  0  0  0  0  0  0  0  0
    0.4873   -0.6366    0.8585 C   0  0  0  0  0  0  0  0  0  0  0  0
   -0.6197   -1.0052    0.5619 O   0  0  0  0  0  0  0  0  0  0  0  0
    1.1986   -0.8481    1.9994 O   0  0  0  0  0  0  0  0  0  0  0  0
    0.5595   -1.5643    3.0721 C   0  0  0  0  0  0  0  0  0  0  0  0
   -0.5098   -0.7299    3.8326 C   0  0  0  0  0  0  0  0  0  0  0  0
   -1.6951   -0.2036    2.9992 C   0  0  0  0  0  0  0  0  0  0  0  0
   -2.5819   -1.3184    2.4593 C   0  0  0  0  0  0  0  0  0  0  0  0
   -2.2180   -2.6715    2.5854 C   0  0  0  0  0  0  0  0  0  0  0  0
   -2.9041   -3.7197    2.0025 C   0  0  0  0  0  0  0  0  0  0  0  0
   -4.1244   -3.4544    1.4316 C   0  0  0  0  0  0  0  0  0  0  0  0
   -4.5800   -2.1333    1.3710 C   0  0  0  0  0  0  0  0  0  0  0  0
   -3.7765   -1.0593    1.7923 C   0  0  0  0  0  0  0  0  0  0  0  0
  1  2  1  0
  2  3  2  0
  2  4  1  0
  4  5  1  0
  5  6  1  0
  6  7  1  0
  7  8  1  0
  8  9  2  0
  8 13  1  0
  9 10  1  0
 10 11  2  0
 11 12  1  0
 12 13  2  0
M  END
>  <DRUGBANK_ID>  (1) 
DB13354

>  <COMMON_NAME>  (1) 
Phenprobamate

>  <CAS_NUMBER>  (1) 
673-31-4

>  <UNII>  (1) 
UJZ473TPS0

>  <SYNONYMS>  (1) 
Phenprobamate

$$$$
