
     RDKit          3D

 35 37  0  0  0  0  0  0  0  0999 V2000
    0.9668    0.1484   -0.1756 C   0  0  0  0  0  0  0  0  0  0  0  0
    0.5618   -1.1626   -0.8454 C   0  0  0  0  0  0  0  0  0  0  0  0
    0.9463   -2.3404    0.0175 C   0  0  0  0  0  0  0  0  0  0  0  0
    0.3713   -2.2524    1.4204 C   0  0  0  0  0  0  0  0  0  0  0  0
   -1.1858   -2.3440    1.6103 C   0  0  0  0  0  0  0  0  0  0  0  0
   -1.4832   -2.5325    3.0841 C   0  0  0  0  0  0  0  0  0  0  0  0
   -1.0851   -3.8494    3.7348 C   0  0  0  0  0  0  0  0  0  0  0  0
    0.3762   -3.9821    4.0294 C   0  0  0  0  0  0  0  0  0  0  0  0
    0.8524   -2.7252    4.7317 C   0  0  0  0  0  0  0  0  0  0  0  0
   -1.8987   -3.4872    0.7860 C   0  0  0  0  0  0  0  0  0  0  0  0
   -3.4274   -3.5767    0.9098 N   0  0  0  0  0  0  0  0  0  0  0  0
   -4.0521   -4.5320    1.7837 C   0  0  0  0  0  0  0  0  0  0  0  0
   -3.8936   -4.5369    3.1846 C   0  0  0  0  0  0  0  0  0  0  0  0
   -4.3538   -5.4992    4.0966 C   0  0  0  0  0  0  0  0  0  0  0  0
   -5.2651   -6.4170    3.6634 C   0  0  0  0  0  0  0  0  0  0  0  0
   -5.6421   -6.3541    2.3253 C   0  0  0  0  0  0  0  0  0  0  0  0
   -4.9999   -5.4803    1.3917 C   0  0  0  0  0  0  0  0  0  0  0  0
   -4.0947   -2.6530    0.0397 C   0  0  0  0  0  0  0  0  0  0  0  0
   -4.9160   -3.0923   -1.0069 C   0  0  0  0  0  0  0  0  0  0  0  0
   -5.6504   -2.2027   -1.8306 C   0  0  0  0  0  0  0  0  0  0  0  0
   -7.0143   -2.8771   -2.8165 S   0  0  0  0  0  0  0  0  0  0  0  0
   -6.4611   -4.5257   -3.3294 C   0  0  0  0  0  0  0  0  0  0  0  0
   -5.3411   -0.8221   -1.7856 C   0  0  0  0  0  0  0  0  0  0  0  0
   -5.6600    0.1951   -2.6441 O   0  0  0  0  0  0  0  0  0  0  0  0
   -6.2112   -0.1248   -3.9044 C   0  0  0  0  0  0  0  0  0  0  0  0
   -5.2871   -0.8512   -4.8911 C   0  0  0  0  0  0  0  0  0  0  0  0
   -4.4095   -2.0229   -4.4803 C   0  0  0  0  0  0  0  0  0  0  0  0
   -4.7149   -3.1817   -5.1132 O   0  0  0  0  0  0  0  0  0  0  0  0
   -3.4613   -1.9657   -3.7106 O   0  0  0  0  0  0  0  0  0  0  0  0
   -4.5215   -0.3594   -0.7740 C   0  0  0  0  0  0  0  0  0  0  0  0
   -3.9976   -1.2536    0.1598 C   0  0  0  0  0  0  0  0  0  0  0  0
   -3.2846   -0.5045    1.5688 S   0  0  0  0  0  0  0  0  0  0  0  0
   -3.2614    0.9403    1.3721 O   0  0  0  0  0  0  0  0  0  0  0  0
   -3.9139   -1.0510    2.7323 O   0  0  0  0  0  0  0  0  0  0  0  0
   -1.6951   -0.9749    1.2942 N   0  0  0  0  0  0  0  0  0  0  0  0
  1  2  1  0
  2  3  1  0
  3  4  1  0
  4  5  1  0
  5  6  1  0
  5 10  1  0
  5 35  1  0
  6  7  1  0
  7  8  1  0
  8  9  1  0
 10 11  1  0
 11 12  1  0
 11 18  1  0
 12 13  2  0
 12 17  1  0
 13 14  1  0
 14 15  2  0
 15 16  1  0
 16 17  2  0
 18 19  2  0
 18 31  1  0
 19 20  1  0
 20 21  1  0
 20 23  2  0
 21 22  1  0
 23 24  1  0
 23 30  1  0
 24 25  1  0
 25 26  1  0
 26 27  1  0
 27 28  1  0
 27 29  2  0
 30 31  2  0
 31 32  1  0
 32 33  2  0
 32 34  2  0
 32 35  1  0
M  END
>  <DRUGBANK_ID>  (1) 
DB18030

>  <COMMON_NAME>  (1) 
Ritivixibat

>  <CAS_NUMBER>  (1) 
2460667-52-9

>  <UNII>  (1) 
3U7H6NE2KE

>  <SYNONYMS>  (1) 
3-([3,3-dibutyl-7-(methylsulfanyl)-1,1-dioxo-5-phenyl-2,3,4,5-tetrahydro-1H-1Lambda6,2,5-benzothiadiazepin-8-yl]oxy)propanoic acid

$$$$
