
     RDKit          3D

 27 27  0  0  0  0  0  0  0  0999 V2000
   -3.6200    4.7508   -8.5515 C   0  0  0  0  0  0  0  0  0  0  0  0
   -3.2505    5.9120   -7.8532 C   0  0  0  0  0  0  0  0  0  0  0  0
   -3.4497    7.1697   -8.4163 C   0  0  0  0  0  0  0  0  0  0  0  0
   -3.9366    7.2588   -9.7112 C   0  0  0  0  0  0  0  0  0  0  0  0
   -4.2602    6.1240  -10.4385 C   0  0  0  0  0  0  0  0  0  0  0  0
   -4.1037    4.8797   -9.8586 C   0  0  0  0  0  0  0  0  0  0  0  0
   -4.0792    8.4604  -10.2797 F   0  0  0  0  0  0  0  0  0  0  0  0
   -3.6323    3.3497   -7.9966 C   0  0  0  0  0  0  0  0  0  0  0  0
   -5.3915    2.7146   -8.0315 S   0  0  0  0  0  0  0  0  0  0  0  0
   -6.4110    3.9862   -7.0565 C   0  0  0  0  0  0  0  0  0  0  0  0
   -6.0448    4.4061   -5.6112 C   0  0  1  0  0  0  0  0  0  0  0  0
   -4.6225    4.9439   -5.3060 C   0  0  0  0  0  0  0  0  0  0  0  0
   -4.5533    6.1217   -4.6547 O   0  0  0  0  0  0  0  0  0  0  0  0
   -3.5703    4.3730   -5.5263 O   0  0  0  0  0  0  0  0  0  0  0  0
   -7.0344    4.8736   -4.6156 N   0  0  0  0  0  0  0  0  0  0  0  0
   -7.5087    4.2518   -3.4945 C   0  0  0  0  0  0  0  0  0  0  0  0
   -8.2658    4.9025   -2.7709 O   0  0  0  0  0  0  0  0  0  0  0  0
   -7.1363    3.0272   -3.0411 N   0  0  0  0  0  0  0  0  0  0  0  0
   -6.4081    1.7819   -3.4724 C   0  0  2  0  0  0  0  0  0  0  0  0
   -5.1751    2.0564   -4.2933 C   0  0  0  0  0  0  0  0  0  0  0  0
   -4.4056    2.9735   -3.6658 O   0  0  0  0  0  0  0  0  0  0  0  0
   -5.0100    1.6924   -5.4188 O   0  0  0  0  0  0  0  0  0  0  0  0
   -7.2341    0.6133   -4.0454 C   0  0  0  0  0  0  0  0  0  0  0  0
   -6.4183   -0.4660   -4.8189 C   0  0  0  0  0  0  0  0  0  0  0  0
   -5.1662   -0.9202   -4.0660 C   0  0  0  0  0  0  0  0  0  0  0  0
   -5.0861   -2.2448   -3.8681 O   0  0  0  0  0  0  0  0  0  0  0  0
   -4.3069   -0.1843   -3.6071 O   0  0  0  0  0  0  0  0  0  0  0  0
  1  2  2  0
  1  6  1  0
  1  8  1  0
  2  3  1  0
  3  4  2  0
  4  5  1  0
  4  7  1  0
  5  6  2  0
  9  8  1  0
 10  9  1  0
 11 10  1  6
 12 11  1  0
 12 13  1  0
 12 14  2  0
 15 11  1  0
 15 16  1  0
 16 17  2  0
 16 18  1  0
 19 23  1  6
 19 20  1  0
 19 18  1  0
 20 21  1  0
 20 22  2  0
 23 24  1  0
 24 25  1  0
 25 26  1  0
 25 27  2  0
M  END
>  <DRUGBANK_ID>  (1) 
DB07754

>  <COMMON_NAME>  (1) 
DCFBC

>  <CAS_NUMBER>  (1) 
564482-79-7

>  <UNII>  (1) 
40R868KZFF

$$$$
