
     RDKit          3D

 23 25  0  0  0  0  0  0  0  0999 V2000
    0.7710   -0.0567   -0.7072 C   0  0  0  0  0  0  0  0  0  0  0  0
    0.1564    1.0059   -1.4315 N   0  0  0  0  0  0  0  0  0  0  0  0
   -1.2670    0.8903   -1.2213 C   0  0  0  0  0  0  0  0  0  0  0  0
    0.7510    2.2793   -0.9956 C   0  0  0  0  0  0  0  0  0  0  0  0
    0.4430    2.7352    0.4427 C   0  0  0  0  0  0  0  0  0  0  0  0
    1.0810    1.9853    1.6545 C   0  0  0  0  0  0  0  0  0  0  0  0
    2.6523    1.8000    1.7199 C   0  0  0  0  0  0  0  0  0  0  0  0
    3.1325    2.9763    2.5605 C   0  0  0  0  0  0  0  0  0  0  0  0
    2.7550    4.2960    2.1806 C   0  0  0  0  0  0  0  0  0  0  0  0
    3.0081    5.4006    2.9760 C   0  0  0  0  0  0  0  0  0  0  0  0
    3.7471    5.2221    4.1264 C   0  0  0  0  0  0  0  0  0  0  0  0
    4.1951    3.9479    4.4768 C   0  0  0  0  0  0  0  0  0  0  0  0
    3.8801    2.8159    3.7181 C   0  0  0  0  0  0  0  0  0  0  0  0
    4.5049    1.2842    4.3393 S   0  0  0  0  0  0  0  0  0  0  0  0
    3.9026    0.0751    3.2118 C   0  0  0  0  0  0  0  0  0  0  0  0
    3.1080    0.3829    2.1367 C   0  0  0  0  0  0  0  0  0  0  0  0
    2.8105   -0.7473    1.3567 C   0  0  0  0  0  0  0  0  0  0  0  0
    3.1456   -2.0817    1.5628 C   0  0  0  0  0  0  0  0  0  0  0  0
    3.9193   -2.3549    2.6318 C   0  0  0  0  0  0  0  0  0  0  0  0
    4.3053   -1.2769    3.4494 C   0  0  0  0  0  0  0  0  0  0  0  0
    2.6252   -2.8973    0.5970 O   0  0  0  0  0  0  0  0  0  0  0  0
    2.9096   -4.2754    0.6975 C   0  0  0  0  0  0  0  0  0  0  0  0
    3.2830    2.0337    0.4589 O   0  0  0  0  0  0  0  0  0  0  0  0
  1  2  1  0
  2  3  1  0
  2  4  1  0
  4  5  1  0
  5  6  1  0
  6  7  1  0
  7  8  1  0
  7 16  1  0
  7 23  1  0
  8  9  1  0
  8 13  2  0
  9 10  2  0
 10 11  1  0
 11 12  2  0
 12 13  1  0
 13 14  1  0
 14 15  1  0
 15 16  2  0
 15 20  1  0
 16 17  1  0
 17 18  2  0
 18 19  1  0
 18 21  1  0
 19 20  2  0
 21 22  1  0
M  END
>  <DRUGBANK_ID>  (1) 
DB13822

>  <COMMON_NAME>  (1) 
Meprotixol

>  <CAS_NUMBER>  (1) 
4295-63-0

>  <UNII>  (1) 
2JXZ154Z0Q

>  <SYNONYMS>  (1) 
Meprotixol

$$$$
