
     RDKit          3D

 27 28  0  0  1  0  0  0  0  0999 V2000
    1.1805    0.9135   -0.2289 C   0  0  1  0  0  0  0  0  0  0  0  0
    1.2508    1.1864   -1.6252 O   0  0  0  0  0  0  0  0  0  0  0  0
   -0.0253    0.8186    0.5092 O   0  0  0  0  0  0  0  0  0  0  0  0
    1.3961   -0.4438    0.2018 C   0  0  1  0  0  0  0  0  0  0  0  0
    1.1567    2.5794   -1.9087 C   0  0  1  0  0  0  0  0  0  0  0  0
   -1.2589    0.6485   -0.2759 C   0  0  1  0  0  0  0  0  0  0  0  0
    0.0693   -1.2009   -0.2510 C   0  0  2  0  0  0  0  0  0  0  0  0
    2.5936   -0.8269   -0.3998 O   0  0  0  0  0  0  0  0  0  0  0  0
   -0.0825    2.9308   -1.2844 O   0  0  0  0  0  0  0  0  0  0  0  0
    2.3922    3.4695   -1.5491 C   0  0  1  0  0  0  0  0  0  0  0  0
   -1.3291   -0.6693    0.2362 C   0  0  2  0  0  0  0  0  0  0  0  0
   -2.4731    1.4823    0.2044 C   0  0  0  0  0  0  0  0  0  0  0  0
    0.1452   -2.4350    0.3674 O   0  0  0  0  0  0  0  0  0  0  0  0
   -0.4347    2.5266    0.4638 C   0  0  1  0  0  0  0  0  0  0  0  0
    2.6507    3.4640   -0.0653 C   0  0  2  0  0  0  0  0  0  0  0  0
    3.5486    2.8979   -2.1353 O   0  0  0  0  0  0  0  0  0  0  0  0
   -2.4905   -1.1637   -0.3566 O   0  0  0  0  0  0  0  0  0  0  0  0
   -2.4677    3.4299   -0.0578 O   0  0  0  0  0  0  0  0  0  0  0  0
    1.3092    3.4740    0.6076 C   0  0  2  0  0  0  0  0  0  0  0  0
   -2.3869    2.9606    1.5709 C   0  0  0  0  0  0  0  0  0  0  0  0
    3.5528    4.5420    0.3304 O   0  0  0  0  0  0  0  0  0  0  0  0
   -1.0590    4.2042    0.5817 P   0  0  0  0  0  0  0  0  0  0  0  0
    1.7015    3.4825    2.0069 O   0  0  0  0  0  0  0  0  0  0  0  0
   -3.9932    2.7796    0.5613 O   0  0  0  0  0  0  0  0  0  0  0  0
   -0.6434    3.3883    2.2372 O   0  0  0  0  0  0  0  0  0  0  0  0
   -0.7663    4.7920   -0.8663 O   0  0  0  0  0  0  0  0  0  0  0  0
    0.2017    4.8973    1.1541 O   0  0  0  0  0  0  0  0  0  0  0  0
  1  3  1  0
  1  4  1  0
  1  2  1  6
  3  6  1  0
  4  7  1  0
  4  8  1  6
  5  2  1  1
  5  9  1  0
  5 10  1  0
  6 11  1  0
  6 12  1  1
  7 13  1  1
  7 11  1  0
  9 14  1  0
 10 15  1  0
 10 16  1  6
 11 17  1  6
 12 18  1  0
 14 19  1  0
 14 20  1  1
 15 21  1  1
 15 19  1  0
 18 22  1  0
 19 23  1  1
 20 24  1  0
 22 25  1  0
 22 26  1  0
 22 27  2  0
M  END
>  <DRUGBANK_ID>  (1) 
DB02430

>  <SECONDARY_ACCESSION_NUMBERS>  (1) 
EXPT02998

>  <COMMON_NAME>  (1) 
Trehalose-6-Phosphate

>  <CAS_NUMBER>  (1) 
4484-88-2

$$$$
