
     RDKit          3D

 15 14  0  0  0  0  0  0  0  0999 V2000
   -0.6907   -1.1498    0.2296 C   0  0  0  0  0  0  0  0  0  0  0  0
   -1.4147    0.0133    0.1112 C   0  0  0  0  0  0  0  0  0  0  0  0
   -0.7419    1.2292    0.2060 C   0  0  0  0  0  0  0  0  0  0  0  0
    0.6743    1.2913    0.2154 C   0  0  0  0  0  0  0  0  0  0  0  0
    1.4435    0.1096    0.2998 C   0  0  0  0  0  0  0  0  0  0  0  0
    0.6828   -1.0680    0.4861 C   0  0  0  0  0  0  0  0  0  0  0  0
    2.9448    0.0816   -0.0085 C   0  0  0  0  0  0  0  0  0  0  0  0
    3.5393    1.1358   -0.2864 O   0  0  0  0  0  0  0  0  0  0  0  0
    3.6991   -1.0522   -0.1320 N   0  0  0  0  0  0  0  0  0  0  0  0
    3.3183   -2.4609   -0.1789 C   0  0  0  0  0  0  0  0  0  0  0  0
    3.4754   -3.2530   -1.4737 C   0  0  0  0  0  0  0  0  0  0  0  0
    3.9831   -4.3955   -1.3389 O   0  0  0  0  0  0  0  0  0  0  0  0
    2.8859   -2.7050   -2.4640 O   0  0  0  0  0  0  0  0  0  0  0  0
    1.3969    3.2592   -0.1057 I   0  0  0  0  0  0  0  0  0  0  0  0
    0.3804   -0.1750   -2.2776 Na  0  0  0  0  0 15  0  0  0  0  0  0
  1  2  2  0
  1  6  1  0
  2  3  1  0
  3  4  2  0
  4  5  1  0
  4 14  1  0
  5  6  2  0
  5  7  1  0
  7  8  2  0
  7  9  1  0
  9 10  1  0
 10 11  1  0
 11 12  2  0
 11 13  1  0
M  CHG  2  13  -1  15   1
M  ISO  1  14 123
M  END
>  <DRUGBANK_ID>  (1) 
DB09448

>  <COMMON_NAME>  (1) 
Iodohippurate sodium I-123

>  <CAS_NUMBER>  (1) 
56254-07-0

>  <UNII>  (1) 
4NW20GFQ7H

>  <SYNONYMS>  (1) 
Sodium iodohippurate (123 I); sodium iodohippurate (123I)

$$$$
