
     RDKit          3D

 20 19  0  0  0  0  0  0  0  0999 V2000
    1.1152   -0.0044    0.0273 C   0  0  0  0  0  0  0  0  0  0  0  0
   -1.5013   -3.4317    1.8621 C   0  0  0  0  0  0  0  0  0  0  0  0
    0.6380   -1.4242   -0.2467 C   0  0  0  0  0  0  0  0  0  0  0  0
   -0.9409   -2.0567    2.1821 C   0  0  0  0  0  0  0  0  0  0  0  0
    1.1433   -2.4136    0.8020 C   0  0  0  0  0  0  0  0  0  0  0  0
    0.5869   -2.1883    2.2074 C   0  0  0  0  0  0  0  0  0  0  0  0
    1.1471    1.9702    1.6403 C   0  0  0  0  0  0  0  0  0  0  0  0
   -1.4854   -3.9570    4.3145 C   0  0  0  0  0  0  0  0  0  0  0  0
    0.6700    0.5774    1.3673 C   0  0  0  0  0  0  0  0  0  0  0  0
   -1.0162   -4.4170    2.9277 C   0  0  0  0  0  0  0  0  0  0  0  0
   -0.9850    2.8179    0.6575 C   0  0  0  0  0  0  0  0  0  0  0  0
   -3.5733   -5.3324    4.0378 C   0  0  0  0  0  0  0  0  0  0  0  0
    0.5519    2.8912    0.6122 C   0  0  0  0  0  0  0  0  0  0  0  0
   -3.0149   -3.9477    4.3670 C   0  0  0  0  0  0  0  0  0  0  0  0
   -1.0306    4.6929    2.3607 C   0  0  0  0  0  0  0  0  0  0  0  0
   -1.5293    3.2916    2.0113 C   0  0  0  0  0  0  0  0  0  0  0  0
   -3.0592   -6.3553    5.0379 C   0  0  0  0  0  0  0  0  0  0  0  0
   -1.5067    5.7265    1.3646 C   0  0  0  0  0  0  0  0  0  0  0  0
   -2.2741    6.6303    1.5983 O   0  0  0  0  0  0  0  0  0  0  0  0
   -1.0025    5.5534    0.1233 O   0  0  0  0  0  0  0  0  0  0  0  0
  1  9  1  0
  2 10  1  0
  3  1  1  0
  4  2  1  0
  5  3  1  0
  6  4  1  0
  6  5  1  0
  7 13  1  0
  8 14  1  0
  9  7  1  0
 10  8  1  0
 11 16  1  0
 12 17  1  0
 13 11  1  0
 14 12  1  0
 15 18  1  0
 16 15  1  0
 18 19  2  0
 18 20  1  0
M  END
>  <DRUGBANK_ID>  (1) 
DB03193

>  <SECONDARY_ACCESSION_NUMBERS>  (1) 
EXPT02965

>  <COMMON_NAME>  (1) 
Stearic acid

>  <CAS_NUMBER>  (1) 
57-11-4

>  <UNII>  (1) 
4ELV7Z65AP

>  <SYNONYMS>  (1) 
Acide octadécanoïque; Acide stéarique; C18:0; n-octadecanoic acid; Octadecanoic acid; Octadecansäure; Octadecoic acid; Oktadekansäure; Stearic acid; Stearinsäure

$$$$
