HDI
     RDKit          3D

 17 18  0  0  0  0  0  0  0  0999 V2000
    0.9539    0.0843   -0.0233 C   0  0  0  0  0  0  0  0  0  0  0  0
    0.8821    1.5505    1.8161 C   0  0  0  0  0  0  0  0  0  0  0  0
    1.5507    0.7661    2.4819 O   0  0  0  0  0  0  0  0  0  0  0  0
    0.4763    1.3183    0.5353 O   0  0  0  0  0  0  0  0  0  0  0  0
    0.3318    2.8547    2.3578 C   0  0  0  0  0  0  0  0  0  0  0  0
    2.3739    5.6822    2.2943 N   0  0  0  0  0  0  0  0  0  0  0  0
    2.2052    4.3138    1.9800 O   0  0  0  0  0  0  0  0  0  0  0  0
    0.8443    4.0672    1.5846 C   0  0  2  0  0  0  0  0  0  0  0  0
    0.0837    5.3538    1.8770 C   0  0  0  0  0  0  0  0  0  0  0  0
    1.2138    6.2468    2.2508 C   0  0  0  0  0  0  0  0  0  0  0  0
    0.4766   11.7531    3.1973 O   0  0  0  0  0  0  0  0  0  0  0  0
    1.7240    8.6380    1.7829 C   0  0  0  0  0  0  0  0  0  0  0  0
    1.0055    7.6871    2.5162 C   0  0  0  0  0  0  0  0  0  0  0  0
    0.1047    8.1047    3.5026 C   0  0  0  0  0  0  0  0  0  0  0  0
   -0.0841    9.4728    3.7501 C   0  0  0  0  0  0  0  0  0  0  0  0
    0.6235   10.4110    3.0026 C   0  0  0  0  0  0  0  0  0  0  0  0
    1.5198   10.0022    2.0202 C   0  0  0  0  0  0  0  0  0  0  0  0
  1  4  1  0
  2  3  2  0
  2  4  1  0
  2  5  1  0
  6  7  1  0
  6 10  2  0
  7  8  1  0
  8  5  1  1
  8  9  1  0
  9 10  1  0
 10 13  1  0
 11 16  1  0
 12 13  2  0
 12 17  1  0
 13 14  1  0
 14 15  2  0
 15 16  1  0
 16 17  2  0
M  END
>  <DRUGBANK_ID>  (1) 
DB07888

>  <COMMON_NAME>  (1) 
3-(4-HYDROXYPHENYL)-4,5-DIHYDRO-5-ISOXAZOLE-ACETIC ACID METHYL ESTER

$$$$
