
     RDKit          3D

 11 11  0  0  0  0  0  0  0  0999 V2000
    1.0533    0.0366   -0.0407 C   0  0  0  0  0  0  0  0  0  0  0  0
    0.4130    0.6477   -0.8872 O   0  0  0  0  0  0  0  0  0  0  0  0
    0.4402   -0.6600    0.9370 N   0  0  0  0  0  0  0  0  0  0  0  0
    2.4000    0.0308   -0.0672 N   0  0  0  0  0  0  0  0  0  0  0  0
    0.0420   -2.7510    3.6392 N   0  0  0  0  0  0  0  0  0  0  0  0
    1.0908   -2.8004    1.6869 N   0  0  0  0  0  0  0  0  0  0  0  0
    0.5351   -3.5658    2.6795 C   0  0  0  0  0  0  0  0  0  0  0  0
    0.2876   -1.4465    3.3347 C   0  0  0  0  0  0  0  0  0  0  0  0
    1.0489   -1.4076    1.9934 C   0  0  0  0  0  0  0  0  0  0  0  0
    0.5033   -4.7845    2.6866 O   0  0  0  0  0  0  0  0  0  0  0  0
   -0.0357   -0.4890    4.0201 O   0  0  0  0  0  0  0  0  0  0  0  0
  2  1  2  0
  3  1  1  0
  4  1  1  0
  7  5  1  0
  7  6  1  0
  8  5  1  0
  9  3  1  0
  9  6  1  0
  9  8  1  0
 10  7  2  0
 11  8  2  0
M  END
>  <DRUGBANK_ID>  (1) 
DB11100

>  <COMMON_NAME>  (1) 
Allantoin

>  <CAS_NUMBER>  (1) 
97-59-6

>  <UNII>  (1) 
344S277G0Z

>  <SYNONYMS>  (1) 
(2,5-Dioxo-4-imidazolidinyl)urea; 2,5-Dioxo-4-imidazolidinyl-urea; 4-ureido-2,5-imidazolidinedione; 5-Ureido-2,4-imidazolidindione; 5-Ureidohydantoin; Alanto√≠na; Allantoin; Glyoxyldiureide; N-(2,5-Dioxo-4-imidazolidinyl)urea

$$$$
