
     RDKit          3D

 41 45  0  0  1  0  0  0  0  0999 V2000
    0.9984    0.0644   -0.0482 C   0  0  0  0  0  0  0  0  0  0  0  0
    0.4768    0.1041    1.3791 C   0  0  0  0  0  0  0  0  0  0  0  0
    0.9055    1.3822    2.0371 C   0  0  0  0  0  0  0  0  0  0  0  0
    1.8439    1.4227    3.0557 C   0  0  0  0  0  0  0  0  0  0  0  0
    2.2320    2.6011    3.5950 N   0  0  0  0  0  0  0  0  0  0  0  0
    1.6513    3.7646    3.1826 C   0  0  0  0  0  0  0  0  0  0  0  0
    0.7653    3.6990    2.1034 C   0  0  0  0  0  0  0  0  0  0  0  0
    0.3559    2.5191    1.5382 N   0  0  0  0  0  0  0  0  0  0  0  0
    0.3019    4.8931    1.3493 C   0  0  0  0  0  0  0  0  0  0  0  0
    0.9837    5.8963    1.1453 O   0  0  0  0  0  0  0  0  0  0  0  0
   -0.9046    4.8229    0.7158 N   0  0  0  0  0  0  0  0  0  0  0  0
    1.9323    4.9025    3.9737 N   0  0  0  0  0  0  0  0  0  0  0  0
    1.4980    6.2338    3.8019 C   0  0  0  0  0  0  0  0  0  0  0  0
    0.1354    6.5458    3.8371 C   0  0  0  0  0  0  0  0  0  0  0  0
   -0.3393    7.7622    3.3131 C   0  0  0  0  0  0  0  0  0  0  0  0
    0.5137    8.7400    2.7724 C   0  0  0  0  0  0  0  0  0  0  0  0
    1.8861    8.4663    2.8466 C   0  0  0  0  0  0  0  0  0  0  0  0
    2.3738    7.2243    3.3341 C   0  0  0  0  0  0  0  0  0  0  0  0
   -0.0268    9.8781    2.1972 N   0  0  0  0  0  0  0  0  0  0  0  0
    0.3261   10.4470    0.8945 C   0  0  0  0  0  0  0  0  0  0  0  0
    1.0119   11.8138    1.0484 C   0  0  0  0  0  0  0  0  0  0  0  0
    0.2371   12.7629    1.9843 C   0  0  0  0  0  0  0  0  0  0  0  0
   -0.2988   12.0021    3.2345 C   0  0  0  0  0  0  0  0  0  0  0  0
   -0.9699   10.6757    2.9670 C   0  0  0  0  0  0  0  0  0  0  0  0
    0.9584   13.9774    2.4370 N   0  0  0  0  0  0  0  0  0  0  0  0
    1.5458   14.9366    1.4723 C   0  0  0  0  0  0  0  0  0  0  0  0
    3.0802   14.8034    1.1971 C   0  0  0  0  0  0  0  0  0  0  0  0
    3.8508   14.6747    2.4510 N   0  0  0  0  0  0  0  0  0  0  0  0
    3.3375   13.5103    3.1645 C   0  0  0  0  0  0  0  0  0  0  0  0
    1.8888   13.7685    3.5563 C   0  0  0  0  0  0  0  0  0  0  0  0
    5.2789   14.5221    2.2371 C   0  0  0  0  0  0  0  0  0  0  0  0
    2.3436    0.2240    3.5247 O   0  0  0  0  0  0  0  0  0  0  0  0
    3.1898    0.1600    4.6810 C   0  0  2  0  0  0  0  0  0  0  0  0
    2.4726    0.5016    5.9820 C   0  0  0  0  0  0  0  0  0  0  0  0
    2.8262    1.9436    6.2123 C   0  0  0  0  0  0  0  0  0  0  0  0
    4.1522    2.1137    5.6384 N   0  0  0  0  0  0  0  0  0  0  0  0
    4.4266    1.0651    4.6469 C   0  0  0  0  0  0  0  0  0  0  0  0
    5.0736    3.0892    5.9159 C   0  0  0  0  0  0  0  0  0  0  0  0
    6.2163    3.0644    5.4563 O   0  0  0  0  0  0  0  0  0  0  0  0
    4.7269    4.2079    6.8525 C   0  0  0  0  0  0  0  0  0  0  0  0
    3.5415    4.5926    7.3456 C   0  0  0  0  0  0  0  0  0  0  0  0
  1  2  1  0
  2  3  1  0
  3  4  2  0
  3  8  1  0
  4  5  1  0
  4 32  1  0
  5  6  2  0
  6  7  1  0
  6 12  1  0
  7  8  2  0
  7  9  1  0
  9 10  2  0
  9 11  1  0
 12 13  1  0
 13 14  2  0
 13 18  1  0
 14 15  1  0
 15 16  2  0
 16 17  1  0
 16 19  1  0
 17 18  2  0
 19 20  1  0
 19 24  1  0
 20 21  1  0
 21 22  1  0
 22 23  1  0
 22 25  1  0
 23 24  1  0
 25 26  1  0
 25 30  1  0
 26 27  1  0
 27 28  1  0
 28 29  1  0
 28 31  1  0
 29 30  1  0
 33 32  1  6
 33 34  1  0
 33 37  1  0
 34 35  1  0
 35 36  1  0
 36 37  1  0
 36 38  1  0
 38 39  2  0
 38 40  1  0
 40 41  2  0
M  END
>  <DRUGBANK_ID>  (1) 
DB12036

>  <COMMON_NAME>  (1) 
Naquotinib

>  <CAS_NUMBER>  (1) 
1448232-80-1

>  <UNII>  (1) 
47DD4548PB

>  <SYNONYMS>  (1) 
Naquotinib

$$$$
