
     RDKit          3D

 36 38  0  0  1  0  0  0  0  0999 V2000
    1.2093   -1.2341    0.0911 C   0  0  2  0  0  0  0  0  0  0  0  0
    1.4492    0.1528    0.3820 O   0  0  0  0  0  0  0  0  0  0  0  0
   -0.2562   -1.3766    0.5267 C   0  0  0  0  0  0  0  0  0  0  0  0
    2.1278   -2.1174    1.0095 O   0  0  0  0  0  0  0  0  0  0  0  0
    1.0776   -1.1314   -1.5831 C   0  0  0  0  0  0  0  0  0  0  0  0
    0.8571    1.1215   -0.5494 C   0  0  1  0  0  0  0  0  0  0  0  0
   -1.1693   -0.3824   -0.2827 C   0  0  2  0  0  0  0  0  0  0  0  0
    3.3370   -2.9237    0.0710 P   0  0  2  0  0  0  0  0  0  0  0  0
    2.1037   -0.4332   -2.2330 O   0  0  0  0  0  0  0  0  0  0  0  0
    0.1617   -1.5989   -2.2497 O   0  0  0  0  0  0  0  0  0  0  0  0
   -0.6382    1.1064   -0.2775 C   0  0  1  0  0  0  0  0  0  0  0  0
   -2.4998   -0.5054    0.1898 O   0  0  0  0  0  0  0  0  0  0  0  0
    3.0548   -2.1625   -1.2974 O   0  0  0  0  0  0  0  0  0  0  0  0
    4.3413   -1.9998    0.9465 O   0  0  0  0  0  0  0  0  0  0  0  0
    4.4192   -3.6453   -0.7689 O   0  0  0  0  0  0  0  0  0  0  0  0
    2.2855   -2.9935   -2.1995 C   0  0  0  0  0  0  0  0  0  0  0  0
    2.7797   -4.1763   -2.8751 C   0  0  1  0  0  0  0  0  0  0  0  0
    1.7545   -4.4214   -3.8659 O   0  0  0  0  0  0  0  0  0  0  0  0
    4.0914   -3.8796   -3.5468 C   0  0  2  0  0  0  0  0  0  0  0  0
    2.3556   -4.2306   -5.1494 C   0  0  2  0  0  0  0  0  0  0  0  0
    3.7298   -3.5913   -4.9869 C   0  0  2  0  0  0  0  0  0  0  0  0
    4.8549   -5.0861   -3.4736 O   0  0  0  0  0  0  0  0  0  0  0  0
    1.4836   -3.5737   -6.1236 N   0  0  0  0  0  0  0  0  0  0  0  0
    4.6590   -4.2381   -5.8573 O   0  0  0  0  0  0  0  0  0  0  0  0
    1.2214   -2.1889   -6.0547 C   0  0  0  0  0  0  0  0  0  0  0  0
    0.9230   -4.3506   -7.1076 C   0  0  0  0  0  0  0  0  0  0  0  0
    0.5162   -1.6226   -7.1073 N   0  0  0  0  0  0  0  0  0  0  0  0
    1.6290   -1.5007   -5.1523 O   0  0  0  0  0  0  0  0  0  0  0  0
    0.0274   -3.8468   -7.9544 C   0  0  0  0  0  0  0  0  0  0  0  0
   -0.0528   -2.3746   -7.9861 C   0  0  0  0  0  0  0  0  0  0  0  0
   -0.7306   -1.7769   -9.0087 N   0  0  0  0  0  0  0  0  0  0  0  0
    1.8523    2.3000   -0.5422 C   0  0  1  0  0  0  0  0  0  0  0  0
    3.2473    1.7914   -0.0239 C   0  0  0  0  0  0  0  0  0  0  0  0
    3.7312    0.7112   -0.8188 O   0  0  0  0  0  0  0  0  0  0  0  0
   -0.8278    1.6282    1.0246 O   0  0  0  0  0  0  0  0  0  0  0  0
    2.0013    2.8196   -1.8785 O   0  0  0  0  0  0  0  0  0  0  0  0
  1  2  1  0
  1  3  1  0
  1  5  1  0
  1  4  1  6
  6  2  1  1
  3  7  1  0
  4  8  1  0
  5  9  1  0
  5 10  2  0
  6 11  1  0
  6 32  1  0
  7 12  1  1
  7 11  1  0
  8 13  1  0
  8 14  1  1
  8 15  2  0
 11 35  1  1
 13 16  1  0
 17 16  1  6
 17 18  1  0
 17 19  1  0
 18 20  1  0
 19 21  1  0
 19 22  1  6
 20 21  1  0
 20 23  1  6
 21 24  1  6
 23 25  1  0
 23 26  1  0
 25 27  1  0
 25 28  2  0
 26 29  2  0
 27 30  2  0
 29 30  1  0
 30 31  1  0
 32 33  1  0
 32 36  1  6
 33 34  1  0
M  END
>  <DRUGBANK_ID>  (1) 
DB04482

>  <SECONDARY_ACCESSION_NUMBERS>  (1) 
EXPT00957

>  <COMMON_NAME>  (1) 
Cmp-2-Keto-3-Deoxy-Octulosonic Acid

$$$$
