
     RDKit          3D

 25 24  0  0  0  0  0  0  0  0999 V2000
    3.1795    2.2882   -1.5837 Zn  0  0  0  0  0 15  0  0  0  0  0  0
    1.0240   -0.6530   -0.0550 C   0  0  0  0  0  0  0  0  0  0  0  0
    2.1839   -1.4566   -0.2138 O   0  0  0  0  0  0  0  0  0  0  0  0
    1.0250    0.6520   -0.0550 C   0  0  0  0  0  0  0  0  0  0  0  0
    2.1857    1.4545   -0.2136 O   0  0  0  0  0  0  0  0  0  0  0  0
   -0.3720    1.1970    0.1360 C   0  0  1  0  0  0  0  0  0  0  0  0
   -0.6540    2.3857   -0.7683 C   0  0  1  0  0  0  0  0  0  0  0  0
   -1.0309    1.8948   -2.0463 O   0  0  0  0  0  0  0  0  0  0  0  0
   -1.8351    3.0999   -0.1315 C   0  0  0  0  0  0  0  0  0  0  0  0
   -1.4582    3.5909    1.1465 O   0  0  0  0  0  0  0  0  0  0  0  0
   -1.3050    0.0000   -0.1630 O   0  0  0  0  0  0  0  0  0  0  0  0
   -0.3720   -1.1970    0.1360 C   0  0  0  0  0  0  0  0  0  0  0  0
   -0.7062   -2.3772    0.4688 O   0  0  0  0  0  0  0  0  0  0  0  0
    1.0240   -0.6530   -0.0550 C   0  0  0  0  0  0  0  0  0  0  0  0
    2.1839   -1.4566   -0.2138 O   0  0  0  0  0  0  0  0  0  0  0  0
    1.0250    0.6520   -0.0550 C   0  0  0  0  0  0  0  0  0  0  0  0
    2.1857    1.4545   -0.2136 O   0  0  0  0  0  0  0  0  0  0  0  0
   -0.3720    1.1970    0.1360 C   0  0  1  0  0  0  0  0  0  0  0  0
   -0.6540    2.3857   -0.7683 C   0  0  1  0  0  0  0  0  0  0  0  0
   -1.0309    1.8948   -2.0463 O   0  0  0  0  0  0  0  0  0  0  0  0
   -1.8351    3.0999   -0.1315 C   0  0  0  0  0  0  0  0  0  0  0  0
   -1.4582    3.5909    1.1465 O   0  0  0  0  0  0  0  0  0  0  0  0
   -1.3050    0.0000   -0.1630 O   0  0  0  0  0  0  0  0  0  0  0  0
   -0.3720   -1.1970    0.1360 C   0  0  0  0  0  0  0  0  0  0  0  0
   -0.7062   -2.3772    0.4688 O   0  0  0  0  0  0  0  0  0  0  0  0
  2  3  1  0
  2  4  2  0
  2 12  1  0
  4  5  1  0
  4  6  1  0
  6 11  1  6
  6  7  1  0
  7  8  1  6
  7  9  1  0
  9 10  1  0
 11 12  1  0
 12 13  2  0
 14 15  1  0
 14 16  2  0
 14 24  1  0
 16 17  1  0
 16 18  1  0
 18 23  1  6
 18 19  1  0
 19 20  1  6
 19 21  1  0
 21 22  1  0
 23 24  1  0
 24 25  2  0
M  CHG  3   1   2   5  -1  17  -1
M  END
>  <DRUGBANK_ID>  (1) 
DB14485

>  <SECONDARY_ACCESSION_NUMBERS>  (1) 
DBSALT002424

>  <COMMON_NAME>  (1) 
Zinc ascorbate

>  <CAS_NUMBER>  (1) 
331242-75-2

>  <UNII>  (1) 
9TI35313XW

>  <SYNONYMS>  (1) 
(-)-ascorbic acid, zinc salt; L-ascorbic acid, zinc salt; L-ascorbic acid, zinc salt (2:1)

$$$$
