737
     RDKit          3D

 28 31  0  0  1  0  0  0  0  0999 V2000
   -2.1628    0.0785    0.1246 Cl  0  0  0  0  0  0  0  0  0  0  0  0
    4.1193   -0.6505    1.0013 N   0  0  0  0  0  0  0  0  0  0  0  0
    2.0075   -1.5169    2.9757 N   0  0  0  0  0  0  0  0  0  0  0  0
    3.7292   -2.0598    1.1855 C   0  0  0  0  0  0  0  0  0  0  0  0
    3.7635    0.1547    2.1525 C   0  0  0  0  0  0  0  0  0  0  0  0
    2.3409   -2.2814    1.7869 C   0  0  0  0  0  0  0  0  0  0  0  0
    2.3775   -0.1014    2.7903 C   0  0  0  0  0  0  0  0  0  0  0  0
    3.8165   -0.0085   -0.2699 C   0  0  0  0  0  0  0  0  0  0  0  0
    2.4571   -2.1925    4.1910 C   0  0  0  0  0  0  0  0  0  0  0  0
    2.3023    0.1148   -0.5398 C   0  0  0  0  0  0  0  0  0  0  0  0
    4.5837   -0.6752   -1.4039 C   0  0  0  0  0  0  0  0  0  0  0  0
    3.9550   -2.2823    4.4063 C   0  0  0  0  0  0  0  0  0  0  0  0
    1.6227    1.3133   -0.2685 C   0  0  0  0  0  0  0  0  0  0  0  0
    1.5414   -1.0238   -0.8573 C   0  0  0  0  0  0  0  0  0  0  0  0
    4.2973   -0.2520   -2.6862 C   0  0  0  0  0  0  0  0  0  0  0  0
    5.4966   -1.7358   -1.1998 C   0  0  0  0  0  0  0  0  0  0  0  0
    4.6878   -1.1268    4.7205 C   0  0  0  0  0  0  0  0  0  0  0  0
    4.6587   -3.4547    4.1031 C   0  0  0  0  0  0  0  0  0  0  0  0
    0.2271    1.3181   -0.1536 C   0  0  0  0  0  0  0  0  0  0  0  0
    0.1731   -1.0528   -0.5719 C   0  0  0  0  0  0  0  0  0  0  0  0
    4.7732   -0.9795   -3.7756 C   0  0  0  0  0  0  0  0  0  0  0  0
    5.9302   -2.4952   -2.2857 C   0  0  0  0  0  0  0  0  0  0  0  0
    6.0544   -1.0476    4.3988 C   0  0  0  0  0  0  0  0  0  0  0  0
   -0.4824    0.1218   -0.2334 C   0  0  0  0  0  0  0  0  0  0  0  0
    5.5492   -2.1199   -3.5538 C   0  0  0  0  0  0  0  0  0  0  0  0
    6.0545   -3.4374    4.0437 C   0  0  0  0  0  0  0  0  0  0  0  0
    6.7437   -2.2253    4.1161 C   0  0  0  0  0  0  0  0  0  0  0  0
    6.7143    0.2949    4.1927 C   0  0  0  0  0  0  0  0  0  0  0  0
  1 24  1  0
  2  4  1  0
  2  5  1  0
  2  8  1  0
  3  6  1  0
  3  7  1  0
  3  9  1  0
  4  6  1  0
  5  7  1  0
  8 10  1  0
  8 11  1  0
  9 12  1  0
 10 13  2  0
 10 14  1  0
 11 15  2  0
 11 16  1  0
 12 17  2  0
 12 18  1  0
 13 19  1  0
 14 20  2  0
 15 21  1  0
 16 22  2  0
 17 23  1  0
 18 26  2  0
 19 24  2  0
 20 24  1  0
 21 25  2  0
 22 25  1  0
 23 27  2  0
 23 28  1  0
 26 27  1  0
M  END
>  <DRUGBANK_ID>  (1) 
DB00737

>  <SECONDARY_ACCESSION_NUMBERS>  (1) 
APRD00354

>  <COMMON_NAME>  (1) 
Meclizine

>  <CAS_NUMBER>  (1) 
569-65-3

>  <UNII>  (1) 
3L5TQ84570

>  <SYNONYMS>  (1) 
Meclizine; Meclozina; Meclozine

$$$$
