
     RDKit          3D

 17 18  0  0  1  0  0  0  0  0999 V2000
    0.8246    0.2317    2.4325 C   0  0  0  0  0  0  0  0  0  0  0  0
    0.3484   -0.6294    1.2390 C   0  0  2  0  0  0  0  0  0  0  0  0
   -1.0885   -0.6071    1.2343 O   0  0  0  0  0  0  0  0  0  0  0  0
   -1.6739   -1.5377    0.3079 C   0  0  0  0  0  0  0  0  0  0  0  0
   -1.1455   -2.9606    0.4922 C   0  0  1  0  0  0  0  0  0  0  0  0
   -1.6483   -3.8414   -0.5129 O   0  0  0  0  0  0  0  0  0  0  0  0
   -1.1121   -5.1679   -0.4034 C   0  0  1  0  0  0  0  0  0  0  0  0
   -1.6691   -5.9672   -1.4353 O   0  0  0  0  0  0  0  0  0  0  0  0
    0.4288   -5.1787   -0.4824 C   0  0  1  0  0  0  0  0  0  0  0  0
    0.8485   -4.7206   -1.7862 O   0  0  0  0  0  0  0  0  0  0  0  0
    0.9817   -4.2447    0.6002 C   0  0  1  0  0  0  0  0  0  0  0  0
    2.4051   -4.1624    0.4660 O   0  0  0  0  0  0  0  0  0  0  0  0
    0.3702   -2.8524    0.4348 C   0  0  2  0  0  0  0  0  0  0  0  0
    0.8347   -1.9624    1.4585 O   0  0  0  0  0  0  0  0  0  0  0  0
    0.9591    0.0528   -0.0361 C   0  0  0  0  0  0  0  0  0  0  0  0
    0.1288    0.9507   -0.6258 O   0  0  0  0  0  0  0  0  0  0  0  0
    2.0731   -0.1992   -0.4846 O   0  0  0  0  0  0  0  0  0  0  0  0
  2  3  1  0
  2 14  1  0
  2 15  1  0
  2  1  1  1
  3  4  1  0
  5  4  1  6
  5  6  1  0
  5 13  1  0
  6  7  1  0
  7  8  1  6
  7  9  1  0
  9 11  1  0
  9 10  1  6
 11 13  1  0
 11 12  1  6
 13 14  1  1
 15 16  1  0
 15 17  2  0
M  END
>  <DRUGBANK_ID>  (1) 
DB04597

>  <COMMON_NAME>  (1) 
[4,6-O-(1-CARBOXYETHYLIDENE)-BETA-D-MANNOSE]

$$$$
