SCX
     RDKit          3D

 28 31  0  0  0  0  0  0  0  0999 V2000
    1.4310   -1.3384   -0.0108 C   0  0  0  0  0  0  0  0  0  0  0  0
    0.1509   -0.8128    0.0141 C   0  0  0  0  0  0  0  0  0  0  0  0
    0.3040    0.5800    0.0128 N   0  0  0  0  0  0  0  0  0  0  0  0
    1.6239    0.9182    0.0140 N   0  0  0  0  0  0  0  0  0  0  0  0
    2.2833   -0.2252    0.0126 C   0  0  0  0  0  0  0  0  0  0  0  0
   -1.0817   -1.4082    0.0419 N   0  0  0  0  0  0  0  0  0  0  0  0
   -2.1172   -0.6168    0.0384 C   0  0  0  0  0  0  0  0  0  0  0  0
   -2.0463    0.8876   -0.0168 C   0  0  0  0  0  0  0  0  0  0  0  0
   -0.8162    1.4569   -0.0027 C   0  0  0  0  0  0  0  0  0  0  0  0
   -0.6290    2.8460   -0.0086 N   0  0  0  0  0  0  0  0  0  0  0  0
   -3.4760   -1.2167    0.1316 C   0  0  0  0  0  0  0  0  0  0  0  0
    0.6186    3.6014    0.0277 C   0  0  0  0  0  0  0  0  0  0  0  0
    0.7515    4.4366   -1.1963 C   0  0  0  0  0  0  0  0  0  0  0  0
    0.6271    5.8047   -1.1605 C   0  0  0  0  0  0  0  0  0  0  0  0
    0.7160    6.5910   -2.2452 N   0  0  0  0  0  0  0  0  0  0  0  0
    0.9524    5.9765   -3.4098 C   0  0  0  0  0  0  0  0  0  0  0  0
    1.1358    4.6596   -3.5562 N   0  0  0  0  0  0  0  0  0  0  0  0
    1.0334    3.9117   -2.4399 C   0  0  0  0  0  0  0  0  0  0  0  0
   -4.4399   -1.0164   -0.8556 C   0  0  0  0  0  0  0  0  0  0  0  0
   -5.6957   -1.6330   -0.7773 C   0  0  0  0  0  0  0  0  0  0  0  0
   -6.0068   -2.4549    0.3063 C   0  0  0  0  0  0  0  0  0  0  0  0
   -5.0551   -2.6559    1.3045 C   0  0  0  0  0  0  0  0  0  0  0  0
   -3.7979   -2.0482    1.2071 C   0  0  0  0  0  0  0  0  0  0  0  0
    1.8736   -2.7514   -0.0605 C   0  0  0  0  0  0  0  0  0  0  0  0
    0.9882    6.7552   -4.5235 N   0  0  0  0  0  0  0  0  0  0  0  0
    2.7140   -3.0233   -1.3026 C   0  0  0  0  0  0  0  0  0  0  0  0
   -4.1826   -0.2352   -1.9139 F   0  0  0  0  0  0  0  0  0  0  0  0
   -2.9204   -2.2611    2.1979 F   0  0  0  0  0  0  0  0  0  0  0  0
  1  2  2  0
  1 24  1  0
  2  6  1  0
  3  9  1  0
  3  2  1  0
  4  5  2  0
  4  3  1  0
  5  1  1  0
  6  7  2  0
  7 11  1  0
  8  7  1  0
  9  8  2  0
 10 12  1  0
 10  9  1  0
 11 19  2  0
 13 14  2  0
 13 12  1  0
 15 14  1  0
 16 15  2  0
 17 16  1  0
 17 18  2  0
 18 13  1  0
 19 27  1  0
 19 20  1  0
 21 20  2  0
 22 21  1  0
 23 11  1  0
 23 22  2  0
 25 16  1  0
 26 24  1  0
 28 23  1  0
M  END
>  <DRUGBANK_ID>  (1) 
DB08538

>  <COMMON_NAME>  (1) 
N-((2-aminopyrimidin-5-yl)methyl)-5-(2,6-difluorophenyl)-3-ethylpyrazolo[1,5-a]pyrimidin-7-amine

$$$$
