
     RDKit          3D

 27 24  0  0  1  0  0  0  0  0999 V2000
    4.6859   -3.9382    2.4513 C   0  0  0  0  0  0  0  0  0  0  0  0
    4.4265   -4.0570    0.9224 C   0  0  2  0  0  0  0  0  0  0  0  0
    2.9613   -3.8824    0.5183 C   0  0  2  0  0  0  0  0  0  0  0  0
    2.2938   -2.6106    1.0816 C   0  0  1  0  0  0  0  0  0  0  0  0
    3.3231   -1.4308    1.5663 C   0  0  2  0  0  0  0  0  0  0  0  0
    2.8221   -0.5631    0.5305 C   0  0  0  0  0  0  0  0  0  0  0  0
    3.6426   -3.4062    3.2783 O   0  0  0  0  0  0  0  0  0  0  0  0
    4.9315   -5.3187    0.4591 O   0  0  0  0  0  0  0  0  0  0  0  0
    2.1881   -5.0164    0.9788 O   0  0  0  0  0  0  0  0  0  0  0  0
    1.1558   -2.2758    0.1463 O   0  0  0  0  0  0  0  0  0  0  0  0
    4.7222   -1.4682    1.3048 O   0  0  0  0  0  0  0  0  0  0  0  0
    3.1076   -1.1102   -0.6003 O   0  0  0  0  0  0  0  0  0  0  0  0
    1.9060    0.2381    0.9559 O   0  0  0  0  0  0  0  0  0  0  0  0
    1.4377    6.1430   -1.2911 C   0  0  0  0  0  0  0  0  0  0  0  0
    2.4095    4.9654   -1.2293 C   0  0  2  0  0  0  0  0  0  0  0  0
    1.8685    3.7062   -0.5303 C   0  0  2  0  0  0  0  0  0  0  0  0
    1.0375    2.8713   -1.5507 C   0  0  1  0  0  0  0  0  0  0  0  0
    1.8643    2.0449   -2.5843 C   0  0  2  0  0  0  0  0  0  0  0  0
    2.2312    0.9662   -1.6604 C   0  0  0  0  0  0  0  0  0  0  0  0
    0.6767    6.2684   -0.0862 O   0  0  0  0  0  0  0  0  0  0  0  0
    3.6244    5.4109   -0.6201 O   0  0  0  0  0  0  0  0  0  0  0  0
    1.0010    3.9174    0.6321 O   0  0  0  0  0  0  0  0  0  0  0  0
    0.0329    2.1563   -0.7276 O   0  0  0  0  0  0  0  0  0  0  0  0
    3.0953    2.6375   -3.0099 O   0  0  0  0  0  0  0  0  0  0  0  0
    1.2440    0.1220   -1.4992 O   0  0  0  0  0  0  0  0  0  0  0  0
    3.3205    1.2283   -1.0858 O   0  0  0  0  0  0  0  0  0  0  0  0
    0.0569   -0.1130    0.1585 Ca  0  0  0  0  0 15  0  0  0  0  0  0
  2  8  1  1
  2  3  1  0
  2  1  1  0
  3  9  1  1
  3  4  1  0
  4 10  1  6
  5 11  1  6
  5  6  1  0
  5  4  1  0
  7  1  1  0
 12  6  2  0
 13  6  1  0
 15 21  1  1
 15 16  1  0
 15 14  1  0
 16 22  1  1
 16 17  1  0
 17 23  1  1
 18 24  1  1
 18 19  1  0
 18 17  1  0
 20 14  1  0
 25 19  2  0
 26 19  1  0
M  CHG  3  13  -1  26  -1  27   2
M  END
>  <DRUGBANK_ID>  (1) 
DB11126

>  <COMMON_NAME>  (1) 
Calcium gluconate

>  <CAS_NUMBER>  (1) 
299-28-5

>  <UNII>  (1) 
SQE6VB453K

>  <SYNONYMS>  (1) 
Calcarea gluconica; Calcii gluconas; Calcio gluconato; Calcium di-gluconate; Calcium gluconate; Calcium gluconate anhydrous; Calcium gluconate, anhydrous; D-gluconic acid, calcium salt (2:1)

$$$$
