
     RDKit          3D

 20 20  0  0  0  0  0  0  0  0999 V2000
    0.9518   -0.0040   -0.0876 P   0  0  2  0  0  0  0  0  0  0  0  0
    1.0318   -0.8376   -1.4923 O   0  0  0  0  0  0  0  0  0  0  0  0
    1.0409   -1.1207    1.1152 O   0  0  0  0  0  0  0  0  0  0  0  0
   -0.5965   -0.0040   -0.0876 O   0  0  0  0  0  0  0  0  0  0  0  0
    1.9450    0.1563   -3.5062 C   0  0  2  0  0  0  0  0  0  0  0  0
    0.6667   -0.1399   -2.7109 C   0  0  2  0  0  0  0  0  0  0  0  0
    2.8002    1.1700   -2.7760 C   0  0  0  0  0  0  0  0  0  0  0  0
    0.7186    2.3168   -1.7084 C   0  0  2  0  0  0  0  0  0  0  0  0
   -0.0964    1.1520   -2.4149 C   0  0  0  0  0  0  0  0  0  0  0  0
    2.1877    2.4214   -2.1859 C   0  0  0  0  0  0  0  0  0  0  0  0
    2.1344    0.4422   -4.9733 C   0  0  0  0  0  0  0  0  0  0  0  0
    0.6045    2.7008   -0.1609 C   0  0  0  0  0  0  0  0  0  0  0  0
    1.6375   -0.7413   -5.7839 C   0  0  0  0  0  0  0  0  0  0  0  0
    1.5479    1.7767   -5.3221 C   0  0  0  0  0  0  0  0  0  0  0  0
    2.7818   -0.0040   -0.0876 C   0  0  0  0  0  0  0  0  0  0  0  0
    3.4187   -1.4868    0.0383 C   0  0  0  0  0  0  0  0  0  0  0  0
    3.1590   -2.5295   -1.0669 C   0  0  0  0  0  0  0  0  0  0  0  0
    3.7599   -2.0557   -2.3621 C   0  0  0  0  0  0  0  0  0  0  0  0
    5.2320   -1.8371   -2.5196 C   0  0  0  0  0  0  0  0  0  0  0  0
    5.8333   -3.1975   -2.5947 C   0  0  0  0  0  0  0  0  0  0  0  0
  1  2  1  0
  1  3  1  0
  1  4  2  0
  1 15  1  0
  5  6  1  0
  5  7  1  0
  5 11  1  6
  6  2  1  1
  6  9  1  0
  7 10  1  0
  8  9  1  0
  8 10  1  0
  8 12  1  1
 11 13  1  0
 11 14  1  0
 15 16  1  0
 16 17  1  0
 17 18  1  0
 18 19  1  0
 19 20  1  0
M  END
>  <DRUGBANK_ID>  (1) 
DB08201

>  <COMMON_NAME>  (1) 
(1S)-menthyl hexyl phosphonate group

$$$$
