
     RDKit          3D

 33 33  0  0  0  0  0  0  0  0999 V2000
    3.6522   -0.7921    0.1151 S   0  0  0  0  0  0  0  0  0  0  0  0
    5.6503   -0.4788    1.8274 O   0  0  0  0  0  0  0  0  0  0  0  0
   -0.5231   -4.9784   -1.9422 O   0  0  0  0  0  0  0  0  0  0  0  0
    3.3994   -4.5767    1.7127 O   0  0  0  0  0  0  0  0  0  0  0  0
    4.5651   -3.9517   -1.6356 O   0  0  0  0  0  0  0  0  0  0  0  0
    3.4441   -0.3545    2.5919 O   0  0  0  0  0  0  0  0  0  0  0  0
    5.2663   -2.5249   -3.1269 O   0  0  0  0  0  0  0  0  0  0  0  0
   -1.2870   -2.7156    3.6542 O   0  0  0  0  0  0  0  0  0  0  0  0
   -0.5840   -4.5977    2.5586 O   0  0  0  0  0  0  0  0  0  0  0  0
    6.4020   -7.3904    1.8349 O   0  0  0  0  0  0  0  0  0  0  0  0
    8.4869   -7.1020    2.4528 O   0  0  0  0  0  0  0  0  0  0  0  0
    0.8925   -4.0863   -0.4933 N   0  0  0  0  0  0  0  0  0  0  0  0
    1.8721   -3.1237    2.4777 N   0  0  0  0  0  0  0  0  0  0  0  0
    3.0847   -0.6954   -2.5941 N   0  0  0  0  0  0  0  0  0  0  0  0
    7.3945   -6.6773    2.0600 N   0  0  0  0  0  0  0  0  0  0  0  0
    2.0523   -3.3936    0.1076 C   0  0  1  0  0  0  0  0  0  0  0  0
    1.6909   -2.4813   -3.3396 C   0  0  0  0  0  0  0  0  0  0  0  0
    1.3089   -3.9286   -3.0929 C   0  0  0  0  0  0  0  0  0  0  0  0
    2.0700   -1.7475    0.1185 C   0  0  0  0  0  0  0  0  0  0  0  0
    2.9268   -2.1741   -2.5559 C   0  0  1  0  0  0  0  0  0  0  0  0
    0.5172   -4.3235   -1.8007 C   0  0  0  0  0  0  0  0  0  0  0  0
    2.4868   -3.8121    1.4896 C   0  0  0  0  0  0  0  0  0  0  0  0
    4.2923   -2.9398   -2.4790 C   0  0  0  0  0  0  0  0  0  0  0  0
    4.3404   -1.0293    1.7403 C   0  0  1  0  0  0  0  0  0  0  0  0
    0.5704   -2.5508    2.2705 C   0  0  0  0  0  0  0  0  0  0  0  0
    6.6415   -1.0366    0.9318 C   0  0  0  0  0  0  0  0  0  0  0  0
    6.9532   -2.4920    1.2079 C   0  0  0  0  0  0  0  0  0  0  0  0
    8.1403   -2.9541    1.7669 C   0  0  0  0  0  0  0  0  0  0  0  0
    5.9918   -3.4474    0.9044 C   0  0  0  0  0  0  0  0  0  0  0  0
   -0.4743   -3.4177    2.8493 C   0  0  0  0  0  0  0  0  0  0  0  0
    8.3052   -4.3257    2.0688 C   0  0  0  0  0  0  0  0  0  0  0  0
    6.1094   -4.7893    1.2371 C   0  0  0  0  0  0  0  0  0  0  0  0
    7.2742   -5.2377    1.8126 C   0  0  0  0  0  0  0  0  0  0  0  0
  1 19  1  0
  1 24  1  0
  2 24  1  0
  2 26  1  0
  3 21  2  0
  4 22  2  0
  5 23  1  0
 24  6  1  1
  7 23  2  0
  8 30  1  0
  9 30  2  0
 10 15  1  0
 11 15  2  0
 12 21  1  0
 13 22  1  0
 13 25  1  0
 15 33  1  0
 16 22  1  0
 16 19  1  1
 16 12  1  0
 17 18  1  0
 18 21  1  0
 20 23  1  0
 20 17  1  0
 20 14  1  6
 25 30  1  0
 26 27  1  0
 27 28  2  0
 27 29  1  0
 28 31  1  0
 29 32  2  0
 31 33  2  0
 32 33  1  0
M  CHG  2  10  -1  15   1
M  END
>  <DRUGBANK_ID>  (1) 
DB03130

>  <SECONDARY_ACCESSION_NUMBERS>  (1) 
EXPT01625

>  <COMMON_NAME>  (1) 
S-P-Nitrobenzyloxycarbonylglutathione

$$$$
