IEM
     RDKit          3D

 19 19  0  0  0  0  0  0  0  0999 V2000
    1.0236   -0.2412    0.0046 C   0  0  0  0  0  0  0  0  0  0  0  0
    0.3735   -0.9814    1.1541 C   0  0  0  0  0  0  0  0  0  0  0  0
   -0.8139   -1.5982    1.0520 C   0  0  0  0  0  0  0  0  0  0  0  0
   -1.3825   -2.3135    2.2365 C   0  0  1  0  0  0  0  0  0  0  0  0
   -1.1572   -1.5724    3.5653 C   0  0  2  0  0  0  0  0  0  0  0  0
    0.2886   -0.9964    3.6348 C   0  0  2  0  0  0  0  0  0  0  0  0
    0.4120    0.0741    4.6180 O   0  0  0  0  0  0  0  0  0  0  0  0
   -0.5647    1.1129    4.7018 C   0  0  0  0  0  0  0  0  0  0  0  0
   -0.3748    2.1171    3.5692 C   0  0  0  0  0  0  0  0  0  0  0  0
   -0.6213    1.5138    2.2209 C   0  0  0  0  0  0  0  0  0  0  0  0
   -1.3086    3.2870    3.5913 C   0  0  0  0  0  0  0  0  0  0  0  0
   -0.5486   -3.3754    5.1198 C   0  0  0  0  0  0  0  0  0  0  0  0
   -0.7680   -4.0772    6.4129 C   0  0  0  0  0  0  0  0  0  0  0  0
   -1.4443   -2.3958    4.7594 N   0  0  0  0  0  0  0  0  0  0  0  0
    0.2162    0.2571   -0.9567 O   0  0  0  0  0  0  0  0  0  0  0  0
    2.2353   -0.0044   -0.0187 O   0  0  0  0  0  0  0  0  0  0  0  0
   -2.7841   -2.4986    2.0055 O   0  0  0  0  0  0  0  0  0  0  0  0
    1.0238   -0.8659    2.3868 O   0  0  0  0  0  0  0  0  0  0  0  0
    0.4254   -3.6755    4.4334 O   0  0  0  0  0  0  0  0  0  0  0  0
  1  2  1  0
  1 15  1  0
  1 16  2  0
  2  3  2  0
  2 18  1  0
  3  4  1  0
  4  5  1  0
  4 17  1  6
  5  6  1  0
  5 14  1  1
  6  7  1  6
  6 18  1  0
  7  8  1  0
  8  9  1  0
  9 10  1  0
  9 11  1  0
 12 13  1  0
 12 14  1  0
 12 19  2  0
M  END
>  <DRUGBANK_ID>  (1) 
DB07960

>  <COMMON_NAME>  (1) 
5-ACETAMIDO-5,6-DIHYDRO-4-HYDROXY-6-ISOBUTOXY-4H-PYRAN-2-CARBOXYLIC ACID

$$$$
