
     RDKit          3D

  8  8  0  0  0  0  0  0  0  0999 V2000
    1.9236   -0.0018   -0.0362 O   0  0  0  0  0  0  0  0  0  0  0  0
   -2.0098   -2.7215   -1.2467 O   0  0  0  0  0  0  0  0  0  0  0  0
   -0.1151   -1.0848    0.0636 N   0  0  0  0  0  0  0  0  0  0  0  0
   -1.5115   -0.7424    0.0702 C   0  0  1  0  0  0  0  0  0  0  0  0
   -1.5113    0.7405   -0.2737 C   0  0  0  0  0  0  0  0  0  0  0  0
   -0.1569    1.2359    0.2234 C   0  0  0  0  0  0  0  0  0  0  0  0
    0.7092    0.0172    0.0536 C   0  0  0  0  0  0  0  0  0  0  0  0
   -2.2842   -1.5609   -0.9507 C   0  0  0  0  0  0  0  0  0  0  0  0
  1  7  2  0
  2  8  2  0
  3  4  1  0
  3  7  1  0
  4  5  1  0
  4  8  1  6
  5  6  1  0
  6  7  1  0
M  END
>  <DRUGBANK_ID>  (1) 
DB03901

>  <SECONDARY_ACCESSION_NUMBERS>  (1) 
EXPT00900

>  <COMMON_NAME>  (1) 
5-Oxoprolinal

>  <CAS_NUMBER>  (1) 
96914-00-0

>  <SYNONYMS>  (1) 
(2S)-5-Oxo-2-pyrrolidinecarbaldehyde; 5-Ketoprolinal

$$$$
