
     RDKit          3D

 15 15  0  0  1  0  0  0  0  0999 V2000
    1.1442   -1.5184   -1.9345 C   0  0  0  0  0  0  0  0  0  0  0  0
    0.4429   -0.2334   -1.4993 C   0  0  2  0  0  0  0  0  0  0  0  0
    0.9138    0.0511   -0.1534 O   0  0  0  0  0  0  0  0  0  0  0  0
    1.0580    1.2993    0.3532 C   0  0  0  0  0  0  0  0  0  0  0  0
    0.7277    2.3388   -0.4530 N   0  0  0  0  0  0  0  0  0  0  0  0
    1.4111    1.4901    1.5117 O   0  0  0  0  0  0  0  0  0  0  0  0
   -1.1092   -0.3033   -1.4875 C   0  0  1  0  0  0  0  0  0  0  0  0
   -1.6345    0.9529   -1.0150 O   0  0  0  0  0  0  0  0  0  0  0  0
   -1.6573   -0.5450   -2.8788 C   0  0  0  0  0  0  0  0  0  0  0  0
   -1.9740    0.5480   -3.7118 C   0  0  0  0  0  0  0  0  0  0  0  0
   -2.3634    0.3526   -5.0362 C   0  0  0  0  0  0  0  0  0  0  0  0
   -2.3974   -0.9330   -5.5659 C   0  0  0  0  0  0  0  0  0  0  0  0
   -2.0921   -2.0263   -4.7592 C   0  0  0  0  0  0  0  0  0  0  0  0
   -1.7742   -1.8404   -3.4137 C   0  0  0  0  0  0  0  0  0  0  0  0
   -1.5351   -3.2703   -2.4657 Cl  0  0  0  0  0  0  0  0  0  0  0  0
  2  7  1  0
  2  3  1  0
  2  1  1  1
  3  4  1  0
  4  5  1  0
  4  6  2  0
  7  8  1  6
  7  9  1  0
  9 10  2  0
  9 14  1  0
 10 11  1  0
 11 12  2  0
 12 13  1  0
 13 14  2  0
 14 15  1  0
M  END
>  <DRUGBANK_ID>  (1) 
DB16034

>  <COMMON_NAME>  (1) 
JBPOS0101

>  <CAS_NUMBER>  (1) 
1353949-71-9

>  <UNII>  (1) 
D7NM51C3GU

$$$$
