
     RDKit          3D

 16 16  0  0  0  0  0  0  0  0999 V2000
    0.8774   -0.1580    0.0950 C   0  0  0  0  0  0  0  0  0  0  0  0
   -0.9404    2.6598   -1.8999 C   0  0  0  0  0  0  0  0  0  0  0  0
    1.8818    1.1503   -1.6894 C   0  0  0  0  0  0  0  0  0  0  0  0
   -0.3869    1.9348   -0.6710 C   0  0  2  0  0  0  0  0  0  0  0  0
    0.5125    0.7263   -1.1133 C   0  0  2  0  0  0  0  0  0  0  0  0
    2.6081    1.9891   -0.8078 O   0  0  0  0  0  0  0  0  0  0  0  0
   -1.4813    1.5236    0.1530 O   0  0  0  0  0  0  0  0  0  0  0  0
    1.8903    2.9614   -4.4532 O   0  0  0  0  0  0  0  0  0  0  0  0
   -0.5802    3.4242   -5.1181 O   0  0  0  0  0  0  0  0  0  0  0  0
    0.7826   -1.2686   -3.8473 O   0  0  0  0  0  0  0  0  0  0  0  0
   -1.6407   -0.4536   -4.1688 O   0  0  0  0  0  0  0  0  0  0  0  0
    0.1768    3.1500   -2.6219 O   0  0  0  0  0  0  0  0  0  0  0  0
   -0.2689   -0.0940   -1.9899 O   0  0  0  0  0  0  0  0  0  0  0  0
    0.4187    1.1524   -4.1637 O   0  0  0  0  0  0  0  0  0  0  0  0
    0.3235    2.7220   -4.1624 P   0  0  2  0  0  0  0  0  0  0  0  0
   -0.3140   -0.1183   -3.5923 P   0  0  1  0  0  0  0  0  0  0  0  0
  4  2  1  0
  4  7  1  1
  5  1  1  1
  5  3  1  0
  5  4  1  0
  6  3  1  0
 12  2  1  0
 13  5  1  0
 15  8  1  6
 15  9  2  0
 15 12  1  0
 15 14  1  0
 16 10  1  6
 16 11  2  0
 16 13  1  0
 16 14  1  0
M  END
>  <DRUGBANK_ID>  (1) 
DB03961

>  <SECONDARY_ACCESSION_NUMBERS>  (1) 
EXPT00871

>  <COMMON_NAME>  (1) 
2c-Methyl-D-Erythritol 2,4-Cyclodiphosphate

$$$$
