1085
     RDKit          3D

 15 16  0  0  1  0  0  0  0  0999 V2000
    0.1143   -0.9598   -0.3391 O   0  0  0  0  0  0  0  0  0  0  0  0
   -1.8643    0.1402   -0.0209 O   0  0  0  0  0  0  0  0  0  0  0  0
    0.6925   -1.3211    2.6010 N   0  0  0  0  0  0  0  0  0  0  0  0
   -0.6967   -0.3067    3.9938 N   0  0  0  0  0  0  0  0  0  0  0  0
    1.6344    0.7547    0.1527 C   0  0  1  0  0  0  0  0  0  0  0  0
    0.2554    1.3768   -0.0831 C   0  0  2  0  0  0  0  0  0  0  0  0
    2.1092    0.5829    1.6263 C   0  0  0  0  0  0  0  0  0  0  0  0
    1.4900   -0.6014   -0.4920 C   0  0  0  0  0  0  0  0  0  0  0  0
   -0.2422    2.4833    0.8630 C   0  0  0  0  0  0  0  0  0  0  0  0
   -0.6352    0.1562   -0.1040 C   0  0  0  0  0  0  0  0  0  0  0  0
    1.0581    0.0122    2.5577 C   0  0  0  0  0  0  0  0  0  0  0  0
    0.8129    3.2491    1.6540 C   0  0  0  0  0  0  0  0  0  0  0  0
    0.1981    0.5937    3.4880 C   0  0  0  0  0  0  0  0  0  0  0  0
   -0.3906   -1.4401    3.4223 C   0  0  0  0  0  0  0  0  0  0  0  0
    1.2961   -2.4561    1.9540 C   0  0  0  0  0  0  0  0  0  0  0  0
  1  8  1  0
  1 10  1  0
  2 10  2  0
  3 11  1  0
  3 14  1  0
  3 15  1  0
  4 13  1  0
  4 14  2  0
  5  6  1  0
  5  8  1  0
  5  7  1  1
  6 10  1  0
  6  9  1  1
  7 11  1  0
  9 12  1  0
 11 13  2  0
M  END
>  <DRUGBANK_ID>  (1) 
DB01085

>  <SECONDARY_ACCESSION_NUMBERS>  (1) 
APRD00382

>  <COMMON_NAME>  (1) 
Pilocarpine

>  <CAS_NUMBER>  (1) 
92-13-7

>  <UNII>  (1) 
01MI4Q9DI3

>  <SYNONYMS>  (1) 
2(3H)-FURANONE, 3-ETHYLDIHYDRO-4-((1-METHYL-1H-IMIDAZOL-5-YL)METHYL)-, (3S-CIS)-; OCUCARPINE; Pilocarpina; Pilocarpine; PILOKARPIN; SPERSACARPINE; SYNCARPINE

$$$$
