
     RDKit          3D

 16 15  0  0  1  0  0  0  0  0999 V2000
    0.9201   -0.1419   -0.0621 C   0  0  1  0  0  0  0  0  0  0  0  0
    0.5221    0.4372   -1.3474 N   0  0  0  0  0  0  0  0  0  0  0  0
    0.3982    0.7551    1.0775 C   0  0  0  0  0  0  0  0  0  0  0  0
    0.4264   -1.5988   -0.0603 C   0  0  0  0  0  0  0  0  0  0  0  0
    1.4647    1.0018   -2.1648 C   0  0  0  0  0  0  0  0  0  0  0  0
   -0.3961    0.0346    2.1685 C   0  0  0  0  0  0  0  0  0  0  0  0
    1.3924   -2.5319    0.1310 O   0  0  0  0  0  0  0  0  0  0  0  0
   -0.7484   -1.9159   -0.2008 O   0  0  0  0  0  0  0  0  0  0  0  0
    0.9722    1.6052   -3.4658 C   0  0  0  0  0  0  0  0  0  0  0  0
    2.6543    0.9720   -1.8689 O   0  0  0  0  0  0  0  0  0  0  0  0
    0.4083   -1.0295    2.9211 C   0  0  0  0  0  0  0  0  0  0  0  0
    1.1630    3.1189   -3.5594 C   0  0  0  0  0  0  0  0  0  0  0  0
    1.5483   -0.4542    3.6174 N   0  0  0  0  0  0  0  0  0  0  0  0
    2.5892    3.5958   -3.3630 C   0  0  0  0  0  0  0  0  0  0  0  0
    3.1482    4.1847   -4.4411 O   0  0  0  0  0  0  0  0  0  0  0  0
    3.1926    3.5381   -2.2991 O   0  0  0  0  0  0  0  0  0  0  0  0
  1  4  1  0
  1  3  1  1
  1  2  1  0
  2  5  1  0
  3  6  1  0
  4  7  1  0
  4  8  2  0
  5  9  1  0
  5 10  2  0
  6 11  1  0
  9 12  1  0
 11 13  1  0
 12 14  1  0
 14 15  1  0
 14 16  2  0
M  END
>  <DRUGBANK_ID>  (1) 
DB03582

>  <SECONDARY_ACCESSION_NUMBERS>  (1) 
EXPT02981

>  <COMMON_NAME>  (1) 
N~2~-Succinylornithine

$$$$
