
     RDKit          3D

 14 13  0  0  0  0  0  0  0  0999 V2000
    1.0706   -0.1006    0.1119 C   0  0  0  0  0  0  0  0  0  0  0  0
   -0.6580    1.6596   -0.5614 C   0  0  0  0  0  0  0  0  0  0  0  0
    0.2347    1.1074    0.5799 C   0  0  0  0  0  0  0  0  0  0  0  0
    0.5492   -1.1682   -0.2016 O   0  0  0  0  0  0  0  0  0  0  0  0
    2.4247    0.0175    0.0269 N   0  0  0  0  0  0  0  0  0  0  0  0
   -0.4610    0.7962    1.7803 O   0  0  0  0  0  0  0  0  0  0  0  0
   -1.6939    0.6389   -1.0733 C   0  0  0  0  0  0  0  0  0  0  0  0
    4.1323    0.6308    1.6835 C   0  0  0  0  0  0  0  0  0  0  0  0
   -1.3989    2.9051   -0.0337 C   0  0  0  0  0  0  0  0  0  0  0  0
    0.2368    2.0995   -1.7446 C   0  0  0  0  0  0  0  0  0  0  0  0
   -2.6249    0.2662   -0.0680 O   0  0  0  0  0  0  0  0  0  0  0  0
    5.9943    0.0926    0.2361 O   0  0  0  0  0  0  0  0  0  0  0  0
    3.2600    1.0924    0.5268 C   0  0  0  0  0  0  0  0  0  0  0  0
    5.1417   -0.4199    1.2511 C   0  0  0  0  0  0  0  0  0  0  0  0
  2  3  1  0
  3  1  1  0
  3  6  1  0
  4  1  2  0
  5  1  1  0
  7  2  1  0
  8 13  1  0
  9  2  1  0
 10  2  1  0
 11  7  1  0
 12 14  1  0
 13  5  1  0
 14  8  1  0
M  END
>  <DRUGBANK_ID>  (1) 
DB11204

>  <COMMON_NAME>  (1) 
Panthenol

>  <CAS_NUMBER>  (1) 
16485-10-2

>  <UNII>  (1) 
WV9CM0O67Z

>  <SYNONYMS>  (1) 
DL-panthenol; DL-Pantothenol; Pantenol; Panthenol; Panthenolum

$$$$
