
     RDKit          3D

 25 27  0  0  0  0  0  0  0  0999 V2000
    1.7737   -0.5694   -0.2727 C   0  0  0  0  0  0  0  0  0  0  0  0
    0.8649   -1.0876    0.6155 N   0  0  0  0  0  0  0  0  0  0  0  0
   -0.2518    0.0251    2.1269 C   0  0  0  0  0  0  0  0  0  0  0  0
   -0.0305    1.3075    2.8763 C   0  0  0  0  0  0  0  0  0  0  0  0
   -0.7256    1.4242    4.1606 C   0  0  0  0  0  0  0  0  0  0  0  0
   -0.1541    0.5553    5.2794 C   0  0  0  0  0  0  0  0  0  0  0  0
   -0.2696   -0.8218    4.9817 C   0  0  0  0  0  0  0  0  0  0  0  0
    0.2919   -1.1500    3.7369 C   0  0  0  0  0  0  0  0  0  0  0  0
    1.2171   -2.6782    0.5437 C   0  0  0  0  0  0  0  0  0  0  0  0
    2.1471   -3.2720   -0.7333 S   0  0  0  0  0  0  0  0  0  0  0  0
    0.5676   -3.6875    1.4375 N   0  0  0  0  0  0  0  0  0  0  0  0
   -0.6729   -3.7802    2.2890 N   0  0  0  0  0  0  0  0  0  0  0  0
   -1.2024   -2.6305    2.5380 C   0  0  0  0  0  0  0  0  0  0  0  0
   -0.3134   -1.6945    1.7954 C   0  0  0  0  0  0  0  0  0  0  0  0
   -1.1765   -1.0975    0.3494 C   0  0  0  0  0  0  0  0  0  0  0  0
   -0.6419    0.3640   -0.5243 C   0  0  0  0  0  0  0  0  0  0  0  0
    0.6045    1.5385    0.0302 C   0  0  0  0  0  0  0  0  0  0  0  0
    1.5863    0.9837    1.4031 C   0  0  0  0  0  0  0  0  0  0  0  0
    1.3370   -0.6411    2.2382 N   0  0  0  0  0  0  0  0  0  0  0  0
   -2.2620   -2.2848    3.8157 C   0  0  0  0  0  0  0  0  0  0  0  0
   -3.0504   -1.1281    3.7115 N   0  0  0  0  0  0  0  0  0  0  0  0
   -3.5749   -0.5940    4.9024 C   0  0  0  0  0  0  0  0  0  0  0  0
   -3.3105   -1.0754    6.2058 C   0  0  0  0  0  0  0  0  0  0  0  0
   -2.4069   -2.1295    6.3716 C   0  0  0  0  0  0  0  0  0  0  0  0
   -1.9216   -2.7861    5.1793 C   0  0  0  0  0  0  0  0  0  0  0  0
  1  2  1  0
  2  3  1  0
  2  9  1  0
  3  4  1  0
  3  8  1  0
  4  5  1  0
  5  6  1  0
  6  7  1  0
  7  8  1  0
  9 10  2  0
  9 11  1  0
 11 12  1  0
 12 13  2  3
 13 14  1  0
 13 20  1  0
 14 15  2  0
 14 19  1  0
 15 16  1  0
 16 17  2  0
 17 18  1  0
 18 19  2  0
 20 21  2  0
 20 25  1  0
 21 22  1  0
 22 23  2  0
 23 24  1  0
 24 25  2  0
M  END
>  <DRUGBANK_ID>  (1) 
DB15235

>  <COMMON_NAME>  (1) 
Di-2-pyridylketone 4-cyclohexyl-4-methyl-3-thiosemicarbazone

>  <CAS_NUMBER>  (1) 
1382469-39-7

>  <UNII>  (1) 
6068Z4Y7QI

>  <SYNONYMS>  (1) 
DP4CYCH4MT

$$$$
