
     RDKit          3D

 25 27  0  0  1  0  0  0  0  0999 V2000
    1.0599   -0.0035   -0.1849 C   0  0  0  0  0  0  0  0  0  0  0  0
    0.6582   -1.1139   -0.9762 O   0  0  0  0  0  0  0  0  0  0  0  0
    0.9659   -1.0768   -2.3179 C   0  0  0  0  0  0  0  0  0  0  0  0
    2.3064   -0.8631   -2.7709 C   0  0  0  0  0  0  0  0  0  0  0  0
    2.6992   -1.0142   -4.1334 C   0  0  0  0  0  0  0  0  0  0  0  0
    1.6944   -1.4456   -5.0016 C   0  0  0  0  0  0  0  0  0  0  0  0
    0.3647   -1.7073   -4.5663 C   0  0  0  0  0  0  0  0  0  0  0  0
   -0.0350   -1.4531   -3.2294 C   0  0  0  0  0  0  0  0  0  0  0  0
   -1.3810   -1.6087   -2.9550 O   0  0  0  0  0  0  0  0  0  0  0  0
   -1.9094   -1.1646   -1.7035 C   0  0  0  0  0  0  0  0  0  0  0  0
   -0.5946   -2.2296   -5.4153 O   0  0  0  0  0  0  0  0  0  0  0  0
   -0.1207   -2.6969   -6.6770 C   0  0  0  0  0  0  0  0  0  0  0  0
    4.1296   -0.6295   -4.6753 C   0  0  0  0  0  0  0  0  0  0  0  0
    4.9341   -1.5766   -5.6983 C   0  0  1  0  0  0  0  0  0  0  0  0
    5.1741   -1.4073   -7.2317 C   0  0  0  0  0  0  0  0  0  0  0  0
    5.5927   -0.3740   -8.0808 C   0  0  0  0  0  0  0  0  0  0  0  0
    5.2387   -0.4475   -9.4411 C   0  0  0  0  0  0  0  0  0  0  0  0
    4.6176   -1.6096   -9.9118 C   0  0  0  0  0  0  0  0  0  0  0  0
    4.7370   -2.7649   -9.1771 C   0  0  0  0  0  0  0  0  0  0  0  0
    5.1741   -2.6690   -7.8642 C   0  0  0  0  0  0  0  0  0  0  0  0
    5.5785   -3.8414   -6.9969 C   0  0  0  0  0  0  0  0  0  0  0  0
    6.5136   -3.3899   -5.8104 C   0  0  0  0  0  0  0  0  0  0  0  0
    6.2070   -2.0847   -5.1564 N   0  0  0  0  0  0  0  0  0  0  0  0
    3.9198   -1.6086  -11.0799 O   0  0  0  0  0  0  0  0  0  0  0  0
    5.4156    0.5394  -10.3693 O   0  0  0  0  0  0  0  0  0  0  0  0
  1  2  1  0
  2  3  1  0
  3  4  2  0
  3  8  1  0
  4  5  1  0
  5  6  2  0
  5 13  1  0
  6  7  1  0
  7  8  2  0
  7 11  1  0
  8  9  1  0
  9 10  1  0
 11 12  1  0
 14 13  1  1
 14 15  1  0
 14 23  1  0
 15 16  2  0
 15 20  1  0
 16 17  1  0
 17 18  2  0
 17 25  1  0
 18 19  1  0
 18 24  1  0
 19 20  2  0
 20 21  1  0
 21 22  1  0
 22 23  1  0
M  END
>  <DRUGBANK_ID>  (1) 
DB13692

>  <COMMON_NAME>  (1) 
Tretoquinol

>  <CAS_NUMBER>  (1) 
30418-38-3

>  <UNII>  (1) 
JIO3275WGI

>  <SYNONYMS>  (1) 
Tretoquinol

$$$$
