
     RDKit          3D

 27 29  0  0  0  0  0  0  0  0999 V2000
   -2.5527   -0.0061    0.0023 C   0  0  0  0  0  0  0  0  0  0  0  0
   -1.0681    0.0089    0.0089 C   0  0  0  0  0  0  0  0  0  0  0  0
   -0.3191   -1.1466    0.0098 C   0  0  0  0  0  0  0  0  0  0  0  0
    1.0230   -1.1519   -0.0078 N   0  0  0  0  0  0  0  0  0  0  0  0
    1.6266    0.0623   -0.0219 C   0  0  0  0  0  0  0  0  0  0  0  0
    3.1351    0.1034   -0.1133 C   0  0  0  0  0  0  0  0  0  0  0  0
    3.6829    0.7872   -1.3487 N   0  0  0  0  0  0  0  0  0  0  0  0
    5.1870    0.6367   -1.5428 C   0  0  0  0  0  0  0  0  0  0  0  0
    5.6031   -0.8432   -1.2484 C   0  0  0  0  0  0  0  0  0  0  0  0
    4.3567   -1.3883   -1.5604 F   0  0  0  0  0  0  0  0  0  0  0  0
    6.2742   -2.1410   -1.7418 C   0  0  0  0  0  0  0  0  0  0  0  0
    5.7159   -3.2752   -0.7501 C   0  0  0  0  0  0  0  0  0  0  0  0
    6.1446   -3.0165    0.6349 N   0  0  0  0  0  0  0  0  0  0  0  0
    5.6767   -1.7632    1.1565 C   0  0  0  0  0  0  0  0  0  0  0  0
    6.1001   -0.6805    0.2234 C   0  0  0  0  0  0  0  0  0  0  0  0
    6.8850   -3.8204    1.4798 C   0  0  0  0  0  0  0  0  0  0  0  0
    7.2092   -3.4898    2.6333 O   0  0  0  0  0  0  0  0  0  0  0  0
    7.3518   -5.1293    1.0136 C   0  0  0  0  0  0  0  0  0  0  0  0
    8.1309   -5.2000   -0.1457 C   0  0  0  0  0  0  0  0  0  0  0  0
    8.5867   -6.4330   -0.5958 C   0  0  0  0  0  0  0  0  0  0  0  0
    8.2937   -7.5808    0.1347 C   0  0  0  0  0  0  0  0  0  0  0  0
    8.7516   -8.7566   -0.3178 F   0  0  0  0  0  0  0  0  0  0  0  0
    7.5466   -7.5096    1.3124 C   0  0  0  0  0  0  0  0  0  0  0  0
    7.1961   -8.9394    2.2049 Cl  0  0  0  0  0  0  0  0  0  0  0  0
    7.0753   -6.2782    1.7651 C   0  0  0  0  0  0  0  0  0  0  0  0
    0.9892    1.2398    0.0152 N   0  0  0  0  0  0  0  0  0  0  0  0
   -0.3475    1.1846    0.0139 C   0  0  0  0  0  0  0  0  0  0  0  0
  1  2  1  0
  2  3  2  0
  2 27  1  0
  3  4  1  0
  4  5  2  0
  5  6  1  0
  5 26  1  0
  6  7  1  0
  7  8  1  0
  8  9  1  0
  9 10  1  0
  9 11  1  0
  9 15  1  0
 11 12  1  0
 12 13  1  0
 13 14  1  0
 13 16  1  0
 14 15  1  0
 16 17  2  0
 16 18  1  0
 18 19  2  0
 18 25  1  0
 19 20  1  0
 20 21  2  0
 21 22  1  0
 21 23  1  0
 23 24  1  0
 23 25  2  0
 26 27  2  0
M  END
>  <DRUGBANK_ID>  (1) 
DB16936

>  <COMMON_NAME>  (1) 
F-15599

>  <CAS_NUMBER>  (1) 
635323-95-4

>  <UNII>  (1) 
83481Y1YCX

>  <SYNONYMS>  (1) 
(3-chloro-4-fluorophenyl)-(4-fluoro-4-(((5-methylpyrimidin-2-ylmethyl)amino)methyl)piperidin-1-yl)methanone; 3-chloro-4-fluorophenyl-(4-fluoro-4-(((5-methylpyrimidin-2-ylmethyl)amino)methyl)piperidin-1yl)methanone; 3-Chloro-4-Fluorophenyl-[4-Fluoro-4-[[(5-Methylpyrimidin-2-ylmethyl)Amino]Methyl]Piperidin-1yl]Methanone; 4-piperidinemethanamine, 1-(3-chloro-4-fluorobenzoyl)-4-fluoro-n-((5-methyl-2-pyrimidinyl)methyl)-; F15599; Methanone, (3-chloro-4-fluorophenyl)(4-fluoro-4-((((5-methyl-2-pyrimidinyl)methyl)amino)methyl)-1-piperidinyl)-; NLX-101; NLX101

$$$$
