
     RDKit          3D

 24 28  0  0  0  0  0  0  0  0999 V2000
   -0.2181   -0.0594   -0.6976 C   0  0  0  0  0  0  0  0  0  0  0  0
    0.1112   -1.0851    0.1904 N   0  0  0  0  0  0  0  0  0  0  0  0
    1.1681   -0.6472    1.0097 N   0  0  0  0  0  0  0  0  0  0  0  0
    1.3227    0.6310    0.5579 C   0  0  0  0  0  0  0  0  0  0  0  0
    1.1530    0.3057   -0.7111 C   0  0  0  0  0  0  0  0  0  0  0  0
    2.5552    0.4826   -1.7358 C   0  0  0  0  0  0  0  0  0  0  0  0
    2.2942    1.7505    0.4662 C   0  0  0  0  0  0  0  0  0  0  0  0
    2.0023    2.5481   -1.1828 C   0  0  1  0  0  0  0  0  0  0  0  0
    1.8937    1.4895   -2.5380 C   0  0  1  0  0  0  0  0  0  0  0  0
    2.1141    2.2943   -3.8205 C   0  0  2  0  0  0  0  0  0  0  0  0
    0.7912    3.4561   -1.3241 C   0  0  0  0  0  0  0  0  0  0  0  0
    0.6853    4.1325   -2.7880 C   0  0  0  0  0  0  0  0  0  0  0  0
    0.7029    3.0686   -4.0392 C   0  0  1  0  0  0  0  0  0  0  0  0
    2.4350    2.1503   -6.2089 C   0  0  0  0  0  0  0  0  0  0  0  0
    2.5200    1.3874   -4.9608 C   0  0  0  0  0  0  0  0  0  0  0  0
   -0.0348    3.2885   -5.7389 C   0  0  1  0  0  0  0  0  0  0  0  0
    0.8976    3.9709   -7.4970 C   0  0  2  0  0  0  0  0  0  0  0  0
    1.0041    2.6366   -6.3262 C   0  0  1  0  0  0  0  0  0  0  0  0
   -0.2593    2.5236   -7.5748 C   0  0  0  0  0  0  0  0  0  0  0  0
    0.8097    3.0391   -8.5890 C   0  0  0  0  0  0  0  0  0  0  0  0
    0.9135    0.2701   -3.0360 C   0  0  0  0  0  0  0  0  0  0  0  0
   -0.2342    1.3098   -5.8057 C   0  0  0  0  0  0  0  0  0  0  0  0
    2.0151    4.8105   -7.5170 O   0  0  0  0  0  0  0  0  0  0  0  0
   -0.5630    4.8678   -7.6649 C   0  0  0  0  0  0  0  0  0  0  0  0
  1  2  1  0
  1  5  2  0
  2  3  1  0
  3  4  2  0
  4  7  1  0
  5  4  1  0
  6  5  1  0
  6  9  1  0
  8  7  1  1
  8 11  1  0
  9  8  1  0
  9 21  1  6
 10  9  1  0
 10 13  1  0
 11 12  1  0
 13 12  1  6
 13 16  1  0
 14 15  1  0
 14 18  1  0
 10 15  1  6
 16 19  1  6
 17 18  1  0
 17 20  1  0
 17 24  1  1
 17 23  1  0
 18 16  1  0
 18 22  1  6
 19 20  1  0
M  END
>  <DRUGBANK_ID>  (1) 
DB06718

>  <COMMON_NAME>  (1) 
Stanozolol

>  <CAS_NUMBER>  (1) 
10418-03-8

>  <UNII>  (1) 
4R1VB9P8V3

>  <SYNONYMS>  (1) 
Androstanazol; Androstanazole; Estanozolol; Stanozolol

$$$$
