768
     RDKit          3D

 25 27  0  0  0  0  0  0  0  0999 V2000
   -0.7743    1.6980   -0.8260 O   0  0  0  0  0  0  0  0  0  0  0  0
   -4.3325   -4.5553    0.3669 O   0  0  0  0  0  0  0  0  0  0  0  0
   -5.2818   -2.8979   -0.8147 O   0  0  0  0  0  0  0  0  0  0  0  0
   -0.1896   -2.1436   -5.1979 N   0  0  0  0  0  0  0  0  0  0  0  0
   -0.0159   -0.9912   -0.9458 C   0  0  0  0  0  0  0  0  0  0  0  0
   -1.2702   -0.5838   -0.3456 C   0  0  0  0  0  0  0  0  0  0  0  0
    1.2839   -0.5367   -0.4116 C   0  0  0  0  0  0  0  0  0  0  0  0
    1.4623    0.7871    0.0348 C   0  0  0  0  0  0  0  0  0  0  0  0
   -1.6078    0.7590   -0.2835 C   0  0  0  0  0  0  0  0  0  0  0  0
   -1.2321   -2.2657   -2.8519 C   0  0  0  0  0  0  0  0  0  0  0  0
   -0.0620   -1.8019   -2.0146 C   0  0  0  0  0  0  0  0  0  0  0  0
    0.3979    1.8786   -0.0150 C   0  0  0  0  0  0  0  0  0  0  0  0
   -1.2747   -1.6990   -4.2919 C   0  0  0  0  0  0  0  0  0  0  0  0
   -2.0964   -1.5685    0.1992 C   0  0  0  0  0  0  0  0  0  0  0  0
   -3.3163   -1.2194    0.7608 C   0  0  0  0  0  0  0  0  0  0  0  0
    2.3327   -1.4654   -0.2725 C   0  0  0  0  0  0  0  0  0  0  0  0
   -2.8237    1.1263    0.2672 C   0  0  0  0  0  0  0  0  0  0  0  0
    2.6929    1.1297    0.6300 C   0  0  0  0  0  0  0  0  0  0  0  0
   -3.6710    0.1385    0.7952 C   0  0  0  0  0  0  0  0  0  0  0  0
   -4.2125   -2.3130    1.2778 C   0  0  0  0  0  0  0  0  0  0  0  0
    3.5430   -1.1030    0.3053 C   0  0  0  0  0  0  0  0  0  0  0  0
    3.7203    0.1943    0.7645 C   0  0  0  0  0  0  0  0  0  0  0  0
   -0.4002   -1.6035   -6.5403 C   0  0  0  0  0  0  0  0  0  0  0  0
    1.1317   -1.7035   -4.7587 C   0  0  0  0  0  0  0  0  0  0  0  0
   -4.6670   -3.2550    0.1740 C   0  0  0  0  0  0  0  0  0  0  0  0
  1  9  1  0
  1 12  1  0
  2 25  1  0
  3 25  2  0
  4 13  1  0
  4 23  1  0
  4 24  1  0
  5  6  1  0
  5  7  1  0
  5 11  2  0
  6  9  2  0
  6 14  1  0
  7  8  2  0
  7 16  1  0
  8 12  1  0
  8 18  1  0
  9 17  1  0
 10 11  1  0
 10 13  1  0
 14 15  2  0
 15 19  1  0
 15 20  1  0
 16 21  2  0
 17 19  2  0
 18 22  2  0
 20 25  1  0
 21 22  1  0
M  END
>  <DRUGBANK_ID>  (1) 
DB00768

>  <SECONDARY_ACCESSION_NUMBERS>  (1) 
APRD00310

>  <COMMON_NAME>  (1) 
Olopatadine

>  <CAS_NUMBER>  (1) 
113806-05-6

>  <UNII>  (1) 
D27V6190PM

>  <SYNONYMS>  (1) 
Olopatadin; Olopatadina; Olopatadine; Olopatadinum

$$$$
