
     RDKit          3D

 26 27  0  0  0  0  0  0  0  0999 V2000
    1.1390   -0.0285   -0.1036 C   0  0  0  0  0  0  0  0  0  0  0  0
    1.1981    1.5687    1.7629 C   0  0  0  0  0  0  0  0  0  0  0  0
   -2.1126    3.3869    0.7727 C   0  0  0  0  0  0  0  0  0  0  0  0
   -3.7708   -0.5616   -0.3022 C   0  0  0  0  0  0  0  0  0  0  0  0
   -3.1525    2.7264    1.4619 C   0  0  0  0  0  0  0  0  0  0  0  0
   -0.9215   -0.4538    5.4928 C   0  0  0  0  0  0  0  0  0  0  0  0
    1.3566   -0.9151    5.9615 C   0  0  0  0  0  0  0  0  0  0  0  0
   -0.5696   -0.5068    4.1471 C   0  0  0  0  0  0  0  0  0  0  0  0
    1.6801   -0.9557    4.5815 C   0  0  0  0  0  0  0  0  0  0  0  0
   -1.0045    3.7071    1.4909 C   0  0  0  0  0  0  0  0  0  0  0  0
   -3.4848   -1.4355    0.8799 C   0  0  0  0  0  0  0  0  0  0  0  0
   -2.9424    0.6463   -0.1181 C   0  0  0  0  0  0  0  0  0  0  0  0
   -1.7181    2.3179    3.2292 C   0  0  0  0  0  0  0  0  0  0  0  0
   -2.8536    1.8893    2.5676 C   0  0  0  0  0  0  0  0  0  0  0  0
    0.0626   -0.6446    6.4126 C   0  0  0  0  0  0  0  0  0  0  0  0
    0.7141   -0.7084    3.6247 C   0  0  0  0  0  0  0  0  0  0  0  0
   -3.5649    0.5111    2.9857 C   0  0  0  0  0  0  0  0  0  0  0  0
   -0.8403    0.0672    1.0869 C   0  0  0  0  0  0  0  0  0  0  0  0
    0.6337    0.2402    1.3184 C   0  0  0  0  0  0  0  0  0  0  0  0
   -0.3438   -0.5412    8.0731 Cl  0  0  0  0  0  0  0  0  0  0  0  0
   -0.8487    3.2724    2.7546 N   0  0  0  0  0  0  0  0  0  0  0  0
   -3.8833    0.4762    4.1797 O   0  0  0  0  0  0  0  0  0  0  0  0
   -1.3889   -0.7931    1.7853 O   0  0  0  0  0  0  0  0  0  0  0  0
   -3.7686   -0.6869    2.2461 O   0  0  0  0  0  0  0  0  0  0  0  0
   -1.4917    0.6674    0.0660 O   0  0  0  0  0  0  0  0  0  0  0  0
    1.1128   -0.7622    2.2908 O   0  0  0  0  0  0  0  0  0  0  0  0
  5  3  2  0
  8  6  2  0
  9  7  1  0
 10  3  1  0
 11  4  1  0
 12  4  1  0
 14  5  1  0
 14 13  2  0
 15  6  1  0
 15  7  2  0
 16  8  1  0
 16  9  2  0
 17 14  1  0
 19  1  1  0
 19  2  1  0
 19 18  1  0
 20 15  1  0
 21 10  2  0
 21 13  1  0
 22 17  2  0
 23 18  2  0
 24 11  1  0
 24 17  1  0
 25 12  1  0
 25 18  1  0
 26 16  1  0
 26 19  1  0
M  END
>  <DRUGBANK_ID>  (1) 
DB13460

>  <COMMON_NAME>  (1) 
Ronifibrate

>  <CAS_NUMBER>  (1) 
42597-57-9

>  <UNII>  (1) 
W86I18X716

>  <SYNONYMS>  (1) 
Ronifibrate

$$$$
