
     RDKit          3D

 29 32  0  0  0  0  0  0  0  0999 V2000
    1.8747    0.3890   -0.7870 C   0  0  0  0  0  0  0  0  0  0  0  0
    0.5185    0.0091   -0.4079 C   0  0  0  0  0  0  0  0  0  0  0  0
   -0.1469   -1.1752   -0.1135 C   0  0  0  0  0  0  0  0  0  0  0  0
   -1.5194   -0.7277    0.0088 C   0  0  0  0  0  0  0  0  0  0  0  0
   -1.5138    0.6477   -0.0006 C   0  0  0  0  0  0  0  0  0  0  0  0
   -0.2660    1.0963   -0.2150 O   0  0  0  0  0  0  0  0  0  0  0  0
    0.3046   -2.5963   -0.0247 C   0  0  0  0  0  0  0  0  0  0  0  0
   -0.5354   -3.4841   -0.0260 O   0  0  0  0  0  0  0  0  0  0  0  0
    1.6453   -3.0047    0.0027 N   0  0  0  0  0  0  0  0  0  0  0  0
    2.8024   -2.3012    0.2933 C   0  0  0  0  0  0  0  0  0  0  0  0
    3.9096   -2.3937   -0.4726 N   0  0  0  0  0  0  0  0  0  0  0  0
    4.6313   -1.2496   -0.1756 N   0  0  0  0  0  0  0  0  0  0  0  0
    5.7598   -0.8051   -1.0616 C   0  0  0  0  0  0  0  0  0  0  0  0
    5.6165    0.5276   -1.8191 C   0  0  0  0  0  0  0  0  0  0  0  0
    5.4354    1.7347   -1.1452 C   0  0  0  0  0  0  0  0  0  0  0  0
    5.0342    2.9108   -1.7627 C   0  0  0  0  0  0  0  0  0  0  0  0
    5.1143    3.0118   -3.1390 C   0  0  0  0  0  0  0  0  0  0  0  0
    5.6180    1.9118   -3.8452 C   0  0  0  0  0  0  0  0  0  0  0  0
    5.7991    0.6626   -3.2047 C   0  0  0  0  0  0  0  0  0  0  0  0
    4.6725    4.2937   -3.7876 C   0  0  0  0  0  0  0  0  0  0  0  0
    3.3440    4.5286   -3.5916 F   0  0  0  0  0  0  0  0  0  0  0  0
    5.3163    5.3841   -3.2844 F   0  0  0  0  0  0  0  0  0  0  0  0
    4.8677    4.3227   -5.1317 F   0  0  0  0  0  0  0  0  0  0  0  0
    4.1306   -0.6189    0.9646 C   0  0  0  0  0  0  0  0  0  0  0  0
    4.4549    0.5751    1.6322 C   0  0  0  0  0  0  0  0  0  0  0  0
    3.4850    1.2104    2.4152 C   0  0  0  0  0  0  0  0  0  0  0  0
    2.3034    0.5645    2.7302 C   0  0  0  0  0  0  0  0  0  0  0  0
    2.0601   -0.7224    2.2417 C   0  0  0  0  0  0  0  0  0  0  0  0
    2.9400   -1.2849    1.2810 C   0  0  0  0  0  0  0  0  0  0  0  0
  1  2  1  0
  2  3  2  0
  2  6  1  0
  3  4  1  0
  3  7  1  0
  4  5  2  0
  5  6  1  0
  7  8  2  0
  7  9  1  0
  9 10  1  0
 10 11  2  0
 10 29  1  0
 11 12  1  0
 12 13  1  0
 12 24  1  0
 13 14  1  0
 14 15  2  0
 14 19  1  0
 15 16  1  0
 16 17  2  0
 17 18  1  0
 17 20  1  0
 18 19  2  0
 20 21  1  0
 20 22  1  0
 20 23  1  0
 24 25  1  0
 24 29  2  0
 25 26  2  0
 26 27  1  0
 27 28  2  0
 28 29  1  0
M  END
>  <DRUGBANK_ID>  (1) 
DB14995

>  <COMMON_NAME>  (1) 
NP-G2-044

>  <CAS_NUMBER>  (1) 
1807454-59-6

>  <UNII>  (1) 
1ER2O3UZ4W

$$$$
