
     RDKit          3D

  1  0  0  0  0  0  0  0  0  0999 V2000
    1.0006    0.0683    0.0730 Nb  0  0  0  0  0 15  0  0  0  0  0  0
M  END
>  <DRUGBANK_ID>  (1) 
DB13031

>  <COMMON_NAME>  (1) 
Niobium

>  <CAS_NUMBER>  (1) 
7440-03-1

>  <UNII>  (1) 
05175J654G

>  <SYNONYMS>  (1) 
columbio; Nb; niobio

$$$$
