
     RDKit          3D

 10  9  0  0  0  0  0  0  0  0999 V2000
    1.0918   -0.0020   -0.2712 N   0  0  0  0  0  0  0  0  0  0  0  0
    0.6716   -1.3405    0.1291 C   0  0  0  0  0  0  0  0  0  0  0  0
    1.1591   -1.6670    1.5423 C   0  0  0  0  0  0  0  0  0  0  0  0
    0.5828   -0.7197    2.6027 C   0  0  0  0  0  0  0  0  0  0  0  0
   -0.9489   -0.7617    2.6411 C   0  0  0  0  0  0  0  0  0  0  0  0
   -1.4703   -2.1590    2.9941 C   0  0  0  0  0  0  0  0  0  0  0  0
   -1.0027   -2.6059    4.3840 C   0  0  0  0  0  0  0  0  0  0  0  0
   -1.5186   -1.6791    5.4927 C   0  0  0  0  0  0  0  0  0  0  0  0
   -3.0468   -1.6046    5.5408 C   0  0  0  0  0  0  0  0  0  0  0  0
   -3.6113   -2.9214    5.8141 N   0  0  0  0  0  0  0  0  0  0  0  0
  1  2  1  0
  2  3  1  0
  3  4  1  0
  4  5  1  0
  5  6  1  0
  6  7  1  0
  7  8  1  0
  8  9  1  0
  9 10  1  0
M  END
>  <DRUGBANK_ID>  (1) 
DB04333

>  <SECONDARY_ACCESSION_NUMBERS>  (1) 
EXPT01201

>  <COMMON_NAME>  (1) 
Octamethylenediamine

>  <CAS_NUMBER>  (1) 
373-44-4

>  <UNII>  (1) 
53A6694PIE

>  <SYNONYMS>  (1) 
1,8-Diaminooctane; 1,8-Octamethylenediamine; 1,8-Octanediamine; 1,8-Octylenediamine

$$$$
