801
     RDKit          3D

 24 26  0  0  0  0  0  0  0  0999 V2000
    0.9598    0.0681   -0.0456 Cl  0  0  0  0  0  0  0  0  0  0  0  0
    9.4085   -1.5181   -0.9094 F   0  0  0  0  0  0  0  0  0  0  0  0
    8.8291   -3.1276    0.4267 F   0  0  0  0  0  0  0  0  0  0  0  0
    7.5378   -2.5828   -1.2400 F   0  0  0  0  0  0  0  0  0  0  0  0
    8.9939    0.8859   -0.4923 O   0  0  0  0  0  0  0  0  0  0  0  0
    6.9226    0.0028   -0.0434 N   0  0  0  0  0  0  0  0  0  0  0  0
    6.4796    3.0162   -0.4594 N   0  0  0  0  0  0  0  0  0  0  0  0
    5.4982    0.0730   -0.0736 C   0  0  0  0  0  0  0  0  0  0  0  0
    4.7803    1.2819    0.0190 C   0  0  0  0  0  0  0  0  0  0  0  0
    7.5798   -1.1323    0.6338 C   0  0  0  0  0  0  0  0  0  0  0  0
    5.4371    2.6144    0.1834 C   0  0  0  0  0  0  0  0  0  0  0  0
    7.7632    0.9662   -0.5955 C   0  0  0  0  0  0  0  0  0  0  0  0
    7.1250    2.0916   -1.3856 C   0  0  0  0  0  0  0  0  0  0  0  0
    4.7637   -1.1252   -0.1730 C   0  0  0  0  0  0  0  0  0  0  0  0
    3.3720    1.2673    0.0323 C   0  0  0  0  0  0  0  0  0  0  0  0
    4.8489    3.5530    1.1802 C   0  0  0  0  0  0  0  0  0  0  0  0
    8.3575   -2.0757   -0.2864 C   0  0  0  0  0  0  0  0  0  0  0  0
    3.3674   -1.1301   -0.1735 C   0  0  0  0  0  0  0  0  0  0  0  0
    2.6775    0.0672   -0.0624 C   0  0  0  0  0  0  0  0  0  0  0  0
    4.5035    4.8568    0.8132 C   0  0  0  0  0  0  0  0  0  0  0  0
    4.6417    3.1066    2.4891 C   0  0  0  0  0  0  0  0  0  0  0  0
    4.0174    5.7353    1.7838 C   0  0  0  0  0  0  0  0  0  0  0  0
    4.0635    3.9589    3.4261 C   0  0  0  0  0  0  0  0  0  0  0  0
    3.7974    5.2852    3.0873 C   0  0  0  0  0  0  0  0  0  0  0  0
  1 19  1  0
  2 17  1  0
  3 17  1  0
  4 17  1  0
  5 12  2  0
  6  8  1  0
  6 10  1  0
  6 12  1  0
  7 11  2  0
  7 13  1  0
  8  9  2  0
  8 14  1  0
  9 11  1  0
  9 15  1  0
 10 17  1  0
 11 16  1  0
 12 13  1  0
 14 18  2  0
 15 19  2  0
 16 20  2  0
 16 21  1  0
 18 19  1  0
 20 22  1  0
 21 23  2  0
 22 24  2  0
 23 24  1  0
M  END
>  <DRUGBANK_ID>  (1) 
DB00801

>  <SECONDARY_ACCESSION_NUMBERS>  (1) 
APRD01009

>  <COMMON_NAME>  (1) 
Halazepam

>  <CAS_NUMBER>  (1) 
23092-17-3

>  <UNII>  (1) 
320YC168LF

>  <SYNONYMS>  (1) 
Halaz√©pam; Halazepam; Halazepamum

$$$$
