
     RDKit          3D

 12 12  0  0  0  0  0  0  0  0999 V2000
    1.1346    1.1249   -0.0074 C   0  0  0  0  0  0  0  0  0  0  0  0
   -0.2555    1.6648    0.3592 C   0  0  0  0  0  0  0  0  0  0  0  0
    1.0236   -0.6954   -0.0516 S   0  0  0  0  0  0  0  0  0  0  0  0
    1.6221    1.6848   -1.3520 C   0  0  0  0  0  0  0  0  0  0  0  0
   -1.3262    0.8943   -0.3977 C   0  0  0  0  0  0  0  0  0  0  0  0
   -1.0196   -0.8313    0.0230 S   0  0  0  0  0  0  0  0  0  0  0  0
    1.7568    3.2172   -1.3077 C   0  0  0  0  0  0  0  0  0  0  0  0
    2.7787    3.6900   -0.2651 C   0  0  0  0  0  0  0  0  0  0  0  0
    4.1831    3.1460   -0.5276 C   0  0  0  0  0  0  0  0  0  0  0  0
    4.7021    3.6030   -1.8743 C   0  0  0  0  0  0  0  0  0  0  0  0
    5.7990    4.3967   -1.8531 N   0  0  0  0  0  0  0  0  0  0  0  0
    4.1840    3.3144   -2.9512 O   0  0  0  0  0  0  0  0  0  0  0  0
  1  2  1  0
  1  3  1  0
  1  4  1  0
  2  5  1  0
  3  6  1  0
  4  7  1  0
  5  6  1  0
  7  8  1  0
  8  9  1  0
  9 10  1  0
 10 11  1  0
 10 12  2  0
M  END
>  <DRUGBANK_ID>  (1) 
DB15963

>  <COMMON_NAME>  (1) 
Thioctamide

>  <CAS_NUMBER>  (1) 
940-69-2

>  <UNII>  (1) 
Q1GT04827L

>  <SYNONYMS>  (1) 
Lipoamide; Thioctic acid amide

$$$$
