
     RDKit          3D

 10 11  0  0  0  0  0  0  0  0999 V2000
    1.8732   -0.1605    0.6264 C   0  0  0  0  0  0  0  0  0  0  0  0
   -1.9734    0.2029    0.4574 C   0  0  0  0  0  0  0  0  0  0  0  0
    0.8975   -1.3257    0.4509 C   0  0  2  0  0  0  0  0  0  0  0  0
   -0.8325    1.2124    0.4748 C   0  0  1  0  0  0  0  0  0  0  0  0
   -0.1388   -0.8054   -0.5511 C   0  0  2  0  0  0  0  0  0  0  0  0
    0.1084    0.6854   -0.6023 C   0  0  2  0  0  0  0  0  0  0  0  0
    0.3613   -1.7654    1.6967 O   0  0  0  0  0  0  0  0  0  0  0  0
   -1.2660    2.5467    0.2476 O   0  0  0  0  0  0  0  0  0  0  0  0
    1.4878    0.8819   -0.2843 O   0  0  0  0  0  0  0  0  0  0  0  0
   -1.4980   -1.0025   -0.1582 O   0  0  0  0  0  0  0  0  0  0  0  0
  3  1  1  0
  3  7  1  1
  4  2  1  0
  4  8  1  6
  5  3  1  0
  6  4  1  0
  6  5  1  0
  9  1  1  0
  6  9  1  1
 10  2  1  0
  5 10  1  1
M  END
>  <DRUGBANK_ID>  (1) 
DB09401

>  <SECONDARY_ACCESSION_NUMBERS>  (1) 
DB05707

>  <COMMON_NAME>  (1) 
Isosorbide

>  <CAS_NUMBER>  (1) 
652-67-5

>  <UNII>  (1) 
WXR179L51S

>  <SYNONYMS>  (1) 
Isosorbide

$$$$
