
     RDKit          3D

 30 33  0  0  0  0  0  0  0  0999 V2000
    0.8474    0.1581   -0.0539 O   0  0  0  0  0  0  0  0  0  0  0  0
    0.2697    1.1316    0.6799 C   0  0  0  0  0  0  0  0  0  0  0  0
    0.9162    1.9388    1.3182 O   0  0  0  0  0  0  0  0  0  0  0  0
   -1.2079    0.9672    0.7067 C   0  0  0  0  0  0  0  0  0  0  0  0
   -1.6825   -0.3329    0.7479 C   0  0  0  0  0  0  0  0  0  0  0  0
   -2.9983   -0.6384    1.0745 C   0  0  0  0  0  0  0  0  0  0  0  0
   -3.3817   -2.0460    0.9189 C   0  0  0  0  0  0  0  0  0  0  0  0
   -4.5601   -2.2133    0.2978 O   0  0  0  0  0  0  0  0  0  0  0  0
   -2.6758   -2.9556    1.2892 O   0  0  0  0  0  0  0  0  0  0  0  0
   -3.8688    0.2877    1.6176 C   0  0  0  0  0  0  0  0  0  0  0  0
   -3.4700    1.6730    1.3339 C   0  0  0  0  0  0  0  0  0  0  0  0
   -2.1305    2.0000    0.8553 C   0  0  0  0  0  0  0  0  0  0  0  0
   -5.0542   -0.5360    2.3838 C   0  0  0  0  0  0  0  0  0  0  0  0
   -4.8162   -1.3884    3.6221 C   0  0  0  0  0  0  0  0  0  0  0  0
   -4.8125   -2.9767    4.3186 C   0  0  0  0  0  0  0  0  0  0  0  0
   -5.3412   -3.2577    5.5721 C   0  0  0  0  0  0  0  0  0  0  0  0
   -5.2940   -4.4608    6.2188 F   0  0  0  0  0  0  0  0  0  0  0  0
   -6.0443   -2.2155    6.3391 C   0  0  0  0  0  0  0  0  0  0  0  0
   -6.7542   -2.4187    7.3520 O   0  0  0  0  0  0  0  0  0  0  0  0
   -5.9169   -0.8572    5.7740 C   0  0  0  0  0  0  0  0  0  0  0  0
   -5.9393   -0.8836    4.4401 C   0  0  0  0  0  0  0  0  0  0  0  0
   -7.1952   -0.9308    3.8529 O   0  0  0  0  0  0  0  0  0  0  0  0
   -7.2174   -1.3081    2.5468 C   0  0  0  0  0  0  0  0  0  0  0  0
   -7.2896   -2.6309    2.1362 C   0  0  0  0  0  0  0  0  0  0  0  0
   -7.5824   -2.9130    0.8196 C   0  0  0  0  0  0  0  0  0  0  0  0
   -7.8914   -4.1891    0.4719 O   0  0  0  0  0  0  0  0  0  0  0  0
   -7.5966   -1.8608   -0.0733 C   0  0  0  0  0  0  0  0  0  0  0  0
   -8.0713   -2.0328   -1.3175 F   0  0  0  0  0  0  0  0  0  0  0  0
   -7.0410   -0.6212    0.3421 C   0  0  0  0  0  0  0  0  0  0  0  0
   -6.5952   -0.4503    1.6989 C   0  0  0  0  0  0  0  0  0  0  0  0
  1  2  1  0
  2  3  2  0
  2  4  1  0
  4  5  2  0
  4 12  1  0
  5  6  1  0
  6  7  1  0
  6 10  2  0
  7  8  1  0
  7  9  2  0
 10 11  1  0
 10 13  1  0
 11 12  2  0
 13 14  2  0
 13 30  1  0
 14 15  1  0
 14 21  1  0
 15 16  2  0
 16 17  1  0
 16 18  1  0
 18 19  2  0
 18 20  1  0
 20 21  2  0
 21 22  1  0
 22 23  1  0
 23 24  1  0
 23 30  2  0
 24 25  2  0
 25 26  1  0
 25 27  1  0
 27 28  1  0
 27 29  2  0
 29 30  1  0
M  END
>  <DRUGBANK_ID>  (1) 
DB04750

>  <COMMON_NAME>  (1) 
OREGON GREEN 488 CARBOXYLATE

$$$$
