
     RDKit          3D

  4  3  0  0  0  0  0  0  0  0999 V2000
    0.9906    0.0080   -0.0804 C   0  0  0  0  0  0  0  0  0  0  0  0
    0.5058   -1.0920   -0.9820 C   0  0  0  0  0  0  0  0  0  0  0  0
   -0.2724   -2.0438   -0.3986 N   0  0  0  0  0  0  0  0  0  0  0  0
    0.7831   -1.1477   -2.1749 O   0  0  0  0  0  0  0  0  0  0  0  0
  1  2  1  0
  2  3  1  0
  2  4  2  0
M  END
>  <DRUGBANK_ID>  (1) 
DB02736

>  <SECONDARY_ACCESSION_NUMBERS>  (1) 
EXPT00414

>  <COMMON_NAME>  (1) 
Acetamide

>  <CAS_NUMBER>  (1) 
60-35-5

>  <UNII>  (1) 
8XOE1JSO29

$$$$
