
     RDKit          3D

 14 15  0  0  0  0  0  0  0  0999 V2000
    1.4360    1.7292   -0.0013 N   0  0  0  0  0  0  0  0  0  0  0  0
    2.6664    1.1446   -0.0168 C   0  0  0  0  0  0  0  0  0  0  0  0
    2.8673   -0.2343    0.0041 C   0  0  0  0  0  0  0  0  0  0  0  0
    1.8102   -1.0824    0.0165 N   0  0  0  0  0  0  0  0  0  0  0  0
    0.5758   -0.4958    0.0141 C   0  0  0  0  0  0  0  0  0  0  0  0
    0.3795    0.8817    0.0155 C   0  0  0  0  0  0  0  0  0  0  0  0
   -0.9107    1.3991    0.0304 N   0  0  0  0  0  0  0  0  0  0  0  0
   -1.9656    0.5537    0.0069 C   0  0  0  0  0  0  0  0  0  0  0  0
   -1.8987   -0.7380   -0.0097 N   0  0  0  0  0  0  0  0  0  0  0  0
   -0.6535   -1.3422    0.0016 C   0  0  0  0  0  0  0  0  0  0  0  0
   -0.5380   -2.5659   -0.0029 O   0  0  0  0  0  0  0  0  0  0  0  0
   -3.1776    1.1429    0.0038 N   0  0  0  0  0  0  0  0  0  0  0  0
    4.2647   -0.8105   -0.0148 C   0  0  0  0  0  0  0  0  0  0  0  0
    4.5713   -1.5736    1.1480 O   0  0  0  0  0  0  0  0  0  0  0  0
  1  2  2  0
  2  3  1  0
  3  4  2  0
  3 13  1  0
  4  5  1  0
  5  6  2  0
  6  1  1  0
  6  7  1  0
  7  8  1  0
  8  9  2  0
  8 12  1  0
  9 10  1  0
 10  5  1  0
 10 11  2  0
 13 14  1  0
M  END
>  <DRUGBANK_ID>  (1) 
DB03197

>  <SECONDARY_ACCESSION_NUMBERS>  (1) 
EXPT01747

>  <COMMON_NAME>  (1) 
6-Hydroxymethylpterin

>  <CAS_NUMBER>  (1) 
712-29-8

>  <UNII>  (1) 
7O0I7Z5A0Y

>  <SYNONYMS>  (1) 
2-Amino-4-hydroxy-6-hydroxymethyl-pteridine; 6-(Hydroxymethyl)pterin; Pterin-6-methanol; Rana-pterin 3; Ranachrome 3

$$$$
