1138
     RDKit          3D

 29 32  0  0  1  0  0  0  0  0999 V2000
    0.9389   -0.1795   -0.2214 S   0  0  0  0  0  0  0  0  0  0  0  0
    2.7854    0.9459    1.2560 O   0  0  0  0  0  0  0  0  0  0  0  0
    3.2307    5.0426    1.7918 O   0  0  0  0  0  0  0  0  0  0  0  0
    0.7422   -0.9733    1.0430 O   0  0  0  0  0  0  0  0  0  0  0  0
    2.3595    2.7674   -0.6910 N   0  0  0  0  0  0  0  0  0  0  0  0
    2.9812    3.9762   -0.3071 N   0  0  0  0  0  0  0  0  0  0  0  0
    2.0842    2.9486    1.6550 C   0  0  0  0  0  0  0  0  0  0  0  0
    0.6103    2.4946    1.5119 C   0  0  0  0  0  0  0  0  0  0  0  0
    2.5424    2.0012    0.7006 C   0  0  0  0  0  0  0  0  0  0  0  0
    2.8218    4.1531    1.0937 C   0  0  0  0  0  0  0  0  0  0  0  0
    0.1623    1.6547    0.2446 C   0  0  0  0  0  0  0  0  0  0  0  0
    2.2801    2.2534   -2.2022 C   0  0  0  0  0  0  0  0  0  0  0  0
    3.5780    4.9229   -1.1564 C   0  0  0  0  0  0  0  0  0  0  0  0
    3.2777    2.4341   -3.2048 C   0  0  0  0  0  0  0  0  0  0  0  0
    2.8133    5.4024   -2.2180 C   0  0  0  0  0  0  0  0  0  0  0  0
    1.1358    1.5951   -2.7211 C   0  0  0  0  0  0  0  0  0  0  0  0
    4.8425    5.4888   -0.9214 C   0  0  0  0  0  0  0  0  0  0  0  0
    3.0693   -0.2978   -0.6413 C   0  0  0  0  0  0  0  0  0  0  0  0
    3.0966    2.0236   -4.5673 C   0  0  0  0  0  0  0  0  0  0  0  0
    3.2551    6.4714   -2.9917 C   0  0  0  0  0  0  0  0  0  0  0  0
    0.9675    1.1382   -4.0451 C   0  0  0  0  0  0  0  0  0  0  0  0
    5.2760    6.5820   -1.6896 C   0  0  0  0  0  0  0  0  0  0  0  0
    1.9276    1.4021   -4.9909 C   0  0  0  0  0  0  0  0  0  0  0  0
    4.4828    7.0682   -2.7274 C   0  0  0  0  0  0  0  0  0  0  0  0
    4.0934    0.7486   -0.7475 C   0  0  0  0  0  0  0  0  0  0  0  0
    3.6060   -1.4897   -0.2062 C   0  0  0  0  0  0  0  0  0  0  0  0
    5.3457    0.7826   -0.1383 C   0  0  0  0  0  0  0  0  0  0  0  0
    4.9690   -1.5209    0.2150 C   0  0  0  0  0  0  0  0  0  0  0  0
    5.8227   -0.4020    0.2808 C   0  0  0  0  0  0  0  0  0  0  0  0
  1  4  2  0
  1 11  1  0
  1 18  1  0
  2  9  2  0
  3 10  2  0
  5  6  1  0
  5  9  1  0
  5 12  1  0
  6 10  1  0
  6 13  1  0
  7  8  1  0
  7  9  1  0
  7 10  1  0
  8 11  1  0
 12 14  2  0
 12 16  1  0
 13 15  2  0
 13 17  1  0
 14 19  1  0
 15 20  1  0
 16 21  2  0
 17 22  2  0
 18 25  2  0
 18 26  1  0
 19 23  2  0
 20 24  2  0
 21 23  1  0
 22 24  1  0
 25 27  1  0
 26 28  2  0
 27 29  2  0
 28 29  1  0
M  END
>  <DRUGBANK_ID>  (1) 
DB01138

>  <SECONDARY_ACCESSION_NUMBERS>  (1) 
APRD00620

>  <COMMON_NAME>  (1) 
Sulfinpyrazone

>  <CAS_NUMBER>  (1) 
57-96-5

>  <UNII>  (1) 
V6OFU47K3W

>  <SYNONYMS>  (1) 
1,2-Diphenyl-3,5-dioxo-4-(2-phenylsulfinylethyl)pyrazolidine; 1,2-Diphenyl-4-(2'-phenylsulfinethyl)-3,5-pyrazolidinedione; 4-(2-Benzenesulfinylethyl)-1,2-diphenylpyrazolidine-3,5-dione; Sulfinpyrazone; Sulfoxyphenylpyrazolidine; Sulphinpyrazone

$$$$
