
     RDKit          3D

 19 19  0  0  0  0  0  0  0  0999 V2000
    1.3346    0.0342   -0.2727 C   0  0  0  0  0  0  0  0  0  0  0  0
    0.7368   -1.3651   -0.2081 C   0  0  0  0  0  0  0  0  0  0  0  0
    1.5917   -2.1367    0.8121 C   0  0  0  0  0  0  0  0  0  0  0  0
   -0.7355   -1.3469   -0.0382 N   0  0  0  0  0  0  0  0  0  0  0  0
   -1.3279   -2.7244   -0.1630 C   0  0  0  0  0  0  0  0  0  0  0  0
   -1.1056   -3.8426    0.9452 C   0  0  0  0  0  0  0  0  0  0  0  0
   -1.5439   -3.5886    2.3426 N   0  0  0  0  0  0  0  0  0  0  0  0
   -2.3865   -4.1740    3.1885 C   0  0  0  0  0  0  0  0  0  0  0  0
   -2.7137   -3.5799    4.2348 O   0  0  0  0  0  0  0  0  0  0  0  0
   -2.8610   -5.4882    2.7744 C   0  0  0  0  0  0  0  0  0  0  0  0
   -3.5326   -5.3519    1.4817 N   0  0  0  0  0  0  0  0  0  0  0  0
   -3.8115   -6.5197    0.7218 C   0  0  0  0  0  0  0  0  0  0  0  0
   -4.1466   -5.9891   -0.6521 C   0  0  0  0  0  0  0  0  0  0  0  0
   -4.6713   -4.5825   -0.4142 C   0  0  0  0  0  0  0  0  0  0  0  0
   -4.0558   -4.1930    0.8954 C   0  0  0  0  0  0  0  0  0  0  0  0
   -4.0219   -3.0414    1.2974 O   0  0  0  0  0  0  0  0  0  0  0  0
   -1.3238   -0.5489    1.0803 C   0  0  0  0  0  0  0  0  0  0  0  0
   -0.7610   -0.9663    2.4162 C   0  0  0  0  0  0  0  0  0  0  0  0
   -1.1463    0.9591    1.1655 C   0  0  0  0  0  0  0  0  0  0  0  0
  1  2  1  0
  2  3  1  0
  2  4  1  0
  4  5  1  0
  4 17  1  0
  5  6  1  0
  6  7  1  0
  7  8  1  0
  8  9  2  0
  8 10  1  0
 10 11  1  0
 11 12  1  0
 11 15  1  0
 12 13  1  0
 13 14  1  0
 14 15  1  0
 15 16  2  0
 17 18  1  0
 17 19  1  0
M  END
>  <DRUGBANK_ID>  (1) 
DB13247

>  <COMMON_NAME>  (1) 
Pramiracetam

>  <CAS_NUMBER>  (1) 
68497-62-1

>  <UNII>  (1) 
4449F8I3LE

>  <SYNONYMS>  (1) 
Pramiracetam

$$$$
