2,4-Dihydroxybenzoic acid
     RDKit          3D

 11 11  0  0  0  0  0  0  0  0999 V2000
    0.8279   -0.0308    0.1662 O   0  0  0  0  0  0  0  0  0  0  0  0
    0.2739    1.1869   -0.0019 C   0  0  0  0  0  0  0  0  0  0  0  0
    0.9514    2.1857   -0.1665 O   0  0  0  0  0  0  0  0  0  0  0  0
   -1.2033    1.1223    0.0077 C   0  0  0  0  0  0  0  0  0  0  0  0
   -1.9077    0.3079    0.9023 C   0  0  0  0  0  0  0  0  0  0  0  0
   -1.3007   -0.4741    1.8478 O   0  0  0  0  0  0  0  0  0  0  0  0
   -3.3030    0.2938    0.8917 C   0  0  0  0  0  0  0  0  0  0  0  0
   -3.9993    1.1016   -0.0025 C   0  0  0  0  0  0  0  0  0  0  0  0
   -5.3623    1.0510    0.0263 O   0  0  0  0  0  0  0  0  0  0  0  0
   -3.3181    1.9348   -0.8850 C   0  0  0  0  0  0  0  0  0  0  0  0
   -1.9166    1.9460   -0.8786 C   0  0  0  0  0  0  0  0  0  0  0  0
  1  2  1  0
  2  3  2  0
  2  4  1  0
  4  5  2  0
  4 11  1  0
  5  6  1  0
  5  7  1  0
  7  8  2  0
  8  9  1  0
  8 10  1  0
 10 11  2  0
M  END
>  <DRUGBANK_ID>  (1) 
DB02839

>  <SECONDARY_ACCESSION_NUMBERS>  (1) 
EXPT01241

>  <COMMON_NAME>  (1) 
2,4-Dihydroxybenzoic Acid

>  <CAS_NUMBER>  (1) 
89-86-1

>  <UNII>  (1) 
LU39SC9JYL

$$$$
