
     RDKit          3D

 36 40  0  0  0  0  0  0  0  0999 V2000
    1.5707   -0.6232   -0.5290 C   0  0  2  0  0  0  0  0  0  0  0  0
    1.5683    0.8584   -0.1851 C   0  0  2  0  0  0  0  0  0  0  0  0
    0.2577    1.6173   -0.3909 C   0  0  0  0  0  0  0  0  0  0  0  0
   -1.0105    0.7920   -0.7543 C   0  0  1  0  0  0  0  0  0  0  0  0
   -0.9697   -0.5836   -0.1165 C   0  0  2  0  0  0  0  0  0  0  0  0
    0.3129   -1.3916   -0.1339 C   0  0  2  0  0  0  0  0  0  0  0  0
   -2.1745    1.5142   -0.0405 C   0  0  0  0  0  0  0  0  0  0  0  0
   -3.4752    0.7162    0.0946 C   0  0  1  0  0  0  0  0  0  0  0  0
   -3.2776   -0.7097    0.6495 C   0  0  0  0  0  0  0  0  0  0  0  0
   -2.2393   -1.4447   -0.1877 C   0  0  0  0  0  0  0  0  0  0  0  0
    0.4035   -1.7598    1.3212 C   0  0  0  0  0  0  0  0  0  0  0  0
   -4.3751    1.4512    0.9598 N   0  0  0  0  0  0  0  0  0  0  0  0
   -4.7707    2.7316    0.6987 C   0  0  0  0  0  0  0  0  0  0  0  0
   -5.7405    3.2499    1.4755 O   0  0  0  0  0  0  0  0  0  0  0  0
   -4.2842    3.4319   -0.2107 O   0  0  0  0  0  0  0  0  0  0  0  0
   -6.4790    2.4822    2.4367 C   0  0  0  0  0  0  0  0  0  0  0  0
   -7.2227    1.3171    1.8026 C   0  0  0  0  0  0  0  0  0  0  0  0
    0.3735   -2.9920    1.8187 C   0  0  0  0  0  0  0  0  0  0  0  0
    0.4711   -3.1667    3.2537 C   0  0  0  0  0  0  0  0  0  0  0  0
   -0.2498   -2.3689    4.1421 C   0  0  0  0  0  0  0  0  0  0  0  0
   -0.1208   -2.6079    5.5010 C   0  0  0  0  0  0  0  0  0  0  0  0
    0.7240   -3.6284    5.9383 C   0  0  0  0  0  0  0  0  0  0  0  0
    1.4067   -4.3568    4.9619 C   0  0  0  0  0  0  0  0  0  0  0  0
    1.2966   -4.1546    3.6345 N   0  0  0  0  0  0  0  0  0  0  0  0
    0.8691   -3.9510    7.3525 C   0  0  0  0  0  0  0  0  0  0  0  0
   -0.2455   -4.3210    8.1175 C   0  0  0  0  0  0  0  0  0  0  0  0
   -0.0815   -4.6966    9.4442 C   0  0  0  0  0  0  0  0  0  0  0  0
    1.1744   -4.6992   10.0384 C   0  0  0  0  0  0  0  0  0  0  0  0
    2.2869   -4.3074    9.2980 C   0  0  0  0  0  0  0  0  0  0  0  0
    2.1342   -3.9355    7.9623 C   0  0  0  0  0  0  0  0  0  0  0  0
   -1.1512   -5.0738   10.1560 F   0  0  0  0  0  0  0  0  0  0  0  0
    2.8247   -1.1250    0.1993 C   0  0  2  0  0  0  0  0  0  0  0  0
    3.7099    0.0009    0.2505 O   0  0  0  0  0  0  0  0  0  0  0  0
    3.0411    1.1741   -0.0375 C   0  0  0  0  0  0  0  0  0  0  0  0
    3.5039   -2.2998   -0.4741 C   0  0  0  0  0  0  0  0  0  0  0  0
    3.5513    2.2727    0.1032 O   0  0  0  0  0  0  0  0  0  0  0  0
  1  2  1  0
  1  6  1  0
  1 32  1  1
  2  3  1  6
  2 34  1  0
  4  3  1  1
  4  5  1  0
  4  7  1  0
  5  6  1  0
  5 10  1  6
  6 11  1  1
  7  8  1  0
  8  9  1  0
  8 12  1  1
  9 10  1  0
 11 18  2  0
 12 13  1  0
 13 14  1  0
 13 15  2  0
 14 16  1  0
 16 17  1  0
 18 19  1  0
 19 20  2  0
 19 24  1  0
 20 21  1  0
 21 22  2  0
 22 23  1  0
 22 25  1  0
 23 24  2  0
 25 26  2  0
 25 30  1  0
 26 27  1  0
 27 28  2  0
 27 31  1  0
 28 29  1  0
 29 30  2  0
 32 33  1  0
 32 35  1  6
 33 34  1  0
 34 36  2  0
M  END
>  <DRUGBANK_ID>  (1) 
DB09030

>  <SECONDARY_ACCESSION_NUMBERS>  (1) 
DB05692

>  <COMMON_NAME>  (1) 
Vorapaxar

>  <CAS_NUMBER>  (1) 
618385-01-6

>  <UNII>  (1) 
ZCE93644N2

>  <SYNONYMS>  (1) 
[(1R,3aR,4aR,6R,8aR,9S,9aS)-9-{(E)-2-[5-(3-Fluorophényl)-2-pyridinyl]vinyl}-1-méthyl-3-oxododécahydronaphto[2,3-c]furan-6-yl]carbamate d'éthyle; Carbamic acid, [(1R,3aR,4aR,6R,8aR,9S,9aS)-9-[(1E)-2-[5-(3-fluorophenyl)-2- pyridinyl]ethenyl]dodecahydro-1-methyl-3-oxonaphtho[2,3-c]furan-6-yl]-, ethyl ester; Carbamic acid, N-[(1R,3aR,4aR,6R,8aR,9S,9aS)-9-[(E)-2-[5-(3-fluorophenyl)-2-pyridinyl]ethenyl]dodecahydro-1-methyl-3-oxonaphtho[2,3-c]furan-6-yl]-, ethyl ester; Ethyl N-[(3R,3aS,4S,4aR,7R,8aR,9aR)-4-[(E)-2-[5-(3-fluorophenyl)-2-pyridyl]vinyl]-3-methyl-1-oxo-3a,4,4a,5,6,7,8,8a,9,9a-decahydro-3H-benzo[f]isobenzofuran-7-yl]carbamate; Vorapaxar

$$$$
