
     RDKit          3D

 24 23  0  0  0  0  0  0  0  0999 V2000
    1.1098    0.1057   -0.0159 C   0  0  0  0  0  0  0  0  0  0  0  0
    0.6534   -0.1290   -1.4383 C   0  0  0  0  0  0  0  0  0  0  0  0
    1.0518   -1.4959   -1.9124 C   0  0  0  0  0  0  0  0  0  0  0  0
    0.1778   -2.4481   -2.2569 C   0  0  0  0  0  0  0  0  0  0  0  0
   -1.2950   -2.2614   -2.1802 C   0  0  0  0  0  0  0  0  0  0  0  0
   -1.9465   -2.4881   -3.5009 C   0  0  0  0  0  0  0  0  0  0  0  0
   -2.9360   -3.3682   -3.6655 C   0  0  0  0  0  0  0  0  0  0  0  0
   -3.4160   -4.2248   -2.5510 C   0  0  0  0  0  0  0  0  0  0  0  0
   -4.8734   -4.0523   -2.3159 C   0  0  0  0  0  0  0  0  0  0  0  0
   -5.7149   -5.0860   -2.3435 C   0  0  0  0  0  0  0  0  0  0  0  0
   -5.2512   -6.4588   -2.6687 C   0  0  0  0  0  0  0  0  0  0  0  0
   -5.5942   -7.4204   -1.5900 C   0  0  0  0  0  0  0  0  0  0  0  0
   -6.3107   -8.5174   -1.8347 C   0  0  0  0  0  0  0  0  0  0  0  0
   -6.8516   -8.8084   -3.1869 C   0  0  0  0  0  0  0  0  0  0  0  0
   -6.4009  -10.1353   -3.6765 C   0  0  0  0  0  0  0  0  0  0  0  0
   -7.2711  -11.0792   -4.0355 C   0  0  0  0  0  0  0  0  0  0  0  0
   -8.7423  -10.8816   -3.9265 C   0  0  0  0  0  0  0  0  0  0  0  0
   -9.3893  -11.0923   -5.2402 C   0  0  0  0  0  0  0  0  0  0  0  0
  -10.3307  -12.0148   -5.4405 C   0  0  0  0  0  0  0  0  0  0  0  0
  -10.8973  -12.9148   -4.3773 C   0  0  0  0  0  0  0  0  0  0  0  0
  -12.3642  -12.6318   -4.1009 C   0  0  0  0  0  0  0  0  0  0  0  0
  -13.2283  -13.0117   -5.2639 C   0  0  0  0  0  0  0  0  0  0  0  0
  -14.0272  -13.9385   -5.2860 O   0  0  0  0  0  0  0  0  0  0  0  0
  -13.0456  -12.2360   -6.3473 O   0  0  0  0  0  0  0  0  0  0  0  0
  1  2  1  0
  2  3  1  0
  3  4  2  0
  4  5  1  0
  5  6  1  0
  6  7  2  0
  7  8  1  0
  8  9  1  0
  9 10  2  0
 10 11  1  0
 11 12  1  0
 12 13  2  0
 13 14  1  0
 14 15  1  0
 15 16  2  0
 16 17  1  0
 17 18  1  0
 18 19  2  0
 19 20  1  0
 20 21  1  0
 21 22  1  0
 22 23  2  0
 22 24  1  0
M  END
>  <DRUGBANK_ID>  (1) 
DB03756

>  <SECONDARY_ACCESSION_NUMBERS>  (1) 
EXPT01798; DB11070

>  <COMMON_NAME>  (1) 
Doconexent

>  <CAS_NUMBER>  (1) 
6217-54-5

>  <UNII>  (1) 
ZAD9OKH9JC

>  <SYNONYMS>  (1) 
(4Z,7Z,10Z,13Z,16Z,19Z)-Docosahexaenoic acid; 22:6-4, 7,10,13,16,19; 22:6(n-3); 4,7,10,13,16,19-docosahexaenoic acid; all-cis-4,7,10,13,16,19-docosahexaenoic acid; all-cis-DHA; cervonic acid; DHA; Doconexent; docosa-4,7,10,13,16,19-hexaenoic acid; Docosahexaenoic acid; Docosahexanoic Acid

$$$$
