
     RDKit          3D

 25 28  0  0  0  0  0  0  0  0999 V2000
    0.9380   -0.0136    0.0734 C   0  0  0  0  0  0  0  0  0  0  0  0
    0.4279   -0.1490    1.4661 C   0  0  0  0  0  0  0  0  0  0  0  0
    0.2594   -1.3105    2.0674 N   0  0  0  0  0  0  0  0  0  0  0  0
   -0.2348   -1.0434    3.3328 C   0  0  0  0  0  0  0  0  0  0  0  0
   -0.5495   -1.9655    4.3921 C   0  0  0  0  0  0  0  0  0  0  0  0
   -1.0093   -1.3951    5.5965 C   0  0  0  0  0  0  0  0  0  0  0  0
   -1.1622   -0.0237    5.7488 C   0  0  0  0  0  0  0  0  0  0  0  0
   -0.9084    0.8395    4.6926 C   0  0  0  0  0  0  0  0  0  0  0  0
   -0.3912    0.3357    3.5004 C   0  0  0  0  0  0  0  0  0  0  0  0
    0.0703    0.8793    2.3176 N   0  0  0  0  0  0  0  0  0  0  0  0
    0.1710    2.5148    1.8662 S   0  0  0  0  0  0  0  0  0  0  0  0
    1.5858    2.7495    1.6113 O   0  0  0  0  0  0  0  0  0  0  0  0
   -0.8106    2.6391    0.8097 O   0  0  0  0  0  0  0  0  0  0  0  0
   -0.3107    3.6048    3.1849 C   0  0  0  0  0  0  0  0  0  0  0  0
    0.3472    3.5934    4.4214 C   0  0  0  0  0  0  0  0  0  0  0  0
   -0.2141    4.2904    5.5001 C   0  0  0  0  0  0  0  0  0  0  0  0
   -1.2927    5.1501    5.2945 C   0  0  0  0  0  0  0  0  0  0  0  0
   -1.8216    5.3043    4.0150 C   0  0  0  0  0  0  0  0  0  0  0  0
   -1.3788    4.4859    2.9742 C   0  0  0  0  0  0  0  0  0  0  0  0
   -0.2284   -3.3245    4.3777 N   0  0  0  0  0  0  0  0  0  0  0  0
   -1.2059   -4.4127    4.5739 C   0  0  0  0  0  0  0  0  0  0  0  0
   -0.4393   -5.6756    5.0833 C   0  0  0  0  0  0  0  0  0  0  0  0
    0.7068   -6.0798    4.2279 N   0  0  0  0  0  0  0  0  0  0  0  0
    1.5925   -4.9081    4.0564 C   0  0  0  0  0  0  0  0  0  0  0  0
    0.8601   -3.6937    3.4698 C   0  0  0  0  0  0  0  0  0  0  0  0
  1  2  1  0
  2  3  2  0
  2 10  1  0
  3  4  1  0
  4  5  2  0
  4  9  1  0
  5  6  1  0
  5 20  1  0
  6  7  2  0
  7  8  1  0
  8  9  2  0
  9 10  1  0
 10 11  1  0
 11 12  2  0
 11 13  2  0
 11 14  1  0
 14 15  2  0
 14 19  1  0
 15 16  1  0
 16 17  2  0
 17 18  1  0
 18 19  2  0
 20 21  1  0
 20 25  1  0
 21 22  1  0
 22 23  1  0
 23 24  1  0
 24 25  1  0
M  END
>  <DRUGBANK_ID>  (1) 
DB16044

>  <COMMON_NAME>  (1) 
PF-05212377

>  <CAS_NUMBER>  (1) 
1226793-34-5

>  <UNII>  (1) 
4JEH3BL51N

$$$$
