
     RDKit          3D

 27 27  0  0  0  0  0  0  0  0999 V2000
   -1.4592    2.7702   -1.2619 C   0  0  2  0  0  0  0  0  0  0  0  0
    0.1144    3.0023   -1.2403 C   0  0  2  0  0  0  0  0  0  0  0  0
    0.2296    4.4446   -1.6632 C   0  0  0  0  0  0  0  0  0  0  0  0
   -1.0812    5.0434   -2.0471 C   0  0  0  0  0  0  0  0  0  0  0  0
   -2.0347    4.1971   -1.2362 C   0  0  1  0  0  0  0  0  0  0  0  0
    1.2977    5.0373   -1.7624 O   0  0  0  0  0  0  0  0  0  0  0  0
   -3.3543    4.2355   -1.7629 O   0  0  0  0  0  0  0  0  0  0  0  0
    1.0399    2.2435   -2.2526 C   0  0  0  0  0  0  0  0  0  0  0  0
    1.5286    0.9197   -1.7360 C   0  0  0  0  0  0  0  0  0  0  0  0
    0.3126    0.1123   -1.5315 C   0  0  0  0  0  0  0  0  0  0  0  0
   -0.6655   -0.0479   -2.7988 C   0  0  0  0  0  0  0  0  0  0  0  0
   -0.1220   -1.1445   -3.6648 C   0  0  0  0  0  0  0  0  0  0  0  0
   -0.6491   -2.3579   -3.9264 C   0  0  0  0  0  0  0  0  0  0  0  0
    0.2262   -3.3181   -4.6440 C   0  0  0  0  0  0  0  0  0  0  0  0
   -0.3494   -4.5307   -4.8262 O   0  0  0  0  0  0  0  0  0  0  0  0
   -2.1320    2.0211   -0.0796 C   0  0  0  0  0  0  0  0  0  0  0  0
   -2.1928    0.6893    0.0444 C   0  0  0  0  0  0  0  0  0  0  0  0
   -2.7037   -0.3190    1.0121 C   0  0  2  0  0  0  0  0  0  0  0  0
   -3.2326   -1.5510    0.2292 C   0  0  0  0  0  0  0  0  0  0  0  0
   -2.2362   -2.6552   -0.3060 C   0  0  2  0  0  0  0  0  0  0  0  0
   -1.5966   -3.6016    0.6764 C   0  0  0  0  0  0  0  0  0  0  0  0
   -2.6734   -4.1422    1.5386 C   0  0  0  0  0  0  0  0  0  0  0  0
   -3.7693   -4.7412    0.6529 C   0  0  0  0  0  0  0  0  0  0  0  0
   -3.2067   -5.8659   -0.2045 C   0  0  0  0  0  0  0  0  0  0  0  0
    1.3384   -3.0579   -5.0122 O   0  0  0  0  0  0  0  0  0  0  0  0
   -3.7787    0.2991    1.6893 O   0  0  0  0  0  0  0  0  0  0  0  0
   -0.9942   -2.1395   -0.8527 C   0  0  0  0  0  0  0  0  0  0  0  0
  1  2  1  0
  1  5  1  0
  1 16  1  1
  2  3  1  0
  2  8  1  6
  3  4  1  0
  3  6  2  0
  4  5  1  0
  5  7  1  6
  8  9  1  0
  9 10  1  0
 10 11  1  0
 11 12  1  0
 12 13  2  0
 13 14  1  0
 14 15  1  0
 14 25  2  0
 16 17  2  0
 18 26  1  6
 18 19  1  0
 18 17  1  0
 20 27  1  1
 20 21  1  0
 20 19  1  0
 21 22  1  0
 22 23  1  0
 23 24  1  0
M  END
>  <DRUGBANK_ID>  (1) 
DB09211

>  <COMMON_NAME>  (1) 
Limaprost

>  <CAS_NUMBER>  (1) 
74397-12-9

>  <UNII>  (1) 
L02U804092

>  <SYNONYMS>  (1) 
Limaprost; Limaprost alfadex

$$$$
