C95
     RDKit          3D

 22 24  0  0  0  0  0  0  0  0999 V2000
    1.0130    0.0108   -0.1121 O   0  0  0  0  0  0  0  0  0  0  0  0
    2.9660    1.1215    0.1365 O   0  0  0  0  0  0  0  0  0  0  0  0
    3.0389   -1.2260   -0.2692 C   0  0  0  0  0  0  0  0  0  0  0  0
    2.6339   -2.1180   -1.2669 C   0  0  0  0  0  0  0  0  0  0  0  0
    3.3722   -3.2855   -1.5133 C   0  0  0  0  0  0  0  0  0  0  0  0
    4.5141   -3.5960   -0.7562 C   0  0  0  0  0  0  0  0  0  0  0  0
    4.9257   -2.6805    0.2227 C   0  0  0  0  0  0  0  0  0  0  0  0
    4.1704   -1.5243    0.4983 C   0  0  0  0  0  0  0  0  0  0  0  0
    5.2776   -4.8089   -1.0507 C   0  0  0  0  0  0  0  0  0  0  0  0
    5.4480   -5.7419   -0.0580 O   0  0  0  0  0  0  0  0  0  0  0  0
    5.8642   -5.2611   -2.2081 C   0  0  0  0  0  0  0  0  0  0  0  0
    6.4247   -6.5220   -1.9122 C   0  0  0  0  0  0  0  0  0  0  0  0
    6.1796   -6.8105   -0.5740 C   0  0  0  0  0  0  0  0  0  0  0  0
    6.5540   -7.9746    0.1710 C   0  0  0  0  0  0  0  0  0  0  0  0
    7.8200   -8.4051    0.3031 C   0  0  0  0  0  0  0  0  0  0  0  0
    9.2720   -7.7032   -0.3267 S   0  0  0  0  0  0  0  0  0  0  0  0
   10.2779   -8.8147    0.5445 C   0  0  0  0  0  0  0  0  0  0  0  0
   11.5532   -8.7336    0.5951 N   0  0  0  0  0  0  0  0  0  0  0  0
    9.5417   -9.7550    1.1723 N   0  0  0  0  0  0  0  0  0  0  0  0
    2.2349    0.0037   -0.0533 C   0  0  0  0  0  0  0  0  0  0  0  0
    8.1816   -9.5923    1.1403 C   0  0  0  0  0  0  0  0  0  0  0  0
    7.3942  -10.2941    1.7528 O   0  0  0  0  0  0  0  0  0  0  0  0
  1 20  2  0
  2 20  1  0
  3  4  2  0
  3  8  1  0
  3 20  1  0
  4  5  1  0
  5  6  2  0
  6  7  1  0
  6  9  1  0
  7  8  2  0
  9 10  1  0
  9 11  2  0
 10 13  1  0
 11 12  1  0
 12 13  2  0
 13 14  1  0
 14 15  2  0
 15 16  1  0
 15 21  1  0
 16 17  1  0
 17 18  2  0
 17 19  1  0
 19 21  1  0
 21 22  2  0
M  END
>  <DRUGBANK_ID>  (1) 
DB07539

>  <COMMON_NAME>  (1) 
4-{5-[(Z)-(2-IMINO-4-OXO-1,3-THIAZOLIDIN-5-YLIDENE)METHYL]FURAN-2-YL}BENZOIC ACID

$$$$
