
     RDKit          3D

 20 20  0  0  0  0  0  0  0  0999 V2000
    1.0073   -0.1263    0.0399 C   0  0  0  0  0  0  0  0  0  0  0  0
    0.5675    1.3202    0.1988 C   0  0  0  0  0  0  0  0  0  0  0  0
    1.0604    2.1539   -0.9844 C   0  0  0  0  0  0  0  0  0  0  0  0
    0.5029    1.6106   -2.3062 C   0  0  0  0  0  0  0  0  0  0  0  0
   -1.0324    1.5620   -2.2712 C   0  0  0  0  0  0  0  0  0  0  0  0
   -1.5941    2.9555   -2.0550 C   0  0  0  0  0  0  0  0  0  0  0  0
   -1.1322    3.8484   -3.1828 C   0  0  0  0  0  0  0  0  0  0  0  0
   -1.5660    3.3135   -4.5649 C   0  0  0  0  0  0  0  0  0  0  0  0
   -3.0659    3.4614   -4.7237 C   0  0  0  0  0  0  0  0  0  0  0  0
   -3.5399    4.9021   -4.7614 C   0  0  0  0  0  0  0  0  0  0  0  0
   -2.7964    6.0314   -4.8560 C   0  0  0  0  0  0  0  0  0  0  0  0
   -1.3006    6.1768   -5.1015 C   0  0  0  0  0  0  0  0  0  0  0  0
   -3.4562    7.3544   -4.7322 C   0  0  0  0  0  0  0  0  0  0  0  0
   -2.7896    8.3807   -4.7047 O   0  0  0  0  0  0  0  0  0  0  0  0
   -4.9325    7.4133   -4.6404 C   0  0  0  0  0  0  0  0  0  0  0  0
   -5.5030    8.7982   -4.6015 C   0  0  0  0  0  0  0  0  0  0  0  0
   -5.6809    6.2996   -4.6139 C   0  0  0  0  0  0  0  0  0  0  0  0
   -7.1818    6.3148   -4.5446 C   0  0  0  0  0  0  0  0  0  0  0  0
   -5.0375    4.9640   -4.6723 C   0  0  0  0  0  0  0  0  0  0  0  0
   -5.7104    3.9447   -4.6819 O   0  0  0  0  0  0  0  0  0  0  0  0
  1  2  1  0
  2  3  1  0
  3  4  1  0
  4  5  1  0
  5  6  1  0
  6  7  1  0
  7  8  1  0
  8  9  1  0
  9 10  1  0
 10 11  2  0
 10 19  1  0
 11 12  1  0
 11 13  1  0
 13 14  2  0
 13 15  1  0
 15 16  1  0
 15 17  2  0
 17 18  1  0
 17 19  1  0
 19 20  2  0
M  END
>  <DRUGBANK_ID>  (1) 
DB18154

>  <COMMON_NAME>  (1) 
Utreloxastat

>  <CAS_NUMBER>  (1) 
1213269-96-5

>  <UNII>  (1) 
WW8KZK2PZT

>  <SYNONYMS>  (1) 
2,5-cyclohexadiene-1,4-dione, 2,3,5-trimethyl-6-nonyl-

$$$$
