
     RDKit          3D

 27 27  0  0  0  0  0  0  0  0999 V2000
    1.0931   -0.0269   -0.0248 P   0  0  0  0  0  0  0  0  0  0  0  0
    1.5754    5.7293   -0.1436 O   0  0  0  0  0  0  0  0  0  0  0  0
    1.4439    3.3526   -1.5336 O   0  0  0  0  0  0  0  0  0  0  0  0
   -0.7627    4.4729    0.8579 O   0  0  0  0  0  0  0  0  0  0  0  0
   -1.9470    1.6020    1.3555 O   0  0  0  0  0  0  0  0  0  0  0  0
    1.2058   -0.2821    1.5573 O   0  0  0  0  0  0  0  0  0  0  0  0
    1.0623    1.2525   -0.8841 O   0  0  0  0  0  0  0  0  0  0  0  0
    7.5419    1.7484    3.7585 O   0  0  0  0  0  0  0  0  0  0  0  0
   -0.4553   -0.0269   -0.0248 O   0  0  0  0  0  0  0  0  0  0  0  0
    6.8352    6.2130    3.5671 O   0  0  0  0  0  0  0  0  0  0  0  0
    3.2276    3.7448    2.7560 N   0  0  0  0  0  0  0  0  0  0  0  0
    5.2236    4.8298    2.8925 N   0  0  0  0  0  0  0  0  0  0  0  0
    7.2040    3.9801    3.6776 N   0  0  0  0  0  0  0  0  0  0  0  0
    2.1418    4.5366    0.4269 C   0  0  2  0  0  0  0  0  0  0  0  0
    1.2333    3.4285   -0.0634 C   0  0  1  0  0  0  0  0  0  0  0  0
    3.6318    0.7359    2.7532 C   0  0  0  0  0  0  0  0  0  0  0  0
    5.0914    0.9995    2.8805 C   0  0  0  0  0  0  0  0  0  0  0  0
    3.1767    1.4829    1.5307 C   0  0  0  0  0  0  0  0  0  0  0  0
    2.3290    4.6348    1.9738 C   0  0  0  0  0  0  0  0  0  0  0  0
    5.3915    2.5010    3.0409 C   0  0  0  0  0  0  0  0  0  0  0  0
   -0.2866    3.2246    0.3631 C   0  0  1  0  0  0  0  0  0  0  0  0
    3.7092    1.1446    0.1986 C   0  0  0  0  0  0  0  0  0  0  0  0
    4.6169    3.6316    2.8783 C   0  0  0  0  0  0  0  0  0  0  0  0
    2.9231   -0.0269   -0.0248 C   0  0  0  0  0  0  0  0  0  0  0  0
   -0.6504    2.2129    1.5078 C   0  0  0  0  0  0  0  0  0  0  0  0
    6.8016    2.6995    3.4961 C   0  0  0  0  0  0  0  0  0  0  0  0
    6.4610    5.0848    3.3797 C   0  0  0  0  0  0  0  0  0  0  0  0
  1  6  1  0
  1  7  1  0
  1  9  2  0
  1 24  1  0
  5 25  1  0
  8 26  2  0
 10 27  2  0
 11 19  1  0
 11 23  1  0
 12 23  1  0
 12 27  1  0
 13 26  1  0
 13 27  1  0
 14 19  1  0
 14 15  1  0
 14  2  1  1
 15 21  1  0
 15  3  1  6
 16 17  1  0
 16 18  1  0
 17 20  1  0
 18 22  1  0
 20 23  2  0
 20 26  1  0
 21 25  1  0
 21  4  1  1
 22 24  1  0
M  END
>  <DRUGBANK_ID>  (1) 
DB04266

>  <SECONDARY_ACCESSION_NUMBERS>  (1) 
EXPT01888

>  <COMMON_NAME>  (1) 
5-(6-D-ribitylamino-2,4-dihydroxypyrimidin-5-yl)-1-pentyl-phosphonic acid

$$$$
