19U
     RDKit          3D

 22 23  0  0  0  0  0  0  0  0999 V2000
   -1.0520    0.5517    0.1212 N   0  0  0  0  0  0  0  0  0  0  0  0
   -0.8530   -0.8478   -0.2153 C   0  0  0  0  0  0  0  0  0  0  0  0
    0.1775    2.1494   -1.3107 C   0  0  0  0  0  0  0  0  0  0  0  0
   -2.4251    2.4810    1.0065 C   0  0  1  0  0  0  0  0  0  0  0  0
   -4.9202    2.5922    0.2966 C   0  0  0  0  0  0  0  0  0  0  0  0
    0.4714    4.3917   -2.3227 C   0  0  0  0  0  0  0  0  0  0  0  0
   -1.8792    5.2071   -1.9743 C   0  0  0  0  0  0  0  0  0  0  0  0
   -2.4606    7.5369   -1.8290 C   0  0  0  0  0  0  0  0  0  0  0  0
   -3.5120    3.1442    0.1524 C   0  0  0  0  0  0  0  0  0  0  0  0
   -2.7399    2.6065    2.4427 N   0  0  0  0  0  0  0  0  0  0  0  0
   -2.2591    0.9858    0.6240 C   0  0  0  0  0  0  0  0  0  0  0  0
   -3.1982    0.1968    0.7764 O   0  0  0  0  0  0  0  0  0  0  0  0
    0.5736   -1.1025    0.2234 C   0  0  0  0  0  0  0  0  0  0  0  0
    1.2828    0.2002   -0.1449 C   0  0  0  0  0  0  0  0  0  0  0  0
    0.2066    1.3003   -0.0145 C   0  0  2  0  0  0  0  0  0  0  0  0
    0.4862    3.4886   -1.1772 N   0  0  0  0  0  0  0  0  0  0  0  0
   -0.5264    5.5113   -2.1512 C   0  0  0  0  0  0  0  0  0  0  0  0
   -0.1601    6.8591   -2.2257 C   0  0  0  0  0  0  0  0  0  0  0  0
   -1.1272    7.8599   -2.0756 C   0  0  0  0  0  0  0  0  0  0  0  0
   -2.8392    6.2009   -1.7774 C   0  0  0  0  0  0  0  0  0  0  0  0
   -0.1185    1.6569   -2.4026 O   0  0  0  0  0  0  0  0  0  0  0  0
   -0.6691    9.5137   -2.2053 Cl  0  0  0  0  0  0  0  0  0  0  0  0
  1  2  1  0
  1 11  1  0
  1 15  1  0
  2 13  1  0
  3 16  1  0
  3 21  2  0
  4  9  1  0
  4 10  1  1
  4 11  1  0
  5  9  1  0
  6 16  1  0
  6 17  1  0
  7 17  2  0
  7 20  1  0
  8 19  1  0
  8 20  2  0
 11 12  2  0
 13 14  1  0
 14 15  1  0
 15  3  1  6
 17 18  1  0
 18 19  2  0
 19 22  1  0
M  END
>  <DRUGBANK_ID>  (1) 
DB06878

>  <COMMON_NAME>  (1) 
1-[(2R)-2-aminobutanoyl]-N-(3-chlorobenzyl)-L-prolinamide

$$$$
