
     RDKit          3D

 31 35  0  0  1  0  0  0  0  0999 V2000
   -1.3525   -0.4597   -0.4710 C   0  0  2  0  0  0  0  0  0  0  0  0
   -1.9708    0.9314   -0.2386 C   0  0  0  0  0  0  0  0  0  0  0  0
   -3.2100    1.1342    0.2473 C   0  0  0  0  0  0  0  0  0  0  0  0
   -4.1638    0.0116    0.3990 C   0  0  0  0  0  0  0  0  0  0  0  0
   -3.7244   -1.3439   -0.0887 C   0  0  0  0  0  0  0  0  0  0  0  0
   -2.2394   -1.5433    0.2063 C   0  0  0  0  0  0  0  0  0  0  0  0
   -5.3025    0.2331    0.8028 O   0  0  0  0  0  0  0  0  0  0  0  0
   -1.1321    2.1247   -0.6289 C   0  0  0  0  0  0  0  0  0  0  0  0
    0.3173    2.0064   -0.1718 C   0  0  0  0  0  0  0  0  0  0  0  0
    0.9661    0.6533   -0.5985 C   0  0  1  0  0  0  0  0  0  0  0  0
    2.4491    0.5578   -0.2178 C   0  0  2  0  0  0  0  0  0  0  0  0
    3.5443    1.5307   -0.6919 C   0  0  0  0  0  0  0  0  0  0  0  0
    4.8959    0.8555   -0.2850 C   0  0  0  0  0  0  0  0  0  0  0  0
    4.5855   -0.5589    0.2621 C   0  0  1  0  0  0  0  0  0  0  0  0
    3.1327   -0.8366   -0.2536 C   0  0  1  0  0  0  0  0  0  0  0  0
    2.2870   -1.8535    0.5604 C   0  0  0  0  0  0  0  0  0  0  0  0
    0.8022   -1.8594    0.1355 C   0  0  0  0  0  0  0  0  0  0  0  0
    0.1154   -0.4677    0.1192 C   0  0  2  0  0  0  0  0  0  0  0  0
    3.2719   -1.2550   -1.7029 C   0  0  0  0  0  0  0  0  0  0  0  0
    5.6689   -1.5065    0.0940 O   0  0  0  0  0  0  0  0  0  0  0  0
    6.5062   -1.9270    1.0991 C   0  0  0  0  0  0  0  0  0  0  0  0
    7.4370   -2.7177    0.8086 O   0  0  0  0  0  0  0  0  0  0  0  0
    6.2888   -1.6078    2.5902 C   0  0  0  0  0  0  0  0  0  0  0  0
    6.4649   -0.1641    3.1293 C   0  0  0  0  0  0  0  0  0  0  0  0
    5.2768    0.7700    3.0582 C   0  0  0  0  0  0  0  0  0  0  0  0
    3.9902    0.2341    3.1688 C   0  0  0  0  0  0  0  0  0  0  0  0
    2.8951    0.9843    2.7903 C   0  0  0  0  0  0  0  0  0  0  0  0
    3.0586    2.3028    2.3477 C   0  0  0  0  0  0  0  0  0  0  0  0
    4.3109    2.8993    2.3763 C   0  0  0  0  0  0  0  0  0  0  0  0
    5.4214    2.1390    2.7571 C   0  0  0  0  0  0  0  0  0  0  0  0
   -1.2949   -0.7401   -1.9886 C   0  0  0  0  0  0  0  0  0  0  0  0
  1 31  1  6
  2  1  1  0
  3  2  2  0
  3  4  1  0
  4  5  1  0
  5  6  1  0
  6  1  1  0
  7  4  2  0
  8  2  1  0
  9  8  1  0
 10  9  1  1
 10 18  1  0
 11 10  1  0
 11 12  1  6
 13 12  1  0
 14 13  1  0
 14 15  1  0
 14 20  1  6
 15 16  1  0
 15 19  1  6
 15 11  1  0
 16 17  1  0
 18 17  1  6
 18  1  1  0
 21 20  1  0
 22 21  2  0
 23 21  1  0
 24 23  1  0
 25 24  1  0
 26 25  2  0
 27 26  1  0
 28 27  2  0
 28 29  1  0
 29 30  2  0
 30 25  1  0
M  END
>  <DRUGBANK_ID>  (1) 
DB16003

>  <COMMON_NAME>  (1) 
Testosterone phenylpropionate

>  <CAS_NUMBER>  (1) 
1255-49-8

>  <UNII>  (1) 
8GN84GWX51

$$$$
