LT3
     RDKit          3D

 16 18  0  0  0  0  0  0  0  0999 V2000
    1.2673    1.1456    0.3268 C   0  0  2  0  0  0  0  0  0  0  0  0
    3.1685    0.0279    1.6212 N   0  0  0  0  0  0  0  0  0  0  0  0
    1.9740   -0.7813   -0.9854 C   0  0  0  0  0  0  0  0  0  0  0  0
   -1.3541   -1.4212    0.0179 C   0  0  0  0  0  0  0  0  0  0  0  0
   -2.5380   -0.6802   -0.1474 C   0  0  0  0  0  0  0  0  0  0  0  0
   -0.1789    0.7144    0.1746 C   0  0  0  0  0  0  0  0  0  0  0  0
    1.9802    0.7761   -0.9955 C   0  0  0  0  0  0  0  0  0  0  0  0
    1.2629   -1.1261    0.3436 C   0  0  1  0  0  0  0  0  0  0  0  0
    1.7429    0.0167    1.2861 C   0  0  2  0  0  0  0  0  0  0  0  0
   -0.1850   -0.6946    0.1835 C   0  0  0  0  0  0  0  0  0  0  0  0
   -2.5287    0.7297   -0.1526 C   0  0  0  0  0  0  0  0  0  0  0  0
   -1.3371    1.4412    0.0050 C   0  0  0  0  0  0  0  0  0  0  0  0
   -1.3574   -2.9231    0.0111 C   0  0  0  0  0  0  0  0  0  0  0  0
   -0.8789   -3.4519    1.1719 F   0  0  0  0  0  0  0  0  0  0  0  0
   -0.5847   -3.4436   -0.9828 F   0  0  0  0  0  0  0  0  0  0  0  0
   -2.5962   -3.4650   -0.1596 F   0  0  0  0  0  0  0  0  0  0  0  0
  1  6  1  0
  4  5  1  0
  5 11  2  0
  6 12  2  0
  1  7  1  6
  7  3  1  0
  8  3  1  6
  8 10  1  0
  9  2  1  6
  9  1  1  0
  9  8  1  0
 10  4  2  0
 10  6  1  0
 12 11  1  0
 13  4  1  0
 13 15  1  0
 14 13  1  0
 16 13  1  0
M  END
>  <DRUGBANK_ID>  (1) 
DB08128

>  <COMMON_NAME>  (1) 
(1S,4R,9S)-5-(trifluoromethyl)-1,2,3,4-tetrahydro-1,4-methanonaphthalen-9-amine

$$$$
