5IG
     RDKit          3D

 28 30  0  0  0  0  0  0  0  0999 V2000
    1.1911    0.1541   -0.1935 C   0  0  0  0  0  0  0  0  0  0  0  0
    0.0928    0.9244   -0.0347 N   0  0  0  0  0  0  0  0  0  0  0  0
   -1.0808    0.3070    0.0146 C   0  0  0  0  0  0  0  0  0  0  0  0
   -1.2201   -1.0174    0.0043 N   0  0  0  0  0  0  0  0  0  0  0  0
   -0.0923   -1.7796   -0.0767 C   0  0  0  0  0  0  0  0  0  0  0  0
    1.1870   -1.2566   -0.2535 C   0  0  0  0  0  0  0  0  0  0  0  0
    2.3378    0.9090   -0.4466 N   0  0  0  0  0  0  0  0  0  0  0  0
   -2.2117    1.0731    0.0593 N   0  0  0  0  0  0  0  0  0  0  0  0
   -0.3180   -3.2657    0.0352 C   0  0  0  0  0  0  0  0  0  0  0  0
    2.7508   -3.1345   -1.1536 C   0  0  0  0  0  0  0  0  0  0  0  0
    3.9154   -3.9255   -0.9290 C   0  0  0  0  0  0  0  0  0  0  0  0
    4.7678   -3.7495    0.1941 C   0  0  0  0  0  0  0  0  0  0  0  0
    4.4521   -2.7909    1.1440 C   0  0  0  0  0  0  0  0  0  0  0  0
    3.2958   -2.0658    0.8177 C   0  0  0  0  0  0  0  0  0  0  0  0
    2.4170   -2.1399   -0.2648 C   0  0  0  0  0  0  0  0  0  0  0  0
    5.9371   -4.4838    0.2491 O   0  0  0  0  0  0  0  0  0  0  0  0
    6.9025   -3.9774    1.1946 C   0  0  0  0  0  0  0  0  0  0  0  0
    6.2427   -3.6369    2.5338 C   0  0  0  0  0  0  0  0  0  0  0  0
    5.3036   -2.6163    2.3193 N   0  0  0  0  0  0  0  0  0  0  0  0
    5.4654   -1.4864    3.2485 C   0  0  0  0  0  0  0  0  0  0  0  0
    5.6870   -0.0921    2.6543 C   0  0  0  0  0  0  0  0  0  0  0  0
    4.5781    0.3397    1.7606 C   0  0  0  0  0  0  0  0  0  0  0  0
    3.2890    0.4571    2.3992 O   0  0  0  0  0  0  0  0  0  0  0  0
    2.7188   -0.5192    3.3093 C   0  0  0  0  0  0  0  0  0  0  0  0
    7.5797   -2.6876    0.6598 C   0  0  0  0  0  0  0  0  0  0  0  0
    8.0138   -4.9999    1.4271 C   0  0  0  0  0  0  0  0  0  0  0  0
    6.5812   -4.0474    3.6227 O   0  0  0  0  0  0  0  0  0  0  0  0
   -1.0893   -3.6538    1.2828 C   0  0  0  0  0  0  0  0  0  0  0  0
  1  2  2  0
  1  6  1  0
  1  7  1  0
  2  3  1  0
  3  4  2  0
  3  8  1  0
  4  5  1  0
  5  6  2  0
  5  9  1  0
  6 15  1  0
  9 28  1  0
 10 11  2  0
 10 15  1  0
 11 12  1  0
 12 13  2  0
 12 16  1  0
 13 14  1  0
 13 19  1  0
 14 15  2  0
 16 17  1  0
 17 18  1  0
 17 25  1  0
 17 26  1  0
 18 19  1  0
 18 27  2  0
 19 20  1  0
 20 21  1  0
 21 22  1  0
 22 23  1  0
 23 24  1  0
M  END
>  <DRUGBANK_ID>  (1) 
DB07174

>  <COMMON_NAME>  (1) 
6-(2,4-DIAMINO-6-ETHYLPYRIMIDIN-5-YL)-4-(3-METHOXYPROPYL)-2,2-DIMETHYL-2H-1,4-BENZOXAZIN-3(4H)-ONE

$$$$
