
     RDKit          3D

 21 23  0  0  0  0  0  0  0  0999 V2000
    1.0005   -0.3414   -0.0926 C   0  0  0  0  0  0  0  0  0  0  0  0
    0.4853    0.3610   -1.2654 N   0  0  0  0  0  0  0  0  0  0  0  0
   -0.9761    0.3202   -1.2779 C   0  0  0  0  0  0  0  0  0  0  0  0
    0.9585    1.7547   -1.3393 C   0  0  0  0  0  0  0  0  0  0  0  0
    0.4550    2.7151   -0.2306 C   0  0  0  0  0  0  0  0  0  0  0  0
    1.0352    2.4282    1.1474 C   0  0  0  0  0  0  0  0  0  0  0  0
    1.9689    3.1120    1.8176 C   0  0  0  0  0  0  0  0  0  0  0  0
    2.3708    2.6715    3.1657 C   0  0  0  0  0  0  0  0  0  0  0  0
    3.2829    1.6318    3.3639 C   0  0  0  0  0  0  0  0  0  0  0  0
    3.7244    1.3385    4.6550 C   0  0  0  0  0  0  0  0  0  0  0  0
    3.2425    2.0701    5.7420 C   0  0  0  0  0  0  0  0  0  0  0  0
    2.3257    3.1055    5.5435 C   0  0  0  0  0  0  0  0  0  0  0  0
    1.8934    3.4183    4.2496 C   0  0  0  0  0  0  0  0  0  0  0  0
    0.9567    4.5636    3.9571 C   0  0  0  0  0  0  0  0  0  0  0  0
    1.6157    5.6888    3.3534 O   0  0  0  0  0  0  0  0  0  0  0  0
    2.1001    5.5969    2.0688 C   0  0  0  0  0  0  0  0  0  0  0  0
    2.3352    4.4378    1.3190 C   0  0  0  0  0  0  0  0  0  0  0  0
    2.8745    4.5135    0.0222 C   0  0  0  0  0  0  0  0  0  0  0  0
    3.0850    5.7367   -0.5848 C   0  0  0  0  0  0  0  0  0  0  0  0
    2.8686    6.8925    0.1516 C   0  0  0  0  0  0  0  0  0  0  0  0
    2.4043    6.8231    1.4736 C   0  0  0  0  0  0  0  0  0  0  0  0
  1  2  1  0
  2  3  1  0
  2  4  1  0
  4  5  1  0
  5  6  1  0
  6  7  2  0
  7  8  1  0
  7 17  1  0
  8  9  2  0
  8 13  1  0
  9 10  1  0
 10 11  2  0
 11 12  1  0
 12 13  2  0
 13 14  1  0
 14 15  1  0
 15 16  1  0
 16 17  2  0
 16 21  1  0
 17 18  1  0
 18 19  2  0
 19 20  1  0
 20 21  2  0
M  END
>  <DRUGBANK_ID>  (1) 
DB14750

>  <COMMON_NAME>  (1) 
Cidoxepin

>  <CAS_NUMBER>  (1) 
3607-18-9

>  <UNII>  (1) 
F96TTB8728

>  <SYNONYMS>  (1) 
(Z)-Doxepin; Cidoxepin; Cidoxepina; Cidoxepinum

$$$$
