PSY
     RDKit          3D

 12 12  0  0  0  0  0  0  0  0999 V2000
    1.3549   -0.1979    0.0098 C   0  0  0  0  0  0  0  0  0  0  0  0
    0.5160   -1.3039    0.0150 C   0  0  0  0  0  0  0  0  0  0  0  0
    0.8020    1.0818   -0.0048 C   0  0  0  0  0  0  0  0  0  0  0  0
   -0.8690   -1.1327   -0.0122 C   0  0  0  0  0  0  0  0  0  0  0  0
   -0.5931    1.2547    0.0083 C   0  0  0  0  0  0  0  0  0  0  0  0
   -1.4444    0.1431   -0.0391 C   0  0  0  0  0  0  0  0  0  0  0  0
   -2.8107    0.3666   -0.1344 O   0  0  0  0  0  0  0  0  0  0  0  0
   -3.8380   -0.9038   -0.3238 S   0  0  0  0  0  0  0  0  0  0  0  0
   -3.5258   -1.5691   -1.5797 O   0  0  0  0  0  0  0  0  0  0  0  0
   -3.8610   -1.6563    0.9140 O   0  0  0  0  0  0  0  0  0  0  0  0
   -5.4128   -0.2015   -0.5149 C   0  0  0  0  0  0  0  0  0  0  0  0
   -5.6683    1.1101   -0.5356 C   0  0  0  0  0  0  0  0  0  0  0  0
  1  2  2  0
  2  4  1  0
  3  1  1  0
  3  5  2  0
  5  6  1  0
  6  4  2  0
  6  7  1  0
  8  7  1  0
  8  9  2  0
 10  8  2  0
 11  8  1  0
 12 11  2  0
M  END
>  <DRUGBANK_ID>  (1) 
DB08433

>  <COMMON_NAME>  (1) 
phenyl ethenesulfonate

>  <UNII>  (1) 
HN14RW9PVP

$$$$
