
     RDKit          3D

 32 36  0  0  0  0  0  0  0  0999 V2000
    0.7392    0.0239   -0.0772 O   0  0  0  0  0  0  0  0  0  0  0  0
    3.7354    6.5876   -0.6322 O   0  0  0  0  0  0  0  0  0  0  0  0
    1.3862    4.7977    0.7478 N   0  0  0  0  0  0  0  0  0  0  0  0
    0.6467    2.4284   -0.1480 C   0  0  0  0  0  0  0  0  0  0  0  0
    1.9171    2.2938    0.7148 C   0  0  0  0  0  0  0  0  0  0  0  0
   -0.3393    2.9970    0.9318 C   0  0  0  0  0  0  0  0  0  0  0  0
    0.8484    3.5120   -1.1848 C   0  0  0  0  0  0  0  0  0  0  0  0
    2.3533    3.6601    1.2401 C   0  0  0  0  0  0  0  0  0  0  0  0
    0.0647    4.4066    1.4221 C   0  0  0  0  0  0  0  0  0  0  0  0
    0.9547    4.8964   -0.7087 C   0  0  0  0  0  0  0  0  0  0  0  0
    0.2722    1.0759   -0.9599 C   0  0  0  0  0  0  0  0  0  0  0  0
    1.8980    6.1676    1.1850 C   0  0  0  0  0  0  0  0  0  0  0  0
    0.9007    0.8115   -2.3822 C   0  0  0  0  0  0  0  0  0  0  0  0
   -1.2493    0.9745   -1.0521 C   0  0  0  0  0  0  0  0  0  0  0  0
    3.3603    6.5262    0.7609 C   0  0  0  0  0  0  0  0  0  0  0  0
    1.2138    1.8126   -3.3383 C   0  0  0  0  0  0  0  0  0  0  0  0
   -1.8925   -0.2442   -0.8306 C   0  0  0  0  0  0  0  0  0  0  0  0
    1.0903   -0.4864   -2.8520 C   0  0  0  0  0  0  0  0  0  0  0  0
   -2.0618    2.1060   -1.2384 C   0  0  0  0  0  0  0  0  0  0  0  0
    1.9473    1.5865   -4.5031 C   0  0  0  0  0  0  0  0  0  0  0  0
   -3.2707   -0.2736   -0.6614 C   0  0  0  0  0  0  0  0  0  0  0  0
    1.6956   -0.7431   -4.1046 C   0  0  0  0  0  0  0  0  0  0  0  0
   -3.3832    2.1167   -0.8444 C   0  0  0  0  0  0  0  0  0  0  0  0
    3.8388    5.3480   -1.3593 C   0  0  0  0  0  0  0  0  0  0  0  0
    2.1617    0.3113   -4.9001 C   0  0  0  0  0  0  0  0  0  0  0  0
   -4.0061    0.9080   -0.5983 C   0  0  0  0  0  0  0  0  0  0  0  0
    4.7907    4.2282   -1.0349 C   0  0  0  0  0  0  0  0  0  0  0  0
    5.7623    4.5051   -0.0974 C   0  0  0  0  0  0  0  0  0  0  0  0
    4.4471    2.8733   -1.3070 C   0  0  0  0  0  0  0  0  0  0  0  0
    6.3032    3.4763    0.6578 C   0  0  0  0  0  0  0  0  0  0  0  0
    4.9889    1.8428   -0.5324 C   0  0  0  0  0  0  0  0  0  0  0  0
    5.9135    2.1521    0.4522 C   0  0  0  0  0  0  0  0  0  0  0  0
  1 11  1  0
  2 15  1  0
  2 24  1  0
  3  8  1  0
  3  9  1  0
  3 10  1  0
  3 12  1  0
  4  5  1  0
  4  6  1  0
  4  7  1  0
  4 11  1  0
  5  8  1  0
  6  9  1  0
  7 10  1  0
 11 13  1  0
 11 14  1  0
 12 15  1  0
 13 16  2  0
 13 18  1  0
 14 17  2  0
 14 19  1  0
 16 20  1  0
 17 21  1  0
 18 22  2  0
 19 23  2  0
 20 25  2  0
 21 26  2  0
 22 25  1  0
 23 26  1  0
 24 27  1  0
 27 28  2  0
 27 29  1  0
 28 30  1  0
 29 31  2  0
 30 32  2  0
 31 32  1  0
M  CHG  1   3   1
M  END
>  <DRUGBANK_ID>  (1) 
DB09076

>  <COMMON_NAME>  (1) 
Umeclidinium

>  <CAS_NUMBER>  (1) 
869185-19-3

>  <UNII>  (1) 
GE2T1418SV

>  <SYNONYMS>  (1) 
1-[2-(benzyloxy)ethyl]-4-[hydroxy(diphenyl)methyl]-1-azoniabicyclo[2.2.2]octane; Umeclidinium

$$$$
