
     RDKit          3D

 10  9  0  0  0  0  0  0  0  0999 V2000
    0.7425   -0.1022   -0.1537 C   0  0  0  0  0  0  0  0  0  0  0  0
    0.1405    1.3019    0.0168 C   0  0  0  0  0  0  0  0  0  0  0  0
    0.9349    2.2540   -0.6605 O   0  0  0  0  0  0  0  0  0  0  0  0
    2.3625    2.0841   -0.4413 C   0  0  0  0  0  0  0  0  0  0  0  0
    2.9504    1.9570    0.9977 C   0  0  0  0  0  0  0  0  0  0  0  0
    2.6575    1.2087    2.1996 O   0  0  0  0  0  0  0  0  0  0  0  0
    1.3124    1.2612    2.6660 C   0  0  0  0  0  0  0  0  0  0  0  0
    0.6190    2.6540    2.9853 C   0  0  0  0  0  0  0  0  0  0  0  0
    0.9811    3.8354    2.2507 O   0  0  0  0  0  0  0  0  0  0  0  0
    2.2926    4.3365    2.5093 C   0  0  0  0  0  0  0  0  0  0  0  0
  1  2  1  0
  2  3  1  0
  3  4  1  0
  4  5  1  0
  5  6  1  0
  6  7  1  0
  7  8  1  0
  8  9  1  0
  9 10  1  0
M  END
>  <DRUGBANK_ID>  (1) 
DB03508

>  <SECONDARY_ACCESSION_NUMBERS>  (1) 
EXPT02148

>  <COMMON_NAME>  (1) 
Diethylene glycol ethyl methyl ether

>  <CAS_NUMBER>  (1) 
1002-67-1

>  <UNII>  (1) 
LF64ICW5Y3

>  <SYNONYMS>  (1) 
1-ethoxy-2-(2-methoxyethoxy)ethane

$$$$
