
     RDKit          3D

 17 16  0  0  0  0  0  0  0  0999 V2000
    4.5419   14.7391   -3.5641 O   0  0  0  0  0  0  0  0  0  0  0  0
    4.6633   14.1432   -5.6686 O   0  0  0  0  0  0  0  0  0  0  0  0
    4.7891   10.7020   -2.8176 N   0  0  0  0  0  0  0  0  0  0  0  0
    4.7401   12.5678   -4.1944 N   0  0  0  0  0  0  0  0  0  0  0  0
    4.6468   12.8262   -1.8812 N   0  0  0  0  0  0  0  0  0  0  0  0
    4.6414   13.8980   -4.4635 N   0  0  0  0  0  0  0  0  0  0  0  0
    3.6691    7.7828   -2.3757 C   0  0  0  0  0  0  0  0  0  0  0  0
    3.6855    8.9771   -1.4133 C   0  0  0  0  0  0  0  0  0  0  0  0
    4.8456    9.9577   -1.5614 C   0  0  0  0  0  0  0  0  0  0  0  0
    4.7258   12.0732   -2.9229 C   0  0  0  0  0  0  0  0  0  0  0  0
    4.5369    6.5664   -1.9972 C   0  0  1  0  0  0  0  0  0  0  0  0
    6.0442    6.8219   -2.1502 C   0  0  0  0  0  0  0  0  0  0  0  0
    6.8245    5.6305   -1.8171 N   0  0  0  0  0  0  0  0  0  0  0  0
    8.2642    5.9088   -1.8109 C   0  0  0  0  0  0  0  0  0  0  0  0
    8.6951    6.9886   -0.7955 C   0  0  0  0  0  0  0  0  0  0  0  0
    8.3034    6.6274    0.5674 N   0  0  0  0  0  0  0  0  0  0  0  0
    4.2357    6.1159   -0.6257 N   0  0  0  0  0  0  0  0  0  0  0  0
  1  6  1  0
  2  6  2  0
  3  9  1  0
  3 10  1  0
  4  6  1  0
  4 10  1  0
  5 10  2  0
  7  8  1  0
  8  9  1  0
 11 12  1  0
 11 17  1  1
 11  7  1  0
 12 13  1  0
 13 14  1  0
 14 15  1  0
 15 16  1  0
M  CHG  2   1  -1   6   1
M  END
>  <DRUGBANK_ID>  (1) 
DB02027

>  <SECONDARY_ACCESSION_NUMBERS>  (1) 
EXPT01253

>  <COMMON_NAME>  (1) 
N-{(4S)-4-Amino-5-[(2-aminoethyl)amino]pentyl}-N'-nitroguanidine

>  <CAS_NUMBER>  (1) 
357965-98-1

>  <SYNONYMS>  (1) 
1-{(4S)-4-Amino-5-[(2-aminoethyl)amino]pentyl}-3-nitroguanidine

$$$$
