
     RDKit          3D

  4  3  0  0  0  0  0  0  0  0999 V2000
    0.9756    0.1234   -0.1109 Cl  0  0  0  0  0  0  0  0  0  0  0  0
    2.7523   -0.0038   -0.1041 C   0  0  0  0  0  0  0  0  0  0  0  0
    3.2569   -1.0109    0.9180 C   0  0  0  0  0  0  0  0  0  0  0  0
    2.7790   -2.6798    0.5188 Cl  0  0  0  0  0  0  0  0  0  0  0  0
  1  2  1  0
  2  3  1  0
  3  4  1  0
M  END
>  <DRUGBANK_ID>  (1) 
DB03733

>  <SECONDARY_ACCESSION_NUMBERS>  (1) 
EXPT01133

>  <COMMON_NAME>  (1) 
Ethylene Dichloride

>  <CAS_NUMBER>  (1) 
107-06-2

>  <UNII>  (1) 
55163IJI47

$$$$
