
     RDKit          3D

 23 26  0  0  0  0  0  0  0  0999 V2000
   -0.3407   -0.7489    0.0650 C   0  0  0  0  0  0  0  0  0  0  0  0
   -0.0612    0.5700    0.0250 C   0  0  0  0  0  0  0  0  0  0  0  0
    0.3008   -1.8671    0.3582 C   0  0  0  0  0  0  0  0  0  0  0  0
   -1.4942   -1.2391   -0.1537 C   0  0  0  0  0  0  0  0  0  0  0  0
    1.2818    0.7130    0.0600 N   0  0  0  0  0  0  0  0  0  0  0  0
   -1.0376    1.4628   -0.0440 N   0  0  0  0  0  0  0  0  0  0  0  0
    1.6458   -0.9304    0.1135 C   0  0  0  0  0  0  0  0  0  0  0  0
   -1.1120   -3.4955    0.5274 C   0  0  0  0  0  0  0  0  0  0  0  0
   -1.1719   -2.6654   -0.6118 N   0  0  0  0  0  0  0  0  0  0  0  0
   -2.5593   -0.4807   -0.0347 N   0  0  0  0  0  0  0  0  0  0  0  0
    1.9583    2.1920   -0.0391 C   0  0  2  0  0  0  0  0  0  0  0  0
   -2.2495    0.8282   -0.0065 C   0  0  0  0  0  0  0  0  0  0  0  0
   -2.2059   -3.0658   -0.0285 N   0  0  0  0  0  0  0  0  0  0  0  0
   -2.2170   -4.6902    0.1774 N   0  0  0  0  0  0  0  0  0  0  0  0
    0.5565   -3.8088   -0.2538 C   0  0  0  0  0  0  0  0  0  0  0  0
    1.5979    3.1100    1.1023 O   0  0  0  0  0  0  0  0  0  0  0  0
    1.5544    3.0844   -1.2855 C   0  0  1  0  0  0  0  0  0  0  0  0
    1.2656    4.4901    0.6521 C   0  0  1  0  0  0  0  0  0  0  0  0
    1.5715    4.5717   -0.8365 C   0  0  1  0  0  0  0  0  0  0  0  0
    2.4047    2.9003   -2.4169 O   0  0  0  0  0  0  0  0  0  0  0  0
   -0.2110    4.8273    0.9467 C   0  0  0  0  0  0  0  0  0  0  0  0
    2.8468    5.1883   -1.0822 O   0  0  0  0  0  0  0  0  0  0  0  0
   -1.1185    3.9746    0.2859 O   0  0  0  0  0  0  0  0  0  0  0  0
  1  2  1  0
  1  3  1  0
  1  4  2  0
  2  5  1  0
  2  6  2  0
  3  7  2  0
  3  8  1  0
  4  9  1  0
  4 10  1  0
  5  7  1  0
  6 12  1  0
  8 13  2  0
  8 14  1  0
  9 15  1  0
  9 13  1  0
 10 12  2  0
 11  5  1  1
 11 16  1  0
 11 17  1  0
 16 18  1  0
 17 19  1  0
 17 20  1  6
 18 19  1  0
 18 21  1  6
 19 22  1  1
 21 23  1  0
M  END
>  <DRUGBANK_ID>  (1) 
DB12405

>  <COMMON_NAME>  (1) 
Triciribine

>  <CAS_NUMBER>  (1) 
35943-35-2

>  <UNII>  (1) 
2421HMY9N6

>  <SYNONYMS>  (1) 
Pentaazacentopthylene; TCN; Triciribina; Triciribine; Triciribinum

$$$$
