
     RDKit          3D

 29 31  0  0  1  0  0  0  0  0999 V2000
    1.3053    1.2503   -2.9198 C   0  0  2  0  0  0  0  0  0  0  0  0
    0.9390    0.0736   -4.6422 C   0  0  0  0  0  0  0  0  0  0  0  0
    1.8259    0.2597   -5.8557 C   0  0  0  0  0  0  0  0  0  0  0  0
    1.9946    1.3113   -4.9103 C   0  0  2  0  0  0  0  0  0  0  0  0
    3.1762    2.1566   -5.1396 C   0  0  2  0  0  0  0  0  0  0  0  0
    3.0532    2.8083   -6.5003 C   0  0  0  0  0  0  0  0  0  0  0  0
    4.2701    3.6517   -6.7450 C   0  0  0  0  0  0  0  0  0  0  0  0
    5.5104    2.7790   -6.5785 C   0  0  0  0  0  0  0  0  0  0  0  0
    6.4172    2.6454   -7.5010 N   0  0  0  0  0  0  0  0  0  0  0  0
    6.1252    3.4039   -8.6360 O   0  0  0  0  0  0  0  0  0  0  0  0
    5.6669    2.0151   -5.2199 C   0  0  2  0  0  0  0  0  0  0  0  0
    5.8441    3.0549   -4.1065 C   0  0  0  0  0  0  0  0  0  0  0  0
    6.9072    1.0622   -5.2900 C   0  0  0  0  0  0  0  0  0  0  0  0
    7.4918    0.4883   -3.9715 C   0  0  0  0  0  0  0  0  0  0  0  0
    6.6394   -0.5041   -3.2387 C   0  0  0  0  0  0  0  0  0  0  0  0
    6.1956   -1.5422   -4.1294 O   0  0  0  0  0  0  0  0  0  0  0  0
    4.3426    1.2380   -5.0457 C   0  0  1  0  0  0  0  0  0  0  0  0
    4.1410    0.5277   -3.7216 C   0  0  0  0  0  0  0  0  0  0  0  0
    3.1577   -0.5365   -3.3109 C   0  0  0  0  0  0  0  0  0  0  0  0
    1.9060    0.1330   -3.4659 C   0  0  1  0  0  0  0  0  0  0  0  0
    0.1993   -0.3662   -2.7806 C   0  0  0  0  0  0  0  0  0  0  0  0
    2.2102    1.1298   -1.2170 C   0  0  2  0  0  0  0  0  0  0  0  0
    1.9406   -0.0605   -0.2418 C   0  0  0  0  0  0  0  0  0  0  0  0
    2.0132    2.4113   -0.1784 C   0  0  0  0  0  0  0  0  0  0  0  0
    2.6249    2.4123    1.3262 C   0  0  0  0  0  0  0  0  0  0  0  0
    4.1582    2.4813    1.4369 C   0  0  0  0  0  0  0  0  0  0  0  0
    4.7193    3.7578    0.7977 C   0  0  0  0  0  0  0  0  0  0  0  0
    4.2144    5.0102    1.5179 C   0  0  0  0  0  0  0  0  0  0  0  0
    6.2415    3.7402    0.7991 C   0  0  0  0  0  0  0  0  0  0  0  0
  1  2  1  1
  1 20  1  0
  2  3  1  0
  4  3  1  6
  4  5  1  0
  5  6  1  6
  5 17  1  0
  6  7  1  0
  7  8  1  0
  8  9  2  0
  9 10  1  0
 11  8  1  0
 11 13  1  0
 11 12  1  1
 13 14  1  0
 14 15  1  0
 15 16  1  0
 17 11  1  0
 17 18  1  1
 18 19  1  0
 20 19  1  0
 20  4  1  0
 20 21  1  6
 22 24  1  0
 22 23  1  1
 22  1  1  0
 24 25  1  0
 25 26  1  0
 26 27  1  0
 27 28  1  0
 27 29  1  0
M  END
>  <DRUGBANK_ID>  (1) 
DB16031

>  <COMMON_NAME>  (1) 
TRO40303

>  <CAS_NUMBER>  (1) 
14291-24-8

>  <UNII>  (1) 
3W389841RN

$$$$
