MR5
     RDKit          3D

 18 20  0  0  0  0  0  0  0  0999 V2000
   -1.2082   -1.9829   -0.0345 C   0  0  0  0  0  0  0  0  0  0  0  0
   -1.2148   -0.5802   -0.0237 C   0  0  0  0  0  0  0  0  0  0  0  0
   -2.8802    0.3296   -0.0124 Br  0  0  0  0  0  0  0  0  0  0  0  0
   -0.0167    0.1405    0.0023 C   0  0  0  0  0  0  0  0  0  0  0  0
   -0.0093    1.5105    0.0461 O   0  0  0  0  0  0  0  0  0  0  0  0
    1.1943   -0.5519   -0.0021 C   0  0  0  0  0  0  0  0  0  0  0  0
    2.8564    0.3641    0.0045 Br  0  0  0  0  0  0  0  0  0  0  0  0
    1.2054   -1.9522    0.0054 C   0  0  0  0  0  0  0  0  0  0  0  0
    0.0058   -2.6826   -0.0010 C   0  0  0  0  0  0  0  0  0  0  0  0
    0.0517   -4.1347    0.1599 C   0  0  0  0  0  0  0  0  0  0  0  0
   -0.5556   -4.9105   -0.8007 O   0  0  0  0  0  0  0  0  0  0  0  0
   -0.3222   -6.1964   -0.3742 C   0  0  0  0  0  0  0  0  0  0  0  0
   -0.7015   -7.3944   -0.9784 C   0  0  0  0  0  0  0  0  0  0  0  0
   -0.3458   -8.5699   -0.2953 C   0  0  0  0  0  0  0  0  0  0  0  0
    0.3460   -8.5271    0.9208 C   0  0  0  0  0  0  0  0  0  0  0  0
    0.7214   -7.3026    1.4909 C   0  0  0  0  0  0  0  0  0  0  0  0
    0.3825   -6.1211    0.8173 C   0  0  0  0  0  0  0  0  0  0  0  0
    0.6331   -4.8111    1.1309 N   0  0  0  0  0  0  0  0  0  0  0  0
  1  2  2  0
  1  9  1  0
  2  3  1  0
  2  4  1  0
  4  5  1  0
  4  6  2  0
  6  7  1  0
  6  8  1  0
  8  9  2  0
  9 10  1  0
 10 11  1  0
 10 18  2  0
 11 12  1  0
 12 17  2  0
 12 13  1  0
 13 14  2  0
 14 15  1  0
 15 16  2  0
 16 17  1  0
 17 18  1  0
M  END
>  <DRUGBANK_ID>  (1) 
DB08206

>  <COMMON_NAME>  (1) 
4-(1,3-BENZOXAZOL-2-YL)-2,6-DIBROMOPHENOL

$$$$
