PFD
     RDKit          3D

 29 31  0  0  0  0  0  0  0  0999 V2000
    2.1825   -0.0497   -0.0157 F   0  0  0  0  0  0  0  0  0  0  0  0
    0.8444   -0.0230   -0.0099 C   0  0  0  0  0  0  0  0  0  0  0  0
    0.1917    1.1994    0.0095 C   0  0  0  0  0  0  0  0  0  0  0  0
   -1.1985    1.2249    0.0736 C   0  0  0  0  0  0  0  0  0  0  0  0
    0.1311   -1.2178   -0.0082 C   0  0  0  0  0  0  0  0  0  0  0  0
   -1.2645   -1.1927    0.0154 C   0  0  0  0  0  0  0  0  0  0  0  0
   -1.9370    0.0288    0.0753 C   0  0  0  0  0  0  0  0  0  0  0  0
   -3.3133   -0.0603    0.1984 O   0  0  0  0  0  0  0  0  0  0  0  0
   -4.0444    1.0831    0.0256 C   0  0  0  0  0  0  0  0  0  0  0  0
   -3.8736    1.8487   -1.1081 C   0  0  0  0  0  0  0  0  0  0  0  0
   -4.4734    3.0806   -1.1744 C   0  0  0  0  0  0  0  0  0  0  0  0
   -4.9608    1.4802    0.9973 C   0  0  0  0  0  0  0  0  0  0  0  0
   -5.6165    2.7178    0.8704 C   0  0  0  0  0  0  0  0  0  0  0  0
   -5.2827    3.5783   -0.1873 C   0  0  0  0  0  0  0  0  0  0  0  0
   -5.6472    4.8932   -0.1580 O   0  0  0  0  0  0  0  0  0  0  0  0
   -5.8070    5.7597   -1.3158 C   0  0  0  0  0  0  0  0  0  0  0  0
   -6.8376    6.9149   -0.9957 C   0  0  0  0  0  0  0  0  0  0  0  0
   -8.3724    6.6457   -1.0531 C   0  0  0  0  0  0  0  0  0  0  0  0
   -8.9810    5.7771   -0.0870 O   0  0  0  0  0  0  0  0  0  0  0  0
   -8.4304    4.4751   -0.0316 C   0  0  0  0  0  0  0  0  0  0  0  0
   -8.5427    3.6739   -1.3125 C   0  0  0  0  0  0  0  0  0  0  0  0
   -6.1223    5.2846   -2.7802 C   0  0  0  0  0  0  0  0  0  0  0  0
   -7.2003    5.2913   -3.3424 O   0  0  0  0  0  0  0  0  0  0  0  0
   -5.0823    4.9013   -3.5615 N   0  0  0  0  0  0  0  0  0  0  0  0
   -3.8201    5.3474   -3.4017 C   0  0  0  0  0  0  0  0  0  0  0  0
   -2.9407    5.0603   -4.2219 O   0  0  0  0  0  0  0  0  0  0  0  0
   -3.5499    6.0516   -2.2675 N   0  0  0  0  0  0  0  0  0  0  0  0
   -4.4140    6.3764   -1.2477 C   0  0  0  0  0  0  0  0  0  0  0  0
   -4.0047    7.0396   -0.2977 O   0  0  0  0  0  0  0  0  0  0  0  0
  1  2  1  0
  2  3  2  0
  2  5  1  0
  3  4  1  0
  4  7  2  0
  5  6  2  0
  6  7  1  0
  7  8  1  0
  8  9  1  0
  9 10  2  0
  9 12  1  0
 10 11  1  0
 11 14  2  0
 12 13  2  0
 13 14  1  0
 14 15  1  0
 15 16  1  0
 16 17  1  0
 16 22  1  0
 16 28  1  0
 17 18  1  0
 18 19  1  0
 19 20  1  0
 20 21  1  0
 22 23  2  0
 22 24  1  0
 24 25  1  0
 25 26  2  0
 25 27  1  0
 27 28  1  0
 28 29  2  0
M  END
>  <DRUGBANK_ID>  (1) 
DB08388

>  <COMMON_NAME>  (1) 
5-(2-ETHOXYETHYL)-5-[4-(4-FLUOROPHENOXY)PHENOXY]PYRIMIDINE-2,4,6(1H,3H,5H)-TRIONE

$$$$
