
     RDKit          3D

 28 31  0  0  0  0  0  0  0  0999 V2000
    2.3344    0.0402    0.7654 C   0  0  0  0  0  0  0  0  0  0  0  0
    0.9671   -0.0515    0.1018 C   0  0  0  0  0  0  0  0  0  0  0  0
    0.2019    1.1885    0.4866 C   0  0  0  0  0  0  0  0  0  0  0  0
   -1.1562    1.1676   -0.1400 C   0  0  0  0  0  0  0  0  0  0  0  0
   -1.9679    0.0338    0.2320 N   0  0  0  0  0  0  0  0  0  0  0  0
   -1.2882   -1.2498   -0.0421 C   0  0  0  0  0  0  0  0  0  0  0  0
    0.1426   -1.2718    0.5465 C   0  0  0  0  0  0  0  0  0  0  0  0
   -3.2550    0.0826    0.7339 C   0  0  0  0  0  0  0  0  0  0  0  0
   -3.8127   -0.9567    1.1318 O   0  0  0  0  0  0  0  0  0  0  0  0
   -3.9623    1.2492    0.9085 N   0  0  0  0  0  0  0  0  0  0  0  0
   -3.6196    2.5427    0.5951 C   0  0  0  0  0  0  0  0  0  0  0  0
   -3.4947    3.5444    1.4327 N   0  0  0  0  0  0  0  0  0  0  0  0
   -2.7963    4.5969    0.7984 C   0  0  0  0  0  0  0  0  0  0  0  0
   -2.3752    5.8244    1.3860 C   0  0  0  0  0  0  0  0  0  0  0  0
   -1.5976    6.6968    0.6100 C   0  0  0  0  0  0  0  0  0  0  0  0
   -1.1597    6.3369   -0.6673 C   0  0  0  0  0  0  0  0  0  0  0  0
   -1.5451    5.1392   -1.2916 C   0  0  0  0  0  0  0  0  0  0  0  0
   -2.4722    4.3521   -0.5490 C   0  0  0  0  0  0  0  0  0  0  0  0
   -3.4292    2.9703   -1.0528 S   0  0  0  0  0  0  0  0  0  0  0  0
   -1.0432    4.7869   -2.5294 N   0  0  0  0  0  0  0  0  0  0  0  0
    0.3864    4.8353   -2.8858 C   0  0  0  0  0  0  0  0  0  0  0  0
    0.6143    5.7917   -4.0690 C   0  0  0  0  0  0  0  0  0  0  0  0
   -0.2309    5.4608   -5.1847 O   0  0  0  0  0  0  0  0  0  0  0  0
   -1.6143    5.5249   -4.7962 C   0  0  0  0  0  0  0  0  0  0  0  0
   -1.9331    4.5320   -3.6660 C   0  0  0  0  0  0  0  0  0  0  0  0
   -2.7697    6.0952    2.6755 O   0  0  0  0  0  0  0  0  0  0  0  0
   -2.4744    7.3891    3.1946 C   0  0  0  0  0  0  0  0  0  0  0  0
    1.1531   -0.1017   -1.3141 O   0  0  0  0  0  0  0  0  0  0  0  0
  1  2  1  0
  2  3  1  0
  2  7  1  0
  2 28  1  0
  3  4  1  0
  4  5  1  0
  5  6  1  0
  5  8  1  0
  6  7  1  0
  8  9  2  0
  8 10  1  0
 10 11  1  0
 11 12  2  0
 11 19  1  0
 12 13  1  0
 13 14  2  0
 13 18  1  0
 14 15  1  0
 14 26  1  0
 15 16  2  0
 16 17  1  0
 17 18  2  0
 17 20  1  0
 18 19  1  0
 20 21  1  0
 20 25  1  0
 21 22  1  0
 22 23  1  0
 23 24  1  0
 24 25  1  0
 26 27  1  0
M  END
>  <DRUGBANK_ID>  (1) 
DB12203

>  <COMMON_NAME>  (1) 
Tozadenant

>  <CAS_NUMBER>  (1) 
870070-55-6

>  <UNII>  (1) 
D9K857J81I

>  <SYNONYMS>  (1) 
Tozadenant

$$$$
