
     RDKit          3D

 43 46  0  0  0  0  0  0  0  0999 V2000
    0.6079    0.2028   -0.2681 C   0  0  0  0  0  0  0  0  0  0  0  0
    4.1002   -5.9811    0.5964 C   0  0  0  0  0  0  0  0  0  0  0  0
   -1.6824    1.5482   -1.1724 C   0  0  0  0  0  0  0  0  0  0  0  0
   -0.3552   -6.4352    0.6226 C   0  0  0  0  0  0  0  0  0  0  0  0
   -7.0941    1.9879   -1.3198 C   0  0  0  0  0  0  0  0  0  0  0  0
    2.3924   -0.5695    1.8989 C   0  0  0  0  0  0  0  0  0  0  0  0
    0.0456   -0.7589   -0.9807 C   0  0  0  0  0  0  0  0  0  0  0  0
    2.7636   -6.0943    0.6009 C   0  0  0  0  0  0  0  0  0  0  0  0
   -9.4770   -0.1158   -0.8393 C   0  0  0  0  0  0  0  0  0  0  0  0
    3.1189    2.0643    0.1613 C   0  0  0  0  0  0  0  0  0  0  0  0
  -10.0934   -0.9137   -1.9895 C   0  0  0  0  0  0  0  0  0  0  0  0
    4.3210    2.9508    0.3732 C   0  0  0  0  0  0  0  0  0  0  0  0
   -4.5635    0.3682   -0.8783 C   0  0  0  0  0  0  0  0  0  0  0  0
   -1.5457   -3.5041   -0.0158 C   0  0  0  0  0  0  0  0  0  0  0  0
    3.2310   -2.9530    0.0166 C   0  0  0  0  0  0  0  0  0  0  0  0
   -2.1273    0.1442   -0.8624 C   0  0  0  0  0  0  0  0  0  0  0  0
    0.4166   -5.1909    0.3505 C   0  0  0  0  0  0  0  0  0  0  0  0
   -7.0183    0.5420   -0.9302 C   0  0  0  0  0  0  0  0  0  0  0  0
    3.2236   -0.4666    0.6576 C   0  0  0  0  0  0  0  0  0  0  0  0
   -1.2970   -0.9858   -0.7505 C   0  0  0  0  0  0  0  0  0  0  0  0
    1.7925   -5.0369    0.3421 C   0  0  0  0  0  0  0  0  0  0  0  0
   -8.0213   -0.3186   -0.6955 C   0  0  0  0  0  0  0  0  0  0  0  0
    3.5341    0.6299   -0.0662 C   0  0  0  0  0  0  0  0  0  0  0  0
   -3.3760   -0.3566   -0.7015 C   0  0  0  0  0  0  0  0  0  0  0  0
   -0.2426   -3.8942    0.0760 C   0  0  0  0  0  0  0  0  0  0  0  0
   -5.7682   -0.1571   -0.7417 C   0  0  0  0  0  0  0  0  0  0  0  0
    3.4411   -1.5439   -0.3207 C   0  0  0  0  0  0  0  0  0  0  0  0
   -1.9500   -2.1398   -0.3635 C   0  0  0  0  0  0  0  0  0  0  0  0
    2.0621   -3.6087    0.0916 C   0  0  0  0  0  0  0  0  0  0  0  0
  -10.0306   -2.4035   -1.7943 C   0  0  0  0  0  0  0  0  0  0  0  0
    5.1457    3.1091   -0.8761 C   0  0  0  0  0  0  0  0  0  0  0  0
   -7.2797   -1.4991   -0.2642 C   0  0  0  0  0  0  0  0  0  0  0  0
    3.8669    0.1880   -1.4655 C   0  0  0  0  0  0  0  0  0  0  0  0
   -3.2844   -1.7189   -0.3855 N   0  0  0  0  0  0  0  0  0  0  0  0
    0.8294   -3.0562   -0.0478 N   0  0  0  0  0  0  0  0  0  0  0  0
   -5.9996   -1.4426   -0.3429 N   0  0  0  0  0  0  0  0  0  0  0  0
    3.8805   -1.1764   -1.4773 N   0  0  0  0  0  0  0  0  0  0  0  0
  -10.8759   -3.0837   -1.2403 O   0  0  0  0  0  0  0  0  0  0  0  0
   -8.8214   -2.9035   -2.1104 O   0  0  0  0  0  0  0  0  0  0  0  0
    5.1304    4.0746   -1.6192 O   0  0  0  0  0  0  0  0  0  0  0  0
    5.8627    2.0037   -1.1617 O   0  0  0  0  0  0  0  0  0  0  0  0
   -7.8555   -2.5952    0.2235 O   0  0  0  0  0  0  0  0  0  0  0  0
    3.9508    0.9190   -2.4232 O   0  0  0  0  0  0  0  0  0  0  0  0
  7  1  2  0
  8  2  2  0
 11  9  1  0
 12 10  1  0
 16  3  1  0
 17  4  1  0
 18  5  1  0
 19  6  1  0
 20  7  1  0
 20 16  1  0
 21  8  1  0
 21 17  2  0
 22  9  1  0
 22 18  2  0
 23 10  1  0
 23 19  2  0
 24 13  1  0
 24 16  2  0
 25 14  2  0
 25 17  1  0
 26 13  2  0
 26 18  1  0
 27 15  1  0
 27 19  1  0
 28 14  1  0
 28 20  2  0
 29 15  2  0
 29 21  1  0
 30 11  1  0
 31 12  1  0
 32 22  1  0
 33 23  1  0
 34 24  1  0
 34 28  1  0
 35 25  1  0
 35 29  1  0
 36 26  1  0
 36 32  2  0
 37 27  2  0
 37 33  1  0
 38 30  2  0
 39 30  1  0
 40 31  2  0
 41 31  1  0
 42 32  1  0
 43 33  2  0
M  END
>  <DRUGBANK_ID>  (1) 
DB02864

>  <SECONDARY_ACCESSION_NUMBERS>  (1) 
EXPT00720

>  <COMMON_NAME>  (1) 
Biliverdin Ix Gamma Chromophore

$$$$
