5MS
     RDKit          3D

 25 27  0  0  0  0  0  0  0  0999 V2000
    0.9817   -0.0574   -0.0033 C   0  0  0  0  0  0  0  0  0  0  0  0
    0.2792    1.1770    0.0107 C   0  0  0  0  0  0  0  0  0  0  0  0
   -1.1252    1.2339    0.0132 C   0  0  0  0  0  0  0  0  0  0  0  0
   -1.8579    0.0598   -0.0165 C   0  0  0  0  0  0  0  0  0  0  0  0
   -1.1297   -1.1377   -0.0448 C   0  0  0  0  0  0  0  0  0  0  0  0
    0.2531   -1.2587   -0.0147 C   0  0  0  0  0  0  0  0  0  0  0  0
   -3.2768    0.0379    0.0878 N   0  0  0  0  0  0  0  0  0  0  0  0
   -4.0506   -1.1566    0.0236 C   0  0  0  0  0  0  0  0  0  0  0  0
   -3.8551   -2.0844    1.0296 C   0  0  0  0  0  0  0  0  0  0  0  0
   -4.4957   -3.2971    0.9365 C   0  0  0  0  0  0  0  0  0  0  0  0
   -5.3105   -3.5905   -0.0941 N   0  0  0  0  0  0  0  0  0  0  0  0
   -5.4601   -2.6201   -1.0106 C   0  0  0  0  0  0  0  0  0  0  0  0
   -4.8835   -1.3981   -1.0020 N   0  0  0  0  0  0  0  0  0  0  0  0
   -4.4007   -4.2771    2.0215 C   0  0  0  0  0  0  0  0  0  0  0  0
   -4.6875   -3.8818    3.3411 C   0  0  0  0  0  0  0  0  0  0  0  0
   -4.7275   -4.8092    4.3792 C   0  0  0  0  0  0  0  0  0  0  0  0
   -4.4797   -6.1517    4.1131 C   0  0  0  0  0  0  0  0  0  0  0  0
   -4.1660   -6.5597    2.8169 C   0  0  0  0  0  0  0  0  0  0  0  0
   -4.0801   -5.6204    1.7858 C   0  0  0  0  0  0  0  0  0  0  0  0
    2.4851   -0.0200   -0.0185 C   0  0  0  0  0  0  0  0  0  0  0  0
    0.8885   -2.5528   -0.1841 N   0  0  0  0  0  0  0  0  0  0  0  0
    0.1057   -4.0612    0.0465 S   0  0  0  0  0  0  0  0  0  0  0  0
    0.5684   -4.9025   -1.4443 C   0  0  0  0  0  0  0  0  0  0  0  0
    0.7544   -4.7199    1.1503 O   0  0  0  0  0  0  0  0  0  0  0  0
   -1.3418   -3.9905   -0.0204 O   0  0  0  0  0  0  0  0  0  0  0  0
  1  2  2  0
  1  6  1  0
  1 20  1  0
  2  3  1  0
  3  4  2  0
  4  5  1  0
  4  7  1  0
  5  6  2  0
  6 21  1  0
  7  8  1  0
  8  9  2  0
  8 13  1  0
  9 10  1  0
 10 11  2  0
 10 14  1  0
 11 12  1  0
 12 13  2  0
 14 15  2  0
 14 19  1  0
 15 16  1  0
 16 17  2  0
 17 18  1  0
 18 19  2  0
 21 22  1  0
 22 23  1  0
 22 24  2  0
 22 25  2  0
M  END
>  <DRUGBANK_ID>  (1) 
DB07175

>  <COMMON_NAME>  (1) 
N-{2-methyl-5-[(6-phenylpyrimidin-4-yl)amino]phenyl}methanesulfonamide

$$$$
