W03
     RDKit          3D

 24 26  0  0  0  0  0  0  0  0999 V2000
   -0.9364    0.7472    0.2352 O   0  0  0  0  0  0  0  0  0  0  0  0
    0.3441    1.1984   -0.0363 N   0  0  0  0  0  0  0  0  0  0  0  0
    1.0911    0.0904   -0.0178 C   0  0  0  0  0  0  0  0  0  0  0  0
    2.5425    0.1299   -0.0441 C   0  0  0  0  0  0  0  0  0  0  0  0
    0.3630   -1.0754    0.1344 C   0  0  0  0  0  0  0  0  0  0  0  0
   -0.8677   -0.5772    0.4864 C   0  0  0  0  0  0  0  0  0  0  0  0
   -2.0528   -1.3584    0.5967 C   0  0  0  0  0  0  0  0  0  0  0  0
   -3.1971   -1.0307    1.5232 C   0  0  0  0  0  0  0  0  0  0  0  0
   -3.8540    0.2923    1.1334 C   0  0  0  0  0  0  0  0  0  0  0  0
   -4.7411    0.2300   -0.0318 O   0  0  0  0  0  0  0  0  0  0  0  0
   -4.2143    0.0512   -1.2970 C   0  0  0  0  0  0  0  0  0  0  0  0
   -3.7925   -1.2253   -1.7701 C   0  0  0  0  0  0  0  0  0  0  0  0
   -3.9829   -2.5748   -1.0735 C   0  0  0  0  0  0  0  0  0  0  0  0
   -2.9828   -1.2538   -2.9313 C   0  0  0  0  0  0  0  0  0  0  0  0
   -2.8595   -0.1561   -3.7829 C   0  0  0  0  0  0  0  0  0  0  0  0
   -3.5098    1.0263   -3.4388 C   0  0  0  0  0  0  0  0  0  0  0  0
   -4.1679    1.1575   -2.1918 C   0  0  0  0  0  0  0  0  0  0  0  0
   -4.8505    2.4747   -1.9169 C   0  0  0  0  0  0  0  0  0  0  0  0
   -2.1663   -0.3090   -5.0448 C   0  0  0  0  0  0  0  0  0  0  0  0
   -1.1938    0.5136   -5.5611 C   0  0  0  0  0  0  0  0  0  0  0  0
   -2.4138   -1.3408   -5.9230 N   0  0  0  0  0  0  0  0  0  0  0  0
   -1.6274   -1.0805   -6.9475 C   0  0  0  0  0  0  0  0  0  0  0  0
   -1.4994   -1.8101   -8.2265 C   0  0  0  0  0  0  0  0  0  0  0  0
   -0.8405    0.0295   -6.7889 O   0  0  0  0  0  0  0  0  0  0  0  0
  1  2  1  0
  1  6  1  0
  2  3  2  0
  3  4  1  0
  3  5  1  0
  5  6  2  0
  6  7  1  0
  7  8  1  0
  8  9  1  0
  9 10  1  0
 10 11  1  0
 11 12  2  0
 11 17  1  0
 12 13  1  0
 12 14  1  0
 14 15  2  0
 15 16  1  0
 15 19  1  0
 16 17  2  0
 17 18  1  0
 19 20  2  0
 19 21  1  0
 20 24  1  0
 21 22  2  0
 22 23  1  0
 22 24  1  0
M  END
>  <DRUGBANK_ID>  (1) 
DB08715

>  <COMMON_NAME>  (1) 
2,6-DIMETHYL-1-(3-[3-METHYL-5-ISOXAZOLYL]-PROPANYL)-4-[2-METHYL-4-ISOXAZOLYL]-PHENOL

$$$$
