
     RDKit          3D

 34 38  0  0  1  0  0  0  0  0999 V2000
   -2.5054    0.0992   -0.1311 C   0  0  0  0  0  0  0  0  0  0  0  0
   -1.0979    0.0927    0.2319 N   0  0  0  0  0  0  0  0  0  0  0  0
   -0.5387   -1.1040   -0.3598 C   0  0  0  0  0  0  0  0  0  0  0  0
    0.9018   -1.1929    0.0003 C   0  0  0  0  0  0  0  0  0  0  0  0
    1.7943    0.0252   -0.2975 C   0  0  0  0  0  0  0  0  0  0  0  0
    1.0725    1.2913    0.1772 C   0  0  0  0  0  0  0  0  0  0  0  0
   -0.3928    1.2853   -0.2574 C   0  0  0  0  0  0  0  0  0  0  0  0
    3.1982    0.0350    0.2175 N   0  0  0  0  0  0  0  0  0  0  0  0
    4.0372   -1.0441   -0.3311 C   0  0  0  0  0  0  0  0  0  0  0  0
    3.6583   -2.3816    0.2495 C   0  0  0  0  0  0  0  0  0  0  0  0
    3.5650   -2.4150    1.7218 N   0  0  0  0  0  0  0  0  0  0  0  0
    2.9187   -1.2813    2.3938 C   0  0  0  0  0  0  0  0  0  0  0  0
    3.3263    0.0170    1.6995 C   0  0  0  0  0  0  0  0  0  0  0  0
    3.9229   -3.4875    2.5108 C   0  0  0  0  0  0  0  0  0  0  0  0
    3.7748   -3.4611    3.7376 O   0  0  0  0  0  0  0  0  0  0  0  0
    4.4997   -4.7417    1.8314 C   0  0  1  0  0  0  0  0  0  0  0  0
    3.4809   -5.5779    1.0213 C   0  0  0  0  0  0  0  0  0  0  0  0
    3.6239   -6.9575    0.8198 C   0  0  0  0  0  0  0  0  0  0  0  0
    2.7158   -7.7183    0.0851 C   0  0  0  0  0  0  0  0  0  0  0  0
    1.6296   -7.1178   -0.5176 C   0  0  0  0  0  0  0  0  0  0  0  0
    1.4190   -5.7706   -0.3160 C   0  0  0  0  0  0  0  0  0  0  0  0
    2.3046   -5.0457    0.4799 C   0  0  0  0  0  0  0  0  0  0  0  0
    5.7548   -4.4326    1.0871 N   0  0  0  0  0  0  0  0  0  0  0  0
    7.0799   -4.6910    1.3756 C   0  0  0  0  0  0  0  0  0  0  0  0
    7.9483   -4.1843    0.6962 O   0  0  0  0  0  0  0  0  0  0  0  0
    7.4278   -5.6764    2.4279 C   0  0  0  0  0  0  0  0  0  0  0  0
    6.6234   -6.7981    2.5260 C   0  0  0  0  0  0  0  0  0  0  0  0
    6.7993   -7.8416    3.4066 C   0  0  0  0  0  0  0  0  0  0  0  0
    7.9442   -7.7843    4.1748 C   0  0  0  0  0  0  0  0  0  0  0  0
    8.4316   -8.6311    5.1906 C   0  0  0  0  0  0  0  0  0  0  0  0
    9.6147   -8.0857    5.6163 C   0  0  0  0  0  0  0  0  0  0  0  0
    9.9612   -7.1329    4.6911 N   0  0  0  0  0  0  0  0  0  0  0  0
    8.8432   -6.7276    4.0020 C   0  0  0  0  0  0  0  0  0  0  0  0
    8.5937   -5.6112    3.1785 C   0  0  0  0  0  0  0  0  0  0  0  0
  1  2  1  0
  2  3  1  0
  2  7  1  0
  3  4  1  0
  4  5  1  0
  5  6  1  0
  5  8  1  0
  6  7  1  0
  8  9  1  0
  8 13  1  0
  9 10  1  0
 10 11  1  0
 11 12  1  0
 11 14  1  0
 12 13  1  0
 14 15  2  0
 14 16  1  0
 16 17  1  0
 16 23  1  6
 17 18  2  0
 17 22  1  0
 18 19  1  0
 19 20  2  0
 20 21  1  0
 21 22  2  0
 23 24  1  0
 24 25  2  0
 24 26  1  0
 26 27  2  0
 26 34  1  0
 27 28  1  0
 28 29  2  0
 29 30  1  0
 29 33  1  0
 30 31  2  0
 31 32  1  0
 32 33  1  0
 33 34  2  0
M  END
>  <DRUGBANK_ID>  (1) 
DB05713

>  <COMMON_NAME>  (1) 
LY-517717

>  <CAS_NUMBER>  (1) 
313489-71-3

>  <UNII>  (1) 
TSA990HP1K

$$$$
