AHT
     RDKit          3D

 15 15  0  0  0  0  0  0  0  0999 V2000
    0.4562    3.5850    2.8226 N   0  0  0  0  0  0  0  0  0  0  0  0
    1.8789    3.3929    2.5246 C   0  0  2  0  0  0  0  0  0  0  0  0
    2.2579    3.7622    1.0694 C   0  0  0  0  0  0  0  0  0  0  0  0
    2.4043    1.9799    2.9161 C   0  0  0  0  0  0  0  0  0  0  0  0
    3.9207    1.9566    2.8506 C   0  0  0  0  0  0  0  0  0  0  0  0
    4.6255    1.2497    1.8600 C   0  0  0  0  0  0  0  0  0  0  0  0
    4.6345    2.7833    3.7265 C   0  0  0  0  0  0  0  0  0  0  0  0
    6.0057    1.4268    1.7140 C   0  0  0  0  0  0  0  0  0  0  0  0
    6.0056    2.9596    3.5819 C   0  0  0  0  0  0  0  0  0  0  0  0
    6.6811    2.2892    2.5692 C   0  0  0  0  0  0  0  0  0  0  0  0
    8.0182    2.5236    2.4533 O   0  0  0  0  0  0  0  0  0  0  0  0
    1.9493    2.6955    0.0077 C   0  0  0  0  0  0  0  0  0  0  0  0
    0.4810    2.3079   -0.0993 C   0  0  2  0  0  0  0  0  0  0  0  0
    0.3330    1.2313   -0.9888 O   0  0  0  0  0  0  0  0  0  0  0  0
   -0.3227    3.3941   -0.5930 N   0  0  0  0  0  0  0  0  0  0  0  0
  2  4  1  0
  2  3  1  0
  2  1  1  6
  3 12  1  0
  4  5  1  0
  5  6  2  0
  5  7  1  0
  6  8  1  0
  7  9  2  0
  8 10  2  0
  9 10  1  0
 10 11  1  0
 13 15  1  6
 13 14  1  0
 13 12  1  0
M  END
>  <DRUGBANK_ID>  (1) 
DB07353

>  <COMMON_NAME>  (1) 
4-(2,5-DIAMINO-5-HYDROXY-PENTYL)-PHENOL

$$$$
