
     RDKit          3D

 38 43  0  0  0  0  0  0  0  0999 V2000
   -2.0933   -0.0554   -0.0575 C   0  0  0  0  0  0  0  0  0  0  0  0
   -0.6522   -0.0836    0.0184 N   0  0  0  0  0  0  0  0  0  0  0  0
    0.1560   -1.1875    0.0275 C   0  0  0  0  0  0  0  0  0  0  0  0
    1.4497   -0.7113    0.0133 C   0  0  0  0  0  0  0  0  0  0  0  0
    1.3050    0.6938    0.0045 C   0  0  0  0  0  0  0  0  0  0  0  0
    0.0266    1.0790    0.0189 N   0  0  0  0  0  0  0  0  0  0  0  0
    2.6571   -1.5053   -0.0719 C   0  0  0  0  0  0  0  0  0  0  0  0
    2.8641   -2.3670   -1.1526 C   0  0  0  0  0  0  0  0  0  0  0  0
    4.0905   -3.0297   -1.3058 C   0  0  0  0  0  0  0  0  0  0  0  0
    5.1387   -2.8348   -0.3888 C   0  0  0  0  0  0  0  0  0  0  0  0
    6.3992   -3.6782   -0.4617 C   0  0  0  0  0  0  0  0  0  0  0  0
    7.6319   -2.9154   -0.6395 N   0  0  0  0  0  0  0  0  0  0  0  0
    8.5763   -2.9261    0.3911 C   0  0  0  0  0  0  0  0  0  0  0  0
    9.0090   -4.1189    0.9705 C   0  0  0  0  0  0  0  0  0  0  0  0
    9.9625   -4.0712    1.9828 C   0  0  0  0  0  0  0  0  0  0  0  0
   10.4816   -2.8954    2.3784 N   0  0  0  0  0  0  0  0  0  0  0  0
   10.0162   -1.7954    1.7521 C   0  0  0  0  0  0  0  0  0  0  0  0
    9.0896   -1.7509    0.7745 N   0  0  0  0  0  0  0  0  0  0  0  0
   10.4536   -5.2460    2.7561 C   0  0  0  0  0  0  0  0  0  0  0  0
   10.5561   -5.4707    4.1158 C   0  0  0  0  0  0  0  0  0  0  0  0
   11.1565   -6.6861    4.4384 N   0  0  0  0  0  0  0  0  0  0  0  0
   11.3965   -7.2825    3.2959 C   0  0  0  0  0  0  0  0  0  0  0  0
   12.0153   -8.5827    2.9377 C   0  0  0  0  0  0  0  0  0  0  0  0
   11.9677   -9.0403    1.6621 C   0  0  0  0  0  0  0  0  0  0  0  0
   12.5144  -10.2441    1.1561 O   0  0  0  0  0  0  0  0  0  0  0  0
   12.8797  -10.6561   -0.2311 C   0  0  0  0  0  0  0  0  0  0  0  0
   11.8267  -10.5417   -1.3776 C   0  0  0  0  0  0  0  0  0  0  0  0
   11.3011   -9.1217   -1.8045 C   0  0  0  0  0  0  0  0  0  0  0  0
   12.3401   -8.0386   -2.2473 N   0  0  0  0  0  0  0  0  0  0  0  0
   13.7368   -8.4833   -2.1222 C   0  0  0  0  0  0  0  0  0  0  0  0
   14.2203   -8.0592   -0.7233 C   0  0  0  0  0  0  0  0  0  0  0  0
   13.6499   -6.6768   -0.5450 C   0  0  0  0  0  0  0  0  0  0  0  0
   12.4559   -6.6773   -1.5866 C   0  0  0  0  0  0  0  0  0  0  0  0
   11.4133   -8.1041    0.7772 C   0  0  0  0  0  0  0  0  0  0  0  0
   10.8437   -6.8912    1.0109 C   0  0  0  0  0  0  0  0  0  0  0  0
   10.8633   -6.4799    2.2755 N   0  0  0  0  0  0  0  0  0  0  0  0
    4.9264   -1.9533    0.6811 C   0  0  0  0  0  0  0  0  0  0  0  0
    3.6859   -1.3242    0.8585 C   0  0  0  0  0  0  0  0  0  0  0  0
  1  2  1  0
  2  3  1  0
  2  6  1  0
  3  4  2  0
  4  5  1  0
  4  7  1  0
  5  6  2  0
  7  8  2  0
  7 38  1  0
  8  9  1  0
  9 10  2  0
 10 11  1  0
 10 37  1  0
 11 12  1  0
 12 13  1  0
 13 14  2  0
 13 18  1  0
 14 15  1  0
 15 16  2  0
 15 19  1  0
 16 17  1  0
 17 18  2  0
 19 20  2  0
 19 36  1  0
 20 21  1  0
 21 22  2  0
 22 23  1  0
 22 36  1  0
 23 24  2  0
 24 25  1  0
 24 34  1  0
 25 26  1  0
 26 27  1  0
 27 28  1  0
 28 29  1  0
 29 30  1  0
 29 33  1  0
 30 31  1  0
 31 32  1  0
 32 33  1  0
 34 35  2  0
 35 36  1  0
 37 38  2  0
M  END
>  <DRUGBANK_ID>  (1) 
DB18087

>  <COMMON_NAME>  (1) 
IDRX-42

>  <CAS_NUMBER>  (1) 
2590556-80-0

>  <UNII>  (1) 
Y6UHU32G5Z

$$$$
