
     RDKit          3D

 14 13  0  0  0  0  0  0  0  0999 V2000
    2.0505    0.7640   -0.0954 C   0  0  0  0  0  0  0  0  0  0  0  0
    1.1352    1.8392   -0.6656 C   0  0  0  0  0  0  0  0  0  0  0  0
    1.2543    1.9562   -2.1591 C   0  0  0  0  0  0  0  0  0  0  0  0
    0.5509    0.8606   -2.9716 C   0  0  0  0  0  0  0  0  0  0  0  0
   -1.2876    0.7340   -2.9237 S   0  0  0  0  0  0  0  0  0  0  0  0
   -1.8106    2.1731   -3.1629 N   0  0  0  0  0  0  0  0  0  0  0  0
   -1.6124   -0.3615   -3.8185 O   0  0  0  0  0  0  0  0  0  0  0  0
   -1.9942    0.2341   -1.3081 C   0  0  0  0  0  0  0  0  0  0  0  0
   -1.6823   -1.2029   -0.8119 C   0  0  0  0  0  0  0  0  0  0  0  0
   -0.2298   -1.3621   -0.4395 C   0  0  0  0  0  0  0  0  0  0  0  0
    0.0255   -0.7323    0.9672 C   0  0  0  0  0  0  0  0  0  0  0  0
    0.8280   -1.1552    1.7602 O   0  0  0  0  0  0  0  0  0  0  0  0
   -0.5887    0.4644    1.1460 O   0  0  0  0  0  0  0  0  0  0  0  0
    0.3973   -2.6963   -0.4011 N   0  0  0  0  0  0  0  0  0  0  0  0
  1  2  1  0
  2  3  1  0
  3  4  1  0
  4  5  1  0
  5  6  2  0
  5  7  2  0
  5  8  1  0
  8  9  1  0
  9 10  1  0
 10 11  1  0
 10 14  1  0
 11 12  2  0
 11 13  1  0
M  END
>  <DRUGBANK_ID>  (1) 
DB12870

>  <COMMON_NAME>  (1) 
Buthionine sulfoximine

>  <CAS_NUMBER>  (1) 
5072-26-4

>  <UNII>  (1) 
LW4108Q0BV

>  <SYNONYMS>  (1) 
Butanoic acid, 2-amino-4-(S-butylsulfonimidoyl)-; Buthionine sulfoxamine; DL-buthionine-(S,R)-sulfoximine

$$$$
