
     RDKit          3D

 12 11  0  0  1  0  0  0  0  0999 V2000
    1.0476    0.1639    0.1348 C   0  0  0  0  0  0  0  0  0  0  0  0
    0.5714    1.0745   -0.9811 C   0  0  0  0  0  0  0  0  0  0  0  0
    1.1579    0.7343   -2.3555 C   0  0  0  0  0  0  0  0  0  0  0  0
    0.2365   -3.3814   -2.7125 C   0  0  0  0  0  0  0  0  0  0  0  0
   -1.3006   -3.2786   -2.6193 C   0  0  1  0  0  0  0  0  0  0  0  0
    0.8603   -0.6231   -2.9862 C   0  0  0  0  0  0  0  0  0  0  0  0
   -1.8779   -2.1145   -3.4221 C   0  0  0  0  0  0  0  0  0  0  0  0
   -1.8775   -4.5458   -3.1679 N   0  0  0  0  0  0  0  0  0  0  0  0
    0.3997   -0.7050   -4.1194 O   0  0  0  0  0  0  0  0  0  0  0  0
   -2.3303   -2.1753   -4.5495 O   0  0  0  0  0  0  0  0  0  0  0  0
   -1.7925   -0.9345   -2.7700 O   0  0  0  0  0  0  0  0  0  0  0  0
    1.3268   -2.0626   -2.0887 S   0  0  0  0  0  0  0  0  0  0  0  0
  2  1  1  0
  3  2  1  0
  5  4  1  0
  5  8  1  6
  6  3  1  0
  7  5  1  0
  9  6  2  0
 10  7  2  0
 11  7  1  0
 12  4  1  0
 12  6  1  0
M  END
>  <DRUGBANK_ID>  (1) 
DB02160

>  <SECONDARY_ACCESSION_NUMBERS>  (1) 
EXPT01074

>  <COMMON_NAME>  (1) 
S-Butyryl-Cystein

$$$$
