
     RDKit          3D

 16 17  0  0  0  0  0  0  0  0999 V2000
    2.1901    0.1984    0.0812 F   0  0  0  0  0  0  0  0  0  0  0  0
   -3.2573   -0.0758    0.0948 N   0  0  0  0  0  0  0  0  0  0  0  0
   -3.9344   -1.2921    0.0085 N   0  0  0  0  0  0  0  0  0  0  0  0
   -1.8956   -4.2224   -0.0348 N   0  0  0  0  0  0  0  0  0  0  0  0
   -3.0199   -4.6499   -0.4676 N   0  0  0  0  0  0  0  0  0  0  0  0
   -1.2250   -2.5139    1.4304 N   0  0  0  0  0  0  0  0  0  0  0  0
   -5.1788   -4.2198    0.3030 N   0  0  0  0  0  0  0  0  0  0  0  0
   -1.9238    0.1784   -0.3401 C   0  0  0  0  0  0  0  0  0  0  0  0
   -1.2545    1.3754   -0.0287 C   0  0  0  0  0  0  0  0  0  0  0  0
   -1.1376   -0.8453   -0.8455 C   0  0  0  0  0  0  0  0  0  0  0  0
   -3.4207   -2.4564    0.2748 C   0  0  0  0  0  0  0  0  0  0  0  0
    0.1549    1.4142   -0.0004 C   0  0  0  0  0  0  0  0  0  0  0  0
    0.2241   -0.9042   -0.5603 C   0  0  0  0  0  0  0  0  0  0  0  0
    0.8721    0.2362   -0.1485 C   0  0  0  0  0  0  0  0  0  0  0  0
   -2.0816   -3.0074    0.6207 C   0  0  0  0  0  0  0  0  0  0  0  0
   -4.0193   -3.7925   -0.0258 C   0  0  0  0  0  0  0  0  0  0  0  0
  1 14  1  0
  2  3  1  0
  2  8  1  0
  3 11  2  3
  4  5  2  0
  4 15  1  0
  5 16  1  0
  6 15  2  0
  7 16  2  0
  8  9  2  0
  8 10  1  0
  9 12  1  0
 10 13  2  0
 11 15  1  0
 11 16  1  0
 12 14  2  0
 13 14  1  0
M  END
>  <DRUGBANK_ID>  (1) 
DB08667

>  <COMMON_NAME>  (1) 
4-(4-fluoro-phenylazo)-5-imino-5H-pyrazol-3-ylamine

$$$$
