54841
     RDKit          3D

 19 20  0  0  1  0  0  0  0  0999 V2000
    0.7228    2.0216    1.3617 O   0  0  0  0  0  0  0  0  0  0  0  0
   -0.0854   -2.0787    0.0854 N   0  0  0  0  0  0  0  0  0  0  0  0
    0.8302    1.3914    0.0575 C   0  0  2  0  0  0  0  0  0  0  0  0
    1.5144   -0.0270    0.1644 C   0  0  0  0  0  0  0  0  0  0  0  0
    1.4691    2.3064   -1.1636 C   0  0  0  0  0  0  0  0  0  0  0  0
    0.9098   -1.2952    0.8530 C   0  0  0  0  0  0  0  0  0  0  0  0
    0.0632    3.2398    1.4543 C   0  0  0  0  0  0  0  0  0  0  0  0
    1.3580    3.7379   -1.3083 C   0  0  0  0  0  0  0  0  0  0  0  0
    1.8130    1.6994   -2.3600 C   0  0  0  0  0  0  0  0  0  0  0  0
   -0.7735    3.8252    0.4694 C   0  0  0  0  0  0  0  0  0  0  0  0
    1.2591    4.4168   -2.5489 C   0  0  0  0  0  0  0  0  0  0  0  0
    1.9619    2.4211   -3.5742 C   0  0  0  0  0  0  0  0  0  0  0  0
    0.4522    4.0078    2.5850 C   0  0  0  0  0  0  0  0  0  0  0  0
    1.5864    3.7632   -3.6840 C   0  0  0  0  0  0  0  0  0  0  0  0
   -0.2594   -3.4201    0.6711 C   0  0  0  0  0  0  0  0  0  0  0  0
   -0.8173    5.2504    0.4713 C   0  0  0  0  0  0  0  0  0  0  0  0
   -1.3708    3.0853   -0.7359 C   0  0  0  0  0  0  0  0  0  0  0  0
    0.1818    5.3796    2.6555 C   0  0  0  0  0  0  0  0  0  0  0  0
   -0.3258    6.0188    1.5393 C   0  0  0  0  0  0  0  0  0  0  0  0
  1  7  1  0
  2  6  1  0
  2 15  1  0
  3  5  1  0
  3  4  1  1
  3  1  1  0
  4  6  1  0
  5  8  2  0
  5  9  1  0
  7 10  2  0
  7 13  1  0
  8 11  1  0
  9 12  2  0
 10 16  1  0
 10 17  1  0
 11 14  2  0
 12 14  1  0
 13 18  2  0
 16 19  2  0
 18 19  1  0
M  END
>  <DRUGBANK_ID>  (1) 
DB00289

>  <SECONDARY_ACCESSION_NUMBERS>  (1) 
APRD00614

>  <COMMON_NAME>  (1) 
Atomoxetine

>  <CAS_NUMBER>  (1) 
83015-26-3

>  <UNII>  (1) 
ASW034S0B8

>  <SYNONYMS>  (1) 
(-)-Tomoxetine; Atomoxetina; Atomoxetine; Tomoxetina; Tomoxetine; Tomoxetinum

$$$$
