
     RDKit          3D

  3  2  0  0  0  0  0  0  0  0999 V2000
    0.9704    0.0931   -0.0213 F   0  0  0  0  0  0  0  0  0  0  0  0
    2.9304    0.0931   -0.0213 Sn  0  0  0  0  0  2  0  0  0  0  0  0
    3.5837    1.2618   -1.4527 F   0  0  0  0  0  0  0  0  0  0  0  0
  1  2  1  0
  2  3  1  0
M  RAD  1   2   3
M  END
>  <DRUGBANK_ID>  (1) 
DB11092

>  <COMMON_NAME>  (1) 
Stannous fluoride

>  <CAS_NUMBER>  (1) 
7783-47-3

>  <UNII>  (1) 
3FTR44B32Q

>  <SYNONYMS>  (1) 
difluorostannylene; fluoristan; Stannous fluoride; tin difluoride; Tin(II) fluoride

$$$$
