
     RDKit          3D

 35 39  0  0  0  0  0  0  0  0999 V2000
    1.3315   -0.8159   -0.4579 C   0  0  0  0  0  0  0  0  0  0  0  0
    0.4381   -1.8210   -0.0967 C   0  0  0  0  0  0  0  0  0  0  0  0
   -0.9899   -1.6036   -0.0263 C   0  0  0  0  0  0  0  0  0  0  0  0
   -1.5369   -0.3625   -0.3526 C   0  0  0  0  0  0  0  0  0  0  0  0
   -0.6097    0.4585   -0.9774 C   0  0  0  0  0  0  0  0  0  0  0  0
    0.7805    0.3356   -0.9400 C   0  0  0  0  0  0  0  0  0  0  0  0
   -2.9754    0.2915   -0.2483 C   0  0  0  0  0  0  0  0  0  0  0  0
   -3.3471    1.1459    1.0364 C   0  0  0  0  0  0  0  0  0  0  0  0
   -2.7399    2.5531    1.3677 C   0  0  0  0  0  0  0  0  0  0  0  0
   -3.3668    3.5595    1.4391 O   0  0  0  0  0  0  0  0  0  0  0  0
   -1.4509    2.4681    1.8419 N   0  0  0  0  0  0  0  0  0  0  0  0
   -0.4257    2.0690    0.9650 C   0  0  0  0  0  0  0  0  0  0  0  0
    0.5643    1.2129    1.7416 C   0  0  0  0  0  0  0  0  0  0  0  0
    1.3180    2.1310    2.5906 N   0  0  0  0  0  0  0  0  0  0  0  0
    0.3160    2.7715    3.4866 C   0  0  0  0  0  0  0  0  0  0  0  0
   -0.8953    3.4092    2.7686 C   0  0  0  0  0  0  0  0  0  0  0  0
    2.2990    2.9746    1.7672 C   0  0  0  0  0  0  0  0  0  0  0  0
    1.8407    3.9642    0.6132 C   0  0  0  0  0  0  0  0  0  0  0  0
    0.9648    5.0362    0.9299 C   0  0  0  0  0  0  0  0  0  0  0  0
    0.0545    5.5445    0.0161 C   0  0  0  0  0  0  0  0  0  0  0  0
    0.2100    5.2163   -1.3125 C   0  0  0  0  0  0  0  0  0  0  0  0
    1.2632    4.3794   -1.7006 C   0  0  0  0  0  0  0  0  0  0  0  0
    2.0540    3.7142   -0.7468 C   0  0  0  0  0  0  0  0  0  0  0  0
    3.2087    3.6830    2.7194 C   0  0  0  0  0  0  0  0  0  0  0  0
    3.9165    2.9594    3.6740 C   0  0  0  0  0  0  0  0  0  0  0  0
    4.7974    3.6469    4.4887 C   0  0  0  0  0  0  0  0  0  0  0  0
    4.9683    5.0305    4.3434 C   0  0  0  0  0  0  0  0  0  0  0  0
    4.2595    5.7456    3.4043 C   0  0  0  0  0  0  0  0  0  0  0  0
    3.3644    5.0705    2.6360 C   0  0  0  0  0  0  0  0  0  0  0  0
   -3.2993    1.1667   -1.5210 C   0  0  0  0  0  0  0  0  0  0  0  0
   -2.8842    0.7214   -2.7902 C   0  0  0  0  0  0  0  0  0  0  0  0
   -3.0029    1.5353   -3.9191 C   0  0  0  0  0  0  0  0  0  0  0  0
   -3.5827    2.7965   -3.8252 C   0  0  0  0  0  0  0  0  0  0  0  0
   -4.0175    3.2578   -2.5967 C   0  0  0  0  0  0  0  0  0  0  0  0
   -3.8519    2.4631   -1.4650 C   0  0  0  0  0  0  0  0  0  0  0  0
  1  2  2  0
  1  6  1  0
  2  3  1  0
  3  4  2  0
  4  5  1  0
  4  7  1  0
  5  6  2  0
  7  8  1  0
  7 30  1  0
  8  9  1  0
  9 10  2  0
  9 11  1  0
 11 12  1  0
 11 16  1  0
 12 13  1  0
 13 14  1  0
 14 15  1  0
 14 17  1  0
 15 16  1  0
 17 18  1  0
 17 24  1  0
 18 19  2  0
 18 23  1  0
 19 20  1  0
 20 21  2  0
 21 22  1  0
 22 23  2  0
 24 25  2  0
 24 29  1  0
 25 26  1  0
 26 27  2  0
 27 28  1  0
 28 29  2  0
 30 31  2  0
 30 35  1  0
 31 32  1  0
 32 33  2  0
 33 34  1  0
 34 35  2  0
M  END
>  <DRUGBANK_ID>  (1) 
DB12743

>  <COMMON_NAME>  (1) 
Z-160

>  <CAS_NUMBER>  (1) 
41332-24-5

>  <UNII>  (1) 
TX3R141LEP

>  <SYNONYMS>  (1) 
1-(4-Benzhydryl-piperazin-1-yl)-3,3-diphenylpropan-1-one; 1-(4-Benzhydrylpiperazin-1-yl)-3,3-Diphenylpropan-1-one

$$$$
