
     RDKit          3D

 40 43  0  0  1  0  0  0  0  0999 V2000
   -3.6731   -1.1367    2.1989 C   0  0  0  0  0  0  0  0  0  0  0  0
   -3.1394   -1.6229    3.6017 C   0  0  0  0  0  0  0  0  0  0  0  0
   -1.9328   -2.5864    4.3198 C   0  0  0  0  0  0  0  0  0  0  0  0
   -2.2669   -0.4137    3.6065 C   0  0  0  0  0  0  0  0  0  0  0  0
   -2.4498    0.5271    4.3060 O   0  0  0  0  0  0  0  0  0  0  0  0
   -1.2240   -0.5454    2.6484 N   0  0  0  0  0  0  0  0  0  0  0  0
   -1.0125   -1.6396    1.5490 C   0  0  2  0  0  0  0  0  0  0  0  0
   -1.2096   -1.0667    0.0195 C   0  0  0  0  0  0  0  0  0  0  0  0
   -0.8615   -2.0324   -1.0716 C   0  0  0  0  0  0  0  0  0  0  0  0
   -0.5773   -3.3352   -0.8416 C   0  0  0  0  0  0  0  0  0  0  0  0
   -1.4465   -3.8562   -1.7856 N   0  0  0  0  0  0  0  0  0  0  0  0
   -1.3247   -3.3273   -2.9805 C   0  0  0  0  0  0  0  0  0  0  0  0
   -1.0923   -2.0519   -2.5123 C   0  0  0  0  0  0  0  0  0  0  0  0
   -1.1749   -1.1236   -3.4952 C   0  0  0  0  0  0  0  0  0  0  0  0
   -1.0252   -1.6680   -4.7901 C   0  0  0  0  0  0  0  0  0  0  0  0
   -1.1181   -3.0426   -5.1338 C   0  0  0  0  0  0  0  0  0  0  0  0
   -1.4697   -3.9464   -4.1886 C   0  0  0  0  0  0  0  0  0  0  0  0
   -1.4776   -3.3545    1.9978 C   0  0  0  0  0  0  0  0  0  0  0  0
   -0.4800   -4.0658    2.2517 O   0  0  0  0  0  0  0  0  0  0  0  0
   -2.9189   -3.9325    2.3191 N   0  0  0  0  0  0  0  0  0  0  0  0
   -3.3262   -4.7237    3.5941 C   0  0  0  0  0  0  0  0  0  0  0  0
   -4.1563   -5.9301    3.2601 C   0  0  0  0  0  0  0  0  0  0  0  0
   -5.3959   -5.6035    2.4050 C   0  0  0  0  0  0  0  0  0  0  0  0
   -4.9940   -4.8588    1.1345 C   0  0  2  0  0  0  0  0  0  0  0  0
   -4.2462   -3.7135    1.7318 C   0  0  0  0  0  0  0  0  0  0  0  0
   -6.1861   -4.1311    0.3264 C   0  0  0  0  0  0  0  0  0  0  0  0
   -7.0604   -3.1090    1.1157 C   0  0  0  0  0  0  0  0  0  0  0  0
   -6.7171   -1.7697    1.4260 C   0  0  0  0  0  0  0  0  0  0  0  0
   -7.3592   -0.9998    2.4054 C   0  0  0  0  0  0  0  0  0  0  0  0
   -8.6141   -1.3959    2.7901 C   0  0  0  0  0  0  0  0  0  0  0  0
   -9.1135   -2.5974    2.2810 C   0  0  0  0  0  0  0  0  0  0  0  0
   -8.3068   -3.4964    1.5612 C   0  0  0  0  0  0  0  0  0  0  0  0
   -4.0544   -5.7638    0.2483 C   0  0  0  0  0  0  0  0  0  0  0  0
   -4.2843   -6.9172    0.0840 O   0  0  0  0  0  0  0  0  0  0  0  0
   -2.9561   -5.0510   -0.3436 N   0  0  0  0  0  0  0  0  0  0  0  0
   -3.1963   -3.5310   -0.4819 C   0  0  0  0  0  0  0  0  0  0  0  0
   -1.7450   -6.0802   -1.1710 N   0  0  0  0  0  0  0  0  0  0  0  0
   -2.4600   -6.5571   -2.3825 C   0  0  0  0  0  0  0  0  0  0  0  0
   -0.0999   -5.7332   -1.6013 C   0  0  0  0  0  0  0  0  0  0  0  0
   -4.4078   -1.6219    4.3588 N   0  0  0  0  0  0  0  0  0  0  0  0
  1  2  1  0
  2  3  1  0
  2  4  1  0
  2 40  1  0
  4  5  2  0
  4  6  1  0
  7 18  1  0
  7  8  1  6
  7  6  1  0
  8  9  1  0
  9 10  2  0
  9 13  1  0
 10 11  1  0
 11 12  1  0
 12 13  2  0
 12 17  1  0
 13 14  1  0
 14 15  2  0
 15 16  1  0
 16 17  2  0
 18 19  2  0
 18 20  1  0
 20 21  1  0
 20 25  1  0
 21 22  1  0
 22 23  1  0
 23 24  1  0
 24 25  1  0
 24 33  1  0
 24 26  1  6
 26 27  1  0
 27 28  2  0
 27 32  1  0
 28 29  1  0
 29 30  2  0
 30 31  1  0
 31 32  2  0
 33 34  2  0
 33 35  1  0
 35 36  1  0
 35 37  1  0
 37 38  1  0
 37 39  1  0
M  END
>  <DRUGBANK_ID>  (1) 
DB06645

>  <COMMON_NAME>  (1) 
Anamorelin

>  <CAS_NUMBER>  (1) 
249921-19-5

>  <UNII>  (1) 
DD5RBA1NKF

>  <SYNONYMS>  (1) 
Anamorelin

$$$$
