
     RDKit          3D

 10  9  0  0  0  0  0  0  0  0999 V2000
    1.0780    0.0752   -0.0297 C   0  0  0  0  0  0  0  0  0  0  0  0
    0.5316    1.1668   -0.9874 C   0  0  0  0  0  0  0  0  0  0  0  0
    1.0763    0.8372   -2.3855 C   0  0  0  0  0  0  0  0  0  0  0  0
   -1.0031    1.1241   -0.9418 C   0  0  0  0  0  0  0  0  0  0  0  0
   -1.5054    1.4248    0.3499 O   0  0  0  0  0  0  0  0  0  0  0  0
    1.0427    2.5369   -0.5258 C   0  0  0  0  0  0  0  0  0  0  0  0
    1.7821    2.6426    0.4544 O   0  0  0  0  0  0  0  0  0  0  0  0
    0.6770    3.8425   -1.2991 C   0  0  0  0  0  0  0  0  0  0  0  0
   -0.0660    3.7776   -2.4060 O   0  0  0  0  0  0  0  0  0  0  0  0
    1.1107    4.9186   -0.9109 O   0  0  0  0  0  0  0  0  0  0  0  0
  1  2  1  0
  2  3  1  0
  2  4  1  0
  2  6  1  0
  4  5  1  0
  6  7  2  0
  6  8  1  0
  8  9  1  0
  8 10  2  0
M  END
>  <DRUGBANK_ID>  (1) 
DB03795

>  <SECONDARY_ACCESSION_NUMBERS>  (1) 
EXPT01981

>  <COMMON_NAME>  (1) 
2-Dehydropantoate

>  <UNII>  (1) 
GZM7NYS95Z

$$$$
