1406
     RDKit          3D

 25 29  0  0  1  0  0  0  0  0999 V2000
   -0.3992    0.9998   -0.3020 O   0  0  0  0  0  0  0  0  0  0  0  0
   -6.4430   -3.7017   -2.9748 O   0  0  0  0  0  0  0  0  0  0  0  0
   -7.4205   -4.1853   -2.1256 N   0  0  0  0  0  0  0  0  0  0  0  0
   -0.7331   -1.5983    1.3284 C   0  0  2  0  0  0  0  0  0  0  0  0
    0.9388   -1.1362    1.5089 C   0  0  2  0  0  0  0  0  0  0  0  0
   -1.5206   -2.2117   -0.0308 C   0  0  1  0  0  0  0  0  0  0  0  0
   -1.3141   -3.7867   -0.2761 C   0  0  1  0  0  0  0  0  0  0  0  0
   -2.4070   -4.5877   -1.4119 C   0  0  2  0  0  0  0  0  0  0  0  0
    1.0196   -3.0117    1.0432 C   0  0  0  0  0  0  0  0  0  0  0  0
    0.6389    0.6766    0.6040 C   0  0  2  0  0  0  0  0  0  0  0  0
    0.2091   -3.7361   -0.4791 C   0  0  0  0  0  0  0  0  0  0  0  0
   -1.3324   -0.3153    1.8726 C   0  0  0  0  0  0  0  0  0  0  0  0
   -3.0285   -2.0999   -0.0153 C   0  0  0  0  0  0  0  0  0  0  0  0
   -0.1740    0.7155    1.9814 C   0  0  0  0  0  0  0  0  0  0  0  0
   -3.1660   -3.5413   -2.2228 C   0  0  0  0  0  0  0  0  0  0  0  0
    2.8279   -0.7954    1.3374 C   0  0  0  0  0  0  0  0  0  0  0  0
   -3.6055   -2.3140   -1.4229 C   0  0  0  0  0  0  0  0  0  0  0  0
   -3.9032   -5.5127   -0.8154 C   0  0  0  0  0  0  0  0  0  0  0  0
   -1.4682   -5.3153   -2.4784 C   0  0  0  0  0  0  0  0  0  0  0  0
    1.1219   -0.6397    0.0171 C   0  0  0  0  0  0  0  0  0  0  0  0
   -3.9755   -4.0791   -3.1653 C   0  0  0  0  0  0  0  0  0  0  0  0
   -5.3509   -4.9738   -1.4477 C   0  0  0  0  0  0  0  0  0  0  0  0
   -5.2692   -4.2507   -2.6157 C   0  0  0  0  0  0  0  0  0  0  0  0
   -6.7795   -5.0098   -1.2721 C   0  0  0  0  0  0  0  0  0  0  0  0
    1.5362   -1.7688   -0.4864 C   0  0  0  0  0  0  0  0  0  0  0  0
  2  3  1  0
  2 23  1  0
  3 24  2  0
  4  5  1  0
  4  6  1  0
  4 12  1  6
  5  9  1  0
  5 10  1  0
  5 16  1  1
  6  7  1  0
  6 13  1  1
  7  8  1  0
  7 11  1  6
  8 15  1  0
  8 18  1  0
  8 19  1  6
  9 11  1  0
 10  1  1  6
 10 14  1  0
 10 20  1  0
 12 14  1  0
 13 17  1  0
 15 17  1  0
 15 21  2  0
 18 22  1  0
 20 25  3  0
 21 23  1  0
 22 23  2  0
 22 24  1  0
M  END
>  <DRUGBANK_ID>  (1) 
DB01406

>  <COMMON_NAME>  (1) 
Danazol

>  <CAS_NUMBER>  (1) 
17230-88-5

>  <UNII>  (1) 
N29QWW3BUO

>  <SYNONYMS>  (1) 
Danazol; Danazolum

$$$$
