
     RDKit          3D

 20 20  0  0  1  0  0  0  0  0999 V2000
    1.0582    0.0868    0.0005 C   0  0  0  0  0  0  0  0  0  0  0  0
    0.5999    0.8492   -1.2367 C   0  0  0  0  0  0  0  0  0  0  0  0
    3.8551   -4.2087   -3.1911 C   0  0  0  0  0  0  0  0  0  0  0  0
    0.5299   -1.3577    0.0456 C   0  0  1  0  0  0  0  0  0  0  0  0
    2.9185   -2.9867   -3.1714 C   0  0  2  0  0  0  0  0  0  0  0  0
    0.8893    0.0594   -2.4747 C   0  0  0  0  0  0  0  0  0  0  0  0
    1.8014   -3.0075   -4.2230 C   0  0  2  0  0  0  0  0  0  0  0  0
    1.0224   -2.0700    1.3052 C   0  0  0  0  0  0  0  0  0  0  0  0
    2.7128   -0.7858   -3.8785 C   0  0  2  0  0  0  0  0  0  0  0  0
    1.7982   -1.5968   -4.8288 C   0  0  1  0  0  0  0  0  0  0  0  0
    2.4709   -1.6962   -6.0227 F   0  0  0  0  0  0  0  0  0  0  0  0
   -0.9457   -1.3551   -0.0046 N   0  0  0  0  0  0  0  0  0  0  0  0
    4.1504   -4.6571   -4.5112 O   0  0  0  0  0  0  0  0  0  0  0  0
   -0.0227   -0.4935   -3.0800 O   0  0  0  0  0  0  0  0  0  0  0  0
    0.5665   -3.4332   -3.6485 O   0  0  0  0  0  0  0  0  0  0  0  0
    0.3253   -2.5728    2.1728 O   0  0  0  0  0  0  0  0  0  0  0  0
    2.3673   -2.1392    1.3750 O   0  0  0  0  0  0  0  0  0  0  0  0
    0.5535   -1.0924   -5.2495 O   0  0  0  0  0  0  0  0  0  0  0  0
    3.6653   -1.7717   -3.3843 O   0  0  0  0  0  0  0  0  0  0  0  0
    2.2050   -0.0430   -2.7416 O   0  0  0  0  0  0  0  0  0  0  0  0
  2  1  1  0
  4  1  1  0
  4 12  1  1
  5  3  1  6
  6  2  1  0
  7  5  1  0
  7 15  1  1
  8  4  1  0
  9 20  1  1
 10  7  1  0
 10  9  1  0
 10 11  1  0
 10 18  1  6
 13  3  1  0
 14  6  2  0
 16  8  2  0
 17  8  1  0
 19  5  1  0
 19  9  1  0
 20  6  1  0
M  END
>  <DRUGBANK_ID>  (1) 
DB03371

>  <SECONDARY_ACCESSION_NUMBERS>  (1) 
EXPT00553

>  <COMMON_NAME>  (1) 
Modified Ribosylated Glutamyl Ester

$$$$
