
     RDKit          3D

 18 19  0  0  0  0  0  0  0  0999 V2000
    0.8991   -0.1002    0.0707 N   0  0  0  0  0  0  0  0  0  0  0  0
    0.2812   -1.3339    0.0397 C   0  0  0  0  0  0  0  0  0  0  0  0
   -0.9343   -1.5225    0.0706 O   0  0  0  0  0  0  0  0  0  0  0  0
    1.1115   -2.4242   -0.1870 N   0  0  0  0  0  0  0  0  0  0  0  0
    2.4754   -2.5437   -0.1360 C   0  0  0  0  0  0  0  0  0  0  0  0
    3.2018   -1.6996    0.5376 N   0  0  0  0  0  0  0  0  0  0  0  0
    4.5105   -2.1288    0.4194 C   0  0  0  0  0  0  0  0  0  0  0  0
    4.5604   -3.4431   -0.3622 C   0  0  0  0  0  0  0  0  0  0  0  0
    3.1540   -3.5656   -0.7600 N   0  0  0  0  0  0  0  0  0  0  0  0
    5.4941   -1.5325    0.8491 O   0  0  0  0  0  0  0  0  0  0  0  0
    2.8407   -4.1027   -2.0746 C   0  0  0  0  0  0  0  0  0  0  0  0
    0.2083    1.1333    0.1215 C   0  0  0  0  0  0  0  0  0  0  0  0
    0.6466    2.2199   -0.6460 C   0  0  0  0  0  0  0  0  0  0  0  0
   -0.0663    3.4276   -0.6157 C   0  0  0  0  0  0  0  0  0  0  0  0
   -1.1835    3.5799    0.2039 C   0  0  0  0  0  0  0  0  0  0  0  0
   -1.5926    2.5150    1.0012 C   0  0  0  0  0  0  0  0  0  0  0  0
   -0.9069    1.2973    0.9491 C   0  0  0  0  0  0  0  0  0  0  0  0
    0.4237    4.7468   -1.6120 Cl  0  0  0  0  0  0  0  0  0  0  0  0
  1  2  1  0
  1 12  1  0
  2  3  2  0
  2  4  1  0
  4  5  1  0
  5  6  2  0
  5  9  1  0
  6  7  1  0
  7  8  1  0
  7 10  2  0
  8  9  1  0
  9 11  1  0
 12 13  2  0
 12 17  1  0
 13 14  1  0
 14 15  2  0
 14 18  1  0
 15 16  1  0
 16 17  2  0
M  END
>  <DRUGBANK_ID>  (1) 
DB12931

>  <COMMON_NAME>  (1) 
Fenobam

>  <CAS_NUMBER>  (1) 
57653-26-6

>  <UNII>  (1) 
078RCY7I27

>  <SYNONYMS>  (1) 
Fenobam; Fenobam anhydrous; Fenobamum

$$$$
