OFF
     RDKit          3D

 33 34  0  0  0  0  0  0  0  0999 V2000
  -12.2985   -0.9584   -7.2619 C   0  0  0  0  0  0  0  0  0  0  0  0
  -13.3048   -0.9560   -8.2387 C   0  0  0  0  0  0  0  0  0  0  0  0
  -13.7877    0.2542   -8.7260 C   0  0  0  0  0  0  0  0  0  0  0  0
  -14.7705    0.3244   -9.6661 O   0  0  0  0  0  0  0  0  0  0  0  0
  -13.2786    1.4538   -8.2614 C   0  0  0  0  0  0  0  0  0  0  0  0
  -12.2795    1.4482   -7.2917 C   0  0  0  0  0  0  0  0  0  0  0  0
  -11.7724    0.2452   -6.7720 C   0  0  0  0  0  0  0  0  0  0  0  0
  -10.7545    0.2101   -5.7048 C   0  0  0  0  0  0  0  0  0  0  0  0
  -10.2673    1.3230   -5.1449 C   0  0  0  0  0  0  0  0  0  0  0  0
   -9.3818    1.4044   -3.9856 C   0  0  0  0  0  0  0  0  0  0  0  0
   -9.2542    2.4631   -3.3974 O   0  0  0  0  0  0  0  0  0  0  0  0
   -8.6898    0.2615   -3.7384 O   0  0  0  0  0  0  0  0  0  0  0  0
   -7.6797    0.3214   -2.6865 C   0  0  1  0  0  0  0  0  0  0  0  0
   -6.3767    0.9481   -3.2000 C   0  0  0  0  0  0  0  0  0  0  0  0
   -6.5053    2.3946   -3.5729 C   0  0  0  0  0  0  0  0  0  0  0  0
   -7.0798    2.5748   -4.7789 O   0  0  0  0  0  0  0  0  0  0  0  0
   -6.2479    3.3351   -2.8412 O   0  0  0  0  0  0  0  0  0  0  0  0
   -8.2253    0.8614   -1.3275 C   0  0  2  0  0  0  0  0  0  0  0  0
   -7.6427    0.1799   -0.0826 C   0  0  0  0  0  0  0  0  0  0  0  0
   -8.5484    0.0503    0.9168 O   0  0  0  0  0  0  0  0  0  0  0  0
   -6.5212   -0.2806    0.0337 O   0  0  0  0  0  0  0  0  0  0  0  0
   -9.6830    0.7730   -1.2749 O   0  0  0  0  0  0  0  0  0  0  0  0
  -10.4357   -0.3499   -1.3647 C   0  0  0  0  0  0  0  0  0  0  0  0
  -11.6541   -0.2829   -1.4570 O   0  0  0  0  0  0  0  0  0  0  0  0
   -9.7308   -1.6453   -1.3612 C   0  0  0  0  0  0  0  0  0  0  0  0
  -10.3822   -2.8125   -1.4094 C   0  0  0  0  0  0  0  0  0  0  0  0
   -9.6501   -4.0860   -1.3968 C   0  0  0  0  0  0  0  0  0  0  0  0
   -8.5713   -4.3237   -0.5260 C   0  0  0  0  0  0  0  0  0  0  0  0
   -7.9154   -5.5598   -0.5169 C   0  0  0  0  0  0  0  0  0  0  0  0
   -8.3444   -6.5618   -1.3785 C   0  0  0  0  0  0  0  0  0  0  0  0
   -7.7592   -7.7927   -1.4013 O   0  0  0  0  0  0  0  0  0  0  0  0
   -9.4018   -6.3399   -2.2525 C   0  0  0  0  0  0  0  0  0  0  0  0
  -10.0569   -5.1064   -2.2600 C   0  0  0  0  0  0  0  0  0  0  0  0
  1  7  2  0
  1  2  1  0
  2  3  2  0
  3  5  1  0
  3  4  1  0
  5  6  2  0
  6  7  1  0
  7  8  1  0
  8  9  2  0
  9 10  1  0
 10 11  2  0
 10 12  1  0
 13 12  1  0
 13 14  1  6
 14 15  1  0
 15 17  2  0
 15 16  1  0
 18 22  1  6
 18 19  1  0
 18 13  1  0
 19 21  2  0
 19 20  1  0
 22 23  1  0
 23 25  1  0
 23 24  2  0
 25 26  2  0
 26 27  1  0
 27 33  1  0
 27 28  2  0
 28 29  1  0
 29 30  2  0
 30 32  1  0
 30 31  1  0
 32 33  2  0
M  END
>  <DRUGBANK_ID>  (1) 
DB08322

>  <COMMON_NAME>  (1) 
2-DEOXY-3,4-BIS-O-[3-(4-HYDROXYPHENYL)PROPANOYL]-L-THREO-PENTARIC ACID

>  <UNII>  (1) 
66G69TD43K

$$$$
