
     RDKit          3D

 10 11  0  0  0  0  0  0  0  0999 V2000
    1.3435   -0.3872    0.2885 C   0  0  0  0  0  0  0  0  0  0  0  0
   -1.2413   -2.5795   -1.2275 C   0  0  0  0  0  0  0  0  0  0  0  0
   -1.9547   -2.0142   -0.0078 C   0  0  0  0  0  0  0  0  0  0  0  0
   -0.1868   -0.5375   -2.2646 C   0  0  0  0  0  0  0  0  0  0  0  0
   -1.3762    0.4690   -0.1461 C   0  0  0  0  0  0  0  0  0  0  0  0
    0.0457   -1.7472   -1.3388 C   0  0  1  0  0  0  0  0  0  0  0  0
   -1.0401   -0.8917    0.4865 C   0  0  2  0  0  0  0  0  0  0  0  0
   -0.9602    0.6307   -1.6217 C   0  0  1  0  0  0  0  0  0  0  0  0
    0.2834   -1.3641    0.0633 N   0  0  0  0  0  0  0  0  0  0  0  0
   -0.2188    1.8576   -1.7880 O   0  0  0  0  0  0  0  0  0  0  0  0
  3  2  1  0
  6  2  1  1
  6  4  1  0
  7  3  1  6
  7  5  1  0
  8  4  1  0
  8  5  1  0
  8 10  1  1
  9  1  1  0
  9  6  1  0
  9  7  1  0
M  END
>  <DRUGBANK_ID>  (1) 
DB04026

>  <SECONDARY_ACCESSION_NUMBERS>  (1) 
EXPT02685

>  <COMMON_NAME>  (1) 
Pseudotropine

>  <CAS_NUMBER>  (1) 
135-97-7

>  <UNII>  (1) 
L9Q7Z9D09L

>  <SYNONYMS>  (1) 
(3-exo)-8-methyl-8-azabicyclo[3.2.1]octan-3-ol; 1αH,5αH-tropan-3β-ol; 3-pseudotropanol; 3β-tropanol; exo-8-methyl-8-azabicyclo[3.2.1]octan-3-ol; pseudotropanol; ψ-tropine

$$$$
