FL8
     RDKit          3D

 22 24  0  0  0  0  0  0  0  0999 V2000
   -2.8661    0.3719   -0.0054 Br  0  0  0  0  0  0  0  0  0  0  0  0
    2.8731    0.4014   -0.0200 Br  0  0  0  0  0  0  0  0  0  0  0  0
    0.6907   -4.7449    1.1395 O   0  0  0  0  0  0  0  0  0  0  0  0
    0.0327   -4.1133    0.0859 C   0  0  0  0  0  0  0  0  0  0  0  0
   -0.5535   -4.7554   -0.9435 C   0  0  0  0  0  0  0  0  0  0  0  0
   -0.5546   -6.2322   -0.9411 C   0  0  0  0  0  0  0  0  0  0  0  0
    0.0678   -6.8958    0.1987 C   0  0  0  0  0  0  0  0  0  0  0  0
    0.0342   -8.2888    0.2860 C   0  0  0  0  0  0  0  0  0  0  0  0
    0.4185   -8.8945    1.4685 C   0  0  0  0  0  0  0  0  0  0  0  0
    0.8923   -8.1299    2.5309 C   0  0  0  0  0  0  0  0  0  0  0  0
    1.1129   -6.7557    2.3530 C   0  0  0  0  0  0  0  0  0  0  0  0
    0.6330   -6.1202    1.2066 C   0  0  0  0  0  0  0  0  0  0  0  0
    0.0298   -2.6342    0.1388 C   0  0  0  0  0  0  0  0  0  0  0  0
   -1.1855   -1.9218    0.1325 C   0  0  0  0  0  0  0  0  0  0  0  0
   -1.1976   -0.5264    0.0742 C   0  0  0  0  0  0  0  0  0  0  0  0
    0.0013    0.1848    0.0525 C   0  0  0  0  0  0  0  0  0  0  0  0
    1.2124   -0.5141    0.0473 C   0  0  0  0  0  0  0  0  0  0  0  0
    1.2290   -1.9156    0.0838 C   0  0  0  0  0  0  0  0  0  0  0  0
    0.0059    1.5548    0.0410 O   0  0  0  0  0  0  0  0  0  0  0  0
   -1.2184   -4.1355   -2.1313 C   0  0  0  0  0  0  0  0  0  0  0  0
   -1.1010   -6.8796   -1.8349 O   0  0  0  0  0  0  0  0  0  0  0  0
    0.3132  -10.2501    1.5390 O   0  0  0  0  0  0  0  0  0  0  0  0
  1 15  1  0
  2 17  1  0
  3  4  1  0
  3 12  1  0
  4  5  2  0
  4 13  1  0
  5  6  1  0
  5 20  1  0
  6  7  1  0
  6 21  2  0
  7  8  1  0
  7 12  2  0
  8  9  2  0
  9 10  1  0
  9 22  1  0
 10 11  2  0
 11 12  1  0
 13 14  2  0
 13 18  1  0
 14 15  1  0
 15 16  2  0
 16 17  1  0
 16 19  1  0
 17 18  2  0
M  END
>  <DRUGBANK_ID>  (1) 
DB01838

>  <SECONDARY_ACCESSION_NUMBERS>  (1) 
EXPT01439

>  <COMMON_NAME>  (1) 
6,4'-Dihydroxy-3-Methyl-3',5'-Dibromoflavone

>  <UNII>  (1) 
41L058NWH3

$$$$
