849
     RDKit          3D

 18 19  0  0  1  0  0  0  0  0999 V2000
   -1.3530    2.1998    0.0173 O   0  0  0  0  0  0  0  0  0  0  0  0
    2.8602    0.0792   -0.3215 O   0  0  0  0  0  0  0  0  0  0  0  0
   -0.7910   -2.3545    0.0252 O   0  0  0  0  0  0  0  0  0  0  0  0
   -1.0982   -0.0742    0.0197 N   0  0  0  0  0  0  0  0  0  0  0  0
    1.0118   -1.0527    0.2253 N   0  0  0  0  0  0  0  0  0  0  0  0
    0.9104    1.3992    0.3462 C   0  0  0  0  0  0  0  0  0  0  0  0
    1.0912    1.6334    1.8731 C   0  0  0  0  0  0  0  0  0  0  0  0
    1.3983    2.5610   -0.5355 C   0  0  0  0  0  0  0  0  0  0  0  0
   -0.6037    1.2211    0.1011 C   0  0  0  0  0  0  0  0  0  0  0  0
    1.6801    0.1172    0.0226 C   0  0  0  0  0  0  0  0  0  0  0  0
    2.5534    1.7519    2.3215 C   0  0  0  0  0  0  0  0  0  0  0  0
   -0.3328   -1.2206    0.1015 C   0  0  0  0  0  0  0  0  0  0  0  0
    1.3168    2.4031   -1.9289 C   0  0  0  0  0  0  0  0  0  0  0  0
    1.8760    3.7872   -0.0385 C   0  0  0  0  0  0  0  0  0  0  0  0
   -2.5236   -0.2596   -0.2120 C   0  0  0  0  0  0  0  0  0  0  0  0
    1.7445    3.4095   -2.7874 C   0  0  0  0  0  0  0  0  0  0  0  0
    2.3166    4.7897   -0.8987 C   0  0  0  0  0  0  0  0  0  0  0  0
    2.2668    4.5918   -2.2724 C   0  0  0  0  0  0  0  0  0  0  0  0
  1  9  2  0
  2 10  2  0
  3 12  2  0
  4  9  1  0
  4 12  1  0
  4 15  1  0
  5 10  1  0
  5 12  1  0
  6  7  1  0
  6  8  1  0
  6  9  1  0
  6 10  1  0
  7 11  1  0
  8 13  2  0
  8 14  1  0
 13 16  1  0
 14 17  2  0
 16 18  2  0
 17 18  1  0
M  END
>  <DRUGBANK_ID>  (1) 
DB00849

>  <SECONDARY_ACCESSION_NUMBERS>  (1) 
APRD00047

>  <COMMON_NAME>  (1) 
Methylphenobarbital

>  <CAS_NUMBER>  (1) 
115-38-8

>  <UNII>  (1) 
5NC67NU76B

>  <SYNONYMS>  (1) 
1-Methylphenobarbital; 5-ethyl-1-methyl-5-phenyl-2,4,6(1H,3H,5H)-pyrimidinetrione; 5-Ethyl-1-methyl-5-phenyl-pyrimidine-2,4,6-trione; 5-ethyl-1-methyl-5-phenylbarbituric acid; Enphenemal; Mephobarbital; Mephobarbitone; Méthylphénobarbital; Methylphenobarbital; Methylphenobarbitalum; Methylphenobarbitone; Metilfenobarbital; Metilfenobarbitale; N-Methylphenobarbital

$$$$
