
     RDKit          3D

  4  3  0  0  0  0  0  0  0  0999 V2000
    0.9235    0.0737    0.0219 C   0  0  0  0  0  0  0  0  0  0  0  0
    0.4128   -0.6063    1.2805 C   0  0  0  0  0  0  0  0  0  0  0  0
   -0.3042    0.1141    2.0292 O   0  0  0  0  0  0  0  0  0  0  0  0
    0.7726   -1.8092    1.4163 O   0  0  0  0  0  0  0  0  0  0  0  0
  2  1  1  0
  3  2  1  0
  4  2  2  0
M  CHG  1   3  -1
M  END
>  <DRUGBANK_ID>  (1) 
DB14511

>  <COMMON_NAME>  (1) 
Acetate

>  <CAS_NUMBER>  (1) 
71-50-1

>  <UNII>  (1) 
569DQM74SC

>  <SYNONYMS>  (1) 
Acetate; Acetate anion; Acetate ion; Acetate ion (1-); Acetic acid anion; Acetic acid, ion(1-); Acetoxy ion; Azetat

$$$$
