
     RDKit          3D

 22 25  0  0  0  0  0  0  0  0999 V2000
    3.1218   -1.3636   -0.0334 O   0  0  0  0  0  0  0  0  0  0  0  0
    2.1782   -0.3386   -0.0437 C   0  0  0  0  0  0  0  0  0  0  0  0
    2.6917    0.8816   -0.0590 C   0  0  0  0  0  0  0  0  0  0  0  0
    4.1562    0.8296   -0.0747 C   0  0  2  0  0  0  0  0  0  0  0  0
    4.3484   -0.6456    0.3020 C   0  0  0  0  0  0  0  0  0  0  0  0
    1.8875    2.0838   -0.0338 C   0  0  0  0  0  0  0  0  0  0  0  0
    0.4128    1.9073    0.0545 C   0  0  0  0  0  0  0  0  0  0  0  0
   -0.1511    0.5322    0.0040 C   0  0  0  0  0  0  0  0  0  0  0  0
   -1.5488    0.3725    0.0080 C   0  0  0  0  0  0  0  0  0  0  0  0
   -2.4771    1.5742    0.0666 C   0  0  0  0  0  0  0  0  0  0  0  0
   -3.9210    1.2980   -0.2905 C   0  0  0  0  0  0  0  0  0  0  0  0
   -4.3648    0.0543    0.4444 C   0  0  0  0  0  0  0  0  0  0  0  0
   -3.5555   -1.1773   -0.0250 C   0  0  0  0  0  0  0  0  0  0  0  0
   -2.0527   -0.9344   -0.0066 C   0  0  0  0  0  0  0  0  0  0  0  0
   -1.1650   -2.0334   -0.0876 C   0  0  0  0  0  0  0  0  0  0  0  0
    0.2144   -1.8675   -0.0921 C   0  0  0  0  0  0  0  0  0  0  0  0
    0.7389   -0.5795   -0.0437 C   0  0  0  0  0  0  0  0  0  0  0  0
   -0.2535    2.9296    0.1799 O   0  0  0  0  0  0  0  0  0  0  0  0
    2.3696    3.2116   -0.0568 O   0  0  0  0  0  0  0  0  0  0  0  0
   -3.9174   -1.4842   -1.4905 C   0  0  0  0  0  0  0  0  0  0  0  0
   -3.9041   -2.3201    0.9425 C   0  0  0  0  0  0  0  0  0  0  0  0
    4.7883    1.7993    0.9068 C   0  0  0  0  0  0  0  0  0  0  0  0
  1  2  1  0
  1  5  1  0
  2  3  2  0
  2 17  1  0
  3  4  1  0
  3  6  1  0
  4  5  1  0
  4 22  1  1
  6  7  1  0
  6 19  2  0
  7  8  1  0
  7 18  2  0
  8  9  2  0
  8 17  1  0
  9 10  1  0
  9 14  1  0
 10 11  1  0
 11 12  1  0
 12 13  1  0
 13 14  1  0
 13 20  1  0
 13 21  1  0
 14 15  2  0
 15 16  1  0
 16 17  2  0
M  END
>  <DRUGBANK_ID>  (1) 
DB15579

>  <COMMON_NAME>  (1) 
Cryptotanshinone

>  <CAS_NUMBER>  (1) 
35825-57-1

>  <UNII>  (1) 
5E9SXT166N

>  <SYNONYMS>  (1) 
Cryptotanshinon; Cryptotanshinone; Tanshinone C

$$$$
