
     RDKit          3D

 20 21  0  0  0  0  0  0  0  0999 V2000
    0.9629   -0.0846   -0.2060 C   0  0  0  0  0  0  0  0  0  0  0  0
    0.1938   -1.3759   -0.3323 C   0  0  0  0  0  0  0  0  0  0  0  0
    0.3701    1.0054   -0.1763 O   0  0  0  0  0  0  0  0  0  0  0  0
    2.3154   -0.0936   -0.1200 N   0  0  0  0  0  0  0  0  0  0  0  0
    3.1699   -1.1596   -0.4167 O   0  0  0  0  0  0  0  0  0  0  0  0
   -0.9551   -1.7191    1.0290 S   0  0  0  0  0  0  0  0  0  0  0  0
   -1.6311   -3.0309    0.7452 O   0  0  0  0  0  0  0  0  0  0  0  0
    0.2268   -1.9413    2.4558 C   0  0  0  0  0  0  0  0  0  0  0  0
    1.1894   -3.1091    2.2181 C   0  0  0  0  0  0  0  0  0  0  0  0
    2.5594   -2.9001    1.9972 C   0  0  0  0  0  0  0  0  0  0  0  0
    3.4765   -3.9403    1.9903 C   0  0  0  0  0  0  0  0  0  0  0  0
    3.0244   -5.2428    2.1122 C   0  0  0  0  0  0  0  0  0  0  0  0
    1.6598   -5.4935    2.2563 C   0  0  0  0  0  0  0  0  0  0  0  0
    0.7433   -4.4373    2.2921 C   0  0  0  0  0  0  0  0  0  0  0  0
    0.8522   -0.6232    2.9591 C   0  0  0  0  0  0  0  0  0  0  0  0
    0.2692    0.6138    2.6583 C   0  0  0  0  0  0  0  0  0  0  0  0
    0.9288    1.8126    2.9221 C   0  0  0  0  0  0  0  0  0  0  0  0
    2.1386    1.8107    3.6008 C   0  0  0  0  0  0  0  0  0  0  0  0
    2.6670    0.6101    4.0522 C   0  0  0  0  0  0  0  0  0  0  0  0
    2.0205   -0.5899    3.7507 C   0  0  0  0  0  0  0  0  0  0  0  0
  1  2  1  0
  1  3  2  0
  1  4  1  0
  2  6  1  0
  4  5  1  0
  6  7  2  0
  6  8  1  0
  8  9  1  0
  8 15  1  0
  9 10  2  0
  9 14  1  0
 10 11  1  0
 11 12  2  0
 12 13  1  0
 13 14  2  0
 15 16  2  0
 15 20  1  0
 16 17  1  0
 17 18  2  0
 18 19  1  0
 19 20  2  0
M  END
>  <DRUGBANK_ID>  (1) 
DB08925

>  <COMMON_NAME>  (1) 
Adrafinil

>  <CAS_NUMBER>  (1) 
63547-13-7

>  <UNII>  (1) 
BI81Z4542G

>  <SYNONYMS>  (1) 
Adrafinil; Adrafinilum

$$$$
