
     RDKit          3D

 20 22  0  0  0  0  0  0  0  0999 V2000
    1.5784   -1.0522   -0.0018 N   0  0  0  0  0  0  0  0  0  0  0  0
    0.2432   -0.7076   -0.0071 C   0  0  0  0  0  0  0  0  0  0  0  0
    2.1183   -2.4013   -0.0064 C   0  0  2  0  0  0  0  0  0  0  0  0
    2.3022    0.1069    0.0067 C   0  0  0  0  0  0  0  0  0  0  0  0
    0.2552    0.6871   -0.0107 C   0  0  0  0  0  0  0  0  0  0  0  0
   -0.9460   -1.4444   -0.0039 C   0  0  0  0  0  0  0  0  0  0  0  0
    2.9005   -2.6162    1.1841 O   0  0  0  0  0  0  0  0  0  0  0  0
    2.9962   -2.7399   -1.2107 C   0  0  1  0  0  0  0  0  0  0  0  0
    1.5288    1.1728   -0.0184 N   0  0  0  0  0  0  0  0  0  0  0  0
   -0.9524    1.3969   -0.0058 C   0  0  0  0  0  0  0  0  0  0  0  0
   -2.1496   -0.7219   -0.0006 C   0  0  0  0  0  0  0  0  0  0  0  0
    4.0963   -3.3491    0.8349 C   0  0  1  0  0  0  0  0  0  0  0  0
    3.9463   -3.7748   -0.6272 C   0  0  1  0  0  0  0  0  0  0  0  0
    2.2472   -3.2439   -2.3143 O   0  0  0  0  0  0  0  0  0  0  0  0
   -2.1531    0.6798   -0.0008 C   0  0  0  0  0  0  0  0  0  0  0  0
   -3.6139   -1.6445    0.0044 Cl  0  0  0  0  0  0  0  0  0  0  0  0
    5.3498   -2.4999    1.0993 C   0  0  0  0  0  0  0  0  0  0  0  0
    3.3532   -5.0805   -0.7292 O   0  0  0  0  0  0  0  0  0  0  0  0
   -3.6193    1.5975    0.0026 Cl  0  0  0  0  0  0  0  0  0  0  0  0
    5.2149   -1.1521    0.6745 O   0  0  0  0  0  0  0  0  0  0  0  0
  1  2  1  0
  1  4  1  0
  2  5  2  0
  2  6  1  0
  3  1  1  6
  3  7  1  0
  3  8  1  0
  4  9  2  0
  5 10  1  0
  5  9  1  0
  6 11  2  0
  7 12  1  0
  8 13  1  0
  8 14  1  6
 10 15  2  0
 11 16  1  0
 11 15  1  0
 12 13  1  0
 12 17  1  6
 13 18  1  1
 15 19  1  0
 17 20  1  0
M  END
>  <DRUGBANK_ID>  (1) 
DB08473

>  <COMMON_NAME>  (1) 
Dichlororibofuranosylbenzimidazole

>  <CAS_NUMBER>  (1) 
53-85-0

>  <UNII>  (1) 
8153319T3Q

>  <SYNONYMS>  (1) 
5,6-dichloro-1-beta-D-ribofuranosyl-1H-benzimidazole

$$$$
