
     RDKit          3D

  9  8  0  0  1  0  0  0  0  0999 V2000
    1.0530    0.0832   -0.0164 C   0  0  0  0  0  0  0  0  0  0  0  0
    0.5463   -0.4802   -1.3341 C   0  0  1  0  0  0  0  0  0  0  0  0
    1.0529   -1.9030   -1.5050 C   0  0  0  0  0  0  0  0  0  0  0  0
   -0.9237   -0.4802   -1.3341 N   0  0  0  0  0  0  0  0  0  0  0  0
    0.2271   -2.8621   -1.6202 O   0  0  0  0  0  0  0  0  0  0  0  0
    2.4490   -2.1606   -1.5360 O   0  0  0  0  0  0  0  0  0  0  0  0
    0.9545   -0.4080    2.9054 O   0  0  0  0  0  0  0  0  0  0  0  0
   -1.2651   -1.0250    1.4623 O   0  0  0  0  0  0  0  0  0  0  0  0
    0.3996   -1.0250    1.4623 Se  0  0  0  0  0  6  0  0  0  0  0  0
  2  1  1  0
  2  4  1  1
  3  2  1  0
  5  3  2  0
  6  3  1  0
  9  1  1  0
  9  7  2  0
  9  8  2  0
M  END
>  <DRUGBANK_ID>  (1) 
DB02442

>  <SECONDARY_ACCESSION_NUMBERS>  (1) 
EXPT02935

>  <COMMON_NAME>  (1) 
Dioxyselenocysteine

$$$$
