
     RDKit          3D

 28 31  0  0  1  0  0  0  0  0999 V2000
   -2.9810    3.4396    2.8144 C   0  0  0  0  0  0  0  0  0  0  0  0
   -1.7916    2.5165    2.8640 C   0  0  0  0  0  0  0  0  0  0  0  0
   -0.8118    2.7346    2.1327 O   0  0  0  0  0  0  0  0  0  0  0  0
   -1.6733    1.4909    3.9695 C   0  0  1  0  0  0  0  0  0  0  0  0
   -2.6540   -0.2144    4.2784 C   0  0  0  0  0  0  0  0  0  0  0  0
   -1.6704   -1.1996    4.8693 C   0  0  0  0  0  0  0  0  0  0  0  0
   -0.8661   -0.0673    4.4837 C   0  0  1  0  0  0  0  0  0  0  0  0
   -1.6997    1.1253    5.3335 C   0  0  1  0  0  0  0  0  0  0  0  0
   -1.0751    1.2659    6.6806 C   0  0  0  0  0  0  0  0  0  0  0  0
    0.4591    1.1090    6.6848 C   0  0  0  0  0  0  0  0  0  0  0  0
    1.0159   -0.1947    5.9886 C   0  0  1  0  0  0  0  0  0  0  0  0
    0.5799   -0.1916    4.5523 C   0  0  1  0  0  0  0  0  0  0  0  0
    0.7336   -1.4998    3.7436 C   0  0  0  0  0  0  0  0  0  0  0  0
    2.1228   -1.7934    3.8907 C   0  0  1  0  0  0  0  0  0  0  0  0
    2.3014   -2.0612    5.6993 C   0  0  0  0  0  0  0  0  0  0  0  0
    2.9245   -2.9534    6.5760 C   0  0  0  0  0  0  0  0  0  0  0  0
    4.0855   -3.5784    5.9870 C   0  0  0  0  0  0  0  0  0  0  0  0
    4.5864   -4.6986    6.3251 O   0  0  0  0  0  0  0  0  0  0  0  0
    4.4388   -2.7519    4.8724 C   0  0  0  0  0  0  0  0  0  0  0  0
    3.9407   -0.9604    5.2362 C   0  0  0  0  0  0  0  0  0  0  0  0
    2.5291   -0.6622    6.1882 C   0  0  1  0  0  0  0  0  0  0  0  0
    2.8297   -0.3699    7.6740 C   0  0  0  0  0  0  0  0  0  0  0  0
    2.6851   -2.6456    2.7755 C   0  0  0  0  0  0  0  0  0  0  0  0
    2.4455   -3.9232    3.1160 F   0  0  0  0  0  0  0  0  0  0  0  0
    2.3117   -2.5008    1.5025 F   0  0  0  0  0  0  0  0  0  0  0  0
    3.9962   -2.2883    2.7132 F   0  0  0  0  0  0  0  0  0  0  0  0
   -3.3398    1.7448    5.2919 C   0  0  0  0  0  0  0  0  0  0  0  0
   -1.2935    2.8700    4.7817 O   0  0  0  0  0  0  0  0  0  0  0  0
  1  2  1  0
  2  3  2  0
  4  5  1  0
  4  8  1  0
  4 28  1  1
  4  2  1  0
  5  6  1  0
  7  6  1  1
  7  8  1  0
  7 12  1  0
  8  9  1  0
  8 27  1  1
  9 10  1  0
 11 10  1  6
 11 12  1  0
 11 21  1  0
 12 13  1  1
 13 14  1  0
 14 15  1  0
 14 23  1  6
 15 16  2  0
 15 21  1  0
 16 17  1  0
 17 18  2  0
 17 19  1  0
 19 20  1  0
 20 21  1  0
 21 22  1  1
 23 24  1  0
 23 25  1  0
 23 26  1  0
M  END
>  <DRUGBANK_ID>  (1) 
DB13610

>  <COMMON_NAME>  (1) 
Flumedroxone

>  <CAS_NUMBER>  (1) 
15687-21-5

>  <UNII>  (1) 
K80185F39X

>  <SYNONYMS>  (1) 
Flumedroxone

$$$$
