708
     RDKit          3D

 27 29  0  0  0  0  0  0  0  0999 V2000
   -0.7717   -0.0271    0.9371 S   0  0  0  0  0  0  0  0  0  0  0  0
   -2.8785    1.3226   -4.7166 O   0  0  0  0  0  0  0  0  0  0  0  0
   -5.7760    0.5807   -0.0079 O   0  0  0  0  0  0  0  0  0  0  0  0
   -2.2331    2.2855   -1.1027 N   0  0  0  0  0  0  0  0  0  0  0  0
   -5.7972    0.1669   -2.3044 N   0  0  0  0  0  0  0  0  0  0  0  0
   -4.4510    0.8836   -2.5543 C   0  0  0  0  0  0  0  0  0  0  0  0
   -4.5753    2.3744   -2.0079 C   0  0  0  0  0  0  0  0  0  0  0  0
   -3.3440    0.1887   -1.7511 C   0  0  0  0  0  0  0  0  0  0  0  0
   -3.2685    3.1453   -1.6592 C   0  0  0  0  0  0  0  0  0  0  0  0
   -2.0852    1.0206   -1.8413 C   0  0  0  0  0  0  0  0  0  0  0  0
   -4.0665    0.7732   -4.1373 C   0  0  0  0  0  0  0  0  0  0  0  0
   -0.9383    2.9827   -1.0963 C   0  0  0  0  0  0  0  0  0  0  0  0
   -6.4014   -0.4975   -3.4188 C   0  0  0  0  0  0  0  0  0  0  0  0
   -6.3465    0.0919   -1.0140 C   0  0  0  0  0  0  0  0  0  0  0  0
   -0.1500    2.6461    0.1752 C   0  0  0  0  0  0  0  0  0  0  0  0
   -7.6497   -0.6377   -0.7402 C   0  0  0  0  0  0  0  0  0  0  0  0
   -5.8119   -1.6279   -3.9950 C   0  0  0  0  0  0  0  0  0  0  0  0
   -7.5355    0.0349   -4.0297 C   0  0  0  0  0  0  0  0  0  0  0  0
    0.2713    1.2069    0.3148 C   0  0  0  0  0  0  0  0  0  0  0  0
   -2.9064    2.7201   -4.6799 C   0  0  0  0  0  0  0  0  0  0  0  0
   -8.8825    0.0229   -1.3140 C   0  0  0  0  0  0  0  0  0  0  0  0
   -6.3754   -2.2259   -5.1250 C   0  0  0  0  0  0  0  0  0  0  0  0
   -8.2230   -0.6982   -4.9989 C   0  0  0  0  0  0  0  0  0  0  0  0
    1.5179    0.6685    0.0732 C   0  0  0  0  0  0  0  0  0  0  0  0
   -7.6179   -1.8028   -5.5842 C   0  0  0  0  0  0  0  0  0  0  0  0
    1.4936   -0.7552    0.0459 C   0  0  0  0  0  0  0  0  0  0  0  0
    0.2218   -1.2486    0.2407 C   0  0  0  0  0  0  0  0  0  0  0  0
  1 19  1  0
  1 27  1  0
  2 11  1  0
  2 20  1  0
  3 14  2  0
  4  9  1  0
  4 10  1  0
  4 12  1  0
  5  6  1  0
  5 13  1  0
  5 14  1  0
  6  7  1  0
  6  8  1  0
  6 11  1  0
  7  9  1  0
  8 10  1  0
 12 15  1  0
 13 17  2  0
 13 18  1  0
 14 16  1  0
 15 19  1  0
 16 21  1  0
 17 22  1  0
 18 23  2  0
 19 24  2  0
 22 25  2  0
 23 25  1  0
 24 26  1  0
 26 27  2  0
M  END
>  <DRUGBANK_ID>  (1) 
DB00708

>  <SECONDARY_ACCESSION_NUMBERS>  (1) 
APRD00671; DB05563

>  <COMMON_NAME>  (1) 
Sufentanil

>  <CAS_NUMBER>  (1) 
56030-54-7

>  <UNII>  (1) 
AFE2YW0IIZ

>  <SYNONYMS>  (1) 
N-(4-(Methoxymethyl)-1-(2-(2-thienyl)ethyl)-4-piperidinyl)-N-phenylpropanamide; N-(4-(Methoxymethyl)-1-(2-(2-thienyl)ethyl)-4-piperidyl)propionanilide; Sufentanil; Sufentanilo; Sufentanilum; Sufentanyl

$$$$
