565
     RDKit          3D

 24 25  0  0  0  0  0  0  0  0999 V2000
    0.6766   -1.0733   -0.0040 C   0  0  0  0  0  0  0  0  0  0  0  0
    1.5980   -0.0295    0.0051 C   0  0  0  0  0  0  0  0  0  0  0  0
    1.1865    1.3102    0.0546 C   0  0  0  0  0  0  0  0  0  0  0  0
   -0.1891    1.5738    0.1381 C   0  0  0  0  0  0  0  0  0  0  0  0
   -1.1114    0.5390    0.0625 C   0  0  0  0  0  0  0  0  0  0  0  0
   -0.6800   -0.7776    0.0048 C   0  0  0  0  0  0  0  0  0  0  0  0
   -2.4180    0.8326    0.0396 F   0  0  0  0  0  0  0  0  0  0  0  0
    2.9031   -0.3334   -0.0264 F   0  0  0  0  0  0  0  0  0  0  0  0
    2.2019    2.4366    0.0424 C   0  0  0  0  0  0  0  0  0  0  0  0
    2.1486    3.3700   -1.2044 C   0  0  2  0  0  0  0  0  0  0  0  0
    3.2249    4.4827   -1.1792 C   0  0  0  0  0  0  0  0  0  0  0  0
    4.6495    3.9361   -1.1961 C   0  0  0  0  0  0  0  0  0  0  0  0
    5.3758    4.1461   -2.3717 N   0  0  0  0  0  0  0  0  0  0  0  0
    0.8305    4.0373   -1.3207 N   0  0  0  0  0  0  0  0  0  0  0  0
    5.0654    3.2638   -0.2550 O   0  0  0  0  0  0  0  0  0  0  0  0
    5.6619    5.5267   -2.7889 C   0  0  0  0  0  0  0  0  0  0  0  0
    6.9733    6.0704   -2.1966 C   0  0  0  0  0  0  0  0  0  0  0  0
    8.1938    5.7844   -3.0760 C   0  0  0  0  0  0  0  0  0  0  0  0
    8.2713    4.4276   -3.5583 N   0  0  0  0  0  0  0  0  0  0  0  0
    7.8106    3.4068   -2.7514 C   0  0  0  0  0  0  0  0  0  0  0  0
    6.2984    3.0950   -2.8872 C   0  0  1  0  0  0  0  0  0  0  0  0
    5.9969    1.6924   -2.3556 C   0  0  0  0  0  0  0  0  0  0  0  0
    8.5824    2.8233   -1.9896 O   0  0  0  0  0  0  0  0  0  0  0  0
   -1.5742   -1.7740   -0.0262 F   0  0  0  0  0  0  0  0  0  0  0  0
  1  2  2  0
  1  6  1  0
  2  8  1  0
  2  3  1  0
  3  9  1  0
  3  4  2  0
  4  5  1  0
  5  6  2  0
  5  7  1  0
  6 24  1  0
  9 10  1  0
 10 14  1  1
 10 11  1  0
 11 12  1  0
 12 13  1  0
 12 15  2  0
 13 16  1  0
 13 21  1  0
 16 17  1  0
 17 18  1  0
 18 19  1  0
 19 20  1  0
 20 23  2  0
 20 21  1  0
 21 22  1  1
M  END
>  <DRUGBANK_ID>  (1) 
DB07154

>  <COMMON_NAME>  (1) 
(3R)-4-[(3R)-3-AMINO-4-(2,4,5-TRIFLUOROPHENYL)BUTANOYL]-3-METHYL-1,4-DIAZEPAN-2-ONE

$$$$
