H64
     RDKit          3D

 28 31  0  0  0  0  0  0  0  0999 V2000
    1.0158   -0.0742    0.0684 C   0  0  0  0  0  0  0  0  0  0  0  0
    0.6044    1.1295    0.8997 C   0  0  0  0  0  0  0  0  0  0  0  0
    1.3144    2.3386    0.2627 C   0  0  0  0  0  0  0  0  0  0  0  0
   -0.8603    1.0783    0.9527 N   0  0  0  0  0  0  0  0  0  0  0  0
   -1.4867    2.0792    1.7786 C   0  0  0  0  0  0  0  0  0  0  0  0
   -1.2556    3.4539    1.2328 C   0  0  0  0  0  0  0  0  0  0  0  0
   -1.5819    3.6381   -0.2463 C   0  0  0  0  0  0  0  0  0  0  0  0
   -2.9901    3.8689   -0.3495 N   0  0  0  0  0  0  0  0  0  0  0  0
   -3.8284    2.9725   -0.9457 C   0  0  0  0  0  0  0  0  0  0  0  0
   -3.4973    1.9056   -1.6858 N   0  0  0  0  0  0  0  0  0  0  0  0
   -4.5883    1.2624   -2.1394 C   0  0  0  0  0  0  0  0  0  0  0  0
   -5.8793    1.5725   -1.8973 N   0  0  0  0  0  0  0  0  0  0  0  0
   -6.1554    2.6459   -1.1146 C   0  0  0  0  0  0  0  0  0  0  0  0
   -7.4837    2.9377   -0.8855 N   0  0  0  0  0  0  0  0  0  0  0  0
   -5.0969    3.4171   -0.6004 C   0  0  0  0  0  0  0  0  0  0  0  0
   -4.9978    4.5777    0.1798 N   0  0  0  0  0  0  0  0  0  0  0  0
   -3.6999    4.8647    0.2710 C   0  0  0  0  0  0  0  0  0  0  0  0
   -3.0483    6.3586    1.0194 S   0  0  0  0  0  0  0  0  0  0  0  0
   -1.2186    6.3122    1.3127 C   0  0  0  0  0  0  0  0  0  0  0  0
   -0.3104    6.3774    0.2220 C   0  0  0  0  0  0  0  0  0  0  0  0
    1.0561    6.1895    0.4472 C   0  0  0  0  0  0  0  0  0  0  0  0
    2.0431    6.0018   -0.4854 O   0  0  0  0  0  0  0  0  0  0  0  0
    3.2107    6.2481    0.3365 C   0  0  0  0  0  0  0  0  0  0  0  0
    2.9327    6.0302    1.7324 O   0  0  0  0  0  0  0  0  0  0  0  0
    1.5737    6.1054    1.7159 C   0  0  0  0  0  0  0  0  0  0  0  0
    0.7574    6.0725    2.8182 C   0  0  0  0  0  0  0  0  0  0  0  0
   -0.6402    6.1720    2.6223 C   0  0  0  0  0  0  0  0  0  0  0  0
   -1.6762    5.9164    4.2028 Br  0  0  0  0  0  0  0  0  0  0  0  0
  1  2  1  0
  2  3  1  0
  2  4  1  0
  4  5  1  0
  5  6  1  0
  6  7  1  0
  7  8  1  0
  8  9  1  0
  8 17  1  0
  9 10  2  0
  9 15  1  0
 10 11  1  0
 11 12  2  0
 12 13  1  0
 13 14  1  0
 13 15  2  0
 15 16  1  0
 16 17  2  0
 17 18  1  0
 18 19  1  0
 19 20  2  0
 19 27  1  0
 20 21  1  0
 21 22  1  0
 21 25  2  0
 22 23  1  0
 23 24  1  0
 24 25  1  0
 25 26  1  0
 26 27  2  0
 27 28  1  0
M  END
>  <DRUGBANK_ID>  (1) 
DB07877

>  <COMMON_NAME>  (1) 
8-(6-BROMO-BENZO[1,3]DIOXOL-5-YLSULFANYL)-9-(3-ISOPROPYLAMINO-PROPYL)-ADENINE

$$$$
