
     RDKit          3D

 33 36  0  0  0  0  0  0  0  0999 V2000
    5.9663    9.2681    0.2615 C   0  0  0  0  0  0  0  0  0  0  0  0
    5.0814   10.4567    0.7162 C   0  0  0  0  0  0  0  0  0  0  0  0
    4.2764   10.9221   -0.5035 C   0  0  0  0  0  0  0  0  0  0  0  0
    4.1643   10.0202    1.9424 C   0  0  0  0  0  0  0  0  0  0  0  0
    4.9839    9.9603    3.2188 C   0  0  0  0  0  0  0  0  0  0  0  0
    6.2455   10.5364    3.3120 C   0  0  0  0  0  0  0  0  0  0  0  0
    6.6865   10.3559    4.6286 C   0  0  0  0  0  0  0  0  0  0  0  0
    5.6967    9.7858    5.3762 N   0  0  0  0  0  0  0  0  0  0  0  0
    4.6557    9.4927    4.5066 N   0  0  0  0  0  0  0  0  0  0  0  0
    3.4275    8.8443    4.9773 C   0  0  0  0  0  0  0  0  0  0  0  0
    2.7408    9.2709    6.1224 C   0  0  0  0  0  0  0  0  0  0  0  0
    1.4816    8.6953    6.4910 C   0  0  0  0  0  0  0  0  0  0  0  0
    0.8877    7.6416    5.7681 C   0  0  0  0  0  0  0  0  0  0  0  0
   -0.4219    7.0335    6.2685 C   0  0  0  0  0  0  0  0  0  0  0  0
   -0.9478    5.9199    5.6408 N   0  0  0  0  0  0  0  0  0  0  0  0
   -1.0243    7.5025    7.2289 O   0  0  0  0  0  0  0  0  0  0  0  0
    1.5461    7.2182    4.5997 C   0  0  0  0  0  0  0  0  0  0  0  0
    0.9311    6.2214    3.8177 N   0  0  0  0  0  0  0  0  0  0  0  0
    1.6143    5.6259    2.6954 C   0  0  1  0  0  0  0  0  0  0  0  0
    2.7471    4.7730    3.2828 C   0  0  0  0  0  0  0  0  0  0  0  0
    3.5149    4.0624    2.2010 C   0  0  0  0  0  0  0  0  0  0  0  0
    2.5636    3.1423    1.4558 C   0  0  2  0  0  0  0  0  0  0  0  0
    3.2733    2.4568    0.4398 O   0  0  0  0  0  0  0  0  0  0  0  0
    1.4030    3.9311    0.8448 C   0  0  0  0  0  0  0  0  0  0  0  0
    0.6440    4.7371    1.8977 C   0  0  0  0  0  0  0  0  0  0  0  0
    2.8312    7.7913    4.2648 C   0  0  0  0  0  0  0  0  0  0  0  0
    8.0581   10.8332    5.1303 C   0  0  0  0  0  0  0  0  0  0  0  0
    7.9587   11.6589    6.2049 F   0  0  0  0  0  0  0  0  0  0  0  0
    8.8763    9.8045    5.4764 F   0  0  0  0  0  0  0  0  0  0  0  0
    8.7628   11.5613    4.2209 F   0  0  0  0  0  0  0  0  0  0  0  0
    6.8922   11.1867    2.1872 C   0  0  0  0  0  0  0  0  0  0  0  0
    8.1127   11.2802    2.0442 O   0  0  0  0  0  0  0  0  0  0  0  0
    5.9693   11.6548    1.1125 C   0  0  0  0  0  0  0  0  0  0  0  0
  1  2  1  0
  2  3  1  0
  2  4  1  0
  2 33  1  0
  4  5  1  0
  5  6  2  0
  5  9  1  0
  6  7  1  0
  6 31  1  0
  7  8  2  0
  7 27  1  0
  8  9  1  0
  9 10  1  0
 10 11  2  0
 10 26  1  0
 11 12  1  0
 12 13  2  0
 13 14  1  0
 13 17  1  0
 14 15  1  0
 14 16  2  0
 17 18  1  0
 17 26  2  0
 19 20  1  0
 19 25  1  0
 19 18  1  1
 20 21  1  0
 22 21  1  0
 22 23  1  6
 22 24  1  0
 24 25  1  0
 27 28  1  0
 27 29  1  0
 27 30  1  0
 31 32  2  0
 31 33  1  0
M  END
>  <DRUGBANK_ID>  (1) 
DB17055

>  <COMMON_NAME>  (1) 
SNX-2112

>  <CAS_NUMBER>  (1) 
908112-43-6

>  <UNII>  (1) 
10C9P3FFOW

>  <SYNONYMS>  (1) 
Benzamide, 2-((trans-4-hydroxycyclohexyl)amino)-4-(4,5,6,7-tetrahydro-6,6-dimethyl-4-oxo-3-(trifluoromethyl)-1h-indazol-1-yl)-

$$$$
