
     RDKit          3D

  6  5  0  0  0  0  0  0  0  0999 V2000
    0.9871    0.1454    0.0676 C   0  0  0  0  0  0  0  0  0  0  0  0
    0.5169    0.3595   -1.3661 C   0  0  0  0  0  0  0  0  0  0  0  0
    1.1303   -0.9728   -2.5874 Si  0  0  0  0  0  4  0  0  0  0  0  0
    0.4990   -2.6427   -2.0132 C   0  0  0  0  0  0  0  0  0  0  0  0
    0.4911   -0.6036   -4.3069 C   0  0  0  0  0  0  0  0  0  0  0  0
    3.0055   -0.9649   -2.5846 C   0  0  0  0  0  0  0  0  0  0  0  0
  1  2  1  0
  2  3  1  0
  3  4  1  0
  3  5  1  0
  3  6  1  0
M  END
>  <DRUGBANK_ID>  (1) 
DB02265

>  <SECONDARY_ACCESSION_NUMBERS>  (1) 
EXPT00892

>  <COMMON_NAME>  (1) 
Ethyl-Trimethyl-Silane

>  <CAS_NUMBER>  (1) 
3439-38-1

>  <UNII>  (1) 
O72DFI3IWO

$$$$
