
     RDKit          3D

 15 15  0  0  0  0  0  0  0  0999 V2000
   -0.6752    1.1267    0.0009 C   0  0  0  0  0  0  0  0  0  0  0  0
    0.7062    1.2094    0.0067 C   0  0  0  0  0  0  0  0  0  0  0  0
    1.4458    0.0242   -0.0087 C   0  0  0  0  0  0  0  0  0  0  0  0
    0.7936   -1.2130   -0.0344 C   0  0  0  0  0  0  0  0  0  0  0  0
   -0.5982   -1.1779   -0.0195 C   0  0  0  0  0  0  0  0  0  0  0  0
   -1.3460   -0.0414   -0.0071 N   0  0  0  0  0  0  0  0  0  0  0  0
    1.6152   -2.4676   -0.0808 C   0  0  0  0  0  0  0  0  0  0  0  0
    0.9494   -3.6637   -0.2430 N   0  0  0  0  0  0  0  0  0  0  0  0
    1.5707   -4.9726   -0.0886 C   0  0  0  0  0  0  0  0  0  0  0  0
    1.1297   -5.7178    1.1864 C   0  0  0  0  0  0  0  0  0  0  0  0
   -0.2363   -6.1425    1.1450 O   0  0  0  0  0  0  0  0  0  0  0  0
   -1.1904   -5.1321    1.4106 N   0  0  0  0  0  0  0  0  0  0  0  0
   -0.7692   -4.0040    1.6766 O   0  0  0  0  0  0  0  0  0  0  0  0
    2.8363   -2.4088    0.0199 O   0  0  0  0  0  0  0  0  0  0  0  0
   -2.3443   -5.5061    1.2474 O   0  0  0  0  0  0  0  0  0  0  0  0
  1  2  2  0
  2  3  1  0
  3  4  2  0
  4  5  1  0
  4  7  1  0
  5  6  2  0
  6  1  1  0
  7  8  1  0
  7 14  2  0
  8  9  1  0
  9 10  1  0
 10 11  1  0
 11 12  1  0
 12 13  1  0
 12 15  2  0
M  CHG  2  12   1  13  -1
M  END
>  <DRUGBANK_ID>  (1) 
DB09220

>  <COMMON_NAME>  (1) 
Nicorandil

>  <CAS_NUMBER>  (1) 
65141-46-0

>  <UNII>  (1) 
260456HAM0

>  <SYNONYMS>  (1) 
2-Nicotinamidoethyl nitrate; N-(2-Hydroxyethyl)nicotinamide nitrate; N-(2-Hydroxyethyl)nicotinamide nitrate (ester); Nicorandil; Nicorandilum

$$$$
