
     RDKit          3D

 22 25  0  0  0  0  0  0  0  0999 V2000
    1.4393   -3.7611   -5.1543 C   0  0  0  0  0  0  0  0  0  0  0  0
   -3.8599   -3.3057   -9.0115 C   0  0  0  0  0  0  0  0  0  0  0  0
   -0.8028   -4.9166   -7.6744 C   0  0  0  0  0  0  0  0  0  0  0  0
    1.9121   -0.9236   -6.4335 C   0  0  0  0  0  0  0  0  0  0  0  0
    0.5863   -0.7238   -7.1653 C   0  0  0  0  0  0  0  0  0  0  0  0
    1.0856   -1.8181   -2.1561 C   0  0  0  0  0  0  0  0  0  0  0  0
   -1.7539   -3.4163   -5.3884 C   0  0  0  0  0  0  0  0  0  0  0  0
   -2.0476   -1.5450   -9.0496 C   0  0  0  0  0  0  0  0  0  0  0  0
    0.5233   -2.5741   -3.1233 C   0  0  0  0  0  0  0  0  0  0  0  0
   -2.9166   -3.4571   -6.4702 C   0  0  0  0  0  0  0  0  0  0  0  0
   -1.4666   -3.0926   -9.8746 C   0  0  0  0  0  0  0  0  0  0  0  0
    1.8055   -0.3184   -4.0403 C   0  0  0  0  0  0  0  0  0  0  0  0
    1.5585   -1.2149   -5.0048 C   0  0  0  0  0  0  0  0  0  0  0  0
    0.8424   -0.5513   -2.9619 C   0  0  0  0  0  0  0  0  0  0  0  0
   -0.2019   -2.0270   -7.0157 C   0  0  1  0  0  0  0  0  0  0  0  0
   -0.6550   -2.3012   -5.5592 C   0  0  2  0  0  0  0  0  0  0  0  0
   -1.3069   -2.1323   -7.9971 C   0  0  1  0  0  0  0  0  0  0  0  0
    0.6819   -2.4707   -4.6899 C   0  0  1  0  0  0  0  0  0  0  0  0
   -2.4872   -3.4474   -7.9965 C   0  0  2  0  0  0  0  0  0  0  0  0
   -1.5892   -4.3405   -8.8170 C   0  0  2  0  0  0  0  0  0  0  0  0
   -0.2296    0.0866   -2.8637 O   0  0  0  0  0  0  0  0  0  0  0  0
   -1.7332   -5.5289   -9.5541 O   0  0  0  0  0  0  0  0  0  0  0  0
  5  4  1  0
  9  6  2  0
 10  7  1  0
 11  8  1  0
 13  4  1  0
 13 12  2  0
 14  6  1  0
 14 12  1  0
 15  5  1  1
 16  7  1  6
 16 15  1  0
 17  8  1  1
 17 15  1  0
 18  9  1  0
 18 13  1  0
 18 16  1  0
 18  1  1  6
 19 10  1  0
 19 17  1  0
 19  2  1  6
 20 11  1  0
 20 19  1  0
 20 22  1  0
 20  3  1  1
 21 14  2  0
M  END
>  <DRUGBANK_ID>  (1) 
DB13586

>  <COMMON_NAME>  (1) 
Metandienone

>  <CAS_NUMBER>  (1) 
72-63-9

>  <UNII>  (1) 
COZ1R7EOCC

>  <SYNONYMS>  (1) 
Metandienone; Methandrostenolone

$$$$
