
     RDKit          3D

 13 13  0  0  0  0  0  0  0  0999 V2000
    0.9959    0.0926    0.0800 C   0  0  0  0  0  0  0  0  0  0  0  0
   -1.2604    0.6451   -3.0691 C   0  0  2  0  0  0  0  0  0  0  0  0
   -1.1901    2.1755   -3.0397 C   0  0  1  0  0  0  0  0  0  0  0  0
   -0.8644    0.0967   -1.6921 C   0  0  1  0  0  0  0  0  0  0  0  0
    0.1741    2.6469   -2.5103 C   0  0  2  0  0  0  0  0  0  0  0  0
    0.5242    0.6328   -1.2846 C   0  0  2  0  0  0  0  0  0  0  0  0
    1.1592    2.3600   -3.3979 F   0  0  0  0  0  0  0  0  0  0  0  0
    1.4527    0.2193   -2.1926 F   0  0  0  0  0  0  0  0  0  0  0  0
    0.6569   -1.2795    0.2995 O   0  0  0  0  0  0  0  0  0  0  0  0
   -0.4259    0.1597   -4.1248 O   0  0  0  0  0  0  0  0  0  0  0  0
   -1.4647    2.7093   -4.3373 O   0  0  0  0  0  0  0  0  0  0  0  0
   -1.8853    0.4495   -0.7434 O   0  0  0  0  0  0  0  0  0  0  0  0
    0.5298    2.0656   -1.2563 O   0  0  0  0  0  0  0  0  0  0  0  0
  2  3  1  0
  2  4  1  0
  2 10  1  6
  3  5  1  0
  3 11  1  6
  4  6  1  0
  4 12  1  1
  6  1  1  0
  6  8  1  6
  6 13  1  0
  5  7  1  6
  9  1  1  0
 13  5  1  0
M  END
>  <DRUGBANK_ID>  (1) 
DB03008

>  <SECONDARY_ACCESSION_NUMBERS>  (1) 
EXPT01670

>  <COMMON_NAME>  (1) 
5-fluoro-beta-L-gulosyl fluoride

$$$$
