
     RDKit          3D

 11 11  0  0  1  0  0  0  0  0999 V2000
    1.2181    0.0928    0.2401 C   0  0  0  0  0  0  0  0  0  0  0  0
    0.2406    1.2623    0.0399 C   0  0  2  0  0  0  0  0  0  0  0  0
   -0.7874    0.7996   -0.8448 O   0  0  0  0  0  0  0  0  0  0  0  0
   -0.3932    0.7781   -2.2360 C   0  0  2  0  0  0  0  0  0  0  0  0
    0.6831   -0.0999   -2.5257 O   0  0  0  0  0  0  0  0  0  0  0  0
   -0.1294    2.2137   -2.7213 C   0  0  1  0  0  0  0  0  0  0  0  0
   -1.3171    3.0082   -2.6082 O   0  0  0  0  0  0  0  0  0  0  0  0
    0.9968    2.8208   -1.8712 C   0  0  2  0  0  0  0  0  0  0  0  0
    2.2203    2.1252   -2.1451 O   0  0  0  0  0  0  0  0  0  0  0  0
    0.6461    2.7005   -0.3788 C   0  0  2  0  0  0  0  0  0  0  0  0
    1.6839    3.2405    0.4388 O   0  0  0  0  0  0  0  0  0  0  0  0
  2  1  1  6
  2  3  1  0
  2 10  1  0
  3  4  1  0
  4  5  1  1
  4  6  1  0
  6  8  1  0
  6  7  1  1
  8  9  1  1
  8 10  1  0
 10 11  1  1
M  END
>  <DRUGBANK_ID>  (1) 
DB03283

>  <SECONDARY_ACCESSION_NUMBERS>  (1) 
EXPT01510

>  <COMMON_NAME>  (1) 
beta-L-fucose

>  <CAS_NUMBER>  (1) 
13224-93-6

>  <UNII>  (1) 
3MLV1G4S4M

>  <SYNONYMS>  (1) 
6-deoxy-beta-L-galactopyranose; beta-L-fucopyranose

$$$$
