
     RDKit          3D

 25 28  0  0  0  0  0  0  0  0999 V2000
    1.4116   -0.2036   -0.1073 C   0  0  0  0  0  0  0  0  0  0  0  0
    0.9740    1.1125   -0.1087 C   0  0  0  0  0  0  0  0  0  0  0  0
   -0.3881    1.3510   -0.0507 C   0  0  0  0  0  0  0  0  0  0  0  0
   -1.2805    0.2733   -0.0791 C   0  0  0  0  0  0  0  0  0  0  0  0
   -0.8418   -1.0671   -0.0023 C   0  0  0  0  0  0  0  0  0  0  0  0
    0.5337   -1.2671   -0.0093 C   0  0  0  0  0  0  0  0  0  0  0  0
    1.7891    2.2056   -0.1867 O   0  0  0  0  0  0  0  0  0  0  0  0
   -1.7947   -2.2785    0.0618 C   0  0  0  0  0  0  0  0  0  0  0  0
   -2.7010   -2.2463    1.3085 C   0  0  0  0  0  0  0  0  0  0  0  0
   -2.6876   -2.2759   -1.2069 C   0  0  0  0  0  0  0  0  0  0  0  0
   -1.0107   -3.6226    0.0225 C   0  0  0  0  0  0  0  0  0  0  0  0
   -3.6883   -1.2595    1.3879 C   0  0  0  0  0  0  0  0  0  0  0  0
   -4.6548   -1.2959    2.3710 C   0  0  0  0  0  0  0  0  0  0  0  0
   -4.5789   -2.1603    3.4338 C   0  0  0  0  0  0  0  0  0  0  0  0
   -3.6366   -3.1879    3.3740 C   0  0  0  0  0  0  0  0  0  0  0  0
   -2.7037   -3.2180    2.3217 C   0  0  0  0  0  0  0  0  0  0  0  0
   -5.3625   -2.0403    4.5501 O   0  0  0  0  0  0  0  0  0  0  0  0
    3.1900    1.9422   -0.3840 C   0  0  0  0  0  0  0  0  0  0  0  0
   -5.9915   -0.7408    4.7530 C   0  0  0  0  0  0  0  0  0  0  0  0
    3.8238    1.4730    0.8941 C   0  0  0  0  0  0  0  0  0  0  0  0
   -4.9721    0.3435    4.9520 C   0  0  0  0  0  0  0  0  0  0  0  0
    5.2603    1.0082    0.9774 C   0  0  0  0  0  0  0  0  0  0  0  0
    4.1859    0.0780    0.9405 O   0  0  0  0  0  0  0  0  0  0  0  0
   -5.3556    1.7169    4.8232 O   0  0  0  0  0  0  0  0  0  0  0  0
   -4.5016    1.2194    3.7946 C   0  0  0  0  0  0  0  0  0  0  0  0
  1  2  2  0
  2  3  1  0
  2  7  1  0
  3  4  2  0
  4  5  1  0
  5  6  2  0
  5  8  1  0
  6  1  1  0
  7 18  1  0
  8  9  1  0
  8 10  1  0
  8 11  1  0
  9 12  2  0
 12 13  1  0
 13 14  2  0
 14 15  1  0
 14 17  1  0
 15 16  2  0
 16  9  1  0
 17 19  1  0
 18 20  1  0
 19 21  1  0
 20 22  1  0
 20 23  1  0
 21 24  1  0
 21 25  1  0
 23 22  1  0
 25 24  1  0
M  END
>  <DRUGBANK_ID>  (1) 
DB14083

>  <COMMON_NAME>  (1) 
Bisphenol A diglycidyl ether

>  <CAS_NUMBER>  (1) 
1675-54-3

>  <UNII>  (1) 
F3XRM1NX4H

>  <SYNONYMS>  (1) 
2,2-Bis(4-glycidyloxyphenyl)propane; 2,2-bis(4'-glycidyloxyphenyl)propane; 4,4'-isopropylidenediphenol diglycidyl ether; Bisphenol diglycidyl ether; DGEBPA; Diglycidyl bisphenol A ether

$$$$
