
     RDKit          3D

 14 14  0  0  0  0  0  0  0  0999 V2000
    2.2685    0.0311    0.0083 O   0  0  0  0  0  0  0  0  0  0  0  0
    0.9280    2.3757    0.0339 O   0  0  0  0  0  0  0  0  0  0  0  0
   -5.5079   -3.5988   -0.0376 O   0  0  0  0  0  0  0  0  0  0  0  0
   -3.6220   -4.8387   -0.0107 O   0  0  0  0  0  0  0  0  0  0  0  0
   -1.2830   -1.1713   -0.0025 C   0  0  0  0  0  0  0  0  0  0  0  0
    0.8975   -0.0439    0.0113 C   0  0  0  0  0  0  0  0  0  0  0  0
    0.1282   -1.2236    0.0103 C   0  0  0  0  0  0  0  0  0  0  0  0
   -1.8904    0.0924   -0.0123 C   0  0  0  0  0  0  0  0  0  0  0  0
    0.2425    1.1918    0.0151 C   0  0  0  0  0  0  0  0  0  0  0  0
   -1.1386    1.2648    0.0009 C   0  0  0  0  0  0  0  0  0  0  0  0
   -2.0945   -2.4149   -0.0056 C   0  0  0  0  0  0  0  0  0  0  0  0
   -3.4425   -2.4589   -0.0198 C   0  0  0  0  0  0  0  0  0  0  0  0
    2.9713   -1.2062   -0.0243 C   0  0  0  0  0  0  0  0  0  0  0  0
   -4.1668   -3.7460   -0.0218 C   0  0  0  0  0  0  0  0  0  0  0  0
  1  6  1  0
  1 13  1  0
  2  9  1  0
  3 14  1  0
  4 14  2  0
  5  7  2  0
  5  8  1  0
  5 11  1  0
  6  7  1  0
  6  9  2  0
  8 10  2  0
  9 10  1  0
 11 12  2  0
 12 14  1  0
M  END
>  <DRUGBANK_ID>  (1) 
DB07767

>  <COMMON_NAME>  (1) 
Ferulic acid

>  <CAS_NUMBER>  (1) 
1135-24-6

>  <UNII>  (1) 
AVM951ZWST

$$$$
