
     RDKit          3D

 33 36  0  0  0  0  0  0  0  0999 V2000
    2.5091   -0.6802   -0.2193 C   0  0  1  0  0  0  0  0  0  0  0  0
    4.5150   -3.0378    0.2658 P   0  0  0  0  0  0  0  0  0  0  0  0
    1.9717    0.6260    0.3658 C   0  0  2  0  0  0  0  0  0  0  0  0
    0.5292    0.8148   -0.0422 C   0  0  1  0  0  0  0  0  0  0  0  0
   -6.7832   -1.0962   -0.1270 C   0  0  0  0  0  0  0  0  0  0  0  0
   -0.2942   -0.3472    0.5215 C   0  0  1  0  0  0  0  0  0  0  0  0
   -1.7415   -0.0504    0.3507 C   0  0  0  0  0  0  0  0  0  0  0  0
    3.9933   -0.4880    0.2187 C   0  0  1  0  0  0  0  0  0  0  0  0
   -2.3075    1.2168    0.0122 C   0  0  0  0  0  0  0  0  0  0  0  0
    4.8781   -1.4600   -0.3440 O   0  0  0  0  0  0  0  0  0  0  0  0
    1.6448   -1.8316    0.3924 C   0  0  0  0  0  0  0  0  0  0  0  0
    0.1812   -1.7352    0.0652 C   0  0  0  0  0  0  0  0  0  0  0  0
   -5.9310    0.1668    0.0105 O   0  0  0  0  0  0  0  0  0  0  0  0
    2.9808    1.6812   -0.0827 C   0  0  0  0  0  0  0  0  0  0  0  0
   -0.0562    2.1139    0.4944 C   0  0  0  0  0  0  0  0  0  0  0  0
   -2.5774   -1.0275    0.7232 C   0  0  0  0  0  0  0  0  0  0  0  0
   -6.2911   -2.4640   -0.0799 N   0  0  0  0  0  0  0  0  0  0  0  0
    3.7103   -2.4306    1.5224 O   0  0  0  0  0  0  0  0  0  0  0  0
    3.6166   -3.2162   -1.0554 O   0  0  0  0  0  0  0  0  0  0  0  0
    4.1901   -4.4498    0.8116 O   0  0  0  0  0  0  0  0  0  0  0  0
   -8.0135   -0.8972   -0.3106 O   0  0  0  0  0  0  0  0  0  0  0  0
   -3.7172    1.4649   -0.0771 C   0  0  0  0  0  0  0  0  0  0  0  0
   -4.5360    0.5024    0.4125 C   0  0  0  0  0  0  0  0  0  0  0  0
   -1.3907    2.3735   -0.1887 C   0  0  0  0  0  0  0  0  0  0  0  0
    4.3374    0.9633   -0.0955 C   0  0  0  0  0  0  0  0  0  0  0  0
   -3.8826   -0.6259    0.7663 C   0  0  0  0  0  0  0  0  0  0  0  0
    2.4318   -0.7427   -1.7674 C   0  0  0  0  0  0  0  0  0  0  0  0
   -5.5152   -5.7018   -1.1209 Cl  0  0  0  0  0  0  0  0  0  0  0  0
   -4.5584   -1.0961   -2.4436 Cl  0  0  0  0  0  0  0  0  0  0  0  0
   -7.1998   -3.6034    0.0018 C   0  0  0  0  0  0  0  0  0  0  0  0
   -4.9125   -2.9417   -0.1399 C   0  0  0  0  0  0  0  0  0  0  0  0
   -6.9866   -4.6518   -1.1250 C   0  0  0  0  0  0  0  0  0  0  0  0
   -4.1976   -2.6245   -1.5323 C   0  0  0  0  0  0  0  0  0  0  0  0
  1 27  1  6
  2 10  1  0
  3  1  1  0
  4  3  1  0
  5 13  1  0
  6  4  1  0
  7  6  1  0
  8  1  1  0
  8 10  1  6
  9  7  2  0
 11  1  1  0
 12 11  1  0
  6 12  1  6
 13 23  1  0
  3 14  1  6
 14 25  1  0
  4 15  1  1
 16  7  1  0
 17  5  1  0
 18  2  1  0
 19  2  1  0
 20  2  2  0
 21  5  2  0
 22  9  1  0
 22 23  2  0
 23 26  1  0
 24 15  1  0
 24  9  1  0
 25  8  1  0
 26 16  2  0
 28 32  1  0
 29 33  1  0
 30 17  1  0
 31 17  1  0
 32 30  1  0
 33 31  1  0
M  END
>  <DRUGBANK_ID>  (1) 
DB14674

>  <SECONDARY_ACCESSION_NUMBERS>  (1) 
DBSALT002563

>  <COMMON_NAME>  (1) 
Estramustine phosphate

>  <CAS_NUMBER>  (1) 
4891-15-0

>  <UNII>  (1) 
MUZ9585Y7B

>  <SYNONYMS>  (1) 
Estramustine 17-(dihydrogen phosphate)

$$$$
