
     RDKit          3D

  9 10  0  0  0  0  0  0  0  0999 V2000
    2.1239    0.7660   -0.0121 C   0  0  0  0  0  0  0  0  0  0  0  0
    2.2199   -0.6286    0.0006 C   0  0  0  0  0  0  0  0  0  0  0  0
    0.8796    1.4062   -0.0046 C   0  0  0  0  0  0  0  0  0  0  0  0
   -0.2428    0.5814   -0.0004 C   0  0  0  0  0  0  0  0  0  0  0  0
   -0.1884   -0.8083    0.0084 C   0  0  0  0  0  0  0  0  0  0  0  0
    1.0709   -1.4320    0.0156 C   0  0  0  0  0  0  0  0  0  0  0  0
   -1.5390    1.0018   -0.0123 O   0  0  0  0  0  0  0  0  0  0  0  0
   -2.3161   -0.1133   -0.0194 C   0  0  0  0  0  0  0  0  0  0  0  0
   -1.5378   -1.2477    0.0011 C   0  0  0  0  0  0  0  0  0  0  0  0
  2  1  2  0
  3  1  1  0
  4  3  2  0
  5  4  1  0
  6  2  1  0
  6  5  2  0
  7  4  1  0
  8  7  1  0
  9  5  1  0
  9  8  2  0
M  END
>  <DRUGBANK_ID>  (1) 
DB04179

>  <SECONDARY_ACCESSION_NUMBERS>  (1) 
EXPT00790

>  <COMMON_NAME>  (1) 
Benzofuran

>  <CAS_NUMBER>  (1) 
271-89-6

>  <UNII>  (1) 
LK6946W774

>  <SYNONYMS>  (1) 
1-benzofuran; Coumaron; Coumarone; Cumarone

$$$$
