
     RDKit          3D

 22 21  0  0  0  0  0  0  0  0999 V2000
    0.8880    0.0208    0.1148 C   0  0  0  0  0  0  0  0  0  0  0  0
    0.3154   -1.1868   -0.5434 C   0  0  0  0  0  0  0  0  0  0  0  0
   -0.6194   -2.0651    0.2282 C   0  0  0  0  0  0  0  0  0  0  0  0
    0.6005   -1.4784   -1.8208 C   0  0  0  0  0  0  0  0  0  0  0  0
    1.5725   -0.7546   -2.7206 C   0  0  0  0  0  0  0  0  0  0  0  0
    2.8311   -1.5510   -3.1279 C   0  0  0  0  0  0  0  0  0  0  0  0
    2.5425   -2.7625   -3.9911 C   0  0  0  0  0  0  0  0  0  0  0  0
    3.0900   -2.8447   -5.3727 C   0  0  0  0  0  0  0  0  0  0  0  0
    1.7747   -3.7542   -3.5261 C   0  0  0  0  0  0  0  0  0  0  0  0
    1.3492   -5.0287   -4.1660 C   0  0  0  0  0  0  0  0  0  0  0  0
    1.8558   -6.2249   -3.3474 C   0  0  0  0  0  0  0  0  0  0  0  0
    1.2674   -6.3489   -1.9432 C   0  0  0  0  0  0  0  0  0  0  0  0
    0.3822   -7.5401   -1.7014 C   0  0  0  0  0  0  0  0  0  0  0  0
    1.5501   -5.4812   -0.9444 C   0  0  0  0  0  0  0  0  0  0  0  0
    0.9240   -5.5065    0.3574 C   0  0  0  0  0  0  0  0  0  0  0  0
    1.1117   -4.5987    1.3296 C   0  0  0  0  0  0  0  0  0  0  0  0
    0.3984   -4.5804    2.6123 C   0  0  0  0  0  0  0  0  0  0  0  0
    0.6424   -3.3658    3.4812 C   0  0  0  0  0  0  0  0  0  0  0  0
   -0.4235   -5.5796    3.0060 C   0  0  0  0  0  0  0  0  0  0  0  0
   -1.0723   -5.6339    4.3335 C   0  0  0  0  0  0  0  0  0  0  0  0
   -1.7954   -6.7539    4.5197 O   0  0  0  0  0  0  0  0  0  0  0  0
   -0.9650   -4.7832    5.2075 O   0  0  0  0  0  0  0  0  0  0  0  0
  1  2  1  0
  2  3  1  0
  2  4  2  3
  4  5  1  0
  5  6  1  0
  6  7  1  0
  7  8  1  0
  7  9  2  0
  9 10  1  0
 10 11  1  0
 11 12  1  0
 12 13  1  0
 12 14  2  0
 14 15  1  0
 15 16  2  0
 16 17  1  0
 17 18  1  0
 17 19  2  0
 19 20  1  0
 20 21  1  0
 20 22  2  0
M  END
>  <DRUGBANK_ID>  (1) 
DB16291

>  <COMMON_NAME>  (1) 
Peretinoin

>  <CAS_NUMBER>  (1) 
81485-25-8

>  <UNII>  (1) 
11ALM7A4RV

>  <SYNONYMS>  (1) 
Peretinoin

$$$$
