
     RDKit          3D

 36 40  0  0  1  0  0  0  0  0999 V2000
    2.1379   -7.3598    2.0640 C   0  0  0  0  0  0  0  0  0  0  0  0
    3.2381   -6.3208    1.8846 C   0  0  0  0  0  0  0  0  0  0  0  0
    3.9701   -6.5229    0.5493 C   0  0  2  0  0  0  0  0  0  0  0  0
    5.1439   -7.4522    0.8249 C   0  0  0  0  0  0  0  0  0  0  0  0
    4.3513   -5.1664   -0.0713 C   0  0  2  0  0  0  0  0  0  0  0  0
    5.4220   -4.4108    0.7734 C   0  0  0  0  0  0  0  0  0  0  0  0
    6.1982   -4.8668    1.5976 O   0  0  0  0  0  0  0  0  0  0  0  0
    5.5783   -3.1015    0.4608 N   0  0  0  0  0  0  0  0  0  0  0  0
    4.9437   -2.4988   -0.6769 C   0  0  1  0  0  0  0  0  0  0  0  0
    3.4822   -2.9497   -0.7577 C   0  0  0  0  0  0  0  0  0  0  0  0
    2.6796   -2.2274   -1.2863 O   0  0  0  0  0  0  0  0  0  0  0  0
    3.1947   -4.2387   -0.3111 N   0  0  0  0  0  0  0  0  0  0  0  0
    1.7589   -4.6730   -0.1730 C   0  0  2  0  0  0  0  0  0  0  0  0
    0.9989   -4.6738   -1.4849 C   0  0  0  0  0  0  0  0  0  0  0  0
    0.7176   -3.6435   -2.3605 C   0  0  0  0  0  0  0  0  0  0  0  0
   -0.2610   -4.0172   -3.1940 O   0  0  0  0  0  0  0  0  0  0  0  0
   -0.3683   -5.3452   -2.9677 C   0  0  0  0  0  0  0  0  0  0  0  0
    0.3560   -5.8073   -1.9661 N   0  0  0  0  0  0  0  0  0  0  0  0
   -1.2152   -6.0008   -3.9609 C   0  0  0  0  0  0  0  0  0  0  0  0
    1.0075   -4.0583    1.1463 C   0  0  0  0  0  0  0  0  0  0  0  0
    0.7279   -4.7361    2.1407 O   0  0  0  0  0  0  0  0  0  0  0  0
    0.8062   -2.6897    1.1989 N   0  0  0  0  0  0  0  0  0  0  0  0
   -0.0009   -2.1370    0.1596 C   0  0  0  0  0  0  0  0  0  0  0  0
    0.4901   -0.7586   -0.2074 C   0  0  0  0  0  0  0  0  0  0  0  0
    0.2665    0.0834    0.9307 O   0  0  0  0  0  0  0  0  0  0  0  0
    0.9631   -0.4403    2.0895 C   0  0  0  0  0  0  0  0  0  0  0  0
    0.6051   -1.9072    2.4192 C   0  0  0  0  0  0  0  0  0  0  0  0
    5.0205   -0.9776   -0.5592 C   0  0  0  0  0  0  0  0  0  0  0  0
    6.4725   -0.4874   -0.6665 C   0  0  0  0  0  0  0  0  0  0  0  0
    6.4167    0.7767    0.1208 C   0  0  0  0  0  0  0  0  0  0  0  0
    7.3330    1.8068    0.1103 C   0  0  0  0  0  0  0  0  0  0  0  0
    7.0792    2.9223    0.9071 C   0  0  0  0  0  0  0  0  0  0  0  0
    5.9333    2.9825    1.7162 C   0  0  0  0  0  0  0  0  0  0  0  0
    5.0310    1.9187    1.7496 C   0  0  0  0  0  0  0  0  0  0  0  0
    5.2873    0.8249    0.9396 C   0  0  0  0  0  0  0  0  0  0  0  0
    4.4694   -0.4103    0.7715 C   0  0  0  0  0  0  0  0  0  0  0  0
  1  2  1  0
  3  4  1  1
  3  2  1  0
  5  3  1  0
  5  6  1  1
  5 12  1  0
  6  7  2  0
  6  8  1  0
  8  9  1  0
  9 10  1  0
  9 28  1  1
 10 11  2  0
 10 12  1  0
 13 20  1  1
 13 14  1  0
 13 12  1  0
 14 15  2  0
 14 18  1  0
 15 16  1  0
 16 17  1  0
 17 18  2  0
 17 19  1  0
 20 21  2  0
 20 22  1  0
 22 23  1  0
 22 27  1  0
 23 24  1  0
 24 25  1  0
 25 26  1  0
 26 27  1  0
 28 29  1  0
 28 36  1  0
 29 30  1  0
 30 31  1  0
 30 35  2  0
 31 32  2  0
 32 33  1  0
 33 34  2  0
 34 35  1  0
 35 36  1  0
M  END
>  <DRUGBANK_ID>  (1) 
DB11818

>  <COMMON_NAME>  (1) 
Retosiban

>  <CAS_NUMBER>  (1) 
820957-38-8

>  <UNII>  (1) 
GIE06H28OX

>  <SYNONYMS>  (1) 
Retosiban

$$$$
