BIT
     RDKit          3D

 22 25  0  0  0  0  0  0  0  0999 V2000
    0.8132    0.0206    0.2571 O   0  0  0  0  0  0  0  0  0  0  0  0
    1.9705    0.0335    0.5992 C   0  0  0  0  0  0  0  0  0  0  0  0
    2.6659   -1.1799    1.0797 C   0  0  0  0  0  0  0  0  0  0  0  0
    2.7539   -2.3755    0.3572 C   0  0  0  0  0  0  0  0  0  0  0  0
    3.3075   -3.4922    0.9850 C   0  0  0  0  0  0  0  0  0  0  0  0
    3.3682   -4.8250    0.2936 C   0  0  0  0  0  0  0  0  0  0  0  0
    3.7704   -3.3525    2.3048 C   0  0  0  0  0  0  0  0  0  0  0  0
    3.2973   -0.9731    2.2956 C   0  0  0  0  0  0  0  0  0  0  0  0
    3.7812   -2.0995    2.9474 C   0  0  0  0  0  0  0  0  0  0  0  0
    3.0022    1.1718    0.4036 C   0  0  1  0  0  0  0  0  0  0  0  0
    3.2597    1.3433    2.0399 C   0  0  0  0  0  0  0  0  0  0  0  0
    3.3980    0.3226    2.8483 N   0  0  0  0  0  0  0  0  0  0  0  0
    2.9693    0.6452   -0.9227 O   0  0  0  0  0  0  0  0  0  0  0  0
    2.9904    2.6529    0.0269 C   0  0  0  0  0  0  0  0  0  0  0  0
    3.3532    3.5489    1.2229 C   0  0  0  0  0  0  0  0  0  0  0  0
    3.1557    2.6967    2.3853 N   0  0  0  0  0  0  0  0  0  0  0  0
    3.1467    3.2213    3.6932 C   0  0  0  0  0  0  0  0  0  0  0  0
    3.9498    2.7204    4.7378 C   0  0  0  0  0  0  0  0  0  0  0  0
    3.7368    3.0825    6.0844 C   0  0  0  0  0  0  0  0  0  0  0  0
    2.7719    4.0274    6.4106 C   0  0  0  0  0  0  0  0  0  0  0  0
    2.0561    4.6355    5.3854 C   0  0  0  0  0  0  0  0  0  0  0  0
    2.2228    4.2171    4.0516 C   0  0  0  0  0  0  0  0  0  0  0  0
  1  2  2  0
  2  3  1  0
  2 10  1  0
  3  4  1  0
  3  8  2  0
  4  5  2  0
  5  7  1  0
  5  6  1  0
  7  9  2  0
  8  9  1  0
  8 12  1  0
 10 11  1  0
 10 14  1  0
 10 13  1  6
 11 12  2  0
 11 16  1  0
 14 15  1  0
 15 16  1  0
 16 17  1  0
 17 18  2  0
 17 22  1  0
 18 19  1  0
 19 20  2  0
 20 21  1  0
 21 22  2  0
M  END
>  <DRUGBANK_ID>  (1) 
DB01944

>  <SECONDARY_ACCESSION_NUMBERS>  (1) 
EXPT00711

>  <COMMON_NAME>  (1) 
(S)-blebbistatin

>  <UNII>  (1) 
8WII7624I5

$$$$
