
     RDKit          3D

 29 31  0  0  0  0  0  0  0  0999 V2000
   -0.2583    2.8967   -0.0996 C   0  0  0  0  0  0  0  0  0  0  0  0
    0.7489    2.7624   -1.0766 O   0  0  0  0  0  0  0  0  0  0  0  0
    0.2063    2.4963   -2.3653 C   0  0  0  0  0  0  0  0  0  0  0  0
   -0.4953    1.1525   -2.6963 C   0  0  0  0  0  0  0  0  0  0  0  0
   -1.7088    0.7344   -1.8705 C   0  0  0  0  0  0  0  0  0  0  0  0
   -2.8617    0.9034   -2.2668 O   0  0  0  0  0  0  0  0  0  0  0  0
   -1.4950    0.2205   -0.6116 N   0  0  0  0  0  0  0  0  0  0  0  0
   -0.1857    0.1703    0.0957 C   0  0  1  0  0  0  0  0  0  0  0  0
   -0.3421    0.5622    1.6045 C   0  0  0  0  0  0  0  0  0  0  0  0
   -1.0821   -0.5259    2.2819 C   0  0  0  0  0  0  0  0  0  0  0  0
   -0.3202   -1.7761    1.8746 C   0  0  2  0  0  0  0  0  0  0  0  0
    1.0817   -1.7239    2.6245 C   0  0  0  0  0  0  0  0  0  0  0  0
    1.0100   -1.7014    4.1847 C   0  0  0  0  0  0  0  0  0  0  0  0
    0.1328   -2.6955    4.8460 N   0  0  0  0  0  0  0  0  0  0  0  0
    0.7248   -3.7357    5.6833 C   0  0  0  0  0  0  0  0  0  0  0  0
    1.5591   -4.7858    4.9117 C   0  0  0  0  0  0  0  0  0  0  0  0
    0.8115   -5.3535    3.7762 N   0  0  0  0  0  0  0  0  0  0  0  0
    0.1600   -4.3897    2.9271 C   0  0  0  0  0  0  0  0  0  0  0  0
   -0.6824   -3.4467    3.8923 C   0  0  0  0  0  0  0  0  0  0  0  0
    0.6245   -6.6820    3.5334 C   0  0  0  0  0  0  0  0  0  0  0  0
   -0.1091   -7.4495    4.4345 C   0  0  0  0  0  0  0  0  0  0  0  0
   -0.2774   -8.8158    4.2371 C   0  0  0  0  0  0  0  0  0  0  0  0
    0.2711   -9.4285    3.1125 C   0  0  0  0  0  0  0  0  0  0  0  0
    0.9432   -8.6624    2.1592 C   0  0  0  0  0  0  0  0  0  0  0  0
    1.1169   -7.2916    2.3693 C   0  0  0  0  0  0  0  0  0  0  0  0
    1.4355   -9.2934    0.9533 C   0  0  0  0  0  0  0  0  0  0  0  0
    1.7961   -9.8075   -0.0008 N   0  0  0  0  0  0  0  0  0  0  0  0
   -0.2189   -2.1553    0.4121 C   0  0  0  0  0  0  0  0  0  0  0  0
    0.5341   -1.0985   -0.2653 C   0  0  0  0  0  0  0  0  0  0  0  0
  1  2  1  0
  2  3  1  0
  3  4  1  0
  4  5  1  0
  5  6  2  0
  5  7  1  0
  8  9  1  0
  8 29  1  0
  8  7  1  1
  9 10  1  0
 11 10  1  0
 11 12  1  6
 11 28  1  0
 12 13  1  0
 13 14  1  0
 14 15  1  0
 14 19  1  0
 15 16  1  0
 16 17  1  0
 17 18  1  0
 17 20  1  0
 18 19  1  0
 20 21  2  0
 20 25  1  0
 21 22  1  0
 22 23  2  0
 23 24  1  0
 24 25  2  0
 24 26  1  0
 26 27  3  0
 28 29  1  0
M  END
>  <DRUGBANK_ID>  (1) 
DB16302

>  <COMMON_NAME>  (1) 
BP-14979

>  <CAS_NUMBER>  (1) 
1000036-77-0

>  <UNII>  (1) 
XN7HA74WB0

$$$$
