STN
     RDKit          3D

 13 12  0  0  0  0  0  0  0  0999 V2000
   -1.0145    3.0161   -0.9891 C   0  0  0  0  0  0  0  0  0  0  0  0
   -1.4735    3.4661    0.3984 C   0  0  0  0  0  0  0  0  0  0  0  0
    1.0479    1.1555    2.2710 C   0  0  0  0  0  0  0  0  0  0  0  0
    0.5718    2.4635    1.6345 C   0  0  1  0  0  0  0  0  0  0  0  0
   -0.9597    2.5121    1.4864 C   0  0  0  0  0  0  0  0  0  0  0  0
   -1.0496    4.9036    0.6700 C   0  0  0  0  0  0  0  0  0  0  0  0
    1.1607    3.6647    2.3515 C   0  0  0  0  0  0  0  0  0  0  0  0
   -0.7254   -0.2981    3.3259 C   0  0  0  0  0  0  0  0  0  0  0  0
    0.1547    1.5587    4.4709 O   0  0  0  0  0  0  0  0  0  0  0  0
    0.2416    0.6664    3.3845 N   0  0  0  0  0  0  0  0  0  0  0  0
   -1.5794   -0.4668    4.1918 O   0  0  0  0  0  0  0  0  0  0  0  0
    2.0202    4.4059    1.8842 O   0  0  0  0  0  0  0  0  0  0  0  0
    0.6465    3.9154    3.5608 O   0  0  0  0  0  0  0  0  0  0  0  0
  1  2  1  0
  2  5  1  0
  2  6  1  0
  3 10  1  0
  4  7  1  0
  4  5  1  1
  4  3  1  0
  7 12  2  0
  7 13  1  0
  8 10  1  0
  8 11  2  0
  9 10  1  0
M  END
>  <DRUGBANK_ID>  (1) 
DB03683

>  <SECONDARY_ACCESSION_NUMBERS>  (1) 
EXPT02969

>  <COMMON_NAME>  (1) 
2-{[Formyl(Hydroxy)Amino]Methyl}-4-Methylpentanoic Acid

$$$$
