1149
     RDKit          3D

 33 36  0  0  0  0  0  0  0  0999 V2000
   -2.2103   -0.1421   -0.0345 Cl  0  0  0  0  0  0  0  0  0  0  0  0
    8.1564    4.4621   -0.6062 O   0  0  0  0  0  0  0  0  0  0  0  0
    7.6619    5.9552   -4.7141 O   0  0  0  0  0  0  0  0  0  0  0  0
    3.0950    4.9947   -0.4313 N   0  0  0  0  0  0  0  0  0  0  0  0
    1.8859    2.4597    0.0031 N   0  0  0  0  0  0  0  0  0  0  0  0
    7.1137    2.3242   -0.6024 N   0  0  0  0  0  0  0  0  0  0  0  0
    8.4635    2.9255   -2.3870 N   0  0  0  0  0  0  0  0  0  0  0  0
    7.0873    1.3183   -1.5760 N   0  0  0  0  0  0  0  0  0  0  0  0
    1.9597    4.9046    0.4404 C   0  0  0  0  0  0  0  0  0  0  0  0
    2.7925    3.8635   -1.6066 C   0  0  0  0  0  0  0  0  0  0  0  0
    1.9495    3.4998    1.0507 C   0  0  0  0  0  0  0  0  0  0  0  0
    2.8298    2.4958   -1.0394 C   0  0  0  0  0  0  0  0  0  0  0  0
    4.5232    5.0513    0.4553 C   0  0  0  0  0  0  0  0  0  0  0  0
    5.3306    3.7675    1.0038 C   0  0  0  0  0  0  0  0  0  0  0  0
    5.7764    2.5226    0.1045 C   0  0  0  0  0  0  0  0  0  0  0  0
    1.4713    1.1760    0.2026 C   0  0  0  0  0  0  0  0  0  0  0  0
    8.0291    3.3470   -1.0948 C   0  0  0  0  0  0  0  0  0  0  0  0
    7.9462    1.6866   -2.4837 C   0  0  0  0  0  0  0  0  0  0  0  0
    0.1002    1.1005    0.1373 C   0  0  0  0  0  0  0  0  0  0  0  0
    2.2749    0.0167    0.1444 C   0  0  0  0  0  0  0  0  0  0  0  0
    9.1826    3.7902   -3.5499 C   0  0  0  0  0  0  0  0  0  0  0  0
    8.5591    0.6984   -3.4034 C   0  0  0  0  0  0  0  0  0  0  0  0
   -0.5032   -0.1198    0.0479 C   0  0  0  0  0  0  0  0  0  0  0  0
    1.6610   -1.2238    0.0523 C   0  0  0  0  0  0  0  0  0  0  0  0
    8.3983    4.6402   -4.8589 C   0  0  0  0  0  0  0  0  0  0  0  0
    0.2656   -1.2823    0.0117 C   0  0  0  0  0  0  0  0  0  0  0  0
    8.3349    0.8836   -4.8784 C   0  0  0  0  0  0  0  0  0  0  0  0
    6.4532    5.7392   -4.1337 C   0  0  0  0  0  0  0  0  0  0  0  0
    6.6232    4.6962   -3.2811 C   0  0  0  0  0  0  0  0  0  0  0  0
    5.3225    6.5445   -3.9562 C   0  0  0  0  0  0  0  0  0  0  0  0
    5.7669    4.2562   -2.4922 C   0  0  0  0  0  0  0  0  0  0  0  0
    4.5129    6.3294   -2.8876 C   0  0  0  0  0  0  0  0  0  0  0  0
    4.8757    5.2034   -2.2566 C   0  0  0  0  0  0  0  0  0  0  0  0
  1 23  1  0
  2 17  2  0
  3 25  1  0
  3 28  1  0
  4  9  1  0
  4 10  1  0
  4 13  1  0
  5 11  1  0
  5 12  1  0
  5 16  1  0
  6  8  1  0
  6 15  1  0
  6 17  1  0
  7 17  1  0
  7 18  1  0
  7 21  1  0
  8 18  2  0
  9 11  1  0
 10 12  1  0
 13 14  1  0
 14 15  1  0
 16 19  2  0
 16 20  1  0
 18 22  1  0
 19 23  1  0
 20 24  2  0
 21 25  1  0
 22 27  1  0
 23 26  2  0
 24 26  1  0
 28 29  2  0
 28 30  1  0
 29 31  1  0
 30 32  2  0
 31 33  2  0
 32 33  1  0
M  END
>  <DRUGBANK_ID>  (1) 
DB01149

>  <SECONDARY_ACCESSION_NUMBERS>  (1) 
APRD00402

>  <COMMON_NAME>  (1) 
Nefazodone

>  <CAS_NUMBER>  (1) 
83366-66-9

>  <UNII>  (1) 
59H4FCV1TF

>  <SYNONYMS>  (1) 
1-(3-(4-(m-Chlorophenyl)-1-piperazinyl)propyl)-3-ethyl-4-(2-phenoxyethyl)-delta2-1,2,4-triazolin-5-one; Nefazodona; Nefazodone; Nefazodonum

$$$$
