167
     RDKit          3D

  9  8  0  0  1  0  0  0  0  0999 V2000
   -2.6132   -4.1664   -0.0965 O   0  0  0  0  0  0  0  0  0  0  0  0
   -2.7878   -4.1219    2.1276 O   0  0  0  0  0  0  0  0  0  0  0  0
    0.0639   -3.0421    0.4313 N   0  0  0  0  0  0  0  0  0  0  0  0
   -1.6958   -1.2610    0.4829 C   0  0  2  0  0  0  0  0  0  0  0  0
   -1.1894   -2.6046    1.0816 C   0  0  1  0  0  0  0  0  0  0  0  0
   -1.1204   -0.0000    1.1882 C   0  0  0  0  0  0  0  0  0  0  0  0
   -3.2279   -1.1572    0.4590 C   0  0  0  0  0  0  0  0  0  0  0  0
   -0.7554   -0.2012    2.6532 C   0  0  0  0  0  0  0  0  0  0  0  0
   -2.2403   -3.7092    1.1105 C   0  0  0  0  0  0  0  0  0  0  0  0
  1  9  1  0
  2  9  2  0
  4  7  1  1
  4  6  1  0
  4  5  1  0
  5  3  1  6
  5  9  1  0
  6  8  1  0
M  END
>  <DRUGBANK_ID>  (1) 
DB00167

>  <SECONDARY_ACCESSION_NUMBERS>  (1) 
NUTR00031

>  <COMMON_NAME>  (1) 
Isoleucine

>  <CAS_NUMBER>  (1) 
73-32-5

>  <UNII>  (1) 
04Y7590D77

>  <SYNONYMS>  (1) 
(2S,3S)-2-Amino-3-methylpentanoic acid; 2-Amino-3-methylvaleric acid; alpha-amino-beta-methylvaleric acid; Ile; Isoleucina; Isoleucine; Isoleucinum; L-Isoleucine; α-amino-β-methylvaleric acid

$$$$
