
     RDKit          3D

 22 23  0  0  0  0  0  0  0  0999 V2000
    1.1653    0.1000   -0.0146 C   0  0  0  0  0  0  0  0  0  0  0  0
    1.2883   -1.0345   -2.1243 C   0  0  0  0  0  0  0  0  0  0  0  0
    0.8167   -2.3291   -1.4834 C   0  0  0  0  0  0  0  0  0  0  0  0
   -1.7679   -0.9944   -0.8130 C   0  0  0  0  0  0  0  0  0  0  0  0
   -1.2349   -3.7595   -1.9857 C   0  0  0  0  0  0  0  0  0  0  0  0
   -2.3804   -2.4522   -1.9815 C   0  0  0  0  0  0  0  0  0  0  0  0
   -1.1166   -3.7428   -4.1216 C   0  0  0  0  0  0  0  0  0  0  0  0
   -3.5475   -0.8966   -1.4078 C   0  0  0  0  0  0  0  0  0  0  0  0
   -3.1567   -3.8658   -2.6657 C   0  0  0  0  0  0  0  0  0  0  0  0
   -2.6966   -3.9406   -0.8000 C   0  0  0  0  0  0  0  0  0  0  0  0
   -1.4279   -5.3105   -3.2861 C   0  0  0  0  0  0  0  0  0  0  0  0
   -1.2780    0.5451   -3.0284 C   0  0  0  0  0  0  0  0  0  0  0  0
    0.8039    0.2887   -1.4974 C   0  0  0  0  0  0  0  0  0  0  0  0
   -0.6313   -2.3961   -1.0208 C   0  0  0  0  0  0  0  0  0  0  0  0
   -1.6605   -2.2699   -3.5339 C   0  0  0  0  0  0  0  0  0  0  0  0
   -4.2793   -2.3738   -2.2642 C   0  0  0  0  0  0  0  0  0  0  0  0
   -2.2061   -5.4627   -1.6440 C   0  0  0  0  0  0  0  0  0  0  0  0
   -1.0793   -0.8920   -3.9723 C   0  0  0  0  0  0  0  0  0  0  0  0
   -0.5364    0.9136   -1.5956 N   0  0  0  0  0  0  0  0  0  0  0  0
   -5.5941   -2.5292   -1.8349 O   0  0  0  0  0  0  0  0  0  0  0  0
   -2.4736   -6.6248   -1.0695 O   0  0  0  0  0  0  0  0  0  0  0  0
   -1.5821   -0.7033   -5.2848 O   0  0  0  0  0  0  0  0  0  0  0  0
  3  2  1  0
  8  4  2  0
  9  5  1  0
 10  6  2  0
 11  7  1  0
 13  1  1  0
 13  2  1  0
 14  3  1  0
 14  4  1  0
 14  5  2  0
 15  6  1  0
 15  7  2  0
 16  8  1  0
 16  9  2  0
 17 10  1  0
 17 11  2  0
 18 12  1  0
 18 15  1  0
 19 12  1  0
 19 13  1  0
 20 16  1  0
 21 17  1  0
 22 18  1  0
M  END
>  <DRUGBANK_ID>  (1) 
DB11541

>  <COMMON_NAME>  (1) 
Ractopamine

>  <UNII>  (1) 
57370OZ3P1

>  <SYNONYMS>  (1) 
Ractopamine

$$$$
