772
     RDKit          3D

 19 18  0  0  1  0  0  0  0  0999 V2000
    0.9692   -0.0792    0.0527 S   0  0  0  0  0  0  0  0  0  0  0  0
    0.5384    1.6676    2.1226 S   0  0  0  0  0  0  0  0  0  0  0  0
    0.2625    1.9188    0.1084 P   0  0  0  0  0  0  0  0  0  0  0  0
    4.4243    1.4711   -0.8478 O   0  0  0  0  0  0  0  0  0  0  0  0
    3.7784   -2.7173   -2.1604 O   0  0  0  0  0  0  0  0  0  0  0  0
    1.0963    2.6932   -1.0455 O   0  0  0  0  0  0  0  0  0  0  0  0
   -0.3141    3.5492    0.1539 O   0  0  0  0  0  0  0  0  0  0  0  0
    3.4746    0.0043   -2.2227 O   0  0  0  0  0  0  0  0  0  0  0  0
    1.6466   -2.6106   -1.5091 O   0  0  0  0  0  0  0  0  0  0  0  0
    2.8749   -0.2838    0.1008 C   0  0  0  0  0  0  0  0  0  0  0  0
    3.2427   -1.7677    0.0573 C   0  0  0  0  0  0  0  0  0  0  0  0
    3.6497    0.3619   -1.0539 C   0  0  0  0  0  0  0  0  0  0  0  0
    2.8127   -2.4174   -1.2509 C   0  0  0  0  0  0  0  0  0  0  0  0
    4.6582    2.2065    0.3755 C   0  0  0  0  0  0  0  0  0  0  0  0
    5.2072   -2.6745   -1.9626 C   0  0  0  0  0  0  0  0  0  0  0  0
    3.4446    2.7639    1.0708 C   0  0  0  0  0  0  0  0  0  0  0  0
    5.8186   -1.2859   -1.9544 C   0  0  0  0  0  0  0  0  0  0  0  0
    1.7737    1.9691   -1.9703 C   0  0  0  0  0  0  0  0  0  0  0  0
   -0.5673    4.1833    1.4053 C   0  0  0  0  0  0  0  0  0  0  0  0
  1  3  1  0
  1 10  1  0
  2  3  2  0
  3  6  1  0
  3  7  1  0
  4 12  1  0
  4 14  1  0
  5 13  1  0
  5 15  1  0
  6 18  1  0
  7 19  1  0
  8 12  2  0
  9 13  2  0
 10 11  1  0
 10 12  1  0
 11 13  1  0
 14 16  1  0
 15 17  1  0
M  END
>  <DRUGBANK_ID>  (1) 
DB00772

>  <SECONDARY_ACCESSION_NUMBERS>  (1) 
APRD01081

>  <COMMON_NAME>  (1) 
Malathion

>  <CAS_NUMBER>  (1) 
121-75-5

>  <UNII>  (1) 
U5N7SU872W

>  <SYNONYMS>  (1) 
[(dimethoxyphosphinothioyl)thio]butanedioic acid diethyl ester; Carbophos; diethyl (dimethoxyphosphinothioylthio)succinate; Karbofos; Malathion; Maldison; Mercaptothion; O,O-dimethyl S-(1,2-bis(ethoxycarbonyl)ethyl); O,O-dimethyl S-(1,2-dicarbethoxyethyl) dithiophosphate; O,O-dimethyl S-(1,2-dicarbethoxyethyl)phosphorodithioate; O,O-dimethyl S-1,2-di(ethoxycarbamyl)ethyl; O,O-dimethyldithiophosphate diethylmercaptosuccinate

$$$$
