
     RDKit          3D

 30 32  0  0  1  0  0  0  0  0999 V2000
    1.6623    0.8201    0.3053 N   0  0  0  0  0  0  0  0  0  0  0  0
    0.3660    0.3157    0.5335 C   0  0  0  0  0  0  0  0  0  0  0  0
    2.2611    2.1470    0.2446 C   0  0  2  0  0  0  0  0  0  0  0  0
    2.4207   -0.2914    0.0484 C   0  0  0  0  0  0  0  0  0  0  0  0
    0.4074   -0.9787    0.1499 C   0  0  0  0  0  0  0  0  0  0  0  0
   -0.8055    1.0121    0.7607 N   0  0  0  0  0  0  0  0  0  0  0  0
    1.7696    2.9264    1.3517 O   0  0  0  0  0  0  0  0  0  0  0  0
    2.4107    2.9666   -1.0582 C   0  0  0  0  0  0  0  0  0  0  0  0
    1.7175   -1.3899   -0.0350 N   0  0  0  0  0  0  0  0  0  0  0  0
   -0.8301   -1.6582   -0.0016 C   0  0  0  0  0  0  0  0  0  0  0  0
   -1.9103    0.3283    0.3768 C   0  0  0  0  0  0  0  0  0  0  0  0
    1.4773    4.2567    0.9097 C   0  0  1  0  0  0  0  0  0  0  0  0
    2.4041    4.3349   -0.4883 C   0  0  1  0  0  0  0  0  0  0  0  0
   -1.9851   -0.9467    0.0379 N   0  0  0  0  0  0  0  0  0  0  0  0
   -0.9309   -3.0045   -0.2366 N   0  0  0  0  0  0  0  0  0  0  0  0
   -0.1689    4.3555    1.1617 C   0  0  0  0  0  0  0  0  0  0  0  0
    3.7680    4.7641   -0.3056 O   0  0  0  0  0  0  0  0  0  0  0  0
   -1.0470    3.4660    0.3869 O   0  0  0  0  0  0  0  0  0  0  0  0
   -0.6494    3.5276   -1.2956 P   0  0  2  0  0  0  0  0  0  0  0  0
    0.3030    4.9451   -1.0187 O   0  0  0  0  0  0  0  0  0  0  0  0
    0.0670    2.1665   -1.0913 O   0  0  0  0  0  0  0  0  0  0  0  0
   -0.2934    3.5826   -2.8015 O   0  0  0  0  0  0  0  0  0  0  0  0
   -0.6887    6.3508   -1.2017 P   0  0  1  0  0  0  0  0  0  0  0  0
    0.6402    7.1949   -1.9190 O   0  0  0  0  0  0  0  0  0  0  0  0
   -1.4837    5.6487   -2.4499 O   0  0  0  0  0  0  0  0  0  0  0  0
   -1.5762    7.6089   -1.3654 O   0  0  0  0  0  0  0  0  0  0  0  0
    1.5485    7.9964   -0.6839 P   0  0  0  0  0  0  0  0  0  0  0  0
    0.2117    8.1492    0.2381 O   0  0  0  0  0  0  0  0  0  0  0  0
    2.0847    6.6279   -0.1051 O   0  0  0  0  0  0  0  0  0  0  0  0
    2.3615    8.7137    0.4215 O   0  0  0  0  0  0  0  0  0  0  0  0
  1  2  1  0
  1  4  1  0
  2  5  2  0
  2  6  1  0
  3  1  1  6
  3  7  1  0
  3  8  1  0
  4  9  2  0
  5 10  1  0
  5  9  1  0
  6 11  2  0
  7 12  1  0
  8 13  1  0
 10 14  2  0
 10 15  1  0
 11 14  1  0
 12 13  1  0
 12 16  1  6
 13 17  1  1
 16 18  1  0
 18 19  1  0
 19 20  1  0
 19 21  1  1
 19 22  2  0
 20 23  1  0
 23 24  1  0
 23 25  1  6
 23 26  2  0
 24 27  1  0
 27 28  1  0
 27 29  1  0
 27 30  2  0
M  END
>  <DRUGBANK_ID>  (1) 
DB03222

>  <SECONDARY_ACCESSION_NUMBERS>  (1) 
EXPT01288

>  <COMMON_NAME>  (1) 
dATP

>  <CAS_NUMBER>  (1) 
1927-31-7

>  <UNII>  (1) 
K8KCC8SH6N

>  <SYNONYMS>  (1) 
2'-Deoxyadenosine 5'-triphosphate; Deoxyadenosine 5'-triphosphate; Deoxyadenosine triphosphate

$$$$
