
     RDKit          3D

 11  8  0  0  0  0  0  0  0  0999 V2000
    1.7036   -1.3324    0.4160 O   0  0  0  0  0  0  0  0  0  0  0  0
    1.3307   -1.7911   -1.1136 Si  0  0  0  0  0  4  0  0  0  0  0  0
    2.1164   -0.4594   -1.7290 O   0  0  0  0  0  0  0  0  0  0  0  0
    1.9057   -3.1283   -1.8209 O   0  0  0  0  0  0  0  0  0  0  0  0
   -0.2528   -1.5023   -1.2256 O   0  0  0  0  0  0  0  0  0  0  0  0
    0.1169    1.0683   -0.5105 O   0  0  0  0  0  0  0  0  0  0  0  0
   -0.5331    1.2951   -2.0826 Si  0  0  0  0  0  4  0  0  0  0  0  0
    0.4913    2.5966   -2.1358 O   0  0  0  0  0  0  0  0  0  0  0  0
   -0.1173    0.3317   -3.3196 O   0  0  0  0  0  0  0  0  0  0  0  0
   -2.0717    1.6838   -1.8819 O   0  0  0  0  0  0  0  0  0  0  0  0
    1.4711    2.3480    0.9344 Ca  0  0  0  0  0 15  0  0  0  0  0  0
  1  2  1  0
  2  3  1  0
  2  4  1  0
  2  5  1  0
  6  7  1  0
  7  8  1  0
  7  9  1  0
  7 10  1  0
M  CHG  3   5  -1  10  -1  11   2
M  END
>  <DRUGBANK_ID>  (1) 
DB13829

>  <COMMON_NAME>  (1) 
Calcium silicate

>  <CAS_NUMBER>  (1) 
1344-95-2

>  <UNII>  (1) 
S4255P4G5M

$$$$
