
     RDKit          3D

 18 18  0  0  1  0  0  0  0  0999 V2000
    0.8941    0.0295   -0.0079 C   0  0  0  0  0  0  0  0  0  0  0  0
    2.9267   -2.8881   -2.3292 C   0  0  0  0  0  0  0  0  0  0  0  0
    0.3526   -0.9700   -1.0748 C   0  0  2  0  0  0  0  0  0  0  0  0
    1.4800   -2.4404   -2.5442 C   0  0  1  0  0  0  0  0  0  0  0  0
   -0.0688   -2.4026   -0.6913 C   0  0  2  0  0  0  0  0  0  0  0  0
    0.3581   -3.2759   -1.8682 C   0  0  2  0  0  0  0  0  0  0  0  0
   -1.3030   -2.4206    0.0023 O   0  0  0  0  0  0  0  0  0  0  0  0
    0.8086   -4.5799   -1.4583 O   0  0  0  0  0  0  0  0  0  0  0  0
    4.5203   -1.0373   -1.2794 O   0  0  0  0  0  0  0  0  0  0  0  0
    5.4980   -2.6634   -2.8789 O   0  0  0  0  0  0  0  0  0  0  0  0
    4.0173   -0.7446   -3.8243 O   0  0  0  0  0  0  0  0  0  0  0  0
    2.2915   -1.9185    0.5391 O   0  0  0  0  0  0  0  0  0  0  0  0
    2.1706   -1.1216    2.7902 O   0  0  0  0  0  0  0  0  0  0  0  0
    1.7023   -3.3223    2.1151 O   0  0  0  0  0  0  0  0  0  0  0  0
    0.6095   -0.3303    1.3395 O   0  0  0  0  0  0  0  0  0  0  0  0
    1.3440   -1.0811   -2.1089 O   0  0  0  0  0  0  0  0  0  0  0  0
    4.2229   -1.7120   -2.6982 P   0  0  0  0  0  0  0  0  0  0  0  0
    1.1862   -1.9092    1.7488 P   0  0  0  0  0  0  0  0  0  0  0  0
  3  1  1  1
  4  2  1  1
  5  3  1  0
  5  7  1  6
  6  4  1  0
  6  5  1  0
  6  8  1  1
 15  1  1  0
 16  3  1  0
 16  4  1  0
 17  2  1  0
 17  9  1  0
 17 10  1  0
 17 11  2  0
 18 12  1  0
 18 13  1  0
 18 14  2  0
 18 15  1  0
M  END
>  <DRUGBANK_ID>  (1) 
DB02393

>  <SECONDARY_ACCESSION_NUMBERS>  (1) 
EXPT01415

>  <COMMON_NAME>  (1) 
D-Gluco-2,5-Anhydro-1-Deoxy-1-Phosphonohexitol-6-Phosphate

$$$$
