M1S
     RDKit          3D

 24 25  0  0  0  0  0  0  0  0999 V2000
   -2.0230   -3.4210    1.1944 C   0  0  0  0  0  0  0  0  0  0  0  0
   -3.4467   -5.0370    2.0955 C   0  0  0  0  0  0  0  0  0  0  0  0
   -5.0379   -6.1180    2.3113 C   0  0  0  0  0  0  0  0  0  0  0  0
   -6.0446   -7.7667    2.7945 C   0  0  0  0  0  0  0  0  0  0  0  0
   -5.8036   -9.0642    3.3961 C   0  0  0  0  0  0  0  0  0  0  0  0
   -4.5937   -8.3992    3.5950 C   0  0  0  0  0  0  0  0  0  0  0  0
   -3.7880   -6.7041    3.0370 C   0  0  0  0  0  0  0  0  0  0  0  0
   -3.1283   -7.4553    4.6293 C   0  0  0  0  0  0  0  0  0  0  0  0
   -2.1607   -6.6608    4.0524 C   0  0  0  0  0  0  0  0  0  0  0  0
   -2.1139   -5.3354    4.7179 C   0  0  0  0  0  0  0  0  0  0  0  0
   -0.6561   -5.1390    4.5936 C   0  0  0  0  0  0  0  0  0  0  0  0
   -0.1874   -5.1761    3.1886 C   0  0  0  0  0  0  0  0  0  0  0  0
   -0.7835   -4.0425    2.6092 C   0  0  0  0  0  0  0  0  0  0  0  0
   -0.6283   -2.6234    3.1702 C   0  0  0  0  0  0  0  0  0  0  0  0
    0.7866   -2.3222    3.1117 C   0  0  0  0  0  0  0  0  0  0  0  0
    1.1639   -1.1897    2.5470 C   0  0  0  0  0  0  0  0  0  0  0  0
    2.4936   -1.1368    2.1135 C   0  0  0  0  0  0  0  0  0  0  0  0
    1.5936   -1.5956    0.6365 C   0  0  0  0  0  0  0  0  0  0  0  0
   -2.0752   -2.1314    0.8332 O   0  0  0  0  0  0  0  0  0  0  0  0
   -6.6634   -5.9568    2.7814 O   0  0  0  0  0  0  0  0  0  0  0  0
   -6.2930  -10.5619    3.4371 O   0  0  0  0  0  0  0  0  0  0  0  0
   -3.7408  -10.1703    4.3825 Cl  0  0  0  0  0  0  0  0  0  0  0  0
   -1.8228   -7.0388    2.9102 O   0  0  0  0  0  0  0  0  0  0  0  0
   -0.1375   -2.7541    0.9137 O   0  0  0  0  0  0  0  0  0  0  0  0
  1  2  1  0
  1 19  2  0
  1 24  1  0
  2  3  2  0
  2  7  1  0
  3  4  1  0
  3 20  1  0
  4  5  2  0
  5  6  1  0
  5 21  1  0
  6  7  2  0
  6 22  1  0
  7  8  1  0
  8  9  1  0
  9 10  1  0
  9 23  2  0
 10 11  1  0
 11 12  1  0
 12 13  1  0
 13 14  1  0
 14 15  1  0
 15 16  2  0
 16 17  1  0
 17 18  1  0
 18 24  1  0
M  END
>  <DRUGBANK_ID>  (1) 
DB08153

>  <COMMON_NAME>  (1) 
(5E)-14-CHLORO-15,17-DIHYDROXY-4,7,8,9,10,11-HEXAHYDRO-2-BENZOXACYCLOPENTADECINE-1,12(3H,13H)-DIONE

$$$$
