
     RDKit          3D

 20 22  0  0  0  0  0  0  0  0999 V2000
    0.9969    0.0584    0.1458 C   0  0  0  0  0  0  0  0  0  0  0  0
    0.3707    0.9486    1.5929 S   0  0  0  0  0  0  0  0  0  0  0  0
    0.9947   -0.1017    2.9603 C   0  0  0  0  0  0  0  0  0  0  0  0
    0.4768   -1.5527    2.9364 C   0  0  1  0  0  0  0  0  0  0  0  0
    1.4686   -2.5553    2.4900 N   0  0  0  0  0  0  0  0  0  0  0  0
    0.1221   -3.5272    4.2528 C   0  0  2  0  0  0  0  0  0  0  0  0
   -1.0314   -4.0806    3.5954 O   0  0  0  0  0  0  0  0  0  0  0  0
   -0.0094   -2.0054    4.3218 C   0  0  2  0  0  0  0  0  0  0  0  0
   -1.3378   -1.5669    4.5818 O   0  0  0  0  0  0  0  0  0  0  0  0
    1.4001   -3.7229    3.4108 C   0  0  2  0  0  0  0  0  0  0  0  0
    2.6510   -3.7688    4.2401 C   0  0  0  0  0  0  0  0  0  0  0  0
    3.1175   -2.8135    5.1389 C   0  0  0  0  0  0  0  0  0  0  0  0
    4.2852   -3.2585    5.7072 N   0  0  0  0  0  0  0  0  0  0  0  0
    4.5743   -4.4886    5.1984 C   0  0  0  0  0  0  0  0  0  0  0  0
    5.7192   -5.3588    5.5273 C   0  0  1  0  0  0  0  0  0  0  0  0
    5.6009   -5.7706    6.9107 N   0  0  0  0  0  0  0  0  0  0  0  0
    5.7699   -6.4335    4.5754 N   0  0  0  0  0  0  0  0  0  0  0  0
    4.6756   -6.7205    3.7953 C   0  0  0  0  0  0  0  0  0  0  0  0
    3.5999   -6.0170    3.5813 N   0  0  0  0  0  0  0  0  0  0  0  0
    3.6035   -4.8128    4.2883 C   0  0  0  0  0  0  0  0  0  0  0  0
  1  2  1  0
  2  3  1  0
  4  3  1  1
  4  5  1  0
  4  8  1  0
  5 10  1  0
  6  7  1  6
  6  8  1  0
  6 10  1  0
  8  9  1  6
 10 11  1  1
 11 12  2  0
 11 20  1  0
 12 13  1  0
 13 14  1  0
 14 15  1  0
 14 20  2  0
 15 16  1  1
 15 17  1  0
 17 18  1  0
 18 19  2  0
 19 20  1  0
M  END
>  <DRUGBANK_ID>  (1) 
DB02158

>  <SECONDARY_ACCESSION_NUMBERS>  (1) 
EXPT02247

>  <COMMON_NAME>  (1) 
(2S,3S,4R,5S)-2-(4-Amino-4,5-dihydro-1H-pyrrolo[3,2-d]pyrimidin-7-yl)-5-[(methylsulfanyl)methyl]-3,4-pyrrolidinediol

$$$$
