
     RDKit          3D

 24 25  0  0  1  0  0  0  0  0999 V2000
   -6.2992   -3.0472    8.7244 C   0  0  0  0  0  0  0  0  0  0  0  0
   -5.7600   -3.0848    7.4104 O   0  0  0  0  0  0  0  0  0  0  0  0
   -4.3995   -3.0567    7.3045 C   0  0  0  0  0  0  0  0  0  0  0  0
   -3.4716   -3.1981    8.3358 C   0  0  0  0  0  0  0  0  0  0  0  0
   -2.0973   -3.1963    8.0761 C   0  0  0  0  0  0  0  0  0  0  0  0
   -1.6291   -3.0199    6.7655 C   0  0  0  0  0  0  0  0  0  0  0  0
   -2.5647   -2.7384    5.7657 C   0  0  0  0  0  0  0  0  0  0  0  0
   -3.9201   -2.8469    6.0079 C   0  0  0  0  0  0  0  0  0  0  0  0
   -4.7754   -2.7934    4.9415 O   0  0  0  0  0  0  0  0  0  0  0  0
   -0.1700   -3.2409    6.4110 C   0  0  0  0  0  0  0  0  0  0  0  0
    0.1136   -4.5526    5.6099 C   0  0  2  0  0  0  0  0  0  0  0  0
   -0.6538   -4.6778    4.3026 C   0  0  0  0  0  0  0  0  0  0  0  0
   -0.1803   -4.1479    3.1080 C   0  0  0  0  0  0  0  0  0  0  0  0
   -1.0123   -4.0755    1.9666 C   0  0  0  0  0  0  0  0  0  0  0  0
   -2.3871   -4.4882    2.0030 C   0  0  0  0  0  0  0  0  0  0  0  0
   -2.8550   -5.0379    3.2060 C   0  0  0  0  0  0  0  0  0  0  0  0
   -1.9604   -5.1764    4.2916 C   0  0  0  0  0  0  0  0  0  0  0  0
   -4.0703   -5.4623    3.6725 O   0  0  0  0  0  0  0  0  0  0  0  0
   -5.1717   -5.5189    2.8224 C   0  0  0  0  0  0  0  0  0  0  0  0
   -2.9997   -4.2694    0.8155 O   0  0  0  0  0  0  0  0  0  0  0  0
   -4.3374   -4.3406    0.4129 C   0  0  0  0  0  0  0  0  0  0  0  0
   -0.3279   -3.5340    0.8889 O   0  0  0  0  0  0  0  0  0  0  0  0
   -0.9825   -3.4458   -0.3721 C   0  0  0  0  0  0  0  0  0  0  0  0
   -0.1284   -5.6887    6.4500 O   0  0  0  0  0  0  0  0  0  0  0  0
  1  2  1  0
  2  3  1  0
  3  4  2  0
  3  8  1  0
  4  5  1  0
  5  6  2  0
  6  7  1  0
  6 10  1  0
  7  8  2  0
  8  9  1  0
 11 24  1  1
 11 12  1  0
 11 10  1  0
 12 13  2  0
 12 17  1  0
 13 14  1  0
 14 15  2  0
 14 22  1  0
 15 16  1  0
 15 20  1  0
 16 17  2  0
 16 18  1  0
 18 19  1  0
 20 21  1  0
 22 23  1  0
M  END
>  <DRUGBANK_ID>  (1) 
DB12596

>  <COMMON_NAME>  (1) 
Combretastatin

>  <CAS_NUMBER>  (1) 
82855-09-2

>  <UNII>  (1) 
7O62J06F18

$$$$
