FRC
     RDKit          3D

 25 27  0  0  0  0  0  0  0  0999 V2000
   -0.9514    0.0860   -0.0304 C   0  0  0  0  0  0  0  0  0  0  0  0
   -0.0222   -0.9335   -0.0217 N   0  0  0  0  0  0  0  0  0  0  0  0
    1.2022   -0.3692    0.0485 C   0  0  0  0  0  0  0  0  0  0  0  0
    1.1235    0.9381    0.0142 N   0  0  0  0  0  0  0  0  0  0  0  0
   -0.2291    1.2567   -0.0148 C   0  0  0  0  0  0  0  0  0  0  0  0
   -0.7253    2.6413   -0.0024 C   0  0  0  0  0  0  0  0  0  0  0  0
    0.0017    3.6143    0.0077 O   0  0  0  0  0  0  0  0  0  0  0  0
   -2.0934    2.8252   -0.0003 N   0  0  0  0  0  0  0  0  0  0  0  0
   -0.2929   -2.3616    0.0110 C   0  0  1  0  0  0  0  0  0  0  0  0
   -0.0293   -3.1786   -1.2683 C   0  0  1  0  0  0  0  0  0  0  0  0
    1.3728   -3.2488   -1.4675 O   0  0  0  0  0  0  0  0  0  0  0  0
   -0.0951   -3.0992    1.3352 C   0  0  0  0  0  0  0  0  0  0  0  0
   -0.9095   -2.4406    2.4595 C   0  0  0  0  0  0  0  0  0  0  0  0
   -0.5542   -4.6287   -1.2799 C   0  0  0  0  0  0  0  0  0  0  0  0
   -2.3630   -2.6700    2.4513 O   0  0  0  0  0  0  0  0  0  0  0  0
   -6.4202    0.1777   -1.6037 C   0  0  0  0  0  0  0  0  0  0  0  0
   -5.2350   -0.5037   -1.8271 C   0  0  0  0  0  0  0  0  0  0  0  0
   -4.5558   -1.0355   -0.7283 C   0  0  0  0  0  0  0  0  0  0  0  0
   -4.9283   -0.7522    0.6086 C   0  0  0  0  0  0  0  0  0  0  0  0
   -6.0830   -0.0005    0.8014 C   0  0  0  0  0  0  0  0  0  0  0  0
   -6.8478    0.4127   -0.2955 C   0  0  0  0  0  0  0  0  0  0  0  0
   -3.5839   -1.9785   -0.9362 C   0  0  0  0  0  0  0  0  0  0  0  0
   -3.1744   -2.7342    0.1678 C   0  0  0  0  0  0  0  0  0  0  0  0
   -3.1758   -2.1965    1.4508 C   0  0  0  0  0  0  0  0  0  0  0  0
   -4.1639   -1.2633    1.6922 C   0  0  0  0  0  0  0  0  0  0  0  0
  1  2  1  0
  1  5  2  0
  2  3  1  0
  3  4  2  0
  4  5  1  0
  5  6  1  0
  6  7  2  0
  6  8  1  0
  9  2  1  0
  9 10  1  0
  9 12  1  1
 10 11  1  0
 10 14  1  1
 12 13  1  0
 13 15  1  0
 15 24  1  0
 16 17  2  0
 16 21  1  0
 17 18  1  0
 18 19  2  0
 18 22  1  0
 19 20  1  0
 19 25  1  0
 20 21  2  0
 22 23  2  0
 23 24  1  0
 24 25  2  0
M  END
>  <DRUGBANK_ID>  (1) 
DB07785

>  <COMMON_NAME>  (1) 
1-{(1R,2S)-2-HYDROXY-1-[2-(2-NAPHTHYLOXY)ETHYL]PROPYL}-1H-IMIDAZONE-4-CARBOXAMIDE

$$$$
