
     RDKit          3D

  8  7  0  0  1  0  0  0  0  0999 V2000
    1.1424   -1.5004   -1.7029 C   0  0  0  0  0  0  0  0  0  0  0  0
    0.7731    0.0761    0.2428 C   0  0  0  0  0  0  0  0  0  0  0  0
    0.3707   -0.2578   -1.2239 C   0  0  2  0  0  0  0  0  0  0  0  0
    2.5159   -1.0144   -2.1162 C   0  0  0  0  0  0  0  0  0  0  0  0
   -1.0909   -0.3399   -1.3728 N   0  0  0  0  0  0  0  0  0  0  0  0
    3.0168   -1.1287   -3.2259 O   0  0  0  0  0  0  0  0  0  0  0  0
    3.1342   -0.3066   -1.1503 O   0  0  0  0  0  0  0  0  0  0  0  0
   -0.2703   -0.7113    1.5114 S   0  0  0  0  0  0  0  0  0  0  0  0
  3  5  1  1
  3  2  1  0
  3  1  1  0
  4  1  1  0
  6  4  2  0
  7  4  1  0
  8  2  1  0
M  END
>  <DRUGBANK_ID>  (1) 
DB02780

>  <SECONDARY_ACCESSION_NUMBERS>  (1) 
EXPT00644

>  <COMMON_NAME>  (1) 
Beta-3-Cysteine

$$$$
