1101
     RDKit          3D

 25 26  0  0  1  0  0  0  0  0999 V2000
    1.1484    0.1586   -0.1812 F   0  0  0  0  0  0  0  0  0  0  0  0
    5.0067    3.4687    0.9408 O   0  0  0  0  0  0  0  0  0  0  0  0
    5.9025    2.7342   -2.3635 O   0  0  0  0  0  0  0  0  0  0  0  0
    5.1160    5.3054   -2.1606 O   0  0  0  0  0  0  0  0  0  0  0  0
    6.4475   -0.0300    0.0666 O   0  0  0  0  0  0  0  0  0  0  0  0
    2.4014   -4.8653    0.0364 O   0  0  0  0  0  0  0  0  0  0  0  0
    4.4869   -4.0555    0.0431 O   0  0  0  0  0  0  0  0  0  0  0  0
    4.4902    1.1624    0.2688 N   0  0  0  0  0  0  0  0  0  0  0  0
    4.5601   -1.2209    0.0659 N   0  0  0  0  0  0  0  0  0  0  0  0
    2.7534   -2.5324   -0.2867 N   0  0  0  0  0  0  0  0  0  0  0  0
    4.8793    2.9694   -1.3988 C   0  0  2  0  0  0  0  0  0  0  0  0
    4.6693    4.4558   -1.1210 C   0  0  1  0  0  0  0  0  0  0  0  0
    5.2246    2.3859   -0.0018 C   0  0  1  0  0  0  0  0  0  0  0  0
    5.4122    4.6434    0.1898 C   0  0  1  0  0  0  0  0  0  0  0  0
    5.0864    5.9640    0.8670 C   0  0  0  0  0  0  0  0  0  0  0  0
    3.1232    1.1538    0.1883 C   0  0  0  0  0  0  0  0  0  0  0  0
    5.2127   -0.0345    0.1502 C   0  0  0  0  0  0  0  0  0  0  0  0
    2.4646    0.0181   -0.0021 C   0  0  0  0  0  0  0  0  0  0  0  0
    3.2802   -1.2620   -0.0692 C   0  0  0  0  0  0  0  0  0  0  0  0
    0.5056   -2.9316    1.4428 C   0  0  0  0  0  0  0  0  0  0  0  0
    0.3022   -4.4213    1.3525 C   0  0  0  0  0  0  0  0  0  0  0  0
   -0.0797   -2.2840    0.1808 C   0  0  0  0  0  0  0  0  0  0  0  0
    0.9406   -4.9925    0.0782 C   0  0  0  0  0  0  0  0  0  0  0  0
    3.2825   -3.8061   -0.0545 C   0  0  0  0  0  0  0  0  0  0  0  0
   -1.5548   -2.1812    0.1051 C   0  0  0  0  0  0  0  0  0  0  0  0
  1 18  1  0
  2 13  1  0
  2 14  1  0
  5 17  2  0
  6 23  1  0
  6 24  1  0
  7 24  2  0
  8 16  1  0
  8 17  1  0
  9 17  1  0
  9 19  2  0
 10 19  1  0
 10 24  1  0
 11  3  1  6
 11 12  1  0
 11 13  1  0
 12  4  1  6
 12 14  1  0
 13  8  1  1
 14 15  1  1
 16 18  2  0
 18 19  1  0
 20 21  1  0
 20 22  1  0
 21 23  1  0
 22 25  1  0
M  END
>  <DRUGBANK_ID>  (1) 
DB01101

>  <SECONDARY_ACCESSION_NUMBERS>  (1) 
APRD00203

>  <COMMON_NAME>  (1) 
Capecitabine

>  <CAS_NUMBER>  (1) 
154361-50-9

>  <UNII>  (1) 
6804DJ8Z9U

>  <SYNONYMS>  (1) 
(1-(5-Deoxy-beta-D-ribofuranosyl)-5-fluoro-1,2-dihydro-2-oxo-4-pyrimidinyl)-carbamic acid pentyl ester; Capecitabin; Capecitabina; Capecitabine; Capécitabine; Capecitabinum; Pentyl [1-(5-deoxy-β-D-ribofuranosyl)-5-fluoro-2-oxo-1,2-dihydropyrimidin-4-yl]carbamate; pentyl 1-(5-deoxy-β-D-ribofuranosyl)-5-fluoro-1,2-dihydro-2-oxo-4-pyrimidinecarbamate

$$$$
