
     RDKit          3D

 12 12  0  0  0  0  0  0  0  0999 V2000
    0.9789    0.1273   -0.1087 O   0  0  0  0  0  0  0  0  0  0  0  0
    1.0686   -1.5330   -1.5949 O   0  0  0  0  0  0  0  0  0  0  0  0
   -1.0761   -0.8607   -0.7436 C   0  0  2  0  0  0  0  0  0  0  0  0
   -1.9115    0.2950   -1.3061 C   0  0  0  0  0  0  0  0  0  0  0  0
   -3.3070   -0.2620   -1.5934 C   0  0  0  0  0  0  0  0  0  0  0  0
   -1.4106   -1.1243    0.7470 C   0  0  0  0  0  0  0  0  0  0  0  0
    0.4043   -0.7839   -0.9121 C   0  0  0  0  0  0  0  0  0  0  0  0
   -3.7892   -1.3672   -0.8554 C   0  0  0  0  0  0  0  0  0  0  0  0
   -4.1749    0.2809   -2.5249 C   0  0  0  0  0  0  0  0  0  0  0  0
   -5.0950   -1.7790   -0.8131 C   0  0  0  0  0  0  0  0  0  0  0  0
   -5.5011   -0.1838   -2.5583 C   0  0  0  0  0  0  0  0  0  0  0  0
   -5.9625   -1.1857   -1.6883 C   0  0  0  0  0  0  0  0  0  0  0  0
  1  7  1  0
  2  7  2  0
  3  7  1  0
  3  6  1  1
  3  4  1  0
  4  5  1  0
  5  8  2  0
  5  9  1  0
  8 10  1  0
  9 11  2  0
 10 12  2  0
 11 12  1  0
M  END
>  <DRUGBANK_ID>  (1) 
DB07673

>  <COMMON_NAME>  (1) 
(2S)-2-Methyl-3-phenylpropanoic acid

>  <CAS_NUMBER>  (1) 
14367-54-5

>  <SYNONYMS>  (1) 
(S)-2-Benzylpropanoic acid; Deamino-methyl-phenylalanine

$$$$
