777
     RDKit          3D

 24 26  0  0  1  0  0  0  0  0999 V2000
    0.0173    1.6987    0.1864 S   0  0  0  0  0  0  0  0  0  0  0  0
    4.5218   -3.2123   -0.5376 O   0  0  0  0  0  0  0  0  0  0  0  0
    0.0420   -1.3315    0.6142 N   0  0  0  0  0  0  0  0  0  0  0  0
   -2.2528   -1.2352    3.1547 N   0  0  0  0  0  0  0  0  0  0  0  0
   -0.7965   -1.5824    3.2131 C   0  0  0  0  0  0  0  0  0  0  0  0
   -0.0993   -2.1900    1.8687 C   0  0  0  0  0  0  0  0  0  0  0  0
    1.3050   -0.7602    0.3725 C   0  0  0  0  0  0  0  0  0  0  0  0
   -1.0424   -0.8929   -0.2003 C   0  0  0  0  0  0  0  0  0  0  0  0
   -0.6570   -2.6334    4.3373 C   0  0  0  0  0  0  0  0  0  0  0  0
    1.4191    0.6186    0.0930 C   0  0  0  0  0  0  0  0  0  0  0  0
   -1.2030    0.5223   -0.4212 C   0  0  0  0  0  0  0  0  0  0  0  0
    2.3927   -1.5981    0.1297 C   0  0  0  0  0  0  0  0  0  0  0  0
   -2.1484   -1.7284   -0.4608 C   0  0  0  0  0  0  0  0  0  0  0  0
   -2.9065   -0.7165    4.3365 C   0  0  0  0  0  0  0  0  0  0  0  0
   -2.4283   -0.1417    2.2441 C   0  0  0  0  0  0  0  0  0  0  0  0
    3.5668   -1.0673   -0.3983 C   0  0  0  0  0  0  0  0  0  0  0  0
    2.5985    1.1555   -0.3900 C   0  0  0  0  0  0  0  0  0  0  0  0
   -2.4487    1.0660   -0.7673 C   0  0  0  0  0  0  0  0  0  0  0  0
    3.6726    0.3129   -0.6181 C   0  0  0  0  0  0  0  0  0  0  0  0
   -3.3929   -1.1618   -0.7970 C   0  0  0  0  0  0  0  0  0  0  0  0
   -3.5420    0.2229   -0.9461 C   0  0  0  0  0  0  0  0  0  0  0  0
    4.6475   -2.0247   -0.7725 C   0  0  0  0  0  0  0  0  0  0  0  0
    5.9023   -1.4726   -1.4163 C   0  0  0  0  0  0  0  0  0  0  0  0
    5.6552   -0.8874   -2.7978 C   0  0  0  0  0  0  0  0  0  0  0  0
  1 10  1  0
  1 11  1  0
  2 22  2  0
  3  6  1  0
  3  7  1  0
  3  8  1  0
  4  5  1  0
  4 14  1  0
  4 15  1  0
  5  6  1  0
  5  9  1  0
  7 10  2  0
  7 12  1  0
  8 11  2  0
  8 13  1  0
 10 17  1  0
 11 18  1  0
 12 16  2  0
 13 20  2  0
 16 19  1  0
 16 22  1  0
 17 19  2  0
 18 21  2  0
 20 21  1  0
 22 23  1  0
 23 24  1  0
M  END
>  <DRUGBANK_ID>  (1) 
DB00777

>  <SECONDARY_ACCESSION_NUMBERS>  (1) 
APRD00339

>  <COMMON_NAME>  (1) 
Propiomazine

>  <CAS_NUMBER>  (1) 
362-29-8

>  <UNII>  (1) 
242Z0PM79Y

>  <SYNONYMS>  (1) 
10-(2-Dimethylaminopropyl)-2-propionylphenothiazine; 2-Propionyl-10-(2-(dimethylamino)propyl)phenothiazine; 3-Propionyl-10-dimethylaminoisopropylphenothiazine; Propiomazin; Propiomazina; Propiomazine; Propiomazinum

$$$$
