161
     RDKit          3D

 32 33  0  0  0  0  0  0  0  0999 V2000
    1.0179   -1.3159   -2.8474 C   0  0  0  0  0  0  0  0  0  0  0  0
    0.4548   -2.4245   -2.0001 C   0  0  0  0  0  0  0  0  0  0  0  0
   -0.3455   -3.2417   -2.4616 O   0  0  0  0  0  0  0  0  0  0  0  0
    0.8935   -2.5038   -0.5277 C   0  0  2  0  0  0  0  0  0  0  0  0
    0.4494   -1.3205    0.3141 C   0  0  0  0  0  0  0  0  0  0  0  0
   -1.0296   -1.1162    0.0889 C   0  0  0  0  0  0  0  0  0  0  0  0
   -1.8164   -1.3494    1.1544 O   0  0  0  0  0  0  0  0  0  0  0  0
   -1.4942   -0.7892   -0.9928 O   0  0  0  0  0  0  0  0  0  0  0  0
    2.3342   -2.7762   -0.4350 N   0  0  0  0  0  0  0  0  0  0  0  0
    2.9633   -3.9239   -0.0004 C   0  0  0  0  0  0  0  0  0  0  0  0
    4.1883   -3.9863    0.0178 O   0  0  0  0  0  0  0  0  0  0  0  0
    2.1686   -5.0934    0.4349 C   0  0  0  0  0  0  0  0  0  0  0  0
    1.1025   -5.5295   -0.3569 C   0  0  0  0  0  0  0  0  0  0  0  0
    0.3309   -6.6080    0.0186 C   0  0  0  0  0  0  0  0  0  0  0  0
    2.5302   -5.8155    1.5753 C   0  0  0  0  0  0  0  0  0  0  0  0
    1.8281   -6.9816    1.8878 C   0  0  0  0  0  0  0  0  0  0  0  0
    0.7121   -7.3624    1.1184 C   0  0  0  0  0  0  0  0  0  0  0  0
   -0.2048   -8.4579    1.5531 C   0  0  0  0  0  0  0  0  0  0  0  0
    0.4231   -9.7563    1.7340 N   0  0  0  0  0  0  0  0  0  0  0  0
   -0.5883  -11.0240    2.2387 S   0  0  0  0  0  0  0  0  0  0  0  0
   -1.7782  -10.9774    1.4206 O   0  0  0  0  0  0  0  0  0  0  0  0
    0.2731  -12.1871    2.2482 O   0  0  0  0  0  0  0  0  0  0  0  0
   -1.0632  -10.7074    3.9411 C   0  0  0  0  0  0  0  0  0  0  0  0
   -1.2756  -11.7913    4.7974 C   0  0  0  0  0  0  0  0  0  0  0  0
   -1.1796   -9.4302    4.4819 C   0  0  0  0  0  0  0  0  0  0  0  0
   -1.3257   -9.2151    5.8486 C   0  0  0  0  0  0  0  0  0  0  0  0
   -1.5457  -10.2892    6.6905 C   0  0  0  0  0  0  0  0  0  0  0  0
   -1.7827   -9.9833    8.0003 O   0  0  0  0  0  0  0  0  0  0  0  0
   -1.5341  -11.5908    6.1784 C   0  0  0  0  0  0  0  0  0  0  0  0
   -1.7566  -12.8037    7.0075 C   0  0  0  0  0  0  0  0  0  0  0  0
   -2.0046  -12.6102    8.3190 O   0  0  0  0  0  0  0  0  0  0  0  0
   -1.7724  -13.9235    6.5062 O   0  0  0  0  0  0  0  0  0  0  0  0
  1  2  1  0
  2  3  2  0
  4  9  1  0
  4  5  1  6
  4  2  1  0
  5  6  1  0
  6  7  1  0
  6  8  2  0
  9 10  1  0
 10 11  2  0
 10 12  1  0
 12 13  2  0
 12 15  1  0
 13 14  1  0
 14 17  2  0
 15 16  2  0
 16 17  1  0
 17 18  1  0
 18 19  1  0
 19 20  1  0
 20 21  2  0
 20 22  2  0
 20 23  1  0
 23 24  2  0
 23 25  1  0
 24 29  1  0
 25 26  2  0
 26 27  1  0
 27 28  1  0
 27 29  2  0
 29 30  1  0
 30 31  1  0
 30 32  2  0
M  END
>  <DRUGBANK_ID>  (1) 
DB03124

>  <SECONDARY_ACCESSION_NUMBERS>  (1) 
EXPT00045

>  <COMMON_NAME>  (1) 
5-[4-(1-Carboxymethyl-2-Oxo-Propylcarbamoyl)-Benzylsulfamoyl]-2-Hydroxy-Benzoic Acid

$$$$
