VRV
     RDKit          3D

 23 25  0  0  0  0  0  0  0  0999 V2000
   -0.5978   -1.1966    0.0315 C   0  0  0  0  0  0  0  0  0  0  0  0
   -1.9932   -1.2055    0.0180 C   0  0  0  0  0  0  0  0  0  0  0  0
   -2.6910    0.0018    0.0027 C   0  0  0  0  0  0  0  0  0  0  0  0
   -2.0083    1.2303    0.0138 C   0  0  0  0  0  0  0  0  0  0  0  0
   -0.6041    1.2249    0.0163 C   0  0  0  0  0  0  0  0  0  0  0  0
    0.0897    0.0155    0.0204 C   0  0  0  0  0  0  0  0  0  0  0  0
   -2.7125    2.5210    0.0410 C   0  0  0  0  0  0  0  0  0  0  0  0
   -2.4955    3.4173   -0.9723 N   0  0  0  0  0  0  0  0  0  0  0  0
   -3.1147    4.6392   -1.0661 C   0  0  0  0  0  0  0  0  0  0  0  0
   -4.0078    5.0260    0.0635 C   0  0  0  0  0  0  0  0  0  0  0  0
   -4.2101    4.1461    1.0716 C   0  0  0  0  0  0  0  0  0  0  0  0
   -3.5420    2.8473    1.0418 C   0  0  0  0  0  0  0  0  0  0  0  0
   -5.1386    4.4653    2.1785 C   0  0  0  0  0  0  0  0  0  0  0  0
   -4.6996    4.4278    3.5066 C   0  0  0  0  0  0  0  0  0  0  0  0
   -5.6221    4.5469    4.5456 C   0  0  0  0  0  0  0  0  0  0  0  0
   -6.9577    4.8344    4.2663 C   0  0  0  0  0  0  0  0  0  0  0  0
   -7.3929    4.9214    2.9474 C   0  0  0  0  0  0  0  0  0  0  0  0
   -6.4915    4.7155    1.9083 C   0  0  0  0  0  0  0  0  0  0  0  0
   -4.6107    6.3163    0.0218 C   0  0  0  0  0  0  0  0  0  0  0  0
   -5.1458    7.3437    0.0482 N   0  0  0  0  0  0  0  0  0  0  0  0
   -2.9297    5.3674   -2.0360 O   0  0  0  0  0  0  0  0  0  0  0  0
   -4.0594   -0.0106   -0.0312 O   0  0  0  0  0  0  0  0  0  0  0  0
    1.9801    0.0151    0.0041 Br  0  0  0  0  0  0  0  0  0  0  0  0
  1  6  2  0
  1  2  1  0
  2  3  2  0
  3  4  1  0
  3 22  1  0
  4  5  2  0
  4  7  1  0
  5  6  1  0
  6 23  1  0
  7 12  2  0
  7  8  1  0
  8  9  1  0
  9 10  1  0
  9 21  2  0
 10 11  2  0
 10 19  1  0
 11 13  1  0
 11 12  1  0
 13 18  1  0
 13 14  2  0
 14 15  1  0
 15 16  2  0
 16 17  1  0
 17 18  2  0
 19 20  3  0
M  END
>  <DRUGBANK_ID>  (1) 
DB08705

>  <COMMON_NAME>  (1) 
6-(5-BROMO-2-HYDROXYPHENYL)-2-OXO-4-PHENYL-1,2-DIHYDROPYRIDINE-3-CARBONITRILE

$$$$
