LIM
     RDKit          3D

 18 17  0  0  0  0  0  0  0  0999 V2000
    1.0877   -0.1092    0.0573 C   0  0  0  0  0  0  0  0  0  0  0  0
    0.3751    1.2026   -0.0292 C   0  0  0  0  0  0  0  0  0  0  0  0
   -0.4770    1.2157   -1.2529 C   0  0  0  0  0  0  0  0  0  0  0  0
   -1.9695    1.4432   -1.0948 C   0  0  0  0  0  0  0  0  0  0  0  0
   -2.4067    2.6947   -1.8525 C   0  0  0  0  0  0  0  0  0  0  0  0
   -2.1171    2.5838   -3.3532 C   0  0  0  0  0  0  0  0  0  0  0  0
   -2.8157    1.3592   -3.9541 C   0  0  0  0  0  0  0  0  0  0  0  0
   -4.3333    1.5091   -3.8235 C   0  0  0  0  0  0  0  0  0  0  0  0
   -4.7954    2.7679   -4.5645 C   0  0  0  0  0  0  0  0  0  0  0  0
   -4.4249    2.6656   -6.0477 C   0  0  0  0  0  0  0  0  0  0  0  0
   -5.1077    1.4443   -6.6705 C   0  0  0  0  0  0  0  0  0  0  0  0
   -6.6302    1.5717   -6.5456 C   0  0  0  0  0  0  0  0  0  0  0  0
   -7.1327    2.8160   -7.2867 C   0  0  0  0  0  0  0  0  0  0  0  0
   -6.7662    2.7631   -8.7704 C   0  0  0  0  0  0  0  0  0  0  0  0
   -7.3927    1.5433   -9.4263 C   0  0  0  0  0  0  0  0  0  0  0  0
    0.4910   -1.1818    0.1252 O   0  0  0  0  0  0  0  0  0  0  0  0
    0.0594    1.0446   -2.3498 O   0  0  0  0  0  0  0  0  0  0  0  0
    2.4329   -0.0364    0.0738 O   0  0  0  0  0  0  0  0  0  0  0  0
  1  2  1  0
  1 16  2  0
  1 18  1  0
  2  3  1  0
  3  4  1  0
  3 17  2  0
  4  5  1  0
  5  6  1  0
  6  7  1  0
  7  8  1  0
  8  9  1  0
  9 10  1  0
 10 11  1  0
 11 12  1  0
 12 13  1  0
 13 14  1  0
 14 15  1  0
M  END
>  <DRUGBANK_ID>  (1) 
DB04039

>  <SECONDARY_ACCESSION_NUMBERS>  (1) 
EXPT02034

>  <COMMON_NAME>  (1) 
3-Oxo-Pentadecanoic Acid

$$$$
