
     RDKit          3D

 12 12  0  0  0  0  0  0  0  0999 V2000
    0.9172   -0.1397    0.0112 C   0  0  0  0  0  0  0  0  0  0  0  0
    0.1295   -1.2927    0.0106 C   0  0  0  0  0  0  0  0  0  0  0  0
    0.2664    1.1085    0.0122 C   0  0  0  0  0  0  0  0  0  0  0  0
    2.2760    0.0116    0.0089 O   0  0  0  0  0  0  0  0  0  0  0  0
   -1.2628   -1.1829   -0.0018 C   0  0  0  0  0  0  0  0  0  0  0  0
    0.5406   -2.5935    0.0211 O   0  0  0  0  0  0  0  0  0  0  0  0
   -1.1314    1.2349    0.0004 C   0  0  0  0  0  0  0  0  0  0  0  0
    3.1004   -1.1322   -0.0248 C   0  0  0  0  0  0  0  0  0  0  0  0
   -1.8904    0.0629   -0.0107 C   0  0  0  0  0  0  0  0  0  0  0  0
   -1.8238    2.5365   -0.0018 C   0  0  0  0  0  0  0  0  0  0  0  0
   -1.2150    3.7360    0.0111 C   0  0  0  0  0  0  0  0  0  0  0  0
   -1.9283    5.0453    0.0092 C   0  0  0  0  0  0  0  0  0  0  0  0
  1  2  2  0
  1  3  1  0
  1  4  1  0
  2  5  1  0
  2  6  1  0
  3  7  2  0
  4  8  1  0
  5  9  2  0
  7  9  1  0
  7 10  1  0
 10 11  2  3
 11 12  1  0
M  END
>  <DRUGBANK_ID>  (1) 
DB14188

>  <COMMON_NAME>  (1) 
Isoeugenol

>  <CAS_NUMBER>  (1) 
97-54-1

>  <UNII>  (1) 
5M0MWY797U

>  <SYNONYMS>  (1) 
1-Hydroxy-2-methoxy-4-propen-1-ylbenzene; 2-methoxy-4-(prop-1-en-1-yl)phenol; 2-Methoxy-4-propenylphenol; 3-Methoxy-4-hydroxypropenylbenzene; 4-Propenylguaiacol; Propenylguaiacol

$$$$
