
     RDKit          3D

 11 10  0  0  0  0  0  0  0  0999 V2000
    0.9866    0.0848    0.0822 C   0  0  0  0  0  0  0  0  0  0  0  0
    0.4844   -1.1928   -0.5964 C   0  0  0  0  0  0  0  0  0  0  0  0
    0.4854    0.2267    1.5126 C   0  0  0  0  0  0  0  0  0  0  0  0
    0.3817   -2.6552    1.5502 O   0  0  0  0  0  0  0  0  0  0  0  0
    0.5498   -3.8412   -0.6085 O   0  0  0  0  0  0  0  0  0  0  0  0
    2.5244   -2.5820    0.3625 O   0  0  0  0  0  0  0  0  0  0  0  0
    0.4325    2.7798    1.5269 O   0  0  0  0  0  0  0  0  0  0  0  0
    0.5111    1.6004    3.7232 O   0  0  0  0  0  0  0  0  0  0  0  0
    2.5412    1.6798    2.2055 O   0  0  0  0  0  0  0  0  0  0  0  0
    1.1123   -2.7199    0.1111 S   0  0  0  0  0  0  0  0  0  0  0  0
    1.1145    1.6158    2.4101 S   0  0  0  0  0  0  0  0  0  0  0  0
  2  1  1  0
  3  1  1  0
 10  2  1  0
 10  4  1  0
 10  5  2  0
 10  6  2  0
 11  3  1  0
 11  7  1  0
 11  8  2  0
 11  9  2  0
M  END
>  <DRUGBANK_ID>  (1) 
DB06405

>  <COMMON_NAME>  (1) 
Eprodisate

>  <CAS_NUMBER>  (1) 
21668-77-9

>  <UNII>  (1) 
6QFP76V7S7

>  <SYNONYMS>  (1) 
1,3-propanedisulfonic acid; Eprodisate; Propane-1,3-disulfonate; Propane-1,3-disulfonic acid; Propane-1,3-disulphonate

$$$$
