
     RDKit          3D

 30 35  0  0  0  0  0  0  0  0999 V2000
    9.8196   -0.9598   -5.0548 O   0  0  0  0  0  0  0  0  0  0  0  0
   10.0820    0.4081   -4.9034 C   0  0  0  0  0  0  0  0  0  0  0  0
    9.3029    1.0222   -3.8066 C   0  0  0  0  0  0  0  0  0  0  0  0
    8.4122    2.0562   -4.0984 C   0  0  0  0  0  0  0  0  0  0  0  0
    7.7506    2.7047   -3.0519 C   0  0  0  0  0  0  0  0  0  0  0  0
    7.8664    2.2364   -1.7423 C   0  0  0  0  0  0  0  0  0  0  0  0
    8.7380    1.1995   -1.4543 C   0  0  0  0  0  0  0  0  0  0  0  0
    9.4843    0.6375   -2.4782 C   0  0  0  0  0  0  0  0  0  0  0  0
   10.6894    1.1275   -5.6940 O   0  0  0  0  0  0  0  0  0  0  0  0
    7.7814   -5.0375   -3.9947 O   0  0  0  0  0  0  0  0  0  0  0  0
    8.2568   -3.2199   -3.8466 C   0  0  2  0  0  0  0  0  0  0  0  0
    9.0289   -3.9920   -4.7687 C   0  0  1  0  0  0  0  0  0  0  0  0
    7.7037   -6.3081   -5.2688 C   0  0  0  0  0  0  0  0  0  0  0  0
    7.3034   -9.4129   -7.5626 C   0  0  0  0  0  0  0  0  0  0  0  0
    7.0943   -7.9527   -7.4684 O   0  0  0  0  0  0  0  0  0  0  0  0
    7.7912   -6.8456   -6.7556 C   0  0  0  0  0  0  0  0  0  0  0  0
    8.4559   -6.3212   -7.9691 C   0  0  0  0  0  0  0  0  0  0  0  0
    9.7064   -5.8205   -7.9051 C   0  0  0  0  0  0  0  0  0  0  0  0
   10.1572   -6.0091   -6.6375 C   0  0  0  0  0  0  0  0  0  0  0  0
   11.5355   -5.4349   -6.2273 C   0  0  0  0  0  0  0  0  0  0  0  0
   11.5679   -5.3519   -4.7429 C   0  0  1  0  0  0  0  0  0  0  0  0
   11.0864   -3.9407   -4.4421 C   0  0  1  0  0  0  0  0  0  0  0  0
   11.8068   -2.6403   -4.0776 C   0  0  0  0  0  0  0  0  0  0  0  0
    9.5954   -1.9288   -3.8765 C   0  0  0  0  0  0  0  0  0  0  0  0
   10.7343   -2.0981   -3.1621 C   0  0  0  0  0  0  0  0  0  0  0  0
    8.9237   -5.8038   -5.5329 C   0  0  0  0  0  0  0  0  0  0  0  0
    7.7710   -3.5758   -5.7101 C   0  0  0  0  0  0  0  0  0  0  0  0
   10.2755   -5.0518   -4.2435 N   0  0  0  0  0  0  0  0  0  0  0  0
    9.5072   -3.8278   -5.6605 C   0  0  0  0  0  0  0  0  0  0  0  0
    9.9573   -4.8717   -2.5913 C   0  0  0  0  0  0  0  0  0  0  0  0
  1  2  1  0
  1 24  1  0
  2  9  2  0
  3  2  1  0
  3  8  1  0
  4  3  2  0
  4  5  1  0
  5  6  2  0
  7  6  1  0
  8  7  2  0
 11 12  1  0
 11 24  1  0
 11 10  1  1
 12 22  1  0
 12 26  1  0
 12 27  1  6
 13 10  1  0
 13 26  2  0
 15 14  1  0
 15 16  1  0
 16 13  1  0
 17 18  1  0
 17 16  2  0
 18 19  2  0
 19 26  1  0
 20 19  1  0
 21 22  1  0
 21 20  1  6
 21 28  1  0
 22 23  1  6
 24 25  2  0
 25 23  1  0
 28 29  1  0
 28 30  1  0
 29 27  1  0
M  END
>  <DRUGBANK_ID>  (1) 
DB15465

>  <COMMON_NAME>  (1) 
Benzhydrocodone

>  <CAS_NUMBER>  (1) 
1259440-61-3

>  <UNII>  (1) 
75MS0AAZ9I

>  <SYNONYMS>  (1) 
Benzhydrocodone

$$$$
