
     RDKit          3D

 17 18  0  0  0  0  0  0  0  0999 V2000
    2.3504    0.0080   -0.0079 C   0  0  0  0  0  0  0  0  0  0  0  0
    1.5073   -1.0832   -0.2062 C   0  0  0  0  0  0  0  0  0  0  0  0
    0.1596   -1.0720   -0.1528 N   0  0  0  0  0  0  0  0  0  0  0  0
   -0.4044    0.1284   -0.0193 C   0  0  0  0  0  0  0  0  0  0  0  0
    0.3127    1.3110    0.0216 C   0  0  0  0  0  0  0  0  0  0  0  0
    1.7122    1.2484    0.0427 C   0  0  0  0  0  0  0  0  0  0  0  0
   -2.1151    0.0960    0.0099 Cl  0  0  0  0  0  0  0  0  0  0  0  0
    4.0465   -2.2147    1.5700 C   0  0  0  0  0  0  0  0  0  0  0  0
    3.1126   -2.9054    1.0234 N   0  0  0  0  0  0  0  0  0  0  0  0
    2.7796   -4.1364    1.4037 N   0  0  0  0  0  0  0  0  0  0  0  0
    3.4449   -4.7708    2.2333 O   0  0  0  0  0  0  0  0  0  0  0  0
    1.7727   -4.6161    0.8567 O   0  0  0  0  0  0  0  0  0  0  0  0
    4.9454   -2.5522    2.5407 N   0  0  0  0  0  0  0  0  0  0  0  0
    6.0113   -1.5909    2.6979 C   0  0  0  0  0  0  0  0  0  0  0  0
    5.3455   -0.3221    2.1352 C   0  0  0  0  0  0  0  0  0  0  0  0
    4.3234   -0.8875    1.2472 N   0  0  0  0  0  0  0  0  0  0  0  0
    3.8552   -0.1526    0.0711 C   0  0  0  0  0  0  0  0  0  0  0  0
  1  6  1  0
  2  1  2  0
  3  2  1  0
  3  4  2  0
  4  7  1  0
  5  4  1  0
  6  5  2  0
  8  9  2  0
  8 13  1  0
  9 10  1  0
 10 11  1  0
 10 12  2  0
 13 14  1  0
 15 14  1  0
 16  8  1  0
 16 15  1  0
 16 17  1  0
 17  1  1  0
M  CHG  2  10   1  11  -1
M  END
>  <DRUGBANK_ID>  (1) 
DB11421

>  <SECONDARY_ACCESSION_NUMBERS>  (1) 
DB07980

>  <COMMON_NAME>  (1) 
Imidacloprid

>  <CAS_NUMBER>  (1) 
105827-78-9

>  <UNII>  (1) 
3BN7M937V8

>  <SYNONYMS>  (1) 
(2E)-1-[(6-chloropyridin-3-yl)methyl]-N-nitroimidazolidin-2-imine; 1-((6-chloro-3-Pyridinyl)methyl)-N-nitro-2-imidazolidinimine; 1-((6-chloro-3-Pyridyl)methyl)-N-nitro-2-imidazolidinimine; IMD

$$$$
