
     RDKit          3D

  5  2  0  0  0  0  0  0  0  0999 V2000
    1.9855    2.4816    1.0940 Cl  0  0  0  0  0  0  0  0  0  0  0  0
    2.2854    1.4361   -0.1512 O   0  0  0  0  0  0  0  0  0  0  0  0
    0.4069   -2.0782    1.1900 Cl  0  0  0  0  0  0  0  0  0  0  0  0
    1.2868   -1.4682   -0.0851 O   0  0  0  0  0  0  0  0  0  0  0  0
    2.5397   -0.3156   -1.7443 Ca  0  0  0  0  0 15  0  0  0  0  0  0
  1  2  1  0
  3  4  1  0
M  CHG  3   2  -1   4  -1   5   2
M  END
>  <DRUGBANK_ID>  (1) 
DB15912

>  <COMMON_NAME>  (1) 
Calcium hypochlorite

>  <CAS_NUMBER>  (1) 
7778-54-3

>  <UNII>  (1) 
11DXB629VZ

>  <SYNONYMS>  (1) 
Chloride of lime; Chlorinated lime; Hipoclorito calcico; Hypochlorite de calcium; Hypochlorous acid, calcium salt

$$$$
