BRK
     RDKit          3D

 25 27  0  0  0  0  0  0  0  0999 V2000
    0.9259    0.0386    0.0360 C   0  0  0  0  0  0  0  0  0  0  0  0
    0.3295   -0.3836    1.2541 O   0  0  0  0  0  0  0  0  0  0  0  0
    0.7867   -1.5572    1.7786 C   0  0  0  0  0  0  0  0  0  0  0  0
    2.0980   -2.0146    1.6834 C   0  0  0  0  0  0  0  0  0  0  0  0
    2.4843   -3.1621    2.3745 C   0  0  0  0  0  0  0  0  0  0  0  0
   -0.1395   -2.2631    2.5479 C   0  0  0  0  0  0  0  0  0  0  0  0
    0.2573   -3.3729    3.2865 C   0  0  0  0  0  0  0  0  0  0  0  0
    1.5724   -3.8298    3.2021 C   0  0  0  0  0  0  0  0  0  0  0  0
    1.8910   -5.0586    3.9696 C   0  0  0  0  0  0  0  0  0  0  0  0
    1.0242   -5.6537    4.5888 O   0  0  0  0  0  0  0  0  0  0  0  0
    3.2377   -5.6253    3.8406 C   0  0  0  0  0  0  0  0  0  0  0  0
    3.2560   -7.2068    3.1692 S   0  0  0  0  0  0  0  0  0  0  0  0
    4.4585   -5.1130    4.0997 C   0  0  0  0  0  0  0  0  0  0  0  0
    4.6759   -3.8625    4.6090 N   0  0  0  0  0  0  0  0  0  0  0  0
    5.4488   -6.0104    3.7173 N   0  0  0  0  0  0  0  0  0  0  0  0
    5.0295   -7.1897    3.1257 C   0  0  0  0  0  0  0  0  0  0  0  0
    5.7290   -8.1461    2.6038 N   0  0  0  0  0  0  0  0  0  0  0  0
    5.0405   -9.2122    1.9650 C   0  0  0  0  0  0  0  0  0  0  0  0
    4.2573   -8.9860    0.8198 C   0  0  0  0  0  0  0  0  0  0  0  0
    3.5450  -10.0153    0.1993 C   0  0  0  0  0  0  0  0  0  0  0  0
    3.6630  -11.3194    0.6651 C   0  0  0  0  0  0  0  0  0  0  0  0
    3.0329  -12.4079    0.1234 O   0  0  0  0  0  0  0  0  0  0  0  0
    2.1098  -12.1429   -0.9317 C   0  0  0  0  0  0  0  0  0  0  0  0
    4.4761  -11.5674    1.7771 C   0  0  0  0  0  0  0  0  0  0  0  0
    5.1135  -10.5148    2.4569 C   0  0  0  0  0  0  0  0  0  0  0  0
  1  2  1  0
  2  3  1  0
  3  4  2  0
  3  6  1  0
  4  5  1  0
  5  8  2  0
  6  7  2  0
  7  8  1  0
  8  9  1  0
  9 10  2  0
  9 11  1  0
 11 12  1  0
 11 13  2  0
 12 16  1  0
 13 14  1  0
 13 15  1  0
 15 16  1  0
 16 17  2  0
 17 18  1  0
 18 19  2  0
 18 25  1  0
 19 20  1  0
 20 21  2  0
 21 22  1  0
 21 24  1  0
 22 23  1  0
 24 25  2  0
M  END
>  <DRUGBANK_ID>  (1) 
DB07488

>  <COMMON_NAME>  (1) 
{4-Amino-2-[(4-methoxyphenyl)amino]-1,3-thiazol-5-yl}(4-methoxyphenyl)methanone

>  <CAS_NUMBER>  (1) 
727685-49-6

$$$$
