AKV
     RDKit          3D

 30 32  0  0  0  0  0  0  0  0999 V2000
    6.1114    3.4468   -2.5365 O   0  0  0  0  0  0  0  0  0  0  0  0
    6.6513    2.5326   -3.1521 C   0  0  0  0  0  0  0  0  0  0  0  0
    6.5722    1.1137   -2.7301 C   0  0  0  0  0  0  0  0  0  0  0  0
    5.8470    0.7297   -1.5995 C   0  0  0  0  0  0  0  0  0  0  0  0
    5.2180    1.6990   -0.8613 O   0  0  0  0  0  0  0  0  0  0  0  0
    7.4040    2.8877   -4.3646 C   0  0  0  0  0  0  0  0  0  0  0  0
    7.5006    4.2243   -4.7747 C   0  0  0  0  0  0  0  0  0  0  0  0
    6.9530    5.2704   -4.0802 O   0  0  0  0  0  0  0  0  0  0  0  0
    8.1880    4.5547   -5.9376 C   0  0  0  0  0  0  0  0  0  0  0  0
    8.7947    3.5554   -6.6964 C   0  0  0  0  0  0  0  0  0  0  0  0
    8.7203    2.2252   -6.2860 C   0  0  0  0  0  0  0  0  0  0  0  0
    8.0256    1.8938   -5.1176 C   0  0  0  0  0  0  0  0  0  0  0  0
    7.9782    0.4842   -4.6886 C   0  0  0  0  0  0  0  0  0  0  0  0
    8.5559   -0.3820   -5.3265 O   0  0  0  0  0  0  0  0  0  0  0  0
    7.2274    0.1333   -3.4690 C   0  0  0  0  0  0  0  0  0  0  0  0
    7.1844   -1.2102   -3.0715 C   0  0  0  0  0  0  0  0  0  0  0  0
    6.4482   -1.6068   -1.9432 C   0  0  0  0  0  0  0  0  0  0  0  0
    6.4426   -3.0805   -1.5816 C   0  0  0  0  0  0  0  0  0  0  0  0
    5.7691   -3.9151   -2.6517 C   0  0  0  0  0  0  0  0  0  0  0  0
    6.4688   -4.9322   -3.2048 O   0  0  0  0  0  0  0  0  0  0  0  0
    7.8087   -5.2323   -2.7968 C   0  0  0  0  0  0  0  0  0  0  0  0
    4.6143   -3.6793   -3.0071 O   0  0  0  0  0  0  0  0  0  0  0  0
    5.7487   -0.6253   -1.2122 C   0  0  0  0  0  0  0  0  0  0  0  0
    4.9400   -0.9923    0.0080 C   0  0  2  0  0  0  0  0  0  0  0  0
    3.7410   -0.2127    0.0606 O   0  0  0  0  0  0  0  0  0  0  0  0
    5.7585   -0.7085    1.2606 C   0  0  0  0  0  0  0  0  0  0  0  0
    4.9844   -1.0719    2.5218 C   0  0  1  0  0  0  0  0  0  0  0  0
    4.7866   -2.4856    2.5450 O   0  0  0  0  0  0  0  0  0  0  0  0
    5.7574   -0.6736    3.7773 C   0  0  0  0  0  0  0  0  0  0  0  0
    6.0206    0.8241    3.8497 C   0  0  0  0  0  0  0  0  0  0  0  0
  1  2  2  0
  2  3  1  0
  2  6  1  0
  3  4  1  0
  3 15  2  0
  4  5  1  0
  4 23  2  0
  6  7  2  0
  6 12  1  0
  7  8  1  0
  7  9  1  0
  9 10  2  0
 10 11  1  0
 11 12  2  0
 12 13  1  0
 13 14  2  0
 13 15  1  0
 15 16  1  0
 16 17  2  0
 17 18  1  0
 17 23  1  0
 18 19  1  0
 19 20  1  0
 19 22  2  0
 20 21  1  0
 24 26  1  0
 24 25  1  1
 24 23  1  0
 26 27  1  0
 27 28  1  1
 27 29  1  0
 29 30  1  0
M  END
>  <DRUGBANK_ID>  (1) 
DB04624

>  <COMMON_NAME>  (1) 
DERIVATIVE OF AKLANONIC ACID METHYL ESTER (AAME)

$$$$
