
     RDKit          3D

 34 38  0  0  0  0  0  0  0  0999 V2000
    0.8756    0.0629   -0.0413 C   0  0  0  0  0  0  0  0  0  0  0  0
    0.3271    0.1225   -1.3689 O   0  0  0  0  0  0  0  0  0  0  0  0
    0.8563    1.0790   -2.1974 C   0  0  0  0  0  0  0  0  0  0  0  0
    2.1938    1.4061   -2.2212 C   0  0  0  0  0  0  0  0  0  0  0  0
    2.6780    2.4256   -3.0608 C   0  0  0  0  0  0  0  0  0  0  0  0
    1.9026    3.1805   -3.9642 C   0  0  0  0  0  0  0  0  0  0  0  0
    0.5646    2.7095   -4.0521 C   0  0  0  0  0  0  0  0  0  0  0  0
    0.0427    1.7076   -3.1436 C   0  0  0  0  0  0  0  0  0  0  0  0
    2.6336    4.3746   -4.6760 C   0  0  0  0  0  0  0  0  0  0  0  0
    2.5210    5.7952   -4.7729 C   0  0  0  0  0  0  0  0  0  0  0  0
    3.6111    6.5122   -5.5698 C   0  0  0  0  0  0  0  0  0  0  0  0
    4.6238    5.5767   -5.6966 C   0  0  0  0  0  0  0  0  0  0  0  0
    4.2787    4.0540   -5.0539 S   0  0  0  0  0  0  0  0  0  0  0  0
    5.8840    5.8328   -6.2486 C   0  0  0  0  0  0  0  0  0  0  0  0
    6.1898    7.0693   -6.7630 C   0  0  0  0  0  0  0  0  0  0  0  0
    5.2450    8.0743   -6.7314 C   0  0  0  0  0  0  0  0  0  0  0  0
    3.9666    7.8388   -6.1023 C   0  0  0  0  0  0  0  0  0  0  0  0
    7.4453    7.2682   -7.2554 O   0  0  0  0  0  0  0  0  0  0  0  0
    1.6259    6.4428   -3.9770 O   0  0  0  0  0  0  0  0  0  0  0  0
    0.4125    5.8618   -3.7756 C   0  0  0  0  0  0  0  0  0  0  0  0
   -0.4145    5.9106   -4.8500 C   0  0  0  0  0  0  0  0  0  0  0  0
   -1.7431    6.0141   -4.4752 C   0  0  0  0  0  0  0  0  0  0  0  0
   -2.3800    5.4543   -3.4204 C   0  0  0  0  0  0  0  0  0  0  0  0
   -1.4773    4.9190   -2.5152 C   0  0  0  0  0  0  0  0  0  0  0  0
   -0.0908    5.2613   -2.6351 C   0  0  0  0  0  0  0  0  0  0  0  0
   -3.6887    5.7043   -3.1084 O   0  0  0  0  0  0  0  0  0  0  0  0
   -4.6272    6.3836   -4.0167 C   0  0  0  0  0  0  0  0  0  0  0  0
   -4.4352    7.9147   -4.3652 C   0  0  0  0  0  0  0  0  0  0  0  0
   -3.4397    8.2144   -5.4012 N   0  0  0  0  0  0  0  0  0  0  0  0
   -3.2961    7.2722   -6.5116 C   0  0  0  0  0  0  0  0  0  0  0  0
   -1.8606    7.4092   -7.0102 C   0  0  0  0  0  0  0  0  0  0  0  0
   -1.4451    8.7424   -7.5248 C   0  0  0  0  0  0  0  0  0  0  0  0
   -1.7561    9.7641   -6.4145 C   0  0  0  0  0  0  0  0  0  0  0  0
   -3.1734    9.5890   -5.7989 C   0  0  0  0  0  0  0  0  0  0  0  0
  1  2  1  0
  2  3  1  0
  3  4  2  0
  3  8  1  0
  4  5  1  0
  5  6  2  0
  6  7  1  0
  6  9  1  0
  7  8  2  0
  9 10  2  0
  9 13  1  0
 10 11  1  0
 10 19  1  0
 11 12  2  0
 11 17  1  0
 12 13  1  0
 12 14  1  0
 14 15  2  0
 15 16  1  0
 15 18  1  0
 16 17  2  0
 19 20  1  0
 20 21  2  0
 20 25  1  0
 21 22  1  0
 22 23  2  0
 23 24  1  0
 23 26  1  0
 24 25  2  0
 26 27  1  0
 27 28  1  0
 28 29  1  0
 29 30  1  0
 29 34  1  0
 30 31  1  0
 31 32  1  0
 32 33  1  0
 33 34  1  0
M  END
>  <DRUGBANK_ID>  (1) 
DB06249

>  <COMMON_NAME>  (1) 
Arzoxifene

>  <CAS_NUMBER>  (1) 
182133-25-1

>  <UNII>  (1) 
E569WG6E60

>  <SYNONYMS>  (1) 
Arzoxifene

$$$$
