
     RDKit          3D

 20 22  0  0  0  0  0  0  0  0999 V2000
    0.6452   -0.1876   -0.2224 C   0  0  0  0  0  0  0  0  0  0  0  0
   -1.1785    1.1232   -0.8735 C   0  0  0  0  0  0  0  0  0  0  0  0
    3.1561    1.8626    5.8171 C   0  0  0  0  0  0  0  0  0  0  0  0
    4.5320    1.8845    5.9122 C   0  0  0  0  0  0  0  0  0  0  0  0
    4.7944    1.0055   -1.6565 C   0  0  0  0  0  0  0  0  0  0  0  0
    0.5332    2.6545    1.2095 C   0  0  0  0  0  0  0  0  0  0  0  0
    2.5601    1.7172    4.5695 C   0  0  0  0  0  0  0  0  0  0  0  0
    5.2989    1.7507    4.7663 C   0  0  0  0  0  0  0  0  0  0  0  0
    5.4888    1.1389   -0.4704 C   0  0  0  0  0  0  0  0  0  0  0  0
    3.4396    1.0303   -1.5164 C   0  0  0  0  0  0  0  0  0  0  0  0
    0.7023    2.4421   -0.2733 C   0  0  0  0  0  0  0  0  0  0  0  0
    1.2195    1.6204    2.0784 C   0  0  0  0  0  0  0  0  0  0  0  0
    3.3095    1.6293    3.3679 C   0  0  0  0  0  0  0  0  0  0  0  0
    4.7103    1.6199    3.5079 C   0  0  0  0  0  0  0  0  0  0  0  0
    4.8512    1.3071    0.7925 C   0  0  0  0  0  0  0  0  0  0  0  0
    3.4644    1.3517    0.8758 C   0  0  0  0  0  0  0  0  0  0  0  0
    2.8733    1.1817   -0.3000 N   0  0  0  0  0  0  0  0  0  0  0  0
    0.2697    1.1198   -0.8329 N   0  0  0  0  0  0  0  0  0  0  0  0
    2.7206    1.5779    2.0744 N   0  0  0  0  0  0  0  0  0  0  0  0
    5.8915    1.4685    2.1906 S   0  0  0  0  0  0  0  0  0  0  0  0
  4  3  2  0
  7  3  1  0
  8  4  1  0
  9  5  2  0
 10  5  1  0
 11  6  1  0
 12  6  1  0
 13  7  2  0
 14  8  2  0
 14 13  1  0
 15  9  1  0
 16 15  2  0
 17 10  2  0
 17 16  1  0
 18  1  1  0
 18  2  1  0
 18 11  1  0
 19 12  1  0
 19 13  1  0
 19 16  1  0
 20 14  1  0
 20 15  1  0
M  END
>  <DRUGBANK_ID>  (1) 
DB12958

>  <COMMON_NAME>  (1) 
Prothipendyl

>  <CAS_NUMBER>  (1) 
303-69-5

>  <UNII>  (1) 
5O6VWA87VA

>  <SYNONYMS>  (1) 
Prothipendyl; Prothipendylum; Protipendilo

$$$$
