AOG
     RDKit          3D

 20 20  0  0  0  0  0  0  0  0999 V2000
    0.7356    1.2163   -0.5627 C   0  0  1  0  0  0  0  0  0  0  0  0
    1.1891    2.4338    0.1000 O   0  0  0  0  0  0  0  0  0  0  0  0
    1.4901   -0.0625   -0.1220 C   0  0  2  0  0  0  0  0  0  0  0  0
    2.8380   -0.1010   -0.6645 O   0  0  0  0  0  0  0  0  0  0  0  0
    0.7633   -1.3611   -0.5047 C   0  0  2  0  0  0  0  0  0  0  0  0
   -0.7707   -1.3754   -0.3684 C   0  0  1  0  0  0  0  0  0  0  0  0
   -1.2507   -1.9563    0.8511 O   0  0  0  0  0  0  0  0  0  0  0  0
   -1.4510   -0.0509   -0.7812 C   0  0  2  0  0  0  0  0  0  0  0  0
   -0.6996    1.1776   -0.6357 O   0  0  0  0  0  0  0  0  0  0  0  0
   -2.8588    0.0867   -0.0947 C   0  0  0  0  0  0  0  0  0  0  0  0
   -3.5233    1.2893   -0.4582 O   0  0  0  0  0  0  0  0  0  0  0  0
    1.4019   -2.4949    0.1932 N   0  0  0  0  0  0  0  0  0  0  0  0
    1.3193    2.5316    1.5250 C   0  0  0  0  0  0  0  0  0  0  0  0
   -0.0069    2.5707    2.2857 C   0  0  0  0  0  0  0  0  0  0  0  0
   -0.7102    1.2422    2.2535 C   0  0  0  0  0  0  0  0  0  0  0  0
    0.1220    0.0959    2.7934 C   0  0  0  0  0  0  0  0  0  0  0  0
   -0.1152   -0.1534    4.2390 C   0  0  0  0  0  0  0  0  0  0  0  0
   -1.5933   -0.3080    4.5731 C   0  0  0  0  0  0  0  0  0  0  0  0
   -2.3000   -1.5280    3.9795 C   0  0  0  0  0  0  0  0  0  0  0  0
   -1.5171   -2.8107    4.1878 C   0  0  0  0  0  0  0  0  0  0  0  0
  1  2  1  1
  1  3  1  0
  1  9  1  0
  2 13  1  0
  3  4  1  6
  3  5  1  0
  5  6  1  0
  5 12  1  1
  6  8  1  0
  6  7  1  1
  8  9  1  0
  8 10  1  1
 10 11  1  0
 13 14  1  0
 14 15  1  0
 15 16  1  0
 16 17  1  0
 17 18  1  0
 18 19  1  0
 19 20  1  0
M  END
>  <DRUGBANK_ID>  (1) 
DB07378

>  <COMMON_NAME>  (1) 
4-AMINO-2-OCTYLOXY-6-HYDROXYMETHYL-TETRAHYDRO-PYRAN-3,5-DIOL

$$$$
