
     RDKit          3D

 15 15  0  0  0  0  0  0  0  0999 V2000
   -3.2998    2.5213    3.6914 C   0  0  0  0  0  0  0  0  0  0  0  0
   -3.2888    3.9117    3.6289 C   0  0  0  0  0  0  0  0  0  0  0  0
   -3.2929    4.5528    2.3961 C   0  0  0  0  0  0  0  0  0  0  0  0
   -3.3036    3.7846    1.2251 C   0  0  0  0  0  0  0  0  0  0  0  0
   -3.2931    2.3755    1.2765 C   0  0  0  0  0  0  0  0  0  0  0  0
   -3.3032    1.7547    2.5343 C   0  0  0  0  0  0  0  0  0  0  0  0
   -3.2727    4.6089    4.8047 O   0  0  0  0  0  0  0  0  0  0  0  0
   -3.2127    1.5000    0.0339 C   0  0  2  0  0  0  0  0  0  0  0  0
   -1.8271    0.7759   -0.0531 C   0  0  1  0  0  0  0  0  0  0  0  0
   -1.9500   -0.7605   -0.0415 C   0  0  0  0  0  0  0  0  0  0  0  0
   -1.3222   -1.3966   -1.0622 O   0  0  0  0  0  0  0  0  0  0  0  0
   -2.5059   -1.3970    0.8477 O   0  0  0  0  0  0  0  0  0  0  0  0
   -3.3812    2.3369   -1.1312 O   0  0  0  0  0  0  0  0  0  0  0  0
   -1.0718    1.2613   -1.2456 N   0  0  0  0  0  0  0  0  0  0  0  0
   -3.2983    1.8717    4.8923 O   0  0  0  0  0  0  0  0  0  0  0  0
  1  2  2  0
  1 15  1  0
  2  3  1  0
  2  7  1  0
  3  4  2  0
  4  5  1  0
  5  6  2  0
  6  1  1  0
  8 13  1  6
  8  9  1  0
  8  5  1  0
  9 10  1  0
  9 14  1  6
 10 11  1  0
 10 12  2  0
M  END
>  <DRUGBANK_ID>  (1) 
DB06262

>  <COMMON_NAME>  (1) 
Droxidopa

>  <CAS_NUMBER>  (1) 
23651-95-8

>  <UNII>  (1) 
J7A92W69L7

>  <SYNONYMS>  (1) 
DOPS; Droxidopa; L-Dihydroxyphenylserine; L-DOPS; L-threo-dihydroxyphenylserine

$$$$
