1032
     RDKit          3D

 19 19  0  0  0  0  0  0  0  0999 V2000
    1.2989   -0.1341    0.0238 S   0  0  0  0  0  0  0  0  0  0  0  0
    1.3045   -0.8551   -1.2417 O   0  0  0  0  0  0  0  0  0  0  0  0
    0.8033   -0.7359    1.2333 O   0  0  0  0  0  0  0  0  0  0  0  0
    7.8989   -1.1392    0.2078 O   0  0  0  0  0  0  0  0  0  0  0  0
    7.8210    1.1026    0.1498 O   0  0  0  0  0  0  0  0  0  0  0  0
    0.5617    1.4180   -0.1309 N   0  0  0  0  0  0  0  0  0  0  0  0
    0.8805    2.3173   -1.3137 C   0  0  0  0  0  0  0  0  0  0  0  0
   -0.9149    1.4430    0.2810 C   0  0  0  0  0  0  0  0  0  0  0  0
    0.4120    1.8343   -2.6985 C   0  0  0  0  0  0  0  0  0  0  0  0
   -1.7600    0.6085   -0.6665 C   0  0  0  0  0  0  0  0  0  0  0  0
    3.0153    0.0078    0.2013 C   0  0  0  0  0  0  0  0  0  0  0  0
   -1.0448    2.1284   -3.1522 C   0  0  0  0  0  0  0  0  0  0  0  0
   -1.4903   -0.7884   -1.1530 C   0  0  0  0  0  0  0  0  0  0  0  0
    3.6743    1.2143    0.2153 C   0  0  0  0  0  0  0  0  0  0  0  0
    3.6935   -1.2187    0.1251 C   0  0  0  0  0  0  0  0  0  0  0  0
    5.0581    1.1904    0.1850 C   0  0  0  0  0  0  0  0  0  0  0  0
    5.0658   -1.2429    0.2149 C   0  0  0  0  0  0  0  0  0  0  0  0
    5.7606   -0.0332    0.2057 C   0  0  0  0  0  0  0  0  0  0  0  0
    7.2456    0.0479    0.1894 C   0  0  0  0  0  0  0  0  0  0  0  0
  1  2  2  0
  1  3  2  0
  1  6  1  0
  1 11  1  0
  4 19  1  0
  5 19  2  0
  6  7  1  0
  6  8  1  0
  7  9  1  0
  8 10  1  0
  9 12  1  0
 10 13  1  0
 11 14  2  0
 11 15  1  0
 14 16  1  0
 15 17  2  0
 16 18  2  0
 17 18  1  0
 18 19  1  0
M  END
>  <DRUGBANK_ID>  (1) 
DB01032

>  <SECONDARY_ACCESSION_NUMBERS>  (1) 
APRD00167

>  <COMMON_NAME>  (1) 
Probenecid

>  <CAS_NUMBER>  (1) 
57-66-9

>  <UNII>  (1) 
PO572Z7917

>  <SYNONYMS>  (1) 
4-((Dipropylamino)sulfonyl)benzoic acid; 4-(Di-n-propylsulfamoyl)benzoesäure; 4-(N,N-Dipropylsulfamoyl)benzoesäure; p-(Dipropylsulfamoyl)benzoic acid; Probenecid; Probenecid acid; Probenecida; Probenecide; Probenecidum

$$$$
