GVB
     RDKit          3D

 24 26  0  0  0  0  0  0  0  0999 V2000
    1.1428   -0.0657   -0.0487 C   0  0  0  0  0  0  0  0  0  0  0  0
    0.6539   -0.2562    1.2706 O   0  0  0  0  0  0  0  0  0  0  0  0
    0.9922   -1.4188    1.9092 C   0  0  0  0  0  0  0  0  0  0  0  0
    2.3051   -1.8937    1.9151 C   0  0  0  0  0  0  0  0  0  0  0  0
    2.6857   -2.9451    2.7627 C   0  0  0  0  0  0  0  0  0  0  0  0
    0.0398   -2.0452    2.7275 C   0  0  0  0  0  0  0  0  0  0  0  0
   -1.3066   -1.7611    2.7842 O   0  0  0  0  0  0  0  0  0  0  0  0
   -1.8537   -0.9556    1.7406 C   0  0  0  0  0  0  0  0  0  0  0  0
    0.4515   -3.0823    3.5947 C   0  0  0  0  0  0  0  0  0  0  0  0
    1.7709   -3.5657    3.6179 C   0  0  0  0  0  0  0  0  0  0  0  0
    2.1514   -4.6454    4.3881 N   0  0  0  0  0  0  0  0  0  0  0  0
    3.2370   -4.5842    5.3771 C   0  0  0  0  0  0  0  0  0  0  0  0
    1.4298   -5.9130    4.2990 C   0  0  0  0  0  0  0  0  0  0  0  0
    2.4343   -7.0178    3.9507 C   0  0  0  0  0  0  0  0  0  0  0  0
    3.5388   -7.1135    5.0102 C   0  0  2  0  0  0  0  0  0  0  0  0
    2.9368   -7.6411    6.2542 N   0  0  0  0  0  0  0  0  0  0  0  0
    4.2553   -5.7212    5.1369 C   0  0  2  0  0  0  0  0  0  0  0  0
    5.3659   -5.7580    6.1825 C   0  0  0  0  0  0  0  0  0  0  0  0
    5.0624   -5.9705    7.5327 C   0  0  0  0  0  0  0  0  0  0  0  0
    6.0503   -6.2545    8.4660 C   0  0  0  0  0  0  0  0  0  0  0  0
    7.3835   -6.2628    8.0663 C   0  0  0  0  0  0  0  0  0  0  0  0
    7.7224   -6.0076    6.7362 C   0  0  0  0  0  0  0  0  0  0  0  0
    6.7177   -5.7142    5.7994 C   0  0  0  0  0  0  0  0  0  0  0  0
    9.1473   -6.1579    6.2888 C   0  0  0  0  0  0  0  0  0  0  0  0
  1  2  1  0
  2  3  1  0
  3  4  2  0
  3  6  1  0
  4  5  1  0
  5 10  2  0
  6  7  1  0
  6  9  2  0
  7  8  1  0
  9 10  1  0
 10 11  1  0
 11 12  1  0
 11 13  1  0
 12 17  1  0
 13 14  1  0
 14 15  1  0
 15 16  1  1
 15 17  1  0
 17 18  1  1
 18 19  2  0
 18 23  1  0
 19 20  1  0
 20 21  2  0
 21 22  1  0
 22 23  2  0
 22 24  1  0
M  END
>  <DRUGBANK_ID>  (1) 
DB07851

>  <COMMON_NAME>  (1) 
(3R,4S)-1-(3,4-DIMETHOXYPHENYL)-3-(3-METHYLPHENYL)PIPERIDIN-4-AMINE

$$$$
