
     RDKit          3D

 21 22  0  0  0  0  0  0  0  0999 V2000
    1.4365    0.4661    1.1571 C   0  0  0  0  0  0  0  0  0  0  0  0
   -0.9087   -0.0257    1.7603 C   0  0  0  0  0  0  0  0  0  0  0  0
    0.0144   -6.8925   -6.2555 C   0  0  0  0  0  0  0  0  0  0  0  0
    0.1043    1.3712   -2.7613 C   0  0  0  0  0  0  0  0  0  0  0  0
    1.1368   -5.4148   -2.4484 C   0  0  0  0  0  0  0  0  0  0  0  0
    0.6123   -3.3624   -3.3949 C   0  0  0  0  0  0  0  0  0  0  0  0
    0.7904   -5.9703   -3.7036 C   0  0  0  0  0  0  0  0  0  0  0  0
    0.4014   -3.8234   -4.6549 C   0  0  0  0  0  0  0  0  0  0  0  0
    0.2375    0.1461   -3.3246 C   0  0  0  0  0  0  0  0  0  0  0  0
    0.0230    1.2501   -1.4460 C   0  0  0  0  0  0  0  0  0  0  0  0
    0.8985   -1.5794    2.1056 C   0  0  0  0  0  0  0  0  0  0  0  0
    0.3458   -2.4846    0.9407 C   0  0  0  0  0  0  0  0  0  0  0  0
    1.5865   -3.2612   -1.0828 C   0  0  0  0  0  0  0  0  0  0  0  0
    1.0862   -4.0404   -2.2844 C   0  0  0  0  0  0  0  0  0  0  0  0
    0.4472   -5.1612   -4.8049 C   0  0  0  0  0  0  0  0  0  0  0  0
    0.3538   -1.0543   -1.2991 C   0  0  0  0  0  0  0  0  0  0  0  0
    0.6691   -0.8989   -2.5612 N   0  0  0  0  0  0  0  0  0  0  0  0
   -0.1721    0.0613   -0.7857 N   0  0  0  0  0  0  0  0  0  0  0  0
    0.5336   -0.1529    2.1238 N   0  0  0  0  0  0  0  0  0  0  0  0
    0.6809   -2.2133   -0.5211 N   0  0  0  0  0  0  0  0  0  0  0  0
    0.0474   -5.5081   -6.0523 O   0  0  0  0  0  0  0  0  0  0  0  0
  7  5  2  0
  8  6  1  0
  9  4  2  0
 10  4  1  0
 12 11  1  0
 14  5  1  0
 14  6  2  0
 14 13  1  0
 15  7  1  0
 15  8  2  0
 17  9  1  0
 17 16  2  0
 18 10  2  0
 18 16  1  0
 19  1  1  0
 19  2  1  0
 19 11  1  0
 20 12  1  0
 20 13  1  0
 20 16  1  0
 21  3  1  0
 21 15  1  0
M  END
>  <DRUGBANK_ID>  (1) 
DB11235

>  <COMMON_NAME>  (1) 
Thonzylamine

>  <CAS_NUMBER>  (1) 
91-85-0

>  <UNII>  (1) 
R79646H5Z8

>  <SYNONYMS>  (1) 
neohetramine; Thonzylamine

$$$$
