
     RDKit          3D

 34 38  0  0  1  0  0  0  0  0999 V2000
    2.4515    1.0518   -1.1111 C   0  0  0  0  0  0  0  0  0  0  0  0
    1.5928    0.4122   -0.0242 C   0  0  0  0  0  0  0  0  0  0  0  0
    0.2852    1.2143    0.2203 C   0  0  1  0  0  0  0  0  0  0  0  0
   -0.8038    0.3483    0.3007 N   0  0  0  0  0  0  0  0  0  0  0  0
   -0.5284   -1.0191    0.3097 C   0  0  2  0  0  0  0  0  0  0  0  0
    0.9575   -1.1854   -0.7030 S   0  0  0  0  0  0  0  0  0  0  0  0
   -1.9639   -1.2070   -0.2118 C   0  0  1  0  0  0  0  0  0  0  0  0
   -2.0239    0.3243   -0.2751 C   0  0  0  0  0  0  0  0  0  0  0  0
   -2.7668    1.1735   -0.6176 O   0  0  0  0  0  0  0  0  0  0  0  0
   -2.0575   -2.0565   -1.3779 N   0  0  0  0  0  0  0  0  0  0  0  0
   -2.2016   -3.4249   -1.3455 C   0  0  0  0  0  0  0  0  0  0  0  0
   -2.1725   -4.0056   -2.4364 O   0  0  0  0  0  0  0  0  0  0  0  0
   -2.4383   -4.2229    0.0173 C   0  0  1  0  0  0  0  0  0  0  0  0
   -1.2821   -4.2195    1.0248 C   0  0  0  0  0  0  0  0  0  0  0  0
   -0.4395   -5.3035    1.2509 C   0  0  0  0  0  0  0  0  0  0  0  0
    0.6992   -5.1824    2.0843 C   0  0  0  0  0  0  0  0  0  0  0  0
    1.0757   -3.9654    2.6296 C   0  0  0  0  0  0  0  0  0  0  0  0
    0.2113   -2.9256    2.4857 C   0  0  0  0  0  0  0  0  0  0  0  0
   -1.0228   -3.1320    1.8472 C   0  0  0  0  0  0  0  0  0  0  0  0
   -3.7171   -3.8320    0.6518 N   0  0  0  0  0  0  0  0  0  0  0  0
    0.1691    1.7814    1.6145 C   0  0  0  0  0  0  0  0  0  0  0  0
   -0.8438    1.8628    2.2942 O   0  0  0  0  0  0  0  0  0  0  0  0
    1.3514    2.3166    1.9687 O   0  0  0  0  0  0  0  0  0  0  0  0
    1.2120    3.6801    2.2088 C   0  0  1  0  0  0  0  0  0  0  0  0
    0.4265    4.2752    1.0639 C   0  0  0  0  0  0  0  0  0  0  0  0
    0.3744    4.1340   -0.3486 C   0  0  0  0  0  0  0  0  0  0  0  0
   -0.5712    4.8551   -1.0834 C   0  0  0  0  0  0  0  0  0  0  0  0
   -1.4369    5.6950   -0.3963 C   0  0  0  0  0  0  0  0  0  0  0  0
   -1.6043    5.5559    0.9774 C   0  0  0  0  0  0  0  0  0  0  0  0
   -0.6796    4.8222    1.6740 C   0  0  0  0  0  0  0  0  0  0  0  0
   -0.7539    4.4508    3.0901 C   0  0  0  0  0  0  0  0  0  0  0  0
   -1.7134    4.5357    3.8284 O   0  0  0  0  0  0  0  0  0  0  0  0
    0.4630    3.9385    3.4062 O   0  0  0  0  0  0  0  0  0  0  0  0
    2.4667    0.1766    1.2335 C   0  0  0  0  0  0  0  0  0  0  0  0
  1  2  1  0
  2  3  1  0
  2  6  1  0
  2 34  1  0
  3  4  1  0
  3 21  1  1
  4  8  1  0
  5  4  1  0
  5  6  1  6
  5  7  1  0
  7  8  1  0
  7 10  1  6
  8  9  2  0
 10 11  1  0
 11 12  2  0
 11 13  1  0
 13 14  1  0
 13 20  1  1
 14 15  2  0
 14 19  1  0
 15 16  1  0
 16 17  2  0
 17 18  1  0
 18 19  2  0
 21 22  2  0
 21 23  1  0
 24 23  1  6
 24 25  1  0
 24 33  1  0
 25 26  2  0
 25 30  1  0
 26 27  1  0
 27 28  2  0
 28 29  1  0
 29 30  2  0
 30 31  1  0
 31 32  2  0
 31 33  1  0
M  END
>  <DRUGBANK_ID>  (1) 
DB13814

>  <COMMON_NAME>  (1) 
Talampicillin

>  <CAS_NUMBER>  (1) 
47747-56-8

>  <UNII>  (1) 
29OJI73DPC

>  <SYNONYMS>  (1) 
Talampicillin

$$$$
