
     RDKit          3D

 43 51  0  0  0  0  0  0  0  0999 V2000
    0.8137   -0.9101   -1.4107 C   0  0  0  0  0  0  0  0  0  0  0  0
    0.7297    0.1974   -0.2333 C   0  0  0  0  0  0  0  0  0  0  0  0
   -0.6217   -2.2349   -0.0850 C   0  0  0  0  0  0  0  0  0  0  0  0
   -0.1900   -0.6665    0.2746 C   0  0  0  0  0  0  0  0  0  0  0  0
   -1.0408   -3.1324   -1.5819 C   0  0  0  0  0  0  0  0  0  0  0  0
   -1.0105   -1.7203   -1.9481 C   0  0  0  0  0  0  0  0  0  0  0  0
   -2.3293   -0.8784    0.2222 C   0  0  0  0  0  0  0  0  0  0  0  0
   -1.3243    0.1232    0.1931 C   0  0  0  0  0  0  0  0  0  0  0  0
   -2.8814    1.9840    0.0259 C   0  0  0  0  0  0  0  0  0  0  0  0
   -1.5956    1.5346    0.0561 C   0  0  0  0  0  0  0  0  0  0  0  0
   -3.6033   -0.3333    0.0223 C   0  0  0  0  0  0  0  0  0  0  0  0
   -3.8765    1.0501   -0.0119 C   0  0  0  0  0  0  0  0  0  0  0  0
   -3.8816   -3.9746   -2.5091 C   0  0  0  0  0  0  0  0  0  0  0  0
   -3.1001   -2.3598   -2.2894 C   0  0  0  0  0  0  0  0  0  0  0  0
   -4.9988   -2.3406   -2.4661 C   0  0  0  0  0  0  0  0  0  0  0  0
   -6.7316   -3.1449   -2.4428 C   0  0  0  0  0  0  0  0  0  0  0  0
   -7.1005   -4.4570   -2.3329 C   0  0  0  0  0  0  0  0  0  0  0  0
   -5.6061   -4.8429   -2.4463 C   0  0  0  0  0  0  0  0  0  0  0  0
   -2.3666   -4.3571   -1.9698 N   0  0  0  0  0  0  0  0  0  0  0  0
   -1.8278   -2.2607    0.4057 N   0  0  0  0  0  0  0  0  0  0  0  0
   -2.9769   -4.0468   -0.4239 O   0  0  0  0  0  0  0  0  0  0  0  0
   -3.3560   -5.2020    1.4846 C   0  0  1  0  0  0  0  0  0  0  0  0
   -2.7470   -3.8598    1.5965 C   0  0  0  0  0  0  0  0  0  0  0  0
   -2.0479   -3.6711    0.4314 C   0  0  2  0  0  0  0  0  0  0  0  0
   -4.1033   -5.2634    2.6880 N   0  0  0  0  0  0  0  0  0  0  0  0
   -3.5472   -6.1389    3.6663 C   0  0  0  0  0  0  0  0  0  0  0  0
    2.6603    1.5404   -0.5391 N   0  0  0  0  0  0  0  0  0  0  0  0
    2.6186   -0.0748   -0.6252 C   0  0  0  0  0  0  0  0  0  0  0  0
    1.4264    1.6817   -0.0025 C   0  0  0  0  0  0  0  0  0  0  0  0
    1.0644    2.7890    0.4124 O   0  0  0  0  0  0  0  0  0  0  0  0
   -3.0322   -5.2651   -1.0266 C   0  0  2  0  0  0  0  0  0  0  0  0
   -2.1465   -6.4362   -1.1351 C   0  0  0  0  0  0  0  0  0  0  0  0
   -4.1498   -5.5188    0.1573 C   0  0  2  0  0  0  0  0  0  0  0  0
   -5.3750   -4.7383    0.1162 O   0  0  0  0  0  0  0  0  0  0  0  0
   -5.2212   -3.3361    0.0063 C   0  0  0  0  0  0  0  0  0  0  0  0
   -5.1946   -4.4120    2.9188 C   0  0  0  0  0  0  0  0  0  0  0  0
   -5.7194   -3.5593    2.2242 O   0  0  0  0  0  0  0  0  0  0  0  0
   -5.9105   -4.4777    4.1609 C   0  0  0  0  0  0  0  0  0  0  0  0
   -7.2822   -4.8886    6.5011 C   0  0  0  0  0  0  0  0  0  0  0  0
   -7.9795   -4.6087    5.3267 C   0  0  0  0  0  0  0  0  0  0  0  0
   -5.8995   -4.8026    6.5161 C   0  0  0  0  0  0  0  0  0  0  0  0
   -7.2970   -4.5189    4.1248 C   0  0  0  0  0  0  0  0  0  0  0  0
   -5.2385   -4.4311    5.3639 C   0  0  0  0  0  0  0  0  0  0  0  0
  1  6  2  0
  1  2  1  0
  2  4  2  0
  2 29  1  0
  3 20  1  0
  4  3  1  0
  4  8  1  0
  5  3  2  0
  6  5  1  0
  6 14  1  0
  7 11  1  0
  8  7  2  0
  9 10  2  0
  9 12  1  0
 10  8  1  0
 11 12  2  0
 13 19  1  0
 13 14  2  0
 15 14  1  0
 15 16  2  0
 16 17  1  0
 17 18  2  0
 18 13  1  0
 19  5  1  0
 20  7  1  0
 21 31  1  0
 21 24  1  0
 22 23  1  0
 22 25  1  1
 24 23  1  1
 24 20  1  0
 25 26  1  0
 25 36  1  0
 27 28  1  0
 27 29  1  0
 28  1  1  0
 29 30  2  0
 31 33  1  0
 31 19  1  0
 31 32  1  1
 33 22  1  0
 33 34  1  6
 34 35  1  0
 36 37  2  0
 36 38  1  0
 38 42  2  0
 38 43  1  0
 40 39  2  0
 41 39  1  0
 42 40  1  0
 43 41  2  0
M  END
>  <DRUGBANK_ID>  (1) 
DB06595

>  <COMMON_NAME>  (1) 
Midostaurin

>  <CAS_NUMBER>  (1) 
120685-11-2

>  <UNII>  (1) 
ID912S5VON

>  <SYNONYMS>  (1) 
4'-N-benzoylstaurosporine; Midostaurin

$$$$
