1192
     RDKit          3D

 22 26  0  0  1  0  0  0  0  0999 V2000
   -0.0246    1.7885    0.8080 O   0  0  0  0  0  0  0  0  0  0  0  0
   -1.7358   -2.9522   -0.5483 O   0  0  0  0  0  0  0  0  0  0  0  0
   -2.7838    2.4175   -0.4731 O   0  0  0  0  0  0  0  0  0  0  0  0
    2.9132    2.5518    0.8323 O   0  0  0  0  0  0  0  0  0  0  0  0
    0.6685   -0.5458   -1.7959 N   0  0  0  0  0  0  0  0  0  0  0  0
   -0.8338   -0.3669   -0.0219 C   0  0  2  0  0  0  0  0  0  0  0  0
   -1.3780   -1.7461    0.2282 C   0  0  2  0  0  0  0  0  0  0  0  0
    0.0888   -1.9454   -0.7271 C   0  0  2  0  0  0  0  0  0  0  0  0
   -1.2199    0.9207    0.6986 C   0  0  2  0  0  0  0  0  0  0  0  0
   -1.3408   -0.5300   -1.7542 C   0  0  0  0  0  0  0  0  0  0  0  0
    0.7803   -0.3336    0.7417 C   0  0  0  0  0  0  0  0  0  0  0  0
   -2.9360   -1.2910    0.2500 C   0  0  0  0  0  0  0  0  0  0  0  0
    1.4169   -2.5738   -0.4769 C   0  0  0  0  0  0  0  0  0  0  0  0
   -0.3831    0.2540   -2.4125 C   0  0  0  0  0  0  0  0  0  0  0  0
    1.8791   -1.3608    0.3642 C   0  0  0  0  0  0  0  0  0  0  0  0
   -3.4889    0.1043   -0.2112 C   0  0  0  0  0  0  0  0  0  0  0  0
   -2.5147    1.2640   -0.0167 C   0  0  0  0  0  0  0  0  0  0  0  0
    1.0708    0.9545    1.1052 C   0  0  0  0  0  0  0  0  0  0  0  0
    1.6886    0.5334   -1.7165 C   0  0  0  0  0  0  0  0  0  0  0  0
    3.2178   -1.0713    0.4258 C   0  0  0  0  0  0  0  0  0  0  0  0
    2.4731    1.2570    1.0963 C   0  0  0  0  0  0  0  0  0  0  0  0
    3.5069    0.2579    0.7535 C   0  0  0  0  0  0  0  0  0  0  0  0
  9  1  1  6
  1 18  1  0
  3 17  2  0
  4 21  1  0
  5  8  1  0
  5 14  1  0
  5 19  1  0
  6  7  1  0
  6  9  1  0
  6 10  1  6
  6 11  1  0
  7  2  1  6
  7  8  1  0
  7 12  1  0
  8 13  1  1
  9 17  1  0
 10 14  1  0
 11 15  2  0
 11 18  1  0
 12 16  1  0
 13 15  1  0
 15 20  1  0
 16 17  1  0
 18 21  2  0
 20 22  2  0
 21 22  1  0
M  END
>  <DRUGBANK_ID>  (1) 
DB01192

>  <SECONDARY_ACCESSION_NUMBERS>  (1) 
APRD00158

>  <COMMON_NAME>  (1) 
Oxymorphone

>  <CAS_NUMBER>  (1) 
76-41-5

>  <UNII>  (1) 
9VXA968E0C

>  <SYNONYMS>  (1) 
(14S)-14-Hydroxydihydromorphinone; 14-Hydroxydihydromorphinone; Dihydrohydroxymorphinone; Dihydroxymorphinone; Oximorfona; Oximorphonum; Oxymorphone; Oxymorphonum

$$$$
