
     RDKit          3D

  9  8  0  0  0  0  0  0  0  0999 V2000
    0.8285    0.0151   -0.0379 C   0  0  0  0  0  0  0  0  0  0  0  0
    0.0846   -0.9449   -0.9312 C   0  0  0  0  0  0  0  0  0  0  0  0
   -1.0128   -2.0217    0.0625 S   0  0  0  0  0  0  0  0  0  0  0  0
   -1.8194   -3.3171   -1.2688 S   0  0  0  0  0  0  0  0  0  0  0  0
   -2.9093   -2.3243   -2.3119 C   0  0  0  0  0  0  0  0  0  0  0  0
   -3.8969   -1.5100   -1.5349 C   0  0  0  0  0  0  0  0  0  0  0  0
   -0.1411   -2.9782    0.8227 O   0  0  0  0  0  0  0  0  0  0  0  0
   -3.9653   -0.1712   -1.6151 C   0  0  0  0  0  0  0  0  0  0  0  0
    0.2325    0.8836    0.7949 C   0  0  0  0  0  0  0  0  0  0  0  0
  1  2  1  0
  1  9  2  0
  2  3  1  0
  3  4  1  0
  3  7  2  0
  4  5  1  0
  5  6  1  0
  6  8  2  0
M  END
>  <DRUGBANK_ID>  (1) 
DB11780

>  <COMMON_NAME>  (1) 
Allicin

>  <CAS_NUMBER>  (1) 
539-86-6

>  <UNII>  (1) 
3C39BY17Y6

$$$$
