GIN
     RDKit          3D

 31 33  0  0  0  0  0  0  0  0999 V2000
    1.0685    0.0257   -0.0272 C   0  0  0  0  0  0  0  0  0  0  0  0
    3.2053   -0.8460   -0.8078 C   0  0  0  0  0  0  0  0  0  0  0  0
    4.7150   -2.6604   -2.3597 C   0  0  0  0  0  0  0  0  0  0  0  0
    4.9647   -2.4633   -0.9876 C   0  0  0  0  0  0  0  0  0  0  0  0
    4.2550   -1.5371   -0.2282 C   0  0  0  0  0  0  0  0  0  0  0  0
    5.5294   -3.6859   -3.1298 C   0  0  0  0  0  0  0  0  0  0  0  0
    7.0139   -3.3384   -3.2916 C   0  0  0  0  0  0  0  0  0  0  0  0
    7.7667   -3.2606   -1.9742 C   0  0  0  0  0  0  0  0  0  0  0  0
    2.4250    4.1786    0.6046 C   0  0  0  0  0  0  0  0  0  0  0  0
    3.6787    4.2102    1.4430 C   0  0  0  0  0  0  0  0  0  0  0  0
    4.1850    5.5225    1.8235 C   0  0  0  0  0  0  0  0  0  0  0  0
    5.2946    5.6477    2.5677 C   0  0  0  0  0  0  0  0  0  0  0  0
    0.3581    0.9888    0.8626 C   0  0  0  0  0  0  0  0  0  0  0  0
   -0.8451    0.5256    1.4325 C   0  0  0  0  0  0  0  0  0  0  0  0
   -1.7342    1.4116    2.0344 C   0  0  0  0  0  0  0  0  0  0  0  0
   -1.3887    2.7461    2.1508 C   0  0  0  0  0  0  0  0  0  0  0  0
   -0.1689    3.1937    1.6435 C   0  0  0  0  0  0  0  0  0  0  0  0
    0.7327    2.3454    0.9749 C   0  0  0  0  0  0  0  0  0  0  0  0
    1.9360    2.8174    0.4792 N   0  0  0  0  0  0  0  0  0  0  0  0
    2.4558    0.0384   -0.0090 N   0  0  0  0  0  0  0  0  0  0  0  0
    0.3931   -0.7517   -0.6975 O   0  0  0  0  0  0  0  0  0  0  0  0
    2.9115   -1.0464   -2.1608 C   0  0  0  0  0  0  0  0  0  0  0  0
    3.6738   -1.9247   -2.9588 C   0  0  0  0  0  0  0  0  0  0  0  0
    3.3556   -2.0484   -4.4307 C   0  0  0  0  0  0  0  0  0  0  0  0
    4.4191   -1.7081   -5.2149 F   0  0  0  0  0  0  0  0  0  0  0  0
    2.3302   -1.2539   -4.8456 F   0  0  0  0  0  0  0  0  0  0  0  0
    3.0105   -3.3150   -4.7949 F   0  0  0  0  0  0  0  0  0  0  0  0
    6.0210    4.4344    3.0139 C   0  0  0  0  0  0  0  0  0  0  0  0
    5.4737    3.2384    2.6363 N   0  0  0  0  0  0  0  0  0  0  0  0
    4.3367    3.1247    1.8838 C   0  0  0  0  0  0  0  0  0  0  0  0
    7.0486    4.5112    3.6854 O   0  0  0  0  0  0  0  0  0  0  0  0
  1 21  2  0
  1 13  1  0
  1 20  1  0
  2 22  2  0
  2 20  1  0
  2  5  1  0
  3 23  2  0
  3  6  1  0
  3  4  1  0
  4  5  2  0
  6  7  1  0
  7  8  1  0
  9 10  1  0
  9 19  1  0
 10 30  2  0
 10 11  1  0
 11 12  2  0
 12 28  1  0
 13 18  1  0
 13 14  2  0
 14 15  1  0
 15 16  2  0
 16 17  1  0
 17 18  2  0
 18 19  1  0
 22 23  1  0
 23 24  1  0
 24 25  1  0
 24 27  1  0
 24 26  1  0
 28 31  2  0
 28 29  1  0
 29 30  1  0
M  END
>  <DRUGBANK_ID>  (1) 
DB07831

>  <COMMON_NAME>  (1) 
2-{[(6-OXO-1,6-DIHYDROPYRIDIN-3-YL)METHYL]AMINO}-N-[4-PROPYL-3-(TRIFLUOROMETHYL)PHENYL]BENZAMIDE

$$$$
