
     RDKit          3D

 17 17  0  0  0  0  0  0  0  0999 V2000
   -0.7597    1.0789    0.0514 C   0  0  0  0  0  0  0  0  0  0  0  0
   -1.4189   -0.1341    0.0195 N   0  0  0  0  0  0  0  0  0  0  0  0
   -0.8002   -1.3839   -0.0070 C   0  0  0  0  0  0  0  0  0  0  0  0
    0.5894    1.0115    0.0036 C   0  0  0  0  0  0  0  0  0  0  0  0
    0.6946   -1.3621   -0.0135 C   0  0  0  0  0  0  0  0  0  0  0  0
    1.3545   -0.2034   -0.0202 C   0  0  0  0  0  0  0  0  0  0  0  0
   -1.5383    2.3852    0.1842 C   0  0  0  0  0  0  0  0  0  0  0  0
   -1.3670   -2.4617   -0.0113 O   0  0  0  0  0  0  0  0  0  0  0  0
   -2.8288   -0.2009    0.0508 O   0  0  0  0  0  0  0  0  0  0  0  0
    0.9293    4.4654   -0.0643 C   0  0  0  0  0  0  0  0  0  0  0  0
    0.4157    3.7463    1.2441 C   0  0  0  0  0  0  0  0  0  0  0  0
   -1.0668    3.3194    1.3113 C   0  0  0  0  0  0  0  0  0  0  0  0
    2.8548   -0.0666   -0.0154 C   0  0  0  0  0  0  0  0  0  0  0  0
   -1.9944    4.5329    1.4221 C   0  0  0  0  0  0  0  0  0  0  0  0
    0.3343    5.8757   -0.1266 C   0  0  0  0  0  0  0  0  0  0  0  0
    2.4538    4.6187    0.0394 C   0  0  0  0  0  0  0  0  0  0  0  0
    0.6646    3.8295   -1.4557 C   0  0  0  0  0  0  0  0  0  0  0  0
  2  1  1  0
  3  2  1  0
  4  1  2  0
  5  6  2  0
  5  3  1  0
  6  4  1  0
  7  1  1  0
  8  3  2  0
  9  2  1  0
 10 11  1  0
 10 15  1  0
 10 16  1  0
 10 17  1  0
 11 12  1  0
 12  7  1  0
 13  6  1  0
 14 12  1  0
M  END
>  <DRUGBANK_ID>  (1) 
DB15946

>  <COMMON_NAME>  (1) 
Piroctone

>  <CAS_NUMBER>  (1) 
50650-76-5

>  <UNII>  (1) 
R49EFA73Q7

>  <SYNONYMS>  (1) 
Piroctona; Piroctone; Piroctonol; Piroctonum

$$$$
