
     RDKit          3D

 16 16  0  0  0  0  0  0  0  0999 V2000
    0.9152   -0.0948   -0.0961 C   0  0  0  0  0  0  0  0  0  0  0  0
    0.3760    0.8056    1.0157 C   0  0  0  0  0  0  0  0  0  0  0  0
    0.8903    2.2321    0.9057 C   0  0  0  0  0  0  0  0  0  0  0  0
    0.0348    3.3414    0.9209 C   0  0  0  0  0  0  0  0  0  0  0  0
    0.5305    4.6455    0.8510 C   0  0  0  0  0  0  0  0  0  0  0  0
    1.9021    4.8897    0.7903 C   0  0  0  0  0  0  0  0  0  0  0  0
    2.7491    3.7808    0.8657 C   0  0  0  0  0  0  0  0  0  0  0  0
    2.2634    2.4751    0.8610 C   0  0  0  0  0  0  0  0  0  0  0  0
    2.3640    6.1871    0.6901 N   0  0  0  0  0  0  0  0  0  0  0  0
    3.7617    6.5318    0.5558 C   0  0  0  0  0  0  0  0  0  0  0  0
    4.0355    7.1935   -0.7692 C   0  0  0  0  0  0  0  0  0  0  0  0
    4.6076    8.4083   -0.8203 C   0  0  0  0  0  0  0  0  0  0  0  0
    3.7644    6.4105   -2.0265 C   0  0  0  0  0  0  0  0  0  0  0  0
   -1.1374    0.7022    1.0530 C   0  0  0  0  0  0  0  0  0  0  0  0
   -1.8132    0.3730    2.0226 O   0  0  0  0  0  0  0  0  0  0  0  0
   -1.7391    1.1034   -0.0875 O   0  0  0  0  0  0  0  0  0  0  0  0
  1  2  1  0
  2  3  1  0
  2 14  1  0
  3  4  2  0
  3  8  1  0
  4  5  1  0
  5  6  2  0
  6  7  1  0
  6  9  1  0
  7  8  2  0
  9 10  1  0
 10 11  1  0
 11 12  2  0
 11 13  1  0
 14 15  2  0
 14 16  1  0
M  END
>  <DRUGBANK_ID>  (1) 
DB13314

>  <COMMON_NAME>  (1) 
Alminoprofen

>  <CAS_NUMBER>  (1) 
39718-89-3

>  <UNII>  (1) 
0255AHR9GJ

>  <SYNONYMS>  (1) 
2-{4-[(2-methylprop-2-en-1-yl)amino]phenyl}propionic acid; Alminoprofen; alminoprofene; alminoprofeno; alminoprofenum; p-((2-Methylallyl)amino)hydratropic acid; Î±-methyl-4-[(2-methyl-2-propenyl)amino]benzeneacetic acid

$$$$
