287
     RDKit          3D

 32 33  0  0  1  0  0  0  0  0999 V2000
    0.5105    0.2404   -0.5069 F   0  0  0  0  0  0  0  0  0  0  0  0
    2.4773    1.1501   -0.3081 F   0  0  0  0  0  0  0  0  0  0  0  0
    1.9224   -0.6793    0.7774 F   0  0  0  0  0  0  0  0  0  0  0  0
    6.3580    1.2674    1.6881 O   0  0  0  0  0  0  0  0  0  0  0  0
    6.7159   -1.7464    0.7814 O   0  0  0  0  0  0  0  0  0  0  0  0
    2.1998   -5.2572    1.7835 O   0  0  0  0  0  0  0  0  0  0  0  0
    2.6481   -4.5671   -1.9100 O   0  0  0  0  0  0  0  0  0  0  0  0
    8.9441    3.0438    7.3538 O   0  0  0  0  0  0  0  0  0  0  0  0
    4.1033    0.1607    1.9097 C   0  0  2  0  0  0  0  0  0  0  0  0
    4.4890   -1.3358    1.6620 C   0  0  2  0  0  0  0  0  0  0  0  0
    5.1204    0.9877    1.0834 C   0  0  2  0  0  0  0  0  0  0  0  0
    5.4113   -1.3042    0.4139 C   0  0  1  0  0  0  0  0  0  0  0  0
    5.4436    0.1131   -0.1023 C   0  0  0  0  0  0  0  0  0  0  0  0
    3.7963    0.5362    3.3472 C   0  0  0  0  0  0  0  0  0  0  0  0
    3.4579   -2.4737    1.7597 C   0  0  0  0  0  0  0  0  0  0  0  0
    4.7540   -0.1331    4.2539 C   0  0  0  0  0  0  0  0  0  0  0  0
    3.5116   -3.4811    0.8696 C   0  0  0  0  0  0  0  0  0  0  0  0
    2.9110   -4.8251    0.6364 C   0  0  2  0  0  0  0  0  0  0  0  0
    5.7636    0.5067    4.8304 C   0  0  0  0  0  0  0  0  0  0  0  0
    5.8636    2.0014    4.8677 C   0  0  0  0  0  0  0  0  0  0  0  0
    2.0554   -4.9960   -0.6591 C   0  0  0  0  0  0  0  0  0  0  0  0
    5.7256    2.4431    6.3072 C   0  0  0  0  0  0  0  0  0  0  0  0
    6.8337    1.8694    7.1812 C   0  0  0  0  0  0  0  0  0  0  0  0
    2.6798   -3.2247   -2.1851 C   0  0  0  0  0  0  0  0  0  0  0  0
    8.2121    2.3205    6.7379 C   0  0  0  0  0  0  0  0  0  0  0  0
    2.0845   -2.2748   -1.3767 C   0  0  0  0  0  0  0  0  0  0  0  0
    3.4548   -2.7821   -3.2593 C   0  0  0  0  0  0  0  0  0  0  0  0
    2.3662   -0.9143   -1.5106 C   0  0  0  0  0  0  0  0  0  0  0  0
    3.7822   -1.4239   -3.3913 C   0  0  0  0  0  0  0  0  0  0  0  0
    3.2300   -0.4864   -2.5222 C   0  0  0  0  0  0  0  0  0  0  0  0
    1.8297   -0.0405   -0.4209 C   0  0  0  0  0  0  0  0  0  0  0  0
    8.5719    1.8364    5.5250 O   0  0  0  0  0  0  0  0  0  0  0  0
  1 31  1  0
  2 31  1  0
  3 31  1  0
  7 21  1  0
  7 24  1  0
  8 25  2  0
  9 10  1  0
  9 11  1  0
  9 14  1  1
 10 12  1  0
 10 15  1  6
 11 13  1  0
 11  4  1  1
 12  5  1  1
 12 13  1  0
 14 16  1  0
 15 17  2  0
 16 19  2  0
 18 21  1  0
 18 17  1  0
 18  6  1  1
 19 20  1  0
 20 22  1  0
 22 23  1  0
 23 25  1  0
 24 26  2  0
 24 27  1  0
 25 32  1  0
 26 28  1  0
 27 29  2  0
 28 30  2  0
 28 31  1  0
 29 30  1  0
M  END
>  <DRUGBANK_ID>  (1) 
DB11519

>  <COMMON_NAME>  (1) 
Fluprostenol

>  <CAS_NUMBER>  (1) 
40666-16-8

>  <UNII>  (1) 
358S7VUE5N

>  <SYNONYMS>  (1) 
Fluprostenol; Fluprostenolum; Travoprost acid; Travoprost free acid

$$$$
