
     RDKit          3D

  9  8  0  0  0  0  0  0  0  0999 V2000
    1.0616   -0.0454    0.0211 N   0  0  0  0  0  0  0  0  0  0  0  0
    0.4596   -1.5022   -0.0885 C   0  0  0  0  0  0  0  0  0  0  0  0
    0.4795    0.6341    1.2815 C   0  0  0  0  0  0  0  0  0  0  0  0
    0.5291    0.6614   -1.2879 C   0  0  0  0  0  0  0  0  0  0  0  0
    2.6057   -0.0892   -0.0367 C   0  0  0  0  0  0  0  0  0  0  0  0
    0.7286   -2.4425    1.0789 C   0  0  0  0  0  0  0  0  0  0  0  0
    0.9970    2.0305    1.5844 C   0  0  0  0  0  0  0  0  0  0  0  0
    0.9981    2.0895   -1.5326 C   0  0  0  0  0  0  0  0  0  0  0  0
    3.3010   -0.6840    1.1767 C   0  0  0  0  0  0  0  0  0  0  0  0
  1  2  1  0
  1  3  1  0
  1  4  1  0
  1  5  1  0
  2  6  1  0
  3  7  1  0
  4  8  1  0
  5  9  1  0
M  CHG  1   1   1
M  END
>  <DRUGBANK_ID>  (1) 
DB08837

>  <COMMON_NAME>  (1) 
Tetraethylammonium

>  <CAS_NUMBER>  (1) 
66-40-0

>  <UNII>  (1) 
5AV7G7EIEE

$$$$
