
     RDKit          3D

 40 44  0  0  0  0  0  0  0  0999 V2000
    2.6012    0.1886   -0.1283 C   0  0  0  0  0  0  0  0  0  0  0  0
    1.2319    0.2777   -0.6776 N   0  0  0  0  0  0  0  0  0  0  0  0
    0.5609   -0.9484   -0.2553 C   0  0  0  0  0  0  0  0  0  0  0  0
   -0.9552   -1.0215   -0.5122 C   0  0  0  0  0  0  0  0  0  0  0  0
   -1.7203    0.0393    0.1505 N   0  0  0  0  0  0  0  0  0  0  0  0
   -1.0624    1.3271   -0.2090 C   0  0  0  0  0  0  0  0  0  0  0  0
    0.4957    1.4141   -0.0556 C   0  0  0  0  0  0  0  0  0  0  0  0
   -2.0315   -0.1442    1.5969 C   0  0  0  0  0  0  0  0  0  0  0  0
   -0.8479   -0.2499    2.5681 C   0  0  0  0  0  0  0  0  0  0  0  0
   -0.2563   -1.6494    2.5738 C   0  0  0  0  0  0  0  0  0  0  0  0
   -1.2876   -2.5544    3.0363 N   0  0  0  0  0  0  0  0  0  0  0  0
   -2.3681   -2.7213    2.0729 C   0  0  0  0  0  0  0  0  0  0  0  0
   -3.0145   -1.3248    1.9299 C   0  0  0  0  0  0  0  0  0  0  0  0
   -0.7137   -3.5351    3.7812 C   0  0  0  0  0  0  0  0  0  0  0  0
   -0.5175   -4.8656    3.4189 C   0  0  0  0  0  0  0  0  0  0  0  0
    0.1161   -5.7244    4.3189 C   0  0  0  0  0  0  0  0  0  0  0  0
    0.6338   -5.2897    5.5689 C   0  0  0  0  0  0  0  0  0  0  0  0
    0.6258   -3.8928    5.7826 C   0  0  0  0  0  0  0  0  0  0  0  0
   -0.1350   -3.0959    4.9703 C   0  0  0  0  0  0  0  0  0  0  0  0
    1.3467   -3.0572    6.5921 O   0  0  0  0  0  0  0  0  0  0  0  0
    2.4535   -3.6071    7.2294 C   0  0  0  0  0  0  0  0  0  0  0  0
    0.9293   -6.3071    6.5083 N   0  0  0  0  0  0  0  0  0  0  0  0
    1.2157   -6.2216    7.8722 C   0  0  0  0  0  0  0  0  0  0  0  0
    0.3696   -5.5635    8.6904 N   0  0  0  0  0  0  0  0  0  0  0  0
    0.8794   -5.0532    9.8372 C   0  0  0  0  0  0  0  0  0  0  0  0
    2.2007   -5.1811   10.1971 C   0  0  0  0  0  0  0  0  0  0  0  0
    2.9967   -5.9177    9.3128 C   0  0  0  0  0  0  0  0  0  0  0  0
    2.4774   -6.5257    8.2188 N   0  0  0  0  0  0  0  0  0  0  0  0
    4.3871   -5.9816    9.4941 N   0  0  0  0  0  0  0  0  0  0  0  0
    5.3158   -6.8051    8.8267 C   0  0  0  0  0  0  0  0  0  0  0  0
    5.8910   -6.2680    7.6602 C   0  0  0  0  0  0  0  0  0  0  0  0
    6.8246   -6.9910    6.9322 C   0  0  0  0  0  0  0  0  0  0  0  0
    7.2564   -8.2233    7.4106 C   0  0  0  0  0  0  0  0  0  0  0  0
    6.7602   -8.7363    8.6174 C   0  0  0  0  0  0  0  0  0  0  0  0
    5.7723   -8.0562    9.3544 C   0  0  0  0  0  0  0  0  0  0  0  0
    4.9582   -8.9097   10.7535 P   0  0  0  0  0  0  0  0  0  0  0  0
    6.3223   -9.3119   11.3665 O   0  0  0  0  0  0  0  0  0  0  0  0
    4.4691   -7.3757   11.7462 C   0  0  0  0  0  0  0  0  0  0  0  0
    4.1441   -9.7633   12.1527 C   0  0  0  0  0  0  0  0  0  0  0  0
    2.8092   -4.3455   11.5748 Cl  0  0  0  0  0  0  0  0  0  0  0  0
  1  2  1  0
  2  3  1  0
  2  7  1  0
  3  4  1  0
  4  5  1  0
  5  6  1  0
  5  8  1  0
  6  7  1  0
  8  9  1  0
  8 13  1  0
  9 10  1  0
 10 11  1  0
 11 12  1  0
 11 14  1  0
 12 13  1  0
 14 15  2  0
 14 19  1  0
 15 16  1  0
 16 17  2  0
 17 18  1  0
 17 22  1  0
 18 19  2  0
 18 20  1  0
 20 21  1  0
 22 23  1  0
 23 24  2  0
 23 28  1  0
 24 25  1  0
 25 26  2  0
 26 27  1  0
 26 40  1  0
 27 28  2  0
 27 29  1  0
 29 30  1  0
 30 31  2  0
 30 35  1  0
 31 32  1  0
 32 33  2  0
 33 34  1  0
 34 35  2  0
 35 36  1  0
 36 37  2  0
 36 38  1  0
 36 39  1  0
M  END
>  <DRUGBANK_ID>  (1) 
DB12267

>  <COMMON_NAME>  (1) 
Brigatinib

>  <CAS_NUMBER>  (1) 
1197953-54-0

>  <UNII>  (1) 
HYW8DB273J

>  <SYNONYMS>  (1) 
Brigatinib

$$$$
