
     RDKit          3D

  8  7  0  0  0  0  0  0  0  0999 V2000
    1.0162    0.1480    0.3077 C   0  0  0  0  0  0  0  0  0  0  0  0
    0.4992   -1.0833    0.9993 C   0  0  0  0  0  0  0  0  0  0  0  0
   -0.2308   -0.9800    1.9879 O   0  0  0  0  0  0  0  0  0  0  0  0
    0.9245   -2.4571    0.4919 C   0  0  0  0  0  0  0  0  0  0  0  0
    0.4257   -2.8365   -0.9017 C   0  0  0  0  0  0  0  0  0  0  0  0
    1.0051   -2.0414   -2.0557 C   0  0  0  0  0  0  0  0  0  0  0  0
    1.8627   -2.6925   -2.8586 O   0  0  0  0  0  0  0  0  0  0  0  0
    0.7103   -0.8800   -2.3045 O   0  0  0  0  0  0  0  0  0  0  0  0
  1  2  1  0
  2  3  2  0
  2  4  1  0
  4  5  1  0
  5  6  1  0
  6  7  1  0
  6  8  2  0
M  END
>  <DRUGBANK_ID>  (1) 
DB02239

>  <SECONDARY_ACCESSION_NUMBERS>  (1) 
EXPT02901

>  <COMMON_NAME>  (1) 
Laevulinic Acid

>  <CAS_NUMBER>  (1) 
123-76-2

>  <UNII>  (1) 
RYX5QG61EI

$$$$
