988
     RDKit          3D

 11 11  0  0  0  0  0  0  0  0999 V2000
    1.7033   -1.3509    0.0207 O   0  0  0  0  0  0  0  0  0  0  0  0
    1.7143    1.3721    0.0201 O   0  0  0  0  0  0  0  0  0  0  0  0
   -4.5038    0.2995    1.2856 O   0  0  0  0  0  0  0  0  0  0  0  0
   -3.2602   -1.3602   -0.0403 C   0  0  0  0  0  0  0  0  0  0  0  0
   -1.9167   -0.6588   -0.0485 C   0  0  0  0  0  0  0  0  0  0  0  0
   -4.1066   -1.0653    1.2057 C   0  0  0  0  0  0  0  0  0  0  0  0
   -0.7134   -1.3819   -0.0069 C   0  0  0  0  0  0  0  0  0  0  0  0
   -1.8608    0.7463   -0.1152 C   0  0  0  0  0  0  0  0  0  0  0  0
    0.5022   -0.6971    0.0045 C   0  0  0  0  0  0  0  0  0  0  0  0
   -0.6459    1.4234   -0.0484 C   0  0  0  0  0  0  0  0  0  0  0  0
    0.5283    0.6970   -0.0001 C   0  0  0  0  0  0  0  0  0  0  0  0
  1  9  1  0
  2 11  1  0
  3  6  1  0
  4  5  1  0
  4  6  1  0
  5  7  2  0
  5  8  1  0
  7  9  1  0
  8 10  2  0
  9 11  2  0
 10 11  1  0
M  END
>  <DRUGBANK_ID>  (1) 
DB12771

>  <COMMON_NAME>  (1) 
Hydroxytyrosol

>  <CAS_NUMBER>  (1) 
10597-60-1

>  <UNII>  (1) 
QEU0NE4O90

$$$$
