
     RDKit          3D

 22 22  0  0  0  0  0  0  0  0999 V2000
    1.9204    5.3766    4.6633 C   0  0  0  0  0  0  0  0  0  0  0  0
    2.0523    3.5502    3.0196 C   0  0  0  0  0  0  0  0  0  0  0  0
    4.2039    4.5145    3.8201 C   0  0  0  0  0  0  0  0  0  0  0  0
    3.4414    2.5972   10.1591 C   0  0  0  0  0  0  0  0  0  0  0  0
    5.7271    2.2419    9.1343 C   0  0  0  0  0  0  0  0  0  0  0  0
    4.7179    4.4953    9.2100 C   0  0  0  0  0  0  0  0  0  0  0  0
    2.5412   -0.6339    6.0666 C   0  0  0  0  0  0  0  0  0  0  0  0
    2.5858    1.7573    5.2211 C   0  0  0  0  0  0  0  0  0  0  0  0
    3.4255    1.3878    7.3594 C   0  0  0  0  0  0  0  0  0  0  0  0
    3.3910   -1.1845    8.2941 C   0  0  0  0  0  0  0  0  0  0  0  0
    2.8424    0.8333    6.2206 C   0  0  0  0  0  0  0  0  0  0  0  0
    2.7632   -1.6193    6.9798 C   0  0  0  0  0  0  0  0  0  0  0  0
    2.8879    3.1428    5.4003 C   0  0  0  0  0  0  0  0  0  0  0  0
    3.7219    2.7104    7.6441 C   0  0  0  0  0  0  0  0  0  0  0  0
    3.4039    3.5873    6.6427 C   0  0  0  0  0  0  0  0  0  0  0  0
    2.4248   -3.0512    6.7404 C   0  0  0  0  0  0  0  0  0  0  0  0
    2.7612    4.1434    4.2506 C   0  0  0  0  0  0  0  0  0  0  0  0
    4.3843    3.0131    9.0033 C   0  0  0  0  0  0  0  0  0  0  0  0
    3.9118   -0.8238    9.3844 N   0  0  0  0  0  0  0  0  0  0  0  0
    1.8926   -3.5775    5.6873 N   0  0  0  0  0  0  0  0  0  0  0  0
    3.5922    4.9009    6.9248 O   0  0  0  0  0  0  0  0  0  0  0  0
    2.7853   -4.1764    8.0341 S   0  0  0  0  0  0  0  0  0  0  0  0
 11  7  1  0
 11  8  2  0
 11  9  1  0
 12  7  2  0
 12 10  1  0
 13  8  1  0
 14  9  2  0
 15 13  2  0
 15 14  1  0
 16 12  1  0
 17  1  1  0
 17  2  1  0
 17  3  1  0
 17 13  1  0
 18  4  1  0
 18  5  1  0
 18  6  1  0
 18 14  1  0
 19 10  3  0
 20 16  2  0
 21 15  1  0
 22 16  1  0
M  END
>  <DRUGBANK_ID>  (1) 
DB16776

>  <COMMON_NAME>  (1) 
Tyrphostin AG 879

>  <CAS_NUMBER>  (1) 
148741-30-4

>  <SYNONYMS>  (1) 
AG 879; AG-879; AG879; Tyrphostin AG-879; Tyrphostin AG879

$$$$
