
     RDKit          3D

 25 26  0  0  0  0  0  0  0  0999 V2000
    0.7306    0.5927   -0.5060 C   0  0  0  0  0  0  0  0  0  0  0  0
    0.4175   -1.1002   -1.7036 C   0  0  0  0  0  0  0  0  0  0  0  0
    0.2785    0.2849    1.4078 C   0  0  0  0  0  0  0  0  0  0  0  0
    0.1948    1.8623   -0.8214 O   0  0  0  0  0  0  0  0  0  0  0  0
    2.6349    0.6552   -0.4221 C   0  0  0  0  0  0  0  0  0  0  0  0
    1.8903   -2.3400   -1.5248 C   0  0  0  0  0  0  0  0  0  0  0  0
   -0.3063   -2.6410   -0.5954 C   0  0  0  0  0  0  0  0  0  0  0  0
    0.2902   -1.1760    2.1945 C   0  0  0  0  0  0  0  0  0  0  0  0
    0.0248    1.2593    2.2793 C   0  0  0  0  0  0  0  0  0  0  0  0
   -1.1892    1.6890   -0.6367 C   0  0  0  0  0  0  0  0  0  0  0  0
    1.8997   -3.4509    0.0587 C   0  0  0  0  0  0  0  0  0  0  0  0
    1.7732   -3.4189   -2.4344 C   0  0  0  0  0  0  0  0  0  0  0  0
    0.4832   -3.8302   -0.4737 C   0  0  0  0  0  0  0  0  0  0  0  0
   -0.0347   -1.5582    3.4644 C   0  0  0  0  0  0  0  0  0  0  0  0
   -0.1718    0.8683    3.6412 C   0  0  0  0  0  0  0  0  0  0  0  0
   -1.6765    0.5114   -1.3949 C   0  0  0  0  0  0  0  0  0  0  0  0
    1.1189   -4.3226   -1.6945 C   0  0  0  0  0  0  0  0  0  0  0  0
   -0.2852   -0.4648    4.2024 C   0  0  0  0  0  0  0  0  0  0  0  0
   -1.1021   -0.8333   -0.6103 N   0  0  0  0  0  0  0  0  0  0  0  0
   -1.9611   -1.0902    0.7205 C   0  0  0  0  0  0  0  0  0  0  0  0
   -1.7608   -2.0816   -2.0463 C   0  0  0  0  0  0  0  0  0  0  0  0
    0.9154   -1.0311   -0.0854 C   0  0  0  0  0  0  0  0  0  0  0  0
   -3.3837   -1.2597    0.4958 C   0  0  0  0  0  0  0  0  0  0  0  0
   -1.1298   -2.0357   -3.4607 C   0  0  0  0  0  0  0  0  0  0  0  0
    3.4834   -0.4340    2.7144 Br  0  0  0  0  0  0  0  0  0  0  0  0
  1  2  1  0
  1  3  1  0
  1  4  1  0
  1  5  1  0
  2  6  1  0
  2  7  1  0
  3  8  2  0
  3  9  1  0
  4 10  1  0
  6 11  1  0
  6 12  1  0
  7 13  1  0
  8 14  1  0
  9 15  2  0
 10 16  1  0
 11 13  1  0
 12 17  2  0
 13 17  1  0
 14 18  2  0
 15 18  1  0
 16 19  1  0
 19 20  1  0
 19 21  1  0
 19 22  1  0
 20 23  1  0
 21 24  1  0
M  CHG  2  19   1  25  -1
M  END
>  <DRUGBANK_ID>  (1) 
DB15827

>  <COMMON_NAME>  (1) 
Ciclonium bromide

>  <CAS_NUMBER>  (1) 
29546-59-6

>  <UNII>  (1) 
72R7F44611

>  <SYNONYMS>  (1) 
Bromure de ciclonium; Bromuro de ciclonio; Ciclonii bromidum; Ciclonium bromide; Cyclonium bromide

$$$$
