RHP
     RDKit          3D

 14 15  0  0  0  0  0  0  0  0999 V2000
   -6.6238    1.8521   -4.9141 C   0  0  0  0  0  0  0  0  0  0  0  0
   -6.0691    1.8763   -3.7344 C   0  0  0  0  0  0  0  0  0  0  0  0
   -5.4224    1.9045   -2.3591 C   0  0  0  0  0  0  0  0  0  0  0  0
   -4.3026    0.9747   -2.3468 N   0  0  0  0  0  0  0  0  0  0  0  0
   -3.6354    0.9159   -1.0405 C   0  0  2  0  0  0  0  0  0  0  0  0
   -4.2293   -0.1679   -0.1192 C   0  0  0  0  0  0  0  0  0  0  0  0
   -5.0192    0.5299    1.0086 C   0  0  0  0  0  0  0  0  0  0  0  0
   -4.7312    1.9908    0.8034 C   0  0  0  0  0  0  0  0  0  0  0  0
   -3.8320    2.1772   -0.2501 C   0  0  0  0  0  0  0  0  0  0  0  0
   -3.4772    3.4471   -0.7035 C   0  0  0  0  0  0  0  0  0  0  0  0
   -5.3022    3.1003    1.4083 C   0  0  0  0  0  0  0  0  0  0  0  0
   -4.9910    4.3898    0.9237 C   0  0  0  0  0  0  0  0  0  0  0  0
   -4.0948    4.5451   -0.1422 C   0  0  0  0  0  0  0  0  0  0  0  0
   -3.8559    5.7503   -0.7373 O   0  0  0  0  0  0  0  0  0  0  0  0
  1  2  3  0
  2  3  1  0
  3  4  1  0
  5  6  1  0
  5  9  1  0
  5  4  1  6
  6  7  1  0
  7  8  1  0
  8  9  2  0
  8 11  1  0
  9 10  1  0
 10 13  2  0
 11 12  2  0
 12 13  1  0
 13 14  1  0
M  END
>  <DRUGBANK_ID>  (1) 
DB04307

>  <SECONDARY_ACCESSION_NUMBERS>  (1) 
EXPT02781

>  <COMMON_NAME>  (1) 
5-Hydroxy-N-Propargyl-1(R)-Aminoindan

$$$$
