
     RDKit          3D

 15 16  0  0  1  0  0  0  0  0999 V2000
    0.9976    0.1184   -0.0172 C   0  0  0  0  0  0  0  0  0  0  0  0
   -0.3472   -0.3578   -2.0444 C   0  0  0  0  0  0  0  0  0  0  0  0
    3.0865    5.3324   -3.8128 C   0  0  0  0  0  0  0  0  0  0  0  0
    2.6460    3.8680   -3.5828 C   0  0  2  0  0  0  0  0  0  0  0  0
    0.3607    3.7939   -2.6552 C   0  0  2  0  0  0  0  0  0  0  0  0
    1.6839    3.3665   -4.6664 C   0  0  2  0  0  0  0  0  0  0  0  0
    0.2941    3.8457   -4.1918 C   0  0  2  0  0  0  0  0  0  0  0  0
    1.8317    3.6807   -2.2776 C   0  0  1  0  0  0  0  0  0  0  0  0
    0.6970    1.8197   -1.7640 C   0  0  0  0  0  0  0  0  0  0  0  0
   -0.2694    2.5474   -2.2035 N   0  0  0  0  0  0  0  0  0  0  0  0
    0.5941    0.5128   -1.3526 N   0  0  0  0  0  0  0  0  0  0  0  0
    2.1759    6.1288   -4.5583 O   0  0  0  0  0  0  0  0  0  0  0  0
    1.7280    1.9407   -4.7094 O   0  0  0  0  0  0  0  0  0  0  0  0
   -0.0473    5.1556   -4.6527 O   0  0  0  0  0  0  0  0  0  0  0  0
    1.9488    2.3609   -1.7200 O   0  0  0  0  0  0  0  0  0  0  0  0
  4  3  1  6
  6  4  1  0
  6 13  1  1
  7  5  1  0
  7  6  1  0
  7 14  1  1
  8  4  1  0
  8  5  1  0
  5 10  1  6
 10  9  2  0
 11  1  1  0
 11  2  1  0
 11  9  1  0
 12  3  1  0
  8 15  1  6
 15  9  1  0
M  END
>  <DRUGBANK_ID>  (1) 
DB04404

>  <SECONDARY_ACCESSION_NUMBERS>  (1) 
EXPT00509

>  <COMMON_NAME>  (1) 
Allosamizoline

$$$$
