
     RDKit          3D

 13 10  0  0  0  0  0  0  0  0999 V2000
    2.0718    0.3197   -0.6230 C   0  0  0  0  0  0  0  0  0  0  0  0
    1.5300   -1.5750   -0.5045 C   0  0  0  0  0  0  0  0  0  0  0  0
    1.8138   -3.0686   -0.0327 C   0  0  0  0  0  0  0  0  0  0  0  0
   -0.2339   -1.8695   -0.4685 O   0  0  0  0  0  0  0  0  0  0  0  0
    0.6932   -3.7176    0.2235 O   0  0  0  0  0  0  0  0  0  0  0  0
    2.9473   -3.3433    0.2399 O   0  0  0  0  0  0  0  0  0  0  0  0
    0.3617   -0.2474    0.6253 C   0  0  0  0  0  0  0  0  0  0  0  0
    0.0183   -0.2282   -1.3244 C   0  0  0  0  0  0  0  0  0  0  0  0
    0.3537   -1.6594   -2.6833 C   0  0  0  0  0  0  0  0  0  0  0  0
   -1.4281   -0.0564   -1.4743 O   0  0  0  0  0  0  0  0  0  0  0  0
   -0.5928   -2.3992   -2.8533 O   0  0  0  0  0  0  0  0  0  0  0  0
    1.5411   -1.6421   -3.2467 O   0  0  0  0  0  0  0  0  0  0  0  0
   -1.7766    1.0265    0.2570 Ca  0  0  0  0  0 15  0  0  0  0  0  0
  2  1  1  0
  3  2  1  0
  4  2  1  0
  5  3  2  0
  6  3  1  0
  8  7  1  0
  9  8  1  0
 10  8  1  0
 11  9  2  0
 12  9  1  0
M  CHG  3   6  -1  12  -1  13   2
M  END
>  <DRUGBANK_ID>  (1) 
DB13231

>  <COMMON_NAME>  (1) 
Calcium lactate

>  <CAS_NUMBER>  (1) 
814-80-2

>  <UNII>  (1) 
2URQ2N32W3

>  <SYNONYMS>  (1) 
2-Hydroxypropanoic acid calcium salt; Calcio lactato; Calcium 2-hydroxypropanoate (1:2); Calcium dilactate; Calcium lactate; Hemicalcium L-lactate

$$$$
