KMP
     RDKit          3D

 21 23  0  0  0  0  0  0  0  0999 V2000
   -2.2917   -0.9860   -0.0187 C   0  0  0  0  0  0  0  0  0  0  0  0
   -0.9358   -1.3206    0.0037 C   0  0  0  0  0  0  0  0  0  0  0  0
    0.0507   -0.3185    0.0292 C   0  0  0  0  0  0  0  0  0  0  0  0
   -0.3294    1.0256    0.0417 C   0  0  0  0  0  0  0  0  0  0  0  0
   -1.6870    1.3631    0.0305 C   0  0  0  0  0  0  0  0  0  0  0  0
   -2.6535    0.3582   -0.0075 C   0  0  0  0  0  0  0  0  0  0  0  0
    1.4933   -0.6336    0.0288 C   0  0  0  0  0  0  0  0  0  0  0  0
    2.4339    0.5183   -0.0233 C   0  0  0  0  0  0  0  0  0  0  0  0
    1.9282    1.7689   -0.0255 C   0  0  0  0  0  0  0  0  0  0  0  0
    2.8144    2.9510   -0.1298 C   0  0  0  0  0  0  0  0  0  0  0  0
    2.8901    3.9104    0.8909 C   0  0  0  0  0  0  0  0  0  0  0  0
    3.8154    4.9650    0.8141 C   0  0  0  0  0  0  0  0  0  0  0  0
    4.6649    5.0576   -0.2850 C   0  0  0  0  0  0  0  0  0  0  0  0
    4.5910    4.1286   -1.3129 C   0  0  0  0  0  0  0  0  0  0  0  0
    3.6638    3.0879   -1.2418 C   0  0  0  0  0  0  0  0  0  0  0  0
    0.5742    2.0667    0.0541 O   0  0  0  0  0  0  0  0  0  0  0  0
    1.9277   -1.7817    0.0560 O   0  0  0  0  0  0  0  0  0  0  0  0
    5.5991    6.0430   -0.4062 O   0  0  0  0  0  0  0  0  0  0  0  0
    3.7844    0.2103   -0.0757 O   0  0  0  0  0  0  0  0  0  0  0  0
   -3.9622    0.7441   -0.0400 O   0  0  0  0  0  0  0  0  0  0  0  0
   -0.5769   -2.6390   -0.0090 O   0  0  0  0  0  0  0  0  0  0  0  0
  1  2  2  0
  1  6  1  0
  2  3  1  0
  2 21  1  0
  3  4  2  0
  3  7  1  0
  4  5  1  0
  4 16  1  0
  5  6  2  0
  6 20  1  0
  7  8  1  0
  7 17  2  0
  8  9  2  0
  8 19  1  0
  9 10  1  0
  9 16  1  0
 10 11  2  0
 10 15  1  0
 11 12  1  0
 12 13  2  0
 13 14  1  0
 13 18  1  0
 14 15  2  0
M  END
>  <DRUGBANK_ID>  (1) 
DB01852

>  <SECONDARY_ACCESSION_NUMBERS>  (1) 
EXPT01976

>  <COMMON_NAME>  (1) 
Kaempherol

>  <CAS_NUMBER>  (1) 
520-18-3

>  <UNII>  (1) 
731P2LE49E

$$$$
