
     RDKit          3D

 25 28  0  0  0  0  0  0  0  0999 V2000
    5.9558    4.1032    3.5670 C   0  0  0  0  0  0  0  0  0  0  0  0
    5.3938    5.5775    3.6320 C   0  0  1  0  0  0  0  0  0  0  0  0
    3.7760    5.7034    3.4980 C   0  0  2  0  0  0  0  0  0  0  0  0
    5.5180    6.2375    5.0313 C   0  0  2  0  0  0  0  0  0  0  0  0
    5.9893    6.3415    2.4220 C   0  0  0  0  0  0  0  0  0  0  0  0
    3.4389    4.9682    2.1535 C   0  0  2  0  0  0  0  0  0  0  0  0
    3.4463    7.2493    3.9353 C   0  0  0  0  0  0  0  0  0  0  0  0
    6.5521    6.7002    6.0594 C   0  0  0  0  0  0  0  0  0  0  0  0
    5.1107    5.0058    5.9124 C   0  0  0  0  0  0  0  0  0  0  0  0
    4.7755    7.5666    4.6541 C   0  0  0  0  0  0  0  0  0  0  0  0
    5.7340    5.5518    1.1513 C   0  0  0  0  0  0  0  0  0  0  0  0
    4.2132    5.5242    0.9452 C   0  0  1  0  0  0  0  0  0  0  0  0
    2.0070    4.6605    1.8259 C   0  0  0  0  0  0  0  0  0  0  0  0
    7.9340    6.1558    6.0748 C   0  0  0  0  0  0  0  0  0  0  0  0
    6.1571    7.2978    7.0779 O   0  0  0  0  0  0  0  0  0  0  0  0
    3.8084    4.7884   -0.3524 C   0  0  1  0  0  0  0  0  0  0  0  0
    1.4355    4.7993    0.6029 C   0  0  0  0  0  0  0  0  0  0  0  0
    4.0732    3.2276   -0.2439 C   0  0  0  0  0  0  0  0  0  0  0  0
    2.2070    5.2933   -0.5065 C   0  0  0  0  0  0  0  0  0  0  0  0
    4.7043    5.2453   -1.5485 C   0  0  0  0  0  0  0  0  0  0  0  0
    0.0389    4.2349    0.4558 C   0  0  0  0  0  0  0  0  0  0  0  0
    1.8791    6.1344   -1.5788 C   0  0  0  0  0  0  0  0  0  0  0  0
    4.3393    6.7016   -1.7103 C   0  0  0  0  0  0  0  0  0  0  0  0
    3.0139    6.3744   -2.3574 C   0  0  0  0  0  0  0  0  0  0  0  0
    2.9613    6.0743   -3.5622 O   0  0  0  0  0  0  0  0  0  0  0  0
  2  4  1  0
  2  5  1  0
  2  1  1  1
  3  2  1  0
  3  7  1  6
  4 10  1  0
  4  8  1  0
  4  9  1  1
  5 11  1  0
  6  3  1  0
  6 13  1  6
  7 10  1  0
  8 14  1  0
  8 15  2  0
 12  6  1  0
 12 11  1  1
 12 16  1  0
 13 17  2  0
 16 19  1  0
 16 20  1  0
 16 18  1  1
 17 19  1  0
 17 21  1  0
 19 22  2  0
 20 23  1  0
 22 24  1  0
 23 24  1  0
 24 25  2  0
M  END
>  <DRUGBANK_ID>  (1) 
DB09124

>  <COMMON_NAME>  (1) 
Medrogestone

>  <CAS_NUMBER>  (1) 
977-79-7

>  <UNII>  (1) 
077DN93G5B

>  <SYNONYMS>  (1) 
Medrogestone

$$$$
