987
     RDKit          3D

 17 18  0  0  1  0  0  0  0  0999 V2000
    1.8621   -0.0502   -0.0296 O   0  0  0  0  0  0  0  0  0  0  0  0
   -1.5717   -1.3895    0.1147 O   0  0  0  0  0  0  0  0  0  0  0  0
   -1.3442    1.6092   -0.1743 O   0  0  0  0  0  0  0  0  0  0  0  0
    2.9051    2.4850    0.8615 O   0  0  0  0  0  0  0  0  0  0  0  0
   -0.2125   -3.5944    0.7658 O   0  0  0  0  0  0  0  0  0  0  0  0
    1.1531   -1.8624    1.3776 N   0  0  0  0  0  0  0  0  0  0  0  0
    0.4627   -3.5464    2.9249 N   0  0  0  0  0  0  0  0  0  0  0  0
    0.9907   -3.3763    5.1462 N   0  0  0  0  0  0  0  0  0  0  0  0
   -0.4166   -0.6739   -0.2835 C   0  0  1  0  0  0  0  0  0  0  0  0
   -0.3828    0.7028    0.3537 C   0  0  1  0  0  0  0  0  0  0  0  0
    0.9982   -1.2254    0.0543 C   0  0  1  0  0  0  0  0  0  0  0  0
    1.0411    1.1453    0.0606 C   0  0  1  0  0  0  0  0  0  0  0  0
    1.5685    2.0837    1.1499 C   0  0  0  0  0  0  0  0  0  0  0  0
    1.8682   -1.2441    2.3798 C   0  0  0  0  0  0  0  0  0  0  0  0
    0.4523   -3.0428    1.6466 C   0  0  0  0  0  0  0  0  0  0  0  0
    1.6958   -1.5828    3.6526 C   0  0  0  0  0  0  0  0  0  0  0  0
    1.0134   -2.8656    3.8817 C   0  0  0  0  0  0  0  0  0  0  0  0
  1 11  1  0
  1 12  1  0
  4 13  1  0
  5 15  2  0
  6 14  1  0
  6 15  1  0
  7 15  1  0
  7 17  2  0
  8 17  1  0
  9  2  1  1
  9 10  1  0
  9 11  1  0
 10  3  1  6
 10 12  1  0
 11  6  1  1
 12 13  1  1
 14 16  2  0
 16 17  1  0
M  END
>  <DRUGBANK_ID>  (1) 
DB00987

>  <SECONDARY_ACCESSION_NUMBERS>  (1) 
APRD00499

>  <COMMON_NAME>  (1) 
Cytarabine

>  <CAS_NUMBER>  (1) 
147-94-4

>  <UNII>  (1) 
04079A1RDZ

>  <SYNONYMS>  (1) 
1-beta-D-Arabinofuranosylcytosine; 4-Amino-1-beta-D-arabinofuranosyl-2(1H)-pyrimidinone; Citarabina; Cytarabine; Cytarabine liposome; Cytarabinum; Cytosine arabinoside; Cytosine-1-beta-D-arabinofuranoside; cytosine-Î²-D-arabinofuranoside

$$$$
