
     RDKit          3D

 35 37  0  0  1  0  0  0  0  0999 V2000
    3.2918   -1.0575    0.6182 C   0  0  0  0  0  0  0  0  0  0  0  0
   -3.2112   -1.3795   -0.4517 C   0  0  0  0  0  0  0  0  0  0  0  0
    3.8522    0.0856    0.2016 C   0  0  0  0  0  0  0  0  0  0  0  0
   -3.8001   -0.1573   -0.3506 C   0  0  0  0  0  0  0  0  0  0  0  0
    1.8914   -1.0543    0.6534 C   0  0  0  0  0  0  0  0  0  0  0  0
   -1.8097   -1.3836   -0.6662 C   0  0  0  0  0  0  0  0  0  0  0  0
    2.9913    1.1694    0.0075 C   0  0  0  0  0  0  0  0  0  0  0  0
   -2.9832    0.9986   -0.5040 C   0  0  0  0  0  0  0  0  0  0  0  0
   -1.1971   -1.8044    7.2307 C   0  0  0  0  0  0  0  0  0  0  0  0
   -0.7627   -2.3505    5.8784 C   0  0  0  0  0  0  0  0  0  0  0  0
    0.3559   -2.7881   -0.1863 C   0  0  0  0  0  0  0  0  0  0  0  0
   -0.4147    1.5048    2.9311 C   0  0  0  0  0  0  0  0  0  0  0  0
    0.9169   -0.1308   -0.0502 C   0  0  0  0  0  0  0  0  0  0  0  0
   -0.7635   -0.2071   -0.6656 C   0  0  0  0  0  0  0  0  0  0  0  0
    1.5500    1.0800   -0.1058 C   0  0  0  0  0  0  0  0  0  0  0  0
   -1.4942    1.0063   -0.6146 C   0  0  0  0  0  0  0  0  0  0  0  0
   -2.7284   -1.7494    7.4205 C   0  0  1  0  0  0  0  0  0  0  0  0
   -0.8589    0.0124    3.1369 C   0  0  1  0  0  0  0  0  0  0  0  0
   -1.3299   -1.4602    4.8455 C   0  0  0  0  0  0  0  0  0  0  0  0
    1.7419   -2.7695   -1.1670 C   0  0  0  0  0  0  0  0  0  0  0  0
    0.7405    2.3287   -0.1639 C   0  0  2  0  0  0  0  0  0  0  0  0
   -0.7935    2.2441   -0.0641 C   0  0  2  0  0  0  0  0  0  0  0  0
   -0.8899   -0.8786    1.9017 C   0  0  0  0  0  0  0  0  0  0  0  0
   -3.3730   -3.1414    7.1980 C   0  0  0  0  0  0  0  0  0  0  0  0
   -3.0201   -1.2028    8.7601 N   0  0  0  0  0  0  0  0  0  0  0  0
   -0.1860   -2.0837    1.4408 N   0  0  0  0  0  0  0  0  0  0  0  0
   -0.3589   -0.6951    4.2358 N   0  0  0  0  0  0  0  0  0  0  0  0
   -2.5330   -1.3802    4.6272 O   0  0  0  0  0  0  0  0  0  0  0  0
    2.4802   -3.8791   -0.9784 O   0  0  0  0  0  0  0  0  0  0  0  0
    2.1271   -1.8869   -1.9273 O   0  0  0  0  0  0  0  0  0  0  0  0
    1.1106    3.0305   -1.3425 O   0  0  0  0  0  0  0  0  0  0  0  0
   -1.7491   -0.2872    1.3644 O   0  0  0  0  0  0  0  0  0  0  0  0
   -4.0356   -3.6320    8.2714 O   0  0  0  0  0  0  0  0  0  0  0  0
   -3.2826   -3.8036    6.1745 O   0  0  0  0  0  0  0  0  0  0  0  0
   -1.3360    2.7010    1.7401 S   0  0  0  0  0  0  0  0  0  0  0  0
  3  1  2  0
  4  2  2  0
  5  1  1  0
  6  2  1  0
  7  3  1  0
  8  4  1  0
 10  9  1  0
 13  5  2  0
 14  6  2  0
 14 13  1  0
 15  7  2  0
 15 13  1  0
 16  8  2  0
 16 14  1  0
 17  9  1  0
 17 25  1  1
 18 12  1  6
 18 27  1  0
 19 10  1  0
 20 11  1  0
 21 15  1  0
 21 31  1  6
 22 16  1  0
 22 21  1  0
 22 35  1  1
 23 18  1  0
 24 17  1  0
 26 11  1  0
 26 23  1  0
 27 19  1  0
 28 19  2  0
 29 20  1  0
 30 20  2  0
 32 23  2  0
 33 24  1  0
 34 24  2  0
 35 12  1  0
M  END
>  <DRUGBANK_ID>  (1) 
DB01834

>  <SECONDARY_ACCESSION_NUMBERS>  (1) 
EXPT01641

>  <COMMON_NAME>  (1) 
(9R,10R)-9-(S-glutathionyl)-10-hydroxy-9,10-dihydrophenanthrene

$$$$
