
     RDKit          3D

 22 24  0  0  0  0  0  0  0  0999 V2000
    1.3830   -0.1548    0.0674 C   0  0  0  0  0  0  0  0  0  0  0  0
    0.5148   -1.2604    0.0439 C   0  0  0  0  0  0  0  0  0  0  0  0
   -0.8614   -1.0602    0.0119 C   0  0  0  0  0  0  0  0  0  0  0  0
   -1.3640    0.2403    0.0327 C   0  0  0  0  0  0  0  0  0  0  0  0
   -0.4972    1.3451    0.0961 C   0  0  0  0  0  0  0  0  0  0  0  0
    0.8897    1.1706    0.0766 C   0  0  0  0  0  0  0  0  0  0  0  0
    1.9790    2.5550   -0.3961 S   0  0  0  0  0  0  0  0  0  0  0  0
    1.8451    3.8194    0.9172 C   0  0  0  0  0  0  0  0  0  0  0  0
    2.3518    3.6652    2.2038 C   0  0  0  0  0  0  0  0  0  0  0  0
    2.7376    4.8257    2.9656 C   0  0  0  0  0  0  0  0  0  0  0  0
    2.7369    6.1149    2.2985 C   0  0  0  0  0  0  0  0  0  0  0  0
    1.5984    6.1897    1.4882 C   0  0  0  0  0  0  0  0  0  0  0  0
    0.7497    7.1219    2.1555 N   0  0  0  0  0  0  0  0  0  0  0  0
    1.5106    7.6913    3.1155 C   0  0  0  0  0  0  0  0  0  0  0  0
    1.6759    7.4909    4.5031 N   0  0  0  0  0  0  0  0  0  0  0  0
    2.4123    8.4239    5.2343 C   0  0  0  0  0  0  0  0  0  0  0  0
    2.9508    7.9872    6.4163 O   0  0  0  0  0  0  0  0  0  0  0  0
    2.8852    6.6011    6.7795 C   0  0  0  0  0  0  0  0  0  0  0  0
    1.3844    5.1171    0.5822 C   0  0  0  0  0  0  0  0  0  0  0  0
    3.3746    2.0097   -0.3059 O   0  0  0  0  0  0  0  0  0  0  0  0
    2.6467    9.5881    4.8596 O   0  0  0  0  0  0  0  0  0  0  0  0
    2.7284    7.5152    2.5322 N   0  0  0  0  0  0  0  0  0  0  0  0
  1  2  2  0
  1  6  1  0
  2  3  1  0
  3  4  2  0
  4  5  1  0
  5  6  2  0
  6  7  1  0
  7  8  1  0
  7 20  2  0
  8  9  2  0
  8 19  1  0
  9 10  1  0
 10 11  2  0
 11 12  1  0
 11 22  1  0
 12 13  1  0
 12 19  2  0
 13 14  2  0
 14 15  1  0
 14 22  1  0
 15 16  1  0
 16 17  1  0
 16 21  2  0
 17 18  1  0
M  END
>  <DRUGBANK_ID>  (1) 
DB11446

>  <COMMON_NAME>  (1) 
Oxfendazole

>  <CAS_NUMBER>  (1) 
53716-50-0

>  <UNII>  (1) 
OMP2H17F9E

>  <SYNONYMS>  (1) 
(5-(phenylsulfinyl)-1H-benzimidazol-2-yl)carbamic acid methyl ester; 5-(phenylsulfinyl)-2-benzimidazolecarbamic acid methyl ester; 5-phenylsulfinyl-2-carbomethoxyaminobenzimidazole; Fenbendazole S-oxide; Fenbendazole sulfoxide; Fenbendazole sulphoxide; OFDZ; Oxfendazole

$$$$
