1030
     RDKit          3D

 31 35  0  0  1  0  0  0  0  0999 V2000
    2.1405   -1.4288   -0.5795 O   0  0  0  0  0  0  0  0  0  0  0  0
    2.8883    0.5166    2.3575 O   0  0  0  0  0  0  0  0  0  0  0  0
    3.8237   -5.0858    0.8130 O   0  0  0  0  0  0  0  0  0  0  0  0
    2.6827    0.7826   -0.7070 O   0  0  0  0  0  0  0  0  0  0  0  0
   -3.3268   -6.5744    8.0917 O   0  0  0  0  0  0  0  0  0  0  0  0
    2.3508   -4.4557    2.4614 N   0  0  0  0  0  0  0  0  0  0  0  0
   -0.1526   -3.4486    4.8272 N   0  0  0  0  0  0  0  0  0  0  0  0
   -1.0217   -8.4789    7.7522 N   0  0  0  0  0  0  0  0  0  0  0  0
    3.3220   -0.4181    1.3677 C   0  0  2  0  0  0  0  0  0  0  0  0
    2.9750   -1.8250    1.8724 C   0  0  0  0  0  0  0  0  0  0  0  0
    1.6965   -3.4354    3.1386 C   0  0  0  0  0  0  0  0  0  0  0  0
    1.9524   -5.7751    2.9157 C   0  0  0  0  0  0  0  0  0  0  0  0
    3.2230   -2.8253    1.0067 C   0  0  0  0  0  0  0  0  0  0  0  0
    0.9009   -5.4253    3.9066 C   0  0  0  0  0  0  0  0  0  0  0  0
    0.7255   -4.0577    4.0244 C   0  0  0  0  0  0  0  0  0  0  0  0
    1.9893   -2.1435    2.9102 C   0  0  0  0  0  0  0  0  0  0  0  0
    3.1928   -4.2502    1.3976 C   0  0  0  0  0  0  0  0  0  0  0  0
    4.8981   -0.1872    1.1676 C   0  0  0  0  0  0  0  0  0  0  0  0
    3.1271   -2.4547   -0.4157 C   0  0  0  0  0  0  0  0  0  0  0  0
    2.6395   -0.2513   -0.0481 C   0  0  0  0  0  0  0  0  0  0  0  0
    0.1482   -6.2573    4.6805 C   0  0  0  0  0  0  0  0  0  0  0  0
   -0.7975   -5.6943    5.5514 C   0  0  0  0  0  0  0  0  0  0  0  0
   -0.9069   -4.2678    5.5868 C   0  0  0  0  0  0  0  0  0  0  0  0
   -1.6098   -6.4978    6.3869 C   0  0  0  0  0  0  0  0  0  0  0  0
    5.6651   -0.9413    0.0588 C   0  0  0  0  0  0  0  0  0  0  0  0
   -1.4554   -8.0042    6.4251 C   0  0  0  0  0  0  0  0  0  0  0  0
   -1.8204   -3.7005    6.4613 C   0  0  0  0  0  0  0  0  0  0  0  0
   -2.5210   -5.8659    7.2440 C   0  0  0  0  0  0  0  0  0  0  0  0
   -2.6252   -4.4839    7.2897 C   0  0  0  0  0  0  0  0  0  0  0  0
   -0.8910   -9.9381    7.7168 C   0  0  0  0  0  0  0  0  0  0  0  0
    0.2798   -7.8915    8.1199 C   0  0  0  0  0  0  0  0  0  0  0  0
  1 19  1  0
  1 20  1  0
  3 17  2  0
  4 20  2  0
  5 28  1  0
  6 11  1  0
  6 12  1  0
  6 17  1  0
  7 15  2  0
  7 23  1  0
  8 26  1  0
  8 30  1  0
  8 31  1  0
  9  2  1  1
  9 10  1  0
  9 18  1  0
  9 20  1  0
 10 13  2  0
 10 16  1  0
 11 15  1  0
 11 16  2  0
 12 14  1  0
 13 17  1  0
 13 19  1  0
 14 15  1  0
 14 21  2  0
 18 25  1  0
 21 22  1  0
 22 23  2  0
 22 24  1  0
 23 27  1  0
 24 26  1  0
 24 28  2  0
 27 29  2  0
 28 29  1  0
M  END
>  <DRUGBANK_ID>  (1) 
DB01030

>  <SECONDARY_ACCESSION_NUMBERS>  (1) 
APRD00687

>  <COMMON_NAME>  (1) 
Topotecan

>  <CAS_NUMBER>  (1) 
123948-87-8

>  <UNII>  (1) 
7M7YKX2N15

>  <SYNONYMS>  (1) 
9-[(dimethylamino)methyl]-10-hydroxy-(4S)-camptothecin; Topotecan; Topotecane; Topotecanum

$$$$
