
     RDKit          3D

 27 29  0  0  0  0  0  0  0  0999 V2000
    3.6365    2.3372    0.0230 N   0  0  0  0  0  0  0  0  0  0  0  0
    2.2124    2.5007    0.1750 C   0  0  1  0  0  0  0  0  0  0  0  0
    4.4872    1.5782    0.7573 C   0  0  0  0  0  0  0  0  0  0  0  0
    4.3472    2.6360   -1.1054 C   0  0  0  0  0  0  0  0  0  0  0  0
    1.6445    3.0136    1.4974 C   0  0  1  0  0  0  0  0  0  0  0  0
    1.8289    3.4882   -0.7627 O   0  0  0  0  0  0  0  0  0  0  0  0
    5.7216    1.7595    0.1465 C   0  0  0  0  0  0  0  0  0  0  0  0
    4.2110    0.7976    1.8050 N   0  0  0  0  0  0  0  0  0  0  0  0
    5.6392    2.5352   -0.9653 N   0  0  0  0  0  0  0  0  0  0  0  0
    1.4430    4.5586    1.2345 C   0  0  1  0  0  0  0  0  0  0  0  0
    0.5130    2.2036    1.8225 O   0  0  0  0  0  0  0  0  0  0  0  0
    1.3311    4.7037   -0.2508 C   0  0  1  0  0  0  0  0  0  0  0  0
    6.8176    1.1000    0.6903 C   0  0  0  0  0  0  0  0  0  0  0  0
    5.3362    0.1722    2.2166 C   0  0  0  0  0  0  0  0  0  0  0  0
    0.3587    5.3044    1.7422 O   0  0  0  0  0  0  0  0  0  0  0  0
    1.8580    5.9885   -0.9521 C   0  0  0  0  0  0  0  0  0  0  0  0
    6.6040    0.2824    1.7411 N   0  0  0  0  0  0  0  0  0  0  0  0
    8.0737    1.2669    0.1516 N   0  0  0  0  0  0  0  0  0  0  0  0
   -1.1636    4.7679    1.7445 P   0  0  0  0  0  0  0  0  0  0  0  0
    1.5842    5.9609   -2.4185 O   0  0  0  0  0  0  0  0  0  0  0  0
   -1.1201    3.4805    0.7828 O   0  0  0  0  0  0  0  0  0  0  0  0
   -1.1474    4.2354    3.2517 O   0  0  0  0  0  0  0  0  0  0  0  0
   -2.2062    5.7087    1.3647 O   0  0  0  0  0  0  0  0  0  0  0  0
    2.2386    4.5573   -3.1896 P   0  0  0  0  0  0  0  0  0  0  0  0
    3.5310    4.8267   -2.2773 O   0  0  0  0  0  0  0  0  0  0  0  0
    0.9313    3.7544   -2.6997 O   0  0  0  0  0  0  0  0  0  0  0  0
    2.8244    3.3010   -3.8797 O   0  0  0  0  0  0  0  0  0  0  0  0
  1  3  1  0
  1  4  1  0
  2  5  1  0
  2  6  1  0
  2  1  1  1
  3  7  2  0
  3  8  1  0
  4  9  2  0
  5 10  1  0
  5 11  1  6
  6 12  1  0
  7 13  1  0
  7  9  1  0
  8 14  2  0
 10 15  1  1
 10 12  1  0
 12 16  1  6
 13 17  2  0
 13 18  1  0
 14 17  1  0
 15 19  1  0
 16 20  1  0
 19 21  1  0
 19 22  1  0
 19 23  2  0
 20 24  1  0
 24 25  1  0
 24 26  1  0
 24 27  2  0
M  END
>  <DRUGBANK_ID>  (1) 
DB01812

>  <SECONDARY_ACCESSION_NUMBERS>  (1) 
EXPT00370

>  <COMMON_NAME>  (1) 
Adenosine 3',5'-diphosphate

>  <CAS_NUMBER>  (1) 
1053-73-2

>  <UNII>  (1) 
C65F80D52U

>  <SYNONYMS>  (1) 
3'-Phosphoadenosine 5'-phosphate; 3',5'-ADP; Adenosine 3'-phosphate-5'-phosphate; Adenosine 3',5'-bismonophosphate; Phosphoadenosine phosphate

$$$$
