205
     RDKit          3D

 17 18  0  0  0  0  0  0  0  0999 V2000
   -2.1074   -0.0043   -0.0292 Cl  0  0  0  0  0  0  0  0  0  0  0  0
    6.0059   -0.5537   -0.9254 N   0  0  0  0  0  0  0  0  0  0  0  0
    5.9798    0.6521    1.1089 N   0  0  0  0  0  0  0  0  0  0  0  0
    4.0172    1.3613    2.1098 N   0  0  0  0  0  0  0  0  0  0  0  0
    7.9768    0.0988    0.0771 N   0  0  0  0  0  0  0  0  0  0  0  0
    3.8909    0.0222    0.0787 C   0  0  0  0  0  0  0  0  0  0  0  0
    4.6533   -0.5650   -0.9323 C   0  0  0  0  0  0  0  0  0  0  0  0
    4.0207   -1.2411   -2.1290 C   0  0  0  0  0  0  0  0  0  0  0  0
    2.4189    0.0139    0.0731 C   0  0  0  0  0  0  0  0  0  0  0  0
    4.6382    0.6224    1.0987 C   0  0  0  0  0  0  0  0  0  0  0  0
    1.6956    1.2163    0.0149 C   0  0  0  0  0  0  0  0  0  0  0  0
    1.6993   -1.1963    0.0924 C   0  0  0  0  0  0  0  0  0  0  0  0
    4.3965   -0.5590   -3.4310 C   0  0  0  0  0  0  0  0  0  0  0  0
    6.6161    0.0657    0.0894 C   0  0  0  0  0  0  0  0  0  0  0  0
    0.3000    1.2118   -0.0088 C   0  0  0  0  0  0  0  0  0  0  0  0
    0.3051   -1.2043    0.0303 C   0  0  0  0  0  0  0  0  0  0  0  0
   -0.3886    0.0015   -0.0027 C   0  0  0  0  0  0  0  0  0  0  0  0
  1 17  1  0
  2  7  2  0
  2 14  1  0
  3 10  1  0
  3 14  2  0
  4 10  1  0
  5 14  1  0
  6  7  1  0
  6  9  1  0
  6 10  2  0
  7  8  1  0
  8 13  1  0
  9 11  2  0
  9 12  1  0
 11 15  1  0
 12 16  2  0
 15 17  2  0
 16 17  1  0
M  END
>  <DRUGBANK_ID>  (1) 
DB00205

>  <SECONDARY_ACCESSION_NUMBERS>  (1) 
APRD00599

>  <COMMON_NAME>  (1) 
Pyrimethamine

>  <CAS_NUMBER>  (1) 
58-14-0

>  <UNII>  (1) 
Z3614QOX8W

>  <SYNONYMS>  (1) 
2,4-Diamino-5-(4-chlorophenyl)-6-ethylpyrimidine; 2,4-Diamino-5-(P-chlorophenyl)-6-ethylpyrimidine; 2,4-Diamino-5-chlorophenyl-6-ethylpyrimidine; 5-(4-Chlorophenyl)-6-ethyl-2,4-diaminopyrimidine; 5-(4-Chlorophenyl)-6-ethyl-2,4-pyrimidinediamine; 5-(4'-Chlorophenyl)-2,4-diamino-6-ethylpyrimidine; CD; Chloridine; Chloridyn; Diaminopyritamin; Ethylpyrimidine; Pirimetamina; Primethamine; Pyrimethamine; Pyrim√©thamine; Pyrimethaminum

$$$$
