
     RDKit          3D

  1  0  0  0  0  0  0  0  0  0999 V2000
    0.9333   -0.0549   -0.0504 F   0  0  0  0  0 15  0  0  0  0  0  0
M  ISO  1   1  18
M  END
>  <DRUGBANK_ID>  (1) 
DB13134

>  <COMMON_NAME>  (1) 
Fluorine F-18

>  <CAS_NUMBER>  (1) 
13981-56-1

>  <UNII>  (1) 
GZ5I74KB8G

>  <SYNONYMS>  (1) 
Fluorine-18

$$$$
