BAN
     RDKit          3D

 33 34  0  0  0  0  0  0  0  0999 V2000
   -0.1184   -0.1754    0.9282 O   0  0  0  0  0  0  0  0  0  0  0  0
   -0.0139   -0.9941    2.0417 N   0  0  0  0  0  0  0  0  0  0  0  0
    1.1527   -0.9202    2.7506 C   0  0  0  0  0  0  0  0  0  0  0  0
    1.1310   -1.1069    3.9578 O   0  0  0  0  0  0  0  0  0  0  0  0
    2.4349   -0.6868    1.9563 C   0  0  1  0  0  0  0  0  0  0  0  0
    2.6629   -1.9243    0.9619 C   0  0  0  0  0  0  0  0  0  0  0  0
    1.9499   -2.1030   -0.3513 C   0  0  0  0  0  0  0  0  0  0  0  0
    1.4203   -3.1151   -1.0968 C   0  0  0  0  0  0  0  0  0  0  0  0
    2.0739   -1.0827   -1.1772 C   0  0  0  0  0  0  0  0  0  0  0  0
    0.7372   -2.8662   -2.3628 C   0  0  0  0  0  0  0  0  0  0  0  0
    1.0076   -0.7006   -2.0358 C   0  0  0  0  0  0  0  0  0  0  0  0
    0.4729   -1.6096   -2.8257 C   0  0  0  0  0  0  0  0  0  0  0  0
    2.8269    0.8513    1.7288 C   0  0  0  0  0  0  0  0  0  0  0  0
    3.4483    1.4439    2.6292 O   0  0  0  0  0  0  0  0  0  0  0  0
    2.5430    1.6752    0.6565 N   0  0  0  0  0  0  0  0  0  0  0  0
    1.7876    1.4564   -0.5740 C   0  0  1  0  0  0  0  0  0  0  0  0
    0.3183    2.0229   -0.5537 C   0  0  0  0  0  0  0  0  0  0  0  0
    2.5543    1.2741   -2.2042 C   0  0  0  0  0  0  0  0  0  0  0  0
    3.1745    0.3421   -2.7853 O   0  0  0  0  0  0  0  0  0  0  0  0
    2.4343    2.2704   -3.0537 N   0  0  0  0  0  0  0  0  0  0  0  0
    2.4843    3.4647   -2.3516 C   0  0  0  0  0  0  0  0  0  0  0  0
    3.9153    3.9113   -2.1819 C   0  0  0  0  0  0  0  0  0  0  0  0
    4.1981    4.9720   -2.7593 O   0  0  0  0  0  0  0  0  0  0  0  0
    5.1814    2.1053   -0.6564 C   0  0  0  0  0  0  0  0  0  0  0  0
    5.2101    0.8630   -1.2766 C   0  0  0  0  0  0  0  0  0  0  0  0
    5.3901   -0.3909   -0.5846 C   0  0  0  0  0  0  0  0  0  0  0  0
    5.7430   -0.4040    0.7673 C   0  0  0  0  0  0  0  0  0  0  0  0
    5.9437    0.8437    1.3570 C   0  0  0  0  0  0  0  0  0  0  0  0
    5.6557    2.0697    0.6630 C   0  0  0  0  0  0  0  0  0  0  0  0
    5.7302   -1.6319    1.6505 N   0  0  0  0  0  0  0  0  0  0  0  0
    5.7431   -1.4490    2.8779 O   0  0  0  0  0  0  0  0  0  0  0  0
    5.5953   -2.7517    1.1302 O   0  0  0  0  0  0  0  0  0  0  0  0
    4.8435    3.3600   -1.2965 N   0  0  0  0  0  0  0  0  0  0  0  0
  1  2  1  0
  2  3  1  0
  3  4  2  0
  3  5  1  0
  5  6  1  6
  5 13  1  0
  6  7  1  0
  7  8  2  0
  7  9  1  0
  8 10  1  0
  9 11  2  0
 10 12  2  0
 11 12  1  0
 13 14  2  0
 13 15  1  0
 15 16  1  0
 16 17  1  6
 16 18  1  0
 18 19  2  0
 18 20  1  0
 20 21  1  0
 21 22  1  0
 22 23  2  0
 22 33  1  0
 24 25  2  0
 24 29  1  0
 24 33  1  0
 25 26  1  0
 26 27  2  0
 27 28  1  0
 27 30  1  0
 28 29  2  0
 30 31  1  0
 30 32  2  0
M  CHG  2  30   1  31  -1
M  END
>  <DRUGBANK_ID>  (1) 
DB07434

>  <COMMON_NAME>  (1) 
HONH-BENZYLMALONYL-L-ALANYLGLYCINE-P-NITROANILIDE

$$$$
