
     RDKit          3D

 16 17  0  0  0  0  0  0  0  0999 V2000
    1.5087   -0.0768    0.0423 C   0  0  0  0  0  0  0  0  0  0  0  0
    0.7180   -1.1898   -0.1331 C   0  0  0  0  0  0  0  0  0  0  0  0
    0.9148    1.1915    0.0433 C   0  0  0  0  0  0  0  0  0  0  0  0
   -3.0555   -4.1432   -1.3642 C   0  0  0  0  0  0  0  0  0  0  0  0
   -2.0646   -4.5377   -0.4640 C   0  0  0  0  0  0  0  0  0  0  0  0
   -0.6229   -0.9959   -0.4028 C   0  0  0  0  0  0  0  0  0  0  0  0
   -0.4855    1.3369    0.0386 C   0  0  0  0  0  0  0  0  0  0  0  0
   -3.7334   -2.9348   -1.1692 C   0  0  0  0  0  0  0  0  0  0  0  0
   -1.8231   -3.7808    0.6885 C   0  0  0  0  0  0  0  0  0  0  0  0
   -1.2651    0.2063   -0.1642 C   0  0  0  0  0  0  0  0  0  0  0  0
   -3.4133   -2.1176   -0.0700 C   0  0  0  0  0  0  0  0  0  0  0  0
   -2.5510   -2.6038    0.9214 C   0  0  0  0  0  0  0  0  0  0  0  0
   -3.7689   -0.6701   -0.1812 C   0  0  0  0  0  0  0  0  0  0  0  0
   -2.2639   -1.8242    2.0072 O   0  0  0  0  0  0  0  0  0  0  0  0
   -4.9139   -0.3411   -0.4424 O   0  0  0  0  0  0  0  0  0  0  0  0
   -2.7004    0.2885   -0.1672 O   0  0  0  0  0  0  0  0  0  0  0  0
  2  1  2  0
  3  1  1  0
  5  4  2  0
  6  2  1  0
  7  3  2  0
  8  4  1  0
  9  5  1  0
 10  6  2  0
 10  7  1  0
 11  8  2  0
 12  9  2  0
 12 11  1  0
 13 11  1  0
 14 12  1  0
 15 13  2  0
 16 10  1  0
 16 13  1  0
M  END
>  <DRUGBANK_ID>  (1) 
DB11071

>  <COMMON_NAME>  (1) 
Phenyl salicylate

>  <CAS_NUMBER>  (1) 
118-55-8

>  <UNII>  (1) 
28A37T47QO

>  <SYNONYMS>  (1) 
Salol

$$$$
