
     RDKit          3D

 14 15  0  0  0  0  0  0  0  0999 V2000
   -1.0982    0.7276    0.2076 C   0  0  0  0  0  0  0  0  0  0  0  0
   -1.1391   -0.7288   -0.1796 C   0  0  0  0  0  0  0  0  0  0  0  0
    0.2770   -1.2077    0.1316 C   0  0  0  0  0  0  0  0  0  0  0  0
    1.1139   -0.0715   -0.1095 O   0  0  0  0  0  0  0  0  0  0  0  0
    0.3189    1.1214   -0.1380 C   0  0  0  0  0  0  0  0  0  0  0  0
    0.4236   -1.7526    1.5009 N   0  0  0  0  0  0  0  0  0  0  0  0
   -0.3815   -2.8343    1.8585 C   0  0  0  0  0  0  0  0  0  0  0  0
   -0.4548   -3.2766    3.1148 C   0  0  0  0  0  0  0  0  0  0  0  0
    0.4346   -2.7057    4.1360 C   0  0  0  0  0  0  0  0  0  0  0  0
    0.3470   -2.9809    5.3288 O   0  0  0  0  0  0  0  0  0  0  0  0
    1.3743   -1.8454    3.6430 N   0  0  0  0  0  0  0  0  0  0  0  0
    1.3226   -1.2095    2.4229 C   0  0  0  0  0  0  0  0  0  0  0  0
    2.0372   -0.2251    2.2701 O   0  0  0  0  0  0  0  0  0  0  0  0
   -1.3262   -4.2258    3.5018 F   0  0  0  0  0  0  0  0  0  0  0  0
  1  2  1  0
  1  5  1  0
  2  3  1  0
  3  4  1  0
  3  6  1  0
  4  5  1  0
  6  7  1  0
  6 12  1  0
  7  8  2  0
  8  9  1  0
  8 14  1  0
  9 10  2  0
  9 11  1  0
 11 12  1  0
 12 13  2  0
M  END
>  <DRUGBANK_ID>  (1) 
DB09256

>  <COMMON_NAME>  (1) 
Tegafur

>  <CAS_NUMBER>  (1) 
17902-23-7

>  <UNII>  (1) 
1548R74NSZ

>  <SYNONYMS>  (1) 
1-(2-Tetrahydrofuryl)-5-fluorouracil; Tegafur

$$$$
