
     RDKit          3D

 23 25  0  0  0  0  0  0  0  0999 V2000
   -2.0624    0.0403    0.0056 Cl  0  0  0  0  0  0  0  0  0  0  0  0
    4.5273    3.5192    0.9961 S   0  0  0  0  0  0  0  0  0  0  0  0
    6.7210    6.5004    5.9510 F   0  0  0  0  0  0  0  0  0  0  0  0
    8.2630    2.4433    1.4608 O   0  0  0  0  0  0  0  0  0  0  0  0
    4.7011    1.8316   -0.8723 N   0  0  0  0  0  0  0  0  0  0  0  0
    2.4680    2.3712   -0.2063 N   0  0  0  0  0  0  0  0  0  0  0  0
    6.8542    0.8861   -0.6152 N   0  0  0  0  0  0  0  0  0  0  0  0
    5.9983    2.6189    0.8430 C   0  0  0  0  0  0  0  0  0  0  0  0
    3.7901    2.4859   -0.1493 C   0  0  0  0  0  0  0  0  0  0  0  0
    5.9056    1.7390   -0.2190 C   0  0  0  0  0  0  0  0  0  0  0  0
    7.1544    2.9131    1.6731 C   0  0  0  0  0  0  0  0  0  0  0  0
    7.0122    3.8651    2.8083 C   0  0  0  0  0  0  0  0  0  0  0  0
    1.7713    1.1976   -0.1321 C   0  0  0  0  0  0  0  0  0  0  0  0
    6.0941    3.6221    3.8428 C   0  0  0  0  0  0  0  0  0  0  0  0
    7.8031    5.0194    2.8181 C   0  0  0  0  0  0  0  0  0  0  0  0
    0.3722    1.2175   -0.0711 C   0  0  0  0  0  0  0  0  0  0  0  0
    2.4232   -0.0396   -0.0443 C   0  0  0  0  0  0  0  0  0  0  0  0
    5.9810    4.5311    4.8938 C   0  0  0  0  0  0  0  0  0  0  0  0
    7.6996    5.9120    3.8862 C   0  0  0  0  0  0  0  0  0  0  0  0
   -0.3432    0.0155   -0.0230 C   0  0  0  0  0  0  0  0  0  0  0  0
    1.7090   -1.2347   -0.0039 C   0  0  0  0  0  0  0  0  0  0  0  0
    6.7984    5.6557    4.9161 C   0  0  0  0  0  0  0  0  0  0  0  0
    0.3205   -1.2085   -0.0145 C   0  0  0  0  0  0  0  0  0  0  0  0
  1 20  1  0
  2  8  1  0
  2  9  1  0
  3 22  1  0
  4 11  2  0
  5  9  2  0
  5 10  1  0
  6  9  1  0
  6 13  1  0
  7 10  1  0
  8 10  2  0
  8 11  1  0
 11 12  1  0
 12 14  2  0
 12 15  1  0
 13 16  2  0
 13 17  1  0
 14 18  1  0
 15 19  2  0
 16 20  1  0
 17 21  2  0
 18 22  2  0
 19 22  1  0
 20 23  2  0
 21 23  1  0
M  CHG  1   5   1
M  END
>  <DRUGBANK_ID>  (1) 
DB07489

>  <COMMON_NAME>  (1) 
4-Amino-2-[(3-chlorophenyl)amino]-5-(4-fluorobenzoyl)-1,3-thiazol-3-ium

$$$$
