
     RDKit          3D

 37 42  0  0  0  0  0  0  0  0999 V2000
   -4.1883  -16.8840   -7.7749 C   0  0  0  0  0  0  0  0  0  0  0  0
   -5.0227  -16.2334   -8.5366 N   0  0  0  0  0  0  0  0  0  0  0  0
   -5.1021  -14.9287   -8.2448 N   0  0  0  0  0  0  0  0  0  0  0  0
   -4.4151  -14.3252   -7.2353 C   0  0  0  0  0  0  0  0  0  0  0  0
   -3.5492  -15.1249   -6.4044 C   0  0  0  0  0  0  0  0  0  0  0  0
   -3.4226  -16.3850   -6.7450 N   0  0  0  0  0  0  0  0  0  0  0  0
   -5.8899  -14.0025   -8.8867 C   0  0  0  0  0  0  0  0  0  0  0  0
   -4.7351  -12.9777   -7.2530 C   0  0  0  0  0  0  0  0  0  0  0  0
   -5.6757  -12.7766   -8.2937 C   0  0  0  0  0  0  0  0  0  0  0  0
   -6.2659  -11.4905   -8.6346 C   0  0  0  0  0  0  0  0  0  0  0  0
   -5.6313  -10.3158   -8.9694 C   0  0  0  0  0  0  0  0  0  0  0  0
   -6.6215   -9.3931   -9.1653 N   0  0  0  0  0  0  0  0  0  0  0  0
   -7.8602   -9.8956   -8.9934 N   0  0  0  0  0  0  0  0  0  0  0  0
   -7.6388  -11.1763   -8.6700 C   0  0  0  0  0  0  0  0  0  0  0  0
   -6.4600   -7.9896   -9.4670 C   0  0  0  0  0  0  0  0  0  0  0  0
   -2.9666  -14.6387   -5.2426 N   0  0  0  0  0  0  0  0  0  0  0  0
   -1.5178  -14.5855   -4.9409 C   0  0  0  0  0  0  0  0  0  0  0  0
   -1.2429  -14.9444   -3.4522 C   0  0  0  0  0  0  0  0  0  0  0  0
   -2.1311  -14.2084   -2.5561 N   0  0  0  0  0  0  0  0  0  0  0  0
   -3.5496  -14.2696   -2.8558 C   0  0  0  0  0  0  0  0  0  0  0  0
   -3.7665  -13.8169   -4.3161 C   0  0  0  0  0  0  0  0  0  0  0  0
   -1.6337  -13.4838   -1.5131 C   0  0  0  0  0  0  0  0  0  0  0  0
   -2.1210  -13.6867   -0.2803 N   0  0  0  0  0  0  0  0  0  0  0  0
   -1.5267  -13.0329    0.7497 C   0  0  0  0  0  0  0  0  0  0  0  0
   -0.4957  -12.1270    0.6032 C   0  0  0  0  0  0  0  0  0  0  0  0
   -0.1220  -11.9497   -0.7221 C   0  0  0  0  0  0  0  0  0  0  0  0
   -0.6481  -12.6164   -1.7709 N   0  0  0  0  0  0  0  0  0  0  0  0
    0.0109  -11.1818    1.7051 C   0  0  2  0  0  0  0  0  0  0  0  0
   -0.5695   -9.7465    1.5121 C   0  0  0  0  0  0  0  0  0  0  0  0
   -1.5638   -9.5624    0.5246 C   0  0  0  0  0  0  0  0  0  0  0  0
   -2.4013   -8.4663    0.4826 C   0  0  0  0  0  0  0  0  0  0  0  0
   -2.2430   -7.4812    1.4258 C   0  0  0  0  0  0  0  0  0  0  0  0
   -1.2080   -7.5486    2.3568 C   0  0  0  0  0  0  0  0  0  0  0  0
   -0.3521   -8.6688    2.3952 C   0  0  0  0  0  0  0  0  0  0  0  0
   -3.1225   -6.4736    1.4526 F   0  0  0  0  0  0  0  0  0  0  0  0
    1.4816  -11.2245    1.7210 N   0  0  0  0  0  0  0  0  0  0  0  0
   -0.4419  -11.6377    3.1173 C   0  0  0  0  0  0  0  0  0  0  0  0
  1  6  1  0
  2  1  2  0
  3  2  1  0
  3  7  1  0
  4  3  1  0
  4  8  2  0
  5  4  1  0
  5 16  1  0
  6  5  2  0
  8  9  1  0
  9  7  2  0
  9 10  1  0
 11 10  2  0
 11 12  1  0
 12 13  1  0
 12 15  1  0
 13 14  2  0
 14 10  1  0
 16 21  1  0
 17 16  1  0
 18 17  1  0
 19 18  1  0
 19 22  1  0
 20 19  1  0
 21 20  1  0
 22 27  1  0
 23 22  2  0
 24 23  1  0
 25 24  2  0
 26 25  1  0
 27 26  2  0
 28 36  1  0
 28 37  1  1
 28 29  1  0
 28 25  1  0
 29 34  1  0
 30 29  2  0
 31 30  1  0
 32 31  2  0
 32 35  1  0
 33 32  1  0
 34 33  2  0
M  END
>  <DRUGBANK_ID>  (1) 
DB15233

>  <COMMON_NAME>  (1) 
Avapritinib

>  <CAS_NUMBER>  (1) 
1703793-34-3

>  <UNII>  (1) 
513P80B4YJ

>  <SYNONYMS>  (1) 
Avapritinib

$$$$
