
     RDKit          3D

 21 23  0  0  0  0  0  0  0  0999 V2000
   -1.2283    1.3775    0.0426 O   0  0  0  0  0  0  0  0  0  0  0  0
   -0.0316    0.6721    0.0106 C   0  0  0  0  0  0  0  0  0  0  0  0
    0.0399   -0.7305   -0.0303 C   0  0  0  0  0  0  0  0  0  0  0  0
   -2.4089    0.6190   -0.3510 C   0  0  2  0  0  0  0  0  0  0  0  0
   -1.1983   -1.5408   -0.0706 C   0  0  0  0  0  0  0  0  0  0  0  0
    1.2849   -1.3781   -0.0667 C   0  0  0  0  0  0  0  0  0  0  0  0
   -3.7479    1.3876   -0.1668 C   0  0  0  0  0  0  0  0  0  0  0  0
   -2.4072   -0.7601    0.3607 C   0  0  2  0  0  0  0  0  0  0  0  0
    1.1643    1.3980    0.0611 C   0  0  0  0  0  0  0  0  0  0  0  0
    2.4649   -0.6570   -0.0328 C   0  0  0  0  0  0  0  0  0  0  0  0
   -3.9801    2.6491   -0.7443 C   0  0  0  0  0  0  0  0  0  0  0  0
   -5.2965    3.1411   -0.8447 C   0  0  0  0  0  0  0  0  0  0  0  0
    2.3959    0.7283    0.0341 C   0  0  0  0  0  0  0  0  0  0  0  0
   -6.3824    2.3878   -0.3934 C   0  0  0  0  0  0  0  0  0  0  0  0
   -4.8714    0.7304    0.3919 C   0  0  0  0  0  0  0  0  0  0  0  0
   -6.1749    1.1883    0.2323 C   0  0  0  0  0  0  0  0  0  0  0  0
    1.4166   -2.7387   -0.1322 O   0  0  0  0  0  0  0  0  0  0  0  0
   -3.4894   -1.6322    0.0084 O   0  0  0  0  0  0  0  0  0  0  0  0
   -5.5864    4.3473   -1.4218 O   0  0  0  0  0  0  0  0  0  0  0  0
   -7.6699    2.8102   -0.5553 O   0  0  0  0  0  0  0  0  0  0  0  0
    3.5433    1.4690    0.0706 O   0  0  0  0  0  0  0  0  0  0  0  0
  2  1  1  0
  3  2  2  0
  3  5  1  0
  4  1  1  0
  4  7  1  1
  5  8  1  0
  6  3  1  0
  8  4  1  0
  8 18  1  6
  9  2  1  0
 10 13  1  0
 10  6  2  0
 11  7  2  0
 12 11  1  0
 12 14  2  0
 13  9  2  0
 14 16  1  0
 15  7  1  0
 16 15  2  0
 17  6  1  0
 19 12  1  0
 20 14  1  0
 21 13  1  0
M  END
>  <DRUGBANK_ID>  (1) 
DB14086

>  <COMMON_NAME>  (1) 
Cianidanol

>  <CAS_NUMBER>  (1) 
154-23-4

>  <UNII>  (1) 
8R1V1STN48

>  <SYNONYMS>  (1) 
(+)-catechin; (+)-Catechol; (+)-Cyanidan-3-ol; (+)-Cyanidanol; (2R,3S)-(+)-Catechin; (2R,3S)-catechin; Catechin; Catechuic acid; Cianidanol; Cianidanolum; D-(+)-Catechin; d-Catechin; D-Catechol

$$$$
