
     RDKit          3D

 21 22  0  0  0  0  0  0  0  0999 V2000
    0.2685    1.2129   -0.0538 C   0  0  0  0  0  0  0  0  0  0  0  0
   -1.1189    1.2444   -0.0822 C   0  0  0  0  0  0  0  0  0  0  0  0
   -1.8257    0.0456   -0.1319 C   0  0  0  0  0  0  0  0  0  0  0  0
   -1.1703   -1.1801   -0.2675 C   0  0  0  0  0  0  0  0  0  0  0  0
    0.2237   -1.2114   -0.1952 C   0  0  0  0  0  0  0  0  0  0  0  0
    0.9283   -0.0119   -0.0881 C   0  0  0  0  0  0  0  0  0  0  0  0
    2.2869    0.0129    0.0177 O   0  0  0  0  0  0  0  0  0  0  0  0
   -3.1750    0.1512   -0.0045 O   0  0  0  0  0  0  0  0  0  0  0  0
   -3.8394   -0.5024    1.0069 C   0  0  0  0  0  0  0  0  0  0  0  0
   -3.3401   -1.0761    2.1978 C   0  0  0  0  0  0  0  0  0  0  0  0
   -4.2153   -1.7095    3.0945 C   0  0  0  0  0  0  0  0  0  0  0  0
   -5.5841   -1.7515    2.8659 C   0  0  0  0  0  0  0  0  0  0  0  0
   -6.0711   -1.2437    1.6661 C   0  0  0  0  0  0  0  0  0  0  0  0
   -5.2305   -0.5608    0.7896 C   0  0  0  0  0  0  0  0  0  0  0  0
   -6.2046    0.4913   -0.7729 I   0  0  0  0  0  0  0  0  0  0  0  0
   -6.5158   -2.2538    3.9368 C   0  0  0  0  0  0  0  0  0  0  0  0
   -7.3591   -1.1561    4.5992 C   0  0  0  0  0  0  0  0  0  0  0  0
   -8.3545   -0.4898    3.6857 C   0  0  0  0  0  0  0  0  0  0  0  0
   -9.5286   -0.8087    3.5506 O   0  0  0  0  0  0  0  0  0  0  0  0
   -7.8160    0.4773    2.9208 O   0  0  0  0  0  0  0  0  0  0  0  0
   -1.3886   -1.0243    3.0476 I   0  0  0  0  0  0  0  0  0  0  0  0
  1  2  2  0
  1  6  1  0
  2  3  1  0
  3  4  2  0
  3  8  1  0
  4  5  1  0
  5  6  2  0
  6  7  1  0
  8  9  1  0
  9 10  2  0
  9 14  1  0
 10 11  1  0
 10 21  1  0
 11 12  2  0
 12 13  1  0
 12 16  1  0
 13 14  2  0
 14 15  1  0
 16 17  1  0
 17 18  1  0
 18 19  2  0
 18 20  1  0
M  END
>  <DRUGBANK_ID>  (1) 
DB12629

>  <COMMON_NAME>  (1) 
3,5-diiodothyropropionic acid

>  <CAS_NUMBER>  (1) 
1158-10-7

>  <UNII>  (1) 
1HTO2X0SJ9

>  <SYNONYMS>  (1) 
DITPA

$$$$
