
     RDKit          3D

 34 38  0  0  0  0  0  0  0  0999 V2000
    0.9743   -0.2098    0.0027 N   0  0  0  0  0  0  0  0  0  0  0  0
    0.3736   -1.4922    0.9156 S   0  0  0  0  0  0  0  0  0  0  0  0
    1.0310   -1.3980    2.1907 O   0  0  0  0  0  0  0  0  0  0  0  0
   -1.0693   -1.4293    0.7855 O   0  0  0  0  0  0  0  0  0  0  0  0
    0.9222   -2.9559    0.1176 C   0  0  0  0  0  0  0  0  0  0  0  0
    0.3871   -4.1456    0.5819 C   0  0  0  0  0  0  0  0  0  0  0  0
    0.6930   -5.3538    0.0570 N   0  0  0  0  0  0  0  0  0  0  0  0
    1.5611   -5.3615   -0.9858 C   0  0  0  0  0  0  0  0  0  0  0  0
    2.1692   -4.2266   -1.5255 C   0  0  0  0  0  0  0  0  0  0  0  0
    1.8374   -2.9905   -0.9395 C   0  0  0  0  0  0  0  0  0  0  0  0
    3.0690   -4.3549   -2.6697 C   0  0  0  0  0  0  0  0  0  0  0  0
    2.5711   -4.9482   -3.7597 N   0  0  0  0  0  0  0  0  0  0  0  0
    3.3779   -5.0835   -4.8255 C   0  0  0  0  0  0  0  0  0  0  0  0
    2.8294   -5.7056   -5.9223 N   0  0  0  0  0  0  0  0  0  0  0  0
    1.4473   -6.1091   -6.0998 C   0  0  0  0  0  0  0  0  0  0  0  0
    0.8154   -5.3353   -7.2510 C   0  0  0  0  0  0  0  0  0  0  0  0
    0.0904   -6.0184   -8.1770 N   0  0  0  0  0  0  0  0  0  0  0  0
   -0.4553   -5.3036   -9.1904 C   0  0  0  0  0  0  0  0  0  0  0  0
   -0.2996   -3.9358   -9.3464 C   0  0  0  0  0  0  0  0  0  0  0  0
    0.4510   -3.2520   -8.4018 C   0  0  0  0  0  0  0  0  0  0  0  0
    0.9963   -3.9538   -7.3334 C   0  0  0  0  0  0  0  0  0  0  0  0
    4.7122   -4.5752   -4.8429 C   0  0  0  0  0  0  0  0  0  0  0  0
    5.6641   -4.5786   -5.9396 C   0  0  0  0  0  0  0  0  0  0  0  0
    6.9730   -4.1120   -5.7335 C   0  0  0  0  0  0  0  0  0  0  0  0
    7.3632   -3.6293   -4.4979 C   0  0  0  0  0  0  0  0  0  0  0  0
    6.4367   -3.5889   -3.4588 C   0  0  0  0  0  0  0  0  0  0  0  0
    5.1244   -4.0279   -3.6098 C   0  0  0  0  0  0  0  0  0  0  0  0
    4.3211   -3.8999   -2.5464 N   0  0  0  0  0  0  0  0  0  0  0  0
    5.3568   -5.1025   -7.2827 C   0  0  0  0  0  0  0  0  0  0  0  0
    5.9658   -6.2906   -7.7162 C   0  0  0  0  0  0  0  0  0  0  0  0
    5.5750   -6.9004   -8.9071 C   0  0  0  0  0  0  0  0  0  0  0  0
    4.5339   -6.3594   -9.6560 C   0  0  0  0  0  0  0  0  0  0  0  0
    3.9036   -5.1939   -9.2298 C   0  0  0  0  0  0  0  0  0  0  0  0
    4.3665   -4.5233   -8.0949 C   0  0  0  0  0  0  0  0  0  0  0  0
  1  2  1  0
  2  3  2  0
  2  4  2  0
  2  5  1  0
  5  6  2  0
  5 10  1  0
  6  7  1  0
  7  8  2  0
  8  9  1  0
  9 10  2  0
  9 11  1  0
 11 12  2  0
 11 28  1  0
 12 13  1  0
 13 14  1  0
 13 22  2  0
 14 15  1  0
 15 16  1  0
 16 17  2  0
 16 21  1  0
 17 18  1  0
 18 19  2  0
 19 20  1  0
 20 21  2  0
 22 23  1  0
 22 27  1  0
 23 24  2  0
 23 29  1  0
 24 25  1  0
 25 26  2  0
 26 27  1  0
 27 28  2  0
 29 30  2  0
 29 34  1  0
 30 31  1  0
 31 32  2  0
 32 33  1  0
 33 34  2  0
M  END
>  <DRUGBANK_ID>  (1) 
DB15047

>  <COMMON_NAME>  (1) 
BMS-919373

>  <CAS_NUMBER>  (1) 
1272353-82-8

>  <UNII>  (1) 
NGB50MQK8N

$$$$
