207
     RDKit          3D

 18 20  0  0  0  0  0  0  0  0999 V2000
    2.0255   -0.5790    0.5053 N   0  0  0  0  0  0  0  0  0  0  0  0
    2.0198    0.7577    0.2785 C   0  0  0  0  0  0  0  0  0  0  0  0
    0.8581    1.4859    0.0833 C   0  0  0  0  0  0  0  0  0  0  0  0
   -0.3136    0.7435    0.0795 C   0  0  0  0  0  0  0  0  0  0  0  0
   -0.3321   -0.6494    0.1396 C   0  0  0  0  0  0  0  0  0  0  0  0
    0.8918   -1.3228    0.2976 C   0  0  0  0  0  0  0  0  0  0  0  0
    0.9451   -2.6937    0.0871 O   0  0  0  0  0  0  0  0  0  0  0  0
    2.2190   -3.3533    0.0180 C   0  0  0  0  0  0  0  0  0  0  0  0
   -1.6256   -1.1123    0.0044 N   0  0  0  0  0  0  0  0  0  0  0  0
   -2.3799   -0.0343   -0.0284 C   0  0  0  0  0  0  0  0  0  0  0  0
   -1.6282    1.1015   -0.0211 N   0  0  0  0  0  0  0  0  0  0  0  0
    3.2341    1.3771   -0.0175 N   0  0  0  0  0  0  0  0  0  0  0  0
    3.0234   -3.1254   -1.2942 C   0  0  0  0  0  0  0  0  0  0  0  0
    4.2880   -3.9970   -1.3657 C   0  0  0  0  0  0  0  0  0  0  0  0
    5.1668   -3.6109   -2.5656 C   0  0  0  0  0  0  0  0  0  0  0  0
    5.5700   -2.1383   -2.5425 C   0  0  0  0  0  0  0  0  0  0  0  0
    4.3418   -1.2640   -2.5361 C   0  0  0  0  0  0  0  0  0  0  0  0
    3.4299   -1.6651   -1.4138 C   0  0  0  0  0  0  0  0  0  0  0  0
  1  2  2  0
  1  6  1  0
  2  3  1  0
  2 12  1  0
  3  4  2  0
  4  5  1  0
  4 11  1  0
  5  6  2  0
  5  9  1  0
  6  7  1  0
  7  8  1  0
  8 13  1  0
  9 10  2  0
 10 11  1  0
 13 14  1  0
 13 18  1  0
 14 15  1  0
 15 16  1  0
 16 17  1  0
 17 18  1  0
M  END
>  <DRUGBANK_ID>  (1) 
DB02603

>  <SECONDARY_ACCESSION_NUMBERS>  (1) 
EXPT00086

>  <COMMON_NAME>  (1) 
1-Amino-6-Cyclohex-3-Enylmethyloxypurine

$$$$
