
     RDKit          3D

 20 23  0  0  0  0  0  0  0  0999 V2000
    3.5432   -0.2915   -0.2563 C   0  0  0  0  0  0  0  0  0  0  0  0
    2.7817   -1.5906   -0.0894 C   0  0  0  0  0  0  0  0  0  0  0  0
    1.4369   -1.4066    0.6247 C   0  0  0  0  0  0  0  0  0  0  0  0
    0.5967   -0.3853   -0.2099 C   0  0  2  0  0  0  0  0  0  0  0  0
    2.7652    1.0128   -0.4935 C   0  0  0  0  0  0  0  0  0  0  0  0
    1.2896    0.9565   -0.0817 C   0  0  0  0  0  0  0  0  0  0  0  0
    0.5718    2.0507    0.2325 C   0  0  0  0  0  0  0  0  0  0  0  0
   -0.9185    2.0716    0.5883 C   0  0  0  0  0  0  0  0  0  0  0  0
   -1.8341    1.0224   -0.1154 C   0  0  2  0  0  0  0  0  0  0  0  0
   -3.5102    0.9396    0.4792 C   0  0  1  0  0  0  0  0  0  0  0  0
   -5.2793    1.4116    0.3128 C   0  0  0  0  0  0  0  0  0  0  0  0
   -6.0522   -0.0253    0.4509 C   0  0  0  0  0  0  0  0  0  0  0  0
   -4.9244   -0.7726    0.9943 C   0  0  0  0  0  0  0  0  0  0  0  0
   -3.7907   -0.4883    0.0383 C   0  0  1  0  0  0  0  0  0  0  0  0
   -4.1100   -0.2812   -1.5269 C   0  0  0  0  0  0  0  0  0  0  0  0
   -2.9121   -1.7019    0.1789 C   0  0  0  0  0  0  0  0  0  0  0  0
   -1.5867   -1.5688   -0.5049 C   0  0  0  0  0  0  0  0  0  0  0  0
   -0.9325   -0.3725    0.1763 C   0  0  1  0  0  0  0  0  0  0  0  0
   -4.8563   -1.2601    2.0804 O   0  0  0  0  0  0  0  0  0  0  0  0
    4.7773   -0.3146   -0.3228 O   0  0  0  0  0  0  0  0  0  0  0  0
  1  2  1  0
  1  5  1  0
  1 20  2  0
  2  3  1  0
  4  3  1  1
  4  6  1  0
  4 18  1  0
  5  6  1  0
  6  7  2  0
  7  8  1  0
  9  8  1  1
  9 10  1  0
  9 18  1  0
 10 11  1  6
 10 14  1  0
 11 12  1  0
 12 13  1  0
 13 14  1  0
 13 19  2  0
 14 16  1  0
 14 15  1  6
 16 17  1  0
 18 17  1  6
M  END
>  <DRUGBANK_ID>  (1) 
DB01443

>  <COMMON_NAME>  (1) 
19-Nor-5-androstenedione

>  <CAS_NUMBER>  (1) 
19289-77-1

>  <UNII>  (1) 
585LQ9KZN8

>  <SYNONYMS>  (1) 
estr-5-ene-3,17-dione

$$$$
