BBS
     RDKit          3D

 14 14  0  0  0  0  0  0  0  0999 V2000
    0.9650    0.0057   -0.0474 C   0  0  0  0  0  0  0  0  0  0  0  0
    0.4757   -0.2266   -1.4900 C   0  0  0  0  0  0  0  0  0  0  0  0
    0.9529   -1.6254   -1.9295 C   0  0  0  0  0  0  0  0  0  0  0  0
   -1.0707   -0.2301   -1.4855 C   0  0  0  0  0  0  0  0  0  0  0  0
    0.9084    2.2320   -2.0524 C   0  0  0  0  0  0  0  0  0  0  0  0
    1.0207    3.2635   -2.9840 C   0  0  0  0  0  0  0  0  0  0  0  0
    1.1771    2.9527   -4.3319 C   0  0  0  0  0  0  0  0  0  0  0  0
    1.2778    1.6289   -4.7498 C   0  0  0  0  0  0  0  0  0  0  0  0
    1.2028    0.6069   -3.8059 C   0  0  0  0  0  0  0  0  0  0  0  0
    0.9269    0.8835   -2.4539 C   0  0  0  0  0  0  0  0  0  0  0  0
    1.3194    4.2297   -5.5386 S   0  0  0  0  0  0  0  0  0  0  0  0
    2.6574    4.1754   -6.0780 O   0  0  0  0  0  0  0  0  0  0  0  0
    0.1528    4.1739   -6.3954 O   0  0  0  0  0  0  0  0  0  0  0  0
    1.2144    5.6172   -4.7198 O   0  0  0  0  0  0  0  0  0  0  0  0
  1  2  1  0
  2  3  1  0
  2  4  1  0
  2 10  1  0
  5  6  2  0
  5 10  1  0
  6  7  1  0
  7  8  2  0
  7 11  1  0
  8  9  1  0
  9 10  2  0
 11 12  2  0
 11 13  2  0
 11 14  1  0
M  END
>  <DRUGBANK_ID>  (1) 
DB07440

>  <COMMON_NAME>  (1) 
4-TERT-BUTYLBENZENESULFONIC ACID

>  <UNII>  (1) 
YV1D0UF57S

$$$$
