[NO NAME]
     RDKit          3D

 36 39  0  0  1  0  0  0  0  0999 V2000
    1.5830    0.2797   -0.8740 C   0  0  1  0  0  0  0  0  0  0  0  0
    2.1744   -1.1238   -0.8119 C   0  0  0  0  0  0  0  0  0  0  0  0
   -0.1397   -2.2189   -0.5601 C   0  0  0  0  0  0  0  0  0  0  0  0
    1.2418   -2.2481   -1.2287 C   0  0  0  0  0  0  0  0  0  0  0  0
    0.3066    0.1950    0.0372 C   0  0  2  0  0  0  0  0  0  0  0  0
   -0.7585   -0.8309   -0.5385 C   0  0  2  0  0  0  0  0  0  0  0  0
   -4.5423   -1.0968    0.4235 C   0  0  2  0  0  0  0  0  0  0  0  0
   -3.2779   -1.6877   -0.2875 C   0  0  0  0  0  0  0  0  0  0  0  0
   -5.7528   -1.1419   -0.5009 C   0  0  0  0  0  0  0  0  0  0  0  0
   -0.3423    1.5344    0.3009 C   0  0  1  0  0  0  0  0  0  0  0  0
   -0.4131    2.4135   -0.8158 O   0  0  0  0  0  0  0  0  0  0  0  0
    2.5507    1.3584   -0.3955 C   0  0  0  0  0  0  0  0  0  0  0  0
    3.3935   -1.3593   -0.2947 C   0  0  0  0  0  0  0  0  0  0  0  0
    3.7690    1.1174    0.1005 C   0  0  0  0  0  0  0  0  0  0  0  0
    4.2485   -0.2696    0.2363 C   0  0  0  0  0  0  0  0  0  0  0  0
    5.3238   -0.5130    0.7797 O   0  0  0  0  0  0  0  0  0  0  0  0
    0.8243   -0.3637    1.7635 Cl  0  0  0  0  0  0  0  0  0  0  0  0
   -2.7665    0.5188    0.2385 C   0  0  1  0  0  0  0  0  0  0  0  0
   -3.0939    1.0901   -1.1805 C   0  0  0  0  0  0  0  0  0  0  0  0
   -2.1220   -0.8558    0.2190 C   0  0  2  0  0  0  0  0  0  0  0  0
    1.3228    0.6096   -2.3666 C   0  0  0  0  0  0  0  0  0  0  0  0
   -1.6806    1.2597    0.9776 C   0  0  0  0  0  0  0  0  0  0  0  0
   -5.6583    2.4283    1.9427 C   0  0  0  0  0  0  0  0  0  0  0  0
   -5.1846    1.5369    0.7596 C   0  0  0  0  0  0  0  0  0  0  0  0
   -5.6614    1.7709   -0.3555 O   0  0  0  0  0  0  0  0  0  0  0  0
   -4.3401    4.5022    1.9438 C   0  0  0  0  0  0  0  0  0  0  0  0
   -3.0898    3.7094    2.0101 C   0  0  0  0  0  0  0  0  0  0  0  0
   -4.2815    5.7119    1.8923 O   0  0  0  0  0  0  0  0  0  0  0  0
   -2.2846    4.1102    0.7503 C   0  0  0  0  0  0  0  0  0  0  0  0
   -5.5168    3.8412    1.8227 O   0  0  0  0  0  0  0  0  0  0  0  0
   -6.8544   -1.6874    3.1917 C   0  0  0  0  0  0  0  0  0  0  0  0
   -4.1616    0.3173    1.0063 C   0  0  1  0  0  0  0  0  0  0  0  0
   -3.9379    0.1329    2.4373 O   0  0  0  0  0  0  0  0  0  0  0  0
   -4.9106   -0.1244    3.3593 C   0  0  0  0  0  0  0  0  0  0  0  0
   -4.6427   -0.1028    4.5643 O   0  0  0  0  0  0  0  0  0  0  0  0
   -6.3399   -0.3096    2.8947 C   0  0  0  0  0  0  0  0  0  0  0  0
  1 12  1  0
  1 21  1  6
  1  2  1  0
  2 13  2  0
  3  4  1  0
  4  2  1  0
  5  1  1  0
  5 10  1  0
  5 17  1  1
  6  5  1  0
  6  3  1  1
  7  8  1  0
  7  9  1  6
 10 22  1  0
 10 11  1  6
 12 14  2  0
 13 15  1  0
 14 15  1  0
 15 16  2  0
 18 32  1  0
 18 22  1  0
 18 19  1  6
 20  6  1  0
 20  8  1  6
 20 18  1  0
 23 30  1  0
 24 23  1  0
 24 25  2  0
 26 27  1  0
 26 28  2  0
 27 29  1  0
 30 26  1  0
 32  7  1  0
 32 24  1  0
 32 33  1  1
 33 34  1  0
 34 36  1  0
 34 35  2  0
 36 31  1  0
M  END
>  <DRUGBANK_ID>  (1) 
DB00394

>  <SECONDARY_ACCESSION_NUMBERS>  (1) 
APRD00564; DB11897

>  <COMMON_NAME>  (1) 
Beclomethasone dipropionate

>  <CAS_NUMBER>  (1) 
5534-09-8

>  <UNII>  (1) 
5B307S63B2

>  <SYNONYMS>  (1) 
(11β,16β)-9-chloro-11-hydroxy-16-methyl-17,21-bis(1-oxopropoxy)pregna-1,4-diene-3,20-dione; 9-chloro-11β-hydroxy-16β-methylpregna-1,4-diene-3,20-dione 17,21-dipropionate; 9-chloro-16β-methyl-11β,17,21-trihydroxypregna-1,4-diene-3,20-dione 17,21-dipropionate; beclometasone 17,21-dipropionate; Beclometasone dipropionate; Beclometasone dipropionate anhydrous; Beclometasone dipropionato; Beclomethasone dipropionate

$$$$
