
     RDKit          3D

 21 23  0  0  1  0  0  0  0  0999 V2000
    1.7539   -1.4505    0.0191 S   0  0  0  0  0  0  0  0  0  0  0  0
    1.4919    3.2453    1.1000 O   0  0  0  0  0  0  0  0  0  0  0  0
    2.3441    2.9779   -2.4185 O   0  0  0  0  0  0  0  0  0  0  0  0
    2.8005    5.2662   -1.0408 O   0  0  0  0  0  0  0  0  0  0  0  0
   -1.1361    3.8963    0.2407 O   0  0  0  0  0  0  0  0  0  0  0  0
    3.7344    0.2890   -0.0182 O   0  0  0  0  0  0  0  0  0  0  0  0
   -1.0882   -2.6682   -0.0045 O   0  0  0  0  0  0  0  0  0  0  0  0
    1.5379    1.1189    0.0541 N   0  0  0  0  0  0  0  0  0  0  0  0
   -0.9639    1.2961   -0.0111 N   0  0  0  0  0  0  0  0  0  0  0  0
   -2.2339   -0.6860   -0.0069 N   0  0  0  0  0  0  0  0  0  0  0  0
   -3.2529    1.3649   -0.0568 N   0  0  0  0  0  0  0  0  0  0  0  0
    1.9637    2.4936   -0.0254 C   0  0  1  0  0  0  0  0  0  0  0  0
    1.5135    3.2218   -1.2916 C   0  0  1  0  0  0  0  0  0  0  0  0
    1.5142    4.6733   -0.8337 C   0  0  1  0  0  0  0  0  0  0  0  0
    1.1723    4.5868    0.6598 C   0  0  1  0  0  0  0  0  0  0  0  0
   -0.3125    4.8284    0.9478 C   0  0  0  0  0  0  0  0  0  0  0  0
    0.2357    0.6343    0.0279 C   0  0  0  0  0  0  0  0  0  0  0  0
    2.5200    0.1338    0.0209 C   0  0  0  0  0  0  0  0  0  0  0  0
    0.2110   -0.7048    0.0182 C   0  0  0  0  0  0  0  0  0  0  0  0
   -1.0750   -1.4421    0.0006 C   0  0  0  0  0  0  0  0  0  0  0  0
   -2.1385    0.6050   -0.0066 C   0  0  0  0  0  0  0  0  0  0  0  0
  1 18  1  0
  1 19  1  0
  2 12  1  0
  2 15  1  0
  5 16  1  0
  6 18  2  0
  7 20  2  0
  8 17  1  0
  8 18  1  0
  9 17  1  0
  9 21  1  0
 10 20  1  0
 10 21  2  0
 11 21  1  0
 12  8  1  6
 12 13  1  0
 13  3  1  6
 13 14  1  0
 14  4  1  1
 14 15  1  0
 15 16  1  6
 17 19  2  0
 19 20  1  0
M  END
>  <DRUGBANK_ID>  (1) 
DB04860

>  <COMMON_NAME>  (1) 
Isatoribine

>  <CAS_NUMBER>  (1) 
122970-40-5

>  <UNII>  (1) 
2DNT962H92

>  <SYNONYMS>  (1) 
7-Deaza-7-thia-8-oxoguanosine; 7-Thia-8-oxoguanosine; 7-TOG; Isatoribine

$$$$
