
     RDKit          3D

 26 28  0  0  1  0  0  0  0  0999 V2000
   -0.4437    1.3831    0.4104 C   0  0  0  0  0  0  0  0  0  0  0  0
   -1.1660    0.1301    0.1216 C   0  0  0  0  0  0  0  0  0  0  0  0
   -0.6228   -1.2351    0.3528 C   0  0  2  0  0  0  0  0  0  0  0  0
    0.7949   -1.2355   -0.2199 C   0  0  0  0  0  0  0  0  0  0  0  0
    1.5386   -0.0313    0.2394 N   0  0  0  0  0  0  0  0  0  0  0  0
    0.9222    1.2274   -0.2091 C   0  0  0  0  0  0  0  0  0  0  0  0
   -1.5827   -2.2424   -0.3202 C   0  0  0  0  0  0  0  0  0  0  0  0
   -1.2825   -3.4375   -0.3794 O   0  0  0  0  0  0  0  0  0  0  0  0
   -2.8546   -1.8392   -0.7547 N   0  0  0  0  0  0  0  0  0  0  0  0
   -3.1522   -0.5543   -1.3293 N   0  0  0  0  0  0  0  0  0  0  0  0
   -4.3740   -0.0290   -1.4020 C   0  0  0  0  0  0  0  0  0  0  0  0
   -4.5015    1.1894   -1.2556 O   0  0  0  0  0  0  0  0  0  0  0  0
   -5.4860   -0.9456   -1.6777 C   0  0  2  0  0  0  0  0  0  0  0  0
   -6.4957   -0.8767   -0.5481 C   0  0  0  0  0  0  0  0  0  0  0  0
   -7.7155   -1.7121   -0.9965 C   0  0  0  0  0  0  0  0  0  0  0  0
   -7.2252   -2.9046   -1.7969 C   0  0  1  0  0  0  0  0  0  0  0  0
   -6.3439   -2.5912   -2.9887 C   0  0  0  0  0  0  0  0  0  0  0  0
   -5.2104   -2.3641   -2.2392 N   0  0  0  0  0  0  0  0  0  0  0  0
   -5.3365   -3.9128   -1.5694 C   0  0  0  0  0  0  0  0  0  0  0  0
   -4.3449   -4.6252   -1.6439 O   0  0  0  0  0  0  0  0  0  0  0  0
   -6.9560   -4.2305   -1.8421 N   0  0  0  0  0  0  0  0  0  0  0  0
   -8.1062   -4.7271   -1.1006 O   0  0  0  0  0  0  0  0  0  0  0  0
   -9.4985   -5.1953   -2.0627 S   0  0  0  0  0  0  0  0  0  0  0  0
   -9.9550   -4.1223   -2.9668 O   0  0  0  0  0  0  0  0  0  0  0  0
   -9.2781   -6.5040   -2.5904 O   0  0  0  0  0  0  0  0  0  0  0  0
  -10.7618   -5.3665   -1.0459 O   0  0  0  0  0  0  0  0  0  0  0  0
  1  2  1  0
  1  6  1  0
  2  3  1  0
  3  4  1  0
  3  7  1  6
  4  5  1  0
  5  6  1  0
  7  8  2  0
  7  9  1  0
  9 10  1  0
 10 11  1  0
 11 12  2  0
 13 11  1  1
 13 14  1  0
 13 18  1  0
 14 15  1  0
 16 15  1  1
 16 17  1  0
 16 21  1  0
 18 17  1  0
 18 19  1  0
 19 20  2  0
 19 21  1  0
 21 22  1  0
 22 23  1  0
 23 24  2  0
 23 25  2  0
 23 26  1  0
M  END
>  <DRUGBANK_ID>  (1) 
DB13090

>  <COMMON_NAME>  (1) 
Zidebactam

>  <CAS_NUMBER>  (1) 
1436861-97-0

>  <UNII>  (1) 
YPM97423DB

>  <SYNONYMS>  (1) 
Zidebactam

$$$$
