1227
     RDKit          3D

 26 27  0  0  1  0  0  0  0  0999 V2000
    0.2205   -1.5451    1.9939 O   0  0  0  0  0  0  0  0  0  0  0  0
    0.8374   -3.6968    2.2964 O   0  0  0  0  0  0  0  0  0  0  0  0
    3.9572    1.8447    0.8146 N   0  0  0  0  0  0  0  0  0  0  0  0
    1.0674   -0.2164   -0.1172 C   0  0  0  0  0  0  0  0  0  0  0  0
    1.6703    1.3284   -0.4529 C   0  0  0  0  0  0  0  0  0  0  0  0
    0.1651   -0.2588    1.2264 C   0  0  2  0  0  0  0  0  0  0  0  0
    2.5630    2.2494    0.5632 C   0  0  2  0  0  0  0  0  0  0  0  0
    2.2359   -1.4232   -0.1041 C   0  0  0  0  0  0  0  0  0  0  0  0
    0.0943   -0.4587   -1.3675 C   0  0  0  0  0  0  0  0  0  0  0  0
    0.3455    0.9187    2.2369 C   0  0  0  0  0  0  0  0  0  0  0  0
    2.6020    3.7132    0.1523 C   0  0  0  0  0  0  0  0  0  0  0  0
    2.9903   -1.6718   -1.2658 C   0  0  0  0  0  0  0  0  0  0  0  0
    0.5135   -0.1902   -2.6799 C   0  0  0  0  0  0  0  0  0  0  0  0
    2.8450   -1.8965    1.1179 C   0  0  0  0  0  0  0  0  0  0  0  0
   -1.1525   -1.0848   -1.2506 C   0  0  0  0  0  0  0  0  0  0  0  0
   -0.1567    2.3057    1.7517 C   0  0  0  0  0  0  0  0  0  0  0  0
    4.5975    2.3586    2.0150 C   0  0  0  0  0  0  0  0  0  0  0  0
    3.8788    0.4866    1.1872 C   0  0  0  0  0  0  0  0  0  0  0  0
    4.3169   -2.1463   -1.1942 C   0  0  0  0  0  0  0  0  0  0  0  0
   -0.1510   -0.7249   -3.7806 C   0  0  0  0  0  0  0  0  0  0  0  0
    4.1946   -2.3081    1.1882 C   0  0  0  0  0  0  0  0  0  0  0  0
   -1.6727   -1.8229   -2.3095 C   0  0  0  0  0  0  0  0  0  0  0  0
    0.3089   -2.8630    1.5967 C   0  0  0  0  0  0  0  0  0  0  0  0
    4.9382   -2.4050    0.0262 C   0  0  0  0  0  0  0  0  0  0  0  0
   -1.1979   -1.6110   -3.5878 C   0  0  0  0  0  0  0  0  0  0  0  0
   -0.2731   -3.2629    0.2803 C   0  0  0  0  0  0  0  0  0  0  0  0
  1 23  1  0
  2 23  2  0
  3 17  1  0
  3 18  1  0
  4  5  1  0
  4  8  1  0
  4  9  1  0
  5  7  1  0
  6 10  1  1
  6  4  1  0
  6  1  1  0
  7  3  1  0
  7 11  1  6
  8 12  2  0
  8 14  1  0
  9 13  2  0
  9 15  1  0
 10 16  1  0
 12 19  1  0
 13 20  1  0
 14 21  2  0
 15 22  2  0
 19 24  2  0
 20 25  2  0
 21 24  1  0
 22 25  1  0
 23 26  1  0
M  END
>  <DRUGBANK_ID>  (1) 
DB01227

>  <SECONDARY_ACCESSION_NUMBERS>  (1) 
APRD00745

>  <COMMON_NAME>  (1) 
Levacetylmethadol

>  <CAS_NUMBER>  (1) 
1477-40-3

>  <UNII>  (1) 
R3B637Y991

>  <SYNONYMS>  (1) 
(-)-alpha-Acetylmethadol; (1S,4S)-4-(dimethylamino)-1-ethyl-2,2-diphenylpentyl acetate; 1-alpha-Acetylmethadol; LAAM; Levacetilmetadol; Levacetylmethadol; Levacetylmethadolum; Levo-alpha-acetylmethadol; Levo-methadyl acetate; Levo-Î±-acetylmethadol; Levomethadyl; Levomethadyl acetate

$$$$
