
     RDKit          3D

  1  0  0  0  0  0  0  0  0  0999 V2000
    0.9452    0.0394   -0.0738 Sm  0  0  0  0  0 15  0  0  0  0  0  0
M  ISO  1   1 153
M  END
>  <DRUGBANK_ID>  (1) 
DB12905

>  <COMMON_NAME>  (1) 
Samarium Sm-153

>  <CAS_NUMBER>  (1) 
15766-00-4

>  <UNII>  (1) 
6Q1KA41UWM

>  <SYNONYMS>  (1) 
153SM; Samarium 153; Samarium Sm153; Samarium-153; SM-153

$$$$
