
     RDKit          3D

 12 12  0  0  0  0  0  0  0  0999 V2000
    3.0287    0.4016    1.3823 O   0  0  0  0  0  0  0  0  0  0  0  0
    4.3213    0.9751    1.5002 C   0  0  0  0  0  0  0  0  0  0  0  0
    2.6028    0.0854    0.0482 C   0  0  1  0  0  0  0  0  0  0  0  0
    2.9766    1.1383   -1.0146 C   0  0  2  0  0  0  0  0  0  0  0  0
    2.4410    2.4217   -0.6737 O   0  0  0  0  0  0  0  0  0  0  0  0
    2.4893    0.7209   -2.4031 C   0  0  2  0  0  0  0  0  0  0  0  0
    1.0545    0.7783   -2.4180 O   0  0  0  0  0  0  0  0  0  0  0  0
    3.0047   -0.6904   -2.7233 C   0  0  1  0  0  0  0  0  0  0  0  0
    2.5384   -1.6146   -1.7282 O   0  0  0  0  0  0  0  0  0  0  0  0
    3.0442   -1.3273   -0.4186 C   0  0  1  0  0  0  0  0  0  0  0  0
    4.4436   -1.5630   -0.3902 O   0  0  0  0  0  0  0  0  0  0  0  0
    2.5315   -1.1668   -4.0872 C   0  0  0  0  0  0  0  0  0  0  0  0
  1  2  1  0
  3  4  1  0
  3 10  1  0
  3  1  1  1
  4  5  1  1
  4  6  1  0
  6  7  1  1
  6  8  1  0
  8 12  1  6
  9  8  1  0
 10  9  1  0
 10 11  1  6
M  END
>  <DRUGBANK_ID>  (1) 
DB04515

>  <SECONDARY_ACCESSION_NUMBERS>  (1) 
EXPT02263

>  <COMMON_NAME>  (1) 
2-O-methyl-alpha-L-fucopyranose

>  <CAS_NUMBER>  (1) 
1887228-22-9

>  <UNII>  (1) 
ZN7HRG4F33

>  <SYNONYMS>  (1) 
6-deoxy-2-O-methyl-alpha-L-galactopyranose; 6-deoxy-2-O-methyl-Î±-L-galactopyranose

$$$$
