
     RDKit          3D

  5  3  0  0  0  0  0  0  0  0999 V2000
    1.4833    1.1319   -0.3782 Mg  0  0  0  0  0 15  0  0  0  0  0  0
    1.0222   -0.7930    0.1807 O   0  0  0  0  0  0  0  0  0  0  0  0
    2.2149   -0.5711    0.1086 C   0  0  0  0  0  0  0  0  0  0  0  0
    2.6552   -0.2370   -0.9937 O   0  0  0  0  0  0  0  0  0  0  0  0
    2.6677    0.2975    0.8578 O   0  0  0  0  0  0  0  0  0  0  0  0
  2  3  2  0
  3  4  1  0
  3  5  1  0
M  CHG  3   1   2   4  -1   5  -1
M  END
>  <DRUGBANK_ID>  (1) 
DB09481

>  <COMMON_NAME>  (1) 
Magnesium carbonate

>  <CAS_NUMBER>  (1) 
546-93-0

>  <UNII>  (1) 
0IHC698356

>  <SYNONYMS>  (1) 
Magnesio carbonato

$$$$
