440
     RDKit          3D

 18 18  0  0  0  0  0  0  0  0999 V2000
    1.2318   -0.0819    0.1167 C   0  0  0  0  0  0  0  0  0  0  0  0
    0.2699   -1.0471    0.3826 C   0  0  0  0  0  0  0  0  0  0  0  0
   -1.5096    0.3945   -0.0247 C   0  0  0  0  0  0  0  0  0  0  0  0
   -0.5504    1.4565   -0.0426 C   0  0  0  0  0  0  0  0  0  0  0  0
    0.8397    1.2159   -0.0877 C   0  0  0  0  0  0  0  0  0  0  0  0
    1.7174    2.2577   -0.2779 O   0  0  0  0  0  0  0  0  0  0  0  0
    3.1541    1.9724   -0.4386 C   0  0  0  0  0  0  0  0  0  0  0  0
    4.7070    0.1716    3.1966 C   0  0  0  0  0  0  0  0  0  0  0  0
    4.1636    0.8018    1.9246 C   0  0  0  0  0  0  0  0  0  0  0  0
    3.6975    1.3423    0.8334 C   0  0  0  0  0  0  0  0  0  0  0  0
   -1.0662   -0.9028    0.1405 C   0  0  0  0  0  0  0  0  0  0  0  0
   -2.8024   -2.3930    1.3366 O   0  0  0  0  0  0  0  0  0  0  0  0
   -2.7712   -2.3656   -1.1873 O   0  0  0  0  0  0  0  0  0  0  0  0
   -2.0715   -2.3871    0.0713 S   0  0  0  0  0  0  0  0  0  0  0  0
   -1.0397   -3.8811    0.0830 C   0  0  0  0  0  0  0  0  0  0  0  0
   -0.1611   -4.1656   -1.1517 C   0  0  0  0  0  0  0  0  0  0  0  0
    1.0458   -3.2585   -1.3421 C   0  0  0  0  0  0  0  0  0  0  0  0
    2.3337   -3.5589   -0.0228 S   0  0  0  0  0  0  0  0  0  0  0  0
  2  1  2  0
  3  4  1  0
  3 11  2  0
  4  5  2  0
  5  6  1  0
  5  1  1  0
  6  7  1  0
  8  9  1  0
  9 10  3  0
 10  7  1  0
 11  2  1  0
 12 14  2  0
 13 14  2  0
 14 11  1  0
 14 15  1  0
 15 16  1  0
 17 18  1  0
 17 16  1  0
M  END
>  <DRUGBANK_ID>  (1) 
DB07079

>  <COMMON_NAME>  (1) 
3-{[4-(but-2-yn-1-yloxy)phenyl]sulfonyl}propane-1-thiol

$$$$
