
     RDKit          3D

 16 17  0  0  0  0  0  0  0  0999 V2000
    0.6889    1.1835    0.0198 C   0  0  0  0  0  0  0  0  0  0  0  0
   -0.7046    1.1890    0.0166 C   0  0  0  0  0  0  0  0  0  0  0  0
   -1.4162   -0.0181    0.0066 C   0  0  0  0  0  0  0  0  0  0  0  0
   -0.7444   -1.2558    0.0120 C   0  0  0  0  0  0  0  0  0  0  0  0
    0.6664   -1.2382    0.0342 C   0  0  0  0  0  0  0  0  0  0  0  0
    1.3691   -0.0302    0.0262 C   0  0  0  0  0  0  0  0  0  0  0  0
    3.0896   -0.0358    0.0104 Cl  0  0  0  0  0  0  0  0  0  0  0  0
   -1.4622   -2.5339   -0.0187 C   0  0  0  0  0  0  0  0  0  0  0  0
   -2.2347   -2.7668   -1.0768 N   0  0  0  0  0  0  0  0  0  0  0  0
   -2.8844   -3.9185   -1.0433 C   0  0  0  0  0  0  0  0  0  0  0  0
   -2.8013   -4.8047   -0.0650 N   0  0  0  0  0  0  0  0  0  0  0  0
   -1.9821   -4.4880    0.9262 C   0  0  0  0  0  0  0  0  0  0  0  0
   -1.2783   -3.3670    1.0031 N   0  0  0  0  0  0  0  0  0  0  0  0
   -1.8401   -5.3961    1.9371 N   0  0  0  0  0  0  0  0  0  0  0  0
   -3.6853   -4.2158   -2.1079 N   0  0  0  0  0  0  0  0  0  0  0  0
   -3.1446    0.0979    0.0233 Cl  0  0  0  0  0  0  0  0  0  0  0  0
  1  2  2  0
  1  6  1  0
  2  3  1  0
  3  4  2  0
  3 16  1  0
  4  5  1  0
  4  8  1  0
  5  6  2  0
  6  7  1  0
  8  9  2  0
  8 13  1  0
  9 10  1  0
 10 11  2  0
 10 15  1  0
 11 12  1  0
 12 13  2  0
 12 14  1  0
M  END
>  <DRUGBANK_ID>  (1) 
DB13056

>  <COMMON_NAME>  (1) 
Irsogladine

>  <CAS_NUMBER>  (1) 
57381-26-7

>  <UNII>  (1) 
QBX79NZC1D

>  <SYNONYMS>  (1) 
Irsogladine

$$$$
