
     RDKit          3D

 21 20  0  0  0  0  0  0  0  0999 V2000
    0.9631   -0.0108    0.1447 C   0  0  0  0  0  0  0  0  0  0  0  0
    0.5180    1.3670    0.6065 C   0  0  0  0  0  0  0  0  0  0  0  0
    1.0183    2.4377   -0.3636 C   0  0  0  0  0  0  0  0  0  0  0  0
    0.4657    2.2065   -1.7747 C   0  0  0  0  0  0  0  0  0  0  0  0
   -1.0664    2.2312   -1.7619 C   0  0  0  0  0  0  0  0  0  0  0  0
   -1.5545    3.5958   -1.2670 C   0  0  0  0  0  0  0  0  0  0  0  0
   -1.0055    4.6990   -2.1813 C   0  0  0  0  0  0  0  0  0  0  0  0
   -1.4941    4.4713   -3.6040 C   0  0  0  0  0  0  0  0  0  0  0  0
   -3.0056    4.4944   -3.5949 C   0  0  0  0  0  0  0  0  0  0  0  0
   -3.5046    5.8580   -3.0891 C   0  0  0  0  0  0  0  0  0  0  0  0
   -3.1582    6.9591   -4.0797 C   0  0  0  0  0  0  0  0  0  0  0  0
   -3.7535    6.6593   -5.4593 C   0  0  0  0  0  0  0  0  0  0  0  0
   -5.2047    6.6474   -5.4077 O   0  0  0  0  0  0  0  0  0  0  0  0
   -5.8791    5.5753   -4.9099 C   0  0  0  0  0  0  0  0  0  0  0  0
   -5.4126    4.4677   -4.6279 O   0  0  0  0  0  0  0  0  0  0  0  0
   -7.3496    5.7758   -4.7252 C   0  0  0  0  0  0  0  0  0  0  0  0
   -7.7239    7.0613   -4.1563 N   0  0  0  0  0  0  0  0  0  0  0  0
   -8.5743    7.8668   -5.0221 C   0  0  0  0  0  0  0  0  0  0  0  0
   -7.4389    7.5093   -2.8965 C   0  0  0  0  0  0  0  0  0  0  0  0
   -6.7387    6.7134   -2.0701 N   0  0  0  0  0  0  0  0  0  0  0  0
   -7.8314    8.6682   -2.4836 N   0  0  0  0  0  0  0  0  0  0  0  0
  1  2  1  0
  2  3  1  0
  3  4  1  0
  4  5  1  0
  5  6  1  0
  6  7  1  0
  7  8  1  0
  8  9  1  0
  9 10  1  0
 10 11  1  0
 11 12  1  0
 12 13  1  0
 13 14  1  0
 14 15  2  0
 14 16  1  0
 16 17  1  0
 17 18  1  0
 17 19  1  0
 19 20  1  0
 19 21  2  0
M  END
>  <DRUGBANK_ID>  (1) 
DB18049

>  <COMMON_NAME>  (1) 
Dodecyl creatine ester

>  <CAS_NUMBER>  (1) 
1442645-21-7

>  <UNII>  (1) 
Z7DW5UW9UD

>  <SYNONYMS>  (1) 
Glycine, n-(aminoiminomethyl)-n-methyl-, dodecyl ester

$$$$
