
     RDKit          3D

 24 27  0  0  1  0  0  0  0  0999 V2000
   -1.7995   -0.1884    0.0891 C   0  0  2  0  0  0  0  0  0  0  0  0
   -3.0923   -0.0009    0.9688 C   0  0  0  0  0  0  0  0  0  0  0  0
   -3.3584   -1.4368    1.5205 C   0  0  0  0  0  0  0  0  0  0  0  0
   -2.4949   -2.5639    1.2359 C   0  0  0  0  0  0  0  0  0  0  0  0
   -3.0238   -3.8853    1.2791 C   0  0  0  0  0  0  0  0  0  0  0  0
   -2.2596   -4.8835    0.7170 O   0  0  0  0  0  0  0  0  0  0  0  0
   -2.4028   -6.1904    1.2691 C   0  0  0  0  0  0  0  0  0  0  0  0
   -4.3707   -4.0544    1.6357 C   0  0  0  0  0  0  0  0  0  0  0  0
   -4.9657   -5.2835    1.5294 O   0  0  0  0  0  0  0  0  0  0  0  0
   -6.0838   -5.2727    0.6411 C   0  0  0  0  0  0  0  0  0  0  0  0
   -5.1273   -2.9677    2.0765 C   0  0  0  0  0  0  0  0  0  0  0  0
   -4.6336   -1.6736    2.0424 C   0  0  0  0  0  0  0  0  0  0  0  0
   -1.0291   -2.2906    0.8227 C   0  0  2  0  0  0  0  0  0  0  0  0
   -0.5352   -2.4689   -0.7037 C   0  0  0  0  0  0  0  0  0  0  0  0
   -1.2266   -1.6383   -1.7906 C   0  0  0  0  0  0  0  0  0  0  0  0
   -2.3162   -0.8753   -1.2265 N   0  0  0  0  0  0  0  0  0  0  0  0
   -3.4930   -1.8091   -1.2069 C   0  0  0  0  0  0  0  0  0  0  0  0
   -0.1799   -3.2298    1.6418 C   0  0  0  0  0  0  0  0  0  0  0  0
   -0.1900   -2.8112    3.1039 C   0  0  2  0  0  0  0  0  0  0  0  0
   -1.2889   -2.1236    3.6993 O   0  0  0  0  0  0  0  0  0  0  0  0
    1.0022   -1.8688    3.0498 C   0  0  0  0  0  0  0  0  0  0  0  0
    0.8407   -0.8069    1.7110 C   0  0  0  0  0  0  0  0  0  0  0  0
   -0.6866   -0.7968    1.1540 C   0  0  1  0  0  0  0  0  0  0  0  0
   -1.1196   -0.1368    2.3844 O   0  0  0  0  0  0  0  0  0  0  0  0
  1  2  1  1
  1 16  1  0
  2  3  1  0
  3  4  2  0
  3 12  1  0
  4  5  1  0
  5  8  2  0
  5  6  1  0
  6  7  1  0
  8 11  1  0
  8  9  1  0
  9 10  1  0
 11 12  2  0
 13  4  1  0
 13 14  1  6
 13 18  1  0
 14 15  1  0
 15 16  1  0
 16 17  1  0
 19 18  1  0
 19 21  1  0
 19 20  1  6
 21 22  1  0
 23 22  1  0
 23  1  1  0
 23 13  1  0
 23 24  1  1
M  END
>  <DRUGBANK_ID>  (1) 
DB01547

>  <COMMON_NAME>  (1) 
Drotebanol

>  <CAS_NUMBER>  (1) 
3176-03-2

>  <UNII>  (1) 
7RS2Q8MCK8

>  <SYNONYMS>  (1) 
Drotebanol

$$$$
