
     RDKit          3D

 42 48  0  0  0  0  0  0  0  0999 V2000
    5.7331    0.6219   -5.9336 O   0  0  0  0  0  0  0  0  0  0  0  0
    4.6947    0.7076   -4.9997 C   0  0  1  0  0  0  0  0  0  0  0  0
    3.7660   -0.2022   -5.2490 N   0  0  0  0  0  0  0  0  0  0  0  0
    3.1524   -0.1757   -3.7721 C   0  0  0  0  0  0  0  0  0  0  0  0
    4.0818   -1.0168   -3.1716 C   0  0  1  0  0  0  0  0  0  0  0  0
    5.0420    0.1890   -3.6055 O   0  0  0  0  0  0  0  0  0  0  0  0
    3.7360   -1.4146   -1.7914 N   0  0  0  0  0  0  0  0  0  0  0  0
    2.9306   -2.4590   -1.2290 C   0  0  0  0  0  0  0  0  0  0  0  0
    3.3241   -2.7635   -0.0773 O   0  0  0  0  0  0  0  0  0  0  0  0
    1.5661   -3.5613   -1.8547 C   0  0  2  0  0  0  0  0  0  0  0  0
    0.3478   -4.1782   -3.1159 C   0  0  0  0  0  0  0  0  0  0  0  0
   -1.0352   -4.8100   -3.0672 C   0  0  2  0  0  0  0  0  0  0  0  0
   -2.7934   -4.5838   -2.9894 C   0  0  0  0  0  0  0  0  0  0  0  0
   -3.1456   -5.9153   -3.0591 C   0  0  0  0  0  0  0  0  0  0  0  0
   -2.2583   -6.9149   -2.6117 C   0  0  0  0  0  0  0  0  0  0  0  0
   -1.1861   -6.5753   -1.6096 C   0  0  0  0  0  0  0  0  0  0  0  0
   -0.8431   -5.1057   -1.5941 C   0  0  1  0  0  0  0  0  0  0  0  0
    0.3472   -4.8587   -0.7352 N   0  0  0  0  0  0  0  0  0  0  0  0
    0.6978   -3.4332   -0.7327 C   0  0  0  0  0  0  0  0  0  0  0  0
    1.5009   -5.8520   -0.9419 C   0  0  0  0  0  0  0  0  0  0  0  0
   -2.2359   -7.8022   -3.6555 C   0  0  0  0  0  0  0  0  0  0  0  0
   -3.3451   -7.5774   -4.4271 N   0  0  0  0  0  0  0  0  0  0  0  0
   -3.9724   -6.4190   -4.0518 C   0  0  0  0  0  0  0  0  0  0  0  0
   -5.1094   -5.7967   -4.5469 C   0  0  0  0  0  0  0  0  0  0  0  0
   -5.2872   -4.5632   -3.9717 C   0  0  0  0  0  0  0  0  0  0  0  0
   -4.1090   -3.9293   -3.3159 C   0  0  0  0  0  0  0  0  0  0  0  0
    3.7481   -1.9981   -4.1561 C   0  0  0  0  0  0  0  0  0  0  0  0
    4.0314   -3.6716   -3.3956 C   0  0  0  0  0  0  0  0  0  0  0  0
    2.0035   -1.6319   -5.4224 C   0  0  0  0  0  0  0  0  0  0  0  0
    2.4876    0.5197   -3.0300 O   0  0  0  0  0  0  0  0  0  0  0  0
    3.5338   -1.1875   -6.4007 C   0  0  1  0  0  0  0  0  0  0  0  0
    3.2050   -3.0967   -5.6305 C   0  0  1  0  0  0  0  0  0  0  0  0
    1.7896   -2.8387   -4.0617 C   0  0  0  0  0  0  0  0  0  0  0  0
    0.1381   -2.3476   -4.4965 C   0  0  0  0  0  0  0  0  0  0  0  0
    3.2447   -4.5074   -6.0905 C   0  0  0  0  0  0  0  0  0  0  0  0
    2.0560    0.1766   -6.4471 C   0  0  0  0  0  0  0  0  0  0  0  0
    2.1904    1.3461   -5.6375 N   0  0  0  0  0  0  0  0  0  0  0  0
    3.5744    1.7905   -5.4250 C   0  0  1  0  0  0  0  0  0  0  0  0
    3.4938    2.8032   -4.3670 C   0  0  0  0  0  0  0  0  0  0  0  0
    2.0719    2.8292   -3.7942 C   0  0  0  0  0  0  0  0  0  0  0  0
    1.2079    1.8376   -4.6016 C   0  0  0  0  0  0  0  0  0  0  0  0
    0.8367   -0.0176   -6.6953 O   0  0  0  0  0  0  0  0  0  0  0  0
  2  1  1  6
  2  3  1  0
  2  6  1  0
  3  4  1  0
  4 30  2  0
  5  4  1  0
  5  6  1  0
  5 27  1  0
  5  7  1  1
  7  8  1  0
  8  9  2  0
 10 11  1  0
 10 19  1  0
 10  8  1  6
 12 11  1  1
 12 13  1  0
 13 14  2  0
 13 26  1  0
 14 15  1  0
 14 23  1  0
 15 21  2  0
 16 15  1  0
 17 12  1  0
 17 16  1  6
 17 18  1  0
 18 20  1  0
 19 18  1  0
 21 22  1  0
 23 22  1  0
 23 24  2  0
 25 24  1  0
 26 25  2  0
 27 28  1  0
 27 29  1  0
 31  3  1  0
 31 36  1  1
 31 32  1  0
 32 33  1  0
 32 35  1  6
 33 34  1  0
 36 42  2  0
 37 36  1  0
 37 41  1  0
 38  2  1  0
 38 37  1  0
 38 39  1  1
 39 40  1  0
 41 40  1  0
M  END
>  <DRUGBANK_ID>  (1) 
DB11275

>  <COMMON_NAME>  (1) 
Epicriptine

>  <CAS_NUMBER>  (1) 
88660-47-3

>  <UNII>  (1) 
5M64643B5U

>  <SYNONYMS>  (1) 
dihydro-beta-ergocryptine; Epicriptina; Epicriptine; Epicriptinum; Epicryptine

$$$$
