
     RDKit          3D

  9  7  0  0  0  0  0  0  0  0999 V2000
    0.8571   -0.3493   -0.1278 C   0  0  0  0  0  0  0  0  0  0  0  0
    0.3125    0.5128   -1.2643 C   0  0  0  0  0  0  0  0  0  0  0  0
    0.3723   -1.7887   -0.1928 C   0  0  0  0  0  0  0  0  0  0  0  0
    1.1081    0.2011   -2.5207 C   0  0  0  0  0  0  0  0  0  0  0  0
   -0.2759   -2.1156    0.7916 O   0  0  0  0  0  0  0  0  0  0  0  0
    0.8842   -2.4426   -1.1704 O   0  0  0  0  0  0  0  0  0  0  0  0
    0.4713    0.0487   -3.5754 O   0  0  0  0  0  0  0  0  0  0  0  0
    2.3152    0.6075   -2.2104 O   0  0  0  0  0  0  0  0  0  0  0  0
    2.4311    1.5008   -0.2932 Fe  0  0  0  0  0 15  0  0  0  0  0  0
  2  1  1  0
  3  1  1  0
  4  2  1  0
  5  3  2  0
  6  3  1  0
  7  4  2  0
  8  4  1  0
M  CHG  3   6  -1   8  -1   9   2
M  END
>  <DRUGBANK_ID>  (1) 
DB14489

>  <SECONDARY_ACCESSION_NUMBERS>  (1) 
DBSALT000083

>  <COMMON_NAME>  (1) 
Ferrous succinate

>  <CAS_NUMBER>  (1) 
10030-90-7

>  <UNII>  (1) 
818ZYK7N91

>  <SYNONYMS>  (1) 
Iron succinate

$$$$
