
     RDKit          3D

 19 18  0  0  1  0  0  0  0  0999 V2000
    0.9537   -0.4614   -0.3203 C   0  0  0  0  0  0  0  0  0  0  0  0
    0.4747    0.2016   -1.5596 C   0  0  0  0  0  0  0  0  0  0  0  0
    0.9718   -0.7829   -2.6267 C   0  0  0  0  0  0  0  0  0  0  0  0
   -1.0369    0.2287   -1.3523 C   0  0  0  0  0  0  0  0  0  0  0  0
   -1.4173    1.1483   -0.3413 O   0  0  0  0  0  0  0  0  0  0  0  0
   -1.2719    1.1014    1.2607 P   0  0  0  0  0  0  0  0  0  0  0  0
   -0.8087    2.6132    1.4808 O   0  0  0  0  0  0  0  0  0  0  0  0
   -2.8234    1.0833    1.5928 O   0  0  0  0  0  0  0  0  0  0  0  0
   -0.4794    0.0894    2.0137 O   0  0  0  0  0  0  0  0  0  0  0  0
    1.1097    1.6278   -1.7627 C   0  0  1  0  0  0  0  0  0  0  0  0
    0.6086    2.5997   -0.8323 O   0  0  0  0  0  0  0  0  0  0  0  0
    2.6724    1.6724   -1.7473 C   0  0  0  0  0  0  0  0  0  0  0  0
    3.2908    1.8642   -2.7994 O   0  0  0  0  0  0  0  0  0  0  0  0
    3.3937    1.4593   -0.5951 N   0  0  0  0  0  0  0  0  0  0  0  0
    2.9651    1.2399    0.7863 C   0  0  0  0  0  0  0  0  0  0  0  0
    3.2331   -0.1916    1.3252 C   0  0  0  0  0  0  0  0  0  0  0  0
    4.6972   -0.3626    1.5233 C   0  0  0  0  0  0  0  0  0  0  0  0
    5.0168   -0.7650    2.7704 O   0  0  0  0  0  0  0  0  0  0  0  0
    5.5006   -0.2106    0.6336 O   0  0  0  0  0  0  0  0  0  0  0  0
  1  2  1  0
  2  3  1  0
  2  4  1  0
  4  5  1  0
  5  6  1  0
  6  7  1  0
  6  8  1  0
  6  9  2  0
 10  2  1  0
 10 11  1  1
 10 12  1  0
 12 13  2  0
 12 14  1  0
 14 15  1  0
 15 16  1  0
 16 17  1  0
 17 18  1  0
 17 19  2  0
M  END
>  <DRUGBANK_ID>  (1) 
DB16966

>  <COMMON_NAME>  (1) 
Phosphopantothenic acid

>  <CAS_NUMBER>  (1) 
5875-50-3

>  <UNII>  (1) 
1SCE5NG3E8

>  <SYNONYMS>  (1) 
.beta.-alanine, n-((2r)-2-hydroxy-3,3-dimethyl-1-oxo-4-(phosphonooxy)butyl)-; 4'-phospho-d-pantothenic acid; 4'-phosphopantothenic acid; D-pantothenic acid 4'-phosphate; Pantothenate phosphate; Pantothenic acid, 4'-(dihydrogen phosphate)

$$$$
