
     RDKit          3D

 26 27  0  0  0  0  0  0  0  0999 V2000
   -1.2273    0.4725    0.1138 C   0  0  0  0  0  0  0  0  0  0  0  0
   -1.1686    1.8854    0.0697 C   0  0  0  0  0  0  0  0  0  0  0  0
    0.0642    2.5475   -0.0263 C   0  0  0  0  0  0  0  0  0  0  0  0
    1.2167    1.7572   -0.0451 C   0  0  0  0  0  0  0  0  0  0  0  0
    1.1669    0.3615   -0.0136 C   0  0  0  0  0  0  0  0  0  0  0  0
   -0.0570   -0.3010    0.0209 C   0  0  0  0  0  0  0  0  0  0  0  0
   -0.0362   -1.6764    0.0370 O   0  0  0  0  0  0  0  0  0  0  0  0
   -0.5528   -2.3756   -1.0355 C   0  0  0  0  0  0  0  0  0  0  0  0
   -1.1027   -4.5645   -1.8962 C   0  0  0  0  0  0  0  0  0  0  0  0
   -1.7696   -3.9834   -2.9674 C   0  0  0  0  0  0  0  0  0  0  0  0
   -1.8174   -2.5921   -3.1184 C   0  0  0  0  0  0  0  0  0  0  0  0
   -1.1563   -1.8018   -2.1595 C   0  0  0  0  0  0  0  0  0  0  0  0
   -0.5012   -3.7655   -0.9274 C   0  0  0  0  0  0  0  0  0  0  0  0
   -2.9545   -0.3185    0.2952 Br  0  0  0  0  0  0  0  0  0  0  0  0
    2.8270   -0.5647   -0.0208 Br  0  0  0  0  0  0  0  0  0  0  0  0
    1.3009    4.7175   -0.1834 C   0  0  0  0  0  0  0  0  0  0  0  0
    1.1979    6.2202   -0.1912 C   0  0  0  0  0  0  0  0  0  0  0  0
    2.4345    4.2499   -0.2931 O   0  0  0  0  0  0  0  0  0  0  0  0
    1.9439    6.7946    0.9823 C   0  0  0  0  0  0  0  0  0  0  0  0
    2.9995    7.5846    0.6911 O   0  0  0  0  0  0  0  0  0  0  0  0
    1.6027    6.5867    2.1443 O   0  0  0  0  0  0  0  0  0  0  0  0
   -2.3446   -4.8770   -3.8238 O   0  0  0  0  0  0  0  0  0  0  0  0
    0.1228    3.9771   -0.0862 N   0  0  0  0  0  0  0  0  0  0  0  0
   -2.5450   -1.8842   -4.2431 C   0  0  0  0  0  0  0  0  0  0  0  0
   -1.8792   -2.2076   -5.5803 C   0  0  0  0  0  0  0  0  0  0  0  0
   -4.0468   -2.1897   -4.2202 C   0  0  0  0  0  0  0  0  0  0  0  0
  1  2  2  0
  1  6  1  0
  1 14  1  0
  2  3  1  0
  3  4  2  0
  3 23  1  0
  4  5  1  0
  5  6  2  0
  5 15  1  0
  6  7  1  0
  7  8  1  0
  8 13  2  0
  9 10  2  0
  9 13  1  0
 10 11  1  0
 10 22  1  0
 11 12  2  0
 11 24  1  0
 12  8  1  0
 16 17  1  0
 16 18  2  0
 16 23  1  0
 17 19  1  0
 19 20  1  0
 19 21  2  0
 24 25  1  0
 24 26  1  0
M  END
>  <DRUGBANK_ID>  (1) 
DB05035

>  <COMMON_NAME>  (1) 
Eprotirome

>  <CAS_NUMBER>  (1) 
355129-15-6

>  <UNII>  (1) 
958AQ7B6R1

>  <SYNONYMS>  (1) 
Eprotirome

$$$$
