
     RDKit          3D

 27 30  0  0  0  0  0  0  0  0999 V2000
    2.8082   12.0952    0.7283 C   0  0  2  0  0  0  0  0  0  0  0  0
    2.5722   10.7262    0.8804 C   0  0  2  0  0  0  0  0  0  0  0  0
    2.6191   13.0653    5.4411 C   0  0  1  0  0  0  0  0  0  0  0  0
    3.5034   11.0077   -0.0322 C   0  0  2  0  0  0  0  0  0  0  0  0
    2.1278   11.4053    2.7058 C   0  0  2  0  0  0  0  0  0  0  0  0
    3.0527   12.4879    3.6883 C   0  0  1  0  0  0  0  0  0  0  0  0
    1.1882   12.9757    5.7975 C   0  0  0  0  0  0  0  0  0  0  0  0
    3.9518   12.9140    1.4229 C   0  0  0  0  0  0  0  0  0  0  0  0
    3.4062   13.6191    2.5997 C   0  0  2  0  0  0  0  0  0  0  0  0
    3.8081   12.2261   -1.1849 C   0  0  1  0  0  0  0  0  0  0  0  0
    3.0644   12.4260    7.2513 C   0  0  0  0  0  0  0  0  0  0  0  0
    3.8130   10.8475   -0.9328 C   0  0  0  0  0  0  0  0  0  0  0  0
    1.1144   13.8113    6.9164 C   0  0  0  0  0  0  0  0  0  0  0  0
    1.5549   10.6696    4.1068 C   0  0  0  0  0  0  0  0  0  0  0  0
    2.5086   12.8529    8.4975 C   0  0  0  0  0  0  0  0  0  0  0  0
    2.9767    9.1317   -0.7157 C   0  0  0  0  0  0  0  0  0  0  0  0
    1.0617   13.0319    8.1538 C   0  0  0  0  0  0  0  0  0  0  0  0
    0.6859   11.6174    5.2970 C   0  0  0  0  0  0  0  0  0  0  0  0
    2.0752    8.9420   -1.5415 O   0  0  0  0  0  0  0  0  0  0  0  0
    0.1352   12.3130    8.4709 O   0  0  0  0  0  0  0  0  0  0  0  0
    1.5013   12.6279    0.1369 C   0  0  0  0  0  0  0  0  0  0  0  0
    4.4256   14.4324    3.1643 O   0  0  0  0  0  0  0  0  0  0  0  0
    2.0549   14.6093    4.7312 C   0  0  0  0  0  0  0  0  0  0  0  0
    4.7130   10.3540    1.2161 C   0  0  0  0  0  0  0  0  0  0  0  0
    3.3845   12.5509   -2.6208 C   0  0  0  0  0  0  0  0  0  0  0  0
    4.2293    8.1098   -0.6087 C   0  0  0  0  0  0  0  0  0  0  0  0
    5.6896    8.5400   -0.9505 C   0  0  0  0  0  0  0  0  0  0  0  0
  1 21  1  6
  2  1  1  0
  3  6  1  0
  3 23  1  1
  4  1  1  0
  4 16  1  0
  4 24  1  1
  5  2  1  0
  6  9  1  6
  6  5  1  0
  7  3  1  0
  7 18  1  0
  8  1  1  0
  9  8  1  0
  9 22  1  1
 10  4  1  0
 10 12  1  0
 10 25  1  6
 11  3  1  0
  2 12  1  6
 13  7  2  0
  5 14  1  1
 15 11  2  0
 17 15  1  0
 17 13  1  0
 18 14  1  0
 19 16  2  0
 20 17  2  0
 26 16  1  0
 27 26  1  0
M  END
>  <DRUGBANK_ID>  (1) 
DB00896

>  <SECONDARY_ACCESSION_NUMBERS>  (1) 
APRD01220

>  <COMMON_NAME>  (1) 
Rimexolone

>  <CAS_NUMBER>  (1) 
49697-38-3

>  <UNII>  (1) 
O7M2E4264D

>  <SYNONYMS>  (1) 
Rimexolon; Rimexolona; Rimexolone

$$$$
