
     RDKit          3D

 38 41  0  0  0  0  0  0  0  0999 V2000
    0.9507   -0.3491   -0.0697 C   0  0  0  0  0  0  0  0  0  0  0  0
    0.4737   -1.5334   -0.8827 C   0  0  0  0  0  0  0  0  0  0  0  0
   -0.2795   -1.4131   -1.9995 C   0  0  0  0  0  0  0  0  0  0  0  0
   -0.4144   -2.7794   -2.5716 C   0  0  0  0  0  0  0  0  0  0  0  0
   -0.9115   -3.0276   -3.6436 O   0  0  0  0  0  0  0  0  0  0  0  0
    0.1535   -3.6693   -1.6660 N   0  0  0  0  0  0  0  0  0  0  0  0
    0.7444   -2.8951   -0.6069 N   0  0  0  0  0  0  0  0  0  0  0  0
    1.5571   -3.4854    0.4463 C   0  0  0  0  0  0  0  0  0  0  0  0
    0.3057   -5.0503   -1.9775 C   0  0  0  0  0  0  0  0  0  0  0  0
    0.7486   -5.4617   -3.2560 C   0  0  0  0  0  0  0  0  0  0  0  0
    0.8041   -6.8170   -3.6285 C   0  0  0  0  0  0  0  0  0  0  0  0
    0.3696   -7.7939   -2.7431 C   0  0  0  0  0  0  0  0  0  0  0  0
   -0.1449   -7.4052   -1.5062 C   0  0  0  0  0  0  0  0  0  0  0  0
   -0.2140   -6.0437   -1.1432 C   0  0  0  0  0  0  0  0  0  0  0  0
   -0.9245   -0.2724   -2.7189 C   0  0  0  0  0  0  0  0  0  0  0  0
   -0.2999   -0.1244   -4.0783 N   0  0  0  0  0  0  0  0  0  0  0  0
   -1.0250   -0.1249   -5.2471 C   0  0  0  0  0  0  0  0  0  0  0  0
   -2.1834    0.5960   -5.2908 C   0  0  0  0  0  0  0  0  0  0  0  0
   -3.1579    0.2808   -6.2110 C   0  0  0  0  0  0  0  0  0  0  0  0
   -2.8454   -0.2526   -7.4288 C   0  0  0  0  0  0  0  0  0  0  0  0
   -1.5851   -0.8431   -7.5300 C   0  0  0  0  0  0  0  0  0  0  0  0
   -0.7466   -0.8976   -6.3791 C   0  0  0  0  0  0  0  0  0  0  0  0
   -3.9904   -0.1440   -8.7969 S   0  0  0  0  0  0  0  0  0  0  0  0
   -3.2763    0.5238   -9.8681 O   0  0  0  0  0  0  0  0  0  0  0  0
   -4.4961   -1.4869   -8.9951 O   0  0  0  0  0  0  0  0  0  0  0  0
   -5.3407    0.8529   -8.5214 N   0  0  0  0  0  0  0  0  0  0  0  0
   -5.5913    1.6042   -7.3486 C   0  0  0  0  0  0  0  0  0  0  0  0
   -4.6789    2.5269   -6.8766 C   0  0  0  0  0  0  0  0  0  0  0  0
   -4.7537    2.9326   -5.5326 C   0  0  0  0  0  0  0  0  0  0  0  0
   -5.8251    2.5482   -4.7464 C   0  0  0  0  0  0  0  0  0  0  0  0
   -6.7761    1.7508   -5.2810 N   0  0  0  0  0  0  0  0  0  0  0  0
   -6.6417    1.2406   -6.5888 N   0  0  0  0  0  0  0  0  0  0  0  0
   -5.9891    2.8768   -3.4262 O   0  0  0  0  0  0  0  0  0  0  0  0
   -4.9354    3.6238   -2.8176 C   0  0  0  0  0  0  0  0  0  0  0  0
   -2.8450   -0.5446   -2.4304 S   0  0  0  0  0  0  0  0  0  0  0  0
   -3.1115   -1.0065   -1.0890 O   0  0  0  0  0  0  0  0  0  0  0  0
   -3.6321    0.5789   -2.9152 O   0  0  0  0  0  0  0  0  0  0  0  0
   -3.1632   -1.7687   -3.4288 O   0  0  0  0  0  0  0  0  0  0  0  0
  1  2  1  0
  2  3  2  0
  2  7  1  0
  3  4  1  0
  3 15  1  0
  4  5  2  0
  4  6  1  0
  6  7  1  0
  6  9  1  0
  7  8  1  0
  9 10  2  0
  9 14  1  0
 10 11  1  0
 11 12  2  0
 12 13  1  0
 13 14  2  0
 15 16  1  0
 15 35  1  0
 16 17  1  0
 17 18  2  0
 17 22  1  0
 18 19  1  0
 19 20  2  0
 20 21  1  0
 20 23  1  0
 21 22  2  0
 23 24  2  0
 23 25  2  0
 23 26  1  0
 26 27  1  0
 27 28  2  0
 27 32  1  0
 28 29  1  0
 29 30  2  0
 30 31  1  0
 30 33  1  0
 31 32  2  0
 33 34  1  0
 35 36  2  0
 35 37  2  0
 35 38  1  0
M  END
>  <DRUGBANK_ID>  (1) 
DB13556

>  <COMMON_NAME>  (1) 
Sulfamazone

>  <CAS_NUMBER>  (1) 
65761-24-2

>  <UNII>  (1) 
D7B8U8VA9J

>  <SYNONYMS>  (1) 
Sulfamazone

$$$$
