
     RDKit          3D

 13 12  0  0  0  0  0  0  0  0999 V2000
    0.7802   -0.0925   -0.1500 O   0  0  0  0  0  0  0  0  0  0  0  0
    0.3343    1.1870    0.2659 C   0  0  0  0  0  0  0  0  0  0  0  0
    0.9208    1.5369    1.6292 C   0  0  0  0  0  0  0  0  0  0  0  0
    2.4523    1.5999    1.5932 C   0  0  0  0  0  0  0  0  0  0  0  0
    6.5765    7.3729    3.0812 C   0  0  0  0  0  0  0  0  0  0  0  0
    5.0488    7.3714    3.0058 C   0  0  0  0  0  0  0  0  0  0  0  0
    2.9484    2.6444    0.5876 C   0  0  0  0  0  0  0  0  0  0  0  0
    4.5439    6.9021    1.6368 C   0  0  0  0  0  0  0  0  0  0  0  0
    2.4511    4.0454    0.9594 C   0  0  0  0  0  0  0  0  0  0  0  0
    2.9761    4.4573    2.3388 C   0  0  0  0  0  0  0  0  0  0  0  0
    5.0351    5.4860    1.3164 C   0  0  0  0  0  0  0  0  0  0  0  0
    4.5081    4.4821    2.3466 C   0  0  0  0  0  0  0  0  0  0  0  0
    7.1688    8.3091    2.0402 C   0  0  0  0  0  0  0  0  0  0  0  0
  1  2  1  0
  3  2  1  0
  4  3  1  0
  5 13  1  0
  6  5  1  0
  7  4  1  0
  8  6  1  0
  9  7  1  0
 10  9  1  0
 11  8  1  0
 12 10  1  0
 12 11  1  0
M  END
>  <DRUGBANK_ID>  (1) 
DB06894

>  <COMMON_NAME>  (1) 
1-Dodecanol

>  <CAS_NUMBER>  (1) 
112-53-8

>  <UNII>  (1) 
178A96NLP2

>  <SYNONYMS>  (1) 
Dodecan-1-ol; Dodecanol; Dodecyl alcohol; Dodecylalcohol; Lauroyl alcohol; Lauryl alcohol; Undecyl carbinol

$$$$
