
     RDKit          3D

 30 34  0  0  1  0  0  0  0  0999 V2000
   -0.5495    0.0700    0.3655 C   0  0  0  0  0  0  0  0  0  0  0  0
   -0.2830    1.1453    1.3743 C   0  0  0  0  0  0  0  0  0  0  0  0
    0.7627    2.2107    0.8911 C   0  0  2  0  0  0  0  0  0  0  0  0
    1.7893    2.1731   -0.2753 C   0  0  1  0  0  0  0  0  0  0  0  0
    2.1981    1.6626    1.0541 C   0  0  2  0  0  0  0  0  0  0  0  0
    2.4522    0.1732    0.9332 C   0  0  0  0  0  0  0  0  0  0  0  0
    2.1893   -0.0597   -0.4907 N   0  0  0  0  0  0  0  0  0  0  0  0
    1.7645    1.0954   -1.3003 C   0  0  0  0  0  0  0  0  0  0  0  0
    2.2224   -1.4164   -0.9996 C   0  0  0  0  0  0  0  0  0  0  0  0
    3.6944   -1.4940   -1.2867 C   0  0  0  0  0  0  0  0  0  0  0  0
    4.0567   -0.2722   -2.1749 C   0  0  0  0  0  0  0  0  0  0  0  0
    5.3180   -0.7232   -2.7268 C   0  0  0  0  0  0  0  0  0  0  0  0
    6.2891    0.1037   -3.2301 C   0  0  0  0  0  0  0  0  0  0  0  0
    7.4333   -0.5351   -3.6384 C   0  0  0  0  0  0  0  0  0  0  0  0
    7.5528   -1.9382   -3.5096 C   0  0  0  0  0  0  0  0  0  0  0  0
    6.5311   -2.7411   -2.9972 C   0  0  0  0  0  0  0  0  0  0  0  0
    5.3883   -2.1166   -2.6235 C   0  0  0  0  0  0  0  0  0  0  0  0
    4.1550   -2.7240   -2.0199 C   0  0  0  0  0  0  0  0  0  0  0  0
    4.4268   -1.5113   -0.0333 O   0  0  0  0  0  0  0  0  0  0  0  0
    0.1828    3.5806    1.1775 C   0  0  0  0  0  0  0  0  0  0  0  0
   -0.8849    4.0851    0.4378 C   0  0  0  0  0  0  0  0  0  0  0  0
   -1.7379    5.0449    0.9904 C   0  0  0  0  0  0  0  0  0  0  0  0
   -1.5633    5.4710    2.3167 C   0  0  0  0  0  0  0  0  0  0  0  0
   -0.5166    4.9525    3.0814 C   0  0  0  0  0  0  0  0  0  0  0  0
    0.4071    4.1600    2.4146 C   0  0  0  0  0  0  0  0  0  0  0  0
   -0.3643    5.3570    4.4495 N   0  0  0  0  0  0  0  0  0  0  0  0
    0.5833    4.6455    5.6425 S   0  0  0  0  0  0  0  0  0  0  0  0
    1.3175    5.7095    6.2362 O   0  0  0  0  0  0  0  0  0  0  0  0
   -0.3184    3.8261    6.4709 O   0  0  0  0  0  0  0  0  0  0  0  0
    1.7617    3.5107    4.9245 C   0  0  0  0  0  0  0  0  0  0  0  0
  1  2  1  0
  3  2  1  6
  3  4  1  0
  3  5  1  0
  3 20  1  0
  4  5  1  0
  4  8  1  6
  5  6  1  6
  6  7  1  0
  7  8  1  0
  7  9  1  0
  9 10  1  0
 10 11  1  0
 10 18  1  0
 10 19  1  0
 11 12  1  0
 12 13  1  0
 12 17  2  0
 13 14  2  0
 14 15  1  0
 15 16  2  0
 16 17  1  0
 17 18  1  0
 20 21  2  0
 20 25  1  0
 21 22  1  0
 22 23  2  0
 23 24  1  0
 24 25  2  0
 24 26  1  0
 26 27  1  0
 27 28  2  0
 27 29  2  0
 27 30  1  0
M  END
>  <DRUGBANK_ID>  (1) 
DB12196

>  <COMMON_NAME>  (1) 
CP-866087

>  <CAS_NUMBER>  (1) 
519052-02-9

>  <UNII>  (1) 
MDH21334PI

$$$$
