
     RDKit          3D

 23 24  0  0  0  0  0  0  0  0999 V2000
   -5.5658   -3.0896   -0.3378 C   0  0  0  0  0  0  0  0  0  0  0  0
   -4.1601   -3.2344   -0.2664 C   0  0  0  0  0  0  0  0  0  0  0  0
   -6.0699   -1.8006   -0.5316 C   0  0  0  0  0  0  0  0  0  0  0  0
   -7.0788    1.7051    0.4595 C   0  0  0  0  0  0  0  0  0  0  0  0
   -2.9952    0.4205   -0.3440 C   0  0  0  0  0  0  0  0  0  0  0  0
   -3.3993    1.7226   -0.2118 C   0  0  0  0  0  0  0  0  0  0  0  0
   -3.8321   -0.8020   -0.5002 C   0  0  0  0  0  0  0  0  0  0  0  0
   -5.1845   -0.7596   -0.8121 C   0  0  0  0  0  0  0  0  0  0  0  0
   -3.3212   -2.0818   -0.2976 C   0  0  0  0  0  0  0  0  0  0  0  0
   -7.5813    2.4932   -0.5798 C   0  0  0  0  0  0  0  0  0  0  0  0
   -5.7067    1.6178    0.6953 C   0  0  0  0  0  0  0  0  0  0  0  0
   -4.7946    2.1854   -0.2046 C   0  0  0  0  0  0  0  0  0  0  0  0
   -6.6628    3.1391   -1.4236 C   0  0  0  0  0  0  0  0  0  0  0  0
   -6.5559   -4.0051   -0.1704 O   0  0  0  0  0  0  0  0  0  0  0  0
   -7.3770   -1.3719   -0.4520 O   0  0  0  0  0  0  0  0  0  0  0  0
   -3.3691   -4.3448   -0.1113 O   0  0  0  0  0  0  0  0  0  0  0  0
   -7.8733    0.8668    1.1984 O   0  0  0  0  0  0  0  0  0  0  0  0
   -5.2781    3.0005   -1.2351 C   0  0  0  0  0  0  0  0  0  0  0  0
   -8.8993    2.6942   -0.8975 O   0  0  0  0  0  0  0  0  0  0  0  0
   -6.5562   -5.2552   -0.8119 C   0  0  0  0  0  0  0  0  0  0  0  0
   -3.9646   -5.5620    0.2552 C   0  0  0  0  0  0  0  0  0  0  0  0
   -8.4052   -2.2656   -0.0317 C   0  0  0  0  0  0  0  0  0  0  0  0
   -9.8560    2.1376    0.0008 C   0  0  0  0  0  0  0  0  0  0  0  0
  2  1  2  0
  3  1  1  0
  4 11  2  0
  5  7  1  0
  6  5  2  0
  7  8  1  0
  8  3  2  0
  9  2  1  0
  9  7  2  0
 10 13  2  0
 10  4  1  0
 11 12  1  0
 12  6  1  0
 13 18  1  0
 14  1  1  0
 15  3  1  0
 16  2  1  0
 17  4  1  0
 18 12  2  0
 19 10  1  0
 20 14  1  0
 21 16  1  0
 22 15  1  0
 23 19  1  0
M  END
>  <DRUGBANK_ID>  (1) 
DB14680

>  <COMMON_NAME>  (1) 
Combretastatin A4

>  <CAS_NUMBER>  (1) 
117048-59-6

>  <UNII>  (1) 
16U6OP69RQ

>  <SYNONYMS>  (1) 
2'-deoxycombretastatin A1; CA4; Combrestatin A4; Combretastatin 4; Combretastatin A-4; PHENOL, 2-METHOXY-5-(2-(3,4,5-TRIMETHOXYPHENYL)ETHENYL)-, (Z)-

$$$$
