GS7
     RDKit          3D

 34 37  0  0  0  0  0  0  0  0999 V2000
   -0.9351    1.4412   -0.0282 C   0  0  0  0  0  0  0  0  0  0  0  0
   -2.0576    0.6702   -0.2195 N   0  0  0  0  0  0  0  0  0  0  0  0
    0.3145    0.7713   -0.0360 C   0  0  0  0  0  0  0  0  0  0  0  0
    0.2988   -0.5815   -0.2937 C   0  0  0  0  0  0  0  0  0  0  0  0
    1.5532   -1.0884   -0.0949 N   0  0  0  0  0  0  0  0  0  0  0  0
    2.4412   -0.0608    0.0070 C   0  0  0  0  0  0  0  0  0  0  0  0
    1.6972    1.0889    0.1037 C   0  0  0  0  0  0  0  0  0  0  0  0
   -0.7586   -1.3177   -0.6119 N   0  0  0  0  0  0  0  0  0  0  0  0
   -1.9227   -0.6509   -0.5250 C   0  0  0  0  0  0  0  0  0  0  0  0
   -3.0702   -1.4602   -0.5151 N   0  0  0  0  0  0  0  0  0  0  0  0
   -3.0528   -2.8469   -0.2294 C   0  0  0  0  0  0  0  0  0  0  0  0
   -2.5659   -3.4721    0.9415 C   0  0  0  0  0  0  0  0  0  0  0  0
   -2.0680   -2.9145    2.0974 O   0  0  0  0  0  0  0  0  0  0  0  0
   -2.0554   -1.5073    2.2569 C   0  0  0  0  0  0  0  0  0  0  0  0
   -3.6068   -3.6651   -1.2295 C   0  0  0  0  0  0  0  0  0  0  0  0
   -3.6178   -5.0561   -1.1296 C   0  0  0  0  0  0  0  0  0  0  0  0
   -3.0580   -5.6979   -0.0256 C   0  0  0  0  0  0  0  0  0  0  0  0
   -2.5426   -4.8909    1.0050 C   0  0  0  0  0  0  0  0  0  0  0  0
   -2.9103   -7.2010   -0.0106 C   0  0  0  0  0  0  0  0  0  0  0  0
   -4.4896   -8.0558   -0.1001 S   0  0  0  0  0  0  0  0  0  0  0  0
   -5.2289   -7.6153   -1.2707 O   0  0  0  0  0  0  0  0  0  0  0  0
   -4.2239   -9.4723    0.0765 O   0  0  0  0  0  0  0  0  0  0  0  0
   -5.3820   -7.5139    1.3376 C   0  0  0  0  0  0  0  0  0  0  0  0
   -0.3941    2.7793   -2.5036 O   0  0  0  0  0  0  0  0  0  0  0  0
    0.6731    3.2687   -2.1817 C   0  0  0  0  0  0  0  0  0  0  0  0
    1.6878    3.2741   -3.1015 N   0  0  0  0  0  0  0  0  0  0  0  0
    0.9301    3.8932   -0.8386 C   0  0  0  0  0  0  0  0  0  0  0  0
    2.1671    4.5023   -0.5632 C   0  0  0  0  0  0  0  0  0  0  0  0
    3.1841    4.4339   -1.4388 F   0  0  0  0  0  0  0  0  0  0  0  0
    2.4435    5.0767    0.6751 C   0  0  0  0  0  0  0  0  0  0  0  0
    1.4540    5.1116    1.6496 C   0  0  0  0  0  0  0  0  0  0  0  0
    0.2158    4.5061    1.4067 C   0  0  0  0  0  0  0  0  0  0  0  0
   -0.0140    3.7831    0.2166 C   0  0  0  0  0  0  0  0  0  0  0  0
   -1.0608    2.8265    0.2352 N   0  0  0  0  0  0  0  0  0  0  0  0
  1  2  2  0
  1  3  1  0
  1 34  1  0
  2  9  1  0
  3  4  2  0
  3  7  1  0
  4  5  1  0
  4  8  1  0
  5  6  1  0
  6  7  2  0
  8  9  2  0
  9 10  1  0
 10 11  1  0
 11 12  2  0
 11 15  1  0
 12 13  1  0
 12 18  1  0
 13 14  1  0
 15 16  2  0
 16 17  1  0
 17 18  2  0
 17 19  1  0
 19 20  1  0
 20 21  2  0
 20 22  2  0
 20 23  1  0
 24 25  2  0
 25 26  1  0
 25 27  1  0
 27 28  2  0
 27 33  1  0
 28 29  1  0
 28 30  1  0
 30 31  2  0
 31 32  1  0
 32 33  2  0
 33 34  1  0
M  END
>  <DRUGBANK_ID>  (1) 
DB07845

>  <COMMON_NAME>  (1) 
2-fluoro-6-{[2-({2-methoxy-4-[(methylsulfonyl)methyl]phenyl}amino)-7H-pyrrolo[2,3-d]pyrimidin-4-yl]amino}benzamide

$$$$
