
     RDKit          3D

 17 18  0  0  0  0  0  0  0  0999 V2000
   -0.6603   -1.2445    0.0281 N   0  0  0  0  0  0  0  0  0  0  0  0
   -1.4678   -0.1034    0.0232 C   0  0  0  0  0  0  0  0  0  0  0  0
   -0.7825    1.1043    0.1309 N   0  0  0  0  0  0  0  0  0  0  0  0
    0.7270   -1.1170    0.1029 C   0  0  0  0  0  0  0  0  0  0  0  0
    1.3537    0.0563    0.0145 C   0  0  0  0  0  0  0  0  0  0  0  0
    0.5676    1.2920   -0.0245 C   0  0  0  0  0  0  0  0  0  0  0  0
   -3.0010   -3.9154    0.6149 C   0  0  1  0  0  0  0  0  0  0  0  0
   -1.5262   -3.6040    0.8684 C   0  0  2  0  0  0  0  0  0  0  0  0
   -1.1675   -2.6094   -0.2510 C   0  0  1  0  0  0  0  0  0  0  0  0
   -2.1932   -2.6781   -1.2622 O   0  0  0  0  0  0  0  0  0  0  0  0
   -3.1469   -3.6947   -0.8864 C   0  0  2  0  0  0  0  0  0  0  0  0
   -4.5540   -3.2335   -1.2397 C   0  0  0  0  0  0  0  0  0  0  0  0
   -0.7105   -4.7873    0.6661 O   0  0  0  0  0  0  0  0  0  0  0  0
   -3.3786   -5.2334    1.0088 O   0  0  0  0  0  0  0  0  0  0  0  0
   -2.6887   -0.1033   -0.0844 O   0  0  0  0  0  0  0  0  0  0  0  0
    1.0827    2.4019   -0.1690 O   0  0  0  0  0  0  0  0  0  0  0  0
    2.6936    0.1510   -0.0635 F   0  0  0  0  0  0  0  0  0  0  0  0
  2  1  1  0
  3  2  1  0
  4  1  1  0
  5  4  2  0
  6  3  1  0
  6  5  1  0
  7 14  1  6
  8  7  1  0
  8 13  1  6
  9  1  1  1
  9  8  1  0
 10  9  1  0
 11  7  1  0
 11 10  1  0
 11 12  1  1
 15  2  2  0
 16  6  2  0
 17  5  1  0
M  END
>  <DRUGBANK_ID>  (1) 
DB12947

>  <COMMON_NAME>  (1) 
Doxifluridine

>  <CAS_NUMBER>  (1) 
3094-09-5

>  <UNII>  (1) 
V1JK16Y2JP

>  <SYNONYMS>  (1) 
1-(Î²-D-5-desoxyribofuranoxyl)-5-fluoruracil; 5-fluoro-5'-deoxyuridine; 5'-deoxy-5-fluorouridine; 5'-DFUR; Doxifluridina; Doxifluridine; Doxifluridinum

$$$$
