
     RDKit          3D

 31 33  0  0  1  0  0  0  0  0999 V2000
   -0.5224   -8.6299    2.3240 C   0  0  0  0  0  0  0  0  0  0  0  0
    0.1992   -7.4208    2.7556 N   0  0  0  0  0  0  0  0  0  0  0  0
   -0.1630   -6.6720    3.8692 C   0  0  0  0  0  0  0  0  0  0  0  0
   -0.8334   -7.0671    5.0402 C   0  0  0  0  0  0  0  0  0  0  0  0
   -1.1861   -8.4459    5.4233 C   0  0  0  0  0  0  0  0  0  0  0  0
   -1.9496   -8.6606    6.5334 N   0  0  0  0  0  0  0  0  0  0  0  0
   -0.8361   -9.4660    4.8310 O   0  0  0  0  0  0  0  0  0  0  0  0
   -1.0873   -5.8479    5.7489 C   0  0  0  0  0  0  0  0  0  0  0  0
   -0.5694   -4.7623    5.1280 N   0  0  0  0  0  0  0  0  0  0  0  0
    0.0855   -5.2481    3.9998 N   0  0  0  0  0  0  0  0  0  0  0  0
    0.5975   -4.2974    2.9498 C   0  0  1  0  0  0  0  0  0  0  0  0
    1.5744   -3.0657    3.1322 C   0  0  0  0  0  0  0  0  0  0  0  0
    2.2534   -2.9036    1.7535 C   0  0  0  0  0  0  0  0  0  0  0  0
    2.4232   -4.2482    1.2881 N   0  0  0  0  0  0  0  0  0  0  0  0
    1.3734   -5.0704    1.8651 C   0  0  0  0  0  0  0  0  0  0  0  0
    3.4570   -4.8459    0.5930 C   0  0  0  0  0  0  0  0  0  0  0  0
    3.5144   -6.0714    0.4502 O   0  0  0  0  0  0  0  0  0  0  0  0
    4.5893   -4.0547    0.0130 C   0  0  0  0  0  0  0  0  0  0  0  0
    4.7468   -2.7302   -0.0880 C   0  0  0  0  0  0  0  0  0  0  0  0
   -1.8334   -5.7430    7.0211 C   0  0  0  0  0  0  0  0  0  0  0  0
   -2.4697   -5.8994    8.0638 C   0  0  0  0  0  0  0  0  0  0  0  0
   -3.2136   -6.1955    9.3060 C   0  0  0  0  0  0  0  0  0  0  0  0
   -4.3157   -7.0849    9.3615 C   0  0  0  0  0  0  0  0  0  0  0  0
   -5.0580   -7.2619   10.5539 C   0  0  0  0  0  0  0  0  0  0  0  0
   -6.1673   -8.0527   10.7297 O   0  0  0  0  0  0  0  0  0  0  0  0
   -6.6279   -8.7944    9.6107 C   0  0  0  0  0  0  0  0  0  0  0  0
   -4.6934   -6.5733   11.7133 C   0  0  0  0  0  0  0  0  0  0  0  0
   -3.5845   -5.7329   11.7030 C   0  0  0  0  0  0  0  0  0  0  0  0
   -3.1417   -5.0179   12.7889 O   0  0  0  0  0  0  0  0  0  0  0  0
   -3.8914   -5.1431   14.0000 C   0  0  0  0  0  0  0  0  0  0  0  0
   -2.8497   -5.5618   10.5077 C   0  0  0  0  0  0  0  0  0  0  0  0
  1  2  1  0
  2  3  1  0
  3  4  2  0
  3 10  1  0
  4  5  1  0
  4  8  1  0
  5  6  1  0
  5  7  2  0
  8  9  2  0
  8 20  1  0
  9 10  1  0
 11 12  1  0
 11 15  1  0
 11 10  1  1
 12 13  1  0
 13 14  1  0
 14 15  1  0
 14 16  1  0
 16 17  2  0
 16 18  1  0
 18 19  2  0
 20 21  3  0
 21 22  1  0
 22 23  2  0
 22 31  1  0
 23 24  1  0
 24 25  1  0
 24 27  2  0
 25 26  1  0
 27 28  1  0
 28 29  1  0
 28 31  2  0
 29 30  1  0
M  END
>  <DRUGBANK_ID>  (1) 
DB18191

>  <COMMON_NAME>  (1) 
Gunagratinib

>  <CAS_NUMBER>  (1) 
2211082-53-8

>  <UNII>  (1) 
9D589FD91A

>  <SYNONYMS>  (1) 
(s)-1-(1-acryloylpyrrolidin-3-yl)-3-((3,5-dimethoxyphenyl)ethynyl)-5-(methylamino)-1h-pyrazole-4-carboxamide; 1h-pyrazole-4-carboxamide, 3-(2-(3,5-dimethoxyphenyl)ethynyl)-5-(methylamino)-1-((3s)-1-(1-oxo-2-propen-1-yl)-3-pyrrolidinyl)-

$$$$
