
     RDKit          3D

 35 36  0  0  0  0  0  0  0  0999 V2000
    1.0083    0.2359    0.1140 O   0  0  0  0  0  0  0  0  0  0  0  0
   -5.5894    2.5469    3.0796 O   0  0  0  0  0  0  0  0  0  0  0  0
    1.0724    0.8680    2.3075 O   0  0  0  0  0  0  0  0  0  0  0  0
   -3.8449    3.7865    2.8021 O   0  0  0  0  0  0  0  0  0  0  0  0
    2.4338   -0.0083   -2.4540 O   0  0  0  0  0  0  0  0  0  0  0  0
   -5.6602    1.3320   -0.0071 O   0  0  0  0  0  0  0  0  0  0  0  0
    2.6528    5.4096    3.5203 O   0  0  0  0  0  0  0  0  0  0  0  0
    2.6280    4.1156    1.7468 O   0  0  0  0  0  0  0  0  0  0  0  0
   -3.0405   -0.3951    0.7798 N   0  0  0  0  0  0  0  0  0  0  0  0
    2.0929    4.6249    2.7440 N   0  0  0  0  0  0  0  0  0  0  0  0
   -1.8906    1.8787    1.6751 C   0  0  0  0  0  0  0  0  0  0  0  0
   -1.0324    0.6697    1.1685 C   0  0  0  0  0  0  0  0  0  0  0  0
   -3.3396    1.4171    2.2584 C   0  0  0  0  0  0  0  0  0  0  0  0
   -1.1352    2.8123    2.5989 C   0  0  0  0  0  0  0  0  0  0  0  0
   -1.7001   -0.4350    0.7839 C   0  0  0  0  0  0  0  0  0  0  0  0
   -3.6934    0.1545    1.8506 C   0  0  0  0  0  0  0  0  0  0  0  0
    0.4321    0.5947    1.2692 C   0  0  0  0  0  0  0  0  0  0  0  0
   -4.2522    2.6173    2.8440 C   0  0  0  0  0  0  0  0  0  0  0  0
    0.0395    3.4235    2.1625 C   0  0  0  0  0  0  0  0  0  0  0  0
   -1.6338    3.1755    3.8528 C   0  0  0  0  0  0  0  0  0  0  0  0
   -1.2528   -1.8271    0.5821 C   0  0  0  0  0  0  0  0  0  0  0  0
   -4.8965   -0.6735    2.0135 C   0  0  0  0  0  0  0  0  0  0  0  0
    0.7127    4.2664    3.0357 C   0  0  0  0  0  0  0  0  0  0  0  0
   -1.1670    4.2863    4.5165 C   0  0  0  0  0  0  0  0  0  0  0  0
    0.0856    4.7511    4.1868 C   0  0  0  0  0  0  0  0  0  0  0  0
    2.4542    0.2340    0.0535 C   0  0  0  0  0  0  0  0  0  0  0  0
   -6.5780    1.6172    2.6118 C   0  0  0  0  0  0  0  0  0  0  0  0
    3.0284   -0.4148   -1.2235 C   0  0  0  0  0  0  0  0  0  0  0  0
   -6.7245    1.2595    0.9805 C   0  0  0  0  0  0  0  0  0  0  0  0
    1.0236   -0.1745   -2.5614 C   0  0  0  0  0  0  0  0  0  0  0  0
   -4.8207    2.4643   -0.0041 C   0  0  0  0  0  0  0  0  0  0  0  0
    0.5040   -1.6221   -2.4668 C   0  0  0  0  0  0  0  0  0  0  0  0
   -5.3454    3.8408   -0.2644 C   0  0  0  0  0  0  0  0  0  0  0  0
    0.9311   -2.5059   -1.2983 C   0  0  0  0  0  0  0  0  0  0  0  0
   -6.6522    4.1164    0.4498 C   0  0  0  0  0  0  0  0  0  0  0  0
  1 17  1  0
  1 26  1  0
  2 18  1  0
  2 27  1  0
  3 17  2  0
  4 18  2  0
  5 28  1  0
  5 30  1  0
  6 29  1  0
  6 31  1  0
  7 10  1  0
  8 10  2  0
  9 15  1  0
  9 16  1  0
 10 23  1  0
 11 12  1  0
 11 13  1  0
 11 14  1  0
 12 15  2  0
 12 17  1  0
 13 16  2  0
 13 18  1  0
 14 19  2  0
 14 20  1  0
 15 21  1  0
 16 22  1  0
 19 23  1  0
 20 24  2  0
 23 25  2  0
 24 25  1  0
 26 28  1  0
 27 29  1  0
 30 32  1  0
 31 33  1  0
 32 34  1  0
 33 35  1  0
M  CHG  2   7  -1  10   1
M  END
>  <DRUGBANK_ID>  (1) 
DB09240

>  <COMMON_NAME>  (1) 
Niludipine

>  <CAS_NUMBER>  (1) 
22609-73-0

>  <UNII>  (1) 
9844OS3B0J

>  <SYNONYMS>  (1) 
Niludipine

$$$$
