
     RDKit          3D

 10  9  0  0  0  0  0  0  0  0999 V2000
    0.8335   -0.3030   -0.3097 O   0  0  0  0  0  0  0  0  0  0  0  0
    0.3965   -0.2242    1.0485 C   0  0  0  0  0  0  0  0  0  0  0  0
    3.1455   -0.2041    1.7253 O   0  0  0  0  0  0  0  0  0  0  0  0
    2.4922   -1.4842    1.6883 C   0  0  0  0  0  0  0  0  0  0  0  0
    0.9434   -1.4237    1.8841 C   0  0  0  0  0  0  0  0  0  0  0  0
    0.4741   -1.5287    3.3068 O   0  0  0  0  0  0  0  0  0  0  0  0
    2.5865   -0.6488    4.1340 O   0  0  0  0  0  0  0  0  0  0  0  0
    0.5529    0.8632    3.3118 O   0  0  0  0  0  0  0  0  0  0  0  0
    1.0508   -0.1990    4.2514 P   0  0  0  0  0  0  0  0  0  0  0  0
    1.6275    1.1306    5.1961 O   0  0  0  0  0  0  0  0  0  0  0  0
  2  1  1  0
  4  3  1  0
  5  4  1  0
  5  2  1  0
  6  5  1  0
  7  9  1  0
  9  6  1  0
  9  8  2  0
  9 10  1  0
M  END
>  <DRUGBANK_ID>  (1) 
DB01779

>  <SECONDARY_ACCESSION_NUMBERS>  (1) 
EXPT01526

>  <COMMON_NAME>  (1) 
Glycerol 2-phosphate

>  <CAS_NUMBER>  (1) 
17181-54-3

>  <UNII>  (1) 
WWH06G87W6

>  <SYNONYMS>  (1) 
1,2,3-Propanetriol, 2-(dihydrogen phosphate); 1,3-Hydroxy-2-propyl dihydrogen phosphate; 2-glycerophosphate; beta-Glycerophosphoric acid; β-glycerophosphate; β-glycerophosphoric acid

$$$$
