MQ1
     RDKit          3D

 21 23  0  0  0  0  0  0  0  0999 V2000
    0.0517    0.6427    0.0889 C   0  0  0  0  0  0  0  0  0  0  0  0
    0.0037   -0.7634    0.0781 C   0  0  0  0  0  0  0  0  0  0  0  0
    1.2650   -1.3742    0.0147 C   0  0  0  0  0  0  0  0  0  0  0  0
    2.4154   -0.6867   -0.0377 N   0  0  0  0  0  0  0  0  0  0  0  0
    2.3318    0.6477   -0.0049 C   0  0  0  0  0  0  0  0  0  0  0  0
    1.1910    1.3333    0.0816 N   0  0  0  0  0  0  0  0  0  0  0  0
    1.3796   -2.7469   -0.1728 N   0  0  0  0  0  0  0  0  0  0  0  0
   -1.1414    1.3483    0.0432 C   0  0  0  0  0  0  0  0  0  0  0  0
   -2.3636    0.7107   -0.1263 C   0  0  0  0  0  0  0  0  0  0  0  0
   -2.4300   -0.6689   -0.0198 C   0  0  0  0  0  0  0  0  0  0  0  0
   -1.2611   -1.4213    0.1130 C   0  0  0  0  0  0  0  0  0  0  0  0
    3.4885    1.3604   -0.0915 N   0  0  0  0  0  0  0  0  0  0  0  0
   -1.2512   -2.8035    0.2890 O   0  0  0  0  0  0  0  0  0  0  0  0
   -2.4454   -3.4750    0.3643 C   0  0  0  0  0  0  0  0  0  0  0  0
   -3.3311   -3.4910   -0.7111 C   0  0  0  0  0  0  0  0  0  0  0  0
   -4.6181   -3.9906   -0.5278 C   0  0  0  0  0  0  0  0  0  0  0  0
   -4.9634   -4.6298    0.6650 C   0  0  0  0  0  0  0  0  0  0  0  0
   -3.9983   -4.7838    1.6632 C   0  0  0  0  0  0  0  0  0  0  0  0
   -2.7526   -4.1636    1.5352 C   0  0  0  0  0  0  0  0  0  0  0  0
   -6.2628   -5.0503    0.7413 O   0  0  0  0  0  0  0  0  0  0  0  0
   -6.6479   -5.6841    1.9559 C   0  0  0  0  0  0  0  0  0  0  0  0
  1  2  1  0
  1  6  2  0
  1  8  1  0
  2  3  2  0
  2 11  1  0
  3  4  1  0
  3  7  1  0
  4  5  2  0
  5  6  1  0
  5 12  1  0
  8  9  2  0
  9 10  1  0
 10 11  2  0
 11 13  1  0
 13 14  1  0
 14 15  2  0
 14 19  1  0
 15 16  1  0
 16 17  2  0
 17 18  1  0
 17 20  1  0
 18 19  2  0
 20 21  1  0
M  END
>  <DRUGBANK_ID>  (1) 
DB02402

>  <SECONDARY_ACCESSION_NUMBERS>  (1) 
EXPT02228

>  <COMMON_NAME>  (1) 
5-(4-Methoxyphenoxy)-2,4-Quinazolinediamine

$$$$
