
     RDKit          3D

 17 18  0  0  0  0  0  0  0  0999 V2000
    1.1518   -0.8352   -0.3592 C   0  0  2  0  0  0  0  0  0  0  0  0
    2.3756   -1.6275   -0.2247 N   0  0  0  0  0  0  0  0  0  0  0  0
    1.3914    0.5604   -0.1859 O   0  0  0  0  0  0  0  0  0  0  0  0
   -0.0119   -1.2381    0.5319 C   0  0  0  0  0  0  0  0  0  0  0  0
    3.0950   -1.6869    0.9685 C   0  0  0  0  0  0  0  0  0  0  0  0
    2.6829   -2.4639   -1.2828 C   0  0  0  0  0  0  0  0  0  0  0  0
    0.2209    1.1381    0.4424 C   0  0  1  0  0  0  0  0  0  0  0  0
   -0.8350    0.0298    0.5401 C   0  0  1  0  0  0  0  0  0  0  0  0
    4.1528   -2.5769    0.9626 N   0  0  0  0  0  0  0  0  0  0  0  0
    2.8273   -1.0541    1.9853 O   0  0  0  0  0  0  0  0  0  0  0  0
    3.5583   -3.4688   -1.1962 C   0  0  0  0  0  0  0  0  0  0  0  0
    0.6265    1.6663    1.8217 C   0  0  0  0  0  0  0  0  0  0  0  0
   -1.7118    0.0282   -0.5925 O   0  0  0  0  0  0  0  0  0  0  0  0
    4.3326   -3.5928    0.0603 C   0  0  0  0  0  0  0  0  0  0  0  0
    3.7536   -4.7217   -2.5546 Br  0  0  0  0  0  0  0  0  0  0  0  0
    0.0196    2.9368    2.0518 O   0  0  0  0  0  0  0  0  0  0  0  0
    5.0854   -4.5381    0.2894 O   0  0  0  0  0  0  0  0  0  0  0  0
  1  3  1  0
  1  4  1  0
  1  2  1  1
  2  5  1  0
  2  6  1  0
  3  7  1  0
  4  8  1  0
  5  9  1  0
  5 10  2  0
  6 11  2  0
  7  8  1  0
  7 12  1  1
  8 13  1  6
  9 14  1  0
 11 15  1  0
 11 14  1  0
 12 16  1  0
 14 17  2  0
M  END
>  <DRUGBANK_ID>  (1) 
DB12028

>  <COMMON_NAME>  (1) 
Broxuridine

>  <CAS_NUMBER>  (1) 
59-14-3

>  <UNII>  (1) 
G34N38R2N1

>  <SYNONYMS>  (1) 
Bromodeoxyuridine; Broxuridina; Broxuridine

$$$$
