
     RDKit          3D

 18 19  0  0  0  0  0  0  0  0999 V2000
    1.4599   -1.0804   -0.3275 N   0  0  0  0  0  0  0  0  0  0  0  0
    0.1611   -0.6486   -0.3003 C   0  0  0  0  0  0  0  0  0  0  0  0
    0.2471    0.7221   -0.2141 C   0  0  0  0  0  0  0  0  0  0  0  0
    1.5492    1.1524   -0.2405 N   0  0  0  0  0  0  0  0  0  0  0  0
    2.2586    0.0430   -0.3211 C   0  0  0  0  0  0  0  0  0  0  0  0
   -0.9464   -1.4281   -0.1969 N   0  0  0  0  0  0  0  0  0  0  0  0
   -2.0535   -0.7435   -0.0679 C   0  0  0  0  0  0  0  0  0  0  0  0
   -2.0957    0.6355   -0.0244 N   0  0  0  0  0  0  0  0  0  0  0  0
   -0.9820    1.4695   -0.0550 C   0  0  0  0  0  0  0  0  0  0  0  0
   -1.0783    2.6824    0.0286 O   0  0  0  0  0  0  0  0  0  0  0  0
   -3.2441   -1.3781    0.0319 N   0  0  0  0  0  0  0  0  0  0  0  0
    1.9049   -2.4490   -0.1683 C   0  0  0  0  0  0  0  0  0  0  0  0
    1.5782   -3.0040    1.1142 O   0  0  0  0  0  0  0  0  0  0  0  0
    2.1205   -2.4208    2.3191 C   0  0  0  0  0  0  0  0  0  0  0  0
    3.6533   -2.4257    2.3852 C   0  0  0  0  0  0  0  0  0  0  0  0
    1.5357   -1.0412    2.6379 C   0  0  0  0  0  0  0  0  0  0  0  0
    0.1106   -1.0921    2.6438 O   0  0  0  0  0  0  0  0  0  0  0  0
    4.2543   -1.6260    1.3734 O   0  0  0  0  0  0  0  0  0  0  0  0
  1  2  1  0
  1  5  1  0
  1 12  1  0
  2  3  2  0
  2  6  1  0
  3  4  1  0
  3  9  1  0
  4  5  2  0
  6  7  2  0
  7  8  1  0
  7 11  1  0
  8  9  1  0
  9 10  2  0
 12 13  1  0
 13 14  1  0
 14 15  1  0
 14 16  1  0
 15 18  1  0
 16 17  1  0
M  END
>  <DRUGBANK_ID>  (1) 
DB01004

>  <SECONDARY_ACCESSION_NUMBERS>  (1) 
APRD00263; EXPT01540

>  <COMMON_NAME>  (1) 
Ganciclovir

>  <CAS_NUMBER>  (1) 
82410-32-0

>  <UNII>  (1) 
P9G3CKZ4P5

>  <SYNONYMS>  (1) 
2-(6-Amino-purin-9-ylmethoxy)-propane-1,3-diol; 2-amino-9-((1,3-dihydroxypropan-2-yloxy)methyl)-1H-purin-6(9H)-one; 2-amino-9-((1,3-dihydroxypropan-2-yloxy)methyl)-3H-purin-6(9H)-one; 2-amino-9-((1,3-dihydroxypropan-2-yloxy)methyl)-9H-purin-6-ol; 2-Amino-9-(2-hydroxy-1-hydroxymethyl-ethoxymethyl)-1,9-dihydro-purin-6-one; 2-amino-9-(2-hydroxy-1-hydroxymethylethoxymethyl)-6,9-dihydro-1H-6-purinone; 9-((2-Hydroxy-1-(hydroxymethyl)ethoxy)methyl)guanine; 9-[(1,3-dihydroxy-2-propoxy)methyl]guanine; GA2; Ganciclovir; Ganciclovirum; Gancyclovir

$$$$
