FLE
     RDKit          3D

 16 16  0  0  0  0  0  0  0  0999 V2000
    0.7003    0.2186    0.1000 N   0  0  0  0  0  0  0  0  0  0  0  0
    0.1970   -1.0615   -0.5414 C   0  0  1  0  0  0  0  0  0  0  0  0
   -0.6109   -1.9887    0.4471 C   0  0  0  0  0  0  0  0  0  0  0  0
   -1.8217   -1.2522    0.9698 C   0  0  0  0  0  0  0  0  0  0  0  0
   -2.7058   -0.8388   -0.2075 C   0  0  0  0  0  0  0  0  0  0  0  0
   -2.6052   -1.7337    2.1798 C   0  0  0  0  0  0  0  0  0  0  0  0
   -0.3452   -0.7012   -1.9747 C   0  0  0  0  0  0  0  0  0  0  0  0
   -0.3039   -1.6851   -2.8997 O   0  0  0  0  0  0  0  0  0  0  0  0
   -0.7704    0.3979   -2.2963 O   0  0  0  0  0  0  0  0  0  0  0  0
    0.1524    1.4317    0.5811 C   0  0  0  0  0  0  0  0  0  0  0  0
    1.0356    2.2714    0.8815 O   0  0  0  0  0  0  0  0  0  0  0  0
   -1.2722    1.7295    0.8662 C   0  0  0  0  0  0  0  0  0  0  0  0
   -2.0626    2.4604   -0.0060 O   0  0  0  0  0  0  0  0  0  0  0  0
   -2.0923    1.3983    1.9552 C   0  0  0  0  0  0  0  0  0  0  0  0
   -3.4279    1.4705    1.4712 C   0  0  0  0  0  0  0  0  0  0  0  0
   -3.3684    2.3038    0.3846 C   0  0  0  0  0  0  0  0  0  0  0  0
  1 10  1  0
  2  1  1  0
  2  3  1  1
  2  7  1  0
  3  4  1  0
  4  5  1  0
  4  6  1  0
  7  8  1  0
  7  9  2  0
 10 11  2  0
 10 12  1  0
 12 13  1  0
 12 14  2  0
 13 16  1  0
 14 15  1  0
 15 16  2  0
M  END
>  <DRUGBANK_ID>  (1) 
DB02215

>  <SECONDARY_ACCESSION_NUMBERS>  (1) 
EXPT01441

>  <COMMON_NAME>  (1) 
Furoyl-Leucine

$$$$
