AGE
     RDKit          3D

 21 22  0  0  0  0  0  0  0  0999 V2000
    0.6500   -0.0104   -0.0026 N   0  0  0  0  0  0  0  0  0  0  0  0
   -3.9740    4.6698   -3.7905 C   0  0  0  0  0  0  0  0  0  0  0  0
    1.5240   -5.3284    0.0532 N   0  0  0  0  0  0  0  0  0  0  0  0
   -3.7170    2.7802   -2.3247 C   0  0  0  0  0  0  0  0  0  0  0  0
   -3.2078    3.6043   -1.3096 C   0  0  0  0  0  0  0  0  0  0  0  0
   -3.1638    4.9882   -1.5323 C   0  0  0  0  0  0  0  0  0  0  0  0
    2.7076   -4.6028    0.0834 O   0  0  0  0  0  0  0  0  0  0  0  0
   -0.6216   -5.8702   -0.0019 O   0  0  0  0  0  0  0  0  0  0  0  0
   -3.7879    0.9648    0.1528 O   0  0  0  0  0  0  0  0  0  0  0  0
   -3.5506    5.5160   -2.7666 C   0  0  0  0  0  0  0  0  0  0  0  0
   -4.0490    3.3003   -3.5711 C   0  0  0  0  0  0  0  0  0  0  0  0
   -2.6218    3.0396   -0.0327 C   0  0  0  0  0  0  0  0  0  0  0  0
   -2.6964    1.5272    0.0722 C   0  0  0  0  0  0  0  0  0  0  0  0
   -1.4746    0.7230    0.0281 C   0  0  0  0  0  0  0  0  0  0  0  0
   -0.1488    1.1172    0.0126 C   0  0  0  0  0  0  0  0  0  0  0  0
    2.1025    0.0655   -0.0390 C   0  0  0  0  0  0  0  0  0  0  0  0
   -0.1622   -1.1331    0.0040 C   0  0  0  0  0  0  0  0  0  0  0  0
   -1.4668   -0.6960   -0.0069 C   0  0  0  0  0  0  0  0  0  0  0  0
    0.4025   -2.4250    0.0235 C   0  0  0  0  0  0  0  0  0  0  0  0
   -0.2886   -3.5677    0.0041 C   0  0  0  0  0  0  0  0  0  0  0  0
    0.2208   -4.9723    0.0203 C   0  0  0  0  0  0  0  0  0  0  0  0
  1 17  1  0
  2 10  2  0
  2 11  1  0
  3  7  1  0
  4  5  1  0
  5 12  1  0
  6  5  2  0
  8 21  2  0
 10  6  1  0
 11  4  2  0
 12 13  1  0
 13  9  2  0
 14 13  1  0
 14 18  1  0
 15  1  1  0
 15 14  2  0
 16  1  1  0
 17 19  1  0
 17 18  2  0
 19 20  2  0
 20 21  1  0
 21  3  1  0
M  END
>  <DRUGBANK_ID>  (1) 
DB07350

>  <COMMON_NAME>  (1) 
(2E)-N-hydroxy-3-[1-methyl-4-(phenylacetyl)-1H-pyrrol-2-yl]prop-2-enamide

$$$$
