943
     RDKit          3D

 15 16  0  0  1  0  0  0  0  0999 V2000
    1.1467   -0.0482   -0.0137 O   0  0  0  0  0  0  0  0  0  0  0  0
    1.3097    3.3607    0.0759 O   0  0  0  0  0  0  0  0  0  0  0  0
   -1.0156   -3.4591    1.0143 O   0  0  0  0  0  0  0  0  0  0  0  0
    0.4350   -1.7557    1.5266 N   0  0  0  0  0  0  0  0  0  0  0  0
   -0.3134   -3.3281    3.1686 N   0  0  0  0  0  0  0  0  0  0  0  0
    0.2339   -3.0458    5.3780 N   0  0  0  0  0  0  0  0  0  0  0  0
    0.3020   -1.2140    0.1647 C   0  0  1  0  0  0  0  0  0  0  0  0
   -1.1131   -0.7352   -0.1665 C   0  0  0  0  0  0  0  0  0  0  0  0
   -1.0935    0.7184    0.2253 C   0  0  0  0  0  0  0  0  0  0  0  0
    0.3228    1.1376   -0.1153 C   0  0  1  0  0  0  0  0  0  0  0  0
    0.8559    2.2324    0.8208 C   0  0  0  0  0  0  0  0  0  0  0  0
    1.1276   -1.0710    2.4994 C   0  0  0  0  0  0  0  0  0  0  0  0
   -0.3280   -2.8829    1.8648 C   0  0  0  0  0  0  0  0  0  0  0  0
    0.9397   -1.3373    3.7879 C   0  0  0  0  0  0  0  0  0  0  0  0
    0.2499   -2.6037    4.0860 C   0  0  0  0  0  0  0  0  0  0  0  0
  1  7  1  0
  1 10  1  0
  2 11  1  0
  3 13  2  0
  4 12  1  0
  4 13  1  0
  5 13  1  0
  5 15  2  0
  6 15  1  0
  7  4  1  1
  7  8  1  0
  8  9  1  0
  9 10  1  0
 10 11  1  1
 12 14  2  0
 14 15  1  0
M  END
>  <DRUGBANK_ID>  (1) 
DB00943

>  <SECONDARY_ACCESSION_NUMBERS>  (1) 
APRD00562

>  <COMMON_NAME>  (1) 
Zalcitabine

>  <CAS_NUMBER>  (1) 
7481-89-2

>  <UNII>  (1) 
6L3XT8CB3I

>  <SYNONYMS>  (1) 
2',3'-Dideoxycytidine; 4-amino-1-[(2R,5S)-5-(hydroxymethyl)tetrahydrofuran-2-yl]pyrimidin-2(1H)-one; DDC; DDCYD; Dideoxycytidine; Zalcitabine

$$$$
