701
     RDKit          3D

 29 31  0  0  0  0  0  0  0  0999 V2000
    1.9853   -0.0127    0.0396 Cl  0  0  0  0  0  0  0  0  0  0  0  0
    0.2905    0.2586    0.0086 C   0  0  0  0  0  0  0  0  0  0  0  0
   -0.3442    1.4664    0.0349 C   0  0  0  0  0  0  0  0  0  0  0  0
   -1.7622    1.3052   -0.0783 C   0  0  0  0  0  0  0  0  0  0  0  0
   -2.1725   -0.0158   -0.2664 C   0  0  0  0  0  0  0  0  0  0  0  0
   -3.5006   -0.5990   -0.5233 C   0  0  0  0  0  0  0  0  0  0  0  0
   -3.6626   -2.0932   -0.8997 C   0  0  0  0  0  0  0  0  0  0  0  0
   -6.2200   -0.2361   -0.0707 S   0  0  0  0  0  0  0  0  0  0  0  0
   -6.6772    0.3820    1.1552 O   0  0  0  0  0  0  0  0  0  0  0  0
   -6.9295    0.0142   -1.3056 O   0  0  0  0  0  0  0  0  0  0  0  0
   -6.3087   -1.9057    0.1944 N   0  0  0  0  0  0  0  0  0  0  0  0
   -5.7453   -2.4787    1.4501 C   0  0  1  0  0  0  0  0  0  0  0  0
   -4.3426   -1.9849    1.8069 C   0  0  0  0  0  0  0  0  0  0  0  0
   -4.2253   -2.2082    3.2312 C   0  0  0  0  0  0  0  0  0  0  0  0
   -6.4818   -2.0786    2.7019 C   0  0  0  0  0  0  0  0  0  0  0  0
   -7.7029   -1.9475    2.8044 O   0  0  0  0  0  0  0  0  0  0  0  0
   -5.5170   -1.9160    3.6770 N   0  0  0  0  0  0  0  0  0  0  0  0
   -5.6077   -1.1917    4.9106 C   0  0  1  0  0  0  0  0  0  0  0  0
   -4.9732   -2.1258    5.9372 C   0  0  0  0  0  0  0  0  0  0  0  0
   -4.9586    0.2788    4.9644 C   0  0  0  0  0  0  0  0  0  0  0  0
   -5.6850    1.1727    5.4305 O   0  0  0  0  0  0  0  0  0  0  0  0
   -3.5788    0.5481    4.8586 N   0  0  0  0  0  0  0  0  0  0  0  0
   -2.5094    0.3062    3.8357 C   0  0  0  0  0  0  0  0  0  0  0  0
   -1.4159   -0.5610    4.4839 C   0  0  0  0  0  0  0  0  0  0  0  0
   -0.8100    0.1981    5.5392 O   0  0  0  0  0  0  0  0  0  0  0  0
   -1.7909    0.5759    6.5283 C   0  0  0  0  0  0  0  0  0  0  0  0
   -2.9920    1.3436    5.9333 C   0  0  0  0  0  0  0  0  0  0  0  0
   -0.7725   -1.0431   -0.0644 S   0  0  0  0  0  0  0  0  0  0  0  0
   -4.5540    0.2349   -0.2883 C   0  0  0  0  0  0  0  0  0  0  0  0
  1  2  1  0
  2  3  2  0
  2 28  1  0
  3  4  1  0
  4  5  2  0
  5  6  1  0
  5 28  1  0
  6  7  1  0
  6 29  2  0
  8  9  2  0
  8 10  2  0
  8 11  1  0
  8 29  1  0
 12 11  1  6
 12 13  1  0
 12 15  1  0
 13 14  1  0
 14 17  1  0
 15 16  2  0
 15 17  1  0
 17 18  1  0
 18 19  1  1
 18 20  1  0
 20 21  2  0
 20 22  1  0
 22 23  1  0
 22 27  1  0
 23 24  1  0
 24 25  1  0
 25 26  1  0
 26 27  1  0
M  END
>  <DRUGBANK_ID>  (1) 
DB07211

>  <COMMON_NAME>  (1) 
(2R)-2-(5-CHLORO-2-THIENYL)-N-{(3S)-1-[(1S)-1-METHYL-2-MORPHOLIN-4-YL-2-OXOETHYL]-2-OXOPYRROLIDIN-3-YL}PROPENE-1-SULFONAMIDE

$$$$
