
     RDKit          3D

 30 33  0  0  0  0  0  0  0  0999 V2000
   -0.1096   -1.4260   -0.0053 C   0  0  0  0  0  0  0  0  0  0  0  0
    1.0962   -0.7754   -0.0067 C   0  0  0  0  0  0  0  0  0  0  0  0
    1.2125    0.5651    0.0131 N   0  0  0  0  0  0  0  0  0  0  0  0
    0.0722    1.2897    0.0959 C   0  0  0  0  0  0  0  0  0  0  0  0
   -1.1572    0.7386    0.0417 N   0  0  0  0  0  0  0  0  0  0  0  0
   -1.2155   -0.6099   -0.0036 C   0  0  0  0  0  0  0  0  0  0  0  0
    0.1879    2.8119    0.1958 C   0  0  0  0  0  0  0  0  0  0  0  0
    0.9384    3.3632    1.3472 N   0  0  0  0  0  0  0  0  0  0  0  0
    2.2933    2.9016    1.6209 C   0  0  0  0  0  0  0  0  0  0  0  0
    3.3316    4.0022    1.4828 C   0  0  0  0  0  0  0  0  0  0  0  0
    3.1989    4.9731    2.5226 O   0  0  0  0  0  0  0  0  0  0  0  0
    2.3131    5.9446    2.1435 C   0  0  0  0  0  0  0  0  0  0  0  0
    2.8464    7.2102    1.9019 C   0  0  0  0  0  0  0  0  0  0  0  0
    2.0155    8.2594    1.5040 C   0  0  0  0  0  0  0  0  0  0  0  0
    0.6255    8.0837    1.4064 C   0  0  0  0  0  0  0  0  0  0  0  0
    0.0970    6.7987    1.6978 C   0  0  0  0  0  0  0  0  0  0  0  0
    0.9427    5.7157    2.0273 C   0  0  0  0  0  0  0  0  0  0  0  0
    0.3859    4.3328    2.1869 C   0  0  0  0  0  0  0  0  0  0  0  0
   -0.5089    4.1098    2.9831 O   0  0  0  0  0  0  0  0  0  0  0  0
   -0.2311    9.1927    0.9290 C   0  0  0  0  0  0  0  0  0  0  0  0
   -1.3005    9.6923    1.6841 C   0  0  0  0  0  0  0  0  0  0  0  0
   -2.2148   10.6030    1.1266 C   0  0  0  0  0  0  0  0  0  0  0  0
   -2.0188   11.1204   -0.1566 C   0  0  0  0  0  0  0  0  0  0  0  0
   -0.8642   10.7610   -0.8453 C   0  0  0  0  0  0  0  0  0  0  0  0
   -0.0117    9.7749   -0.3309 C   0  0  0  0  0  0  0  0  0  0  0  0
   -3.0082   11.9389   -0.6277 O   0  0  0  0  0  0  0  0  0  0  0  0
   -2.8610   12.4301   -1.9538 C   0  0  0  0  0  0  0  0  0  0  0  0
   -1.7896   13.2484   -2.0411 F   0  0  0  0  0  0  0  0  0  0  0  0
   -2.7307   11.4246   -2.8481 F   0  0  0  0  0  0  0  0  0  0  0  0
   -3.9594   13.1425   -2.2899 F   0  0  0  0  0  0  0  0  0  0  0  0
  1  2  2  0
  1  6  1  0
  2  3  1  0
  3  4  2  0
  4  5  1  0
  4  7  1  0
  5  6  2  0
  7  8  1  0
  8  9  1  0
  8 18  1  0
  9 10  1  0
 10 11  1  0
 11 12  1  0
 12 13  1  0
 12 17  2  0
 13 14  2  0
 14 15  1  0
 15 16  2  0
 15 20  1  0
 16 17  1  0
 17 18  1  0
 18 19  2  0
 20 21  2  0
 20 25  1  0
 21 22  1  0
 22 23  2  0
 23 24  1  0
 23 26  1  0
 24 25  2  0
 26 27  1  0
 27 28  1  0
 27 29  1  0
 27 30  1  0
M  END
>  <DRUGBANK_ID>  (1) 
DB12394

>  <COMMON_NAME>  (1) 
Eleclazine

>  <CAS_NUMBER>  (1) 
1443211-72-0

>  <UNII>  (1) 
PUY08529FK

>  <SYNONYMS>  (1) 
4-(pyrimidin-2-ylmethyl)-7-(4-(trifluoromethoxy)phenyl)-3,4-dihydrobenzo[f][1,4]oxazepin-5(2H)-one; Eleclazine

$$$$
