
     RDKit          3D

 14 13  0  0  0  0  0  0  0  0999 V2000
    1.1097    0.4507   -0.2069 Cl  0  0  0  0  0  0  0  0  0  0  0  0
    3.5186    1.0934    0.6444 O   0  0  0  0  0  0  0  0  0  0  0  0
    2.8158    0.2484    0.0840 C   0  0  0  0  0  0  0  0  0  0  0  0
    3.4484   -1.0228   -0.4598 C   0  0  0  0  0  0  0  0  0  0  0  0
    3.0762   -2.2940    0.3027 C   0  0  0  0  0  0  0  0  0  0  0  0
    1.6052   -2.6663    0.1325 C   0  0  0  0  0  0  0  0  0  0  0  0
    1.2499   -2.8170   -1.3529 C   0  0  0  0  0  0  0  0  0  0  0  0
    2.0144   -3.9985   -1.9543 C   0  0  0  0  0  0  0  0  0  0  0  0
    1.6385   -5.2862   -1.2167 C   0  0  0  0  0  0  0  0  0  0  0  0
    0.1308   -5.5357   -1.3340 C   0  0  0  0  0  0  0  0  0  0  0  0
   -0.2647   -5.6938   -2.8063 C   0  0  0  0  0  0  0  0  0  0  0  0
    0.4603   -6.8883   -3.4363 C   0  0  0  0  0  0  0  0  0  0  0  0
    0.1370   -8.1881   -2.6978 C   0  0  0  0  0  0  0  0  0  0  0  0
   -1.3555   -8.4708   -2.7516 C   0  0  0  0  0  0  0  0  0  0  0  0
  1  3  1  0
  2  3  2  0
  3  4  1  0
  4  5  1  0
  5  6  1  0
  6  7  1  0
  7  8  1  0
  8  9  1  0
  9 10  1  0
 10 11  1  0
 11 12  1  0
 12 13  1  0
 13 14  1  0
M  END
>  <DRUGBANK_ID>  (1) 
DB14670

>  <SECONDARY_ACCESSION_NUMBERS>  (1) 
DBSALT002257

>  <COMMON_NAME>  (1) 
Lauroyl chloride

>  <CAS_NUMBER>  (1) 
112-16-3

>  <UNII>  (1) 
9LHL10777I

>  <SYNONYMS>  (1) 
Dodecanoic acid, chloride; Dodecanoyl chloride; Lauric acid chloride; N-dodecanoyl chloride

$$$$
