
     RDKit          3D

 25 26  0  0  1  0  0  0  0  0999 V2000
    0.6771    0.8598    0.3127 N   0  0  0  0  0  0  0  0  0  0  0  0
    0.2328    1.6426   -0.7967 C   0  0  1  0  0  0  0  0  0  0  0  0
    0.9147    1.2462   -2.0945 C   0  0  0  0  0  0  0  0  0  0  0  0
    0.5124   -0.0863   -2.7310 C   0  0  0  0  0  0  0  0  0  0  0  0
   -0.1726   -0.0730   -3.7599 O   0  0  0  0  0  0  0  0  0  0  0  0
    1.0484   -1.3137   -2.2888 N   0  0  0  0  0  0  0  0  0  0  0  0
    1.7195   -1.7186   -1.1347 C   0  0  0  0  0  0  0  0  0  0  0  0
    1.2514   -1.4169    0.0047 N   0  0  0  0  0  0  0  0  0  0  0  0
    2.0637   -1.3953    1.1163 C   0  0  0  0  0  0  0  0  0  0  0  0
    1.6295   -0.9084    2.1295 O   0  0  0  0  0  0  0  0  0  0  0  0
    3.4069   -1.7171    0.9688 N   0  0  0  0  0  0  0  0  0  0  0  0
    3.8394   -2.2729   -0.2351 C   0  0  0  0  0  0  0  0  0  0  0  0
    2.9929   -2.4384   -1.2737 C   0  0  0  0  0  0  0  0  0  0  0  0
    4.2489   -1.6393    2.1957 C   0  0  2  0  0  0  0  0  0  0  0  0
    3.6049   -2.3645    3.2793 O   0  0  0  0  0  0  0  0  0  0  0  0
    3.2914   -1.4341    4.3684 C   0  0  2  0  0  0  0  0  0  0  0  0
    1.8660   -1.6725    4.9043 C   0  0  0  0  0  0  0  0  0  0  0  0
    1.8969   -2.5437    6.0408 O   0  0  0  0  0  0  0  0  0  0  0  0
    3.4983   -0.0064    3.8484 C   0  0  1  0  0  0  0  0  0  0  0  0
    3.8474    0.9436    4.8557 O   0  0  0  0  0  0  0  0  0  0  0  0
    4.5593   -0.2297    2.7698 C   0  0  2  0  0  0  0  0  0  0  0  0
    4.6083    0.7874    1.7775 O   0  0  0  0  0  0  0  0  0  0  0  0
   -1.2866    1.4741   -0.7948 C   0  0  0  0  0  0  0  0  0  0  0  0
   -1.9123    2.4339   -0.0748 O   0  0  0  0  0  0  0  0  0  0  0  0
   -1.8674    0.4914   -1.2333 O   0  0  0  0  0  0  0  0  0  0  0  0
  2  1  1  1
  2  3  1  0
  2 23  1  0
  3  4  1  0
  4  5  2  0
  4  6  1  0
  6  7  1  0
  7  8  2  0
  7 13  1  0
  8  9  1  0
  9 10  2  0
  9 11  1  0
 11 12  1  0
 12 13  2  0
 14 11  1  6
 14 15  1  0
 16 15  1  0
 16 17  1  6
 17 18  1  0
 19 16  1  0
 19 20  1  1
 19 21  1  0
 21 14  1  0
 21 22  1  6
 23 24  1  0
 23 25  2  0
M  END
>  <DRUGBANK_ID>  (1) 
DB17226

>  <COMMON_NAME>  (1) 
Aspacytarabine

>  <CAS_NUMBER>  (1) 
2098942-53-9

>  <UNII>  (1) 
JL7V54Z2BR

>  <SYNONYMS>  (1) 
Astarabine; L-asparagine, n-(1-.beta.-d-arabinofuranosyl-1,2-dihydro-2-oxo-4-pyrimidinyl)-; N4-(1-.beta.-d-arabinofuranosyl-2-oxo-1,2-dihydropyrimidin-4-yl)-l-asparagine

$$$$
