
     RDKit          3D

 28 30  0  0  1  0  0  0  0  0999 V2000
    0.8965    0.1476   -0.0767 O   0  0  0  0  0  0  0  0  0  0  0  0
    0.4710   -0.8187    0.8820 C   0  0  0  0  0  0  0  0  0  0  0  0
    0.9912   -2.2131    0.5397 C   0  0  0  0  0  0  0  0  0  0  0  0
    2.5001   -2.3119    0.5654 C   0  0  0  0  0  0  0  0  0  0  0  0
    3.1704   -1.1094    0.5584 N   0  0  0  0  0  0  0  0  0  0  0  0
    4.5166   -1.1049    0.5708 C   0  0  0  0  0  0  0  0  0  0  0  0
    5.2584   -2.2570    0.5677 C   0  0  0  0  0  0  0  0  0  0  0  0
    4.5710   -3.4660    0.5192 C   0  0  0  0  0  0  0  0  0  0  0  0
    3.1672   -3.5374    0.5452 C   0  0  0  0  0  0  0  0  0  0  0  0
    2.4432   -4.8661    0.4451 C   0  0  0  0  0  0  0  0  0  0  0  0
    1.2503   -4.9200    0.1572 O   0  0  0  0  0  0  0  0  0  0  0  0
    3.2049   -6.0183    0.5659 N   0  0  0  0  0  0  0  0  0  0  0  0
    4.0452   -6.2609    1.7300 C   0  0  0  0  0  0  0  0  0  0  0  0
    5.3643   -6.8790    1.2613 C   0  0  0  0  0  0  0  0  0  0  0  0
    5.1448   -8.0642    0.4745 O   0  0  0  0  0  0  0  0  0  0  0  0
    4.3284   -7.7755   -0.6826 C   0  0  0  0  0  0  0  0  0  0  0  0
    2.9515   -7.2296   -0.2503 C   0  0  1  0  0  0  0  0  0  0  0  0
    2.2013   -8.3493    0.4991 C   0  0  0  0  0  0  0  0  0  0  0  0
    0.9186   -7.8685    0.8784 O   0  0  0  0  0  0  0  0  0  0  0  0
   -0.0691   -8.7674    1.1611 C   0  0  0  0  0  0  0  0  0  0  0  0
    0.1008  -10.1572    1.1094 C   0  0  0  0  0  0  0  0  0  0  0  0
   -0.9747  -11.0089    1.3555 C   0  0  0  0  0  0  0  0  0  0  0  0
   -2.2234  -10.4824    1.6748 C   0  0  0  0  0  0  0  0  0  0  0  0
   -2.3968   -9.0999    1.7579 C   0  0  0  0  0  0  0  0  0  0  0  0
   -3.6261   -8.6064    2.0862 O   0  0  0  0  0  0  0  0  0  0  0  0
   -1.3266   -8.2321    1.5055 C   0  0  0  0  0  0  0  0  0  0  0  0
   -1.4868   -6.7521    1.6057 C   0  0  0  0  0  0  0  0  0  0  0  0
   -2.5245   -6.1817    1.9233 O   0  0  0  0  0  0  0  0  0  0  0  0
  1  2  1  0
  2  3  1  0
  3  4  1  0
  4  5  2  0
  4  9  1  0
  5  6  1  0
  6  7  2  0
  7  8  1  0
  8  9  2  0
  9 10  1  0
 10 11  2  0
 10 12  1  0
 12 13  1  0
 13 14  1  0
 14 15  1  0
 15 16  1  0
 17 16  1  0
 17 12  1  0
 17 18  1  1
 18 19  1  0
 19 20  1  0
 20 21  2  0
 20 26  1  0
 21 22  1  0
 22 23  2  0
 23 24  1  0
 24 25  1  0
 24 26  2  0
 26 27  1  0
 27 28  2  0
M  END
>  <DRUGBANK_ID>  (1) 
DB18071

>  <COMMON_NAME>  (1) 
Osivelotor

>  <CAS_NUMBER>  (1) 
2417955-18-9

>  <UNII>  (1) 
UK749B4S16

>  <SYNONYMS>  (1) 
(S)-2-hydroxy-6-((4-(2-(2-hydroxyethyl)nicotinoyl)morpholin- 3-yl)methoxy)benzaldehyde

$$$$
