
     RDKit          3D

 27 30  0  0  0  0  0  0  0  0999 V2000
   -3.9101    0.9741    1.0861 C   0  0  0  0  0  0  0  0  0  0  0  0
   -6.7808    4.8248    1.2295 C   0  0  0  0  0  0  0  0  0  0  0  0
   -4.3549    1.2079    2.7240 C   0  0  2  0  0  0  0  0  0  0  0  0
   -3.0699    3.1024    0.2746 C   0  0  0  0  0  0  0  0  0  0  0  0
   -3.3611    0.2261    2.3739 C   0  0  0  0  0  0  0  0  0  0  0  0
   -6.6886    3.2977   -1.3048 C   0  0  1  0  0  0  0  0  0  0  0  0
   -4.2405    2.9037   -0.7082 C   0  0  0  0  0  0  0  0  0  0  0  0
   -8.2455    4.5876    0.2716 C   0  0  1  0  0  0  0  0  0  0  0  0
   -7.9633    4.0746   -1.3923 C   0  0  0  0  0  0  0  0  0  0  0  0
   -5.9924    3.6194   -2.5865 C   0  0  0  0  0  0  0  0  0  0  0  0
   -8.5259    3.9070   -2.7229 C   0  0  0  0  0  0  0  0  0  0  0  0
   -6.2762    2.7570   -3.5525 C   0  0  0  0  0  0  0  0  0  0  0  0
   -5.8616    3.5217    1.0009 C   0  0  1  0  0  0  0  0  0  0  0  0
   -5.5279    3.6701   -0.4118 C   0  0  2  0  0  0  0  0  0  0  0  0
   -3.4000    2.6196    1.8317 C   0  0  2  0  0  0  0  0  0  0  0  0
   -2.3057    3.0014    2.7904 C   0  0  0  0  0  0  0  0  0  0  0  0
   -4.7908    2.6438    1.6780 C   0  0  2  0  0  0  0  0  0  0  0  0
   -7.3518    4.1371   -5.0841 O   0  0  0  0  0  0  0  0  0  0  0  0
   -7.3924    3.6349   -4.0214 C   0  0  0  0  0  0  0  0  0  0  0  0
   -7.4601    2.0088   -0.9543 C   0  0  0  0  0  0  0  0  0  0  0  0
   -4.9951    1.5735    3.9491 O   0  0  0  0  0  0  0  0  0  0  0  0
   -5.5900   -0.0185    2.3903 C   0  0  0  0  0  0  0  0  0  0  0  0
   -4.1336    2.0918   -1.6281 O   0  0  0  0  0  0  0  0  0  0  0  0
   -5.7655   -0.9457    3.1985 O   0  0  0  0  0  0  0  0  0  0  0  0
   -6.5763    0.0447    1.2784 C   0  0  0  0  0  0  0  0  0  0  0  0
   -7.3949    1.1330    1.5400 O   0  0  0  0  0  0  0  0  0  0  0  0
   -9.0300    3.7188    1.4290 C   0  0  0  0  0  0  0  0  0  0  0  0
  2  8  1  0
  3  5  1  0
  3 21  1  1
  3 22  1  0
  4  7  1  0
  5  1  1  0
  6  9  1  0
  6 10  1  0
  6 20  1  6
  7 23  2  0
  8  9  1  0
  8 27  1  1
  9 11  2  0
 10 12  2  0
 11 19  1  0
 12 19  1  0
 13 14  1  0
 13  2  1  1
 14  6  1  0
 14  7  1  6
 15  3  1  0
 15  4  1  0
 15 16  1  1
 17 13  1  0
 17 15  1  0
 17  1  1  6
 19 18  2  0
 24 22  2  0
 25 22  1  0
 26 25  1  0
M  END
>  <DRUGBANK_ID>  (1) 
DB12952

>  <COMMON_NAME>  (1) 
Methylprednisone

>  <CAS_NUMBER>  (1) 
91523-05-6

>  <UNII>  (1) 
621XR2W6OP

>  <SYNONYMS>  (1) 
6-alpha-methylprednisone

$$$$
