
     RDKit          3D

 32 37  0  0  0  0  0  0  0  0999 V2000
    1.1384   -0.0983   -2.2324 C   0  0  0  0  0  0  0  0  0  0  0  0
    0.5630   -0.8732   -1.0431 C   0  0  1  0  0  0  0  0  0  0  0  0
   -0.9523   -1.2634   -1.1878 C   0  0  0  0  0  0  0  0  0  0  0  0
   -0.5042   -2.6466   -1.6977 C   0  0  1  0  0  0  0  0  0  0  0  0
    0.8372   -2.4197   -0.9635 C   0  0  0  0  0  0  0  0  0  0  0  0
   -1.3519   -3.8686   -1.3345 C   0  0  0  0  0  0  0  0  0  0  0  0
   -2.6531   -4.1421   -1.7259 N   0  0  0  0  0  0  0  0  0  0  0  0
   -2.9537   -5.4255   -1.2991 C   0  0  0  0  0  0  0  0  0  0  0  0
   -4.2922   -5.9408   -1.5126 C   0  0  0  0  0  0  0  0  0  0  0  0
   -5.1673   -5.2271   -2.1549 N   0  0  0  0  0  0  0  0  0  0  0  0
   -4.8019   -3.9698   -2.6224 C   0  0  0  0  0  0  0  0  0  0  0  0
   -3.5905   -3.4152   -2.4226 C   0  0  0  0  0  0  0  0  0  0  0  0
   -4.6709   -7.1767   -1.0545 N   0  0  0  0  0  0  0  0  0  0  0  0
   -1.7908   -5.9027   -0.7761 C   0  0  0  0  0  0  0  0  0  0  0  0
   -0.8307   -4.9118   -0.7282 N   0  0  0  0  0  0  0  0  0  0  0  0
   -1.4881   -7.1940   -0.2166 C   0  0  0  0  0  0  0  0  0  0  0  0
   -0.7616   -7.1615    1.0141 C   0  0  0  0  0  0  0  0  0  0  0  0
   -0.3662   -8.2029    1.8319 C   0  0  0  0  0  0  0  0  0  0  0  0
   -0.1164   -7.9679    3.2254 N   0  0  0  0  0  0  0  0  0  0  0  0
   -1.1929   -7.9203    4.0533 C   0  0  0  0  0  0  0  0  0  0  0  0
   -2.2745   -8.3609    3.3588 C   0  0  0  0  0  0  0  0  0  0  0  0
   -1.9289   -9.4961    2.4334 C   0  0  0  0  0  0  0  0  0  0  0  0
   -1.0223   -9.3290    1.3609 C   0  0  0  0  0  0  0  0  0  0  0  0
   -1.3461   -9.4969   -0.0776 C   0  0  0  0  0  0  0  0  0  0  0  0
   -1.7386   -8.4066   -0.8390 C   0  0  0  0  0  0  0  0  0  0  0  0
   -1.2199   -7.7861    5.5550 C   0  0  0  0  0  0  0  0  0  0  0  0
   -0.2580   -8.4971    6.2791 C   0  0  0  0  0  0  0  0  0  0  0  0
   -0.3075   -8.6365    7.6731 C   0  0  0  0  0  0  0  0  0  0  0  0
   -1.4188   -8.2026    8.3872 C   0  0  0  0  0  0  0  0  0  0  0  0
   -2.4344   -7.5344    7.7107 C   0  0  0  0  0  0  0  0  0  0  0  0
   -2.2616   -7.2010    6.3440 C   0  0  0  0  0  0  0  0  0  0  0  0
    0.8546   -0.1412    0.1715 O   0  0  0  0  0  0  0  0  0  0  0  0
  2  3  1  0
  2  5  1  0
  2 32  1  0
  2  1  1  6
  4  3  1  0
  4  5  1  0
  4  6  1  1
  6  7  1  0
  6 15  2  0
  7  8  1  0
  7 12  1  0
  8  9  1  0
  8 14  2  0
  9 10  2  0
  9 13  1  0
 10 11  1  0
 11 12  2  0
 14 15  1  0
 14 16  1  0
 16 17  2  0
 16 25  1  0
 17 18  1  0
 18 19  2  0
 18 23  1  0
 19 20  1  0
 20 21  2  0
 20 26  1  0
 21 22  1  0
 22 23  2  0
 23 24  1  0
 24 25  2  0
 26 27  2  0
 26 31  1  0
 27 28  1  0
 28 29  2  0
 29 30  1  0
 30 31  2  0
M  END
>  <DRUGBANK_ID>  (1) 
DB06075

>  <COMMON_NAME>  (1) 
Linsitinib

>  <CAS_NUMBER>  (1) 
867160-71-2

>  <UNII>  (1) 
15A52GPT8T

>  <SYNONYMS>  (1) 
Linsitinib

$$$$
