
     RDKit          3D

  9  9  0  0  0  0  0  0  0  0999 V2000
    1.0756    0.0795    0.0059 C   0  0  0  0  0  0  0  0  0  0  0  0
    0.6199   -1.1073   -0.8228 C   0  0  0  0  0  0  0  0  0  0  0  0
    1.0470   -2.4000   -0.3100 N   0  0  0  0  0  0  0  0  0  0  0  0
    0.5100   -3.5741   -0.7372 C   0  0  0  0  0  0  0  0  0  0  0  0
   -0.3597   -3.7620   -1.5654 O   0  0  0  0  0  0  0  0  0  0  0  0
    1.1708   -4.6516    0.0077 C   0  0  0  0  0  0  0  0  0  0  0  0
    2.0747   -4.0929    0.8097 C   0  0  0  0  0  0  0  0  0  0  0  0
    2.0188   -2.6438    0.6073 C   0  0  0  0  0  0  0  0  0  0  0  0
    2.7430   -1.8772    1.2145 O   0  0  0  0  0  0  0  0  0  0  0  0
  1  2  1  0
  2  3  1  0
  3  4  1  0
  3  8  1  0
  4  5  2  0
  4  6  1  0
  6  7  2  0
  7  8  1  0
  8  9  2  0
M  END
>  <DRUGBANK_ID>  (1) 
DB02967

>  <SECONDARY_ACCESSION_NUMBERS>  (1) 
EXPT02327

>  <COMMON_NAME>  (1) 
N-Ethylmaleimide

>  <CAS_NUMBER>  (1) 
128-53-0

>  <UNII>  (1) 
O3C74ACM9V

$$$$
