G27
     RDKit          3D

 19 20  0  0  0  0  0  0  0  0999 V2000
    1.3873   -0.3918    0.0630 C   0  0  0  0  0  0  0  0  0  0  0  0
    0.4948   -1.4619    0.0267 C   0  0  0  0  0  0  0  0  0  0  0  0
   -0.8818   -1.2232    0.0233 C   0  0  0  0  0  0  0  0  0  0  0  0
   -1.3729    0.0572    0.1853 C   0  0  0  0  0  0  0  0  0  0  0  0
   -0.4752    1.1009    0.3868 C   0  0  0  0  0  0  0  0  0  0  0  0
    0.8975    0.8958    0.1718 C   0  0  0  0  0  0  0  0  0  0  0  0
    1.8146    2.0486   -0.1246 C   0  0  0  0  0  0  0  0  0  0  0  0
    1.4332    2.6711   -1.4635 C   0  0  0  0  0  0  0  0  0  0  0  0
    0.0630    3.3529   -1.4451 C   0  0  0  0  0  0  0  0  0  0  0  0
   -0.0677    4.4631   -0.5038 N   0  0  0  0  0  0  0  0  0  0  0  0
   -1.2426    5.3101   -0.7524 C   0  0  0  0  0  0  0  0  0  0  0  0
    1.1262    5.3092   -0.3133 C   0  0  0  0  0  0  0  0  0  0  0  0
    1.4377    6.2281   -1.5092 C   0  0  1  0  0  0  0  0  0  0  0  0
    1.8825    5.5462   -2.6783 O   0  0  0  0  0  0  0  0  0  0  0  0
    0.2020    7.0748   -1.8306 C   0  0  2  0  0  0  0  0  0  0  0  0
    0.0338    7.9842   -0.7328 O   0  0  0  0  0  0  0  0  0  0  0  0
   -1.0894    6.2332   -1.9855 C   0  0  1  0  0  0  0  0  0  0  0  0
   -1.2162    5.5299   -3.3545 C   0  0  0  0  0  0  0  0  0  0  0  0
   -2.3990    4.7367   -3.4216 O   0  0  0  0  0  0  0  0  0  0  0  0
  1  2  2  0
  1  6  1  0
  2  3  1  0
  3  4  2  0
  4  5  1  0
  5  6  2  0
  6  7  1  0
  7  8  1  0
  8  9  1  0
  9 10  1  0
 10 11  1  0
 10 12  1  0
 11 17  1  0
 12 13  1  0
 13 14  1  6
 13 15  1  0
 15 17  1  0
 15 16  1  1
 17 18  1  6
 18 19  1  0
M  END
>  <DRUGBANK_ID>  (1) 
DB07807

>  <COMMON_NAME>  (1) 
(3R,4R,5R)-5-(HYDROXYMETHYL)-1-(3-PHENYLPROPYL)PIPERIDINE-3,4-DIOL

$$$$
