TRZ
     RDKit          3D

 23 24  0  0  0  0  0  0  0  0999 V2000
   -1.3358   -0.0326   -0.0742 C   0  0  0  0  0  0  0  0  0  0  0  0
   -0.5143    1.1294   -0.1365 C   0  0  0  0  0  0  0  0  0  0  0  0
    0.9075    1.0351   -0.4376 C   0  0  0  0  0  0  0  0  0  0  0  0
    1.4604   -0.1681   -0.1154 C   0  0  0  0  0  0  0  0  0  0  0  0
    0.6661   -1.2564    0.1870 C   0  0  0  0  0  0  0  0  0  0  0  0
   -0.6964   -1.2642   -0.0157 C   0  0  0  0  0  0  0  0  0  0  0  0
    2.1100    2.1032   -1.2115 C   0  0  0  0  0  0  0  0  0  0  0  0
    3.0572    0.7717   -1.4817 C   0  0  2  0  0  0  0  0  0  0  0  0
    2.9102   -0.0554   -0.1883 C   0  0  2  0  0  0  0  0  0  0  0  0
    3.7967   -1.2943   -0.1183 C   0  0  0  0  0  0  0  0  0  0  0  0
    4.8875   -0.8411    0.8457 C   0  0  0  0  0  0  0  0  0  0  0  0
    3.2734   -2.6330    0.3798 C   0  0  0  0  0  0  0  0  0  0  0  0
    4.6020    0.9798   -1.7506 C   0  0  0  0  0  0  0  0  0  0  0  0
    2.7119    2.7973   -2.6123 C   0  0  0  0  0  0  0  0  0  0  0  0
    0.7791    2.6851   -1.7318 C   0  0  0  0  0  0  0  0  0  0  0  0
   -2.8404    0.0080   -0.1845 C   0  0  0  0  0  0  0  0  0  0  0  0
   -0.5858   -3.8941   -0.2093 C   0  0  0  0  0  0  0  0  0  0  0  0
   -1.0227   -4.7527    0.9610 C   0  0  0  0  0  0  0  0  0  0  0  0
   -2.4454   -5.2370    0.8346 C   0  0  0  0  0  0  0  0  0  0  0  0
   -2.7841   -6.3522    0.5252 O   0  0  0  0  0  0  0  0  0  0  0  0
   -3.3435   -4.2655    1.0951 O   0  0  0  0  0  0  0  0  0  0  0  0
   -1.3637   -2.5835   -0.2852 C   0  0  0  0  0  0  0  0  0  0  0  0
   -2.5242   -2.6137   -0.6905 O   0  0  0  0  0  0  0  0  0  0  0  0
  1  2  2  0
  1  6  1  0
  1 16  1  0
  2  3  1  0
  3  4  2  0
  3  7  1  0
  4  5  1  0
  4  9  1  0
  5  6  2  0
  6 22  1  0
  7  8  1  0
  7 14  1  0
  7 15  1  0
  8  9  1  0
  8 13  1  1
  9 10  1  6
 10 11  1  0
 10 12  1  0
 17 18  1  0
 17 22  1  0
 18 19  1  0
 19 20  2  0
 19 21  1  0
 22 23  2  0
M  END
>  <DRUGBANK_ID>  (1) 
DB08647

>  <COMMON_NAME>  (1) 
Trazeolide

$$$$
