U15
     RDKit          3D

 28 28  0  0  0  0  0  0  0  0999 V2000
   12.2723    4.5215   -6.9548 O   0  0  0  0  0  0  0  0  0  0  0  0
   11.0749    4.3596   -6.7616 C   0  0  0  0  0  0  0  0  0  0  0  0
   10.1770    5.0535   -7.5059 O   0  0  0  0  0  0  0  0  0  0  0  0
    8.7614    5.0124   -7.3047 C   0  0  0  0  0  0  0  0  0  0  0  0
   10.5457    3.4238   -5.6575 C   0  0  1  0  0  0  0  0  0  0  0  0
   10.9254    1.9522   -5.9558 C   0  0  0  0  0  0  0  0  0  0  0  0
   12.4292    1.6424   -6.1050 C   0  0  0  0  0  0  0  0  0  0  0  0
   13.2355    1.9400   -4.8451 C   0  0  0  0  0  0  0  0  0  0  0  0
   12.6521    0.1795   -6.4757 C   0  0  0  0  0  0  0  0  0  0  0  0
   11.0016    3.8844   -4.3312 N   0  0  0  0  0  0  0  0  0  0  0  0
   10.3159    4.2332   -3.2045 C   0  0  0  0  0  0  0  0  0  0  0  0
   10.9334    4.4753   -2.1728 O   0  0  0  0  0  0  0  0  0  0  0  0
    8.8057    4.4525   -3.3253 C   0  0  2  0  0  0  0  0  0  0  0  0
    8.5879    5.8590   -3.8204 C   0  0  0  0  0  0  0  0  0  0  0  0
    8.0488    4.2544   -2.1048 N   0  0  0  0  0  0  0  0  0  0  0  0
    7.1678    3.2389   -1.8400 C   0  0  0  0  0  0  0  0  0  0  0  0
    6.6562    3.1730   -0.7226 O   0  0  0  0  0  0  0  0  0  0  0  0
    6.8494    2.1878   -2.9278 C   0  0  1  0  0  0  0  0  0  0  0  0
    6.2853    2.8413   -4.0818 O   0  0  0  0  0  0  0  0  0  0  0  0
    8.0575    1.2918   -3.3598 C   0  0  2  0  0  0  0  0  0  0  0  0
    7.5791    0.2631   -4.3243 N   0  0  0  0  0  0  0  0  0  0  0  0
    8.8626    0.7129   -2.2097 C   0  0  0  0  0  0  0  0  0  0  0  0
    9.1405   -0.6494   -2.1113 C   0  0  0  0  0  0  0  0  0  0  0  0
    9.8475   -1.1526   -1.0179 C   0  0  0  0  0  0  0  0  0  0  0  0
   10.2939   -0.3061    0.0006 C   0  0  0  0  0  0  0  0  0  0  0  0
   11.0568   -0.8106    1.1761 C   0  0  0  0  0  0  0  0  0  0  0  0
   10.0569    1.0510   -0.0946 C   0  0  0  0  0  0  0  0  0  0  0  0
    9.4027    1.5398   -1.2089 C   0  0  0  0  0  0  0  0  0  0  0  0
  1  2  2  0
  2  3  1  0
  2  5  1  0
  3  4  1  0
  5  6  1  6
  5 10  1  0
  6  7  1  0
  7  8  1  0
  7  9  1  0
 10 11  1  0
 11 12  2  0
 13 15  1  0
 13 14  1  1
 13 11  1  0
 15 16  1  0
 16 17  2  0
 16 18  1  0
 18 19  1  6
 20 22  1  0
 20 21  1  1
 20 18  1  0
 22 23  2  0
 22 28  1  0
 23 24  1  0
 24 25  2  0
 25 26  1  0
 25 27  1  0
 27 28  2  0
M  END
>  <DRUGBANK_ID>  (1) 
DB08669

>  <COMMON_NAME>  (1) 
METHYL N-[(2S,3R)-3-AMINO-2-HYDROXY-3-(4-METHYLPHENYL)PROPANOYL]-D-ALANYL-D-LEUCINATE

$$$$
