
     RDKit          3D

 29 31  0  0  0  0  0  0  0  0999 V2000
    0.9652   -0.1351    0.2237 C   0  0  0  0  0  0  0  0  0  0  0  0
   -1.4779    6.8715    4.3117 C   0  0  0  0  0  0  0  0  0  0  0  0
    1.2616    1.0038   -2.5523 C   0  0  0  0  0  0  0  0  0  0  0  0
    3.5689    1.4422   -1.9395 C   0  0  0  0  0  0  0  0  0  0  0  0
    1.6858    0.0844   -3.5115 C   0  0  0  0  0  0  0  0  0  0  0  0
    3.9880    0.4945   -2.8785 C   0  0  0  0  0  0  0  0  0  0  0  0
   -0.1571    5.4900    2.2734 C   0  0  0  0  0  0  0  0  0  0  0  0
    0.5041    4.7811    1.2625 C   0  0  0  0  0  0  0  0  0  0  0  0
   -1.0930    3.4558    3.1497 C   0  0  0  0  0  0  0  0  0  0  0  0
   -1.0300    0.2338    2.6154 C   0  0  0  0  0  0  0  0  0  0  0  0
    1.1728    0.0212    5.5669 C   0  0  0  0  0  0  0  0  0  0  0  0
    0.5009    1.1649    0.7826 C   0  0  0  0  0  0  0  0  0  0  0  0
    2.2022    1.6955   -1.7789 C   0  0  0  0  0  0  0  0  0  0  0  0
    3.0487   -0.1379   -3.6957 C   0  0  0  0  0  0  0  0  0  0  0  0
   -0.9473    4.8429    3.2160 C   0  0  0  0  0  0  0  0  0  0  0  0
   -0.3535    1.3277    1.8571 C   0  0  0  0  0  0  0  0  0  0  0  0
   -0.4285    2.7162    2.1431 C   0  0  0  0  0  0  0  0  0  0  0  0
    0.3682    3.3813    1.2075 C   0  0  0  0  0  0  0  0  0  0  0  0
    0.8898    1.3059    6.3310 C   0  0  0  0  0  0  0  0  0  0  0  0
   -0.6064    0.1837    4.0591 C   0  0  0  0  0  0  0  0  0  0  0  0
    1.7536    2.6974   -0.7871 C   0  0  0  0  0  0  0  0  0  0  0  0
    3.5727   -1.1480   -4.9849 Cl  0  0  0  0  0  0  0  0  0  0  0  0
    0.9107    2.4254    0.3298 N   0  0  0  0  0  0  0  0  0  0  0  0
    0.2609    1.4077    7.3780 O   0  0  0  0  0  0  0  0  0  0  0  0
    1.4446    2.3900    5.7533 O   0  0  0  0  0  0  0  0  0  0  0  0
   -1.4040    0.2512    4.9878 O   0  0  0  0  0  0  0  0  0  0  0  0
    2.1476    3.8491   -0.9705 O   0  0  0  0  0  0  0  0  0  0  0  0
   -1.6145    5.4554    4.2446 O   0  0  0  0  0  0  0  0  0  0  0  0
    0.7388    0.0179    4.2058 O   0  0  0  0  0  0  0  0  0  0  0  0
  5  3  2  0
  6  4  1  0
  8  7  2  0
 12  1  1  0
 13  3  1  0
 13  4  2  0
 14  5  1  0
 14  6  2  0
 15  7  1  0
 15  9  2  0
 16 10  1  0
 16 12  2  0
 17  9  1  0
 17 16  1  0
 18  8  1  0
 18 17  2  0
 19 11  1  0
 20 10  1  0
 21 13  1  0
 22 14  1  0
 23 12  1  0
 23 18  1  0
 23 21  1  0
 24 19  2  0
 25 19  1  0
 26 20  2  0
 27 21  2  0
 28  2  1  0
 28 15  1  0
 29 11  1  0
 29 20  1  0
M  END
>  <DRUGBANK_ID>  (1) 
DB13783

>  <COMMON_NAME>  (1) 
Acemetacin

>  <CAS_NUMBER>  (1) 
53164-05-9

>  <UNII>  (1) 
5V141XK28X

>  <SYNONYMS>  (1) 
Acemetacin; Acemetacina; Acemetacine; Acemetacinum; indometacin carboxymethyl ester; indometacin glycolic ester; indomethacin carboxymethyl ester; indomethacin glycolic ester

$$$$
