
     RDKit          3D

 15 16  0  0  1  0  0  0  0  0999 V2000
    1.0931    0.1592    0.0181 C   0  0  0  0  0  0  0  0  0  0  0  0
    0.7034    0.3324   -1.4490 C   0  0  0  0  0  0  0  0  0  0  0  0
    1.2359   -0.7596   -2.3384 C   0  0  0  0  0  0  0  0  0  0  0  0
    1.7547   -1.9307   -1.9237 C   0  0  0  0  0  0  0  0  0  0  0  0
    1.8097   -2.8992   -3.0366 C   0  0  2  0  0  0  0  0  0  0  0  0
    1.7117   -2.0153   -4.3180 C   0  0  2  0  0  0  0  0  0  0  0  0
    1.0713   -0.6917   -3.8431 C   0  0  0  0  0  0  0  0  0  0  0  0
    0.8488   -3.1495   -4.9332 C   0  0  0  0  0  0  0  0  0  0  0  0
    0.4024   -3.5830   -3.4752 C   0  0  2  0  0  0  0  0  0  0  0  0
   -0.8811   -2.8779   -2.9364 C   0  0  0  0  0  0  0  0  0  0  0  0
   -0.9574   -2.7644   -1.4391 C   0  0  0  0  0  0  0  0  0  0  0  0
   -1.3816   -1.7960   -0.8176 O   0  0  0  0  0  0  0  0  0  0  0  0
   -0.4940   -3.8271   -0.7625 O   0  0  0  0  0  0  0  0  0  0  0  0
    0.2367   -5.1180   -3.2905 C   0  0  0  0  0  0  0  0  0  0  0  0
   -1.1418   -5.5508   -3.5981 N   0  0  0  0  0  0  0  0  0  0  0  0
  1  2  1  0
  2  3  1  0
  3  4  2  0
  3  7  1  0
  5  4  1  1
  5  6  1  0
  5  9  1  0
  6  7  1  1
  6  8  1  0
  8  9  1  0
  9 14  1  6
  9 10  1  0
 10 11  1  0
 11 12  2  0
 11 13  1  0
 14 15  1  0
M  END
>  <DRUGBANK_ID>  (1) 
DB11825

>  <COMMON_NAME>  (1) 
Mirogabalin

>  <CAS_NUMBER>  (1) 
1138245-13-2

>  <UNII>  (1) 
S7LK2KDM5U

>  <SYNONYMS>  (1) 
Mirogabalin

$$$$
