
     RDKit          3D

 12 12  0  0  1  0  0  0  0  0999 V2000
   -2.5435    0.1697   -0.2854 O   0  0  0  0  0  0  0  0  0  0  0  0
   -1.2856   -0.2193    0.2610 C   0  0  1  0  0  0  0  0  0  0  0  0
   -0.9685   -1.6606   -0.1172 C   0  0  0  0  0  0  0  0  0  0  0  0
    0.4317   -2.0250    0.3565 C   0  0  2  0  0  0  0  0  0  0  0  0
    1.4168   -1.1073   -0.1307 O   0  0  0  0  0  0  0  0  0  0  0  0
    1.1794    0.2295    0.2734 C   0  0  1  0  0  0  0  0  0  0  0  0
    2.2443    1.0105   -0.2385 O   0  0  0  0  0  0  0  0  0  0  0  0
   -0.1919    0.7490   -0.1994 C   0  0  2  0  0  0  0  0  0  0  0  0
   -0.4953    2.0510    0.3266 O   0  0  0  0  0  0  0  0  0  0  0  0
    0.9018   -3.4022   -0.1028 C   0  0  0  0  0  0  0  0  0  0  0  0
    2.2203   -3.5855    0.1773 O   0  0  0  0  0  0  0  0  0  0  0  0
    0.2078   -4.2671   -0.6162 O   0  0  0  0  0  0  0  0  0  0  0  0
  2  1  1  6
  2  3  1  0
  2  8  1  0
  3  4  1  0
  4  5  1  0
  4 10  1  6
  5  6  1  0
  6  7  1  6
  6  8  1  0
  8  9  1  1
 10 11  1  0
 10 12  2  0
M  END
>  <DRUGBANK_ID>  (1) 
DB04548

>  <SECONDARY_ACCESSION_NUMBERS>  (1) 
EXPT01554

>  <COMMON_NAME>  (1) 
4-Deoxy-D-Glucuronic Acid

$$$$
