
     RDKit          3D

 22 23  0  0  0  0  0  0  0  0999 V2000
    0.9533   -0.0501   -0.0937 C   0  0  0  0  0  0  0  0  0  0  0  0
   -0.3877   -0.2112    1.9503 C   0  0  0  0  0  0  0  0  0  0  0  0
    1.6679    3.3247   -0.4686 C   0  0  0  0  0  0  0  0  0  0  0  0
    0.3315    4.4419    1.2820 C   0  0  0  0  0  0  0  0  0  0  0  0
    3.8687   -2.0500    0.4883 C   0  0  0  0  0  0  0  0  0  0  0  0
    4.8117    4.9806    3.9397 C   0  0  0  0  0  0  0  0  0  0  0  0
    5.2454    3.9141    3.1667 C   0  0  0  0  0  0  0  0  0  0  0  0
    3.4499    5.2405    4.0430 C   0  0  0  0  0  0  0  0  0  0  0  0
    4.3142    3.1588    2.4511 C   0  0  0  0  0  0  0  0  0  0  0  0
    2.5237    4.3751    3.4551 C   0  0  0  0  0  0  0  0  0  0  0  0
    2.4955    0.2509    2.9348 C   0  0  0  0  0  0  0  0  0  0  0  0
    2.9353    3.3445    2.6059 C   0  0  0  0  0  0  0  0  0  0  0  0
    1.7729    1.1817    2.0099 C   0  0  0  0  0  0  0  0  0  0  0  0
    1.9497    2.5131    1.8838 C   0  0  0  0  0  0  0  0  0  0  0  0
    0.5702    0.7266    1.1774 C   0  0  0  0  0  0  0  0  0  0  0  0
    0.9557    3.0901    0.8844 C   0  0  0  0  0  0  0  0  0  0  0  0
   -0.0879    1.9998    0.7012 N   0  0  0  0  0  0  0  0  0  0  0  0
   -1.1621    2.2779    1.6536 O   0  0  0  0  0  0  0  0  0  0  0  0
    3.9666    0.5419   -0.1570 O   0  0  0  0  0  0  0  0  0  0  0  0
    6.0496   -0.6207    0.5326 O   0  0  0  0  0  0  0  0  0  0  0  0
    4.2652   -0.0064    2.6959 S   0  0  0  0  0  0  0  0  0  0  0  0
    4.6246   -0.4459    0.6818 S   0  0  0  0  0  0  0  0  0  0  0  0
  7  6  2  0
  8  6  1  0
  9  7  1  0
 10  8  2  0
 12  9  2  0
 12 10  1  0
 13 11  1  0
 14 12  1  0
 14 13  2  0
 15  1  1  0
 15  2  1  0
 15 13  1  0
 16  3  1  0
 16  4  1  0
 16 14  1  0
 17 15  1  0
 17 16  1  0
 18 17  1  0
 21 11  1  0
 22  5  1  0
 22 19  2  0
 22 20  2  0
 22 21  1  0
M  END
>  <DRUGBANK_ID>  (1) 
DB08456

>  <COMMON_NAME>  (1) 
S-[(1-Hydroxy-2,2,5,5-tetramethyl-4-phenyl-2,5-dihydro-1H-pyrrol-3-yl)methyl] methanesulfonothioate

$$$$
