
     RDKit          3D

 11  8  0  0  0  0  0  0  0  0999 V2000
    0.0041   -0.6026    1.8063 Cu  0  0  0  0  0 15  0  0  0  0  0  0
    0.0995    0.8590    0.8352 O   0  0  0  0  0  0  0  0  0  0  0  0
    1.2698    0.8123    0.2313 C   0  0  0  0  0  0  0  0  0  0  0  0
    1.4653    1.0522   -0.9587 O   0  0  0  0  0  0  0  0  0  0  0  0
    2.2933   -0.1823    1.4422 C   0  0  0  0  0  0  0  0  0  0  0  0
    2.0017    0.3651    2.7863 N   0  0  0  0  0  0  0  0  0  0  0  0
    2.3701   -1.1225   -0.6461 O   0  0  0  0  0  0  0  0  0  0  0  0
    3.5439   -0.6109   -0.7994 C   0  0  0  0  0  0  0  0  0  0  0  0
    4.5726   -1.3401   -0.9833 O   0  0  0  0  0  0  0  0  0  0  0  0
    4.0709    1.0117   -0.0825 C   0  0  0  0  0  0  0  0  0  0  0  0
    3.4600    2.3216   -0.3653 N   0  0  0  0  0  0  0  0  0  0  0  0
  2  3  2  0
  3  4  1  0
  3  5  1  0
  5  6  1  0
  7  8  1  0
  8  9  2  0
  8 10  1  0
 10 11  1  0
M  CHG  3   1   2   4  -1   7  -1
M  END
>  <DRUGBANK_ID>  (1) 
DB11509

>  <COMMON_NAME>  (1) 
Cupric glycinate

>  <CAS_NUMBER>  (1) 
13479-54-4

>  <UNII>  (1) 
68VAV8QID7

>  <SYNONYMS>  (1) 
Copper glycinate; Copper(II) biglycinate; Copper(II) diglycinate; Copper(II) glycinate; Cupric aminoacetate; Cupric glycinate

$$$$
