
     RDKit          3D

 17 18  0  0  0  0  0  0  0  0999 V2000
   -1.9003   -0.0054   -0.0346 C   0  0  0  0  0  0  0  0  0  0  0  0
   -1.1981    1.2036   -0.0253 C   0  0  0  0  0  0  0  0  0  0  0  0
    0.2038    1.1962   -0.0216 C   0  0  0  0  0  0  0  0  0  0  0  0
    0.9176   -0.0050    0.0006 C   0  0  0  0  0  0  0  0  0  0  0  0
    0.2012   -1.2066   -0.0152 C   0  0  0  0  0  0  0  0  0  0  0  0
   -1.2020   -1.2155   -0.0241 C   0  0  0  0  0  0  0  0  0  0  0  0
   -3.6850    0.0002    0.0450 S   0  0  0  0  0  0  0  0  0  0  0  0
    2.3006   -0.0035   -0.0792 N   0  0  0  0  0  0  0  0  0  0  0  0
   -4.1425   -0.8878   -1.2964 N   0  0  0  0  0  0  0  0  0  0  0  0
   -5.0370   -1.9462   -1.2200 C   0  0  0  0  0  0  0  0  0  0  0  0
   -4.0333   -0.7233    1.2549 O   0  0  0  0  0  0  0  0  0  0  0  0
   -4.1321    1.3555   -0.1704 O   0  0  0  0  0  0  0  0  0  0  0  0
   -6.1409   -2.0813   -0.3538 C   0  0  0  0  0  0  0  0  0  0  0  0
   -4.9269   -3.0050   -2.0278 N   0  0  0  0  0  0  0  0  0  0  0  0
   -6.6253   -3.3408   -0.5989 C   0  0  0  0  0  0  0  0  0  0  0  0
   -5.8948   -3.9074   -1.5981 O   0  0  0  0  0  0  0  0  0  0  0  0
   -7.7161   -4.1428   -0.0130 C   0  0  0  0  0  0  0  0  0  0  0  0
  1  2  2  0
  1  7  1  0
  2  3  1  0
  3  4  2  0
  4  5  1  0
  4  8  1  0
  5  6  2  0
  6  1  1  0
  9 10  1  0
  9  7  1  0
 11  7  2  0
 12  7  2  0
 13 10  1  0
 14 10  2  0
 15 13  2  0
 15 17  1  0
 16 14  1  0
 16 15  1  0
M  END
>  <DRUGBANK_ID>  (1) 
DB01015

>  <SECONDARY_ACCESSION_NUMBERS>  (1) 
APRD00076

>  <COMMON_NAME>  (1) 
Sulfamethoxazole

>  <CAS_NUMBER>  (1) 
723-46-6

>  <UNII>  (1) 
JE42381TNV

>  <SYNONYMS>  (1) 
3-(p-Aminophenylsulfonamido)-5-methylisoxazole; 3-Sulfanilamido-5-methylisoxazole; 4-Amino-N-(5-methyl-3-isoxazolyl)benzenesulfonamide; SMX; Sulfamethoxazole; Sulfametoxazol; Sulphamethoxazole

$$$$
