
     RDKit          3D

 30 32  0  0  1  0  0  0  0  0999 V2000
    2.1416   -0.0454   -0.1046 C   0  0  1  0  0  0  0  0  0  0  0  0
    2.8662    1.2230    0.2254 C   0  0  0  0  0  0  0  0  0  0  0  0
    3.9363    1.0924    1.2837 C   0  0  0  0  0  0  0  0  0  0  0  0
    4.0958   -0.3811    1.2298 C   0  0  1  0  0  0  0  0  0  0  0  0
    4.7570   -1.1037    2.3325 C   0  0  0  0  0  0  0  0  0  0  0  0
    4.6859   -2.5505    1.9696 C   0  0  0  0  0  0  0  0  0  0  0  0
    3.4270   -3.2543    1.5376 C   0  0  0  0  0  0  0  0  0  0  0  0
    2.7192   -2.3999    0.5129 C   0  0  0  0  0  0  0  0  0  0  0  0
    2.6548   -0.9552    1.0171 C   0  0  2  0  0  0  0  0  0  0  0  0
    1.8452   -0.8964    2.3495 C   0  0  0  0  0  0  0  0  0  0  0  0
    5.4408   -0.5962    3.3729 C   0  0  0  0  0  0  0  0  0  0  0  0
    6.2842   -1.4252    4.2169 C   0  0  0  0  0  0  0  0  0  0  0  0
    7.2972   -2.2272    3.8147 C   0  0  0  0  0  0  0  0  0  0  0  0
    8.0359   -3.0747    4.8191 C   0  0  0  0  0  0  0  0  0  0  0  0
    9.5518   -2.9294    4.6490 C   0  0  1  0  0  0  0  0  0  0  0  0
   10.2259   -3.8426    5.5077 O   0  0  0  0  0  0  0  0  0  0  0  0
    9.9796   -3.1788    3.2020 C   0  0  0  0  0  0  0  0  0  0  0  0
    9.3145   -2.1741    2.2645 C   0  0  0  0  0  0  0  0  0  0  0  0
    7.8359   -2.3546    2.4332 C   0  0  0  0  0  0  0  0  0  0  0  0
    7.3199   -3.0087    1.4075 C   0  0  0  0  0  0  0  0  0  0  0  0
    0.5870    0.1220   -0.1276 C   0  0  2  0  0  0  0  0  0  0  0  0
    0.0882   -0.3794   -1.4883 C   0  0  0  0  0  0  0  0  0  0  0  0
   -0.1054    1.5057    0.1875 C   0  0  0  0  0  0  0  0  0  0  0  0
    0.2676    2.4335    1.3978 C   0  0  0  0  0  0  0  0  0  0  0  0
    1.4156    3.4972    1.2355 C   0  0  1  0  0  0  0  0  0  0  0  0
    1.2177    4.2387    0.0334 O   0  0  0  0  0  0  0  0  0  0  0  0
    1.7519    4.3115    2.4952 C   0  0  0  0  0  0  0  0  0  0  0  0
    1.9970    3.4104    3.7233 C   0  0  0  0  0  0  0  0  0  0  0  0
    3.0538    5.0968    2.2181 C   0  0  0  0  0  0  0  0  0  0  0  0
    0.6616    5.1761    2.7609 O   0  0  0  0  0  0  0  0  0  0  0  0
  1  2  1  1
  1  9  1  0
  1 21  1  0
  2  3  1  0
  4  3  1  1
  4  5  1  0
  5  6  1  0
  5 11  2  0
  6  7  1  0
  7  8  1  0
  9  8  1  0
  9  4  1  0
  9 10  1  1
 11 12  1  0
 12 13  2  0
 13 14  1  0
 13 19  1  0
 15 14  1  0
 15 16  1  1
 15 17  1  0
 17 18  1  0
 18 19  1  0
 19 20  2  0
 21 23  1  0
 21 22  1  6
 23 24  1  0
 24 25  1  0
 25 26  1  6
 25 27  1  0
 27 28  1  0
 27 29  1  0
 27 30  1  0
M  END
>  <DRUGBANK_ID>  (1) 
DB18029

>  <COMMON_NAME>  (1) 
24,25-Dihydroxycholecalciferol

>  <CAS_NUMBER>  (1) 
40013-87-4

>  <UNII>  (1) 
0AXX2V8L5Z

>  <SYNONYMS>  (1) 
2,3-heptanediol, 2-methyl-6-((1r,3as,4e,7ar)-octahydro-4-((2z)-2-((5s)-5-hydroxy-2-methylenecyclohexylidene)ethylidene)-7a-methyl-1h-inden-1-yl)-, (6r)-; 24-hydroxycalcidiol; 24,25-dihydroxyvitamin d 3; 24,25-dihydroxyvitamin d3; Secalciferol, (24rs)-

$$$$
