
     RDKit          3D

 20 23  0  0  0  0  0  0  0  0999 V2000
    1.1176   -0.1691    0.0770 O   0  0  0  0  0  0  0  0  0  0  0  0
    6.0090    1.2946   -2.0185 N   0  0  0  0  0  0  0  0  0  0  0  0
    3.0933   -0.5319   -0.9309 N   0  0  0  0  0  0  0  0  0  0  0  0
    3.8500    1.6530    1.1675 N   0  0  0  0  0  0  0  0  0  0  0  0
    4.3242    1.8828    2.3850 N   0  0  0  0  0  0  0  0  0  0  0  0
    5.0216   -1.0763   -2.4660 C   0  0  0  0  0  0  0  0  0  0  0  0
    4.5527   -0.5745   -1.0749 C   0  0  1  0  0  0  0  0  0  0  0  0
    4.5635   -0.0605   -3.5311 C   0  0  0  0  0  0  0  0  0  0  0  0
    6.5713   -1.0681   -2.4743 C   0  0  0  0  0  0  0  0  0  0  0  0
    5.1828    0.8263   -0.9016 C   0  0  0  0  0  0  0  0  0  0  0  0
    5.1291    1.3298   -3.2012 C   0  0  0  0  0  0  0  0  0  0  0  0
    7.1034    0.3427   -2.1841 C   0  0  0  0  0  0  0  0  0  0  0  0
    2.3493   -0.0316    0.1287 C   0  0  0  0  0  0  0  0  0  0  0  0
    3.0051    0.6130    1.2880 C   0  0  0  0  0  0  0  0  0  0  0  0
    2.7678    0.3751    2.6670 C   0  0  0  0  0  0  0  0  0  0  0  0
    3.6464    1.2128    3.3513 C   0  0  0  0  0  0  0  0  0  0  0  0
    1.9057   -0.4464    3.4016 C   0  0  0  0  0  0  0  0  0  0  0  0
    3.7275    1.2973    4.7357 C   0  0  0  0  0  0  0  0  0  0  0  0
    1.9437   -0.3589    4.7962 C   0  0  0  0  0  0  0  0  0  0  0  0
    2.8369    0.4975    5.4480 C   0  0  0  0  0  0  0  0  0  0  0  0
  1 13  2  0
  2 10  1  0
  2 11  1  0
  2 12  1  0
  3 13  1  0
  4  5  1  0
  4 14  2  0
  5 16  1  0
  6  7  1  0
  6  8  1  0
  6  9  1  0
  7  3  1  6
  7 10  1  0
  8 11  1  0
  9 12  1  0
 13 14  1  0
 14 15  1  0
 15 16  2  0
 15 17  1  0
 16 18  1  0
 17 19  2  0
 18 20  2  0
 19 20  1  0
M  END
>  <DRUGBANK_ID>  (1) 
DB05586

>  <COMMON_NAME>  (1) 
Facinicline

>  <CAS_NUMBER>  (1) 
677306-35-3

>  <UNII>  (1) 
6A6FX0J03K

>  <SYNONYMS>  (1) 
Facinicline

$$$$
