
     RDKit          3D

 20 22  0  0  0  0  0  0  0  0999 V2000
   -1.1599    0.4769   -0.0681 N   0  0  0  0  0  0  0  0  0  0  0  0
   -0.2113    0.5433    1.0650 C   0  0  1  0  0  0  0  0  0  0  0  0
    0.4618   -0.8525    1.2797 C   0  0  1  0  0  0  0  0  0  0  0  0
    1.1021   -1.4697   -0.0058 C   0  0  2  0  0  0  0  0  0  0  0  0
    0.3508   -1.0623   -1.2952 C   0  0  0  0  0  0  0  0  0  0  0  0
   -0.3093    0.3263   -1.2481 C   0  0  2  0  0  0  0  0  0  0  0  0
    0.6923    1.4505   -1.0092 C   0  0  0  0  0  0  0  0  0  0  0  0
    0.5574    1.7432    0.4787 C   0  0  0  0  0  0  0  0  0  0  0  0
    1.2738   -2.9990    0.0456 C   0  0  0  0  0  0  0  0  0  0  0  0
    0.7555   -3.7989    1.0766 C   0  0  0  0  0  0  0  0  0  0  0  0
    0.9239   -5.1814    1.1082 C   0  0  0  0  0  0  0  0  0  0  0  0
    1.6325   -5.8088    0.0793 C   0  0  0  0  0  0  0  0  0  0  0  0
    2.1513   -5.0390   -0.9596 C   0  0  0  0  0  0  0  0  0  0  0  0
    1.9861   -3.6513   -0.9810 C   0  0  0  0  0  0  0  0  0  0  0  0
    1.8932   -7.5124    0.0553 Cl  0  0  0  0  0  0  0  0  0  0  0  0
    0.2278   -6.0422    2.4337 Cl  0  0  0  0  0  0  0  0  0  0  0  0
    1.4321   -1.0233    2.4913 C   0  0  0  0  0  0  0  0  0  0  0  0
    1.9196    0.1933    3.0246 O   0  0  0  0  0  0  0  0  0  0  0  0
    2.8551    0.7898    2.1458 C   0  0  0  0  0  0  0  0  0  0  0  0
   -2.2779   -0.4352    0.0108 C   0  0  0  0  0  0  0  0  0  0  0  0
  2  1  1  0
  3  2  1  0
  3 17  1  1
  4  3  1  0
  4  5  1  0
  4  9  1  1
  6  5  1  1
  6  1  1  0
  7  6  1  0
  8  7  1  0
  2  8  1  6
 10  9  2  0
 11 10  1  0
 12 11  2  0
 12 13  1  0
 13 14  2  0
 14  9  1  0
 15 12  1  0
 16 11  1  0
 18 17  1  0
 19 18  1  0
 20  1  1  0
M  END
>  <DRUGBANK_ID>  (1) 
DB05805

>  <COMMON_NAME>  (1) 
NS-2359

>  <CAS_NUMBER>  (1) 
195875-68-4

>  <UNII>  (1) 
76H76554PA

$$$$
