
     RDKit          3D

 15 16  0  0  0  0  0  0  0  0999 V2000
   -1.0762    1.2465   -0.0029 C   0  0  0  0  0  0  0  0  0  0  0  0
   -1.8076    2.4157    0.0087 O   0  0  0  0  0  0  0  0  0  0  0  0
    0.3187    1.1976    0.0292 C   0  0  0  0  0  0  0  0  0  0  0  0
   -1.7979    0.0497   -0.0169 C   0  0  0  0  0  0  0  0  0  0  0  0
   -1.1414    3.6250    0.0381 C   0  0  0  0  0  0  0  0  0  0  0  0
    1.0014   -0.0209    0.0096 C   0  0  0  0  0  0  0  0  0  0  0  0
   -1.1242   -1.1765   -0.0057 C   0  0  0  0  0  0  0  0  0  0  0  0
   -0.2252    4.0688   -1.0433 C   0  0  0  0  0  0  0  0  0  0  0  0
   -1.2621    4.5102    1.0305 C   0  0  0  0  0  0  0  0  0  0  0  0
    0.2716   -1.2111    0.0012 C   0  0  0  0  0  0  0  0  0  0  0  0
    2.4998   -0.0258   -0.0092 C   0  0  0  0  0  0  0  0  0  0  0  0
    0.4334    5.1821   -1.0770 N   0  0  0  0  0  0  0  0  0  0  0  0
   -0.5604    5.6838    0.9998 N   0  0  0  0  0  0  0  0  0  0  0  0
    0.2623    6.0614   -0.0378 C   0  0  0  0  0  0  0  0  0  0  0  0
    0.8079    7.1621    0.0040 O   0  0  0  0  0  0  0  0  0  0  0  0
  1  2  1  0
  1  3  2  0
  1  4  1  0
  2  5  1  0
  3  6  1  0
  4  7  2  0
  5  8  1  0
  5  9  2  0
  6 10  2  0
  6 11  1  0
  7 10  1  0
  8 12  2  0
  9 13  1  0
 12 14  1  0
 13 14  1  0
 14 15  2  0
M  END
>  <DRUGBANK_ID>  (1) 
DB16841

>  <COMMON_NAME>  (1) 
Tolimidone

>  <CAS_NUMBER>  (1) 
41964-07-2

>  <UNII>  (1) 
MU3JD8E9IS

>  <SYNONYMS>  (1) 
Tolimidone

$$$$
