
     RDKit          3D

  9  8  0  0  0  0  0  0  0  0999 V2000
    1.0880    0.0601    2.3970 C   0  0  0  0  0  0  0  0  0  0  0  0
    1.4638    1.5241    2.1516 C   0  0  0  0  0  0  0  0  0  0  0  0
    2.3875    0.1555   -0.2993 O   0  0  0  0  0  0  0  0  0  0  0  0
    2.0307    2.2133    3.3812 C   0  0  0  0  0  0  0  0  0  0  0  0
    1.0675   -0.1368   -0.2090 C   0  0  0  0  0  0  0  0  0  0  0  0
    0.3393    0.0151   -1.1870 O   0  0  0  0  0  0  0  0  0  0  0  0
    0.5892   -0.6968    1.1599 C   0  0  2  0  0  0  0  0  0  0  0  0
   -0.8869   -0.7500    1.2078 N   0  0  0  0  0  0  0  0  0  0  0  0
    3.2440    1.4733    3.9311 C   0  0  0  0  0  0  0  0  0  0  0  0
  1  2  1  0
  2  4  1  0
  4  9  1  0
  5  3  1  0
  5  6  2  0
  7  8  1  6
  7  5  1  0
  7  1  1  0
M  END
>  <DRUGBANK_ID>  (1) 
DB04419

>  <SECONDARY_ACCESSION_NUMBERS>  (1) 
EXPT02355

>  <COMMON_NAME>  (1) 
D-norleucine

>  <CAS_NUMBER>  (1) 
327-56-0

>  <UNII>  (1) 
VP8G7LX265

>  <SYNONYMS>  (1) 
D-(âˆ’)-norleucine; D-2-aminohexanoic acid

$$$$
