DET
     RDKit          3D

 15 14  0  0  0  0  0  0  0  0999 V2000
    0.8587    0.0468    0.0787 N   0  0  0  0  0  0  0  0  0  0  0  0
    0.2948   -0.9691   -0.6473 O   0  0  0  0  0  0  0  0  0  0  0  0
    0.2972    0.0429    1.4699 C   0  0  0  0  0  0  0  0  0  0  0  0
    0.4687    1.3011   -0.6359 C   0  0  0  0  0  0  0  0  0  0  0  0
    2.3834   -0.0399    0.1476 C   0  0  0  0  0  0  0  0  0  0  0  0
    2.9025   -1.3028    0.8457 C   0  0  0  0  0  0  0  0  0  0  0  0
    2.4740   -2.5809    0.1219 C   0  0  0  0  0  0  0  0  0  0  0  0
    2.9762   -2.5845   -1.3246 C   0  0  0  0  0  0  0  0  0  0  0  0
    4.5071   -2.5903   -1.3527 C   0  0  0  0  0  0  0  0  0  0  0  0
    5.0460   -3.8374   -0.6432 C   0  0  0  0  0  0  0  0  0  0  0  0
    4.5375   -5.1083   -1.3309 C   0  0  0  0  0  0  0  0  0  0  0  0
    5.0171   -5.1692   -2.7844 C   0  0  0  0  0  0  0  0  0  0  0  0
    6.5470   -5.2023   -2.8673 C   0  0  0  0  0  0  0  0  0  0  0  0
    7.1368   -6.4012   -2.1222 C   0  0  0  0  0  0  0  0  0  0  0  0
    6.6341   -7.7091   -2.7113 C   0  0  0  0  0  0  0  0  0  0  0  0
  1  2  1  0
  1  3  1  0
  1  4  1  0
  1  5  1  0
  5  6  1  0
  6  7  1  0
  7  8  1  0
  8  9  1  0
  9 10  1  0
 10 11  1  0
 11 12  1  0
 12 13  1  0
 13 14  1  0
 14 15  1  0
M  CHG  2   1   1   2  -1
M  END
>  <DRUGBANK_ID>  (1) 
DB07646

>  <COMMON_NAME>  (1) 
UNDECYLAMINE-N,N-DIMETHYL-N-OXIDE

$$$$
