
     RDKit          3D

 18 20  0  0  0  0  0  0  0  0999 V2000
   -0.0211   -0.7080    0.0021 C   0  0  0  0  0  0  0  0  0  0  0  0
   -1.2139   -1.4164   -0.0409 O   0  0  0  0  0  0  0  0  0  0  0  0
    2.4010   -0.7243   -0.0326 C   0  0  0  0  0  0  0  0  0  0  0  0
    2.4442    0.6659    0.0417 C   0  0  0  0  0  0  0  0  0  0  0  0
    1.2584    1.3821    0.0956 C   0  0  0  0  0  0  0  0  0  0  0  0
    0.0455    0.6905    0.0745 C   0  0  0  0  0  0  0  0  0  0  0  0
    1.1823   -1.4204   -0.0604 C   0  0  0  0  0  0  0  0  0  0  0  0
   -1.1963    1.4535    0.0705 C   0  0  0  0  0  0  0  0  0  0  0  0
   -2.3844    0.6922   -0.3718 C   0  0  0  0  0  0  0  0  0  0  0  0
   -2.3752   -0.6423    0.3720 C   0  0  1  0  0  0  0  0  0  0  0  0
    3.6075   -1.3620   -0.0741 O   0  0  0  0  0  0  0  0  0  0  0  0
   -3.7196   -1.3750    0.2041 C   0  0  0  0  0  0  0  0  0  0  0  0
   -3.9276   -2.6842    0.6636 C   0  0  0  0  0  0  0  0  0  0  0  0
   -5.2050   -3.2712    0.5942 C   0  0  0  0  0  0  0  0  0  0  0  0
   -6.3106   -2.5287    0.1789 C   0  0  0  0  0  0  0  0  0  0  0  0
   -6.1391   -1.2122   -0.2048 C   0  0  0  0  0  0  0  0  0  0  0  0
   -4.8564   -0.6788   -0.2639 C   0  0  0  0  0  0  0  0  0  0  0  0
   -1.2391    2.6442    0.3723 O   0  0  0  0  0  0  0  0  0  0  0  0
  1  2  1  0
  1  7  2  0
  3 11  1  0
  3  4  2  0
  3  7  1  0
  4  5  1  0
  5  6  2  0
  6  1  1  0
  6  8  1  0
  8 18  2  0
  8  9  1  0
  9 10  1  0
 10  2  1  0
 10 12  1  6
 12 13  2  0
 12 17  1  0
 13 14  1  0
 14 15  2  0
 15 16  1  0
 16 17  2  0
M  END
>  <DRUGBANK_ID>  (1) 
DB04274

>  <SECONDARY_ACCESSION_NUMBERS>  (1) 
EXPT01141

>  <COMMON_NAME>  (1) 
(2S)-7-hydroxyflavanone

>  <CAS_NUMBER>  (1) 
2545-13-3

>  <UNII>  (1) 
MF98742K2H

>  <SYNONYMS>  (1) 
(-)-7-Hydroxyflavanone

$$$$
