
     RDKit          3D

 24 27  0  0  0  0  0  0  0  0999 V2000
    4.2270    0.0042    0.2363 C   0  0  0  0  0  0  0  0  0  0  0  0
    3.6803    1.4062    0.1030 C   0  0  0  0  0  0  0  0  0  0  0  0
    2.1980    1.4949    0.4448 C   0  0  0  0  0  0  0  0  0  0  0  0
    5.3893   -0.1885    0.5960 O   0  0  0  0  0  0  0  0  0  0  0  0
    3.3735   -1.1367   -0.2659 C   0  0  0  0  0  0  0  0  0  0  0  0
    1.9152   -0.9720    0.1613 C   0  0  2  0  0  0  0  0  0  0  0  0
    1.0749   -2.1418   -0.3620 C   0  0  0  0  0  0  0  0  0  0  0  0
   -0.3668   -2.0448    0.1130 C   0  0  0  0  0  0  0  0  0  0  0  0
   -1.0002   -0.6919   -0.2321 C   0  0  1  0  0  0  0  0  0  0  0  0
   -2.3921   -0.5825    0.3675 C   0  0  2  0  0  0  0  0  0  0  0  0
   -3.3914   -1.6736    0.0220 C   0  0  0  0  0  0  0  0  0  0  0  0
   -4.7315   -1.0401    0.3598 C   0  0  0  0  0  0  0  0  0  0  0  0
   -4.4548    0.4466    0.6957 C   0  0  2  0  0  0  0  0  0  0  0  0
   -5.5544    1.2601    0.2900 O   0  0  0  0  0  0  0  0  0  0  0  0
   -3.1129    0.7308   -0.0050 C   0  0  2  0  0  0  0  0  0  0  0  0
   -3.3129    0.9540   -1.5180 C   0  0  0  0  0  0  0  0  0  0  0  0
   -2.2964    1.8873    0.5945 C   0  0  0  0  0  0  0  0  0  0  0  0
   -0.8390    1.8587    0.0992 C   0  0  0  0  0  0  0  0  0  0  0  0
   -0.1425    0.4872    0.3060 C   0  0  2  0  0  0  0  0  0  0  0  0
    1.3241    0.4149   -0.2422 C   0  0  1  0  0  0  0  0  0  0  0  0
    1.3490    0.6237   -1.7770 C   0  0  0  0  0  0  0  0  0  0  0  0
   -6.7595    1.0922    0.8977 C   0  0  0  0  0  0  0  0  0  0  0  0
   -6.8431    0.2086    2.1197 C   0  0  0  0  0  0  0  0  0  0  0  0
   -7.7697    1.6440    0.4578 O   0  0  0  0  0  0  0  0  0  0  0  0
  1  2  1  0
  1  4  2  0
  1  5  1  0
  2  3  1  0
  3 20  1  0
  6  5  1  6
  6  7  1  0
  6 20  1  0
  7  8  1  0
  9  8  1  1
  9 10  1  0
  9 19  1  0
 10 11  1  6
 10 15  1  0
 11 12  1  0
 12 13  1  0
 13 15  1  0
 13 14  1  6
 14 22  1  0
 15 16  1  6
 15 17  1  0
 17 18  1  0
 19 18  1  6
 19 20  1  0
 20 21  1  6
 22 23  1  0
 22 24  2  0
M  END
>  <DRUGBANK_ID>  (1) 
DB13951

>  <SECONDARY_ACCESSION_NUMBERS>  (1) 
DBSALT002357

>  <COMMON_NAME>  (1) 
Stanolone acetate

>  <CAS_NUMBER>  (1) 
1164-91-6

>  <UNII>  (1) 
63Z2Y83W8N

>  <SYNONYMS>  (1) 
Androstanolone acetate; Dihydrotestosterone acetate

$$$$
