(3a,5b,12a)-3,12-dihydroxy-Cholan-24-oic acid.mol
     RDKit          3D

 28 31  0  0  0  0  0  0  0  0999 V2000
   -3.8015    0.3470   -0.7191 C   0  0  2  0  0  0  0  0  0  0  0  0
   -3.0542    1.5106   -0.0808 C   0  0  0  0  0  0  0  0  0  0  0  0
   -2.4913    1.0862    1.2733 C   0  0  0  0  0  0  0  0  0  0  0  0
   -2.8849   -0.8578   -0.8875 C   0  0  0  0  0  0  0  0  0  0  0  0
   -2.2775   -1.3121    0.4528 C   0  0  1  0  0  0  0  0  0  0  0  0
   -1.3709   -2.5319    0.2205 C   0  0  0  0  0  0  0  0  0  0  0  0
   -0.0950   -2.1892   -0.5233 C   0  0  0  0  0  0  0  0  0  0  0  0
    0.6403   -1.0504    0.1424 C   0  0  1  0  0  0  0  0  0  0  0  0
    1.8239   -0.6248   -0.7484 C   0  0  2  0  0  0  0  0  0  0  0  0
    2.8674   -1.6741   -1.1432 C   0  0  0  0  0  0  0  0  0  0  0  0
    4.1546   -0.8655   -1.3816 C   0  0  0  0  0  0  0  0  0  0  0  0
    3.9068    0.5970   -0.8600 C   0  0  2  0  0  0  0  0  0  0  0  0
    5.1896    1.3583   -0.2730 C   0  0  1  0  0  0  0  0  0  0  0  0
    5.0637    2.2057    1.0516 C   0  0  0  0  0  0  0  0  0  0  0  0
    4.6657    1.5465    2.4101 C   0  0  0  0  0  0  0  0  0  0  0  0
    5.4475    0.2899    2.9766 C   0  0  0  0  0  0  0  0  0  0  0  0
    6.3780    0.4154   -0.1487 C   0  0  0  0  0  0  0  0  0  0  0  0
    2.6411    0.3895    0.0320 C   0  0  2  0  0  0  0  0  0  0  0  0
    2.9989   -0.3961    1.2933 C   0  0  0  0  0  0  0  0  0  0  0  0
    1.8272    1.6750    0.3008 C   0  0  2  0  0  0  0  0  0  0  0  0
    0.5535    1.3559    1.0759 C   0  0  0  0  0  0  0  0  0  0  0  0
   -0.2439    0.2002    0.4236 C   0  0  2  0  0  0  0  0  0  0  0  0
   -1.5479   -0.1495    1.1964 C   0  0  1  0  0  0  0  0  0  0  0  0
   -1.2474   -0.5807    2.6537 C   0  0  0  0  0  0  0  0  0  0  0  0
    5.9842    0.2579    4.0903 O   0  0  0  0  0  0  0  0  0  0  0  0
    5.4945   -0.8352    2.2361 O   0  0  0  0  0  0  0  0  0  0  0  0
    1.4913    2.3509   -0.9125 O   0  0  0  0  0  0  0  0  0  0  0  0
   -4.3232    0.7321   -1.9842 O   0  0  0  0  0  0  0  0  0  0  0  0
  1  2  1  0
  1  4  1  0
  1 28  1  6
  2  3  1  0
  3 23  1  0
  5  4  1  6
  5  6  1  0
  5 23  1  0
  6  7  1  0
  8  7  1  6
  8  9  1  0
  8 22  1  0
  9 10  1  1
  9 18  1  0
 10 11  1  0
 12 11  1  1
 12 18  1  0
 12 13  1  0
 13 14  1  0
 13 17  1  1
 14 15  1  0
 15 16  1  0
 16 25  2  0
 16 26  1  0
 18 19  1  1
 18 20  1  0
 20 21  1  0
 20 27  1  6
 22 21  1  1
 22 23  1  0
 23 24  1  1
M  END
>  <DRUGBANK_ID>  (1) 
DB03619

>  <SECONDARY_ACCESSION_NUMBERS>  (1) 
EXPT01194; DB07690

>  <COMMON_NAME>  (1) 
Deoxycholic acid

>  <CAS_NUMBER>  (1) 
83-44-3

>  <UNII>  (1) 
005990WHZZ

>  <SYNONYMS>  (1) 
(3α,5β,12α)-3,12-dihydroxycholan-24-oic acid; 3alpha,12alpha-Dihydroxy-5beta-cholanic acid; 7α-deoxycholic acid; Deoxycholate; Deoxycholic acid; Desoxycholic acid; Desoxycholsäure

$$$$
