1245
     RDKit          3D

 18 17  0  0  0  0  0  0  0  0999 V2000
    1.1621    0.1805    0.0249 N   0  0  0  0  0  0  0  0  0  0  0  0
   -3.5188   -6.8454    5.3696 N   0  0  0  0  0  0  0  0  0  0  0  0
    0.7045   -1.2006   -0.4834 C   0  0  0  0  0  0  0  0  0  0  0  0
   -3.0612   -6.9667    3.9029 C   0  0  0  0  0  0  0  0  0  0  0  0
    1.2089   -2.3717    0.3682 C   0  0  0  0  0  0  0  0  0  0  0  0
   -3.5656   -5.8334    3.0015 C   0  0  0  0  0  0  0  0  0  0  0  0
    0.6459   -2.3851    1.7818 C   0  0  0  0  0  0  0  0  0  0  0  0
   -3.0026   -4.4675    3.3658 C   0  0  0  0  0  0  0  0  0  0  0  0
   -0.8806   -2.3092    1.7334 C   0  0  0  0  0  0  0  0  0  0  0  0
   -1.4761   -4.5344    3.4261 C   0  0  0  0  0  0  0  0  0  0  0  0
   -1.3959   -3.6102    1.1213 C   0  0  0  0  0  0  0  0  0  0  0  0
   -0.9608   -4.7771    2.0089 C   0  0  0  0  0  0  0  0  0  0  0  0
    0.6388    0.6240    1.3910 C   0  0  0  0  0  0  0  0  0  0  0  0
    0.6185    1.2252   -0.9512 C   0  0  0  0  0  0  0  0  0  0  0  0
    2.6811    0.2096    0.0245 C   0  0  0  0  0  0  0  0  0  0  0  0
   -5.0378   -6.8535    5.3975 C   0  0  0  0  0  0  0  0  0  0  0  0
   -2.9752   -8.0649    6.1158 C   0  0  0  0  0  0  0  0  0  0  0  0
   -2.9955   -5.6472    6.1616 C   0  0  0  0  0  0  0  0  0  0  0  0
  1  3  1  0
  1 13  1  0
  1 14  1  0
  1 15  1  0
  2  4  1  0
  2 16  1  0
  2 17  1  0
  2 18  1  0
  3  5  1  0
  4  6  1  0
  5  7  1  0
  6  8  1  0
  7  9  1  0
  8 10  1  0
  9 11  1  0
 10 12  1  0
 11 12  1  0
M  CHG  2   1   1   2   1
M  END
>  <DRUGBANK_ID>  (1) 
DB01245

>  <SECONDARY_ACCESSION_NUMBERS>  (1) 
APRD00696

>  <COMMON_NAME>  (1) 
Decamethonium

>  <CAS_NUMBER>  (1) 
156-74-1

>  <UNII>  (1) 
C1CG1S3T2W

>  <SYNONYMS>  (1) 
Decamethonium; Decamethonium cation; Decamethonium ion; Decamethonum; Decamethylenebis(trimethylammonium); N,N,N,N',N',N'-hexamethyl-1,10-decanediaminium

$$$$
