
     RDKit          3D

 22 25  0  0  0  0  0  0  0  0999 V2000
   -1.2978    3.8705    5.5230 C   0  0  0  0  0  0  0  0  0  0  0  0
   -3.1080    0.7571    5.2389 C   0  0  0  0  0  0  0  0  0  0  0  0
   -1.8609    5.0341    7.0318 C   0  0  2  0  0  0  0  0  0  0  0  0
   -3.6836    5.2480    4.8360 C   0  0  0  0  0  0  0  0  0  0  0  0
   -0.8450    5.2571    5.9558 C   0  0  0  0  0  0  0  0  0  0  0  0
   -2.2083    2.0884    2.9973 C   0  0  2  0  0  0  0  0  0  0  0  0
   -3.0221    4.4736    3.7222 C   0  0  0  0  0  0  0  0  0  0  0  0
   -1.7055    0.3410    4.3421 C   0  0  0  0  0  0  0  0  0  0  0  0
   -0.8929    1.3741    3.0577 C   0  0  0  0  0  0  0  0  0  0  0  0
   -2.5149    2.2778    1.5012 C   0  0  0  0  0  0  0  0  0  0  0  0
   -0.4194    2.5660    2.2884 C   0  0  0  0  0  0  0  0  0  0  0  0
   -1.2344    1.6997    0.6956 C   0  0  0  0  0  0  0  0  0  0  0  0
   -2.9083    2.2293    5.2625 C   0  0  1  0  0  0  0  0  0  0  0  0
   -3.1579    2.8450    3.9209 C   0  0  2  0  0  0  0  0  0  0  0  0
   -3.3554    4.7430    6.2913 C   0  0  2  0  0  0  0  0  0  0  0  0
   -4.4672    5.2395    7.2654 C   0  0  0  0  0  0  0  0  0  0  0  0
   -2.9727    3.3329    6.1738 C   0  0  2  0  0  0  0  0  0  0  0  0
    1.4427    2.1072    2.1658 O   0  0  0  0  0  0  0  0  0  0  0  0
    0.3561    2.0393    1.1354 C   0  0  2  0  0  0  0  0  0  0  0  0
   -1.9233    5.7537    8.2880 C   0  0  0  0  0  0  0  0  0  0  0  0
   -1.1567    3.8146    7.6633 O   0  0  0  0  0  0  0  0  0  0  0  0
   -1.9307    5.9327    9.4803 C   0  0  0  0  0  0  0  0  0  0  0  0
  2  8  1  0
  3  5  1  0
  3 20  1  0
  3 21  1  1
  4  7  1  0
  5  1  1  0
  6  9  1  0
  6 10  1  1
  8  9  1  0
  9 11  2  0
 10 12  1  0
 11 19  1  0
 12 19  1  0
 13 14  1  0
 13  2  1  1
 14  6  1  0
 14  7  1  1
 15  3  1  0
 15  4  1  0
 15 16  1  1
 17 13  1  0
 17 15  1  0
 17  1  1  6
 19 18  1  1
 20 22  3  0
M  END
>  <DRUGBANK_ID>  (1) 
DB13866

>  <COMMON_NAME>  (1) 
Etynodiol

>  <CAS_NUMBER>  (1) 
1231-93-2

>  <UNII>  (1) 
9E01C36A9S

>  <SYNONYMS>  (1) 
(3β,17α)-19-Norpregn-4-en-20-yne-3,17-diol; 17α-Ethynyl-19-norandrost-4-ene-3β,17β-diol; 3β-hydroxynorethisterone; Aethynodiolum; Ethinodiol; Ethynodiol; Etinodiol; étynodiol; Etynodiol; Etynodiolum

$$$$
