
     RDKit          3D

 31 32  0  0  0  0  0  0  0  0999 V2000
    1.0504    0.1615   -0.0727 C   0  0  0  0  0  0  0  0  0  0  0  0
   -0.3879    2.9009   -4.2509 C   0  0  0  0  0  0  0  0  0  0  0  0
   -2.5919   -5.4706    0.2278 C   0  0  0  0  0  0  0  0  0  0  0  0
    3.8682    3.6677   -1.8215 C   0  0  0  0  0  0  0  0  0  0  0  0
    4.3906    2.1487   -3.7429 C   0  0  0  0  0  0  0  0  0  0  0  0
   -1.6380   -3.6200   -4.5382 C   0  0  0  0  0  0  0  0  0  0  0  0
    2.9705    4.3791   -5.4927 C   0  0  0  0  0  0  0  0  0  0  0  0
    1.4706    4.1981   -5.3159 C   0  0  0  0  0  0  0  0  0  0  0  0
   -1.1163   -3.6966   -3.2593 C   0  0  0  0  0  0  0  0  0  0  0  0
   -3.0202   -3.6845   -4.7144 C   0  0  0  0  0  0  0  0  0  0  0  0
   -0.3309   -1.2200   -1.7409 C   0  0  0  0  0  0  0  0  0  0  0  0
    0.9095    0.7000   -2.4917 C   0  0  0  0  0  0  0  0  0  0  0  0
   -0.7622   -2.2460   -0.8075 C   0  0  0  0  0  0  0  0  0  0  0  0
    1.6101    1.8235   -2.2920 C   0  0  0  0  0  0  0  0  0  0  0  0
    3.6367    4.5264   -4.1349 C   0  0  0  0  0  0  0  0  0  0  0  0
   -1.3027   -4.0073    1.7115 C   0  0  0  0  0  0  0  0  0  0  0  0
   -3.3573   -3.7559   -2.3256 C   0  0  0  0  0  0  0  0  0  0  0  0
    0.4907   -0.1891   -1.4287 C   0  0  0  0  0  0  0  0  0  0  0  0
    1.0864    3.2327   -4.2229 C   0  0  0  0  0  0  0  0  0  0  0  0
   -1.7196   -4.2139    0.4284 C   0  0  0  0  0  0  0  0  0  0  0  0
   -1.9754   -3.7147   -2.1497 C   0  0  0  0  0  0  0  0  0  0  0  0
   -3.8834   -3.7190   -3.6082 C   0  0  0  0  0  0  0  0  0  0  0  0
   -1.4459   -3.4064   -0.8123 C   0  0  0  0  0  0  0  0  0  0  0  0
    1.9849    2.7683   -3.3225 C   0  0  0  0  0  0  0  0  0  0  0  0
   -0.4797   -3.0511    2.5215 C   0  0  0  0  0  0  0  0  0  0  0  0
   -5.3422   -3.5685   -3.7993 C   0  0  0  0  0  0  0  0  0  0  0  0
    3.4446    3.2657   -3.2559 C   0  0  0  0  0  0  0  0  0  0  0  0
   -0.2790   -3.1324    3.7062 O   0  0  0  0  0  0  0  0  0  0  0  0
    0.0622   -2.0513    1.8539 O   0  0  0  0  0  0  0  0  0  0  0  0
   -5.9015   -3.4300   -4.8698 O   0  0  0  0  0  0  0  0  0  0  0  0
   -6.0162   -3.5326   -2.6316 O   0  0  0  0  0  0  0  0  0  0  0  0
  8  7  1  0
  9  6  2  0
 10  6  1  0
 13 11  1  0
 14 12  2  0
 15  7  1  0
 18  1  1  0
 18 11  2  0
 18 12  1  0
 19  2  1  0
 19  8  1  0
 20  3  1  0
 20 16  2  0
 21  9  1  0
 21 17  2  0
 22 10  2  0
 22 17  1  0
 23 13  2  0
 23 20  1  0
 23 21  1  0
 24 14  1  0
 24 19  2  0
 25 16  1  0
 26 22  1  0
 27  4  1  0
 27  5  1  0
 27 15  1  0
 27 24  1  0
 28 25  2  0
 29 25  1  0
 30 26  2  0
 31 26  1  0
M  END
>  <DRUGBANK_ID>  (1) 
DB14097

>  <COMMON_NAME>  (1) 
13-cis-12-(3'-Carboxyphenyl)retinoic acid

>  <CAS_NUMBER>  (1) 
141948-79-0

>  <UNII>  (1) 
Y8U3B6ZM8D

$$$$
