DSB
     RDKit          3D

 16 15  0  0  0  0  0  0  0  0999 V2000
    0.9889   -0.1966   -0.0026 C   0  0  0  0  0  0  0  0  0  0  0  0
    0.4191   -0.5796    1.0097 O   0  0  0  0  0  0  0  0  0  0  0  0
    0.3507    0.6492   -1.0950 C   0  0  0  0  0  0  0  0  0  0  0  0
    0.6688    2.1480   -1.0689 C   0  0  0  0  0  0  0  0  0  0  0  0
    2.6592    3.1809   -2.4482 C   0  0  0  0  0  0  0  0  0  0  0  0
    2.2670   -0.5380   -0.2418 O   0  0  0  0  0  0  0  0  0  0  0  0
    3.5540    4.3213   -1.9617 C   0  0  0  0  0  0  0  0  0  0  0  0
    6.1555    4.1042   -1.5841 C   0  0  0  0  0  0  0  0  0  0  0  0
    6.9009    4.7762   -0.4220 C   0  0  0  0  0  0  0  0  0  0  0  0
    6.9986    3.9956    0.8960 C   0  0  0  0  0  0  0  0  0  0  0  0
    8.2415    3.5883    1.2225 O   0  0  0  0  0  0  0  0  0  0  0  0
    6.0831    3.8231    1.6955 O   0  0  0  0  0  0  0  0  0  0  0  0
    4.7439    3.8288   -1.1651 C   0  0  0  0  0  0  0  0  0  0  0  0
    2.1351    2.3323   -1.3069 C   0  0  0  0  0  0  0  0  0  0  0  0
    2.9064    1.7249   -0.5720 O   0  0  0  0  0  0  0  0  0  0  0  0
    4.5756    3.2220   -0.1149 O   0  0  0  0  0  0  0  0  0  0  0  0
  1  2  2  0
  1  3  1  0
  1  6  1  0
  3  4  1  0
  4 14  1  0
  5  7  1  0
  5 14  1  0
  7 13  1  0
  8  9  1  0
  8 13  1  0
  9 10  1  0
 10 11  1  0
 10 12  2  0
 13 16  2  0
 14 15  2  0
M  END
>  <DRUGBANK_ID>  (1) 
DB04560

>  <SECONDARY_ACCESSION_NUMBERS>  (1) 
EXPT01272

>  <COMMON_NAME>  (1) 
4,7-Dioxosebacic Acid

$$$$
