
     RDKit          3D

 21 22  0  0  0  0  0  0  0  0999 V2000
   -2.5477   -0.1314   -0.0383 C   0  0  0  0  0  0  0  0  0  0  0  0
   -1.0662    0.0757    0.1518 C   0  0  0  0  0  0  0  0  0  0  0  0
   -0.6368    1.3287   -0.0327 N   0  0  0  0  0  0  0  0  0  0  0  0
    0.6961    1.2516    0.0195 N   0  0  0  0  0  0  0  0  0  0  0  0
    1.1774   -0.0100    0.1488 C   0  0  0  0  0  0  0  0  0  0  0  0
    2.6091   -0.3848    0.0083 C   0  0  0  0  0  0  0  0  0  0  0  0
    0.0722   -0.8016    0.3881 C   0  0  0  0  0  0  0  0  0  0  0  0
    0.2214   -2.2764    0.4563 C   0  0  0  0  0  0  0  0  0  0  0  0
   -0.5778   -3.1474    1.3912 C   0  0  0  0  0  0  0  0  0  0  0  0
   -2.0554   -2.9113    1.1876 C   0  0  0  0  0  0  0  0  0  0  0  0
   -2.7384   -3.3170   -0.0478 O   0  0  0  0  0  0  0  0  0  0  0  0
   -2.3180   -3.1415   -1.3522 C   0  0  0  0  0  0  0  0  0  0  0  0
   -3.2183   -2.5777   -2.2740 C   0  0  0  0  0  0  0  0  0  0  0  0
   -2.7824   -2.1593   -3.5566 C   0  0  0  0  0  0  0  0  0  0  0  0
   -1.4129   -2.1820   -3.8538 C   0  0  0  0  0  0  0  0  0  0  0  0
   -0.5507   -2.8216   -2.9828 C   0  0  0  0  0  0  0  0  0  0  0  0
   -1.0763   -3.4944   -1.8754 C   0  0  0  0  0  0  0  0  0  0  0  0
   -0.2433   -4.2944   -1.1913 F   0  0  0  0  0  0  0  0  0  0  0  0
   -3.6737   -1.6883   -4.6646 C   0  0  0  0  0  0  0  0  0  0  0  0
   -4.9953   -1.6351   -4.3816 O   0  0  0  0  0  0  0  0  0  0  0  0
   -3.2455   -1.4225   -5.7599 O   0  0  0  0  0  0  0  0  0  0  0  0
  1  2  1  0
  2  3  2  0
  2  7  1  0
  3  4  1  0
  4  5  1  0
  5  6  1  0
  5  7  2  0
  7  8  1  0
  8  9  1  0
  9 10  1  0
 10 11  1  0
 11 12  1  0
 12 13  2  0
 12 17  1  0
 13 14  1  0
 14 15  2  0
 14 19  1  0
 15 16  1  0
 16 17  2  0
 17 18  1  0
 19 20  1  0
 19 21  2  0
M  END
>  <DRUGBANK_ID>  (1) 
DB17999

>  <COMMON_NAME>  (1) 
Acoramidis

>  <CAS_NUMBER>  (1) 
1446711-81-4

>  <UNII>  (1) 
T12B44A1OE

>  <SYNONYMS>  (1) 
3-(3-(3,5-dimethyl-1h-pyrazol-4-yl)propoxy)-4-fluorobenzoic acid; Acoramidis

$$$$
