
     RDKit          3D

 15 15  0  0  0  0  0  0  0  0999 V2000
    0.7091    1.1989   -0.2139 O   0  0  0  0  0  0  0  0  0  0  0  0
   -1.4263   -2.4183   -0.2421 O   0  0  0  0  0  0  0  0  0  0  0  0
    1.4333   -2.4240    0.2367 O   0  0  0  0  0  0  0  0  0  0  0  0
   -2.7475   -0.0800    0.3416 O   0  0  0  0  0  0  0  0  0  0  0  0
   -0.6002    1.4167    1.6820 O   0  0  0  0  0  0  0  0  0  0  0  0
    3.5515    1.2062    0.1307 O   0  0  0  0  0  0  0  0  0  0  0  0
   -2.3957    2.4151   -1.1029 O   0  0  0  0  0  0  0  0  0  0  0  0
   -0.9768    3.7243    0.0220 N   0  0  0  0  0  0  0  0  0  0  0  0
   -0.7000   -1.2793    0.2369 C   0  0  1  0  0  0  0  0  0  0  0  0
    0.7430   -1.2720   -0.2468 C   0  0  1  0  0  0  0  0  0  0  0  0
   -1.4217   -0.0130   -0.1996 C   0  0  2  0  0  0  0  0  0  0  0  0
    1.4314    0.0207    0.2167 C   0  0  1  0  0  0  0  0  0  0  0  0
   -0.6490    1.2491    0.2627 C   0  0  2  0  0  0  0  0  0  0  0  0
    2.8632    0.0502   -0.3347 C   0  0  0  0  0  0  0  0  0  0  0  0
   -1.4303    2.4859   -0.3331 C   0  0  0  0  0  0  0  0  0  0  0  0
  1 12  1  0
  1 13  1  0
  6 14  1  0
  7 15  2  0
  8 15  1  0
  9  2  1  6
  9 10  1  0
  9 11  1  0
 10 12  1  0
 10  3  1  1
 11 13  1  0
 11  4  1  1
 12 14  1  6
 13  5  1  1
 13 15  1  0
M  END
>  <DRUGBANK_ID>  (1) 
DB02719

>  <SECONDARY_ACCESSION_NUMBERS>  (1) 
EXPT00842

>  <COMMON_NAME>  (1) 
C-(1-hydrogyl-beta-D-glucopyranosyl) formamide

>  <CAS_NUMBER>  (1) 
361440-32-6

>  <SYNONYMS>  (1) 
(2R,3R,4S,5S,6R)-2,3,4,5-Tetrahydroxy-6-(hydroxymethyl)tetrahydro-2H-pyran-2-carboxamide

$$$$
