
     RDKit          3D

 40 45  0  0  0  0  0  0  0  0999 V2000
    1.9354    3.6704   -0.0701 N   0  0  0  0  0  0  0  0  0  0  0  0
    2.7160    2.8607    0.8395 N   0  0  0  0  0  0  0  0  0  0  0  0
    4.0808    3.0727    0.9642 C   0  0  0  0  0  0  0  0  0  0  0  0
    4.8060    3.3094   -0.3242 C   0  0  0  0  0  0  0  0  0  0  0  0
    3.9520    3.2627   -1.4151 N   0  0  0  0  0  0  0  0  0  0  0  0
    2.6489    3.9550   -1.3607 C   0  0  1  0  0  0  0  0  0  0  0  0
    2.0794    2.1315    1.8203 C   0  0  0  0  0  0  0  0  0  0  0  0
    2.5265    2.0414    3.0680 C   0  0  0  0  0  0  0  0  0  0  0  0
    3.9100    2.4230    3.3068 C   0  0  0  0  0  0  0  0  0  0  0  0
    4.7515    2.8122    2.1086 C   0  0  0  0  0  0  0  0  0  0  0  0
    4.4164    2.4670   -2.5413 C   0  0  0  0  0  0  0  0  0  0  0  0
    3.6220    2.4391   -3.8276 C   0  0  0  0  0  0  0  0  0  0  0  0
    2.3633    3.0711   -3.8452 O   0  0  0  0  0  0  0  0  0  0  0  0
    1.9088    3.8624   -2.7417 C   0  0  0  0  0  0  0  0  0  0  0  0
    6.0246    3.3397   -0.4435 O   0  0  0  0  0  0  0  0  0  0  0  0
    4.3112    2.2640    4.4525 O   0  0  0  0  0  0  0  0  0  0  0  0
    6.1261    2.8084    2.1514 O   0  0  0  0  0  0  0  0  0  0  0  0
    6.7274    2.6242    3.4235 C   0  0  0  0  0  0  0  0  0  0  0  0
    6.4337    3.6328    4.3963 O   0  0  0  0  0  0  0  0  0  0  0  0
    6.5110    4.9589    4.1054 C   0  0  0  0  0  0  0  0  0  0  0  0
    7.1287    5.1780    2.9064 O   0  0  0  0  0  0  0  0  0  0  0  0
    7.3415    6.5610    2.6317 C   0  0  0  0  0  0  0  0  0  0  0  0
    6.1238    5.8180    4.8546 O   0  0  0  0  0  0  0  0  0  0  0  0
    0.1607    3.8412    4.0112 C   0  0  0  0  0  0  0  0  0  0  0  0
    1.2142    4.8217    3.4241 C   0  0  0  0  0  0  0  0  0  0  0  0
    1.0101    5.5033    2.1977 C   0  0  0  0  0  0  0  0  0  0  0  0
    0.8040    4.5497    0.6677 C   0  0  2  0  0  0  0  0  0  0  0  0
   -0.8833    2.8474    2.9012 S   0  0  0  0  0  0  0  0  0  0  0  0
   -0.7074    4.1835    0.4001 C   0  0  0  0  0  0  0  0  0  0  0  0
   -1.3666    4.0147    1.6312 C   0  0  0  0  0  0  0  0  0  0  0  0
    0.7416    6.9051    2.5282 C   0  0  0  0  0  0  0  0  0  0  0  0
    1.1530    7.5462    3.7947 C   0  0  0  0  0  0  0  0  0  0  0  0
    1.9343    6.8355    4.6750 C   0  0  0  0  0  0  0  0  0  0  0  0
    1.9254    5.4687    4.5035 C   0  0  0  0  0  0  0  0  0  0  0  0
   -2.1197    5.0962    1.9482 C   0  0  0  0  0  0  0  0  0  0  0  0
   -2.8220    5.6980    0.9206 C   0  0  0  0  0  0  0  0  0  0  0  0
   -2.6148    5.3040   -0.4066 C   0  0  0  0  0  0  0  0  0  0  0  0
   -1.4506    4.6074   -0.7025 C   0  0  0  0  0  0  0  0  0  0  0  0
    2.5160    4.7102    5.4363 F   0  0  0  0  0  0  0  0  0  0  0  0
    2.5912    7.4254    5.6915 F   0  0  0  0  0  0  0  0  0  0  0  0
  1  2  1  0
  1  6  1  0
  2  3  1  0
  2  7  1  0
  3  4  1  0
  3 10  2  0
  4  5  1  0
  4 15  2  0
  5  6  1  0
  5 11  1  0
  6 14  1  6
  7  8  2  0
  8  9  1  0
  9 10  1  0
  9 16  2  0
 10 17  1  0
 11 12  1  0
 12 13  1  0
 13 14  1  0
 17 18  1  0
 18 19  1  0
 19 20  1  0
 20 21  1  0
 20 23  2  0
 21 22  1  0
 24 28  1  0
 24 25  1  0
 25 26  2  0
 25 34  1  0
 26 27  1  0
 26 31  1  0
 27 29  1  0
 27  1  1  6
 28 30  1  0
 29 30  2  0
 29 38  1  0
 30 35  1  0
 31 32  2  0
 32 33  1  0
 33 34  2  0
 33 40  1  0
 34 39  1  0
 35 36  2  0
 36 37  1  0
 37 38  2  0
M  END
>  <DRUGBANK_ID>  (1) 
DB13997

>  <COMMON_NAME>  (1) 
Baloxavir marboxil

>  <CAS_NUMBER>  (1) 
1985606-14-1

>  <UNII>  (1) 
505CXM6OHG

>  <SYNONYMS>  (1) 
Baloxavir marboxil

$$$$
