BIA
     RDKit          3D

 31 33  0  0  0  0  0  0  0  0999 V2000
   -1.4609   -0.6906    0.5145 N   0  0  0  0  0  0  0  0  0  0  0  0
   -1.8186    3.0028    0.1427 C   0  0  0  0  0  0  0  0  0  0  0  0
   -2.8713   -0.7784    2.3354 C   0  0  0  0  0  0  0  0  0  0  0  0
   -1.6869    2.1276    3.8325 O   0  0  0  0  0  0  0  0  0  0  0  0
   -0.3259    2.1058   -1.9934 C   0  0  0  0  0  0  0  0  0  0  0  0
   -2.1420    2.8661    1.5820 C   0  0  0  0  0  0  0  0  0  0  0  0
   -1.0513    2.6114   -2.8679 O   0  0  0  0  0  0  0  0  0  0  0  0
   -3.4747    2.8730    1.9548 O   0  0  0  0  0  0  0  0  0  0  0  0
   -4.0767   -0.6877    3.0120 C   0  0  0  0  0  0  0  0  0  0  0  0
   -0.4618    2.8803   -0.3360 C   0  0  0  0  0  0  0  0  0  0  0  0
    0.7971    0.4280    0.0319 C   0  0  0  0  0  0  0  0  0  0  0  0
    1.0842    1.6440    3.1721 N   0  0  0  0  0  0  0  0  0  0  0  0
    0.6712   -1.7852    0.0632 C   0  0  0  0  0  0  0  0  0  0  0  0
    2.1575    1.1680    2.6859 O   0  0  0  0  0  0  0  0  0  0  0  0
    0.7390    1.4391    4.3220 O   0  0  0  0  0  0  0  0  0  0  0  0
    0.5137    2.8233    0.8355 C   0  0  0  0  0  0  0  0  0  0  0  0
   -0.9028   -1.8638   -0.1059 C   0  0  0  0  0  0  0  0  0  0  0  0
    0.2394    0.4496   -2.5032 C   0  0  0  0  0  0  0  0  0  0  0  0
    1.4432   -0.6778   -0.5542 N   0  0  0  0  0  0  0  0  0  0  0  0
   -5.0816    0.3827    1.0946 C   0  0  0  0  0  0  0  0  0  0  0  0
   -0.7761    0.4179    0.0368 C   0  0  0  0  0  0  0  0  0  0  0  0
   -3.8295    0.2656    0.4197 C   0  0  0  0  0  0  0  0  0  0  0  0
    1.5125   -0.2634   -1.9584 C   0  0  0  0  0  0  0  0  0  0  0  0
    0.1501    2.4595    2.2377 C   0  0  0  0  0  0  0  0  0  0  0  0
   -2.7394   -0.4452    0.9951 C   0  0  0  0  0  0  0  0  0  0  0  0
   -1.1986    2.5140    2.6032 C   0  0  0  0  0  0  0  0  0  0  0  0
   -6.2882    1.0020    0.4100 C   0  0  0  0  0  0  0  0  0  0  0  0
   -6.2165    2.3522    0.2436 F   0  0  0  0  0  0  0  0  0  0  0  0
   -6.4774    0.4861   -0.8381 F   0  0  0  0  0  0  0  0  0  0  0  0
   -7.4644    0.7798    1.0713 F   0  0  0  0  0  0  0  0  0  0  0  0
   -5.1929   -0.1430    2.3880 C   0  0  0  0  0  0  0  0  0  0  0  0
  1 17  1  0
  1 21  1  0
  1 25  1  0
  2  6  2  0
  2 10  1  0
  3  9  2  0
  3 25  1  0
  4 26  1  0
  5  7  2  0
  5 10  1  0
  5 18  1  0
  6  8  1  0
  6 26  1  0
  9 31  1  0
 10 16  2  0
 11 19  1  0
 11 21  1  0
 12 14  2  0
 12 15  1  0
 12 24  1  0
 13 17  1  0
 13 19  1  0
 16 24  1  0
 18 23  1  0
 19 23  1  0
 20 22  1  0
 20 27  1  0
 20 31  2  0
 22 25  2  0
 24 26  2  0
 27 28  1  0
 27 29  1  0
 27 30  1  0
M  CHG  2  12   1  15  -1
M  END
>  <DRUGBANK_ID>  (1) 
DB03336

>  <SECONDARY_ACCESSION_NUMBERS>  (1) 
EXPT00705

>  <COMMON_NAME>  (1) 
BIA

>  <UNII>  (1) 
X6H65DT067

$$$$
