1084
     RDKit          3D

 22 24  0  0  1  0  0  0  0  0999 V2000
    0.7091    0.3857    0.2737 O   0  0  0  0  0  0  0  0  0  0  0  0
    2.7731    3.2375   -3.4299 N   0  0  0  0  0  0  0  0  0  0  0  0
    0.7003    5.1648   -4.7827 N   0  0  0  0  0  0  0  0  0  0  0  0
    2.5637    1.0832   -2.3632 N   0  0  0  0  0  0  0  0  0  0  0  0
    4.6093    1.9415   -2.5623 N   0  0  0  0  0  0  0  0  0  0  0  0
    3.1622    3.5046   -4.8140 C   0  0  0  0  0  0  0  0  0  0  0  0
    1.9665    4.2833   -2.7905 C   0  0  0  0  0  0  0  0  0  0  0  0
    1.9726    3.1319   -5.7007 C   0  0  0  0  0  0  0  0  0  0  0  0
    0.5898    4.4429   -3.5000 C   0  0  0  0  0  0  0  0  0  0  0  0
    0.9921    4.2919   -5.9320 C   0  0  0  0  0  0  0  0  0  0  0  0
    3.3197    2.1813   -2.7763 C   0  0  0  0  0  0  0  0  0  0  0  0
    3.4474    0.0543   -2.0293 C   0  0  0  0  0  0  0  0  0  0  0  0
    1.1224    1.1622   -2.1143 C   0  0  0  0  0  0  0  0  0  0  0  0
    4.6873    0.6918   -1.9948 C   0  0  0  0  0  0  0  0  0  0  0  0
   -0.4886    5.9764   -5.0432 C   0  0  0  0  0  0  0  0  0  0  0  0
    0.4580    0.1560   -1.1529 C   0  0  0  0  0  0  0  0  0  0  0  0
    3.3060   -1.2720   -1.5637 C   0  0  0  0  0  0  0  0  0  0  0  0
    5.7787    0.0253   -1.3884 C   0  0  0  0  0  0  0  0  0  0  0  0
    4.3290   -1.7934   -0.7539 C   0  0  0  0  0  0  0  0  0  0  0  0
    5.5650   -1.1753   -0.6943 C   0  0  0  0  0  0  0  0  0  0  0  0
    2.0970    0.3354    0.5664 C   0  0  0  0  0  0  0  0  0  0  0  0
    2.7219    0.3452    1.9354 C   0  0  0  0  0  0  0  0  0  0  0  0
  1 16  1  0
  1 21  1  0
  2  6  1  0
  2  7  1  0
  2 11  1  0
  3  9  1  0
  3 10  1  0
  3 15  1  0
  4 11  1  0
  4 12  1  0
  4 13  1  0
  5 11  2  0
  5 14  1  0
  6  8  1  0
  7  9  1  0
  8 10  1  0
 12 14  2  0
 12 17  1  0
 13 16  1  0
 14 18  1  0
 17 19  2  0
 18 20  2  0
 19 20  1  0
 21 22  1  0
M  END
>  <DRUGBANK_ID>  (1) 
DB01084

>  <SECONDARY_ACCESSION_NUMBERS>  (1) 
APRD00946

>  <COMMON_NAME>  (1) 
Emedastine

>  <CAS_NUMBER>  (1) 
87233-61-2

>  <UNII>  (1) 
9J1H7Y9OJV

>  <SYNONYMS>  (1) 
1-(2-Ethoxy-ethyl)-2-(4-methyl-[1,4]diazepan-1-yl)-1H-benzoimidazole; 1-(2-ethoxyethyl)-2-(hexahydro-4-methyl-1H-1,4-diazepin-1-yl)benzimidazole; 1-[2-(ethoxy)ethyl]-2-(4-methyl-1-homopiperazinyl)benzimidazole; Emedastina; Emedastine; Emedastinum

$$$$
