TST
     RDKit          3D

 27 28  0  0  0  0  0  0  0  0999 V2000
   -1.3685   -0.0104    0.1211 S   0  0  0  0  0  0  0  0  0  0  0  0
   -0.2702    1.3482   -0.3617 C   0  0  0  0  0  0  0  0  0  0  0  0
    1.0932    1.2356    0.3167 C   0  0  0  0  0  0  0  0  0  0  0  0
    1.8518   -0.0210   -0.0056 N   0  0  0  0  0  0  0  0  0  0  0  0
    1.0939   -1.3067    0.2531 C   0  0  1  0  0  0  0  0  0  0  0  0
   -0.2746   -1.3551   -0.4314 C   0  0  0  0  0  0  0  0  0  0  0  0
    1.8657   -2.5490   -0.2581 C   0  0  0  0  0  0  0  0  0  0  0  0
    2.3223   -3.4441    0.6904 N   0  0  0  0  0  0  0  0  0  0  0  0
    2.0755   -2.7302   -1.4577 O   0  0  0  0  0  0  0  0  0  0  0  0
    3.1455   -4.6064    0.3497 C   0  0  1  0  0  0  0  0  0  0  0  0
    4.5234   -4.5302    1.0678 C   0  0  0  0  0  0  0  0  0  0  0  0
    2.2687   -5.8650    0.5982 C   0  0  0  0  0  0  0  0  0  0  0  0
    2.2637   -6.7804   -0.3924 O   0  0  0  0  0  0  0  0  0  0  0  0
    1.5342   -6.0222    1.5665 O   0  0  0  0  0  0  0  0  0  0  0  0
    4.5216   -4.4785    2.6157 C   0  0  0  0  0  0  0  0  0  0  0  0
    3.9067   -5.7184    3.2370 C   0  0  0  0  0  0  0  0  0  0  0  0
    3.4823    0.0233    0.5822 S   0  0  0  0  0  0  0  0  0  0  0  0
    3.3110    0.0139    2.3677 C   0  0  0  0  0  0  0  0  0  0  0  0
    2.6857   -1.0454    3.0238 C   0  0  0  0  0  0  0  0  0  0  0  0
    2.5212   -1.0814    4.4004 C   0  0  0  0  0  0  0  0  0  0  0  0
    3.0310   -0.0473    5.1666 C   0  0  0  0  0  0  0  0  0  0  0  0
    3.6908    1.0135    4.5249 C   0  0  0  0  0  0  0  0  0  0  0  0
    3.8284    1.0509    3.1298 C   0  0  0  0  0  0  0  0  0  0  0  0
    2.8723   -0.0865    6.6543 C   0  0  0  0  0  0  0  0  0  0  0  0
    4.1774   -1.1824    0.2224 O   0  0  0  0  0  0  0  0  0  0  0  0
    4.0270    1.3216    0.2144 O   0  0  0  0  0  0  0  0  0  0  0  0
    5.9266   -4.3428    3.2002 C   0  0  0  0  0  0  0  0  0  0  0  0
  1  2  1  0
  1  6  1  0
  2  3  1  0
  3  4  1  0
  4  5  1  0
  4 17  1  0
  5  6  1  0
  5  7  1  6
  7  8  1  0
  7  9  2  0
 10  8  1  0
 10 11  1  1
 10 12  1  0
 11 15  1  0
 12 13  1  0
 12 14  2  0
 15 16  1  0
 15 27  1  0
 17 18  1  0
 17 25  2  0
 17 26  2  0
 18 19  2  0
 18 23  1  0
 19 20  1  0
 20 21  2  0
 21 22  1  0
 21 24  1  0
 22 23  2  0
M  END
>  <DRUGBANK_ID>  (1) 
DB04012

>  <SECONDARY_ACCESSION_NUMBERS>  (1) 
EXPT03124

>  <COMMON_NAME>  (1) 
(3r)-4-(P-Toluenesulfonyl)-1,4-Thiazane-3-Carboxylicacid-L-Leucine

$$$$
