4BH
     RDKit          3D

 20 22  0  0  0  0  0  0  0  0999 V2000
    2.4589    0.4846    0.0036 Cl  0  0  0  0  0  0  0  0  0  0  0  0
    0.7409    0.3434   -0.0321 C   0  0  0  0  0  0  0  0  0  0  0  0
    0.1390   -0.9174   -0.0268 C   0  0  0  0  0  0  0  0  0  0  0  0
    0.8663   -2.0749    0.0014 O   0  0  0  0  0  0  0  0  0  0  0  0
   -1.2421   -1.0333   -0.0624 C   0  0  0  0  0  0  0  0  0  0  0  0
   -2.0191    0.1211   -0.1154 C   0  0  0  0  0  0  0  0  0  0  0  0
   -3.3694   -0.0684   -0.2163 O   0  0  0  0  0  0  0  0  0  0  0  0
   -0.0426    1.5017   -0.0483 C   0  0  0  0  0  0  0  0  0  0  0  0
   -1.4392    1.4012   -0.0670 C   0  0  0  0  0  0  0  0  0  0  0  0
   -2.2637    2.6062    0.0184 C   0  0  0  0  0  0  0  0  0  0  0  0
   -2.2845    3.5657   -0.9657 N   0  0  0  0  0  0  0  0  0  0  0  0
   -3.1679    4.5558   -0.7450 N   0  0  0  0  0  0  0  0  0  0  0  0
   -3.7321    4.2195    0.4194 C   0  0  0  0  0  0  0  0  0  0  0  0
   -3.2078    3.0171    0.9407 C   0  0  0  0  0  0  0  0  0  0  0  0
   -3.5357    2.3977    2.1060 N   0  0  0  0  0  0  0  0  0  0  0  0
   -2.5266    2.0894    3.1268 C   0  0  0  0  0  0  0  0  0  0  0  0
   -2.4871    0.5730    3.4115 C   0  0  0  0  0  0  0  0  0  0  0  0
   -4.8719    1.8663    2.4017 C   0  0  0  0  0  0  0  0  0  0  0  0
   -4.7858    0.3459    2.7193 C   0  0  0  0  0  0  0  0  0  0  0  0
   -3.8049    0.0057    3.7739 N   0  0  0  0  0  0  0  0  0  0  0  0
  1  2  1  0
  2  3  2  0
  2  8  1  0
  3  4  1  0
  3  5  1  0
  5  6  2  0
  6  7  1  0
  6  9  1  0
  8  9  2  0
  9 10  1  0
 10 11  1  0
 10 14  2  0
 11 12  1  0
 12 13  2  0
 13 14  1  0
 14 15  1  0
 15 16  1  0
 15 18  1  0
 16 17  1  0
 17 20  1  0
 18 19  1  0
 19 20  1  0
M  END
>  <DRUGBANK_ID>  (1) 
DB07100

>  <COMMON_NAME>  (1) 
4-CHLORO-6-(4-PIPERAZIN-1-YL-1H-PYRAZOL-5-YL)BENZENE-1,3-DIOL

$$$$
