DY6
     RDKit          3D

 31 34  0  0  0  0  0  0  0  0999 V2000
    2.4769    0.6621    0.1676 N   0  0  0  0  0  0  0  0  0  0  0  0
    3.9309    0.8895   -0.6886 S   0  0  0  0  0  0  0  0  0  0  0  0
    1.2930    1.3457   -0.4368 C   0  0  0  0  0  0  0  0  0  0  0  0
    2.2602   -0.7907    0.5030 C   0  0  0  0  0  0  0  0  0  0  0  0
    4.1565    2.6461   -0.7688 C   0  0  0  0  0  0  0  0  0  0  0  0
    3.6988    0.4049   -2.0325 O   0  0  0  0  0  0  0  0  0  0  0  0
    5.0138    0.3580    0.1148 O   0  0  0  0  0  0  0  0  0  0  0  0
   -0.0349    0.6828   -0.1554 C   0  0  0  0  0  0  0  0  0  0  0  0
    1.2020   -1.4552   -0.3761 C   0  0  0  0  0  0  0  0  0  0  0  0
    4.2726    3.2451   -2.0295 C   0  0  0  0  0  0  0  0  0  0  0  0
    4.3707    3.3752    0.4033 C   0  0  0  0  0  0  0  0  0  0  0  0
   -0.0947   -0.7195   -0.1974 C   0  0  0  0  0  0  0  0  0  0  0  0
   -1.2060    1.4154    0.0577 C   0  0  0  0  0  0  0  0  0  0  0  0
    4.6946    4.5719   -2.1237 C   0  0  0  0  0  0  0  0  0  0  0  0
    4.7334    4.7172    0.3111 C   0  0  0  0  0  0  0  0  0  0  0  0
   -1.3158   -1.3804   -0.0590 C   0  0  0  0  0  0  0  0  0  0  0  0
   -2.4222    0.7504    0.2249 C   0  0  0  0  0  0  0  0  0  0  0  0
    5.0362    5.2348   -3.4172 C   0  0  0  0  0  0  0  0  0  0  0  0
    4.9019    5.3075   -0.9444 C   0  0  0  0  0  0  0  0  0  0  0  0
   -2.4783   -0.6425    0.1544 C   0  0  0  0  0  0  0  0  0  0  0  0
    5.0718    4.4550   -4.5660 N   0  0  0  0  0  0  0  0  0  0  0  0
    5.2807    6.4411   -3.4256 O   0  0  0  0  0  0  0  0  0  0  0  0
    5.6937    4.9155   -5.7484 C   0  0  0  0  0  0  0  0  0  0  0  0
    6.9754    5.5216   -5.7689 C   0  0  0  0  0  0  0  0  0  0  0  0
    4.9681    4.7433   -6.9420 C   0  0  0  0  0  0  0  0  0  0  0  0
    7.4508    6.0019   -7.0034 C   0  0  0  0  0  0  0  0  0  0  0  0
    7.8672    5.5160   -4.5449 C   0  0  0  0  0  0  0  0  0  0  0  0
    5.4790    5.2050   -8.1545 C   0  0  0  0  0  0  0  0  0  0  0  0
    6.7010    5.8645   -8.1770 C   0  0  0  0  0  0  0  0  0  0  0  0
    8.9786    6.2820   -4.6000 O   0  0  0  0  0  0  0  0  0  0  0  0
    7.6758    4.8152   -3.5584 O   0  0  0  0  0  0  0  0  0  0  0  0
  1  2  1  0
  1  4  1  0
  2  6  2  0
  3  1  1  0
  4  9  1  0
  5  2  1  0
  5 11  1  0
  7  2  2  0
  8  3  1  0
  8 12  2  0
 10  5  2  0
 12  9  1  0
 13  8  1  0
 14 10  1  0
 14 19  2  0
 15 11  2  0
 16 12  1  0
 17 13  2  0
 17 20  1  0
 18 14  1  0
 19 15  1  0
 20 16  2  0
 21 18  1  0
 22 18  2  0
 23 21  1  0
 24 23  2  0
 24 27  1  0
 25 23  1  0
 26 24  1  0
 27 30  1  0
 28 25  2  0
 29 26  2  0
 29 28  1  0
 31 27  2  0
M  END
>  <DRUGBANK_ID>  (1) 
DB07691

>  <COMMON_NAME>  (1) 
2-({[3-(3,4-dihydroisoquinolin-2(1H)-ylsulfonyl)phenyl]carbonyl}amino)benzoic acid

$$$$
