
     RDKit          3D

 23 26  0  0  1  0  0  0  0  0999 V2000
    2.4969    6.0792   -5.8582 C   0  0  0  0  0  0  0  0  0  0  0  0
    2.5453    7.4219   -3.2028 C   0  0  0  0  0  0  0  0  0  0  0  0
    8.4102    4.9369   -1.1172 C   0  0  0  0  0  0  0  0  0  0  0  0
    7.7177    0.5404   -1.6490 C   0  0  0  0  0  0  0  0  0  0  0  0
    7.1308    5.7351   -0.8945 C   0  0  0  0  0  0  0  0  0  0  0  0
    6.9911    1.4649   -2.7362 C   0  0  0  0  0  0  0  0  0  0  0  0
    5.0710    4.0525   -3.6995 C   0  0  0  0  0  0  0  0  0  0  0  0
    4.4293    7.5118   -1.7259 C   0  0  0  0  0  0  0  0  0  0  0  0
    3.8245    4.9084   -3.5854 C   0  0  0  0  0  0  0  0  0  0  0  0
    4.7577    8.3806   -3.3551 C   0  0  0  0  0  0  0  0  0  0  0  0
    8.3259    2.5712   -0.4217 C   0  0  0  0  0  0  0  0  0  0  0  0
    3.9769    6.5214   -5.8216 C   0  0  0  0  0  0  0  0  0  0  0  0
    8.0396    3.4850   -1.3453 C   0  0  0  0  0  0  0  0  0  0  0  0
    7.3974    1.4246   -0.5091 C   0  0  0  0  0  0  0  0  0  0  0  0
    7.1468    3.1159   -2.5350 C   0  0  2  0  0  0  0  0  0  0  0  0
    5.8643    4.0274   -2.4116 C   0  0  1  0  0  0  0  0  0  0  0  0
    6.2877    5.4848   -2.1399 C   0  0  1  0  0  0  0  0  0  0  0  0
    5.2853    6.5571   -2.3380 C   0  0  1  0  0  0  0  0  0  0  0  0
    4.0978    6.4045   -3.4633 C   0  0  2  0  0  0  0  0  0  0  0  0
    4.7226    7.2136   -4.5506 C   0  0  2  0  0  0  0  0  0  0  0  0
    4.7039    6.0113   -6.7016 O   0  0  0  0  0  0  0  0  0  0  0  0
    6.3118    1.4277    0.0011 O   0  0  0  0  0  0  0  0  0  0  0  0
    6.1309    6.9439   -4.8168 O   0  0  0  0  0  0  0  0  0  0  0  0
  5  3  1  0
  6  4  1  0
  9  7  1  0
 10  8  1  0
 12  1  1  0
 13  3  1  0
 13 11  2  0
 14  4  1  0
 14 11  1  0
 15  6  1  1
 15 13  1  0
 16  7  1  6
 16 15  1  0
 17  5  1  1
 17 16  1  0
 18  8  1  1
 18 17  1  0
 19  9  1  0
 19 18  1  0
 19  2  1  1
 20 10  1  0
 20 19  1  0
 20 12  1  0
 20 23  1  6
 21 12  2  0
 22 14  2  0
M  END
>  <DRUGBANK_ID>  (1) 
DB13230

>  <COMMON_NAME>  (1) 
Gestonorone

>  <CAS_NUMBER>  (1) 
2137-18-0

>  <UNII>  (1) 
H4G605B7VP

$$$$
