D92
     RDKit          3D

 32 36  0  0  0  0  0  0  0  0999 V2000
    9.7742    2.0499   -9.8096 Cl  0  0  0  0  0  0  0  0  0  0  0  0
    9.4379    1.2958   -8.2987 C   0  0  0  0  0  0  0  0  0  0  0  0
    9.3931   -0.0962   -8.2235 C   0  0  0  0  0  0  0  0  0  0  0  0
    9.0930   -0.7463   -7.0245 C   0  0  0  0  0  0  0  0  0  0  0  0
    8.8346    0.0567   -5.9166 C   0  0  0  0  0  0  0  0  0  0  0  0
    8.4730   -0.3047   -4.6397 N   0  0  0  0  0  0  0  0  0  0  0  0
    9.2033    2.0900   -7.1759 C   0  0  0  0  0  0  0  0  0  0  0  0
    8.8913    1.4485   -5.9654 C   0  0  0  0  0  0  0  0  0  0  0  0
    8.5609    1.9066   -4.6752 C   0  0  0  0  0  0  0  0  0  0  0  0
    8.2160    0.8100   -3.8970 C   0  0  0  0  0  0  0  0  0  0  0  0
    7.6491    0.8993   -2.5893 C   0  0  0  0  0  0  0  0  0  0  0  0
    7.2701    1.9984   -2.2049 O   0  0  0  0  0  0  0  0  0  0  0  0
    7.5929   -0.2168   -1.7895 N   0  0  0  0  0  0  0  0  0  0  0  0
    7.1713   -0.1706   -0.3623 C   0  0  1  0  0  0  0  0  0  0  0  0
    7.3506   -1.5886    0.2599 C   0  0  0  0  0  0  0  0  0  0  0  0
    8.8246   -1.9945    0.3495 C   0  0  0  0  0  0  0  0  0  0  0  0
    9.6269   -0.9606    1.1301 C   0  0  0  0  0  0  0  0  0  0  0  0
    9.4451    0.4466    0.5668 C   0  0  0  0  0  0  0  0  0  0  0  0
    7.9714    0.8839    0.5166 C   0  0  1  0  0  0  0  0  0  0  0  0
    7.9200    2.2898    0.0474 N   0  0  0  0  0  0  0  0  0  0  0  0
    7.2286    3.3648    0.5933 C   0  0  0  0  0  0  0  0  0  0  0  0
    6.7435    3.2736    1.7218 O   0  0  0  0  0  0  0  0  0  0  0  0
    7.1594    4.6073   -0.2406 C   0  0  0  0  0  0  0  0  0  0  0  0
    7.6297    6.1508    0.4116 S   0  0  0  0  0  0  0  0  0  0  0  0
    7.2243    6.9203   -1.0652 C   0  0  0  0  0  0  0  0  0  0  0  0
    7.3530    8.3947   -1.3831 C   0  0  0  0  0  0  0  0  0  0  0  0
    6.5855    8.7822   -2.6073 N   0  0  0  0  0  0  0  0  0  0  0  0
    5.1571    8.9359   -2.3028 C   0  0  0  0  0  0  0  0  0  0  0  0
    6.7879    7.7765   -3.6830 C   0  0  0  0  0  0  0  0  0  0  0  0
    6.2634    6.3672   -3.3129 C   0  0  0  0  0  0  0  0  0  0  0  0
    6.7527    5.9754   -1.9543 C   0  0  0  0  0  0  0  0  0  0  0  0
    6.7268    4.6655   -1.4937 N   0  0  0  0  0  0  0  0  0  0  0  0
  1  2  1  0
  2  7  2  0
  2  3  1  0
  3  4  2  0
  4  5  1  0
  5  8  2  0
  5  6  1  0
  6 10  1  0
  7  8  1  0
  8  9  1  0
  9 10  2  0
 10 11  1  0
 11 13  1  0
 11 12  2  0
 14 15  1  0
 14 19  1  0
 14 13  1  6
 15 16  1  0
 16 17  1  0
 17 18  1  0
 18 19  1  0
 19 20  1  6
 20 21  1  0
 21 23  1  0
 21 22  2  0
 23 32  2  0
 23 24  1  0
 24 25  1  0
 25 26  1  0
 25 31  2  0
 26 27  1  0
 27 28  1  0
 27 29  1  0
 29 30  1  0
 30 31  1  0
 31 32  1  0
M  END
>  <DRUGBANK_ID>  (1) 
DB07629

>  <COMMON_NAME>  (1) 
N-((1R,2S)-2-(5-CHLORO-1H-INDOLE-2-CARBOXAMIDO)CYCLOHEXYL)-5-METHYL-4,5,6,7-TETRAHYDROTHIAZOLO[5,4-C]PYRIDINE-2-CARBOXAMIDE

$$$$
