
     RDKit          3D

 11 12  0  0  0  0  0  0  0  0999 V2000
    2.9386   -0.7687    0.0868 O   0  0  0  0  0  0  0  0  0  0  0  0
    1.7507   -0.5559    0.0089 C   0  0  0  0  0  0  0  0  0  0  0  0
    0.7212   -1.4741   -0.0689 N   0  0  0  0  0  0  0  0  0  0  0  0
   -0.5162   -0.8371   -0.0528 C   0  0  0  0  0  0  0  0  0  0  0  0
   -1.7608   -1.4291   -0.0918 C   0  0  0  0  0  0  0  0  0  0  0  0
   -2.8776   -0.5864   -0.0248 C   0  0  0  0  0  0  0  0  0  0  0  0
   -2.7303    0.8121    0.0850 C   0  0  0  0  0  0  0  0  0  0  0  0
   -1.4622    1.3985    0.1042 C   0  0  0  0  0  0  0  0  0  0  0  0
   -0.3784    0.5473    0.0252 C   0  0  0  0  0  0  0  0  0  0  0  0
    1.0581    0.8362   -0.0023 C   0  0  0  0  0  0  0  0  0  0  0  0
    1.5882    1.9194   -0.0750 O   0  0  0  0  0  0  0  0  0  0  0  0
  1  2  2  0
  2  3  1  0
  2 10  1  0
  3  4  1  0
  4  5  2  0
  4  9  1  0
  5  6  1  0
  6  7  2  0
  7  8  1  0
  8  9  2  0
  9 10  1  0
 10 11  2  0
M  END
>  <DRUGBANK_ID>  (1) 
DB02095

>  <SECONDARY_ACCESSION_NUMBERS>  (1) 
EXPT01935

>  <COMMON_NAME>  (1) 
Isatin

>  <CAS_NUMBER>  (1) 
91-56-5

>  <UNII>  (1) 
82X95S7M06

>  <SYNONYMS>  (1) 
1H-indole-2,3-dione

$$$$
