
     RDKit          3D

 32 34  0  0  0  0  0  0  0  0999 V2000
   -0.4372   -0.0199   -0.0231 C   0  0  0  0  0  0  0  0  0  0  0  0
    0.2721    1.1805   -0.0352 C   0  0  0  0  0  0  0  0  0  0  0  0
    1.6599    1.1416   -0.0517 C   0  0  0  0  0  0  0  0  0  0  0  0
    2.3157   -0.1030   -0.0291 C   0  0  0  0  0  0  0  0  0  0  0  0
    1.6003   -1.2914   -0.0261 C   0  0  0  0  0  0  0  0  0  0  0  0
    0.2211   -1.2506   -0.0270 C   0  0  0  0  0  0  0  0  0  0  0  0
   -2.1535    0.0078    0.0019 Cl  0  0  0  0  0  0  0  0  0  0  0  0
    3.7938   -0.2231   -0.0162 C   0  0  0  0  0  0  0  0  0  0  0  0
    4.4118   -0.6711    1.2333 N   0  0  0  0  0  0  0  0  0  0  0  0
    5.8765   -0.6169    1.0839 C   0  0  0  0  0  0  0  0  0  0  0  0
    3.8614   -0.3352    2.5852 C   0  0  0  0  0  0  0  0  0  0  0  0
    4.2259    1.0071    3.1148 C   0  0  0  0  0  0  0  0  0  0  0  0
    5.8727    1.3379    3.8198 S   0  0  0  0  0  0  0  0  0  0  0  0
    5.9244    2.9284    3.0299 C   0  0  0  0  0  0  0  0  0  0  0  0
    4.4133    3.0723    2.3648 C   0  0  0  0  0  0  0  0  0  0  0  0
    3.4741    2.0899    2.7477 C   0  0  0  0  0  0  0  0  0  0  0  0
    7.3116    3.9600    3.1608 N   0  0  0  0  0  0  0  0  0  0  0  0
    8.4034    3.4724    2.8509 O   0  0  0  0  0  0  0  0  0  0  0  0
    7.2342    5.1589    3.5589 O   0  0  0  0  0  0  0  0  0  0  0  0
    6.5519    0.7857    0.7334 C   0  0  0  0  0  0  0  0  0  0  0  0
    5.6153    1.9903    0.6838 C   0  0  0  0  0  0  0  0  0  0  0  0
    6.2596    3.2846    0.6095 N   0  0  0  0  0  0  0  0  0  0  0  0
    7.2349    2.8545   -0.4295 C   0  0  0  0  0  0  0  0  0  0  0  0
    7.1576    1.1883   -0.5523 C   0  0  0  0  0  0  0  0  0  0  0  0
    5.9797    4.7978    1.1012 C   0  0  0  0  0  0  0  0  0  0  0  0
    6.5465    5.7044    0.5712 O   0  0  0  0  0  0  0  0  0  0  0  0
    5.2217    5.1443    2.5822 N   0  0  0  0  0  0  0  0  0  0  0  0
    4.5184    4.4704    4.1219 C   0  0  0  0  0  0  0  0  0  0  0  0
    5.3233    3.8891    5.3861 C   0  0  0  0  0  0  0  0  0  0  0  0
    5.1880    4.9669    6.3554 C   0  0  0  0  0  0  0  0  0  0  0  0
    3.7006    5.3420    6.3883 C   0  0  0  0  0  0  0  0  0  0  0  0
    2.7929    4.1454    6.7274 C   0  0  0  0  0  0  0  0  0  0  0  0
  1  2  2  0
  1  6  1  0
  1  7  1  0
  2  3  1  0
  3  4  2  0
  4  5  1  0
  4  8  1  0
  5  6  2  0
  8  9  1  0
  9 10  1  0
  9 11  1  0
 10 20  1  0
 11 12  1  0
 12 13  1  0
 12 16  2  0
 13 14  1  0
 14 15  2  0
 14 17  1  0
 15 16  1  0
 17 18  1  0
 17 19  2  0
 20 21  1  0
 20 24  1  0
 21 22  1  0
 22 23  1  0
 22 25  1  0
 23 24  1  0
 25 26  2  0
 25 27  1  0
 27 28  1  0
 28 29  1  0
 29 30  1  0
 30 31  1  0
 31 32  1  0
M  CHG  2  17   1  18  -1
M  END
>  <DRUGBANK_ID>  (1) 
DB14014

>  <COMMON_NAME>  (1) 
SR-9011

>  <CAS_NUMBER>  (1) 
1379686-29-9

>  <UNII>  (1) 
VYI79FLZ6W

>  <SYNONYMS>  (1) 
1-Pyrrolidinecarboxamide, 3-((((4-chlorophenyl)methyl)((5-nitro-2-thienyl)methyl)amino)methyl)-n-pentyl-

$$$$
