
     RDKit          3D

 17 18  0  0  1  0  0  0  0  0999 V2000
    5.0183    2.5056    0.0192 C   0  0  0  0  0  0  0  0  0  0  0  0
    3.7262    2.3943    0.3300 C   0  0  0  0  0  0  0  0  0  0  0  0
    2.7073    2.7469   -0.5490 N   0  0  0  0  0  0  0  0  0  0  0  0
    2.9951    3.3929   -1.7466 C   0  0  0  0  0  0  0  0  0  0  0  0
    2.1782    3.7360   -2.5959 O   0  0  0  0  0  0  0  0  0  0  0  0
    4.3332    3.6389   -1.9699 N   0  0  0  0  0  0  0  0  0  0  0  0
    5.3729    3.1090   -1.2673 C   0  0  0  0  0  0  0  0  0  0  0  0
    6.5393    3.1334   -1.6520 O   0  0  0  0  0  0  0  0  0  0  0  0
    1.3308    2.5147   -0.0897 C   0  0  1  0  0  0  0  0  0  0  0  0
    0.9676    3.3661    1.1197 C   0  0  2  0  0  0  0  0  0  0  0  0
   -0.5354    3.3270    1.1034 C   0  0  1  0  0  0  0  0  0  0  0  0
   -0.8567    3.3027   -0.3906 C   0  0  2  0  0  0  0  0  0  0  0  0
    0.2929    2.7147   -1.0649 O   0  0  0  0  0  0  0  0  0  0  0  0
   -1.0854    4.7001   -0.9742 C   0  0  0  0  0  0  0  0  0  0  0  0
   -1.4206    4.5897   -2.3566 O   0  0  0  0  0  0  0  0  0  0  0  0
   -0.9875    2.1420    1.7733 O   0  0  0  0  0  0  0  0  0  0  0  0
    1.3907    4.6466    0.9467 F   0  0  0  0  0  0  0  0  0  0  0  0
  1  2  2  0
  1  7  1  0
  2  3  1  0
  3  4  1  0
  4  5  2  0
  4  6  1  0
  6  7  1  0
  7  8  2  0
  9 10  1  0
  9 13  1  0
  9  3  1  6
 10 11  1  0
 10 17  1  6
 11 12  1  0
 11 16  1  1
 12 13  1  0
 12 14  1  6
 14 15  1  0
M  END
>  <DRUGBANK_ID>  (1) 
DB13030

>  <COMMON_NAME>  (1) 
2'-fluoro-5-ethylarabinosyluracil

>  <CAS_NUMBER>  (1) 
69123-94-0

>  <UNII>  (1) 
K7386OMP29

>  <SYNONYMS>  (1) 
1-(2-Deoxy-2-fluoro-beta-D-arabinofuranosyl)uracil; 2'-Fluoro-5-ethyl-1-beta-D-arabinofuranosyluracil; FAU

$$$$
