
     RDKit          3D

 25 24  0  0  0  0  0  0  0  0999 V2000
   -0.3879   -1.7438    0.0679 C   0  0  0  0  0  0  0  0  0  0  0  0
    0.9220   -1.3913    0.2632 C   0  0  0  0  0  0  0  0  0  0  0  0
    0.8909   -0.1320    0.7591 N   0  0  0  0  0  0  0  0  0  0  0  0
   -0.4299    0.1903    0.9786 C   0  0  0  0  0  0  0  0  0  0  0  0
   -1.1529   -0.8939    0.8425 N   0  0  0  0  0  0  0  0  0  0  0  0
    2.2508   -1.9420   -0.0482 C   0  0  0  0  0  0  0  0  0  0  0  0
    2.9881   -1.4460   -1.3020 C   0  0  1  0  0  0  0  0  0  0  0  0
    3.5164    0.0319   -1.3137 C   0  0  0  0  0  0  0  0  0  0  0  0
    4.7004    0.2679   -1.0559 O   0  0  0  0  0  0  0  0  0  0  0  0
    2.6952    1.1190   -1.4860 N   0  0  0  0  0  0  0  0  0  0  0  0
    1.2457    1.2420   -1.7148 C   0  0  1  0  0  0  0  0  0  0  0  0
    0.6332    2.0941   -0.5826 C   0  0  0  0  0  0  0  0  0  0  0  0
    0.7458    3.5464   -0.2850 C   0  0  0  0  0  0  0  0  0  0  0  0
   -0.0865    4.1886   -1.3392 C   0  0  0  0  0  0  0  0  0  0  0  0
   -1.5615    3.7014   -1.3835 C   0  0  0  0  0  0  0  0  0  0  0  0
   -2.2489    3.9915   -0.1193 N   0  0  0  0  0  0  0  0  0  0  0  0
    0.5917    1.4323   -3.1212 C   0  0  0  0  0  0  0  0  0  0  0  0
   -0.2856    0.5106   -3.3695 O   0  0  0  0  0  0  0  0  0  0  0  0
    0.9127    2.4184   -3.7634 O   0  0  0  0  0  0  0  0  0  0  0  0
    4.1421   -2.3686   -1.3896 N   0  0  0  0  0  0  0  0  0  0  0  0
    4.3197   -3.3509   -2.3197 C   0  0  0  0  0  0  0  0  0  0  0  0
    5.2687   -4.1347   -2.2030 O   0  0  0  0  0  0  0  0  0  0  0  0
    3.2995   -3.4469   -3.4473 C   0  0  0  0  0  0  0  0  0  0  0  0
    1.9642   -3.7764   -2.8950 N   0  0  0  0  0  0  0  0  0  0  0  0
   -0.0641   -1.4192    2.7087 Cu  0  0  0  0  0 15  0  0  0  0  0  0
  1  2  2  0
  1  5  1  0
  2  3  1  0
  2  6  1  0
  3  4  1  0
  4  5  2  0
  7  6  1  1
  7  8  1  0
  7 20  1  0
  8  9  2  0
  8 10  1  0
 11 10  1  0
 11 12  1  1
 11 17  1  0
 12 13  1  0
 13 14  1  0
 14 15  1  0
 15 16  1  0
 17 18  2  0
 17 19  1  0
 20 21  1  0
 21 22  2  0
 21 23  1  0
 23 24  1  0
M  CHG  2  19  -1  25   2
M  END
>  <DRUGBANK_ID>  (1) 
DB14683

>  <SECONDARY_ACCESSION_NUMBERS>  (1) 
DBSALT002419

>  <COMMON_NAME>  (1) 
Prezatide copper

>  <CAS_NUMBER>  (1) 
89030-95-5

>  <UNII>  (1) 
6BJQ43T1I9

>  <SYNONYMS>  (1) 
CG-copper peptide; Copper tripeptide-1; GHK complex with copper; GHK copper

$$$$
