1096
     RDKit          3D

 20 21  0  0  1  0  0  0  0  0999 V2000
    1.0558    0.0433    0.0659 O   0  0  0  0  0  0  0  0  0  0  0  0
    0.9206   -3.7365   -1.3181 O   0  0  0  0  0  0  0  0  0  0  0  0
    1.7113   -4.3890   -3.2386 O   0  0  0  0  0  0  0  0  0  0  0  0
    2.3346   -0.4640   -6.1047 N   0  0  0  0  0  0  0  0  0  0  0  0
    3.6190    2.1398   -8.4850 N   0  0  0  0  0  0  0  0  0  0  0  0
    1.3417   -3.5030   -2.4591 N   0  0  0  0  0  0  0  0  0  0  0  0
    2.8560    0.8372   -6.5017 C   0  0  0  0  0  0  0  0  0  0  0  0
    1.8868    1.9343   -6.0502 C   0  0  0  0  0  0  0  0  0  0  0  0
    1.6943    1.8881   -4.5434 C   0  0  0  0  0  0  0  0  0  0  0  0
    3.0505    0.8695   -8.0241 C   0  0  0  0  0  0  0  0  0  0  0  0
    1.5780    0.4827   -4.0119 C   0  0  0  0  0  0  0  0  0  0  0  0
    1.8678   -0.6236   -4.8154 C   0  0  0  0  0  0  0  0  0  0  0  0
    1.1837    0.2917   -2.6850 C   0  0  0  0  0  0  0  0  0  0  0  0
    3.7800    2.1806   -9.9381 C   0  0  0  0  0  0  0  0  0  0  0  0
    1.7907   -1.9039   -4.2665 C   0  0  0  0  0  0  0  0  0  0  0  0
    1.0941   -0.9938   -2.1093 C   0  0  0  0  0  0  0  0  0  0  0  0
    1.4004   -2.1009   -2.9275 C   0  0  0  0  0  0  0  0  0  0  0  0
    2.4390    2.0342  -10.6585 C   0  0  0  0  0  0  0  0  0  0  0  0
    4.4092    3.5255  -10.3000 C   0  0  0  0  0  0  0  0  0  0  0  0
    0.5951   -1.0753   -0.6890 C   0  0  0  0  0  0  0  0  0  0  0  0
  1 20  1  0
  2  6  1  0
  3  6  2  0
  4  7  1  0
  4 12  1  0
  5 10  1  0
  5 14  1  0
  6 17  1  0
  7  8  1  0
  7 10  1  0
  8  9  1  0
  9 11  1  0
 11 12  2  0
 11 13  1  0
 12 15  1  0
 13 16  2  0
 14 18  1  0
 14 19  1  0
 15 17  2  0
 16 17  1  0
 16 20  1  0
M  CHG  2   2  -1   6   1
M  END
>  <DRUGBANK_ID>  (1) 
DB01096

>  <SECONDARY_ACCESSION_NUMBERS>  (1) 
APRD01150

>  <COMMON_NAME>  (1) 
Oxamniquine

>  <CAS_NUMBER>  (1) 
21738-42-1

>  <UNII>  (1) 
0O977R722D

$$$$
