DTQ
     RDKit          3D

 22 24  0  0  0  0  0  0  0  0999 V2000
   -2.3531    0.6502    0.0073 N   0  0  0  0  0  0  0  0  0  0  0  0
   -2.2306   -0.6747    0.0061 C   0  0  0  0  0  0  0  0  0  0  0  0
   -1.0855   -1.3614   -0.0034 N   0  0  0  0  0  0  0  0  0  0  0  0
    0.0428   -0.6355   -0.0050 C   0  0  0  0  0  0  0  0  0  0  0  0
    0.0511    0.7486    0.0032 C   0  0  0  0  0  0  0  0  0  0  0  0
   -1.2169    1.3792   -0.0034 C   0  0  0  0  0  0  0  0  0  0  0  0
    1.2609   -1.3101   -0.0104 C   0  0  0  0  0  0  0  0  0  0  0  0
    2.5315   -0.6749    0.0043 C   0  0  0  0  0  0  0  0  0  0  0  0
    2.5556    0.7249    0.0163 C   0  0  0  0  0  0  0  0  0  0  0  0
    1.3107    1.4054    0.0121 C   0  0  0  0  0  0  0  0  0  0  0  0
   -1.3329    2.7907    0.0669 N   0  0  0  0  0  0  0  0  0  0  0  0
   -2.5509    3.5071    0.0050 C   0  0  0  0  0  0  0  0  0  0  0  0
   -3.5065    3.3353    1.0150 C   0  0  0  0  0  0  0  0  0  0  0  0
   -4.7224    4.0099    0.9569 C   0  0  0  0  0  0  0  0  0  0  0  0
   -5.0310    4.8262   -0.1221 C   0  0  0  0  0  0  0  0  0  0  0  0
   -4.1038    4.9847   -1.1511 C   0  0  0  0  0  0  0  0  0  0  0  0
   -2.8653    4.3312   -1.0873 C   0  0  0  0  0  0  0  0  0  0  0  0
   -5.6474    3.8979    1.9534 O   0  0  0  0  0  0  0  0  0  0  0  0
    3.4726   -1.6717    0.0038 O   0  0  0  0  0  0  0  0  0  0  0  0
    4.8476   -1.4046    0.0338 C   0  0  0  0  0  0  0  0  0  0  0  0
    3.5219    1.6944    0.0312 O   0  0  0  0  0  0  0  0  0  0  0  0
    4.8915    1.4028    0.0540 C   0  0  0  0  0  0  0  0  0  0  0  0
  1  2  2  0
  1  6  1  0
  2  3  1  0
  3  4  2  0
  4  5  1  0
  4  7  1  0
  5  6  2  0
  5 10  1  0
  6 11  1  0
  7  8  2  0
  8  9  1  0
  8 19  1  0
  9 10  2  0
  9 21  1  0
 11 12  1  0
 12 13  2  0
 12 17  1  0
 13 14  1  0
 14 15  2  0
 14 18  1  0
 15 16  1  0
 16 17  2  0
 19 20  1  0
 21 22  1  0
M  END
>  <DRUGBANK_ID>  (1) 
DB03365

>  <SECONDARY_ACCESSION_NUMBERS>  (1) 
EXPT01289

>  <COMMON_NAME>  (1) 
4-[3-Hydroxyanilino]-6,7-Dimethoxyquinazoline

$$$$
