TP2
     RDKit          3D

 21 22  0  0  0  0  0  0  0  0999 V2000
    7.2971   -6.9318   -4.9455 S   0  0  0  0  0  0  0  0  0  0  0  0
    7.1587   -5.2098   -5.5481 C   0  0  0  0  0  0  0  0  0  0  0  0
    5.7408   -4.6497   -5.4128 C   0  0  0  0  0  0  0  0  0  0  0  0
    5.3197   -4.5441   -4.0242 N   0  0  0  0  0  0  0  0  0  0  0  0
    5.0093   -3.3420   -3.4019 C   0  0  0  0  0  0  0  0  0  0  0  0
    4.5789   -3.4337   -1.9085 C   0  0  2  0  0  0  0  0  0  0  0  0
    5.0871   -2.2963   -1.0684 N   0  0  0  0  0  0  0  0  0  0  0  0
    4.0922   -1.7905    0.2424 S   0  0  0  0  0  0  0  0  0  0  0  0
    3.9891   -3.1928    1.3679 C   0  0  0  0  0  0  0  0  0  0  0  0
    5.1471   -3.6966    1.9756 C   0  0  0  0  0  0  0  0  0  0  0  0
    5.0998   -4.8580    2.7468 C   0  0  0  0  0  0  0  0  0  0  0  0
    3.8789   -5.4802    3.0054 C   0  0  0  0  0  0  0  0  0  0  0  0
    2.7096   -4.9448    2.4439 C   0  0  0  0  0  0  0  0  0  0  0  0
    2.7615   -3.8147    1.6138 C   0  0  0  0  0  0  0  0  0  0  0  0
    3.8263   -6.6843    3.9000 C   0  0  0  0  0  0  0  0  0  0  0  0
    4.7761   -0.7454    0.9643 O   0  0  0  0  0  0  0  0  0  0  0  0
    2.7577   -1.5849   -0.2955 O   0  0  0  0  0  0  0  0  0  0  0  0
    6.5045   -2.5930   -0.7444 C   0  0  0  0  0  0  0  0  0  0  0  0
    6.6296   -4.1141   -0.8931 C   0  0  0  0  0  0  0  0  0  0  0  0
    5.2202   -4.6193   -1.1974 C   0  0  0  0  0  0  0  0  0  0  0  0
    5.0458   -2.2809   -4.0215 O   0  0  0  0  0  0  0  0  0  0  0  0
  1  2  1  0
  2  3  1  0
  3  4  1  0
  4  5  1  0
  5 21  2  0
  6  7  1  0
  6 20  1  0
  6  5  1  6
  7  8  1  0
  7 18  1  0
  8  9  1  0
  8 16  2  0
  8 17  2  0
  9 10  2  0
  9 14  1  0
 10 11  1  0
 11 12  2  0
 12 13  1  0
 12 15  1  0
 13 14  2  0
 18 19  1  0
 19 20  1  0
M  END
>  <DRUGBANK_ID>  (1) 
DB03818

>  <SECONDARY_ACCESSION_NUMBERS>  (1) 
EXPT03085

>  <COMMON_NAME>  (1) 
N-[Tosyl-D-Prolinyl]Amino-Ethanethiol

$$$$
