H12
     RDKit          3D

 22 24  0  0  0  0  0  0  0  0999 V2000
   -1.3176    0.3415   -0.2667 C   0  0  0  0  0  0  0  0  0  0  0  0
   -0.9273   -0.9080    0.5237 C   0  0  0  0  0  0  0  0  0  0  0  0
    0.5558   -1.2123    0.3293 C   0  0  0  0  0  0  0  0  0  0  0  0
    1.5385   -0.1064    0.5993 C   0  0  0  0  0  0  0  0  0  0  0  0
    1.0845    1.1960   -0.0542 C   0  0  0  0  0  0  0  0  0  0  0  0
   -0.3935    1.4816    0.1937 C   0  0  0  0  0  0  0  0  0  0  0  0
    1.8469   -0.6063   -4.0767 N   0  0  0  0  0  0  0  0  0  0  0  0
    1.1052    0.5069   -4.3799 C   0  0  0  0  0  0  0  0  0  0  0  0
    1.3983    1.1758   -5.3449 O   0  0  0  0  0  0  0  0  0  0  0  0
   -0.0067    0.8593   -3.4199 C   0  0  0  0  0  0  0  0  0  0  0  0
   -0.4883   -0.1182   -2.6156 C   0  0  0  0  0  0  0  0  0  0  0  0
   -1.5059    0.1233   -1.6983 O   0  0  0  0  0  0  0  0  0  0  0  0
    1.3562   -1.6407   -3.2919 C   0  0  0  0  0  0  0  0  0  0  0  0
    0.0715   -1.5137   -2.7355 C   0  0  0  0  0  0  0  0  0  0  0  0
   -0.4324   -2.6260   -2.0376 C   0  0  0  0  0  0  0  0  0  0  0  0
    0.4323   -3.6756   -1.6678 C   0  0  0  0  0  0  0  0  0  0  0  0
    1.7270   -3.7484   -2.1757 C   0  0  0  0  0  0  0  0  0  0  0  0
    2.1640   -2.7614   -3.0552 C   0  0  0  0  0  0  0  0  0  0  0  0
   -0.0060   -4.7227   -0.3616 Cl  0  0  0  0  0  0  0  0  0  0  0  0
   -0.5135    2.2937   -3.4415 C   0  0  0  0  0  0  0  0  0  0  0  0
    0.4667    3.4247   -3.0527 C   0  0  0  0  0  0  0  0  0  0  0  0
    1.6783    3.5491   -3.9583 C   0  0  0  0  0  0  0  0  0  0  0  0
  1  2  1  0
  1  6  1  0
  1 12  1  0
  2  3  1  0
  3  4  1  0
  4  5  1  0
  5  6  1  0
  7  8  1  0
  7 13  1  0
  8  9  2  0
  8 10  1  0
 10 11  2  0
 10 20  1  0
 11 12  1  0
 11 14  1  0
 13 14  2  0
 13 18  1  0
 14 15  1  0
 15 16  2  0
 16 17  1  0
 16 19  1  0
 17 18  2  0
 20 21  1  0
 21 22  1  0
M  END
>  <DRUGBANK_ID>  (1) 
DB07867

>  <COMMON_NAME>  (1) 
6-CHLORO-4-(CYCLOHEXYLOXY)-3-PROPYLQUINOLIN-2(1H)-ONE

$$$$
