
     RDKit          3D

  7  6  0  0  0  0  0  0  0  0999 V2000
    1.0749    0.0755    0.0650 C   0  0  0  0  0  0  0  0  0  0  0  0
    0.2844   -0.2572    1.3235 C   0  0  0  0  0  0  0  0  0  0  0  0
   -1.0615   -0.2674    1.3622 C   0  0  0  0  0  0  0  0  0  0  0  0
   -1.8886   -0.5872    2.5719 C   0  0  0  0  0  0  0  0  0  0  0  0
    2.3032    0.0730    0.0744 O   0  0  0  0  0  0  0  0  0  0  0  0
    0.3857    0.3712   -1.0537 O   0  0  0  0  0  0  0  0  0  0  0  0
    1.0487   -0.5499    2.4307 N   0  0  0  0  0  0  0  0  0  0  0  0
  2  1  1  0
  3  2  2  0
  4  3  1  0
  5  1  2  0
  6  1  1  0
  7  2  1  0
M  END
>  <DRUGBANK_ID>  (1) 
DB03720

>  <SECONDARY_ACCESSION_NUMBERS>  (1) 
EXPT01127

>  <COMMON_NAME>  (1) 
alpha,beta-Dehydroaminobutyric acid

>  <CAS_NUMBER>  (1) 
71018-10-5

>  <UNII>  (1) 
66QL1S96RM

>  <SYNONYMS>  (1) 
(2Z)-2-aminobut-2-enoic acid; (Z)-2-aminobutenoic acid; (Z)-dehydrobutyrine; (Z)2,3-didehydrobutyrine; 2-Ammoniobut-2-enoate; Anhydrothreonine

$$$$
