WAN
     RDKit          3D

 26 28  0  0  0  0  0  0  0  0999 V2000
    0.3395    0.7129    0.1928 C   0  0  0  0  0  0  0  0  0  0  0  0
    0.0943    1.7686   -0.8029 C   0  0  0  0  0  0  0  0  0  0  0  0
    0.8337    1.4997   -2.1596 C   0  0  0  0  0  0  0  0  0  0  0  0
    0.5270    0.2458   -2.9936 C   0  0  0  0  0  0  0  0  0  0  0  0
    1.1365   -1.0612   -3.0347 C   0  0  0  0  0  0  0  0  0  0  0  0
    2.1883   -1.6526   -2.2985 N   0  0  0  0  0  0  0  0  0  0  0  0
   -0.4166    0.3058   -3.9621 N   0  0  0  0  0  0  0  0  0  0  0  0
   -0.4374   -0.9456   -4.5056 N   0  0  0  0  0  0  0  0  0  0  0  0
   -1.1901   -1.2123   -5.7098 C   0  0  0  0  0  0  0  0  0  0  0  0
    0.3568   -1.8287   -3.8400 C   0  0  0  0  0  0  0  0  0  0  0  0
    0.4673   -3.2598   -3.8942 C   0  0  0  0  0  0  0  0  0  0  0  0
   -0.0229   -3.9848   -4.7197 O   0  0  0  0  0  0  0  0  0  0  0  0
    1.2366   -3.7486   -2.8433 N   0  0  0  0  0  0  0  0  0  0  0  0
    2.0569   -2.9431   -2.1005 C   0  0  0  0  0  0  0  0  0  0  0  0
    2.8569   -3.6459   -1.0424 C   0  0  0  0  0  0  0  0  0  0  0  0
    4.1402   -4.1554   -1.3344 C   0  0  0  0  0  0  0  0  0  0  0  0
    4.7898   -4.7041   -0.2557 C   0  0  0  0  0  0  0  0  0  0  0  0
    6.3147   -5.5702   -0.2067 S   0  0  0  0  0  0  0  0  0  0  0  0
    7.2557   -4.7435    0.5072 O   0  0  0  0  0  0  0  0  0  0  0  0
    6.0020   -6.9331    0.1417 O   0  0  0  0  0  0  0  0  0  0  0  0
    6.8075   -5.5610   -1.8233 N   0  0  0  0  0  0  0  0  0  0  0  0
    3.9311   -4.5232    1.1823 S   0  0  0  0  0  0  0  0  0  0  0  0
    2.5816   -3.8603    0.3377 C   0  0  0  0  0  0  0  0  0  0  0  0
    1.5488   -3.5250    1.1362 O   0  0  0  0  0  0  0  0  0  0  0  0
    0.7785   -2.4863    0.5992 C   0  0  0  0  0  0  0  0  0  0  0  0
    1.7690   -1.3988    0.2868 C   0  0  0  0  0  0  0  0  0  0  0  0
  1  2  1  0
  2  3  1  0
  3  4  1  0
  4  5  1  0
  4  7  2  0
  5  6  1  0
  5 10  2  0
  6 14  2  0
  7  8  1  0
  8  9  1  0
  8 10  1  0
 10 11  1  0
 11 12  2  0
 11 13  1  0
 13 14  1  0
 14 15  1  0
 15 16  1  0
 15 23  2  0
 16 17  2  0
 17 18  1  0
 17 22  1  0
 18 19  2  0
 18 20  2  0
 18 21  1  0
 22 23  1  0
 23 24  1  0
 24 25  1  0
 25 26  1  0
M  END
>  <DRUGBANK_ID>  (1) 
DB08729

>  <COMMON_NAME>  (1) 
5-ethoxy-4-(1-methyl-7-oxo-3-propyl-6,7-dihydro-1H-pyrazolo[4,3-d]pyrimidin-5-yl)thiophene-2-sulfonamide

$$$$
