
     RDKit          3D

 15 14  0  0  1  0  0  0  0  0999 V2000
    1.6330    0.5906   -0.6123 N   0  0  0  0  0  0  0  0  0  0  0  0
    0.8566    1.7324   -1.1326 C   0  0  1  0  0  0  0  0  0  0  0  0
    1.0005    1.4406   -2.6118 C   0  0  0  0  0  0  0  0  0  0  0  0
    0.3459    0.0526   -3.1056 C   0  0  0  0  0  0  0  0  0  0  0  0
   -1.4899   -0.5796   -3.0434 S   0  0  0  0  0  0  0  0  0  0  0  0
   -2.2190   -0.5268   -1.2645 C   0  0  0  0  0  0  0  0  0  0  0  0
   -1.7724   -1.6696   -0.3509 C   0  0  0  0  0  0  0  0  0  0  0  0
   -0.2942   -1.6744   -0.0300 C   0  0  0  0  0  0  0  0  0  0  0  0
    0.1530   -0.5747    0.9249 C   0  0  0  0  0  0  0  0  0  0  0  0
   -0.2625   -0.2793    2.3173 C   0  0  0  0  0  0  0  0  0  0  0  0
    0.8013   -0.0144    3.1252 O   0  0  0  0  0  0  0  0  0  0  0  0
   -1.4137   -0.0696    2.6467 O   0  0  0  0  0  0  0  0  0  0  0  0
   -0.6928    2.0289   -1.0681 C   0  0  0  0  0  0  0  0  0  0  0  0
   -1.2860    2.4639    0.0671 O   0  0  0  0  0  0  0  0  0  0  0  0
   -1.3981    2.0119   -2.0373 O   0  0  0  0  0  0  0  0  0  0  0  0
  2  1  1  1
  2  3  1  0
  2 13  1  0
  3  4  1  0
  4  5  1  0
  5  6  1  0
  6  7  1  0
  7  8  1  0
  8  9  1  0
  9 10  1  0
 10 11  1  0
 10 12  2  0
 13 14  1  0
 13 15  2  0
M  END
>  <DRUGBANK_ID>  (1) 
DB02337

>  <SECONDARY_ACCESSION_NUMBERS>  (1) 
EXPT00843

>  <COMMON_NAME>  (1) 
S-(D-Carboxybutyl)-L-Homocysteine

$$$$
