573
     RDKit          3D

 18 19  0  0  1  0  0  0  0  0999 V2000
    1.0298   -0.0453   -0.1487 O   0  0  0  0  0  0  0  0  0  0  0  0
    2.0942    5.9880   -1.7085 O   0  0  0  0  0  0  0  0  0  0  0  0
    0.2103    6.3520   -0.5481 O   0  0  0  0  0  0  0  0  0  0  0  0
    0.2529    4.4249   -2.0510 C   0  0  0  0  0  0  0  0  0  0  0  0
   -0.1044    3.3382   -1.0521 C   0  0  0  0  0  0  0  0  0  0  0  0
    0.4748    2.0708   -1.1589 C   0  0  0  0  0  0  0  0  0  0  0  0
   -0.9815    4.8043   -2.8614 C   0  0  0  0  0  0  0  0  0  0  0  0
   -0.9642    3.5962    0.0269 C   0  0  0  0  0  0  0  0  0  0  0  0
    0.3249    1.1396   -0.1256 C   0  0  0  0  0  0  0  0  0  0  0  0
    0.8285    5.6645   -1.3585 C   0  0  0  0  0  0  0  0  0  0  0  0
   -1.1298    2.6607    1.0470 C   0  0  0  0  0  0  0  0  0  0  0  0
   -0.4958    1.4212    0.9668 C   0  0  0  0  0  0  0  0  0  0  0  0
    2.4135    0.0318   -0.0864 C   0  0  0  0  0  0  0  0  0  0  0  0
    3.1422    1.2259   -0.0011 C   0  0  0  0  0  0  0  0  0  0  0  0
    3.1083   -1.1804   -0.0607 C   0  0  0  0  0  0  0  0  0  0  0  0
    4.5308    1.2198    0.0903 C   0  0  0  0  0  0  0  0  0  0  0  0
    4.4987   -1.1875    0.1092 C   0  0  0  0  0  0  0  0  0  0  0  0
    5.2104    0.0116    0.1563 C   0  0  0  0  0  0  0  0  0  0  0  0
  1  9  1  0
  1 13  1  0
  2 10  1  0
  3 10  2  0
  4  5  1  0
  4  7  1  0
  4 10  1  0
  5  6  2  0
  5  8  1  0
  6  9  1  0
  8 11  2  0
  9 12  2  0
 11 12  1  0
 13 14  2  0
 13 15  1  0
 14 16  1  0
 15 17  2  0
 16 18  2  0
 17 18  1  0
M  END
>  <DRUGBANK_ID>  (1) 
DB00573

>  <SECONDARY_ACCESSION_NUMBERS>  (1) 
APRD00970

>  <COMMON_NAME>  (1) 
Fenoprofen

>  <CAS_NUMBER>  (1) 
29679-58-1

>  <UNII>  (1) 
RA33EAC7KY

>  <SYNONYMS>  (1) 
(+/-)-fenoprofen; (+/-)-m-phenoxyhydratropic acid; (±)-2-(3-phenoxyphenyl)propionic acid; 2-(3-phenoxyphenyl)propionic acid; 2-(m-phenoxyphenyl)propionic acid; 3-phenoxyhydratropic acid; DL-2-(3-phenoxyphenyl)propionic acid; Fenoprofen; Fénoprofène; Fenoprofeno; Fenoprofenum; α-(m-phenoxyphenyl)propionic acid; α-methyl-3-phenoxybenzeneacetic acid

$$$$
