SD2
     RDKit          3D

 32 33  0  0  0  0  0  0  0  0999 V2000
    1.2736   -0.8354   -0.5207 C   0  0  0  0  0  0  0  0  0  0  0  0
    0.8923   -0.8321   -2.2912 S   0  0  0  0  0  0  0  0  0  0  0  0
    0.8243    0.9070   -2.7855 C   0  0  0  0  0  0  0  0  0  0  0  0
    0.4413    1.8976   -1.5965 C   0  0  0  0  0  0  0  0  0  0  0  0
    1.2057    2.2389    0.2305 C   0  0  1  0  0  0  0  0  0  0  0  0
    2.8681    2.4132    0.7343 C   0  0  0  0  0  0  0  0  0  0  0  0
    3.3831    3.4285    1.1319 O   0  0  0  0  0  0  0  0  0  0  0  0
    3.6605    1.2856    0.6079 N   0  0  0  0  0  0  0  0  0  0  0  0
    0.7396    3.2780    1.3026 N   0  0  0  0  0  0  0  0  0  0  0  0
   -0.3832    3.2271    2.1153 C   0  0  0  0  0  0  0  0  0  0  0  0
   -0.9447    4.0350    2.8000 O   0  0  0  0  0  0  0  0  0  0  0  0
   -0.9270    1.9439    2.3735 C   0  0  2  0  0  0  0  0  0  0  0  0
    0.1155    1.3653    3.3154 C   0  0  0  0  0  0  0  0  0  0  0  0
   -0.2932   -0.0669    3.2286 C   0  0  0  0  0  0  0  0  0  0  0  0
   -0.8782   -0.2198    1.7961 C   0  0  0  0  0  0  0  0  0  0  0  0
   -1.0306    1.1453    1.2389 N   0  0  0  0  0  0  0  0  0  0  0  0
   -1.4800    1.5973   -0.0187 C   0  0  0  0  0  0  0  0  0  0  0  0
   -1.8320    0.6693   -0.7771 O   0  0  0  0  0  0  0  0  0  0  0  0
   -1.2275    3.3377   -0.7307 C   0  0  1  0  0  0  0  0  0  0  0  0
   -2.1395    4.1651    0.0168 N   0  0  0  0  0  0  0  0  0  0  0  0
   -1.9881    5.1768    0.9428 C   0  0  0  0  0  0  0  0  0  0  0  0
   -3.0958    5.5461    1.3668 O   0  0  0  0  0  0  0  0  0  0  0  0
   -0.6154    6.0235    1.3490 C   0  0  0  0  0  0  0  0  0  0  0  0
    0.6946    5.9050    2.8306 S   0  0  0  0  0  0  0  0  0  0  0  0
    0.3619    4.2400   -1.1055 C   0  0  0  0  0  0  0  0  0  0  0  0
    2.0739    3.7422   -1.5708 C   0  0  0  0  0  0  0  0  0  0  0  0
    2.6167    2.3214   -1.7736 C   0  0  0  0  0  0  0  0  0  0  0  0
    3.7213    1.6378   -2.2186 C   0  0  0  0  0  0  0  0  0  0  0  0
    4.7140    2.4968   -2.3145 C   0  0  0  0  0  0  0  0  0  0  0  0
    5.9186    1.8904   -2.4743 O   0  0  0  0  0  0  0  0  0  0  0  0
    4.4627    3.8926   -2.0171 C   0  0  0  0  0  0  0  0  0  0  0  0
    3.1707    4.5396   -1.6455 C   0  0  0  0  0  0  0  0  0  0  0  0
  1  2  1  0
  2  3  1  0
  3  4  1  0
  5  4  1  6
  5  6  1  0
  5  9  1  0
  6  7  2  0
  6  8  1  0
  9 10  1  0
 10 11  2  0
 12 10  1  6
 12 13  1  0
 12 16  1  0
 13 14  1  0
 14 15  1  0
 15 16  1  0
 16 17  1  0
 17 18  2  0
 17 19  1  0
 19 20  1  0
 19 25  1  1
 20 21  1  0
 21 22  2  0
 21 23  1  0
 23 24  1  0
 25 26  1  0
 26 27  2  0
 26 32  1  0
 27 28  1  0
 28 29  2  0
 29 30  1  0
 29 31  1  0
 31 32  2  0
M  END
>  <DRUGBANK_ID>  (1) 
DB01883

>  <SECONDARY_ACCESSION_NUMBERS>  (1) 
EXPT02874

>  <COMMON_NAME>  (1) 
N-(Sulfanylacetyl)Tyrosylprolylmethioninamide

$$$$
