
     RDKit          3D

 33 37  0  0  0  0  0  0  0  0999 V2000
    5.5699    1.9287    4.9721 C   0  0  0  0  0  0  0  0  0  0  0  0
    5.7495    0.7489    5.8969 C   0  0  0  0  0  0  0  0  0  0  0  0
    6.5926   -0.4029    5.3415 C   0  0  1  0  0  0  0  0  0  0  0  0
    6.0108   -1.1319    4.0827 C   0  0  0  0  0  0  0  0  0  0  0  0
    5.3239    1.5335    3.4809 C   0  0  2  0  0  0  0  0  0  0  0  0
    6.2370    0.3489    2.7871 C   0  0  2  0  0  0  0  0  0  0  0  0
    5.5010    0.2490    1.1989 C   0  0  0  0  0  0  0  0  0  0  0  0
    4.7729    1.5057    0.5506 C   0  0  0  0  0  0  0  0  0  0  0  0
    4.2030    2.5489    2.9101 C   0  0  1  0  0  0  0  0  0  0  0  0
    3.6267    2.4648    1.4898 C   0  0  2  0  0  0  0  0  0  0  0  0
    1.9797    1.3155    3.9947 C   0  0  0  0  0  0  0  0  0  0  0  0
    3.0131    2.8737    3.8774 C   0  0  0  0  0  0  0  0  0  0  0  0
    1.6630    0.5988    2.8018 C   0  0  0  0  0  0  0  0  0  0  0  0
    1.7600    2.0282    1.7026 C   0  0  2  0  0  0  0  0  0  0  0  0
    1.0545    1.8222    0.1366 C   0  0  0  0  0  0  0  0  0  0  0  0
    1.8392    0.5976   -0.9725 C   0  0  0  0  0  0  0  0  0  0  0  0
    2.3111   -1.0751    1.9888 C   0  0  2  0  0  0  0  0  0  0  0  0
    2.5199   -0.8789    0.0323 C   0  0  2  0  0  0  0  0  0  0  0  0
    2.4348   -2.0382   -0.8516 C   0  0  0  0  0  0  0  0  0  0  0  0
    2.6761   -3.3486   -0.1554 C   0  0  0  0  0  0  0  0  0  0  0  0
    3.0200   -3.4797    1.3356 C   0  0  2  0  0  0  0  0  0  0  0  0
    2.1497   -2.5315    2.3630 C   0  0  2  0  0  0  0  0  0  0  0  0
    4.5499   -3.9861    1.5230 C   0  0  0  0  0  0  0  0  0  0  0  0
    0.6899   -2.4923    2.7597 C   0  0  0  0  0  0  0  0  0  0  0  0
    1.2574   -0.4351    0.4307 C   0  0  0  0  0  0  0  0  0  0  0  0
    7.9082   -0.1822    4.7893 O   0  0  0  0  0  0  0  0  0  0  0  0
    6.5479   -2.5674    4.2158 C   0  0  0  0  0  0  0  0  0  0  0  0
    4.4495   -1.9220    3.9992 C   0  0  0  0  0  0  0  0  0  0  0  0
    4.4281    0.3765    3.5867 C   0  0  0  0  0  0  0  0  0  0  0  0
    3.7310    3.7879    0.7993 C   0  0  0  0  0  0  0  0  0  0  0  0
    0.7470    3.0085    2.4152 C   0  0  0  0  0  0  0  0  0  0  0  0
    2.5275    0.3813    0.8995 O   0  0  0  0  0  0  0  0  0  0  0  0
    0.3347   -1.0705    0.6548 O   0  0  0  0  0  0  0  0  0  0  0  0
  1  2  1  0
  2  3  1  0
  3  4  1  0
  3 26  1  6
  4  6  1  0
  4 27  1  0
  4 28  1  0
  5  1  1  0
  5  6  1  0
  5 29  1  1
  6  7  1  6
  7  8  1  0
  8 10  1  0
  9  5  1  0
  9 10  1  0
 10 14  1  0
 10 30  1  6
 11 12  1  0
  9 12  1  6
 13 11  2  0
 13 14  1  0
 17 13  1  6
 14 15  1  0
 14 31  1  1
 15 16  1  0
 16 18  1  0
 17 18  1  0
 17 22  1  0
 18 19  1  0
 18 25  1  1
 19 20  1  0
 20 21  1  0
 21 22  1  0
 21 23  1  6
 22 24  1  6
 25 32  1  0
 25 33  2  0
M  END
>  <DRUGBANK_ID>  (1) 
DB15588

>  <COMMON_NAME>  (1) 
Ursolic acid

>  <CAS_NUMBER>  (1) 
77-52-1

>  <UNII>  (1) 
P3M2575F3F

>  <SYNONYMS>  (1) 
Malol; Prunol; Urson

$$$$
