5147
     RDKit          3D

 10 10  0  0  0  0  0  0  0  0999 V2000
    2.2772    0.2344    0.0673 O   0  0  0  0  0  0  0  0  0  0  0  0
    0.2324   -3.5913    0.0374 O   0  0  0  0  0  0  0  0  0  0  0  0
    2.2858   -2.7366    0.0361 N   0  0  0  0  0  0  0  0  0  0  0  0
    0.2774   -1.2135    0.0247 C   0  0  0  0  0  0  0  0  0  0  0  0
    0.9289    0.0276    0.0348 C   0  0  0  0  0  0  0  0  0  0  0  0
   -1.1386   -1.1961    0.0008 C   0  0  0  0  0  0  0  0  0  0  0  0
    0.2021    1.2242    0.0246 C   0  0  0  0  0  0  0  0  0  0  0  0
   -1.8624    0.0060   -0.0120 C   0  0  0  0  0  0  0  0  0  0  0  0
   -1.1873    1.2191    0.0005 C   0  0  0  0  0  0  0  0  0  0  0  0
    0.9237   -2.5690    0.0364 C   0  0  0  0  0  0  0  0  0  0  0  0
  1  5  1  0
  2 10  2  0
  3 10  1  0
  4  5  2  0
  4  6  1  0
  4 10  1  0
  5  7  1  0
  6  8  2  0
  7  9  2  0
  8  9  1  0
M  END
>  <DRUGBANK_ID>  (1) 
DB08797

>  <COMMON_NAME>  (1) 
Salicylamide

>  <CAS_NUMBER>  (1) 
65-45-2

>  <UNII>  (1) 
EM8BM710ZC

>  <SYNONYMS>  (1) 
2-Carbamoylphenol; 2-Carboxamidophenol; 2-Hydroxybenzamide; o-hydroxybenzamide; OHB; Salicilamida; Salicylamide; Salicylamidum; Salicylic Acid amide

$$$$
