
     RDKit          3D

 38 41  0  0  0  0  0  0  0  0999 V2000
   -2.1802   10.6910   10.5572 Cl  0  0  0  0  0  0  0  0  0  0  0  0
   -4.7203    4.6024    9.8587 F   0  0  0  0  0  0  0  0  0  0  0  0
   -3.7293    2.7568   10.4556 F   0  0  0  0  0  0  0  0  0  0  0  0
   -3.9613    4.3770   11.8883 F   0  0  0  0  0  0  0  0  0  0  0  0
   -1.2889    4.1248   10.9894 O   0  0  0  0  0  0  0  0  0  0  0  0
    9.0134    1.8913   12.2261 O   0  0  0  0  0  0  0  0  0  0  0  0
    9.3589   -0.3212   11.9813 O   0  0  0  0  0  0  0  0  0  0  0  0
   -2.0046    6.3923    7.7622 N   0  0  0  0  0  0  0  0  0  0  0  0
   -2.9129    5.5142    7.2591 N   0  0  0  0  0  0  0  0  0  0  0  0
    0.3506    5.7218   10.4251 N   0  0  0  0  0  0  0  0  0  0  0  0
    2.6274    5.0998   10.4539 N   0  0  0  0  0  0  0  0  0  0  0  0
    2.0076    7.2932   10.0490 N   0  0  0  0  0  0  0  0  0  0  0  0
    8.3836    0.2633    9.1922 N   0  0  0  0  0  0  0  0  0  0  0  0
   -2.3296    4.6722   10.1403 C   0  0  2  0  0  0  0  0  0  0  0  0
   -2.3922    6.1927   10.1844 C   0  0  0  0  0  0  0  0  0  0  0  0
   -3.6927    4.1053   10.5859 C   0  0  0  0  0  0  0  0  0  0  0  0
   -2.1767    6.9866    9.0387 C   0  0  0  0  0  0  0  0  0  0  0  0
   -2.5330    6.8269   11.4382 C   0  0  0  0  0  0  0  0  0  0  0  0
    0.0124    4.4431   10.6483 C   0  0  0  0  0  0  0  0  0  0  0  0
   -2.0835    8.3794    9.1583 C   0  0  0  0  0  0  0  0  0  0  0  0
   -2.2541    8.9784   10.4102 C   0  0  0  0  0  0  0  0  0  0  0  0
   -2.4816    8.2116   11.5487 C   0  0  0  0  0  0  0  0  0  0  0  0
    0.9286    3.4388   10.7724 C   0  0  0  0  0  0  0  0  0  0  0  0
   -0.9167    6.5298    6.9335 C   0  0  0  0  0  0  0  0  0  0  0  0
    2.2455    3.8201   10.6578 C   0  0  0  0  0  0  0  0  0  0  0  0
   -2.4201    5.1654    6.0618 C   0  0  0  0  0  0  0  0  0  0  0  0
    1.6531    6.0001   10.3274 C   0  0  0  0  0  0  0  0  0  0  0  0
   -1.1509    5.7372    5.8361 C   0  0  0  0  0  0  0  0  0  0  0  0
    3.3151    2.8284   10.7231 C   0  0  0  0  0  0  0  0  0  0  0  0
    3.3460    1.7642    9.8031 C   0  0  0  0  0  0  0  0  0  0  0  0
    4.3242    2.9191   11.6882 C   0  0  0  0  0  0  0  0  0  0  0  0
    5.3709    0.9275   10.7917 C   0  0  0  0  0  0  0  0  0  0  0  0
   -3.1515    4.2586    5.1390 C   0  0  0  0  0  0  0  0  0  0  0  0
    4.3671    0.8204    9.8307 C   0  0  0  0  0  0  0  0  0  0  0  0
    5.3533    1.9884   11.7084 C   0  0  0  0  0  0  0  0  0  0  0  0
    7.7981    0.7708   10.4460 C   0  0  1  0  0  0  0  0  0  0  0  0
    6.5342   -0.0268   10.8002 C   0  0  0  0  0  0  0  0  0  0  0  0
    8.7899    0.7039   11.6121 C   0  0  0  0  0  0  0  0  0  0  0  0
  1 21  1  0
  5 19  1  0
  8 24  1  0
  9  8  1  0
 10 19  2  0
 11 27  2  0
 14  5  1  1
 14 16  1  0
 15 14  1  0
 15 17  1  0
 16  2  1  0
 16  3  1  0
 16  4  1  0
 17  8  1  0
 17 20  2  0
 18 15  2  0
 19 23  1  0
 20 21  1  0
 21 22  2  0
 22 18  1  0
 23 25  2  0
 24 28  2  0
 25 11  1  0
 25 29  1  0
 26  9  2  0
 26 33  1  0
 27 10  1  0
 27 12  1  0
 28 26  1  0
 29 31  1  0
 30 29  2  0
 31 35  2  0
 32 34  2  0
 32 37  1  0
 34 30  1  0
 35 32  1  0
 36 38  1  0
 36 37  1  0
 36 13  1  6
 38  6  1  0
 38  7  2  0
M  END
>  <DRUGBANK_ID>  (1) 
DB14218

>  <COMMON_NAME>  (1) 
Telotristat

>  <CAS_NUMBER>  (1) 
1033805-28-5

>  <UNII>  (1) 
381V4FCV2Z

>  <SYNONYMS>  (1) 
Telotristat

$$$$
