
     RDKit          3D

 33 35  0  0  1  0  0  0  0  0999 V2000
   -2.6002   -1.6033    0.4276 O   0  0  0  0  0  0  0  0  0  0  0  0
   -2.7930   -2.3030   -1.7555 O   0  0  0  0  0  0  0  0  0  0  0  0
   -0.3484    0.1401    2.4466 O   0  0  0  0  0  0  0  0  0  0  0  0
   -0.9986   -8.6883   -3.8084 O   0  0  0  0  0  0  0  0  0  0  0  0
   -1.2694    0.9795    0.5962 N   0  0  0  0  0  0  0  0  0  0  0  0
    1.7381   -4.1056   -5.6395 N   0  0  0  0  0  0  0  0  0  0  0  0
   -0.1105   -2.7376   -5.5263 N   0  0  0  0  0  0  0  0  0  0  0  0
   -0.9121   -7.6006   -3.1642 N   0  0  0  0  0  0  0  0  0  0  0  0
   -1.4667    0.0230   -1.5758 C   0  0  1  0  0  0  0  0  0  0  0  0
   -1.9192    1.1411   -0.7212 C   0  0  1  0  0  0  0  0  0  0  0  0
    0.2907    0.5262   -1.7250 C   0  0  0  0  0  0  0  0  0  0  0  0
   -3.4385    1.2232   -0.7640 C   0  0  0  0  0  0  0  0  0  0  0  0
    1.3752   -0.3729   -2.4277 C   0  0  0  0  0  0  0  0  0  0  0  0
   -2.3924   -1.4430   -0.9634 C   0  0  0  0  0  0  0  0  0  0  0  0
    0.9734   -1.0884   -3.5640 C   0  0  0  0  0  0  0  0  0  0  0  0
   -0.5524   -0.0780    1.2720 C   0  0  0  0  0  0  0  0  0  0  0  0
    2.5309   -0.8422   -1.7282 C   0  0  0  0  0  0  0  0  0  0  0  0
    1.6870   -2.2182   -4.0142 C   0  0  0  0  0  0  0  0  0  0  0  0
   -0.0491   -1.5141    0.6764 C   0  0  0  0  0  0  0  0  0  0  0  0
    3.2770   -1.9334   -2.2080 C   0  0  0  0  0  0  0  0  0  0  0  0
    2.8461   -2.6281   -3.3403 C   0  0  0  0  0  0  0  0  0  0  0  0
    0.1190   -1.9169   -0.6205 C   0  0  0  0  0  0  0  0  0  0  0  0
   -0.2158   -2.6888    1.3728 C   0  0  0  0  0  0  0  0  0  0  0  0
   -0.3475   -4.2022   -0.6948 C   0  0  0  0  0  0  0  0  0  0  0  0
    1.0727   -3.0462   -5.1030 C   0  0  0  0  0  0  0  0  0  0  0  0
   -3.0157   -2.8088    1.3065 C   0  0  0  0  0  0  0  0  0  0  0  0
    0.0409   -3.1029   -1.3449 C   0  0  0  0  0  0  0  0  0  0  0  0
   -0.3680   -4.0174    0.6791 C   0  0  0  0  0  0  0  0  0  0  0  0
   -0.6583   -5.3355   -1.5436 C   0  0  0  0  0  0  0  0  0  0  0  0
    0.4318   -5.8391   -2.2608 C   0  0  0  0  0  0  0  0  0  0  0  0
   -1.9300   -5.8666   -1.7897 C   0  0  0  0  0  0  0  0  0  0  0  0
    0.3050   -6.9745   -3.0280 C   0  0  0  0  0  0  0  0  0  0  0  0
   -2.0298   -7.0181   -2.5787 C   0  0  0  0  0  0  0  0  0  0  0  0
  1 14  1  0
  1 26  1  0
  2 14  2  0
  3 16  2  0
  4  8  1  0
  5 16  1  0
  6 25  1  0
  7 25  2  0
  8 32  2  0
  8 33  1  0
  9 11  1  1
  9 14  1  0
 10 12  1  1
 10  9  1  0
 10  5  1  0
 11 13  1  0
 13 15  2  0
 13 17  1  0
 15 18  1  0
 16 19  1  0
 17 20  2  0
 18 21  2  0
 18 25  1  0
 19 22  2  0
 19 23  1  0
 20 21  1  0
 22 27  1  0
 23 28  2  0
 24 27  2  0
 24 28  1  0
 24 29  1  0
 29 30  2  0
 29 31  1  0
 30 32  1  0
 31 33  2  0
M  CHG  2   4  -1   8   1
M  END
>  <DRUGBANK_ID>  (1) 
DB06635

>  <COMMON_NAME>  (1) 
Otamixaban

>  <CAS_NUMBER>  (1) 
193153-04-7

>  <UNII>  (1) 
S173RED00L

>  <SYNONYMS>  (1) 
Otamixaban

$$$$
