
     RDKit          3D

  1  0  0  0  0  0  0  0  0  0999 V2000
    0.9566   -0.0686    0.0585 Rb  0  0  0  0  0 15  0  0  0  0  0  0
M  END
>  <DRUGBANK_ID>  (1) 
DB11346

>  <COMMON_NAME>  (1) 
Rubidium

>  <CAS_NUMBER>  (1) 
7440-17-7

>  <UNII>  (1) 
MLT4718TJW

>  <SYNONYMS>  (1) 
rubidio

$$$$
