
     RDKit          3D

 18 18  0  0  1  0  0  0  0  0999 V2000
    0.9446    0.1367    0.0685 C   0  0  0  0  0  0  0  0  0  0  0  0
    0.4704   -0.4396   -1.2488 C   0  0  0  0  0  0  0  0  0  0  0  0
    0.9179   -1.9081   -1.4760 C   0  0  0  0  0  0  0  0  0  0  0  0
    0.3824   -2.8298   -0.3552 C   0  0  0  0  0  0  0  0  0  0  0  0
   -1.1386   -2.8535   -0.2772 C   0  0  0  0  0  0  0  0  0  0  0  0
    0.4598   -2.3688   -2.8918 C   0  0  1  0  0  0  0  0  0  0  0  0
    0.9915   -1.4411   -3.9946 C   0  0  0  0  0  0  0  0  0  0  0  0
    2.4136   -1.4914   -4.0302 O   0  0  0  0  0  0  0  0  0  0  0  0
    0.8869   -3.7745   -3.1529 N   0  0  0  0  0  0  0  0  0  0  0  0
    0.3424   -4.5263   -4.5841 S   0  0  0  0  0  0  0  0  0  0  0  0
    0.7036   -3.7362   -5.7428 O   0  0  0  0  0  0  0  0  0  0  0  0
    0.7541   -5.9052   -4.4958 O   0  0  0  0  0  0  0  0  0  0  0  0
   -1.4387   -4.5917   -4.5802 C   0  0  0  0  0  0  0  0  0  0  0  0
   -2.2719   -5.6930   -4.5466 C   0  0  0  0  0  0  0  0  0  0  0  0
   -3.6476   -5.3434   -4.4818 C   0  0  0  0  0  0  0  0  0  0  0  0
   -3.8118   -3.9847   -4.5206 C   0  0  0  0  0  0  0  0  0  0  0  0
   -2.3537   -3.1404   -4.6752 S   0  0  0  0  0  0  0  0  0  0  0  0
   -5.3072   -3.1416   -4.4614 Cl  0  0  0  0  0  0  0  0  0  0  0  0
  1  2  1  0
  2  3  1  0
  3  4  1  0
  3  6  1  0
  4  5  1  0
  6  7  1  6
  6  9  1  0
  7  8  1  0
  9 10  1  0
 10 11  2  0
 10 12  2  0
 10 13  1  0
 13 14  2  0
 13 17  1  0
 14 15  1  0
 15 16  2  0
 16 17  1  0
 16 18  1  0
M  END
>  <DRUGBANK_ID>  (1) 
DB12819

>  <COMMON_NAME>  (1) 
GSI-136

>  <CAS_NUMBER>  (1) 
443989-01-3

>  <UNII>  (1) 
51JV4753AD

$$$$
