
     RDKit          3D

 33 35  0  0  1  0  0  0  0  0999 V2000
    1.0042    1.3470   -0.3872 C   0  0  0  0  0  0  0  0  0  0  0  0
    2.9284   -1.7235    4.2878 C   0  0  0  0  0  0  0  0  0  0  0  0
   -5.1023    3.8659    0.3773 C   0  0  0  0  0  0  0  0  0  0  0  0
    1.6994    0.0881    0.0513 C   0  0  1  0  0  0  0  0  0  0  0  0
   -0.3918    1.4047    0.1995 C   0  0  2  0  0  0  0  0  0  0  0  0
    1.6029   -1.1530    3.7538 C   0  0  2  0  0  0  0  0  0  0  0  0
   -3.7866    3.5294   -0.3102 C   0  0  2  0  0  0  0  0  0  0  0  0
   -4.3365    2.2123   -2.4637 C   0  0  1  0  0  0  0  0  0  0  0  0
    0.0175   -3.2575    2.3185 C   0  0  2  0  0  0  0  0  0  0  0  0
   -3.8120    3.5404   -1.8507 C   0  0  2  0  0  0  0  0  0  0  0  0
    0.3424   -1.7630    4.3712 C   0  0  2  0  0  0  0  0  0  0  0  0
    0.1162   -3.2104    3.8595 C   0  0  2  0  0  0  0  0  0  0  0  0
   -3.5443    1.0303   -1.9347 C   0  0  2  0  0  0  0  0  0  0  0  0
   -0.5448   -1.0662    0.0290 C   0  0  1  0  0  0  0  0  0  0  0  0
    0.9146   -1.2023   -0.3208 C   0  0  2  0  0  0  0  0  0  0  0  0
   -1.2151    0.2214   -0.3395 C   0  0  1  0  0  0  0  0  0  0  0  0
    1.2971   -2.5085    1.7349 C   0  0  2  0  0  0  0  0  0  0  0  0
   -3.4751    1.0789   -0.3711 C   0  0  2  0  0  0  0  0  0  0  0  0
    4.0866   -1.2949    3.5005 N   0  0  0  0  0  0  0  0  0  0  0  0
    3.0678    0.0368   -0.4517 N   0  0  0  0  0  0  0  0  0  0  0  0
   -0.7959    2.7044   -0.2843 N   0  0  0  0  0  0  0  0  0  0  0  0
   -5.7668    1.9399   -2.2609 N   0  0  0  0  0  0  0  0  0  0  0  0
   -1.3912   -2.8596    2.0629 N   0  0  0  0  0  0  0  0  0  0  0  0
   -6.1582    3.0041   -0.0069 O   0  0  0  0  0  0  0  0  0  0  0  0
   -2.4860    3.8568   -2.3088 O   0  0  0  0  0  0  0  0  0  0  0  0
   -0.7614   -0.9055    4.0080 O   0  0  0  0  0  0  0  0  0  0  0  0
    1.0844   -4.1214    4.3704 O   0  0  0  0  0  0  0  0  0  0  0  0
   -2.3429    1.0616   -2.7148 O   0  0  0  0  0  0  0  0  0  0  0  0
   -1.2896   -2.2097   -0.4306 O   0  0  0  0  0  0  0  0  0  0  0  0
    1.5310   -1.2604    2.3385 O   0  0  0  0  0  0  0  0  0  0  0  0
   -3.2308    2.3314    0.2519 O   0  0  0  0  0  0  0  0  0  0  0  0
    1.4262   -2.4098    0.2990 O   0  0  0  0  0  0  0  0  0  0  0  0
   -2.5592    0.1170    0.1452 O   0  0  0  0  0  0  0  0  0  0  0  0
  4  1  1  0
  4 20  1  6
  5  1  1  0
  5 21  1  6
  6  2  1  1
  7  3  1  1
  8 22  1  1
  9 23  1  1
 10  7  1  0
 10  8  1  0
 10 25  1  6
 11  6  1  0
 11 26  1  6
 12  9  1  0
 12 11  1  0
 12 27  1  6
 13  8  1  0
 13 28  1  6
 14 29  1  6
 15  4  1  0
 15 14  1  0
 15 32  1  1
 16  5  1  0
 16 14  1  0
 16 33  1  1
 17  9  1  0
 17 32  1  6
 18 13  1  0
 18 33  1  6
 19  2  1  0
 24  3  1  0
 30  6  1  0
 30 17  1  0
 31  7  1  0
 31 18  1  0
M  END
>  <DRUGBANK_ID>  (1) 
DB13673

>  <COMMON_NAME>  (1) 
Bekanamycin

>  <CAS_NUMBER>  (1) 
4696-76-8

>  <UNII>  (1) 
15JT14C3GI

>  <SYNONYMS>  (1) 
Bekanamycin

$$$$
