
     RDKit          3D

 15 15  0  0  0  0  0  0  0  0999 V2000
   -0.7100    1.4410   -1.2128 C   0  0  0  0  0  0  0  0  0  0  0  0
   -1.0499    2.4913   -1.7394 O   0  0  0  0  0  0  0  0  0  0  0  0
    0.2267    1.3024    0.0481 C   0  0  2  0  0  0  0  0  0  0  0  0
   -1.1644    0.2553   -1.7056 O   0  0  0  0  0  0  0  0  0  0  0  0
    0.8359   -0.0706    0.0301 N   0  0  0  0  0  0  0  0  0  0  0  0
   -0.6450    1.3619    1.3209 C   0  0  0  0  0  0  0  0  0  0  0  0
    1.2512    2.4606    0.1384 C   0  0  0  0  0  0  0  0  0  0  0  0
    0.8049    3.7984    0.0695 C   0  0  0  0  0  0  0  0  0  0  0  0
    2.6188    2.2720    0.3926 C   0  0  0  0  0  0  0  0  0  0  0  0
    1.6859    4.8792    0.1964 C   0  0  0  0  0  0  0  0  0  0  0  0
    3.4870    3.3490    0.5997 C   0  0  0  0  0  0  0  0  0  0  0  0
    3.0447    4.6614    0.4456 C   0  0  0  0  0  0  0  0  0  0  0  0
    3.9579    5.8364    0.4818 C   0  0  0  0  0  0  0  0  0  0  0  0
    5.2655    5.5830    0.6835 O   0  0  0  0  0  0  0  0  0  0  0  0
    3.5494    6.9799    0.3028 O   0  0  0  0  0  0  0  0  0  0  0  0
  2  1  2  0
  3  6  1  1
  3  5  1  0
  3  1  1  0
  4  1  1  0
  7  3  1  0
  8  7  2  0
  9  7  1  0
 10  8  1  0
 11  9  2  0
 12 10  2  0
 12 11  1  0
 12 13  1  0
 13 14  1  0
 13 15  2  0
M  END
>  <DRUGBANK_ID>  (1) 
DB04256

>  <SECONDARY_ACCESSION_NUMBERS>  (1) 
EXPT02133

>  <COMMON_NAME>  (1) 
(S)-alpha-methyl-4-carboxyphenylglycine

>  <CAS_NUMBER>  (1) 
150145-89-4

>  <UNII>  (1) 
61F6J48NHR

>  <SYNONYMS>  (1) 
(+)-MCPG; (+)-α-methyl-4-carboxyphenylglycine; (S)-(+)-α-amino-4-carboxy-2-methylbenzeneacetic; (S)-(+)-α-methyl-4-carboxyphenylglycine; (S)-a-methyl-4-carboxyphenylglycine; (S)-MCPG; (S)-α-methyl-4-carboxyphenylglycine

$$$$
