[NO NAME]
     RDKit          3D

 21 22  0  0  0  0  0  0  0  0999 V2000
    1.0359    0.0115    0.0783 O   0  0  0  0  0  0  0  0  0  0  0  0
    0.3328    1.1960   -0.1067 C   0  0  0  0  0  0  0  0  0  0  0  0
    3.1824    1.1766   -0.0150 C   0  0  0  0  0  0  0  0  0  0  0  0
    2.4142    0.0126    0.0157 C   0  0  0  0  0  0  0  0  0  0  0  0
   -0.6302    1.4529    0.8943 C   0  0  0  0  0  0  0  0  0  0  0  0
    3.0545   -1.2295   -0.0802 C   0  0  0  0  0  0  0  0  0  0  0  0
    4.4274   -1.2885   -0.3481 C   0  0  0  0  0  0  0  0  0  0  0  0
    5.1642   -0.1117   -0.4793 C   0  0  0  0  0  0  0  0  0  0  0  0
    4.5406    1.1191   -0.3070 C   0  0  0  0  0  0  0  0  0  0  0  0
   -1.3046    3.4646   -0.2625 C   0  0  0  0  0  0  0  0  0  0  0  0
   -0.3723    3.1913   -1.2536 C   0  0  0  0  0  0  0  0  0  0  0  0
   -1.4803    2.5596    0.7723 C   0  0  0  0  0  0  0  0  0  0  0  0
   -2.8341    1.8845    2.5267 O   0  0  0  0  0  0  0  0  0  0  0  0
   -2.6487    2.7276    1.6410 N   0  0  0  0  0  0  0  0  0  0  0  0
   -3.4073    3.6802    1.4034 O   0  0  0  0  0  0  0  0  0  0  0  0
    0.4557    2.0658   -1.2273 C   0  0  0  0  0  0  0  0  0  0  0  0
    1.2709    1.7273   -2.3746 N   0  0  0  0  0  0  0  0  0  0  0  0
    1.7916    2.8580   -3.5374 S   0  0  0  0  0  0  0  0  0  0  0  0
    0.9015    3.9964   -3.6562 O   0  0  0  0  0  0  0  0  0  0  0  0
    3.2101    3.0454   -3.3679 O   0  0  0  0  0  0  0  0  0  0  0  0
    1.5160    1.9069   -5.0046 C   0  0  0  0  0  0  0  0  0  0  0  0
  1  2  1  0
  2  5  2  0
  3  4  2  0
  4  1  1  0
  5 12  1  0
  6  4  1  0
  6  7  2  0
  7  8  1  0
  8  9  2  0
  9  3  1  0
 10 11  1  0
 12 10  2  0
 12 14  1  0
 14 13  1  0
 14 15  2  0
 16  2  1  0
 16 11  2  0
 16 17  1  0
 17 18  1  0
 18 20  2  0
 18 21  1  0
 18 19  2  0
M  CHG  2  13  -1  14   1
M  END
>  <DRUGBANK_ID>  (1) 
DB04743

>  <COMMON_NAME>  (1) 
Nimesulide

>  <CAS_NUMBER>  (1) 
51803-78-2

>  <UNII>  (1) 
V4TKW1454M

>  <SYNONYMS>  (1) 
Nimesulida; Nimesulide; Nimesulidum

$$$$
