
     RDKit          3D

 19 20  0  0  0  0  0  0  0  0999 V2000
    0.9218    0.0537    0.0114 C   0  0  0  0  0  0  0  0  0  0  0  0
    5.7505    1.6159   -1.0655 C   0  0  0  0  0  0  0  0  0  0  0  0
    0.5457    0.1241   -1.4552 C   0  0  0  0  0  0  0  0  0  0  0  0
   10.4459   -3.0366   -3.4440 C   0  0  0  0  0  0  0  0  0  0  0  0
    9.2527   -2.7342   -4.3352 C   0  0  0  0  0  0  0  0  0  0  0  0
   10.0039   -3.7332   -2.1609 C   0  0  0  0  0  0  0  0  0  0  0  0
    8.2092   -1.9472   -3.5635 C   0  0  0  0  0  0  0  0  0  0  0  0
    8.9263   -2.9305   -1.4486 C   0  0  0  0  0  0  0  0  0  0  0  0
    3.3809   -0.2577   -1.9347 C   0  0  0  0  0  0  0  0  0  0  0  0
    4.6936   -0.5291   -1.9469 C   0  0  0  0  0  0  0  0  0  0  0  0
    2.3514   -1.2515   -2.4046 C   0  0  0  0  0  0  0  0  0  0  0  0
    6.9513   -0.5186   -1.2455 C   0  0  0  0  0  0  0  0  0  0  0  0
    6.7312   -1.9987   -1.6266 C   0  0  0  0  0  0  0  0  0  0  0  0
    5.7469    0.2027   -1.4057 N   0  0  0  0  0  0  0  0  0  0  0  0
    7.8110   -2.6635   -2.3462 N   0  0  0  0  0  0  0  0  0  0  0  0
    2.6041   -2.3097   -2.9778 O   0  0  0  0  0  0  0  0  0  0  0  0
    7.9902   -0.0387   -0.7997 O   0  0  0  0  0  0  0  0  0  0  0  0
    1.0520   -1.0046   -2.1587 O   0  0  0  0  0  0  0  0  0  0  0  0
    5.2747   -1.9912   -2.6417 S   0  0  0  0  0  0  0  0  0  0  0  0
  3  1  1  0
  5  4  1  0
  6  4  1  0
  7  5  1  0
  8  6  1  0
 10  9  2  0
 11  9  1  0
 13 12  1  0
 14  2  1  0
 14 10  1  0
 14 12  1  0
 15  7  1  0
 15  8  1  0
 15 13  1  0
 16 11  2  0
 17 12  2  0
 18  3  1  0
 18 11  1  0
 19 10  1  0
 19 13  1  0
M  END
>  <DRUGBANK_ID>  (1) 
DB08982

>  <COMMON_NAME>  (1) 
Etozoline

>  <CAS_NUMBER>  (1) 
73-09-6

>  <UNII>  (1) 
UEO8UW9V1Z

$$$$
