
     RDKit          3D

 36 38  0  0  0  0  0  0  0  0999 V2000
    0.3676   -1.1565    4.8980 P   0  0  2  0  0  0  0  0  0  0  0  0
    2.0532   -1.6114    7.1190 P   0  0  2  0  0  0  0  0  0  0  0  0
    0.5015   -4.4931    3.2211 F   0  0  0  0  0  0  0  0  0  0  0  0
    3.0282   -2.8793    9.3438 O   0  0  0  0  0  0  0  0  0  0  0  0
    2.0767   -1.4215    1.8451 O   0  0  0  0  0  0  0  0  0  0  0  0
    4.6005   -5.1150   10.2558 O   0  0  0  0  0  0  0  0  0  0  0  0
    2.0948   -6.0724   10.1578 O   0  0  0  0  0  0  0  0  0  0  0  0
    1.1422   -0.2745    3.7463 O   0  0  0  0  0  0  0  0  0  0  0  0
    3.5270   -2.1594    6.6457 O   0  0  0  0  0  0  0  0  0  0  0  0
   -2.1389   -3.3839    1.7340 O   0  0  0  0  0  0  0  0  0  0  0  0
   -1.5537   -0.2090    2.1378 O   0  0  0  0  0  0  0  0  0  0  0  0
    1.4893   -2.2597    5.6175 O   0  0  0  0  0  0  0  0  0  0  0  0
    4.5101   -2.6918    3.0329 O   0  0  0  0  0  0  0  0  0  0  0  0
    0.6132   -4.0004    7.1278 O   0  0  0  0  0  0  0  0  0  0  0  0
    0.1660   -2.2341    3.5598 O   0  0  0  0  0  0  0  0  0  0  0  0
    2.6240   -0.2141    6.3425 O   0  0  0  0  0  0  0  0  0  0  0  0
    0.5480   -0.1920    6.0958 O   0  0  0  0  0  0  0  0  0  0  0  0
    2.5579   -1.0312    8.4629 O   0  0  0  0  0  0  0  0  0  0  0  0
   -2.9321   -1.5568    8.3681 O   0  0  0  0  0  0  0  0  0  0  0  0
    0.5921   -3.2493    9.3216 N   0  0  0  0  0  0  0  0  0  0  0  0
   -1.1588   -2.8419    7.8048 N   0  0  0  0  0  0  0  0  0  0  0  0
    3.9442   -4.9230    8.9985 C   0  0  1  0  0  0  0  0  0  0  0  0
    2.4201   -5.0867    9.1895 C   0  0  2  0  0  0  0  0  0  0  0  0
    4.0912   -3.4836    8.5942 C   0  0  1  0  0  0  0  0  0  0  0  0
    1.9657   -3.7377    9.7066 C   0  0  1  0  0  0  0  0  0  0  0  0
   -0.9438   -2.6850    2.0464 C   0  0  1  0  0  0  0  0  0  0  0  0
    0.6467   -3.6033    2.1527 C   0  0  1  0  0  0  0  0  0  0  0  0
   -0.5271   -1.1339    1.7202 C   0  0  2  0  0  0  0  0  0  0  0  0
    2.0658   -2.6747    2.5523 C   0  0  1  0  0  0  0  0  0  0  0  0
    4.0544   -3.3524    7.0706 C   0  0  0  0  0  0  0  0  0  0  0  0
    0.9736   -0.5815    2.3100 C   0  0  2  0  0  0  0  0  0  0  0  0
    3.3740   -3.4716    2.6335 C   0  0  0  0  0  0  0  0  0  0  0  0
    0.0435   -3.4296    8.0670 C   0  0  0  0  0  0  0  0  0  0  0  0
   -0.1963   -2.6574   10.3083 C   0  0  0  0  0  0  0  0  0  0  0  0
   -1.3809   -2.0971   10.0587 C   0  0  0  0  0  0  0  0  0  0  0  0
   -1.9150   -2.1076    8.6845 C   0  0  0  0  0  0  0  0  0  0  0  0
  1  8  1  0
  1 12  1  0
  1 15  1  6
  1 17  2  0
  2  9  1  0
  2 12  1  0
  2 16  1  6
  2 18  2  0
  4 24  1  0
  4 25  1  0
  5 29  1  0
  5 31  1  0
  9 30  1  0
 13 32  1  0
 14 33  2  0
 19 36  2  0
 20 33  1  0
 20 34  1  0
 21 33  1  0
 21 36  1  0
 22  6  1  1
 22 23  1  0
 22 24  1  0
 23  7  1  1
 23 25  1  0
 24 30  1  6
 25 20  1  6
 26 10  1  6
 26 27  1  0
 26 28  1  0
 27 29  1  0
 27  3  1  1
 28 31  1  0
 28 11  1  1
 29 32  1  6
 31  8  1  1
 34 35  2  0
 35 36  1  0
M  END
>  <DRUGBANK_ID>  (1) 
DB04097

>  <SECONDARY_ACCESSION_NUMBERS>  (1) 
EXPT03174

>  <COMMON_NAME>  (1) 
Uridine-5'-diphosphate-4-deoxy-4-fluoro-alpha-D-galactose

>  <SYNONYMS>  (1) 
UDP-4-fluoro-4-deoxy-alpha-D-glucose

$$$$
