[NO NAME]
     RDKit          3D

 11 12  0  0  1  0  0  0  0  0999 V2000
   -0.6683   -1.4156    0.3593 C   0  0  0  0  0  0  0  0  0  0  0  0
    0.8633   -1.4075    0.4232 C   0  0  0  0  0  0  0  0  0  0  0  0
   -0.5680    0.2509   -1.4071 O   0  0  0  0  0  0  0  0  0  0  0  0
    1.3540    1.5412   -2.1517 C   0  0  0  0  0  0  0  0  0  0  0  0
    0.8895    0.2454   -1.4514 C   0  0  0  0  0  0  0  0  0  0  0  0
    1.4603   -0.8589   -2.3816 C   0  0  0  0  0  0  0  0  0  0  0  0
   -1.1485   -0.0301   -0.0984 C   0  0  1  0  0  0  0  0  0  0  0  0
   -2.6781    0.0106   -0.1624 C   0  0  0  0  0  0  0  0  0  0  0  0
    1.4106   -0.0135   -0.0072 C   0  0  1  0  0  0  0  0  0  0  0  0
   -0.6717    0.9757    0.9685 C   0  0  0  0  0  0  0  0  0  0  0  0
    0.8486    1.0486    0.9554 C   0  0  0  0  0  0  0  0  0  0  0  0
  1  2  1  0
  3  7  1  0
  5  3  1  0
  5  4  1  0
  5  6  1  0
  7  1  1  0
  7 10  1  0
  7  8  1  6
  9  5  1  0
  9  2  1  1
  9 11  1  0
 11 10  1  0
M  END
>  <DRUGBANK_ID>  (1) 
DB03852

>  <SECONDARY_ACCESSION_NUMBERS>  (1) 
EXPT00969

>  <COMMON_NAME>  (1) 
Eucalyptol

>  <CAS_NUMBER>  (1) 
470-82-6

>  <UNII>  (1) 
RV6J6604TK

>  <SYNONYMS>  (1) 
1,8-cineol; 1,8-Cineole; 1,8-epoxy-p-menthane; 1,8-oxido-p-menthane; Cajeputol; Cineole; Eucalyptol; Zineol

$$$$
