
     RDKit          3D

 23 22  0  0  0  0  0  0  0  0999 V2000
   -1.9694    0.1851   -3.8973 S   0  0  0  0  0  0  0  0  0  0  0  0
   -5.9243    2.4107   -2.7772 O   0  0  0  0  0  0  0  0  0  0  0  0
   -5.2312   -1.7057   -0.2052 O   0  0  0  0  0  0  0  0  0  0  0  0
   -8.0293   -3.4455   -1.9020 O   0  0  0  0  0  0  0  0  0  0  0  0
   -6.9824   -4.7352   -3.4569 O   0  0  0  0  0  0  0  0  0  0  0  0
   -2.7444    2.3601    1.4923 O   0  0  0  0  0  0  0  0  0  0  0  0
   -2.0538    0.4870    2.5523 O   0  0  0  0  0  0  0  0  0  0  0  0
   -4.5103    0.7847   -2.3325 N   0  0  0  0  0  0  0  0  0  0  0  0
   -3.3458   -0.7453    0.3566 N   0  0  0  0  0  0  0  0  0  0  0  0
   -4.6482   -3.3109   -2.3703 N   0  0  0  0  0  0  0  0  0  0  0  0
   -6.9171   -0.7118   -4.1276 C   0  0  0  0  0  0  0  0  0  0  0  0
   -5.8537   -1.8276   -4.1174 C   0  0  0  0  0  0  0  0  0  0  0  0
   -6.9567    0.2413   -2.9013 C   0  0  0  0  0  0  0  0  0  0  0  0
   -3.9912   -0.5433   -2.0333 C   0  0  1  0  0  0  0  0  0  0  0  0
   -5.9391   -2.6875   -2.8045 C   0  0  1  0  0  0  0  0  0  0  0  0
   -5.7659    1.1906   -2.6818 C   0  0  0  0  0  0  0  0  0  0  0  0
   -2.7488   -1.0716   -2.8161 C   0  0  0  0  0  0  0  0  0  0  0  0
   -4.2442   -1.0704   -0.5829 C   0  0  0  0  0  0  0  0  0  0  0  0
   -7.0342   -3.7075   -2.7781 C   0  0  0  0  0  0  0  0  0  0  0  0
   -2.4665    0.3704    0.1801 C   0  0  2  0  0  0  0  0  0  0  0  0
   -1.1836   -0.1398   -0.3737 C   0  0  0  0  0  0  0  0  0  0  0  0
   -2.3596    1.0579    1.5320 C   0  0  0  0  0  0  0  0  0  0  0  0
   -0.2343   -0.8061    0.2827 C   0  0  0  0  0  0  0  0  0  0  0  0
  1 17  1  0
  2 16  2  0
  3 18  2  0
  4 19  1  0
  5 19  2  0
  6 22  1  0
  7 22  2  0
  8 16  1  0
  9 18  1  0
 11 12  1  0
 11 13  1  0
 13 16  1  0
 14 18  1  0
 14 17  1  1
 14  8  1  0
 15 19  1  0
 15 12  1  0
 15 10  1  6
 20 22  1  0
 20 21  1  1
 20  9  1  0
 21 23  2  0
M  END
>  <DRUGBANK_ID>  (1) 
DB03427

>  <SECONDARY_ACCESSION_NUMBERS>  (1) 
EXPT00577

>  <COMMON_NAME>  (1) 
delta-(L-alpha-Aminoadipoyl)-L-cysteinyl-D-vinylglycine

$$$$
