
     RDKit          3D

 31 34  0  0  1  0  0  0  0  0999 V2000
    7.3776   -8.1085    6.8460 C   0  0  0  0  0  0  0  0  0  0  0  0
   -1.6747  -12.4429    5.3938 C   0  0  0  0  0  0  0  0  0  0  0  0
   -1.8455  -11.6457    3.0208 C   0  0  0  0  0  0  0  0  0  0  0  0
    5.9868   -7.5917    7.2014 C   0  0  0  0  0  0  0  0  0  0  0  0
    5.7877   -2.8159    3.5925 C   0  0  0  0  0  0  0  0  0  0  0  0
    4.2611   -2.8075    3.4789 C   0  0  0  0  0  0  0  0  0  0  0  0
    0.8237   -9.8912    4.7441 C   0  0  0  0  0  0  0  0  0  0  0  0
    0.0323  -10.8894    4.4660 C   0  0  0  0  0  0  0  0  0  0  0  0
    6.3941   -4.0841    2.9861 C   0  0  0  0  0  0  0  0  0  0  0  0
    4.3597   -5.2905    3.2552 C   0  0  0  0  0  0  0  0  0  0  0  0
    2.0170   -6.5347    5.1851 C   0  0  0  0  0  0  0  0  0  0  0  0
    3.7091   -4.2254    5.5426 C   0  0  0  0  0  0  0  0  0  0  0  0
    3.6634   -4.1341    3.9884 C   0  0  1  0  0  0  0  0  0  0  0  0
    1.7272   -8.8336    5.0890 C   0  0  0  0  0  0  0  0  0  0  0  0
    3.2484   -6.5831    5.8376 C   0  0  0  0  0  0  0  0  0  0  0  0
    2.9761   -9.0190    5.7345 C   0  0  0  0  0  0  0  0  0  0  0  0
    5.6318  -10.7053    7.5383 C   0  0  0  0  0  0  0  0  0  0  0  0
    3.7136   -7.8827    6.1116 C   0  0  0  0  0  0  0  0  0  0  0  0
    6.1397  -10.5223    8.8521 C   0  0  0  0  0  0  0  0  0  0  0  0
    4.7365   -9.7651    6.7746 C   0  0  0  0  0  0  0  0  0  0  0  0
   -0.8903  -12.0531    4.1419 C   0  0  0  0  0  0  0  0  0  0  0  0
    5.8444   -9.4855    9.6723 N   0  0  0  0  0  0  0  0  0  0  0  0
    5.7875   -5.2824    3.5561 N   0  0  0  0  0  0  0  0  0  0  0  0
    1.2686   -7.5917    4.8106 N   0  0  0  0  0  0  0  0  0  0  0  0
    3.6647  -10.1618    6.1093 N   0  0  0  0  0  0  0  0  0  0  0  0
    6.1083  -11.8531    7.0423 N   0  0  0  0  0  0  0  0  0  0  0  0
    6.9603  -11.5162    9.1575 N   0  0  0  0  0  0  0  0  0  0  0  0
    4.8616   -8.3834    6.7161 N   0  0  0  0  0  0  0  0  0  0  0  0
   -0.1045  -13.1567    3.7109 O   0  0  0  0  0  0  0  0  0  0  0  0
    4.0303   -5.5014    6.1164 O   0  0  0  0  0  0  0  0  0  0  0  0
    6.9577  -12.3426    8.0350 O   0  0  0  0  0  0  0  0  0  0  0  0
  4  1  1  0
  6  5  1  0
  8  7  3  0
  9  5  1  0
 13  6  1  0
 13 10  1  0
 13 12  1  1
 14  7  1  0
 15 11  2  0
 16 14  1  0
 18 15  1  0
 18 16  2  0
 19 17  1  0
 20 17  1  0
 21  2  1  0
 21  3  1  0
 21  8  1  0
 22 19  1  0
 23  9  1  0
 23 10  1  0
 24 11  1  0
 24 14  2  0
 25 16  1  0
 25 20  2  0
 26 17  2  0
 27 19  2  0
 28  4  1  0
 28 18  1  0
 28 20  1  0
 29 21  1  0
 30 12  1  0
 30 15  1  0
 31 26  1  0
 31 27  1  0
M  END
>  <DRUGBANK_ID>  (1) 
DB12745

>  <COMMON_NAME>  (1) 
GSK-690693

>  <CAS_NUMBER>  (1) 
937174-76-0

>  <UNII>  (1) 
GWH480321B

$$$$
