
     RDKit          3D

 26 29  0  0  1  0  0  0  0  0999 V2000
    0.9560   -0.5946    0.3270 C   0  0  0  0  0  0  0  0  0  0  0  0
   -0.1416   -0.7102   -0.8297 C   0  0  2  0  0  0  0  0  0  0  0  0
   -0.8365    0.9368   -1.7917 C   0  0  0  0  0  0  0  0  0  0  0  0
   -1.0790    0.9520   -0.4849 C   0  0  2  0  0  0  0  0  0  0  0  0
    0.6119    1.4896   -1.0585 C   0  0  2  0  0  0  0  0  0  0  0  0
    0.9611    2.9438   -1.3512 C   0  0  0  0  0  0  0  0  0  0  0  0
    2.4817    2.9641   -1.6258 C   0  0  0  0  0  0  0  0  0  0  0  0
    2.9990    2.0490   -2.7432 C   0  0  0  0  0  0  0  0  0  0  0  0
    3.6679    2.5164   -3.8090 C   0  0  0  0  0  0  0  0  0  0  0  0
    4.2232    1.6288   -4.8702 C   0  0  0  0  0  0  0  0  0  0  0  0
    4.6750    2.0907   -5.9105 O   0  0  0  0  0  0  0  0  0  0  0  0
    4.1040    0.1687   -4.7363 C   0  0  0  0  0  0  0  0  0  0  0  0
    3.1375   -0.1790   -3.8940 C   0  0  0  0  0  0  0  0  0  0  0  0
    2.7106    0.5702   -2.6466 C   0  0  1  0  0  0  0  0  0  0  0  0
    3.5289   -0.0417   -1.4694 C   0  0  0  0  0  0  0  0  0  0  0  0
    1.2075    0.4668   -2.4889 C   0  0  0  0  0  0  0  0  0  0  0  0
    0.3877   -0.4234   -3.2479 C   0  0  0  0  0  0  0  0  0  0  0  0
   -1.2092   -0.8904   -2.9918 C   0  0  0  0  0  0  0  0  0  0  0  0
   -1.8899   -0.4765   -1.2839 C   0  0  2  0  0  0  0  0  0  0  0  0
   -3.3840   -0.4496   -1.2749 C   0  0  0  0  0  0  0  0  0  0  0  0
   -1.3394   -1.4555   -0.3330 C   0  0  2  0  0  0  0  0  0  0  0  0
   -1.7164   -1.1479    0.9974 O   0  0  0  0  0  0  0  0  0  0  0  0
   -1.6754   -2.9131   -0.7206 C   0  0  0  0  0  0  0  0  0  0  0  0
   -1.8855   -3.3182   -1.8681 O   0  0  0  0  0  0  0  0  0  0  0  0
   -1.8491   -3.9111    0.3948 C   0  0  0  0  0  0  0  0  0  0  0  0
   -0.6795   -4.6678    0.6247 O   0  0  0  0  0  0  0  0  0  0  0  0
  2  1  1  1
  2  3  1  0
  4  3  1  6
  4  5  1  0
  4 19  1  0
  5  6  1  6
  5 16  1  0
  6  7  1  0
  7  8  1  0
  8  9  2  0
  9 10  1  0
 10 11  2  0
 10 12  1  0
 12 13  2  0
 14 13  1  0
 14  8  1  0
 14 15  1  1
 14 16  1  0
 16 17  2  0
 17 18  1  0
 19 18  1  0
 19 20  1  6
 19 21  1  0
 21  2  1  0
 21 23  1  0
 21 22  1  1
 23 24  2  0
 23 25  1  0
 25 26  1  0
M  END
>  <DRUGBANK_ID>  (1) 
DB15114

>  <COMMON_NAME>  (1) 
Vamorolone

>  <CAS_NUMBER>  (1) 
13209-41-1

>  <UNII>  (1) 
8XP29XMB43

>  <SYNONYMS>  (1) 
Vamorolone

$$$$
