
     RDKit          3D

 29 30  0  0  0  0  0  0  0  0999 V2000
   -9.4690    0.0217   -3.1530 O   0  0  0  0  0  0  0  0  0  0  0  0
   -9.2536    2.0889   -0.7598 O   0  0  0  0  0  0  0  0  0  0  0  0
   -1.8968   -0.4197   -4.9982 O   0  0  0  0  0  0  0  0  0  0  0  0
   -3.2651   -0.7279   -2.2240 O   0  0  0  0  0  0  0  0  0  0  0  0
   -5.6493   -4.1714    6.0930 O   0  0  0  0  0  0  0  0  0  0  0  0
   -5.9636   -2.2507    5.0159 O   0  0  0  0  0  0  0  0  0  0  0  0
   -7.2493   -0.2691   -2.3861 C   0  0  1  0  0  0  0  0  0  0  0  0
   -7.4506    0.3935   -1.0001 C   0  0  1  0  0  0  0  0  0  0  0  0
   -8.1460    0.5238   -3.3227 C   0  0  2  0  0  0  0  0  0  0  0  0
   -7.9655    1.8237   -1.3034 C   0  0  1  0  0  0  0  0  0  0  0  0
   -8.0307    1.9571   -2.8251 C   0  0  0  0  0  0  0  0  0  0  0  0
   -5.8384   -0.2421   -2.8536 C   0  0  0  0  0  0  0  0  0  0  0  0
   -8.4209   -0.4250   -0.1374 C   0  0  0  0  0  0  0  0  0  0  0  0
   -5.1670   -1.3606   -3.1759 C   0  0  0  0  0  0  0  0  0  0  0  0
   -7.8963   -1.7952    0.1681 C   0  0  0  0  0  0  0  0  0  0  0  0
   -3.7109   -1.2989   -3.4561 C   0  0  1  0  0  0  0  0  0  0  0  0
   -3.3045   -0.4035   -4.6489 C   0  0  0  0  0  0  0  0  0  0  0  0
   -0.9502   -0.0132   -4.0932 C   0  0  0  0  0  0  0  0  0  0  0  0
   -7.7185   -2.2408    1.3600 C   0  0  0  0  0  0  0  0  0  0  0  0
   -0.7589   -0.5973   -2.8395 C   0  0  0  0  0  0  0  0  0  0  0  0
    0.0052    0.9075   -4.5094 C   0  0  0  0  0  0  0  0  0  0  0  0
   -7.5564   -2.6679    2.5787 C   0  0  0  0  0  0  0  0  0  0  0  0
    0.1453   -0.0903   -1.9100 C   0  0  0  0  0  0  0  0  0  0  0  0
    1.0787    1.2375   -3.6643 C   0  0  0  0  0  0  0  0  0  0  0  0
    1.1047    0.8030   -2.3391 C   0  0  0  0  0  0  0  0  0  0  0  0
   -7.2260   -4.0781    2.9383 C   0  0  0  0  0  0  0  0  0  0  0  0
   -5.8728   -4.2133    3.6295 C   0  0  0  0  0  0  0  0  0  0  0  0
   -5.8315   -3.4706    4.9526 C   0  0  0  0  0  0  0  0  0  0  0  0
   -5.4051   -5.5782    6.1037 C   0  0  0  0  0  0  0  0  0  0  0  0
  3 17  1  0
  3 18  1  0
  5 28  1  0
  5 29  1  0
  6 28  2  0
  7  8  1  0
  7  9  1  0
  7 12  1  6
  8 10  1  0
  8 13  1  1
  9  1  1  1
  9 11  1  0
 10  2  1  1
 10 11  1  0
 12 14  2  0
 13 15  1  0
 15 19  2  0
 16 17  1  0
 16 14  1  0
 16  4  1  1
 18 20  2  0
 18 21  1  0
 19 22  2  0
 20 23  1  0
 21 24  2  0
 22 26  1  0
 23 25  2  0
 24 25  1  0
 26 27  1  0
 27 28  1  0
M  END
>  <DRUGBANK_ID>  (1) 
DB11411

>  <COMMON_NAME>  (1) 
Fenprostalene

>  <CAS_NUMBER>  (1) 
69381-94-8

>  <UNII>  (1) 
X8I39OJF4P

>  <SYNONYMS>  (1) 
Fenprostalene

$$$$
