
     RDKit          3D

 19 20  0  0  0  0  0  0  0  0999 V2000
    1.4875   -0.1924    0.2131 C   0  0  0  0  0  0  0  0  0  0  0  0
    0.6095   -1.2826    0.1005 C   0  0  0  0  0  0  0  0  0  0  0  0
   -0.7742   -1.0808    0.0157 C   0  0  0  0  0  0  0  0  0  0  0  0
   -1.2901    0.2123    0.0188 C   0  0  0  0  0  0  0  0  0  0  0  0
   -0.4187    1.3014    0.0693 C   0  0  0  0  0  0  0  0  0  0  0  0
    0.9698    1.1027    0.1265 C   0  0  0  0  0  0  0  0  0  0  0  0
    2.9506   -0.4424    0.2506 C   0  0  0  0  0  0  0  0  0  0  0  0
    3.4505   -1.3014   -0.6076 N   0  0  0  0  0  0  0  0  0  0  0  0
    4.8750   -1.2352   -0.4709 O   0  0  0  0  0  0  0  0  0  0  0  0
    5.1402   -0.2414    0.4385 C   0  0  0  0  0  0  0  0  0  0  0  0
    3.9453    0.1595    1.0124 N   0  0  0  0  0  0  0  0  0  0  0  0
    6.3954    0.0510    0.6413 N   0  0  0  0  0  0  0  0  0  0  0  0
    3.7622    0.8116    2.3699 C   0  0  0  0  0  0  0  0  0  0  0  0
    4.0106    0.0274    3.7901 C   0  0  0  0  0  0  0  0  0  0  0  0
    5.3529   -0.5214    4.0957 N   0  0  0  0  0  0  0  0  0  0  0  0
    5.6754   -1.1207    5.3802 C   0  0  0  0  0  0  0  0  0  0  0  0
    5.7841   -1.4122    3.0465 C   0  0  0  0  0  0  0  0  0  0  0  0
    4.8798   -2.5445    2.5597 C   0  0  0  0  0  0  0  0  0  0  0  0
    4.9217   -2.4111    5.6367 C   0  0  0  0  0  0  0  0  0  0  0  0
  1  2  2  0
  1  6  1  0
  1  7  1  0
  2  3  1  0
  3  4  2  0
  4  5  1  0
  5  6  2  0
  7  8  2  0
  7 11  1  0
  8  9  1  0
  9 10  1  0
 10 11  1  0
 10 12  2  0
 11 13  1  0
 13 14  1  0
 14 15  1  0
 15 16  1  0
 15 17  1  0
 16 19  1  0
 17 18  1  0
M  END
>  <DRUGBANK_ID>  (1) 
DB09284

>  <COMMON_NAME>  (1) 
Imolamine

>  <CAS_NUMBER>  (1) 
318-23-0

>  <UNII>  (1) 
K5F4RU5VQJ

>  <SYNONYMS>  (1) 
3-Phenyl-4-diethylaminoethyl-5-imino-1,2,4-oxadiazol; Imolamina; Imolamine; Imolaminum

$$$$
