
     RDKit          3D

 31 35  0  0  0  0  0  0  0  0999 V2000
    0.9759    0.0029   -0.0021 C   0  0  0  0  0  0  0  0  0  0  0  0
    0.3767    1.0767   -0.0768 O   0  0  0  0  0  0  0  0  0  0  0  0
   -0.6543   -1.6410   -0.9207 O   0  0  0  0  0  0  0  0  0  0  0  0
    0.2627   -1.2715    0.0567 C   0  0  0  0  0  0  0  0  0  0  0  0
    0.2907   -2.2515    1.0334 C   0  0  0  0  0  0  0  0  0  0  0  0
   -0.5837   -3.2814    0.6188 C   0  0  0  0  0  0  0  0  0  0  0  0
   -1.1544   -2.8754   -0.5689 C   0  0  0  0  0  0  0  0  0  0  0  0
   -2.1240   -3.5478   -1.3893 C   0  0  0  0  0  0  0  0  0  0  0  0
   -2.9370   -4.2155   -2.0131 C   0  0  0  0  0  0  0  0  0  0  0  0
   -3.8588   -5.0350   -2.7847 C   0  0  0  0  0  0  0  0  0  0  0  0
   -3.8095   -6.4383   -2.7446 C   0  0  0  0  0  0  0  0  0  0  0  0
   -4.5389   -7.2166   -3.6643 C   0  0  0  0  0  0  0  0  0  0  0  0
   -5.4339   -6.6131   -4.5423 C   0  0  0  0  0  0  0  0  0  0  0  0
   -5.6177   -5.2352   -4.4760 C   0  0  0  0  0  0  0  0  0  0  0  0
   -4.7974   -4.4485   -3.6458 C   0  0  0  0  0  0  0  0  0  0  0  0
    7.4939    0.0129    1.5471 O   0  0  0  0  0  0  0  0  0  0  0  0
    6.2260    0.3815    2.1791 C   0  0  0  0  0  0  0  0  0  0  0  0
    5.0828    0.1653    1.1643 C   0  0  0  0  0  0  0  0  0  0  0  0
    5.9082    0.1514   -0.0805 C   0  0  0  0  0  0  0  0  0  0  0  0
    7.2486    0.1480    0.1994 C   0  0  0  0  0  0  0  0  0  0  0  0
    5.4707    0.1538   -1.3960 C   0  0  0  0  0  0  0  0  0  0  0  0
    6.3131    0.4072   -2.4528 C   0  0  0  0  0  0  0  0  0  0  0  0
    7.6766    0.4435   -2.1736 C   0  0  0  0  0  0  0  0  0  0  0  0
    8.1565    0.2427   -0.8503 C   0  0  0  0  0  0  0  0  0  0  0  0
    2.3832   -0.0109    0.1241 N   0  0  0  0  0  0  0  0  0  0  0  0
    3.2115   -1.2399    0.1913 C   0  0  0  0  0  0  0  0  0  0  0  0
    4.2764   -1.1403    1.2972 C   0  0  0  0  0  0  0  0  0  0  0  0
    4.1210    1.3634    1.2261 C   0  0  0  0  0  0  0  0  0  0  0  0
    3.0845    1.2922    0.1146 C   0  0  0  0  0  0  0  0  0  0  0  0
    5.6623    0.6690   -3.7865 C   0  0  0  0  0  0  0  0  0  0  0  0
    5.9308    2.0252   -4.2414 N   0  0  0  0  0  0  0  0  0  0  0  0
  1  2  2  0
  1  4  1  0
  1 25  1  0
  3  4  1  0
  3  7  1  0
  4  5  2  0
  5  6  1  0
  6  7  2  0
  7  8  1  0
  8  9  3  0
  9 10  1  0
 10 11  2  0
 10 15  1  0
 11 12  1  0
 12 13  2  0
 13 14  1  0
 14 15  2  0
 16 17  1  0
 16 20  1  0
 17 18  1  0
 18 19  1  0
 19 20  2  0
 21 22  2  0
 21 19  1  0
 22 23  1  0
 22 30  1  0
 23 24  2  0
 24 20  1  0
 25 26  1  0
 25 29  1  0
 26 27  1  0
 27 18  1  0
 28 29  1  0
 28 18  1  0
 30 31  1  0
M  END
>  <DRUGBANK_ID>  (1) 
DB06962

>  <COMMON_NAME>  (1) 
JNJ-27390467

>  <CAS_NUMBER>  (1) 
1025795-11-2

>  <UNII>  (1) 
B700BD3K5Y

$$$$
