MR6
     RDKit          3D

 17 19  0  0  0  0  0  0  0  0999 V2000
    2.5207    1.0649    0.0152 C   0  0  0  0  0  0  0  0  0  0  0  0
    1.2218    0.3119    0.0293 C   0  0  0  0  0  0  0  0  0  0  0  0
    1.2119   -1.0916    0.0503 C   0  0  0  0  0  0  0  0  0  0  0  0
    0.0026    1.0086    0.0110 C   0  0  0  0  0  0  0  0  0  0  0  0
   -1.2168    0.3187    0.0113 C   0  0  0  0  0  0  0  0  0  0  0  0
   -2.5226    1.0579   -0.0052 C   0  0  0  0  0  0  0  0  0  0  0  0
   -1.2031   -1.0809    0.0124 C   0  0  0  0  0  0  0  0  0  0  0  0
    0.0026   -1.7946    0.0349 C   0  0  0  0  0  0  0  0  0  0  0  0
   -0.0364   -3.2443   -0.0688 C   0  0  0  0  0  0  0  0  0  0  0  0
    0.5678   -3.9700    0.9299 O   0  0  0  0  0  0  0  0  0  0  0  0
    0.3257   -5.2705    0.5700 C   0  0  0  0  0  0  0  0  0  0  0  0
    0.7021   -6.4338    1.2350 C   0  0  0  0  0  0  0  0  0  0  0  0
    0.3372   -7.6379    0.6119 C   0  0  0  0  0  0  0  0  0  0  0  0
   -0.3609   -7.6529   -0.6026 C   0  0  0  0  0  0  0  0  0  0  0  0
   -0.7339   -6.4594   -1.2332 C   0  0  0  0  0  0  0  0  0  0  0  0
   -0.3836   -5.2516   -0.6207 C   0  0  0  0  0  0  0  0  0  0  0  0
   -0.6291   -3.9629   -1.0014 N   0  0  0  0  0  0  0  0  0  0  0  0
  1  2  1  0
  2  4  2  0
  2  3  1  0
  3  8  2  0
  4  5  1  0
  5  6  1  0
  5  7  2  0
  7  8  1  0
  8  9  1  0
  9 10  1  0
  9 17  2  0
 10 11  1  0
 11 16  2  0
 11 12  1  0
 12 13  2  0
 13 14  1  0
 14 15  2  0
 15 16  1  0
 16 17  1  0
M  END
>  <DRUGBANK_ID>  (1) 
DB08207

>  <COMMON_NAME>  (1) 
2-(3,5-DIMETHYLPHENYL)-1,3-BENZOXAZOLE

>  <UNII>  (1) 
M3R7JN0FDL

$$$$
