
     RDKit          3D

 27 28  0  0  0  0  0  0  0  0999 V2000
    7.4631    4.9592   -1.2111 C   0  0  0  0  0  0  0  0  0  0  0  0
    6.4263    4.0380   -0.9885 C   0  0  0  0  0  0  0  0  0  0  0  0
    6.7100    2.6727   -0.9946 C   0  0  0  0  0  0  0  0  0  0  0  0
    8.0007    2.2314   -1.3383 C   0  0  0  0  0  0  0  0  0  0  0  0
    9.0315    3.1444   -1.6017 C   0  0  0  0  0  0  0  0  0  0  0  0
    8.7550    4.5093   -1.5246 C   0  0  0  0  0  0  0  0  0  0  0  0
   10.2559    2.6049   -1.9024 O   0  0  0  0  0  0  0  0  0  0  0  0
   11.3279    3.5306   -2.0893 C   0  0  0  0  0  0  0  0  0  0  0  0
    4.7283    4.6219   -0.7708 S   0  0  0  0  0  0  0  0  0  0  0  0
    3.8726    4.0551   -2.2383 N   0  0  0  0  0  0  0  0  0  0  0  0
    4.1630    3.9266    0.3769 O   0  0  0  0  0  0  0  0  0  0  0  0
    4.7841    6.0567   -0.7843 O   0  0  0  0  0  0  0  0  0  0  0  0
    4.6055    4.5635   -3.4402 C   0  0  0  0  0  0  0  0  0  0  0  0
    4.6047    6.0513   -3.6058 C   0  0  0  0  0  0  0  0  0  0  0  0
    3.5406    6.8725   -3.2247 C   0  0  0  0  0  0  0  0  0  0  0  0
    3.4278    8.2010   -3.5121 C   0  0  0  0  0  0  0  0  0  0  0  0
    4.5859    8.7696   -3.9349 C   0  0  0  0  0  0  0  0  0  0  0  0
    5.7249    8.0751   -4.2074 N   0  0  0  0  0  0  0  0  0  0  0  0
    5.6957    6.7277   -4.0774 C   0  0  0  0  0  0  0  0  0  0  0  0
    2.3227    4.3224   -2.2636 C   0  0  2  0  0  0  0  0  0  0  0  0
    1.4576    3.1055   -1.8620 C   0  0  0  0  0  0  0  0  0  0  0  0
    0.0367    3.2596   -2.4511 C   0  0  0  0  0  0  0  0  0  0  0  0
    2.0612    1.7505   -2.2077 C   0  0  0  0  0  0  0  0  0  0  0  0
    1.6896    4.9446   -3.5865 C   0  0  0  0  0  0  0  0  0  0  0  0
    0.9355    5.9277   -3.5400 O   0  0  0  0  0  0  0  0  0  0  0  0
    1.9227    4.3988   -4.8097 N   0  0  0  0  0  0  0  0  0  0  0  0
    2.3443    3.0817   -5.0046 O   0  0  0  0  0  0  0  0  0  0  0  0
  1  2  2  0
  2  9  1  0
  2  3  1  0
  3  4  2  0
  4  5  1  0
  5  6  2  0
  5  7  1  0
  6  1  1  0
  7  8  1  0
  9 10  1  0
  9 11  2  0
  9 12  2  0
 10 13  1  0
 13 14  1  0
 14 15  2  0
 15 16  1  0
 16 17  2  0
 17 18  1  0
 18 19  2  0
 19 14  1  0
 20 24  1  6
 20 21  1  0
 20 10  1  0
 21 22  1  0
 21 23  1  0
 24 25  2  0
 24 26  1  0
 26 27  1  0
M  END
>  <DRUGBANK_ID>  (1) 
DB07556

>  <COMMON_NAME>  (1) 
CGS-27023

>  <CAS_NUMBER>  (1) 
161314-70-1

>  <UNII>  (1) 
80AXY59IT2

$$$$
