
     RDKit          3D

 32 34  0  0  0  0  0  0  0  0999 V2000
    1.3691   -0.1788   -0.0027 C   0  0  0  0  0  0  0  0  0  0  0  0
   -0.4847    1.3401    0.0322 C   0  0  0  0  0  0  0  0  0  0  0  0
    0.4780   -1.2669    0.0215 C   0  0  0  0  0  0  0  0  0  0  0  0
   -1.3582    0.2534    0.0068 C   0  0  0  0  0  0  0  0  0  0  0  0
    1.7316    5.5024   -1.8327 C   0  0  0  0  0  0  0  0  0  0  0  0
    0.2789    6.0012   -1.8520 C   0  0  0  0  0  0  0  0  0  0  0  0
   -3.2190   -2.0600    0.0857 C   0  0  0  0  0  0  0  0  0  0  0  0
   -4.4396   -1.8497   -2.1695 C   0  0  0  0  0  0  0  0  0  0  0  0
    0.8886    1.1381   -0.0403 C   0  0  0  0  0  0  0  0  0  0  0  0
   -0.9079   -1.0683    0.0150 C   0  0  0  0  0  0  0  0  0  0  0  0
   -3.7747   -2.7610   -1.1373 C   0  0  0  0  0  0  0  0  0  0  0  0
    2.1962    4.7003   -0.5961 C   0  0  1  0  0  0  0  0  0  0  0  0
   -0.0263    7.1617   -0.9382 C   0  0  0  0  0  0  0  0  0  0  0  0
   -4.0957   -4.6132   -2.4212 C   0  0  0  0  0  0  0  0  0  0  0  0
   -4.7112   -3.9473   -3.4299 C   0  0  0  0  0  0  0  0  0  0  0  0
    1.8448    2.2673   -0.2537 C   0  0  0  0  0  0  0  0  0  0  0  0
   -3.9410   -6.0740   -2.7091 C   0  0  0  0  0  0  0  0  0  0  0  0
    2.3863    5.5475    0.6698 C   0  0  0  0  0  0  0  0  0  0  0  0
   -4.9116   -5.9686   -4.7074 C   0  0  0  0  0  0  0  0  0  0  0  0
   -5.3105   -6.5547   -5.7834 N   0  0  0  0  0  0  0  0  0  0  0  0
   -1.7663   -2.1436    0.0674 N   0  0  0  0  0  0  0  0  0  0  0  0
   -4.9379   -2.5972   -3.3051 N   0  0  0  0  0  0  0  0  0  0  0  0
   -3.6295   -4.0525   -1.2492 N   0  0  0  0  0  0  0  0  0  0  0  0
    1.3243    3.5430   -0.3911 N   0  0  0  0  0  0  0  0  0  0  0  0
   -5.0951   -4.6347   -4.5443 N   0  0  0  0  0  0  0  0  0  0  0  0
   -4.3059   -6.7436   -3.7534 N   0  0  0  0  0  0  0  0  0  0  0  0
    0.1160    8.3337   -1.1851 O   0  0  0  0  0  0  0  0  0  0  0  0
   -0.4493    6.7681    0.2758 O   0  0  0  0  0  0  0  0  0  0  0  0
    3.0439    2.0338   -0.3613 O   0  0  0  0  0  0  0  0  0  0  0  0
   -3.3286   -6.7162   -1.6922 O   0  0  0  0  0  0  0  0  0  0  0  0
    3.3246    6.2916    0.9042 O   0  0  0  0  0  0  0  0  0  0  0  0
    1.3112    5.5845    1.4815 O   0  0  0  0  0  0  0  0  0  0  0  0
  3  1  2  0
  4  2  1  0
  6  5  1  0
  9  1  1  0
  9  2  2  0
 10  3  1  0
 10  4  2  0
 11  7  1  0
 11  8  1  0
 12  5  1  6
 12 18  1  0
 12 24  1  0
 13  6  1  0
 15 14  2  0
 16  9  1  0
 17 14  1  0
 20 19  2  0
 21  7  1  0
 21 10  1  0
 22  8  1  0
 22 15  1  0
 23 11  2  0
 23 14  1  0
 24 16  1  0
 25 15  1  0
 25 19  1  0
 26 17  2  0
 26 19  1  0
 27 13  2  0
 28 13  1  0
 29 16  2  0
 30 17  1  0
 31 18  2  0
 32 18  1  0
M  END
>  <DRUGBANK_ID>  (1) 
DB02015

>  <SECONDARY_ACCESSION_NUMBERS>  (1) 
EXPT01190

>  <COMMON_NAME>  (1) 
Dihydrofolic Acid

>  <CAS_NUMBER>  (1) 
4033-27-6

>  <UNII>  (1) 
KXP0KNM559

$$$$
