1354
     RDKit          3D

 18 19  0  0  0  0  0  0  0  0999 V2000
   -2.4134   -1.1565    0.0322 O   0  0  0  0  0  0  0  0  0  0  0  0
    2.4203   -1.1314   -0.2348 O   0  0  0  0  0  0  0  0  0  0  0  0
   -0.0047    2.6191    0.0007 O   0  0  0  0  0  0  0  0  0  0  0  0
   -1.1518    0.6810    0.0208 N   0  0  0  0  0  0  0  0  0  0  0  0
    1.1572    0.6923   -0.0097 N   0  0  0  0  0  0  0  0  0  0  0  0
    0.0050   -1.5140   -0.0835 C   0  0  0  0  0  0  0  0  0  0  0  0
    0.0385   -2.5008    1.1230 C   0  0  0  0  0  0  0  0  0  0  0  0
   -1.1212   -3.4813    1.2294 C   0  0  0  0  0  0  0  0  0  0  0  0
   -0.7862   -4.9414    1.5088 C   0  0  0  0  0  0  0  0  0  0  0  0
   -0.0068   -2.2545   -1.4495 C   0  0  0  0  0  0  0  0  0  0  0  0
   -0.2666   -5.2074    2.9128 C   0  0  0  0  0  0  0  0  0  0  0  0
    1.1667   -4.7508    3.1140 C   0  0  0  0  0  0  0  0  0  0  0  0
    1.0153   -2.4236    2.0528 C   0  0  0  0  0  0  0  0  0  0  0  0
    1.3053   -3.2476    3.2593 C   0  0  0  0  0  0  0  0  0  0  0  0
   -1.2780   -0.6764    0.0157 C   0  0  0  0  0  0  0  0  0  0  0  0
    1.2870   -0.6583   -0.1100 C   0  0  0  0  0  0  0  0  0  0  0  0
    0.0398   -1.2877   -2.6345 C   0  0  0  0  0  0  0  0  0  0  0  0
   -0.0002    1.3963    0.0068 C   0  0  0  0  0  0  0  0  0  0  0  0
  1 15  2  0
  2 16  2  0
  3 18  2  0
  4 15  1  0
  4 18  1  0
  5 16  1  0
  5 18  1  0
  6  7  1  0
  6 10  1  0
  6 15  1  0
  6 16  1  0
  7  8  1  0
  7 13  2  0
  8  9  1  0
  9 11  1  0
 10 17  1  0
 11 12  1  0
 12 14  1  0
 13 14  1  0
M  END
>  <DRUGBANK_ID>  (1) 
DB01354

>  <COMMON_NAME>  (1) 
Heptabarbital

>  <CAS_NUMBER>  (1) 
509-86-4

>  <UNII>  (1) 
V10R70ML23

>  <SYNONYMS>  (1) 
Heptabarb; Heptabarbe; Heptabarbital; Heptabarbitone; Heptabarbo; Heptabarbum

$$$$
