
     RDKit          3D

 27 29  0  0  0  0  0  0  0  0999 V2000
    0.6099    0.0870    0.2301 C   0  0  0  0  0  0  0  0  0  0  0  0
    0.5415   -4.2895   -1.0669 C   0  0  0  0  0  0  0  0  0  0  0  0
   -4.0838    2.2293   -6.6877 C   0  0  0  0  0  0  0  0  0  0  0  0
    0.2379   -1.3336   -0.1905 C   0  0  0  0  0  0  0  0  0  0  0  0
    0.2846   -3.7348    0.3195 C   0  0  0  0  0  0  0  0  0  0  0  0
    3.5869    2.3790   -1.2802 C   0  0  0  0  0  0  0  0  0  0  0  0
    4.1550    1.4645   -0.4104 C   0  0  0  0  0  0  0  0  0  0  0  0
    2.7859    1.9404   -2.3396 C   0  0  0  0  0  0  0  0  0  0  0  0
    3.8505    0.1272   -0.5562 C   0  0  0  0  0  0  0  0  0  0  0  0
   -0.5044    0.4872   -5.4717 C   0  0  0  0  0  0  0  0  0  0  0  0
   -1.6181   -1.6431   -5.3417 C   0  0  0  0  0  0  0  0  0  0  0  0
   -1.7012    1.1064   -5.8035 C   0  0  0  0  0  0  0  0  0  0  0  0
   -2.8377   -1.0024   -5.5812 C   0  0  0  0  0  0  0  0  0  0  0  0
    2.3324   -2.4412    0.6219 C   0  0  0  0  0  0  0  0  0  0  0  0
    3.1646   -2.6148   -0.7026 C   0  0  0  0  0  0  0  0  0  0  0  0
    0.9023   -1.5689   -5.1126 C   0  0  0  0  0  0  0  0  0  0  0  0
   -0.4355   -0.8985   -5.2984 C   0  0  0  0  0  0  0  0  0  0  0  0
   -2.8736    0.3626   -5.8830 C   0  0  0  0  0  0  0  0  0  0  0  0
    2.5939    0.5779   -2.5714 C   0  0  0  0  0  0  0  0  0  0  0  0
    1.6540   -1.0872   -3.8884 C   0  0  0  0  0  0  0  0  0  0  0  0
    3.1059   -0.3360   -1.6485 C   0  0  0  0  0  0  0  0  0  0  0  0
    2.1877   -2.1714   -2.9596 C   0  0  0  0  0  0  0  0  0  0  0  0
    1.8615    0.1813   -3.6934 N   0  0  0  0  0  0  0  0  0  0  0  0
    0.8577   -2.4114    0.5996 N   0  0  0  0  0  0  0  0  0  0  0  0
    2.8118   -1.7092   -1.7949 N   0  0  0  0  0  0  0  0  0  0  0  0
    2.0310   -3.3265   -3.2824 O   0  0  0  0  0  0  0  0  0  0  0  0
   -4.0897    0.8700   -6.2540 O   0  0  0  0  0  0  0  0  0  0  0  0
  4  1  1  0
  5  2  1  0
  7  6  2  0
  8  6  1  0
  9  7  1  0
 12 10  2  0
 13 11  1  0
 15 14  1  0
 17 10  1  0
 17 11  2  0
 17 16  1  0
 18 12  1  0
 18 13  2  0
 19  8  2  0
 20 16  1  0
 21  9  2  0
 21 19  1  0
 22 20  1  0
 23 19  1  0
 23 20  2  0
 24  4  1  0
 24  5  1  0
 24 14  1  0
 25 15  1  0
 25 21  1  0
 25 22  1  0
 26 22  2  0
 27  3  1  0
 27 18  1  0
M  END
>  <DRUGBANK_ID>  (1) 
DB13835

>  <COMMON_NAME>  (1) 
Caroverine

>  <CAS_NUMBER>  (1) 
23465-76-1

>  <UNII>  (1) 
XJ73B0K6KB

>  <SYNONYMS>  (1) 
Caroverine

$$$$
