
     RDKit          3D

 16 18  0  0  0  0  0  0  0  0999 V2000
   -2.4465    0.6641   -0.0025 C   0  0  0  0  0  0  0  0  0  0  0  0
   -2.4459   -0.7359   -0.0835 C   0  0  0  0  0  0  0  0  0  0  0  0
   -1.2525   -1.4773   -0.0801 C   0  0  0  0  0  0  0  0  0  0  0  0
   -0.0403   -0.7509   -0.0296 C   0  0  0  0  0  0  0  0  0  0  0  0
   -0.0430    0.6578    0.0148 C   0  0  0  0  0  0  0  0  0  0  0  0
   -1.2432    1.3586    0.0486 C   0  0  0  0  0  0  0  0  0  0  0  0
    1.0959    1.4244    0.0483 O   0  0  0  0  0  0  0  0  0  0  0  0
    2.2499    0.6761   -0.3381 C   0  0  0  0  0  0  0  0  0  0  0  0
    2.2625   -0.6788    0.3417 C   0  0  0  0  0  0  0  0  0  0  0  0
    1.1390   -1.4624   -0.0611 O   0  0  0  0  0  0  0  0  0  0  0  0
   -1.3302   -2.8619   -0.0347 N   0  0  0  0  0  0  0  0  0  0  0  0
   -0.5972   -3.6159    0.9832 C   0  0  0  0  0  0  0  0  0  0  0  0
    0.4285   -4.5740    0.3409 C   0  0  0  0  0  0  0  0  0  0  0  0
   -0.1606   -5.4684   -0.6829 N   0  0  0  0  0  0  0  0  0  0  0  0
   -0.8206   -4.6235   -1.7076 C   0  0  0  0  0  0  0  0  0  0  0  0
   -1.8908   -3.6553   -1.1328 C   0  0  0  0  0  0  0  0  0  0  0  0
  1  2  2  0
  1  6  1  0
  2  3  1  0
  3  4  2  0
  3 11  1  0
  4  5  1  0
  4 10  1  0
  5  6  2  0
  5  7  1  0
  7  8  1  0
  8  9  1  0
  9 10  1  0
 11 12  1  0
 11 16  1  0
 12 13  1  0
 13 14  1  0
 14 15  1  0
 15 16  1  0
M  END
>  <DRUGBANK_ID>  (1) 
DB12883

>  <COMMON_NAME>  (1) 
Eltoprazine

>  <CAS_NUMBER>  (1) 
98224-03-4

>  <UNII>  (1) 
510M006KO6

>  <SYNONYMS>  (1) 
Eltoprazine

$$$$
