
     RDKit          3D

 30 33  0  0  0  0  0  0  0  0999 V2000
    0.1418    1.2134   -0.0245 C   0  0  0  0  0  0  0  0  0  0  0  0
   -1.2574    1.2352   -0.0349 C   0  0  0  0  0  0  0  0  0  0  0  0
   -1.2862   -1.1663    0.0603 C   0  0  0  0  0  0  0  0  0  0  0  0
    0.1128   -1.1922    0.0275 C   0  0  0  0  0  0  0  0  0  0  0  0
    0.8149    0.0008   -0.0002 C   0  0  0  0  0  0  0  0  0  0  0  0
    2.1537   -0.0159   -0.0038 F   0  0  0  0  0  0  0  0  0  0  0  0
   -1.9914    0.0496    0.0295 C   0  0  0  0  0  0  0  0  0  0  0  0
   -4.3110   -0.2607    0.9621 C   0  0  0  0  0  0  0  0  0  0  0  0
   -4.2080   -0.6052    2.1197 O   0  0  0  0  0  0  0  0  0  0  0  0
   -3.3901    0.0628    0.0183 N   0  0  0  0  0  0  0  0  0  0  0  0
   -5.4772    0.0328   -0.0157 C   0  0  1  0  0  0  0  0  0  0  0  0
   -4.1598    4.3811   -0.0478 C   0  0  0  0  0  0  0  0  0  0  0  0
   -4.5364    4.1542   -2.4332 C   0  0  0  0  0  0  0  0  0  0  0  0
   -4.5720    2.7779   -2.3029 C   0  0  0  0  0  0  0  0  0  0  0  0
   -4.2176    3.0072    0.0761 C   0  0  0  0  0  0  0  0  0  0  0  0
   -4.3148    4.9392   -1.3093 C   0  0  0  0  0  0  0  0  0  0  0  0
   -4.2507    6.2850   -1.4945 O   0  0  0  0  0  0  0  0  0  0  0  0
   -4.3856    2.1808   -1.0499 C   0  0  0  0  0  0  0  0  0  0  0  0
   -4.3524    0.6512   -0.9126 C   0  0  1  0  0  0  0  0  0  0  0  0
   -6.3236   -1.0970   -0.6073 C   0  0  0  0  0  0  0  0  0  0  0  0
   -5.0596   -3.9895    2.8622 C   0  0  0  0  0  0  0  0  0  0  0  0
   -6.2013   -4.7534    2.6821 C   0  0  0  0  0  0  0  0  0  0  0  0
   -4.9791   -3.6055    0.4601 C   0  0  0  0  0  0  0  0  0  0  0  0
   -4.4281   -3.4475    1.7460 C   0  0  0  0  0  0  0  0  0  0  0  0
   -6.7320   -4.9636    1.4151 C   0  0  0  0  0  0  0  0  0  0  0  0
   -6.1243   -4.3894    0.3062 C   0  0  0  0  0  0  0  0  0  0  0  0
   -5.5268   -2.0699   -1.4880 C   0  0  0  0  0  0  0  0  0  0  0  0
   -6.7986   -5.3091    3.7426 F   0  0  0  0  0  0  0  0  0  0  0  0
   -4.4405   -2.8285   -0.7124 C   0  0  2  0  0  0  0  0  0  0  0  0
   -3.6466   -3.6098   -1.5821 O   0  0  0  0  0  0  0  0  0  0  0  0
  1  2  2  0
  1  5  1  0
  2  7  1  0
  3  4  1  0
  4  5  2  0
  5  6  1  0
  7  3  2  0
  7 10  1  0
  8 10  1  0
  8  9  2  0
 10 19  1  0
 11  8  1  0
 11 20  1  6
 12 16  2  0
 12 15  1  0
 13 14  2  0
 14 18  1  0
 16 13  1  0
 16 17  1  0
 18 15  2  0
 19 18  1  1
 19 11  1  0
 20 27  1  0
 21 22  2  0
 22 28  1  0
 22 25  1  0
 24 23  2  0
 24 21  1  0
 25 26  2  0
 26 23  1  0
 27 29  1  0
 29 23  1  0
 29 30  1  6
M  END
>  <DRUGBANK_ID>  (1) 
DB00973

>  <SECONDARY_ACCESSION_NUMBERS>  (1) 
APRD00619

>  <COMMON_NAME>  (1) 
Ezetimibe

>  <CAS_NUMBER>  (1) 
163222-33-1

>  <UNII>  (1) 
EOR26LQQ24

>  <SYNONYMS>  (1) 
Ezetimiba; ézétimibe; Ezetimibe; Ezetimibum

$$$$
