
     RDKit          3D

 25 27  0  0  1  0  0  0  0  0999 V2000
    1.3699   -5.4885   -3.5343 C   0  0  0  0  0  0  0  0  0  0  0  0
    0.4155   -4.2950   -3.5451 C   0  0  2  0  0  0  0  0  0  0  0  0
   -0.3589   -4.2333   -4.8626 C   0  0  0  0  0  0  0  0  0  0  0  0
    0.5977   -3.4889   -5.7868 C   0  0  0  0  0  0  0  0  0  0  0  0
    1.2366   -2.4547   -4.8619 C   0  0  0  0  0  0  0  0  0  0  0  0
    1.1455   -3.0262   -3.5178 N   0  0  0  0  0  0  0  0  0  0  0  0
    1.7188   -2.3926   -2.4246 C   0  0  0  0  0  0  0  0  0  0  0  0
    2.3386   -1.3329   -2.5454 O   0  0  0  0  0  0  0  0  0  0  0  0
    1.4798   -3.0087   -1.0187 C   0  0  2  0  0  0  0  0  0  0  0  0
    0.1095   -2.5523   -0.4814 C   0  0  0  0  0  0  0  0  0  0  0  0
    0.0847   -2.1281    0.9509 C   0  0  0  0  0  0  0  0  0  0  0  0
    0.1103   -0.8230    1.4029 C   0  0  0  0  0  0  0  0  0  0  0  0
    0.1411   -0.7835    3.1132 S   0  0  0  0  0  0  0  0  0  0  0  0
    0.0868   -2.4940    3.1286 C   0  0  0  0  0  0  0  0  0  0  0  0
    0.0237   -3.0837    1.9503 N   0  0  0  0  0  0  0  0  0  0  0  0
    2.6164   -2.7215   -0.1249 N   0  0  0  0  0  0  0  0  0  0  0  0
    3.4834   -3.6101    0.4640 C   0  0  0  0  0  0  0  0  0  0  0  0
    4.3777   -3.1948    1.2000 O   0  0  0  0  0  0  0  0  0  0  0  0
    3.2074   -5.1068    0.2726 C   0  0  1  0  0  0  0  0  0  0  0  0
    4.2228   -6.0721    0.5545 N   0  0  0  0  0  0  0  0  0  0  0  0
    3.6525   -7.2128    1.0580 C   0  0  0  0  0  0  0  0  0  0  0  0
    4.2156   -8.2726    1.2327 O   0  0  0  0  0  0  0  0  0  0  0  0
    2.3237   -6.9895    1.3049 O   0  0  0  0  0  0  0  0  0  0  0  0
    2.1088   -5.5713    1.2160 C   0  0  1  0  0  0  0  0  0  0  0  0
    2.2417   -4.9955    2.6252 C   0  0  0  0  0  0  0  0  0  0  0  0
  2  1  1  6
  2  3  1  0
  2  6  1  0
  3  4  1  0
  4  5  1  0
  5  6  1  0
  6  7  1  0
  7  8  2  0
  9 16  1  0
  9 10  1  1
  9  7  1  0
 10 11  1  0
 11 12  2  0
 11 15  1  0
 12 13  1  0
 13 14  1  0
 14 15  2  0
 16 17  1  0
 17 18  2  0
 19 17  1  1
 19 20  1  0
 19 24  1  0
 20 21  1  0
 21 22  2  0
 21 23  1  0
 24 23  1  0
 24 25  1  1
M  END
>  <DRUGBANK_ID>  (1) 
DB15338

>  <COMMON_NAME>  (1) 
Rovatirelin

>  <CAS_NUMBER>  (1) 
204386-76-5

>  <UNII>  (1) 
9DL0X410PY

>  <SYNONYMS>  (1) 
Rovatirelin

$$$$
