
     RDKit          3D

 17 18  0  0  0  0  0  0  0  0999 V2000
    1.0818    0.0501    0.3336 C   0  0  0  0  0  0  0  0  0  0  0  0
    0.4585    1.3739   -0.1023 C   0  0  0  0  0  0  0  0  0  0  0  0
    1.2504    1.9259   -1.2188 C   0  0  0  0  0  0  0  0  0  0  0  0
   -0.9005    1.2642   -0.5703 O   0  0  0  0  0  0  0  0  0  0  0  0
   -1.2596    0.1951   -1.4821 C   0  0  0  0  0  0  0  0  0  0  0  0
   -0.8673    0.2246   -3.0369 C   0  0  0  0  0  0  0  0  0  0  0  0
    0.5875    0.0951   -3.4770 N   0  0  0  0  0  0  0  0  0  0  0  0
    1.3328   -1.0116   -3.0266 C   0  0  0  0  0  0  0  0  0  0  0  0
    0.9231   -2.2645   -2.5255 C   0  0  0  0  0  0  0  0  0  0  0  0
    2.0655   -3.0334   -2.4387 C   0  0  0  0  0  0  0  0  0  0  0  0
    3.1370   -2.1752   -2.4392 N   0  0  0  0  0  0  0  0  0  0  0  0
    2.6996   -0.9612   -2.8946 C   0  0  0  0  0  0  0  0  0  0  0  0
    3.4836    0.2116   -3.1122 C   0  0  0  0  0  0  0  0  0  0  0  0
    4.6427    0.3516   -2.7837 O   0  0  0  0  0  0  0  0  0  0  0  0
    2.7266    1.2212   -3.6874 N   0  0  0  0  0  0  0  0  0  0  0  0
    1.3422    1.2383   -3.9594 C   0  0  0  0  0  0  0  0  0  0  0  0
    0.7119    2.6721   -4.5851 S   0  0  0  0  0  0  0  0  0  0  0  0
  1  2  1  0
  2  3  1  0
  2  4  1  0
  4  5  1  0
  5  6  1  0
  6  7  1  0
  7  8  1  0
  7 16  1  0
  8  9  1  0
  8 12  2  0
  9 10  2  0
 10 11  1  0
 11 12  1  0
 12 13  1  0
 13 14  2  0
 13 15  1  0
 15 16  1  0
 16 17  2  0
M  END
>  <DRUGBANK_ID>  (1) 
DB12440

>  <COMMON_NAME>  (1) 
Verdiperstat

>  <CAS_NUMBER>  (1) 
890655-80-8

>  <UNII>  (1) 
TT3345YXVR

>  <SYNONYMS>  (1) 
Verdiperstat

$$$$
