DEE
     RDKit          3D

 12 12  0  0  0  0  0  0  0  0999 V2000
    1.0191    0.0269    0.0014 O   0  0  0  0  0  0  0  0  0  0  0  0
    2.2641   -0.0170   -0.0163 C   0  0  0  0  0  0  0  0  0  0  0  0
    2.8354   -1.2633    0.1598 O   0  0  0  0  0  0  0  0  0  0  0  0
    4.2431   -1.5869    0.2943 C   0  0  0  0  0  0  0  0  0  0  0  0
    4.8764   -1.3388   -1.0227 C   0  0  0  0  0  0  0  0  0  0  0  0
    3.0394    1.2571   -0.0908 C   0  0  0  0  0  0  0  0  0  0  0  0
    4.0718    1.8252   -0.9747 C   0  0  0  0  0  0  0  0  0  0  0  0
    4.8286    1.3246   -2.1807 C   0  0  0  0  0  0  0  0  0  0  0  0
    2.7431    2.3478    0.7351 C   0  0  0  0  0  0  0  0  0  0  0  0
    1.7196    2.5745    1.7896 C   0  0  0  0  0  0  0  0  0  0  0  0
    3.6203    3.3398    0.4188 N   0  0  0  0  0  0  0  0  0  0  0  0
    4.4510    3.0413   -0.5700 N   0  0  0  0  0  0  0  0  0  0  0  0
  1  2  2  0
  2  3  1  0
  2  6  1  0
  3  4  1  0
  4  5  1  0
  6  7  1  0
  6  9  2  0
  7  8  1  0
  7 12  2  0
  9 10  1  0
  9 11  1  0
 11 12  1  0
M  END
>  <DRUGBANK_ID>  (1) 
DB04271

>  <SECONDARY_ACCESSION_NUMBERS>  (1) 
EXPT01155

>  <COMMON_NAME>  (1) 
3,5-Dimethyl-1h-Pyrazole-4-Carboxylic Acid Ethyl Ester

>  <UNII>  (1) 
SS3UNU86DP

$$$$
