
     RDKit          3D

 33 36  0  0  0  0  0  0  0  0999 V2000
    2.6720   -0.1356    0.0186 C   0  0  0  0  0  0  0  0  0  0  0  0
    1.2087    0.0554   -0.0287 C   0  0  0  0  0  0  0  0  0  0  0  0
    0.6834    1.3235   -0.0101 C   0  0  0  0  0  0  0  0  0  0  0  0
   -0.6848    1.4834   -0.0878 C   0  0  0  0  0  0  0  0  0  0  0  0
   -1.1182    2.4721    0.7823 N   0  0  0  0  0  0  0  0  0  0  0  0
   -2.7502    2.4172    0.9934 S   0  0  0  0  0  0  0  0  0  0  0  0
   -3.0962    3.2128    2.1078 O   0  0  0  0  0  0  0  0  0  0  0  0
   -2.8039    3.1141   -0.3315 O   0  0  0  0  0  0  0  0  0  0  0  0
   -3.8495    0.3769    0.9517 C   0  0  0  0  0  0  0  0  0  0  0  0
   -5.3666    0.0243    0.3947 C   0  0  0  0  0  0  0  0  0  0  0  0
   -6.0611   -1.1535    0.1852 C   0  0  0  0  0  0  0  0  0  0  0  0
   -5.2847   -2.2546    0.2485 C   0  0  0  0  0  0  0  0  0  0  0  0
   -6.0516   -3.7454   -0.0505 Cl  0  0  0  0  0  0  0  0  0  0  0  0
   -3.9158   -2.1055    0.5205 C   0  0  0  0  0  0  0  0  0  0  0  0
   -3.2731   -0.8422    0.9202 C   0  0  0  0  0  0  0  0  0  0  0  0
   -2.8779   -3.1124    0.0225 C   0  0  0  0  0  0  0  0  0  0  0  0
   -2.3080   -2.7923   -1.1770 F   0  0  0  0  0  0  0  0  0  0  0  0
   -1.8372   -3.1567    0.9101 F   0  0  0  0  0  0  0  0  0  0  0  0
   -3.3063   -4.3843   -0.1128 F   0  0  0  0  0  0  0  0  0  0  0  0
   -1.4832    0.5804   -0.7418 C   0  0  0  0  0  0  0  0  0  0  0  0
   -0.9241   -0.7100   -0.6818 N   0  0  0  0  0  0  0  0  0  0  0  0
    0.3242   -0.9744   -0.1708 C   0  0  0  0  0  0  0  0  0  0  0  0
   -3.1871    0.7662   -1.3241 C   0  0  0  0  0  0  0  0  0  0  0  0
   -3.5406   -0.1612   -2.0565 O   0  0  0  0  0  0  0  0  0  0  0  0
   -4.5618    1.9146   -0.8381 C   0  0  0  0  0  0  0  0  0  0  0  0
   -5.2683    2.3311    0.6775 C   0  0  0  0  0  0  0  0  0  0  0  0
   -5.5245    1.6926    2.1667 C   0  0  0  0  0  0  0  0  0  0  0  0
   -6.3636    2.5029    2.8496 C   0  0  0  0  0  0  0  0  0  0  0  0
   -6.3887    3.6557    2.1101 N   0  0  0  0  0  0  0  0  0  0  0  0
   -5.8402    3.5501    0.8267 C   0  0  0  0  0  0  0  0  0  0  0  0
   -5.7198    4.4809   -0.1246 N   0  0  0  0  0  0  0  0  0  0  0  0
   -5.1823    3.9997   -1.3127 C   0  0  0  0  0  0  0  0  0  0  0  0
   -4.8317    2.7837   -1.7966 N   0  0  0  0  0  0  0  0  0  0  0  0
  1  2  1  0
  2  3  2  0
  2 22  1  0
  3  4  1  0
  4  5  1  0
  4 20  2  0
  5  6  1  0
  6  7  2  0
  6  8  2  0
  6  9  1  0
  9 10  2  0
  9 15  1  0
 10 11  1  0
 11 12  2  0
 12 13  1  0
 12 14  1  0
 14 15  2  0
 14 16  1  0
 16 17  1  0
 16 18  1  0
 16 19  1  0
 20 21  1  0
 20 23  1  0
 21 22  2  0
 23 24  2  0
 23 25  1  0
 25 26  2  0
 25 33  1  0
 26 27  1  0
 26 30  1  0
 27 28  2  0
 28 29  1  0
 29 30  1  0
 30 31  2  0
 31 32  1  0
 32 33  2  0
M  END
>  <DRUGBANK_ID>  (1) 
DB16066

>  <COMMON_NAME>  (1) 
Ilacirnon

>  <CAS_NUMBER>  (1) 
1100318-47-5

>  <UNII>  (1) 
380F68J5PH

>  <SYNONYMS>  (1) 
4-Chloro-N-[5-methyl-2-(7H-pyrrolo[2,3-d]pyrimidin-4-ylcarbonyl)-3-pyridinyl]-3-(trifluoromethyl)benzenesulfonamide

$$$$
