
     RDKit          3D

 23 26  0  0  0  0  0  0  0  0999 V2000
   -0.7586    1.2575    1.4038 C   0  0  0  0  0  0  0  0  0  0  0  0
   -1.4645    0.5240    0.2594 C   0  0  0  0  0  0  0  0  0  0  0  0
    0.7790    1.0561    1.3726 C   0  0  0  0  0  0  0  0  0  0  0  0
   -0.9137    1.0837   -1.0812 C   0  0  0  0  0  0  0  0  0  0  0  0
    1.3279    1.6659   -0.0303 C   0  0  0  0  0  0  0  0  0  0  0  0
    0.6465    0.8930   -1.1652 C   0  0  0  0  0  0  0  0  0  0  0  0
    1.0442   -0.4867    1.5852 C   0  0  0  0  0  0  0  0  0  0  0  0
    0.3756   -1.1665    0.4315 C   0  0  0  0  0  0  0  0  0  0  0  0
   -1.1681   -0.9538    0.4998 C   0  0  0  0  0  0  0  0  0  0  0  0
    1.1651   -0.3866   -0.6092 C   0  0  0  0  0  0  0  0  0  0  0  0
    1.1798    0.9019   -2.6470 N   0  0  0  0  0  0  0  0  0  0  0  0
    1.6735   -0.0552   -3.5672 C   0  0  0  0  0  0  0  0  0  0  0  0
    2.1005    0.3540   -4.6396 O   0  0  0  0  0  0  0  0  0  0  0  0
    1.6954   -1.4526   -3.3753 N   0  0  0  0  0  0  0  0  0  0  0  0
    1.0984   -2.3739   -2.3488 C   0  0  0  0  0  0  0  0  0  0  0  0
    0.9417   -3.8682   -2.3502 C   0  0  0  0  0  0  0  0  0  0  0  0
   -0.1993   -4.2029   -3.3356 C   0  0  0  0  0  0  0  0  0  0  0  0
   -1.4888   -3.4141   -3.2250 N   0  0  0  0  0  0  0  0  0  0  0  0
   -1.2603   -2.0185   -3.2478 C   0  0  0  0  0  0  0  0  0  0  0  0
   -0.3672   -1.9393   -2.0907 C   0  0  0  0  0  0  0  0  0  0  0  0
   -2.6343   -3.9040   -2.5819 C   0  0  0  0  0  0  0  0  0  0  0  0
   -3.7836   -2.9319   -2.1904 C   0  0  0  0  0  0  0  0  0  0  0  0
   -2.7601   -5.0893   -2.3501 O   0  0  0  0  0  0  0  0  0  0  0  0
  1  2  1  0
  1  3  1  0
  2  4  1  0
  2  9  1  0
  3  5  1  0
  3  7  1  0
  4  6  1  0
  5  6  1  0
  6 11  1  0
  6 10  1  0
  7  8  1  0
  8  9  1  0
 10  8  1  0
 11 12  1  0
 12 13  2  0
 12 14  1  0
 14 15  1  0
 15 16  1  0
 15 20  1  0
 16 17  1  0
 17 18  1  0
 18 19  1  0
 18 21  1  0
 19 20  1  0
 21 22  1  0
 21 23  2  0
M  END
>  <DRUGBANK_ID>  (1) 
DB06345

>  <COMMON_NAME>  (1) 
AR-9281

>  <CAS_NUMBER>  (1) 
913548-29-5

>  <UNII>  (1) 
4HA03Q8EZ9

>  <SYNONYMS>  (1) 
APAU

$$$$
