
     RDKit          3D

  7  7  0  0  0  0  0  0  0  0999 V2000
    2.1648   -0.0292    0.2223 O   0  0  0  0  0  0  0  0  0  0  0  0
    0.9647   -0.0102   -0.0487 C   0  0  0  0  0  0  0  0  0  0  0  0
    0.2358    1.2934   -0.2935 C   0  0  0  0  0  0  0  0  0  0  0  0
   -1.1688    1.2608    0.2928 C   0  0  0  0  0  0  0  0  0  0  0  0
   -1.9363    0.0178   -0.1485 C   0  0  0  0  0  0  0  0  0  0  0  0
   -1.1930   -1.2456    0.2742 C   0  0  0  0  0  0  0  0  0  0  0  0
    0.2028   -1.2874   -0.3312 C   0  0  0  0  0  0  0  0  0  0  0  0
  1  2  2  0
  2  3  1  0
  2  7  1  0
  3  4  1  0
  4  5  1  0
  5  6  1  0
  6  7  1  0
M  END
>  <DRUGBANK_ID>  (1) 
DB02060

>  <SECONDARY_ACCESSION_NUMBERS>  (1) 
EXPT01075

>  <COMMON_NAME>  (1) 
Cyclohexanone

>  <CAS_NUMBER>  (1) 
108-94-1

>  <UNII>  (1) 
5QOR3YM052

$$$$
