
     RDKit          3D

 26 25  0  0  0  0  0  0  0  0999 V2000
   -2.0273    3.0008    4.8740 O   0  0  0  0  0  0  0  0  0  0  0  0
   -4.2852   -0.3900   -0.5020 O   0  0  0  0  0  0  0  0  0  0  0  0
   -4.2975    1.7306    0.2847 O   0  0  0  0  0  0  0  0  0  0  0  0
   -2.2993    8.5387    3.9818 O   0  0  0  0  0  0  0  0  0  0  0  0
   -0.2183    2.6175   -1.2435 O   0  0  0  0  0  0  0  0  0  0  0  0
   -4.5497    3.5092    3.7212 O   0  0  0  0  0  0  0  0  0  0  0  0
   -5.0617    5.2953    4.9531 O   0  0  0  0  0  0  0  0  0  0  0  0
   -1.2430    1.1486    0.1040 N   0  0  0  0  0  0  0  0  0  0  0  0
   -1.8326    5.1518    4.4374 N   0  0  0  0  0  0  0  0  0  0  0  0
   -3.7341    7.0359    3.1114 N   0  0  0  0  0  0  0  0  0  0  0  0
   -2.3377    0.1764   -2.3239 N   0  0  0  0  0  0  0  0  0  0  0  0
   -1.1467    1.0658    2.9248 C   0  0  0  0  0  0  0  0  0  0  0  0
   -2.4381    0.6325    2.2199 C   0  0  0  0  0  0  0  0  0  0  0  0
   -0.5382    2.4283    2.5184 C   0  0  0  0  0  0  0  0  0  0  0  0
   -2.3204    0.3583    0.7023 C   0  0  1  0  0  0  0  0  0  0  0  0
   -1.5200    3.5543    2.5826 C   0  0  0  0  0  0  0  0  0  0  0  0
   -1.7560    3.8666    4.0480 C   0  0  0  0  0  0  0  0  0  0  0  0
   -1.4091    6.3112    3.6861 C   0  0  1  0  0  0  0  0  0  0  0  0
   -3.7346    0.6464    0.1710 C   0  0  0  0  0  0  0  0  0  0  0  0
   -2.5120    7.3736    3.6503 C   0  0  0  0  0  0  0  0  0  0  0  0
   -0.0773    6.7681    4.2407 C   0  0  0  0  0  0  0  0  0  0  0  0
   -1.1709    1.8618   -1.0564 C   0  0  0  0  0  0  0  0  0  0  0  0
   -4.2197    5.7064    2.7028 C   0  0  2  0  0  0  0  0  0  0  0  0
   -2.2464    1.6367   -2.0988 C   0  0  0  0  0  0  0  0  0  0  0  0
   -5.5084    5.7664    1.8865 C   0  0  0  0  0  0  0  0  0  0  0  0
   -4.6144    4.8469    3.9262 C   0  0  0  0  0  0  0  0  0  0  0  0
  1 17  2  0
  2 19  1  0
  3 19  2  0
  4 20  2  0
  5 22  2  0
  6 26  1  0
  7 26  2  0
  8 22  1  0
  9 17  1  0
 10 20  1  0
 11 24  1  0
 12 13  1  0
 12 14  1  0
 14 16  1  0
 15 19  1  0
 15 13  1  1
 15  8  1  0
 16 17  1  0
 18  9  1  0
 18 20  1  0
 18 21  1  1
 22 24  1  0
 23 26  1  0
 23 25  1  6
 23 10  1  0
M  END
>  <DRUGBANK_ID>  (1) 
DB02578

>  <SECONDARY_ACCESSION_NUMBERS>  (1) 
EXPT02773

>  <COMMON_NAME>  (1) 
N-[(6S)-6-Carboxy-6-(glycylamino)hexanoyl]-D-alanyl-D-alanine

>  <SYNONYMS>  (1) 
Glycyl-L-alpha-amino-epsilon-pimelyl-D-alanyl-D-alanine

$$$$
