A18
     RDKit          3D

 16 17  0  0  0  0  0  0  0  0999 V2000
    1.0191   -0.0647    0.0155 O   0  0  0  0  0  0  0  0  0  0  0  0
    2.2454   -0.0939    0.1017 C   0  0  0  0  0  0  0  0  0  0  0  0
    3.0156    0.8705   -0.4651 O   0  0  0  0  0  0  0  0  0  0  0  0
    2.9988   -1.1683    0.7104 C   0  0  0  0  0  0  0  0  0  0  0  0
    4.1419   -0.9220    1.4204 O   0  0  0  0  0  0  0  0  0  0  0  0
    2.7289   -2.5217    0.7643 C   0  0  0  0  0  0  0  0  0  0  0  0
    3.7615   -3.1295    1.5144 C   0  0  0  0  0  0  0  0  0  0  0  0
    4.6016   -2.1157    1.9183 C   0  0  0  0  0  0  0  0  0  0  0  0
    5.8433   -2.1307    2.7584 C   0  0  0  0  0  0  0  0  0  0  0  0
    7.0752   -1.6085    2.0533 C   0  0  0  0  0  0  0  0  0  0  0  0
    8.1400   -2.4919    1.7729 C   0  0  0  0  0  0  0  0  0  0  0  0
    9.2897   -2.0405    1.1186 C   0  0  0  0  0  0  0  0  0  0  0  0
    9.3885   -0.7104    0.7228 C   0  0  0  0  0  0  0  0  0  0  0  0
    8.3518    0.1736    0.9994 C   0  0  0  0  0  0  0  0  0  0  0  0
    7.2180   -0.2588    1.6844 C   0  0  0  0  0  0  0  0  0  0  0  0
    6.0840    0.9803    2.0970 Cl  0  0  0  0  0  0  0  0  0  0  0  0
  1  2  2  0
  2  4  1  0
  2  3  1  0
  4  5  1  0
  4  6  2  0
  5  8  1  0
  6  7  1  0
  7  8  2  0
  8  9  1  0
  9 10  1  0
 10 11  2  0
 10 15  1  0
 11 12  1  0
 12 13  2  0
 13 14  1  0
 14 15  2  0
 15 16  1  0
M  END
>  <DRUGBANK_ID>  (1) 
DB07308

>  <COMMON_NAME>  (1) 
5-(2-CHLOROBENZYL)-2-FUROIC ACID

$$$$
