
     RDKit          3D

 17 16  0  0  0  0  0  0  0  0999 V2000
    1.7272    0.7058   -0.0715 C   0  0  0  0  0  0  0  0  0  0  0  0
    0.9675    1.1322    1.0473 O   0  0  0  0  0  0  0  0  0  0  0  0
    1.4150    0.5076    2.2481 C   0  0  0  0  0  0  0  0  0  0  0  0
    1.2606   -1.0342    2.3232 C   0  0  0  0  0  0  0  0  0  0  0  0
    1.3715   -1.9446    1.2368 O   0  0  0  0  0  0  0  0  0  0  0  0
    0.3261   -1.7399    0.1874 C   0  0  0  0  0  0  0  0  0  0  0  0
   -1.0836   -0.8960    0.1870 C   0  0  0  0  0  0  0  0  0  0  0  0
   -1.6126   -0.3098    1.4209 O   0  0  0  0  0  0  0  0  0  0  0  0
   -1.4148   -0.7918    2.8195 C   0  0  0  0  0  0  0  0  0  0  0  0
   -1.0996   -2.4660    3.2216 C   0  0  0  0  0  0  0  0  0  0  0  0
   -1.0802   -3.5961    2.2218 O   0  0  0  0  0  0  0  0  0  0  0  0
   -1.7271   -3.4660    0.8968 C   0  0  0  0  0  0  0  0  0  0  0  0
   -3.2687   -2.9330    0.4322 C   0  0  0  0  0  0  0  0  0  0  0  0
   -4.0744   -2.1031    1.2971 O   0  0  0  0  0  0  0  0  0  0  0  0
   -3.7720   -2.4320    2.6261 C   0  0  0  0  0  0  0  0  0  0  0  0
   -3.8563   -3.8852    3.1213 C   0  0  0  0  0  0  0  0  0  0  0  0
   -3.2308   -4.9201    2.3784 O   0  0  0  0  0  0  0  0  0  0  0  0
  1  2  1  0
  2  3  1  0
  3  4  1  0
  4  5  1  0
  5  6  1  0
  6  7  1  0
  7  8  1  0
  8  9  1  0
  9 10  1  0
 10 11  1  0
 11 12  1  0
 12 13  1  0
 13 14  1  0
 14 15  1  0
 15 16  1  0
 16 17  1  0
M  END
>  <DRUGBANK_ID>  (1) 
DB02042

>  <SECONDARY_ACCESSION_NUMBERS>  (1) 
EXPT00082

>  <COMMON_NAME>  (1) 
2-(2-{2-[2-(2-Methoxy-Ethoxy)-Ethoxy]-Ethoxy}-Ethoxy)-Ethanol

$$$$
