Pregnenolone.mol
     RDKit          3D

 16 16  0  0  0  0  0  0  0  0999 V2000
   -1.1448    0.0084   -0.0146 N   0  0  0  0  0  0  0  0  0  0  0  0
   -0.2927    1.0853   -0.0029 C   0  0  0  0  0  0  0  0  0  0  0  0
    1.0218    0.6306   -0.0107 C   0  0  0  0  0  0  0  0  0  0  0  0
    0.9278   -0.8130   -0.0506 C   0  0  0  0  0  0  0  0  0  0  0  0
   -0.4156   -1.1473   -0.0404 C   0  0  0  0  0  0  0  0  0  0  0  0
    3.9030    0.2241    1.4022 C   0  0  0  0  0  0  0  0  0  0  0  0
    3.1396    1.4825    1.2293 C   0  0  0  0  0  0  0  0  0  0  0  0
    2.2491    1.5275   -0.0115 C   0  0  0  0  0  0  0  0  0  0  0  0
    5.0068   -0.0867    0.9552 O   0  0  0  0  0  0  0  0  0  0  0  0
    3.2203   -0.6616    2.1084 O   0  0  0  0  0  0  0  0  0  0  0  0
    1.9809   -1.8839   -0.0816 C   0  0  0  0  0  0  0  0  0  0  0  0
    1.8999   -2.8736    1.1195 C   0  0  0  0  0  0  0  0  0  0  0  0
    2.2256   -4.0519    1.0760 O   0  0  0  0  0  0  0  0  0  0  0  0
    1.5678   -2.3359    2.3165 O   0  0  0  0  0  0  0  0  0  0  0  0
   -1.0159   -2.5085   -0.0239 C   0  0  0  0  0  0  0  0  0  0  0  0
   -1.7567   -2.7125    1.2066 N   0  0  0  0  0  0  0  0  0  0  0  0
  1  2  1  0
  1  5  1  0
  2  3  2  0
  3  4  1  0
  3  8  1  0
  4  5  2  0
  4 11  1  0
  5 15  1  0
  6  7  1  0
  6  9  2  0
  6 10  1  0
  7  8  1  0
 11 12  1  0
 12 13  2  0
 12 14  1  0
 15 16  1  0
M  END
>  <DRUGBANK_ID>  (1) 
DB02272

>  <SECONDARY_ACCESSION_NUMBERS>  (1) 
EXPT02507

>  <COMMON_NAME>  (1) 
Porphobilinogen

>  <CAS_NUMBER>  (1) 
487-90-1

>  <UNII>  (1) 
74KHC72QXK

>  <SYNONYMS>  (1) 
5-(Aminomethyl)-4-(carboxymethyl)-1H-pyrrole-3-propionic acid; Porphobilinogen

$$$$
