PU2
     RDKit          3D

 22 24  0  0  0  0  0  0  0  0999 V2000
    0.7646   -0.0666    0.0348 C   0  0  0  0  0  0  0  0  0  0  0  0
    5.1808    2.4891   -2.3551 N   0  0  0  0  0  0  0  0  0  0  0  0
    6.0035    1.9145   -3.2834 C   0  0  0  0  0  0  0  0  0  0  0  0
    6.9193    2.5594   -4.0140 N   0  0  0  0  0  0  0  0  0  0  0  0
    7.5936    1.7326   -4.8241 C   0  0  0  0  0  0  0  0  0  0  0  0
    3.3595    1.5549   -0.8692 C   0  0  0  0  0  0  0  0  0  0  0  0
    7.4525    0.3912   -4.9553 N   0  0  0  0  0  0  0  0  0  0  0  0
    5.7848    0.5526   -3.3643 C   0  0  0  0  0  0  0  0  0  0  0  0
    6.5294   -0.2302   -4.2117 C   0  0  0  0  0  0  0  0  0  0  0  0
    6.3714   -1.5894   -4.3109 N   0  0  0  0  0  0  0  0  0  0  0  0
    4.7799    0.3108   -2.4840 N   0  0  0  0  0  0  0  0  0  0  0  0
    4.4323    1.5027   -1.8995 C   0  0  0  0  0  0  0  0  0  0  0  0
    0.8571    1.8544   -1.3822 C   0  0  0  0  0  0  0  0  0  0  0  0
    2.1541    2.3682   -1.2577 C   0  0  0  0  0  0  0  0  0  0  0  0
    2.3751    3.7363   -1.5383 C   0  0  0  0  0  0  0  0  0  0  0  0
   -0.1642    2.6945   -1.8560 C   0  0  0  0  0  0  0  0  0  0  0  0
    0.0872    4.0417   -2.1621 C   0  0  0  0  0  0  0  0  0  0  0  0
    1.3631    4.5727   -2.0004 C   0  0  0  0  0  0  0  0  0  0  0  0
    8.5337    2.3024   -5.5931 F   0  0  0  0  0  0  0  0  0  0  0  0
    1.5205    5.8913   -2.3329 O   0  0  0  0  0  0  0  0  0  0  0  0
    0.5283    0.5302   -1.2406 O   0  0  0  0  0  0  0  0  0  0  0  0
    2.8375    6.4237   -2.1886 C   0  0  0  0  0  0  0  0  0  0  0  0
  1 21  1  0
  2  3  1  0
  2 12  2  0
  3  4  2  0
  3  8  1  0
  4  5  1  0
  5  7  2  0
  5 19  1  0
  6 12  1  0
  6 14  1  0
  7  9  1  0
  8  9  2  0
  8 11  1  0
  9 10  1  0
 11 12  1  0
 13 14  2  0
 13 16  1  0
 13 21  1  0
 14 15  1  0
 15 18  2  0
 16 17  2  0
 17 18  1  0
 18 20  1  0
 20 22  1  0
M  END
>  <DRUGBANK_ID>  (1) 
DB03093

>  <SECONDARY_ACCESSION_NUMBERS>  (1) 
EXPT02693

>  <COMMON_NAME>  (1) 
8-(2,5-Dimethoxy-Benzyl)-2-Fluoro-9h-Purin-6-Ylamine

$$$$
